
#######################################################################
#
#                 Cambridge Crystallographic Data Centre
#                                CCDC 
#
#######################################################################
#
# If this CIF has been generated from an entry in the Cambridge 
# Structural Database, then it will include bibliographic, chemical, 
# crystal, experimental, refinement or atomic coordinate data resulting 
# from the CCDC's data processing and validation procedures.
#
#######################################################################

data_LEMWOR
_chemical_formula_moiety         'C23 H26 N4 O2'
_chemical_name_systematic        
1,3-Dibenzyltetrahydro-6H,10H-pyrrolo[2',1':2,3]pyrimido[1,2-a][1,3,5]triazine-2,4(1H,3H)-dione
_symmetry_cell_setting           monoclinic
_symmetry_space_group_name_H-M   'P c'
_symmetry_Int_Tables_number      7
_space_group_name_Hall           'P -2yc'
loop_
_symmetry_equiv_pos_site_id
_symmetry_equiv_pos_as_xyz
1 x,y,z
2 x,-y,1/2+z
_cell_length_a                   17.848(4)
_cell_length_b                   16.102(3)
_cell_length_c                   22.302(5)
_cell_angle_alpha                90
_cell_angle_beta                 110.45(3)
_cell_angle_gamma                90
_cell_volume                     6005.41
_exptl_crystal_colour            colorless
_cell_formula_units_Z            12
loop_
_atom_site_label
_atom_site_type_symbol
_atom_site_fract_x
_atom_site_fract_y
_atom_site_fract_z
O1 O 0.2805(2) 0.2090(2) 0.33228(19)
O12 O 0.1129(3) 0.0626(2) 0.4053(2)
N8 N 0.3035(3) 0.0711(3) 0.35014(19)
C5 C 0.2589(4) 0.1408(4) 0.3446(3)
N11 N 0.1868(3) 0.1311(3) 0.3559(2)
N15 N 0.3268(3) -0.0730(3) 0.3739(2)
N24 N 0.2166(3) -0.0046(3) 0.3892(2)
C12 C 0.1695(5) 0.0611(4) 0.3844(4)
C18 C 0.4521(4) 0.0761(3) 0.3905(3)
C23 C 0.2663(4) -0.0116(3) 0.3490(3)
C25 C 0.0549(4) 0.1950(3) 0.2963(3)
C32 C 0.3749(3) 0.0746(3) 0.3337(2)
H3 H 0.3725 0.1239 0.3081
H4 H 0.3755 0.0267 0.3075
C35 C -0.0141(4) 0.2199(3) 0.3047(3)
H9 H -0.0115 0.2414 0.3441
C42 C 0.4686(3) 0.1399(3) 0.4358(3)
H17 H 0.4307 0.1808 0.4328
C53 C 0.5088(4) 0.0144(4) 0.3987(3)
H29 H 0.4978 -0.0299 0.3702
C62 C 0.0487(4) 0.1625(4) 0.2372(3)
H41 H 0.0944 0.1445 0.2302
C69 C 0.5815(4) 0.0177(4) 0.4484(3)
H48 H 0.6196 -0.0233 0.4526
C73 C 0.1348(3) 0.2037(3) 0.3487(2)
H52 H 0.1618 0.2521 0.3401
H53 H 0.1264 0.2133 0.3888
C78 C 0.5417(4) 0.1416(4) 0.4853(3)
H58 H 0.5530 0.1848 0.5148
C88 C -0.0870(4) 0.2140(4) 0.2565(3)
H70 H -0.1330 0.2318 0.2633
C92 C 0.5970(4) 0.0818(4) 0.4917(3)
H74 H 0.6457 0.0841 0.5255
C94 C -0.0922(4) 0.1817(4) 0.1983(3)
H77 H -0.1415 0.1770 0.1656
C96 C 0.2164(3) -0.0425(3) 0.2807(2)
H79 H 0.1642 -0.0618 0.2790
H80 H 0.2093 0.0017 0.2496
C108 C 0.3539(4) -0.0835(4) 0.4423(3)
H99 H 0.3755 -0.0312 0.4627
H100 H 0.3967 -0.1241 0.4550
C114 C -0.0241(4) 0.1567(4) 0.1891(3)
H111 H -0.0271 0.1355 0.1496
C118 C 0.2077(4) -0.0825(3) 0.4204(3)
H116 H 0.1850 -0.1248 0.3881
H117 H 0.1714 -0.0740 0.4436
C126 C 0.2880(4) -0.1116(4) 0.4662(3)
H131 H 0.2883 -0.1717 0.4694
H132 H 0.2973 -0.0888 0.5084
C130 C 0.3105(4) -0.1458(4) 0.3329(3)
H139 H 0.2789 -0.1859 0.3463
H140 H 0.3598 -0.1721 0.3340
C135 C 0.2649(4) -0.1136(4) 0.2676(3)
H149 H 0.2303 -0.1560 0.2412
H150 H 0.3007 -0.0937 0.2465
O2 O 0.9468(2) 0.2090(2) 0.99907(18)
N2 N 0.9701(3) 0.0709(3) 1.01682(19)
O11 O 0.7801(3) 0.0626(2) 1.07183(18)
C1 C 0.9262(4) 0.1405(4) 1.0111(3)
N7 N 0.8537(3) 0.1312(3) 1.0226(2)
C9 C 0.8372(3) 0.0611(4) 1.0508(3)
N18 N 0.8834(3) -0.0049(3) 1.0556(2)
N22 N 0.9934(3) -0.0728(3) 1.0407(2)
C13 C 0.9328(4) -0.0116(3) 1.0154(3)
C26 C 1.1189(4) 0.0756(3) 1.0569(2)
C28 C 0.7216(4) 0.1947(4) 0.9630(3)
C31 C 1.0414(3) 0.0745(3) 1.0004(2)
H1 H 1.0391 0.1240 0.9750
H2 H 1.0419 0.0269 0.9738
C38 C 0.6525(4) 0.2200(3) 0.9714(3)
H13 H 0.6551 0.2417 1.0107
C48 C 1.1353(3) 0.1396(4) 1.1023(3)
H24 H 1.0973 0.1805 1.0991
C51 C 1.1757(3) 0.0140(3) 1.0654(3)
H27 H 1.1648 -0.0305 1.0371
C65 C 0.7151(4) 0.1625(3) 0.9043(3)
H44 H 0.7609 0.1445 0.8974
C68 C 1.2087(3) 0.1415(4) 1.1519(3)
H47 H 1.2199 0.1847 1.1814
C75 C 0.5799(4) 0.2139(3) 0.9232(3)
H55 H 0.5339 0.2316 0.9301
C76 C 1.2481(4) 0.0175(4) 1.1150(3)
H56 H 1.2861 -0.0237 1.1192
C83 C 0.8013(3) 0.2039(3) 1.0152(2)
H64 H 0.8281 0.2523 1.0063
H65 H 0.7929 0.2137 1.0553
C84 C 1.2641(4) 0.0818(4) 1.1582(3)
H66 H 1.3130 0.0843 1.1917
C95 C 0.5743(4) 0.1820(4) 0.8651(3)
H78 H 0.5249 0.1776 0.8324
C102 C 0.8829(3) -0.0424(3) 0.9472(2)
H89 H 0.8308 -0.0619 0.9456
H90 H 0.8754 0.0018 0.9161
C103 C 0.6427(4) 0.1564(4) 0.8559(3)
H91 H 0.6398 0.1348 0.8165
C110 C 1.0208(4) -0.0832(4) 1.1090(3)
H103 H 1.0425 -0.0309 1.1293
H104 H 1.0637 -0.1239 1.1215
C120 C 0.8745(4) -0.0823(4) 1.0870(3)
H119 H 0.8516 -0.1247 1.0549
H120 H 0.8383 -0.0734 1.1103
C124 C 0.9547(4) -0.1115(4) 1.1328(3)
H127 H 0.9550 -0.1716 1.1359
H128 H 0.9640 -0.0888 1.1751
C127 C 0.9765(4) -0.1457(4) 0.9992(3)
H133 H 0.9445 -0.1856 1.0123
H134 H 1.0257 -0.1724 1.0003
C129 C 0.9315(4) -0.1131(4) 0.9339(3)
H137 H 0.8970 -0.1554 0.9072
H138 H 0.9676 -0.0930 0.9132
O3 O 0.7998(2) 0.2913(2) 0.35150(17)
N1 N 0.7365(3) 0.3692(3) 0.4058(2)
O10 O 0.6463(3) 0.4374(3) 0.43853(18)
C2 C 0.6928(4) 0.4394(5) 0.4080(3)
N10 N 0.7825(3) 0.4292(2) 0.33013(19)
N12 N 0.7018(3) 0.5043(4) 0.3745(2)
C7 C 0.7755(4) 0.3594(3) 0.3616(3)
N19 N 0.7598(4) 0.5725(3) 0.3068(3)
C16 C 0.7724(3) 0.5120(3) 0.3554(3)
C29 C 0.7731(4) 0.3050(4) 0.5131(3)
C30 C 0.7789(3) 0.4244(4) 0.2173(3)
C40 C 0.7371(3) 0.2804(3) 0.5569(4)
H15 H 0.6851 0.2599 0.5421
C46 C 0.8290(3) 0.4259(3) 0.2875(3)
H21 H 0.8625 0.3767 0.2976
H22 H 0.8640 0.4739 0.2958
C49 C 0.7250(3) 0.3607(4) 0.1914(3)
H25 H 0.7171 0.3197 0.2179
C52 C 0.7869(3) 0.4859(3) 0.1769(3)
H28 H 0.8208 0.5305 0.1938
C55 C 0.7292(3) 0.2958(4) 0.4429(2)
H31 H 0.7497 0.2476 0.4276
H32 H 0.6731 0.2860 0.4356
C66 C 0.7452(4) 0.4826(4) 0.1114(3)
H45 H 0.7526 0.5234 0.0845
C72 C 0.8489(4) 0.3385(5) 0.5365(3)
H51 H 0.8735 0.3567 0.5084
C85 C 0.6828(4) 0.3579(4) 0.1260(3)
H67 H 0.6474 0.3145 0.1089
C89 C 0.6930(3) 0.4182(4) 0.0869(3)
H71 H 0.6643 0.4159 0.0432
C91 C 0.7778(7) 0.2864(4) 0.6212(4)
H73 H 0.7537 0.2678 0.6495
C97 C 0.8527(7) 0.3190(4) 0.6447(3)
H81 H 0.8794 0.3237 0.6886
C98 C 0.6574(3) 0.5820(4) 0.3705(3)
H82 H 0.6927 0.6244 0.3964
H83 H 0.6143 0.5734 0.3869
C104 C 0.6770(4) 0.5836(3) 0.2654(3)
H92 H 0.6571 0.5318 0.2434
H93 H 0.6746 0.6251 0.2333
C109 C 0.8466(3) 0.5423(3) 0.4112(3)
H101 H 0.8316 0.5624 0.4465
H102 H 0.8852 0.4978 0.4266
C116 C 0.8884(4) 0.3449(5) 0.6019(5)
H114 H 0.9397 0.3669 0.6173
C125 C 0.6236(4) 0.6102(5) 0.3017(3)
H129 H 0.5707 0.5866 0.2814
H130 H 0.6185 0.6702 0.3002
C133 C 0.8088(5) 0.6459(3) 0.3311(3)
H145 H 0.7808 0.6859 0.3482
H146 H 0.8236 0.6723 0.2978
C137 C 0.8809(4) 0.6124(4) 0.3829(4)
H153 H 0.9056 0.6545 0.4147
H154 H 0.9200 0.5916 0.3655
O4 O 0.6136(2) 0.7911(2) 0.16552(19)
O9 O 0.4460(3) 0.9373(2) 0.2388(2)
N4 N 0.6364(3) 0.9292(3) 0.18339(19)
N6 N 0.5198(3) 0.8694(3) 0.18924(19)
C6 C 0.5920(4) 0.8595(4) 0.1782(2)
N14 N 0.6601(3) 1.0729(3) 0.2072(2)
C10 C 0.5023(5) 0.9390(4) 0.2181(3)
N21 N 0.5497(3) 1.0045(3) 0.2224(2)
C14 C 0.5992(3) 1.0115(3) 0.1821(3)
C19 C 0.7852(3) 0.9242(4) 0.2239(3)
C27 C 0.3885(3) 0.8057(3) 0.1294(3)
C34 C 0.7082(3) 0.9254(3) 0.1673(2)
H7 H 0.7089 0.9730 0.1408
H8 H 0.7059 0.8759 0.1419
C39 C 0.8021(3) 0.8604(3) 0.2693(3)
H14 H 0.7642 0.8194 0.2663
C41 C 0.3193(3) 0.7799(3) 0.1380(3)
H16 H 0.3222 0.7580 0.1774
C54 C 0.8420(4) 0.9856(3) 0.2318(3)
H30 H 0.8313 1.0297 0.2031
C57 C 0.9305(4) 0.9184(4) 0.3246(3)
H35 H 0.9794 0.9161 0.3580
C67 C 0.8750(4) 0.8585(4) 0.3184(3)
H46 H 0.8864 0.8152 0.3479
C70 C 0.3819(4) 0.8376(3) 0.0703(3)
H49 H 0.4274 0.8554 0.0629
C71 C 0.9142(3) 0.9824(4) 0.2814(3)
H50 H 0.9521 1.0238 0.2857
C81 C 0.2464(4) 0.7857(3) 0.0900(3)
H61 H 0.2006 0.7675 0.0968
C82 C 0.4680(3) 0.7963(3) 0.1821(3)
H62 H 0.4594 0.7865 0.2221
H63 H 0.4951 0.7480 0.1734
C100 C 0.2408(4) 0.8184(4) 0.0320(3)
H86 H 0.1914 0.8236 -0.0006
C101 C 0.5494(3) 1.0424(3) 0.1139(2)
H87 H 0.5422 0.9983 0.0827
H88 H 0.4973 1.0619 0.1122
C105 C 0.6872(4) 1.0835(4) 0.2754(3)
H94 H 0.7301 1.1241 0.2880
H95 H 0.7088 1.0312 0.2958
C107 C 0.3092(4) 0.8432(4) 0.0227(3)
H98 H 0.3060 0.8644 -0.0169
C115 C 0.5409(4) 1.0823(4) 0.2535(3)
H112 H 0.5048 1.0737 0.2769
H113 H 0.5179 1.1244 0.2212
C121 C 0.6213(4) 1.1118(4) 0.2991(3)
H121 H 0.6306 1.0894 0.3415
H122 H 0.6215 1.1719 0.3019
C128 C 0.6434(4) 1.1461(3) 0.1661(3)
H135 H 0.6927 1.1727 0.1672
H136 H 0.6115 1.1860 0.1793
C134 C 0.5983(4) 1.1132(4) 0.1010(3)
H147 H 0.6344 1.0931 0.0803
H148 H 0.5639 1.1555 0.0743
O5 O 0.4663(2) 0.2913(2) 0.01809(18)
O8 O 0.3134(3) 0.4371(3) 0.1050(2)
N5 N 0.4035(4) 0.3690(4) 0.0725(2)
C3 C 0.3605(5) 0.4395(5) 0.0744(3)
N9 N 0.4490(2) 0.4291(3) -0.0032(2)
N17 N 0.3686(3) 0.5047(3) 0.0408(2)
C11 C 0.4422(4) 0.3593(4) 0.0281(3)
N23 N 0.4266(3) 0.5724(3) -0.0266(2)
C20 C 0.4392(3) 0.5120(4) 0.0224(3)
C21 C 0.4456(3) 0.4246(4) -0.1160(3)
C24 C 0.4394(4) 0.3047(3) 0.1799(3)
C33 C 0.4960(3) 0.4259(3) -0.0458(2)
H5 H 0.5294 0.3766 -0.0357
H6 H 0.5311 0.4739 -0.0373
C45 C 0.4038(3) 0.2804(3) 0.2238(3)
H20 H 0.3519 0.2598 0.2090
C47 C 0.4536(3) 0.4857(4) -0.1564(3)
H23 H 0.4877 0.5302 -0.1395
C50 C 0.3919(3) 0.3609(3) -0.1419(3)
H26 H 0.3841 0.3198 -0.1154
C60 C 0.4119(4) 0.4824(4) -0.2218(3)
H38 H 0.4193 0.5233 -0.2486
C61 C 0.3958(3) 0.2960(3) 0.1095(3)
H39 H 0.4161 0.2477 0.0942
H40 H 0.3396 0.2865 0.1020
C63 C 0.5149(4) 0.3378(3) 0.2033(3)
H42 H 0.5393 0.3558 0.1750
C64 C 0.3495(4) 0.3582(3) -0.2072(3)
H43 H 0.3138 0.3150 -0.2242
C77 C 0.3595(3) 0.4179(4) -0.2467(3)
H57 H 0.3310 0.4153 -0.2904
C80 C 0.4445(7) 0.2864(4) 0.2884(3)
H60 H 0.4205 0.2679 0.3168
C90 C 0.5194(6) 0.3189(4) 0.3115(3)
H72 H 0.5462 0.3237 0.3553
C99 C 0.3242(3) 0.5822(3) 0.0371(3)
H84 H 0.3595 0.6246 0.0629
H85 H 0.2812 0.5735 0.0537
C106 C 0.5133(3) 0.5425(4) 0.0781(2)
H96 H 0.4981 0.5627 0.1132
H97 H 0.5519 0.4981 0.0936
C111 C 0.3440(4) 0.5834(4) -0.0676(3)
H105 H 0.3242 0.5315 -0.0894
H106 H 0.3417 0.6246 -0.1000
C119 C 0.5551(4) 0.3448(4) 0.2685(5)
H118 H 0.6065 0.3669 0.2836
C122 C 0.2900(4) 0.6105(5) -0.0320(3)
H123 H 0.2372 0.5867 -0.0523
H124 H 0.2849 0.6705 -0.0336
C131 C 0.4758(4) 0.6459(3) -0.0022(3)
H141 H 0.4477 0.6860 0.0146
H142 H 0.4908 0.6721 -0.0355
C138 C 0.5479(4) 0.6125(4) 0.0499(3)
H155 H 0.5724 0.6547 0.0817
H156 H 0.5873 0.5917 0.0327
O6 O 0.1331(2) 0.7087(2) 0.18478(18)
O7 O -0.0200(3) 0.5630(3) 0.2716(2)
N3 N 0.0704(3) 0.6315(3) 0.2391(2)
C4 C 0.0275(5) 0.5612(4) 0.2409(3)
N13 N 0.1159(3) 0.5708(3) 0.1635(2)
N16 N 0.0353(3) 0.4957(3) 0.2078(2)
C8 C 0.1091(3) 0.6410(3) 0.1945(3)
N20 N 0.0927(3) 0.4274(3) 0.1398(2)
C15 C 0.1058(3) 0.4876(3) 0.1888(3)
C17 C 0.1118(3) 0.5761(3) 0.0506(3)
C22 C 0.1064(4) 0.6947(3) 0.3463(3)
C36 C 0.1622(3) 0.5742(3) 0.1207(3)
H10 H 0.1971 0.5262 0.1288
H11 H 0.1957 0.6234 0.1308
C37 C 0.0583(3) 0.6397(3) 0.0244(3)
H12 H 0.0510 0.6813 0.0507
C43 C 0.0706(4) 0.7195(3) 0.3899(3)
H18 H 0.0187 0.7401 0.3747
C44 C 0.1204(3) 0.5146(4) 0.0105(3)
H19 H 0.1550 0.4705 0.0275
C56 C 0.0623(3) 0.7045(3) 0.2760(2)
H33 H 0.0061 0.7138 0.2687
H34 H 0.0825 0.7530 0.2608
C58 C 0.0156(3) 0.6420(4) -0.0407(3)
H36 H -0.0206 0.6848 -0.0577
C59 C 0.0783(4) 0.5175(4) -0.0549(3)
H37 H 0.0852 0.4761 -0.0816
C74 C 0.1823(4) 0.6613(4) 0.3701(3)
H54 H 0.2070 0.6422 0.3423
C79 C 0.0263(3) 0.5821(4) -0.0800(3)
H59 H -0.0016 0.5848 -0.1238
C86 C 0.1099(4) 0.7142(3) 0.4544(4)
H68 H 0.0853 0.7333 0.4823
C87 C 0.1846(4) 0.6812(4) 0.4780(3)
H69 H 0.2104 0.6755 0.5219
C93 C -0.0092(3) 0.4181(4) 0.2039(3)
H75 H -0.0524 0.4270 0.2200
H76 H 0.0260 0.3759 0.2300
C112 C 0.0104(4) 0.4165(4) 0.0986(3)
H107 H 0.0081 0.3755 0.0661
H108 H -0.0096 0.4685 0.0771
C113 C 0.1801(3) 0.4576(3) 0.2448(3)
H109 H 0.2187 0.5020 0.2601
H110 H 0.1650 0.4375 0.2800
C117 C 0.2217(4) 0.6562(4) 0.4360(3)
H115 H 0.2737 0.6357 0.4519
C123 C -0.0430(4) 0.3888(4) 0.1348(3)
H125 H -0.0471 0.3287 0.1337
H126 H -0.0962 0.4115 0.1144
C132 C 0.1419(4) 0.3542(3) 0.1643(3)
H143 H 0.1568 0.3278 0.1309
H144 H 0.1138 0.3142 0.1812
C136 C 0.2140(4) 0.3874(4) 0.2162(3)
H151 H 0.2533 0.4082 0.1989
H152 H 0.2386 0.3451 0.2479
loop_
_geom_bond_atom_site_label_1
_geom_bond_atom_site_label_2
_geom_bond_site_symmetry_1
_geom_bond_site_symmetry_2
O1 C5 1_555 1_555
O2 C1 1_555 1_555
O3 C7 1_555 1_555
O4 C6 1_555 1_555
O5 C11 1_555 1_555
O6 C8 1_555 1_555
O7 C4 1_555 1_555
O8 C3 1_555 1_555
O9 C10 1_555 1_555
N1 C2 1_555 1_555
O10 C2 1_555 1_555
N2 C1 1_555 1_555
N3 C4 1_555 1_555
O11 C9 1_555 1_555
O12 C12 1_555 1_555
N4 C6 1_555 1_555
N5 C3 1_555 1_555
C1 N7 1_555 1_555
C2 N12 1_555 1_555
N6 C6 1_555 1_555
N7 C9 1_555 1_555
C3 N17 1_555 1_555
N8 C5 1_555 1_555
C4 N16 1_555 1_555
N9 C11 1_555 1_555
C5 N11 1_555 1_555
N10 C7 1_555 1_555
N11 C12 1_555 1_555
N12 C16 1_555 1_555
N13 C8 1_555 1_555
N14 C14 1_555 1_555
N15 C23 1_555 1_555
N16 C15 1_555 1_555
C7 N1 1_555 1_555
C8 N3 1_555 1_555
N17 C20 1_555 1_555
C9 N18 1_555 1_555
N18 C13 1_555 1_555
N19 C16 1_555 1_555
C10 N6 1_555 1_555
N20 C15 1_555 1_555
N21 C10 1_555 1_555
N22 C13 1_555 1_555
C11 N5 1_555 1_555
N23 C20 1_555 1_555
N24 C12 1_555 1_555
C13 N2 1_555 1_555
C14 N4 1_555 1_555
C15 N13 1_555 1_555
C16 N10 1_555 1_555
C17 C36 1_555 1_555
C18 C32 1_555 1_555
C19 C34 1_555 1_555
C20 N9 1_555 1_555
C21 C33 1_555 1_555
C22 C43 1_555 1_555
C23 N8 1_555 1_555
C24 C45 1_555 1_555
C25 C35 1_555 1_555
C26 C31 1_555 1_555
C27 C41 1_555 1_555
C28 C38 1_555 1_555
C29 C40 1_555 1_555
C30 C46 1_555 1_555
C31 N2 1_555 1_555
H1 C31 1_555 1_555
H2 C31 1_555 1_555
C32 N8 1_555 1_555
H3 C32 1_555 1_555
H4 C32 1_555 1_555
C33 N9 1_555 1_555
H5 C33 1_555 1_555
H6 C33 1_555 1_555
C34 N4 1_555 1_555
H7 C34 1_555 1_555
H8 C34 1_555 1_555
C35 H9 1_555 1_555
C36 N13 1_555 1_555
H10 C36 1_555 1_555
H11 C36 1_555 1_555
C37 C17 1_555 1_555
H12 C37 1_555 1_555
C38 H13 1_555 1_555
C39 C19 1_555 1_555
H14 C39 1_555 1_555
C40 H15 1_555 1_555
C41 H16 1_555 1_555
C42 C18 1_555 1_555
H17 C42 1_555 1_555
C43 H18 1_555 1_555
C44 C17 1_555 1_555
H19 C44 1_555 1_555
C45 H20 1_555 1_555
C46 N10 1_555 1_555
H21 C46 1_555 1_555
H22 C46 1_555 1_555
C47 C21 1_555 1_555
H23 C47 1_555 1_555
C48 C26 1_555 1_555
H24 C48 1_555 1_555
C49 C30 1_555 1_555
H25 C49 1_555 1_555
C50 C21 1_555 1_555
H26 C50 1_555 1_555
C51 C26 1_555 1_555
H27 C51 1_555 1_555
C52 C30 1_555 1_555
H28 C52 1_555 1_555
C53 C18 1_555 1_555
H29 C53 1_555 1_555
C54 C19 1_555 1_555
H30 C54 1_555 1_555
C55 N1 1_555 1_555
H31 C55 1_555 1_555
H32 C55 1_555 1_555
C56 N3 1_555 1_555
H33 C56 1_555 1_555
H34 C56 1_555 1_555
C57 H35 1_555 1_555
C58 C37 1_555 1_555
H36 C58 1_555 1_555
C59 C44 1_555 1_555
H37 C59 1_555 1_555
C60 C47 1_555 1_555
H38 C60 1_555 1_555
C61 N5 1_555 1_555
H39 C61 1_555 1_555
H40 C61 1_555 1_555
C62 C25 1_555 1_555
H41 C62 1_555 1_555
C63 C24 1_555 1_555
H42 C63 1_555 1_555
C64 C50 1_555 1_555
H43 C64 1_555 1_555
C65 C28 1_555 1_555
H44 C65 1_555 1_555
C66 C52 1_555 1_555
H45 C66 1_555 1_555
C67 C39 1_555 1_555
H46 C67 1_555 1_555
C68 C48 1_555 1_555
H47 C68 1_555 1_555
C69 C53 1_555 1_555
H48 C69 1_555 1_555
C70 C27 1_555 1_555
H49 C70 1_555 1_555
C71 C54 1_555 1_555
H50 C71 1_555 1_555
C72 C29 1_555 1_555
H51 C72 1_555 1_555
C73 N11 1_555 1_555
H52 C73 1_555 1_555
H53 C73 1_555 1_555
C74 C22 1_555 1_555
H54 C74 1_555 1_555
C75 C38 1_555 1_555
H55 C75 1_555 1_555
C76 C51 1_555 1_555
H56 C76 1_555 1_555
C77 C60 1_555 1_555
H57 C77 1_555 1_555
C78 C42 1_555 1_555
H58 C78 1_555 1_555
C79 C58 1_555 1_555
H59 C79 1_555 1_555
C80 C45 1_555 1_555
H60 C80 1_555 1_555
C81 C41 1_555 1_555
H61 C81 1_555 1_555
C82 N6 1_555 1_555
H62 C82 1_555 1_555
H63 C82 1_555 1_555
C83 N7 1_555 1_555
H64 C83 1_555 1_555
H65 C83 1_555 1_555
C84 C68 1_555 1_555
H66 C84 1_555 1_555
C85 C49 1_555 1_555
H67 C85 1_555 1_555
C86 C43 1_555 1_555
H68 C86 1_555 1_555
C87 C86 1_555 1_555
H69 C87 1_555 1_555
C88 C35 1_555 1_555
H70 C88 1_555 1_555
C89 C66 1_555 1_555
H71 C89 1_555 1_555
C90 C80 1_555 1_555
H72 C90 1_555 1_555
C91 C40 1_555 1_555
H73 C91 1_555 1_555
C92 C69 1_555 1_555
H74 C92 1_555 1_555
C93 N16 1_555 1_555
H75 C93 1_555 1_555
H76 C93 1_555 1_555
C94 C88 1_555 1_555
H77 C94 1_555 1_555
C95 C75 1_555 1_555
H78 C95 1_555 1_555
C96 C23 1_555 1_555
H79 C96 1_555 1_555
H80 C96 1_555 1_555
C97 C91 1_555 1_555
H81 C97 1_555 1_555
C98 N12 1_555 1_555
H82 C98 1_555 1_555
H83 C98 1_555 1_555
C99 N17 1_555 1_555
H84 C99 1_555 1_555
H85 C99 1_555 1_555
C100 C81 1_555 1_555
H86 C100 1_555 1_555
C101 C14 1_555 1_555
H87 C101 1_555 1_555
H88 C101 1_555 1_555
C102 C13 1_555 1_555
H89 C102 1_555 1_555
H90 C102 1_555 1_555
C103 C65 1_555 1_555
H91 C103 1_555 1_555
C104 N19 1_555 1_555
H92 C104 1_555 1_555
H93 C104 1_555 1_555
C105 N14 1_555 1_555
H94 C105 1_555 1_555
H95 C105 1_555 1_555
C106 C20 1_555 1_555
H96 C106 1_555 1_555
H97 C106 1_555 1_555
C107 C70 1_555 1_555
H98 C107 1_555 1_555
C108 N15 1_555 1_555
H99 C108 1_555 1_555
H100 C108 1_555 1_555
C109 C16 1_555 1_555
H101 C109 1_555 1_555
H102 C109 1_555 1_555
C110 N22 1_555 1_555
H103 C110 1_555 1_555
H104 C110 1_555 1_555
C111 N23 1_555 1_555
H105 C111 1_555 1_555
H106 C111 1_555 1_555
C112 N20 1_555 1_555
H107 C112 1_555 1_555
H108 C112 1_555 1_555
C113 C15 1_555 1_555
H109 C113 1_555 1_555
H110 C113 1_555 1_555
C114 C62 1_555 1_555
H111 C114 1_555 1_555
C115 N21 1_555 1_555
H112 C115 1_555 1_555
H113 C115 1_555 1_555
C116 C72 1_555 1_555
H114 C116 1_555 1_555
C117 C74 1_555 1_555
H115 C117 1_555 1_555
C118 N24 1_555 1_555
H116 C118 1_555 1_555
H117 C118 1_555 1_555
C119 C63 1_555 1_555
H118 C119 1_555 1_555
C120 N18 1_555 1_555
H119 C120 1_555 1_555
H120 C120 1_555 1_555
C121 C105 1_555 1_555
H121 C121 1_555 1_555
H122 C121 1_555 1_555
C122 C99 1_555 1_555
H123 C122 1_555 1_555
H124 C122 1_555 1_555
C123 C93 1_555 1_555
H125 C123 1_555 1_555
H126 C123 1_555 1_555
C124 C110 1_555 1_555
H127 C124 1_555 1_555
H128 C124 1_555 1_555
C125 C98 1_555 1_555
H129 C125 1_555 1_555
H130 C125 1_555 1_555
C126 C108 1_555 1_555
H131 C126 1_555 1_555
H132 C126 1_555 1_555
C127 N22 1_555 1_555
H133 C127 1_555 1_555
H134 C127 1_555 1_555
C128 N14 1_555 1_555
H135 C128 1_555 1_555
H136 C128 1_555 1_555
C129 C102 1_555 1_555
H137 C129 1_555 1_555
H138 C129 1_555 1_555
C130 N15 1_555 1_555
H139 C130 1_555 1_555
H140 C130 1_555 1_555
C131 N23 1_555 1_555
H141 C131 1_555 1_555
H142 C131 1_555 1_555
C132 N20 1_555 1_555
H143 C132 1_555 1_555
H144 C132 1_555 1_555
C133 N19 1_555 1_555
H145 C133 1_555 1_555
H146 C133 1_555 1_555
C134 C101 1_555 1_555
H147 C134 1_555 1_555
H148 C134 1_555 1_555
C135 C96 1_555 1_555
H149 C135 1_555 1_555
H150 C135 1_555 1_555
C136 C113 1_555 1_555
H151 C136 1_555 1_555
H152 C136 1_555 1_555
C137 C109 1_555 1_555
H153 C137 1_555 1_555
H154 C137 1_555 1_555
C138 C106 1_555 1_555
H155 C138 1_555 1_555
H156 C138 1_555 1_555
N21 C14 1_555 1_555
N24 C23 1_555 1_555
C22 C56 1_555 1_555
C24 C61 1_555 1_555
C25 C73 1_555 1_555
C27 C82 1_555 1_555
C28 C83 1_555 1_555
C29 C55 1_555 1_555
C57 C67 1_555 1_555
C57 C71 1_555 1_555
C59 C79 1_555 1_555
C64 C77 1_555 1_555
C76 C84 1_555 1_555
C78 C92 1_555 1_555
C85 C89 1_555 1_555
C87 C117 1_555 1_555
C90 C119 1_555 1_555
C94 C114 1_555 1_555
C95 C103 1_555 1_555
C97 C116 1_555 1_555
C100 C107 1_555 1_555
C104 C125 1_555 1_555
C111 C122 1_555 1_555
C112 C123 1_555 1_555
C115 C121 1_555 1_555
C118 C126 1_555 1_555
C120 C124 1_555 1_555
C127 C129 1_555 1_555
C128 C134 1_555 1_555
C130 C135 1_555 1_555
C131 C138 1_555 1_555
C132 C136 1_555 1_555
C133 C137 1_555 1_555

#END
