
#######################################################################
#
#                 Cambridge Crystallographic Data Centre
#                                CCDC 
#
#######################################################################
#
# If this CIF has been generated from an entry in the Cambridge 
# Structural Database, then it will include bibliographic, chemical, 
# crystal, experimental, refinement or atomic coordinate data resulting 
# from the CCDC's data processing and validation procedures.
#
#######################################################################

data_LEMXAE
_chemical_formula_moiety         'C24 H29 N5 O2'
_chemical_name_systematic        
1,3-Dibenzyl-13-methylhexahydro-6H-pyrimido[2',1':2,3]pyrimido[1,2-a][1,3,5]triazine-2,4(1H,3H)-dione
_symmetry_cell_setting           orthorhombic
_symmetry_space_group_name_H-M   'P b c a'
_symmetry_Int_Tables_number      61
_space_group_name_Hall           '-P 2ac 2ab'
loop_
_symmetry_equiv_pos_site_id
_symmetry_equiv_pos_as_xyz
1 x,y,z
2 1/2+x,1/2-y,-z
3 -x,1/2+y,1/2-z
4 1/2-x,-y,1/2+z
5 -x,-y,-z
6 1/2-x,1/2+y,z
7 x,1/2-y,1/2+z
8 1/2+x,y,1/2-z
_cell_length_a                   12.5135(7)
_cell_length_b                   8.2914(4)
_cell_length_c                   41.841(2)
_cell_angle_alpha                90
_cell_angle_beta                 90
_cell_angle_gamma                90
_cell_volume                     4341.19
_exptl_crystal_colour            colorless
_cell_formula_units_Z            8
loop_
_atom_site_label
_atom_site_type_symbol
_atom_site_fract_x
_atom_site_fract_y
_atom_site_fract_z
O1 O 0.1720(3) 0.9942(4) 0.06298(9)
O2 O 0.0043(3) 0.6089(5) 0.12076(9)
N1 N 0.0660(3) 1.0739(5) 0.10399(10)
N2 N -0.0058(4) 0.8689(5) 0.13731(10)
N3 N 0.0707(4) 0.8044(5) 0.08818(10)
N4 N -0.1239(4) 1.0763(6) 0.12018(10)
N5 N 0.0157(4) 1.1300(5) 0.15790(10)
C1 C 0.1864(5) 1.2369(7) 0.13600(13)
H1 H 0.1933 1.3475 0.1433
H2 H 0.2573 1.1951 0.1317
C2 C 0.1189(5) 1.2309(7) 0.10584(13)
H3 H 0.0659 1.3162 0.1063
H4 H 0.1639 1.2466 0.0872
C3 C -0.1507(5) 1.0174(8) 0.08829(13)
H5 H -0.2240 1.0420 0.0836
H6 H -0.1402 0.9028 0.0875
H7 H -0.1054 1.0687 0.0728
C4 C 0.0939(5) 0.6838(7) 0.06350(13)
H8 H 0.1120 0.5820 0.0736
H9 H 0.1549 0.7186 0.0510
C5 C -0.0595(5) 0.8189(7) 0.16692(13)
H10 H -0.0926 0.7146 0.1635
H11 H -0.1158 0.8955 0.1717
C6 C -0.1658(5) 1.2371(8) 0.12540(15)
H12 H -0.2414 1.2392 0.1203
H13 H -0.1297 1.3128 0.1114
C7 C -0.0323(5) 1.2844(7) 0.16647(14)
H14 H 0.0022 1.3699 0.1545
H15 H -0.0207 1.3049 0.1890
C8 C 0.0928(5) 0.6903(8) 0.19688(14)
H16 H 0.0996 0.6165 0.1803
C9 C -0.0011(5) 0.6604(7) 0.04183(13)
C10 C -0.0625(5) 0.5237(8) 0.04379(13)
H17 H -0.0455 0.4456 0.0589
C11 C -0.0133(5) 1.0445(7) 0.12920(12)
C12 C 0.1313(5) 1.1341(7) 0.16185(13)
H18 H 0.1590 1.0250 0.1609
H19 H 0.1483 1.1779 0.1827
C13 C 0.0143(5) 0.8075(8) 0.19530(13)
C14 C -0.1494(5) 1.2861(8) 0.15967(14)
H20 H -0.1781 1.3933 0.1632
H21 H -0.1862 1.2116 0.1738
C15 C -0.0283(5) 0.7752(7) 0.01942(14)
H22 H 0.0126 0.8685 0.0177
C16 C 0.1611(5) 0.6813(9) 0.22272(17)
H23 H 0.2126 0.6006 0.2235
C17 C -0.1153(6) 0.7540(10) -0.00048(15)
H24 H -0.1332 0.8331 -0.0153
C18 C -0.1489(6) 0.4990(9) 0.02388(15)
H25 H -0.1889 0.4048 0.0253
C19 C 0.0061(6) 0.9141(8) 0.22050(16)
H26 H -0.0474 0.9919 0.2202
C20 C 0.0205(5) 0.7524(9) 0.11597(14)
C21 C -0.1752(6) 0.6163(11) 0.00170(15)
H27 H -0.2336 0.6015 -0.0117
C22 C 0.0747(7) 0.9087(10) 0.24602(17)
H28 H 0.0685 0.9836 0.2625
C23 C 0.1533(6) 0.7907(11) 0.24719(16)
H29 H 0.2002 0.7859 0.2644
C24 C 0.1073(5) 0.9626(8) 0.08392(14)
loop_
_geom_bond_atom_site_label_1
_geom_bond_atom_site_label_2
_geom_bond_site_symmetry_1
_geom_bond_site_symmetry_2
O1 C24 1_555 1_555
O2 C20 1_555 1_555
N1 C2 1_555 1_555
N2 C5 1_555 1_555
N3 C4 1_555 1_555
N4 C3 1_555 1_555
N5 C7 1_555 1_555
C1 H1 1_555 1_555
H2 C1 1_555 1_555
C2 C1 1_555 1_555
H3 C2 1_555 1_555
H4 C2 1_555 1_555
C3 H5 1_555 1_555
H6 C3 1_555 1_555
H7 C3 1_555 1_555
C4 H8 1_555 1_555
H9 C4 1_555 1_555
C5 H10 1_555 1_555
H11 C5 1_555 1_555
C6 N4 1_555 1_555
H12 C6 1_555 1_555
H13 C6 1_555 1_555
C7 H14 1_555 1_555
H15 C7 1_555 1_555
C8 H16 1_555 1_555
C9 C4 1_555 1_555
C10 C9 1_555 1_555
H17 C10 1_555 1_555
C11 N1 1_555 1_555
C12 N5 1_555 1_555
H18 C12 1_555 1_555
H19 C12 1_555 1_555
C13 C5 1_555 1_555
C14 C6 1_555 1_555
H20 C14 1_555 1_555
H21 C14 1_555 1_555
C15 C9 1_555 1_555
H22 C15 1_555 1_555
C16 C8 1_555 1_555
H23 C16 1_555 1_555
C17 C15 1_555 1_555
H24 C17 1_555 1_555
C18 C10 1_555 1_555
H25 C18 1_555 1_555
C19 C13 1_555 1_555
H26 C19 1_555 1_555
C20 N2 1_555 1_555
C21 C17 1_555 1_555
H27 C21 1_555 1_555
C22 C19 1_555 1_555
H28 C22 1_555 1_555
C23 C16 1_555 1_555
H29 C23 1_555 1_555
C24 N1 1_555 1_555
N2 C11 1_555 1_555
N3 C20 1_555 1_555
N3 C24 1_555 1_555
N4 C11 1_555 1_555
N5 C11 1_555 1_555
C1 C12 1_555 1_555
C7 C14 1_555 1_555
C8 C13 1_555 1_555
C18 C21 1_555 1_555
C22 C23 1_555 1_555

#END
