
#######################################################################
#
#                 Cambridge Crystallographic Data Centre
#                                CCDC 
#
#######################################################################
#
# If this CIF has been generated from an entry in the Cambridge 
# Structural Database, then it will include bibliographic, chemical, 
# crystal, experimental, refinement or atomic coordinate data resulting 
# from the CCDC's data processing and validation procedures.
#
#######################################################################

data_LENDOA
_chemical_formula_moiety         'C28 H22 N2 O2'
_chemical_name_systematic        
(3,3-dimethyl-2,3-dihydro-1H-benzo[a]pyrano[2,3-c]phenazin-11-yl)(phenyl)methanone
_symmetry_cell_setting           triclinic
_symmetry_space_group_name_H-M   'P -1'
_symmetry_Int_Tables_number      2
_space_group_name_Hall           '-P 1'
loop_
_symmetry_equiv_pos_site_id
_symmetry_equiv_pos_as_xyz
1 x,y,z
2 -x,-y,-z
_cell_length_a                   6.1147(3)
_cell_length_b                   12.7175(9)
_cell_length_c                   14.5105(10)
_cell_angle_alpha                105.905(3)
_cell_angle_beta                 96.823(4)
_cell_angle_gamma                99.448(4)
_cell_volume                     1054.4
_exptl_crystal_colour            yellow
_exptl_crystal_description       plate
_cell_formula_units_Z            2
loop_
_atom_site_label
_atom_site_type_symbol
_atom_site_fract_x
_atom_site_fract_y
_atom_site_fract_z
O1 O -0.2541(3) 0.23155(17) 0.20365(15)
O2 O 0.9779(3) 0.18900(14) 0.79156(12)
N1 N 0.6098(3) 0.28878(16) 0.46772(13)
N2 N 0.3554(3) 0.12619(16) 0.53577(14)
C1 C -0.0489(4) 0.2606(2) 0.22764(17)
C2 C 0.0712(4) 0.22431(19) 0.30474(17)
C3 C 0.2924(4) 0.27011(19) 0.34724(16)
H1 H 0.377692 0.323750 0.323985
C4 C 0.3937(3) 0.23807(19) 0.42514(16)
C5 C 0.6942(3) 0.26022(19) 0.54358(16)
C6 C 0.5665(3) 0.17875(19) 0.57923(16)
C7 C 0.2671(3) 0.15654(18) 0.45926(16)
C8 C 0.0400(4) 0.1081(2) 0.41265(17)
H2 H -0.045739 0.052082 0.433212
C9 C -0.0540(4) 0.14172(19) 0.33914(16)
H3 H -0.206451 0.109767 0.309721
C10 C 0.6610(4) 0.15299(19) 0.66398(17)
C11 C 0.8745(4) 0.20543(19) 0.70999(16)
C12 C 0.8375(4) 0.1308(2) 0.84562(17)
C13 C 0.6657(4) 0.0330(2) 0.77373(17)
H4 H 0.746102 -0.022725 0.738526
H5 H 0.566897 -0.003594 0.810210
C14 C 0.5217(4) 0.0697(2) 0.70046(17)
H6 H 0.446444 0.003703 0.644928
H7 H 0.403551 0.103413 0.731389
C15 C 0.7268(4) 0.2160(2) 0.90911(19)
H8 H 0.633203 0.179559 0.946451
H9 H 0.632748 0.246533 0.867793
H10 H 0.843406 0.276656 0.953924
C16 C 1.0036(4) 0.0892(2) 0.90647(19)
H11 H 0.923772 0.051607 0.947067
H12 H 1.119151 0.152719 0.948156
H13 H 1.074932 0.036567 0.863432
C17 C 1.0153(4) 0.28521(19) 0.67441(16)
C18 C 0.9244(3) 0.31347(18) 0.59291(16)
C19 C 1.0570(4) 0.39046(19) 0.55833(17)
H14 H 0.995299 0.410013 0.503614
C20 C 1.2771(4) 0.4379(2) 0.60361(17)
H15 H 1.366257 0.489844 0.579909
C21 C 1.3681(4) 0.4096(2) 0.68405(18)
H16 H 1.519827 0.441925 0.714462
C22 C 1.2403(4) 0.33492(19) 0.72007(17)
H17 H 1.303524 0.317029 0.775461
C23 C 0.0770(3) 0.33596(19) 0.17973(16)
C24 C -0.0078(4) 0.4284(2) 0.17056(17)
H18 H -0.136640 0.444400 0.197966
C25 C 0.0937(4) 0.4973(2) 0.12190(17)
H19 H 0.036552 0.560979 0.117024
C26 C 0.2793(4) 0.4728(2) 0.08027(18)
H20 H 0.347478 0.519170 0.045756
C27 C 0.3655(4) 0.3812(2) 0.08883(17)
H21 H 0.491672 0.364417 0.059670
C28 C 0.2678(4) 0.3139(2) 0.13994(17)
H22 H 0.330662 0.252743 0.147880
loop_
_geom_bond_atom_site_label_1
_geom_bond_atom_site_label_2
_geom_bond_site_symmetry_1
_geom_bond_site_symmetry_2
O1 C1 1_555 1_555
O2 C11 1_555 1_555
N1 C4 1_555 1_555
N2 C6 1_555 1_555
C1 C2 1_555 1_555
C2 C3 1_555 1_555
C3 H1 1_555 1_555
C4 C3 1_555 1_555
C5 N1 1_555 1_555
C6 C5 1_555 1_555
C7 N2 1_555 1_555
C8 C7 1_555 1_555
H2 C8 1_555 1_555
C9 C2 1_555 1_555
H3 C9 1_555 1_555
C10 C6 1_555 1_555
C11 C10 1_555 1_555
C12 O2 1_555 1_555
C13 C12 1_555 1_555
H4 C13 1_555 1_555
H5 C13 1_555 1_555
C14 C10 1_555 1_555
H6 C14 1_555 1_555
H7 C14 1_555 1_555
C15 C12 1_555 1_555
H8 C15 1_555 1_555
H9 C15 1_555 1_555
H10 C15 1_555 1_555
C16 C12 1_555 1_555
H11 C16 1_555 1_555
H12 C16 1_555 1_555
H13 C16 1_555 1_555
C17 C11 1_555 1_555
C18 C5 1_555 1_555
C19 C18 1_555 1_555
H14 C19 1_555 1_555
C20 C19 1_555 1_555
H15 C20 1_555 1_555
C21 C20 1_555 1_555
H16 C21 1_555 1_555
C22 C17 1_555 1_555
H17 C22 1_555 1_555
C23 C1 1_555 1_555
C24 C23 1_555 1_555
H18 C24 1_555 1_555
C25 C24 1_555 1_555
H19 C25 1_555 1_555
C26 C25 1_555 1_555
H20 C26 1_555 1_555
C27 C26 1_555 1_555
H21 C27 1_555 1_555
C28 C23 1_555 1_555
H22 C28 1_555 1_555
C4 C7 1_555 1_555
C8 C9 1_555 1_555
C13 C14 1_555 1_555
C17 C18 1_555 1_555
C21 C22 1_555 1_555
C27 C28 1_555 1_555

#END
