
#######################################################################
#
#                 Cambridge Crystallographic Data Centre
#                                CCDC 
#
#######################################################################
#
# If this CIF has been generated from an entry in the Cambridge 
# Structural Database, then it will include bibliographic, chemical, 
# crystal, experimental, refinement or atomic coordinate data resulting 
# from the CCDC's data processing and validation procedures.
#
#######################################################################

data_LENKOF
_chemical_formula_moiety         'C13 H10 Br1 N1 O1'
_chemical_name_systematic        N-(4-Bromobenzylidene)-2-hydroxyaniline
_symmetry_cell_setting           monoclinic
_symmetry_space_group_name_H-M   'P 21/n'
_symmetry_Int_Tables_number      14
_space_group_name_Hall           '-P 2yn'
loop_
_symmetry_equiv_pos_site_id
_symmetry_equiv_pos_as_xyz
1 x,y,z
2 1/2-x,1/2+y,1/2-z
3 -x,-y,-z
4 1/2+x,1/2-y,1/2+z
_cell_length_a                   13.3890(10)
_cell_length_b                   5.8745(5)
_cell_length_c                   14.9020(10)
_cell_angle_alpha                90
_cell_angle_beta                 102.4570(10)
_cell_angle_gamma                90
_cell_volume                     1144.5
_exptl_crystal_colour            yellow
_exptl_crystal_description       Block
_cell_formula_units_Z            4
_exptl_crystal_recrystallization_method ethanol/dichloromethane
loop_
_atom_site_label
_atom_site_type_symbol
_atom_site_fract_x
_atom_site_fract_y
_atom_site_fract_z
Br1 Br 0.94568(2) 1.25502(6) 0.38929(3)
O1 O 0.3953(2) 0.5077(3) 0.44650(10)
N1 N 0.45290(10) 0.8854(4) 0.37840(10)
C1 C 0.3198(2) 0.6571(4) 0.4094(2)
C2 C 0.2192(2) 0.6069(5) 0.4088(2)
C3 C 0.1441(2) 0.7597(4) 0.3714(2)
C4 C 0.1691(2) 0.9617(5) 0.3337(2)
C5 C 0.2693(2) 1.0125(4) 0.3336(2)
C6 C 0.3470(2) 0.8611(4) 0.3725(2)
C7 C 0.4899(2) 1.0675(4) 0.3536(2)
C8 C 0.5995(2) 1.1039(4) 0.3611(2)
C9 C 0.6326(2) 1.3041(5) 0.3283(2)
C10 C 0.7347(2) 1.3504(5) 0.3355(2)
C11 C 0.8047(2) 1.1925(5) 0.3766(2)
C12 C 0.7749(2) 0.9902(5) 0.4102(2)
C13 C 0.6724(2) 0.9475(4) 0.4025(2)
H1 H 0.4510(10) 0.568(5) 0.440(2)
H2 H 0.2022 0.4706 0.4335
H3 H 0.0761 0.7273 0.3713
H4 H 0.1177 1.0639 0.3083
H5 H 0.2853 1.1479 0.3076
H6 H 0.4451 1.1839 0.3295
H7 H 0.5843 1.4108 0.3007
H8 H 0.7556 1.4857 0.3128
H9 H 0.8236 0.8841 0.4376
H10 H 0.6518 0.8122 0.4254
loop_
_geom_bond_atom_site_label_1
_geom_bond_atom_site_label_2
_geom_bond_site_symmetry_1
_geom_bond_site_symmetry_2
Br1 C11 1_555 1_555
O1 C1 1_555 1_555
N1 C6 1_555 1_555
C1 C2 1_555 1_555
C2 C3 1_555 1_555
C3 C4 1_555 1_555
C4 C5 1_555 1_555
C5 C6 1_555 1_555
C6 C1 1_555 1_555
C7 N1 1_555 1_555
C8 C7 1_555 1_555
C9 C8 1_555 1_555
C10 C9 1_555 1_555
C11 C10 1_555 1_555
C12 C11 1_555 1_555
C13 C8 1_555 1_555
H1 O1 1_555 1_555
H2 C2 1_555 1_555
H3 C3 1_555 1_555
H4 C4 1_555 1_555
H5 C5 1_555 1_555
H6 C7 1_555 1_555
H7 C9 1_555 1_555
H8 C10 1_555 1_555
H9 C12 1_555 1_555
H10 C13 1_555 1_555
C12 C13 1_555 1_555

#END
