
#######################################################################
#
#                 Cambridge Crystallographic Data Centre
#                                CCDC 
#
#######################################################################
#
# If this CIF has been generated from an entry in the Cambridge 
# Structural Database, then it will include bibliographic, chemical, 
# crystal, experimental, refinement or atomic coordinate data resulting 
# from the CCDC's data processing and validation procedures.
#
#######################################################################

data_LENPEA
_chemical_formula_moiety         'C26 H38 N10 O4,4(C2 H6 O1 S1)'
_chemical_name_systematic        
'3,6,9,12,20,23,26,29,35,36-Decaazatricyclo[29.3.1.1^14,18^]hexatriaconta-1(36),14(35),15,17,31,33-hexaen-2,13,19,30-tetraone tetrakis(dimethylsulfoxide) clathrate'
_symmetry_cell_setting           triclinic
_symmetry_space_group_name_H-M   'P -1'
_symmetry_Int_Tables_number      2
_space_group_name_Hall           '-P 1'
loop_
_symmetry_equiv_pos_site_id
_symmetry_equiv_pos_as_xyz
1 x,y,z
2 -x,-y,-z
_cell_length_a                   10.2709(6)
_cell_length_b                   10.8236(6)
_cell_length_c                   11.1705(7)
_cell_angle_alpha                65.7600(10)
_cell_angle_beta                 88.0310(10)
_cell_angle_gamma                78.3450(10)
_cell_volume                     1107.33
_exptl_crystal_colour            colorless
_exptl_crystal_description       prism
_cell_formula_units_Z            1
loop_
_atom_site_label
_atom_site_type_symbol
_atom_site_fract_x
_atom_site_fract_y
_atom_site_fract_z
S1 S 0.89690(6) 0.30833(7) 0.39806(6)
O2 O 0.80350(19) 0.3488(2) 0.28163(18)
C2 C 0.8103(3) 0.3793(3) 0.5039(3)
H1 H 0.785(3) 0.476(3) 0.456(3)
H2 H 0.870(3) 0.358(3) 0.573(3)
H3 H 0.735(3) 0.337(3) 0.533(3)
C4 C 1.0138(3) 0.4192(4) 0.3456(3)
H5 H 1.063(4) 0.396(4) 0.286(4)
H6 H 1.067(3) 0.404(3) 0.421(3)
H7 H 0.964(4) 0.514(4) 0.301(4)
O1 O 0.30531(16) 0.33343(19) 0.20522(16)
N1 N 0.60917(18) 0.32567(18) 0.04679(17)
C1 C 0.4229(2) 0.3347(2) 0.1837(2)
N2 N 0.5117(2) 0.3353(2) 0.26725(18)
H4 H 0.585(3) 0.336(2) 0.248(2)
O3 O 0.86783(18) 0.2832(2) -0.15886(17)
C3 C 0.4786(2) 0.3346(2) 0.0571(2)
N3 N 0.8707(2) 0.3242(2) 0.0236(2)
H8 H 0.829(3) 0.338(3) 0.078(3)
C5 C 0.3944(2) 0.3427(2) -0.0415(2)
H9 H 0.308(3) 0.352(2) -0.031(2)
N4 N 0.5330(2) 0.1882(2) 0.63075(18)
H13 H 0.451(3) 0.210(3) 0.643(3)
C7 C 0.4497(3) 0.3379(2) -0.1543(2)
H14 H 0.395(3) 0.341(3) -0.221(3)
N5 N 1.20825(19) 0.1121(2) 0.15295(19)
H18 H 1.234(3) 0.171(3) 0.173(2)
C9 C 0.5849(2) 0.3269(2) -0.1658(2)
H19 H 0.626(3) 0.323(3) -0.240(3)
C10 C 0.6611(2) 0.3225(2) -0.0636(2)
C11 C 0.8097(2) 0.3091(2) -0.0717(2)
C12 C 1.0143(2) 0.2941(3) 0.0422(2)
H20 H 1.038(3) 0.361(3) 0.070(3)
H21 H 1.053(3) 0.308(3) -0.041(3)
C13 C 1.0640(2) 0.1461(3) 0.1395(2)
H22 H 1.033(3) 0.084(3) 0.111(3)
H23 H 1.023(3) 0.132(3) 0.224(3)
C14 C 1.2593(2) -0.0263(3) 0.2526(2)
H24 H 1.228(3) -0.093(3) 0.227(3)
H25 H 1.222(3) -0.040(3) 0.337(3)
C15 C 0.4813(3) 0.3295(2) 0.3967(2)
H26 H 0.516(3) 0.403(3) 0.408(2)
H27 H 0.390(3) 0.350(3) 0.400(2)
C16 C 0.5433(3) 0.1887(2) 0.5005(2)
H28 H 0.635(3) 0.168(2) 0.485(2)
H29 H 0.501(3) 0.118(3) 0.493(2)
C17 C 1.4098(2) -0.0536(2) 0.2642(2)
H30 H 1.437(2) 0.026(3) 0.275(2)
H31 H 1.447(3) -0.053(3) 0.182(3)
O1A O 1.69469(16) -0.33343(19) 0.79478(16)
N1A N 1.39083(18) -0.32567(18) 0.95321(17)
C1A C 1.5771(2) -0.3347(2) 0.8163(2)
N2A N 1.4883(2) -0.3353(2) 0.73275(18)
H4A H 1.415(3) -0.336(2) 0.752(2)
O3A O 1.13217(18) -0.2832(2) 1.15886(17)
C3A C 1.5214(2) -0.3346(2) 0.9429(2)
N3A N 1.1293(2) -0.3242(2) 0.9764(2)
H8A H 1.171(3) -0.338(3) 0.922(3)
C5A C 1.6056(2) -0.3427(2) 1.0415(2)
H9A H 1.692(3) -0.352(2) 1.031(2)
N4A N 1.4670(2) -0.1882(2) 0.36925(18)
H13A H 1.549(3) -0.210(3) 0.357(3)
C7A C 1.5503(3) -0.3379(2) 1.1543(2)
H14A H 1.605(3) -0.341(3) 1.221(3)
N5A N 0.79175(19) -0.1121(2) 0.84705(19)
H18A H 0.766(3) -0.171(3) 0.827(2)
C9A C 1.4151(2) -0.3269(2) 1.1658(2)
H19A H 1.374(3) -0.323(3) 1.240(3)
C10A C 1.3389(2) -0.3225(2) 1.0636(2)
C11A C 1.1903(2) -0.3091(2) 1.0717(2)
C12A C 0.9857(2) -0.2941(3) 0.9578(2)
H20A H 0.962(3) -0.361(3) 0.930(3)
H21A H 0.947(3) -0.308(3) 1.041(3)
C13A C 0.9360(2) -0.1461(3) 0.8605(2)
H22A H 0.967(3) -0.084(3) 0.889(3)
H23A H 0.977(3) -0.132(3) 0.776(3)
C14A C 0.7407(2) 0.0263(3) 0.7474(2)
H24A H 0.772(3) 0.093(3) 0.773(3)
H25A H 0.778(3) 0.040(3) 0.663(3)
C15A C 1.5187(3) -0.3295(2) 0.6033(2)
H26A H 1.484(3) -0.403(3) 0.592(2)
H27A H 1.610(3) -0.350(3) 0.600(2)
C16A C 1.4567(3) -0.1887(2) 0.4995(2)
H28A H 1.365(3) -0.168(2) 0.515(2)
H29A H 1.499(3) -0.118(3) 0.507(2)
C17A C 0.5902(2) 0.0536(2) 0.7358(2)
H30A H 0.563(2) -0.026(3) 0.725(2)
H31A H 0.553(3) 0.053(3) 0.818(3)
S2 S 0.15565(7) 0.14476(7) 0.70986(7)
O4 O 0.2254(2) 0.26371(19) 0.65017(19)
C6 C 0.2284(4) 0.0223(4) 0.6454(5)
H10 H 0.324(4) 0.006(3) 0.656(3)
H11 H 0.205(4) 0.067(4) 0.556(4)
H12 H 0.195(4) -0.060(4) 0.686(4)
C8 C 0.2255(4) 0.0484(4) 0.8731(3)
H15 H 0.319(4) 0.024(4) 0.869(4)
H16 H 0.186(4) -0.027(4) 0.912(4)
H17 H 0.205(4) 0.111(5) 0.913(4)
loop_
_geom_bond_atom_site_label_1
_geom_bond_atom_site_label_2
_geom_bond_site_symmetry_1
_geom_bond_site_symmetry_2
S1 O2 1_555 1_555
O1 C1 1_555 1_555
N1 C3 1_555 1_555
C1 N2 1_555 1_555
C2 S1 1_555 1_555
H1 C2 1_555 1_555
H2 C2 1_555 1_555
H3 C2 1_555 1_555
S2 O4 1_555 1_555
N2 H4 1_555 1_555
O3 C11 1_555 1_555
C3 C1 1_555 1_555
C4 S1 1_555 1_555
H5 C4 1_555 1_555
H6 C4 1_555 1_555
H7 C4 1_555 1_555
N3 H8 1_555 1_555
C5 C3 1_555 1_555
H9 C5 1_555 1_555
C6 S2 1_555 1_555
H10 C6 1_555 1_555
H11 C6 1_555 1_555
H12 C6 1_555 1_555
N4 H13 1_555 1_555
C7 C5 1_555 1_555
H14 C7 1_555 1_555
C8 S2 1_555 1_555
H15 C8 1_555 1_555
H16 C8 1_555 1_555
H17 C8 1_555 1_555
N5 H18 1_555 1_555
C9 C7 1_555 1_555
H19 C9 1_555 1_555
C10 N1 1_555 1_555
C11 N3 1_555 1_555
C12 N3 1_555 1_555
H20 C12 1_555 1_555
H21 C12 1_555 1_555
C13 N5 1_555 1_555
H22 C13 1_555 1_555
H23 C13 1_555 1_555
C14 N5 1_555 1_555
H24 C14 1_555 1_555
H25 C14 1_555 1_555
C15 N2 1_555 1_555
H26 C15 1_555 1_555
H27 C15 1_555 1_555
C16 N4 1_555 1_555
H28 C16 1_555 1_555
H29 C16 1_555 1_555
C17 C14 1_555 1_555
H30 C17 1_555 1_555
H31 C17 1_555 1_555
O1A C1A 1_555 1_555
N1A C3A 1_555 1_555
C1A N2A 1_555 1_555
N2A H4A 1_555 1_555
O3A C11A 1_555 1_555
C3A C1A 1_555 1_555
N3A H8A 1_555 1_555
C5A C3A 1_555 1_555
H9A C5A 1_555 1_555
N4A C17 1_555 1_555
H13A N4A 1_555 1_555
C7A C5A 1_555 1_555
H14A C7A 1_555 1_555
N5A H18A 1_555 1_555
C9A C7A 1_555 1_555
H19A C9A 1_555 1_555
C10A N1A 1_555 1_555
C11A N3A 1_555 1_555
C12A N3A 1_555 1_555
H20A C12A 1_555 1_555
H21A C12A 1_555 1_555
C13A N5A 1_555 1_555
H22A C13A 1_555 1_555
H23A C13A 1_555 1_555
C14A N5A 1_555 1_555
H24A C14A 1_555 1_555
H25A C14A 1_555 1_555
C15A N2A 1_555 1_555
H26A C15A 1_555 1_555
H27A C15A 1_555 1_555
C16A N4A 1_555 1_555
H28A C16A 1_555 1_555
H29A C16A 1_555 1_555
C17A N4 1_555 1_555
H30A C17A 1_555 1_555
H31A C17A 1_555 1_555
C9 C10 1_555 1_555
C10 C11 1_555 1_555
C12 C13 1_555 1_555
C15 C16 1_555 1_555
C9A C10A 1_555 1_555
C10A C11A 1_555 1_555
C12A C13A 1_555 1_555
C14A C17A 1_555 1_555
C15A C16A 1_555 1_555

#END
