
#######################################################################
#
#                 Cambridge Crystallographic Data Centre
#                                CCDC 
#
#######################################################################
#
# If this CIF has been generated from an entry in the Cambridge 
# Structural Database, then it will include bibliographic, chemical, 
# crystal, experimental, refinement or atomic coordinate data resulting 
# from the CCDC's data processing and validation procedures.
#
#######################################################################

data_LENQAW
_chemical_formula_moiety         'C11 H9 N1 O3'
_chemical_name_systematic        7-Acetoxyquinolin-2(1H)-one
_symmetry_cell_setting           monoclinic
_symmetry_space_group_name_H-M   'P 21/n'
_symmetry_Int_Tables_number      14
_space_group_name_Hall           '-P 2yn'
loop_
_symmetry_equiv_pos_site_id
_symmetry_equiv_pos_as_xyz
1 x,y,z
2 1/2-x,1/2+y,1/2-z
3 -x,-y,-z
4 1/2+x,1/2-y,1/2+z
_cell_length_a                   6.748(2)
_cell_length_b                   8.091(2)
_cell_length_c                   17.654(2)
_cell_angle_alpha                90
_cell_angle_beta                 97.06(2)
_cell_angle_gamma                90
_cell_volume                     956.566
_exptl_crystal_colour            colorless
_exptl_crystal_description       prism
_chemical_melting_point          247-248deg.C
_cell_formula_units_Z            4
_exptl_crystal_recrystallization_method 'ethyl acetate'
loop_
_atom_site_label
_atom_site_type_symbol
_atom_site_fract_x
_atom_site_fract_y
_atom_site_fract_z
O1 O 0.7543(3) 0.0609(3) -0.0265(1)
O2 O 1.3603(3) 0.2321(3) 0.31912(10)
O3 O 1.2652(3) 0.0369(3) 0.3977(1)
N1 N 0.9376(3) 0.1165(3) 0.0873(1)
C1 C 0.7654(4) 0.1276(4) 0.0374(2)
C2 C 0.6060(4) 0.2201(4) 0.0651(2)
C3 C 0.6252(4) 0.2872(4) 0.1353(2)
C4 C 0.8068(4) 0.2701(3) 0.1863(1)
C5 C 0.8358(4) 0.3359(4) 0.2602(2)
C6 C 1.0145(4) 0.3187(4) 0.3060(2)
C7 C 1.1686(4) 0.2355(4) 0.2768(1)
C8 C 1.1488(4) 0.1675(4) 0.2052(2)
C9 C 0.9656(4) 0.1839(3) 0.1597(1)
C10 C 1.3891(5) 0.1281(4) 0.3805(2)
C11 C 1.5962(5) 0.1482(5) 0.4218(2)
H1 H 1.036(4) 0.061(3) 0.070(1)
H2 H 0.492(4) 0.236(3) 0.029(1)
H3 H 0.511(4) 0.350(3) 0.154(1)
H4 H 0.725(4) 0.393(3) 0.279(1)
H5 H 1.032(3) 0.359(3) 0.360(1)
H6 H 1.257(3) 0.112(3) 0.188(1)
H7 H 1.691(4) 0.128(4) 0.387(1)
H8 H 1.624(4) 0.074(4) 0.467(1)
H9 H 1.622(4) 0.254(4) 0.432(2)
loop_
_geom_bond_atom_site_label_1
_geom_bond_atom_site_label_2
_geom_bond_site_symmetry_1
_geom_bond_site_symmetry_2
O1 C1 1_555 1_555
O2 C7 1_555 1_555
O3 C10 1_555 1_555
N1 C1 1_555 1_555
C1 C2 1_555 1_555
C2 C3 1_555 1_555
C3 C4 1_555 1_555
C4 C5 1_555 1_555
C5 C6 1_555 1_555
C6 C7 1_555 1_555
C7 C8 1_555 1_555
C8 C9 1_555 1_555
C9 N1 1_555 1_555
C10 O2 1_555 1_555
C11 C10 1_555 1_555
H1 N1 1_555 1_555
H2 C2 1_555 1_555
H3 C3 1_555 1_555
H4 C5 1_555 1_555
H5 C6 1_555 1_555
H6 C8 1_555 1_555
H7 C11 1_555 1_555
H8 C11 1_555 1_555
H9 C11 1_555 1_555
C4 C9 1_555 1_555

#END
