
#######################################################################
#
#                 Cambridge Crystallographic Data Centre
#                                CCDC 
#
#######################################################################
#
# If this CIF has been generated from an entry in the Cambridge 
# Structural Database, then it will include bibliographic, chemical, 
# crystal, experimental, refinement or atomic coordinate data resulting 
# from the CCDC's data processing and validation procedures.
#
#######################################################################

data_LENRAX
_chemical_formula_moiety         'C14 H8 N4'
_chemical_name_systematic        2-(2'-Phenylethenyl)-5,6-dicyanopyrazine
_symmetry_cell_setting           monoclinic
_symmetry_space_group_name_H-M   'P 21/c'
_symmetry_Int_Tables_number      14
_space_group_name_Hall           '-P 2ybc'
loop_
_symmetry_equiv_pos_site_id
_symmetry_equiv_pos_as_xyz
1 x,y,z
2 -x,1/2+y,1/2-z
3 -x,-y,-z
4 x,1/2-y,1/2+z
_cell_length_a                   7.317(2)
_cell_length_b                   14.155(8)
_cell_length_c                   11.061(3)
_cell_angle_alpha                90
_cell_angle_beta                 95.54(3)
_cell_angle_gamma                90
_cell_volume                     1140.26
_exptl_crystal_colour            yellow
_exptl_crystal_description       prismatic
_chemical_melting_point          233-234deg.C
_cell_formula_units_Z            4
_exptl_crystal_recrystallization_method chloroform
_exptl_crystal_preparation       'weakly fluorescent'
loop_
_atom_site_label
_atom_site_type_symbol
_atom_site_fract_x
_atom_site_fract_y
_atom_site_fract_z
N1 N 0.4026(3) -0.2389(2) 0.6766(2)
N2 N 0.2145(3) -0.2089(2) 0.4458(2)
N3 N 0.4035(4) -0.4795(2) 0.6859(2)
N4 N 0.1444(4) -0.4382(2) 0.3560(2)
C1 C 0.2336(4) 0.1328(2) 0.4862(2)
C2 C 0.1402(4) 0.1519(2) 0.3722(2)
C3 C 0.1067(4) 0.2429(2) 0.3364(3)
C4 C 0.1641(5) 0.3186(2) 0.4106(3)
C5 C 0.2568(4) 0.3003(2) 0.5228(3)
C6 C 0.2916(4) 0.2090(2) 0.5602(2)
C7 C 0.2717(4) 0.0372(2) 0.5296(2)
C8 C 0.2287(4) -0.0422(2) 0.4711(2)
C9 C 0.2717(4) -0.1368(2) 0.5170(2)
C10 C 0.3690(4) -0.1541(2) 0.6321(2)
C11 C 0.3411(4) -0.3115(2) 0.6042(2)
C12 C 0.2500(4) -0.2955(2) 0.4906(2)
C13 C 0.3760(4) -0.4050(2) 0.6499(3)
C14 C 0.1890(4) -0.3745(2) 0.4142(3)
H1 H 0.1012 0.1010 0.3200
H2 H 0.0411 0.2546 0.2592
H3 H 0.1414 0.3816 0.3842
H4 H 0.2973 0.3511 0.5748
H5 H 0.3553 0.1973 0.6375
H6 H 0.3340 0.0313 0.6087
H7 H 0.1637 -0.0376 0.3925
H8 H 0.4127 -0.1013 0.6792
loop_
_geom_bond_atom_site_label_1
_geom_bond_atom_site_label_2
_geom_bond_site_symmetry_1
_geom_bond_site_symmetry_2
N1 C10 1_555 1_555
N2 C9 1_555 1_555
N3 C13 1_555 1_555
N4 C14 1_555 1_555
C1 C2 1_555 1_555
C2 C3 1_555 1_555
C3 C4 1_555 1_555
C4 C5 1_555 1_555
C5 C6 1_555 1_555
C6 C1 1_555 1_555
C7 C1 1_555 1_555
C8 C7 1_555 1_555
C9 C8 1_555 1_555
C10 C9 1_555 1_555
C11 N1 1_555 1_555
C12 N2 1_555 1_555
C13 C11 1_555 1_555
C14 C12 1_555 1_555
H1 C2 1_555 1_555
H2 C3 1_555 1_555
H3 C4 1_555 1_555
H4 C5 1_555 1_555
H5 C6 1_555 1_555
H6 C7 1_555 1_555
H7 C8 1_555 1_555
H8 C10 1_555 1_555
C11 C12 1_555 1_555

#END
