
#######################################################################
#
#                 Cambridge Crystallographic Data Centre
#                                CCDC 
#
#######################################################################
#
# If this CIF has been generated from an entry in the Cambridge 
# Structural Database, then it will include bibliographic, chemical, 
# crystal, experimental, refinement or atomic coordinate data resulting 
# from the CCDC's data processing and validation procedures.
#
#######################################################################

data_LENWAF
_chemical_formula_moiety         'C64 H68 Br4 O8,1.5(C10 H8 N2)'
_chemical_name_systematic        
"5,11,17,23-tetrakis(bromoethynyl)-2,8,14,20-tetrakis(n-hexyl)-4,24:6,10:12,16:18,22-O,O'-tetramethylenecalix(4)resorcinarene sesquikis(2,2'-bipyridine)"
_symmetry_cell_setting           triclinic
_symmetry_space_group_name_H-M   'P -1'
_symmetry_Int_Tables_number      2
_space_group_name_Hall           '-P 1'
loop_
_symmetry_equiv_pos_site_id
_symmetry_equiv_pos_as_xyz
1 x,y,z
2 -x,-y,-z
_cell_length_a                   14.2868(3)
_cell_length_b                   14.3141(2)
_cell_length_c                   18.5645(3)
_cell_angle_alpha                85.7700(10)
_cell_angle_beta                 89.2060(10)
_cell_angle_gamma                68.2970(10)
_cell_volume                     3517.39
_exptl_crystal_colour            colorless
_exptl_crystal_description       prism
_cell_formula_units_Z            2
loop_
_atom_site_label
_atom_site_type_symbol
_atom_site_fract_x
_atom_site_fract_y
_atom_site_fract_z
Br1 Br -0.11139(3) 0.38653(3) 0.61777(2)
Br2 Br 0.25044(3) 0.68561(3) 0.71021(2)
Br3 Br 0.01422(3) 1.14378(3) 0.33805(3)
Br4 Br -0.34683(3) 0.82795(3) 0.31145(3)
C1 C 0.1487(3) 0.3392(2) 0.3132(2)
C2 C 0.0815(3) 0.3480(3) 0.3697(2)
C3 C 0.1105(3) 0.3422(3) 0.4418(2)
C4 C 0.2111(3) 0.3249(3) 0.45707(19)
C5 C 0.2820(3) 0.3156(2) 0.4028(2)
C6 C 0.2483(3) 0.3238(2) 0.3315(2)
H1 H 0.2950 0.3186 0.2937
C7 C 0.0380(3) 0.3551(3) 0.4990(2)
C8 C -0.0208(3) 0.3681(3) 0.5462(2)
C9 C 0.2525(3) 0.3909(3) 0.5617(2)
H2 H 0.2046 0.4549 0.5384
H3 H 0.2349 0.3878 0.6133
C10 C 0.3899(3) 0.2989(2) 0.4223(2)
H4 H 0.4035 0.2622 0.4713
C11 C 0.3955(3) 0.4022(3) 0.43073(19)
C12 C 0.3680(3) 0.4456(3) 0.49596(19)
C13 C 0.3600(3) 0.5453(3) 0.5049(2)
C14 C 0.3829(3) 0.5991(3) 0.4463(2)
C15 C 0.4129(3) 0.5578(3) 0.3803(2)
C16 C 0.4172(3) 0.4592(3) 0.37354(19)
H5 H 0.4355 0.4305 0.3285
C17 C 0.3254(3) 0.5908(3) 0.5713(2)
C18 C 0.2937(3) 0.6309(3) 0.6254(2)
C19 C 0.2948(3) 0.7778(3) 0.4308(2)
H6 H 0.2800 0.8325 0.4640
H7 H 0.2362 0.7566 0.4309
C20 C 0.4330(3) 0.6224(3) 0.3179(2)
H8 H 0.4565 0.6718 0.3398
C21 C 0.3329(3) 0.6832(3) 0.2803(2)
C22 C 0.2745(3) 0.7770(3) 0.3041(2)
C23 C 0.1818(3) 0.8372(3) 0.2703(2)
C24 C 0.1486(3) 0.8012(3) 0.2122(2)
C25 C 0.2036(3) 0.7062(3) 0.1880(2)
C26 C 0.2947(3) 0.6498(3) 0.22240(19)
H9 H 0.3330 0.5856 0.2060
C27 C 0.1249(3) 0.9356(3) 0.2939(2)
C28 C 0.0791(3) 1.0174(3) 0.3119(2)
C29 C -0.0277(3) 0.8430(3) 0.2002(2)
H10 H -0.0869 0.9071 0.1981
H11 H -0.0183 0.8141 0.2509
C30 C 0.1612(3) 0.6689(3) 0.1263(2)
H12 H 0.1159 0.7303 0.0972
C31 C 0.0944(3) 0.6158(3) 0.15904(19)
C32 C -0.0045(3) 0.6726(3) 0.17785(19)
C33 C -0.0647(3) 0.6296(3) 0.2148(2)
C34 C -0.0272(3) 0.5243(3) 0.2301(2)
C35 C 0.0704(3) 0.4648(3) 0.2124(2)
C36 C 0.1298(3) 0.5119(3) 0.17793(19)
H13 H 0.1973 0.4721 0.1667
C37 C -0.1618(3) 0.6924(3) 0.2410(2)
C38 C -0.2365(3) 0.7466(3) 0.2667(2)
C39 C -0.0861(3) 0.4580(3) 0.3357(2)
H14 H -0.1537 0.4654 0.3542
H15 H -0.0643 0.5067 0.3590
C40 C 0.1112(3) 0.3519(3) 0.2351(2)
H16 H 0.0524 0.3299 0.2354
C41 C 0.4682(3) 0.2314(3) 0.3715(2)
H17 H 0.4493 0.1737 0.3612
H18 H 0.4676 0.2706 0.3252
C42 C 0.5732(3) 0.1922(3) 0.4042(2)
H19 H 0.5706 0.1634 0.4540
H20 H 0.5955 0.2495 0.4073
C43 C 0.6516(3) 0.1117(3) 0.3620(2)
H21 H 0.6275 0.0562 0.3558
H22 H 0.6584 0.1416 0.3134
C44 C 0.7541(3) 0.0688(3) 0.3995(3)
H23 H 0.7453 0.0457 0.4498
H24 H 0.7802 0.1237 0.4016
C45 C 0.8331(4) -0.0183(4) 0.3642(3)
H25 H 0.8018 -0.0654 0.3499
H26 H 0.8570 0.0083 0.3199
C46 C 0.9228(4) -0.0755(4) 0.4140(3)
H27 H 0.9728 -0.1287 0.3883
H28 H 0.9003 -0.1057 0.4566
H29 H 0.9532 -0.0289 0.4293
C47 C 0.5160(3) 0.5643(3) 0.2675(2)
H30 H 0.5771 0.5240 0.2965
H31 H 0.4939 0.5169 0.2426
C48 C 0.5424(3) 0.6331(3) 0.2111(2)
H32 H 0.4864 0.6616 0.1753
H33 H 0.5491 0.6899 0.2350
C49 C 0.6393(3) 0.5795(3) 0.1717(2)
H34 H 0.6326 0.5225 0.1480
H35 H 0.6952 0.5512 0.2075
C50 C 0.6662(3) 0.6475(3) 0.1149(2)
H36 H 0.6695 0.7064 0.1380
H37 H 0.6120 0.6729 0.0776
C51 C 0.7662(4) 0.5941(4) 0.0786(3)
H38 H 0.8188 0.5617 0.1164
H39 H 0.7601 0.5402 0.0508
C52 C 0.7998(5) 0.6639(5) 0.0282(3)
H40 H 0.7448 0.7027 -0.0057
H41 H 0.8586 0.6238 0.0012
H42 H 0.8177 0.7101 0.0565
C53 C 0.2405(3) 0.6072(3) 0.0744(2)
H43 H 0.2064 0.5885 0.0349
H44 H 0.2855 0.5442 0.1007
C54 C 0.3039(3) 0.6654(3) 0.0417(2)
H45 H 0.2590 0.7354 0.0268
H46 H 0.3515 0.6684 0.0790
C55 C 0.3632(3) 0.6165(3) -0.0235(2)
H47 H 0.4030 0.5446 -0.0097
H48 H 0.3154 0.6194 -0.0625
C56 C 0.4342(3) 0.6677(3) -0.0523(2)
H49 H 0.3957 0.7410 -0.0611
H50 H 0.4866 0.6583 -0.0152
C57 C 0.4851(4) 0.6263(4) -0.1221(2)
H51 H 0.5210 0.5525 -0.1139
H52 H 0.4329 0.6387 -0.1599
C58 C 0.5589(4) 0.6736(5) -0.1486(3)
H53 H 0.5920 0.6421 -0.1919
H54 H 0.6098 0.6633 -0.1108
H55 H 0.5230 0.7460 -0.1601
C59 C 0.1879(3) 0.2875(3) 0.1827(2)
H56 H 0.1622 0.3091 0.1326
H57 H 0.2519 0.2986 0.1872
C60 C 0.2082(4) 0.1754(3) 0.1975(2)
H58 H 0.2341 0.1542 0.2476
H59 H 0.1438 0.1649 0.1937
C61 C 0.2832(4) 0.1089(3) 0.1464(3)
H60 H 0.3487 0.1164 0.1522
H61 H 0.2593 0.1325 0.0961
C62 C 0.2988(5) -0.0026(4) 0.1587(3)
H62 H 0.3272 -0.0265 0.2080
H63 H 0.2320 -0.0084 0.1573
C63 C 0.3654(6) -0.0720(5) 0.1070(4)
H64 H 0.3652 -0.1407 0.1178
H65 H 0.3391 -0.0488 0.0571
C64 C 0.4681(8) -0.0748(8) 0.1122(9)
H66 H 0.4690 -0.0079 0.0975
H67 H 0.5115 -0.1241 0.0804
H68 H 0.4927 -0.0941 0.1621
O1 O 0.2412(2) 0.30881(18) 0.52911(13)
O2 O 0.35050(19) 0.39122(18) 0.55626(13)
O3 O 0.3802(2) 0.69541(18) 0.45719(14)
O4 O 0.3068(2) 0.81590(18) 0.36024(14)
O5 O 0.0582(2) 0.86281(18) 0.17854(15)
O6 O -0.0467(2) 0.77523(18) 0.15610(14)
O7 O -0.09308(19) 0.48145(18) 0.26047(14)
O8 O -0.01749(19) 0.35858(18) 0.35546(14)
C66 C 0.1260(4) 0.8305(3) 0.8985(2)
C67 C 0.0546(4) 0.8379(4) 0.9523(2)
H74 H 0.0357 0.8917 0.9832
C68 C 0.0120(4) 0.7652(4) 0.9597(3)
H75 H -0.0358 0.7674 0.9963
C69 C 0.0398(4) 0.6909(4) 0.9138(3)
H76 H 0.0123 0.6397 0.9183
C70 C 0.1074(4) 0.6898(4) 0.8611(2)
H77 H 0.1243 0.6379 0.8287
C71 C 0.1796(4) 0.9016(3) 0.8911(2)
C72 C 0.2480(4) 0.8973(3) 0.8373(3)
H78 H 0.2612 0.8484 0.8028
C73 C 0.2981(4) 0.9650(4) 0.8335(3)
H79 H 0.3450 0.9633 0.7963
C74 C 0.2779(4) 1.0340(4) 0.8848(3)
H80 H 0.3110 1.0807 0.8844
C75 C 0.2077(4) 1.0339(4) 0.9373(3)
H81 H 0.1934 1.0825 0.9722
N1 N 0.1513(3) 0.7575(3) 0.8524(2)
N2 N 0.1590(3) 0.9700(3) 0.9420(2)
C76 C -0.5411(3) 1.0075(3) 0.4737(2)
C77 C -0.6390(3) 1.0709(3) 0.4854(3)
H82 H -0.6552 1.1080 0.5272
C78 C -0.7123(3) 1.0792(3) 0.4360(3)
H83 H -0.7799 1.1228 0.4431
C79 C -0.6879(4) 1.0244(3) 0.3760(3)
H84 H -0.7378 1.0279 0.3415
C80 C -0.5878(4) 0.9639(3) 0.3678(3)
H85 H -0.5704 0.9267 0.3261
N3 N -0.5155(3) 0.9545(3) 0.4137(2)
C76A C -0.4589(3) 0.9925(3) 0.5263(2)
C77A C -0.3610(3) 0.9291(3) 0.5146(3)
H82A H -0.3448 0.8920 0.4728
C78A C -0.2877(3) 0.9208(3) 0.5640(3)
H83A H -0.2201 0.8772 0.5569
C79A C -0.3121(4) 0.9756(3) 0.6240(3)
H84A H -0.2622 0.9721 0.6585
C80A C -0.4122(4) 1.0361(3) 0.6322(3)
H85A H -0.4296 1.0733 0.6739
N3A N -0.4845(3) 1.0455(3) 0.5863(2)
H69? H 0.4039 -0.1352 0.1360
H70? H 0.3200 -0.0884 0.0747
C65? C 0.440(2) -0.049(3) 0.0593(17)
H71? H 0.4089 -0.0219 0.0116
H72? H 0.4989 -0.1103 0.0543
H73? H 0.4602 0.0016 0.0805
loop_
_geom_bond_atom_site_label_1
_geom_bond_atom_site_label_2
_geom_bond_site_symmetry_1
_geom_bond_site_symmetry_2
Br1 C8 1_555 1_555
Br2 C18 1_555 1_555
Br3 C28 1_555 1_555
Br4 C38 1_555 1_555
C1 C2 1_555 1_555
C2 C3 1_555 1_555
C3 C4 1_555 1_555
C4 C5 1_555 1_555
C5 C6 1_555 1_555
C6 C1 1_555 1_555
H1 C6 1_555 1_555
C7 C3 1_555 1_555
C8 C7 1_555 1_555
C9 H2 1_555 1_555
H3 C9 1_555 1_555
C10 C5 1_555 1_555
H4 C10 1_555 1_555
C11 C10 1_555 1_555
C12 C11 1_555 1_555
C13 C12 1_555 1_555
C14 C13 1_555 1_555
C15 C14 1_555 1_555
C16 C11 1_555 1_555
H5 C16 1_555 1_555
C17 C13 1_555 1_555
C18 C17 1_555 1_555
C19 H6 1_555 1_555
H7 C19 1_555 1_555
C20 C15 1_555 1_555
H8 C20 1_555 1_555
C21 C20 1_555 1_555
C22 C21 1_555 1_555
C23 C22 1_555 1_555
C24 C23 1_555 1_555
C25 C24 1_555 1_555
C26 C21 1_555 1_555
H9 C26 1_555 1_555
C27 C23 1_555 1_555
C28 C27 1_555 1_555
C29 H10 1_555 1_555
H11 C29 1_555 1_555
C30 C25 1_555 1_555
H12 C30 1_555 1_555
C31 C30 1_555 1_555
C32 C31 1_555 1_555
C33 C32 1_555 1_555
C34 C33 1_555 1_555
C35 C34 1_555 1_555
C36 C31 1_555 1_555
H13 C36 1_555 1_555
C37 C33 1_555 1_555
C38 C37 1_555 1_555
C39 H14 1_555 1_555
H15 C39 1_555 1_555
C40 C1 1_555 1_555
H16 C40 1_555 1_555
C41 C10 1_555 1_555
H17 C41 1_555 1_555
H18 C41 1_555 1_555
C42 C41 1_555 1_555
H19 C42 1_555 1_555
H20 C42 1_555 1_555
C43 C42 1_555 1_555
H21 C43 1_555 1_555
H22 C43 1_555 1_555
C44 C43 1_555 1_555
H23 C44 1_555 1_555
H24 C44 1_555 1_555
C45 C44 1_555 1_555
H25 C45 1_555 1_555
H26 C45 1_555 1_555
C46 C45 1_555 1_555
H27 C46 1_555 1_555
H28 C46 1_555 1_555
H29 C46 1_555 1_555
C47 C20 1_555 1_555
H30 C47 1_555 1_555
H31 C47 1_555 1_555
C48 C47 1_555 1_555
H32 C48 1_555 1_555
H33 C48 1_555 1_555
C49 C48 1_555 1_555
H34 C49 1_555 1_555
H35 C49 1_555 1_555
C50 C49 1_555 1_555
H36 C50 1_555 1_555
H37 C50 1_555 1_555
C51 C50 1_555 1_555
H38 C51 1_555 1_555
H39 C51 1_555 1_555
C52 C51 1_555 1_555
H40 C52 1_555 1_555
H41 C52 1_555 1_555
H42 C52 1_555 1_555
C53 C30 1_555 1_555
H43 C53 1_555 1_555
H44 C53 1_555 1_555
C54 C53 1_555 1_555
H45 C54 1_555 1_555
H46 C54 1_555 1_555
C55 C54 1_555 1_555
H47 C55 1_555 1_555
H48 C55 1_555 1_555
C56 C55 1_555 1_555
H49 C56 1_555 1_555
H50 C56 1_555 1_555
C57 C56 1_555 1_555
H51 C57 1_555 1_555
H52 C57 1_555 1_555
C58 C57 1_555 1_555
H53 C58 1_555 1_555
H54 C58 1_555 1_555
H55 C58 1_555 1_555
C59 C40 1_555 1_555
H56 C59 1_555 1_555
H57 C59 1_555 1_555
C60 C59 1_555 1_555
H58 C60 1_555 1_555
H59 C60 1_555 1_555
C61 C60 1_555 1_555
H60 C61 1_555 1_555
H61 C61 1_555 1_555
C62 C61 1_555 1_555
H62 C62 1_555 1_555
H63 C62 1_555 1_555
C63 C62 1_555 1_555
H64 C63 1_555 1_555
H65 C63 1_555 1_555
C64 C63 1_555 1_555
H66 C64 1_555 1_555
H67 C64 1_555 1_555
H68 C64 1_555 1_555
O1 C4 1_555 1_555
O2 C9 1_555 1_555
O3 C14 1_555 1_555
O4 C19 1_555 1_555
O5 C24 1_555 1_555
O6 C29 1_555 1_555
O7 C34 1_555 1_555
O8 C2 1_555 1_555
C66 C67 1_555 1_555
C67 H74 1_555 1_555
C68 C67 1_555 1_555
H75 C68 1_555 1_555
C69 C68 1_555 1_555
H76 C69 1_555 1_555
C70 C69 1_555 1_555
H77 C70 1_555 1_555
C71 C66 1_555 1_555
C72 C71 1_555 1_555
H78 C72 1_555 1_555
C73 C72 1_555 1_555
H79 C73 1_555 1_555
C74 C73 1_555 1_555
H80 C74 1_555 1_555
C75 C74 1_555 1_555
H81 C75 1_555 1_555
N1 C66 1_555 1_555
N2 C71 1_555 1_555
C76 C77 1_555 1_555
C77 H82 1_555 1_555
C78 C77 1_555 1_555
H83 C78 1_555 1_555
C79 C78 1_555 1_555
H84 C79 1_555 1_555
C80 C79 1_555 1_555
H85 C80 1_555 1_555
N3 C76 1_555 1_555
C76A C76 1_555 1_555
C77A C76A 1_555 1_555
H82A C77A 1_555 1_555
C78A C77A 1_555 1_555
H83A C78A 1_555 1_555
C79A C78A 1_555 1_555
H84A C79A 1_555 1_555
C80A C79A 1_555 1_555
H85A C80A 1_555 1_555
N3A C76A 1_555 1_555
C9 O1 1_555 1_555
C12 O2 1_555 1_555
C15 C16 1_555 1_555
C19 O3 1_555 1_555
C22 O4 1_555 1_555
C25 C26 1_555 1_555
C29 O5 1_555 1_555
C32 O6 1_555 1_555
C35 C36 1_555 1_555
C35 C40 1_555 1_555
C39 O7 1_555 1_555
C39 O8 1_555 1_555
C70 N1 1_555 1_555
C75 N2 1_555 1_555
C80 N3 1_555 1_555
C80A N3A 1_555 1_555

#END
