
#######################################################################
#
#                 Cambridge Crystallographic Data Centre
#                                CCDC 
#
#######################################################################
#
# If this CIF has been generated from an entry in the Cambridge 
# Structural Database, then it will include bibliographic, chemical, 
# crystal, experimental, refinement or atomic coordinate data resulting 
# from the CCDC's data processing and validation procedures.
#
#######################################################################

data_LENXAF
_chemical_formula_moiety         'C28 H24 Cl1 N1 O10 S1'
_chemical_name_systematic        
9-((((4-Chlorophenyl)sulfonyl)oxy)imino)-5-(3,4,5-trimethoxyphenyl)-5,8,8a,9-tetrahydrofuro[3',4':6,7]naphtho[2,3-d][1,3]dioxol-6(5aH)-one
_symmetry_cell_setting           monoclinic
_symmetry_space_group_name_H-M   'P 21'
_symmetry_Int_Tables_number      4
_space_group_name_Hall           'P 2yb'
loop_
_symmetry_equiv_pos_site_id
_symmetry_equiv_pos_as_xyz
1 x,y,z
2 -x,1/2+y,-z
_cell_length_a                   9.803(4)
_cell_length_b                   11.764(5)
_cell_length_c                   12.827(5)
_cell_angle_alpha                90
_cell_angle_beta                 112.094(3)
_cell_angle_gamma                90
_cell_volume                     1370.62
_exptl_crystal_colour            colorless
_exptl_crystal_description       block
_cell_formula_units_Z            2
loop_
_atom_site_label
_atom_site_type_symbol
_atom_site_fract_x
_atom_site_fract_y
_atom_site_fract_z
C1 C 0.6275(4) 0.4703(3) 0.8776(3)
H1 H 0.6843 0.5335 0.9107
C2 C 0.6109(4) 0.3826(3) 0.9442(3)
C3 C 0.5282(4) 0.2874(3) 0.8969(3)
C4 C 0.4647(4) 0.2786(3) 0.7796(3)
C5 C 0.4807(4) 0.3668(3) 0.7130(3)
H2 H 0.4383 0.3607 0.6351
C6 C 0.5590(4) 0.4634(3) 0.7616(3)
C7 C 0.7697(5) 0.4732(4) 1.1140(3)
H3 H 0.8474 0.4775 1.0856
H4 H 0.8112 0.4601 1.1937
H5 H 0.7159 0.5434 1.0989
C8 C 0.6214(5) 0.1260(4) 1.0088(4)
H6 H 0.6406 0.0884 0.9493
H7 H 0.5957 0.0707 1.0533
H8 H 0.7079 0.1665 1.0555
C9 C 0.3391(6) 0.1582(4) 0.6220(3)
H9 H 0.2667 0.2145 0.5837
H10 H 0.2954 0.0840 0.6062
H11 H 0.4194 0.1624 0.5966
C10 C 0.5647(4) 0.5618(3) 0.6855(3)
H12 H 0.5052 0.5393 0.6081
C11 C 0.7184(4) 0.5874(3) 0.6893(3)
C12 C 0.7737(4) 0.5191(4) 0.6240(3)
H13 H 0.7191 0.4594 0.5808
C13 C 0.9107(4) 0.5443(4) 0.6268(3)
C14 C 1.1294(5) 0.5420(5) 0.6112(4)
H14 H 1.1618 0.5616 0.5507
H15 H 1.1980 0.4873 0.6599
C15 C 0.9933(4) 0.6325(4) 0.6897(3)
C16 C 0.9457(4) 0.6987(3) 0.7562(3)
H16 H 1.0031 0.7573 0.7995
C17 C 0.8044(4) 0.6739(3) 0.7562(3)
C18 C 0.7505(4) 0.7356(3) 0.8314(3)
C19 C 0.5892(4) 0.7441(3) 0.8095(3)
H17 H 0.5717 0.7227 0.8773
C20 C 0.5262(5) 0.8635(4) 0.7706(3)
H18 H 0.4500 0.8817 0.7989
H19 H 0.6031 0.9204 0.7974
C21 C 0.4491(4) 0.7522(4) 0.6117(4)
C22 C 0.4949(4) 0.6703(3) 0.7102(3)
H20 H 0.4062 0.6482 0.7231
C23 C 1.0016(4) 0.7782(4) 1.1732(3)
C24 C 1.1319(5) 0.7420(4) 1.1658(4)
H21 H 1.1716 0.7805 1.1205
C25 C 1.2019(5) 0.6482(4) 1.2267(4)
H22 H 1.2886 0.6219 1.2216
C26 C 1.1438(5) 0.5937(4) 1.2945(3)
C27 C 1.0152(5) 0.6304(4) 1.3031(4)
H23 H 0.9771 0.5926 1.3498
C28 C 0.9430(5) 0.7240(5) 1.2416(4)
H24 H 0.8560 0.7499 1.2466
Cl1 Cl 1.23071(16) 0.47417(12) 1.36809(11)
N1 N 0.8487(4) 0.7811(3) 0.9171(3)
O1 O 0.6722(3) 0.3815(2) 1.0596(2)
O2 O 0.5030(3) 0.2038(2) 0.9619(2)
O3 O 0.3922(3) 0.1785(2) 0.7397(2)
O4 O 0.9856(3) 0.4949(3) 0.5665(2)
O5 O 1.1248(3) 0.6419(3) 0.6739(2)
O6 O 0.4659(3) 0.8596(2) 0.6490(2)
O7 O 0.4025(4) 0.7308(3) 0.5130(3)
O8 O 0.7827(3) 0.8406(3) 0.9854(2)
O9 O 1.0039(3) 0.9618(3) 1.0600(3)
O10 O 0.8193(3) 0.9458(2) 1.1490(2)
S1 S 0.90737(11) 0.89586(9) 1.09425(9)
H25? H 0.9021 0.8304 0.8943
H26? H 0.9099 0.7269 0.9587
loop_
_geom_bond_atom_site_label_1
_geom_bond_atom_site_label_2
_geom_bond_site_symmetry_1
_geom_bond_site_symmetry_2
C1 H1 1_555 1_555
C2 C1 1_555 1_555
C3 C2 1_555 1_555
C4 C3 1_555 1_555
C5 C4 1_555 1_555
H2 C5 1_555 1_555
C6 C1 1_555 1_555
C7 H3 1_555 1_555
H4 C7 1_555 1_555
H5 C7 1_555 1_555
C8 H6 1_555 1_555
H7 C8 1_555 1_555
H8 C8 1_555 1_555
C9 H9 1_555 1_555
H10 C9 1_555 1_555
H11 C9 1_555 1_555
C10 C6 1_555 1_555
H12 C10 1_555 1_555
C11 C10 1_555 1_555
C12 C11 1_555 1_555
H13 C12 1_555 1_555
C13 C12 1_555 1_555
C14 H14 1_555 1_555
H15 C14 1_555 1_555
C15 C13 1_555 1_555
C16 C15 1_555 1_555
H16 C16 1_555 1_555
C17 C11 1_555 1_555
C18 C17 1_555 1_555
C19 C18 1_555 1_555
H17 C19 1_555 1_555
C20 C19 1_555 1_555
H18 C20 1_555 1_555
H19 C20 1_555 1_555
C21 C22 1_555 1_555
C22 C10 1_555 1_555
H20 C22 1_555 1_555
C23 C24 1_555 1_555
C24 H21 1_555 1_555
C25 C24 1_555 1_555
H22 C25 1_555 1_555
C26 C25 1_555 1_555
C27 C26 1_555 1_555
H23 C27 1_555 1_555
C28 C23 1_555 1_555
H24 C28 1_555 1_555
Cl1 C26 1_555 1_555
N1 C18 1_555 1_555
O1 C2 1_555 1_555
O2 C3 1_555 1_555
O3 C4 1_555 1_555
O4 C13 1_555 1_555
O5 C14 1_555 1_555
O6 C20 1_555 1_555
O7 C21 1_555 1_555
O8 N1 1_555 1_555
O9 S1 1_555 1_555
O10 S1 1_555 1_555
S1 C23 1_555 1_555
C5 C6 1_555 1_555
C7 O1 1_555 1_555
C8 O2 1_555 1_555
C9 O3 1_555 1_555
C14 O4 1_555 1_555
C15 O5 1_555 1_555
C16 C17 1_555 1_555
C19 C22 1_555 1_555
C21 O6 1_555 1_555
C27 C28 1_555 1_555
O8 S1 1_555 1_555

#END
