
#######################################################################
#
#                 Cambridge Crystallographic Data Centre
#                                CCDC 
#
#######################################################################
#
# If this CIF has been generated from an entry in the Cambridge 
# Structural Database, then it will include bibliographic, chemical, 
# crystal, experimental, refinement or atomic coordinate data resulting 
# from the CCDC's data processing and validation procedures.
#
#######################################################################

data_LENYIO
_chemical_name_common            7-ethynylcoumarin
_chemical_formula_moiety         'C18 H12 O2'
_chemical_name_systematic        7-Ethynyl-3-methyl-4-phenyl-2H-chromen-2-one
_symmetry_cell_setting           monoclinic
_symmetry_space_group_name_H-M   'P 21/n'
_symmetry_Int_Tables_number      14
_space_group_name_Hall           '-P 2yn'
loop_
_symmetry_equiv_pos_site_id
_symmetry_equiv_pos_as_xyz
1 x,y,z
2 1/2-x,1/2+y,1/2-z
3 -x,-y,-z
4 1/2+x,1/2-y,1/2+z
_cell_length_a                   9.8113(10)
_cell_length_b                   10.3682(12)
_cell_length_c                   14.2027(18)
_cell_angle_alpha                90
_cell_angle_beta                 104.050(4)
_cell_angle_gamma                90
_cell_volume                     1401.56
_exptl_crystal_colour            colorless
_exptl_crystal_description       prism
_cell_formula_units_Z            4
loop_
_atom_site_label
_atom_site_type_symbol
_atom_site_fract_x
_atom_site_fract_y
_atom_site_fract_z
O1 O 1.12963(11) 0.01447(10) 0.19294(9)
O2 O 1.25784(12) 0.14869(12) 0.29683(11)
C1 C 0.5237(2) 0.3998(3) 0.13319(17)
H1 H 0.4399 0.4496 0.1197
C2 C 0.52860(19) 0.2861(2) 0.18292(15)
H2 H 0.4495 0.2583 0.2051
C3 C 0.65029(18) 0.21127(19) 0.20091(14)
H3 H 0.6542 0.1324 0.2355
C4 C 0.76508(16) 0.25171(16) 0.16859(12)
C5 C 0.89382(16) 0.16996(15) 0.18128(12)
C6 C 0.88366(15) 0.05167(15) 0.12528(11)
C7 C 1.00315(15) -0.02378(15) 0.13381(11)
C8 C 1.00268(17) -0.13918(15) 0.08537(12)
H4 H 1.0865 -0.1882 0.0936
C9 C 0.87900(16) -0.18276(15) 0.02482(12)
C10 C 0.87423(17) -0.30352(18) -0.02563(13)
C11 C 0.86828(19) -0.4027(2) -0.06767(16)
H5 H 0.8635 -0.4823 -0.1014
C12 C 1.14210(17) 0.12540(16) 0.24713(13)
C13 C 1.01800(17) 0.20428(16) 0.24141(13)
C14 C 1.0399(2) 0.32061(18) 0.30627(16)
H6 H 1.1027 0.3814 0.2849
H7 H 1.0820 0.2940 0.3732
H8 H 0.9493 0.3624 0.3030
C15 C 0.75715(18) -0.10811(17) 0.01339(13)
H9 H 0.6717 -0.1371 -0.0283
C16 C 0.76020(17) 0.00666(17) 0.06196(13)
H10 H 0.6769 0.0567 0.0525
C17 C 0.75830(18) 0.36834(17) 0.12003(14)
H11 H 0.8373 0.3976 0.0984
C18 C 0.6374(2) 0.4427(2) 0.10278(16)
H12 H 0.6337 0.5230 0.0700
loop_
_geom_bond_atom_site_label_1
_geom_bond_atom_site_label_2
_geom_bond_site_symmetry_1
_geom_bond_site_symmetry_2
O1 C7 1_555 1_555
O2 C12 1_555 1_555
C1 H1 1_555 1_555
C2 C1 1_555 1_555
H2 C2 1_555 1_555
C3 C2 1_555 1_555
H3 C3 1_555 1_555
C4 C3 1_555 1_555
C5 C4 1_555 1_555
C6 C5 1_555 1_555
C7 C6 1_555 1_555
C8 C7 1_555 1_555
H4 C8 1_555 1_555
C9 C8 1_555 1_555
C10 C9 1_555 1_555
C11 C10 1_555 1_555
H5 C11 1_555 1_555
C12 O1 1_555 1_555
C13 C5 1_555 1_555
C14 C13 1_555 1_555
H6 C14 1_555 1_555
H7 C14 1_555 1_555
H8 C14 1_555 1_555
C15 C9 1_555 1_555
H9 C15 1_555 1_555
C16 C6 1_555 1_555
H10 C16 1_555 1_555
C17 C4 1_555 1_555
H11 C17 1_555 1_555
C18 C1 1_555 1_555
H12 C18 1_555 1_555
C12 C13 1_555 1_555
C15 C16 1_555 1_555
C17 C18 1_555 1_555

#END
