
#######################################################################
#
#                 Cambridge Crystallographic Data Centre
#                                CCDC 
#
#######################################################################
#
# If this CIF has been generated from an entry in the Cambridge 
# Structural Database, then it will include bibliographic, chemical, 
# crystal, experimental, refinement or atomic coordinate data resulting 
# from the CCDC's data processing and validation procedures.
#
#######################################################################

data_LEPBIS
_chemical_formula_moiety         'C48 H42 N2 O9'
_chemical_name_systematic        
6,21-bis(bis(Ethoxycarbonyl)methylidene)-11,16-diphenyl-24-oxabenziporphyrin
_symmetry_cell_setting           triclinic
_symmetry_space_group_name_H-M   'P -1'
_symmetry_Int_Tables_number      2
_space_group_name_Hall           '-P 1'
loop_
_symmetry_equiv_pos_site_id
_symmetry_equiv_pos_as_xyz
1 x,y,z
2 -x,-y,-z
_cell_length_a                   12.5773(13)
_cell_length_b                   13.0527(14)
_cell_length_c                   14.9394(16)
_cell_angle_alpha                103.581(2)
_cell_angle_beta                 103.794(2)
_cell_angle_gamma                113.814(2)
_cell_volume                     2022.09
_exptl_crystal_colour            dark-violet
_exptl_crystal_description       block
_cell_formula_units_Z            2
loop_
_atom_site_label
_atom_site_type_symbol
_atom_site_fract_x
_atom_site_fract_y
_atom_site_fract_z
O1 O 0.23304(18) 0.87646(17) 0.29714(13)
O2 O 0.00840(18) 0.28660(17) -0.10799(14)
O3 O 0.18776(19) 0.33562(18) -0.13459(16)
O4 O 0.0257(2) 0.3674(2) -0.30115(15)
O5 O 0.1144(3) 0.5677(2) -0.24421(15)
O6 O 0.2653(2) 0.91775(19) -0.18532(15)
O7 O 0.46604(19) 1.06470(18) -0.12145(14)
O8 O 0.5542(2) 1.1960(2) 0.10893(17)
O9 O 0.45110(19) 1.27261(18) 0.02759(15)
N1 N 0.2041(2) 0.66380(19) 0.13317(15)
H1 H 0.1604 0.7021 0.1301
N2 N 0.2107(2) 0.9981(2) 0.16127(16)
H2 H 0.1875 0.9211 0.1474
C1 C 0.1984(3) 0.9523(3) 0.3512(2)
C2 C 0.1940(3) 0.9247(3) 0.4380(2)
H3 H 0.1684 0.9590 0.4864
C3 C 0.2317(3) 0.8433(3) 0.4400(2)
H4 H 0.2421 0.8136 0.4919
C4 C 0.2540(3) 0.8075(3) 0.3511(2)
C5 C 0.2842(3) 0.7209(3) 0.3183(2)
C6 C 0.2770(3) 0.6668(2) 0.2191(2)
C7 C 0.3331(3) 0.5988(3) 0.1915(2)
H5 H 0.3902 0.5859 0.2356
C8 C 0.2915(3) 0.5527(3) 0.0884(2)
H6 H 0.3153 0.5033 0.0498
C9 C 0.2092(3) 0.5919(2) 0.0523(2)
C10 C 0.1439(3) 0.5733(2) -0.0497(2)
C11 C 0.1106(3) 0.6666(2) -0.06472(19)
C12 C -0.0130(3) 0.6329(3) -0.1135(2)
H7 H -0.0746 0.5501 -0.1404
C13 C -0.0483(3) 0.7185(3) -0.1236(2)
H8 H -0.1338 0.6944 -0.1573
C14 C 0.0411(3) 0.8392(3) -0.0847(2)
H9 H 0.0168 0.8983 -0.0898
C15 C 0.1662(3) 0.8738(2) -0.03808(19)
C16 C 0.2016(3) 0.7884(2) -0.02711(19)
H10 H 0.2873 0.8124 0.0058
C17 C 0.2617(3) 1.0038(2) 0.01231(19)
C18 C 0.2537(3) 1.0621(2) 0.10460(19)
C19 C 0.2770(3) 1.1781(2) 0.1506(2)
H11 H 0.3075 1.2428 0.1283
C20 C 0.2480(3) 1.1837(3) 0.2352(2)
H12 H 0.2538 1.2525 0.2801
C21 C 0.2093(3) 1.0720(3) 0.24272(19)
C22 C 0.1834(3) 1.0389(3) 0.3243(2)
C23 C 0.3270(3) 0.6724(3) 0.3922(2)
C24 C 0.4307(3) 0.7503(3) 0.4802(2)
H13 H 0.4733 0.8343 0.4932
C25 C 0.4719(3) 0.7055(4) 0.5490(3)
H14 H 0.5424 0.7590 0.6088
C26 C 0.4107(4) 0.5837(4) 0.5304(3)
H15 H 0.4397 0.5533 0.5770
C27 C 0.3079(4) 0.5064(3) 0.4446(3)
H16 H 0.2653 0.4226 0.4323
C28 C 0.2660(3) 0.5501(3) 0.3759(2)
H17 H 0.1947 0.4958 0.3167
C29 C 0.1105(2) 0.4736(2) -0.1285(2)
C30 C 0.0970(3) 0.3568(3) -0.1205(2)
C31 C 0.1706(3) 0.2154(3) -0.1463(3)
H18 H 0.0809 0.1544 -0.1824
H19 H 0.1991 0.2105 -0.0805
C32 C 0.2464(4) 0.1931(3) -0.2036(3)
H20 H 0.2370 0.1126 -0.2127
H21 H 0.3348 0.2541 -0.1672
H22 H 0.2170 0.1977 -0.2687
C33 C 0.0766(3) 0.4625(3) -0.2335(2)
C34 C 0.0777(4) 0.5688(4) -0.3440(3)
H23 H 0.0221 0.4852 -0.3931
H24 H 0.0314 0.6145 -0.3488
C35 C 0.1893(4) 0.6249(5) -0.3646(3)
H25 H 0.1659 0.6261 -0.4317
H26 H 0.2343 0.5789 -0.3601
H27 H 0.2435 0.7077 -0.3161
C36 C 0.3530(3) 1.0614(2) -0.0189(2)
C37 C 0.3531(3) 1.0042(3) -0.1180(2)
C38 C 0.4826(3) 1.0158(3) -0.2126(2)
H28 H 0.4406 0.9267 -0.2352
H29 H 0.5731 1.0457 -0.1985
C39 C 0.4303(3) 1.0506(3) -0.2929(2)
H30 H 0.4430 1.0161 -0.3526
H31 H 0.4729 1.1388 -0.2713
H32 H 0.3404 1.0200 -0.3079
C40 C 0.4647(3) 1.1826(3) 0.0480(2)
C41 C 0.5587(3) 1.3931(3) 0.0869(3)
H33 H 0.5584 1.4473 0.0504
H34 H 0.6368 1.3883 0.0954
C42 C 0.5585(4) 1.4464(3) 0.1870(3)
H35 H 0.6320 1.5269 0.2230
H36 H 0.5614 1.3945 0.2244
H37 H 0.4821 1.4528 0.1793
C43 C 0.1453(3) 1.1154(3) 0.3860(2)
C44 C 0.0364(3) 1.1179(3) 0.3414(2)
H38 H -0.0099 1.0743 0.2721
C45 C -0.0059(3) 1.1827(3) 0.3958(3)
H39 H -0.0817 1.1816 0.3644
C46 C 0.0618(4) 1.2485(3) 0.4953(3)
H40 H 0.0325 1.2927 0.5329
C47 C 0.1723(4) 1.2507(3) 0.5411(2)
H41 H 0.2194 1.2976 0.6098
C48 C 0.2152(3) 1.1844(3) 0.4867(2)
H42 H 0.2915 1.1864 0.5182
loop_
_geom_bond_atom_site_label_1
_geom_bond_atom_site_label_2
_geom_bond_site_symmetry_1
_geom_bond_site_symmetry_2
O1 C1 1_555 1_555
O2 C30 1_555 1_555
O3 C30 1_555 1_555
O4 C33 1_555 1_555
O5 C33 1_555 1_555
O6 C37 1_555 1_555
O7 C37 1_555 1_555
O8 C40 1_555 1_555
O9 C40 1_555 1_555
N1 H1 1_555 1_555
N2 H2 1_555 1_555
C1 C2 1_555 1_555
C2 H3 1_555 1_555
C3 C2 1_555 1_555
H4 C3 1_555 1_555
C4 O1 1_555 1_555
C5 C4 1_555 1_555
C6 N1 1_555 1_555
C7 C6 1_555 1_555
H5 C7 1_555 1_555
C8 C7 1_555 1_555
H6 C8 1_555 1_555
C9 N1 1_555 1_555
C10 C9 1_555 1_555
C11 C10 1_555 1_555
C12 C11 1_555 1_555
H7 C12 1_555 1_555
C13 C12 1_555 1_555
H8 C13 1_555 1_555
C14 C13 1_555 1_555
H9 C14 1_555 1_555
C15 C14 1_555 1_555
C16 C11 1_555 1_555
H10 C16 1_555 1_555
C17 C15 1_555 1_555
C18 N2 1_555 1_555
C19 C18 1_555 1_555
H11 C19 1_555 1_555
C20 C19 1_555 1_555
H12 C20 1_555 1_555
C21 N2 1_555 1_555
C22 C1 1_555 1_555
C23 C5 1_555 1_555
C24 C23 1_555 1_555
H13 C24 1_555 1_555
C25 C24 1_555 1_555
H14 C25 1_555 1_555
C26 C25 1_555 1_555
H15 C26 1_555 1_555
C27 C26 1_555 1_555
H16 C27 1_555 1_555
C28 C23 1_555 1_555
H17 C28 1_555 1_555
C29 C10 1_555 1_555
C30 C29 1_555 1_555
C31 O3 1_555 1_555
H18 C31 1_555 1_555
H19 C31 1_555 1_555
C32 C31 1_555 1_555
H20 C32 1_555 1_555
H21 C32 1_555 1_555
H22 C32 1_555 1_555
C33 C29 1_555 1_555
C34 O5 1_555 1_555
H23 C34 1_555 1_555
H24 C34 1_555 1_555
C35 C34 1_555 1_555
H25 C35 1_555 1_555
H26 C35 1_555 1_555
H27 C35 1_555 1_555
C36 C17 1_555 1_555
C37 C36 1_555 1_555
C38 O7 1_555 1_555
H28 C38 1_555 1_555
H29 C38 1_555 1_555
C39 C38 1_555 1_555
H30 C39 1_555 1_555
H31 C39 1_555 1_555
H32 C39 1_555 1_555
C40 C36 1_555 1_555
C41 O9 1_555 1_555
H33 C41 1_555 1_555
H34 C41 1_555 1_555
C42 C41 1_555 1_555
H35 C42 1_555 1_555
H36 C42 1_555 1_555
H37 C42 1_555 1_555
C43 C22 1_555 1_555
C44 C43 1_555 1_555
H38 C44 1_555 1_555
C45 C44 1_555 1_555
H39 C45 1_555 1_555
C46 C45 1_555 1_555
H40 C46 1_555 1_555
C47 C46 1_555 1_555
H41 C47 1_555 1_555
C48 C43 1_555 1_555
H42 C48 1_555 1_555
C3 C4 1_555 1_555
C5 C6 1_555 1_555
C8 C9 1_555 1_555
C15 C16 1_555 1_555
C17 C18 1_555 1_555
C20 C21 1_555 1_555
C21 C22 1_555 1_555
C27 C28 1_555 1_555
C47 C48 1_555 1_555

#END
