
#######################################################################
#
#                 Cambridge Crystallographic Data Centre
#                                CCDC 
#
#######################################################################
#
# If this CIF has been generated from an entry in the Cambridge 
# Structural Database, then it will include bibliographic, chemical, 
# crystal, experimental, refinement or atomic coordinate data resulting 
# from the CCDC's data processing and validation procedures.
#
#######################################################################

data_LEPBOY
_chemical_formula_moiety         'C47 H41 N3 O9'
_chemical_name_systematic        
6,21-bis(bis(Ethoxycarbonyl)methylidene)-11,16-diphenyl-24-oxapyriporphyrin
_symmetry_cell_setting           triclinic
_symmetry_space_group_name_H-M   'P -1'
_symmetry_Int_Tables_number      2
_space_group_name_Hall           '-P 1'
loop_
_symmetry_equiv_pos_site_id
_symmetry_equiv_pos_as_xyz
1 x,y,z
2 -x,-y,-z
_cell_length_a                   12.1293(7)
_cell_length_b                   13.3588(8)
_cell_length_c                   13.7337(8)
_cell_angle_alpha                68.8260(10)
_cell_angle_beta                 83.0250(10)
_cell_angle_gamma                75.2970(10)
_cell_volume                     2006.03
_exptl_crystal_colour            dark-red
_exptl_crystal_description       block
_cell_formula_units_Z            2
loop_
_atom_site_label
_atom_site_type_symbol
_atom_site_fract_x
_atom_site_fract_y
_atom_site_fract_z
O1 O 0.77121(17) 0.67185(17) 0.23123(16)
O2 O 0.4587(2) 1.2353(2) 0.17266(18)
O3 O 0.4743(2) 1.11439(18) 0.08999(17)
O4 O 0.2596(2) 1.0311(2) 0.3801(2)
O5 O 0.2395(2) 1.1376(2) 0.21239(19)
O6 O 0.1324(2) 0.5956(2) 0.60589(19)
O7 O 0.1918(2) 0.7506(2) 0.5207(2)
O8 O 0.3110(2) 0.39778(19) 0.53154(17)
O9 O 0.1636(2) 0.5040(2) 0.42990(19)
N1 N 0.5486(2) 0.5964(2) 0.31646(19)
H1 H 0.5945 0.6151 0.3484
N2 N 0.6925(2) 0.8619(2) 0.2873(2)
H2 H 0.6694 0.8005 0.3027
N3 N 0.4359(2) 0.8024(2) 0.3803(2)
C1 C 0.7812(3) 0.5887(2) 0.1896(2)
C2 C 0.8771(3) 0.7008(3) 0.2165(3)
C3 C 0.9546(3) 0.6259(3) 0.1733(3)
H3 H 1.0339 0.6223 0.1602
C4 C 0.8976(3) 0.5620(3) 0.1545(3)
H4 H 0.9289 0.5077 0.1230
C5 C 0.8910(3) 0.7916(3) 0.2306(3)
C6 C 0.8006(3) 0.8730(3) 0.2563(3)
C7 C 0.6250(3) 0.9584(3) 0.2914(3)
C8 C 0.6924(3) 1.0332(3) 0.2646(3)
H5 H 0.6684 1.1081 0.2604
C9 C 0.8021(3) 0.9800(3) 0.2446(3)
H6 H 0.8670 1.0115 0.2261
C10 C 0.5033(3) 0.9695(3) 0.3200(3)
C11 C 0.4772(3) 0.8713(3) 0.4078(3)
C12 C 0.5063(3) 0.8516(3) 0.5092(3)
H7 H 0.5398 0.9014 0.5239
C13 C 0.4855(3) 0.7583(3) 0.5880(3)
H8 H 0.5017 0.7436 0.6585
C14 C 0.4403(3) 0.6870(3) 0.5613(2)
H9 H 0.4249 0.6220 0.6135
C15 C 0.4176(3) 0.7107(3) 0.4582(2)
C16 C 0.3745(3) 0.6315(3) 0.4276(2)
C17 C 0.4357(3) 0.5971(3) 0.3441(2)
C18 C 0.5796(3) 0.5623(2) 0.2320(2)
C19 C 0.4833(3) 0.5427(3) 0.2042(2)
H10 H 0.4789 0.5189 0.1477
C20 C 0.3934(3) 0.5637(3) 0.2733(2)
H11 H 0.3176 0.5566 0.2725
C21 C 0.6927(3) 0.5472(2) 0.1833(2)
C22 C 1.0045(3) 0.8214(3) 0.2048(3)
C23 C 1.0723(4) 0.8138(3) 0.2820(4)
H12 H 1.0497 0.7828 0.3531
C24 C 1.1716(4) 0.8502(4) 0.2582(5)
H13 H 1.2161 0.8457 0.3126
C25 C 1.2069(4) 0.8932(4) 0.1557(5)
H14 H 1.2755 0.9188 0.1391
C26 C 1.1431(4) 0.8989(4) 0.0780(4)
H15 H 1.1674 0.9272 0.0069
C27 C 1.0431(4) 0.8633(4) 0.1039(4)
H16 H 0.9989 0.8680 0.0492
C28 C 0.4237(3) 1.0561(3) 0.2664(3)
C29 C 0.4549(3) 1.1469(3) 0.1722(3)
C30 C 0.5054(3) 1.1935(3) -0.0091(3)
H17 H 0.5873 1.1933 -0.0113
H18 H 0.4602 1.2688 -0.0170
C31 C 0.4808(3) 1.1591(3) -0.0947(3)
H19 H 0.5006 1.2105 -0.1623
H20 H 0.3995 1.1597 -0.0917
H21 H 0.5261 1.0846 -0.0861
C32 C 0.3011(3) 1.0720(3) 0.2958(3)
C33 C 0.1176(3) 1.1586(4) 0.2255(3)
H22 H 0.0925 1.1927 0.2799
H23 H 0.0922 1.0886 0.2477
C34 C 0.0676(4) 1.2338(5) 0.1246(4)
H24 H -0.0158 1.2491 0.1322
H25 H 0.0925 1.1991 0.0714
H26 H 0.0930 1.3029 0.1034
C35 C 0.2814(3) 0.5929(3) 0.4790(2)
C36 C 0.1958(3) 0.6444(3) 0.5424(3)
C37 C 0.1067(4) 0.8058(4) 0.5803(5)
H27 H 0.0323 0.8289 0.5466
H28 H 0.0983 0.7527 0.6514
C38 C 0.1324(6) 0.8938(6) 0.5880(6)
H29 H 0.0722 0.9267 0.6290
H30 H 0.1386 0.9478 0.5180
H31 H 0.2051 0.8715 0.6226
C39 C 0.2564(3) 0.4879(3) 0.4809(3)
C40 C 0.1215(3) 0.4059(3) 0.4457(3)
H32 H 0.0389 0.4280 0.4327
H33 H 0.1319 0.3566 0.5193
C41 C 0.1807(4) 0.3447(4) 0.3764(4)
H34 H 0.1498 0.2796 0.3903
H35 H 0.2625 0.3214 0.3898
H36 H 0.1690 0.3924 0.3034
C42 C 0.7118(3) 0.4801(3) 0.1131(2)
C43 C 0.7103(3) 0.3696(3) 0.1493(3)
H37 H 0.6968 0.3331 0.2216
C44 C 0.7285(3) 0.3115(3) 0.0809(3)
H38 H 0.7273 0.2355 0.1067
C45 C 0.7479(3) 0.3627(3) -0.0232(3)
H39 H 0.7614 0.3221 -0.0694
C46 C 0.7482(3) 0.4724(3) -0.0612(3)
H40 H 0.7603 0.5083 -0.1339
C47 C 0.7306(3) 0.5314(3) 0.0066(3)
H41 H 0.7314 0.6075 -0.0200
loop_
_geom_bond_atom_site_label_1
_geom_bond_atom_site_label_2
_geom_bond_site_symmetry_1
_geom_bond_site_symmetry_2
O1 C1 1_555 1_555
O2 C29 1_555 1_555
O3 C29 1_555 1_555
O4 C32 1_555 1_555
O5 C32 1_555 1_555
O6 C36 1_555 1_555
O7 C36 1_555 1_555
O8 C39 1_555 1_555
O9 C39 1_555 1_555
N1 H1 1_555 1_555
N2 H2 1_555 1_555
N3 C11 1_555 1_555
C1 C4 1_555 1_555
C2 O1 1_555 1_555
C3 C2 1_555 1_555
H3 C3 1_555 1_555
C4 C3 1_555 1_555
H4 C4 1_555 1_555
C5 C2 1_555 1_555
C6 N2 1_555 1_555
C7 N2 1_555 1_555
C8 C7 1_555 1_555
H5 C8 1_555 1_555
C9 C6 1_555 1_555
H6 C9 1_555 1_555
C10 C7 1_555 1_555
C11 C10 1_555 1_555
C12 C11 1_555 1_555
H7 C12 1_555 1_555
C13 C12 1_555 1_555
H8 C13 1_555 1_555
C14 C13 1_555 1_555
H9 C14 1_555 1_555
C15 N3 1_555 1_555
C16 C15 1_555 1_555
C17 N1 1_555 1_555
C18 N1 1_555 1_555
C19 C18 1_555 1_555
H10 C19 1_555 1_555
C20 C17 1_555 1_555
H11 C20 1_555 1_555
C21 C1 1_555 1_555
C22 C5 1_555 1_555
C23 C22 1_555 1_555
H12 C23 1_555 1_555
C24 C23 1_555 1_555
H13 C24 1_555 1_555
C25 C24 1_555 1_555
H14 C25 1_555 1_555
C26 C25 1_555 1_555
H15 C26 1_555 1_555
C27 C22 1_555 1_555
H16 C27 1_555 1_555
C28 C10 1_555 1_555
C29 C28 1_555 1_555
C30 O3 1_555 1_555
H17 C30 1_555 1_555
H18 C30 1_555 1_555
C31 C30 1_555 1_555
H19 C31 1_555 1_555
H20 C31 1_555 1_555
H21 C31 1_555 1_555
C32 C28 1_555 1_555
C33 O5 1_555 1_555
H22 C33 1_555 1_555
H23 C33 1_555 1_555
C34 C33 1_555 1_555
H24 C34 1_555 1_555
H25 C34 1_555 1_555
H26 C34 1_555 1_555
C35 C16 1_555 1_555
C36 C35 1_555 1_555
C37 O7 1_555 1_555
H27 C37 1_555 1_555
H28 C37 1_555 1_555
C38 C37 1_555 1_555
H29 C38 1_555 1_555
H30 C38 1_555 1_555
H31 C38 1_555 1_555
C39 C35 1_555 1_555
C40 O9 1_555 1_555
H32 C40 1_555 1_555
H33 C40 1_555 1_555
C41 C40 1_555 1_555
H34 C41 1_555 1_555
H35 C41 1_555 1_555
H36 C41 1_555 1_555
C42 C21 1_555 1_555
C43 C42 1_555 1_555
H37 C43 1_555 1_555
C44 C43 1_555 1_555
H38 C44 1_555 1_555
C45 C44 1_555 1_555
H39 C45 1_555 1_555
C46 C45 1_555 1_555
H40 C46 1_555 1_555
C47 C42 1_555 1_555
H41 C47 1_555 1_555
C5 C6 1_555 1_555
C8 C9 1_555 1_555
C14 C15 1_555 1_555
C16 C17 1_555 1_555
C18 C21 1_555 1_555
C19 C20 1_555 1_555
C26 C27 1_555 1_555
C46 C47 1_555 1_555

#END
