
#######################################################################
#
#                 Cambridge Crystallographic Data Centre
#                                CCDC 
#
#######################################################################
#
# If this CIF has been generated from an entry in the Cambridge 
# Structural Database, then it will include bibliographic, chemical, 
# crystal, experimental, refinement or atomic coordinate data resulting 
# from the CCDC's data processing and validation procedures.
#
#######################################################################

data_LEPCOA
_chemical_formula_moiety         'C22 H24 N2 O3'
_chemical_name_systematic        
3-Methyl-2-(4-(2-(morpholin-4-yl)ethoxy)phenyl)quinolin-4(1H)-one
_symmetry_cell_setting           triclinic
_symmetry_space_group_name_H-M   'P -1'
_symmetry_Int_Tables_number      2
_space_group_name_Hall           '-P 1'
loop_
_symmetry_equiv_pos_site_id
_symmetry_equiv_pos_as_xyz
1 x,y,z
2 -x,-y,-z
_cell_length_a                   10.859(2)
_cell_length_b                   12.827(3)
_cell_length_c                   13.637(3)
_cell_angle_alpha                92.735(3)
_cell_angle_beta                 93.407(3)
_cell_angle_gamma                97.914(3)
_cell_volume                     1875.06
_exptl_crystal_colour            colorless
_exptl_crystal_description       plate
_chemical_melting_point          '200-202 deg.C'
_cell_formula_units_Z            4
loop_
_atom_site_label
_atom_site_type_symbol
_atom_site_fract_x
_atom_site_fract_y
_atom_site_fract_z
O1 O 0.76121(12) 0.04707(10) 0.11688(8)
O2 O 0.96938(12) -0.36053(10) 0.58445(8)
O3 O 1.11326(16) -0.53607(18) 0.93380(11)
N1 N 0.72308(14) 0.01597(12) 0.40912(10)
N2 N 1.07251(15) -0.48671(12) 0.73363(10)
C1 C 0.74892(17) 0.03720(15) 0.20755(12)
C2 C 0.80177(17) -0.04266(14) 0.25947(12)
C3 C 0.78807(16) -0.04976(14) 0.35901(12)
C4 C 0.66628(17) 0.09266(14) 0.36445(12)
C5 C 0.67831(17) 0.10522(14) 0.26318(12)
C6 C 0.61926(18) 0.18367(15) 0.21902(13)
C7 C 0.55237(19) 0.24594(16) 0.27231(13)
C8 C 0.54101(19) 0.23205(16) 0.37353(13)
C9 C 0.59782(18) 0.15663(15) 0.41884(13)
C10 C 0.83965(17) -0.12955(14) 0.41865(11)
C11 C 0.75946(18) -0.20549(15) 0.46230(12)
C12 C 0.80566(18) -0.28085(15) 0.51720(12)
C13 C 0.93322(17) -0.28126(14) 0.52972(12)
C14 C 1.09912(19) -0.36985(18) 0.59268(15)
C15 C 1.1145(2) -0.47409(18) 0.63447(14)
C16 C 1.1492(2) -0.4139(2) 0.80557(15)
C17 C 1.1041(2) -0.4320(2) 0.90696(15)
C18 C 1.0380(3) -0.6080(2) 0.86528(18)
C19 C 1.0780(3) -0.5946(2) 0.76099(17)
C20 C 1.01481(19) -0.20560(15) 0.48859(12)
C21 C 0.96694(18) -0.13038(15) 0.43283(12)
C22 C 0.8671(2) -0.11753(17) 0.20132(14)
H1 H 0.722(2) 0.0103(17) 0.4812(8)
H2 H 0.631(2) 0.1910(16) 0.1525(15)
H3 H 0.5135(19) 0.3018(16) 0.2408(14)
H4 H 0.4952(18) 0.2783(15) 0.4119(13)
H5 H 0.5889(17) 0.1446(14) 0.4887(14)
H6 H 0.6742(19) -0.2062(14) 0.4526(12)
H7 H 0.7492(17) -0.3321(14) 0.5463(12)
H8 H 1.1355(19) -0.3693(15) 0.5288(15)
H9 H 1.1466(19) -0.3075(16) 0.6329(14)
H10 H 1.071(2) -0.5315(17) 0.5941(16)
H11 H 1.205(2) -0.4837(15) 0.6304(13)
H12 H 1.146(2) -0.335(2) 0.7928(17)
H13 H 1.241(2) -0.4293(18) 0.8056(16)
H14 H 1.013(2) -0.4181(16) 0.9053(14)
H15 H 1.161(3) -0.382(2) 0.9560(19)
H16 H 0.946(2) -0.5964(16) 0.8667(15)
H17 H 1.046(2) -0.681(2) 0.8828(17)
H18 H 1.021(2) -0.6424(18) 0.7122(17)
H19 H 1.169(2) -0.6079(17) 0.7582(16)
H20 H 1.1041(19) -0.2062(15) 0.4963(13)
H21 H 1.0248(17) -0.0771(14) 0.4073(12)
H22 H 0.813(2) -0.1511(17) 0.1464(17)
H23 H 0.943(2) -0.0824(17) 0.1813(15)
H24 H 0.8857(19) -0.1792(17) 0.2363(14)
O4 O 0.71217(13) 0.02564(11) -0.38774(8)
O5 O 0.40504(12) 0.38551(10) 0.07533(8)
O6 O 0.48455(12) 0.61990(10) 0.41441(8)
N3 N 0.73400(14) 0.04936(12) -0.08885(10)
N4 N 0.34245(14) 0.47479(12) 0.27003(10)
C23 C 0.71525(17) 0.02996(14) -0.29511(12)
C24 C 0.64097(17) 0.09418(14) -0.24165(12)
C25 C 0.65387(17) 0.10289(14) -0.14055(12)
C26 C 0.80389(17) -0.01731(14) -0.13403(12)
C27 C 0.79630(17) -0.02935(14) -0.23764(12)
C28 C 0.86859(18) -0.09814(15) -0.28177(13)
C29 C 0.94459(19) -0.15301(16) -0.22729(14)
C30 C 0.95238(18) -0.13894(16) -0.12368(13)
C31 C 0.88369(17) -0.07248(15) -0.07788(13)
C32 C 0.58641(17) 0.17373(15) -0.08090(11)
C33 C 0.63646(19) 0.27901(15) -0.06201(12)
C34 C 0.57459(19) 0.34744(16) -0.00953(13)
C35 C 0.45952(17) 0.31135(15) 0.02453(11)
C36 C 0.29175(18) 0.35185(16) 0.12121(13)
C37 C 0.25864(19) 0.44326(17) 0.18212(13)
C38 C 0.28273(19) 0.53732(17) 0.34052(13)
C39 C 0.36775(19) 0.56173(18) 0.43280(13)
C40 C 0.54259(19) 0.56327(18) 0.34163(13)
C41 C 0.46016(18) 0.53802(17) 0.24814(13)
C42 C 0.40783(18) 0.20699(15) 0.00641(13)
C43 C 0.47173(18) 0.13873(16) -0.04615(12)
C44 C 0.5525(2) 0.15122(17) -0.29945(14)
H25 H 0.739(2) 0.0532(18) -0.0162(7)
H26 H 0.864(2) -0.1063(16) -0.3513(16)
H27 H 0.9925(19) -0.2015(16) -0.2599(15)
H28 H 1.008(2) -0.1794(16) -0.0833(15)
H29 H 0.8823(18) -0.0636(14) -0.0062(14)
H30 H 0.719(2) 0.3043(15) -0.0872(14)
H31 H 0.6062(18) 0.4199(15) 0.0010(13)
H32 H 0.2222(19) 0.3271(15) 0.0674(14)
H33 H 0.3036(16) 0.2892(14) 0.1622(12)
H34 H 0.176(2) 0.4209(15) 0.2023(13)
H35 H 0.2521(17) 0.5050(15) 0.1403(13)
H36 H 0.1989(19) 0.4977(15) 0.3545(13)
H37 H 0.2652(17) 0.6064(15) 0.3122(13)
H38 H 0.382(2) 0.4925(18) 0.4652(15)
H39 H 0.3305(17) 0.6080(14) 0.4808(13)
H40 H 0.5637(18) 0.4955(16) 0.3695(13)
H41 H 0.622(2) 0.6078(16) 0.3297(13)
H42 H 0.5057(18) 0.4959(15) 0.1982(14)
H43 H 0.4445(17) 0.6100(15) 0.2170(13)
H44 H 0.325(2) 0.1809(15) 0.0294(14)
H45 H 0.4335(18) 0.0623(16) -0.0585(13)
H46 H 0.4956(19) 0.1834(15) -0.2577(14)
H47 H 0.504(2) 0.1018(16) -0.3521(15)
H48 H 0.5993(18) 0.2131(16) -0.3325(13)
loop_
_geom_bond_atom_site_label_1
_geom_bond_atom_site_label_2
_geom_bond_site_symmetry_1
_geom_bond_site_symmetry_2
O1 C1 1_555 1_555
O2 C13 1_555 1_555
O3 C17 1_555 1_555
N1 C3 1_555 1_555
N2 C15 1_555 1_555
C1 C2 1_555 1_555
C2 C3 1_555 1_555
C3 C10 1_555 1_555
C4 N1 1_555 1_555
C5 C1 1_555 1_555
C6 C5 1_555 1_555
C7 C6 1_555 1_555
C8 C7 1_555 1_555
C9 C4 1_555 1_555
C10 C11 1_555 1_555
C11 C12 1_555 1_555
C12 C13 1_555 1_555
C13 C20 1_555 1_555
C14 O2 1_555 1_555
C15 C14 1_555 1_555
C16 N2 1_555 1_555
C17 C16 1_555 1_555
C18 O3 1_555 1_555
C19 N2 1_555 1_555
C20 C21 1_555 1_555
C21 C10 1_555 1_555
C22 C2 1_555 1_555
H1 N1 1_555 1_555
H2 C6 1_555 1_555
H3 C7 1_555 1_555
H4 C8 1_555 1_555
H5 C9 1_555 1_555
H6 C11 1_555 1_555
H7 C12 1_555 1_555
H8 C14 1_555 1_555
H9 C14 1_555 1_555
H10 C15 1_555 1_555
H11 C15 1_555 1_555
H12 C16 1_555 1_555
H13 C16 1_555 1_555
H14 C17 1_555 1_555
H15 C17 1_555 1_555
H16 C18 1_555 1_555
H17 C18 1_555 1_555
H18 C19 1_555 1_555
H19 C19 1_555 1_555
H20 C20 1_555 1_555
H21 C21 1_555 1_555
H22 C22 1_555 1_555
H23 C22 1_555 1_555
H24 C22 1_555 1_555
O4 C23 1_555 1_555
O5 C35 1_555 1_555
O6 C39 1_555 1_555
N3 C25 1_555 1_555
N4 C37 1_555 1_555
C23 C24 1_555 1_555
C24 C25 1_555 1_555
C25 C32 1_555 1_555
C26 N3 1_555 1_555
C27 C23 1_555 1_555
C28 C27 1_555 1_555
C29 C28 1_555 1_555
C30 C29 1_555 1_555
C31 C26 1_555 1_555
C32 C33 1_555 1_555
C33 C34 1_555 1_555
C34 C35 1_555 1_555
C35 C42 1_555 1_555
C36 O5 1_555 1_555
C37 C36 1_555 1_555
C38 N4 1_555 1_555
C39 C38 1_555 1_555
C40 O6 1_555 1_555
C41 N4 1_555 1_555
C42 C43 1_555 1_555
C43 C32 1_555 1_555
C44 C24 1_555 1_555
H25 N3 1_555 1_555
H26 C28 1_555 1_555
H27 C29 1_555 1_555
H28 C30 1_555 1_555
H29 C31 1_555 1_555
H30 C33 1_555 1_555
H31 C34 1_555 1_555
H32 C36 1_555 1_555
H33 C36 1_555 1_555
H34 C37 1_555 1_555
H35 C37 1_555 1_555
H36 C38 1_555 1_555
H37 C38 1_555 1_555
H38 C39 1_555 1_555
H39 C39 1_555 1_555
H40 C40 1_555 1_555
H41 C40 1_555 1_555
H42 C41 1_555 1_555
H43 C41 1_555 1_555
H44 C42 1_555 1_555
H45 C43 1_555 1_555
H46 C44 1_555 1_555
H47 C44 1_555 1_555
H48 C44 1_555 1_555
C4 C5 1_555 1_555
C8 C9 1_555 1_555
C18 C19 1_555 1_555
C26 C27 1_555 1_555
C30 C31 1_555 1_555
C40 C41 1_555 1_555

#END
