
#######################################################################
#
#                 Cambridge Crystallographic Data Centre
#                                CCDC 
#
#######################################################################
#
# If this CIF has been generated from an entry in the Cambridge 
# Structural Database, then it will include bibliographic, chemical, 
# crystal, experimental, refinement or atomic coordinate data resulting 
# from the CCDC's data processing and validation procedures.
#
#######################################################################

data_LEPCAM
_chemical_formula_moiety         'C14 H12 N2 O4'
_chemical_name_systematic        "Dimethyl 2,2'-bipyridine-5,5'-dicarboxylate"
_symmetry_cell_setting           triclinic
_symmetry_space_group_name_H-M   'P -1'
_symmetry_Int_Tables_number      2
_space_group_name_Hall           '-P 1'
loop_
_symmetry_equiv_pos_site_id
_symmetry_equiv_pos_as_xyz
1 x,y,z
2 -x,-y,-z
_cell_length_a                   3.8433(5)
_cell_length_b                   11.3832(17)
_cell_length_c                   14.8536(18)
_cell_angle_alpha                74.966(15)
_cell_angle_beta                 85.577(15)
_cell_angle_gamma                84.556(17)
_cell_volume                     623.825
_exptl_crystal_colour            colorless
_exptl_crystal_description       prism
_cell_formula_units_Z            2
loop_
_atom_site_label
_atom_site_type_symbol
_atom_site_fract_x
_atom_site_fract_y
_atom_site_fract_z
O1 O 0.8616(4) 0.85575(12) 0.66908(9)
O2 O 0.6291(4) 1.04867(13) 0.62759(9)
N1 N 0.8168(4) 1.09013(13) 0.89207(10)
C1 C 0.9698(4) 0.99281(14) 0.95291(11)
C2 C 1.0681(4) 0.88411(15) 0.92988(11)
H1 H 1.1752 0.8190 0.9730
C3 C 1.0068(5) 0.87269(15) 0.84291(12)
H2 H 1.0708 0.7996 0.8268
C4 C 0.8485(4) 0.97094(15) 0.77906(11)
C5 C 0.7593(5) 1.07776(16) 0.80719(12)
H3 H 0.6541 1.1442 0.7649
C6 C 0.7659(5) 0.96518(17) 0.68420(12)
C7 C 0.7863(6) 0.8385(2) 0.57921(13)
H4 H 0.8439 0.7548 0.5786
H5 H 0.9233 0.8900 0.5307
H6 H 0.5421 0.8593 0.5690
O1A O 1.1384(4) 1.14425(12) 1.33092(9)
O2A O 1.3709(4) 0.95133(13) 1.37241(9)
N1A N 1.1832(4) 0.90987(13) 1.10793(10)
C1A C 1.0302(4) 1.00719(14) 1.04709(11)
C2A C 0.9319(4) 1.11589(15) 1.07012(11)
H1A H 0.8248 1.1810 1.0270
C3A C 0.9932(5) 1.12731(15) 1.15709(12)
H2A H 0.9292 1.2004 1.1732
C4A C 1.1515(4) 1.02906(15) 1.22094(11)
C5A C 1.2407(5) 0.92224(16) 1.19281(12)
H3A H 1.3459 0.8558 1.2351
C6A C 1.2341(5) 1.03482(17) 1.31580(12)
C7A C 1.2137(6) 1.1615(2) 1.42079(13)
H4A H 1.1561 1.2452 1.4214
H5A H 1.0767 1.1100 1.4693
H6A H 1.4579 1.1407 1.4310
O3 O 0.8070(4) 0.64833(12) 0.31805(9)
O4 O 0.6935(5) 0.45465(13) 0.38350(9)
N2 N 0.4786(4) 0.41323(13) 0.12150(10)
C8 C 0.5360(4) 0.50776(14) 0.04652(11)
C9 C 0.6563(4) 0.61468(14) 0.05422(11)
H7 H 0.6961 0.6774 0.0012
C10 C 0.7170(5) 0.62801(15) 0.14064(12)
H8 H 0.7960 0.7002 0.1467
C11 C 0.6597(4) 0.53306(15) 0.21900(11)
C12 C 0.5419(5) 0.42729(16) 0.20589(12)
H9 H 0.5049 0.3630 0.2580
C13 C 0.7203(5) 0.53867(17) 0.31543(12)
C14 C 0.8739(6) 0.6642(2) 0.40894(14)
H10 H 0.9305 0.7464 0.4024
H11 H 1.0664 0.6086 0.4344
H12 H 0.6690 0.6480 0.4500
O3A O 0.1930(4) 0.35167(12) -0.31805(9)
O4A O 0.3065(5) 0.54535(13) -0.38350(9)
N2A N 0.5214(4) 0.58677(13) -0.12150(10)
C8A C 0.4640(4) 0.49224(14) -0.04652(11)
C9A C 0.3437(4) 0.38532(14) -0.05422(11)
H7A H 0.3039 0.3226 -0.0012
C10A C 0.2830(5) 0.37199(15) -0.14064(12)
H8A H 0.2040 0.2998 -0.1467
C11A C 0.3403(4) 0.46694(15) -0.21900(11)
C12A C 0.4581(5) 0.57271(16) -0.20589(12)
H9A H 0.4951 0.6370 -0.2580
C13A C 0.2797(5) 0.46133(17) -0.31543(12)
C14A C 0.1261(6) 0.3358(2) -0.40894(14)
H10A H 0.0695 0.2536 -0.4024
H11A H -0.0664 0.3914 -0.4344
H12A H 0.3310 0.3520 -0.4500
loop_
_geom_bond_atom_site_label_1
_geom_bond_atom_site_label_2
_geom_bond_site_symmetry_1
_geom_bond_site_symmetry_2
O1 C6 1_555 1_555
O2 C6 1_555 1_555
O3 C13 1_555 1_555
O4 C13 1_555 1_555
N1 C1 1_555 1_555
N2 C8 1_555 1_555
C1 C2 1_555 1_555
C2 H1 1_555 1_555
C3 C2 1_555 1_555
H2 C3 1_555 1_555
C4 C3 1_555 1_555
C5 N1 1_555 1_555
H3 C5 1_555 1_555
C6 C4 1_555 1_555
C7 O1 1_555 1_555
H4 C7 1_555 1_555
H5 C7 1_555 1_555
H6 C7 1_555 1_555
C8 C9 1_555 1_555
C9 H7 1_555 1_555
C10 C9 1_555 1_555
H8 C10 1_555 1_555
C11 C10 1_555 1_555
C12 N2 1_555 1_555
H9 C12 1_555 1_555
C13 C11 1_555 1_555
C14 O3 1_555 1_555
H10 C14 1_555 1_555
H11 C14 1_555 1_555
H12 C14 1_555 1_555
O1A C6A 1_555 1_555
O2A C6A 1_555 1_555
O3A C13A 1_555 1_555
O4A C13A 1_555 1_555
N1A C1A 1_555 1_555
N2A C8A 1_555 1_555
C1A C1 1_555 1_555
C2A C1A 1_555 1_555
H1A C2A 1_555 1_555
C3A C2A 1_555 1_555
H2A C3A 1_555 1_555
C4A C3A 1_555 1_555
C5A N1A 1_555 1_555
H3A C5A 1_555 1_555
C6A C4A 1_555 1_555
C7A O1A 1_555 1_555
H4A C7A 1_555 1_555
H5A C7A 1_555 1_555
H6A C7A 1_555 1_555
C8A C8 1_555 1_555
C9A C8A 1_555 1_555
H7A C9A 1_555 1_555
C10A C9A 1_555 1_555
H8A C10A 1_555 1_555
C11A C10A 1_555 1_555
C12A N2A 1_555 1_555
H9A C12A 1_555 1_555
C13A C11A 1_555 1_555
C14A O3A 1_555 1_555
H10A C14A 1_555 1_555
H11A C14A 1_555 1_555
H12A C14A 1_555 1_555
C4 C5 1_555 1_555
C11 C12 1_555 1_555
C4A C5A 1_555 1_555
C11A C12A 1_555 1_555

#END
