
#######################################################################
#
#                 Cambridge Crystallographic Data Centre
#                                CCDC 
#
#######################################################################
#
# If this CIF has been generated from an entry in the Cambridge 
# Structural Database, then it will include bibliographic, chemical, 
# crystal, experimental, refinement or atomic coordinate data resulting 
# from the CCDC's data processing and validation procedures.
#
#######################################################################

data_LEPFES
_chemical_formula_moiety         'C5 N2 O7 2-,2(H4 N1 1+)'
_chemical_name_systematic        
'diammonium 3,5-dinitrocyclopenta-3,5-diide-1,2,4-trione'
_symmetry_cell_setting           triclinic
_symmetry_space_group_name_H-M   'P -1'
_symmetry_Int_Tables_number      2
_space_group_name_Hall           '-P 1'
loop_
_symmetry_equiv_pos_site_id
_symmetry_equiv_pos_as_xyz
1 x,y,z
2 -x,-y,-z
_cell_length_a                   4.485(1)
_cell_length_b                   7.527(1)
_cell_length_c                   13.367(2)
_cell_angle_alpha                94.15(1)
_cell_angle_beta                 92.73(1)
_cell_angle_gamma                101.75(1)
_cell_volume                     439.737
_exptl_crystal_colour            yellow
_exptl_crystal_description       block
_chemical_melting_point          238.4deg.C(dec.)
_cell_formula_units_Z            2
loop_
_atom_site_label
_atom_site_type_symbol
_atom_site_fract_x
_atom_site_fract_y
_atom_site_fract_z
O1 O 0.2999(3) 0.47280(15) 0.16525(9)
O2 O 0.5388(3) -0.09033(14) 0.23913(8)
O3 O 0.1770(3) 0.00846(15) 0.39089(8)
O4 O 0.6485(3) 0.31885(16) 0.03089(8)
O5 O 0.7908(3) 0.07415(16) 0.06998(9)
O6 O -0.1268(3) 0.30077(19) 0.42817(10)
O7 O -0.0545(3) 0.51650(16) 0.32651(10)
N1 N 0.6447(3) 0.19461(16) 0.08806(9)
N2 N -0.0067(3) 0.36746(18) 0.35267(10)
C1 C 0.3148(3) 0.33419(19) 0.20582(11)
C2 C 0.4784(3) 0.19244(19) 0.17321(11)
C3 C 0.4433(3) 0.05230(19) 0.23868(10)
C4 C 0.2425(3) 0.1054(2) 0.32154(11)
C5 C 0.1732(3) 0.2747(2) 0.29820(11)
N3 N -0.1176(3) 0.7017(2) 0.11650(11)
H1 H -0.195(5) 0.790(2) 0.1432(17)
H2 H -0.018(6) 0.729(4) 0.0642(14)
H3 H -0.004(5) 0.660(3) 0.1599(15)
H4 H -0.270(4) 0.611(3) 0.099(2)
N4 N 0.4006(3) 0.2491(2) 0.57582(11)
H5 H 0.305(5) 0.334(2) 0.5970(17)
H6 H 0.467(6) 0.199(3) 0.6271(13)
H7 H 0.550(4) 0.289(3) 0.5386(17)
H8 H 0.275(5) 0.164(3) 0.5384(17)
loop_
_geom_bond_atom_site_label_1
_geom_bond_atom_site_label_2
_geom_bond_site_symmetry_1
_geom_bond_site_symmetry_2
O1 C1 1_555 1_555
O2 C3 1_555 1_555
O3 C4 1_555 1_555
O4 N1 1_555 1_555
O5 N1 1_555 1_555
O6 N2 1_555 1_555
O7 N2 1_555 1_555
N1 C2 1_555 1_555
N2 C5 1_555 1_555
C1 C2 1_555 1_555
C2 C3 1_555 1_555
C3 C4 1_555 1_555
C4 C5 1_555 1_555
C5 C1 1_555 1_555
N3 H1 1_555 1_555
N4 H5 1_555 1_555
H2 N3 1_555 1_555
H3 N3 1_555 1_555
H4 N3 1_555 1_555
H6 N4 1_555 1_555
H7 N4 1_555 1_555
H8 N4 1_555 1_555

#END
