
#######################################################################
#
#                 Cambridge Crystallographic Data Centre
#                                CCDC 
#
#######################################################################
#
# If this CIF has been generated from an entry in the Cambridge 
# Structural Database, then it will include bibliographic, chemical, 
# crystal, experimental, refinement or atomic coordinate data resulting 
# from the CCDC's data processing and validation procedures.
#
#######################################################################

data_LEPKIB01
_chemical_formula_moiety         'C3 H1 N3 O3 2-,2(K1 1+)'
_chemical_name_systematic        
'di-potassium 2,4,6-trioxo-1,3,5-triazinane-1,3-diide'
_symmetry_cell_setting           orthorhombic
_symmetry_space_group_name_H-M   'C m c m'
_symmetry_Int_Tables_number      63
_space_group_name_Hall           '-C 2n 2'
loop_
_symmetry_equiv_pos_site_id
_symmetry_equiv_pos_as_xyz
1 x,y,z
2 -x,-y,1/2+z
3 -x,y,1/2-z
4 x,-y,-z
5 1/2+x,1/2+y,z
6 1/2-x,1/2-y,1/2+z
7 1/2-x,1/2+y,1/2-z
8 1/2+x,1/2-y,-z
9 -x,-y,-z
10 x,y,1/2-z
11 x,-y,1/2+z
12 -x,y,z
13 1/2-x,1/2-y,-z
14 1/2+x,1/2+y,1/2-z
15 1/2+x,1/2-y,1/2+z
16 1/2-x,1/2+y,z
_cell_length_a                   13.0970(6)
_cell_length_b                   6.6265(3)
_cell_length_c                   6.8836(3)
_cell_angle_alpha                90
_cell_angle_beta                 90
_cell_angle_gamma                90
_cell_volume                     597.409
_exptl_crystal_description       block
_cell_formula_units_Z            4
loop_
_atom_site_label
_atom_site_type_symbol
_atom_site_fract_x
_atom_site_fract_y
_atom_site_fract_z
O1 O 0.67241(7) 0.35103(18) 0.250000
O2 O 0.500000 0.9448(3) 0.250000
N1 N 0.500000 0.3579(3) 0.250000
N2 N 0.59302(9) 0.65875(18) 0.250000
C1 C 0.59252(10) 0.4564(2) 0.250000
C2 C 0.500000 0.7518(3) 0.250000
H1 H 0.500000 0.240(6) 0.250000
O1B O 0.32759(7) 0.35103(18) 0.250000
N2B N 0.40698(9) 0.65875(18) 0.250000
C1B C 0.40748(10) 0.4564(2) 0.250000
K1 K 0.67841(2) 1.000000 0.000000
loop_
_geom_bond_atom_site_label_1
_geom_bond_atom_site_label_2
_geom_bond_site_symmetry_1
_geom_bond_site_symmetry_2
O1 C1 1_555 1_555
O2 C2 1_555 1_555
N1 C1 1_555 1_555
N2 C1 1_555 1_555
C2 N2 1_555 1_555
H1 N1 1_555 1_555
O1B C1B 1_555 1_555
N2B C2 1_555 1_555
C1B N1 1_555 1_555
N2B C1B 1_555 1_555

#END
