
#######################################################################
#
#                 Cambridge Crystallographic Data Centre
#                                CCDC 
#
#######################################################################
#
# If this CIF has been generated from an entry in the Cambridge 
# Structural Database, then it will include bibliographic, chemical, 
# crystal, experimental, refinement or atomic coordinate data resulting 
# from the CCDC's data processing and validation procedures.
#
#######################################################################

data_LEPMUR
_chemical_formula_moiety         'C13 H12 N2 O5'
_chemical_name_systematic        
2-(1-ethyl-2,5-dioxopyrrolidin-3-yl)-6-nitrobenzaldehyde
_symmetry_cell_setting           triclinic
_symmetry_space_group_name_H-M   'P -1'
_symmetry_Int_Tables_number      2
_space_group_name_Hall           '-P 1'
loop_
_symmetry_equiv_pos_site_id
_symmetry_equiv_pos_as_xyz
1 x,y,z
2 -x,-y,-z
_cell_length_a                   7.783(5)
_cell_length_b                   8.864(5)
_cell_length_c                   9.720(6)
_cell_angle_alpha                97.154(11)
_cell_angle_beta                 101.604(11)
_cell_angle_gamma                106.554(11)
_cell_volume                     617.716
_exptl_crystal_colour            colorless
_exptl_crystal_description       block
_cell_formula_units_Z            2
loop_
_atom_site_label
_atom_site_type_symbol
_atom_site_fract_x
_atom_site_fract_y
_atom_site_fract_z
O1 O 0.40103(19) 0.01016(16) 0.30090(15)
O2 O 0.77367(19) 0.73648(15) 0.78954(15)
O3 O 0.80250(18) 0.29948(18) 0.40675(14)
O4 O 0.13184(18) -0.03190(16) 0.34026(15)
N1 N 1.03396(19) 0.67467(16) 0.87507(14)
N2 N 0.2967(2) 0.04090(16) 0.36981(15)
O5 O 1.2575(2) 0.55580(19) 0.91393(16)
C1 C 0.5503(2) 0.27701(18) 0.51224(17)
C2 C 0.6309(2) 0.38625(18) 0.64160(17)
C3 C 0.3764(2) 0.16732(18) 0.49723(17)
C4 C 0.8251(2) 0.50098(18) 0.67033(17)
H1 H 0.8441 0.5351 0.5788
C5 C 0.5335(3) 0.3828(2) 0.74547(18)
H2 H 0.5872 0.4581 0.8331
C6 C 0.6420(2) 0.28460(19) 0.39198(18)
H3 H 0.5695 0.2773 0.2988
C7 C 0.3609(3) 0.2735(2) 0.7260(2)
H4 H 0.2971 0.2744 0.7996
C8 C 0.9754(2) 0.4298(2) 0.72672(19)
H5 H 0.9224 0.3300 0.7606
H6 H 1.0369 0.4051 0.6510
C9 C 1.1094(2) 0.5555(2) 0.84790(18)
C10 C 0.2803(2) 0.1627(2) 0.6001(2)
H7 H 0.1617 0.0857 0.5855
C11 C 0.8661(2) 0.65002(19) 0.78240(18)
C12 C 1.1289(3) 0.8186(2) 0.98383(19)
H8 H 1.2190 0.7956 1.0591
H9 H 1.0378 0.8500 1.0289
C13 C 1.2288(3) 0.9555(2) 0.9228(2)
H10 H 1.1402 0.9782 0.8479
H11 H 1.3230 0.9266 0.8818
H12 H 1.2885 1.0509 0.9989
loop_
_geom_bond_atom_site_label_1
_geom_bond_atom_site_label_2
_geom_bond_site_symmetry_1
_geom_bond_site_symmetry_2
O1 N2 1_555 1_555
O2 C11 1_555 1_555
O3 C6 1_555 1_555
O4 N2 1_555 1_555
N1 C9 1_555 1_555
N2 C3 1_555 1_555
O5 C9 1_555 1_555
C1 C2 1_555 1_555
C2 C4 1_555 1_555
C3 C1 1_555 1_555
C4 H1 1_555 1_555
C5 C2 1_555 1_555
H2 C5 1_555 1_555
C6 C1 1_555 1_555
H3 C6 1_555 1_555
C7 C5 1_555 1_555
H4 C7 1_555 1_555
C8 C4 1_555 1_555
H5 C8 1_555 1_555
H6 C8 1_555 1_555
C9 C8 1_555 1_555
C10 C3 1_555 1_555
H7 C10 1_555 1_555
C11 N1 1_555 1_555
C12 N1 1_555 1_555
H8 C12 1_555 1_555
H9 C12 1_555 1_555
C13 C12 1_555 1_555
H10 C13 1_555 1_555
H11 C13 1_555 1_555
H12 C13 1_555 1_555
C4 C11 1_555 1_555
C7 C10 1_555 1_555

#END
