
#######################################################################
#
#                 Cambridge Crystallographic Data Centre
#                                CCDC 
#
#######################################################################
#
# If this CIF has been generated from an entry in the Cambridge 
# Structural Database, then it will include bibliographic, chemical, 
# crystal, experimental, refinement or atomic coordinate data resulting 
# from the CCDC's data processing and validation procedures.
#
#######################################################################

data_LEPMEY
_chemical_formula_moiety         'C24 H39 N1 O2 S1'
_chemical_name_systematic        
(3R)-exo-(((1''S)-1-Phenylpropyl)amino-(1'R)-sulfinyl)-(1R,2S)-1,7,7-trimethyl-2-exo-(2,2-dimethylpropoxy)-bicyclo(2.2.1)heptane
_symmetry_cell_setting           monoclinic
_symmetry_space_group_name_H-M   'P 21'
_symmetry_Int_Tables_number      4
_space_group_name_Hall           'P 2yb'
loop_
_symmetry_equiv_pos_site_id
_symmetry_equiv_pos_as_xyz
1 x,y,z
2 -x,1/2+y,-z
_cell_length_a                   10.262(3)
_cell_length_b                   20.559(6)
_cell_length_c                   12.792(4)
_cell_angle_alpha                90
_cell_angle_beta                 111.87(2)
_cell_angle_gamma                90
_cell_volume                     2504.58
_exptl_crystal_colour            colorless
_chemical_melting_point          144-146deg.C
_cell_formula_units_Z            4
loop_
_atom_site_label
_atom_site_type_symbol
_atom_site_fract_x
_atom_site_fract_y
_atom_site_fract_z
S1 S 0.0816(3) 0.0000 0.7665(2)
O1 O -0.0625(9) 0.0106(4) 0.7466(7)
O2 O 0.1049(7) 0.1372(4) 0.8009(6)
N1 N 0.0936(12) -0.0689(5) 0.7007(8)
C1 C 0.2450(17) 0.1530(7) 0.6822(13)
C2 C 0.1081(13) 0.1255(6) 0.6938(9)
C3 C 0.1181(12) 0.0530(6) 0.6668(8)
C4 C 0.2565(13) 0.0454(7) 0.6532(10)
C5 C 0.2379(15) 0.0742(9) 0.5391(11)
C6 C 0.2191(20) 0.1471(9) 0.5561(13)
C7 C 0.3514(11) 0.0988(9) 0.7320(11)
C8 C 0.3859(13) 0.0841(11) 0.8575(11)
C9 C 0.4888(19) 0.1073(12) 0.7187(15)
C10 C 0.2764(23) 0.2218(8) 0.7261(17)
C11 C -0.0202(14) 0.1609(7) 0.8040(9)
C12 C -0.0079(15) 0.1757(7) 0.9235(11)
C13 C -0.1470(19) 0.1976(12) 0.9201(15)
C14 C 0.1019(22) 0.2242(10) 0.9779(15)
C15 C 0.0296(18) 0.1128(9) 0.9884(13)
C16 C 0.0776(13) -0.1285(7) 0.7549(10)
C17 C 0.1926(12) -0.1362(6) 0.8710(10)
C18 C 0.1704(15) -0.1257(7) 0.9660(11)
C19 C 0.2727(22) -0.1311(9) 1.0722(12)
C20 C 0.4039(21) -0.1462(10) 1.0826(15)
C21 C 0.4305(16) -0.1597(13) 0.9902(21)
C22 C 0.3236(14) -0.1515(12) 0.8815(13)
C23 C 0.0627(17) -0.1855(6) 0.6778(10)
C24 C 0.0286(21) -0.2481(7) 0.7215(14)
H1 H 0.1095 -0.0687 0.6361
H2 H 0.0262 0.1443 0.6377
H3 H 0.0471 0.0446 0.5941
H4 H 0.2944 0.0021 0.6668
H5 H 0.1592 0.0552 0.4799
H6 H 0.3213 0.0673 0.5234
H7 H 0.2840 0.1734 0.5367
H8 H 0.1250 0.1597 0.5105
H9 H 0.4446 0.1183 0.9015
H10 H 0.3010 0.0820 0.8724
H11 H 0.4347 0.0434 0.8770
H12 H 0.5435 0.1404 0.7688
H13 H 0.5396 0.0670 0.7348
H14 H 0.4707 0.1198 0.6422
H15 H 0.3600 0.2385 0.7190
H16 H 0.1984 0.2494 0.6857
H17 H 0.2886 0.2207 0.8042
H18 H -0.0931 0.1293 0.7721
H19 H -0.0460 0.1996 0.7590
H20 H -0.1741 0.2379 0.8800
H21 H -0.2166 0.1650 0.8847
H22 H -0.1393 0.2035 0.9967
H23 H 0.1888 0.2087 0.9751
H24 H 0.0771 0.2646 0.9377
H25 H 0.1126 0.2308 1.0550
H26 H 0.1183 0.0971 0.9897
H27 H 0.0351 0.1198 1.0641
H28 H -0.0421 0.0813 0.9511
H29 H -0.0099 -0.1245 0.7654
H30 H 0.0785 -0.1118 0.9597
H31 H 0.2501 -0.1239 1.1376
H32 H 0.4775 -0.1480 1.1558
H33 H 0.5226 -0.1747 0.9991
H34 H 0.3460 -0.1560 0.8153
H35 H 0.1489 -0.1910 0.6657
H36 H -0.0097 -0.1761 0.6062
H37 H 0.0207 -0.2821 0.6680
H38 H 0.1016 -0.2588 0.7921
H39 H -0.0589 -0.2436 0.7319
S2 S -0.2827 -0.0423 1.4525
O3 O -0.1373 -0.0578 1.4767
O4 O -0.2618 0.0221 1.2629
N2 N -0.3141 -0.0442 1.5707
C25 C -0.3783(14) 0.1224(6) 1.2915(10)
C26 C -0.2573(11) 0.0711(6) 1.3422(9)
C27 C -0.2843(10) 0.0441(7) 1.4447(8)
C28 C -0.4237(11) 0.0798(6) 1.4373(9)
C29 C -0.3784(15) 0.1490(7) 1.4782(12)
C30 C -0.3405(17) 0.1783(7) 1.3822(13)
C31 C -0.5032(13) 0.0924(7) 1.3071(10)
C32 C -0.5574(13) 0.0265(8) 1.2436(12)
C33 C -0.6328(16) 0.1342(9) 1.2821(15)
C34 C -0.3974(19) 0.1440(8) 1.1738(12)
C35 C -0.1368(13) 0.0130(7) 1.2501(10)
C36 C -0.1534(15) -0.0386(9) 1.1610(11)
C37 C -0.0125(21) -0.0469(12) 1.1517(17)
C38 C -0.2664(21) -0.0188(10) 1.0509(11)
C39 C -0.1870(20) -0.1037(9) 1.2012(14)
C40 C -0.3440(11) -0.1091(6) 1.6049(9)
C41 C -0.4883(12) -0.1321(6) 1.5247(9)
C42 C -0.5055(17) -0.1830(6) 1.4555(10)
C43 C -0.6348(25) -0.2026(8) 1.3812(13)
C44 C -0.7525(20) -0.1723(10) 1.3800(15)
C45 C -0.7379(15) -0.1188(13) 1.4490(16)
C46 C -0.6075(15) -0.1011(9) 1.5236(13)
C47 C -0.3313(14) -0.1058(6) 1.7281(9)
C48 C -0.3516(17) -0.1705(8) 1.7772(11)
H40 H -0.3138 -0.0082 1.6108
H41 H -0.1682 0.0929 1.3672
H42 H -0.2097 0.0599 1.5107
H43 H -0.4776 0.0577 1.4737
H44 H -0.2993 0.1495 1.5483
H45 H -0.4545 0.1728 1.4865
H46 H -0.3927 0.2173 1.3523
H47 H -0.2421 0.1883 1.4083
H48 H -0.6062 0.0337 1.1643
H49 H -0.4783 -0.0014 1.2552
H50 H -0.6197 0.0065 1.2744
H51 H -0.6793 0.1411 1.2025
H52 H -0.6960 0.1130 1.3108
H53 H -0.6043 0.1752 1.3193
H54 H -0.4717 0.1755 1.1478
H55 H -0.3115 0.1633 1.1754
H56 H -0.4202 0.1073 1.1239
H57 H -0.0684 -0.0011 1.3208
H58 H -0.1040 0.0528 1.2292
H59 H 0.0561 -0.0595 1.2233
H60 H -0.0188 -0.0797 1.0967
H61 H 0.0149 -0.0064 1.1287
H62 H -0.3543 -0.0143 1.0608
H63 H -0.2414 0.0220 1.0270
H64 H -0.2751 -0.0514 0.9950
H65 H -0.1148 -0.1160 1.2713
H66 H -0.2738 -0.0977 1.2121
H67 H -0.1982 -0.1373 1.1464
H68 H -0.2749 -0.1389 1.5993
H69 H -0.4242 -0.2058 1.4549
H70 H -0.6434 -0.2383 1.3307
H71 H -0.8442 -0.1873 1.3328
H72 H -0.8186 -0.0940 1.4458
H73 H -0.5998 -0.0655 1.5741
H74 H -0.3981 -0.0746 1.7335
H75 H -0.2394 -0.0902 1.7735
H76 H -0.3423 -0.1638 1.8539
H77 H -0.4443 -0.1862 1.7343
H78 H -0.2836 -0.2020 1.7749
loop_
_geom_bond_atom_site_label_1
_geom_bond_atom_site_label_2
_geom_bond_site_symmetry_1
_geom_bond_site_symmetry_2
S1 O1 1_555 1_555
O2 C2 1_555 1_555
N1 S1 1_555 1_555
C1 C2 1_555 1_555
C2 C3 1_555 1_555
C3 S1 1_555 1_555
C4 C3 1_555 1_555
C5 C4 1_555 1_555
C6 C1 1_555 1_555
C7 C1 1_555 1_555
C8 C7 1_555 1_555
C9 C7 1_555 1_555
C10 C1 1_555 1_555
C11 O2 1_555 1_555
C12 C11 1_555 1_555
C13 C12 1_555 1_555
C14 C12 1_555 1_555
C15 C12 1_555 1_555
C16 N1 1_555 1_555
C17 C16 1_555 1_555
C18 C17 1_555 1_555
C19 C18 1_555 1_555
C20 C19 1_555 1_555
C21 C20 1_555 1_555
C22 C17 1_555 1_555
C23 C16 1_555 1_555
C24 C23 1_555 1_555
H1 N1 1_555 1_555
H2 C2 1_555 1_555
H3 C3 1_555 1_555
H4 C4 1_555 1_555
H5 C5 1_555 1_555
H6 C5 1_555 1_555
H7 C6 1_555 1_555
H8 C6 1_555 1_555
H9 C8 1_555 1_555
H10 C8 1_555 1_555
H11 C8 1_555 1_555
H12 C9 1_555 1_555
H13 C9 1_555 1_555
H14 C9 1_555 1_555
H15 C10 1_555 1_555
H16 C10 1_555 1_555
H17 C10 1_555 1_555
H18 C11 1_555 1_555
H19 C11 1_555 1_555
H20 C13 1_555 1_555
H21 C13 1_555 1_555
H22 C13 1_555 1_555
H23 C14 1_555 1_555
H24 C14 1_555 1_555
H25 C14 1_555 1_555
H26 C15 1_555 1_555
H27 C15 1_555 1_555
H28 C15 1_555 1_555
H29 C16 1_555 1_555
H30 C18 1_555 1_555
H31 C19 1_555 1_555
H32 C20 1_555 1_555
H33 C21 1_555 1_555
H34 C22 1_555 1_555
H35 C23 1_555 1_555
H36 C23 1_555 1_555
H37 C24 1_555 1_555
H38 C24 1_555 1_555
H39 C24 1_555 1_555
S2 O3 1_555 1_555
O4 C26 1_555 1_555
N2 S2 1_555 1_555
C25 C26 1_555 1_555
C26 C27 1_555 1_555
C27 S2 1_555 1_555
C28 C27 1_555 1_555
C29 C28 1_555 1_555
C30 C25 1_555 1_555
C31 C25 1_555 1_555
C32 C31 1_555 1_555
C33 C31 1_555 1_555
C34 C25 1_555 1_555
C35 O4 1_555 1_555
C36 C35 1_555 1_555
C37 C36 1_555 1_555
C38 C36 1_555 1_555
C39 C36 1_555 1_555
C40 N2 1_555 1_555
C41 C40 1_555 1_555
C42 C41 1_555 1_555
C43 C42 1_555 1_555
C44 C43 1_555 1_555
C45 C44 1_555 1_555
C46 C41 1_555 1_555
C47 C40 1_555 1_555
C48 C47 1_555 1_555
H40 N2 1_555 1_555
H41 C26 1_555 1_555
H42 C27 1_555 1_555
H43 C28 1_555 1_555
H44 C29 1_555 1_555
H45 C29 1_555 1_555
H46 C30 1_555 1_555
H47 C30 1_555 1_555
H48 C32 1_555 1_555
H49 C32 1_555 1_555
H50 C32 1_555 1_555
H51 C33 1_555 1_555
H52 C33 1_555 1_555
H53 C33 1_555 1_555
H54 C34 1_555 1_555
H55 C34 1_555 1_555
H56 C34 1_555 1_555
H57 C35 1_555 1_555
H58 C35 1_555 1_555
H59 C37 1_555 1_555
H60 C37 1_555 1_555
H61 C37 1_555 1_555
H62 C38 1_555 1_555
H63 C38 1_555 1_555
H64 C38 1_555 1_555
H65 C39 1_555 1_555
H66 C39 1_555 1_555
H67 C39 1_555 1_555
H68 C40 1_555 1_555
H69 C42 1_555 1_555
H70 C43 1_555 1_555
H71 C44 1_555 1_555
H72 C45 1_555 1_555
H73 C46 1_555 1_555
H74 C47 1_555 1_555
H75 C47 1_555 1_555
H76 C48 1_555 1_555
H77 C48 1_555 1_555
H78 C48 1_555 1_555
C4 C7 1_555 1_555
C5 C6 1_555 1_555
C21 C22 1_555 1_555
C28 C31 1_555 1_555
C29 C30 1_555 1_555
C45 C46 1_555 1_555

#END
