
#######################################################################
#
#                 Cambridge Crystallographic Data Centre
#                                CCDC 
#
#######################################################################
#
# If this CIF has been generated from an entry in the Cambridge 
# Structural Database, then it will include bibliographic, chemical, 
# crystal, experimental, refinement or atomic coordinate data resulting 
# from the CCDC's data processing and validation procedures.
#
#######################################################################

data_LEPNOK
_chemical_formula_moiety         'C13 H9 I1 N2 O3'
_chemical_name_systematic        N-(3-Iodophenyl)-2-nitrobenzamide
_symmetry_cell_setting           monoclinic
_symmetry_space_group_name_H-M   'P 21'
_symmetry_Int_Tables_number      4
_space_group_name_Hall           'P 2yb'
loop_
_symmetry_equiv_pos_site_id
_symmetry_equiv_pos_as_xyz
1 x,y,z
2 -x,1/2+y,-z
_cell_length_a                   11.0552(3)
_cell_length_b                   8.9521(2)
_cell_length_c                   12.8921(3)
_cell_angle_alpha                90
_cell_angle_beta                 96.3899(10)
_cell_angle_gamma                90
_cell_volume                     1267.97
_exptl_crystal_colour            colorless
_exptl_crystal_description       plate
_chemical_melting_point          '431-432 K'
_cell_formula_units_Z            4
_exptl_crystal_recrystallization_method ethanol
loop_
_atom_site_label
_atom_site_type_symbol
_atom_site_fract_x
_atom_site_fract_y
_atom_site_fract_z
C1 C 0.5361(2) 0.0339(3) 0.3889(2)
C2 C 0.6294(2) -0.0495(3) 0.3519(2)
N1 N 0.7028(2) -0.1510(3) 0.42213(19)
O1 O 0.6803(2) -0.1627(2) 0.51257(16)
O2 O 0.7834(3) -0.2232(4) 0.38748(19)
C3 C 0.6588(3) -0.0378(3) 0.2506(2)
C4 C 0.5935(3) 0.0629(3) 0.1842(2)
C5 C 0.5032(3) 0.1482(3) 0.2182(2)
C6 C 0.4744(3) 0.1339(3) 0.3209(2)
C7 C 0.4965(3) 0.0170(3) 0.4971(2)
O3 O 0.41838(18) -0.0745(2) 0.51331(15)
N2 N 0.5480(2) 0.1177(2) 0.56613(16)
C8 C 0.5354(2) 0.1321(3) 0.6736(2)
C9 C 0.4459(2) 0.0584(3) 0.7217(2)
C10 C 0.4390(3) 0.0853(3) 0.8276(2)
I1 I 0.300637(19) -0.021189(19) 0.899446(13)
C11 C 0.5187(3) 0.1804(3) 0.8850(2)
C12 C 0.6085(3) 0.2506(3) 0.8364(2)
C13 C 0.6169(3) 0.2271(3) 0.7309(2)
H1 H 0.7217 -0.0970 0.2272
H2 H 0.6119 0.0727 0.1142
H3 H 0.4598 0.2172 0.1721
H4 H 0.4117 0.1939 0.3440
H5 H 0.5961 0.1835 0.5408
H6 H 0.3910 -0.0085 0.6835
H7 H 0.5120 0.1974 0.9569
H8 H 0.6647 0.3152 0.8753
H9 H 0.6785 0.2761 0.6979
C14 C 0.0663(3) 0.6213(3) 0.1153(2)
C15 C 0.1448(2) 0.5035(3) 0.1487(2)
N3 N 0.2162(2) 0.4294(3) 0.07455(19)
O4 O 0.2260(2) 0.4905(3) -0.00874(15)
O5 O 0.2637(2) 0.3094(3) 0.09954(18)
C16 C 0.1612(3) 0.4573(3) 0.2516(2)
C17 C 0.0992(3) 0.5298(3) 0.3236(2)
C18 C 0.0238(3) 0.6478(4) 0.2939(2)
C19 C 0.0063(3) 0.6926(3) 0.1900(2)
C20 C 0.0462(3) 0.6776(3) 0.0046(2)
O6 O 0.08278(17) 0.8034(2) -0.01673(14)
N4 N -0.0173(2) 0.5866(3) -0.06381(16)
C21 C -0.0326(2) 0.6045(3) -0.1738(2)
C22 C 0.0577(2) 0.6711(3) -0.22596(19)
C23 C 0.0390(2) 0.6796(3) -0.3340(2)
I2 I 0.171754(17) 0.788540(17) -0.411901(13)
C24 C -0.0636(3) 0.6223(3) -0.3909(2)
C25 C -0.1510(3) 0.5536(3) -0.3375(2)
C26 C -0.1361(3) 0.5457(3) -0.2301(2)
H10 H 0.2145 0.3767 0.2722
H11 H 0.1087 0.4979 0.3943
H12 H -0.0166 0.6990 0.3446
H13 H -0.0474 0.7730 0.1700
H14 H -0.0525 0.5089 -0.0382
H15 H 0.1299 0.7095 -0.1885
H16 H -0.0743 0.6295 -0.4649
H17 H -0.2216 0.5119 -0.3753
H18 H -0.1969 0.4997 -0.1944
loop_
_geom_bond_atom_site_label_1
_geom_bond_atom_site_label_2
_geom_bond_site_symmetry_1
_geom_bond_site_symmetry_2
C1 C2 1_555 1_555
C2 N1 1_555 1_555
N1 O1 1_555 1_555
O2 N1 1_555 1_555
C3 C2 1_555 1_555
C4 C3 1_555 1_555
C5 C4 1_555 1_555
C6 C1 1_555 1_555
C7 C1 1_555 1_555
O3 C7 1_555 1_555
N2 C7 1_555 1_555
C8 N2 1_555 1_555
C9 C8 1_555 1_555
C10 C9 1_555 1_555
I1 C10 1_555 1_555
C11 C10 1_555 1_555
C12 C11 1_555 1_555
C13 C8 1_555 1_555
C14 C15 1_555 1_555
C15 N3 1_555 1_555
N3 O4 1_555 1_555
O5 N3 1_555 1_555
C16 C15 1_555 1_555
C17 C16 1_555 1_555
C18 C17 1_555 1_555
C19 C14 1_555 1_555
C20 C14 1_555 1_555
O6 C20 1_555 1_555
N4 C20 1_555 1_555
C21 N4 1_555 1_555
C22 C21 1_555 1_555
C23 C22 1_555 1_555
I2 C23 1_555 1_555
C24 C23 1_555 1_555
C25 C24 1_555 1_555
C26 C21 1_555 1_555
H1 C3 1_555 1_555
H2 C4 1_555 1_555
H3 C5 1_555 1_555
H4 C6 1_555 1_555
H5 N2 1_555 1_555
H6 C9 1_555 1_555
H7 C11 1_555 1_555
H8 C12 1_555 1_555
H9 C13 1_555 1_555
H10 C16 1_555 1_555
H11 C17 1_555 1_555
H12 C18 1_555 1_555
H13 C19 1_555 1_555
H14 N4 1_555 1_555
H15 C22 1_555 1_555
H16 C24 1_555 1_555
H17 C25 1_555 1_555
H18 C26 1_555 1_555
C5 C6 1_555 1_555
C12 C13 1_555 1_555
C18 C19 1_555 1_555
C25 C26 1_555 1_555

#END
