
#######################################################################
#
#                 Cambridge Crystallographic Data Centre
#                                CCDC 
#
#######################################################################
#
# If this CIF has been generated from an entry in the Cambridge 
# Structural Database, then it will include bibliographic, chemical, 
# crystal, experimental, refinement or atomic coordinate data resulting 
# from the CCDC's data processing and validation procedures.
#
#######################################################################

data_LEPNIE
_chemical_formula_moiety         'C13 H9 I1 N2 O3'
_chemical_name_systematic        N-(2-Iodophenyl)-4-nitrobenzamide
_symmetry_cell_setting           monoclinic
_symmetry_space_group_name_H-M   'P c'
_symmetry_Int_Tables_number      7
_space_group_name_Hall           'P -2yc'
loop_
_symmetry_equiv_pos_site_id
_symmetry_equiv_pos_as_xyz
1 x,y,z
2 x,-y,1/2+z
_cell_length_a                   10.0528(3)
_cell_length_b                   4.8703(10)
_cell_length_c                   13.5719(3)
_cell_angle_alpha                90
_cell_angle_beta                 109.9452(17)
_cell_angle_gamma                90
_cell_volume                     624.626
_exptl_crystal_colour            brown
_exptl_crystal_description       plate
_chemical_melting_point          '469-471 K(dec.)'
_cell_formula_units_Z            2
_exptl_crystal_recrystallization_method ethanol
loop_
_atom_site_label
_atom_site_type_symbol
_atom_site_fract_x
_atom_site_fract_y
_atom_site_fract_z
C1 C 0.5752(3) 0.3044(6) 0.4647(2)
C2 C 0.6262(3) 0.0947(5) 0.5369(2)
C3 C 0.5580(3) 0.0257(6) 0.6070(2)
C4 C 0.4401(3) 0.1752(6) 0.6040(2)
C5 C 0.3863(4) 0.3834(6) 0.5336(3)
C6 C 0.4536(3) 0.4493(6) 0.4629(2)
C7 C 0.6533(3) 0.3998(5) 0.3944(3)
O1 O 0.6439(3) 0.6401(3) 0.3643(2)
N1 N 0.7377(3) 0.2097(5) 0.37238(19)
C8 C 0.8439(3) 0.2622(5) 0.3288(2)
C9 C 0.9731(3) 0.1242(5) 0.3667(3)
C10 C 1.0798(4) 0.1711(6) 0.3246(3)
C11 C 1.0584(4) 0.3658(6) 0.2466(3)
C12 C 0.9320(4) 0.5056(7) 0.2088(3)
C13 C 0.8237(3) 0.4548(6) 0.2474(2)
N2 N 0.3713(3) 0.1070(5) 0.6813(2)
O2 O 0.4000(3) -0.1124(4) 0.7272(2)
O3 O 0.2887(3) 0.2714(6) 0.6949(2)
I1 I 1.01765(2) -0.13097(3) 0.49856(2)
H1 H 0.7088 -0.0029 0.5385
H2 H 0.5917 -0.1203 0.6556
H3 H 0.3043 0.4809 0.5332
H4 H 0.4175 0.5922 0.4133
H5 H 0.7243 0.0343 0.3813
H6 H 1.1659 0.0708 0.3493
H7 H 1.1314 0.4033 0.2188
H8 H 0.9190 0.6393 0.1554
H9 H 0.7362 0.5491 0.2192
loop_
_geom_bond_atom_site_label_1
_geom_bond_atom_site_label_2
_geom_bond_site_symmetry_1
_geom_bond_site_symmetry_2
C1 C2 1_555 1_555
C2 C3 1_555 1_555
C3 C4 1_555 1_555
C4 C5 1_555 1_555
C5 C6 1_555 1_555
C6 C1 1_555 1_555
C7 C1 1_555 1_555
O1 C7 1_555 1_555
N1 C7 1_555 1_555
C8 N1 1_555 1_555
C9 C8 1_555 1_555
C10 C9 1_555 1_555
C11 C10 1_555 1_555
C12 C11 1_555 1_555
C13 C8 1_555 1_555
N2 C4 1_555 1_555
O2 N2 1_555 1_555
O3 N2 1_555 1_555
I1 C9 1_555 1_555
H1 C2 1_555 1_555
H2 C3 1_555 1_555
H3 C5 1_555 1_555
H4 C6 1_555 1_555
H5 N1 1_555 1_555
H6 C10 1_555 1_555
H7 C11 1_555 1_555
H8 C12 1_555 1_555
H9 C13 1_555 1_555
C12 C13 1_555 1_555

#END
