
#######################################################################
#
#                 Cambridge Crystallographic Data Centre
#                                CCDC 
#
#######################################################################
#
# If this CIF has been generated from an entry in the Cambridge 
# Structural Database, then it will include bibliographic, chemical, 
# crystal, experimental, refinement or atomic coordinate data resulting 
# from the CCDC's data processing and validation procedures.
#
#######################################################################

data_LEPPEC
_chemical_formula_moiety         'C13 H9 I1 N2 O3'
_chemical_name_systematic        N-(4-Iodophenyl)-4-nitrobenzamide
_symmetry_cell_setting           triclinic
_symmetry_space_group_name_H-M   'P -1'
_symmetry_Int_Tables_number      2
_space_group_name_Hall           '-P 1'
loop_
_symmetry_equiv_pos_site_id
_symmetry_equiv_pos_as_xyz
1 x,y,z
2 -x,-y,-z
_cell_length_a                   5.1047(3)
_cell_length_b                   15.3015(9)
_cell_length_c                   16.4806(9)
_cell_angle_alpha                95.356(2)
_cell_angle_beta                 95.498(2)
_cell_angle_gamma                91.150(2)
_cell_volume                     1275.23
_exptl_crystal_colour            colorless
_exptl_crystal_description       needle
_cell_formula_units_Z            4
_exptl_crystal_recrystallization_method acetone
loop_
_atom_site_label
_atom_site_type_symbol
_atom_site_fract_x
_atom_site_fract_y
_atom_site_fract_z
C1 C 0.2703(4) 0.36705(13) 0.72743(12)
C2 C 0.1069(4) 0.41652(15) 0.67819(13)
C3 C 0.1433(5) 0.41921(16) 0.59626(14)
C4 C 0.3419(4) 0.37023(15) 0.56525(13)
N1 N 0.3903(5) 0.37564(15) 0.47910(13)
O1 O 0.2650(5) 0.42717(18) 0.44014(13)
O2 O 0.5530(5) 0.32985(18) 0.44984(13)
C5 C 0.5012(5) 0.31757(15) 0.61120(14)
C6 C 0.4655(4) 0.31683(14) 0.69373(13)
C7 C 0.2285(4) 0.37138(13) 0.81642(12)
O3 O 0.0057(3) 0.37990(11) 0.83855(10)
N2 N 0.4492(3) 0.36757(11) 0.86863(10)
C8 C 0.4595(4) 0.37373(12) 0.95521(12)
C9 C 0.2756(4) 0.41979(13) 0.99830(12)
C10 C 0.2917(4) 0.42302(13) 1.08301(12)
C11 C 0.4927(4) 0.38031(13) 1.12518(12)
I1 I 0.49134(3) 0.377222(9) 1.251935(8)
C12 C 0.6842(4) 0.33725(13) 1.08288(13)
C13 C 0.6668(4) 0.33385(13) 0.99815(12)
H1 H -0.0304 0.4486 0.7009
H2 H 0.0351 0.4537 0.5624
H3 H 0.6312 0.2829 0.5872
H4 H 0.5741 0.2821 0.7272
H5 H 0.6080 0.3661 0.8491
H6 H 0.1387 0.4491 0.9695
H7 H 0.1658 0.4543 1.1122
H8 H 0.8257 0.3104 1.1120
H9 H 0.7963 0.3043 0.9691
C14 C 1.1985(4) 0.13179(13) 0.28880(12)
C15 C 1.3693(4) 0.08409(14) 0.33724(13)
C16 C 1.3397(4) 0.08116(15) 0.41934(14)
C17 C 1.1387(4) 0.12822(14) 0.45198(13)
N3 N 1.0972(4) 0.12133(14) 0.53831(12)
O4 O 1.2305(5) 0.07091(17) 0.57634(12)
O5 O 0.9268(5) 0.16422(17) 0.56791(12)
C18 C 0.9719(4) 0.17910(15) 0.40647(13)
C19 C 1.0020(4) 0.18036(14) 0.32363(13)
C20 C 1.2340(4) 0.12830(13) 0.19952(12)
O6 O 1.4553(3) 0.12042(11) 0.17583(9)
N4 N 1.0101(3) 0.13254(11) 0.14847(10)
C21 C 1.0029(4) 0.12971(12) 0.06208(12)
C22 C 1.1965(4) 0.17243(13) 0.02499(12)
C23 C 1.1850(4) 0.16889(13) -0.05934(12)
C24 C 0.9775(4) 0.12365(13) -0.10744(12)
I2 I 0.97313(3) 0.119495(9) -0.235056(8)
C25 C 0.7802(4) 0.08235(13) -0.07119(12)
C26 C 0.7942(4) 0.08527(13) 0.01351(12)
H10 H 1.5075 0.0532 0.3137
H11 H 1.4538 0.0478 0.4526
H12 H 0.8402 0.2123 0.4311
H13 H 0.8888 0.2143 0.2907
H14 H 0.8506 0.1278 0.1669
H15 H 1.3368 0.2041 0.0578
H16 H 1.3186 0.1973 -0.0845
H17 H 0.6371 0.0524 -0.1041
H18 H 0.6605 0.0568 0.0386
loop_
_geom_bond_atom_site_label_1
_geom_bond_atom_site_label_2
_geom_bond_site_symmetry_1
_geom_bond_site_symmetry_2
C1 C2 1_555 1_555
C2 C3 1_555 1_555
C3 C4 1_555 1_555
C4 N1 1_555 1_555
N1 O1 1_555 1_555
O2 N1 1_555 1_555
C5 C4 1_555 1_555
C6 C1 1_555 1_555
C7 C1 1_555 1_555
O3 C7 1_555 1_555
N2 C7 1_555 1_555
C8 N2 1_555 1_555
C9 C8 1_555 1_555
C10 C9 1_555 1_555
C11 C10 1_555 1_555
I1 C11 1_555 1_555
C12 C11 1_555 1_555
C13 C8 1_555 1_555
C14 C15 1_555 1_555
C15 C16 1_555 1_555
C16 C17 1_555 1_555
C17 N3 1_555 1_555
N3 O4 1_555 1_555
O5 N3 1_555 1_555
C18 C17 1_555 1_555
C19 C14 1_555 1_555
C20 C14 1_555 1_555
O6 C20 1_555 1_555
N4 C20 1_555 1_555
C21 N4 1_555 1_555
C22 C21 1_555 1_555
C23 C22 1_555 1_555
C24 C23 1_555 1_555
I2 C24 1_555 1_555
C25 C24 1_555 1_555
C26 C21 1_555 1_555
H1 C2 1_555 1_555
H2 C3 1_555 1_555
H3 C5 1_555 1_555
H4 C6 1_555 1_555
H5 N2 1_555 1_555
H6 C9 1_555 1_555
H7 C10 1_555 1_555
H8 C12 1_555 1_555
H9 C13 1_555 1_555
H10 C15 1_555 1_555
H11 C16 1_555 1_555
H12 C18 1_555 1_555
H13 C19 1_555 1_555
H14 N4 1_555 1_555
H15 C22 1_555 1_555
H16 C23 1_555 1_555
H17 C25 1_555 1_555
H18 C26 1_555 1_555
C5 C6 1_555 1_555
C12 C13 1_555 1_555
C18 C19 1_555 1_555
C25 C26 1_555 1_555

#END
