
#######################################################################
#
#                 Cambridge Crystallographic Data Centre
#                                CCDC 
#
#######################################################################
#
# If this CIF has been generated from an entry in the Cambridge 
# Structural Database, then it will include bibliographic, chemical, 
# crystal, experimental, refinement or atomic coordinate data resulting 
# from the CCDC's data processing and validation procedures.
#
#######################################################################

data_LEPPUS
_chemical_formula_moiety         'C18 H16 Cl1 N3 O2'
_chemical_name_systematic        
4-(5-Chloro-2-hydroxybenzylideneamino)-1,5-dimethyl-2-phenyl-1H-pyrazol-3(2H)-one
_symmetry_cell_setting           monoclinic
_symmetry_space_group_name_H-M   'P 21/n'
_symmetry_Int_Tables_number      14
_space_group_name_Hall           '-P 2yn'
loop_
_symmetry_equiv_pos_site_id
_symmetry_equiv_pos_as_xyz
1 x,y,z
2 1/2-x,1/2+y,1/2-z
3 -x,-y,-z
4 1/2+x,1/2-y,1/2+z
_cell_length_a                   14.426(7)
_cell_length_b                   6.876(3)
_cell_length_c                   17.555(9)
_cell_angle_alpha                90
_cell_angle_beta                 109.135(6)
_cell_angle_gamma                90
_cell_volume                     1645.13
_exptl_crystal_colour            brown
_exptl_crystal_description       block
_cell_formula_units_Z            4
loop_
_atom_site_label
_atom_site_type_symbol
_atom_site_fract_x
_atom_site_fract_y
_atom_site_fract_z
Cl1 Cl 1.16384(5) -0.00217(12) 1.12299(4)
N1 N 0.57399(16) 0.6220(3) 0.87557(14)
N2 N 0.57798(16) 0.7933(3) 0.92010(14)
N3 N 0.81677(15) 0.6101(3) 1.02356(13)
O1 O 0.67464(13) 0.3526(3) 0.88862(12)
O2 O 0.96306(16) 0.7227(3) 1.14603(14)
H1 H 0.9092 0.7298 1.1108
C1 C 0.66155(19) 0.5178(4) 0.90874(16)
C2 C 0.72283(18) 0.6448(4) 0.96942(16)
C3 C 0.6712(2) 0.8086(4) 0.97288(17)
C4 C 0.48145(18) 0.5268(4) 0.84237(16)
C5 C 0.4632(2) 0.4239(4) 0.77215(18)
H2 H 0.5094 0.4201 0.7457
C6 C 0.3754(2) 0.3262(5) 0.74127(19)
H3 H 0.3632 0.2535 0.6943
C7 C 0.3060(2) 0.3345(5) 0.7785(2)
H4 H 0.2467 0.2692 0.7569
C8 C 0.3246(2) 0.4397(5) 0.8478(2)
H5 H 0.2771 0.4473 0.8729
C9 C 0.4124(2) 0.5343(4) 0.88099(17)
H6 H 0.4251 0.6029 0.9290
C10 C 0.5223(2) 0.9601(4) 0.8758(2)
H7 H 0.5173 1.0577 0.9133
H8 H 0.4578 0.9184 0.8438
H9 H 0.5555 1.0133 0.8412
C11 C 0.7030(2) 0.9837(4) 1.0244(2)
H10 H 0.7691 0.9657 1.0598
H11 H 0.6604 1.0030 1.0558
H12 H 0.7002 1.0954 0.9909
C12 C 0.86520(18) 0.4546(4) 1.01927(15)
H13 H 0.8381 0.3644 0.9786
C13 C 0.96174(17) 0.4199(4) 1.07774(15)
C14 C 1.00715(19) 0.5541(4) 1.13778(17)
C15 C 1.0999(2) 0.5150(5) 1.19128(18)
H14 H 1.1303 0.6056 1.2309
C16 C 1.1474(2) 0.3457(5) 1.18679(17)
H15 H 1.2096 0.3212 1.2231
C17 C 1.10271(18) 0.2127(4) 1.12833(15)
C18 C 1.01111(17) 0.2485(4) 1.07417(14)
H16 H 0.9818 0.1568 1.0346
loop_
_geom_bond_atom_site_label_1
_geom_bond_atom_site_label_2
_geom_bond_site_symmetry_1
_geom_bond_site_symmetry_2
Cl1 C17 1_555 1_555
N1 N2 1_555 1_555
N2 C3 1_555 1_555
N3 C2 1_555 1_555
O1 C1 1_555 1_555
O2 H1 1_555 1_555
C1 N1 1_555 1_555
C2 C1 1_555 1_555
C3 C2 1_555 1_555
C4 N1 1_555 1_555
C5 C4 1_555 1_555
H2 C5 1_555 1_555
C6 C5 1_555 1_555
H3 C6 1_555 1_555
C7 C6 1_555 1_555
H4 C7 1_555 1_555
C8 C7 1_555 1_555
H5 C8 1_555 1_555
C9 C4 1_555 1_555
H6 C9 1_555 1_555
C10 N2 1_555 1_555
H7 C10 1_555 1_555
H8 C10 1_555 1_555
H9 C10 1_555 1_555
C11 C3 1_555 1_555
H10 C11 1_555 1_555
H11 C11 1_555 1_555
H12 C11 1_555 1_555
C12 N3 1_555 1_555
H13 C12 1_555 1_555
C13 C12 1_555 1_555
C14 O2 1_555 1_555
C15 C14 1_555 1_555
H14 C15 1_555 1_555
C16 C15 1_555 1_555
H15 C16 1_555 1_555
C17 C16 1_555 1_555
C18 C13 1_555 1_555
H16 C18 1_555 1_555
C8 C9 1_555 1_555
C13 C14 1_555 1_555
C17 C18 1_555 1_555

#END
