
#######################################################################
#
#                 Cambridge Crystallographic Data Centre
#                                CCDC 
#
#######################################################################
#
# If this CIF has been generated from an entry in the Cambridge 
# Structural Database, then it will include bibliographic, chemical, 
# crystal, experimental, refinement or atomic coordinate data resulting 
# from the CCDC's data processing and validation procedures.
#
#######################################################################

data_LEPPEE
_chemical_formula_moiety         'C24 H25 N1 O4'
_chemical_name_systematic        
1'-ethyl-1-hydroxy-6,8-dimethyl-3-(2-phenylethenyl)-1H,2'H,3H,5'H-spiro[2-benzopyran-4,3'-pyrrolidine]-2',5'-dione
_symmetry_cell_setting           monoclinic
_symmetry_space_group_name_H-M   'P 21/n'
_symmetry_Int_Tables_number      14
_space_group_name_Hall           '-P 2yn'
loop_
_symmetry_equiv_pos_site_id
_symmetry_equiv_pos_as_xyz
1 x,y,z
2 1/2-x,1/2+y,1/2-z
3 -x,-y,-z
4 1/2+x,1/2-y,1/2+z
_cell_length_a                   15.6298(19)
_cell_length_b                   6.4081(8)
_cell_length_c                   20.224(3)
_cell_angle_alpha                90
_cell_angle_beta                 93.845(3)
_cell_angle_gamma                90
_cell_volume                     2021.02
_exptl_crystal_colour            colorless
_exptl_crystal_description       block
_cell_formula_units_Z            4
loop_
_atom_site_label
_atom_site_type_symbol
_atom_site_fract_x
_atom_site_fract_y
_atom_site_fract_z
O1 O 0.55448(10) 0.1024(2) 0.43822(8)
O2 O 0.68901(11) 0.7015(3) 0.40897(9)
O3 O 0.43817(12) 0.2641(3) 0.48350(9)
H1 H 0.4313 0.1700 0.5116
N1 N 0.76339(12) 0.4586(3) 0.35249(9)
O4 O 0.80537(12) 0.1704(3) 0.29601(10)
C1 C 0.53363(15) 0.4471(3) 0.35347(11)
C2 C 0.62235(15) 0.3663(3) 0.37605(11)
C3 C 0.69169(15) 0.5334(4) 0.38170(11)
C4 C 0.69805(16) 0.1703(4) 0.47381(12)
H2 H 0.7207 0.0556 0.4509
C5 C 0.46889(15) 0.1756(4) 0.42627(12)
H3 H 0.4312 0.0556 0.4118
C6 C 0.46094(15) 0.3437(3) 0.37397(11)
C7 C 0.61699(15) 0.2678(3) 0.44576(11)
H4 H 0.5972 0.3751 0.4773
C8 C 0.52370(16) 0.6181(4) 0.31113(12)
H5 H 0.5731 0.6874 0.2972
C9 C 0.65802(15) 0.2104(4) 0.32685(12)
H6 H 0.6529 0.0656 0.3432
H7 H 0.6263 0.2216 0.2830
C10 C 0.82021(16) 0.1481(4) 0.55914(12)
C11 C 0.75031(16) 0.2676(4) 0.32208(12)
C12 C 0.74004(16) 0.2347(4) 0.52877(12)
H8 H 0.7159 0.3489 0.5510
C13 C 0.37972(16) 0.4028(4) 0.34825(13)
C14 C 0.44323(16) 0.6887(4) 0.28902(12)
C15 C 0.37207(17) 0.5764(4) 0.30688(13)
H9 H 0.3166 0.6196 0.2903
C16 C 0.30088(17) 0.2811(4) 0.36455(15)
H10 H 0.3078 0.1345 0.3522
H11 H 0.2503 0.3392 0.3398
H12 H 0.2934 0.2908 0.4122
C17 C 0.84550(16) 0.5665(4) 0.35824(14)
H13 H 0.8356 0.7189 0.3556
H14 H 0.8796 0.5259 0.3208
C18 C 0.43310(19) 0.8824(4) 0.24657(14)
H15 H 0.4815 0.9767 0.2571
H16 H 0.3794 0.9529 0.2554
H17 H 0.4318 0.8431 0.1997
C19 C 0.97175(19) -0.0147(5) 0.62024(15)
H18 H 1.0234 -0.0699 0.6406
C20 C 0.8552(2) 0.2231(4) 0.61860(14)
H19 H 0.8268 0.3333 0.6397
C21 C 0.89538(18) 0.5152(4) 0.42276(15)
H20 H 0.9498 0.5915 0.4253
H21 H 0.9068 0.3649 0.4249
H22 H 0.8619 0.5559 0.4599
C22 C 0.9302(2) 0.1438(5) 0.64888(16)
H23 H 0.9528 0.2004 0.6898
C23 C 0.8624(2) -0.0132(5) 0.53111(16)
H24 H 0.8399 -0.0711 0.4903
C24 C 0.9376(2) -0.0933(6) 0.56142(18)
H25 H 0.9659 -0.2048 0.5409
loop_
_geom_bond_atom_site_label_1
_geom_bond_atom_site_label_2
_geom_bond_site_symmetry_1
_geom_bond_site_symmetry_2
O1 C5 1_555 1_555
O2 C3 1_555 1_555
O3 H1 1_555 1_555
N1 C3 1_555 1_555
O4 C11 1_555 1_555
C1 C2 1_555 1_555
C2 C3 1_555 1_555
C4 H2 1_555 1_555
C5 O3 1_555 1_555
H3 C5 1_555 1_555
C6 C1 1_555 1_555
C7 O1 1_555 1_555
H4 C7 1_555 1_555
C8 C1 1_555 1_555
H5 C8 1_555 1_555
C9 C2 1_555 1_555
H6 C9 1_555 1_555
H7 C9 1_555 1_555
C10 C12 1_555 1_555
C11 N1 1_555 1_555
C12 C4 1_555 1_555
H8 C12 1_555 1_555
C13 C6 1_555 1_555
C14 C8 1_555 1_555
C15 C13 1_555 1_555
H9 C15 1_555 1_555
C16 C13 1_555 1_555
H10 C16 1_555 1_555
H11 C16 1_555 1_555
H12 C16 1_555 1_555
C17 N1 1_555 1_555
H13 C17 1_555 1_555
H14 C17 1_555 1_555
C18 C14 1_555 1_555
H15 C18 1_555 1_555
H16 C18 1_555 1_555
H17 C18 1_555 1_555
C19 H18 1_555 1_555
C20 C10 1_555 1_555
H19 C20 1_555 1_555
C21 C17 1_555 1_555
H20 C21 1_555 1_555
H21 C21 1_555 1_555
H22 C21 1_555 1_555
C22 C19 1_555 1_555
H23 C22 1_555 1_555
C23 C10 1_555 1_555
H24 C23 1_555 1_555
C24 C19 1_555 1_555
H25 C24 1_555 1_555
C2 C7 1_555 1_555
C4 C7 1_555 1_555
C5 C6 1_555 1_555
C9 C11 1_555 1_555
C14 C15 1_555 1_555
C20 C22 1_555 1_555
C23 C24 1_555 1_555

#END
