
#######################################################################
#
#                 Cambridge Crystallographic Data Centre
#                                CCDC 
#
#######################################################################
#
# If this CIF has been generated from an entry in the Cambridge 
# Structural Database, then it will include bibliographic, chemical, 
# crystal, experimental, refinement or atomic coordinate data resulting 
# from the CCDC's data processing and validation procedures.
#
#######################################################################

data_LEPQAA
_chemical_formula_moiety         'C20 H26 O4'
_chemical_name_systematic        
9-(Hydroxymethylene)-10a,12a-dimethyl-4a,5,6,9,10,10a,10b,11,12,12a-decahydro-1H-naphtho[2,1-f]isochromene-3,8(4H,4bH)-dione
_symmetry_cell_setting           orthorhombic
_symmetry_space_group_name_H-M   'P 21 21 21'
_symmetry_Int_Tables_number      19
_space_group_name_Hall           'P 2ac 2ab'
loop_
_symmetry_equiv_pos_site_id
_symmetry_equiv_pos_as_xyz
1 x,y,z
2 1/2-x,-y,1/2+z
3 1/2+x,1/2-y,-z
4 -x,1/2+y,1/2-z
_cell_length_a                   9.012(5)
_cell_length_b                   11.633(5)
_cell_length_c                   16.355(5)
_cell_angle_alpha                90
_cell_angle_beta                 90
_cell_angle_gamma                90
_cell_volume                     1714.6
_exptl_crystal_colour            colorless
_exptl_crystal_description       prism
_cell_formula_units_Z            4
loop_
_atom_site_label
_atom_site_type_symbol
_atom_site_fract_x
_atom_site_fract_y
_atom_site_fract_z
O1 O 0.4216(2) 0.95064(19) 0.75353(14)
O2 O -0.3021(2) 0.3778(2) 0.43434(13)
O3 O 0.6379(2) 0.8152(2) 0.78025(16)
H1 H 0.5847 0.8703 0.7910
C1 C 0.1825(3) 0.6671(2) 0.66741(15)
C2 C -0.0639(3) 0.6082(2) 0.59797(17)
C3 C -0.0774(3) 0.4189(3) 0.51785(15)
C4 C 0.1068(3) 0.6028(2) 0.59491(16)
O4 O -0.5123(3) 0.4607(3) 0.46349(16)
C5 C 0.3499(3) 0.6739(3) 0.65055(16)
H2 H 0.3934 0.5987 0.6595
H3 H 0.3651 0.6938 0.5936
C6 C 0.4297(3) 0.7606(3) 0.70342(17)
C7 C 0.1642(3) 0.4809(3) 0.58221(19)
H4 H 0.2706 0.4834 0.5735
H5 H 0.1458 0.4362 0.6313
C8 C -0.1336(3) 0.5419(3) 0.52650(17)
C9 C -0.1130(3) 0.7334(2) 0.59924(18)
H6 H -0.0850 0.7694 0.5480
H7 H -0.2203 0.7364 0.6034
C10 C -0.1425(4) 0.3725(3) 0.43867(17)
H8 H -0.1015 0.4159 0.3933
H9 H -0.1117 0.2931 0.4322
C11 C 0.1190(3) 0.7878(2) 0.67450(15)
C12 C 0.3578(3) 0.8692(3) 0.71706(18)
C13 C 0.1570(3) 0.6061(3) 0.75022(15)
H10 H 0.2120 0.6450 0.7922
H11 H 0.1900 0.5278 0.7465
H12 H 0.0532 0.6076 0.7634
C14 C 0.5615(4) 0.7389(3) 0.73697(19)
C15 C -0.0462(3) 0.8006(3) 0.66909(19)
H13 H -0.0703 0.8813 0.6623
H14 H -0.0903 0.7748 0.7200
C16 C 0.0912(3) 0.4218(3) 0.50991(18)
H15 H 0.1283 0.3438 0.5058
H16 H 0.1178 0.4620 0.4601
C17 C -0.1244(3) 0.3400(3) 0.58826(17)
H17 H -0.2306 0.3329 0.5888
H18 H -0.0915 0.3721 0.6392
H19 H -0.0807 0.2655 0.5809
C18 C -0.3035(3) 0.5413(3) 0.53015(19)
H20 H -0.3332 0.5235 0.5857
H21 H -0.3385 0.6183 0.5180
C19 C 0.2033(3) 0.8795(3) 0.69280(18)
C20 C -0.3802(4) 0.4590(3) 0.4737(2)
H22 H -0.092(3) 0.575(2) 0.6487(15)
H23 H 0.628(2) 0.658(2) 0.7341(13)
H24 H 0.131(2) 0.642(2) 0.5440(13)
H25 H -0.101(3) 0.582(2) 0.4762(15)
H26 H 0.159(3) 0.954(3) 0.6983(16)
loop_
_geom_bond_atom_site_label_1
_geom_bond_atom_site_label_2
_geom_bond_site_symmetry_1
_geom_bond_site_symmetry_2
O1 C12 1_555 1_555
O2 C10 1_555 1_555
O3 H1 1_555 1_555
C1 C4 1_555 1_555
C2 C4 1_555 1_555
C3 C8 1_555 1_555
C4 C7 1_555 1_555
O4 C20 1_555 1_555
C5 C1 1_555 1_555
H2 C5 1_555 1_555
H3 C5 1_555 1_555
C6 C5 1_555 1_555
C7 H4 1_555 1_555
H5 C7 1_555 1_555
C8 C2 1_555 1_555
C9 C2 1_555 1_555
H6 C9 1_555 1_555
H7 C9 1_555 1_555
C10 C3 1_555 1_555
H8 C10 1_555 1_555
H9 C10 1_555 1_555
C11 C1 1_555 1_555
C12 C6 1_555 1_555
C13 C1 1_555 1_555
H10 C13 1_555 1_555
H11 C13 1_555 1_555
H12 C13 1_555 1_555
C14 O3 1_555 1_555
C15 C9 1_555 1_555
H13 C15 1_555 1_555
H14 C15 1_555 1_555
C16 C3 1_555 1_555
H15 C16 1_555 1_555
H16 C16 1_555 1_555
C17 C3 1_555 1_555
H17 C17 1_555 1_555
H18 C17 1_555 1_555
H19 C17 1_555 1_555
C18 C8 1_555 1_555
H20 C18 1_555 1_555
H21 C18 1_555 1_555
C19 C11 1_555 1_555
C20 O2 1_555 1_555
H22 C2 1_555 1_555
H23 C14 1_555 1_555
H24 C4 1_555 1_555
H25 C8 1_555 1_555
H26 C19 1_555 1_555
C6 C14 1_555 1_555
C7 C16 1_555 1_555
C11 C15 1_555 1_555
C12 C19 1_555 1_555
C18 C20 1_555 1_555

#END
