
#######################################################################
#
#                 Cambridge Crystallographic Data Centre
#                                CCDC 
#
#######################################################################
#
# If this CIF has been generated from an entry in the Cambridge 
# Structural Database, then it will include bibliographic, chemical, 
# crystal, experimental, refinement or atomic coordinate data resulting 
# from the CCDC's data processing and validation procedures.
#
#######################################################################

data_LEPQED
_chemical_formula_moiety         'C17 H13 Cl1 N4 O1 S1'
_chemical_name_systematic        
6-(2-Chlorophenyl)-3-(4-ethoxyphenyl)-1,2,4-triazolo(3,4-b)(1,3,4)thiadiazole
_chemical_properties_biological  'potential pharmacological activity'
_symmetry_cell_setting           monoclinic
_symmetry_space_group_name_H-M   'P 21/c'
_symmetry_Int_Tables_number      14
_space_group_name_Hall           '-P 2ybc'
loop_
_symmetry_equiv_pos_site_id
_symmetry_equiv_pos_as_xyz
1 x,y,z
2 -x,1/2+y,1/2-z
3 -x,-y,-z
4 x,1/2-y,1/2+z
_cell_length_a                   10.8298(9)
_cell_length_b                   10.6315(9)
_cell_length_c                   16.6174(10)
_cell_angle_alpha                90
_cell_angle_beta                 122.870(4)
_cell_angle_gamma                90
_cell_volume                     1606.97
_exptl_crystal_colour            colorless
_exptl_crystal_description       block
_cell_formula_units_Z            4
_exptl_crystal_recrystallization_method ethanol
loop_
_atom_site_label
_atom_site_type_symbol
_atom_site_fract_x
_atom_site_fract_y
_atom_site_fract_z
Cl1 Cl 0.45838(12) 0.42915(9) 0.26574(6)
S1 S 0.62120(10) 0.65331(8) 0.38584(6)
O1 O 1.0552(3) 0.8000(2) 1.02026(16)
N1 N 0.7256(3) 0.5911(2) 0.56367(17)
N2 N 0.7522(3) 0.7162(2) 0.55995(16)
N3 N 0.7296(4) 0.8885(3) 0.4791(2)
N4 N 0.7977(3) 0.9160(2) 0.5770(2)
C1 C 0.5304(3) 0.3512(3) 0.3742(2)
C2 C 0.4970(3) 0.2246(3) 0.3687(2)
H1 H 0.4386 0.1865 0.3091
C3 C 0.5488(4) 0.1554(3) 0.4496(3)
H2 H 0.5269 0.0701 0.4453
C4 C 0.6341(4) 0.2121(3) 0.5383(2)
H3 H 0.6688 0.1654 0.5939
C5 C 0.6674(3) 0.3379(3) 0.5439(2)
H4 H 0.7253 0.3751 0.6039
C6 C 0.6169(3) 0.4109(3) 0.4626(2)
C7 C 0.6574(3) 0.5454(3) 0.47719(19)
C8 C 0.7045(3) 0.7682(3) 0.4732(2)
C9 C 0.8107(3) 0.8134(3) 0.6244(2)
C10 C 0.8732(3) 0.8040(3) 0.7274(2)
C11 C 0.9169(4) 0.6909(3) 0.7762(2)
H5 H 0.9054 0.6172 0.7427
C12 C 0.9773(4) 0.6854(3) 0.8736(2)
H6 H 1.0057 0.6085 0.9053
C13 C 0.9953(3) 0.7944(3) 0.9238(2)
C14 C 0.9515(4) 0.9089(3) 0.8757(2)
H7 H 0.9633 0.9826 0.9093
C15 C 0.8914(3) 0.9133(3) 0.7793(2)
H8 H 0.8620 0.9902 0.7476
C16 C 1.1141(4) 0.6871(3) 1.0747(2)
H9 H 1.1870 0.6513 1.0645
H10 H 1.0365 0.6257 1.0551
C17 C 1.1832(4) 0.7201(4) 1.1781(3)
H11 H 1.1099 0.7545 1.1875
H12 H 1.2594 0.7812 1.1966
H13 H 1.2246 0.6459 1.2166
loop_
_geom_bond_atom_site_label_1
_geom_bond_atom_site_label_2
_geom_bond_site_symmetry_1
_geom_bond_site_symmetry_2
Cl1 C1 1_555 1_555
S1 C7 1_555 1_555
O1 C13 1_555 1_555
N1 N2 1_555 1_555
N2 C8 1_555 1_555
N3 N4 1_555 1_555
N4 C9 1_555 1_555
C1 C2 1_555 1_555
C2 H1 1_555 1_555
C3 C2 1_555 1_555
H2 C3 1_555 1_555
C4 C3 1_555 1_555
H3 C4 1_555 1_555
C5 C4 1_555 1_555
H4 C5 1_555 1_555
C6 C1 1_555 1_555
C7 N1 1_555 1_555
C8 S1 1_555 1_555
C9 N2 1_555 1_555
C10 C9 1_555 1_555
C11 C10 1_555 1_555
H5 C11 1_555 1_555
C12 C11 1_555 1_555
H6 C12 1_555 1_555
C13 C12 1_555 1_555
C14 C13 1_555 1_555
H7 C14 1_555 1_555
C15 C10 1_555 1_555
H8 C15 1_555 1_555
C16 O1 1_555 1_555
H9 C16 1_555 1_555
H10 C16 1_555 1_555
C17 C16 1_555 1_555
H11 C17 1_555 1_555
H12 C17 1_555 1_555
H13 C17 1_555 1_555
N3 C8 1_555 1_555
C5 C6 1_555 1_555
C6 C7 1_555 1_555
C14 C15 1_555 1_555

#END
