
#######################################################################
#
#                 Cambridge Crystallographic Data Centre
#                                CCDC 
#
#######################################################################
#
# If this CIF has been generated from an entry in the Cambridge 
# Structural Database, then it will include bibliographic, chemical, 
# crystal, experimental, refinement or atomic coordinate data resulting 
# from the CCDC's data processing and validation procedures.
#
#######################################################################

data_LEPRUU
_chemical_formula_moiety         'C21 H27 N3 S6'
_chemical_name_systematic        
2,4,6-Trimethyl-1,3,5-tris(2-thiazolin-2-ylsulfanylmethyl)benzene
_symmetry_cell_setting           monoclinic
_symmetry_space_group_name_H-M   'C 2/c'
_symmetry_Int_Tables_number      15
_space_group_name_Hall           '-C 2yn'
loop_
_symmetry_equiv_pos_site_id
_symmetry_equiv_pos_as_xyz
1 x,y,z
2 1/2+x,1/2+y,z
3 -x,y,1/2-z
4 1/2-x,1/2+y,1/2-z
5 -x,-y,-z
6 1/2-x,1/2-y,-z
7 x,-y,1/2+z
8 1/2+x,1/2-y,1/2+z
_cell_length_a                   19.834(4)
_cell_length_b                   14.899(3)
_cell_length_c                   16.797(3)
_cell_angle_alpha                90
_cell_angle_beta                 98.381(3)
_cell_angle_gamma                90
_cell_volume                     4910.62
_exptl_crystal_colour            colorless
_exptl_crystal_description       block
_chemical_melting_point          '421-422 K'
_cell_formula_units_Z            8
_exptl_crystal_recrystallization_method chloroform/ethanol
loop_
_atom_site_label
_atom_site_type_symbol
_atom_site_fract_x
_atom_site_fract_y
_atom_site_fract_z
S1 S 0.69382(7) -0.06598(6) 0.55769(6)
S2 S 0.70854(6) 0.05293(6) 0.41750(5)
S3 S 0.58346(5) 0.41844(6) 0.19247(6)
S4 S 0.47992(5) 0.56111(6) 0.14165(6)
S5 S 0.88594(6) 0.34316(7) 0.19392(7)
S6 S 0.99320(6) 0.44317(7) 0.12417(7)
N1 N 0.73186(15) 0.10180(19) 0.57249(16)
N2 N 0.47244(14) 0.3971(2) 0.08286(18)
N3 N 0.94744(16) 0.2847(2) 0.0716(2)
C1 C 0.78181(16) 0.2022(2) 0.28660(19)
C2 C 0.72376(17) 0.1998(2) 0.32444(18)
C3 C 0.66077(16) 0.2285(2) 0.28342(19)
C4 C 0.65764(16) 0.2655(2) 0.20628(18)
C5 C 0.71609(16) 0.27203(19) 0.16963(18)
C6 C 0.77811(16) 0.23680(19) 0.20862(19)
C7 C 0.7290(2) 0.1711(2) 0.41155(19)
H1 H 0.6977 0.2062 0.4383
H2 H 0.7749 0.1818 0.4388
C8 C 0.71419(17) 0.0407(2) 0.5216(2)
C9 C 0.7002(3) -0.0212(3) 0.6572(2)
H3 H 0.6553 -0.0145 0.6729
H4 H 0.7270 -0.0606 0.6954
C10 C 0.7342(2) 0.0682(3) 0.6549(2)
H5 H 0.7120 0.1111 0.6859
H6 H 0.7814 0.0631 0.6797
C11 C 0.5968(2) 0.2195(3) 0.3222(3)
H7 H 0.6077 0.1903 0.3734
H8 H 0.5638 0.1844 0.2881
H9 H 0.5785 0.2780 0.3296
C12 C 0.59059(17) 0.3011(2) 0.1631(2)
H10 H 0.5529 0.2666 0.1781
H11 H 0.5895 0.2966 0.1053
C13 C 0.50721(16) 0.4488(2) 0.1322(2)
C14 C 0.41131(19) 0.4432(3) 0.0434(2)
H12 H 0.3714 0.4167 0.0612
H13 H 0.4075 0.4343 -0.0143
C15 C 0.4124(2) 0.5419(3) 0.0610(2)
H14 H 0.3692 0.5606 0.0762
H15 H 0.4201 0.5756 0.0138
C16 C 0.7126(2) 0.3174(2) 0.08881(19)
H16 H 0.6915 0.2778 0.0474
H17 H 0.7579 0.3319 0.0790
H18 H 0.6862 0.3715 0.0886
C17 C 0.83996(17) 0.2393(2) 0.1661(2)
H19 H 0.8262 0.2371 0.1083
H20 H 0.8690 0.1881 0.1818
C18 C 0.94160(18) 0.3453(2) 0.1237(2)
C19 C 1.0421(2) 0.3851(3) 0.0573(3)
H21 H 1.0553 0.4258 0.0173
H22 H 1.0829 0.3588 0.0872
C20 C 0.9956(2) 0.3138(3) 0.0185(3)
H23 H 0.9706 0.3367 -0.0313
H24 H 1.0224 0.2628 0.0054
C21 C 0.84907(19) 0.1667(3) 0.3297(3)
H25 H 0.8592 0.1947 0.3815
H26 H 0.8847 0.1799 0.2985
H27 H 0.8459 0.1029 0.3364
loop_
_geom_bond_atom_site_label_1
_geom_bond_atom_site_label_2
_geom_bond_site_symmetry_1
_geom_bond_site_symmetry_2
S1 C8 1_555 1_555
S2 C7 1_555 1_555
S3 C12 1_555 1_555
S4 C13 1_555 1_555
S5 C17 1_555 1_555
S6 C18 1_555 1_555
N1 C8 1_555 1_555
N2 C13 1_555 1_555
N3 C18 1_555 1_555
C1 C2 1_555 1_555
C2 C3 1_555 1_555
C3 C4 1_555 1_555
C4 C5 1_555 1_555
C5 C6 1_555 1_555
C6 C1 1_555 1_555
C7 C2 1_555 1_555
H1 C7 1_555 1_555
H2 C7 1_555 1_555
C8 S2 1_555 1_555
C9 S1 1_555 1_555
H3 C9 1_555 1_555
H4 C9 1_555 1_555
C10 N1 1_555 1_555
H5 C10 1_555 1_555
H6 C10 1_555 1_555
C11 C3 1_555 1_555
H7 C11 1_555 1_555
H8 C11 1_555 1_555
H9 C11 1_555 1_555
C12 C4 1_555 1_555
H10 C12 1_555 1_555
H11 C12 1_555 1_555
C13 S3 1_555 1_555
C14 N2 1_555 1_555
H12 C14 1_555 1_555
H13 C14 1_555 1_555
C15 S4 1_555 1_555
H14 C15 1_555 1_555
H15 C15 1_555 1_555
C16 C5 1_555 1_555
H16 C16 1_555 1_555
H17 C16 1_555 1_555
H18 C16 1_555 1_555
C17 C6 1_555 1_555
H19 C17 1_555 1_555
H20 C17 1_555 1_555
C18 S5 1_555 1_555
C19 S6 1_555 1_555
H21 C19 1_555 1_555
H22 C19 1_555 1_555
C20 N3 1_555 1_555
H23 C20 1_555 1_555
H24 C20 1_555 1_555
C21 C1 1_555 1_555
H25 C21 1_555 1_555
H26 C21 1_555 1_555
H27 C21 1_555 1_555
C9 C10 1_555 1_555
C14 C15 1_555 1_555
C19 C20 1_555 1_555

#END
