
#######################################################################
#
#                 Cambridge Crystallographic Data Centre
#                                CCDC 
#
#######################################################################
#
# If this CIF has been generated from an entry in the Cambridge 
# Structural Database, then it will include bibliographic, chemical, 
# crystal, experimental, refinement or atomic coordinate data resulting 
# from the CCDC's data processing and validation procedures.
#
#######################################################################

data_LEPVAE
_chemical_formula_moiety         'C18 H15 Cl2 N3 O1'
_chemical_name_systematic        
trans-4-(2,3-Dichlorobenzylideneamino)-1,5-dimethyl-2-phenyl-1H-pyrazol-3(2H)-one
_symmetry_cell_setting           monoclinic
_symmetry_space_group_name_H-M   'C 2/c'
_symmetry_Int_Tables_number      15
_space_group_name_Hall           '-C 2yn'
loop_
_symmetry_equiv_pos_site_id
_symmetry_equiv_pos_as_xyz
1 x,y,z
2 1/2+x,1/2+y,z
3 -x,y,1/2-z
4 1/2-x,1/2+y,1/2-z
5 -x,-y,-z
6 1/2-x,1/2-y,-z
7 x,-y,1/2+z
8 1/2+x,1/2-y,1/2+z
_cell_length_a                   18.9602(8)
_cell_length_b                   7.1044(3)
_cell_length_c                   51.387(2)
_cell_angle_alpha                90
_cell_angle_beta                 96.5290(10)
_cell_angle_gamma                90
_cell_volume                     6876.98
_exptl_crystal_colour            yellow
_exptl_crystal_description       prism
_cell_formula_units_Z            16
loop_
_atom_site_label
_atom_site_type_symbol
_atom_site_fract_x
_atom_site_fract_y
_atom_site_fract_z
Cl1 Cl 0.55293(4) 0.26083(10) 0.116299(17)
Cl2 Cl 0.66956(4) 0.23148(11) 0.077987(15)
O1 O 0.43058(11) 0.5140(3) 0.17670(4)
N1 N 0.41610(11) 0.7618(3) 0.20490(4)
N2 N 0.45366(12) 0.9274(3) 0.21218(4)
N3 N 0.54767(11) 0.7834(3) 0.15919(4)
C1 C 0.32109(15) 0.5575(4) 0.21376(6)
H1 H 0.3055 0.5578 0.1959
C2 C 0.28635(17) 0.4504(5) 0.23083(7)
H2 H 0.2478 0.3763 0.2244
C3 C 0.3084(2) 0.4529(5) 0.25708(7)
H3 H 0.2847 0.3810 0.2685
C4 C 0.36512(18) 0.5609(5) 0.26664(6)
H4 H 0.3797 0.5625 0.2845
C5 C 0.40110(15) 0.6682(4) 0.24986(5)
H5 H 0.4396 0.7421 0.2564
C6 C 0.37912(13) 0.6638(4) 0.22342(5)
C7 C 0.44721(14) 0.6721(4) 0.18480(5)
C8 C 0.50006(14) 0.8021(3) 0.17781(5)
C9 C 0.50072(14) 0.9528(4) 0.19415(5)
C10 C 0.54334(19) 1.1281(4) 0.19379(6)
H6 H 0.5785 1.1131 0.1819
H7 H 0.5663 1.1529 0.2111
H8 H 0.5127 1.2314 0.1882
C11 C 0.41219(17) 1.0827(4) 0.22160(6)
H9 H 0.4433 1.1851 0.2271
H10 H 0.3886 1.0401 0.2361
H11 H 0.3775 1.1242 0.2077
C12 C 0.54534(13) 0.6405(4) 0.14425(5)
H12 H 0.5112 0.5480 0.1455
C13 C 0.59681(13) 0.6213(4) 0.12500(5)
C14 C 0.60530(13) 0.4538(4) 0.11141(5)
C15 C 0.65691(14) 0.4400(4) 0.09442(5)
C16 C 0.69984(14) 0.5901(4) 0.09035(5)
H13 H 0.7345 0.5794 0.0790
C17 C 0.69114(14) 0.7564(4) 0.10323(5)
H14 H 0.7197 0.8591 0.1004
C18 C 0.64046(14) 0.7720(4) 0.12029(5)
H15 H 0.6353 0.8857 0.1288
Cl3 Cl 0.25248(4) 0.64909(11) 0.143342(13)
Cl4 Cl 0.23014(5) 0.99750(14) 0.178557(15)
O2 O 0.31708(11) 0.3620(3) 0.07082(4)
N4 N 0.40425(12) 0.3307(3) 0.04347(4)
N5 N 0.45955(11) 0.4450(3) 0.03600(4)
N6 N 0.40656(11) 0.7227(3) 0.08800(4)
C19 C 0.35006(17) 0.2526(5) -0.00039(6)
H16 H 0.3543 0.3770 -0.0056
C20 C 0.32156(19) 0.1161(8) -0.01809(7)
H17 H 0.3075 0.1489 -0.0354
C21 C 0.3142(2) -0.0650(7) -0.01013(9)
H18 H 0.2954 -0.1557 -0.0220
C22 C 0.3344(2) -0.1121(6) 0.01507(9)
H19 H 0.3284 -0.2355 0.0204
C23 C 0.36350(18) 0.0172(5) 0.03292(7)
H20 H 0.3774 -0.0178 0.0502
C24 C 0.37168(14) 0.1989(4) 0.02494(5)
C25 C 0.37179(14) 0.4180(4) 0.06310(5)
C26 C 0.41562(13) 0.5815(4) 0.07008(5)
C27 C 0.46719(13) 0.5892(4) 0.05380(5)
C28 C 0.52484(15) 0.7318(5) 0.05331(6)
H21 H 0.5195 0.8272 0.0662
H22 H 0.5219 0.7883 0.0363
H23 H 0.5701 0.6715 0.0572
C29 C 0.52048(16) 0.3390(5) 0.02875(7)
H24 H 0.5546 0.4246 0.0229
H25 H 0.5050 0.2527 0.0149
H26 H 0.5419 0.2702 0.0437
C30 C 0.36197(14) 0.7055(4) 0.10466(5)
H27 H 0.3361 0.5947 0.1054
C31 C 0.35154(13) 0.8601(4) 0.12256(5)
C32 C 0.30227(13) 0.8506(4) 0.14076(5)
C33 C 0.29228(15) 1.0041(4) 0.15655(5)
C34 C 0.33134(17) 1.1664(4) 0.15476(6)
H28 H 0.3245 1.2689 0.1654
C35 C 0.38016(17) 1.1756(4) 0.13717(6)
H29 H 0.4069 1.2844 0.1361
C36 C 0.38997(15) 1.0265(4) 0.12123(6)
H30 H 0.4230 1.0361 0.1092
loop_
_geom_bond_atom_site_label_1
_geom_bond_atom_site_label_2
_geom_bond_site_symmetry_1
_geom_bond_site_symmetry_2
Cl1 C14 1_555 1_555
Cl2 C15 1_555 1_555
O1 C7 1_555 1_555
N1 N2 1_555 1_555
N2 C9 1_555 1_555
N3 C8 1_555 1_555
C1 H1 1_555 1_555
C2 C1 1_555 1_555
H2 C2 1_555 1_555
C3 C2 1_555 1_555
H3 C3 1_555 1_555
C4 C3 1_555 1_555
H4 C4 1_555 1_555
C5 C4 1_555 1_555
H5 C5 1_555 1_555
C6 N1 1_555 1_555
C7 N1 1_555 1_555
C8 C7 1_555 1_555
C9 C8 1_555 1_555
C10 C9 1_555 1_555
H6 C10 1_555 1_555
H7 C10 1_555 1_555
H8 C10 1_555 1_555
C11 N2 1_555 1_555
H9 C11 1_555 1_555
H10 C11 1_555 1_555
H11 C11 1_555 1_555
C12 N3 1_555 1_555
H12 C12 1_555 1_555
C13 C12 1_555 1_555
C14 C13 1_555 1_555
C15 C14 1_555 1_555
C16 C15 1_555 1_555
H13 C16 1_555 1_555
C17 C16 1_555 1_555
H14 C17 1_555 1_555
C18 C13 1_555 1_555
H15 C18 1_555 1_555
Cl3 C32 1_555 1_555
Cl4 C33 1_555 1_555
O2 C25 1_555 1_555
N4 N5 1_555 1_555
N5 C27 1_555 1_555
N6 C26 1_555 1_555
C19 H16 1_555 1_555
C20 C19 1_555 1_555
H17 C20 1_555 1_555
C21 C20 1_555 1_555
H18 C21 1_555 1_555
C22 C21 1_555 1_555
H19 C22 1_555 1_555
C23 C22 1_555 1_555
H20 C23 1_555 1_555
C24 N4 1_555 1_555
C25 N4 1_555 1_555
C26 C25 1_555 1_555
C27 C26 1_555 1_555
C28 C27 1_555 1_555
H21 C28 1_555 1_555
H22 C28 1_555 1_555
H23 C28 1_555 1_555
C29 N5 1_555 1_555
H24 C29 1_555 1_555
H25 C29 1_555 1_555
H26 C29 1_555 1_555
C30 N6 1_555 1_555
H27 C30 1_555 1_555
C31 C30 1_555 1_555
C32 C31 1_555 1_555
C33 C32 1_555 1_555
C34 C33 1_555 1_555
H28 C34 1_555 1_555
C35 C34 1_555 1_555
H29 C35 1_555 1_555
C36 C31 1_555 1_555
H30 C36 1_555 1_555
C1 C6 1_555 1_555
C5 C6 1_555 1_555
C17 C18 1_555 1_555
C19 C24 1_555 1_555
C23 C24 1_555 1_555
C35 C36 1_555 1_555

#END
