
#######################################################################
#
#                 Cambridge Crystallographic Data Centre
#                                CCDC 
#
#######################################################################
#
# If this CIF has been generated from an entry in the Cambridge 
# Structural Database, then it will include bibliographic, chemical, 
# crystal, experimental, refinement or atomic coordinate data resulting 
# from the CCDC's data processing and validation procedures.
#
#######################################################################

data_LEPVAE02
_chemical_name_common            4-((2,3-dichlorobenzylidene)amino)antipyrine
_chemical_formula_moiety         'C18 H15 Cl2 N3 O1'
_chemical_name_systematic        
4-((2,3-dichlorobenzylidene)amino)-1,5-dimethyl-2-phenyl-1,2-dihydro-3H-pyrazol-3-one
_symmetry_cell_setting           orthorhombic
_symmetry_space_group_name_H-M   'P b c a'
_symmetry_Int_Tables_number      61
_space_group_name_Hall           '-P 2ac 2ab'
loop_
_symmetry_equiv_pos_site_id
_symmetry_equiv_pos_as_xyz
1 x,y,z
2 1/2-x,-y,1/2+z
3 -x,1/2+y,1/2-z
4 1/2+x,1/2-y,-z
5 -x,-y,-z
6 1/2+x,y,1/2-z
7 x,1/2-y,1/2+z
8 1/2-x,1/2+y,z
_cell_length_a                   14.6087(8)
_cell_length_b                   8.3743(14)
_cell_length_c                   28.135(3)
_cell_angle_alpha                90
_cell_angle_beta                 90
_cell_angle_gamma                90
_cell_volume                     3441.97
_chemical_melting_point          '194-195 deg.C'
_cell_formula_units_Z            8
loop_
_atom_site_label
_atom_site_type_symbol
_atom_site_fract_x
_atom_site_fract_y
_atom_site_fract_z
Cl1 Cl 0.44507(4) 0.06650(10) 0.65539(2)
Cl2 Cl 0.43756(6) -0.13616(12) 0.74871(3)
O1 O 0.57752(9) 0.3027(2) 0.52617(5)
N1 N 0.71570(12) 0.1434(2) 0.59728(6)
N2 N 0.80625(11) 0.3341(2) 0.49565(6)
N3 N 0.71341(11) 0.3715(2) 0.48853(6)
C1 C 0.54434(15) -0.0136(3) 0.67869(7)
C2 C 0.53989(18) -0.1078(3) 0.71919(8)
C3 C 0.6171(2) -0.1786(4) 0.73707(10)
H1 H 0.6136 -0.2417 0.7642
C4 C 0.6993(2) -0.1559(4) 0.71476(11)
H2 H 0.7515 -0.2067 0.7262
C5 C 0.70516(18) -0.0590(4) 0.67574(10)
H3 H 0.7619 -0.0420 0.6616
C6 C 0.62783(15) 0.0150(3) 0.65674(8)
C7 C 0.63680(15) 0.1160(3) 0.61443(7)
H4 H 0.5851 0.1598 0.6002
C8 C 0.72805(13) 0.2338(3) 0.55676(7)
C9 C 0.66171(13) 0.3028(3) 0.52534(7)
C10 C 0.81337(13) 0.2604(3) 0.53793(8)
C11 C 0.90342(15) 0.2214(3) 0.55922(9)
H5 H 0.9386 0.1590 0.5372
H6 H 0.8944 0.1616 0.5879
H7 H 0.9356 0.3184 0.5663
C12 C 0.87630(14) 0.4352(3) 0.47458(9)
H8 H 0.8924 0.5184 0.4965
H9 H 0.8532 0.4817 0.4458
H10 H 0.9295 0.3721 0.4675
C13 C 0.68047(13) 0.3907(2) 0.44122(7)
C14 C 0.72090(17) 0.3109(3) 0.40384(8)
H11 H 0.7703 0.2433 0.4092
C15 C 0.6874(2) 0.3323(4) 0.35858(9)
H12 H 0.7152 0.2806 0.3331
C16 C 0.6131(2) 0.4298(4) 0.35070(10)
H13 H 0.5904 0.4432 0.3201
C17 C 0.57270(16) 0.5070(3) 0.38817(10)
H14 H 0.5221 0.5719 0.3829
C18 C 0.60628(14) 0.4895(3) 0.43364(9)
H15 H 0.5793 0.5435 0.4589
loop_
_geom_bond_atom_site_label_1
_geom_bond_atom_site_label_2
_geom_bond_site_symmetry_1
_geom_bond_site_symmetry_2
Cl1 C1 1_555 1_555
Cl2 C2 1_555 1_555
O1 C9 1_555 1_555
N1 C7 1_555 1_555
N2 N3 1_555 1_555
N3 C9 1_555 1_555
C1 C2 1_555 1_555
C2 C3 1_555 1_555
C3 H1 1_555 1_555
C4 C3 1_555 1_555
H2 C4 1_555 1_555
C5 C4 1_555 1_555
H3 C5 1_555 1_555
C6 C1 1_555 1_555
C7 C6 1_555 1_555
H4 C7 1_555 1_555
C8 N1 1_555 1_555
C9 C8 1_555 1_555
C10 N2 1_555 1_555
C11 C10 1_555 1_555
H5 C11 1_555 1_555
H6 C11 1_555 1_555
H7 C11 1_555 1_555
C12 N2 1_555 1_555
H8 C12 1_555 1_555
H9 C12 1_555 1_555
H10 C12 1_555 1_555
C13 N3 1_555 1_555
C14 C13 1_555 1_555
H11 C14 1_555 1_555
C15 C14 1_555 1_555
H12 C15 1_555 1_555
C16 C15 1_555 1_555
H13 C16 1_555 1_555
C17 C16 1_555 1_555
H14 C17 1_555 1_555
C18 C13 1_555 1_555
H15 C18 1_555 1_555
C5 C6 1_555 1_555
C8 C10 1_555 1_555
C17 C18 1_555 1_555

#END
