
#######################################################################
#
#                 Cambridge Crystallographic Data Centre
#                                CCDC 
#
#######################################################################
#
# If this CIF has been generated from an entry in the Cambridge 
# Structural Database, then it will include bibliographic, chemical, 
# crystal, experimental, refinement or atomic coordinate data resulting 
# from the CCDC's data processing and validation procedures.
#
#######################################################################

data_LEPXOU
_chemical_formula_moiety         'C18 H14 F3 N1 O3'
_chemical_name_systematic        
'(Z)-Methyl 2-(2,2,2-trifluoro-N-phenylacetimidoyloxy)-3-phenyl-2-propenoate'
_symmetry_cell_setting           monoclinic
_symmetry_space_group_name_H-M   'P 21/c'
_symmetry_Int_Tables_number      14
_space_group_name_Hall           '-P 2ybc'
loop_
_symmetry_equiv_pos_site_id
_symmetry_equiv_pos_as_xyz
1 x,y,z
2 -x,1/2+y,1/2-z
3 -x,-y,-z
4 x,1/2-y,1/2+z
_cell_length_a                   10.701(2)
_cell_length_b                   9.1912(18)
_cell_length_c                   17.628(4)
_cell_angle_alpha                90
_cell_angle_beta                 90.69(3)
_cell_angle_gamma                90
_cell_volume                     1733.68
_exptl_crystal_colour            colorless
_exptl_crystal_description       block
_cell_formula_units_Z            4
loop_
_atom_site_label
_atom_site_type_symbol
_atom_site_fract_x
_atom_site_fract_y
_atom_site_fract_z
F1 F 0.0767(17) 0.173(3) 0.0305(9)
F2 F 0.1229(18) 0.080(2) -0.0577(9)
F3 F 0.0176(14) 0.269(2) -0.0665(9)
O1 O 0.29142(12) 0.25474(14) 0.03759(6)
O2 O 0.44117(14) 0.11445(17) -0.05927(8)
O3 O 0.61128(14) 0.23482(16) -0.01781(8)
N1 N 0.26915(14) 0.38286(18) -0.07199(9)
C1 C 0.4897(2) 0.2024(3) -0.01845(11)
C2 C 0.42007(17) 0.2866(2) 0.03844(10)
C3 C 0.46945(17) 0.3673(2) 0.09204(11)
H1 H 0.5560 0.3753 0.0908
C4 C 0.4100(2) 0.4468(2) 0.15336(11)
C5 C 0.4816(2) 0.4791(2) 0.21647(13)
H2 H 0.5654 0.4520 0.2179
C6 C 0.4321(3) 0.5500(3) 0.27681(14)
H3 H 0.4824 0.5704 0.3189
C7 C 0.3107(3) 0.5912(3) 0.27648(15)
H4 H 0.2776 0.6385 0.3184
C8 C 0.2364(3) 0.5630(3) 0.21394(19)
H5 H 0.1534 0.5932 0.2127
C9 C 0.2859(2) 0.4896(2) 0.15317(13)
H6 H 0.2353 0.4685 0.1114
C10 C 0.22729(17) 0.2942(2) -0.02613(11)
C11 C 0.1029(3) 0.2144(6) -0.0279(3)
C12 C 0.20862(17) 0.4198(2) -0.14138(12)
C13 C 0.1441(2) 0.5478(3) -0.14753(15)
H7 H 0.1343 0.6075 -0.1054
C14 C 0.0931(2) 0.5879(3) -0.2175(2)
H8 H 0.0473 0.6734 -0.2223
C15 C 0.1109(2) 0.5011(4) -0.27890(16)
H9 H 0.0771 0.5276 -0.3257
C16 C 0.1767(2) 0.3776(3) -0.27240(13)
H10 H 0.1889 0.3198 -0.3150
C17 C 0.22607(18) 0.3357(2) -0.20403(13)
H11 H 0.2716 0.2497 -0.2002
C18 C 0.6855(2) 0.1522(3) -0.07101(13)
H12 H 0.7715 0.1812 -0.0666
H13 H 0.6559 0.1703 -0.1217
H14 H 0.6784 0.0503 -0.0599
F4? F 0.053(2) 0.178(2) 0.0456(12)
F5? F 0.089(3) 0.127(4) -0.0796(13)
F6? F 0.006(2) 0.328(3) -0.034(2)
F7? F 0.123(2) 0.090(3) -0.014(4)
F8? F 0.043(3) 0.243(6) -0.089(2)
F9? F 0.0238(15) 0.255(6) 0.0291(18)
loop_
_geom_bond_atom_site_label_1
_geom_bond_atom_site_label_2
_geom_bond_site_symmetry_1
_geom_bond_site_symmetry_2
F1 C11 1_555 1_555
F2 C11 1_555 1_555
F3 C11 1_555 1_555
O1 C2 1_555 1_555
O2 C1 1_555 1_555
O3 C1 1_555 1_555
N1 C10 1_555 1_555
C1 C2 1_555 1_555
C2 C3 1_555 1_555
C3 H1 1_555 1_555
C4 C3 1_555 1_555
C5 C4 1_555 1_555
H2 C5 1_555 1_555
C6 C5 1_555 1_555
H3 C6 1_555 1_555
C7 C6 1_555 1_555
H4 C7 1_555 1_555
C8 C7 1_555 1_555
H5 C8 1_555 1_555
C9 C4 1_555 1_555
H6 C9 1_555 1_555
C10 O1 1_555 1_555
C11 C10 1_555 1_555
C12 N1 1_555 1_555
C13 C12 1_555 1_555
H7 C13 1_555 1_555
C14 C13 1_555 1_555
H8 C14 1_555 1_555
C15 C14 1_555 1_555
H9 C15 1_555 1_555
C16 C15 1_555 1_555
H10 C16 1_555 1_555
C17 C12 1_555 1_555
H11 C17 1_555 1_555
C18 O3 1_555 1_555
H12 C18 1_555 1_555
H13 C18 1_555 1_555
H14 C18 1_555 1_555
C8 C9 1_555 1_555
C16 C17 1_555 1_555

#END
