
#######################################################################
#
#                 Cambridge Crystallographic Data Centre
#                                CCDC 
#
#######################################################################
#
# If this CIF has been generated from an entry in the Cambridge 
# Structural Database, then it will include bibliographic, chemical, 
# crystal, experimental, refinement or atomic coordinate data resulting 
# from the CCDC's data processing and validation procedures.
#
#######################################################################

data_LEPZUD
_chemical_formula_moiety         'C18 H15 N2 O2 1+,Cl1 O4 1-,H2 O1'
_chemical_name_systematic        
'1-(3-Carboxybenzyl)-4-(pyridin-4-yl)pyridinium perchlorate monohydrate'
_symmetry_cell_setting           monoclinic
_symmetry_space_group_name_H-M   'P 21/n'
_symmetry_Int_Tables_number      14
_space_group_name_Hall           '-P 2yn'
loop_
_symmetry_equiv_pos_site_id
_symmetry_equiv_pos_as_xyz
1 x,y,z
2 1/2-x,1/2+y,1/2-z
3 -x,-y,-z
4 1/2+x,1/2-y,1/2+z
_cell_length_a                   9.2324(2)
_cell_length_b                   21.4758(6)
_cell_length_c                   9.4940(2)
_cell_angle_alpha                90
_cell_angle_beta                 96.749(2)
_cell_angle_gamma                90
_cell_volume                     1869.36
_exptl_crystal_colour            yellow
_exptl_crystal_description       block
_cell_formula_units_Z            4
loop_
_atom_site_label
_atom_site_type_symbol
_atom_site_fract_x
_atom_site_fract_y
_atom_site_fract_z
O1 O 0.4674(3) 0.39117(14) 0.2982(3)
O2 O 0.4838(3) 0.37045(13) 0.5279(3)
H1 H 0.5429 0.3991 0.5322
N1 N 0.2422(3) 0.15528(13) 0.6686(3)
N2 N 0.8146(4) -0.04247(17) 0.9319(5)
C1 C 0.4308(4) 0.36128(17) 0.3957(5)
C2 C 0.3217(3) 0.31008(15) 0.3787(4)
C3 C 0.2626(4) 0.29357(18) 0.2432(4)
H2 H 0.2902 0.3149 0.1653
C4 C 0.1632(4) 0.24581(19) 0.2231(4)
H3 H 0.1249 0.2345 0.1317
C5 C 0.1200(4) 0.21456(17) 0.3388(4)
H4 H 0.0528 0.1822 0.3248
C6 C 0.1762(3) 0.23124(15) 0.4751(4)
C7 C 0.2772(3) 0.27919(15) 0.4948(4)
H5 H 0.3152 0.2907 0.5861
C8 C 0.1261(4) 0.19810(18) 0.6011(4)
H6 H 0.1022 0.2286 0.6702
H7 H 0.0387 0.1743 0.5706
C9 C 0.2583(5) 0.09964(19) 0.6102(4)
H8 H 0.1945 0.0873 0.5321
C10 C 0.3679(5) 0.06064(19) 0.6641(4)
H9 H 0.3776 0.0218 0.6228
C11 C 0.4655(3) 0.07841(15) 0.7807(4)
C12 C 0.4397(4) 0.13462(17) 0.8409(5)
H10 H 0.4991 0.1476 0.9215
C13 C 0.3277(4) 0.17209(18) 0.7840(5)
H11 H 0.3115 0.2099 0.8272
C14 C 0.5880(4) 0.03741(16) 0.8356(4)
C15 C 0.6327(6) -0.0093(3) 0.7531(6)
H12 H 0.5867 -0.0149 0.6614
C16 C 0.7447(7) -0.0479(3) 0.8045(7)
H13 H 0.7722 -0.0795 0.7461
C17 C 0.7737(4) 0.0015(2) 1.0136(5)
H14 H 0.8220 0.0058 1.1047
C18 C 0.6596(4) 0.04265(18) 0.9688(4)
H15 H 0.6330 0.0734 1.0298
Cl1 Cl 0.6303(9) 0.1439(3) 0.3413(8)
O3 O 0.7174(14) 0.0960(5) 0.2988(14)
O4 O 0.5536(16) 0.1234(7) 0.4498(9)
O5 O 0.5306(14) 0.1611(6) 0.2220(12)
O6 O 0.7141(14) 0.1956(5) 0.3870(14)
O7 O 0.4298(15) 0.4461(6) 0.0199(17)
Cl2? Cl 0.6105(6) 0.1486(3) 0.3537(7)
O8? O 0.4808(13) 0.4447(8) -0.1234(14)
O9? O 0.6528(12) 0.0876(3) 0.3983(19)
O10? O 0.7344(12) 0.1865(6) 0.3750(19)
O11? O 0.5591(18) 0.1465(9) 0.2086(8)
O12? O 0.5042(11) 0.1686(7) 0.4331(12)
loop_
_geom_bond_atom_site_label_1
_geom_bond_atom_site_label_2
_geom_bond_site_symmetry_1
_geom_bond_site_symmetry_2
O1 C1 1_555 1_555
O2 H1 1_555 1_555
N1 C8 1_555 1_555
N2 C16 1_555 1_555
C1 O2 1_555 1_555
C2 C1 1_555 1_555
C3 C2 1_555 1_555
H2 C3 1_555 1_555
C4 C3 1_555 1_555
H3 C4 1_555 1_555
C5 C4 1_555 1_555
H4 C5 1_555 1_555
C6 C5 1_555 1_555
C7 C2 1_555 1_555
H5 C7 1_555 1_555
C8 C6 1_555 1_555
H6 C8 1_555 1_555
H7 C8 1_555 1_555
C9 N1 1_555 1_555
H8 C9 1_555 1_555
C10 C9 1_555 1_555
H9 C10 1_555 1_555
C11 C10 1_555 1_555
C12 C11 1_555 1_555
H10 C12 1_555 1_555
C13 N1 1_555 1_555
H11 C13 1_555 1_555
C14 C11 1_555 1_555
C15 C14 1_555 1_555
H12 C15 1_555 1_555
C16 C15 1_555 1_555
H13 C16 1_555 1_555
C17 N2 1_555 1_555
H14 C17 1_555 1_555
C18 C14 1_555 1_555
H15 C18 1_555 1_555
Cl1 O3 1_555 1_555
O4 Cl1 1_555 1_555
O5 Cl1 1_555 1_555
O6 Cl1 1_555 1_555
C6 C7 1_555 1_555
C12 C13 1_555 1_555
C17 C18 1_555 1_555

#END
