
#######################################################################
#
#                 Cambridge Crystallographic Data Centre
#                                CCDC 
#
#######################################################################
#
# If this CIF has been generated from an entry in the Cambridge 
# Structural Database, then it will include bibliographic, chemical, 
# crystal, experimental, refinement or atomic coordinate data resulting 
# from the CCDC's data processing and validation procedures.
#
#######################################################################

data_LEQBAM
_chemical_formula_moiety         'C18 H14 N2 O2,5(H2 O1)'
_chemical_name_systematic        
'3-((4-(Pyridin-4-yl)pyridinium-1-yl)methyl)benzoate pentahydrate'
_symmetry_cell_setting           monoclinic
_symmetry_space_group_name_H-M   'C 2/c'
_symmetry_Int_Tables_number      15
_space_group_name_Hall           '-C 2yn'
loop_
_symmetry_equiv_pos_site_id
_symmetry_equiv_pos_as_xyz
1 x,y,z
2 -x,y,1/2-z
3 1/2+x,1/2+y,z
4 1/2-x,1/2+y,1/2-z
5 -x,-y,-z
6 x,-y,1/2+z
7 1/2-x,1/2-y,-z
8 1/2+x,1/2-y,1/2+z
_cell_length_a                   27.357(5)
_cell_length_b                   8.6859(8)
_cell_length_c                   18.312(3)
_cell_angle_alpha                90
_cell_angle_beta                 119.076(7)
_cell_angle_gamma                90
_cell_volume                     3802.93
_exptl_crystal_colour            colorless
_exptl_crystal_description       block
_cell_formula_units_Z            8
loop_
_atom_site_label
_atom_site_type_symbol
_atom_site_fract_x
_atom_site_fract_y
_atom_site_fract_z
N1 N 0.13303(9) 0.4864(3) 0.05149(14)
N2 N -0.10666(11) 0.9536(3) -0.07893(18)
O1 O 0.31105(8) 0.8679(3) 0.21298(13)
O2 O 0.38123(9) 0.8248(3) 0.18589(15)
C1 C 0.33385(11) 0.7969(3) 0.17748(17)
C2 C 0.30102(10) 0.6691(3) 0.11745(16)
C3 C 0.31072(11) 0.6310(3) 0.05151(16)
H1 H 0.3396 0.6821 0.0463
C4 C 0.27936(12) 0.5214(4) -0.00568(18)
H2 H 0.2859 0.4986 -0.0510
C5 C 0.23809(12) 0.4435(3) 0.00237(18)
H3 H 0.2163 0.3676 -0.0377
C6 C 0.22840(11) 0.4752(3) 0.06827(17)
C7 C 0.25967(11) 0.5873(3) 0.12552(17)
H4 H 0.2531 0.6093 0.1708
C8 C 0.18424(12) 0.3883(4) 0.0772(2)
H5 H 0.1992 0.3555 0.1360
H6 H 0.1739 0.2947 0.0419
C9 C 0.11636(13) 0.5251(4) 0.10574(19)
H7 H 0.1369 0.4901 0.1618
C10 C 0.07005(13) 0.6147(4) 0.08226(18)
H8 H 0.0585 0.6393 0.1221
C11 C 0.03955(11) 0.6706(3) 0.00106(15)
C12 C 0.05801(13) 0.6248(5) -0.05406(18)
H9 H 0.0380 0.6566 -0.1108
C13 C 0.10417(13) 0.5355(4) -0.02825(19)
H10 H 0.1163 0.5071 -0.0669
C14 C -0.01093(10) 0.7683(3) -0.02628(16)
C15 C -0.02970(14) 0.8158(4) 0.0283(2)
H11 H -0.0103 0.7850 0.0852
C16 C -0.07658(15) 0.9079(5) -0.0003(2)
H12 H -0.0880 0.9403 0.0387
C17 C -0.08929(15) 0.9053(5) -0.1317(2)
H13 H -0.1104 0.9341 -0.1888
C18 C -0.04236(14) 0.8158(5) -0.10744(19)
H14 H -0.0316 0.7866 -0.1476
O3 O 0.45505(10) 1.0556(3) 0.26441(15)
O4 O 0.30527(12) 1.1965(3) 0.18954(15)
O5 O 0.20116(12) 0.8577(4) 0.18634(19)
O6 O 0.05526(10) 0.0739(3) 0.31210(16)
O7 O 0.10859(13) 0.7873(4) 0.3442(2)
loop_
_geom_bond_atom_site_label_1
_geom_bond_atom_site_label_2
_geom_bond_site_symmetry_1
_geom_bond_site_symmetry_2
N1 C8 1_555 1_555
N2 C16 1_555 1_555
O1 C1 1_555 1_555
O2 C1 1_555 1_555
C1 C2 1_555 1_555
C2 C3 1_555 1_555
C3 H1 1_555 1_555
C4 C3 1_555 1_555
H2 C4 1_555 1_555
C5 C4 1_555 1_555
H3 C5 1_555 1_555
C6 C5 1_555 1_555
C7 C2 1_555 1_555
H4 C7 1_555 1_555
C8 C6 1_555 1_555
H5 C8 1_555 1_555
H6 C8 1_555 1_555
C9 N1 1_555 1_555
H7 C9 1_555 1_555
C10 C9 1_555 1_555
H8 C10 1_555 1_555
C11 C10 1_555 1_555
C12 C11 1_555 1_555
H9 C12 1_555 1_555
C13 N1 1_555 1_555
H10 C13 1_555 1_555
C14 C11 1_555 1_555
C15 C14 1_555 1_555
H11 C15 1_555 1_555
C16 C15 1_555 1_555
H12 C16 1_555 1_555
C17 N2 1_555 1_555
H13 C17 1_555 1_555
C18 C14 1_555 1_555
H14 C18 1_555 1_555
C6 C7 1_555 1_555
C12 C13 1_555 1_555
C17 C18 1_555 1_555

#END
