
#######################################################################
#
#                 Cambridge Crystallographic Data Centre
#                                CCDC 
#
#######################################################################
#
# If this CIF has been generated from an entry in the Cambridge 
# Structural Database, then it will include bibliographic, chemical, 
# crystal, experimental, refinement or atomic coordinate data resulting 
# from the CCDC's data processing and validation procedures.
#
#######################################################################

data_LEQHEU
_chemical_formula_moiety         'C28 H28 N2 S2'
_chemical_name_systematic        
2,4-bis(1,3,3-Trimethyl-2-indolinylidenemethyl)-cyclobutenediylium-1,3-dithiolate
_symmetry_cell_setting           monoclinic
_symmetry_space_group_name_H-M   'P 21/n'
_symmetry_Int_Tables_number      14
_space_group_name_Hall           '-P 2yn'
loop_
_symmetry_equiv_pos_site_id
_symmetry_equiv_pos_as_xyz
1 x,y,z
2 1/2-x,1/2+y,1/2-z
3 -x,-y,-z
4 1/2+x,1/2-y,1/2+z
_cell_length_a                   7.654(2)
_cell_length_b                   11.438(2)
_cell_length_c                   13.598(2)
_cell_angle_alpha                90
_cell_angle_beta                 90.33(2)
_cell_angle_gamma                90
_cell_volume                     1190.44
_cell_formula_units_Z            2
_exptl_crystal_recrystallization_method 'chloroform/ethyl acetate'
loop_
_atom_site_label
_atom_site_type_symbol
_atom_site_fract_x
_atom_site_fract_y
_atom_site_fract_z
S1 S 0.8669(1) 0.1679(7) 0.61467(5)
N1 N 0.4816(3) 0.0562(2) 0.3071(2)
C1 C 0.4134(3) 0.0097(2) 0.2187(2)
C2 C 0.2675(3) 0.0433(3) 0.1663(2)
C3 C 0.2330(4) -0.0160(3) 0.0800(2)
C4 C 0.3377(4) -0.1038(3) 0.0477(2)
C5 C 0.4851(4) -0.1373(3) 0.1010(2)
C6 C 0.5227(3) -0.0791(2) 0.1869(2)
C7 C 0.6755(3) -0.0892(2) 0.2569(2)
C8 C 0.6337(3) 0.0045(2) 0.3327(2)
C9 C 0.8433(3) -0.0590(2) 0.2018(2)
C10 C 0.6811(4) -0.2103(2) 0.3045(2)
C11 C 0.3936(3) 0.1488(3) 0.3603(2)
C12 C 0.7278(3) 0.0390(2) 0.4150(2)
C13 C 0.8875(3) 0.0088(2) 0.4575(2)
C14 C 0.9553(3) 0.0643(2) 0.5469(2)
H1 H 0.203(3) 0.101(2) 0.189(2)
H2 H 0.141(3) 0.007(2) 0.041(2)
H3 H 0.323(3) -0.148(3) -0.013(2)
H4 H 0.410(4) 0.221(3) 0.330(2)
H5 H 0.940(3) -0.059(2) 0.247(2)
H6 H 0.696(3) -0.268(2) 0.254(2)
H7 H 0.676(2) 0.098(2) 0.452(2)
H8 H 0.563(3) -0.197(2) 0.080(2)
H9 H 0.283(4) 0.138(3) 0.356(2)
H10 H 0.418(5) 0.147(4) 0.426(3)
H11 H 0.561(4) -0.231(3) 0.339(3)
H12 H 0.834(3) 0.018(2) 0.173(2)
H13 H 0.771(3) -0.213(2) 0.345(2)
H14 H 0.860(3) -0.115(2) 0.150(2)
C14B C 1.0447(3) -0.0643(2) 0.4531(2)
S1B S 1.1331(1) -0.1679(7) 0.38533(5)
C13B C 1.1125(3) -0.0088(2) 0.5425(2)
C12B C 1.2722(3) -0.0390(2) 0.5850(2)
C8B C 1.3663(3) -0.0045(2) 0.6673(2)
N1B N 1.5184(3) -0.0562(2) 0.6929(2)
C1B C 1.5866(3) -0.0097(2) 0.7813(2)
C2B C 1.7325(3) -0.0433(3) 0.8337(2)
C3B C 1.7670(4) 0.0160(3) 0.9200(2)
C4B C 1.6623(4) 0.1038(3) 0.9523(2)
C5B C 1.5149(4) 0.1373(3) 0.8990(2)
C6B C 1.4773(3) 0.0791(2) 0.8131(2)
C7B C 1.3245(3) 0.0892(2) 0.7431(2)
C9B C 1.1567(3) 0.0590(2) 0.7982(2)
H5B H 1.060(3) 0.059(2) 0.753(2)
H12B H 1.166(3) -0.018(2) 0.827(2)
H14B H 1.140(3) 0.115(2) 0.850(2)
C10B C 1.3189(4) 0.2103(2) 0.6955(2)
H6B H 1.304(3) 0.268(2) 0.746(2)
H11B H 1.439(4) 0.231(3) 0.661(3)
H13B H 1.229(3) 0.213(2) 0.655(2)
H8B H 1.437(3) 0.197(2) 0.920(2)
H3B H 1.677(3) 0.148(3) 1.013(2)
H2B H 1.859(3) -0.007(2) 0.959(2)
H1B H 1.797(3) -0.101(2) 0.811(2)
C11B C 1.6064(3) -0.1488(3) 0.6397(2)
H4B H 1.590(4) -0.221(3) 0.670(2)
H9B H 1.717(4) -0.138(3) 0.644(2)
H10B H 1.582(5) -0.147(4) 0.574(3)
H7B H 1.324(2) -0.098(2) 0.548(2)
loop_
_geom_bond_atom_site_label_1
_geom_bond_atom_site_label_2
_geom_bond_site_symmetry_1
_geom_bond_site_symmetry_2
S1 C14 1_555 1_555
N1 C1 1_555 1_555
C1 C2 1_555 1_555
C2 C3 1_555 1_555
C3 C4 1_555 1_555
C4 C5 1_555 1_555
C5 C6 1_555 1_555
C6 C1 1_555 1_555
C7 C6 1_555 1_555
C8 N1 1_555 1_555
C9 C7 1_555 1_555
C10 C7 1_555 1_555
C11 N1 1_555 1_555
C12 C8 1_555 1_555
C13 C12 1_555 1_555
C14 C13 1_555 1_555
H1 C2 1_555 1_555
H2 C3 1_555 1_555
H3 C4 1_555 1_555
H4 C11 1_555 1_555
H5 C9 1_555 1_555
H6 C10 1_555 1_555
H7 C12 1_555 1_555
H8 C5 1_555 1_555
H9 C11 1_555 1_555
H10 C11 1_555 1_555
H11 C10 1_555 1_555
H12 C9 1_555 1_555
H13 C10 1_555 1_555
H14 C9 1_555 1_555
C14B C13 1_555 1_555
S1B C14B 1_555 1_555
C13B C14 1_555 1_555
C12B C13B 1_555 1_555
C8B C12B 1_555 1_555
N1B C8B 1_555 1_555
C1B N1B 1_555 1_555
C2B C1B 1_555 1_555
C3B C2B 1_555 1_555
C4B C3B 1_555 1_555
C5B C4B 1_555 1_555
C6B C1B 1_555 1_555
C7B C8B 1_555 1_555
C9B C7B 1_555 1_555
H5B C9B 1_555 1_555
H12B C9B 1_555 1_555
H14B C9B 1_555 1_555
C10B C7B 1_555 1_555
H6B C10B 1_555 1_555
H11B C10B 1_555 1_555
H13B C10B 1_555 1_555
H8B C5B 1_555 1_555
H3B C4B 1_555 1_555
H2B C3B 1_555 1_555
H1B C2B 1_555 1_555
C11B N1B 1_555 1_555
H4B C11B 1_555 1_555
H9B C11B 1_555 1_555
H10B C11B 1_555 1_555
H7B C12B 1_555 1_555
C7 C8 1_555 1_555
C14B C13B 1_555 1_555
C5B C6B 1_555 1_555
C6B C7B 1_555 1_555

#END
