
#######################################################################
#
#                 Cambridge Crystallographic Data Centre
#                                CCDC 
#
#######################################################################
#
# If this CIF has been generated from an entry in the Cambridge 
# Structural Database, then it will include bibliographic, chemical, 
# crystal, experimental, refinement or atomic coordinate data resulting 
# from the CCDC's data processing and validation procedures.
#
#######################################################################

data_LEQLOK
_chemical_formula_moiety         'C28 H25 N3 O2 S1'
_chemical_name_systematic        
2-Amino-5-benzyl-N,1-bis(2-furylmethyl)-4-phenyl-1H-pyrrole-3-carbothioamide
_symmetry_cell_setting           monoclinic
_symmetry_space_group_name_H-M   'P 21/c'
_symmetry_Int_Tables_number      14
_space_group_name_Hall           '-P 2ybc'
loop_
_symmetry_equiv_pos_site_id
_symmetry_equiv_pos_as_xyz
1 x,y,z
2 -x,1/2+y,1/2-z
3 -x,-y,-z
4 x,1/2-y,1/2+z
_cell_length_a                   13.366(5)
_cell_length_b                   10.267(5)
_cell_length_c                   18.288(5)
_cell_angle_alpha                90
_cell_angle_beta                 108.205(5)
_cell_angle_gamma                90
_cell_volume                     2384.02
_exptl_crystal_colour            colorless
_exptl_crystal_description       block
_chemical_melting_point          '159-160 deg.C'
_cell_formula_units_Z            4
loop_
_atom_site_label
_atom_site_type_symbol
_atom_site_fract_x
_atom_site_fract_y
_atom_site_fract_z
C1 C 1.0719(3) 0.1409(3) 0.2580(2)
C2 C 1.1613(3) 0.0308(4) 0.1919(2)
C3 C 1.2340(3) 0.0672(3) 0.2623(2)
C4 C 1.1733(3) 0.1358(3) 0.3034(2)
C5 C 0.9776(2) 0.2028(3) 0.2717(2)
H1 H 0.9481 0.2650 0.2307
H2 H 1.0016 0.2516 0.3195
C6 C 0.8901(3) 0.1128(4) 0.27625(19)
C7 C 0.9112(3) -0.0083(4) 0.3101(2)
H3 H 0.9807 -0.0360 0.3302
C8 C 0.8306(3) -0.0892(4) 0.3146(2)
H4 H 0.8463 -0.1706 0.3376
C9 C 0.7275(3) -0.0499(5) 0.2852(2)
H5 H 0.6732 -0.1044 0.2878
C10 C 0.7059(3) 0.0704(5) 0.2521(2)
H6 H 0.6364 0.0979 0.2323
C11 C 0.7859(3) 0.1514(4) 0.2477(2)
H7 H 0.7697 0.2332 0.2252
C12 C 1.2124(2) 0.1854(4) 0.3835(2)
C13 C 1.2452(3) 0.0997(4) 0.4453(2)
H8 H 1.2418 0.0104 0.4362
C14 C 1.2828(3) 0.1452(5) 0.5195(3)
H9 H 1.3045 0.0862 0.5600
C15 C 1.2887(3) 0.2758(5) 0.5349(3)
H10 H 1.3139 0.3055 0.5853
C16 C 1.2570(3) 0.3623(4) 0.4750(3)
H11 H 1.2602 0.4513 0.4849
C17 C 1.2202(3) 0.3174(4) 0.3999(2)
H12 H 1.2003 0.3771 0.3598
C18 C 1.3460(3) 0.0564(4) 0.2809(2)
C19 C 1.5178(3) 0.1417(4) 0.3680(3)
H13 H 1.5441 0.1865 0.3310
H14 H 1.5480 0.0549 0.3758
C20 C 1.5490(3) 0.2135(5) 0.4416(3)
C21 C 1.5686(3) 0.3354(5) 0.4611(3)
H15 H 1.5691 0.4037 0.4278
C22 C 1.5890(3) 0.3459(5) 0.5411(3)
H16 H 1.6061 0.4213 0.5705
C23 C 0.9695(3) 0.0603(4) 0.1233(2)
H17 H 0.9097 0.0517 0.1423
H18 H 0.9755 -0.0204 0.0974
C24 C 0.9473(3) 0.1667(4) 0.0661(2)
C25 C 0.8700(4) 0.2500(5) 0.0374(3)
C26 C 0.8987(5) 0.3309(5) -0.0145(3)
C27 C 0.9911(5) 0.2935(5) -0.0153(3)
C28 C 1.5791(3) 0.2289(6) 0.5659(3)
H19 H 1.5874 0.2075 0.6169
O1 O 1.0265(2) 0.1912(3) 0.03459(16)
O2 O 1.5548(2) 0.1426(3) 0.5060(2)
S1 S 1.40916(8) -0.04132(12) 0.23607(7)
N1 N 1.4028(2) 0.1329(4) 0.3384(2)
N2 N 1.1734(4) -0.0380(4) 0.1308(3)
N3 N 1.0646(2) 0.0763(3) 0.18927(17)
H20 H 1.236(3) -0.068(3) 0.142(2)
H21 H 1.129(3) -0.022(6) 0.0885(16)
H22 H 1.367(3) 0.180(4) 0.357(2)
H23 H 0.809(3) 0.255(3) 0.049(2)
H24 H 0.858(3) 0.398(5) -0.046(3)
H25 H 1.041(3) 0.327(4) -0.039(2)
loop_
_geom_bond_atom_site_label_1
_geom_bond_atom_site_label_2
_geom_bond_site_symmetry_1
_geom_bond_site_symmetry_2
C1 C4 1_555 1_555
C2 C3 1_555 1_555
C3 C4 1_555 1_555
C4 C12 1_555 1_555
C5 C1 1_555 1_555
H1 C5 1_555 1_555
H2 C5 1_555 1_555
C6 C5 1_555 1_555
C7 C6 1_555 1_555
H3 C7 1_555 1_555
C8 C7 1_555 1_555
H4 C8 1_555 1_555
C9 C8 1_555 1_555
H5 C9 1_555 1_555
C10 C9 1_555 1_555
H6 C10 1_555 1_555
C11 C6 1_555 1_555
H7 C11 1_555 1_555
C12 C13 1_555 1_555
C13 H8 1_555 1_555
C14 C13 1_555 1_555
H9 C14 1_555 1_555
C15 C14 1_555 1_555
H10 C15 1_555 1_555
C16 C15 1_555 1_555
H11 C16 1_555 1_555
C17 C12 1_555 1_555
H12 C17 1_555 1_555
C18 C3 1_555 1_555
C19 H13 1_555 1_555
H14 C19 1_555 1_555
C20 C19 1_555 1_555
C21 C20 1_555 1_555
H15 C21 1_555 1_555
C22 C21 1_555 1_555
H16 C22 1_555 1_555
C23 H17 1_555 1_555
H18 C23 1_555 1_555
C24 C23 1_555 1_555
C25 C24 1_555 1_555
C26 C25 1_555 1_555
C27 C26 1_555 1_555
C28 C22 1_555 1_555
H19 C28 1_555 1_555
O1 C24 1_555 1_555
O2 C20 1_555 1_555
S1 C18 1_555 1_555
N1 C18 1_555 1_555
N2 C2 1_555 1_555
N3 C1 1_555 1_555
H20 N2 1_555 1_555
H21 N2 1_555 1_555
H22 N1 1_555 1_555
H23 C25 1_555 1_555
H24 C26 1_555 1_555
H25 C27 1_555 1_555
C2 N3 1_555 1_555
C10 C11 1_555 1_555
C16 C17 1_555 1_555
C19 N1 1_555 1_555
C23 N3 1_555 1_555
C27 O1 1_555 1_555
C28 O2 1_555 1_555

#END
