
#######################################################################
#
#                 Cambridge Crystallographic Data Centre
#                                CCDC 
#
#######################################################################
#
# If this CIF has been generated from an entry in the Cambridge 
# Structural Database, then it will include bibliographic, chemical, 
# crystal, experimental, refinement or atomic coordinate data resulting 
# from the CCDC's data processing and validation procedures.
#
#######################################################################

data_LEQMEA
_chemical_formula_moiety         'C20 H29 N1 O2'
_chemical_name_systematic        
N-((Z)-1-((2R,3S)-3-Hydroxy-3-methyl-2-phenylcyclohexylidene)ethyl)-pivalamide
_symmetry_cell_setting           monoclinic
_symmetry_space_group_name_H-M   'P 21/c'
_symmetry_Int_Tables_number      14
_space_group_name_Hall           '-P 2ybc'
loop_
_symmetry_equiv_pos_site_id
_symmetry_equiv_pos_as_xyz
1 x,y,z
2 -x,1/2+y,1/2-z
3 -x,-y,-z
4 x,1/2-y,1/2+z
_cell_length_a                   12.7515(3)
_cell_length_b                   15.6796(3)
_cell_length_c                   19.4800(4)
_cell_angle_alpha                90
_cell_angle_beta                 104.2750(10)
_cell_angle_gamma                90
_cell_volume                     3774.54
_exptl_crystal_colour            colorless
_exptl_crystal_description       chunk
_chemical_melting_point          '406-407 K'
_cell_formula_units_Z            8
_exptl_crystal_recrystallization_method 'ethyl acetate/hexanes'
loop_
_atom_site_label
_atom_site_type_symbol
_atom_site_fract_x
_atom_site_fract_y
_atom_site_fract_z
C1 C 0.53151(10) 0.73691(9) 0.03809(7)
C2 C 0.56781(14) 0.81956(10) 0.03536(9)
H1 H 0.5588 0.8585 0.0695
C3 C 0.61702(15) 0.84598(12) -0.01664(10)
H2 H 0.6416 0.9018 -0.0166
C4 C 0.62985(14) 0.79074(13) -0.06819(9)
H3 H 0.6633 0.8083 -0.1031
C5 C 0.59280(15) 0.70968(14) -0.06746(9)
H4 H 0.5999 0.6719 -0.1028
C6 C 0.54453(14) 0.68230(11) -0.01479(9)
H5 H 0.5206 0.6262 -0.0151
C7 C 0.48266(10) 0.71250(9) 0.09939(7)
H6 H 0.4558 0.7657 0.1151
C8 C 0.56868(11) 0.67769(10) 0.16464(7)
O1 O 0.66560(8) 0.72915(8) 0.17765(5)
H7 H 0.6922 0.7262 0.1435
C9 C 0.59689(13) 0.58572(11) 0.15340(9)
H8 H 0.6505 0.5658 0.1947
H9 H 0.6284 0.5824 0.1129
C10 C 0.49800(14) 0.52811(11) 0.14083(10)
H10 H 0.5188 0.4704 0.1320
H11 H 0.4706 0.5272 0.1831
C11 C 0.40905(13) 0.55822(9) 0.07829(9)
H12 H 0.4300 0.5454 0.0348
H13 H 0.3434 0.5267 0.0776
C12 C 0.38555(11) 0.65292(8) 0.08037(7)
C13 C 0.28470(11) 0.68310(9) 0.06794(7)
N1 N 0.26603(9) 0.77352(8) 0.06941(6)
H14 H 0.2668(13) 0.8009(10) 0.0322(9)
C14 C 0.24031(11) 0.81103(9) 0.12529(7)
O2 O 0.23710(11) 0.76970(7) 0.17801(6)
C15 C 0.22077(13) 0.90738(9) 0.12113(8)
C16 C 0.3199(4) 0.9498(3) 0.1106(4)
H15 H 0.3307 0.9341 0.0652
H16 H 0.3812 0.9321 0.1471
H17 H 0.3117 1.0105 0.1126
C18 C 0.1248(5) 0.9240(3) 0.0555(3)
H21 H 0.0619 0.8938 0.0611
H22 H 0.1439 0.9043 0.0135
H23 H 0.1095 0.9840 0.0514
C20 C 0.1855(8) 0.9333(4) 0.1854(4)
H27 H 0.1253 0.8988 0.1897
H28 H 0.1642 0.9922 0.1814
H29 H 0.2443 0.9258 0.2265
C22 C 0.52760(14) 0.69020(14) 0.23087(8)
H33 H 0.5717 0.6580 0.2692
H34 H 0.4540 0.6710 0.2220
H35 H 0.5311 0.7496 0.2432
C42 C 0.18174(12) 0.63196(11) 0.05054(10)
H62 H 0.1987 0.5724 0.0566
H63 H 0.1435 0.6425 0.0023
H64 H 0.1373 0.6483 0.0816
C23 C -0.05369(10) 0.71832(8) 0.22217(7)
C24 C -0.07137(13) 0.63709(9) 0.19337(8)
H36 H -0.0562 0.5900 0.2232
C25 C -0.11091(15) 0.62461(11) 0.12157(9)
H37 H -0.1221 0.5695 0.1037
C26 C -0.13392(14) 0.69288(11) 0.07634(8)
H38 H -0.1610 0.6845 0.0279
C27 C -0.11633(14) 0.77345(11) 0.10360(8)
H39 H -0.1314 0.8202 0.0734
C28 C -0.07644(12) 0.78620(9) 0.17540(8)
H40 H -0.0646 0.8416 0.1927
C29 C -0.01410(10) 0.72812(8) 0.30209(7)
H41 H 0.0266 0.6759 0.3186
C30 C -0.10826(11) 0.73009(9) 0.34054(7)
O3 O -0.19104(8) 0.67084(7) 0.30908(5)
H42 H -0.2224 0.6876 0.2695
C31 C -0.15629(12) 0.81895(10) 0.33924(8)
H43 H -0.1875 0.8355 0.2905
H44 H -0.2141 0.8178 0.3636
C32 C -0.07306(13) 0.88482(10) 0.37389(9)
H45 H -0.0455 0.8709 0.4236
H46 H -0.1070 0.9405 0.3708
C33 C 0.02009(13) 0.88769(9) 0.33810(9)
H47 H -0.0045 0.9158 0.2926
H48 H 0.0777 0.9221 0.3668
C34 C 0.06563(11) 0.80133(8) 0.32647(7)
C35 C 0.17155(11) 0.78904(9) 0.33644(7)
N2 N 0.20839(9) 0.70843(7) 0.31636(7)
H49 H 0.2104(13) 0.7043(10) 0.2751(9)
C36 C 0.24571(11) 0.64582(9) 0.36209(7)
O4 O 0.25258(12) 0.65447(7) 0.42547(6)
C37 C 0.27633(12) 0.56170(9) 0.33273(8)
C38 C 0.25124(15) 0.55841(11) 0.25190(9)
H50 H 0.1749 0.5655 0.2326
H51 H 0.2736 0.5043 0.2373
H52 H 0.2895 0.6033 0.2350
C39 C 0.21233(17) 0.49142(11) 0.35867(11)
H53 H 0.2293 0.4918 0.4095
H54 H 0.2312 0.4371 0.3425
H55 H 0.1363 0.5013 0.3403
C40 C 0.39728(14) 0.54706(13) 0.36377(11)
H56 H 0.4375 0.5932 0.3503
H57 H 0.4185 0.4944 0.3460
H58 H 0.4118 0.5444 0.4145
C41 C -0.06483(14) 0.69720(11) 0.41586(8)
H59 H -0.1193 0.7037 0.4418
H60 H -0.0017 0.7292 0.4387
H61 H -0.0462 0.6380 0.4145
C43 C 0.26185(13) 0.85041(11) 0.36554(9)
H65 H 0.2323 0.9057 0.3704
H66 H 0.3085 0.8539 0.3338
H67 H 0.3025 0.8308 0.4110
C17? C 0.1945(12) 0.9497(4) 0.0500(4)
H18? H 0.1328 0.9224 0.0197
H19? H 0.2553 0.9450 0.0294
H20? H 0.1786 1.0088 0.0553
C19? C 0.3345(6) 0.9494(5) 0.1644(8)
H24? H 0.3569 0.9234 0.2103
H25? H 0.3249 1.0096 0.1698
H26? H 0.3888 0.9401 0.1387
C21? C 0.1469(14) 0.9396(8) 0.1656(8)
H30? H 0.0729 0.9303 0.1407
H31? H 0.1591 0.9995 0.1745
H32? H 0.1621 0.9094 0.2098
loop_
_geom_bond_atom_site_label_1
_geom_bond_atom_site_label_2
_geom_bond_site_symmetry_1
_geom_bond_site_symmetry_2
C1 C2 1_555 1_555
C2 H1 1_555 1_555
C3 C2 1_555 1_555
H2 C3 1_555 1_555
C4 C3 1_555 1_555
H3 C4 1_555 1_555
C5 C4 1_555 1_555
H4 C5 1_555 1_555
C6 C1 1_555 1_555
H5 C6 1_555 1_555
C7 C1 1_555 1_555
H6 C7 1_555 1_555
C8 C7 1_555 1_555
O1 C8 1_555 1_555
H7 O1 1_555 1_555
C9 C8 1_555 1_555
H8 C9 1_555 1_555
H9 C9 1_555 1_555
C10 C9 1_555 1_555
H10 C10 1_555 1_555
H11 C10 1_555 1_555
C11 C10 1_555 1_555
H12 C11 1_555 1_555
H13 C11 1_555 1_555
C12 C7 1_555 1_555
C13 C12 1_555 1_555
N1 C13 1_555 1_555
H14 N1 1_555 1_555
C14 N1 1_555 1_555
O2 C14 1_555 1_555
C15 C14 1_555 1_555
C16 C15 1_555 1_555
H15 C16 1_555 1_555
H16 C16 1_555 1_555
H17 C16 1_555 1_555
C18 C15 1_555 1_555
H21 C18 1_555 1_555
H22 C18 1_555 1_555
H23 C18 1_555 1_555
C20 C15 1_555 1_555
H27 C20 1_555 1_555
H28 C20 1_555 1_555
H29 C20 1_555 1_555
C22 C8 1_555 1_555
H33 C22 1_555 1_555
H34 C22 1_555 1_555
H35 C22 1_555 1_555
C23 C24 1_555 1_555
C24 H36 1_555 1_555
C25 C24 1_555 1_555
H37 C25 1_555 1_555
C26 C25 1_555 1_555
H38 C26 1_555 1_555
C27 C26 1_555 1_555
H39 C27 1_555 1_555
C28 C23 1_555 1_555
H40 C28 1_555 1_555
C29 C23 1_555 1_555
H41 C29 1_555 1_555
C30 C29 1_555 1_555
O3 C30 1_555 1_555
H42 O3 1_555 1_555
C31 C30 1_555 1_555
H43 C31 1_555 1_555
H44 C31 1_555 1_555
C32 C31 1_555 1_555
H45 C32 1_555 1_555
H46 C32 1_555 1_555
C33 C32 1_555 1_555
H47 C33 1_555 1_555
H48 C33 1_555 1_555
C34 C29 1_555 1_555
C35 C34 1_555 1_555
N2 C35 1_555 1_555
H49 N2 1_555 1_555
C36 N2 1_555 1_555
O4 C36 1_555 1_555
C37 C36 1_555 1_555
C38 C37 1_555 1_555
H50 C38 1_555 1_555
H51 C38 1_555 1_555
H52 C38 1_555 1_555
C39 C37 1_555 1_555
H53 C39 1_555 1_555
H54 C39 1_555 1_555
H55 C39 1_555 1_555
C40 C37 1_555 1_555
H56 C40 1_555 1_555
H57 C40 1_555 1_555
H58 C40 1_555 1_555
C41 C30 1_555 1_555
H59 C41 1_555 1_555
H60 C41 1_555 1_555
H61 C41 1_555 1_555
C42 C13 1_555 1_555
H62 C42 1_555 1_555
H63 C42 1_555 1_555
H64 C42 1_555 1_555
C43 C35 1_555 1_555
H65 C43 1_555 1_555
H66 C43 1_555 1_555
H67 C43 1_555 1_555
C5 C6 1_555 1_555
C11 C12 1_555 1_555
C27 C28 1_555 1_555
C33 C34 1_555 1_555

#END
