
#######################################################################
#
#                 Cambridge Crystallographic Data Centre
#                                CCDC 
#
#######################################################################
#
# If this CIF has been generated from an entry in the Cambridge 
# Structural Database, then it will include bibliographic, chemical, 
# crystal, experimental, refinement or atomic coordinate data resulting 
# from the CCDC's data processing and validation procedures.
#
#######################################################################

data_LEQQUW
_chemical_formula_moiety         'C12 H18 N10 O6'
_chemical_name_systematic        
3,3'-(diazene-1,2-diyl)bis[4-(t-butyl-NNO-azoxy)-2-oxo-1,2,5\l^5^-oxadiazole]
_symmetry_cell_setting           monoclinic
_symmetry_space_group_name_H-M   'P 21/c'
_symmetry_Int_Tables_number      14
_space_group_name_Hall           '-P 2ybc'
loop_
_symmetry_equiv_pos_site_id
_symmetry_equiv_pos_as_xyz
1 x,y,z
2 -x,1/2+y,1/2-z
3 -x,-y,-z
4 x,1/2-y,1/2+z
_cell_length_a                   11.6097(10)
_cell_length_b                   6.2504(5)
_cell_length_c                   12.8909(11)
_cell_angle_alpha                90
_cell_angle_beta                 93.065(2)
_cell_angle_gamma                90
_cell_volume                     934.094
_exptl_crystal_colour            yellow
_exptl_crystal_description       plate
_cell_formula_units_Z            2
loop_
_atom_site_label
_atom_site_type_symbol
_atom_site_fract_x
_atom_site_fract_y
_atom_site_fract_z
O1 O 1.14187(8) 0.89371(16) 0.20943(7)
O2 O 1.25814(8) 0.66188(17) 0.12873(8)
O3 O 0.84416(8) 0.92123(16) 0.00639(7)
N1 N 1.16040(9) 0.72661(18) 0.13519(8)
N2 N 1.02622(10) 0.94879(19) 0.20144(9)
N3 N 1.05217(9) 0.52234(17) 0.01436(8)
N4 N 0.85966(9) 0.85276(17) 0.09815(8)
N5 N 0.78929(9) 0.80343(17) 0.16533(8)
C1 C 1.05795(10) 0.6818(2) 0.08782(9)
C2 C 0.97927(10) 0.8245(2) 0.13124(9)
C3 C 0.66444(11) 0.8236(2) 0.13402(10)
C4 C 0.63357(12) 0.6732(2) 0.04342(11)
H1 H 0.6619 0.5290 0.0604
H2 H 0.6694 0.7247 -0.0190
H3 H 0.5496 0.6693 0.0308
C5 C 0.63326(12) 1.0562(2) 0.10827(11)
H4 H 0.6636 1.1494 0.1644
H5 H 0.5492 1.0709 0.1008
H6 H 0.6670 1.0971 0.0431
C6 C 0.60376(12) 0.7519(3) 0.23016(11)
H7 H 0.6273 0.6055 0.2483
H8 H 0.5201 0.7564 0.2157
H9 H 0.6249 0.8478 0.2882
O1B O 0.85813(8) 0.10629(16) -0.20943(7)
O2B O 0.74186(8) 0.33812(17) -0.12873(8)
O3B O 1.15584(8) 0.07877(16) -0.00639(7)
N1B N 0.83960(9) 0.27339(18) -0.13519(8)
N2B N 0.97378(10) 0.05121(19) -0.20144(9)
N3B N 0.94783(9) 0.47766(17) -0.01436(8)
N4B N 1.14034(9) 0.14724(17) -0.09815(8)
N5B N 1.21071(9) 0.19657(17) -0.16533(8)
C1B C 0.94205(10) 0.3182(2) -0.08782(9)
C2B C 1.02073(10) 0.1755(2) -0.13124(9)
C3B C 1.33556(11) 0.1764(2) -0.13402(10)
C4B C 1.36643(12) 0.3268(2) -0.04342(11)
H1B H 1.3381 0.4710 -0.0604
H2B H 1.3306 0.2753 0.0190
H3B H 1.4504 0.3307 -0.0308
C5B C 1.36674(12) -0.0562(2) -0.10827(11)
H4B H 1.3364 -0.1494 -0.1644
H5B H 1.4508 -0.0709 -0.1008
H6B H 1.3330 -0.0971 -0.0431
C6B C 1.39624(12) 0.2481(3) -0.23016(11)
H7B H 1.3727 0.3945 -0.2483
H8B H 1.4799 0.2436 -0.2157
H9B H 1.3751 0.1522 -0.2882
loop_
_geom_bond_atom_site_label_1
_geom_bond_atom_site_label_2
_geom_bond_site_symmetry_1
_geom_bond_site_symmetry_2
O1 N1 1_555 1_555
O2 N1 1_555 1_555
O3 N4 1_555 1_555
N1 C1 1_555 1_555
N2 O1 1_555 1_555
N3 C1 1_555 1_555
N4 N5 1_555 1_555
N5 C3 1_555 1_555
C1 C2 1_555 1_555
C2 N2 1_555 1_555
C3 C4 1_555 1_555
C4 H1 1_555 1_555
H2 C4 1_555 1_555
H3 C4 1_555 1_555
C5 C3 1_555 1_555
H4 C5 1_555 1_555
H5 C5 1_555 1_555
H6 C5 1_555 1_555
C6 C3 1_555 1_555
H7 C6 1_555 1_555
H8 C6 1_555 1_555
H9 C6 1_555 1_555
O1B N1B 1_555 1_555
O2B N1B 1_555 1_555
O3B N4B 1_555 1_555
N1B C1B 1_555 1_555
N2B O1B 1_555 1_555
N3B N3 1_555 1_555
N4B N5B 1_555 1_555
N5B C3B 1_555 1_555
C1B N3B 1_555 1_555
C2B N2B 1_555 1_555
C3B C4B 1_555 1_555
C4B H1B 1_555 1_555
H2B C4B 1_555 1_555
H3B C4B 1_555 1_555
C5B C3B 1_555 1_555
H4B C5B 1_555 1_555
H5B C5B 1_555 1_555
H6B C5B 1_555 1_555
C6B C3B 1_555 1_555
H7B C6B 1_555 1_555
H8B C6B 1_555 1_555
H9B C6B 1_555 1_555
N4 C2 1_555 1_555
N4B C2B 1_555 1_555
C1B C2B 1_555 1_555

#END
