
#######################################################################
#
#                 Cambridge Crystallographic Data Centre
#                                CCDC 
#
#######################################################################
#
# If this CIF has been generated from an entry in the Cambridge 
# Structural Database, then it will include bibliographic, chemical, 
# crystal, experimental, refinement or atomic coordinate data resulting 
# from the CCDC's data processing and validation procedures.
#
#######################################################################

data_LEQWUC
_chemical_formula_moiety         'C24 H30 Cl2 O6'
_chemical_name_systematic        
'(2-((chloroacetyl)oxy)-1,4a-dimethyl-6-methylidene-5-(2-(2-oxo-2,5-dihydrofuran-3-yl)ethenyl)decahydronaphthalen-1-yl)methyl chloroacetate'
_chemical_properties_biological  'insecticidal and acaricidal activity'
_symmetry_cell_setting           monoclinic
_symmetry_space_group_name_H-M   'P 21'
_symmetry_Int_Tables_number      4
_space_group_name_Hall           'P 2yb'
loop_
_symmetry_equiv_pos_site_id
_symmetry_equiv_pos_as_xyz
1 x,y,z
2 -x,1/2+y,-z
_cell_length_a                   10.7663(6)
_cell_length_b                   7.9192(3)
_cell_length_c                   28.5739(13)
_cell_angle_alpha                90
_cell_angle_beta                 93.227(5)
_cell_angle_gamma                90
_cell_volume                     2432.36
_exptl_crystal_colour            colorless
_exptl_crystal_description       block
_chemical_melting_point          '140-142 deg.C'
_cell_formula_units_Z            4
loop_
_atom_site_label
_atom_site_type_symbol
_atom_site_fract_x
_atom_site_fract_y
_atom_site_fract_z
Cl1 Cl 0.0388(3) -0.5230(3) 0.17779(8)
O1 O 0.1568(5) -0.7437(6) 0.06977(16)
O2 O -0.0040(5) -0.5627(7) 0.07295(19)
O3 O 0.2555(5) -0.4090(6) 0.05681(16)
O4 O 0.3589(5) -0.1628(6) 0.05155(19)
O5 O 0.0151(5) -0.3934(8) -0.23103(19)
O6 O 0.0756(5) -0.2243(7) -0.28848(18)
C1 C 0.2836(6) -0.6474(8) 0.0058(2)
C2 C 0.2864(6) -0.4548(8) 0.0092(2)
H1 H 0.371542 -0.416916 0.004641
C3 C 0.2001(7) -0.3643(9) -0.0257(2)
H2 H 0.205386 -0.243439 -0.020434
H3 H 0.115011 -0.399489 -0.021756
C4 C 0.2365(7) -0.4057(8) -0.0752(2)
H4 H 0.180593 -0.347430 -0.097583
H5 H 0.320062 -0.364408 -0.079265
C5 C 0.2320(6) -0.5942(8) -0.0855(2)
C6 C 0.2976(7) -0.6260(8) -0.1328(2)
H6 H 0.382793 -0.582960 -0.128305
C7 C 0.3071(7) -0.8169(9) -0.1426(3)
C8 C 0.3710(7) -0.9137(9) -0.1035(2)
H7 H 0.458186 -0.882136 -0.100924
H8 H 0.366250 -1.033345 -0.110627
C9 C 0.3137(7) -0.8815(8) -0.0568(2)
H9 H 0.362504 -0.938260 -0.031947
H10 H 0.230031 -0.927128 -0.057751
C10 C 0.3098(6) -0.6913(8) -0.0466(2)
H11 H 0.395419 -0.653107 -0.050097
C11 C 0.1595(6) -0.7247(9) 0.0191(2)
H12 H 0.091469 -0.652442 0.007775
H13 H 0.148551 -0.834149 0.004183
C12 C 0.0744(7) -0.6528(10) 0.0918(3)
C13 C 0.0955(8) -0.6844(11) 0.1435(3)
H14 H 0.184021 -0.697201 0.150950
H15 H 0.055326 -0.789495 0.151354
C14 C 0.2971(7) -0.2596(10) 0.0727(3)
C15 C 0.2571(9) -0.2341(12) 0.1220(3)
H16 H 0.275336 -0.335683 0.140061
H17 H 0.167861 -0.216396 0.120978
C16 C 0.2360(7) -0.5304(9) -0.1734(2)
H18 H 0.152410 -0.552162 -0.180930
C17 C 0.2918(6) -0.4188(9) -0.1987(2)
H19 H 0.374750 -0.395166 -0.190465
C18 C 0.2343(7) -0.3287(9) -0.2388(2)
C19 C 0.0979(8) -0.3244(11) -0.2498(3)
C20 C 0.1892(8) -0.1614(12) -0.3040(3)
H20 H 0.190813 -0.038977 -0.302951
H21 H 0.201826 -0.198053 -0.335756
C21 C 0.2852(7) -0.2337(10) -0.2707(3)
H22 H 0.370187 -0.214844 -0.271964
C22 C 0.2645(8) -0.8881(11) -0.1818(3)
H23 H 0.273720 -1.003720 -0.186023
H24 H 0.225202 -0.822828 -0.205258
C23 C 0.0946(6) -0.6541(9) -0.0918(2)
H25 H 0.055119 -0.641960 -0.062708
H26 H 0.092412 -0.770560 -0.101197
H27 H 0.051288 -0.586889 -0.115468
C24 C 0.3913(6) -0.7191(9) 0.0380(2)
H28 H 0.384593 -0.839914 0.039261
H29 H 0.386680 -0.673397 0.068964
H30 H 0.469367 -0.688639 0.025722
Cl2 Cl 0.3302(4) -0.0648(5) 0.14971(12)
Cl4 Cl -0.3778(2) -1.2067(5) -0.22407(9)
Cl5 Cl -0.0270(3) -0.7777(3) -0.28907(9)
O7 O -0.2480(5) -1.4290(8) -0.33124(17)
O8 O -0.4334(5) -1.3088(9) -0.3220(2)
O9 O -0.1815(5) -1.1212(7) -0.37024(17)
O10 O -0.0187(6) -0.9523(7) -0.38176(19)
O11 O -0.5877(5) -1.3339(8) -0.6334(2)
O12 O -0.5634(5) -1.2331(8) -0.7056(2)
C25 C -0.1713(6) -1.3934(9) -0.4097(2)
C26 C -0.1760(7) -1.1993(9) -0.4164(2)
H33 H -0.099087 -1.163032 -0.430236
C27 C -0.2846(7) -1.1398(9) -0.4474(3)
H34 H -0.283055 -1.017635 -0.449764
H35 H -0.361731 -1.172454 -0.433928
C28 C -0.2789(7) -1.2166(8) -0.4958(2)
H36 H -0.202456 -1.180965 -0.509333
H37 H -0.347916 -1.174186 -0.515705
C29 C -0.2838(6) -1.4097(8) -0.4954(2)
C30 C -0.2505(7) -1.4773(8) -0.5446(2)
H38 H -0.167452 -1.434046 -0.550275
C31 C -0.2415(7) -1.6678(9) -0.5450(3)
C32 C -0.1488(7) -1.7324(9) -0.5085(3)
H39 H -0.066072 -1.699756 -0.516820
H40 H -0.152305 -1.854762 -0.508159
C33 C -0.1707(7) -1.6663(8) -0.4595(3)
H41 H -0.103075 -1.702093 -0.437853
H42 H -0.247453 -1.713123 -0.448812
C34 C -0.1787(6) -1.4722(8) -0.4598(2)
H43 H -0.101603 -1.435818 -0.473458
C35 C -0.2776(7) -1.4570(10) -0.3808(2)
H44 H -0.353840 -1.398028 -0.390259
H45 H -0.290639 -1.576647 -0.386456
C36 C -0.3341(8) -1.3546(12) -0.3071(3)
C37 C -0.2843(7) -1.3397(15) -0.2569(3)
H46 H -0.200301 -1.294962 -0.256149
H47 H -0.280725 -1.450949 -0.242663
C38 C -0.0992(8) -0.9964(10) -0.3585(3)
C39 C -0.1323(8) -0.9317(11) -0.3109(3)
H48 H -0.132704 -1.025388 -0.289064
H49 H -0.215329 -0.883885 -0.313385
C40 C -0.3367(7) -1.4113(9) -0.5834(2)
H50 H -0.421517 -1.428939 -0.581042
C41 C -0.3010(7) -1.3293(9) -0.6210(2)
H51 H -0.216724 -1.305393 -0.622297
C42 C -0.3823(7) -1.2743(10) -0.6602(3)
C43 C -0.5195(8) -1.2876(10) -0.6626(3)
C44 C -0.4624(8) -1.1807(14) -0.7321(3)
H52 H -0.470126 -1.062401 -0.740531
H53 H -0.458602 -1.247294 -0.760479
C45 C -0.3522(8) -1.2093(11) -0.7008(3)
H54 H -0.271291 -1.184875 -0.708399
C46 C -0.3075(8) -1.7679(10) -0.5737(3)
H55 H -0.297354 -1.884350 -0.571668
H56 H -0.364284 -1.722051 -0.595907
C47 C -0.4145(6) -1.4724(10) -0.4846(2)
H57 H -0.473355 -1.436727 -0.509106
H58 H -0.437333 -1.426044 -0.455261
H59 H -0.414226 -1.593399 -0.482756
C48 C -0.0446(7) -1.4397(11) -0.3848(3)
H60 H -0.041875 -1.558887 -0.378745
H61 H -0.034521 -1.379158 -0.355759
H62 H 0.021313 -1.409750 -0.404545
H31? H 0.179034 -0.293967 0.124134
H32? H 0.238611 -0.114940 0.125146
Cl3? Cl 0.3386(11) -0.283(2) 0.1646(4)
loop_
_geom_bond_atom_site_label_1
_geom_bond_atom_site_label_2
_geom_bond_site_symmetry_1
_geom_bond_site_symmetry_2
Cl1 C13 1_555 1_555
O1 C11 1_555 1_555
O2 C12 1_555 1_555
O3 C2 1_555 1_555
O4 C14 1_555 1_555
O5 C19 1_555 1_555
O6 C19 1_555 1_555
C1 C2 1_555 1_555
C2 H1 1_555 1_555
C3 C2 1_555 1_555
H2 C3 1_555 1_555
H3 C3 1_555 1_555
C4 C3 1_555 1_555
H4 C4 1_555 1_555
H5 C4 1_555 1_555
C5 C4 1_555 1_555
C6 C5 1_555 1_555
H6 C6 1_555 1_555
C7 C6 1_555 1_555
C8 C7 1_555 1_555
H7 C8 1_555 1_555
H8 C8 1_555 1_555
C9 C8 1_555 1_555
H9 C9 1_555 1_555
H10 C9 1_555 1_555
C10 C1 1_555 1_555
H11 C10 1_555 1_555
C11 C1 1_555 1_555
H12 C11 1_555 1_555
H13 C11 1_555 1_555
C12 O1 1_555 1_555
C13 C12 1_555 1_555
H14 C13 1_555 1_555
H15 C13 1_555 1_555
C14 O3 1_555 1_555
C15 C14 1_555 1_555
H16 C15 1_555 1_555
H17 C15 1_555 1_555
C16 C6 1_555 1_555
H18 C16 1_555 1_555
C17 C16 1_555 1_555
H19 C17 1_555 1_555
C18 C17 1_555 1_555
C19 C18 1_555 1_555
C20 O6 1_555 1_555
H20 C20 1_555 1_555
H21 C20 1_555 1_555
C21 C18 1_555 1_555
H22 C21 1_555 1_555
C22 C7 1_555 1_555
H23 C22 1_555 1_555
H24 C22 1_555 1_555
C23 C5 1_555 1_555
H25 C23 1_555 1_555
H26 C23 1_555 1_555
H27 C23 1_555 1_555
C24 C1 1_555 1_555
H28 C24 1_555 1_555
H29 C24 1_555 1_555
H30 C24 1_555 1_555
Cl2 C15 1_555 1_555
Cl4 C37 1_555 1_555
Cl5 C39 1_555 1_555
O7 C35 1_555 1_555
O8 C36 1_555 1_555
O9 C26 1_555 1_555
O10 C38 1_555 1_555
O11 C43 1_555 1_555
O12 C43 1_555 1_555
C25 C26 1_555 1_555
C26 H33 1_555 1_555
C27 C26 1_555 1_555
H34 C27 1_555 1_555
H35 C27 1_555 1_555
C28 C27 1_555 1_555
H36 C28 1_555 1_555
H37 C28 1_555 1_555
C29 C28 1_555 1_555
C30 C29 1_555 1_555
H38 C30 1_555 1_555
C31 C30 1_555 1_555
C32 C31 1_555 1_555
H39 C32 1_555 1_555
H40 C32 1_555 1_555
C33 C32 1_555 1_555
H41 C33 1_555 1_555
H42 C33 1_555 1_555
C34 C25 1_555 1_555
H43 C34 1_555 1_555
C35 C25 1_555 1_555
H44 C35 1_555 1_555
H45 C35 1_555 1_555
C36 O7 1_555 1_555
C37 C36 1_555 1_555
H46 C37 1_555 1_555
H47 C37 1_555 1_555
C38 O9 1_555 1_555
C39 C38 1_555 1_555
H48 C39 1_555 1_555
H49 C39 1_555 1_555
C40 C30 1_555 1_555
H50 C40 1_555 1_555
C41 C40 1_555 1_555
H51 C41 1_555 1_555
C42 C41 1_555 1_555
C43 C42 1_555 1_555
C44 O12 1_555 1_555
H52 C44 1_555 1_555
H53 C44 1_555 1_555
C45 C42 1_555 1_555
H54 C45 1_555 1_555
C46 C31 1_555 1_555
H55 C46 1_555 1_555
H56 C46 1_555 1_555
C47 C29 1_555 1_555
H57 C47 1_555 1_555
H58 C47 1_555 1_555
H59 C47 1_555 1_555
C48 C25 1_555 1_555
H60 C48 1_555 1_555
H61 C48 1_555 1_555
H62 C48 1_555 1_555
C5 C10 1_555 1_555
C9 C10 1_555 1_555
C20 C21 1_555 1_555
C29 C34 1_555 1_555
C33 C34 1_555 1_555
C44 C45 1_555 1_555

#END
