
#######################################################################
#
#                 Cambridge Crystallographic Data Centre
#                                CCDC 
#
#######################################################################
#
# If this CIF has been generated from an entry in the Cambridge 
# Structural Database, then it will include bibliographic, chemical, 
# crystal, experimental, refinement or atomic coordinate data resulting 
# from the CCDC's data processing and validation procedures.
#
#######################################################################

data_LEQXAJ
_chemical_formula_moiety         'C28 H34 O5'
_chemical_name_systematic        
'1-(hydroxymethyl)-1,4a-dimethyl-6-methylidene-5-(2-(2-oxo-2,5-dihydrofuran-3-yl)ethenyl)decahydronaphthalen-2-yl 3-methylbenzoate'
_chemical_properties_biological  'insecticidal and acaricidal activity'
_symmetry_cell_setting           orthorhombic
_symmetry_space_group_name_H-M   'P 21 21 21'
_symmetry_Int_Tables_number      19
_space_group_name_Hall           'P 2ac 2ab'
loop_
_symmetry_equiv_pos_site_id
_symmetry_equiv_pos_as_xyz
1 x,y,z
2 1/2-x,-y,1/2+z
3 1/2+x,1/2-y,-z
4 -x,1/2+y,1/2-z
_cell_length_a                   28.606(3)
_cell_length_b                   28.001(3)
_cell_length_c                   6.0950(5)
_cell_angle_alpha                90
_cell_angle_beta                 90
_cell_angle_gamma                90
_cell_volume                     4882.07
_cell_formula_units_Z            8
loop_
_atom_site_label
_atom_site_type_symbol
_atom_site_fract_x
_atom_site_fract_y
_atom_site_fract_z
O1 O 0.2353(2) 0.85057(17) 0.0999(8)
O2 O 0.2217(2) 0.86472(19) -0.2562(10)
O3 O 0.3066(3) 0.86003(18) 0.4372(11)
H1 H 0.2822 0.8665 0.5017
O4 O 0.2204(3) 0.5591(2) 0.4277(10)
O5 O 0.1764(3) 0.5037(2) 0.2662(10)
C1 C 0.2537(3) 0.8029(2) 0.0498(13)
H2 H 0.2544 0.7987 -0.1099
C2 C 0.3035(3) 0.7990(2) 0.1387(11)
C3 C 0.3201(3) 0.7470(2) 0.0868(12)
H3 H 0.3194 0.7453 -0.0738
C4 C 0.3713(3) 0.7367(3) 0.1443(15)
H4 H 0.3909 0.7629 0.0953
H5 H 0.3747 0.7336 0.3020
C5 C 0.3861(3) 0.6907(3) 0.0325(15)
H6 H 0.3872 0.6962 -0.1245
H7 H 0.4175 0.6828 0.0804
C6 C 0.3549(3) 0.6490(3) 0.0763(13)
C7 C 0.3034(3) 0.6588(2) 0.0400(11)
H8 H 0.2992 0.6643 -0.1176
C8 C 0.2874(3) 0.7058(2) 0.1602(11)
C9 C 0.2373(3) 0.7165(2) 0.0870(14)
H9 H 0.2354 0.7128 -0.0710
H10 H 0.2165 0.6932 0.1527
C10 C 0.2205(3) 0.7661(2) 0.1475(14)
H11 H 0.2196 0.7695 0.3058
H12 H 0.1892 0.7711 0.0912
C11 C 0.2217(3) 0.8782(3) -0.0668(14)
C12 C 0.2082(3) 0.9265(2) 0.0058(12)
C13 C 0.2200(3) 0.9437(2) 0.2109(12)
H13 H 0.2354 0.9243 0.3116
C14 C 0.2084(3) 0.9903(2) 0.2640(12)
H14 H 0.2169 1.0027 0.4000
C15 C 0.1845(3) 1.0187(2) 0.1170(12)
H15 H 0.1772 1.0500 0.1554
C16 C 0.1709(3) 1.0015(2) -0.0870(12)
C17 C 0.1830(2) 0.9557(2) -0.1361(12)
H16 H 0.1740 0.9433 -0.2712
C18 C 0.1453(3) 1.0332(3) -0.2430(13)
H17 H 0.1132 1.0359 -0.1980
H18 H 0.1466 1.0198 -0.3879
H19 H 0.1594 1.0643 -0.2436
C19 C 0.3345(3) 0.8345(3) 0.0146(13)
H20 H 0.3640 0.8375 0.0885
H21 H 0.3194 0.8651 0.0097
H22 H 0.3396 0.8232 -0.1322
C20 C 0.3078(3) 0.8105(3) 0.3900(13)
H23 H 0.2823 0.7949 0.4673
H24 H 0.3368 0.7973 0.4448
C21 C 0.3719(4) 0.6067(3) 0.1271(14)
H25 H 0.4040 0.6022 0.1364
H26 H 0.3517 0.5813 0.1537
C22 C 0.2730(3) 0.6178(3) 0.1005(13)
H27 H 0.2717 0.6099 0.2486
C23 C 0.2478(3) 0.5913(3) -0.0343(13)
H28 H 0.2500 0.5978 -0.1835
C24 C 0.2167(3) 0.5527(3) 0.0318(13)
C25 C 0.1934(3) 0.5225(3) -0.0936(14)
H29 H 0.1942 0.5220 -0.2461
C26 C 0.1660(4) 0.4897(3) 0.0448(15)
H30 H 0.1329 0.4929 0.0146
H31 H 0.1752 0.4568 0.0191
C27 C 0.2063(4) 0.5413(3) 0.2627(16)
C28 C 0.2889(3) 0.6966(3) 0.4112(12)
H32 H 0.3204 0.6891 0.4544
H33 H 0.2688 0.6704 0.4471
H34 H 0.2787 0.7247 0.4876
O6 O -0.0458(2) 1.00160(19) 0.2558(9)
O7 O -0.0644(3) 1.0017(2) -0.1013(11)
O8 O 0.0288(3) 1.0342(3) 0.5400(13)
H35 H 0.0115 1.0452 0.6349
O9 O -0.0151(4) 0.7057(3) 0.8089(14)
O10 O -0.0522(3) 0.6441(3) 0.6539(14)
C29 C -0.0234(3) 0.9552(3) 0.2429(13)
H36 H -0.0222 0.9455 0.0885
C30 C 0.0269(3) 0.9597(3) 0.3269(13)
C31 C 0.0481(3) 0.9083(2) 0.3327(11)
H37 H 0.0484 0.8985 0.1784
C32 C 0.0997(3) 0.9076(3) 0.3988(15)
H38 H 0.1166 0.9317 0.3161
H39 H 0.1026 0.9153 0.5535
C33 C 0.1210(3) 0.8592(3) 0.3559(16)
H40 H 0.1232 0.8542 0.1987
H41 H 0.1525 0.8585 0.4152
C34 C 0.0935(3) 0.8198(3) 0.4544(15)
C35 C 0.0429(3) 0.8201(3) 0.3895(13)
H42 H 0.0426 0.8181 0.2290
C36 C 0.0199(3) 0.8690(3) 0.4478(11)
C37 C -0.0299(3) 0.8705(3) 0.3616(12)
H43 H -0.0299 0.8590 0.2114
H44 H -0.0488 0.8487 0.4478
C38 C -0.0525(3) 0.9192(3) 0.3669(14)
H45 H -0.0560 0.9295 0.5179
H46 H -0.0834 0.9173 0.3016
C39 C -0.0632(3) 1.0217(3) 0.0747(17)
C40 C -0.0784(3) 1.0720(3) 0.1170(16)
C41 C -0.1070(3) 1.0939(4) -0.0308(18)
H47 H -0.1162 1.0774 -0.1560
C42 C -0.1224(4) 1.1400(4) 0.001(2)
C43 C -0.1077(4) 1.1640(4) 0.189(2)
H48 H -0.1177 1.1951 0.2139
C44 C -0.0794(5) 1.1430(4) 0.336(2)
H49 H -0.0693 1.1598 0.4583
C45 C -0.0654(4) 1.0960(4) 0.3040(18)
H50 H -0.0471 1.0808 0.4092
C46 C -0.1560(5) 1.1620(4) -0.156(2)
H51 H -0.1395 1.1833 -0.2526
H52 H -0.1793 1.1796 -0.0766
H53 H -0.1708 1.1374 -0.2409
C47 C 0.0542(3) 0.9900(3) 0.1622(14)
H54 H 0.0606 0.9714 0.0334
H55 H 0.0831 1.0001 0.2273
H56 H 0.0360 1.0175 0.1227
C48 C 0.0288(4) 0.9840(3) 0.5534(14)
H57 H 0.0021 0.9738 0.6396
H58 H 0.0569 0.9737 0.6292
C49 C 0.1118(4) 0.7896(4) 0.5978(19)
H59 H 0.1429 0.7927 0.6399
H60 H 0.0935 0.7653 0.6565
C50 C 0.0158(3) 0.7782(3) 0.4685(14)
H61 H 0.0112 0.7754 0.6189
C51 C -0.0024(3) 0.7446(3) 0.3410(14)
H62 H 0.0005 0.7487 0.1902
C52 C -0.0264(4) 0.7018(3) 0.4164(16)
C53 C -0.0472(4) 0.6682(3) 0.2959(18)
H63 H -0.0500 0.6692 0.1440
C54 C -0.0650(5) 0.6295(4) 0.434(2)
H64 H -0.0987 0.6265 0.4201
H65 H -0.0505 0.5993 0.3963
C55 C -0.0294(5) 0.6866(4) 0.649(2)
C56 C 0.0189(3) 0.8741(3) 0.7011(12)
H66 H -0.0005 0.8496 0.7627
H67 H 0.0065 0.9049 0.7397
H68 H 0.0501 0.8711 0.7578
loop_
_geom_bond_atom_site_label_1
_geom_bond_atom_site_label_2
_geom_bond_site_symmetry_1
_geom_bond_site_symmetry_2
O1 C1 1_555 1_555
O2 C11 1_555 1_555
O3 H1 1_555 1_555
O4 C27 1_555 1_555
O5 C26 1_555 1_555
C1 H2 1_555 1_555
C2 C1 1_555 1_555
C3 C2 1_555 1_555
H3 C3 1_555 1_555
C4 C3 1_555 1_555
H4 C4 1_555 1_555
H5 C4 1_555 1_555
C5 C4 1_555 1_555
H6 C5 1_555 1_555
H7 C5 1_555 1_555
C6 C5 1_555 1_555
C7 C6 1_555 1_555
H8 C7 1_555 1_555
C8 C3 1_555 1_555
C9 C8 1_555 1_555
H9 C9 1_555 1_555
H10 C9 1_555 1_555
C10 C1 1_555 1_555
H11 C10 1_555 1_555
H12 C10 1_555 1_555
C11 O1 1_555 1_555
C12 C11 1_555 1_555
C13 C12 1_555 1_555
H13 C13 1_555 1_555
C14 C13 1_555 1_555
H14 C14 1_555 1_555
C15 C14 1_555 1_555
H15 C15 1_555 1_555
C16 C15 1_555 1_555
C17 C12 1_555 1_555
H16 C17 1_555 1_555
C18 C16 1_555 1_555
H17 C18 1_555 1_555
H18 C18 1_555 1_555
H19 C18 1_555 1_555
C19 C2 1_555 1_555
H20 C19 1_555 1_555
H21 C19 1_555 1_555
H22 C19 1_555 1_555
C20 O3 1_555 1_555
H23 C20 1_555 1_555
H24 C20 1_555 1_555
C21 C6 1_555 1_555
H25 C21 1_555 1_555
H26 C21 1_555 1_555
C22 C7 1_555 1_555
H27 C22 1_555 1_555
C23 C22 1_555 1_555
H28 C23 1_555 1_555
C24 C23 1_555 1_555
C25 C24 1_555 1_555
H29 C25 1_555 1_555
C26 C25 1_555 1_555
H30 C26 1_555 1_555
H31 C26 1_555 1_555
C27 O5 1_555 1_555
C28 C8 1_555 1_555
H32 C28 1_555 1_555
H33 C28 1_555 1_555
H34 C28 1_555 1_555
O6 C29 1_555 1_555
O7 C39 1_555 1_555
O8 H35 1_555 1_555
O9 C55 1_555 1_555
O10 C54 1_555 1_555
C29 H36 1_555 1_555
C30 C29 1_555 1_555
C31 C30 1_555 1_555
H37 C31 1_555 1_555
C32 C31 1_555 1_555
H38 C32 1_555 1_555
H39 C32 1_555 1_555
C33 C32 1_555 1_555
H40 C33 1_555 1_555
H41 C33 1_555 1_555
C34 C33 1_555 1_555
C35 C34 1_555 1_555
H42 C35 1_555 1_555
C36 C31 1_555 1_555
C37 C36 1_555 1_555
H43 C37 1_555 1_555
H44 C37 1_555 1_555
C38 C29 1_555 1_555
H45 C38 1_555 1_555
H46 C38 1_555 1_555
C39 O6 1_555 1_555
C40 C39 1_555 1_555
C41 C40 1_555 1_555
H47 C41 1_555 1_555
C42 C41 1_555 1_555
C43 C42 1_555 1_555
H48 C43 1_555 1_555
C44 C43 1_555 1_555
H49 C44 1_555 1_555
C45 C40 1_555 1_555
H50 C45 1_555 1_555
C46 C42 1_555 1_555
H51 C46 1_555 1_555
H52 C46 1_555 1_555
H53 C46 1_555 1_555
C47 C30 1_555 1_555
H54 C47 1_555 1_555
H55 C47 1_555 1_555
H56 C47 1_555 1_555
C48 O8 1_555 1_555
H57 C48 1_555 1_555
H58 C48 1_555 1_555
C49 C34 1_555 1_555
H59 C49 1_555 1_555
H60 C49 1_555 1_555
C50 C35 1_555 1_555
H61 C50 1_555 1_555
C51 C50 1_555 1_555
H62 C51 1_555 1_555
C52 C51 1_555 1_555
C53 C52 1_555 1_555
H63 C53 1_555 1_555
C54 C53 1_555 1_555
H64 C54 1_555 1_555
H65 C54 1_555 1_555
C55 O10 1_555 1_555
C56 C36 1_555 1_555
H66 C56 1_555 1_555
H67 C56 1_555 1_555
H68 C56 1_555 1_555
C2 C20 1_555 1_555
C7 C8 1_555 1_555
C9 C10 1_555 1_555
C16 C17 1_555 1_555
C24 C27 1_555 1_555
C30 C48 1_555 1_555
C35 C36 1_555 1_555
C37 C38 1_555 1_555
C44 C45 1_555 1_555
C52 C55 1_555 1_555

#END
