
#######################################################################
#
#                 Cambridge Crystallographic Data Centre
#                                CCDC 
#
#######################################################################
#
# If this CIF has been generated from an entry in the Cambridge 
# Structural Database, then it will include bibliographic, chemical, 
# crystal, experimental, refinement or atomic coordinate data resulting 
# from the CCDC's data processing and validation procedures.
#
#######################################################################

data_LEQYOX
_chemical_formula_moiety         'C6 H9 N2 1+,N1 O3 1-'
_chemical_name_systematic        '2-Amino-4-methylpyridinium nitrate'
_symmetry_cell_setting           orthorhombic
_symmetry_space_group_name_H-M   'P b c a'
_symmetry_Int_Tables_number      61
_space_group_name_Hall           '-P 2ac 2ab'
loop_
_symmetry_equiv_pos_site_id
_symmetry_equiv_pos_as_xyz
1 x,y,z
2 1/2-x,-y,1/2+z
3 1/2+x,1/2-y,-z
4 -x,1/2+y,1/2-z
5 -x,-y,-z
6 1/2+x,y,1/2-z
7 1/2-x,1/2+y,z
8 x,1/2-y,1/2+z
_cell_length_a                   8.4150(7)
_cell_length_b                   12.8669(11)
_cell_length_c                   15.2441(14)
_cell_angle_alpha                90
_cell_angle_beta                 90
_cell_angle_gamma                90
_cell_volume                     1650.55
_exptl_crystal_colour            colorless
_exptl_crystal_description       plate
_cell_formula_units_Z            8
loop_
_atom_site_label
_atom_site_type_symbol
_atom_site_fract_x
_atom_site_fract_y
_atom_site_fract_z
N1 N 0.3102(3) 0.12928(18) 0.46825(16)
H1 H 0.233(4) 0.132(2) 0.427(2)
N2 N 0.5005(4) 0.1613(2) 0.36306(18)
H2 H 0.425(4) 0.157(3) 0.322(2)
H3 H 0.599(5) 0.149(3) 0.343(2)
C1 C 0.4630(3) 0.1419(2) 0.44629(18)
C2 C 0.5770(3) 0.1344(2) 0.51237(19)
H4 H 0.682(4) 0.1403(19) 0.4941(18)
C3 C 0.5334(4) 0.1157(2) 0.59676(19)
C4 C 0.3729(5) 0.1030(3) 0.6157(2)
H5 H 0.345(4) 0.089(3) 0.672(2)
C5 C 0.2646(4) 0.1098(3) 0.5513(2)
H6 H 0.148(5) 0.104(2) 0.562(2)
C6 C 0.6562(5) 0.1077(3) 0.6686(2)
H7 H 0.7605 0.1132 0.6436
H8 H 0.6456 0.0420 0.6978
H9 H 0.6404 0.1629 0.7101
N3 N 0.4582(3) 0.3718(2) 0.64011(17)
O1 O 0.5940(3) 0.3700(2) 0.67303(14)
O2 O 0.3422(2) 0.3620(2) 0.68888(14)
O3 O 0.4434(3) 0.3804(2) 0.56049(15)
loop_
_geom_bond_atom_site_label_1
_geom_bond_atom_site_label_2
_geom_bond_site_symmetry_1
_geom_bond_site_symmetry_2
N1 H1 1_555 1_555
N2 H2 1_555 1_555
H3 N2 1_555 1_555
C1 N1 1_555 1_555
C2 C1 1_555 1_555
H4 C2 1_555 1_555
C3 C2 1_555 1_555
C4 C3 1_555 1_555
H5 C4 1_555 1_555
C5 N1 1_555 1_555
H6 C5 1_555 1_555
C6 C3 1_555 1_555
H7 C6 1_555 1_555
H8 C6 1_555 1_555
H9 C6 1_555 1_555
N3 O1 1_555 1_555
O2 N3 1_555 1_555
O3 N3 1_555 1_555
N2 C1 1_555 1_555
C4 C5 1_555 1_555

#END
