
#######################################################################
#
#                 Cambridge Crystallographic Data Centre
#                                CCDC 
#
#######################################################################
#
# If this CIF has been generated from an entry in the Cambridge 
# Structural Database, then it will include bibliographic, chemical, 
# crystal, experimental, refinement or atomic coordinate data resulting 
# from the CCDC's data processing and validation procedures.
#
#######################################################################

data_LERFIA
_chemical_formula_moiety         'C18 H13 N1'
_chemical_name_systematic        2-phenyl-9H-carbazole
_symmetry_cell_setting           monoclinic
_symmetry_space_group_name_H-M   'C c'
_symmetry_Int_Tables_number      9
_space_group_name_Hall           'C -2yc'
loop_
_symmetry_equiv_pos_site_id
_symmetry_equiv_pos_as_xyz
1 x,y,z
2 x,-y,1/2+z
3 1/2+x,1/2+y,z
4 1/2+x,1/2-y,1/2+z
_cell_length_a                   28.140(12)
_cell_length_b                   5.864(3)
_cell_length_c                   7.624(3)
_cell_angle_alpha                90
_cell_angle_beta                 101.750(8)
_cell_angle_gamma                90
_cell_volume                     1231.7
_exptl_crystal_colour            colorless
_exptl_crystal_description       prismatic
_cell_formula_units_Z            4
loop_
_atom_site_label
_atom_site_type_symbol
_atom_site_fract_x
_atom_site_fract_y
_atom_site_fract_z
N1 N 0.2904(3) 0.5018(10) 1.0074(8)
H1 H 0.2953 0.6318 1.0603
C1 C 0.2460(3) 0.3968(12) 0.9615(9)
C2 C 0.2009(3) 0.4668(15) 0.9837(11)
H2 H 0.1968 0.6057 1.0377
C3 C 0.1618(3) 0.3248(17) 0.9234(12)
H3 H 0.1311 0.3688 0.9382
C4 C 0.1674(3) 0.1122(16) 0.8389(11)
H4 H 0.1405 0.0210 0.7960
C5 C 0.2135(3) 0.0427(13) 0.8214(10)
H5 H 0.2178 -0.0984 0.7713
C6 C 0.2529(3) 0.1847(12) 0.8790(9)
C7 C 0.3034(3) 0.1675(11) 0.8783(8)
C8 C 0.3263(3) 0.3694(12) 0.9568(8)
C9 C 0.3754(3) 0.4034(13) 0.9805(8)
H6 H 0.3894 0.5373 1.0321
C10 C 0.4040(3) 0.2324(13) 0.9255(9)
C11 C 0.3818(3) 0.0320(13) 0.8485(9)
H7 H 0.4010 -0.0823 0.8147
C12 C 0.3327(3) -0.0002(12) 0.8214(9)
H8 H 0.3188 -0.1322 0.7657
C13 C 0.4572(3) 0.2530(12) 0.9523(9)
C14 C 0.4791(3) 0.4454(15) 0.8961(10)
H9 H 0.4599 0.5672 0.8456
C15 C 0.5287(3) 0.4578(17) 0.9143(12)
H10 H 0.5426 0.5857 0.8729
C16 C 0.5582(4) 0.2817(19) 0.9936(13)
H11 H 0.5917 0.2908 1.0063
C17 C 0.5368(3) 0.0905(17) 1.0541(12)
H12 H 0.5562 -0.0281 1.1095
C18 C 0.4876(3) 0.0771(14) 1.0323(12)
H13 H 0.4739 -0.0526 1.0716
loop_
_geom_bond_atom_site_label_1
_geom_bond_atom_site_label_2
_geom_bond_site_symmetry_1
_geom_bond_site_symmetry_2
N1 H1 1_555 1_555
C1 N1 1_555 1_555
C2 C1 1_555 1_555
H2 C2 1_555 1_555
C3 C2 1_555 1_555
H3 C3 1_555 1_555
C4 C3 1_555 1_555
H4 C4 1_555 1_555
C5 C4 1_555 1_555
H5 C5 1_555 1_555
C6 C1 1_555 1_555
C7 C6 1_555 1_555
C8 N1 1_555 1_555
C9 C8 1_555 1_555
H6 C9 1_555 1_555
C10 C9 1_555 1_555
C11 C10 1_555 1_555
H7 C11 1_555 1_555
C12 C7 1_555 1_555
H8 C12 1_555 1_555
C13 C10 1_555 1_555
C14 C13 1_555 1_555
H9 C14 1_555 1_555
C15 C14 1_555 1_555
H10 C15 1_555 1_555
C16 C15 1_555 1_555
H11 C16 1_555 1_555
C17 C16 1_555 1_555
H12 C17 1_555 1_555
C18 C13 1_555 1_555
H13 C18 1_555 1_555
C5 C6 1_555 1_555
C7 C8 1_555 1_555
C11 C12 1_555 1_555
C17 C18 1_555 1_555

#END
