
#######################################################################
#
#                 Cambridge Crystallographic Data Centre
#                                CCDC 
#
#######################################################################
#
# If this CIF has been generated from an entry in the Cambridge 
# Structural Database, then it will include bibliographic, chemical, 
# crystal, experimental, refinement or atomic coordinate data resulting 
# from the CCDC's data processing and validation procedures.
#
#######################################################################

data_LERFIY
_chemical_formula_moiety         'C20 H16 O7'
_chemical_name_systematic        gmelanone
_symmetry_cell_setting           monoclinic
_symmetry_space_group_name_H-M   'P 21'
_symmetry_Int_Tables_number      4
_space_group_name_Hall           'P 2yb'
loop_
_symmetry_equiv_pos_site_id
_symmetry_equiv_pos_as_xyz
1 x,y,z
2 -x,1/2+y,-z
_cell_length_a                   9.5210(10)
_cell_length_b                   6.306
_cell_length_c                   13.228(3)
_cell_angle_alpha                90
_cell_angle_beta                 95.75(2)
_cell_angle_gamma                90
_cell_volume                     790.206
_exptl_crystal_colour            colorless
_chemical_melting_point          201-202deg.C
_cell_formula_units_Z            2
_exptl_crystal_recrystallization_method benzene
loop_
_atom_site_label
_atom_site_type_symbol
_atom_site_fract_x
_atom_site_fract_y
_atom_site_fract_z
O1 O -0.5431(3) 0.1362(4) -0.2204(2)
O2 O -0.3796(3) -0.1310(4) -0.1840(2)
O3 O 0.0198(3) 0.5066(4) 0.2143(2)
O4 O 0.0009(2) 0.1633(3) 0.0838(2)
O5 O -0.2702(3) 0.0872(3) 0.2302(2)
O6 O -0.2517(3) 0.3003(4) 0.6055(2)
O7 O -0.3518(3) 0.6347(4) 0.5848(2)
C1 C -0.4853(4) -0.0500(6) -0.2611(3)
C2 C -0.3500(4) 0.0377(5) -0.1190(3)
C3 C -0.4477(4) 0.1972(5) -0.1400(3)
C4 C -0.4451(4) 0.3820(6) -0.0848(3)
C5 C -0.3385(4) 0.3981(5) -0.0054(3)
C6 C -0.2409(4) 0.2379(5) 0.0184(3)
C7 C -0.2449(4) 0.0522(5) -0.0398(3)
C8 C -0.1282(4) 0.2603(5) 0.1072(3)
C9 C -0.0990(4) 0.4929(5) 0.1406(3)
C10 C 0.0150(4) 0.3699(5) 0.3004(3)
C11 C -0.0133(4) 0.1393(6) 0.2622(3)
C12 C 0.0773(4) 0.0840(6) 0.1772(3)
C13 C -0.1576(4) 0.1463(5) 0.2044(3)
C14 C -0.0882(4) 0.4464(5) 0.3731(3)
C15 C -0.1476(4) 0.6449(5) 0.3638(3)
C16 C -0.2390(4) 0.7251(6) 0.4306(3)
C17 C -0.2684(4) 0.5937(6) 0.5074(3)
C18 C -0.2106(4) 0.3945(6) 0.5192(3)
C19 C -0.1193(4) 0.3165(6) 0.4547(3)
C20 C -0.3655(4) 0.4304(6) 0.6320(3)
H1 H -0.4426(4) -0.0164(6) -0.3227(3)
H2 H -0.5587(4) -0.1549(6) -0.2772(3)
H3 H -0.5108(4) 0.4896(6) -0.0996(3)
H4 H -0.3323(4) 0.5214(5) 0.0334(3)
H5 H -0.1797(4) -0.0562(5) -0.0256(3)
H6 H -0.0821(4) 0.5776(5) 0.0918(3)
H7 H -0.1813(4) 0.5499(5) 0.1688(3)
H8 H 0.1092(4) 0.3716(5) 0.3378(3)
H9 H -0.0060(4) 0.0348(6) 0.3173(3)
H10 H 0.1692(4) 0.1510(6) 0.1889(3)
H11 H 0.0904(4) -0.0683(6) 0.1734(3)
H12 H -0.1257(4) 0.7302(5) 0.3102(3)
H13 H -0.2777(4) 0.8603(6) 0.4230(3)
H14 H -0.0792(4) 0.1826(6) 0.4644(3)
H15 H -0.3612(4) 0.4459(6) 0.7052(3)
H16 H -0.4553(4) 0.3663(6) 0.6080(3)
loop_
_geom_bond_atom_site_label_1
_geom_bond_atom_site_label_2
_geom_bond_site_symmetry_1
_geom_bond_site_symmetry_2
O1 C1 1_555 1_555
O2 C1 1_555 1_555
O3 C9 1_555 1_555
O4 C8 1_555 1_555
O5 C13 1_555 1_555
O6 C18 1_555 1_555
O7 C17 1_555 1_555
C1 H1 1_555 1_555
C2 O2 1_555 1_555
C3 O1 1_555 1_555
C4 C3 1_555 1_555
C5 C4 1_555 1_555
C6 C5 1_555 1_555
C7 C2 1_555 1_555
C8 C6 1_555 1_555
C9 C8 1_555 1_555
C10 O3 1_555 1_555
C11 C10 1_555 1_555
C12 O4 1_555 1_555
C13 C8 1_555 1_555
C14 C10 1_555 1_555
C15 C14 1_555 1_555
C16 C15 1_555 1_555
C17 C16 1_555 1_555
C18 C17 1_555 1_555
C19 C14 1_555 1_555
C20 O6 1_555 1_555
H2 C1 1_555 1_555
H3 C4 1_555 1_555
H4 C5 1_555 1_555
H5 C7 1_555 1_555
H6 C9 1_555 1_555
H7 C9 1_555 1_555
H8 C10 1_555 1_555
H9 C11 1_555 1_555
H10 C12 1_555 1_555
H11 C12 1_555 1_555
H12 C15 1_555 1_555
H13 C16 1_555 1_555
H14 C19 1_555 1_555
H15 C20 1_555 1_555
H16 C20 1_555 1_555
O7 C20 1_555 1_555
C2 C3 1_555 1_555
C6 C7 1_555 1_555
C11 C12 1_555 1_555
C11 C13 1_555 1_555
C18 C19 1_555 1_555

#END
