
#######################################################################
#
#                 Cambridge Crystallographic Data Centre
#                                CCDC 
#
#######################################################################
#
# If this CIF has been generated from an entry in the Cambridge 
# Structural Database, then it will include bibliographic, chemical, 
# crystal, experimental, refinement or atomic coordinate data resulting 
# from the CCDC's data processing and validation procedures.
#
#######################################################################

data_LERGEW
_chemical_formula_moiety         'C13 H10 Br1 N3 O3'
_chemical_name_systematic        
'5-Bromo-3-nitrosalicylaldehyde phenylhydrazone'
_symmetry_cell_setting           triclinic
_symmetry_space_group_name_H-M   'P -1'
_symmetry_Int_Tables_number      2
_space_group_name_Hall           '-P 1'
loop_
_symmetry_equiv_pos_site_id
_symmetry_equiv_pos_as_xyz
1 x,y,z
2 -x,-y,-z
_cell_length_a                   7.9022(11)
_cell_length_b                   11.7662(17)
_cell_length_c                   14.917(2)
_cell_angle_alpha                68.971(5)
_cell_angle_beta                 83.143(6)
_cell_angle_gamma                88.375(6)
_cell_volume                     1285.18
_exptl_crystal_colour            yellow
_exptl_crystal_description       lath
_cell_formula_units_Z            4
loop_
_atom_site_label
_atom_site_type_symbol
_atom_site_fract_x
_atom_site_fract_y
_atom_site_fract_z
Br1 Br 0.60081(6) 0.62592(4) 0.69434(3)
O1 O 0.3833(4) 0.8446(3) 0.6176(2)
H1 H 0.3207 0.9048 0.5958
O2 O 0.6921(4) 0.5644(3) 0.3535(2)
O3 O 0.5570(5) 0.7063(3) 0.2529(2)
N1 N 0.1408(5) 1.1182(3) 0.4514(3)
H2 H 0.1253 1.1452 0.3899
N2 N 0.2352(5) 1.0176(3) 0.4853(2)
N3 N 0.6041(5) 0.6547(4) 0.3335(3)
C1 C 0.2978(6) 0.9701(4) 0.4239(3)
H3 H 0.2780 1.0076 0.3582
C2 C 0.0673(5) 1.1812(4) 0.5082(3)
C3 C -0.0091(5) 1.2918(4) 0.4615(3)
H4 H -0.0083 1.3211 0.3932
C4 C -0.0852(6) 1.3580(4) 0.5136(3)
H5 H -0.1347 1.4340 0.4810
C5 C -0.0909(6) 1.3158(4) 0.6131(3)
H6 H -0.1439 1.3622 0.6489
C6 C -0.0184(6) 1.2045(4) 0.6603(3)
H7 H -0.0239 1.1741 0.7288
C7 C 0.0622(6) 1.1375(4) 0.6080(3)
H8 H 0.1135 1.0621 0.6405
C8 C 0.3981(5) 0.8606(4) 0.4524(3)
C9 C 0.4379(5) 0.8022(4) 0.5475(3)
C10 C 0.5376(5) 0.6987(4) 0.5682(3)
C11 C 0.5929(5) 0.6489(4) 0.5000(3)
H9 H 0.6585 0.5769 0.5157
C12 C 0.5497(6) 0.7073(4) 0.4077(3)
C13 C 0.4563(5) 0.8115(4) 0.3823(3)
H10 H 0.4314 0.8499 0.3176
Br2 Br 0.93788(6) 0.38619(4) -0.18163(3)
O4 O 0.7248(4) 0.5524(3) -0.1038(2)
H11 H 0.6649 0.5983 -0.0814
O5 O 1.1211(4) 0.1237(3) 0.1628(2)
O6 O 0.9895(4) 0.1908(3) 0.2691(2)
N4 N 0.5140(5) 0.7256(3) 0.0530(3)
H12 H 0.5104 0.7202 0.1136
N5 N 0.5986(4) 0.6410(3) 0.0248(3)
N6 N 1.0220(5) 0.1937(4) 0.1854(3)
C14 C 0.6674(5) 0.5538(4) 0.0895(3)
H13 H 0.6552 0.5507 0.1545
C15 C 0.4322(6) 0.8211(4) -0.0111(3)
C16 C 0.3347(6) 0.8981(4) 0.0266(4)
H14 H 0.3279 0.8848 0.0936
C17 C 0.2487(7) 0.9928(5) -0.0330(4)
H15 H 0.1804 1.0438 -0.0069
C18 C 0.2611(6) 1.0143(5) -0.1309(4)
H16 H 0.2028 1.0805 -0.1722
C19 C 0.3587(6) 0.9391(4) -0.1685(4)
H17 H 0.3666 0.9534 -0.2358
C20 C 0.4447(6) 0.8433(4) -0.1090(3)
H18 H 0.5127 0.7925 -0.1354
C21 C 0.7622(5) 0.4611(4) 0.0645(3)
C22 C 0.7918(5) 0.4655(4) -0.0317(3)
C23 C 0.8928(5) 0.3786(4) -0.0527(3)
C24 C 0.9714(5) 0.2876(4) 0.0171(3)
H19 H 1.0433 0.2297 0.0015
C25 C 0.9386(5) 0.2863(4) 0.1113(3)
C26 C 0.8376(5) 0.3698(4) 0.1360(3)
H20 H 0.8192 0.3653 0.2013
loop_
_geom_bond_atom_site_label_1
_geom_bond_atom_site_label_2
_geom_bond_site_symmetry_1
_geom_bond_site_symmetry_2
Br1 C10 1_555 1_555
O1 H1 1_555 1_555
O2 N3 1_555 1_555
O3 N3 1_555 1_555
N1 H2 1_555 1_555
N2 N1 1_555 1_555
N3 C12 1_555 1_555
C1 N2 1_555 1_555
H3 C1 1_555 1_555
C2 N1 1_555 1_555
C3 C2 1_555 1_555
H4 C3 1_555 1_555
C4 C3 1_555 1_555
H5 C4 1_555 1_555
C5 C4 1_555 1_555
H6 C5 1_555 1_555
C6 C5 1_555 1_555
H7 C6 1_555 1_555
C7 C2 1_555 1_555
H8 C7 1_555 1_555
C8 C1 1_555 1_555
C9 O1 1_555 1_555
C10 C9 1_555 1_555
C11 C10 1_555 1_555
H9 C11 1_555 1_555
C12 C11 1_555 1_555
C13 C8 1_555 1_555
H10 C13 1_555 1_555
Br2 C23 1_555 1_555
O4 H11 1_555 1_555
O5 N6 1_555 1_555
O6 N6 1_555 1_555
N4 H12 1_555 1_555
N5 N4 1_555 1_555
N6 C25 1_555 1_555
C14 N5 1_555 1_555
H13 C14 1_555 1_555
C15 N4 1_555 1_555
C16 C15 1_555 1_555
H14 C16 1_555 1_555
C17 C16 1_555 1_555
H15 C17 1_555 1_555
C18 C17 1_555 1_555
H16 C18 1_555 1_555
C19 C18 1_555 1_555
H17 C19 1_555 1_555
C20 C15 1_555 1_555
H18 C20 1_555 1_555
C21 C14 1_555 1_555
C22 O4 1_555 1_555
C23 C22 1_555 1_555
C24 C23 1_555 1_555
H19 C24 1_555 1_555
C25 C24 1_555 1_555
C26 C21 1_555 1_555
H20 C26 1_555 1_555
C6 C7 1_555 1_555
C8 C9 1_555 1_555
C12 C13 1_555 1_555
C19 C20 1_555 1_555
C21 C22 1_555 1_555
C25 C26 1_555 1_555

#END
