
#######################################################################
#
#                 Cambridge Crystallographic Data Centre
#                                CCDC 
#
#######################################################################
#
# If this CIF has been generated from an entry in the Cambridge 
# Structural Database, then it will include bibliographic, chemical, 
# crystal, experimental, refinement or atomic coordinate data resulting 
# from the CCDC's data processing and validation procedures.
#
#######################################################################

data_LERGAS
_chemical_formula_moiety         'C13 H10 Br1 N3 O3'
_chemical_name_systematic        
'3-Bromo-5-nitrosalicylaldehyde phenylhydrazone'
_symmetry_cell_setting           monoclinic
_symmetry_space_group_name_H-M   'P 21/n'
_symmetry_Int_Tables_number      14
_space_group_name_Hall           '-P 2yn'
loop_
_symmetry_equiv_pos_site_id
_symmetry_equiv_pos_as_xyz
1 x,y,z
2 1/2-x,1/2+y,1/2-z
3 -x,-y,-z
4 1/2+x,1/2-y,1/2+z
_cell_length_a                   8.517(4)
_cell_length_b                   21.699(9)
_cell_length_c                   14.301(6)
_cell_angle_alpha                90
_cell_angle_beta                 90.310(9)
_cell_angle_gamma                90
_cell_volume                     2642.93
_exptl_crystal_colour            red
_exptl_crystal_description       needle
_cell_formula_units_Z            8
loop_
_atom_site_label
_atom_site_type_symbol
_atom_site_fract_x
_atom_site_fract_y
_atom_site_fract_z
Br1 Br 1.07411(6) 0.08221(2) 0.46106(3)
O1 O 0.7481(4) 0.24784(14) 0.1806(2)
H1 H 0.6913 0.2732 0.2091
O2 O 0.9469(5) 0.19839(18) 0.0615(2)
O3 O 1.0161(5) 0.10594(17) 0.0929(3)
N1 N 0.5424(4) 0.35197(17) 0.3660(3)
H2 H 0.5478 0.3552 0.4272
N2 N 0.6255(4) 0.30673(16) 0.3237(3)
N3 N 0.9627(5) 0.15548(18) 0.1165(2)
C1 C 0.6970(5) 0.2681(2) 0.3776(3)
H3 H 0.6837 0.2714 0.4433
C2 C 0.4489(5) 0.3935(2) 0.3171(3)
C3 C 0.3645(5) 0.4367(2) 0.3695(3)
H4 H 0.3736 0.4371 0.4357
C4 C 0.2682(6) 0.4786(2) 0.3248(3)
H5 H 0.2111 0.5077 0.3606
C5 C 0.2536(6) 0.4786(2) 0.2275(3)
H6 H 0.1860 0.5071 0.1969
C6 C 0.3399(5) 0.4362(2) 0.1759(3)
H7 H 0.3322 0.4363 0.1096
C7 C 0.4362(5) 0.3940(2) 0.2197(3)
H8 H 0.4941 0.3652 0.1836
C8 C 0.7972(5) 0.2196(2) 0.3408(3)
C9 C 0.8227(5) 0.2120(2) 0.2423(3)
C10 C 0.9265(5) 0.16488(19) 0.2154(3)
C11 C 0.9988(5) 0.1253(2) 0.2781(3)
H9 H 1.0655 0.0932 0.2568
C12 C 0.9718(5) 0.1336(2) 0.3722(3)
C13 C 0.8737(5) 0.1805(2) 0.4035(3)
H10 H 0.8586 0.1859 0.4687
Br2 Br -0.08804(7) 0.39639(2) 0.48495(3)
O4 O 0.2748(4) 0.23671(14) 0.2149(2)
H11 H 0.3351 0.2133 0.2449
O5 O 0.1628(4) 0.31035(18) 0.0878(2)
O6 O -0.0392(4) 0.36555(16) 0.1207(2)
N4 N 0.4718(4) 0.13263(17) 0.3997(3)
H12 H 0.4770 0.1302 0.4611
N5 N 0.3846(4) 0.17778(17) 0.3595(3)
N6 N 0.0702(5) 0.33190(17) 0.1440(2)
C14 C 0.3083(5) 0.2146(2) 0.4124(3)
H13 H 0.3155 0.2100 0.4784
C15 C 0.5538(5) 0.0897(2) 0.3453(3)
C16 C 0.6319(5) 0.0422(2) 0.3923(3)
H14 H 0.6274 0.0396 0.4586
C17 C 0.7158(6) -0.0010(2) 0.3418(4)
H15 H 0.7689 -0.0333 0.3737
C18 C 0.7230(5) 0.0025(2) 0.2451(4)
H16 H 0.7813 -0.0270 0.2106
C19 C 0.6439(5) 0.0496(2) 0.1993(3)
H17 H 0.6479 0.0520 0.1330
C20 C 0.5593(5) 0.0931(2) 0.2482(3)
H18 H 0.5054 0.1251 0.2160
C21 C 0.2108(5) 0.2635(2) 0.3734(3)
C22 C 0.1947(5) 0.2727(2) 0.2751(3)
C23 C 0.0936(5) 0.3195(2) 0.2435(3)
C24 C 0.0097(5) 0.3569(2) 0.3055(3)
H19 H -0.0584 0.3884 0.2832
C25 C 0.0296(5) 0.3466(2) 0.4003(3)
C26 C 0.1254(5) 0.3009(2) 0.4349(3)
H20 H 0.1337 0.2946 0.5005
loop_
_geom_bond_atom_site_label_1
_geom_bond_atom_site_label_2
_geom_bond_site_symmetry_1
_geom_bond_site_symmetry_2
Br1 C12 1_555 1_555
O1 H1 1_555 1_555
O2 N3 1_555 1_555
O3 N3 1_555 1_555
N1 H2 1_555 1_555
N2 N1 1_555 1_555
N3 C10 1_555 1_555
C1 N2 1_555 1_555
H3 C1 1_555 1_555
C2 N1 1_555 1_555
C3 C2 1_555 1_555
H4 C3 1_555 1_555
C4 C3 1_555 1_555
H5 C4 1_555 1_555
C5 C4 1_555 1_555
H6 C5 1_555 1_555
C6 C5 1_555 1_555
H7 C6 1_555 1_555
C7 C2 1_555 1_555
H8 C7 1_555 1_555
C8 C1 1_555 1_555
C9 O1 1_555 1_555
C10 C9 1_555 1_555
C11 C10 1_555 1_555
H9 C11 1_555 1_555
C12 C11 1_555 1_555
C13 C8 1_555 1_555
H10 C13 1_555 1_555
Br2 C25 1_555 1_555
O4 H11 1_555 1_555
O5 N6 1_555 1_555
O6 N6 1_555 1_555
N4 H12 1_555 1_555
N5 N4 1_555 1_555
N6 C23 1_555 1_555
C14 N5 1_555 1_555
H13 C14 1_555 1_555
C15 N4 1_555 1_555
C16 C15 1_555 1_555
H14 C16 1_555 1_555
C17 C16 1_555 1_555
H15 C17 1_555 1_555
C18 C17 1_555 1_555
H16 C18 1_555 1_555
C19 C18 1_555 1_555
H17 C19 1_555 1_555
C20 C15 1_555 1_555
H18 C20 1_555 1_555
C21 C14 1_555 1_555
C22 O4 1_555 1_555
C23 C22 1_555 1_555
C24 C23 1_555 1_555
H19 C24 1_555 1_555
C25 C24 1_555 1_555
C26 C21 1_555 1_555
H20 C26 1_555 1_555
C6 C7 1_555 1_555
C8 C9 1_555 1_555
C12 C13 1_555 1_555
C19 C20 1_555 1_555
C21 C22 1_555 1_555
C25 C26 1_555 1_555

#END
