
#######################################################################
#
#                 Cambridge Crystallographic Data Centre
#                                CCDC 
#
#######################################################################
#
# If this CIF has been generated from an entry in the Cambridge 
# Structural Database, then it will include bibliographic, chemical, 
# crystal, experimental, refinement or atomic coordinate data resulting 
# from the CCDC's data processing and validation procedures.
#
#######################################################################

data_LERGEV
_chemical_formula_moiety         'C70 H68 Ca4 O36 S9,4(C2 H6 O1 S1)'
_chemical_name_systematic        
'tetrakis(\m~3~-6-sulfonatochrysin)-triaqua-pentakis(dimethylformamide)-tetra-calcium dimethylsulfoxide solvate'
_symmetry_cell_setting           triclinic
_symmetry_space_group_name_H-M   'P -1'
_symmetry_Int_Tables_number      2
_space_group_name_Hall           '-P 1'
loop_
_symmetry_equiv_pos_site_id
_symmetry_equiv_pos_as_xyz
1 x,y,z
2 -x,-y,-z
_cell_length_a                   14.725(6)
_cell_length_b                   16.480(7)
_cell_length_c                   21.006(8)
_cell_angle_alpha                83.928(7)
_cell_angle_beta                 85.938(7)
_cell_angle_gamma                85.212(7)
_cell_volume                     5041.3
_exptl_crystal_colour            yellow
_exptl_crystal_description       prism
_chemical_melting_point          280deg.C(dec.)
_cell_formula_units_Z            2
_chemical_properties_physical    light-sensitive
_exptl_crystal_recrystallization_method water/DMSO
_exptl_crystal_preparation       luminescent
loop_
_atom_site_label
_atom_site_type_symbol
_atom_site_fract_x
_atom_site_fract_y
_atom_site_fract_z
Ca1 Ca 0.4628(1) 0.7477(1) 0.6792(1)
Ca2 Ca 0.2068(1) 0.8206(1) 0.6680(1)
Ca3 Ca 0.1448(1) 0.6545(1) 0.8051(1)
Ca4 Ca 0.3909(1) 0.5611(1) 0.7971(1)
O1 O 0.2307(3) 0.9536(3) 0.9099(2)
O2 O 0.1957(3) 0.7889(3) 0.7842(2)
O3 O 0.3423(3) 0.8483(3) 0.7124(2)
O4 O 0.4703(3) 1.0722(3) 0.7904(2)
O5 O 0.5304(3) 0.8774(3) 0.6826(2)
O6 O 0.4339(3) 0.9799(3) 0.6238(2)
O7 O 0.5479(3) 1.0212(3) 0.6875(2)
O8 O 0.1478(3) 0.4336(3) 0.6156(2)
O9 O 0.1380(3) 0.6962(3) 0.6952(2)
O10 O 0.0864(3) 0.8219(3) 0.5955(2)
O11 O 0.4321(3) 0.6999(3) 0.7925(2)
O12 O 0.3263(3) 0.7246(3) 0.6294(2)
O13 O 0.6139(3) 0.7070(3) 0.7006(3)
O14 O 0.5127(4) 0.7603(4) 0.5721(2)
O15 O 0.1279(4) 0.9370(4) 0.7025(3)
O16 O 0.2737(4) 0.9130(3) 0.5862(2)
S1 S 0.4843(1) 0.9596(1) 0.6797(1)
S2 S 0.0049(1) 0.7777(1) 0.6106(1)
S3 S 0.4852(6) 0.8496(6) 0.5297(4)
C1 C 0.1661(5) 0.8980(5) 0.9224(3)
C2 C 0.1537(5) 0.8459(4) 0.8797(3)
C3 C 0.2089(4) 0.8419(4) 0.8211(3)
C4 C 0.2786(4) 0.8986(4) 0.8094(3)
C5 C 0.3424(4) 0.9004(4) 0.7542(3)
C6 C 0.4063(4) 0.9596(4) 0.7477(3)
C7 C 0.4093(5) 1.0141(4) 0.7945(3)
C8 C 0.3495(5) 1.0108(4) 0.8481(3)
C9 C 0.2863(5) 0.9533(4) 0.8547(3)
C10 C 0.1141(5) 0.9046(5) 0.9828(3)
C11 C 0.1186(6) 0.9720(6) 1.0174(4)
C12 C 0.0682(7) 0.9790(7) 1.0744(4)
C13 C 0.0175(8) 0.9165(9) 1.0992(5)
C14 C 0.0120(7) 0.8493(7) 1.0686(5)
C15 C 0.0618(6) 0.8425(5) 1.0095(4)
C16 C 0.2167(5) 0.4016(4) 0.6525(3)
C17 C 0.2505(4) 0.4451(4) 0.6934(3)
C18 C 0.2184(4) 0.5287(4) 0.7019(3)
C19 C 0.1474(4) 0.5634(4) 0.6603(3)
C20 C 0.1105(4) 0.6466(4) 0.6591(3)
C21 C 0.0421(4) 0.6728(4) 0.6149(3)
C22 C 0.0095(4) 0.6189(4) 0.5776(3)
C23 C 0.0453(5) 0.5392(5) 0.5785(3)
C24 C 0.1142(4) 0.5133(4) 0.6187(3)
C25 C 0.2399(6) 0.3157(5) 0.6417(4)
C26 C 0.1984(5) 0.2786(5) 0.5981(4)
C27 C 0.2194(7) 0.1968(6) 0.5902(5)
C28 C 0.2800(9) 0.1525(6) 0.6260(5)
C29 C 0.3300(9) 0.1876(6) 0.6649(7)
C30 C 0.3076(9) 0.2711(7) 0.6739(6)
S5 S 0.7710(3) 0.1971(3) 0.7128(2)
S7 S 0.2039(3) 0.2916(3) 0.0764(3)
S4? S 0.5484(2) 0.7907(2) 0.5067(1)
S6? S 0.7266(6) 0.1675(7) 0.7535(5)
loop_
_geom_bond_atom_site_label_1
_geom_bond_atom_site_label_2
_geom_bond_site_symmetry_1
_geom_bond_site_symmetry_2
Ca1 O3 1_555 1_555
Ca2 O2 1_555 1_555
Ca3 O2 1_555 1_555
Ca4 O11 1_555 1_555
O1 C1 1_555 1_555
O2 C3 1_555 1_555
O3 Ca2 1_555 1_555
O4 C7 1_555 1_555
O5 Ca1 1_555 1_555
O6 S1 1_555 1_555
O7 S1 1_555 1_555
O8 C16 1_555 1_555
O9 Ca2 1_555 1_555
O10 Ca2 1_555 1_555
O11 Ca1 1_555 1_555
O12 Ca1 1_555 1_555
O13 Ca1 1_555 1_555
O14 Ca1 1_555 1_555
O15 Ca2 1_555 1_555
O16 Ca2 1_555 1_555
S1 O5 1_555 1_555
S2 O10 1_555 1_555
S3 O14 1_555 1_555
C1 C2 1_555 1_555
C2 C3 1_555 1_555
C3 C4 1_555 1_555
C4 C5 1_555 1_555
C5 O3 1_555 1_555
C6 S1 1_555 1_555
C7 C6 1_555 1_555
C8 C7 1_555 1_555
C9 O1 1_555 1_555
C10 C1 1_555 1_555
C11 C10 1_555 1_555
C12 C11 1_555 1_555
C13 C12 1_555 1_555
C14 C13 1_555 1_555
C15 C10 1_555 1_555
C16 C17 1_555 1_555
C17 C18 1_555 1_555
C18 C19 1_555 1_555
C19 C20 1_555 1_555
C20 O9 1_555 1_555
C21 S2 1_555 1_555
C22 C21 1_555 1_555
C23 C22 1_555 1_555
C24 O8 1_555 1_555
C25 C16 1_555 1_555
C26 C25 1_555 1_555
C27 C26 1_555 1_555
C28 C27 1_555 1_555
C29 C28 1_555 1_555
C30 C25 1_555 1_555
Ca2 O12 1_555 1_555
Ca3 O9 1_555 1_555
C4 C9 1_555 1_555
C5 C6 1_555 1_555
C8 C9 1_555 1_555
C14 C15 1_555 1_555
C19 C24 1_555 1_555
C20 C21 1_555 1_555
C23 C24 1_555 1_555
C29 C30 1_555 1_555

#END
