
#######################################################################
#
#                 Cambridge Crystallographic Data Centre
#                                CCDC 
#
#######################################################################
#
# If this CIF has been generated from an entry in the Cambridge 
# Structural Database, then it will include bibliographic, chemical, 
# crystal, experimental, refinement or atomic coordinate data resulting 
# from the CCDC's data processing and validation procedures.
#
#######################################################################

data_LERKAW
_chemical_formula_moiety         'C12 H10 Cl1 N1 O1'
_chemical_name_systematic        4-(Allyloxy)-7-chloroquinoline
_symmetry_cell_setting           orthorhombic
_symmetry_space_group_name_H-M   'P 21 21 21'
_symmetry_Int_Tables_number      19
_space_group_name_Hall           'P 2ac 2ab'
loop_
_symmetry_equiv_pos_site_id
_symmetry_equiv_pos_as_xyz
1 x,y,z
2 1/2-x,-y,1/2+z
3 1/2+x,1/2-y,-z
4 -x,1/2+y,1/2-z
_cell_length_a                   3.9370(9)
_cell_length_b                   11.977(3)
_cell_length_c                   21.482(6)
_cell_angle_alpha                90
_cell_angle_beta                 90
_cell_angle_gamma                90
_cell_volume                     1012.95
_exptl_crystal_colour            colorless
_exptl_crystal_description       needle
_cell_formula_units_Z            4
loop_
_atom_site_label
_atom_site_type_symbol
_atom_site_fract_x
_atom_site_fract_y
_atom_site_fract_z
Cl1 Cl 0.75315(9) 0.16731(2) 0.582400(14)
O1 O 0.3865(3) 0.70449(7) 0.62487(4)
N1 N 0.1892(3) 0.42768(9) 0.73786(5)
C1 C 0.0973(4) 0.52931(11) 0.75455(5)
H1 H -0.0150 0.5368 0.7935
C2 C 0.1503(3) 0.62789(11) 0.72000(5)
H2 H 0.0750 0.6982 0.7351
C3 C 0.3150(3) 0.61873(10) 0.66371(5)
C4 C 0.4229(3) 0.51185(10) 0.64285(5)
C5 C 0.5953(3) 0.49573(10) 0.58558(5)
H3 H 0.6439 0.5581 0.5598
C6 C 0.6925(3) 0.39105(10) 0.56716(5)
H4 H 0.8067 0.3803 0.5287
C7 C 0.6204(4) 0.29958(10) 0.60616(6)
C8 C 0.4551(3) 0.31124(10) 0.66182(5)
H5 H 0.4103 0.2477 0.6870
C9 C 0.3514(3) 0.41873(11) 0.68153(5)
C10 C 0.2780(4) 0.81394(9) 0.64363(5)
H6 H 0.3829 0.8337 0.6840
H7 H 0.0281 0.8152 0.6487
C11 C 0.3825(4) 0.89589(11) 0.59509(6)
H8 H 0.3117 0.9710 0.6009
C12 C 0.5639(4) 0.87434(12) 0.54479(6)
H9 H 0.6408 0.8005 0.5369
H10 H 0.6176 0.9327 0.5165
loop_
_geom_bond_atom_site_label_1
_geom_bond_atom_site_label_2
_geom_bond_site_symmetry_1
_geom_bond_site_symmetry_2
Cl1 C7 1_555 1_555
O1 C3 1_555 1_555
N1 C1 1_555 1_555
C1 H1 1_555 1_555
C2 C1 1_555 1_555
H2 C2 1_555 1_555
C3 C2 1_555 1_555
C4 C3 1_555 1_555
C5 C4 1_555 1_555
H3 C5 1_555 1_555
C6 C5 1_555 1_555
H4 C6 1_555 1_555
C7 C6 1_555 1_555
C8 C7 1_555 1_555
H5 C8 1_555 1_555
C9 N1 1_555 1_555
C10 O1 1_555 1_555
H6 C10 1_555 1_555
H7 C10 1_555 1_555
C11 C10 1_555 1_555
H8 C11 1_555 1_555
C12 C11 1_555 1_555
H9 C12 1_555 1_555
H10 C12 1_555 1_555
C4 C9 1_555 1_555
C8 C9 1_555 1_555

#END
