
#######################################################################
#
#                 Cambridge Crystallographic Data Centre
#                                CCDC 
#
#######################################################################
#
# If this CIF has been generated from an entry in the Cambridge 
# Structural Database, then it will include bibliographic, chemical, 
# crystal, experimental, refinement or atomic coordinate data resulting 
# from the CCDC's data processing and validation procedures.
#
#######################################################################

data_LERKIE
_chemical_formula_moiety         'C11 H10 Cl1 N1 O1'
_chemical_name_systematic        7-Chloro-4-ethoxyquinoline
_symmetry_cell_setting           monoclinic
_symmetry_space_group_name_H-M   'P 21/n'
_symmetry_Int_Tables_number      14
_space_group_name_Hall           '-P 2yn'
loop_
_symmetry_equiv_pos_site_id
_symmetry_equiv_pos_as_xyz
1 x,y,z
2 1/2-x,1/2+y,1/2-z
3 -x,-y,-z
4 1/2+x,1/2-y,1/2+z
_cell_length_a                   3.932(10)
_cell_length_b                   11.98(3)
_cell_length_c                   20.86(6)
_cell_angle_alpha                90
_cell_angle_beta                 90.56(6)
_cell_angle_gamma                90
_cell_volume                     982.571
_exptl_crystal_colour            colorless
_exptl_crystal_description       needle
_cell_formula_units_Z            4
loop_
_atom_site_label
_atom_site_type_symbol
_atom_site_fract_x
_atom_site_fract_y
_atom_site_fract_z
Cl1 Cl 0.9928(5) 0.1086(2) 0.07330(11)
O1 O 0.5920(14) 0.6502(6) 0.1167(3)
N1 N 0.4553(17) 0.3701(7) 0.2368(3)
C1 C 0.356(2) 0.4683(9) 0.2547(4)
H1 H 0.2535 0.4746 0.2956
C2 C 0.3905(19) 0.5687(7) 0.2173(4)
H2 H 0.3127 0.6384 0.2333
C3 C 0.540(2) 0.5615(9) 0.1571(4)
C4 C 0.647(2) 0.4548(8) 0.1354(4)
C5 C 0.7964(19) 0.4349(8) 0.0751(4)
H3 H 0.8253 0.4960 0.0467
C6 C 0.901(2) 0.3308(9) 0.0560(4)
H4 H 1.0014 0.3204 0.0151
C7 C 0.8573(19) 0.2393(9) 0.0979(4)
C8 C 0.7075(19) 0.2521(9) 0.1561(4)
H5 H 0.6752 0.1889 0.1829
C9 C 0.599(2) 0.3593(10) 0.1771(4)
C10 C 0.485(2) 0.7596(8) 0.1381(4)
H6 H 0.6133 0.7819 0.1771
H7 H 0.2391 0.7595 0.1480
C11 C 0.5575(19) 0.8378(8) 0.0839(4)
H8 H 0.5083 0.9145 0.0972
H9 H 0.4143 0.8184 0.0469
H10 H 0.7976 0.8318 0.0722
loop_
_geom_bond_atom_site_label_1
_geom_bond_atom_site_label_2
_geom_bond_site_symmetry_1
_geom_bond_site_symmetry_2
Cl1 C7 1_555 1_555
O1 C3 1_555 1_555
N1 C1 1_555 1_555
C1 H1 1_555 1_555
C2 C1 1_555 1_555
H2 C2 1_555 1_555
C3 C2 1_555 1_555
C4 C3 1_555 1_555
C5 C4 1_555 1_555
H3 C5 1_555 1_555
C6 C5 1_555 1_555
H4 C6 1_555 1_555
C7 C6 1_555 1_555
C8 C7 1_555 1_555
H5 C8 1_555 1_555
C9 N1 1_555 1_555
C10 O1 1_555 1_555
H6 C10 1_555 1_555
H7 C10 1_555 1_555
C11 C10 1_555 1_555
H8 C11 1_555 1_555
H9 C11 1_555 1_555
H10 C11 1_555 1_555
C4 C9 1_555 1_555
C8 C9 1_555 1_555

#END
