
#######################################################################
#
#                 Cambridge Crystallographic Data Centre
#                                CCDC 
#
#######################################################################
#
# If this CIF has been generated from an entry in the Cambridge 
# Structural Database, then it will include bibliographic, chemical, 
# crystal, experimental, refinement or atomic coordinate data resulting 
# from the CCDC's data processing and validation procedures.
#
#######################################################################

data_LERQUX
_chemical_name_common            'LB30870 hydrate form I'
_chemical_formula_moiety         'C28 H31 N5 O4 S1,5.81(H2 O1)'
_chemical_name_systematic        
'2-(((1R)-2-((2S)-2-((((5-(amino(iminio)methyl)-2-thienyl)methyl)amino)carbonyl)pyrrolidinyl)-1-benzhydryl-2-oxoethyl)amino)acetate hydrate'
_chemical_properties_biological  'LB30870 is a direct thrombin inhibitor'
_symmetry_cell_setting           orthorhombic
_symmetry_space_group_name_H-M   'P 21 21 21'
_symmetry_Int_Tables_number      19
_space_group_name_Hall           'P 2ac 2ab'
loop_
_symmetry_equiv_pos_site_id
_symmetry_equiv_pos_as_xyz
1 x,y,z
2 1/2-x,-y,1/2+z
3 -x,1/2+y,1/2-z
4 1/2+x,1/2-y,-z
_cell_length_a                   10.683(2)
_cell_length_b                   12.969(3)
_cell_length_c                   24.365(5)
_cell_angle_alpha                90
_cell_angle_beta                 90
_cell_angle_gamma                90
_cell_volume                     3375.72
_exptl_crystal_colour            colorless
_exptl_crystal_description       block
_cell_formula_units_Z            4
loop_
_atom_site_label
_atom_site_type_symbol
_atom_site_fract_x
_atom_site_fract_y
_atom_site_fract_z
N1 N 0.6113(3) 0.3146(3) 0.20540(12)
H1 H 0.6658 0.3224 0.2310
H2 H 0.6308 0.2817 0.1759
N2 N 0.4667(3) 0.4025(2) 0.25518(10)
H3 H 0.5196 0.4113 0.2814
H4 H 0.3921 0.4269 0.2580
C1 C 0.4996(3) 0.3523(2) 0.21113(11)
S1 S 0.44744(9) 0.32883(7) 0.09970(3)
C2 C 0.4058(3) 0.3409(2) 0.16759(11)
C3 C 0.2801(4) 0.3361(3) 0.17383(15)
H5 H 0.2402 0.3394 0.2077
C4 C 0.2158(4) 0.3257(4) 0.12334(17)
H6 H 0.1291 0.3212 0.1206
C5 C 0.2940(4) 0.3230(2) 0.07929(13)
C6 C 0.2604(4) 0.3108(3) 0.02012(13)
H7 H 0.1727 0.3275 0.0150
H8 H 0.3095 0.3584 -0.0018
N3 N 0.2836(2) 0.20530(17) 0.00146(9)
H9 H 0.2436 0.1556 0.0169
O1 O 0.4155(3) 0.24902(18) -0.06693(10)
C7 C 0.3635(3) 0.1834(2) -0.03805(10)
C8 C 0.3883(3) 0.07037(19) -0.05020(9)
H10 H 0.4736 0.0629 -0.0644
C9 C 0.2958(3) 0.0255(2) -0.09195(11)
H11 H 0.2577 0.0799 -0.1136
H12 H 0.3375 -0.0225 -0.1164
C10 C 0.1988(3) -0.0291(2) -0.05734(12)
H13 H 0.1365 0.0190 -0.0439
H14 H 0.1573 -0.0828 -0.0782
C11 C 0.2734(3) -0.0743(2) -0.01072(12)
H15 H 0.2224 -0.0820 0.0220
H16 H 0.3084 -0.1407 -0.0206
N4 N 0.37297(18) 0.00348(14) -0.00247(8)
O2 O 0.53082(17) 0.08344(13) 0.04054(7)
C12 C 0.4531(2) 0.01222(16) 0.03939(9)
C13 C 0.4542(2) -0.06705(18) 0.08609(9)
H17 H 0.3803 -0.1115 0.0832
C14 C 0.5741(2) -0.1326(2) 0.07914(10)
H18 H 0.6452 -0.0855 0.0835
C15 C 0.5878(3) -0.21536(19) 0.12332(10)
C16 C 0.4896(3) -0.2743(2) 0.14209(12)
H19 H 0.4092 -0.2619 0.1290
C17 C 0.7059(3) -0.2349(2) 0.14403(12)
H20 H 0.7736 -0.1958 0.1321
C18 C 0.7243(5) -0.3134(3) 0.18287(14)
H21 H 0.8036 -0.3258 0.1971
C19 C 0.6249(5) -0.3714(3) 0.19947(14)
H22 H 0.6371 -0.4249 0.2243
C20 C 0.5090(4) -0.3518(2) 0.18011(14)
H23 H 0.4416 -0.3908 0.1925
C21 C 0.5821(3) -0.1764(3) 0.02107(11)
C22 C 0.6577(4) -0.1265(4) -0.01734(15)
H24 H 0.7068 -0.0708 -0.0068
C23 C 0.6591(7) -0.1606(6) -0.0714(2)
H25 H 0.7077 -0.1262 -0.0973
C24 C 0.5895(9) -0.2443(8) -0.08692(19)
H26 H 0.5916 -0.2666 -0.1232
C25 C 0.5169(5) -0.2955(4) -0.04955(18)
H27 H 0.4703 -0.3528 -0.0602
C26 C 0.5134(4) -0.2610(3) 0.00471(14)
H28 H 0.4640 -0.2956 0.0302
N5 N 0.4548(2) -0.01586(17) 0.13932(8)
H29 H 0.518(3) 0.027(3) 0.1399(12)
C27 C 0.3405(3) 0.0421(2) 0.14999(11)
H30 H 0.3121 0.0731 0.1160
H31 H 0.3592 0.0975 0.1755
O3 O 0.1260(3) 0.0106(3) 0.16695(14)
O4 O 0.2630(2) -0.1043(2) 0.19854(10)
C28 C 0.2349(3) -0.0238(3) 0.17374(12)
O5 O 0.6893(3) 0.1574(3) 0.12474(11)
H32 H 0.634(4) 0.153(5) 0.0966(17)
H33 H 0.769(3) 0.151(5) 0.116(2)
O6 O 0.0907(3) 0.0875(2) 0.05977(13)
H34 H 0.033(4) 0.129(4) 0.064(2)
H35 H 0.097(6) 0.063(5) 0.0935(14)
O7 O 0.2552(5) 0.5217(4) 0.2785(2)
H36 H 0.197(7) 0.515(9) 0.251(3)
H37 H 0.232(8) 0.550(8) 0.310(2)
O8 O 0.9580(7) 0.8976(7) 0.2272(5)
O9 O 0.1624(8) 0.6994(7) 0.2257(3)
O10 O 0.0009(10) 0.7145(8) 0.3135(4)
H38 H 0.046(15) 0.760(12) 0.297(7)
H39 H 0.042(16) 0.661(10) 0.324(8)
O12 O 0.1380(17) 0.5083(15) 0.3680(11)
O11? O 0.002(2) 0.665(2) 0.2663(13)
loop_
_geom_bond_atom_site_label_1
_geom_bond_atom_site_label_2
_geom_bond_site_symmetry_1
_geom_bond_site_symmetry_2
N1 H1 1_555 1_555
H2 N1 1_555 1_555
N2 H3 1_555 1_555
H4 N2 1_555 1_555
C1 N1 1_555 1_555
S1 C2 1_555 1_555
C2 C1 1_555 1_555
C3 C2 1_555 1_555
H5 C3 1_555 1_555
C4 C3 1_555 1_555
H6 C4 1_555 1_555
C5 S1 1_555 1_555
C6 C5 1_555 1_555
H7 C6 1_555 1_555
H8 C6 1_555 1_555
N3 C6 1_555 1_555
H9 N3 1_555 1_555
O1 C7 1_555 1_555
C7 N3 1_555 1_555
C8 C7 1_555 1_555
H10 C8 1_555 1_555
C9 C8 1_555 1_555
H11 C9 1_555 1_555
H12 C9 1_555 1_555
C10 C9 1_555 1_555
H13 C10 1_555 1_555
H14 C10 1_555 1_555
C11 C10 1_555 1_555
H15 C11 1_555 1_555
H16 C11 1_555 1_555
N4 C8 1_555 1_555
O2 C12 1_555 1_555
C12 N4 1_555 1_555
C13 C12 1_555 1_555
H17 C13 1_555 1_555
C14 C13 1_555 1_555
H18 C14 1_555 1_555
C15 C14 1_555 1_555
C16 C15 1_555 1_555
H19 C16 1_555 1_555
C17 C15 1_555 1_555
H20 C17 1_555 1_555
C18 C17 1_555 1_555
H21 C18 1_555 1_555
C19 C18 1_555 1_555
H22 C19 1_555 1_555
C20 C16 1_555 1_555
H23 C20 1_555 1_555
C21 C14 1_555 1_555
C22 C21 1_555 1_555
H24 C22 1_555 1_555
C23 C22 1_555 1_555
H25 C23 1_555 1_555
C24 C23 1_555 1_555
H26 C24 1_555 1_555
C25 C24 1_555 1_555
H27 C25 1_555 1_555
C26 C21 1_555 1_555
H28 C26 1_555 1_555
N5 C13 1_555 1_555
H29 N5 1_555 1_555
C27 N5 1_555 1_555
H30 C27 1_555 1_555
H31 C27 1_555 1_555
O3 C28 1_555 1_555
O4 C28 1_555 1_555
C28 C27 1_555 1_555
O5 H32 1_555 1_555
H33 O5 1_555 1_555
O6 H34 1_555 1_555
H35 O6 1_555 1_555
O7 H36 1_555 1_555
H37 O7 1_555 1_555
O10 H38 1_555 1_555
H39 O10 1_555 1_555
N2 C1 1_555 1_555
C4 C5 1_555 1_555
C11 N4 1_555 1_555
C19 C20 1_555 1_555
C25 C26 1_555 1_555

#END
