
#######################################################################
#
#                 Cambridge Crystallographic Data Centre
#                                CCDC 
#
#######################################################################
#
# If this CIF has been generated from an entry in the Cambridge 
# Structural Database, then it will include bibliographic, chemical, 
# crystal, experimental, refinement or atomic coordinate data resulting 
# from the CCDC's data processing and validation procedures.
#
#######################################################################

data_LERQIL
_chemical_name_common            'LB30870 methanol solvate hydrate form Ia'
_chemical_formula_moiety         'C28 H31 N5 O4 S1,C1 H4 O1,5.1(H2 O1)'
_chemical_name_systematic        
'2-(((1R)-2-((2S)-2-((((5-(amino(iminio)methyl)-2-thienyl)methyl)amino)carbonyl)pyrrolidinyl)-1-benzhydryl-2-oxoethyl)amino)acetate methanol solvate hydrate'
_chemical_properties_biological  'LB30870 is a direct thrombin inhibitor'
_symmetry_cell_setting           orthorhombic
_symmetry_space_group_name_H-M   'P 21 21 21'
_symmetry_Int_Tables_number      19
_space_group_name_Hall           'P 2ac 2ab'
loop_
_symmetry_equiv_pos_site_id
_symmetry_equiv_pos_as_xyz
1 x,y,z
2 1/2-x,-y,1/2+z
3 -x,1/2+y,1/2-z
4 1/2+x,1/2-y,-z
_cell_length_a                   10.845(2)
_cell_length_b                   12.767(3)
_cell_length_c                   23.970(5)
_cell_angle_alpha                90
_cell_angle_beta                 90
_cell_angle_gamma                90
_cell_volume                     3318.84
_exptl_crystal_colour            colorless
_exptl_crystal_description       block
_cell_formula_units_Z            4
loop_
_atom_site_label
_atom_site_type_symbol
_atom_site_fract_x
_atom_site_fract_y
_atom_site_fract_z
N1 N 1.11444(19) 0.18550(17) 0.79586(8)
H1 H 1.165(3) 0.174(2) 0.7634(13)
H2 H 1.129(3) 0.221(3) 0.8145(14)
N2 N 0.9699(2) 0.09696(15) 0.74517(7)
H3 H 1.012(3) 0.099(2) 0.7203(14)
H4 H 0.906(3) 0.080(3) 0.7466(13)
C1 C 1.0029(2) 0.14696(15) 0.79045(8)
S1 S 0.95855(5) 0.16777(4) 0.90455(2)
C2 C 0.91359(19) 0.15837(15) 0.83571(7)
C3 C 0.7870(2) 0.16080(18) 0.83055(9)
H5 H 0.7443 0.1564 0.7960
C4 C 0.7282(2) 0.17064(19) 0.88303(9)
H6 H 0.6413 0.1743 0.8873
C5 C 0.80824(19) 0.17443(16) 0.92671(8)
C6 C 0.7751(2) 0.18742(16) 0.98726(8)
H7 H 0.6872 0.1693 0.9927
H8 H 0.8253 0.1387 1.0100
N3 N 0.79671(16) 0.29505(13) 1.00600(7)
H9 H 0.757(3) 0.346(2) 0.9911(12)
O1 O 0.94436(16) 0.25474(12) 1.07021(7)
C7 C 0.88118(18) 0.31944(15) 1.04401(7)
C8 C 0.90007(18) 0.43535(15) 1.05633(7)
H10 H 0.9857 0.4463 1.0707
C9 C 0.8068(2) 0.47885(16) 1.09933(8)
H11 H 0.7704 0.4215 1.1218
H12 H 0.8469 0.5296 1.1247
C10 C 0.70840(19) 0.53257(16) 1.06368(8)
H13 H 0.6476 0.4812 1.0494
H14 H 0.6645 0.5872 1.0852
C11 C 0.78255(18) 0.58058(15) 1.01618(8)
H15 H 0.7314 0.5893 0.9823
H16 H 0.8173 0.6493 1.0270
N4 N 0.88055(15) 0.50247(12) 1.00739(6)
O2 O 1.03542(13) 0.42014(11) 0.96287(6)
C12 C 0.95818(17) 0.49241(14) 0.96411(7)
C13 C 0.95659(17) 0.57141(14) 0.91591(7)
H17 H 0.8832 0.6184 0.9196
C14 C 1.07608(18) 0.63662(15) 0.92138(8)
H18 H 1.1466 0.5865 0.9185
C15 C 1.09208(19) 0.71590(15) 0.87511(7)
C16 C 0.9948(2) 0.77742(16) 0.85532(8)
H19 H 0.9138 0.7665 0.8693
C17 C 1.0157(3) 0.85479(16) 0.81527(9)
H20 H 0.9491 0.8968 0.8025
C18 C 1.1333(3) 0.87063(18) 0.79408(9)
H21 H 1.1477 0.9246 0.7676
C19 C 1.2297(2) 0.80737(18) 0.81166(9)
H22 H 1.3096 0.8162 0.7961
C20 C 1.2094(2) 0.73054(17) 0.85231(9)
H23 H 1.2760 0.6880 0.8645
C21 C 1.0820(2) 0.68513(18) 0.97951(8)
C22 C 1.1517(3) 0.6369(2) 1.02138(11)
H24 H 1.2019 0.5781 1.0127
C23 C 1.1473(3) 0.6754(3) 1.07648(11)
H25 H 1.1933 0.6414 1.1049
C24 C 1.0773(3) 0.7617(3) 1.08945(10)
H26 H 1.0749 0.7871 1.1267
C25 C 1.0101(3) 0.8117(2) 1.04823(10)
H27 H 0.9625 0.8719 1.0569
C26 C 1.0128(2) 0.77270(19) 0.99353(9)
H28 H 0.9662 0.8071 0.9654
N5 N 0.95203(17) 0.51668(13) 0.86232(6)
H29 H 1.013(3) 0.478(2) 0.8631(11)
C27 C 0.8365(2) 0.46022(16) 0.85493(8)
H30 H 0.8102 0.4312 0.8913
H31 H 0.8503 0.4007 0.8292
O3 O 0.62398(17) 0.49927(19) 0.84127(8)
O4 O 0.76153(15) 0.60962(13) 0.80473(7)
C28 C 0.7332(2) 0.52964(18) 0.83162(8)
O5 O 0.4547(2) 0.5852(2) 0.77460(10)
H32 H 0.4607 0.6505 0.7781
C29 C 0.5096(4) 0.5533(3) 0.72202(14)
H33 H 0.5099 0.6127 0.6961
H34 H 0.4615 0.4957 0.7060
H35 H 0.5945 0.5298 0.7285
O6 O 0.18452(18) 0.34125(15) 0.87402(7)
H36 H 0.215(3) 0.392(2) 0.8563(15)
H37 H 0.137(3) 0.363(3) 0.9015(13)
O7 O 0.39890(16) 0.91267(14) 0.54999(7)
H38 H 0.442(3) 0.862(2) 0.5547(15)
H39 H 0.411(3) 0.944(3) 0.5821(11)
O8 O 0.75886(19) 0.97667(16) 0.71769(8)
H40 H 0.692(3) 1.006(3) 0.7341(16)
H41 H 0.734(4) 0.926(3) 0.7412(14)
O9 O 0.6644(2) 0.80334(17) 0.77148(9)
H42 H 0.614(3) 0.789(3) 0.7431(14)
H43 H 0.700(4) 0.740(2) 0.7625(18)
O10 O 0.4958(2) 0.8048(2) 0.68396(9)
H44 H 0.499(5) 0.783(4) 0.6471(12)
O11 O 0.8587(18) 0.0049(17) 0.1303(10)
loop_
_geom_bond_atom_site_label_1
_geom_bond_atom_site_label_2
_geom_bond_site_symmetry_1
_geom_bond_site_symmetry_2
N1 H1 1_555 1_555
H2 N1 1_555 1_555
N2 H3 1_555 1_555
H4 N2 1_555 1_555
C1 N1 1_555 1_555
S1 C2 1_555 1_555
C2 C1 1_555 1_555
C3 C2 1_555 1_555
H5 C3 1_555 1_555
C4 C3 1_555 1_555
H6 C4 1_555 1_555
C5 S1 1_555 1_555
C6 C5 1_555 1_555
H7 C6 1_555 1_555
H8 C6 1_555 1_555
N3 C6 1_555 1_555
H9 N3 1_555 1_555
O1 C7 1_555 1_555
C7 N3 1_555 1_555
C8 C7 1_555 1_555
H10 C8 1_555 1_555
C9 C8 1_555 1_555
H11 C9 1_555 1_555
H12 C9 1_555 1_555
C10 C9 1_555 1_555
H13 C10 1_555 1_555
H14 C10 1_555 1_555
C11 C10 1_555 1_555
H15 C11 1_555 1_555
H16 C11 1_555 1_555
N4 C8 1_555 1_555
O2 C12 1_555 1_555
C12 N4 1_555 1_555
C13 C12 1_555 1_555
H17 C13 1_555 1_555
C14 C13 1_555 1_555
H18 C14 1_555 1_555
C15 C14 1_555 1_555
C16 C15 1_555 1_555
H19 C16 1_555 1_555
C17 C16 1_555 1_555
H20 C17 1_555 1_555
C18 C17 1_555 1_555
H21 C18 1_555 1_555
C19 C18 1_555 1_555
H22 C19 1_555 1_555
C20 C15 1_555 1_555
H23 C20 1_555 1_555
C21 C14 1_555 1_555
C22 C21 1_555 1_555
H24 C22 1_555 1_555
C23 C22 1_555 1_555
H25 C23 1_555 1_555
C24 C23 1_555 1_555
H26 C24 1_555 1_555
C25 C24 1_555 1_555
H27 C25 1_555 1_555
C26 C21 1_555 1_555
H28 C26 1_555 1_555
N5 C13 1_555 1_555
H29 N5 1_555 1_555
C27 N5 1_555 1_555
H30 C27 1_555 1_555
H31 C27 1_555 1_555
O3 C28 1_555 1_555
O4 C28 1_555 1_555
C28 C27 1_555 1_555
O5 H32 1_555 1_555
C29 O5 1_555 1_555
H33 C29 1_555 1_555
H34 C29 1_555 1_555
H35 C29 1_555 1_555
O6 H36 1_555 1_555
H37 O6 1_555 1_555
O7 H38 1_555 1_555
H39 O7 1_555 1_555
O8 H40 1_555 1_555
H41 O8 1_555 1_555
O9 H42 1_555 1_555
H43 O9 1_555 1_555
O10 H44 1_555 1_555
N2 C1 1_555 1_555
C4 C5 1_555 1_555
C11 N4 1_555 1_555
C19 C20 1_555 1_555
C25 C26 1_555 1_555

#END
