
#######################################################################
#
#                 Cambridge Crystallographic Data Centre
#                                CCDC 
#
#######################################################################
#
# If this CIF has been generated from an entry in the Cambridge 
# Structural Database, then it will include bibliographic, chemical, 
# crystal, experimental, refinement or atomic coordinate data resulting 
# from the CCDC's data processing and validation procedures.
#
#######################################################################

data_LERVAG
_chemical_formula_moiety         'C18 H10 Cl2 O2,2(C6 H13 N1)'
_chemical_name_systematic        
'trans-1,5-Dichloro-9,10-diethynyl-9,10-dihydroanthracene-9,10-diol cyclohexylamine solvate'
_symmetry_cell_setting           monoclinic
_symmetry_space_group_name_H-M   'P 21/n'
_symmetry_Int_Tables_number      14
_space_group_name_Hall           '-P 2yn'
loop_
_symmetry_equiv_pos_site_id
_symmetry_equiv_pos_as_xyz
1 x,y,z
2 1/2-x,1/2+y,1/2-z
3 -x,-y,-z
4 1/2+x,1/2-y,1/2+z
_cell_length_a                   9.6765(19)
_cell_length_b                   11.311(2)
_cell_length_c                   26.025(5)
_cell_angle_alpha                90
_cell_angle_beta                 92.57(3)
_cell_angle_gamma                90
_cell_volume                     2845.59
_exptl_crystal_colour            colorless
_exptl_crystal_description       prism
_cell_formula_units_Z            4
loop_
_atom_site_label
_atom_site_type_symbol
_atom_site_fract_x
_atom_site_fract_y
_atom_site_fract_z
Cl1 Cl 1.73193(4) 0.07588(4) 0.384440(14)
Cl2 Cl 1.26471(4) 0.04619(4) 0.114151(14)
O1 O 1.42969(10) -0.11687(8) 0.18946(4)
O2 O 1.56452(10) 0.23891(8) 0.30903(4)
C1 C 1.55774(13) 0.02695(12) 0.30021(5)
C2 C 1.39421(13) -0.02128(11) 0.22198(5)
C3 C 1.53826(13) 0.16740(12) 0.22239(5)
C4 C 1.60162(13) 0.14370(11) 0.27657(5)
C5 C 1.45823(13) -0.04526(11) 0.27593(5)
C6 C 1.43853(13) 0.09532(12) 0.19827(5)
C7 C 1.24171(14) -0.02363(12) 0.22631(5)
C8 C 1.75418(14) 0.14677(12) 0.27253(5)
C9 C 1.61005(14) -0.00847(13) 0.34936(5)
C10 C 1.41251(15) -0.14795(12) 0.30013(6)
C11 C 1.56628(16) -0.11055(14) 0.37274(6)
C13 C 1.42995(16) 0.23285(14) 0.12564(6)
C15 C 1.87517(16) 0.15657(14) 0.26756(6)
C16 C 1.38628(14) 0.13046(12) 0.14917(5)
C17 C 1.12131(16) -0.03301(14) 0.23174(6)
C18 C 1.58386(15) 0.26998(13) 0.19824(6)
C19 C 1.46618(16) -0.18052(14) 0.34797(6)
C20 C 1.53014(16) 0.30261(14) 0.15040(6)
H1 H 1.3417(16) -0.1984(15) 0.2830(6)
H3 H 1.6549(18) 0.3217(16) 0.2156(7)
H4 H 1.519(2) -0.1063(18) 0.1840(8)
H6 H 1.5627(17) 0.3736(16) 0.1348(7)
H10 H 1.6034(18) -0.1329(16) 0.4066(7)
H12 H 1.4322(18) -0.2519(17) 0.3635(7)
H18 H 1.029(2) -0.0466(18) 0.2345(8)
H26 H 1.474(2) 0.2292(19) 0.3147(8)
H27 H 1.975(2) 0.1682(19) 0.2653(8)
H28 H 1.3947(19) 0.2522(17) 0.0911(7)
N1 N 0.79974(13) 0.42169(12) 0.32597(5)
C12 C 0.78188(14) 0.48554(13) 0.37463(5)
C21 C 0.63217(15) 0.52040(15) 0.38254(6)
C22 C 0.83921(18) 0.41114(17) 0.41933(6)
C24 C 0.61853(17) 0.58478(15) 0.43348(6)
C25 C 0.82407(19) 0.4743(2) 0.47057(7)
C27 C 0.67396(17) 0.50920(18) 0.47815(6)
H2 H 0.8381(16) 0.5611(15) 0.3734(6)
H7 H 0.939(2) 0.3938(17) 0.4140(7)
H8 H 0.7899(18) 0.3340(16) 0.4194(7)
H9 H 0.7636(19) 0.4658(16) 0.3003(7)
H13 H 0.619(2) 0.4316(18) 0.4796(8)
H14 H 0.749(2) 0.3598(18) 0.3255(7)
H15 H 0.5766(19) 0.4453(17) 0.3818(7)
H19 H 0.6004(18) 0.5678(16) 0.3546(7)
H20 H 0.6748(19) 0.6605(18) 0.4321(7)
H21 H 0.5188(19) 0.6067(16) 0.4383(7)
H24 H 0.858(2) 0.4220(19) 0.5015(8)
H25 H 0.666(2) 0.5553(18) 0.5113(8)
H31 H 0.885(2) 0.552(2) 0.4717(9)
N2 N 1.29471(12) 0.19407(12) 0.32788(5)
C14 C 1.28062(14) 0.13542(13) 0.37800(5)
C23 C 1.35865(17) 0.20614(15) 0.41970(6)
C26 C 1.12994(17) 0.11778(18) 0.39144(7)
C28 C 1.3466(2) 0.14891(19) 0.47252(7)
C29 C 1.1183(2) 0.0615(2) 0.44440(8)
C30 C 1.1963(2) 0.1333(2) 0.48570(7)
H5 H 1.3266(17) 0.0569(15) 0.3758(6)
H11 H 1.0860(19) 0.1947(18) 0.3899(7)
H16 H 1.3159(18) 0.2860(17) 0.4197(7)
H17 H 1.2415(19) 0.2572(18) 0.3272(7)
H22 H 1.394(2) 0.0716(18) 0.4739(7)
H23 H 1.2560(19) 0.1469(16) 0.3030(7)
H29 H 1.394(2) 0.1959(19) 0.4978(8)
H30 H 1.0875(19) 0.0686(17) 0.3644(7)
H32 H 1.458(2) 0.2160(18) 0.4099(8)
H33 H 1.192(2) 0.096(2) 0.5192(9)
H34 H 1.161(2) -0.018(2) 0.4445(8)
H35 H 1.022(2) 0.055(2) 0.4518(9)
H36 H 1.155(2) 0.214(2) 0.4880(9)
loop_
_geom_bond_atom_site_label_1
_geom_bond_atom_site_label_2
_geom_bond_site_symmetry_1
_geom_bond_site_symmetry_2
Cl1 C9 1_555 1_555
Cl2 C16 1_555 1_555
O1 C2 1_555 1_555
O2 C4 1_555 1_555
C1 C4 1_555 1_555
N1 C12 1_555 1_555
C2 C5 1_555 1_555
C3 C4 1_555 1_555
C4 C8 1_555 1_555
C5 C1 1_555 1_555
C6 C2 1_555 1_555
N2 C14 1_555 1_555
C7 C2 1_555 1_555
C8 C15 1_555 1_555
C9 C1 1_555 1_555
C10 C5 1_555 1_555
C11 C9 1_555 1_555
C12 C21 1_555 1_555
C13 C16 1_555 1_555
C14 C23 1_555 1_555
C15 H27 1_555 1_555
C16 C6 1_555 1_555
C17 C7 1_555 1_555
C18 C3 1_555 1_555
C19 C10 1_555 1_555
C20 C13 1_555 1_555
C21 C24 1_555 1_555
C22 C12 1_555 1_555
C23 C28 1_555 1_555
C24 C27 1_555 1_555
C25 C22 1_555 1_555
C26 C14 1_555 1_555
C27 C25 1_555 1_555
C28 C30 1_555 1_555
C29 C26 1_555 1_555
C30 C29 1_555 1_555
H1 C10 1_555 1_555
H2 C12 1_555 1_555
H3 C18 1_555 1_555
H4 O1 1_555 1_555
H5 C14 1_555 1_555
H6 C20 1_555 1_555
H7 C22 1_555 1_555
H8 C22 1_555 1_555
H9 N1 1_555 1_555
H10 C11 1_555 1_555
H11 C26 1_555 1_555
H12 C19 1_555 1_555
H13 C27 1_555 1_555
H14 N1 1_555 1_555
H15 C21 1_555 1_555
H16 C23 1_555 1_555
H17 N2 1_555 1_555
H18 C17 1_555 1_555
H19 C21 1_555 1_555
H20 C24 1_555 1_555
H21 C24 1_555 1_555
H22 C28 1_555 1_555
H23 N2 1_555 1_555
H24 C25 1_555 1_555
H25 C27 1_555 1_555
H26 O2 1_555 1_555
H28 C13 1_555 1_555
H29 C28 1_555 1_555
H30 C26 1_555 1_555
H31 C25 1_555 1_555
H32 C23 1_555 1_555
H33 C30 1_555 1_555
H34 C29 1_555 1_555
H35 C29 1_555 1_555
H36 C30 1_555 1_555
C3 C6 1_555 1_555
C11 C19 1_555 1_555
C18 C20 1_555 1_555

#END
