
#######################################################################
#
#                 Cambridge Crystallographic Data Centre
#                                CCDC 
#
#######################################################################
#
# If this CIF has been generated from an entry in the Cambridge 
# Structural Database, then it will include bibliographic, chemical, 
# crystal, experimental, refinement or atomic coordinate data resulting 
# from the CCDC's data processing and validation procedures.
#
#######################################################################

data_LERWUB
_chemical_formula_moiety         'C18 H10 Cl2 O2,2(C8 H19 N1)'
_chemical_name_systematic        
'trans-1,5-Dichloro-9,10-diethynyl-9,10-dihydroanthracene-9,10-diol 1,1,3,3-tetramethylbutylamine solvate'
_symmetry_cell_setting           monoclinic
_symmetry_space_group_name_H-M   'P 21/c'
_symmetry_Int_Tables_number      14
_space_group_name_Hall           '-P 2ybc'
loop_
_symmetry_equiv_pos_site_id
_symmetry_equiv_pos_as_xyz
1 x,y,z
2 -x,1/2+y,1/2-z
3 -x,-y,-z
4 x,1/2-y,1/2+z
_cell_length_a                   14.877(3)
_cell_length_b                   8.7544(18)
_cell_length_c                   13.476(3)
_cell_angle_alpha                90
_cell_angle_beta                 113.52(3)
_cell_angle_gamma                90
_cell_volume                     1609.29
_exptl_crystal_colour            colorless
_exptl_crystal_description       plate
_cell_formula_units_Z            2
loop_
_atom_site_label
_atom_site_type_symbol
_atom_site_fract_x
_atom_site_fract_y
_atom_site_fract_z
Cl1 Cl 0.25709(5) 0.54709(8) -0.28298(6)
O1 O 0.35817(14) 0.3071(2) -0.11388(17)
C1 C 0.41471(19) 0.5697(3) -0.0866(2)
C2 C 0.3651(2) 0.8752(3) -0.0648(2)
C3 C 0.43928(19) 0.4040(3) -0.0991(2)
C4 C 0.4456(2) 0.8085(3) 0.0136(2)
C5 C 0.4621(2) 0.3909(3) -0.1968(2)
C6 C 0.3073(2) 0.7909(3) -0.1551(2)
C7 C 0.47031(19) 0.6561(3) 0.0041(2)
C8 C 0.3325(2) 0.6412(3) -0.1662(2)
C9 C 0.4876(2) 0.3799(3) -0.2694(2)
H3 H 0.507(3) 0.371(5) -0.324(3)
H4 H 0.246(2) 0.830(4) -0.209(3)
H16 H 0.349(2) 0.974(4) -0.059(3)
H17 H 0.489(3) 0.862(5) 0.085(3)
H18 H 0.344(3) 0.319(5) -0.054(3)
Cl1B Cl 0.74291(5) 0.45291(8) 0.28298(6)
O1B O 0.64183(14) 0.6929(2) 0.11388(17)
C1B C 0.58529(19) 0.4303(3) 0.0866(2)
C2B C 0.6349(2) 0.1248(3) 0.0648(2)
C3B C 0.56072(19) 0.5960(3) 0.0991(2)
C4B C 0.5544(2) 0.1915(3) -0.0136(2)
C5B C 0.5379(2) 0.6091(3) 0.1968(2)
C6B C 0.6927(2) 0.2091(3) 0.1551(2)
C7B C 0.52969(19) 0.3439(3) -0.0041(2)
C8B C 0.6675(2) 0.3588(3) 0.1662(2)
C9B C 0.5124(2) 0.6201(3) 0.2694(2)
H3B H 0.493(3) 0.629(5) 0.324(3)
H4B H 0.754(2) 0.170(4) 0.209(3)
H16B H 0.651(2) 0.026(4) 0.059(3)
H17B H 0.511(3) 0.138(5) -0.085(3)
H18B H 0.656(3) 0.681(5) 0.054(3)
N1 N 0.30904(19) 0.3337(3) 0.0618(2)
C10 C 0.2195(2) 0.4198(3) 0.0533(2)
C11 C 0.1359(2) 0.3925(3) -0.0577(2)
C12 C 0.1947(2) 0.3831(3) 0.1505(2)
C13 C 0.0774(2) 0.2407(3) -0.0914(2)
C14 C 0.2475(2) 0.5892(3) 0.0585(3)
C15 C 0.0116(3) 0.2584(4) -0.2128(3)
C16 C 0.0108(3) 0.2140(4) -0.0316(3)
C17 C 0.1443(3) 0.1029(4) -0.0784(3)
H1 H 0.310(2) 0.612(4) 0.127(3)
H2 H 0.164(2) 0.409(3) -0.108(2)
H5 H 0.184(2) 0.079(4) 0.004(3)
H6 H 0.251(3) 0.406(4) 0.215(3)
H7 H 0.137(3) 0.427(4) 0.145(3)
H8 H 0.084(2) 0.472(4) -0.069(3)
H9 H 0.047(2) 0.190(4) 0.045(3)
H10 H 0.267(2) 0.610(4) -0.005(3)
H11 H 0.194(3) 0.114(4) -0.112(3)
H12 H 0.361(3) 0.364(4) 0.116(3)
H13 H 0.179(2) 0.272(4) 0.158(3)
H14 H 0.054(3) 0.277(5) -0.249(3)
H15 H -0.041(3) 0.137(5) -0.070(3)
H19 H 0.194(3) 0.646(4) 0.057(3)
H20 H 0.304(3) 0.244(5) 0.078(3)
H21 H -0.037(3) 0.345(5) -0.229(3)
H22 H -0.031(3) 0.171(5) -0.244(4)
H23 H -0.025(3) 0.307(5) -0.027(3)
H24 H 0.102(3) 0.021(5) -0.112(3)
loop_
_geom_bond_atom_site_label_1
_geom_bond_atom_site_label_2
_geom_bond_site_symmetry_1
_geom_bond_site_symmetry_2
Cl1 C8 1_555 1_555
O1 C3 1_555 1_555
C1 C3 1_555 1_555
C2 C4 1_555 1_555
C3 C5 1_555 1_555
C4 C7 1_555 1_555
C5 C9 1_555 1_555
C6 C2 1_555 1_555
C7 C1 1_555 1_555
C8 C1 1_555 1_555
C9 H3 1_555 1_555
N1 C10 1_555 1_555
C10 C11 1_555 1_555
C11 C13 1_555 1_555
C12 C10 1_555 1_555
C13 C15 1_555 1_555
C14 C10 1_555 1_555
C15 H14 1_555 1_555
C16 C13 1_555 1_555
C17 C13 1_555 1_555
H1 C14 1_555 1_555
H2 C11 1_555 1_555
H4 C6 1_555 1_555
H5 C17 1_555 1_555
H6 C12 1_555 1_555
H7 C12 1_555 1_555
H8 C11 1_555 1_555
H9 C16 1_555 1_555
H10 C14 1_555 1_555
H11 C17 1_555 1_555
H12 N1 1_555 1_555
H13 C12 1_555 1_555
H15 C16 1_555 1_555
H16 C2 1_555 1_555
H17 C4 1_555 1_555
H18 O1 1_555 1_555
H19 C14 1_555 1_555
H20 N1 1_555 1_555
H21 C15 1_555 1_555
H22 C15 1_555 1_555
H23 C16 1_555 1_555
H24 C17 1_555 1_555
Cl1B C8B 1_555 1_555
O1B C3B 1_555 1_555
C1B C3B 1_555 1_555
C2B C4B 1_555 1_555
C3B C7 1_555 1_555
C4B C7B 1_555 1_555
C5B C3B 1_555 1_555
C6B C2B 1_555 1_555
C7B C3 1_555 1_555
C8B C1B 1_555 1_555
C9B C5B 1_555 1_555
H3B C9B 1_555 1_555
H4B C6B 1_555 1_555
H16B C2B 1_555 1_555
H17B C4B 1_555 1_555
H18B O1B 1_555 1_555
C6 C8 1_555 1_555
C1B C7B 1_555 1_555
C6B C8B 1_555 1_555

#END
