
#######################################################################
#
#                 Cambridge Crystallographic Data Centre
#                                CCDC 
#
#######################################################################
#
# If this CIF has been generated from an entry in the Cambridge 
# Structural Database, then it will include bibliographic, chemical, 
# crystal, experimental, refinement or atomic coordinate data resulting 
# from the CCDC's data processing and validation procedures.
#
#######################################################################

data_LERWIP
_chemical_formula_moiety         'C18 H10 Cl2 O2,2(C6 H15 N1)'
_chemical_name_systematic        
'trans-1,5-Dichloro-9,10-diethynyl-9,10-dihydroanthracene-9,10-diol di-n-propylamine solvate'
_symmetry_cell_setting           monoclinic
_symmetry_space_group_name_H-M   'P 21/c'
_symmetry_Int_Tables_number      14
_space_group_name_Hall           '-P 2ybc'
loop_
_symmetry_equiv_pos_site_id
_symmetry_equiv_pos_as_xyz
1 x,y,z
2 -x,1/2+y,1/2-z
3 -x,-y,-z
4 x,1/2-y,1/2+z
_cell_length_a                   9.1961(2)
_cell_length_b                   8.8730(2)
_cell_length_c                   36.8668(9)
_cell_angle_alpha                90
_cell_angle_beta                 91.6210(10)
_cell_angle_gamma                90
_cell_volume                     3007.02
_exptl_crystal_colour            colorless
_exptl_crystal_description       needle
_cell_formula_units_Z            4
loop_
_atom_site_label
_atom_site_type_symbol
_atom_site_fract_x
_atom_site_fract_y
_atom_site_fract_z
C1 C 0.6009(3) 0.1067(3) 0.43566(8)
O1 O 0.6696(2) -0.1029(2) 0.37423(6)
H1 H 0.774(5) -0.124(4) 0.3829(11)
Cl1 Cl 0.45713(9) -0.02101(9) 0.43368(2)
C2 C 0.6273(3) 0.1766(4) 0.46859(8)
H2 H 0.573(3) 0.152(3) 0.4892(8)
O2 O 0.8720(3) 0.4555(2) 0.37406(6)
Cl2 Cl 1.08715(9) 0.37945(9) 0.31406(2)
C3 C 0.7383(4) 0.2792(4) 0.47213(8)
H3 H 0.755(4) 0.316(4) 0.4965(11)
C4 C 0.8210(3) 0.3138(3) 0.44283(8)
H4 H 0.901(4) 0.382(4) 0.4459(9)
C5 C 0.9489(3) 0.2449(3) 0.31254(7)
C6 C 0.9275(4) 0.1705(4) 0.27999(8)
H5 H 0.990(4) 0.201(4) 0.2593(9)
C7 C 0.8193(4) 0.0640(4) 0.27687(9)
H6 H 0.798(4) 0.028(4) 0.2544(11)
C8 C 0.7349(4) 0.0313(4) 0.30586(8)
H7 H 0.659(4) -0.046(4) 0.3039(8)
C9 C 0.6574(3) 0.0548(3) 0.36917(7)
C10 C 0.8917(3) 0.2976(3) 0.37870(7)
C11 C 0.6851(3) 0.1373(3) 0.40509(7)
C12 C 0.7949(3) 0.2441(3) 0.40946(7)
C13 C 0.7576(3) 0.1049(3) 0.33901(7)
C14 C 0.8657(3) 0.2133(3) 0.34301(7)
C15 C 0.5068(3) 0.0895(3) 0.35573(8)
C16 C 0.3921(4) 0.1279(4) 0.34372(9)
C17 C 1.0446(3) 0.2711(3) 0.39174(8)
C18 C 1.1598(4) 0.2389(5) 0.40344(10)
H36 H 0.305(5) 0.157(4) 0.3350(11)
H37 H 1.243(5) 0.219(5) 0.4089(11)
H38 H 0.765(4) 0.479(4) 0.3686(10)
N1 N 0.3989(4) 0.4555(5) 0.64680(10)
C19 C 0.5087(5) 0.4732(6) 0.62073(13)
H8 H 0.5387 0.5804 0.6213
H9 H 0.5939 0.4136 0.6293
C20 C 0.6093(7) 0.4528(6) 0.55955(13)
H10 H 0.5770 0.4227 0.5351
H11 H 0.6902 0.3884 0.5678
H12 H 0.6414 0.5581 0.5593
C21 C 0.4325(5) 0.4761(7) 0.68301(13)
H13 H 0.4639 0.5822 0.6861
H14 H 0.5185 0.4126 0.6889
C22 C 0.3269(6) 0.4466(7) 0.71021(12)
H15 H 0.2452 0.5170 0.7051
H16 H 0.2888 0.3442 0.7051
C23 C 0.4823(7) 0.4361(8) 0.58560(17)
H17 H 0.4007 0.4991 0.5763
H18 H 0.4492 0.3300 0.5847
C24 C 0.3544(8) 0.4528(11) 0.74735(16)
H19 H 0.2659 0.4263 0.7601
H20 H 0.3847 0.5551 0.7542
H21 H 0.4320 0.3815 0.7540
H40 H 0.385(8) 0.348(8) 0.6485(19)
N2 N 0.9311(4) 0.7980(4) 0.40105(9)
C25 C 1.0550(5) 0.8311(5) 0.37899(11)
H22 H 1.1429 0.7858 0.3907
H23 H 1.0695 0.9417 0.3785
C26 C 1.0422(5) 0.7768(5) 0.34161(12)
H24 H 0.9554 0.8238 0.3298
H25 H 1.0257 0.6666 0.3421
C27 C 0.9462(5) 0.8325(6) 0.43913(11)
H26 H 0.9545 0.9432 0.4419
H27 H 1.0379 0.7873 0.4487
C28 C 1.1725(5) 0.8085(6) 0.31865(12)
H28 H 1.1546 0.7685 0.2941
H29 H 1.2588 0.7599 0.3296
H30 H 1.1885 0.9175 0.3173
C29 C 0.8258(6) 0.7791(6) 0.46131(12)
H31 H 0.7341 0.8196 0.4505
H32 H 0.8213 0.6680 0.4591
C30 C 0.8293(6) 0.8165(7) 0.50004(12)
H33 H 0.7430 0.7747 0.5114
H34 H 0.8302 0.9263 0.5030
H35 H 0.9171 0.7736 0.5117
H39 H 0.938(6) 0.703(7) 0.4030(16)
loop_
_geom_bond_atom_site_label_1
_geom_bond_atom_site_label_2
_geom_bond_site_symmetry_1
_geom_bond_site_symmetry_2
C1 Cl1 1_555 1_555
O1 H1 1_555 1_555
C2 C1 1_555 1_555
H2 C2 1_555 1_555
O2 C10 1_555 1_555
Cl2 C5 1_555 1_555
C3 C2 1_555 1_555
H3 C3 1_555 1_555
C4 C3 1_555 1_555
H4 C4 1_555 1_555
C5 C6 1_555 1_555
C6 H5 1_555 1_555
C7 C6 1_555 1_555
H6 C7 1_555 1_555
C8 C7 1_555 1_555
H7 C8 1_555 1_555
C9 O1 1_555 1_555
C10 C12 1_555 1_555
C11 C1 1_555 1_555
C12 C4 1_555 1_555
C13 C8 1_555 1_555
C14 C5 1_555 1_555
C15 C9 1_555 1_555
C16 C15 1_555 1_555
C17 C10 1_555 1_555
C18 C17 1_555 1_555
N1 C19 1_555 1_555
C19 H8 1_555 1_555
H9 C19 1_555 1_555
C20 H10 1_555 1_555
H11 C20 1_555 1_555
H12 C20 1_555 1_555
C21 N1 1_555 1_555
H13 C21 1_555 1_555
H14 C21 1_555 1_555
C22 C21 1_555 1_555
H15 C22 1_555 1_555
H16 C22 1_555 1_555
C23 C19 1_555 1_555
H17 C23 1_555 1_555
H18 C23 1_555 1_555
C24 C22 1_555 1_555
H19 C24 1_555 1_555
H20 C24 1_555 1_555
H21 C24 1_555 1_555
N2 C25 1_555 1_555
C25 H22 1_555 1_555
H23 C25 1_555 1_555
C26 C25 1_555 1_555
H24 C26 1_555 1_555
H25 C26 1_555 1_555
C27 N2 1_555 1_555
H26 C27 1_555 1_555
H27 C27 1_555 1_555
C28 C26 1_555 1_555
H28 C28 1_555 1_555
H29 C28 1_555 1_555
H30 C28 1_555 1_555
C29 C27 1_555 1_555
H31 C29 1_555 1_555
H32 C29 1_555 1_555
C30 C29 1_555 1_555
H33 C30 1_555 1_555
H34 C30 1_555 1_555
H35 C30 1_555 1_555
H36 C16 1_555 1_555
H37 C18 1_555 1_555
H38 O2 1_555 1_555
H39 N2 1_555 1_555
H40 N1 1_555 1_555
C9 C11 1_555 1_555
C9 C13 1_555 1_555
C10 C14 1_555 1_555
C11 C12 1_555 1_555
C13 C14 1_555 1_555
C20 C23 1_555 1_555

#END
