
#######################################################################
#
#                 Cambridge Crystallographic Data Centre
#                                CCDC 
#
#######################################################################
#
# If this CIF has been generated from an entry in the Cambridge 
# Structural Database, then it will include bibliographic, chemical, 
# crystal, experimental, refinement or atomic coordinate data resulting 
# from the CCDC's data processing and validation procedures.
#
#######################################################################

data_LERXOY
_chemical_formula_moiety         'C10 H12 Cl1 F3 N2 O1 S1'
_chemical_name_systematic        
2-((3-chloro-3-methylbutyl)sulfanyl)-6-(trifluoromethyl)pyrimidin-4(3H)-one
_symmetry_cell_setting           monoclinic
_symmetry_space_group_name_H-M   'C 2/c'
_symmetry_Int_Tables_number      15
_space_group_name_Hall           '-C 2yn'
loop_
_symmetry_equiv_pos_site_id
_symmetry_equiv_pos_as_xyz
1 x,y,z
2 -x,y,1/2-z
3 1/2+x,1/2+y,z
4 1/2-x,1/2+y,1/2-z
5 -x,-y,-z
6 x,-y,1/2+z
7 1/2-x,1/2-y,-z
8 1/2+x,1/2-y,1/2+z
_cell_length_a                   24.4570(16)
_cell_length_b                   6.2866(3)
_cell_length_c                   17.7838(13)
_cell_angle_alpha                90
_cell_angle_beta                 107.115(8)
_cell_angle_gamma                90
_cell_volume                     2613.2
_exptl_crystal_colour            colorless
_exptl_crystal_description       plank
_cell_formula_units_Z            8
loop_
_atom_site_label
_atom_site_type_symbol
_atom_site_fract_x
_atom_site_fract_y
_atom_site_fract_z
Cl1 Cl 0.163289(19) 0.10234(6) 0.22223(3)
S1 S 0.241056(17) 0.73552(6) 0.37451(2)
F1 F 0.00879(5) 0.86142(18) 0.44563(7)
F2 F 0.01580(5) 0.7825(2) 0.33148(6)
F3 F 0.04596(5) 0.56486(17) 0.42713(7)
O1 O 0.18705(5) 1.30466(18) 0.52496(7)
N1 N 0.13712(6) 0.7665(2) 0.39552(7)
N2 N 0.20376(6) 1.0355(2) 0.44941(7)
H1 H 0.2371(9) 1.089(3) 0.4556(11)
C1 C 0.04277(7) 0.7703(3) 0.40845(10)
C2 C 0.18777(6) 0.8507(2) 0.40828(8)
C3 C 0.07865(8) 0.3268(3) 0.25334(11)
H2 H 0.0540 0.2104 0.2303
H3 H 0.0565 0.4548 0.2485
H4 H 0.0969 0.2976 0.3080
C4 C 0.16933(7) 1.1434(2) 0.48560(9)
C5 C 0.11322(7) 1.0523(3) 0.47189(9)
H5 H 0.0858(9) 1.125(3) 0.4917(12)
C6 C 0.10099(7) 0.8730(2) 0.42761(9)
C7 C 0.09684(8) 0.3893(3) 0.12366(10)
H6 H 0.1262 0.3915 0.0978
H7 H 0.0768 0.5225 0.1152
H8 H 0.0705 0.2759 0.1025
C8 C 0.12376(7) 0.3546(2) 0.21106(9)
C9 C 0.16612(7) 0.5325(2) 0.24561(9)
H9 H 0.1431(8) 0.661(3) 0.2430(10)
H10 H 0.1889(8) 0.562(3) 0.2121(10)
C10 C 0.20444(7) 0.4957(2) 0.32937(9)
H11 H 0.2355(9) 0.397(3) 0.3316(11)
H12 H 0.1828(8) 0.443(2) 0.3629(10)
loop_
_geom_bond_atom_site_label_1
_geom_bond_atom_site_label_2
_geom_bond_site_symmetry_1
_geom_bond_site_symmetry_2
Cl1 C8 1_555 1_555
S1 C2 1_555 1_555
F1 C1 1_555 1_555
F2 C1 1_555 1_555
F3 C1 1_555 1_555
O1 C4 1_555 1_555
N1 C2 1_555 1_555
N2 H1 1_555 1_555
C1 C6 1_555 1_555
C2 N2 1_555 1_555
C3 H2 1_555 1_555
H3 C3 1_555 1_555
H4 C3 1_555 1_555
C4 N2 1_555 1_555
C5 C4 1_555 1_555
H5 C5 1_555 1_555
C6 N1 1_555 1_555
C7 H6 1_555 1_555
H7 C7 1_555 1_555
H8 C7 1_555 1_555
C8 C3 1_555 1_555
C9 C8 1_555 1_555
H9 C9 1_555 1_555
H10 C9 1_555 1_555
C10 S1 1_555 1_555
H11 C10 1_555 1_555
H12 C10 1_555 1_555
C5 C6 1_555 1_555
C7 C8 1_555 1_555
C9 C10 1_555 1_555

#END
