
#######################################################################
#
#                 Cambridge Crystallographic Data Centre
#                                CCDC 
#
#######################################################################
#
# If this CIF has been generated from an entry in the Cambridge 
# Structural Database, then it will include bibliographic, chemical, 
# crystal, experimental, refinement or atomic coordinate data resulting 
# from the CCDC's data processing and validation procedures.
#
#######################################################################

data_LERXOX
_chemical_formula_moiety         'C10 H13 Cl1 N2 O1'
_chemical_name_systematic        
2-Chloro-N-methyl-N-(2-(methylamino)phenyl)acetamide
_symmetry_cell_setting           monoclinic
_symmetry_space_group_name_H-M   'P 21/n'
_symmetry_Int_Tables_number      14
_space_group_name_Hall           '-P 2yn'
loop_
_symmetry_equiv_pos_site_id
_symmetry_equiv_pos_as_xyz
1 x,y,z
2 1/2-x,1/2+y,1/2-z
3 -x,-y,-z
4 1/2+x,1/2-y,1/2+z
_cell_length_a                   9.2483(18)
_cell_length_b                   6.6630(13)
_cell_length_c                   17.622(3)
_cell_angle_alpha                90
_cell_angle_beta                 94.377(2)
_cell_angle_gamma                90
_cell_volume                     1082.73
_exptl_crystal_colour            colorless
_exptl_crystal_description       block
_cell_formula_units_Z            4
loop_
_atom_site_label
_atom_site_type_symbol
_atom_site_fract_x
_atom_site_fract_y
_atom_site_fract_z
C1 C 1.0326(2) 0.5640(3) 0.20070(11)
C2 C 0.9122(2) 0.6930(3) 0.19791(11)
C3 C 0.8956(3) 0.8109(3) 0.26283(13)
H1 H 0.8181 0.8998 0.2633
C4 C 0.9928(3) 0.7961(4) 0.32578(13)
H2 H 0.9793 0.8755 0.3681
C5 C 1.1092(3) 0.6675(4) 0.32793(13)
H3 H 1.1733 0.6584 0.3711
C6 C 1.1285(2) 0.5519(4) 0.26424(12)
H4 H 1.2072 0.4650 0.2644
C7 C 0.6897(3) 0.8227(4) 0.12831(16)
H5 H 0.6262 0.7888 0.1670
H6 H 0.6398 0.8034 0.0791
H7 H 0.7188 0.9605 0.1340
C8 C 0.9806(3) 0.2351(4) 0.14078(16)
H8 H 0.9882 0.1661 0.0934
H9 H 0.8802 0.2518 0.1497
H10 H 1.0281 0.1580 0.1814
C9 C 1.1273(2) 0.4748(4) 0.07858(11)
C10 C 1.1969(3) 0.6811(4) 0.08199(16)
H11 H 1.2469 0.7003 0.1319
H12 H 1.1217 0.7823 0.0753
Cl1 Cl 1.31970(9) 0.71410(17) 0.01279(4)
N1 N 0.8153(2) 0.6964(3) 0.13566(11)
H13 H 0.8305 0.6177 0.0984
N2 N 1.04930(19) 0.4308(3) 0.13748(9)
O1 O 1.14232(19) 0.3589(3) 0.02587(9)
loop_
_geom_bond_atom_site_label_1
_geom_bond_atom_site_label_2
_geom_bond_site_symmetry_1
_geom_bond_site_symmetry_2
C1 C2 1_555 1_555
C2 C3 1_555 1_555
C3 H1 1_555 1_555
C4 C3 1_555 1_555
H2 C4 1_555 1_555
C5 C4 1_555 1_555
H3 C5 1_555 1_555
C6 C1 1_555 1_555
H4 C6 1_555 1_555
C7 H5 1_555 1_555
H6 C7 1_555 1_555
H7 C7 1_555 1_555
C8 H8 1_555 1_555
H9 C8 1_555 1_555
H10 C8 1_555 1_555
C9 C10 1_555 1_555
C10 H11 1_555 1_555
H12 C10 1_555 1_555
Cl1 C10 1_555 1_555
N1 C2 1_555 1_555
H13 N1 1_555 1_555
N2 C1 1_555 1_555
O1 C9 1_555 1_555
C5 C6 1_555 1_555
C7 N1 1_555 1_555
C8 N2 1_555 1_555
C9 N2 1_555 1_555

#END
