
#######################################################################
#
#                 Cambridge Crystallographic Data Centre
#                                CCDC 
#
#######################################################################
#
# If this CIF has been generated from an entry in the Cambridge 
# Structural Database, then it will include bibliographic, chemical, 
# crystal, experimental, refinement or atomic coordinate data resulting 
# from the CCDC's data processing and validation procedures.
#
#######################################################################

data_LERZIS
_chemical_formula_moiety         'C20 H33 N6 O3 S1 1+,Cl1 1-,4(H2 O1)'
_chemical_name_systematic        
'1-(8-Oxy-5-(N,N-dimethylaminosulfonyl)quinolin-2-ylmethyl)-1,7-diaza-4,10-diazoniacyclododecane chloride tetrahydrate'
_symmetry_cell_setting           monoclinic
_symmetry_space_group_name_H-M   'P 21/c'
_symmetry_Int_Tables_number      14
_space_group_name_Hall           '-P 2ybc'
loop_
_symmetry_equiv_pos_site_id
_symmetry_equiv_pos_as_xyz
1 x,y,z
2 -x,1/2+y,1/2-z
3 -x,-y,-z
4 x,1/2-y,1/2+z
_cell_length_a                   18.029(20)
_cell_length_b                   10.785(11)
_cell_length_c                   13.913(16)
_cell_angle_alpha                90
_cell_angle_beta                 90.47(5)
_cell_angle_gamma                90
_cell_volume                     2705.19
_exptl_crystal_colour            yellow
_exptl_crystal_description       block
_cell_formula_units_Z            4
loop_
_atom_site_label
_atom_site_type_symbol
_atom_site_fract_x
_atom_site_fract_y
_atom_site_fract_z
Cl1 Cl 0.95905(3) 1.01564(5) 0.16807(5)
S1 S 0.38540(3) 0.85654(5) 0.33784(4)
O1 O 0.70560(6) 0.88246(11) 0.25093(10)
O2 O 0.35024(6) 0.90450(14) 0.25234(11)
O3 O 0.36288(6) 0.73765(12) 0.37311(11)
N1 N 0.77236(8) 0.52783(12) 0.41880(11)
N2 N 0.80511(8) 0.69415(13) 0.27013(11)
N3 N 0.82533(9) 0.49473(14) 0.13937(12)
N4 N 0.79878(8) 0.31277(13) 0.28673(11)
N5 N 0.66108(8) 0.69769(12) 0.36672(10)
N6 N 0.36498(9) 0.95523(14) 0.42270(12)
C1 C 0.81314(10) 0.64319(17) 0.44061(13)
C2 C 0.85596(11) 0.68619(18) 0.35400(14)
C3 C 0.84049(11) 0.71387(18) 0.17480(14)
C4 C 0.87837(11) 0.59769(18) 0.14100(14)
C5 C 0.86134(12) 0.37242(19) 0.13992(14)
C6 C 0.87246(10) 0.33060(18) 0.24259(14)
C7 C 0.79612(12) 0.30236(18) 0.39308(14)
C8 C 0.81837(11) 0.41970(18) 0.44413(13)
C9 C 0.70089(10) 0.52358(17) 0.46860(14)
C10 C 0.64334(10) 0.61460(16) 0.43178(12)
C11 C 0.57058(10) 0.60844(17) 0.46909(13)
C12 C 0.51691(10) 0.68386(16) 0.43447(12)
C13 C 0.48167(9) 0.85671(16) 0.31795(12)
C14 C 0.50803(11) 0.94497(18) 0.25446(13)
C15 C 0.58281(10) 0.95574(17) 0.23230(13)
C16 C 0.63509(10) 0.87393(16) 0.26923(12)
C17 C 0.60863(9) 0.77836(14) 0.33375(12)
C18 C 0.53301(9) 0.77277(16) 0.36203(12)
C19 C 0.37279(12) 1.0878(2) 0.39918(18)
C20 C 0.38899(12) 0.9228(2) 0.51996(16)
H1 H 0.8471 0.6289 0.4939
H2 H 0.7784 0.7072 0.4596
H3 H 0.8778 0.7668 0.3667
H4 H 0.8957 0.6282 0.3406
H5 H 0.7731 0.7567 0.2803
H6 H 0.7785 0.6236 0.2672
H7 H 0.8765 0.7804 0.1798
H8 H 0.8030 0.7383 0.1281
H9 H 0.8980 0.6106 0.0771
H10 H 0.9194 0.5779 0.1838
H11 H 0.7954 0.5013 0.0831
H12 H 0.9089 0.3774 0.1079
H13 H 0.8306 0.3130 0.1056
H14 H 0.9001 0.2535 0.2442
H15 H 0.9004 0.3925 0.2782
H16 H 0.7786 0.2436 0.2616
H17 H 0.7697 0.3768 0.2690
H18 H 0.8288 0.2359 0.4135
H19 H 0.7461 0.2803 0.4118
H20 H 0.8155 0.4060 0.5129
H21 H 0.8696 0.4382 0.4291
H22 H 0.7096 0.5396 0.5364
H23 H 0.6808 0.4404 0.4629
H24 H 0.5597 0.5522 0.5177
H25 H 0.4690 0.6776 0.4582
H26 H 0.4744 0.9991 0.2256
H27 H 0.5981 1.0192 0.1918
H28 H 0.4242 1.1108 0.4026
H29 H 0.3451 1.1364 0.4442
H30 H 0.3542 1.1026 0.3354
H31 H 0.3762 0.8381 0.5330
H32 H 0.3648 0.9760 0.5653
H33 H 0.4417 0.9331 0.5255
O4 O 0.78505(9) 0.96037(16) 0.42984(12)
H34 H 0.7550 0.9515 0.3722
H35 H 0.8342 0.9913 0.4133
O5 O 0.78631(8) 1.08328(12) 0.20263(12)
H36 H 0.7526 1.0153 0.2144
H37 H 0.8336 1.0429 0.1926
O6 O 0.92913(11) 1.0547(2) 0.39823(14)
H38 H 0.9406 1.0231 0.3333
H39 H 0.9592 1.1004 0.4451
O7 O 1.00799(10) 0.79599(16) 0.02144(13)
H40 H 1.0130 0.8515 -0.0332
H41 H 0.9867 0.8599 0.0621
loop_
_geom_bond_atom_site_label_1
_geom_bond_atom_site_label_2
_geom_bond_site_symmetry_1
_geom_bond_site_symmetry_2
S1 O2 1_555 1_555
O1 C16 1_555 1_555
O3 S1 1_555 1_555
O4 H34 1_555 1_555
O5 H36 1_555 1_555
O6 H38 1_555 1_555
O7 H40 1_555 1_555
N1 C1 1_555 1_555
N2 C2 1_555 1_555
N3 C4 1_555 1_555
N4 C6 1_555 1_555
N5 C10 1_555 1_555
N6 S1 1_555 1_555
C1 C2 1_555 1_555
C2 H3 1_555 1_555
C3 N2 1_555 1_555
C4 C3 1_555 1_555
C5 N3 1_555 1_555
C6 C5 1_555 1_555
C7 N4 1_555 1_555
C8 N1 1_555 1_555
C9 N1 1_555 1_555
C10 C9 1_555 1_555
C11 C10 1_555 1_555
C12 C11 1_555 1_555
C13 S1 1_555 1_555
C14 C13 1_555 1_555
C15 C14 1_555 1_555
C16 C15 1_555 1_555
C17 N5 1_555 1_555
C18 C12 1_555 1_555
C19 N6 1_555 1_555
C20 N6 1_555 1_555
H1 C1 1_555 1_555
H2 C1 1_555 1_555
H4 C2 1_555 1_555
H5 N2 1_555 1_555
H6 N2 1_555 1_555
H7 C3 1_555 1_555
H8 C3 1_555 1_555
H9 C4 1_555 1_555
H10 C4 1_555 1_555
H11 N3 1_555 1_555
H12 C5 1_555 1_555
H13 C5 1_555 1_555
H14 C6 1_555 1_555
H15 C6 1_555 1_555
H16 N4 1_555 1_555
H17 N4 1_555 1_555
H18 C7 1_555 1_555
H19 C7 1_555 1_555
H20 C8 1_555 1_555
H21 C8 1_555 1_555
H22 C9 1_555 1_555
H23 C9 1_555 1_555
H24 C11 1_555 1_555
H25 C12 1_555 1_555
H26 C14 1_555 1_555
H27 C15 1_555 1_555
H28 C19 1_555 1_555
H29 C19 1_555 1_555
H30 C19 1_555 1_555
H31 C20 1_555 1_555
H32 C20 1_555 1_555
H33 C20 1_555 1_555
H35 O4 1_555 1_555
H37 O5 1_555 1_555
H39 O6 1_555 1_555
H41 O7 1_555 1_555
C7 C8 1_555 1_555
C13 C18 1_555 1_555
C16 C17 1_555 1_555
C17 C18 1_555 1_555

#END
