
#######################################################################
#
#                 Cambridge Crystallographic Data Centre
#                                CCDC 
#
#######################################################################
#
# If this CIF has been generated from an entry in the Cambridge 
# Structural Database, then it will include bibliographic, chemical, 
# crystal, experimental, refinement or atomic coordinate data resulting 
# from the CCDC's data processing and validation procedures.
#
#######################################################################

data_LESCOE
_chemical_name_common            
'1-crotyl-3-methylimidazolium hexaflurophosphate'
_chemical_formula_moiety         'C8 H13 N2 1+,F6 P1 1-'
_chemical_name_systematic        
'1-(but-2-en-1-yl)-3-methyl-1H-imidazol-3-ium hexafluorophosphate'
_symmetry_cell_setting           triclinic
_symmetry_space_group_name_H-M   'P -1'
_symmetry_Int_Tables_number      2
_space_group_name_Hall           '-P 1'
loop_
_symmetry_equiv_pos_site_id
_symmetry_equiv_pos_as_xyz
1 x,y,z
2 -x,-y,-z
_cell_length_a                   8.4691(7)
_cell_length_b                   8.6715(7)
_cell_length_c                   9.3778(9)
_cell_angle_alpha                66.256(9)
_cell_angle_beta                 76.335(8)
_cell_angle_gamma                68.468(8)
_cell_volume                     583.24
_exptl_crystal_colour            colorless
_exptl_crystal_description       rectangular
_chemical_melting_point          '344.7 K'
_cell_formula_units_Z            2
loop_
_atom_site_label
_atom_site_type_symbol
_atom_site_fract_x
_atom_site_fract_y
_atom_site_fract_z
P1 P 0.26094(7) 0.54587(8) 0.73325(7)
F1 F 0.36041(18) 0.5017(2) 0.87688(17)
F2 F 0.16028(18) 0.5889(2) 0.59138(17)
F3 F 0.38104(18) 0.3639(2) 0.71124(19)
F4 F 0.39236(18) 0.6444(2) 0.61633(18)
F5 F 0.12919(18) 0.4474(2) 0.85211(17)
F6 F 0.14055(18) 0.7289(2) 0.7545(2)
N1 N 0.2387(2) 0.3559(3) 0.3001(2)
N2 N 0.2340(2) 0.0995(3) 0.3215(2)
C1 C 0.2214(3) 0.2640(3) 0.2240(3)
H1 H 0.2033 0.3077 0.119
C2 C 0.2602(3) 0.0875(4) 0.4660(3)
H2 H 0.2732 -0.0125 0.5564
C3 C 0.2249(3) 0.5442(3) 0.2353(3)
H3 H 0.2403 0.5826 0.123
H4 H 0.3113 0.5624 0.2716
H5 H 0.1143 0.611 0.2687
C4 C 0.2635(3) 0.2466(3) 0.4520(3)
H6 H 0.2796 0.2771 0.5307
C5 C 0.2182(3) -0.0462(3) 0.2875(3)
H7 H 0.1208 -0.0813 0.3524
H8 H 0.3195 -0.1474 0.3144
C6 C 0.1966(3) 0.0050(3) 0.1200(3)
H9 H 0.0966 0.0891 0.0803
C7 C 0.3177(3) -0.0674(3) 0.0263(3)
H10 H 0.4176 -0.1487 0.0686
C8 C 0.3055(4) -0.0284(4) -0.1401(3)
H11 H 0.3934 0.0218 -0.2044
H12 H 0.1958 0.0542 -0.1684
H13 H 0.3194 -0.1358 -0.1554
loop_
_geom_bond_atom_site_label_1
_geom_bond_atom_site_label_2
_geom_bond_site_symmetry_1
_geom_bond_site_symmetry_2
P1 F1 1_555 1_555
F2 P1 1_555 1_555
F3 P1 1_555 1_555
F4 P1 1_555 1_555
F5 P1 1_555 1_555
F6 P1 1_555 1_555
N1 C1 1_555 1_555
N2 C1 1_555 1_555
C1 H1 1_555 1_555
C2 N2 1_555 1_555
H2 C2 1_555 1_555
C3 N1 1_555 1_555
H3 C3 1_555 1_555
H4 C3 1_555 1_555
H5 C3 1_555 1_555
C4 N1 1_555 1_555
H6 C4 1_555 1_555
C5 N2 1_555 1_555
H7 C5 1_555 1_555
H8 C5 1_555 1_555
C6 C5 1_555 1_555
H9 C6 1_555 1_555
C7 C6 1_555 1_555
H10 C7 1_555 1_555
C8 C7 1_555 1_555
H11 C8 1_555 1_555
H12 C8 1_555 1_555
H13 C8 1_555 1_555
C2 C4 1_555 1_555

#END
