
#######################################################################
#
#                 Cambridge Crystallographic Data Centre
#                                CCDC 
#
#######################################################################
#
# If this CIF has been generated from an entry in the Cambridge 
# Structural Database, then it will include bibliographic, chemical, 
# crystal, experimental, refinement or atomic coordinate data resulting 
# from the CCDC's data processing and validation procedures.
#
#######################################################################

data_LESKEB
_chemical_name_common            
(E,E)-N,N'-Butane-2,3-diylidenebis(4-bromo-2-methylaniline)
_chemical_formula_moiety         'C18 H18 Br2 N2'
_chemical_name_systematic        
(E)-4-Bromo-N-((E)-3-((4-bromo-2-methylphenyl)imino)butan-2-ylidene)-2-methylaniline
_symmetry_cell_setting           orthorhombic
_symmetry_space_group_name_H-M   'P b c a'
_symmetry_Int_Tables_number      61
_space_group_name_Hall           '-P 2ac 2ab'
loop_
_symmetry_equiv_pos_site_id
_symmetry_equiv_pos_as_xyz
1 x,y,z
2 1/2-x,-y,1/2+z
3 1/2+x,1/2-y,-z
4 -x,1/2+y,1/2-z
5 -x,-y,-z
6 1/2+x,y,1/2-z
7 1/2-x,1/2+y,z
8 x,1/2-y,1/2+z
_cell_length_a                   13.625(13)
_cell_length_b                   7.495(7)
_cell_length_c                   17.029(17)
_cell_angle_alpha                90
_cell_angle_beta                 90
_cell_angle_gamma                90
_cell_volume                     1738.99
_exptl_crystal_colour            yellow
_exptl_crystal_description       block
_cell_formula_units_Z            4
_exptl_crystal_recrystallization_method cyclohexane/dichloromethane
loop_
_atom_site_label
_atom_site_type_symbol
_atom_site_fract_x
_atom_site_fract_y
_atom_site_fract_z
Br1 Br 0.30195(6) 0.23158(11) 0.40014(4)
C1 C 0.4677(5) 0.4420(8) 0.2188(4)
H1 H 0.5330 0.4728 0.2107
C2 C 0.4386(5) 0.3772(9) 0.2914(4)
H2 H 0.4836 0.3653 0.3321
C3 C 0.3421(5) 0.3308(8) 0.3021(4)
C4 C 0.2742(5) 0.3508(7) 0.2429(4)
H3 H 0.2092 0.3188 0.2518
C5 C 0.3017(5) 0.4189(7) 0.1692(3)
C6 C 0.3998(4) 0.4617(7) 0.1574(4)
C7 C 0.4845(4) 0.4520(8) 0.0370(4)
C8 C 0.5198(5) 0.2627(8) 0.0474(4)
H4 H 0.4765 0.2006 0.0825
H5 H 0.5850 0.2636 0.0689
H6 H 0.5205 0.2035 -0.0026
C9 C 0.2258(4) 0.4423(8) 0.1053(4)
H7 H 0.2541 0.5074 0.0623
H8 H 0.1706 0.5071 0.1257
H9 H 0.2045 0.3273 0.0872
N1 N 0.4299(4) 0.5380(6) 0.0839(3)
Br1D Br 0.69805(6) 0.76842(11) -0.40014(4)
C1D C 0.5323(5) 0.5580(8) -0.2188(4)
H1D H 0.4670 0.5272 -0.2107
C2D C 0.5614(5) 0.6228(9) -0.2914(4)
H2D H 0.5164 0.6347 -0.3321
C3D C 0.6579(5) 0.6692(8) -0.3021(4)
C4D C 0.7258(5) 0.6492(7) -0.2429(4)
H3D H 0.7908 0.6812 -0.2518
C5D C 0.6983(5) 0.5811(7) -0.1692(3)
C6D C 0.6002(4) 0.5383(7) -0.1574(4)
C7D C 0.5155(4) 0.5480(8) -0.0370(4)
C8D C 0.4802(5) 0.7373(8) -0.0474(4)
H4D H 0.5235 0.7994 -0.0825
H5D H 0.4150 0.7364 -0.0689
H6D H 0.4795 0.7965 0.0026
C9D C 0.7742(4) 0.5577(8) -0.1053(4)
H7D H 0.7459 0.4926 -0.0623
H8D H 0.8294 0.4929 -0.1257
H9D H 0.7955 0.6727 -0.0872
N1D N 0.5701(4) 0.4620(6) -0.0839(3)
loop_
_geom_bond_atom_site_label_1
_geom_bond_atom_site_label_2
_geom_bond_site_symmetry_1
_geom_bond_site_symmetry_2
Br1 C3 1_555 1_555
C1 H1 1_555 1_555
C2 C1 1_555 1_555
H2 C2 1_555 1_555
C3 C2 1_555 1_555
C4 C3 1_555 1_555
H3 C4 1_555 1_555
C5 C4 1_555 1_555
C6 C1 1_555 1_555
C7 C8 1_555 1_555
C8 H4 1_555 1_555
H5 C8 1_555 1_555
H6 C8 1_555 1_555
C9 C5 1_555 1_555
H7 C9 1_555 1_555
H8 C9 1_555 1_555
H9 C9 1_555 1_555
N1 C6 1_555 1_555
Br1D C3D 1_555 1_555
C1D H1D 1_555 1_555
C2D C1D 1_555 1_555
H2D C2D 1_555 1_555
C3D C2D 1_555 1_555
C4D C3D 1_555 1_555
H3D C4D 1_555 1_555
C5D C4D 1_555 1_555
C6D C1D 1_555 1_555
C7D C7 1_555 1_555
C8D C7D 1_555 1_555
H4D C8D 1_555 1_555
H5D C8D 1_555 1_555
H6D C8D 1_555 1_555
C9D C5D 1_555 1_555
H7D C9D 1_555 1_555
H8D C9D 1_555 1_555
H9D C9D 1_555 1_555
N1D C6D 1_555 1_555
C5 C6 1_555 1_555
C7 N1 1_555 1_555
C5D C6D 1_555 1_555
C7D N1D 1_555 1_555

#END
