
#######################################################################
#
#                 Cambridge Crystallographic Data Centre
#                                CCDC 
#
#######################################################################
#
# If this CIF has been generated from an entry in the Cambridge 
# Structural Database, then it will include bibliographic, chemical, 
# crystal, experimental, refinement or atomic coordinate data resulting 
# from the CCDC's data processing and validation procedures.
#
#######################################################################

data_LESMUT
_chemical_name_common            
(Z,Z)-N,N'-Butane-2,3-diylidenebis(4-bromo-2,6-diisopropylaniline)
_chemical_formula_moiety         'C28 H38 Br2 N2'
_chemical_name_systematic        
(Z)-4-Bromo-N-((Z)-3-((4-bromo-2,6-diisopropylphenyl)imino)butan-2-ylidene)-2,6-diisopropylaniline
_symmetry_cell_setting           monoclinic
_symmetry_space_group_name_H-M   'P 21/n'
_symmetry_Int_Tables_number      14
_space_group_name_Hall           '-P 2yn'
loop_
_symmetry_equiv_pos_site_id
_symmetry_equiv_pos_as_xyz
1 x,y,z
2 1/2-x,1/2+y,1/2-z
3 -x,-y,-z
4 1/2+x,1/2-y,1/2+z
_cell_length_a                   9.099(3)
_cell_length_b                   12.199(4)
_cell_length_c                   13.566(5)
_cell_angle_alpha                90
_cell_angle_beta                 104.905(5)
_cell_angle_gamma                90
_cell_volume                     1455.14
_exptl_crystal_colour            yellow
_exptl_crystal_description       block
_cell_formula_units_Z            2
_exptl_crystal_recrystallization_method cyclohexane/dichloromethane
loop_
_atom_site_label
_atom_site_type_symbol
_atom_site_fract_x
_atom_site_fract_y
_atom_site_fract_z
Br1 Br 0.35688(8) 0.65673(6) 0.10127(7)
C1 C 0.7029(6) 0.8851(4) 0.1392(4)
C2 C 0.5759(6) 0.8270(4) 0.1476(4)
H1 H 0.5247 0.8477 0.1958
C3 C 0.5254(6) 0.7392(5) 0.0851(4)
C4 C 0.5971(7) 0.7079(4) 0.0117(4)
H2 H 0.5608 0.6482 -0.0301
C5 C 0.7232(7) 0.7651(4) -0.0001(5)
C6 C 0.7756(6) 0.8543(4) 0.0646(4)
C7 C 0.7611(8) 0.9814(5) 0.2083(5)
H3 H 0.8701 0.9872 0.2130
C8 C 0.6907(11) 1.0865(6) 0.1624(7)
H4 H 0.7162 1.0991 0.0990
H5 H 0.7283 1.1459 0.2084
H6 H 0.5822 1.0819 0.1505
C9 C 0.7469(11) 0.9636(8) 0.3149(6)
H7 H 0.8150 1.0122 0.3607
H8 H 0.7725 0.8891 0.3348
H9 H 0.6443 0.9783 0.3175
C10 C 0.8059(9) 0.7265(6) -0.0773(6)
H10 H 0.8666 0.7876 -0.0923
C11 C 0.9126(12) 0.6347(7) -0.0315(8)
H11 H 0.9847 0.6606 0.0287
H12 H 0.9656 0.6101 -0.0802
H13 H 0.8555 0.5750 -0.0139
C12 C 0.6986(12) 0.6892(8) -0.1768(7)
H14 H 0.6336 0.6323 -0.1632
H15 H 0.7566 0.6616 -0.2214
H16 H 0.6378 0.7500 -0.2086
C13 C 0.9228(6) 0.9765(4) -0.0034(4)
C14 C 0.7932(7) 1.0159(6) -0.0879(5)
H17 H 0.8104 0.9956 -0.1523
H18 H 0.7856 1.0942 -0.0843
H19 H 0.7003 0.9831 -0.0812
N1 N 0.9141(5) 0.9060(3) 0.0633(3)
Br1B Br 1.64312(8) 1.34327(6) -0.10127(7)
C1B C 1.2971(6) 1.1149(4) -0.1392(4)
C2B C 1.4241(6) 1.1730(4) -0.1476(4)
H1B H 1.4753 1.1523 -0.1958
C3B C 1.4746(6) 1.2608(5) -0.0851(4)
C4B C 1.4029(7) 1.2921(4) -0.0117(4)
H2B H 1.4392 1.3518 0.0301
C5B C 1.2768(7) 1.2349(4) 0.0001(5)
C6B C 1.2244(6) 1.1457(4) -0.0646(4)
C7B C 1.2389(8) 1.0186(5) -0.2083(5)
H3B H 1.1299 1.0128 -0.2130
C8B C 1.3093(11) 0.9135(6) -0.1624(7)
H4B H 1.2838 0.9009 -0.0990
H5B H 1.2717 0.8541 -0.2084
H6B H 1.4178 0.9181 -0.1505
C9B C 1.2531(11) 1.0364(8) -0.3149(6)
H7B H 1.1850 0.9878 -0.3607
H8B H 1.2275 1.1109 -0.3348
H9B H 1.3557 1.0217 -0.3175
C10B C 1.1941(9) 1.2735(6) 0.0773(6)
H10B H 1.1334 1.2124 0.0923
C11B C 1.0874(12) 1.3653(7) 0.0315(8)
H11B H 1.0153 1.3394 -0.0287
H12B H 1.0344 1.3899 0.0802
H13B H 1.1445 1.4250 0.0139
C12B C 1.3014(12) 1.3108(8) 0.1768(7)
H14B H 1.3664 1.3677 0.1632
H15B H 1.2434 1.3384 0.2214
H16B H 1.3622 1.2500 0.2086
C13B C 1.0772(6) 1.0235(4) 0.0034(4)
C14B C 1.2068(7) 0.9841(6) 0.0879(5)
H17B H 1.1896 1.0044 0.1523
H18B H 1.2144 0.9058 0.0843
H19B H 1.2997 1.0169 0.0812
N1B N 1.0859(5) 1.0940(3) -0.0633(3)
loop_
_geom_bond_atom_site_label_1
_geom_bond_atom_site_label_2
_geom_bond_site_symmetry_1
_geom_bond_site_symmetry_2
Br1 C3 1_555 1_555
C1 C2 1_555 1_555
C2 H1 1_555 1_555
C3 C2 1_555 1_555
C4 C3 1_555 1_555
H2 C4 1_555 1_555
C5 C4 1_555 1_555
C6 C1 1_555 1_555
C7 C1 1_555 1_555
H3 C7 1_555 1_555
C8 C7 1_555 1_555
H4 C8 1_555 1_555
H5 C8 1_555 1_555
H6 C8 1_555 1_555
C9 C7 1_555 1_555
H7 C9 1_555 1_555
H8 C9 1_555 1_555
H9 C9 1_555 1_555
C10 C5 1_555 1_555
H10 C10 1_555 1_555
C11 C10 1_555 1_555
H11 C11 1_555 1_555
H12 C11 1_555 1_555
H13 C11 1_555 1_555
C12 C10 1_555 1_555
H14 C12 1_555 1_555
H15 C12 1_555 1_555
H16 C12 1_555 1_555
C13 C14 1_555 1_555
C14 H17 1_555 1_555
H18 C14 1_555 1_555
H19 C14 1_555 1_555
N1 C6 1_555 1_555
Br1B C3B 1_555 1_555
C1B C2B 1_555 1_555
C2B H1B 1_555 1_555
C3B C2B 1_555 1_555
C4B C3B 1_555 1_555
H2B C4B 1_555 1_555
C5B C4B 1_555 1_555
C6B C1B 1_555 1_555
C7B C1B 1_555 1_555
H3B C7B 1_555 1_555
C8B C7B 1_555 1_555
H4B C8B 1_555 1_555
H5B C8B 1_555 1_555
H6B C8B 1_555 1_555
C9B C7B 1_555 1_555
H7B C9B 1_555 1_555
H8B C9B 1_555 1_555
H9B C9B 1_555 1_555
C10B C5B 1_555 1_555
H10B C10B 1_555 1_555
C11B C10B 1_555 1_555
H11B C11B 1_555 1_555
H12B C11B 1_555 1_555
H13B C11B 1_555 1_555
C12B C10B 1_555 1_555
H14B C12B 1_555 1_555
H15B C12B 1_555 1_555
H16B C12B 1_555 1_555
C13B C13 1_555 1_555
C14B C13B 1_555 1_555
H17B C14B 1_555 1_555
H18B C14B 1_555 1_555
H19B C14B 1_555 1_555
N1B C6B 1_555 1_555
C5 C6 1_555 1_555
C13 N1 1_555 1_555
C5B C6B 1_555 1_555
C13B N1B 1_555 1_555

#END
