
#######################################################################
#
#                 Cambridge Crystallographic Data Centre
#                                CCDC 
#
#######################################################################
#
# If this CIF has been generated from an entry in the Cambridge 
# Structural Database, then it will include bibliographic, chemical, 
# crystal, experimental, refinement or atomic coordinate data resulting 
# from the CCDC's data processing and validation procedures.
#
#######################################################################

data_LESQEH
_chemical_formula_moiety         'C16 H13 N1 O2'
_chemical_name_systematic        4-Hydroxy-1-methyl-3-phenylquinolin-2(1H)-one
_symmetry_cell_setting           monoclinic
_symmetry_space_group_name_H-M   'P 21'
_symmetry_Int_Tables_number      4
_space_group_name_Hall           'P 2yb'
loop_
_symmetry_equiv_pos_site_id
_symmetry_equiv_pos_as_xyz
1 x,y,z
2 -x,1/2+y,-z
_cell_length_a                   6.1787(2)
_cell_length_b                   8.2696(2)
_cell_length_c                   12.3665(4)
_cell_angle_alpha                90
_cell_angle_beta                 101.632(2)
_cell_angle_gamma                90
_cell_volume                     618.894
_exptl_crystal_colour            colorless
_exptl_crystal_description       prism
_cell_formula_units_Z            2
loop_
_atom_site_label
_atom_site_type_symbol
_atom_site_fract_x
_atom_site_fract_y
_atom_site_fract_z
N1 N -0.3506(3) 0.6870(2) 0.76995(14)
O1 O -0.3484(2) 0.6084(2) 0.94498(12)
O2 O 0.2230(3) 0.9476(3) 0.86700(12)
H1 H 0.2433 0.9751 0.9320
C1 C -0.2491(4) 0.7574(3) 0.69150(17)
C2 C -0.3367(5) 0.7420(4) 0.57760(19)
H2 H -0.4659 0.6833 0.5536
C3 C -0.2321(5) 0.8131(4) 0.50211(19)
H3 H -0.2903 0.8004 0.4272
C4 C -0.0430(6) 0.9027(4) 0.5350(2)
H4 H 0.0251 0.9512 0.4827
C5 C 0.0453(5) 0.9202(3) 0.64626(19)
H5 H 0.1720 0.9821 0.6688
C6 C -0.0539(4) 0.8458(3) 0.72531(17)
C7 C 0.0393(4) 0.8579(3) 0.84224(17)
C8 C -0.0553(4) 0.7782(3) 0.91735(16)
C9 C -0.2559(3) 0.6871(3) 0.88098(16)
C10 C -0.5599(4) 0.6003(4) 0.7363(2)
H6 H -0.5330 0.4973 0.7057
H7 H -0.6579 0.6625 0.6817
H8 H -0.6261 0.5843 0.7994
C11 C 0.0412(3) 0.7767(3) 1.03788(15)
C12 C 0.2473(4) 0.7070(3) 1.07702(19)
H9 H 0.3288 0.6669 1.0274
C13 C 0.3319(4) 0.6971(4) 1.1895(2)
H10 H 0.4682 0.6483 1.2151
C14 C 0.2142(5) 0.7594(4) 1.26318(19)
H11 H 0.2709 0.7523 1.3386
C15 C 0.0133(4) 0.8321(4) 1.22571(19)
H12 H -0.0640 0.8764 1.2758
C16 C -0.0749(4) 0.8396(3) 1.11342(18)
H13 H -0.2124 0.8871 1.0886
loop_
_geom_bond_atom_site_label_1
_geom_bond_atom_site_label_2
_geom_bond_site_symmetry_1
_geom_bond_site_symmetry_2
N1 C1 1_555 1_555
O1 C9 1_555 1_555
O2 H1 1_555 1_555
C1 C2 1_555 1_555
C2 H2 1_555 1_555
C3 C2 1_555 1_555
H3 C3 1_555 1_555
C4 C3 1_555 1_555
H4 C4 1_555 1_555
C5 C4 1_555 1_555
H5 C5 1_555 1_555
C6 C1 1_555 1_555
C7 O2 1_555 1_555
C8 C7 1_555 1_555
C9 N1 1_555 1_555
C10 N1 1_555 1_555
H6 C10 1_555 1_555
H7 C10 1_555 1_555
H8 C10 1_555 1_555
C11 C8 1_555 1_555
C12 C11 1_555 1_555
H9 C12 1_555 1_555
C13 C12 1_555 1_555
H10 C13 1_555 1_555
C14 C13 1_555 1_555
H11 C14 1_555 1_555
C15 C14 1_555 1_555
H12 C15 1_555 1_555
C16 C11 1_555 1_555
H13 C16 1_555 1_555
C5 C6 1_555 1_555
C6 C7 1_555 1_555
C8 C9 1_555 1_555
C15 C16 1_555 1_555

#END
