
#######################################################################
#
#                 Cambridge Crystallographic Data Centre
#                                CCDC 
#
#######################################################################
#
# If this CIF has been generated from an entry in the Cambridge 
# Structural Database, then it will include bibliographic, chemical, 
# crystal, experimental, refinement or atomic coordinate data resulting 
# from the CCDC's data processing and validation procedures.
#
#######################################################################

data_LESXEN
_chemical_formula_moiety         'C20 H16 O1'
_chemical_name_systematic        1,2,2-Triphenylethanone
_symmetry_cell_setting           triclinic
_symmetry_space_group_name_H-M   'P -1'
_symmetry_Int_Tables_number      2
_space_group_name_Hall           '-P 1'
loop_
_symmetry_equiv_pos_site_id
_symmetry_equiv_pos_as_xyz
1 x,y,z
2 -x,-y,-z
_cell_length_a                   5.7753(8)
_cell_length_b                   8.9485(12)
_cell_length_c                   14.808(2)
_cell_angle_alpha                98.142(3)
_cell_angle_beta                 99.479(3)
_cell_angle_gamma                107.219(3)
_cell_volume                     706.127
_exptl_crystal_colour            colorless
_exptl_crystal_description       prism
_cell_formula_units_Z            2
loop_
_atom_site_label
_atom_site_type_symbol
_atom_site_fract_x
_atom_site_fract_y
_atom_site_fract_z
O1 O 0.1527(4) 0.6043(3) 0.33204(17)
C1 C 0.3087(6) 0.5380(4) 0.3259(2)
C2 C 0.4959(6) 0.5830(4) 0.2653(2)
C3 C 0.3130(6) 0.4056(4) 0.3776(2)
C4 C 0.4717(7) 0.3157(4) 0.3689(2)
C5 C 0.4655(7) 0.1944(4) 0.4180(3)
C6 C 0.3046(7) 0.1639(4) 0.4778(2)
C7 C 0.1447(7) 0.2513(4) 0.4871(2)
C8 C 0.1470(7) 0.3696(4) 0.4363(2)
C9 C 0.4262(6) 0.4557(4) 0.1753(2)
C10 C 0.6078(7) 0.4504(4) 0.1255(2)
C11 C 0.5531(7) 0.3426(4) 0.0415(3)
C12 C 0.3133(7) 0.2365(4) 0.0073(3)
C13 C 0.1334(7) 0.2397(4) 0.0567(2)
C14 C 0.1870(7) 0.3494(4) 0.1401(2)
C15 C 0.5377(6) 0.7492(4) 0.2443(2)
C16 C 0.3459(7) 0.7897(4) 0.1945(2)
C17 C 0.3898(7) 0.9412(4) 0.1739(2)
C18 C 0.6269(7) 1.0518(4) 0.2001(2)
C19 C 0.8180(7) 1.0120(4) 0.2482(2)
C20 C 0.7740(7) 0.8615(4) 0.2703(2)
H1 H 0.018(6) 0.225(4) 0.527(2)
H2 H 0.589(5) 0.337(3) 0.326(2)
H3 H 0.647(5) 1.152(4) 0.181(2)
H4 H 0.665(6) 0.578(3) 0.302(2)
H5 H 0.573(6) 0.126(4) 0.409(2)
H6 H 0.033(6) 0.435(4) 0.441(2)
H7 H 0.258(6) 0.961(4) 0.141(2)
H8 H 0.269(5) 0.161(4) -0.053(2)
H9 H -0.029(7) 0.168(4) 0.039(3)
H10 H 0.983(7) 1.080(4) 0.264(2)
H11 H 0.312(6) 0.081(4) 0.514(2)
H12 H 0.054(6) 0.349(4) 0.173(2)
H13 H 0.169(7) 0.712(4) 0.175(2)
H14 H 0.904(7) 0.837(4) 0.301(3)
H15 H 0.688(8) 0.348(5) 0.010(3)
H16 H 0.770(7) 0.526(4) 0.148(2)
loop_
_geom_bond_atom_site_label_1
_geom_bond_atom_site_label_2
_geom_bond_site_symmetry_1
_geom_bond_site_symmetry_2
O1 C1 1_555 1_555
C1 C2 1_555 1_555
C2 C9 1_555 1_555
C3 C1 1_555 1_555
C4 C3 1_555 1_555
C5 C4 1_555 1_555
C6 C5 1_555 1_555
C7 C6 1_555 1_555
C8 C3 1_555 1_555
C9 C10 1_555 1_555
C10 C11 1_555 1_555
C11 C12 1_555 1_555
C12 C13 1_555 1_555
C13 C14 1_555 1_555
C14 C9 1_555 1_555
C15 C2 1_555 1_555
C16 C15 1_555 1_555
C17 C16 1_555 1_555
C18 C17 1_555 1_555
C19 C18 1_555 1_555
C20 C15 1_555 1_555
H1 C7 1_555 1_555
H2 C4 1_555 1_555
H3 C18 1_555 1_555
H4 C2 1_555 1_555
H5 C5 1_555 1_555
H6 C8 1_555 1_555
H7 C17 1_555 1_555
H8 C12 1_555 1_555
H9 C13 1_555 1_555
H10 C19 1_555 1_555
H11 C6 1_555 1_555
H12 C14 1_555 1_555
H13 C16 1_555 1_555
H14 C20 1_555 1_555
H15 C11 1_555 1_555
H16 C10 1_555 1_555
C7 C8 1_555 1_555
C19 C20 1_555 1_555

#END
