
#######################################################################
#
#                 Cambridge Crystallographic Data Centre
#                                CCDC 
#
#######################################################################
#
# If this CIF has been generated from an entry in the Cambridge 
# Structural Database, then it will include bibliographic, chemical, 
# crystal, experimental, refinement or atomic coordinate data resulting 
# from the CCDC's data processing and validation procedures.
#
#######################################################################

data_LETBAQ
_chemical_formula_moiety         'C19 H20 N2 O4'
_chemical_name_systematic        
3-phenyl-N'-[(3,4,5-trimethoxyphenyl)methylidene]prop-2-enehydrazide
_symmetry_cell_setting           monoclinic
_symmetry_space_group_name_H-M   'P 2/c'
_symmetry_Int_Tables_number      13
_space_group_name_Hall           '-P 2yc'
loop_
_symmetry_equiv_pos_site_id
_symmetry_equiv_pos_as_xyz
1 x,y,z
2 -x,y,1/2-z
3 -x,-y,-z
4 x,-y,1/2+z
_cell_length_a                   23.3046(13)
_cell_length_b                   7.7498(3)
_cell_length_c                   22.6602(12)
_cell_angle_alpha                90
_cell_angle_beta                 115.478(2)
_cell_angle_gamma                90
_cell_volume                     3694.57
_exptl_crystal_colour            colorless
_exptl_crystal_description       plate
_cell_formula_units_Z            8
loop_
_atom_site_label
_atom_site_type_symbol
_atom_site_fract_x
_atom_site_fract_y
_atom_site_fract_z
O1 O 0.6603(3) 0.2441(5) 1.1064(2)
O2 O 0.6296(2) 0.5786(5) 1.08277(19)
O3 O 0.6556(2) 0.7570(5) 0.99619(19)
O4 O 0.7831(2) 0.4137(6) 0.7996(2)
N1 N 0.7604(2) 0.3127(6) 0.9021(2)
N2 N 0.7879(3) 0.2076(7) 0.8726(2)
H1 H 0.792(4) 0.095(11) 0.883(4)
C1 C 0.6661(5) 0.0599(9) 1.1108(4)
H2 H 0.644729 0.009669 1.067013
H3 H 0.646365 0.016220 1.138308
H4 H 0.711170 0.028013 1.130217
C2 C 0.6689(3) 0.6183(8) 1.1499(3)
H5 H 0.691184 0.513853 1.172601
H6 H 0.642402 0.661739 1.170472
H7 H 0.700026 0.706543 1.152483
C3 C 0.6551(4) 0.8409(8) 0.9397(3)
H8 H 0.698885 0.855710 0.945066
H9 H 0.634793 0.954187 0.934389
H10 H 0.631362 0.770378 0.900844
C4 C 0.6777(3) 0.3248(8) 1.0628(3)
C5 C 0.6620(3) 0.4964(8) 1.0518(3)
C6 C 0.6745(3) 0.5889(7) 1.0052(3)
C7 C 0.7042(3) 0.5062(8) 0.9710(3)
H11 H 0.712745 0.567245 0.939320
C8 C 0.7210(3) 0.3332(8) 0.9838(3)
C9 C 0.7078(4) 0.2423(9) 1.0294(3)
H12 H 0.719269 0.124095 1.037728
C10 C 0.7517(3) 0.2420(8) 0.9489(3)
H13 H 0.765628 0.126740 0.961119
C11 C 0.7946(3) 0.2634(8) 0.8197(3)
C12 C 0.8143(3) 0.1258(11) 0.7873(3)
H14 H 0.820476 0.012657 0.805019
C13 C 0.8238(4) 0.1532(12) 0.7348(3)
H15 H 0.820852 0.268955 0.719963
C14 C 0.8390(5) 0.0176(13) 0.6962(4)
C15 C 0.8530(5) 0.0719(17) 0.6451(4)
H16 H 0.851114 0.191358 0.635037
C16 C 0.8699(5) -0.0466(19) 0.6084(5)
H17 H 0.883139 -0.008733 0.576319
C17 C 0.8481(6) -0.2815(16) 0.6693(5)
H18 H 0.845214 -0.401237 0.676558
C18 C 0.8343(6) -0.1602(13) 0.7064(4)
H19 H 0.821518 -0.197306 0.738945
C19 C 0.8664(7) -0.225(2) 0.6209(5)
H20 H 0.876713 -0.308236 0.596042
O5 O 0.4895(2) -0.1891(5) 0.5951(2)
O6 O 0.4771(2) 0.1441(5) 0.6214(2)
O7 O 0.55913(19) 0.2960(5) 0.72925(18)
O8 O 0.8427(2) -0.0949(6) 0.9493(2)
N3 N 0.7342(2) -0.1736(6) 0.8416(2)
N4 N 0.7826(3) -0.2914(7) 0.8737(3)
H21 H 0.776(4) -0.424(13) 0.856(4)
C20 C 0.4963(4) -0.3660(8) 0.5814(3)
H22 H 0.537392 -0.382380 0.579897
H23 H 0.461961 -0.397968 0.539123
H24 H 0.494370 -0.438990 0.615794
C21 C 0.4813(4) 0.1885(9) 0.5616(3)
H25 H 0.521871 0.246494 0.571876
H26 H 0.446196 0.265786 0.535595
H27 H 0.478690 0.083259 0.536530
C22 C 0.5936(3) 0.3702(8) 0.7934(3)
H28 H 0.586874 0.299829 0.825787
H29 H 0.578262 0.487760 0.793821
H30 H 0.639044 0.373526 0.804074
C23 C 0.5350(3) -0.1239(8) 0.6521(3)
C24 C 0.5281(3) 0.0500(7) 0.6643(3)
C25 C 0.5716(3) 0.1271(7) 0.7222(3)
C26 C 0.6230(3) 0.0355(7) 0.7653(3)
H31 H 0.653285 0.088635 0.803914
C27 C 0.6304(3) -0.1370(7) 0.7516(3)
C28 C 0.5859(3) -0.2156(7) 0.6962(3)
H32 H 0.590394 -0.334167 0.688403
C29 C 0.6874(3) -0.2370(7) 0.7929(3)
H33 H 0.689234 -0.355074 0.782559
C30 C 0.8336(3) -0.2456(8) 0.9280(4)
C31 C 0.8758(3) -0.3916(9) 0.9599(4)
H34 H 0.866852 -0.499960 0.938164
C32 C 0.9252(4) -0.3801(10) 1.0169(4)
H35 H 0.935241 -0.269694 1.037017
C33 C 0.9670(4) -0.5292(11) 1.0528(4)
C34 C 1.0168(5) -0.4920(14) 1.1109(5)
H36 H 1.024791 -0.375807 1.125521
C35 C 1.0571(5) -0.6254(15) 1.1500(6)
H37 H 1.090855 -0.600847 1.191503
C36 C 1.0461(5) -0.7888(16) 1.1263(6)
H38 H 1.073101 -0.879092 1.151476
C37 C 0.9960(4) -0.8278(12) 1.0660(6)
H39 H 0.989155 -0.943281 1.050436
C38 C 0.9563(4) -0.6969(10) 1.0291(5)
H40 H 0.922134 -0.721707 0.987938
loop_
_geom_bond_atom_site_label_1
_geom_bond_atom_site_label_2
_geom_bond_site_symmetry_1
_geom_bond_site_symmetry_2
O1 C1 1_555 1_555
O2 C2 1_555 1_555
O3 C3 1_555 1_555
O4 C11 1_555 1_555
N1 N2 1_555 1_555
N2 H1 1_555 1_555
C1 H2 1_555 1_555
H3 C1 1_555 1_555
H4 C1 1_555 1_555
C2 H5 1_555 1_555
H6 C2 1_555 1_555
H7 C2 1_555 1_555
C3 H8 1_555 1_555
H9 C3 1_555 1_555
H10 C3 1_555 1_555
C4 O1 1_555 1_555
C5 O2 1_555 1_555
C6 O3 1_555 1_555
C7 C6 1_555 1_555
H11 C7 1_555 1_555
C8 C7 1_555 1_555
C9 C4 1_555 1_555
H12 C9 1_555 1_555
C10 N1 1_555 1_555
H13 C10 1_555 1_555
C11 N2 1_555 1_555
C12 C11 1_555 1_555
H14 C12 1_555 1_555
C13 C12 1_555 1_555
H15 C13 1_555 1_555
C14 C13 1_555 1_555
C15 C14 1_555 1_555
H16 C15 1_555 1_555
C16 C15 1_555 1_555
H17 C16 1_555 1_555
C17 H18 1_555 1_555
C18 C14 1_555 1_555
H19 C18 1_555 1_555
C19 C16 1_555 1_555
H20 C19 1_555 1_555
O5 C20 1_555 1_555
O6 C21 1_555 1_555
O7 C22 1_555 1_555
O8 C30 1_555 1_555
N3 N4 1_555 1_555
N4 H21 1_555 1_555
C20 H22 1_555 1_555
H23 C20 1_555 1_555
H24 C20 1_555 1_555
C21 H25 1_555 1_555
H26 C21 1_555 1_555
H27 C21 1_555 1_555
C22 H28 1_555 1_555
H29 C22 1_555 1_555
H30 C22 1_555 1_555
C23 O5 1_555 1_555
C24 O6 1_555 1_555
C25 O7 1_555 1_555
C26 C25 1_555 1_555
H31 C26 1_555 1_555
C27 C26 1_555 1_555
C28 C23 1_555 1_555
H32 C28 1_555 1_555
C29 N3 1_555 1_555
H33 C29 1_555 1_555
C30 N4 1_555 1_555
C31 C30 1_555 1_555
H34 C31 1_555 1_555
C32 C31 1_555 1_555
H35 C32 1_555 1_555
C33 C32 1_555 1_555
C34 C33 1_555 1_555
H36 C34 1_555 1_555
C35 C34 1_555 1_555
H37 C35 1_555 1_555
C36 C35 1_555 1_555
H38 C36 1_555 1_555
C37 C36 1_555 1_555
H39 C37 1_555 1_555
C38 C33 1_555 1_555
H40 C38 1_555 1_555
C4 C5 1_555 1_555
C5 C6 1_555 1_555
C8 C9 1_555 1_555
C8 C10 1_555 1_555
C17 C18 1_555 1_555
C17 C19 1_555 1_555
C23 C24 1_555 1_555
C24 C25 1_555 1_555
C27 C28 1_555 1_555
C27 C29 1_555 1_555
C37 C38 1_555 1_555

#END
