
#######################################################################
#
#                 Cambridge Crystallographic Data Centre
#                                CCDC 
#
#######################################################################
#
# If this CIF has been generated from an entry in the Cambridge 
# Structural Database, then it will include bibliographic, chemical, 
# crystal, experimental, refinement or atomic coordinate data resulting 
# from the CCDC's data processing and validation procedures.
#
#######################################################################

data_LETDOG
_chemical_formula_moiety         'C33 H16 I4,C24 H20 P1 1+,I1 1-'
_chemical_name_systematic        
"tetraphenylphosphonium iodide 1,1',1'',1'''-methanetetrayltetrakis[4-(iodoethynyl)benzene]"
_symmetry_cell_setting           monoclinic
_symmetry_space_group_name_H-M   'I 2/a'
_symmetry_Int_Tables_number      15
_space_group_name_Hall           '-I 2ya'
loop_
_symmetry_equiv_pos_site_id
_symmetry_equiv_pos_as_xyz
1 x,y,z
2 1/2-x,y,-z
3 1/2+x,1/2+y,1/2+z
4 -x,1/2+y,1/2-z
5 -x,-y,-z
6 1/2+x,-y,z
7 1/2-x,1/2-y,1/2-z
8 x,1/2-y,1/2+z
_cell_length_a                   17.4190(11)
_cell_length_b                   17.3989(8)
_cell_length_c                   34.9081(17)
_cell_angle_alpha                90
_cell_angle_beta                 90.638(6)
_cell_angle_gamma                90
_cell_volume                     10579
_exptl_crystal_colour            yellow
_exptl_crystal_description       plate
_cell_formula_units_Z            8
loop_
_atom_site_label
_atom_site_type_symbol
_atom_site_fract_x
_atom_site_fract_y
_atom_site_fract_z
I1 I 0.36600(4) 0.12525(4) 0.11709(2)
I2 I 0.23724(4) 0.11700(4) 0.18854(2)
I3 I -0.13889(5) -0.22252(5) 0.55391(3)
I4 I -0.48573(5) 0.09285(4) 0.17974(2)
I5 I -0.13163(4) 0.49021(4) 0.54748(2)
C1 C -0.1289(4) 0.1288(4) 0.3656(3)
C2 C -0.0573(4) 0.1267(4) 0.3396(3)
C3 C -0.0421(5) 0.1895(5) 0.3160(3)
H1 H -0.0724 0.2333 0.3181
C4 C 0.0150(6) 0.1889(5) 0.2903(3)
H2 H 0.0255 0.2326 0.2760
C5 C 0.0581(5) 0.1223(5) 0.2852(3)
C6 C 0.0412(5) 0.0591(5) 0.3074(3)
H3 H 0.0692 0.0140 0.3042
C7 C -0.0154(5) 0.0612(5) 0.3338(3)
H4 H -0.0259 0.0175 0.3482
C8 C 0.1152(6) 0.1197(5) 0.2567(3)
C9 C 0.1602(6) 0.1190(6) 0.2316(3)
C10 C -0.1291(4) 0.0627(4) 0.3955(3)
C11 C -0.0662(5) 0.0545(6) 0.4198(3)
H5 H -0.0233 0.0854 0.4162
C12 C -0.0660(5) 0.0014(6) 0.4490(3)
H6 H -0.0226 -0.0038 0.4645
C13 C -0.1295(5) -0.0442(5) 0.4557(3)
C14 C -0.1922(6) -0.0350(6) 0.4316(4)
H7 H -0.2357 -0.0648 0.4355
C15 C -0.1916(5) 0.0176(6) 0.4018(3)
H8 H -0.2345 0.0221 0.3859
C16 C -0.1302(6) -0.0960(6) 0.4874(4)
C17 C -0.1341(7) -0.1399(6) 0.5120(4)
C18 C -0.1957(4) 0.1238(4) 0.3369(3)
C19 C -0.2094(5) 0.0562(4) 0.3171(3)
H9 H -0.1818 0.0123 0.3237
C20 C -0.2623(5) 0.0524(5) 0.2881(3)
H10 H -0.2703 0.0058 0.2757
C21 C -0.3040(5) 0.1152(5) 0.2769(3)
C22 C -0.2894(6) 0.1843(5) 0.2950(3)
H11 H -0.3146 0.2287 0.2871
C23 C -0.2368(5) 0.1874(5) 0.3252(3)
H12 H -0.2291 0.2338 0.3380
C24 C -0.3591(6) 0.1088(5) 0.2459(3)
C25 C -0.4025(7) 0.1010(5) 0.2205(3)
C26 C -0.1337(4) 0.2004(4) 0.3916(3)
C27 C -0.1992(5) 0.2147(5) 0.4119(3)
H13 H -0.2425 0.1848 0.4071
C28 C -0.2031(5) 0.2717(5) 0.4392(3)
H14 H -0.2486 0.2807 0.4521
C29 C -0.1378(5) 0.3159(5) 0.4472(3)
C30 C -0.0723(5) 0.3031(5) 0.4262(3)
H15 H -0.0291 0.3334 0.4306
C31 C -0.0698(5) 0.2462(5) 0.3986(3)
H16 H -0.0252 0.2385 0.3847
C32 C -0.1381(5) 0.3696(5) 0.4786(3)
C33 C -0.1363(6) 0.4134(6) 0.5047(3)
P1 P 0.50102(13) 0.26352(12) 0.37721(7)
C34 C 0.4422(6) 0.2106(5) 0.3436(3)
C35 C 0.4785(7) 0.1729(6) 0.3132(3)
H17 H 0.5315 0.1732 0.3105
C36 C 0.4292(12) 0.1345(7) 0.2870(4)
H18 H 0.4502 0.1093 0.2661
C37 C 0.3525(13) 0.1339(8) 0.2918(6)
H19 H 0.3215 0.1089 0.2739
C38 C 0.3205(10) 0.1679(7) 0.3215(6)
H20 H 0.2675 0.1653 0.3244
C39 C 0.3641(6) 0.2070(5) 0.3480(4)
H21 H 0.3410 0.2309 0.3688
C40 C 0.4425(5) 0.3267(6) 0.4038(3)
C41 C 0.3960(8) 0.3002(9) 0.4319(5)
H22 H 0.3970 0.2483 0.4382
C42 C 0.3464(8) 0.3501(12) 0.4517(5)
H23 H 0.3149 0.3326 0.4712
C43 C 0.3469(8) 0.4254(11) 0.4408(5)
H24 H 0.3139 0.4588 0.4533
C44 C 0.3909(8) 0.4543(8) 0.4137(5)
H25 H 0.3885 0.5060 0.4071
C45 C 0.4410(6) 0.4044(6) 0.3955(3)
H26 H 0.4744 0.4239 0.3773
C46 C 0.5704(5) 0.3180(4) 0.3508(3)
C47 C 0.5504(7) 0.3453(5) 0.3147(4)
H27 H 0.5027 0.3338 0.3039
C48 C 0.6030(9) 0.3904(6) 0.2948(4)
H28 H 0.5913 0.4087 0.2705
C49 C 0.6718(9) 0.4070(6) 0.3118(5)
H29 H 0.7072 0.4366 0.2985
C50 C 0.6903(7) 0.3818(6) 0.3476(4)
H30 H 0.7372 0.3956 0.3586
C51 C 0.6402(5) 0.3359(5) 0.3677(3)
H31 H 0.6530 0.3176 0.3919
C52 C 0.5503(5) 0.1985(5) 0.4093(3)
C53 C 0.5684(6) 0.2209(6) 0.4462(3)
H32 H 0.5533 0.2688 0.4552
C54 C 0.6088(7) 0.1719(9) 0.4696(4)
H33 H 0.6236 0.1882 0.4939
C55 C 0.6276(6) 0.1008(8) 0.4581(5)
H34 H 0.6521 0.0670 0.4749
C56 C 0.6105(6) 0.0787(6) 0.4217(4)
H35 H 0.6259 0.0306 0.4130
C57 C 0.5709(5) 0.1264(5) 0.3977(3)
H36 H 0.5577 0.1098 0.3732
loop_
_geom_bond_atom_site_label_1
_geom_bond_atom_site_label_2
_geom_bond_site_symmetry_1
_geom_bond_site_symmetry_2
I2 C9 1_555 1_555
I3 C17 1_555 1_555
I4 C25 1_555 1_555
I5 C33 1_555 1_555
C1 C2 1_555 1_555
C2 C3 1_555 1_555
C3 H1 1_555 1_555
C4 C3 1_555 1_555
H2 C4 1_555 1_555
C5 C4 1_555 1_555
C6 C5 1_555 1_555
H3 C6 1_555 1_555
C7 C2 1_555 1_555
H4 C7 1_555 1_555
C8 C5 1_555 1_555
C9 C8 1_555 1_555
C10 C1 1_555 1_555
C11 C10 1_555 1_555
H5 C11 1_555 1_555
C12 C11 1_555 1_555
H6 C12 1_555 1_555
C13 C12 1_555 1_555
C14 C13 1_555 1_555
H7 C14 1_555 1_555
C15 C10 1_555 1_555
H8 C15 1_555 1_555
C16 C13 1_555 1_555
C17 C16 1_555 1_555
C18 C1 1_555 1_555
C19 C18 1_555 1_555
H9 C19 1_555 1_555
C20 C19 1_555 1_555
H10 C20 1_555 1_555
C21 C20 1_555 1_555
C22 C21 1_555 1_555
H11 C22 1_555 1_555
C23 C18 1_555 1_555
H12 C23 1_555 1_555
C24 C21 1_555 1_555
C25 C24 1_555 1_555
C26 C1 1_555 1_555
C27 C26 1_555 1_555
H13 C27 1_555 1_555
C28 C27 1_555 1_555
H14 C28 1_555 1_555
C29 C28 1_555 1_555
C30 C29 1_555 1_555
H15 C30 1_555 1_555
C31 C26 1_555 1_555
H16 C31 1_555 1_555
C32 C29 1_555 1_555
C33 C32 1_555 1_555
P1 C34 1_555 1_555
C34 C35 1_555 1_555
C35 H17 1_555 1_555
C36 C35 1_555 1_555
H18 C36 1_555 1_555
C37 C36 1_555 1_555
H19 C37 1_555 1_555
C38 C37 1_555 1_555
H20 C38 1_555 1_555
C39 C34 1_555 1_555
H21 C39 1_555 1_555
C40 P1 1_555 1_555
C41 C40 1_555 1_555
H22 C41 1_555 1_555
C42 C41 1_555 1_555
H23 C42 1_555 1_555
C43 C42 1_555 1_555
H24 C43 1_555 1_555
C44 C43 1_555 1_555
H25 C44 1_555 1_555
C45 C40 1_555 1_555
H26 C45 1_555 1_555
C46 P1 1_555 1_555
C47 C46 1_555 1_555
H27 C47 1_555 1_555
C48 C47 1_555 1_555
H28 C48 1_555 1_555
C49 C48 1_555 1_555
H29 C49 1_555 1_555
C50 C49 1_555 1_555
H30 C50 1_555 1_555
C51 C46 1_555 1_555
H31 C51 1_555 1_555
C52 P1 1_555 1_555
C53 C52 1_555 1_555
H32 C53 1_555 1_555
C54 C53 1_555 1_555
H33 C54 1_555 1_555
C55 C54 1_555 1_555
H34 C55 1_555 1_555
C56 C55 1_555 1_555
H35 C56 1_555 1_555
C57 C52 1_555 1_555
H36 C57 1_555 1_555
C6 C7 1_555 1_555
C14 C15 1_555 1_555
C22 C23 1_555 1_555
C30 C31 1_555 1_555
C38 C39 1_555 1_555
C44 C45 1_555 1_555
C50 C51 1_555 1_555
C56 C57 1_555 1_555

#END
