
#######################################################################
#
#                 Cambridge Crystallographic Data Centre
#                                CCDC 
#
#######################################################################
#
# If this CIF has been generated from an entry in the Cambridge 
# Structural Database, then it will include bibliographic, chemical, 
# crystal, experimental, refinement or atomic coordinate data resulting 
# from the CCDC's data processing and validation procedures.
#
#######################################################################

data_LETDAS
_chemical_formula_moiety         'C16 H13 N1 S1'
_chemical_name_systematic        6-methyl-4-phenylquinoline-2(1H)-thione
_symmetry_cell_setting           monoclinic
_symmetry_space_group_name_H-M   'P 21/n'
_symmetry_Int_Tables_number      14
_space_group_name_Hall           '-P 2yn'
loop_
_symmetry_equiv_pos_site_id
_symmetry_equiv_pos_as_xyz
1 x,y,z
2 1/2-x,1/2+y,1/2-z
3 -x,-y,-z
4 1/2+x,1/2-y,1/2+z
_cell_length_a                   9.8465(6)
_cell_length_b                   10.1124(6)
_cell_length_c                   26.1644(16)
_cell_angle_alpha                90
_cell_angle_beta                 90.975(4)
_cell_angle_gamma                90
_cell_volume                     2604.86
_exptl_crystal_colour            green
_exptl_crystal_description       prismatic
_cell_formula_units_Z            8
loop_
_atom_site_label
_atom_site_type_symbol
_atom_site_fract_x
_atom_site_fract_y
_atom_site_fract_z
S1 S -0.30068(15) 0.39834(13) 0.57048(5)
N1 N -0.1317(4) 0.5961(4) 0.55169(13)
H1 H -0.1537 0.5827 0.5202
C1 C -0.1892(4) 0.5182(4) 0.58692(16)
C2 C -0.1523(4) 0.5463(4) 0.63898(15)
H2 H -0.1879 0.4935 0.6646
C3 C -0.0675(4) 0.6467(4) 0.65258(14)
C4 C -0.0050(4) 0.7247(4) 0.61334(15)
C5 C -0.0408(4) 0.6951(5) 0.56224(15)
C6 C 0.0177(6) 0.7657(6) 0.52212(18)
H3 H -0.0053 0.7460 0.4884
C7 C 0.1086(6) 0.8637(6) 0.53314(18)
H4 H 0.1463 0.9106 0.5063
C8 C 0.1476(4) 0.8968(5) 0.58355(17)
C9 C 0.0896(4) 0.8261(4) 0.62223(16)
H5 H 0.1140 0.8462 0.6558
C10 C 0.2482(5) 1.0049(5) 0.59425(19)
H6 H 0.2613 1.0142 0.6305
H7 H 0.2144 1.0866 0.5803
H8 H 0.3331 0.9834 0.5788
C11 C -0.0396(4) 0.6727(4) 0.70797(15)
C12 C -0.0568(5) 0.7972(5) 0.72912(17)
H9 H -0.0827 0.8680 0.7085
C13 C -0.0352(5) 0.8160(6) 0.78140(18)
H10 H -0.0473 0.8996 0.7954
C14 C 0.0035(5) 0.7135(6) 0.81239(18)
H11 H 0.0183 0.7273 0.8472
C15 C 0.0203(5) 0.5906(6) 0.79183(18)
H12 H 0.0466 0.5208 0.8129
C16 C -0.0011(5) 0.5683(5) 0.74004(17)
H13 H 0.0101 0.4839 0.7267
S2 S 0.80448(15) 0.59238(13) 0.42527(4)
N2 N 0.6280(4) 0.4009(4) 0.44374(13)
H14 H 0.6466 0.4171 0.4754
C17 C 0.6926(4) 0.4724(5) 0.40826(15)
C18 C 0.6618(5) 0.4396(5) 0.35635(15)
H15 H 0.7071 0.4847 0.3308
C19 C 0.5697(4) 0.3460(4) 0.34237(14)
C20 C 0.5010(4) 0.2734(4) 0.38193(15)
C21 C 0.5347(5) 0.3040(5) 0.43299(16)
C22 C 0.4733(6) 0.2359(6) 0.47279(17)
H16 H 0.4947 0.2571 0.5066
C23 C 0.3821(6) 0.1386(6) 0.46207(18)
H17 H 0.3422 0.0938 0.4890
C24 C 0.3457(5) 0.1030(5) 0.41154(17)
C25 C 0.4063(4) 0.1720(4) 0.37279(16)
H18 H 0.3836 0.1506 0.3392
C26 C 0.2469(6) -0.0058(5) 0.40076(19)
H19 H 0.2263 -0.0086 0.3648
H20 H 0.1650 0.0098 0.4192
H21 H 0.2858 -0.0887 0.4113
C27 C 0.5421(4) 0.3188(4) 0.28716(14)
C28 C 0.4108(5) 0.3236(5) 0.26644(16)
H22 H 0.3376 0.3398 0.2875
C29 C 0.3892(5) 0.3042(5) 0.21446(17)
H23 H 0.3013 0.3091 0.2010
C30 C 0.4957(5) 0.2777(5) 0.18245(16)
H24 H 0.4802 0.2638 0.1477
C31 C 0.6252(5) 0.2724(5) 0.20295(16)
H25 H 0.6979 0.2549 0.1817
C32 C 0.6489(4) 0.2927(5) 0.25437(15)
H26 H 0.7373 0.2889 0.2674
loop_
_geom_bond_atom_site_label_1
_geom_bond_atom_site_label_2
_geom_bond_site_symmetry_1
_geom_bond_site_symmetry_2
S1 C1 1_555 1_555
N1 H1 1_555 1_555
C1 N1 1_555 1_555
C2 C1 1_555 1_555
H2 C2 1_555 1_555
C3 C2 1_555 1_555
C4 C3 1_555 1_555
C5 N1 1_555 1_555
C6 C5 1_555 1_555
H3 C6 1_555 1_555
C7 C6 1_555 1_555
H4 C7 1_555 1_555
C8 C7 1_555 1_555
C9 C4 1_555 1_555
H5 C9 1_555 1_555
C10 C8 1_555 1_555
H6 C10 1_555 1_555
H7 C10 1_555 1_555
H8 C10 1_555 1_555
C11 C3 1_555 1_555
C12 C11 1_555 1_555
H9 C12 1_555 1_555
C13 C12 1_555 1_555
H10 C13 1_555 1_555
C14 C13 1_555 1_555
H11 C14 1_555 1_555
C15 C14 1_555 1_555
H12 C15 1_555 1_555
C16 C11 1_555 1_555
H13 C16 1_555 1_555
S2 C17 1_555 1_555
N2 H14 1_555 1_555
C17 N2 1_555 1_555
C18 C17 1_555 1_555
H15 C18 1_555 1_555
C19 C18 1_555 1_555
C20 C19 1_555 1_555
C21 N2 1_555 1_555
C22 C21 1_555 1_555
H16 C22 1_555 1_555
C23 C22 1_555 1_555
H17 C23 1_555 1_555
C24 C23 1_555 1_555
C25 C20 1_555 1_555
H18 C25 1_555 1_555
C26 C24 1_555 1_555
H19 C26 1_555 1_555
H20 C26 1_555 1_555
H21 C26 1_555 1_555
C27 C19 1_555 1_555
C28 C27 1_555 1_555
H22 C28 1_555 1_555
C29 C28 1_555 1_555
H23 C29 1_555 1_555
C30 C29 1_555 1_555
H24 C30 1_555 1_555
C31 C30 1_555 1_555
H25 C31 1_555 1_555
C32 C27 1_555 1_555
H26 C32 1_555 1_555
C4 C5 1_555 1_555
C8 C9 1_555 1_555
C15 C16 1_555 1_555
C20 C21 1_555 1_555
C24 C25 1_555 1_555
C31 C32 1_555 1_555

#END
