
#######################################################################
#
#                 Cambridge Crystallographic Data Centre
#                                CCDC 
#
#######################################################################
#
# If this CIF has been generated from an entry in the Cambridge 
# Structural Database, then it will include bibliographic, chemical, 
# crystal, experimental, refinement or atomic coordinate data resulting 
# from the CCDC's data processing and validation procedures.
#
#######################################################################

data_LETFAU
_chemical_formula_moiety         'C21 H17 F1 N2 O1'
_chemical_name_systematic        
11-fluoro-3,3-dimethyl-2,3-dihydro-1H-benzo[a]pyrano[2,3-c]phenazine
_symmetry_cell_setting           triclinic
_symmetry_space_group_name_H-M   'P -1'
_symmetry_Int_Tables_number      2
_space_group_name_Hall           '-P 1'
loop_
_symmetry_equiv_pos_site_id
_symmetry_equiv_pos_as_xyz
1 x,y,z
2 -x,-y,-z
_cell_length_a                   7.0525(3)
_cell_length_b                   9.0190(5)
_cell_length_c                   13.8411(7)
_cell_angle_alpha                79.965(3)
_cell_angle_beta                 79.138(3)
_cell_angle_gamma                67.817(3)
_cell_volume                     795.453
_exptl_crystal_colour            yellow
_exptl_crystal_description       plate
_cell_formula_units_Z            2
loop_
_atom_site_label
_atom_site_type_symbol
_atom_site_fract_x
_atom_site_fract_y
_atom_site_fract_z
F2 F 0.1595(4) 0.4525(3) 0.17259(16)
O1 O 0.3716(3) 0.4436(3) 0.85962(15)
N1 N 0.1980(4) 0.6134(3) 0.47462(18)
N2 N 0.3565(4) 0.2830(3) 0.54986(19)
C1 C 0.2868(5) 0.2556(4) 0.3009(2)
H1 H 0.306873 0.175990 0.259321
C2 C 0.2067(5) 0.4198(4) 0.2653(2)
C3 C 0.1753(5) 0.5388(4) 0.3208(2)
H2 H 0.120126 0.648903 0.294915
C4 C 0.2272(4) 0.4945(4) 0.4190(2)
C5 C 0.2459(4) 0.5674(3) 0.5660(2)
C6 C 0.3259(4) 0.4004(4) 0.6048(2)
C7 C 0.3067(4) 0.3296(4) 0.4563(2)
C8 C 0.3357(5) 0.2104(4) 0.3945(2)
H3 H 0.389220 0.099378 0.418608
C9 C 0.3755(5) 0.3552(4) 0.7052(2)
C10 C 0.3338(4) 0.4720(4) 0.7636(2)
C11 C 0.4218(5) 0.2776(4) 0.9076(2)
C12 C 0.5686(5) 0.1632(4) 0.8351(2)
H4 H 0.600565 0.051006 0.867064
H5 H 0.699575 0.184353 0.818658
C13 C 0.4800(5) 0.1802(4) 0.7398(2)
H6 H 0.592510 0.129011 0.688035
H7 H 0.379169 0.124710 0.751509
C14 C 0.5270(6) 0.2750(4) 0.9945(2)
H8 H 0.554029 0.170549 1.035130
H9 H 0.436975 0.361068 1.034664
H10 H 0.657942 0.291680 0.969657
C15 C 0.2192(5) 0.2487(4) 0.9418(3)
H11 H 0.247368 0.139347 0.976027
H12 H 0.149895 0.260857 0.884286
H13 H 0.129885 0.327106 0.987150
C16 C 0.2484(4) 0.6430(4) 0.7289(2)
C17 C 0.2138(4) 0.6907(4) 0.6297(2)
C18 C 0.1454(5) 0.8547(4) 0.5939(2)
H14 H 0.126655 0.886842 0.526243
C19 C 0.1053(5) 0.9696(4) 0.6561(2)
H15 H 0.060951 1.080629 0.631199
C20 C 0.1301(5) 0.9226(4) 0.7556(2)
H16 H 0.096179 1.002332 0.799043
C21 C 0.2029(5) 0.7623(4) 0.7918(2)
H17 H 0.222666 0.731987 0.859421
F1? F 0.3074(13) 0.1686(9) 0.2340(6)
H18? H 0.173114 0.448542 0.199661
loop_
_geom_bond_atom_site_label_1
_geom_bond_atom_site_label_2
_geom_bond_site_symmetry_1
_geom_bond_site_symmetry_2
F2 C2 1_555 1_555
O1 C10 1_555 1_555
N1 C4 1_555 1_555
N2 C6 1_555 1_555
C1 H1 1_555 1_555
C2 C1 1_555 1_555
C3 C2 1_555 1_555
H2 C3 1_555 1_555
C4 C3 1_555 1_555
C5 N1 1_555 1_555
C6 C5 1_555 1_555
C7 N2 1_555 1_555
C8 C1 1_555 1_555
H3 C8 1_555 1_555
C9 C6 1_555 1_555
C10 C9 1_555 1_555
C11 O1 1_555 1_555
C12 C11 1_555 1_555
H4 C12 1_555 1_555
H5 C12 1_555 1_555
C13 C9 1_555 1_555
H6 C13 1_555 1_555
H7 C13 1_555 1_555
C14 C11 1_555 1_555
H8 C14 1_555 1_555
H9 C14 1_555 1_555
H10 C14 1_555 1_555
C15 C11 1_555 1_555
H11 C15 1_555 1_555
H12 C15 1_555 1_555
H13 C15 1_555 1_555
C16 C10 1_555 1_555
C17 C5 1_555 1_555
C18 C17 1_555 1_555
H14 C18 1_555 1_555
C19 C18 1_555 1_555
H15 C19 1_555 1_555
C20 C19 1_555 1_555
H16 C20 1_555 1_555
C21 C16 1_555 1_555
H17 C21 1_555 1_555
C4 C7 1_555 1_555
C7 C8 1_555 1_555
C12 C13 1_555 1_555
C16 C17 1_555 1_555
C20 C21 1_555 1_555

#END
