
#######################################################################
#
#                 Cambridge Crystallographic Data Centre
#                                CCDC 
#
#######################################################################
#
# If this CIF has been generated from an entry in the Cambridge 
# Structural Database, then it will include bibliographic, chemical, 
# crystal, experimental, refinement or atomic coordinate data resulting 
# from the CCDC's data processing and validation procedures.
#
#######################################################################

data_LETGOI
_chemical_formula_moiety         'C48 H66 N4 O9'
_chemical_name_systematic        
3,11,31-Tri-t-butyl-7,15,27,35,38,45-hexaoxa-18,21,24,41-tetra-azahexacyclo[19.15.7.3^13,29^.0^5,37^.0^9,14^.0^28,33^]hexatetraconta-1(37),2,4,9,11,13,28,30,32-nonaene-17,25,40-trione
_symmetry_cell_setting           monoclinic
_symmetry_space_group_name_H-M   'C 2/c'
_symmetry_Int_Tables_number      15
_space_group_name_Hall           '-C 2yn'
loop_
_symmetry_equiv_pos_site_id
_symmetry_equiv_pos_as_xyz
1 x,y,z
2 -x,y,1/2-z
3 1/2+x,1/2+y,z
4 1/2-x,1/2+y,1/2-z
5 -x,-y,-z
6 x,-y,1/2+z
7 1/2-x,1/2-y,-z
8 1/2+x,1/2-y,1/2+z
_cell_length_a                   19.6831(16)
_cell_length_b                   16.8180(16)
_cell_length_c                   29.267(3)
_cell_angle_alpha                90
_cell_angle_beta                 105.222(4)
_cell_angle_gamma                90
_cell_volume                     9348.36
_cell_formula_units_Z            8
loop_
_atom_site_label
_atom_site_type_symbol
_atom_site_fract_x
_atom_site_fract_y
_atom_site_fract_z
C1 C 0.21260(14) 0.06315(19) 0.11554(9)
H1 H 0.1751 0.0240 0.1075
H2 H 0.2213 0.0816 0.0862
C2 C 0.18804(17) 0.1322(2) 0.13955(11)
H3 H 0.2266 0.1695 0.1500
H4 H 0.1504 0.1594 0.1169
C3 C 0.10146(11) 0.13300(13) 0.18523(8)
C4 C 0.07964(10) 0.10694(13) 0.22809(7)
H5 H 0.0599 0.1520 0.2408
H6 H 0.0431 0.0669 0.2189
C5 C 0.11349(9) 0.03264(11) 0.29826(6)
C6 C 0.10416(9) -0.04927(11) 0.29220(7)
C7 C 0.07825(10) -0.09129(12) 0.32484(7)
H7 H 0.0702 -0.1456 0.3203
C8 C 0.06382(10) -0.05494(13) 0.36419(7)
C9 C 0.07686(10) 0.02607(12) 0.36945(7)
H8 H 0.0688 0.0515 0.3958
C10 C 0.10138(9) 0.07098(11) 0.33730(7)
C11 C 0.03394(12) -0.10268(15) 0.39923(8)
C12 C -0.04029(15) -0.1297(2) 0.37459(11)
H9 H -0.0396 -0.1594 0.3467
H10 H -0.0702 -0.0841 0.3658
H11 H -0.0580 -0.1627 0.3957
C13 C 0.08033(18) -0.1759(2) 0.41613(13)
H12 H 0.0821 -0.2080 0.3893
H13 H 0.0609 -0.2065 0.4374
H14 H 0.1271 -0.1590 0.4323
C14 C 0.0326(2) -0.0551(2) 0.44316(11)
H15 H 0.0796 -0.0385 0.4590
H16 H 0.0143 -0.0876 0.4641
H17 H 0.0032 -0.0092 0.4341
C15 C 0.11685(9) 0.15812(11) 0.34728(7)
H18 H 0.1127 0.1860 0.3177
H19 H 0.0824 0.1803 0.3621
C16 C 0.23862(9) 0.15456(13) 0.35424(7)
H20 H 0.2330 0.1906 0.3276
H21 H 0.2335 0.1007 0.3420
C17 C 0.33788(12) 0.07605(15) 0.14946(8)
H22 H 0.3234 0.1312 0.1491
H23 H 0.3580 0.0680 0.1229
C18 C 0.39327(11) 0.05973(13) 0.19478(7)
H24 H 0.4027 0.0031 0.1972
H25 H 0.4365 0.0864 0.1936
C19 C 0.37723(10) 0.16249(12) 0.24831(7)
C20 C 0.36060(14) 0.18651(13) 0.29341(7)
H26 H 0.3960 0.2238 0.3102
H27 H 0.3155 0.2135 0.2859
C21 C 0.36850(9) 0.14376(10) 0.37099(6)
C22 C 0.31061(9) 0.16479(10) 0.38708(6)
C23 C 0.32224(9) 0.19185(11) 0.43317(7)
H28 H 0.2838 0.2067 0.4441
C24 C 0.38990(9) 0.19770(11) 0.46396(6)
C25 C 0.44504(9) 0.17113(12) 0.44694(7)
H29 H 0.4903 0.1718 0.4671
C26 C 0.43587(9) 0.14334(11) 0.40079(7)
C27 C 0.40060(11) 0.23376(14) 0.51342(7)
C28 C 0.37271(16) 0.31920(16) 0.50812(10)
H30 H 0.3240 0.3191 0.4907
H31 H 0.3994 0.3503 0.4915
H32 H 0.3772 0.3418 0.5389
C29 C 0.35903(17) 0.18715(19) 0.54156(9)
H33 H 0.3103 0.1856 0.5243
H34 H 0.3635 0.2125 0.5716
H35 H 0.3771 0.1339 0.5466
C30 C 0.47737(14) 0.2371(2) 0.54069(9)
H36 H 0.4814 0.2600 0.5713
H37 H 0.5029 0.2690 0.5237
H38 H 0.4965 0.1842 0.5444
C31 C 0.49805(10) 0.11383(12) 0.38465(7)
H39 H 0.4897 0.1247 0.3511
H40 H 0.5395 0.1435 0.4011
C32 C 0.47202(10) -0.02076(12) 0.35755(8)
H41 H 0.5005 -0.0668 0.3551
H42 H 0.4612 0.0064 0.3273
C33 C 0.28916(15) -0.05209(16) 0.12377(8)
H43 H 0.3393 -0.0572 0.1270
H44 H 0.2655 -0.0526 0.0902
C34 C 0.26511(16) -0.12169(17) 0.14659(9)
H45 H 0.2146 -0.1184 0.1420
H46 H 0.2750 -0.1700 0.1314
C35 C 0.36735(14) -0.14448(13) 0.21502(9)
C36 C 0.39494(13) -0.13713(14) 0.26791(8)
H47 H 0.3888 -0.1870 0.2830
H48 H 0.4447 -0.1244 0.2762
C37 C 0.35058(10) -0.07929(11) 0.33002(7)
C38 C 0.40359(9) -0.04916(11) 0.36683(7)
C39 C 0.33067(10) -0.07486(12) 0.42060(7)
C40 C 0.27955(10) -0.10606(12) 0.38254(7)
H49 H 0.2380 -0.1252 0.3878
C41 C 0.28819(10) -0.10966(11) 0.33718(7)
C42 C 0.31679(11) -0.07047(14) 0.46971(7)
C43 C 0.37811(13) -0.03223(18) 0.50600(8)
H50 H 0.3677 -0.0305 0.5362
H51 H 0.3852 0.0208 0.4961
H52 H 0.4200 -0.0630 0.5085
C44 C 0.30564(18) -0.15394(18) 0.48652(10)
H53 H 0.2972 -0.1511 0.5173
H54 H 0.3469 -0.1854 0.4882
H55 H 0.2659 -0.1779 0.4647
C45 C 0.25137(13) -0.01884(18) 0.46668(9)
H56 H 0.2425 -0.0157 0.4973
H57 H 0.2115 -0.0422 0.4446
H58 H 0.2593 0.0336 0.4562
C46 C 0.39257(10) -0.04782(12) 0.41165(7)
H59 H 0.4280 -0.0281 0.4367
C47 C 0.23392(11) -0.14828(12) 0.29760(7)
H60 H 0.2562 -0.1902 0.2840
H61 H 0.1982 -0.1726 0.3105
C48 C 0.12536(10) -0.09021(12) 0.25263(7)
H62 H 0.1063 -0.1437 0.2491
H63 H 0.1055 -0.0619 0.2233
N1 N 0.27591(9) 0.02477(11) 0.14371(6)
N2 N 0.16294(10) 0.10828(13) 0.18011(7)
H64 H 0.1886 0.0775 0.2012
N3 N 0.37327(8) 0.08582(9) 0.23682(6)
H65 H 0.3590 0.0518 0.2542
N4 N 0.29958(12) -0.12582(12) 0.19724(7)
H66 H 0.2748 -0.1156 0.2167
O1 O 0.39414(9) 0.21418(9) 0.22389(6)
O2 O 0.35808(7) 0.12059(7) 0.32366(4)
O3 O 0.51212(6) 0.03084(8) 0.39253(5)
O4 O 0.40642(11) -0.16695(11) 0.19116(7)
O5 O 0.35653(7) -0.07511(7) 0.28361(5)
O6 O 0.20056(7) -0.09401(8) 0.26090(5)
O7 O 0.06157(10) 0.17440(13) 0.15621(7)
O8 O 0.13647(6) 0.07521(8) 0.26400(4)
O9 O 0.18608(6) 0.16994(8) 0.37771(5)
loop_
_geom_bond_atom_site_label_1
_geom_bond_atom_site_label_2
_geom_bond_site_symmetry_1
_geom_bond_site_symmetry_2
C1 H1 1_555 1_555
H2 C1 1_555 1_555
C2 C1 1_555 1_555
H3 C2 1_555 1_555
H4 C2 1_555 1_555
C3 C4 1_555 1_555
C4 H5 1_555 1_555
H6 C4 1_555 1_555
C5 C6 1_555 1_555
C6 C7 1_555 1_555
C7 H7 1_555 1_555
C8 C7 1_555 1_555
C9 C8 1_555 1_555
H8 C9 1_555 1_555
C10 C5 1_555 1_555
C11 C8 1_555 1_555
C12 C11 1_555 1_555
H9 C12 1_555 1_555
H10 C12 1_555 1_555
H11 C12 1_555 1_555
C13 C11 1_555 1_555
H12 C13 1_555 1_555
H13 C13 1_555 1_555
H14 C13 1_555 1_555
C14 C11 1_555 1_555
H15 C14 1_555 1_555
H16 C14 1_555 1_555
H17 C14 1_555 1_555
C15 C10 1_555 1_555
H18 C15 1_555 1_555
H19 C15 1_555 1_555
C16 H20 1_555 1_555
H21 C16 1_555 1_555
C17 H22 1_555 1_555
H23 C17 1_555 1_555
C18 C17 1_555 1_555
H24 C18 1_555 1_555
H25 C18 1_555 1_555
C19 C20 1_555 1_555
C20 H26 1_555 1_555
H27 C20 1_555 1_555
C21 C22 1_555 1_555
C22 C16 1_555 1_555
C23 C22 1_555 1_555
H28 C23 1_555 1_555
C24 C23 1_555 1_555
C25 C24 1_555 1_555
H29 C25 1_555 1_555
C26 C21 1_555 1_555
C27 C24 1_555 1_555
C28 C27 1_555 1_555
H30 C28 1_555 1_555
H31 C28 1_555 1_555
H32 C28 1_555 1_555
C29 C27 1_555 1_555
H33 C29 1_555 1_555
H34 C29 1_555 1_555
H35 C29 1_555 1_555
C30 C27 1_555 1_555
H36 C30 1_555 1_555
H37 C30 1_555 1_555
H38 C30 1_555 1_555
C31 C26 1_555 1_555
H39 C31 1_555 1_555
H40 C31 1_555 1_555
C32 H41 1_555 1_555
H42 C32 1_555 1_555
C33 H43 1_555 1_555
H44 C33 1_555 1_555
C34 C33 1_555 1_555
H45 C34 1_555 1_555
H46 C34 1_555 1_555
C35 C36 1_555 1_555
C36 H47 1_555 1_555
H48 C36 1_555 1_555
C37 C38 1_555 1_555
C38 C32 1_555 1_555
C39 C40 1_555 1_555
C40 H49 1_555 1_555
C41 C37 1_555 1_555
C42 C39 1_555 1_555
C43 C42 1_555 1_555
H50 C43 1_555 1_555
H51 C43 1_555 1_555
H52 C43 1_555 1_555
C44 C42 1_555 1_555
H53 C44 1_555 1_555
H54 C44 1_555 1_555
H55 C44 1_555 1_555
C45 C42 1_555 1_555
H56 C45 1_555 1_555
H57 C45 1_555 1_555
H58 C45 1_555 1_555
C46 C38 1_555 1_555
H59 C46 1_555 1_555
C47 C41 1_555 1_555
H60 C47 1_555 1_555
H61 C47 1_555 1_555
C48 C6 1_555 1_555
H62 C48 1_555 1_555
H63 C48 1_555 1_555
N1 C1 1_555 1_555
N2 C2 1_555 1_555
H64 N2 1_555 1_555
N3 C18 1_555 1_555
H65 N3 1_555 1_555
N4 C34 1_555 1_555
H66 N4 1_555 1_555
O1 C19 1_555 1_555
O2 C20 1_555 1_555
O3 C31 1_555 1_555
O4 C35 1_555 1_555
O5 C36 1_555 1_555
O6 C47 1_555 1_555
O7 C3 1_555 1_555
O8 C4 1_555 1_555
O9 C15 1_555 1_555
C3 N2 1_555 1_555
C5 O8 1_555 1_555
C9 C10 1_555 1_555
C16 O9 1_555 1_555
C17 N1 1_555 1_555
C19 N3 1_555 1_555
C21 O2 1_555 1_555
C25 C26 1_555 1_555
C32 O3 1_555 1_555
C33 N1 1_555 1_555
C35 N4 1_555 1_555
C37 O5 1_555 1_555
C39 C46 1_555 1_555
C40 C41 1_555 1_555
C48 O6 1_555 1_555

#END
