
#######################################################################
#
#                 Cambridge Crystallographic Data Centre
#                                CCDC 
#
#######################################################################
#
# If this CIF has been generated from an entry in the Cambridge 
# Structural Database, then it will include bibliographic, chemical, 
# crystal, experimental, refinement or atomic coordinate data resulting 
# from the CCDC's data processing and validation procedures.
#
#######################################################################

data_LETHIE
_chemical_name_common            GG-8-6
_chemical_formula_moiety         'C48 H85 N9 O9,H2 O1'
_chemical_name_systematic        
'cyclo-(alanyl-leucyl-leucyl-leucyl-valyl-leucyl-valyl-leucyl-prolyl) monohydrate'
_chemical_properties_biological  'anti-tumour activity'
_symmetry_cell_setting           monoclinic
_symmetry_space_group_name_H-M   'P 21'
_symmetry_Int_Tables_number      4
_space_group_name_Hall           'P 2yb'
loop_
_symmetry_equiv_pos_site_id
_symmetry_equiv_pos_as_xyz
1 x,y,z
2 -x,1/2+y,-z
_cell_length_a                   9.75780(10)
_cell_length_b                   24.7965(4)
_cell_length_c                   11.4347(2)
_cell_angle_alpha                90
_cell_angle_beta                 95.2630(10)
_cell_angle_gamma                90
_cell_volume                     2755.07
_exptl_crystal_colour            colorless
_exptl_crystal_description       block
_cell_formula_units_Z            2
_exptl_crystal_recrystallization_method methanol
loop_
_atom_site_label
_atom_site_type_symbol
_atom_site_fract_x
_atom_site_fract_y
_atom_site_fract_z
O1 O 0.00492(13) 0.83254(6) 0.24125(13)
O2 O 0.14234(13) 0.88908(6) 0.01351(13)
O3 O 0.56813(14) 0.99577(6) 0.02176(13)
O4 O 0.58232(14) 0.92021(6) 0.27850(12)
O5 O 0.50442(13) 0.79346(6) 0.12289(12)
O6 O 0.86550(14) 0.68712(6) 0.27476(13)
O7 O 0.66552(18) 0.63525(8) 0.56512(14)
O8 O 0.19627(15) 0.56859(6) 0.29865(13)
O9 O 0.35936(14) 0.69866(6) 0.26373(13)
N1 N 0.30441(15) 0.89921(7) 0.16554(15)
H1 H 0.3917 0.9054 0.1878
N2 N 0.50694(15) 0.90740(6) 0.01636(14)
H2 H 0.5353 0.8742 0.0307
N3 N 0.73830(15) 0.88425(7) 0.16726(14)
H3 H 0.7918 0.8566 0.1551
N4 N 0.68611(16) 0.78256(6) 0.25769(14)
H4 H 0.7627 0.7649 0.2786
N5 N 0.64659(16) 0.66970(7) 0.20363(14)
H5 H 0.5720 0.6507 0.2121
N6 N 0.62631(16) 0.59469(7) 0.38729(14)
H6 H 0.5659 0.5780 0.3381
N7 N 0.36901(16) 0.55991(7) 0.44213(14)
N8 N 0.16243(16) 0.67711(7) 0.34205(13)
H7 H 0.0724 0.6808 0.3381
N9 N 0.20451(15) 0.79428(7) 0.19737(14)
H8 H 0.2918 0.7998 0.1876
C1 C 0.12800(19) 0.83605(8) 0.22780(16)
C2 C 0.20912(18) 0.88858(8) 0.25452(17)
H9 H 0.2671 0.8824 0.3300
C3 C 0.1202(2) 0.93822(9) 0.27365(19)
H10 H 0.0570 0.9436 0.2018
H11 H 0.1816 0.9700 0.2817
C4 C 0.0333(2) 0.93755(10) 0.3794(2)
H12 H -0.0472 0.9132 0.3595
C5 C -0.0221(3) 0.99430(13) 0.3966(3)
H13 H 0.0551 1.0192 0.4139
H14 H -0.0801 0.9943 0.4621
H15 H -0.0767 1.0058 0.3247
C6 C 0.1109(3) 0.91658(15) 0.4920(2)
H16 H 0.1343 0.8785 0.4820
H17 H 0.0529 0.9202 0.5571
H18 H 0.1955 0.9375 0.5092
C7 C 0.26124(18) 0.89970(8) 0.05091(17)
C8 C 0.36668(18) 0.91595(8) -0.03421(17)
H19 H 0.3558 0.9556 -0.0477
C9 C 0.3389(2) 0.88851(9) -0.15481(18)
H20 H 0.2393 0.8938 -0.1815
C10 C 0.4227(2) 0.91586(11) -0.24417(19)
H21 H 0.4002 0.9544 -0.2482
H22 H 0.4007 0.8994 -0.3215
H23 H 0.5210 0.9114 -0.2202
C11 C 0.3660(2) 0.82817(10) -0.1500(2)
H24 H 0.4646 0.8217 -0.1308
H25 H 0.3367 0.8121 -0.2265
H26 H 0.3143 0.8118 -0.0896
C12 C 0.5952(2) 0.94823(8) 0.04218(17)
C13 C 0.74026(18) 0.93146(8) 0.09134(17)
H27 H 0.7850 0.9622 0.1370
C14 C 0.82512(19) 0.91762(8) -0.01146(18)
H28 H 0.9168 0.9047 0.0211
H29 H 0.7793 0.8875 -0.0564
C15 C 0.8456(2) 0.96407(9) -0.09673(19)
H30 H 0.7529 0.9786 -0.1255
C16 C 0.9142(2) 0.94287(11) -0.2025(2)
H31 H 1.0034 0.9268 -0.1757
H32 H 0.9280 0.9727 -0.2564
H33 H 0.8552 0.9155 -0.2432
C17 C 0.9297(3) 1.00981(10) -0.0379(2)
H34 H 1.0193 0.9960 -0.0055
H35 H 0.8806 1.0250 0.0255
H36 H 0.9433 1.0380 -0.0959
C18 C 0.65642(19) 0.88205(8) 0.25546(17)
C19 C 0.64925(19) 0.82951(8) 0.32363(17)
H37 H 0.5508 0.8247 0.3391
C20 C 0.7322(2) 0.83197(9) 0.44372(18)
H38 H 0.7088 0.8658 0.4833
H39 H 0.8313 0.8334 0.4317
C21 C 0.7077(3) 0.78419(10) 0.52529(19)
H40 H 0.7503 0.7513 0.4931
C22 C 0.7808(4) 0.79568(14) 0.6463(2)
H41 H 0.8789 0.8020 0.6392
H42 H 0.7702 0.7647 0.6979
H43 H 0.7405 0.8277 0.6797
C23 C 0.5558(3) 0.77247(13) 0.5346(3)
H44 H 0.5101 0.8052 0.5593
H45 H 0.5468 0.7439 0.5926
H46 H 0.5128 0.7608 0.4580
C24 C 0.60254(19) 0.76611(8) 0.16438(16)
C25 C 0.64073(19) 0.71141(8) 0.11310(16)
H47 H 0.7343 0.7148 0.0848
C26 C 0.5404(2) 0.69452(8) 0.00935(17)
H48 H 0.5325 0.7244 -0.0483
H49 H 0.4486 0.6892 0.0377
C27 C 0.5798(2) 0.64319(9) -0.05365(18)
H50 H 0.5955 0.6139 0.0062
C28 C 0.7115(3) 0.64997(16) -0.1147(3)
H51 H 0.7300 0.6167 -0.1569
H52 H 0.7886 0.6575 -0.0560
H53 H 0.7003 0.6800 -0.1705
C29 C 0.4618(3) 0.62614(12) -0.1418(2)
H54 H 0.4460 0.6540 -0.2023
H55 H 0.3783 0.6214 -0.1014
H56 H 0.4851 0.5920 -0.1785
C30 C 0.76016(19) 0.65927(8) 0.27399(16)
C31 C 0.76021(19) 0.60902(8) 0.35056(17)
H57 H 0.8230 0.6160 0.4231
C32 C 0.8210(2) 0.56236(9) 0.2852(2)
H58 H 0.8311 0.5308 0.3368
H59 H 0.9114 0.5728 0.2617
H60 H 0.7596 0.5535 0.2152
C33 C 0.5941(2) 0.60684(8) 0.49672(17)
C34 C 0.4661(2) 0.57966(8) 0.53756(16)
H61 H 0.4186 0.6045 0.5897
C35 C 0.5094(2) 0.52749(9) 0.60368(18)
H62 H 0.6024 0.5310 0.6455
H63 H 0.4432 0.5179 0.6609
C36 C 0.5080(2) 0.48577(8) 0.50524(19)
H64 H 0.5935 0.4878 0.4650
H65 H 0.4982 0.4488 0.5362
C37 C 0.3832(2) 0.50124(8) 0.42234(19)
H66 H 0.3990 0.4936 0.3397
H67 H 0.3000 0.4816 0.4421
C38 C 0.26601(19) 0.58810(8) 0.38342(16)
C39 C 0.23151(18) 0.64331(8) 0.43208(15)
H68 H 0.3179 0.6614 0.4657
C40 C 0.1369(2) 0.63283(8) 0.53040(16)
H69 H 0.0602 0.6094 0.4983
H70 H 0.1899 0.6124 0.5937
C41 C 0.0754(2) 0.68236(9) 0.58507(18)
H71 H 0.0108 0.7001 0.5238
C42 C 0.1845(3) 0.72343(12) 0.6286(3)
H72 H 0.2528 0.7061 0.6846
H73 H 0.1409 0.7533 0.6673
H74 H 0.2301 0.7373 0.5618
C43 C -0.0077(3) 0.66334(12) 0.6840(2)
H75 H -0.0799 0.6385 0.6523
H76 H -0.0499 0.6945 0.7193
H77 H 0.0533 0.6448 0.7439
C44 C 0.23424(19) 0.70290(8) 0.26450(16)
C45 C 0.14854(18) 0.74014(8) 0.17988(16)
H78 H 0.0519 0.7402 0.2023
C46 C 0.1460(2) 0.72176(8) 0.05098(17)
H79 H 0.2396 0.7275 0.0241
C47 C 0.1115(3) 0.66181(10) 0.0407(2)
H80 H 0.1845 0.6408 0.0841
H81 H 0.1039 0.6512 -0.0422
H82 H 0.0238 0.6550 0.0736
C48 C 0.0428(2) 0.75590(9) -0.02539(19)
H83 H -0.0503 0.7488 -0.0037
H84 H 0.0480 0.7466 -0.1082
H85 H 0.0646 0.7942 -0.0133
O10 O -0.55361(16) 0.56741(7) 0.17204(13)
H86 H -0.6376 0.5688 0.1860
H87 H -0.5449 0.5457 0.1156
loop_
_geom_bond_atom_site_label_1
_geom_bond_atom_site_label_2
_geom_bond_site_symmetry_1
_geom_bond_site_symmetry_2
O1 C1 1_555 1_555
O2 C7 1_555 1_555
O3 C12 1_555 1_555
O4 C18 1_555 1_555
O5 C24 1_555 1_555
O6 C30 1_555 1_555
O7 C33 1_555 1_555
O8 C38 1_555 1_555
O9 C44 1_555 1_555
N1 H1 1_555 1_555
N2 H2 1_555 1_555
N3 H3 1_555 1_555
N4 H4 1_555 1_555
N5 H5 1_555 1_555
N6 H6 1_555 1_555
N7 C34 1_555 1_555
N8 H7 1_555 1_555
N9 H8 1_555 1_555
C1 N9 1_555 1_555
C2 N1 1_555 1_555
H9 C2 1_555 1_555
C3 C2 1_555 1_555
H10 C3 1_555 1_555
H11 C3 1_555 1_555
C4 C3 1_555 1_555
H12 C4 1_555 1_555
C5 C4 1_555 1_555
H13 C5 1_555 1_555
H14 C5 1_555 1_555
H15 C5 1_555 1_555
C6 C4 1_555 1_555
H16 C6 1_555 1_555
H17 C6 1_555 1_555
H18 C6 1_555 1_555
C7 N1 1_555 1_555
C8 N2 1_555 1_555
H19 C8 1_555 1_555
C9 C8 1_555 1_555
H20 C9 1_555 1_555
C10 C9 1_555 1_555
H21 C10 1_555 1_555
H22 C10 1_555 1_555
H23 C10 1_555 1_555
C11 C9 1_555 1_555
H24 C11 1_555 1_555
H25 C11 1_555 1_555
H26 C11 1_555 1_555
C12 N2 1_555 1_555
C13 N3 1_555 1_555
H27 C13 1_555 1_555
C14 C13 1_555 1_555
H28 C14 1_555 1_555
H29 C14 1_555 1_555
C15 C14 1_555 1_555
H30 C15 1_555 1_555
C16 C15 1_555 1_555
H31 C16 1_555 1_555
H32 C16 1_555 1_555
H33 C16 1_555 1_555
C17 C15 1_555 1_555
H34 C17 1_555 1_555
H35 C17 1_555 1_555
H36 C17 1_555 1_555
C18 N3 1_555 1_555
C19 N4 1_555 1_555
H37 C19 1_555 1_555
C20 C19 1_555 1_555
H38 C20 1_555 1_555
H39 C20 1_555 1_555
C21 C20 1_555 1_555
H40 C21 1_555 1_555
C22 C21 1_555 1_555
H41 C22 1_555 1_555
H42 C22 1_555 1_555
H43 C22 1_555 1_555
C23 C21 1_555 1_555
H44 C23 1_555 1_555
H45 C23 1_555 1_555
H46 C23 1_555 1_555
C24 N4 1_555 1_555
C25 N5 1_555 1_555
H47 C25 1_555 1_555
C26 C25 1_555 1_555
H48 C26 1_555 1_555
H49 C26 1_555 1_555
C27 C26 1_555 1_555
H50 C27 1_555 1_555
C28 C27 1_555 1_555
H51 C28 1_555 1_555
H52 C28 1_555 1_555
H53 C28 1_555 1_555
C29 C27 1_555 1_555
H54 C29 1_555 1_555
H55 C29 1_555 1_555
H56 C29 1_555 1_555
C30 N5 1_555 1_555
C31 N6 1_555 1_555
H57 C31 1_555 1_555
C32 C31 1_555 1_555
H58 C32 1_555 1_555
H59 C32 1_555 1_555
H60 C32 1_555 1_555
C33 N6 1_555 1_555
C34 C33 1_555 1_555
H61 C34 1_555 1_555
C35 C34 1_555 1_555
H62 C35 1_555 1_555
H63 C35 1_555 1_555
C36 C35 1_555 1_555
H64 C36 1_555 1_555
H65 C36 1_555 1_555
C37 N7 1_555 1_555
H66 C37 1_555 1_555
H67 C37 1_555 1_555
C38 N7 1_555 1_555
C39 N8 1_555 1_555
H68 C39 1_555 1_555
C40 C39 1_555 1_555
H69 C40 1_555 1_555
H70 C40 1_555 1_555
C41 C40 1_555 1_555
H71 C41 1_555 1_555
C42 C41 1_555 1_555
H72 C42 1_555 1_555
H73 C42 1_555 1_555
H74 C42 1_555 1_555
C43 C41 1_555 1_555
H75 C43 1_555 1_555
H76 C43 1_555 1_555
H77 C43 1_555 1_555
C44 N8 1_555 1_555
C45 N9 1_555 1_555
H78 C45 1_555 1_555
C46 C45 1_555 1_555
H79 C46 1_555 1_555
C47 C46 1_555 1_555
H80 C47 1_555 1_555
H81 C47 1_555 1_555
H82 C47 1_555 1_555
C48 C46 1_555 1_555
H83 C48 1_555 1_555
H84 C48 1_555 1_555
H85 C48 1_555 1_555
O10 H86 1_555 1_555
H87 O10 1_555 1_555
C1 C2 1_555 1_555
C7 C8 1_555 1_555
C12 C13 1_555 1_555
C18 C19 1_555 1_555
C24 C25 1_555 1_555
C30 C31 1_555 1_555
C36 C37 1_555 1_555
C38 C39 1_555 1_555
C44 C45 1_555 1_555

#END
