
#######################################################################
#
#                 Cambridge Crystallographic Data Centre
#                                CCDC 
#
#######################################################################
#
# If this CIF has been generated from an entry in the Cambridge 
# Structural Database, then it will include bibliographic, chemical, 
# crystal, experimental, refinement or atomic coordinate data resulting 
# from the CCDC's data processing and validation procedures.
#
#######################################################################

data_LETPIM
_chemical_name_common            GG-8-6
_chemical_formula_moiety         'C51 H91 N9 O9,H2 O1'
_chemical_name_systematic        
'cyclo-(isoleucyl-leucyl-leucyl-leucyl-valyl-leucyl-valyl-leucyl-prolyl) monohydrate'
_chemical_properties_biological  'tested for anti-tumour activity'
_symmetry_cell_setting           monoclinic
_symmetry_space_group_name_H-M   'P 21'
_symmetry_Int_Tables_number      4
_space_group_name_Hall           'P 2yb'
loop_
_symmetry_equiv_pos_site_id
_symmetry_equiv_pos_as_xyz
1 x,y,z
2 -x,1/2+y,-z
_cell_length_a                   9.7815(2)
_cell_length_b                   25.0832(5)
_cell_length_c                   11.8811(2)
_cell_angle_alpha                90
_cell_angle_beta                 91.1850(10)
_cell_angle_gamma                90
_cell_volume                     2914.42
_exptl_crystal_colour            colorless
_exptl_crystal_description       block
_cell_formula_units_Z            2
_exptl_crystal_recrystallization_method methanol
loop_
_atom_site_label
_atom_site_type_symbol
_atom_site_fract_x
_atom_site_fract_y
_atom_site_fract_z
O1 O 0.54307(15) 0.79565(7) 0.20405(15)
O2 O 0.39438(13) 0.74203(6) -0.02734(12)
O3 O -0.01429(16) 0.63231(7) -0.05705(17)
O4 O -0.02002(15) 0.69831(6) 0.21877(13)
O5 O 0.02759(14) 0.83034(6) 0.08225(12)
O6 O -0.32291(13) 0.92552(6) 0.23889(11)
O7 O -0.10677(16) 0.98732(8) 0.55220(13)
O8 O 0.34428(14) 1.04853(6) 0.29423(12)
O9 O 0.18010(14) 0.92145(7) 0.23556(12)
N1 N 0.33602(15) 0.83103(7) 0.15777(13)
H1 H 0.2493 0.8242 0.1428
N2 N 0.24624(16) 0.72692(7) 0.11164(14)
H2 H 0.1618 0.7191 0.1297
N3 N 0.03073(16) 0.72014(7) -0.03613(14)
H3 H -0.0007 0.7514 -0.0151
N4 N -0.18934(16) 0.73046(7) 0.10539(14)
H4 H -0.2480 0.7563 0.0912
N5 N -0.15109(16) 0.83153(7) 0.19844(13)
H5 H -0.2328 0.8446 0.2115
N6 N -0.11047(15) 0.94579(7) 0.18137(12)
H6 H -0.0347 0.9636 0.1961
N7 N -0.07764(15) 1.01436(7) 0.37203(13)
H7 H -0.0223 1.0288 0.3232
N8 N 0.18459(16) 1.05261(7) 0.42745(13)
N9 N 0.38285(16) 0.94029(7) 0.31994(13)
H8 H 0.4723 0.9368 0.3187
C1 C 0.4198(2) 0.79034(9) 0.18575(16)
C2 C 0.34897(18) 0.73620(9) 0.20083(16)
H9 H 0.2986 0.7382 0.2731
C3 C 0.4521(2) 0.69103(10) 0.21388(18)
H10 H 0.5107 0.6983 0.2811
H11 H 0.5118 0.6912 0.1476
C4 C 0.3911(2) 0.63534(10) 0.2258(2)
H12 H 0.3368 0.6274 0.1555
C5 C 0.5052(3) 0.59426(14) 0.2356(4)
H13 H 0.5645 0.5972 0.1704
H14 H 0.4656 0.5584 0.2380
H15 H 0.5591 0.6007 0.3047
C6 C 0.2953(3) 0.63137(14) 0.3245(3)
H16 H 0.3433 0.6429 0.3935
H17 H 0.2652 0.5944 0.3330
H18 H 0.2155 0.6543 0.3106
C7 C 0.27900(18) 0.73022(8) 0.00274(16)
C8 C 0.16626(18) 0.71676(9) -0.08439(16)
H19 H 0.1800 0.6786 -0.1057
C9 C 0.1803(2) 0.74947(10) -0.19309(17)
H20 H 0.2798 0.7507 -0.2107
C10 C 0.1071(3) 0.72168(12) -0.29169(19)
H21 H 0.1449 0.6858 -0.3010
H22 H 0.1201 0.7423 -0.3607
H23 H 0.0092 0.7191 -0.2765
C11 C 0.1322(2) 0.80672(10) -0.18083(19)
H24 H 0.0330 0.8072 -0.1711
H25 H 0.1552 0.8269 -0.2485
H26 H 0.1775 0.8229 -0.1149
C12 C -0.0473(2) 0.67652(9) -0.02301(18)
C13 C -0.18594(19) 0.68357(9) 0.03297(18)
H27 H -0.2006 0.6517 0.0818
C14 C -0.3001(2) 0.68362(9) -0.05826(18)
H28 H -0.3099 0.6468 -0.0873
H29 H -0.3870 0.6930 -0.0217
C15 C -0.28301(19) 0.72087(10) -0.15924(18)
H30 H -0.1924 0.7133 -0.1933
C16 C -0.3953(2) 0.70832(12) -0.24718(19)
H31 H -0.3922 0.6704 -0.2664
H32 H -0.3806 0.7297 -0.3150
H33 H -0.4848 0.7169 -0.2164
C17 C -0.2871(2) 0.77964(10) -0.12770(19)
H34 H -0.3697 0.7869 -0.0850
H35 H -0.2880 0.8013 -0.1963
H36 H -0.2062 0.7885 -0.0815
C18 C -0.10175(19) 0.73392(9) 0.19450(16)
C19 C -0.10010(19) 0.78584(9) 0.26159(16)
H37 H -0.0020 0.7935 0.2806
C20 C -0.1730(2) 0.78067(10) 0.37367(17)
H38 H -0.1356 0.7494 0.4148
H39 H -0.2714 0.7739 0.3583
C21 C -0.1586(3) 0.83035(11) 0.44948(19)
H40 H -0.2122 0.8600 0.4137
C22 C -0.2207(4) 0.81803(14) 0.5635(2)
H41 H -0.3172 0.8085 0.5527
H42 H -0.2132 0.8495 0.6121
H43 H -0.1714 0.7882 0.5988
C23 C -0.0107(3) 0.84896(13) 0.4652(2)
H44 H 0.0450 0.8196 0.4955
H45 H -0.0073 0.8791 0.5176
H46 H 0.0250 0.8601 0.3924
C24 C -0.07214(18) 0.85369(8) 0.11993(15)
C25 C -0.11583(18) 0.90980(8) 0.08350(15)
H47 H -0.2125 0.9081 0.0545
C26 C -0.0268(2) 0.93188(9) -0.00960(16)
H48 H 0.0677 0.9357 0.0207
H49 H -0.0246 0.9054 -0.0713
C27 C -0.0717(2) 0.98515(10) -0.05898(16)
H50 H -0.0833 1.0106 0.0049
C28 C -0.2075(3) 0.98174(15) -0.1232(3)
H51 H -0.1997 0.9562 -0.1853
H52 H -0.2315 1.0169 -0.1535
H53 H -0.2789 0.9698 -0.0723
C29 C 0.0385(3) 1.00757(14) -0.1346(2)
H54 H 0.1243 1.0114 -0.0912
H55 H 0.0097 1.0425 -0.1633
H56 H 0.0524 0.9833 -0.1979
C30 C -0.21718(18) 0.95221(8) 0.24855(15)
C31 C -0.21368(18) 0.99636(8) 0.33632(15)
H57 H -0.2567 0.9812 0.4049
C32 C -0.31007(18) 1.04156(9) 0.29432(16)
H58 H -0.4027 1.0253 0.2833
C33 C -0.3240(2) 1.08446(10) 0.38442(19)
H59 H -0.3429 1.0676 0.4569
H60 H -0.3994 1.1085 0.3635
H61 H -0.2388 1.1049 0.3907
C34 C -0.2701(2) 1.06466(9) 0.18048(18)
H62 H -0.1853 1.0858 0.1906
H63 H -0.2503 1.0350 0.1284
C35 C -0.3805(2) 1.09990(10) 0.1273(2)
H64 H -0.3553 1.1091 0.0504
H65 H -0.3896 1.1326 0.1718
H66 H -0.4678 1.0807 0.1257
C36 C -0.03756(19) 1.00856(9) 0.48096(16)
C37 C 0.10079(19) 1.03180(9) 0.51826(15)
H67 H 0.1538 1.0046 0.5625
C38 C 0.0789(2) 1.08182(10) 0.59100(17)
H68 H -0.0053 1.0787 0.6353
H69 H 0.1578 1.0880 0.6429
C39 C 0.0661(2) 1.12614(10) 0.5039(2)
H70 H 0.0897 1.1611 0.5376
H71 H -0.0280 1.1279 0.4718
C40 C 0.1682(2) 1.11077(9) 0.41381(19)
H72 H 0.1320 1.1196 0.3376
H73 H 0.2565 1.1294 0.4262
C41 C 0.28308(18) 1.02661(8) 0.37120(15)
C42 C 0.32132(18) 0.97017(8) 0.40980(15)
H74 H 0.2372 0.9512 0.4347
C43 C 0.42269(18) 0.97505(9) 0.51003(15)
H75 H 0.5041 0.9949 0.4849
H76 H 0.3793 0.9966 0.5693
C44 C 0.4704(2) 0.92248(10) 0.56203(16)
H77 H 0.5190 0.9016 0.5033
C45 C 0.3523(3) 0.88908(14) 0.6036(3)
H78 H 0.2990 0.9100 0.6569
H79 H 0.3881 0.8571 0.6413
H80 H 0.2935 0.8786 0.5396
C46 C 0.5721(2) 0.93449(11) 0.65850(17)
H81 H 0.6482 0.9556 0.6299
H82 H 0.6072 0.9009 0.6900
H83 H 0.5259 0.9546 0.7173
C47 C 0.30523(19) 0.91784(9) 0.23843(16)
C48 C 0.38365(18) 0.88578(9) 0.15137(15)
H84 H 0.4830 0.8865 0.1730
C49 C 0.36646(19) 0.90965(9) 0.03291(16)
H85 H 0.2685 0.9059 0.0085
C50 C 0.4544(2) 0.87898(10) -0.04969(18)
H86 H 0.5511 0.8834 -0.0288
H87 H 0.4379 0.8927 -0.1260
H88 H 0.4305 0.8411 -0.0474
C51 C 0.4032(3) 0.96862(10) 0.03309(19)
H89 H 0.3395 0.9881 0.0805
H90 H 0.3971 0.9825 -0.0440
H91 H 0.4966 0.9732 0.0629
O10 O 0.91635(14) 0.54224(7) 0.82683(12)
H92 H 0.9400 0.5697 0.8677
H93 H 0.8286 0.5431 0.8132
loop_
_geom_bond_atom_site_label_1
_geom_bond_atom_site_label_2
_geom_bond_site_symmetry_1
_geom_bond_site_symmetry_2
O1 C1 1_555 1_555
O2 C7 1_555 1_555
O3 C12 1_555 1_555
O4 C18 1_555 1_555
O5 C24 1_555 1_555
O6 C30 1_555 1_555
O7 C36 1_555 1_555
O8 C41 1_555 1_555
O9 C47 1_555 1_555
N1 H1 1_555 1_555
N2 H2 1_555 1_555
N3 H3 1_555 1_555
N4 H4 1_555 1_555
N5 H5 1_555 1_555
N6 H6 1_555 1_555
N7 H7 1_555 1_555
N8 C37 1_555 1_555
N9 H8 1_555 1_555
C1 N1 1_555 1_555
C2 N2 1_555 1_555
H9 C2 1_555 1_555
C3 C2 1_555 1_555
H10 C3 1_555 1_555
H11 C3 1_555 1_555
C4 C3 1_555 1_555
H12 C4 1_555 1_555
C5 C4 1_555 1_555
H13 C5 1_555 1_555
H14 C5 1_555 1_555
H15 C5 1_555 1_555
C6 C4 1_555 1_555
H16 C6 1_555 1_555
H17 C6 1_555 1_555
H18 C6 1_555 1_555
C7 N2 1_555 1_555
C8 N3 1_555 1_555
H19 C8 1_555 1_555
C9 C8 1_555 1_555
H20 C9 1_555 1_555
C10 C9 1_555 1_555
H21 C10 1_555 1_555
H22 C10 1_555 1_555
H23 C10 1_555 1_555
C11 C9 1_555 1_555
H24 C11 1_555 1_555
H25 C11 1_555 1_555
H26 C11 1_555 1_555
C12 N3 1_555 1_555
C13 N4 1_555 1_555
H27 C13 1_555 1_555
C14 C13 1_555 1_555
H28 C14 1_555 1_555
H29 C14 1_555 1_555
C15 C14 1_555 1_555
H30 C15 1_555 1_555
C16 C15 1_555 1_555
H31 C16 1_555 1_555
H32 C16 1_555 1_555
H33 C16 1_555 1_555
C17 C15 1_555 1_555
H34 C17 1_555 1_555
H35 C17 1_555 1_555
H36 C17 1_555 1_555
C18 N4 1_555 1_555
C19 N5 1_555 1_555
H37 C19 1_555 1_555
C20 C19 1_555 1_555
H38 C20 1_555 1_555
H39 C20 1_555 1_555
C21 C20 1_555 1_555
H40 C21 1_555 1_555
C22 C21 1_555 1_555
H41 C22 1_555 1_555
H42 C22 1_555 1_555
H43 C22 1_555 1_555
C23 C21 1_555 1_555
H44 C23 1_555 1_555
H45 C23 1_555 1_555
H46 C23 1_555 1_555
C24 N5 1_555 1_555
C25 N6 1_555 1_555
H47 C25 1_555 1_555
C26 C25 1_555 1_555
H48 C26 1_555 1_555
H49 C26 1_555 1_555
C27 C26 1_555 1_555
H50 C27 1_555 1_555
C28 C27 1_555 1_555
H51 C28 1_555 1_555
H52 C28 1_555 1_555
H53 C28 1_555 1_555
C29 C27 1_555 1_555
H54 C29 1_555 1_555
H55 C29 1_555 1_555
H56 C29 1_555 1_555
C30 N6 1_555 1_555
C31 N7 1_555 1_555
H57 C31 1_555 1_555
C32 C31 1_555 1_555
H58 C32 1_555 1_555
C33 C32 1_555 1_555
H59 C33 1_555 1_555
H60 C33 1_555 1_555
H61 C33 1_555 1_555
C34 C32 1_555 1_555
H62 C34 1_555 1_555
H63 C34 1_555 1_555
C35 C34 1_555 1_555
H64 C35 1_555 1_555
H65 C35 1_555 1_555
H66 C35 1_555 1_555
C36 N7 1_555 1_555
C37 C36 1_555 1_555
H67 C37 1_555 1_555
C38 C37 1_555 1_555
H68 C38 1_555 1_555
H69 C38 1_555 1_555
C39 C38 1_555 1_555
H70 C39 1_555 1_555
H71 C39 1_555 1_555
C40 N8 1_555 1_555
H72 C40 1_555 1_555
H73 C40 1_555 1_555
C41 N8 1_555 1_555
C42 N9 1_555 1_555
H74 C42 1_555 1_555
C43 C42 1_555 1_555
H75 C43 1_555 1_555
H76 C43 1_555 1_555
C44 C43 1_555 1_555
H77 C44 1_555 1_555
C45 C44 1_555 1_555
H78 C45 1_555 1_555
H79 C45 1_555 1_555
H80 C45 1_555 1_555
C46 C44 1_555 1_555
H81 C46 1_555 1_555
H82 C46 1_555 1_555
H83 C46 1_555 1_555
C47 N9 1_555 1_555
C48 N1 1_555 1_555
H84 C48 1_555 1_555
C49 C48 1_555 1_555
H85 C49 1_555 1_555
C50 C49 1_555 1_555
H86 C50 1_555 1_555
H87 C50 1_555 1_555
H88 C50 1_555 1_555
C51 C49 1_555 1_555
H89 C51 1_555 1_555
H90 C51 1_555 1_555
H91 C51 1_555 1_555
O10 H92 1_555 1_555
H93 O10 1_555 1_555
C1 C2 1_555 1_555
C7 C8 1_555 1_555
C12 C13 1_555 1_555
C18 C19 1_555 1_555
C24 C25 1_555 1_555
C30 C31 1_555 1_555
C39 C40 1_555 1_555
C41 C42 1_555 1_555
C47 C48 1_555 1_555

#END
