
#######################################################################
#
#                 Cambridge Crystallographic Data Centre
#                                CCDC 
#
#######################################################################
#
# If this CIF has been generated from an entry in the Cambridge 
# Structural Database, then it will include bibliographic, chemical, 
# crystal, experimental, refinement or atomic coordinate data resulting 
# from the CCDC's data processing and validation procedures.
#
#######################################################################

data_LETQOT
_chemical_formula_moiety         'C29 H32 O3'
_chemical_name_systematic        
'[3-(3,5-di-t-butyl-4-hydroxyphenyl)-2,3-dihydro-1-benzofuran-2-yl](phenyl)methanone'
_symmetry_cell_setting           triclinic
_symmetry_space_group_name_H-M   'P -1'
_symmetry_Int_Tables_number      2
_space_group_name_Hall           '-P 1'
loop_
_symmetry_equiv_pos_site_id
_symmetry_equiv_pos_as_xyz
1 x,y,z
2 -x,-y,-z
_cell_length_a                   10.4358(12)
_cell_length_b                   10.4798(9)
_cell_length_c                   13.3318(12)
_cell_angle_alpha                75.949(8)
_cell_angle_beta                 69.761(9)
_cell_angle_gamma                64.170(10)
_cell_volume                     1224
_exptl_crystal_colour            colorless
_exptl_crystal_description       block
_cell_formula_units_Z            2
loop_
_atom_site_label
_atom_site_type_symbol
_atom_site_fract_x
_atom_site_fract_y
_atom_site_fract_z
O1 O 0.32438(19) 0.43061(19) 0.11121(13)
O2 O 0.8540(2) 0.2957(2) 0.43128(15)
H1 H 0.9193 0.3179 0.3855
C1 C 0.5695(2) 0.2710(2) 0.28958(17)
C2 C 0.6919(2) 0.3014(2) 0.22676(17)
H2 H 0.7066 0.3196 0.1527
C3 C 0.5493(3) 0.2419(2) 0.40003(17)
H3 H 0.4692 0.2184 0.4426
C4 C 0.7935(2) 0.3060(2) 0.26945(18)
C5 C 0.4563(2) 0.2750(2) 0.24062(17)
H4 H 0.3961 0.2249 0.2925
C6 C 0.6448(3) 0.2466(2) 0.44939(18)
C7 C 0.3528(3) 0.4290(2) 0.21137(18)
H5 H 0.4035 0.4933 0.1995
O3 O 0.1721(3) 0.4008(2) 0.37048(18)
C8 C 0.4319(3) 0.3092(3) 0.06673(19)
C9 C 0.7644(3) 0.2829(2) 0.38206(19)
C10 C 0.5143(3) 0.2158(3) 0.13454(18)
C11 C 0.9292(3) 0.3370(3) 0.1960(2)
C12 C 0.1051(3) 0.6353(3) 0.2865(2)
C13 C 0.2058(3) 0.4825(3) 0.2951(2)
C14 C 0.6183(3) 0.2156(3) 0.57231(19)
C15 C 0.6238(3) 0.0885(3) 0.1007(2)
H6 H 0.6808 0.0241 0.1453
C16 C 0.9473(3) 0.3361(3) 0.0768(2)
H7 H 0.9518 0.2467 0.0663
H8 H 1.0371 0.3485 0.0339
H9 H 0.8645 0.4124 0.0559
C17 C 1.0750(3) 0.2230(3) 0.2184(2)
H10 H 1.0607 0.1364 0.2522
H11 H 1.1032 0.2567 0.2650
H12 H 1.1515 0.2050 0.1518
C18 C -0.0142(3) 0.6859(3) 0.3737(3)
H13 H -0.0289 0.6243 0.4358
C19 C 0.4535(3) 0.2816(4) -0.0351(2)
H14 H 0.3965 0.3462 -0.0797
C20 C 0.1278(3) 0.7258(3) 0.1934(3)
H15 H 0.2079 0.6931 0.1342
C21 C 0.9107(3) 0.4869(3) 0.2093(3)
H16 H 0.8227 0.5569 0.1910
H17 H 0.9951 0.5065 0.1627
H18 H 0.9027 0.4907 0.2826
C22 C 0.5831(4) 0.3508(3) 0.6205(2)
H19 H 0.6644 0.3812 0.5894
H20 H 0.5677 0.3302 0.6969
H21 H 0.4951 0.4253 0.6051
C23 C 0.6473(4) 0.0583(4) -0.0014(3)
H22 H 0.7205 -0.0274 -0.0253
C24 C 0.5635(4) 0.1538(4) -0.0676(2)
H23 H 0.5815 0.1316 -0.1359
C25 C 0.7546(4) 0.0930(3) 0.6015(2)
H24 H 0.7741 0.0085 0.5731
H25 H 0.7358 0.0752 0.6783
H26 H 0.8390 0.1190 0.5712
C26 C 0.4853(4) 0.1718(4) 0.6260(2)
H27 H 0.3982 0.2469 0.6098
H28 H 0.4705 0.1548 0.7024
H29 H 0.5040 0.0864 0.5993
C27 C -0.1114(4) 0.8257(4) 0.3701(3)
H30 H -0.1911 0.8591 0.4295
C28 C -0.0899(4) 0.9151(4) 0.2786(4)
H31 H -0.1558 1.0099 0.2758
C29 C 0.0270(4) 0.8680(3) 0.1906(3)
H32 H 0.0396 0.9305 0.1288
loop_
_geom_bond_atom_site_label_1
_geom_bond_atom_site_label_2
_geom_bond_site_symmetry_1
_geom_bond_site_symmetry_2
O1 C7 1_555 1_555
O2 H1 1_555 1_555
C1 C2 1_555 1_555
C2 H2 1_555 1_555
C3 C1 1_555 1_555
H3 C3 1_555 1_555
C4 C2 1_555 1_555
C5 C1 1_555 1_555
H4 C5 1_555 1_555
C6 C3 1_555 1_555
C7 C5 1_555 1_555
H5 C7 1_555 1_555
O3 C13 1_555 1_555
C8 O1 1_555 1_555
C9 O2 1_555 1_555
C10 C5 1_555 1_555
C11 C4 1_555 1_555
C12 C13 1_555 1_555
C13 C7 1_555 1_555
C14 C6 1_555 1_555
C15 C10 1_555 1_555
H6 C15 1_555 1_555
C16 C11 1_555 1_555
H7 C16 1_555 1_555
H8 C16 1_555 1_555
H9 C16 1_555 1_555
C17 C11 1_555 1_555
H10 C17 1_555 1_555
H11 C17 1_555 1_555
H12 C17 1_555 1_555
C18 C12 1_555 1_555
H13 C18 1_555 1_555
C19 C8 1_555 1_555
H14 C19 1_555 1_555
C20 C12 1_555 1_555
H15 C20 1_555 1_555
C21 C11 1_555 1_555
H16 C21 1_555 1_555
H17 C21 1_555 1_555
H18 C21 1_555 1_555
C22 C14 1_555 1_555
H19 C22 1_555 1_555
H20 C22 1_555 1_555
H21 C22 1_555 1_555
C23 C15 1_555 1_555
H22 C23 1_555 1_555
C24 C19 1_555 1_555
H23 C24 1_555 1_555
C25 C14 1_555 1_555
H24 C25 1_555 1_555
H25 C25 1_555 1_555
H26 C25 1_555 1_555
C26 C14 1_555 1_555
H27 C26 1_555 1_555
H28 C26 1_555 1_555
H29 C26 1_555 1_555
C27 C18 1_555 1_555
H30 C27 1_555 1_555
C28 C27 1_555 1_555
H31 C28 1_555 1_555
C29 C20 1_555 1_555
H32 C29 1_555 1_555
C4 C9 1_555 1_555
C6 C9 1_555 1_555
C8 C10 1_555 1_555
C23 C24 1_555 1_555
C28 C29 1_555 1_555

#END
