
#######################################################################
#
#                 Cambridge Crystallographic Data Centre
#                                CCDC 
#
#######################################################################
#
# If this CIF has been generated from an entry in the Cambridge 
# Structural Database, then it will include bibliographic, chemical, 
# crystal, experimental, refinement or atomic coordinate data resulting 
# from the CCDC's data processing and validation procedures.
#
#######################################################################

data_LETVIQ01
_chemical_formula_moiety         'C24 H18 O1'
_chemical_name_systematic        
3-methyl-2,4,5-triphenylcyclopenta-2,4-dien-1-one
_symmetry_cell_setting           monoclinic
_symmetry_space_group_name_H-M   'P 21/c'
_symmetry_Int_Tables_number      14
_space_group_name_Hall           '-P 2ybc'
loop_
_symmetry_equiv_pos_site_id
_symmetry_equiv_pos_as_xyz
1 x,y,z
2 -x,1/2+y,1/2-z
3 -x,-y,-z
4 x,1/2-y,1/2+z
_cell_length_a                   8.0608(16)
_cell_length_b                   22.417(4)
_cell_length_c                   9.828(2)
_cell_angle_alpha                90
_cell_angle_beta                 105.296(3)
_cell_angle_gamma                90
_cell_volume                     1713
_exptl_crystal_colour            colorless
_exptl_crystal_description       prism
_cell_formula_units_Z            4
loop_
_atom_site_label
_atom_site_type_symbol
_atom_site_fract_x
_atom_site_fract_y
_atom_site_fract_z
O1 O -0.07724(15) 0.31054(5) 0.90842(12)
C1 C 0.0802(2) 0.18103(7) 0.79425(16)
C2 C -0.17603(19) 0.17875(7) 0.90196(16)
C3 C 0.1384(2) 0.08054(7) 0.89998(17)
C4 C 0.0023(2) 0.27244(7) 0.86347(16)
C5 C 0.2441(2) 0.44706(7) 0.79262(18)
C6 C 0.4266(2) 0.34222(8) 0.86894(18)
C7 C 0.1642(2) 0.03059(7) 0.64901(18)
C8 C 0.19854(19) 0.22890(7) 0.76375(16)
C9 C 0.1576(2) 0.28200(7) 0.80937(16)
C10 C 0.1940(2) -0.00403(7) 0.76956(19)
C11 C 0.1227(2) 0.09059(7) 0.65376(17)
C12 C 0.4211(2) 0.44875(8) 0.84352(18)
C13 C 0.3389(2) 0.21653(7) 0.69501(18)
C14 C -0.2671(2) 0.12893(7) 0.83462(18)
C15 C -0.0375(2) 0.20636(6) 0.85198(16)
C16 C -0.2179(2) 0.20127(7) 1.02111(17)
C17 C 0.1574(2) 0.39296(7) 0.77964(17)
C18 C 0.1792(2) 0.02084(7) 0.89490(18)
C19 C -0.4275(2) 0.12366(8) 1.00907(19)
C20 C -0.3912(2) 0.10184(7) 0.88826(19)
C21 C -0.3412(2) 0.17350(8) 1.07511(19)
C22 C 0.11141(19) 0.11653(6) 0.77995(16)
C23 C 0.2475(2) 0.33975(7) 0.81730(16)
C24 C 0.5124(2) 0.39649(8) 0.88214(18)
H1 H -0.36933 0.19039 1.1622
H2 H -0.15594 0.23618 1.06583
H3 H -0.51469 0.10304 1.05027
H4 H -0.4565 0.06683 0.83582
H5 H -0.23915 0.11321 0.74944
H6 H 0.12962 0.09886 0.99044
H7 H 0.19863 -0.00414 0.98367
H8 H 0.22434 -0.04602 0.76543
H9 H 0.16972 0.01228 0.55736
H10 H 0.10098 0.11475 0.56666
H11 H 0.44341 0.19861 0.76372
H12 H 0.30595 0.18644 0.62073
H13 H 0.37739 0.25338 0.65446
H14 H 0.0332 0.39244 0.74536
H15 H 0.17577 0.48436 0.76362
H16 H 0.48377 0.48721 0.85319
H17 H 0.63983 0.39707 0.91713
H18 H 0.49187 0.30369 0.9018
loop_
_geom_bond_atom_site_label_1
_geom_bond_atom_site_label_2
_geom_bond_site_symmetry_1
_geom_bond_site_symmetry_2
O1 C4 1_555 1_555
C1 C8 1_555 1_555
C2 C14 1_555 1_555
C3 C18 1_555 1_555
C4 C9 1_555 1_555
C5 C12 1_555 1_555
C6 C23 1_555 1_555
C7 C10 1_555 1_555
C8 C9 1_555 1_555
C9 C23 1_555 1_555
C10 C18 1_555 1_555
C11 C7 1_555 1_555
C12 C24 1_555 1_555
C13 C8 1_555 1_555
C14 C20 1_555 1_555
C15 C1 1_555 1_555
C16 C2 1_555 1_555
C17 C5 1_555 1_555
C18 H7 1_555 1_555
C19 C20 1_555 1_555
C20 H4 1_555 1_555
C21 C16 1_555 1_555
C22 C1 1_555 1_555
C23 C17 1_555 1_555
C24 C6 1_555 1_555
H1 C21 1_555 1_555
H2 C16 1_555 1_555
H3 C19 1_555 1_555
H5 C14 1_555 1_555
H6 C3 1_555 1_555
H8 C10 1_555 1_555
H9 C7 1_555 1_555
H10 C11 1_555 1_555
H11 C13 1_555 1_555
H12 C13 1_555 1_555
H13 C13 1_555 1_555
H14 C17 1_555 1_555
H15 C5 1_555 1_555
H16 C12 1_555 1_555
H17 C24 1_555 1_555
H18 C6 1_555 1_555
C2 C15 1_555 1_555
C3 C22 1_555 1_555
C4 C15 1_555 1_555
C11 C22 1_555 1_555
C19 C21 1_555 1_555

#END
