
#######################################################################
#
#                 Cambridge Crystallographic Data Centre
#                                CCDC 
#
#######################################################################
#
# If this CIF has been generated from an entry in the Cambridge 
# Structural Database, then it will include bibliographic, chemical, 
# crystal, experimental, refinement or atomic coordinate data resulting 
# from the CCDC's data processing and validation procedures.
#
#######################################################################

data_LETXOA
_chemical_formula_moiety         'C25 H28 O4'
_chemical_name_systematic        
'(R)-3-(2-benzyl-3-hydroxypropyl)-4-hydroxynaphthalen-1-yl 2,2-dimethylpropanoate'
_symmetry_cell_setting           triclinic
_symmetry_space_group_name_H-M   'P 1'
_symmetry_Int_Tables_number      1
_space_group_name_Hall           'P 1'
loop_
_symmetry_equiv_pos_site_id
_symmetry_equiv_pos_as_xyz
1 x,y,z
_cell_length_a                   9.9217(5)
_cell_length_b                   10.0350(6)
_cell_length_c                   11.6791(7)
_cell_angle_alpha                87.228(4)
_cell_angle_beta                 78.881(4)
_cell_angle_gamma                72.409(4)
_cell_volume                     1087.58
_exptl_crystal_colour            colorless
_exptl_crystal_description       block
_cell_formula_units_Z            2
loop_
_atom_site_label
_atom_site_type_symbol
_atom_site_fract_x
_atom_site_fract_y
_atom_site_fract_z
O1 O 0.2827(4) 0.4649(3) 0.7041(2)
H1 H 0.360902 0.405281 0.686232
O2 O 0.0553(3) 0.6984(3) 0.3169(2)
O3 O 0.2379(4) 0.7766(5) 0.2423(3)
O4 O 0.5491(4) 0.2753(4) 0.6473(4)
H2 H 0.600884 0.291419 0.688241
C1 C 0.2322(4) 0.5180(4) 0.6047(3)
C2 C 0.1336(4) 0.6547(4) 0.6161(3)
C3 C 0.0850(5) 0.7281(5) 0.7251(4)
H3 H 0.120946 0.687498 0.790539
C4 C -0.0132(6) 0.8566(5) 0.7339(5)
H4 H -0.044427 0.902484 0.805839
C5 C -0.0681(5) 0.9210(5) 0.6383(5)
H5 H -0.135039 1.009417 0.646234
C6 C -0.0235(4) 0.8539(4) 0.5310(4)
H6 H -0.058877 0.898202 0.466434
C7 C 0.0750(4) 0.7192(4) 0.5187(3)
C8 C 0.1186(4) 0.6412(4) 0.4133(3)
C9 C 0.2084(4) 0.5092(4) 0.4062(3)
H7 H 0.231577 0.460393 0.335936
C10 C 0.2682(4) 0.4428(4) 0.5019(3)
C11 C 0.3584(4) 0.2925(4) 0.4910(4)
H8 H 0.322355 0.246013 0.438059
H9 H 0.343577 0.249667 0.566820
C12 C 0.5209(4) 0.2625(5) 0.4482(4)
H10 H 0.562945 0.160619 0.446218
C13 C 0.5898(5) 0.3180(6) 0.5299(5)
H11 H 0.693581 0.283911 0.506183
H12 H 0.560811 0.419231 0.526586
C14 C 0.5605(5) 0.3136(6) 0.3249(4)
H13 H 0.525418 0.414909 0.326204
H14 H 0.664589 0.287224 0.304011
C15 C 0.5052(5) 0.2617(6) 0.2303(5)
C16 C 0.4508(7) 0.3546(7) 0.1463(6)
H15 H 0.449682 0.447407 0.148941
C17 C 0.3965(9) 0.3076(11) 0.0555(7)
H16 H 0.359765 0.369156 -0.000895
C18 C 0.3999(9) 0.1713(11) 0.0537(7)
H17 H 0.367090 0.139921 -0.006191
C19 C 0.4506(8) 0.0773(9) 0.1381(7)
H18 H 0.448821 -0.014838 0.137328
C20 C 0.5034(7) 0.1257(6) 0.2227(5)
H19 H 0.540220 0.062871 0.278322
C21 C 0.1272(4) 0.7605(4) 0.2345(3)
C22 C 0.0505(4) 0.8066(4) 0.1326(3)
C23 C 0.0355(8) 0.6773(6) 0.0787(5)
H20 H -0.024547 0.636322 0.134517
H21 H 0.128876 0.610575 0.056953
H22 H -0.007190 0.703746 0.010722
C24 C -0.1001(5) 0.9051(5) 0.1760(5)
H23 H -0.092861 0.986278 0.211622
H24 H -0.153350 0.857959 0.232179
H25 H -0.148878 0.933122 0.111282
C25 C 0.1375(5) 0.8796(5) 0.0443(4)
H26 H 0.088638 0.910606 -0.019952
H27 H 0.230899 0.815587 0.016231
H28 H 0.148020 0.958648 0.080784
O5 O 0.7263(3) 0.6299(3) 0.2939(2)
H29 H 0.647532 0.688495 0.312456
O6 O 0.9509(3) 0.3923(3) 0.6806(2)
O7 O 0.7668(3) 0.3091(4) 0.7521(3)
O8 O 0.4515(4) 0.7842(6) 0.3543(5)
H30 H 0.389301 0.763350 0.328367
C26 C 0.7774(3) 0.5766(3) 0.3917(3)
C27 C 0.8794(3) 0.4396(4) 0.3791(3)
C28 C 0.9267(4) 0.3694(4) 0.2709(4)
H31 H 0.891480 0.412138 0.205775
C29 C 1.0239(5) 0.2393(5) 0.2602(4)
H32 H 1.055782 0.194654 0.187740
C30 C 1.0764(4) 0.1719(4) 0.3586(5)
H33 H 1.141068 0.082257 0.350852
C31 C 1.0335(4) 0.2366(4) 0.4638(4)
H34 H 1.068552 0.190771 0.527979
C32 C 0.9353(3) 0.3737(3) 0.4779(3)
C33 C 0.8883(3) 0.4503(4) 0.5834(3)
C34 C 0.7964(4) 0.5812(4) 0.5934(3)
H35 H 0.771406 0.628453 0.664597
C35 C 0.7372(3) 0.6478(4) 0.4965(4)
C36 C 0.6353(4) 0.7942(4) 0.5116(4)
H36 H 0.645140 0.842318 0.437864
H37 H 0.663245 0.843572 0.568013
C37 C 0.4746(4) 0.8015(4) 0.5529(5)
H38 H 0.470073 0.705834 0.567728
C38 C 0.3879(5) 0.8616(5) 0.4612(5)
H39 H 0.290145 0.857627 0.486529
H40 H 0.384307 0.958848 0.448926
C39 C 0.4068(4) 0.8853(4) 0.6646(5)
H41 H 0.412195 0.979947 0.651509
H42 H 0.305803 0.890344 0.683515
C40 C 0.4756(6) 0.8269(6) 0.7672(6)
C41 C 0.5511(7) 0.8969(7) 0.8168(7)
H43 H 0.556621 0.983690 0.788660
C42 C 0.6194(12) 0.8369(18) 0.9098(10)
H44 H 0.672029 0.882887 0.941904
C43 C 0.6081(14) 0.7091(18) 0.9534(10)
H45 H 0.649596 0.670818 1.017015
C44 C 0.5363(10) 0.6402(10) 0.9029(8)
H46 H 0.531237 0.553083 0.930648
C45 C 0.4709(6) 0.6976(6) 0.8110(6)
H47 H 0.422330 0.648362 0.777589
C46 C 0.8764(4) 0.3290(3) 0.7625(3)
C47 C 0.9514(4) 0.2859(4) 0.8649(3)
C48 C 1.0979(5) 0.1786(4) 0.8210(4)
H48 H 1.084109 0.102790 0.782285
H49 H 1.144189 0.143323 0.885901
H50 H 1.157101 0.222600 0.767201
C49 C 0.8586(5) 0.2223(5) 0.9577(4)
H51 H 0.766046 0.289633 0.981318
H52 H 0.904721 0.196375 1.023947
H53 H 0.846761 0.140893 0.926017
C50 C 0.9760(6) 0.4135(5) 0.9148(4)
H54 H 1.038484 0.449431 0.856857
H55 H 1.019579 0.386412 0.982300
H56 H 0.885467 0.484467 0.936471
loop_
_geom_bond_atom_site_label_1
_geom_bond_atom_site_label_2
_geom_bond_site_symmetry_1
_geom_bond_site_symmetry_2
O1 H1 1_555 1_555
O2 C8 1_555 1_555
O3 C21 1_555 1_555
O4 H2 1_555 1_555
C1 O1 1_555 1_555
C2 C1 1_555 1_555
C3 C2 1_555 1_555
H3 C3 1_555 1_555
C4 C3 1_555 1_555
H4 C4 1_555 1_555
C5 C4 1_555 1_555
H5 C5 1_555 1_555
C6 C5 1_555 1_555
H6 C6 1_555 1_555
C7 C2 1_555 1_555
C8 C7 1_555 1_555
C9 C8 1_555 1_555
H7 C9 1_555 1_555
C10 C1 1_555 1_555
C11 C10 1_555 1_555
H8 C11 1_555 1_555
H9 C11 1_555 1_555
C12 C11 1_555 1_555
H10 C12 1_555 1_555
C13 O4 1_555 1_555
H11 C13 1_555 1_555
H12 C13 1_555 1_555
C14 C12 1_555 1_555
H13 C14 1_555 1_555
H14 C14 1_555 1_555
C15 C14 1_555 1_555
C16 C15 1_555 1_555
H15 C16 1_555 1_555
C17 C16 1_555 1_555
H16 C17 1_555 1_555
C18 C17 1_555 1_555
H17 C18 1_555 1_555
C19 C18 1_555 1_555
H18 C19 1_555 1_555
C20 C15 1_555 1_555
H19 C20 1_555 1_555
C21 O2 1_555 1_555
C22 C21 1_555 1_555
C23 C22 1_555 1_555
H20 C23 1_555 1_555
H21 C23 1_555 1_555
H22 C23 1_555 1_555
C24 C22 1_555 1_555
H23 C24 1_555 1_555
H24 C24 1_555 1_555
H25 C24 1_555 1_555
C25 C22 1_555 1_555
H26 C25 1_555 1_555
H27 C25 1_555 1_555
H28 C25 1_555 1_555
O5 H29 1_555 1_555
O6 C33 1_555 1_555
O7 C46 1_555 1_555
O8 H30 1_555 1_555
C26 O5 1_555 1_555
C27 C26 1_555 1_555
C28 C27 1_555 1_555
H31 C28 1_555 1_555
C29 C28 1_555 1_555
H32 C29 1_555 1_555
C30 C29 1_555 1_555
H33 C30 1_555 1_555
C31 C30 1_555 1_555
H34 C31 1_555 1_555
C32 C27 1_555 1_555
C33 C32 1_555 1_555
C34 C33 1_555 1_555
H35 C34 1_555 1_555
C35 C26 1_555 1_555
C36 C35 1_555 1_555
H36 C36 1_555 1_555
H37 C36 1_555 1_555
C37 C36 1_555 1_555
H38 C37 1_555 1_555
C38 O8 1_555 1_555
H39 C38 1_555 1_555
H40 C38 1_555 1_555
C39 C37 1_555 1_555
H41 C39 1_555 1_555
H42 C39 1_555 1_555
C40 C39 1_555 1_555
C41 C40 1_555 1_555
H43 C41 1_555 1_555
C42 C41 1_555 1_555
H44 C42 1_555 1_555
C43 C42 1_555 1_555
H45 C43 1_555 1_555
C44 C43 1_555 1_555
H46 C44 1_555 1_555
C45 C40 1_555 1_555
H47 C45 1_555 1_555
C46 O6 1_555 1_555
C47 C46 1_555 1_555
C48 C47 1_555 1_555
H48 C48 1_555 1_555
H49 C48 1_555 1_555
H50 C48 1_555 1_555
C49 C47 1_555 1_555
H51 C49 1_555 1_555
H52 C49 1_555 1_555
H53 C49 1_555 1_555
C50 C47 1_555 1_555
H54 C50 1_555 1_555
H55 C50 1_555 1_555
H56 C50 1_555 1_555
C6 C7 1_555 1_555
C9 C10 1_555 1_555
C12 C13 1_555 1_555
C19 C20 1_555 1_555
C31 C32 1_555 1_555
C34 C35 1_555 1_555
C37 C38 1_555 1_555
C44 C45 1_555 1_555

#END
