
#######################################################################
#
#                 Cambridge Crystallographic Data Centre
#                                CCDC 
#
#######################################################################
#
# If this CIF has been generated from an entry in the Cambridge 
# Structural Database, then it will include bibliographic, chemical, 
# crystal, experimental, refinement or atomic coordinate data resulting 
# from the CCDC's data processing and validation procedures.
#
#######################################################################

data_LEUCIN06
_chemical_name_common            L-isoleucine
_chemical_formula_moiety         'C6 H13 N1 O2'
_chemical_name_systematic        2-azaniumyl-3-methylpentanoate
_symmetry_cell_setting           monoclinic
_symmetry_space_group_name_H-M   'P 21'
_symmetry_Int_Tables_number      4
_space_group_name_Hall           'P 2yb'
loop_
_symmetry_equiv_pos_site_id
_symmetry_equiv_pos_as_xyz
1 x,y,z
2 -x,1/2+y,-z
_cell_length_a                   9.6715(5)
_cell_length_b                   5.2777(3)
_cell_length_c                   13.9389(7)
_cell_angle_alpha                90
_cell_angle_beta                 95.739(4)
_cell_angle_gamma                90
_cell_volume                     707.921
_exptl_crystal_colour            colorless
_exptl_crystal_description       block
_cell_formula_units_Z            4
_exptl_crystal_preparation       ', Luminescent'
loop_
_atom_site_label
_atom_site_type_symbol
_atom_site_fract_x
_atom_site_fract_y
_atom_site_fract_z
O1 O 0.1875(3) 0.7461(6) 0.3636(2)
C1 C 0.4344(6) 0.5969(13) 0.1082(4)
H1 H 0.3522 0.5268 0.0707
H2 H 0.5143 0.4861 0.1021
H3 H 0.4539 0.7662 0.0840
N1 N 0.3673(3) 0.1609(7) 0.4195(2)
H4 H 0.3013 0.0484 0.3956
H5 H 0.3591 0.1878 0.4832
H6 H 0.4531 0.0973 0.4124
O2 O 0.1175(3) 0.3711(5) 0.4121(2)
C2 C 0.4078(5) 0.6150(10) 0.2138(4)
H7 H 0.3340 0.7424 0.2199
H8 H 0.4934 0.6771 0.2513
C3 C 0.3643(4) 0.3661(8) 0.2586(3)
H9 H 0.4410 0.2411 0.2538
C4 C 0.2069(4) 0.5174(8) 0.3828(3)
C5 C 0.3481(4) 0.4052(8) 0.3661(3)
H10 H 0.4219 0.5254 0.3930
C6 C 0.2331(5) 0.2566(10) 0.2041(3)
H11 H 0.2546 0.1942 0.1411
H12 H 0.1619 0.3888 0.1951
H13 H 0.1987 0.1165 0.2412
N2 N 0.1110(3) 0.2607(7) 0.6056(2)
H14 H 0.1085 0.2966 0.5416
H15 H 0.0242 0.2184 0.6200
H16 H 0.1699 0.1287 0.6202
O3 O 0.2951(3) 0.8387(6) 0.6165(2)
O4 O 0.3723(3) 0.4482(5) 0.5914(2)
C7 C 0.0811(5) 0.2846(13) 0.8128(3)
H17 H 0.0560 0.1276 0.7764
H18 H -0.0008 0.3981 0.8057
C8 C 0.1128(6) 0.2171(14) 0.9197(4)
H19 H 0.0364 0.1158 0.9407
H20 H 0.1231 0.3729 0.9580
H21 H 0.1993 0.1193 0.9287
C9 C 0.1998(5) 0.4129(9) 0.7683(3)
H22 H 0.2776 0.2878 0.7695
C10 C 0.1603(4) 0.4862(8) 0.6625(3)
H23 H 0.0836 0.6137 0.6597
C11 C 0.2849(4) 0.6040(9) 0.6188(3)
C12 C 0.2533(9) 0.6388(15) 0.8265(4)
H24 H 0.3300 0.7166 0.7962
H25 H 0.2863 0.5845 0.8920
H26 H 0.1782 0.7626 0.8292
loop_
_geom_bond_atom_site_label_1
_geom_bond_atom_site_label_2
_geom_bond_site_symmetry_1
_geom_bond_site_symmetry_2
O1 C4 1_555 1_555
C1 H1 1_555 1_555
H2 C1 1_555 1_555
H3 C1 1_555 1_555
N1 H4 1_555 1_555
H5 N1 1_555 1_555
H6 N1 1_555 1_555
O2 C4 1_555 1_555
C2 C1 1_555 1_555
H7 C2 1_555 1_555
H8 C2 1_555 1_555
C3 C2 1_555 1_555
H9 C3 1_555 1_555
C4 C5 1_555 1_555
C5 N1 1_555 1_555
H10 C5 1_555 1_555
C6 C3 1_555 1_555
H11 C6 1_555 1_555
H12 C6 1_555 1_555
H13 C6 1_555 1_555
N2 H14 1_555 1_555
H15 N2 1_555 1_555
H16 N2 1_555 1_555
O3 C11 1_555 1_555
O4 C11 1_555 1_555
C7 H17 1_555 1_555
H18 C7 1_555 1_555
C8 C7 1_555 1_555
H19 C8 1_555 1_555
H20 C8 1_555 1_555
H21 C8 1_555 1_555
C9 C7 1_555 1_555
H22 C9 1_555 1_555
C10 N2 1_555 1_555
H23 C10 1_555 1_555
C11 C10 1_555 1_555
C12 C9 1_555 1_555
H24 C12 1_555 1_555
H25 C12 1_555 1_555
H26 C12 1_555 1_555
C3 C5 1_555 1_555
C9 C10 1_555 1_555

#END
