
#######################################################################
#
#                 Cambridge Crystallographic Data Centre
#                                CCDC 
#
#######################################################################
#
# If this CIF has been generated from an entry in the Cambridge 
# Structural Database, then it will include bibliographic, chemical, 
# crystal, experimental, refinement or atomic coordinate data resulting 
# from the CCDC's data processing and validation procedures.
#
#######################################################################

data_LEVFOJ
_chemical_formula_moiety         'C22 H14 N2 O6 S4'
_chemical_name_systematic        
2,7-bis(thiophen-2-oyl)-benzo[1,2-d:4,3-d']bis(thiazole)-4,5-bis(1,3-dioxolane)
_symmetry_cell_setting           monoclinic
_symmetry_space_group_name_H-M   'C 2/c'
_symmetry_Int_Tables_number      15
_space_group_name_Hall           '-C 2yn'
loop_
_symmetry_equiv_pos_site_id
_symmetry_equiv_pos_as_xyz
1 x,y,z
2 -x,y,1/2-z
3 1/2+x,1/2+y,z
4 1/2-x,1/2+y,1/2-z
5 -x,-y,-z
6 x,-y,1/2+z
7 1/2-x,1/2-y,-z
8 1/2+x,1/2-y,1/2+z
_cell_length_a                   16.860(2)
_cell_length_b                   15.304(2)
_cell_length_c                   10.1282(14)
_cell_angle_alpha                90
_cell_angle_beta                 124.484(2)
_cell_angle_gamma                90
_cell_volume                     2154.13
_exptl_crystal_colour            yellow
_exptl_crystal_description       needles
_cell_formula_units_Z            4
loop_
_atom_site_label
_atom_site_type_symbol
_atom_site_fract_x
_atom_site_fract_y
_atom_site_fract_z
S1 S 0.05059(3) 0.08473(2) -0.04018(4)
S2 S 0.18538(10) 0.12052(8) 0.58492(15)
C1 C 0.1260(6) 0.2591(4) 0.4168(9)
H1 H 0.1017 0.2986 0.3298
O1 O 0.13934(9) 0.04001(7) 0.29026(13)
O2 O 0.01994(8) 0.40632(7) -0.09062(13)
O3 O 0.13205(8) 0.34963(7) -0.12714(13)
N1 N 0.08281(8) 0.24131(8) 0.07837(14)
C2 C 0.08893(10) 0.15819(9) 0.11531(16)
C3 C 0.12500(11) 0.11933(10) 0.27446(17)
C4 C 0.14038(10) 0.17368(10) 0.40545(17)
C5 C 0.15044(11) 0.28541(11) 0.5723(2)
H2 H 0.1456 0.3430 0.6021
C6 C 0.18152(11) 0.21407(11) 0.66911(19)
H3 H 0.1998 0.2167 0.7766
C7 C 0.02190(10) 0.17180(9) -0.16450(16)
C8 C 0.04519(10) 0.24908(9) -0.08090(17)
C9 C 0.03950(10) 0.33582(9) -0.15747(16)
C10 C 0.10714(14) 0.45503(12) 0.0066(2)
H4 H 0.1451 0.4335 0.1185
H5 H 0.0937 0.5180 0.0061
C11 C 0.15899(13) 0.43843(12) -0.0730(2)
H6 H 0.1369 0.4789 -0.1638
H7 H 0.2295 0.4442 0.0041
S1A S -0.05059(3) 0.08473(2) -0.45982(4)
S2A S -0.18538(10) 0.12052(8) -1.08492(15)
C1A C -0.1260(6) 0.2591(4) -0.9168(9)
H1A H -0.1017 0.2986 -0.8298
O1A O -0.13934(9) 0.04001(7) -0.79026(13)
O2A O -0.01994(8) 0.40632(7) -0.40938(13)
O3A O -0.13205(8) 0.34963(7) -0.37286(13)
N1A N -0.08281(8) 0.24131(8) -0.57837(14)
C2A C -0.08893(10) 0.15819(9) -0.61531(16)
C3A C -0.12500(11) 0.11933(10) -0.77446(17)
C4A C -0.14038(10) 0.17368(10) -0.90545(17)
C5A C -0.15044(11) 0.28541(11) -1.0723(2)
H2A H -0.1456 0.3430 -1.1021
C6A C -0.18152(11) 0.21407(11) -1.16911(19)
H3A H -0.1998 0.2167 -1.2766
C7A C -0.02190(10) 0.17180(9) -0.33550(16)
C8A C -0.04519(10) 0.24908(9) -0.41910(17)
C9A C -0.03950(10) 0.33582(9) -0.34253(16)
C10A C -0.10714(14) 0.45503(12) -0.5066(2)
H4A H -0.1451 0.4335 -0.6185
H5A H -0.0937 0.5180 -0.5061
C11A C -0.15899(13) 0.43843(12) -0.4270(2)
H6A H -0.1369 0.4789 -0.3362
H7A H -0.2295 0.4442 -0.5041
C12? C 0.1684(13) 0.1444(9) 0.559(2)
H8? H 0.187(6) 0.075(6) 0.595(11)
S3? S 0.1208(4) 0.2843(3) 0.3971(6)
loop_
_geom_bond_atom_site_label_1
_geom_bond_atom_site_label_2
_geom_bond_site_symmetry_1
_geom_bond_site_symmetry_2
S1 C2 1_555 1_555
S2 C4 1_555 1_555
C1 H1 1_555 1_555
O1 C3 1_555 1_555
O2 C9 1_555 1_555
O3 C9 1_555 1_555
N1 C2 1_555 1_555
C2 C3 1_555 1_555
C3 C4 1_555 1_555
C4 C1 1_555 1_555
C5 C1 1_555 1_555
H2 C5 1_555 1_555
C6 S2 1_555 1_555
H3 C6 1_555 1_555
C7 S1 1_555 1_555
C8 N1 1_555 1_555
C9 C8 1_555 1_555
C10 O2 1_555 1_555
H4 C10 1_555 1_555
H5 C10 1_555 1_555
C11 O3 1_555 1_555
H6 C11 1_555 1_555
H7 C11 1_555 1_555
S1A C2A 1_555 1_555
S2A C4A 1_555 1_555
C1A H1A 1_555 1_555
O1A C3A 1_555 1_555
O2A C9A 1_555 1_555
O3A C9A 1_555 1_555
N1A C2A 1_555 1_555
C2A C3A 1_555 1_555
C3A C4A 1_555 1_555
C4A C1A 1_555 1_555
C5A C1A 1_555 1_555
H2A C5A 1_555 1_555
C6A S2A 1_555 1_555
H3A C6A 1_555 1_555
C7A C7 1_555 1_555
C8A N1A 1_555 1_555
C9A C9 1_555 1_555
C10A O2A 1_555 1_555
H4A C10A 1_555 1_555
H5A C10A 1_555 1_555
C11A O3A 1_555 1_555
H6A C11A 1_555 1_555
H7A C11A 1_555 1_555
C5 C6 1_555 1_555
C7 C8 1_555 1_555
C10 C11 1_555 1_555
S1A C7A 1_555 1_555
C5A C6A 1_555 1_555
C7A C8A 1_555 1_555
C8A C9A 1_555 1_555
C10A C11A 1_555 1_555

#END
