
#######################################################################
#
#                 Cambridge Crystallographic Data Centre
#                                CCDC 
#
#######################################################################
#
# If this CIF has been generated from an entry in the Cambridge 
# Structural Database, then it will include bibliographic, chemical, 
# crystal, experimental, refinement or atomic coordinate data resulting 
# from the CCDC's data processing and validation procedures.
#
#######################################################################

data_LEVFID
_chemical_formula_moiety         'C28 H16 F6 N2 O6 S2'
_chemical_name_systematic        
2,7-bis(4-trifluoromethylbenzoyl)-benzo[1,2-d:4,3-d']bis(thiazole)-4,5-bis(1,3-dioxolane)
_symmetry_cell_setting           monoclinic
_symmetry_space_group_name_H-M   'P 21/c'
_symmetry_Int_Tables_number      14
_space_group_name_Hall           '-P 2ybc'
loop_
_symmetry_equiv_pos_site_id
_symmetry_equiv_pos_as_xyz
1 x,y,z
2 -x,1/2+y,1/2-z
3 -x,-y,-z
4 x,1/2-y,1/2+z
_cell_length_a                   10.3282(9)
_cell_length_b                   7.4175(7)
_cell_length_c                   34.636(3)
_cell_angle_alpha                90
_cell_angle_beta                 94.423(2)
_cell_angle_gamma                90
_cell_volume                     2645.54
_exptl_crystal_colour            yellow
_exptl_crystal_description       needles
_cell_formula_units_Z            4
loop_
_atom_site_label
_atom_site_type_symbol
_atom_site_fract_x
_atom_site_fract_y
_atom_site_fract_z
S1 S 0.35180(3) 0.04239(5) 0.288678(11)
S2 S 0.49407(4) 0.05263(5) 0.195124(11)
F1 F 0.33982(13) -0.42554(15) 0.51565(3)
F2 F 0.32697(11) -0.17308(17) 0.54566(3)
F3 F 0.51189(10) -0.27411(15) 0.53192(3)
F4 F 1.2205(9) 0.167(2) 0.0785(3)
F5 F 1.1162(11) 0.4039(11) 0.0608(3)
F6 F 1.1166(6) 0.1726(6) 0.02339(16)
O1 O 0.19270(10) 0.09842(16) 0.35516(3)
O2 O 0.55711(12) -0.02933(17) 0.11541(3)
O3 O 0.75575(10) 0.28973(14) 0.30585(3)
O4 O 0.80519(10) 0.04863(14) 0.34554(3)
O5 O 0.91448(9) 0.05025(14) 0.27140(3)
O6 O 0.78608(10) -0.18812(14) 0.28655(3)
N1 N 0.52943(12) 0.06811(16) 0.34539(4)
N2 N 0.74433(12) 0.01860(17) 0.20452(4)
C1 C 0.40338(14) 0.05324(19) 0.33766(4)
C2 C 0.58977(14) 0.07143(18) 0.31206(4)
C3 C 0.51089(14) 0.05690(19) 0.27825(4)
C4 C 0.56706(14) 0.04819(19) 0.24128(4)
C5 C 0.69944(14) 0.02860(19) 0.24020(4)
C6 C 0.78627(13) -0.00160(19) 0.27691(4)
C7 C 0.73485(14) 0.1016(2) 0.31126(4)
C8 C 0.83766(19) 0.2099(2) 0.36702(5)
H1 H 0.9205 0.1960 0.3831
H2 H 0.7682 0.2433 0.3838
C9 C 0.8498(2) 0.3470(3) 0.33556(6)
H3 H 0.8301 0.4697 0.3447
H4 H 0.9382 0.3461 0.3264
C10 C 0.99646(14) -0.1043(2) 0.27871(5)
H5 H 1.0368 -0.1039 0.3056
H6 H 1.0656 -0.1094 0.2605
C11 C 0.90281(14) -0.2588(2) 0.27221(5)
H7 H 0.8894 -0.2898 0.2444
H8 H 0.9336 -0.3670 0.2869
C12 C 0.30308(14) 0.05136(19) 0.36622(4)
C13 C 0.33608(14) -0.0147(2) 0.40639(4)
C14 C 0.44817(15) -0.1136(2) 0.41699(5)
H9 H 0.5125 -0.1290 0.3991
C15 C 0.46580(15) -0.1892(2) 0.45358(5)
H10 H 0.5412 -0.2589 0.4606
C16 C 0.37322(15) -0.1631(2) 0.47997(4)
C17 C 0.26260(16) -0.0602(2) 0.47016(5)
H11 H 0.2006 -0.0400 0.4886
C18 C 0.24384(15) 0.0123(2) 0.43341(5)
H12 H 0.1679 0.0808 0.4264
C19 C 0.38804(16) -0.2577(2) 0.51834(5)
C20 C 0.64676(14) 0.0294(2) 0.17788(4)
C21 C 0.65479(15) 0.0129(2) 0.13531(4)
C22 C 0.77918(15) 0.05405(19) 0.11780(4)
C23 C 0.87749(15) 0.1552(2) 0.13719(4)
H13 H 0.8707 0.1874 0.1635
C24 C 0.98500(15) 0.2095(2) 0.11861(4)
H14 H 1.0507 0.2809 0.1318
C25 C 0.99538(15) 0.1583(2) 0.08046(5)
C26 C 0.89964(17) 0.0534(2) 0.06100(5)
H15 H 0.9087 0.0163 0.0351
C27 C 0.79120(17) 0.0031(2) 0.07945(5)
H16 H 0.7248 -0.0663 0.0660
C28 C 1.10887(19) 0.2273(3) 0.06036(5)
C29? C 0.7794(13) 0.3644(15) 0.3475(3)
F7? F 1.2214(9) 0.199(2) 0.0791(3)
F8? F 1.1004(12) 0.4069(14) 0.0548(3)
F9? F 1.1060(9) 0.1624(12) 0.0259(3)
H17? H 0.9332 0.2248 0.3698
H18? H 0.8064 0.2001 0.3932
H19? H 0.8392 0.4690 0.3486
H20? H 0.6971 0.3991 0.3584
loop_
_geom_bond_atom_site_label_1
_geom_bond_atom_site_label_2
_geom_bond_site_symmetry_1
_geom_bond_site_symmetry_2
S1 C1 1_555 1_555
S2 C4 1_555 1_555
F1 C19 1_555 1_555
F2 C19 1_555 1_555
F3 C19 1_555 1_555
F4 C28 1_555 1_555
F5 C28 1_555 1_555
F6 C28 1_555 1_555
O1 C12 1_555 1_555
O2 C21 1_555 1_555
O3 C7 1_555 1_555
O4 C7 1_555 1_555
O5 C6 1_555 1_555
O6 C6 1_555 1_555
N1 C1 1_555 1_555
N2 C5 1_555 1_555
C1 C12 1_555 1_555
C2 N1 1_555 1_555
C3 S1 1_555 1_555
C4 C3 1_555 1_555
C5 C4 1_555 1_555
C6 C5 1_555 1_555
C7 C2 1_555 1_555
C8 O4 1_555 1_555
H1 C8 1_555 1_555
H2 C8 1_555 1_555
C9 O3 1_555 1_555
H3 C9 1_555 1_555
H4 C9 1_555 1_555
C10 O5 1_555 1_555
H5 C10 1_555 1_555
H6 C10 1_555 1_555
C11 O6 1_555 1_555
H7 C11 1_555 1_555
H8 C11 1_555 1_555
C12 C13 1_555 1_555
C13 C14 1_555 1_555
C14 H9 1_555 1_555
C15 C14 1_555 1_555
H10 C15 1_555 1_555
C16 C15 1_555 1_555
C17 C16 1_555 1_555
H11 C17 1_555 1_555
C18 C13 1_555 1_555
H12 C18 1_555 1_555
C19 C16 1_555 1_555
C20 S2 1_555 1_555
C21 C20 1_555 1_555
C22 C21 1_555 1_555
C23 C22 1_555 1_555
H13 C23 1_555 1_555
C24 C23 1_555 1_555
H14 C24 1_555 1_555
C25 C24 1_555 1_555
C26 C25 1_555 1_555
H15 C26 1_555 1_555
C27 C22 1_555 1_555
H16 C27 1_555 1_555
C28 C25 1_555 1_555
N2 C20 1_555 1_555
C2 C3 1_555 1_555
C6 C7 1_555 1_555
C8 C9 1_555 1_555
C10 C11 1_555 1_555
C17 C18 1_555 1_555
C26 C27 1_555 1_555

#END
