
#######################################################################
#
#                 Cambridge Crystallographic Data Centre
#                                CCDC 
#
#######################################################################
#
# If this CIF has been generated from an entry in the Cambridge 
# Structural Database, then it will include bibliographic, chemical, 
# crystal, experimental, refinement or atomic coordinate data resulting 
# from the CCDC's data processing and validation procedures.
#
#######################################################################

data_LEVFAV
_chemical_formula_moiety         'C28 H8 F12 O4 S2'
_chemical_name_systematic        
2,7-bis(3,5-di-trifluoromethylbenzoyl)-benzo[1,2-b:6,5-b']dithiophene-4,5-dione
_symmetry_cell_setting           triclinic
_symmetry_space_group_name_H-M   'P -1'
_symmetry_Int_Tables_number      2
_space_group_name_Hall           '-P 1'
loop_
_symmetry_equiv_pos_site_id
_symmetry_equiv_pos_as_xyz
1 x,y,z
2 -x,-y,-z
_cell_length_a                   11.659(7)
_cell_length_b                   16.482(9)
_cell_length_c                   22.503(13)
_cell_angle_alpha                75.532(11)
_cell_angle_beta                 89.384(13)
_cell_angle_gamma                87.650(11)
_cell_volume                     4183.6
_exptl_crystal_colour            red
_exptl_crystal_description       plates
_cell_formula_units_Z            6
loop_
_atom_site_label
_atom_site_type_symbol
_atom_site_fract_x
_atom_site_fract_y
_atom_site_fract_z
S1 S 0.84723(14) 0.01249(10) 0.59924(7)
S2 S 0.86457(14) 0.05324(10) 0.43760(7)
F1 F 1.1962(4) 0.1203(3) 0.8216(3)
F2 F 1.1037(5) 0.2043(3) 0.8673(2)
F3 F 1.0983(4) 0.2267(3) 0.7676(2)
F4 F 0.7074(5) 0.0413(4) 0.9617(2)
F5 F 0.8693(4) -0.0231(4) 0.9992(2)
F6 F 0.7476(4) -0.0848(3) 0.9565(2)
F7 F 0.5980(4) 0.3612(3) 0.2268(2)
F8 F 0.5528(4) 0.3420(3) 0.1388(2)
F9 F 0.6858(4) 0.4271(2) 0.1430(2)
F10 F 0.8894(6) 0.2307(3) 0.0259(2)
F11 F 0.9138(6) 0.1002(3) 0.0780(2)
F12 F 1.0435(6) 0.1896(4) 0.0808(3)
O1 O 0.8065(5) -0.0752(3) 0.7328(2)
O2 O 0.9080(4) 0.0296(3) 0.3131(2)
O3 O 0.8485(4) 0.3559(3) 0.4406(2)
O4 O 0.7663(4) 0.3214(3) 0.5624(2)
C1 C 0.8323(6) 0.0573(4) 0.6616(3)
C2 C 0.8171(5) 0.1445(4) 0.6432(3)
H1 H 0.8069 0.1795 0.6708
C3 C 0.8186(5) 0.1752(4) 0.5772(3)
C4 C 0.8356(5) 0.1109(4) 0.5471(3)
C5 C 0.8472(5) 0.1272(4) 0.4796(3)
C6 C 0.8427(6) 0.2095(4) 0.4416(3)
C7 C 0.8341(6) 0.2833(4) 0.4697(3)
C8 C 0.8038(6) 0.2634(4) 0.5399(3)
C9 C 0.8317(5) -0.0005(4) 0.7255(3)
C10 C 0.8663(6) 0.0316(4) 0.7791(3)
C11 C 0.9559(6) 0.0876(4) 0.7736(3)
H2 H 0.9907 0.1095 0.7348
C12 C 0.9937(6) 0.1110(4) 0.8261(3)
C13 C 0.9410(6) 0.0809(5) 0.8841(3)
H3 H 0.9656 0.0983 0.9189
C14 C 0.8509(6) 0.0244(5) 0.8889(3)
C15 C 0.8143(6) -0.0009(4) 0.8368(3)
H4 H 0.7550 -0.0397 0.8405
C16 C 1.0962(6) 0.1655(5) 0.8212(3)
C17 C 0.7953(7) -0.0089(6) 0.9511(4)
C18 C 0.8531(5) 0.2118(4) 0.3786(3)
H5 H 0.8521 0.2622 0.3469
C19 C 0.8649(6) 0.1322(4) 0.3680(3)
C20 C 0.8745(6) 0.1026(4) 0.3107(3)
C21 C 0.8443(6) 0.1629(4) 0.2482(3)
C22 C 0.7611(6) 0.2303(4) 0.2413(3)
H6 H 0.7240 0.2413 0.2765
C23 C 0.7334(6) 0.2814(4) 0.1817(3)
C24 C 0.7883(6) 0.2666(5) 0.1291(3)
H7 H 0.7701 0.3013 0.0896
C25 C 0.8709(7) 0.1995(5) 0.1355(3)
C26 C 0.8986(6) 0.1483(4) 0.1958(3)
H8 H 0.9548 0.1038 0.2001
C27 C 0.6436(6) 0.3537(4) 0.1735(3)
C28 C 0.9291(8) 0.1807(5) 0.0801(4)
S3 S 0.56553(14) 0.63857(10) 0.42648(7)
S4 S 0.35508(14) 0.65447(10) 0.31207(7)
F13 F 0.9150(4) 0.5580(3) 0.76108(19)
F14 F 1.0781(4) 0.5983(3) 0.71753(19)
F15 F 0.9246(4) 0.6820(3) 0.6966(2)
F16 F 1.1381(4) 0.3617(3) 0.6194(2)
F17 F 0.9768(4) 0.2999(2) 0.64476(18)
F18 F 1.0211(4) 0.3487(3) 0.54775(18)
F19 F 0.4547(5) 0.5128(4) 0.0738(2)
F20 F 0.3354(6) 0.4733(4) 0.0145(3)
F21 F 0.3901(5) 0.5986(3) -0.0092(2)
F22 F -0.1192(5) 0.5295(4) 0.0826(3)
F23 F -0.0674(4) 0.6081(3) -0.0056(2)
F24 F -0.1324(4) 0.6650(4) 0.0658(3)
O5 O 0.7116(4) 0.6863(3) 0.5108(2)
O6 O 0.1584(5) 0.7150(4) 0.2235(2)
O7 O 0.5865(5) 0.3299(3) 0.4371(2)
O8 O 0.4363(5) 0.3460(3) 0.3389(2)
C29 C 0.6632(6) 0.5686(4) 0.4768(3)
C30 C 0.6554(6) 0.4873(4) 0.4736(3)
H9 H 0.6993 0.4416 0.4982
C31 C 0.5724(6) 0.4790(4) 0.4281(3)
C32 C 0.5199(6) 0.5570(4) 0.3990(3)
C33 C 0.4344(5) 0.5634(4) 0.3491(3)
C34 C 0.4098(6) 0.4954(4) 0.3259(3)
C35 C 0.4612(6) 0.4089(4) 0.3548(3)
C36 C 0.5484(6) 0.3998(4) 0.4099(3)
C37 C 0.7323(6) 0.6099(4) 0.5160(3)
C38 C 0.8238(6) 0.5629(4) 0.5622(3)
C39 C 0.8811(6) 0.4862(4) 0.5587(3)
H10 H 0.8640 0.4604 0.5266
C40 C 0.9644(6) 0.4489(4) 0.6042(3)
C41 C 0.9904(6) 0.4855(4) 0.6518(3)
H11 H 1.0449 0.4590 0.6823
C42 C 0.9345(6) 0.5632(4) 0.6543(3)
C43 C 0.8505(6) 0.6010(4) 0.6099(3)
H12 H 0.8119 0.6520 0.6122
C44 C 0.9627(6) 0.6005(5) 0.7072(3)
C45 C 1.0245(6) 0.3647(4) 0.6040(3)
C46 C 0.3329(6) 0.5178(4) 0.2739(3)
H13 H 0.3102 0.4800 0.2510
C47 C 0.2963(6) 0.6020(4) 0.2614(3)
C48 C 0.2095(6) 0.6517(5) 0.2149(3)
C49 C 0.1878(6) 0.6187(4) 0.1584(3)
C50 C 0.2801(6) 0.5889(4) 0.1280(3)
H14 H 0.3558 0.5859 0.1439
C51 C 0.2598(6) 0.5638(5) 0.0744(3)
C52 C 0.1476(7) 0.5689(5) 0.0501(3)
H15 H 0.1347 0.5520 0.0134
C53 C 0.0556(7) 0.5987(4) 0.0801(3)
C54 C 0.0761(6) 0.6260(5) 0.1337(3)
H16 H 0.0147 0.6491 0.1531
C55 C 0.3605(7) 0.5366(5) 0.0388(3)
C56 C -0.0650(7) 0.6019(6) 0.0558(4)
S5 S 0.53947(13) 0.11123(10) 0.46638(7)
S6 S 0.52608(14) 0.11742(10) 0.62090(7)
F25 F 0.2935(4) 0.3595(3) 0.1884(2)
F26 F 0.1664(4) 0.2678(3) 0.1930(2)
F27 F 0.2620(5) 0.3123(3) 0.1092(2)
F28 F 0.4853(4) 0.0350(3) 0.10010(19)
F29 F 0.6184(4) 0.1275(3) 0.08526(19)
F30 F 0.6391(4) 0.0103(3) 0.1579(2)
F31 F 0.2723(5) 0.4245(3) 0.6998(2)
F32 F 0.1818(6) 0.4128(4) 0.7844(3)
F33 F 0.3426(7) 0.4746(4) 0.7678(4)
F34 F 0.4840(5) 0.1285(3) 0.9714(2)
F35 F 0.4241(6) 0.2519(5) 0.9783(2)
F36 F 0.5985(5) 0.2318(4) 0.9488(2)
O9 O 0.6284(4) 0.0790(3) 0.3536(2)
O10 O 0.5873(4) 0.0969(3) 0.7534(2)
O11 O 0.1127(4) 0.1654(3) 0.4628(2)
O12 O 0.1018(4) 0.1658(3) 0.5876(2)
C57 C 0.4608(6) 0.1235(4) 0.3974(3)
C58 C 0.3436(6) 0.1387(4) 0.4064(3)
H17 H 0.2878 0.1480 0.3748
C59 C 0.3175(5) 0.1386(4) 0.4683(3)
C60 C 0.4166(6) 0.1260(4) 0.5060(3)
C61 C 0.4104(5) 0.1289(4) 0.5709(3)
C62 C 0.3079(6) 0.1462(4) 0.5997(3)
C63 C 0.1958(5) 0.1559(4) 0.5637(3)
C64 C 0.2012(6) 0.1552(4) 0.4935(3)
C65 C 0.5288(6) 0.1110(4) 0.3442(3)
C66 C 0.4826(6) 0.1352(4) 0.2782(3)
C67 C 0.3962(6) 0.2000(4) 0.2566(3)
H18 H 0.3612 0.2292 0.2840
C68 C 0.3635(6) 0.2200(4) 0.1939(3)
C69 C 0.4150(6) 0.1775(4) 0.1531(3)
H19 H 0.3913 0.1905 0.1114
C70 C 0.5027(6) 0.1148(4) 0.1744(3)
C71 C 0.5354(6) 0.0931(4) 0.2370(3)
H20 H 0.5929 0.0503 0.2512
C72 C 0.5602(7) 0.0722(5) 0.1293(3)
C73 C 0.2706(6) 0.2899(4) 0.1710(3)
C74 C 0.3222(6) 0.1511(4) 0.6607(3)
H21 H 0.2610 0.1618 0.6863
C75 C 0.4373(6) 0.1384(4) 0.6795(3)
C76 C 0.4967(6) 0.1393(4) 0.7383(3)
C77 C 0.4493(6) 0.1961(4) 0.7777(3)
C78 C 0.3824(6) 0.2712(4) 0.7519(3)
H22 H 0.3590 0.2838 0.7102
C79 C 0.3518(6) 0.3261(4) 0.7885(3)
C80 C 0.3844(6) 0.3072(5) 0.8514(3)
H23 H 0.3627 0.3443 0.8762
C81 C 0.4499(6) 0.2319(5) 0.8767(3)
C82 C 0.4845(6) 0.1777(5) 0.8406(3)
H24 H 0.5312 0.1290 0.8577
C83 C 0.2856(6) 0.4067(5) 0.7612(3)
C84 C 0.4905(7) 0.2113(5) 0.9441(3)
loop_
_geom_bond_atom_site_label_1
_geom_bond_atom_site_label_2
_geom_bond_site_symmetry_1
_geom_bond_site_symmetry_2
S1 C1 1_555 1_555
S2 C5 1_555 1_555
F1 C16 1_555 1_555
F2 C16 1_555 1_555
F3 C16 1_555 1_555
F4 C17 1_555 1_555
F5 C17 1_555 1_555
F6 C17 1_555 1_555
F7 C27 1_555 1_555
F8 C27 1_555 1_555
F9 C27 1_555 1_555
F10 C28 1_555 1_555
F11 C28 1_555 1_555
F12 C28 1_555 1_555
O1 C9 1_555 1_555
O2 C20 1_555 1_555
O3 C7 1_555 1_555
O4 C8 1_555 1_555
C1 C2 1_555 1_555
C2 H1 1_555 1_555
C3 C2 1_555 1_555
C4 S1 1_555 1_555
C5 C4 1_555 1_555
C6 C5 1_555 1_555
C7 C6 1_555 1_555
C8 C3 1_555 1_555
C9 C1 1_555 1_555
C10 C9 1_555 1_555
C11 C10 1_555 1_555
H2 C11 1_555 1_555
C12 C11 1_555 1_555
C13 C12 1_555 1_555
H3 C13 1_555 1_555
C14 C13 1_555 1_555
C15 C10 1_555 1_555
H4 C15 1_555 1_555
C16 C12 1_555 1_555
C17 C14 1_555 1_555
C18 C6 1_555 1_555
H5 C18 1_555 1_555
C19 S2 1_555 1_555
C20 C19 1_555 1_555
C21 C20 1_555 1_555
C22 C21 1_555 1_555
H6 C22 1_555 1_555
C23 C22 1_555 1_555
C24 C23 1_555 1_555
H7 C24 1_555 1_555
C25 C24 1_555 1_555
C26 C21 1_555 1_555
H8 C26 1_555 1_555
C27 C23 1_555 1_555
C28 C25 1_555 1_555
S3 C29 1_555 1_555
S4 C33 1_555 1_555
F13 C44 1_555 1_555
F14 C44 1_555 1_555
F15 C44 1_555 1_555
F16 C45 1_555 1_555
F17 C45 1_555 1_555
F18 C45 1_555 1_555
F19 C55 1_555 1_555
F20 C55 1_555 1_555
F21 C55 1_555 1_555
F22 C56 1_555 1_555
F23 C56 1_555 1_555
F24 C56 1_555 1_555
O5 C37 1_555 1_555
O6 C48 1_555 1_555
O7 C36 1_555 1_555
O8 C35 1_555 1_555
C29 C30 1_555 1_555
C30 H9 1_555 1_555
C31 C30 1_555 1_555
C32 S3 1_555 1_555
C33 C32 1_555 1_555
C34 C33 1_555 1_555
C35 C34 1_555 1_555
C36 C31 1_555 1_555
C37 C29 1_555 1_555
C38 C37 1_555 1_555
C39 C38 1_555 1_555
H10 C39 1_555 1_555
C40 C39 1_555 1_555
C41 C40 1_555 1_555
H11 C41 1_555 1_555
C42 C41 1_555 1_555
C43 C38 1_555 1_555
H12 C43 1_555 1_555
C44 C42 1_555 1_555
C45 C40 1_555 1_555
C46 C34 1_555 1_555
H13 C46 1_555 1_555
C47 S4 1_555 1_555
C48 C47 1_555 1_555
C49 C48 1_555 1_555
C50 C49 1_555 1_555
H14 C50 1_555 1_555
C51 C50 1_555 1_555
C52 C51 1_555 1_555
H15 C52 1_555 1_555
C53 C52 1_555 1_555
C54 C49 1_555 1_555
H16 C54 1_555 1_555
C55 C51 1_555 1_555
C56 C53 1_555 1_555
S5 C57 1_555 1_555
S6 C61 1_555 1_555
F25 C73 1_555 1_555
F26 C73 1_555 1_555
F27 C73 1_555 1_555
F28 C72 1_555 1_555
F29 C72 1_555 1_555
F30 C72 1_555 1_555
F31 C83 1_555 1_555
F32 C83 1_555 1_555
F33 C83 1_555 1_555
F34 C84 1_555 1_555
F35 C84 1_555 1_555
F36 C84 1_555 1_555
O9 C65 1_555 1_555
O10 C76 1_555 1_555
O11 C64 1_555 1_555
O12 C63 1_555 1_555
C57 C58 1_555 1_555
C58 H17 1_555 1_555
C59 C58 1_555 1_555
C60 S5 1_555 1_555
C61 C60 1_555 1_555
C62 C61 1_555 1_555
C63 C62 1_555 1_555
C64 C59 1_555 1_555
C65 C57 1_555 1_555
C66 C65 1_555 1_555
C67 C66 1_555 1_555
H18 C67 1_555 1_555
C68 C67 1_555 1_555
C69 C68 1_555 1_555
H19 C69 1_555 1_555
C70 C69 1_555 1_555
C71 C66 1_555 1_555
H20 C71 1_555 1_555
C72 C70 1_555 1_555
C73 C68 1_555 1_555
C74 C62 1_555 1_555
H21 C74 1_555 1_555
C75 S6 1_555 1_555
C76 C75 1_555 1_555
C77 C76 1_555 1_555
C78 C77 1_555 1_555
H22 C78 1_555 1_555
C79 C78 1_555 1_555
C80 C79 1_555 1_555
H23 C80 1_555 1_555
C81 C80 1_555 1_555
C82 C77 1_555 1_555
H24 C82 1_555 1_555
C83 C79 1_555 1_555
C84 C81 1_555 1_555
C3 C4 1_555 1_555
C7 C8 1_555 1_555
C14 C15 1_555 1_555
C18 C19 1_555 1_555
C25 C26 1_555 1_555
C31 C32 1_555 1_555
C35 C36 1_555 1_555
C42 C43 1_555 1_555
C46 C47 1_555 1_555
C53 C54 1_555 1_555
C59 C60 1_555 1_555
C63 C64 1_555 1_555
C70 C71 1_555 1_555
C74 C75 1_555 1_555
C81 C82 1_555 1_555

#END
