
#######################################################################
#
#                 Cambridge Crystallographic Data Centre
#                                CCDC 
#
#######################################################################
#
# If this CIF has been generated from an entry in the Cambridge 
# Structural Database, then it will include bibliographic, chemical, 
# crystal, experimental, refinement or atomic coordinate data resulting 
# from the CCDC's data processing and validation procedures.
#
#######################################################################

data_LEVGAW
_chemical_formula_moiety         'C28 H30 N2 O2 S4'
_chemical_name_systematic        
2,7-bis(4-n-hexyl-thiophene-2-yl)-benzo[1,2-d:4,3-d']bis(thiazole)-4,5-dione
_symmetry_cell_setting           orthorhombic
_symmetry_space_group_name_H-M   'P c c n'
_symmetry_Int_Tables_number      56
_space_group_name_Hall           '-P 2ab 2ac'
loop_
_symmetry_equiv_pos_site_id
_symmetry_equiv_pos_as_xyz
1 x,y,z
2 1/2-x,1/2-y,z
3 1/2+x,-y,1/2-z
4 -x,1/2+y,1/2-z
5 -x,-y,-z
6 1/2+x,1/2+y,-z
7 1/2-x,y,1/2+z
8 x,1/2-y,1/2+z
_cell_length_a                   5.4624(10)
_cell_length_b                   34.996(6)
_cell_length_c                   14.787(3)
_cell_angle_alpha                90
_cell_angle_beta                 90
_cell_angle_gamma                90
_cell_volume                     2826.71
_exptl_crystal_colour            black
_exptl_crystal_description       needle
_cell_formula_units_Z            4
loop_
_atom_site_label
_atom_site_type_symbol
_atom_site_fract_x
_atom_site_fract_y
_atom_site_fract_z
S1 S 0.98309(10) 0.215456(15) 0.30580(3)
S2 S 1.55691(11) 0.139911(16) 0.40866(4)
O1 O 0.9354(4) 0.22428(5) 0.63634(10)
N1 N 1.1330(3) 0.19579(5) 0.46584(11)
C1 C 1.1688(4) 0.18939(5) 0.37962(13)
C2 C 0.9486(4) 0.22233(5) 0.47635(13)
C3 C 0.8465(4) 0.23612(5) 0.39773(12)
C4 C 0.8574(5) 0.23527(6) 0.56452(14)
C5 C 1.3459(4) 0.16328(5) 0.34195(13)
C6 C 1.3771(4) 0.15382(6) 0.25306(14)
H1 H 1.2805 0.1638 0.2070
C7 C 1.5689(4) 0.12754(6) 0.23720(15)
C8 C 1.6807(4) 0.11787(6) 0.31593(15)
H2 H 1.8117 0.1009 0.3192
C9 C 1.6291(4) 0.11252(7) 0.14453(15)
H3 H 1.7835 0.0989 0.1471
H4 H 1.6490 0.1339 0.1034
C10 C 1.4317(4) 0.08584(7) 0.10769(15)
H5 H 1.4276 0.0629 0.1446
H6 H 1.2739 0.0983 0.1133
C11 C 1.4692(4) 0.07448(7) 0.01032(15)
H7 H 1.6301 0.0630 0.0043
H8 H 1.4664 0.0973 -0.0268
C12 C 1.2807(4) 0.04676(7) -0.02546(15)
H9 H 1.1189 0.0572 -0.0142
H10 H 1.2940 0.0230 0.0080
C13 C 1.3042(5) 0.03812(8) -0.12536(16)
H11 H 1.2912 0.0618 -0.1590
H12 H 1.4655 0.0276 -0.1367
C14 C 1.1140(5) 0.01053(9) -0.16012(19)
H13 H 1.1383 0.0065 -0.2237
H14 H 0.9536 0.0209 -0.1501
H15 H 1.1290 -0.0134 -0.1287
S1A S 0.51691(10) 0.284544(15) 0.30580(3)
S2A S -0.05691(11) 0.360089(16) 0.40866(4)
O1A O 0.5646(4) 0.27572(5) 0.63634(10)
N1A N 0.3670(3) 0.30421(5) 0.46584(11)
C1A C 0.3312(4) 0.31061(5) 0.37962(13)
C2A C 0.5514(4) 0.27767(5) 0.47635(13)
C3A C 0.6535(4) 0.26388(5) 0.39773(12)
C4A C 0.6426(5) 0.26473(6) 0.56452(14)
C5A C 0.1541(4) 0.33672(5) 0.34195(13)
C6A C 0.1229(4) 0.34618(6) 0.25306(14)
H1A H 0.2195 0.3362 0.2070
C7A C -0.0689(4) 0.37246(6) 0.23720(15)
C8A C -0.1807(4) 0.38213(6) 0.31593(15)
H2A H -0.3117 0.3991 0.3192
C9A C -0.1291(4) 0.38748(7) 0.14453(15)
H3A H -0.2835 0.4011 0.1471
H4A H -0.1490 0.3661 0.1034
C10A C 0.0683(4) 0.41416(7) 0.10769(15)
H5A H 0.0724 0.4371 0.1446
H6A H 0.2261 0.4017 0.1133
C11A C 0.0308(4) 0.42552(7) 0.01032(15)
H7A H -0.1301 0.4370 0.0043
H8A H 0.0336 0.4027 -0.0268
C12A C 0.2193(4) 0.45324(7) -0.02546(15)
H9A H 0.3811 0.4428 -0.0142
H10A H 0.2060 0.4770 0.0080
C13A C 0.1958(5) 0.46188(8) -0.12536(16)
H11A H 0.2088 0.4382 -0.1590
H12A H 0.0345 0.4724 -0.1367
C14A C 0.3860(5) 0.48947(9) -0.16012(19)
H13A H 0.3617 0.4935 -0.2237
H14A H 0.5464 0.4791 -0.1501
H15A H 0.3710 0.5134 -0.1287
loop_
_geom_bond_atom_site_label_1
_geom_bond_atom_site_label_2
_geom_bond_site_symmetry_1
_geom_bond_site_symmetry_2
S1 C1 1_555 1_555
S2 C5 1_555 1_555
O1 C4 1_555 1_555
N1 C1 1_555 1_555
C1 C5 1_555 1_555
C2 N1 1_555 1_555
C3 S1 1_555 1_555
C4 C2 1_555 1_555
C5 C6 1_555 1_555
C6 H1 1_555 1_555
C7 C6 1_555 1_555
C8 S2 1_555 1_555
H2 C8 1_555 1_555
C9 C7 1_555 1_555
H3 C9 1_555 1_555
H4 C9 1_555 1_555
C10 C9 1_555 1_555
H5 C10 1_555 1_555
H6 C10 1_555 1_555
C11 C10 1_555 1_555
H7 C11 1_555 1_555
H8 C11 1_555 1_555
C12 C11 1_555 1_555
H9 C12 1_555 1_555
H10 C12 1_555 1_555
C13 C12 1_555 1_555
H11 C13 1_555 1_555
H12 C13 1_555 1_555
C14 C13 1_555 1_555
H13 C14 1_555 1_555
H14 C14 1_555 1_555
H15 C14 1_555 1_555
S1A C1A 1_555 1_555
S2A C5A 1_555 1_555
O1A C4A 1_555 1_555
N1A C1A 1_555 1_555
C1A C5A 1_555 1_555
C2A N1A 1_555 1_555
C3A C3 1_555 1_555
C4A C4 1_555 1_555
C5A C6A 1_555 1_555
C6A H1A 1_555 1_555
C7A C6A 1_555 1_555
C8A S2A 1_555 1_555
H2A C8A 1_555 1_555
C9A C7A 1_555 1_555
H3A C9A 1_555 1_555
H4A C9A 1_555 1_555
C10A C9A 1_555 1_555
H5A C10A 1_555 1_555
H6A C10A 1_555 1_555
C11A C10A 1_555 1_555
H7A C11A 1_555 1_555
H8A C11A 1_555 1_555
C12A C11A 1_555 1_555
H9A C12A 1_555 1_555
H10A C12A 1_555 1_555
C13A C12A 1_555 1_555
H11A C13A 1_555 1_555
H12A C13A 1_555 1_555
C14A C13A 1_555 1_555
H13A C14A 1_555 1_555
H14A C14A 1_555 1_555
H15A C14A 1_555 1_555
C2 C3 1_555 1_555
C7 C8 1_555 1_555
S1A C3A 1_555 1_555
C2A C3A 1_555 1_555
C2A C4A 1_555 1_555
C7A C8A 1_555 1_555

#END
