
#######################################################################
#
#                 Cambridge Crystallographic Data Centre
#                                CCDC 
#
#######################################################################
#
# If this CIF has been generated from an entry in the Cambridge 
# Structural Database, then it will include bibliographic, chemical, 
# crystal, experimental, refinement or atomic coordinate data resulting 
# from the CCDC's data processing and validation procedures.
#
#######################################################################

data_LEVHEB
_chemical_formula_moiety         'C10 H2 Cl2 O2 S2'
_chemical_name_systematic        
2,7-Dichloro-benzo[1,2-b:6,5-b']dithiophene-4,5-dione
_symmetry_cell_setting           monoclinic
_symmetry_space_group_name_H-M   'P 21/c'
_symmetry_Int_Tables_number      14
_space_group_name_Hall           '-P 2ybc'
loop_
_symmetry_equiv_pos_site_id
_symmetry_equiv_pos_as_xyz
1 x,y,z
2 -x,1/2+y,1/2-z
3 -x,-y,-z
4 x,1/2-y,1/2+z
_cell_length_a                   3.8509(11)
_cell_length_b                   19.822(5)
_cell_length_c                   13.742(4)
_cell_angle_alpha                90
_cell_angle_beta                 92.669(6)
_cell_angle_gamma                90
_cell_volume                     1047.82
_exptl_crystal_colour            red
_exptl_crystal_description       plates
_cell_formula_units_Z            4
loop_
_atom_site_label
_atom_site_type_symbol
_atom_site_fract_x
_atom_site_fract_y
_atom_site_fract_z
Cl1 Cl 0.4488(7) 0.05851(10) 0.59058(17)
Cl2 Cl 0.2641(6) 0.53049(9) 0.60924(15)
S1 S 0.4113(5) 0.20798(8) 0.57539(12)
S2 S 0.3345(4) 0.38242(8) 0.58141(12)
O1 O -0.0984(17) 0.2117(3) 0.8986(4)
O2 O -0.1841(17) 0.3489(3) 0.8988(4)
C1 C 0.343(2) 0.1346(3) 0.6405(5)
C2 C 0.2118(19) 0.1456(4) 0.7282(5)
H1 H 0.1648 0.1116 0.7723
C3 C 0.1542(18) 0.2149(3) 0.7452(5)
C4 C 0.2517(16) 0.2545(3) 0.6685(4)
C5 C 0.0017(18) 0.2443(4) 0.8307(5)
C6 C -0.0417(18) 0.3228(4) 0.8318(5)
C7 C 0.0851(17) 0.3603(3) 0.7493(5)
C8 C 0.2167(16) 0.3274(3) 0.6707(4)
C9 C 0.0878(18) 0.4316(4) 0.7386(5)
H2 H 0.0137 0.4618 0.7851
C10 C 0.2119(19) 0.4498(3) 0.6520(5)
loop_
_geom_bond_atom_site_label_1
_geom_bond_atom_site_label_2
_geom_bond_site_symmetry_1
_geom_bond_site_symmetry_2
Cl1 C1 1_555 1_555
Cl2 C10 1_555 1_555
S1 C1 1_555 1_555
S2 C8 1_555 1_555
O1 C5 1_555 1_555
O2 C6 1_555 1_555
C1 C2 1_555 1_555
C2 H1 1_555 1_555
C3 C2 1_555 1_555
C4 S1 1_555 1_555
C5 C3 1_555 1_555
C6 C5 1_555 1_555
C7 C6 1_555 1_555
C8 C4 1_555 1_555
C9 C7 1_555 1_555
H2 C9 1_555 1_555
C10 S2 1_555 1_555
C3 C4 1_555 1_555
C7 C8 1_555 1_555
C9 C10 1_555 1_555

#END
