
#######################################################################
#
#                 Cambridge Crystallographic Data Centre
#                                CCDC 
#
#######################################################################
#
# If this CIF has been generated from an entry in the Cambridge 
# Structural Database, then it will include bibliographic, chemical, 
# crystal, experimental, refinement or atomic coordinate data resulting 
# from the CCDC's data processing and validation procedures.
#
#######################################################################

data_LEVHOL
_chemical_name_common            
2,7-Diiodo-benzo[1,2-b:6,5-b']dithiophene-4,5-dione
_chemical_formula_moiety         'C10 H2 I2 O2 S2'
_chemical_name_systematic        
2,7-Diiodothieno[3,2-g][1]benzothiophene-4,5-dione
_symmetry_cell_setting           monoclinic
_symmetry_space_group_name_H-M   'P 21/c'
_symmetry_Int_Tables_number      14
_space_group_name_Hall           '-P 2ybc'
loop_
_symmetry_equiv_pos_site_id
_symmetry_equiv_pos_as_xyz
1 x,y,z
2 -x,1/2+y,1/2-z
3 -x,-y,-z
4 x,1/2-y,1/2+z
_cell_length_a                   12.766(5)
_cell_length_b                   6.323(2)
_cell_length_c                   17.766(7)
_cell_angle_alpha                90
_cell_angle_beta                 92.054(5)
_cell_angle_gamma                90
_cell_volume                     1433.14
_exptl_crystal_colour            pink
_exptl_crystal_description       block
_cell_formula_units_Z            4
loop_
_atom_site_label
_atom_site_type_symbol
_atom_site_fract_x
_atom_site_fract_y
_atom_site_fract_z
I1 I 0.58004(10) 1.43764(19) -0.22518(8)
I2 I 0.89070(9) 0.18413(17) 0.05481(6)
S1 S 0.6882(4) 1.0454(7) -0.1254(2)
S2 S 0.8011(4) 0.6177(6) -0.0289(2)
O1 O 0.8497(10) 0.741(2) -0.3501(6)
O2 O 0.9593(10) 0.4332(18) -0.2730(6)
C1 C 0.6753(13) 1.168(2) -0.2099(9)
C2 C 0.7337(13) 1.072(2) -0.2705(9)
H1 H 0.7365 1.1188 -0.3201
C3 C 0.7853(13) 0.893(2) -0.2380(9)
C4 C 0.7734(13) 0.857(2) -0.1611(9)
C5 C 0.8469(13) 0.739(2) -0.2829(9)
C6 C 0.9022(13) 0.554(2) -0.2365(9)
C7 C 0.8799(13) 0.529(2) -0.1578(9)
C8 C 0.8183(13) 0.679(2) -0.1206(9)
C9 C 0.9111(13) 0.370(2) -0.1073(9)
H2 H 0.9533 0.2580 -0.1217
C10 C 0.8761(13) 0.387(2) -0.0352(9)
loop_
_geom_bond_atom_site_label_1
_geom_bond_atom_site_label_2
_geom_bond_site_symmetry_1
_geom_bond_site_symmetry_2
I1 C1 1_555 1_555
I2 C10 1_555 1_555
S1 C1 1_555 1_555
S2 C8 1_555 1_555
O1 C5 1_555 1_555
O2 C6 1_555 1_555
C1 C2 1_555 1_555
C2 H1 1_555 1_555
C3 C2 1_555 1_555
C4 S1 1_555 1_555
C5 C3 1_555 1_555
C6 C5 1_555 1_555
C7 C6 1_555 1_555
C8 C4 1_555 1_555
C9 C7 1_555 1_555
H2 C9 1_555 1_555
C10 S2 1_555 1_555
C3 C4 1_555 1_555
C7 C8 1_555 1_555
C9 C10 1_555 1_555

#END
