
#######################################################################
#
#                 Cambridge Crystallographic Data Centre
#                                CCDC 
#
#######################################################################
#
# If this CIF has been generated from an entry in the Cambridge 
# Structural Database, then it will include bibliographic, chemical, 
# crystal, experimental, refinement or atomic coordinate data resulting 
# from the CCDC's data processing and validation procedures.
#
#######################################################################

data_LEVHAX
_chemical_formula_moiety         'C10 H2 F2 O2 S2'
_chemical_name_systematic        
2,7-Difluoro-benzo[1,2-b:6,5-b']dithiophene-4,5-dione-4,5-dione
_symmetry_cell_setting           monoclinic
_symmetry_space_group_name_H-M   'P 21/c'
_symmetry_Int_Tables_number      14
_space_group_name_Hall           '-P 2ybc'
loop_
_symmetry_equiv_pos_site_id
_symmetry_equiv_pos_as_xyz
1 x,y,z
2 -x,1/2+y,1/2-z
3 -x,-y,-z
4 x,1/2-y,1/2+z
_cell_length_a                   3.8903(7)
_cell_length_b                   16.656(3)
_cell_length_c                   14.363(3)
_cell_angle_alpha                90
_cell_angle_beta                 95.947(3)
_cell_angle_gamma                90
_cell_volume                     925.668
_exptl_crystal_colour            yellow
_exptl_crystal_description       prism
_cell_formula_units_Z            4
loop_
_atom_site_label
_atom_site_type_symbol
_atom_site_fract_x
_atom_site_fract_y
_atom_site_fract_z
S1 S 0.25959(10) 0.63051(3) 0.27164(3)
S2 S 0.12206(11) 0.83129(2) 0.32441(3)
F1 F 0.4363(3) 0.47852(7) 0.26005(8)
F2 F 0.0796(3) 0.97709(7) 0.39516(9)
O1 O 0.9337(4) 0.61876(8) 0.58088(9)
O2 O 0.7523(4) 0.76943(9) 0.63157(9)
C1 C 0.4568(4) 0.54357(10) 0.31513(12)
C2 C 0.6205(4) 0.54877(10) 0.40152(11)
H1 H 0.7395 0.5071 0.4336
C3 C 0.5847(4) 0.62786(9) 0.43688(11)
C4 C 0.3962(4) 0.67836(9) 0.37482(10)
C5 C 0.7366(4) 0.65733(10) 0.52773(11)
C6 C 0.6482(4) 0.74465(10) 0.55481(11)
C7 C 0.4476(4) 0.79303(10) 0.48356(11)
C8 C 0.3314(4) 0.76095(9) 0.39755(11)
C9 C 0.3658(5) 0.87595(10) 0.49201(13)
H2 H 0.4226 0.9072 0.5451
C10 C 0.1954(5) 0.90204(10) 0.41228(13)
loop_
_geom_bond_atom_site_label_1
_geom_bond_atom_site_label_2
_geom_bond_site_symmetry_1
_geom_bond_site_symmetry_2
S1 C1 1_555 1_555
S2 C8 1_555 1_555
F1 C1 1_555 1_555
F2 C10 1_555 1_555
O1 C5 1_555 1_555
O2 C6 1_555 1_555
C1 C2 1_555 1_555
C2 H1 1_555 1_555
C3 C2 1_555 1_555
C4 S1 1_555 1_555
C5 C3 1_555 1_555
C6 C5 1_555 1_555
C7 C6 1_555 1_555
C8 C4 1_555 1_555
C9 C7 1_555 1_555
H2 C9 1_555 1_555
C10 S2 1_555 1_555
C3 C4 1_555 1_555
C7 C8 1_555 1_555
C9 C10 1_555 1_555

#END
