
#######################################################################
#
#                 Cambridge Crystallographic Data Centre
#                                CCDC 
#
#######################################################################
#
# If this CIF has been generated from an entry in the Cambridge 
# Structural Database, then it will include bibliographic, chemical, 
# crystal, experimental, refinement or atomic coordinate data resulting 
# from the CCDC's data processing and validation procedures.
#
#######################################################################

data_LEVHUR
_chemical_formula_moiety         'C14 H10 Br2 O4 S2'
_chemical_name_systematic        
2,7-Dibromo-benzo[1,2-b:6,5-b']dithiophene-4,5-bis(ethyleneoxolane)
_symmetry_cell_setting           tetragonal
_symmetry_space_group_name_H-M   'P 4/n c c'
_symmetry_Int_Tables_number      130
_space_group_name_Hall           '-P 4a 2ac'
loop_
_symmetry_equiv_pos_site_id
_symmetry_equiv_pos_as_xyz
1 x,y,z
2 1/2-y,x,z
3 1/2-x,1/2-y,z
4 y,1/2-x,z
5 1/2+x,-y,1/2-z
6 1/2+y,1/2+x,1/2-z
7 -x,1/2+y,1/2-z
8 -y,-x,1/2-z
9 -x,-y,-z
10 1/2+y,-x,-z
11 1/2+x,1/2+y,-z
12 -y,1/2+x,-z
13 1/2-x,y,1/2+z
14 1/2-y,1/2-x,1/2+z
15 x,1/2-y,1/2+z
16 y,x,1/2+z
_cell_length_a                   20.229(5)
_cell_length_b                   20.229(5)
_cell_length_c                   7.688(3)
_cell_angle_alpha                90
_cell_angle_beta                 90
_cell_angle_gamma                90
_cell_volume                     3146.03
_exptl_crystal_colour            yellow
_exptl_crystal_description       prism
_cell_formula_units_Z            8
loop_
_atom_site_label
_atom_site_type_symbol
_atom_site_fract_x
_atom_site_fract_y
_atom_site_fract_z
Br1 Br 0.14071(3) 0.31110(3) 0.39061(11)
S1 S 0.02847(7) 0.40720(7) 0.2913(2)
O1 O 0.11455(18) 0.60078(17) 0.4869(5)
O2 O 0.19179(16) 0.58903(18) 0.2773(5)
C1 C 0.1097(3) 0.3970(3) 0.3467(8)
C2 C 0.1444(3) 0.4547(3) 0.3515(7)
H1 H 0.1891 0.4578 0.3795
C3 C 0.1040(3) 0.5091(3) 0.3084(7)
C4 C 0.0402(3) 0.4911(2) 0.2727(7)
C5 C 0.1237(2) 0.5810(3) 0.3131(7)
C6 C 0.2078(3) 0.5755(3) 0.1003(8)
H2 H 0.1960 0.5302 0.0723
H3 H 0.2550 0.5807 0.0823
C7 C 0.1219(3) 0.6708(3) 0.5159(8)
H4 H 0.1671 0.6840 0.4914
H5 H 0.1124 0.6811 0.6365
Br1E Br -0.18890(3) 0.64071(3) 0.10939(11)
S1E S -0.09280(7) 0.52847(7) 0.2087(2)
O1E O 0.10078(17) 0.61455(18) 0.0131(5)
O2E O 0.08903(18) 0.69179(16) 0.2227(5)
C1E C -0.1030(3) 0.6097(3) 0.1533(8)
C2E C -0.0453(3) 0.6444(3) 0.1485(7)
H1E H -0.0422 0.6891 0.1205
C3E C 0.0091(3) 0.6040(3) 0.1916(7)
C4E C -0.0089(2) 0.5402(3) 0.2273(7)
C5E C 0.0810(3) 0.6237(2) 0.1869(7)
C6E C 0.0755(3) 0.7078(3) 0.3997(8)
H2E H 0.0302 0.6960 0.4277
H3E H 0.0807 0.7550 0.4177
C7E C 0.1708(3) 0.6219(3) -0.0159(8)
H4E H 0.1840 0.6671 0.0086
H5E H 0.1811 0.6124 -0.1365
loop_
_geom_bond_atom_site_label_1
_geom_bond_atom_site_label_2
_geom_bond_site_symmetry_1
_geom_bond_site_symmetry_2
Br1 C1 1_555 1_555
S1 C1 1_555 1_555
O1 C5 1_555 1_555
O2 C5 1_555 1_555
C1 C2 1_555 1_555
C2 H1 1_555 1_555
C3 C2 1_555 1_555
C4 S1 1_555 1_555
C5 C3 1_555 1_555
C6 O2 1_555 1_555
H2 C6 1_555 1_555
H3 C6 1_555 1_555
C7 O1 1_555 1_555
H4 C7 1_555 1_555
H5 C7 1_555 1_555
Br1E C1E 1_555 1_555
S1E C1E 1_555 1_555
O1E C5E 1_555 1_555
O2E C5E 1_555 1_555
C1E C2E 1_555 1_555
C2E H1E 1_555 1_555
C3E C2E 1_555 1_555
C4E C4 1_555 1_555
C5E C5 1_555 1_555
C6E C7 1_555 1_555
H2E C6E 1_555 1_555
H3E C6E 1_555 1_555
C7E C6 1_555 1_555
H4E C7E 1_555 1_555
H5E C7E 1_555 1_555
C3 C4 1_555 1_555
S1E C4E 1_555 1_555
O1E C7E 1_555 1_555
O2E C6E 1_555 1_555
C3E C4E 1_555 1_555
C3E C5E 1_555 1_555

#END
