
#######################################################################
#
#                 Cambridge Crystallographic Data Centre
#                                CCDC 
#
#######################################################################
#
# If this CIF has been generated from an entry in the Cambridge 
# Structural Database, then it will include bibliographic, chemical, 
# crystal, experimental, refinement or atomic coordinate data resulting 
# from the CCDC's data processing and validation procedures.
#
#######################################################################

data_LEVHIF
_chemical_formula_moiety         'C10 H2 Br2 O2 S2'
_chemical_name_systematic        
2,7-Dibromo-benzo[1,2-b:6,5-b']dithiophene-4,5-dione
_symmetry_cell_setting           monoclinic
_symmetry_space_group_name_H-M   'C 2/c'
_symmetry_Int_Tables_number      15
_space_group_name_Hall           '-C 2yn'
loop_
_symmetry_equiv_pos_site_id
_symmetry_equiv_pos_as_xyz
1 x,y,z
2 -x,y,1/2-z
3 1/2+x,1/2+y,z
4 1/2-x,1/2+y,1/2-z
5 -x,-y,-z
6 x,-y,1/2+z
7 1/2-x,1/2-y,-z
8 1/2+x,1/2-y,1/2+z
_cell_length_a                   21.6810(17)
_cell_length_b                   5.6778(5)
_cell_length_c                   17.7679(14)
_cell_angle_alpha                90
_cell_angle_beta                 104.2490(10)
_cell_angle_gamma                90
_cell_volume                     2119.95
_exptl_crystal_colour            black
_exptl_crystal_description       needle
_cell_formula_units_Z            8
loop_
_atom_site_label
_atom_site_type_symbol
_atom_site_fract_x
_atom_site_fract_y
_atom_site_fract_z
Br1 Br 0.189915(7) 0.54916(3) 0.431262(8)
Br2 Br -0.012510(7) -0.71221(3) 0.643476(8)
S1 S 0.126732(17) 0.12514(6) 0.491145(18)
S2 S 0.051797(17) -0.32323(6) 0.566905(18)
O1 O 0.22388(5) 0.3360(2) 0.76512(6)
O2 O 0.15541(6) 0.0081(2) 0.82252(6)
C1 C 0.17630(7) 0.3673(2) 0.51317(8)
C2 C 0.19891(7) 0.4019(2) 0.59124(8)
H1 H 0.2268 0.5260 0.6137
C3 C 0.17518(7) 0.2268(2) 0.63462(7)
C4 C 0.13498(7) 0.0666(2) 0.58769(7)
C5 C 0.18816(7) 0.2072(2) 0.71963(8)
C6 C 0.15215(7) 0.0106(2) 0.75305(8)
C7 C 0.11367(7) -0.1571(3) 0.69820(7)
C8 C 0.10498(6) -0.1238(2) 0.61918(7)
C9 C 0.07768(7) -0.3485(3) 0.71704(8)
H2 H 0.0782 -0.3965 0.7684
C10 C 0.04246(7) -0.4534(2) 0.65149(8)
loop_
_geom_bond_atom_site_label_1
_geom_bond_atom_site_label_2
_geom_bond_site_symmetry_1
_geom_bond_site_symmetry_2
Br1 C1 1_555 1_555
Br2 C10 1_555 1_555
S1 C1 1_555 1_555
S2 C8 1_555 1_555
O1 C5 1_555 1_555
O2 C6 1_555 1_555
C1 C2 1_555 1_555
C2 H1 1_555 1_555
C3 C2 1_555 1_555
C4 S1 1_555 1_555
C5 C3 1_555 1_555
C6 C5 1_555 1_555
C7 C6 1_555 1_555
C8 C4 1_555 1_555
C9 C7 1_555 1_555
H2 C9 1_555 1_555
C10 S2 1_555 1_555
C3 C4 1_555 1_555
C7 C8 1_555 1_555
C9 C10 1_555 1_555

#END
