
#######################################################################
#
#                 Cambridge Crystallographic Data Centre
#                                CCDC 
#
#######################################################################
#
# If this CIF has been generated from an entry in the Cambridge 
# Structural Database, then it will include bibliographic, chemical, 
# crystal, experimental, refinement or atomic coordinate data resulting 
# from the CCDC's data processing and validation procedures.
#
#######################################################################

data_LEVJEC
_chemical_formula_moiety         'C8 H22 Se1 Si3'
_chemical_name_systematic        3,3-bis(trimethylsilyl)-1,3-selenasiletane
_symmetry_cell_setting           orthorhombic
_symmetry_space_group_name_H-M   'P b c n'
_symmetry_Int_Tables_number      60
_space_group_name_Hall           '-P 2n 2ab'
loop_
_symmetry_equiv_pos_site_id
_symmetry_equiv_pos_as_xyz
1 x,y,z
2 1/2-x,1/2-y,1/2+z
3 -x,y,1/2-z
4 1/2+x,1/2-y,-z
5 -x,-y,-z
6 1/2+x,1/2+y,1/2-z
7 x,-y,1/2+z
8 1/2-x,1/2+y,z
_cell_length_a                   12.2465(7)
_cell_length_b                   12.1821(7)
_cell_length_c                   9.7334(6)
_cell_angle_alpha                90
_cell_angle_beta                 90
_cell_angle_gamma                90
_cell_volume                     1452.11
_exptl_crystal_colour            colorless
_exptl_crystal_description       block
_cell_formula_units_Z            4
loop_
_atom_site_label
_atom_site_type_symbol
_atom_site_fract_x
_atom_site_fract_y
_atom_site_fract_z
Se1 Se 0.5000 0.537533(17) 0.2500
Si1 Si 0.5000 0.30980(4) 0.2500
Si2 Si 0.38900(3) 0.20684(3) 0.10192(4)
C1 C 0.58133(12) 0.41963(11) 0.15460(15)
C2 C 0.27539(16) 0.29697(15) 0.0419(2)
H1 H 0.2326 0.2583 -0.0281
H2 H 0.3057 0.3644 0.0025
H3 H 0.2282 0.3155 0.1198
C3 C 0.33182(15) 0.08373(14) 0.19032(18)
H4 H 0.2908 0.1069 0.2717
H5 H 0.3916 0.0351 0.2182
H6 H 0.2830 0.0445 0.1274
C4 C 0.46939(16) 0.16048(15) -0.05062(18)
H7 H 0.5296 0.1135 -0.0202
H8 H 0.4988 0.2246 -0.0988
H9 H 0.4218 0.1191 -0.1128
H10 H 0.5728(15) 0.4262(15) 0.061(2)
H11 H 0.6575(15) 0.4246(14) 0.1763(18)
Si2B Si 0.61100(3) 0.20684(3) 0.39808(4)
C1B C 0.41867(12) 0.41963(11) 0.34540(15)
C2B C 0.72461(16) 0.29697(15) 0.4581(2)
H1B H 0.7674 0.2583 0.5281
H2B H 0.6943 0.3644 0.4975
H3B H 0.7718 0.3155 0.3802
C3B C 0.66818(15) 0.08373(14) 0.30968(18)
H4B H 0.7092 0.1069 0.2283
H5B H 0.6084 0.0351 0.2818
H6B H 0.7170 0.0445 0.3726
C4B C 0.53061(16) 0.16048(15) 0.55062(18)
H7B H 0.4704 0.1135 0.5202
H8B H 0.5012 0.2246 0.5988
H9B H 0.5782 0.1191 0.6128
H10B H 0.4272(15) 0.4262(15) 0.439(2)
H11B H 0.3425(15) 0.4246(14) 0.3237(18)
loop_
_geom_bond_atom_site_label_1
_geom_bond_atom_site_label_2
_geom_bond_site_symmetry_1
_geom_bond_site_symmetry_2
Se1 C1 1_555 1_555
Si1 Si2 1_555 1_555
Si2 C2 1_555 1_555
C1 Si1 1_555 1_555
C2 H1 1_555 1_555
H2 C2 1_555 1_555
H3 C2 1_555 1_555
C3 Si2 1_555 1_555
H4 C3 1_555 1_555
H5 C3 1_555 1_555
H6 C3 1_555 1_555
C4 Si2 1_555 1_555
H7 C4 1_555 1_555
H8 C4 1_555 1_555
H9 C4 1_555 1_555
H10 C1 1_555 1_555
H11 C1 1_555 1_555
Si2B Si1 1_555 1_555
C1B Se1 1_555 1_555
C2B Si2B 1_555 1_555
H1B C2B 1_555 1_555
H2B C2B 1_555 1_555
H3B C2B 1_555 1_555
C3B Si2B 1_555 1_555
H4B C3B 1_555 1_555
H5B C3B 1_555 1_555
H6B C3B 1_555 1_555
C4B Si2B 1_555 1_555
H7B C4B 1_555 1_555
H8B C4B 1_555 1_555
H9B C4B 1_555 1_555
H10B C1B 1_555 1_555
H11B C1B 1_555 1_555
Si1 C1B 1_555 1_555

#END
