
#######################################################################
#
#                 Cambridge Crystallographic Data Centre
#                                CCDC 
#
#######################################################################
#
# If this CIF has been generated from an entry in the Cambridge 
# Structural Database, then it will include bibliographic, chemical, 
# crystal, experimental, refinement or atomic coordinate data resulting 
# from the CCDC's data processing and validation procedures.
#
#######################################################################

data_LEVJAY
_chemical_formula_moiety         'C12 H32 Se2 Si4'
_chemical_name_systematic        
3,3,4,4,8,8,9,9-Octamethyl-1,6-diselena-3,4,8,9-tetrasilacyclodecane
_symmetry_cell_setting           triclinic
_symmetry_space_group_name_H-M   'P -1'
_symmetry_Int_Tables_number      2
_space_group_name_Hall           '-P 1'
loop_
_symmetry_equiv_pos_site_id
_symmetry_equiv_pos_as_xyz
1 x,y,z
2 -x,-y,-z
_cell_length_a                   6.2293(4)
_cell_length_b                   8.0571(5)
_cell_length_c                   11.4887(7)
_cell_angle_alpha                103.8910(10)
_cell_angle_beta                 94.1820(10)
_cell_angle_gamma                107.2310(10)
_cell_volume                     528.141
_exptl_crystal_colour            colorless
_exptl_crystal_description       block
_chemical_melting_point          103-104deg.C
_cell_formula_units_Z            1
loop_
_atom_site_label
_atom_site_type_symbol
_atom_site_fract_x
_atom_site_fract_y
_atom_site_fract_z
Se1 Se 1.04158(2) 1.200126(18) 0.433048(12)
Si1 Si 0.84396(7) 0.85592(5) 0.20666(3)
Si2 Si 0.88026(7) 0.61985(5) 0.28434(3)
C1 C 0.7691(3) 1.0287(2) 0.32451(15)
C2 C 0.9025(3) 1.2844(2) 0.57314(14)
C3 C 0.6107(3) 0.7659(2) 0.07223(15)
C4 C 1.1160(3) 0.9681(2) 0.15623(16)
C5 C 0.6016(3) 0.4868(2) 0.31821(17)
C6 C 0.9812(3) 0.4633(2) 0.17007(16)
H1 H 0.696(3) 1.089(3) 0.2798(19)
H2 H 0.679(4) 0.974(3) 0.373(2)
H3 H 0.838(3) 1.370(3) 0.5577(18)
H4 H 0.783(4) 1.180(3) 0.5764(19)
H5 H 0.647(4) 0.681(3) 0.011(2)
H6 H 0.465(4) 0.709(4) 0.097(2)
H7 H 0.596(4) 0.865(3) 0.039(2)
H8 H 1.149(4) 0.886(3) 0.090(2)
H9 H 1.119(4) 1.069(3) 0.132(2)
H10 H 1.259(4) 1.011(3) 0.2223(19)
H11 H 0.498(5) 0.432(3) 0.249(2)
H12 H 0.531(4) 0.563(3) 0.373(2)
H13 H 0.612(5) 0.398(4) 0.359(2)
H14 H 0.877(4) 0.416(3) 0.093(2)
H15 H 1.009(4) 0.366(3) 0.202(2)
H16 H 1.122(5) 0.528(4) 0.149(2)
Se1A Se 0.95842(2) 0.799874(18) 0.566952(12)
Si1A Si 1.15604(7) 1.14408(5) 0.79334(3)
Si2A Si 1.11974(7) 1.38015(5) 0.71566(3)
C1A C 1.2309(3) 0.9713(2) 0.67549(15)
C2A C 1.0975(3) 0.7156(2) 0.42686(14)
C3A C 1.3893(3) 1.2341(2) 0.92777(15)
C4A C 0.8840(3) 1.0319(2) 0.84377(16)
C5A C 1.3984(3) 1.5132(2) 0.68179(17)
C6A C 1.0188(3) 1.5367(2) 0.82993(16)
H1A H 1.304(3) 0.911(3) 0.7202(19)
H2A H 1.321(4) 1.026(3) 0.627(2)
H3A H 1.162(3) 0.630(3) 0.4423(18)
H4A H 1.217(4) 0.820(3) 0.4236(19)
H5A H 1.353(4) 1.319(3) 0.989(2)
H6A H 1.535(4) 1.291(4) 0.903(2)
H7A H 1.404(4) 1.135(3) 0.961(2)
H8A H 0.851(4) 1.114(3) 0.910(2)
H9A H 0.881(4) 0.931(3) 0.868(2)
H10A H 0.741(4) 0.989(3) 0.7777(19)
H11A H 1.502(5) 1.568(3) 0.751(2)
H12A H 1.469(4) 1.437(3) 0.627(2)
H13A H 1.388(5) 1.602(4) 0.641(2)
H14A H 1.123(4) 1.584(3) 0.907(2)
H15A H 0.991(4) 1.634(3) 0.798(2)
H16A H 0.878(5) 1.472(4) 0.851(2)
loop_
_geom_bond_atom_site_label_1
_geom_bond_atom_site_label_2
_geom_bond_site_symmetry_1
_geom_bond_site_symmetry_2
Se1 C1 1_555 1_555
Si1 Si2 1_555 1_555
Si2 C5 1_555 1_555
C1 Si1 1_555 1_555
C2 Se1 1_555 1_555
C3 Si1 1_555 1_555
C4 Si1 1_555 1_555
C5 H11 1_555 1_555
C6 Si2 1_555 1_555
H1 C1 1_555 1_555
H2 C1 1_555 1_555
H3 C2 1_555 1_555
H4 C2 1_555 1_555
H5 C3 1_555 1_555
H6 C3 1_555 1_555
H7 C3 1_555 1_555
H8 C4 1_555 1_555
H9 C4 1_555 1_555
H10 C4 1_555 1_555
H12 C5 1_555 1_555
H13 C5 1_555 1_555
H14 C6 1_555 1_555
H15 C6 1_555 1_555
H16 C6 1_555 1_555
Se1A C1A 1_555 1_555
Si1A Si2A 1_555 1_555
Si2A C2 1_555 1_555
C1A Si1A 1_555 1_555
C2A Si2 1_555 1_555
C3A Si1A 1_555 1_555
C4A Si1A 1_555 1_555
C5A Si2A 1_555 1_555
C6A Si2A 1_555 1_555
H1A C1A 1_555 1_555
H2A C1A 1_555 1_555
H3A C2A 1_555 1_555
H4A C2A 1_555 1_555
H5A C3A 1_555 1_555
H6A C3A 1_555 1_555
H7A C3A 1_555 1_555
H8A C4A 1_555 1_555
H9A C4A 1_555 1_555
H10A C4A 1_555 1_555
H11A C5A 1_555 1_555
H12A C5A 1_555 1_555
H13A C5A 1_555 1_555
H14A C6A 1_555 1_555
H15A C6A 1_555 1_555
H16A C6A 1_555 1_555
Se1A C2A 1_555 1_555

#END
