
#######################################################################
#
#                 Cambridge Crystallographic Data Centre
#                                CCDC 
#
#######################################################################
#
# If this CIF has been generated from an entry in the Cambridge 
# Structural Database, then it will include bibliographic, chemical, 
# crystal, experimental, refinement or atomic coordinate data resulting 
# from the CCDC's data processing and validation procedures.
#
#######################################################################

data_LEVJON
_chemical_formula_moiety         'C28 H10 F10 O6 S2'
_chemical_name_systematic        
2,7-bis(pentafluorobenzoyl)-benzo[1,2-b:6,5-b']dithiophene-4,5-bis(ethyleneoxolane)
_symmetry_cell_setting           monoclinic
_symmetry_space_group_name_H-M   'P 2/c'
_symmetry_Int_Tables_number      13
_space_group_name_Hall           '-P 2yc'
loop_
_symmetry_equiv_pos_site_id
_symmetry_equiv_pos_as_xyz
1 x,y,z
2 -x,y,1/2-z
3 -x,-y,-z
4 x,-y,1/2+z
_cell_length_a                   7.9083(8)
_cell_length_b                   8.4393(8)
_cell_length_c                   19.2066(19)
_cell_angle_alpha                90
_cell_angle_beta                 92.076(2)
_cell_angle_gamma                90
_cell_volume                     1281.02
_exptl_crystal_colour            yellow
_exptl_crystal_description       plates
_cell_formula_units_Z            2
loop_
_atom_site_label
_atom_site_type_symbol
_atom_site_fract_x
_atom_site_fract_y
_atom_site_fract_z
S1 S 0.31056(11) -0.01184(11) 0.29550(6)
F1 F -0.3113(2) -0.0059(3) 0.37492(13)
F2 F -0.5175(3) 0.1556(3) 0.45581(14)
F3 F -0.3917(3) 0.3707(3) 0.54727(15)
F4 F -0.0545(3) 0.4158(3) 0.56196(14)
F5 F 0.1547(3) 0.2538(2) 0.48348(12)
O1 O 0.5546(3) 0.4611(3) 0.34302(13)
O2 O 0.3336(3) 0.5746(3) 0.28376(14)
O3 O 0.0144(3) -0.1105(3) 0.36959(15)
C1 C 0.1721(4) 0.1081(4) 0.3396(2)
C2 C 0.2133(4) 0.2650(4) 0.3329(2)
H1 H 0.1522 0.3468 0.3525
C3 C 0.3572(4) 0.2896(4) 0.2934(2)
C4 C 0.4249(4) 0.1498(4) 0.2696(2)
C5 C 0.4475(4) 0.4450(4) 0.2830(2)
C6 C 0.6632(4) 0.5979(4) 0.3404(2)
H2 H 0.7344 0.6035 0.3825
H3 H 0.5953 0.6935 0.3374
C7 C 0.2295(4) 0.5860(4) 0.2214(2)
H4 H 0.1575 0.6787 0.2238
H5 H 0.1575 0.4932 0.2171
C8 C 0.0323(4) 0.0305(4) 0.37533(19)
C9 C -0.0684(5) 0.1226(4) 0.4219(2)
C10 C -0.2440(5) 0.1017(5) 0.4201(2)
C11 C -0.3514(5) 0.1816(6) 0.4608(3)
C12 C -0.2890(5) 0.2902(6) 0.5072(2)
C13 C -0.1196(6) 0.3141(5) 0.5140(2)
C14 C -0.0139(5) 0.2308(5) 0.4721(2)
S1A S 0.68944(11) -0.01184(11) 0.20450(6)
F1A F 1.3113(2) -0.0059(3) 0.12508(13)
F2A F 1.5175(3) 0.1556(3) 0.04419(14)
F3A F 1.3917(3) 0.3707(3) -0.04727(15)
F4A F 1.0545(3) 0.4158(3) -0.06196(14)
F5A F 0.8453(3) 0.2538(2) 0.01652(12)
O1A O 0.4454(3) 0.4611(3) 0.15698(13)
O2A O 0.6664(3) 0.5746(3) 0.21624(14)
O3A O 0.9856(3) -0.1105(3) 0.13041(15)
C1A C 0.8279(4) 0.1081(4) 0.1604(2)
C2A C 0.7867(4) 0.2650(4) 0.1671(2)
H1A H 0.8478 0.3468 0.1475
C3A C 0.6428(4) 0.2896(4) 0.2066(2)
C4A C 0.5751(4) 0.1498(4) 0.2304(2)
C5A C 0.5525(4) 0.4450(4) 0.2170(2)
C6A C 0.3368(4) 0.5979(4) 0.1596(2)
H2A H 0.2656 0.6035 0.1175
H3A H 0.4047 0.6935 0.1626
C7A C 0.7705(4) 0.5860(4) 0.2786(2)
H4A H 0.8425 0.6787 0.2762
H5A H 0.8425 0.4932 0.2829
C8A C 0.9677(4) 0.0305(4) 0.12467(19)
C9A C 1.0684(5) 0.1226(4) 0.0781(2)
C10A C 1.2440(5) 0.1017(5) 0.0799(2)
C11A C 1.3514(5) 0.1816(6) 0.0392(3)
C12A C 1.2890(5) 0.2902(6) -0.0072(2)
C13A C 1.1196(6) 0.3141(5) -0.0140(2)
C14A C 1.0139(5) 0.2308(5) 0.0279(2)
loop_
_geom_bond_atom_site_label_1
_geom_bond_atom_site_label_2
_geom_bond_site_symmetry_1
_geom_bond_site_symmetry_2
S1 C1 1_555 1_555
F1 C10 1_555 1_555
F2 C11 1_555 1_555
F3 C12 1_555 1_555
F4 C13 1_555 1_555
F5 C14 1_555 1_555
O1 C5 1_555 1_555
O2 C5 1_555 1_555
O3 C8 1_555 1_555
C1 C2 1_555 1_555
C2 H1 1_555 1_555
C3 C2 1_555 1_555
C4 S1 1_555 1_555
C5 C3 1_555 1_555
C6 O1 1_555 1_555
H2 C6 1_555 1_555
H3 C6 1_555 1_555
C7 O2 1_555 1_555
H4 C7 1_555 1_555
H5 C7 1_555 1_555
C8 C1 1_555 1_555
C9 C8 1_555 1_555
C10 C9 1_555 1_555
C11 C10 1_555 1_555
C12 C11 1_555 1_555
C13 C12 1_555 1_555
C14 C9 1_555 1_555
S1A C1A 1_555 1_555
F1A C10A 1_555 1_555
F2A C11A 1_555 1_555
F3A C12A 1_555 1_555
F4A C13A 1_555 1_555
F5A C14A 1_555 1_555
O1A C5A 1_555 1_555
O2A C5A 1_555 1_555
O3A C8A 1_555 1_555
C1A C2A 1_555 1_555
C2A H1A 1_555 1_555
C3A C2A 1_555 1_555
C4A C4 1_555 1_555
C5A C5 1_555 1_555
C6A C7 1_555 1_555
H2A C6A 1_555 1_555
H3A C6A 1_555 1_555
C7A C6 1_555 1_555
H4A C7A 1_555 1_555
H5A C7A 1_555 1_555
C8A C1A 1_555 1_555
C9A C8A 1_555 1_555
C10A C9A 1_555 1_555
C11A C10A 1_555 1_555
C12A C11A 1_555 1_555
C13A C12A 1_555 1_555
C14A C9A 1_555 1_555
C3 C4 1_555 1_555
C13 C14 1_555 1_555
S1A C4A 1_555 1_555
O1A C6A 1_555 1_555
O2A C7A 1_555 1_555
C3A C4A 1_555 1_555
C3A C5A 1_555 1_555
C13A C14A 1_555 1_555

#END
