
#######################################################################
#
#                 Cambridge Crystallographic Data Centre
#                                CCDC 
#
#######################################################################
#
# If this CIF has been generated from an entry in the Cambridge 
# Structural Database, then it will include bibliographic, chemical, 
# crystal, experimental, refinement or atomic coordinate data resulting 
# from the CCDC's data processing and validation procedures.
#
#######################################################################

data_LEVKON
_chemical_formula_moiety         'C9 H24 S2 Si3'
_chemical_name_systematic        5,5-bis(trimethylsilyl)-1,3,5-dithiasilinane
_symmetry_cell_setting           monoclinic
_symmetry_space_group_name_H-M   'P 21/c'
_symmetry_Int_Tables_number      14
_space_group_name_Hall           '-P 2ybc'
loop_
_symmetry_equiv_pos_site_id
_symmetry_equiv_pos_as_xyz
1 x,y,z
2 -x,1/2+y,1/2-z
3 -x,-y,-z
4 x,1/2-y,1/2+z
_cell_length_a                   13.8814(8)
_cell_length_b                   9.1545(5)
_cell_length_c                   12.5777(7)
_cell_angle_alpha                90
_cell_angle_beta                 93.0450(10)
_cell_angle_gamma                90
_cell_volume                     1596.08
_exptl_crystal_colour            colorless
_exptl_crystal_description       block
_chemical_melting_point          82-83deg.C
_cell_formula_units_Z            4
loop_
_atom_site_label
_atom_site_type_symbol
_atom_site_fract_x
_atom_site_fract_y
_atom_site_fract_z
S1 S 0.82498(2) 0.06542(3) 0.46028(2)
S2 S 0.90736(2) 0.12299(3) 0.24114(2)
Si1 Si 0.78319(2) 0.36060(3) 0.34439(2)
Si2 Si 0.63433(2) 0.28447(4) 0.26642(3)
Si3 Si 0.78401(2) 0.61348(3) 0.37828(2)
C1 C 0.80873(9) 0.26130(13) 0.47513(9)
C2 C 0.92712(9) 0.06312(14) 0.37714(10)
C3 C 0.88910(8) 0.31761(12) 0.26075(9)
C4 C 0.63434(11) 0.09718(16) 0.20745(13)
C5 C 0.59637(11) 0.41919(17) 0.16013(12)
C6 C 0.54590(11) 0.28897(17) 0.37383(13)
C7 C 0.80265(12) 0.71330(15) 0.25118(11)
C8 C 0.66866(11) 0.67551(17) 0.43419(15)
C9 C 0.88590(10) 0.65488(15) 0.47749(11)
H1 H 0.8650(12) 0.3019(18) 0.5119(12)
H2 H 0.7559(11) 0.2687(16) 0.5174(12)
H3 H 0.9460(11) -0.0347(19) 0.3736(12)
H4 H 0.9797(10) 0.1171(15) 0.4125(11)
H5 H 0.8782(10) 0.3583(16) 0.1909(12)
H6 H 0.9456(11) 0.3591(17) 0.2890(12)
H7 H 0.5741(14) 0.081(2) 0.1743(15)
H8 H 0.6417(13) 0.028(2) 0.2596(14)
H9 H 0.6798(14) 0.087(2) 0.1571(15)
H10 H 0.5910(13) 0.515(2) 0.1872(15)
H11 H 0.6422(12) 0.4254(19) 0.1062(14)
H12 H 0.5379(13) 0.394(2) 0.1264(14)
H13 H 0.5611(14) 0.210(2) 0.4222(16)
H14 H 0.5499(13) 0.378(2) 0.4135(15)
H15 H 0.4863(14) 0.275(2) 0.3474(15)
H16 H 0.8606(16) 0.690(2) 0.2260(15)
H17 H 0.8036(12) 0.815(2) 0.2612(13)
H18 H 0.7595(13) 0.689(2) 0.1960(15)
H19 H 0.6725(13) 0.775(2) 0.4488(14)
H20 H 0.6177(15) 0.663(2) 0.3887(15)
H21 H 0.6562(13) 0.625(2) 0.5016(16)
H22 H 0.8801(12) 0.602(2) 0.5416(14)
H23 H 0.8871(12) 0.754(2) 0.4949(13)
H24 H 0.9463(14) 0.633(2) 0.4469(15)
loop_
_geom_bond_atom_site_label_1
_geom_bond_atom_site_label_2
_geom_bond_site_symmetry_1
_geom_bond_site_symmetry_2
S1 C1 1_555 1_555
S2 C2 1_555 1_555
Si1 Si2 1_555 1_555
Si2 C4 1_555 1_555
Si3 Si1 1_555 1_555
C1 Si1 1_555 1_555
C2 S1 1_555 1_555
C3 S2 1_555 1_555
C4 H7 1_555 1_555
C5 Si2 1_555 1_555
C6 Si2 1_555 1_555
C7 Si3 1_555 1_555
C8 Si3 1_555 1_555
C9 Si3 1_555 1_555
H1 C1 1_555 1_555
H2 C1 1_555 1_555
H3 C2 1_555 1_555
H4 C2 1_555 1_555
H5 C3 1_555 1_555
H6 C3 1_555 1_555
H8 C4 1_555 1_555
H9 C4 1_555 1_555
H10 C5 1_555 1_555
H11 C5 1_555 1_555
H12 C5 1_555 1_555
H13 C6 1_555 1_555
H14 C6 1_555 1_555
H15 C6 1_555 1_555
H16 C7 1_555 1_555
H17 C7 1_555 1_555
H18 C7 1_555 1_555
H19 C8 1_555 1_555
H20 C8 1_555 1_555
H21 C8 1_555 1_555
H22 C9 1_555 1_555
H23 C9 1_555 1_555
H24 C9 1_555 1_555
Si1 C3 1_555 1_555

#END
