
#######################################################################
#
#                 Cambridge Crystallographic Data Centre
#                                CCDC 
#
#######################################################################
#
# If this CIF has been generated from an entry in the Cambridge 
# Structural Database, then it will include bibliographic, chemical, 
# crystal, experimental, refinement or atomic coordinate data resulting 
# from the CCDC's data processing and validation procedures.
#
#######################################################################

data_LEVKUT
_chemical_formula_moiety         'C8 H20 S2 Si2'
_chemical_name_systematic        3,3,7,7-Tetramethyl-1,5-dithia-3,7-disilocane
_symmetry_cell_setting           triclinic
_symmetry_space_group_name_H-M   'P -1'
_symmetry_Int_Tables_number      2
_space_group_name_Hall           '-P 1'
loop_
_symmetry_equiv_pos_site_id
_symmetry_equiv_pos_as_xyz
1 x,y,z
2 -x,-y,-z
_cell_length_a                   6.6704(5)
_cell_length_b                   9.8045(7)
_cell_length_c                   10.8940(7)
_cell_angle_alpha                98.9700(10)
_cell_angle_beta                 95.8430(10)
_cell_angle_gamma                106.3500(10)
_cell_volume                     667.268
_exptl_crystal_colour            colorless
_exptl_crystal_description       block
_chemical_melting_point          50-51deg.C
_cell_formula_units_Z            2
loop_
_atom_site_label
_atom_site_type_symbol
_atom_site_fract_x
_atom_site_fract_y
_atom_site_fract_z
S1 S 0.20738(7) 0.23210(4) 0.59144(4)
S2 S 0.67765(6) 0.20198(4) 0.93507(4)
Si1 Si 0.26720(6) -0.00580(4) 0.74715(3)
Si2 Si 0.65545(6) 0.41888(4) 0.75240(3)
C1 C 0.3586(2) 0.37286(16) 0.72248(14)
C2 C 0.7560(2) 0.26964(16) 0.79616(14)
C3 C 0.3933(2) 0.12388(15) 0.89944(13)
C4 C 0.3026(2) 0.07780(16) 0.60320(13)
C5 C 0.7639(4) 0.4665(2) 0.60900(18)
C6 C 0.7473(3) 0.57372(19) 0.88820(18)
C7 C 0.3778(3) -0.16050(18) 0.72807(18)
C8 C -0.0191(2) -0.06840(19) 0.75790(19)
H1 H 0.300(3) 0.3629(19) 0.7983(17)
H2 H 0.339(3) 0.457(2) 0.7004(18)
H3 H 0.743(3) 0.193(2) 0.7276(17)
H4 H 0.909(3) 0.314(2) 0.8217(17)
H5 H 0.327(3) 0.198(2) 0.9119(16)
H6 H 0.361(3) 0.0679(19) 0.9653(17)
H7 H 0.444(3) 0.1002(19) 0.5844(17)
H8 H 0.212(3) 0.002(2) 0.5322(18)
H9 H 0.718(4) 0.393(3) 0.544(3)
H10 H 0.735(4) 0.547(3) 0.585(2)
H11 H 0.912(5) 0.490(3) 0.616(2)
H12 H 0.694(4) 0.648(3) 0.874(2)
H13 H 0.881(4) 0.612(2) 0.899(2)
H14 H 0.698(3) 0.542(2) 0.961(2)
H15 H 0.513(4) -0.134(3) 0.720(2)
H16 H 0.360(4) -0.214(3) 0.789(2)
H17 H 0.310(4) -0.227(3) 0.656(2)
H18 H -0.041(3) -0.106(3) 0.829(2)
H19 H -0.095(4) -0.138(3) 0.687(2)
H20 H -0.076(4) 0.010(3) 0.765(2)
loop_
_geom_bond_atom_site_label_1
_geom_bond_atom_site_label_2
_geom_bond_site_symmetry_1
_geom_bond_site_symmetry_2
S1 C1 1_555 1_555
S2 C2 1_555 1_555
Si1 C3 1_555 1_555
Si2 C1 1_555 1_555
C1 H1 1_555 1_555
C2 Si2 1_555 1_555
C3 S2 1_555 1_555
C4 S1 1_555 1_555
C5 Si2 1_555 1_555
C6 Si2 1_555 1_555
C7 Si1 1_555 1_555
C8 Si1 1_555 1_555
H2 C1 1_555 1_555
H3 C2 1_555 1_555
H4 C2 1_555 1_555
H5 C3 1_555 1_555
H6 C3 1_555 1_555
H7 C4 1_555 1_555
H8 C4 1_555 1_555
H9 C5 1_555 1_555
H10 C5 1_555 1_555
H11 C5 1_555 1_555
H12 C6 1_555 1_555
H13 C6 1_555 1_555
H14 C6 1_555 1_555
H15 C7 1_555 1_555
H16 C7 1_555 1_555
H17 C7 1_555 1_555
H18 C8 1_555 1_555
H19 C8 1_555 1_555
H20 C8 1_555 1_555
Si1 C4 1_555 1_555

#END
