
#######################################################################
#
#                 Cambridge Crystallographic Data Centre
#                                CCDC 
#
#######################################################################
#
# If this CIF has been generated from an entry in the Cambridge 
# Structural Database, then it will include bibliographic, chemical, 
# crystal, experimental, refinement or atomic coordinate data resulting 
# from the CCDC's data processing and validation procedures.
#
#######################################################################

data_LEVSOV
_chemical_formula_moiety         'C18 H29 N1 O6'
_chemical_name_systematic        
4-(dispiro[cyclohexane-1,3'-[1,2,4,5]tetroxane-6',1''-cyclohexane]-4-ylacetyl)morpholine
_symmetry_cell_setting           triclinic
_symmetry_space_group_name_H-M   'P -1'
_symmetry_Int_Tables_number      2
_space_group_name_Hall           '-P 1'
loop_
_symmetry_equiv_pos_site_id
_symmetry_equiv_pos_as_xyz
1 x,y,z
2 -x,-y,-z
_cell_length_a                   5.9604(12)
_cell_length_b                   8.5899(17)
_cell_length_c                   17.360(3)
_cell_angle_alpha                92.596(4)
_cell_angle_beta                 95.039(4)
_cell_angle_gamma                99.803(4)
_cell_volume                     870.811
_exptl_crystal_colour            colorless
_exptl_crystal_description       plate
_cell_formula_units_Z            2
_exptl_crystal_recrystallization_method dichloromethane/hexane
loop_
_atom_site_label
_atom_site_type_symbol
_atom_site_fract_x
_atom_site_fract_y
_atom_site_fract_z
C1 C -0.0192(5) 0.3152(3) -0.31786(16)
H1 H -0.1507 0.3221 -0.3558
H2 H 0.0712 0.4231 -0.3070
C2 C -0.1062(4) 0.2548(3) -0.24416(15)
H3 H -0.1950 0.3299 -0.2215
H4 H -0.2087 0.1513 -0.2554
C3 C 0.2450(4) 0.1446(3) -0.22139(15)
H5 H 0.1702 0.0324 -0.2304
H6 H 0.3824 0.1498 -0.1843
C4 C 0.3148(4) 0.2098(3) -0.29727(15)
H7 H 0.4046 0.3180 -0.2870
H8 H 0.4136 0.1426 -0.3206
C5 C 0.0776(4) 0.2744(3) -0.11211(15)
C6 C 0.2728(4) 0.2415(3) -0.05608(15)
H9 H 0.4202 0.2925 -0.0733
H10 H 0.2712 0.1260 -0.0570
C7 C 0.2555(4) 0.3032(3) 0.02691(15)
H11 H 0.2172 0.4119 0.0249
C8 C 0.0693(4) 0.2006(3) 0.06633(15)
H12 H 0.1057 0.0929 0.0703
H13 H -0.0792 0.1918 0.0347
C9 C 0.0509(4) 0.2726(3) 0.14746(15)
H14 H 0.0015 0.3764 0.1430
H15 H -0.0665 0.2024 0.1728
C10 C 0.2795(4) 0.2943(3) 0.19745(15)
C11 C 0.4723(4) 0.3873(3) 0.15800(16)
H16 H 0.6193 0.3888 0.1896
H17 H 0.4479 0.4981 0.1546
C12 C 0.4855(4) 0.3152(3) 0.07637(15)
H18 H 0.5257 0.2084 0.0800
H19 H 0.6070 0.3819 0.0512
C13 C 0.4888(4) 0.2308(3) 0.33624(15)
C14 C 0.2972(4) 0.1402(3) 0.37678(16)
H20 H 0.3252 0.0312 0.3840
H21 H 0.1502 0.1333 0.3444
C15 C 0.2825(5) 0.2232(3) 0.45572(16)
H22 H 0.1659 0.1577 0.4834
H23 H 0.2332 0.3262 0.4478
C16 C 0.5126(4) 0.2510(3) 0.50561(16)
H24 H 0.4994 0.3129 0.5540
H25 H 0.5509 0.1477 0.5199
C17 C 0.7044(4) 0.3389(3) 0.46350(15)
H26 H 0.8518 0.3463 0.4958
H27 H 0.6773 0.4479 0.4556
C18 C 0.7189(4) 0.2544(3) 0.38479(15)
H28 H 0.8368 0.3181 0.3569
H29 H 0.7645 0.1503 0.3929
N1 N 0.0867(4) 0.2373(3) -0.18891(13)
O1 O 0.1202(3) 0.2146(2) -0.35063(10)
O2 O -0.0809(3) 0.3333(2) -0.09002(10)
O3 O 0.2399(3) 0.3711(2) 0.26831(10)
O4 O 0.4541(3) 0.3871(2) 0.32011(10)
O5 O 0.3127(3) 0.1371(2) 0.21283(10)
O6 O 0.5262(3) 0.1519(2) 0.26518(10)
loop_
_geom_bond_atom_site_label_1
_geom_bond_atom_site_label_2
_geom_bond_site_symmetry_1
_geom_bond_site_symmetry_2
C1 H1 1_555 1_555
H2 C1 1_555 1_555
C2 C1 1_555 1_555
H3 C2 1_555 1_555
H4 C2 1_555 1_555
C3 H5 1_555 1_555
H6 C3 1_555 1_555
C4 C3 1_555 1_555
H7 C4 1_555 1_555
H8 C4 1_555 1_555
C5 C6 1_555 1_555
C6 H9 1_555 1_555
H10 C6 1_555 1_555
C7 C6 1_555 1_555
H11 C7 1_555 1_555
C8 C7 1_555 1_555
H12 C8 1_555 1_555
H13 C8 1_555 1_555
C9 C8 1_555 1_555
H14 C9 1_555 1_555
H15 C9 1_555 1_555
C10 C9 1_555 1_555
C11 C10 1_555 1_555
H16 C11 1_555 1_555
H17 C11 1_555 1_555
C12 C7 1_555 1_555
H18 C12 1_555 1_555
H19 C12 1_555 1_555
C13 C14 1_555 1_555
C14 H20 1_555 1_555
H21 C14 1_555 1_555
C15 C14 1_555 1_555
H22 C15 1_555 1_555
H23 C15 1_555 1_555
C16 C15 1_555 1_555
H24 C16 1_555 1_555
H25 C16 1_555 1_555
C17 C16 1_555 1_555
H26 C17 1_555 1_555
H27 C17 1_555 1_555
C18 C13 1_555 1_555
H28 C18 1_555 1_555
H29 C18 1_555 1_555
N1 C2 1_555 1_555
O1 C1 1_555 1_555
O2 C5 1_555 1_555
O3 C10 1_555 1_555
O4 C13 1_555 1_555
O5 C10 1_555 1_555
O6 C13 1_555 1_555
C3 N1 1_555 1_555
C4 O1 1_555 1_555
C5 N1 1_555 1_555
C11 C12 1_555 1_555
C17 C18 1_555 1_555
O3 O4 1_555 1_555
O5 O6 1_555 1_555

#END
