
#######################################################################
#
#                 Cambridge Crystallographic Data Centre
#                                CCDC 
#
#######################################################################
#
# If this CIF has been generated from an entry in the Cambridge 
# Structural Database, then it will include bibliographic, chemical, 
# crystal, experimental, refinement or atomic coordinate data resulting 
# from the CCDC's data processing and validation procedures.
#
#######################################################################

data_LEVSIP
_chemical_name_common            
"5-ethenyl-2-(hydroxy(6-methoxyquinolin-4-yl)methyl)-1-(phenylmethyl)-1-azoniabicyclo[2.2.2]octane chloride 8a,10a-dihydro-9,9'-spirobi[xanthene]-1,1'-diol acetonitrile solvate"
_chemical_formula_moiety         
'C25 H16 O4,C27 H31 N2 O2 1+,Cl1 1-,5.764(C2 H3 N1)'
_chemical_name_systematic        
"(R)-9,9'-spirobixanthene-1,1'-diol N-benzyl(6-methoxy)quininium chloride acetonitrile solvate"
_symmetry_cell_setting           orthorhombic
_symmetry_space_group_name_H-M   'P 21 21 21'
_symmetry_Int_Tables_number      19
_space_group_name_Hall           'P 2ac 2ab'
loop_
_symmetry_equiv_pos_site_id
_symmetry_equiv_pos_as_xyz
1 x,y,z
2 1/2-x,-y,1/2+z
3 -x,1/2+y,1/2-z
4 1/2+x,1/2-y,-z
_cell_length_a                   9.2512(15)
_cell_length_b                   19.807(3)
_cell_length_c                   34.048(5)
_cell_angle_alpha                90
_cell_angle_beta                 90
_cell_angle_gamma                90
_cell_volume                     6238.91
_exptl_crystal_colour            colorless
_exptl_crystal_description       brick
_cell_formula_units_Z            4
loop_
_atom_site_label
_atom_site_type_symbol
_atom_site_fract_x
_atom_site_fract_y
_atom_site_fract_z
C1 C 0.9290(3) 0.10293(13) 0.92387(7)
C2 C 1.0734(3) 0.09422(14) 0.91432(7)
H1 H 1.1235 0.1283 0.9002
C3 C 1.1448(3) 0.03555(14) 0.92550(7)
H2 H 1.2442 0.0299 0.9193
C4 C 1.0728(3) -0.01423(15) 0.94545(8)
H3 H 1.1216 -0.0544 0.9530
C5 C 0.9263(3) -0.00536(14) 0.95457(7)
C6 C 0.8508(3) 0.05359(13) 0.94450(7)
C7 C 0.6934(3) 0.06408(13) 0.95640(7)
C8 C 0.6366(3) 0.00187(14) 0.97875(7)
C9 C 0.4940(3) 0.00065(15) 0.99251(8)
H4 H 0.4339 0.0390 0.9887
C10 C 0.4396(4) -0.05539(16) 1.01149(8)
H5 H 0.3429 -0.0552 1.0209
C11 C 0.5254(4) -0.11209(16) 1.01692(9)
H6 H 0.4871 -0.1510 1.0295
C12 C 0.6660(4) -0.11157(16) 1.00395(10)
H7 H 0.7259 -0.1500 1.0078
C13 C 0.7201(4) -0.05479(15) 0.98523(8)
C14 C 0.6852(3) 0.12510(13) 0.98421(7)
C15 C 0.7733(3) 0.12794(14) 1.01730(7)
H8 H 0.8396 0.0922 1.0221
C16 C 0.7669(4) 0.18132(15) 1.04332(8)
H9 H 0.8293 0.1826 1.0655
C17 C 0.6686(4) 0.23311(14) 1.03695(8)
H10 H 0.6617 0.2694 1.0551
C18 C 0.5810(3) 0.23182(14) 1.00414(8)
H11 H 0.5147 0.2676 0.9995
C19 C 0.5895(3) 0.17842(14) 0.97782(7)
C20 C 0.5068(3) 0.13218(13) 0.91772(8)
C21 C 0.4157(3) 0.14360(15) 0.88576(8)
H12 H 0.3566 0.1827 0.8846
C22 C 0.4136(3) 0.09625(15) 0.85550(8)
H13 H 0.3533 0.1033 0.8333
C23 C 0.4993(3) 0.03885(15) 0.85768(8)
H14 H 0.4962 0.0065 0.8371
C24 C 0.5896(3) 0.02829(15) 0.88974(7)
C25 C 0.5955(3) 0.07658(14) 0.92103(7)
O1 O 0.8558(2) 0.16033(10) 0.91394(6)
H63 H 0.9119 0.1870 0.9023
O2 O 0.6732(2) -0.02739(10) 0.89266(5)
H64 H 0.6803 -0.0458 0.8705
O3 O 0.5005(2) 0.18231(10) 0.94586(6)
O4 O 0.8643(3) -0.05871(10) 0.97400(6)
C26 C -0.3272(4) 0.40655(17) 0.97107(8)
H15 H -0.3785 0.4005 0.9950
C27 C -0.2216(4) 0.36039(18) 0.96041(9)
H16 H -0.2015 0.3227 0.9767
C28 C -0.1450(3) 0.36982(16) 0.92541(8)
H17 H -0.0726 0.3383 0.9179
C29 C -0.1746(3) 0.42533(15) 0.90151(8)
C30 C -0.2811(4) 0.47061(17) 0.91214(9)
H18 H -0.3021 0.5082 0.8957
C31 C -0.3585(4) 0.46103(17) 0.94740(8)
H19 H -0.4320 0.4920 0.9548
C32 C -0.0965(3) 0.43168(16) 0.86245(8)
H20 H -0.1600 0.4565 0.8440
H21 H -0.0821 0.3858 0.8516
C33 C 0.1476(3) 0.43463(16) 0.89418(8)
H22 H 0.1515 0.3853 0.8897
H23 H 0.1079 0.4426 0.9208
C34 C 0.2998(4) 0.46455(19) 0.89126(9)
H24 H 0.3360 0.4758 0.9178
H25 H 0.3662 0.4311 0.8794
C35 C 0.2955(4) 0.52823(17) 0.86598(8)
H26 H 0.3914 0.5515 0.8671
C36 C 0.1763(4) 0.57598(17) 0.88234(8)
H27 H 0.1905 0.5800 0.9114
C37 C 0.0294(4) 0.54128(16) 0.87508(8)
H28 H -0.0302 0.5439 0.8992
H29 H -0.0228 0.5651 0.8538
C38 C 0.1167(3) 0.46814(15) 0.82201(7)
H30 H 0.0503 0.4952 0.8050
C39 C 0.2632(4) 0.50711(16) 0.82391(8)
H31 H 0.3420 0.4779 0.8140
H32 H 0.2581 0.5476 0.8069
C40 C 0.1314(3) 0.39818(14) 0.80284(8)
H33 H 0.0362 0.3745 0.8042
C41 C 0.1732(3) 0.40743(14) 0.75971(8)
C42 C 0.3083(3) 0.39104(15) 0.74679(8)
H34 H 0.3763 0.3716 0.7644
C43 C 0.3471(4) 0.40285(15) 0.70754(8)
H35 H 0.4418 0.3907 0.6995
C44 C 0.1217(3) 0.44565(14) 0.69294(7)
C45 C 0.0718(3) 0.43481(14) 0.73207(7)
C46 C -0.0739(3) 0.45044(14) 0.74134(7)
H36 H -0.1104 0.4408 0.7668
C47 C -0.1628(3) 0.47945(15) 0.71365(8)
C48 C -0.1101(4) 0.49071(17) 0.67483(8)
H37 H -0.1718 0.5101 0.6556
C49 C 0.0269(4) 0.47396(17) 0.66528(8)
H38 H 0.0599 0.4815 0.6392
C50 C 0.1783(4) 0.64525(17) 0.86531(9)
H39 H 0.1577 0.6502 0.8381
C51 C 0.2068(5) 0.6995(2) 0.88561(11)
H40 H 0.2278 0.6961 0.9128
H41 H 0.2065 0.7424 0.8731
C52 C -0.3592(4) 0.49348(19) 0.75843(9)
H42 H -0.3623 0.4457 0.7659
H43 H -0.4571 0.5123 0.7591
H44 H -0.2974 0.5182 0.7769
N1 N 0.0506(3) 0.46742(13) 0.86366(6)
N2 N 0.2601(3) 0.42977(12) 0.68118(7)
O5 O -0.3017(2) 0.49965(13) 0.71954(6)
O6 O 0.2376(2) 0.35844(11) 0.82260(6)
H65 H 0.1983 0.3238 0.8320
C53 C 0.6190(10) 0.6869(3) 0.9897(2)
C54 C 0.5481(12) 0.6575(4) 0.9572(2)
H45 H 0.6145 0.6558 0.9348
H46 H 0.4633 0.6846 0.9502
H47 H 0.5173 0.6116 0.9640
N3 N 0.6781(9) 0.7113(3) 1.01792(18)
C55 C 0.9104(5) 0.63929(18) 0.75644(10)
C56 C 0.8018(5) 0.6796(2) 0.73599(11)
H48 H 0.8256 0.6817 0.7080
H49 H 0.8005 0.7254 0.7469
H50 H 0.7065 0.6588 0.7393
N4 N 0.9964(5) 0.60823(17) 0.77224(10)
C57 C 0.3264(5) 0.6368(2) 0.71675(11)
C58 C 0.2203(5) 0.6363(2) 0.68479(11)
H51 H 0.2684 0.6241 0.6601
H52 H 0.1770 0.6812 0.6822
H53 H 0.1445 0.6032 0.6906
N5 N 0.4087(5) 0.6368(3) 0.74069(12)
C59 C 0.5611(6) 0.3013(2) 0.87234(12)
H54 H 0.4585 0.2927 0.8672
H55 H 0.5704 0.3359 0.8928
H56 H 0.6076 0.2595 0.8812
C60 C 0.6298(4) 0.32459(18) 0.83682(11)
N6 N 0.6834(5) 0.3432(2) 0.80892(10)
C61 C 0.6290(4) 0.6484(2) 0.83556(10)
C62 C 0.5666(7) 0.7112(3) 0.82368(14)
H57 H 0.6437 0.7432 0.8172
H58 H 0.5077 0.7294 0.8451
H59 H 0.5056 0.7039 0.8005
N7 N 0.6770(5) 0.5976(2) 0.84434(14)
C63 C 0.8557(18) 0.7810(11) 0.9101(3)
C64 C 0.9260(8) 0.8298(3) 0.89883(19)
H60 H 0.9382 0.8274 0.8703
H61 H 1.0211 0.8295 0.9115
H62 H 0.8749 0.8715 0.9057
N8 N 0.780(2) 0.7249(14) 0.9165(6)
Cl1 Cl 0.04879(9) 0.25015(4) 0.85824(2)
loop_
_geom_bond_atom_site_label_1
_geom_bond_atom_site_label_2
_geom_bond_site_symmetry_1
_geom_bond_site_symmetry_2
C1 C2 1_555 1_555
C2 H1 1_555 1_555
C3 C2 1_555 1_555
H2 C3 1_555 1_555
C4 C3 1_555 1_555
H3 C4 1_555 1_555
C5 C4 1_555 1_555
C6 C1 1_555 1_555
C7 C6 1_555 1_555
C8 C7 1_555 1_555
C9 C8 1_555 1_555
H4 C9 1_555 1_555
C10 C9 1_555 1_555
H5 C10 1_555 1_555
C11 C10 1_555 1_555
H6 C11 1_555 1_555
C12 C11 1_555 1_555
H7 C12 1_555 1_555
C13 C8 1_555 1_555
C14 C7 1_555 1_555
C15 C14 1_555 1_555
H8 C15 1_555 1_555
C16 C15 1_555 1_555
H9 C16 1_555 1_555
C17 C16 1_555 1_555
H10 C17 1_555 1_555
C18 C17 1_555 1_555
H11 C18 1_555 1_555
C19 C14 1_555 1_555
C20 C21 1_555 1_555
C21 H12 1_555 1_555
C22 C21 1_555 1_555
H13 C22 1_555 1_555
C23 C22 1_555 1_555
H14 C23 1_555 1_555
C24 C23 1_555 1_555
C25 C7 1_555 1_555
C26 H15 1_555 1_555
C27 C26 1_555 1_555
H16 C27 1_555 1_555
C28 C27 1_555 1_555
H17 C28 1_555 1_555
C29 C28 1_555 1_555
C30 C29 1_555 1_555
H18 C30 1_555 1_555
C31 C26 1_555 1_555
H19 C31 1_555 1_555
C32 C29 1_555 1_555
H20 C32 1_555 1_555
H21 C32 1_555 1_555
C33 H22 1_555 1_555
H23 C33 1_555 1_555
C34 C33 1_555 1_555
H24 C34 1_555 1_555
H25 C34 1_555 1_555
C35 C34 1_555 1_555
H26 C35 1_555 1_555
C36 C35 1_555 1_555
H27 C36 1_555 1_555
C37 C36 1_555 1_555
H28 C37 1_555 1_555
H29 C37 1_555 1_555
C38 H30 1_555 1_555
C39 C35 1_555 1_555
H31 C39 1_555 1_555
H32 C39 1_555 1_555
C40 C38 1_555 1_555
H33 C40 1_555 1_555
C41 C40 1_555 1_555
C42 C41 1_555 1_555
H34 C42 1_555 1_555
C43 C42 1_555 1_555
H35 C43 1_555 1_555
C44 C45 1_555 1_555
C45 C41 1_555 1_555
C46 C45 1_555 1_555
H36 C46 1_555 1_555
C47 C46 1_555 1_555
C48 C47 1_555 1_555
H37 C48 1_555 1_555
C49 C44 1_555 1_555
H38 C49 1_555 1_555
C50 C36 1_555 1_555
H39 C50 1_555 1_555
C51 C50 1_555 1_555
H40 C51 1_555 1_555
H41 C51 1_555 1_555
C52 H42 1_555 1_555
H43 C52 1_555 1_555
H44 C52 1_555 1_555
C53 C54 1_555 1_555
C54 H45 1_555 1_555
H46 C54 1_555 1_555
H47 C54 1_555 1_555
C55 C56 1_555 1_555
C56 H48 1_555 1_555
H49 C56 1_555 1_555
H50 C56 1_555 1_555
C57 C58 1_555 1_555
C58 H51 1_555 1_555
H52 C58 1_555 1_555
H53 C58 1_555 1_555
C59 H54 1_555 1_555
H55 C59 1_555 1_555
H56 C59 1_555 1_555
C60 C59 1_555 1_555
C61 C62 1_555 1_555
C62 H57 1_555 1_555
H58 C62 1_555 1_555
H59 C62 1_555 1_555
C63 C64 1_555 1_555
C64 H60 1_555 1_555
H61 C64 1_555 1_555
H62 C64 1_555 1_555
N1 C32 1_555 1_555
N2 C43 1_555 1_555
N3 C53 1_555 1_555
N4 C55 1_555 1_555
N5 C57 1_555 1_555
N6 C60 1_555 1_555
N7 C61 1_555 1_555
N8 C63 1_555 1_555
O1 C1 1_555 1_555
H63 O1 1_555 1_555
O2 C24 1_555 1_555
H64 O2 1_555 1_555
O3 C19 1_555 1_555
O4 C5 1_555 1_555
O5 C47 1_555 1_555
O6 C40 1_555 1_555
H65 O6 1_555 1_555
C5 C6 1_555 1_555
C12 C13 1_555 1_555
C13 O4 1_555 1_555
C18 C19 1_555 1_555
C20 C25 1_555 1_555
C20 O3 1_555 1_555
C24 C25 1_555 1_555
C30 C31 1_555 1_555
C33 N1 1_555 1_555
C37 N1 1_555 1_555
C38 C39 1_555 1_555
C38 N1 1_555 1_555
C44 N2 1_555 1_555
C48 C49 1_555 1_555
C52 O5 1_555 1_555

#END
