
#######################################################################
#
#                 Cambridge Crystallographic Data Centre
#                                CCDC 
#
#######################################################################
#
# If this CIF has been generated from an entry in the Cambridge 
# Structural Database, then it will include bibliographic, chemical, 
# crystal, experimental, refinement or atomic coordinate data resulting 
# from the CCDC's data processing and validation procedures.
#
#######################################################################

data_LEVXUF
_chemical_formula_moiety         '0.1(C12 H1 F7 O1),0.9(C12 H1 F7 O1)'
_chemical_name_systematic        
'1,2-Dihydro-1,1,4,5,6,7,8-heptafluorocyclobuta(a)naphthalen-2-one 1,2-dihydro-2,2,4,5,6,7,8-heptafluorocyclobuta(a)naphthalen-1-one'
_symmetry_cell_setting           monoclinic
_symmetry_space_group_name_H-M   'C 2/c'
_symmetry_Int_Tables_number      15
_space_group_name_Hall           '-C 2yn'
loop_
_symmetry_equiv_pos_site_id
_symmetry_equiv_pos_as_xyz
1 x,y,z
2 -x,y,1/2-z
3 1/2+x,1/2+y,z
4 1/2-x,1/2+y,1/2-z
5 -x,-y,-z
6 x,-y,1/2+z
7 1/2-x,1/2-y,-z
8 1/2+x,1/2-y,1/2+z
_cell_length_a                   15.578(5)
_cell_length_b                   13.008(3)
_cell_length_c                   10.788(3)
_cell_angle_alpha                90
_cell_angle_beta                 114.34(3)
_cell_angle_gamma                90
_cell_volume                     1991.76
_exptl_crystal_colour            colorless
_chemical_melting_point          '333-353 K'
_cell_formula_units_Z            8
loop_
_atom_site_label
_atom_site_type_symbol
_atom_site_fract_x
_atom_site_fract_y
_atom_site_fract_z
F1 F 0.01540(9) 0.95209(11) -0.11304(12)
F2 F 0.14850(10) 1.04276(10) -0.15251(13)
F3 F 0.33189(10) 1.05941(10) -0.09151(13)
F4 F 0.45955(8) 0.93517(10) 0.09283(12)
F5 F 0.40241(8) 0.79184(9) 0.22932(12)
C1 C 0.20939(13) 0.77380(14) 0.17976(17)
C2 C 0.11445(14) 0.76588(15) 0.14970(18)
C3 C 0.04416(15) 0.82391(17) 0.04862(21)
C4 C 0.07767(14) 0.89266(16) -0.01659(19)
C5 C 0.20798(15) 0.97931(15) -0.05813(19)
C6 C 0.30177(15) 0.98862(15) -0.02832(19)
C7 C 0.36882(14) 0.92526(15) 0.06897(19)
C8 C 0.33981(13) 0.85395(14) 0.13653(18)
C9 C 0.24435(13) 0.84349(14) 0.11085(17)
C10 C 0.17529(14) 0.90679(14) 0.00951(18)
C11 C 0.23639(14) 0.69466(15) 0.28923(19)
F6 F 0.2897(18) 0.7224(18) 0.4247(21)
F7 F 0.2780(16) 0.6024(15) 0.2957(21)
C12 C 0.12833(14) 0.68549(15) 0.25655(20)
O1 O 0.0885(35) 0.6323(23) 0.3085(37)
H1 H -0.0277(19) 0.8178(18) 0.0200(25)
O2? O 0.30606(11) 0.65248(14) 0.36808(16)
F8? F 0.10396(10) 0.71108(11) 0.35926(13)
F9? F 0.08972(9) 0.59188(10) 0.21135(14)
loop_
_geom_bond_atom_site_label_1
_geom_bond_atom_site_label_2
_geom_bond_site_symmetry_1
_geom_bond_site_symmetry_2
F1 C4 1_555 1_555
F2 C5 1_555 1_555
F3 C6 1_555 1_555
F4 C7 1_555 1_555
F5 C8 1_555 1_555
C1 C2 1_555 1_555
C2 C3 1_555 1_555
C3 C4 1_555 1_555
C4 C10 1_555 1_555
C5 C6 1_555 1_555
C6 C7 1_555 1_555
C7 C8 1_555 1_555
C8 C9 1_555 1_555
C9 C1 1_555 1_555
C10 C5 1_555 1_555
C11 C1 1_555 1_555
F6 C11 1_555 1_555
F7 C11 1_555 1_555
C12 C2 1_555 1_555
O1 C12 1_555 1_555
H1 C3 1_555 1_555
C9 C10 1_555 1_555
C11 C12 1_555 1_555

#END
