
#######################################################################
#
#                 Cambridge Crystallographic Data Centre
#                                CCDC 
#
#######################################################################
#
# If this CIF has been generated from an entry in the Cambridge 
# Structural Database, then it will include bibliographic, chemical, 
# crystal, experimental, refinement or atomic coordinate data resulting 
# from the CCDC's data processing and validation procedures.
#
#######################################################################

data_LEVYES
_chemical_compound_source        'Euonymus alatus'
_chemical_formula_moiety         'C36 H43 N1 O17,C1 H4 O1,1.5(H2 O1)'
_chemical_name_systematic        'Evonine methanol hydrate'
_symmetry_cell_setting           orthorhombic
_symmetry_space_group_name_H-M   'P 21 21 21'
_symmetry_Int_Tables_number      19
_space_group_name_Hall           'P 2ac 2ab'
loop_
_symmetry_equiv_pos_site_id
_symmetry_equiv_pos_as_xyz
1 x,y,z
2 1/2+x,1/2-y,-z
3 -x,1/2+y,1/2-z
4 1/2-x,-y,1/2+z
_cell_length_a                   13.0561(3)
_cell_length_b                   13.3515(3)
_cell_length_c                   46.4680(9)
_cell_angle_alpha                90
_cell_angle_beta                 90
_cell_angle_gamma                90
_cell_volume                     8100.23
_exptl_crystal_colour            colorless
_exptl_crystal_description       block
_cell_formula_units_Z            8
_exptl_crystal_recrystallization_method chloroform/methanol/water
loop_
_atom_site_label
_atom_site_type_symbol
_atom_site_fract_x
_atom_site_fract_y
_atom_site_fract_z
C1 C 0.4838(3) 0.2101(3) 0.81871(7)
H1 H 0.4629 0.1756 0.8005
C2 C 0.4059(3) 0.1846(3) 0.84189(7)
H2 H 0.3988 0.1102 0.8429
C3 C 0.3007(3) 0.2298(3) 0.83521(8)
H3 H 0.2541 0.2198 0.8520
C4 C 0.3033(3) 0.3426(3) 0.82701(8)
C5 C 0.3877(3) 0.3639(2) 0.80365(7)
C6 C 0.4001(3) 0.4724(3) 0.79366(8)
H4 H 0.4537 0.5072 0.8053
C7 C 0.4377(3) 0.4561(2) 0.76285(7)
H5 H 0.4294 0.5174 0.7507
C8 C 0.5494(3) 0.4258(3) 0.76618(8)
C9 C 0.5682(3) 0.3332(3) 0.78502(8)
H6 H 0.5578 0.2725 0.7728
C10 C 0.4974(3) 0.3229(2) 0.81211(7)
C11 C 0.3709(3) 0.3674(3) 0.75197(7)
C12 C 0.3139(3) 0.4085(3) 0.85390(8)
H7 H 0.3417 0.4740 0.8484
H8 H 0.3604 0.3762 0.8676
H9 H 0.2466 0.4174 0.8628
C13 C 0.5513(3) 0.3742(3) 0.83781(8)
H10 H 0.5035 0.3794 0.8543
H11 H 0.6112 0.3340 0.8439
C14 C 0.4195(3) 0.3032(3) 0.72874(7)
H12 H 0.3724 0.2491 0.7234
H13 H 0.4836 0.2744 0.7360
H14 H 0.4340 0.3445 0.7118
C15 C 0.2665(3) 0.4049(3) 0.74174(8)
H15 H 0.2283 0.4345 0.7581
H16 H 0.2756 0.4573 0.7269
C16 C 0.1331(3) 0.2806(3) 0.74533(8)
C17 C 0.0862(3) 0.1926(3) 0.73059(8)
C18 C 0.0798(3) 0.1912(3) 0.70082(9)
H17 H 0.1040 0.2465 0.6899
C19 C 0.0379(3) 0.1087(4) 0.68716(10)
H18 H 0.0326 0.1059 0.6668
C20 C 0.0041(3) 0.0307(3) 0.70410(9)
H19 H -0.0239 -0.0263 0.6947
C21 C 0.0485(3) 0.1096(3) 0.74632(9)
C22 C 0.0560(3) 0.0998(3) 0.77868(8)
H20 H 0.0511 0.1688 0.7870
C23 C 0.1657(3) 0.0577(3) 0.78631(8)
H21 H 0.2146 0.0833 0.7715
C24 C 0.1984(3) 0.0990(3) 0.81495(8)
C25 C -0.0321(3) 0.0385(3) 0.79128(10)
H22 H -0.0975 0.0691 0.7858
H23 H -0.0262 0.0371 0.8123
H24 H -0.0290 -0.0300 0.7838
C26 C 0.1694(4) -0.0571(3) 0.78545(10)
H25 H 0.2388 -0.0799 0.7901
H26 H 0.1506 -0.0804 0.7662
H27 H 0.1211 -0.0843 0.7996
C27 C 0.6055(3) 0.0749(3) 0.82088(8)
C28 C 0.7047(4) 0.0459(3) 0.83344(10)
H28 H 0.7194 -0.0241 0.8286
H29 H 0.7019 0.0536 0.8544
H30 H 0.7588 0.0890 0.8256
C29 C 0.4781(4) 0.1549(3) 0.88790(9)
C30 C 0.5206(4) 0.2049(4) 0.91401(9)
H31 H 0.5493 0.1543 0.9270
H32 H 0.4659 0.2415 0.9239
H33 H 0.5746 0.2518 0.9083
C31 C 0.3139(3) 0.6249(3) 0.80242(12)
C32 C 0.2147(3) 0.6770(3) 0.80164(13)
H34 H 0.2238 0.7464 0.8080
H35 H 0.1663 0.6429 0.8144
H36 H 0.1880 0.6765 0.7819
C33 C 0.7378(3) 0.2688(3) 0.78127(10)
C34 C 0.8453(4) 0.2891(4) 0.79106(14)
H37 H 0.8918 0.2405 0.7822
H38 H 0.8489 0.2832 0.8121
H39 H 0.8652 0.3570 0.7853
C35 C 0.6749(3) 0.5074(3) 0.83898(8)
C36 C 0.6947(4) 0.6091(4) 0.82745(10)
H40 H 0.7607 0.6334 0.8346
H41 H 0.6401 0.6546 0.8337
H42 H 0.6962 0.6066 0.8064
N1 N 0.0080(3) 0.0297(3) 0.73262(8)
O1 O 0.35740(18) 0.30837(16) 0.77806(5)
O2 O 0.2052(2) 0.36711(19) 0.81613(6)
H43 H 0.1959 0.3375 0.8004
O3 O 0.6184(2) 0.4707(2) 0.75551(6)
O4 O 0.1749(2) 0.0688(2) 0.83826(6)
O5 O 0.2615(2) 0.17650(19) 0.81087(5)
O6 O 0.1072(2) 0.3129(2) 0.76850(6)
O7 O 0.20919(19) 0.3208(2) 0.72979(5)
O8 O 0.5488(2) 0.0224(2) 0.80708(6)
O9 O 0.5827(2) 0.17195(19) 0.82726(5)
O10 O 0.4917(4) 0.0656(3) 0.88131(9)
O11 O 0.4397(2) 0.2204(2) 0.86936(5)
O12 O 0.3940(3) 0.6599(3) 0.81052(13)
O13 O 0.30667(19) 0.52930(18) 0.79357(6)
O14 O 0.7092(3) 0.2029(3) 0.76574(9)
O15 O 0.67333(19) 0.3355(2) 0.79350(6)
O16 O 0.7287(2) 0.4604(3) 0.85486(7)
O17 O 0.5842(2) 0.47312(19) 0.82907(5)
C37 C 0.3456(3) 0.7891(2) 0.93157(7)
H44 H 0.3096 0.7588 0.9484
C38 C 0.3176(3) 0.7290(3) 0.90486(7)
H45 H 0.2415 0.7267 0.9024
C39 C 0.3608(3) 0.6229(3) 0.90720(7)
H46 H 0.3483 0.5870 0.8886
C40 C 0.4754(3) 0.6148(2) 0.91489(7)
C41 C 0.5001(3) 0.6829(3) 0.94155(7)
C42 C 0.6126(3) 0.6863(2) 0.95121(7)
H47 H 0.6503 0.7415 0.9412
C43 C 0.6007(3) 0.7088(3) 0.98333(8)
H48 H 0.6644 0.6937 0.9945
C44 C 0.5709(3) 0.8187(3) 0.98503(7)
C45 C 0.4714(3) 0.8440(2) 0.96891(7)
H49 H 0.4133 0.8185 0.9809
C46 C 0.4612(3) 0.7950(2) 0.93865(7)
C47 C 0.5105(3) 0.6412(3) 0.99216(7)
C48 C 0.5401(3) 0.6359(3) 0.88847(7)
H50 H 0.5197 0.5906 0.8729
H51 H 0.6125 0.6252 0.8931
H52 H 0.5297 0.7054 0.8824
C49 C 0.5178(3) 0.8601(3) 0.91629(8)
H53 H 0.5316 0.8199 0.8988
H54 H 0.4738 0.9173 0.9107
C50 C 0.4456(3) 0.6771(3) 1.01764(7)
H55 H 0.4226 0.7459 1.0141
H56 H 0.4868 0.6752 1.0353
H57 H 0.3859 0.6332 1.0198
C51 C 0.5460(3) 0.5337(3) 0.99852(8)
H58 H 0.5768 0.5038 0.9810
H59 H 0.5985 0.5342 1.0139
C52 C 0.4207(3) 0.4075(2) 0.98896(7)
C53 C 0.3280(3) 0.3573(2) 1.00043(8)
C54 C 0.3275(3) 0.3286(3) 1.02887(8)
H60 H 0.3832 0.3453 1.0411
C55 C 0.2448(4) 0.2751(3) 1.03940(9)
H61 H 0.2424 0.2533 1.0588
C56 C 0.1660(4) 0.2547(3) 1.02047(9)
H62 H 0.1089 0.2181 1.0276
C57 C 0.2429(3) 0.3346(3) 0.98248(8)
C58 C 0.2351(3) 0.3699(3) 0.95145(8)
H63 H 0.3066 0.3825 0.9447
C59 C 0.1778(3) 0.4725(3) 0.95010(7)
H64 H 0.1981 0.5119 0.9675
C60 C 0.2143(3) 0.5296(3) 0.92384(7)
C61 C 0.1896(4) 0.2903(3) 0.93136(9)
H65 H 0.2290 0.2281 0.9331
H66 H 0.1926 0.3142 0.9114
H67 H 0.1181 0.2777 0.9367
C62 C 0.0610(3) 0.4630(4) 0.95033(9)
H68 H 0.0302 0.5299 0.9495
H69 H 0.0392 0.4293 0.9680
H70 H 0.0388 0.4238 0.9336
C63 C 0.2062(3) 0.9045(3) 0.93246(8)
C64 C 0.1750(4) 1.0083(3) 0.92417(11)
H71 H 0.1017 1.0172 0.9279
H72 H 0.1888 1.0187 0.9037
H73 H 0.2142 1.0569 0.9355
C65 C 0.3050(3) 0.8346(3) 0.86304(8)
C66 C 0.3716(4) 0.8831(3) 0.84104(9)
H74 H 0.3298 0.9261 0.8286
H75 H 0.4049 0.8314 0.8293
H76 H 0.4239 0.9237 0.8507
C67 C 0.7567(3) 0.5923(3) 0.93446(9)
C68 C 0.7921(3) 0.4887(4) 0.92945(10)
H77 H 0.8595 0.4900 0.9201
H78 H 0.7431 0.4538 0.9170
H79 H 0.7972 0.4534 0.9479
C69 C 0.3880(3) 0.9915(3) 0.98394(8)
C70 C 0.3880(4) 1.1039(3) 0.98100(9)
H80 H 0.3335 1.1323 0.9930
H81 H 0.3761 1.1221 0.9608
H82 H 0.4544 1.1304 0.9872
C71 C 0.6950(4) 0.9007(4) 0.91004(9)
C72 C 0.7820(4) 0.9573(5) 0.92367(11)
H83 H 0.8406 0.9583 0.9105
H84 H 0.8019 0.9244 0.9417
H85 H 0.7603 1.0261 0.9277
N2 N 0.1642(3) 0.2827(3) 0.99287(7)
O18 O 0.44721(18) 0.63965(16) 0.96610(5)
O19 O 0.4957(2) 0.51296(17) 0.92075(5)
H86 H 0.5505 0.5082 0.9301
O20 O 0.6187(2) 0.8801(2) 0.99790(6)
O21 O 0.1733(2) 0.5358(2) 0.90100(6)
O22 O 0.30540(18) 0.57251(17) 0.92988(5)
O23 O 0.4609(2) 0.38794(18) 0.96601(5)
O24 O 0.4584(2) 0.47520(18) 1.00755(5)
O25 O 0.1521(2) 0.8408(2) 0.94251(7)
O26 O 0.30762(19) 0.88967(18) 0.92769(5)
O27 O 0.2154(2) 0.8432(3) 0.86597(7)
O28 O 0.3647(2) 0.77485(19) 0.88011(5)
O29 O 0.7972(3) 0.6682(3) 0.92690(10)
O30 O 0.66467(18) 0.59172(18) 0.94745(5)
O31 O 0.3291(3) 0.9439(2) 0.99834(7)
O32 O 0.4615(2) 0.95063(17) 0.96749(5)
O33 O 0.6961(3) 0.8609(4) 0.88673(8)
O34 O 0.61271(19) 0.89688(18) 0.92780(5)
O35 O -0.2443(3) 0.2623(3) 0.88754(8)
H87 H -0.2517 0.3173 0.8785
H88 H -0.2080 0.2322 0.8751
O36 O 0.9971(4) 0.9688(6) 0.86829(11)
H89 H 1.0530 0.9363 0.8676
H90 H 0.9746 1.0283 0.8687
O37 O 0.0429(5) 0.3047(5) 0.85248(15)
H91 H 0.0916 0.3231 0.8415
C73 C -0.0047(5) 0.3897(6) 0.86543(14)
H92 H -0.0206 0.3748 0.8856
H93 H -0.0681 0.4056 0.8551
H94 H 0.0419 0.4472 0.8645
C74 C 0.9917(8) 0.6955(10) 0.88865(19)
H95 H 1.0605 0.7039 0.8806
H96 H 0.9700 0.6256 0.8865
H97 H 0.9927 0.7132 0.9091
O38 O 0.9098(6) 0.7702(11) 0.8713(2)
H98 H 0.9316 0.8294 0.8717
O39 O -0.0725(5) 0.1578(6) 0.8704(2)
H99 H -0.0339 0.2052 0.8648
H100 H -0.1092 0.1337 0.8570
loop_
_geom_bond_atom_site_label_1
_geom_bond_atom_site_label_2
_geom_bond_site_symmetry_1
_geom_bond_site_symmetry_2
C1 H1 1_555 1_555
C2 C1 1_555 1_555
H2 C2 1_555 1_555
C3 C2 1_555 1_555
H3 C3 1_555 1_555
C4 C3 1_555 1_555
C5 C4 1_555 1_555
C6 C5 1_555 1_555
H4 C6 1_555 1_555
C7 C6 1_555 1_555
H5 C7 1_555 1_555
C8 C7 1_555 1_555
C9 C8 1_555 1_555
H6 C9 1_555 1_555
C10 C1 1_555 1_555
C11 C7 1_555 1_555
C12 C4 1_555 1_555
H7 C12 1_555 1_555
H8 C12 1_555 1_555
H9 C12 1_555 1_555
C13 C10 1_555 1_555
H10 C13 1_555 1_555
H11 C13 1_555 1_555
C14 C11 1_555 1_555
H12 C14 1_555 1_555
H13 C14 1_555 1_555
H14 C14 1_555 1_555
C15 C11 1_555 1_555
H15 C15 1_555 1_555
H16 C15 1_555 1_555
C16 C17 1_555 1_555
C17 C18 1_555 1_555
C18 H17 1_555 1_555
C19 C18 1_555 1_555
H18 C19 1_555 1_555
C20 C19 1_555 1_555
H19 C20 1_555 1_555
C21 C17 1_555 1_555
C22 C21 1_555 1_555
H20 C22 1_555 1_555
C23 C22 1_555 1_555
H21 C23 1_555 1_555
C24 C23 1_555 1_555
C25 C22 1_555 1_555
H22 C25 1_555 1_555
H23 C25 1_555 1_555
H24 C25 1_555 1_555
C26 C23 1_555 1_555
H25 C26 1_555 1_555
H26 C26 1_555 1_555
H27 C26 1_555 1_555
C27 C28 1_555 1_555
C28 H28 1_555 1_555
H29 C28 1_555 1_555
H30 C28 1_555 1_555
C29 C30 1_555 1_555
C30 H31 1_555 1_555
H32 C30 1_555 1_555
H33 C30 1_555 1_555
C31 C32 1_555 1_555
C32 H34 1_555 1_555
H35 C32 1_555 1_555
H36 C32 1_555 1_555
C33 C34 1_555 1_555
C34 H37 1_555 1_555
H38 C34 1_555 1_555
H39 C34 1_555 1_555
C35 C36 1_555 1_555
C36 H40 1_555 1_555
H41 C36 1_555 1_555
H42 C36 1_555 1_555
N1 C20 1_555 1_555
O1 C5 1_555 1_555
O2 C4 1_555 1_555
H43 O2 1_555 1_555
O3 C8 1_555 1_555
O4 C24 1_555 1_555
O5 C3 1_555 1_555
O6 C16 1_555 1_555
O7 C15 1_555 1_555
O8 C27 1_555 1_555
O9 C1 1_555 1_555
O10 C29 1_555 1_555
O11 C2 1_555 1_555
O12 C31 1_555 1_555
O13 C6 1_555 1_555
O14 C33 1_555 1_555
O15 C9 1_555 1_555
O16 C35 1_555 1_555
O17 C13 1_555 1_555
C37 H44 1_555 1_555
C38 C37 1_555 1_555
H45 C38 1_555 1_555
C39 C38 1_555 1_555
H46 C39 1_555 1_555
C40 C39 1_555 1_555
C41 C40 1_555 1_555
C42 C41 1_555 1_555
H47 C42 1_555 1_555
C43 C42 1_555 1_555
H48 C43 1_555 1_555
C44 C43 1_555 1_555
C45 C44 1_555 1_555
H49 C45 1_555 1_555
C46 C37 1_555 1_555
C47 C43 1_555 1_555
C48 C40 1_555 1_555
H50 C48 1_555 1_555
H51 C48 1_555 1_555
H52 C48 1_555 1_555
C49 C46 1_555 1_555
H53 C49 1_555 1_555
H54 C49 1_555 1_555
C50 C47 1_555 1_555
H55 C50 1_555 1_555
H56 C50 1_555 1_555
H57 C50 1_555 1_555
C51 C47 1_555 1_555
H58 C51 1_555 1_555
H59 C51 1_555 1_555
C52 C53 1_555 1_555
C53 C54 1_555 1_555
C54 H60 1_555 1_555
C55 C54 1_555 1_555
H61 C55 1_555 1_555
C56 C55 1_555 1_555
H62 C56 1_555 1_555
C57 C53 1_555 1_555
C58 C57 1_555 1_555
H63 C58 1_555 1_555
C59 C58 1_555 1_555
H64 C59 1_555 1_555
C60 C59 1_555 1_555
C61 C58 1_555 1_555
H65 C61 1_555 1_555
H66 C61 1_555 1_555
H67 C61 1_555 1_555
C62 C59 1_555 1_555
H68 C62 1_555 1_555
H69 C62 1_555 1_555
H70 C62 1_555 1_555
C63 C64 1_555 1_555
C64 H71 1_555 1_555
H72 C64 1_555 1_555
H73 C64 1_555 1_555
C65 C66 1_555 1_555
C66 H74 1_555 1_555
H75 C66 1_555 1_555
H76 C66 1_555 1_555
C67 C68 1_555 1_555
C68 H77 1_555 1_555
H78 C68 1_555 1_555
H79 C68 1_555 1_555
C69 C70 1_555 1_555
C70 H80 1_555 1_555
H81 C70 1_555 1_555
H82 C70 1_555 1_555
C71 C72 1_555 1_555
C72 H83 1_555 1_555
H84 C72 1_555 1_555
H85 C72 1_555 1_555
N2 C56 1_555 1_555
O18 C41 1_555 1_555
O19 C40 1_555 1_555
H86 O19 1_555 1_555
O20 C44 1_555 1_555
O21 C60 1_555 1_555
O22 C39 1_555 1_555
O23 C52 1_555 1_555
O24 C51 1_555 1_555
O25 C63 1_555 1_555
O26 C37 1_555 1_555
O27 C65 1_555 1_555
O28 C38 1_555 1_555
O29 C67 1_555 1_555
O30 C42 1_555 1_555
O31 C69 1_555 1_555
O32 C45 1_555 1_555
O33 C71 1_555 1_555
O34 C49 1_555 1_555
O35 H87 1_555 1_555
H88 O35 1_555 1_555
O36 H89 1_555 1_555
H90 O36 1_555 1_555
O37 H91 1_555 1_555
C73 O37 1_555 1_555
H92 C73 1_555 1_555
H93 C73 1_555 1_555
H94 C73 1_555 1_555
C74 H95 1_555 1_555
H96 C74 1_555 1_555
H97 C74 1_555 1_555
O38 C74 1_555 1_555
H98 O38 1_555 1_555
O39 H99 1_555 1_555
H100 O39 1_555 1_555
C5 C10 1_555 1_555
C9 C10 1_555 1_555
C11 O1 1_555 1_555
C16 O7 1_555 1_555
C21 N1 1_555 1_555
C24 O5 1_555 1_555
C27 O9 1_555 1_555
C29 O11 1_555 1_555
C31 O13 1_555 1_555
C33 O15 1_555 1_555
C35 O17 1_555 1_555
C41 C46 1_555 1_555
C45 C46 1_555 1_555
C47 O18 1_555 1_555
C52 O24 1_555 1_555
C57 N2 1_555 1_555
C60 O22 1_555 1_555
C63 O26 1_555 1_555
C65 O28 1_555 1_555
C67 O30 1_555 1_555
C69 O32 1_555 1_555
C71 O34 1_555 1_555

#END
