
#######################################################################
#
#                 Cambridge Crystallographic Data Centre
#                                CCDC 
#
#######################################################################
#
# If this CIF has been generated from an entry in the Cambridge 
# Structural Database, then it will include bibliographic, chemical, 
# crystal, experimental, refinement or atomic coordinate data resulting 
# from the CCDC's data processing and validation procedures.
#
#######################################################################

data_LEWBUN
_chemical_formula_moiety         'C23 H19 N1 O2 S1'
_chemical_name_systematic        
3-[(2-methylphenyl)sulfonyl]-1,2-diphenyl-1H-pyrrole
_symmetry_cell_setting           monoclinic
_symmetry_space_group_name_H-M   'I 2/a'
_symmetry_Int_Tables_number      15
_space_group_name_Hall           '-I 2ya'
loop_
_symmetry_equiv_pos_site_id
_symmetry_equiv_pos_as_xyz
1 x,y,z
2 1/2-x,y,-z
3 1/2+x,1/2+y,1/2+z
4 -x,1/2+y,1/2-z
5 -x,-y,-z
6 1/2+x,-y,z
7 1/2-x,1/2-y,1/2-z
8 x,1/2-y,1/2+z
_cell_length_a                   18.8922(6)
_cell_length_b                   6.28593(19)
_cell_length_c                   32.1626(10)
_cell_angle_alpha                90
_cell_angle_beta                 96.756(3)
_cell_angle_gamma                90
_cell_volume                     3792.95
_exptl_crystal_colour            colorless
_exptl_crystal_description       block
_cell_formula_units_Z            8
loop_
_atom_site_label
_atom_site_type_symbol
_atom_site_fract_x
_atom_site_fract_y
_atom_site_fract_z
S1 S 0.20905(3) 0.06355(8) 0.347524(17)
O1 O 0.16613(10) -0.1144(3) 0.35717(5)
O2 O 0.28176(10) 0.0228(3) 0.34105(6)
N1 N 0.18643(9) 0.5046(3) 0.43111(5)
C1 C 0.15247(11) 0.6475(3) 0.45701(6)
C2 C 0.09875(12) 0.5791(4) 0.47940(8)
H1 H 0.0811 0.4412 0.4761
C3 C 0.07143(14) 0.7188(5) 0.50690(10)
H2 H 0.0349 0.6747 0.5219
C4 C 0.09803(15) 0.9221(5) 0.51212(10)
H3 H 0.0797 1.0146 0.5307
C5 C 0.15126(15) 0.9877(4) 0.48997(8)
H4 H 0.1692 1.1251 0.4936
C6 C 0.17888(13) 0.8524(4) 0.46212(7)
H5 H 0.2149 0.8986 0.4469
C7 C 0.25959(11) 0.4846(4) 0.43450(7)
H6 H 0.2919 0.5639 0.4523
C8 C 0.27681(12) 0.3332(4) 0.40822(8)
H7 H 0.3226 0.2891 0.4044
C9 C 0.21192(11) 0.2526(3) 0.38737(6)
C10 C 0.15609(10) 0.3602(3) 0.40192(6)
C11 C 0.07822(10) 0.3446(3) 0.38959(6)
C12 C 0.03913(13) 0.5206(4) 0.37407(8)
H8 H 0.0618 0.6502 0.3713
C13 C -0.03387(13) 0.5028(4) 0.36266(9)
H9 H -0.0599 0.6214 0.3526
C14 C -0.06794(13) 0.3112(5) 0.36609(8)
H10 H -0.1167 0.3000 0.3581
C15 C -0.02974(12) 0.1368(4) 0.38134(8)
H11 H -0.0528 0.0075 0.3838
C16 C 0.04314(12) 0.1525(4) 0.39316(7)
H12 H 0.0686 0.0335 0.4035
C17 C 0.16439(12) 0.1888(4) 0.30248(6)
C18 C 0.19052(13) 0.3731(4) 0.28546(7)
C19 C 0.15051(16) 0.4550(5) 0.24998(9)
H13 H 0.1664 0.5779 0.2379
C20 C 0.08917(17) 0.3627(6) 0.23225(9)
H14 H 0.0640 0.4230 0.2086
C21 C 0.06438(16) 0.1815(6) 0.24910(9)
H15 H 0.0227 0.1179 0.2368
C22 C 0.10186(14) 0.0925(5) 0.28485(8)
H16 H 0.0852 -0.0298 0.2967
C23 C 0.25821(16) 0.4823(4) 0.30260(9)
H17 H 0.2510 0.5563 0.3279
H18 H 0.2717 0.5821 0.2823
H19 H 0.2953 0.3786 0.3086
loop_
_geom_bond_atom_site_label_1
_geom_bond_atom_site_label_2
_geom_bond_site_symmetry_1
_geom_bond_site_symmetry_2
S1 O1 1_555 1_555
O2 S1 1_555 1_555
N1 C1 1_555 1_555
C1 C2 1_555 1_555
C2 H1 1_555 1_555
C3 C2 1_555 1_555
H2 C3 1_555 1_555
C4 C3 1_555 1_555
H3 C4 1_555 1_555
C5 C4 1_555 1_555
H4 C5 1_555 1_555
C6 C1 1_555 1_555
H5 C6 1_555 1_555
C7 N1 1_555 1_555
H6 C7 1_555 1_555
C8 C7 1_555 1_555
H7 C8 1_555 1_555
C9 S1 1_555 1_555
C10 N1 1_555 1_555
C11 C10 1_555 1_555
C12 C11 1_555 1_555
H8 C12 1_555 1_555
C13 C12 1_555 1_555
H9 C13 1_555 1_555
C14 C13 1_555 1_555
H10 C14 1_555 1_555
C15 C14 1_555 1_555
H11 C15 1_555 1_555
C16 C11 1_555 1_555
H12 C16 1_555 1_555
C17 S1 1_555 1_555
C18 C17 1_555 1_555
C19 C18 1_555 1_555
H13 C19 1_555 1_555
C20 C19 1_555 1_555
H14 C20 1_555 1_555
C21 C20 1_555 1_555
H15 C21 1_555 1_555
C22 C17 1_555 1_555
H16 C22 1_555 1_555
C23 C18 1_555 1_555
H17 C23 1_555 1_555
H18 C23 1_555 1_555
H19 C23 1_555 1_555
C5 C6 1_555 1_555
C8 C9 1_555 1_555
C9 C10 1_555 1_555
C15 C16 1_555 1_555
C21 C22 1_555 1_555

#END
