
#######################################################################
#
#                 Cambridge Crystallographic Data Centre
#                                CCDC 
#
#######################################################################
#
# If this CIF has been generated from an entry in the Cambridge 
# Structural Database, then it will include bibliographic, chemical, 
# crystal, experimental, refinement or atomic coordinate data resulting 
# from the CCDC's data processing and validation procedures.
#
#######################################################################

data_LEWBIB
_chemical_formula_moiety         'C37 H55 N1'
_chemical_name_systematic        
2-((3S,5S,8R,9S,10S,13R,14S,17R)-10,13-dimethyl-17-((R)-6-methylheptan-2-yl)hexadecahydro-1H-cyclopenta[a]phenanthren-3-yl)-4-methylquinoline
_symmetry_cell_setting           monoclinic
_symmetry_space_group_name_H-M   'P 21'
_symmetry_Int_Tables_number      4
_space_group_name_Hall           'P 2yb'
loop_
_symmetry_equiv_pos_site_id
_symmetry_equiv_pos_as_xyz
1 x,y,z
2 -x,1/2+y,-z
_cell_length_a                   14.050(4)
_cell_length_b                   7.645(3)
_cell_length_c                   15.769(5)
_cell_angle_alpha                90
_cell_angle_beta                 111.688(6)
_cell_angle_gamma                90
_cell_volume                     1573.88
_cell_formula_units_Z            2
loop_
_atom_site_label
_atom_site_type_symbol
_atom_site_fract_x
_atom_site_fract_y
_atom_site_fract_z
N1 N 0.0236(4) 0.4579(9) 0.1962(3)
C1 C 0.7024(5) 0.6244(9) 0.4817(4)
H1 H 0.678576 0.609914 0.533673
C2 C 0.6050(5) 0.6366(8) 0.3964(4)
H2 H 0.625103 0.648555 0.342132
C3 C 0.3769(5) 0.6335(9) 0.3120(4)
H3 H 0.368061 0.618026 0.371623
C4 C 0.7756(5) 0.7787(9) 0.5075(4)
H4 H 0.749220 0.873019 0.535836
H5 H 0.786408 0.826082 0.453322
C5 C 0.7711(4) 0.4635(9) 0.4863(3)
C6 C 0.5405(5) 0.7975(9) 0.3999(5)
H6 H 0.529574 0.796775 0.458471
H7 H 0.579145 0.904830 0.398234
C7 C 0.4356(5) 0.8028(9) 0.3206(5)
H8 H 0.394556 0.900354 0.330587
H9 H 0.446004 0.825542 0.262817
C8 C 0.5418(4) 0.4686(9) 0.3854(4)
H10 H 0.521562 0.465201 0.439826
C9 C -0.0747(4) 0.4547(10) 0.1309(4)
C10 C 0.4399(4) 0.4714(9) 0.3023(4)
C11 C -0.0255(5) 0.4987(12) -0.0925(4)
H11 H 0.040976 0.516955 -0.098068
H12 H -0.071150 0.596562 -0.121140
H13 H -0.055850 0.389376 -0.123095
C12 C 0.2680(5) 0.6384(10) 0.2392(5)
H14 H 0.231188 0.740763 0.250467
H15 H 0.272233 0.653124 0.178315
C13 C 0.2083(4) 0.4753(11) 0.2391(4)
H16 H 0.201192 0.468969 0.299865
C14 C 0.8129(4) 0.4671(11) 0.4075(4)
H17 H 0.854260 0.362293 0.410902
H18 H 0.855279 0.571562 0.413448
H19 H 0.755324 0.469719 0.348708
C15 C 0.9429(5) 0.1976(10) 0.5961(5)
H20 H 0.896606 0.164131 0.627033
H21 H 1.008397 0.136598 0.624414
H22 H 0.912128 0.165512 0.531474
C16 C 0.9610(5) 0.3962(9) 0.6046(4)
H23 H 0.994831 0.431224 0.561490
C17 C 0.1009(4) 0.4773(11) 0.1673(4)
C18 C -0.0960(4) 0.4680(10) 0.0359(4)
C19 C -0.0110(4) 0.4882(10) 0.0068(4)
C20 C 0.4603(5) 0.4816(12) 0.2110(4)
H24 H 0.499145 0.587986 0.210890
H25 H 0.394834 0.484101 0.159105
H26 H 0.499742 0.378918 0.206084
C21 C 0.8768(5) 0.7006(10) 0.5771(5)
H27 H 0.892119 0.751506 0.638503
H28 H 0.934896 0.725549 0.557754
C22 C 0.0858(5) 0.4918(10) 0.0732(4)
H29 H 0.143490 0.504156 0.055903
C23 C 0.8591(5) 0.4991(9) 0.5788(4)
H30 H 0.831407 0.476393 0.627769
C24 C 0.3770(5) 0.3074(10) 0.3005(5)
H31 H 0.412791 0.205246 0.287562
H32 H 0.374679 0.290473 0.361917
C25 C -0.1570(5) 0.4365(10) 0.1610(5)
H33 H -0.143796 0.428411 0.224431
C26 C -0.2554(5) 0.4305(11) 0.0998(5)
H34 H -0.309913 0.416718 0.121269
C27 C 0.6065(5) 0.3041(9) 0.3930(5)
H35 H 0.564850 0.200409 0.394304
H36 H 0.624052 0.295106 0.337866
C28 C 1.0332(4) 0.4428(12) 0.7017(4)
H37 H 1.027515 0.569892 0.710915
H38 H 1.009575 0.380938 0.745437
C29 C 0.7062(5) 0.3008(9) 0.4782(5)
H39 H 0.688788 0.290428 0.533328
H40 H 0.746648 0.196471 0.475395
C30 C -0.1986(4) 0.4605(11) -0.0258(4)
H41 H -0.213743 0.466558 -0.089653
C31 C 0.2667(5) 0.3104(10) 0.2303(5)
H42 H 0.229887 0.205524 0.238829
H43 H 0.268144 0.305463 0.168039
C32 C 1.2130(4) 0.4242(10) 0.8242(4)
H44 H 1.186167 0.349027 0.861372
H45 H 1.206020 0.547135 0.840788
C33 C 1.3272(5) 0.3846(11) 0.8510(5)
H46 H 1.333821 0.261699 0.832158
C34 C -0.2773(5) 0.4442(12) 0.0067(6)
H47 H -0.346411 0.442453 -0.034802
C35 C 1.1460(5) 0.3986(10) 0.7246(4)
H48 H 1.172681 0.472793 0.686864
H49 H 1.151298 0.275239 0.707808
C36 C 1.3767(5) 0.5060(13) 0.8014(5)
H50 H 1.347406 0.482189 0.735680
H51 H 1.450788 0.485199 0.824230
H52 H 1.363621 0.628130 0.812526
C37 C 1.3842(6) 0.3973(14) 0.9540(5)
H53 H 1.386331 0.519642 0.973132
H54 H 1.454162 0.353436 0.969928
H55 H 1.348549 0.326943 0.985037
loop_
_geom_bond_atom_site_label_1
_geom_bond_atom_site_label_2
_geom_bond_site_symmetry_1
_geom_bond_site_symmetry_2
N1 C9 1_555 1_555
C1 H1 1_555 1_555
C2 C1 1_555 1_555
H2 C2 1_555 1_555
C3 H3 1_555 1_555
C4 C1 1_555 1_555
H4 C4 1_555 1_555
H5 C4 1_555 1_555
C5 C1 1_555 1_555
C6 C2 1_555 1_555
H6 C6 1_555 1_555
H7 C6 1_555 1_555
C7 C3 1_555 1_555
H8 C7 1_555 1_555
H9 C7 1_555 1_555
C8 C2 1_555 1_555
H10 C8 1_555 1_555
C9 C18 1_555 1_555
C10 C3 1_555 1_555
C11 H11 1_555 1_555
H12 C11 1_555 1_555
H13 C11 1_555 1_555
C12 C3 1_555 1_555
H14 C12 1_555 1_555
H15 C12 1_555 1_555
C13 C12 1_555 1_555
H16 C13 1_555 1_555
C14 C5 1_555 1_555
H17 C14 1_555 1_555
H18 C14 1_555 1_555
H19 C14 1_555 1_555
C15 H20 1_555 1_555
H21 C15 1_555 1_555
H22 C15 1_555 1_555
C16 C15 1_555 1_555
H23 C16 1_555 1_555
C17 N1 1_555 1_555
C18 C19 1_555 1_555
C19 C11 1_555 1_555
C20 C10 1_555 1_555
H24 C20 1_555 1_555
H25 C20 1_555 1_555
H26 C20 1_555 1_555
C21 C4 1_555 1_555
H27 C21 1_555 1_555
H28 C21 1_555 1_555
C22 C17 1_555 1_555
H29 C22 1_555 1_555
C23 C5 1_555 1_555
H30 C23 1_555 1_555
C24 C10 1_555 1_555
H31 C24 1_555 1_555
H32 C24 1_555 1_555
C25 C9 1_555 1_555
H33 C25 1_555 1_555
C26 C25 1_555 1_555
H34 C26 1_555 1_555
C27 C8 1_555 1_555
H35 C27 1_555 1_555
H36 C27 1_555 1_555
C28 C16 1_555 1_555
H37 C28 1_555 1_555
H38 C28 1_555 1_555
C29 C5 1_555 1_555
H39 C29 1_555 1_555
H40 C29 1_555 1_555
C30 C18 1_555 1_555
H41 C30 1_555 1_555
C31 C13 1_555 1_555
H42 C31 1_555 1_555
H43 C31 1_555 1_555
C32 H44 1_555 1_555
H45 C32 1_555 1_555
C33 C32 1_555 1_555
H46 C33 1_555 1_555
C34 C26 1_555 1_555
H47 C34 1_555 1_555
C35 C28 1_555 1_555
H48 C35 1_555 1_555
H49 C35 1_555 1_555
C36 C33 1_555 1_555
H50 C36 1_555 1_555
H51 C36 1_555 1_555
H52 C36 1_555 1_555
C37 C33 1_555 1_555
H53 C37 1_555 1_555
H54 C37 1_555 1_555
H55 C37 1_555 1_555
C6 C7 1_555 1_555
C8 C10 1_555 1_555
C13 C17 1_555 1_555
C16 C23 1_555 1_555
C19 C22 1_555 1_555
C21 C23 1_555 1_555
C24 C31 1_555 1_555
C27 C29 1_555 1_555
C30 C34 1_555 1_555
C32 C35 1_555 1_555

#END
