
#######################################################################
#
#                 Cambridge Crystallographic Data Centre
#                                CCDC 
#
#######################################################################
#
# If this CIF has been generated from an entry in the Cambridge 
# Structural Database, then it will include bibliographic, chemical, 
# crystal, experimental, refinement or atomic coordinate data resulting 
# from the CCDC's data processing and validation procedures.
#
#######################################################################

data_LEWGEA
_chemical_formula_moiety         'C10 H8 N2 O4'
_chemical_name_systematic        2-Ethyl-5-nitroisoindoline-1,3-dione
_symmetry_cell_setting           monoclinic
_symmetry_space_group_name_H-M   'P 21/c'
_symmetry_Int_Tables_number      14
_space_group_name_Hall           '-P 2ybc'
loop_
_symmetry_equiv_pos_site_id
_symmetry_equiv_pos_as_xyz
1 x,y,z
2 -x,1/2+y,1/2-z
3 -x,-y,-z
4 x,1/2-y,1/2+z
_cell_length_a                   4.9438(16)
_cell_length_b                   20.655(6)
_cell_length_c                   9.858(3)
_cell_angle_alpha                90.00
_cell_angle_beta                 90.00
_cell_angle_gamma                90.00
_cell_volume                     1006.64
_exptl_crystal_colour            yellow
_exptl_crystal_description       plate
_cell_formula_units_Z            4
loop_
_atom_site_label
_atom_site_type_symbol
_atom_site_fract_x
_atom_site_fract_y
_atom_site_fract_z
O1 O 0.1628(4) 0.50681(8) 0.3659(2)
O2 O -0.1694(4) 0.45405(8) 0.2747(2)
O3 O 0.6900(3) 0.19123(8) 0.53988(18)
O4 O -0.0137(3) 0.19014(8) 0.23681(17)
N1 N 0.0465(4) 0.45631(10) 0.3363(2)
N2 N 0.3491(4) 0.17427(8) 0.38199(17)
C1 C 0.5107(4) 0.21190(11) 0.4675(2)
C2 C 0.4159(4) 0.28065(10) 0.4503(2)
C3 C 0.5048(4) 0.33738(10) 0.5102(2)
H1 H 0.6438 0.3372 0.5737
C4 C 0.3781(5) 0.39502(11) 0.4717(2)
H2 H 0.4325 0.4342 0.5095
C5 C 0.1708(4) 0.39365(10) 0.3768(2)
C6 C 0.0758(4) 0.33702(10) 0.3162(2)
H3 H -0.0646 0.3372 0.2534
C7 C 0.2042(4) 0.28037(10) 0.3556(2)
C8 C 0.1562(4) 0.21166(10) 0.3136(2)
C9 C 0.3705(5) 0.10351(10) 0.3706(2)
H4 H 0.5592 0.0915 0.3610
H5 H 0.2755 0.0892 0.2899
C10 C 0.2522(6) 0.06981(12) 0.4940(3)
H6 H 0.3619 0.0790 0.5720
H7 H 0.2484 0.0239 0.4786
H8 H 0.0715 0.0852 0.5094
loop_
_geom_bond_atom_site_label_1
_geom_bond_atom_site_label_2
_geom_bond_site_symmetry_1
_geom_bond_site_symmetry_2
O1 N1 1_555 1_555
O2 N1 1_555 1_555
O3 C1 1_555 1_555
O4 C8 1_555 1_555
N1 C5 1_555 1_555
N2 C1 1_555 1_555
C1 C2 1_555 1_555
C2 C3 1_555 1_555
C3 H1 1_555 1_555
C4 C3 1_555 1_555
H2 C4 1_555 1_555
C5 C4 1_555 1_555
C6 C5 1_555 1_555
H3 C6 1_555 1_555
C7 C2 1_555 1_555
C8 N2 1_555 1_555
C9 N2 1_555 1_555
H4 C9 1_555 1_555
H5 C9 1_555 1_555
C10 C9 1_555 1_555
H6 C10 1_555 1_555
H7 C10 1_555 1_555
H8 C10 1_555 1_555
C6 C7 1_555 1_555
C7 C8 1_555 1_555

#END
