
#######################################################################
#
#                 Cambridge Crystallographic Data Centre
#                                CCDC 
#
#######################################################################
#
# If this CIF has been generated from an entry in the Cambridge 
# Structural Database, then it will include bibliographic, chemical, 
# crystal, experimental, refinement or atomic coordinate data resulting 
# from the CCDC's data processing and validation procedures.
#
#######################################################################

data_LEWMEG
_chemical_name_common            Methylazacalix(8)pyridine
_chemical_formula_moiety         'C48 H48 N16'
_chemical_name_systematic        
2,4,6,8,10,12,14,16-Octamethyl-2,4,6,8,10,12,14,16-octa-aza-1,3,5,7,9,11,13,15-(2,6)-octapyridinahexadecacyclophane
_symmetry_cell_setting           orthorhombic
_symmetry_space_group_name_H-M   'P c c n'
_symmetry_Int_Tables_number      56
_space_group_name_Hall           '-P 2ab 2ac'
loop_
_symmetry_equiv_pos_site_id
_symmetry_equiv_pos_as_xyz
1 x,y,z
2 1/2-x,1/2-y,z
3 -x,1/2+y,1/2-z
4 1/2+x,-y,1/2-z
5 -x,-y,-z
6 1/2+x,1/2+y,-z
7 x,1/2-y,1/2+z
8 1/2-x,y,1/2+z
_cell_length_a                   12.0387(5)
_cell_length_b                   33.9080(6)
_cell_length_c                   10.406(2)
_cell_angle_alpha                90
_cell_angle_beta                 90
_cell_angle_gamma                90
_cell_volume                     4247.81
_chemical_melting_point          '117-118 deg.C'
_cell_formula_units_Z            4
_exptl_crystal_recrystallization_method 'hexane/ethyl acetate'
loop_
_atom_site_label
_atom_site_type_symbol
_atom_site_fract_x
_atom_site_fract_y
_atom_site_fract_z
N1 N 0.56332(18) 0.47701(7) -0.2802(2)
N2 N 0.52412(18) 0.42199(6) -0.4031(2)
N3 N 0.55441(17) 0.35657(6) -0.3418(2)
N4 N 0.5923(2) 0.29425(7) -0.2669(2)
N5 N 0.48672(18) 0.31355(6) -0.0868(2)
N6 N 0.37160(18) 0.33182(7) 0.0810(3)
N7 N 0.38436(17) 0.39867(6) 0.1269(2)
N8 N 0.58624(19) 0.53565(7) -0.1673(3)
C1 C 0.6236(2) 0.49705(8) -0.1953(3)
C2 C 0.7144(2) 0.48106(8) -0.1324(3)
H1 H 0.7568 0.4960 -0.0758
C3 C 0.7395(3) 0.44223(8) -0.1568(3)
H2 H 0.7988 0.4303 -0.1145
C4 C 0.6777(2) 0.42089(8) -0.2432(3)
H3 H 0.6941 0.3946 -0.2594
C5 C 0.5891(2) 0.43964(8) -0.3064(3)
C6 C 0.5228(2) 0.38169(8) -0.4328(3)
C7 C 0.4867(2) 0.36905(9) -0.5530(3)
H4 H 0.4656 0.3870 -0.6161
C8 C 0.4835(3) 0.32907(9) -0.5749(3)
H5 H 0.4591 0.3198 -0.6541
C9 C 0.5157(2) 0.30253(8) -0.4821(3)
H6 H 0.5129 0.2755 -0.4966
C10 C 0.5523(2) 0.31790(8) -0.3662(2)
C11 C 0.5872(2) 0.31132(8) -0.1407(3)
C12 C 0.6829(2) 0.32467(9) -0.0839(3)
H7 H 0.7517 0.3215 -0.1231
C13 C 0.6726(2) 0.34307(9) 0.0341(3)
H8 H 0.7355 0.3526 0.0758
C14 C 0.5707(2) 0.34731(8) 0.0894(3)
H9 H 0.5628 0.3604 0.1675
C15 C 0.4780(2) 0.33151(7) 0.0259(3)
C16 C 0.3282(2) 0.36499(8) 0.1438(3)
C17 C 0.2317(2) 0.36294(8) 0.2179(3)
H10 H 0.1941 0.3392 0.2288
C18 C 0.1940(2) 0.39709(9) 0.2742(3)
H11 H 0.1299 0.3965 0.3239
C19 C 0.2504(2) 0.43217(8) 0.2578(3)
H12 H 0.2250 0.4554 0.2949
C20 C 0.6532(2) 0.56852(8) -0.1834(3)
C21 C 0.4531(3) 0.44763(9) -0.4811(3)
H13 H 0.4136 0.4320 -0.5429
H14 H 0.4982 0.4667 -0.5250
H15 H 0.4010 0.4610 -0.4265
C22 C 0.5839(3) 0.25222(10) -0.2767(3)
H16 H 0.5887 0.2446 -0.3653
H17 H 0.5140 0.2437 -0.2420
H18 H 0.6433 0.2402 -0.2293
C23 C 0.2964(3) 0.29952(10) 0.0512(4)
H19 H 0.2274 0.3034 0.0957
H20 H 0.3292 0.2750 0.0778
H21 H 0.2829 0.2988 -0.0397
C24 C 0.4748(2) 0.54044(10) -0.1189(4)
H22 H 0.4394 0.5151 -0.1133
H23 H 0.4775 0.5523 -0.0351
H24 H 0.4334 0.5571 -0.1760
N1D N 0.43668(18) 0.52299(7) 0.2802(2)
N2D N 0.47588(18) 0.57801(6) 0.4031(2)
N3D N 0.44559(17) 0.64343(6) 0.3418(2)
N4D N 0.4077(2) 0.70575(7) 0.2669(2)
N5D N 0.51328(18) 0.68645(6) 0.0868(2)
N6D N 0.62840(18) 0.66818(7) -0.0810(3)
N7D N 0.61564(17) 0.60133(6) -0.1269(2)
N8D N 0.41376(19) 0.46435(7) 0.1673(3)
C1D C 0.3764(2) 0.50295(8) 0.1953(3)
C2D C 0.2856(2) 0.51894(8) 0.1324(3)
H1D H 0.2432 0.5040 0.0758
C3D C 0.2605(3) 0.55777(8) 0.1568(3)
H2D H 0.2012 0.5697 0.1145
C4D C 0.3223(2) 0.57911(8) 0.2432(3)
H3D H 0.3059 0.6054 0.2594
C5D C 0.4109(2) 0.56036(8) 0.3064(3)
C6D C 0.4772(2) 0.61831(8) 0.4328(3)
C7D C 0.5133(2) 0.63095(9) 0.5530(3)
H4D H 0.5344 0.6130 0.6161
C8D C 0.5165(3) 0.67093(9) 0.5749(3)
H5D H 0.5409 0.6802 0.6541
C9D C 0.4843(2) 0.69747(8) 0.4821(3)
H6D H 0.4871 0.7245 0.4966
C10D C 0.4477(2) 0.68210(8) 0.3662(2)
C11D C 0.4128(2) 0.68868(8) 0.1407(3)
C12D C 0.3171(2) 0.67533(9) 0.0839(3)
H7D H 0.2483 0.6785 0.1231
C13D C 0.3274(2) 0.65693(9) -0.0341(3)
H8D H 0.2645 0.6474 -0.0758
C14D C 0.4293(2) 0.65269(8) -0.0894(3)
H9D H 0.4372 0.6396 -0.1675
C15D C 0.5220(2) 0.66849(7) -0.0259(3)
C16D C 0.6718(2) 0.63501(8) -0.1438(3)
C17D C 0.7683(2) 0.63706(8) -0.2179(3)
H10D H 0.8059 0.6608 -0.2288
C18D C 0.8060(2) 0.60291(9) -0.2742(3)
H11D H 0.8701 0.6035 -0.3239
C19D C 0.7496(2) 0.56783(8) -0.2578(3)
H12D H 0.7750 0.5446 -0.2949
C20D C 0.3468(2) 0.43148(8) 0.1834(3)
C21D C 0.5469(3) 0.55237(9) 0.4811(3)
H13D H 0.5864 0.5680 0.5429
H14D H 0.5018 0.5333 0.5250
H15D H 0.5990 0.5390 0.4265
C22D C 0.4161(3) 0.74778(10) 0.2767(3)
H16D H 0.4113 0.7554 0.3653
H17D H 0.4860 0.7563 0.2420
H18D H 0.3567 0.7598 0.2293
C23D C 0.7036(3) 0.70048(10) -0.0512(4)
H19D H 0.7726 0.6966 -0.0957
H20D H 0.6708 0.7250 -0.0778
H21D H 0.7171 0.7012 0.0397
C24D C 0.5252(2) 0.45956(10) 0.1189(4)
H22D H 0.5606 0.4849 0.1133
H23D H 0.5225 0.4477 0.0351
H24D H 0.5666 0.4429 0.1760
loop_
_geom_bond_atom_site_label_1
_geom_bond_atom_site_label_2
_geom_bond_site_symmetry_1
_geom_bond_site_symmetry_2
N1 C1 1_555 1_555
N2 C5 1_555 1_555
N3 C6 1_555 1_555
N4 C10 1_555 1_555
N5 C11 1_555 1_555
N6 C15 1_555 1_555
N7 C16 1_555 1_555
N8 C1 1_555 1_555
C1 C2 1_555 1_555
C2 H1 1_555 1_555
C3 C2 1_555 1_555
H2 C3 1_555 1_555
C4 C3 1_555 1_555
H3 C4 1_555 1_555
C5 N1 1_555 1_555
C6 N2 1_555 1_555
C7 C6 1_555 1_555
H4 C7 1_555 1_555
C8 C7 1_555 1_555
H5 C8 1_555 1_555
C9 C8 1_555 1_555
H6 C9 1_555 1_555
C10 N3 1_555 1_555
C11 N4 1_555 1_555
C12 C11 1_555 1_555
H7 C12 1_555 1_555
C13 C12 1_555 1_555
H8 C13 1_555 1_555
C14 C13 1_555 1_555
H9 C14 1_555 1_555
C15 N5 1_555 1_555
C16 N6 1_555 1_555
C17 C16 1_555 1_555
H10 C17 1_555 1_555
C18 C17 1_555 1_555
H11 C18 1_555 1_555
C19 C18 1_555 1_555
H12 C19 1_555 1_555
C20 N8 1_555 1_555
C21 N2 1_555 1_555
H13 C21 1_555 1_555
H14 C21 1_555 1_555
H15 C21 1_555 1_555
C22 N4 1_555 1_555
H16 C22 1_555 1_555
H17 C22 1_555 1_555
H18 C22 1_555 1_555
C23 N6 1_555 1_555
H19 C23 1_555 1_555
H20 C23 1_555 1_555
H21 C23 1_555 1_555
C24 N8 1_555 1_555
H22 C24 1_555 1_555
H23 C24 1_555 1_555
H24 C24 1_555 1_555
N1D C1D 1_555 1_555
N2D C5D 1_555 1_555
N3D C6D 1_555 1_555
N4D C10D 1_555 1_555
N5D C11D 1_555 1_555
N6D C15D 1_555 1_555
N7D C20 1_555 1_555
N8D C1D 1_555 1_555
C1D C2D 1_555 1_555
C2D H1D 1_555 1_555
C3D C2D 1_555 1_555
H2D C3D 1_555 1_555
C4D C3D 1_555 1_555
H3D C4D 1_555 1_555
C5D N1D 1_555 1_555
C6D N2D 1_555 1_555
C7D C6D 1_555 1_555
H4D C7D 1_555 1_555
C8D C7D 1_555 1_555
H5D C8D 1_555 1_555
C9D C8D 1_555 1_555
H6D C9D 1_555 1_555
C10D N3D 1_555 1_555
C11D N4D 1_555 1_555
C12D C11D 1_555 1_555
H7D C12D 1_555 1_555
C13D C12D 1_555 1_555
H8D C13D 1_555 1_555
C14D C13D 1_555 1_555
H9D C14D 1_555 1_555
C15D N5D 1_555 1_555
C16D N6D 1_555 1_555
C17D C16D 1_555 1_555
H10D C17D 1_555 1_555
C18D C17D 1_555 1_555
H11D C18D 1_555 1_555
C19D C20 1_555 1_555
H12D C19D 1_555 1_555
C20D N7 1_555 1_555
C21D N2D 1_555 1_555
H13D C21D 1_555 1_555
H14D C21D 1_555 1_555
H15D C21D 1_555 1_555
C22D N4D 1_555 1_555
H16D C22D 1_555 1_555
H17D C22D 1_555 1_555
H18D C22D 1_555 1_555
C23D N6D 1_555 1_555
H19D C23D 1_555 1_555
H20D C23D 1_555 1_555
H21D C23D 1_555 1_555
C24D N8D 1_555 1_555
H22D C24D 1_555 1_555
H23D C24D 1_555 1_555
H24D C24D 1_555 1_555
C4 C5 1_555 1_555
C9 C10 1_555 1_555
C14 C15 1_555 1_555
C19 C20D 1_555 1_555
N7D C16D 1_555 1_555
N8D C20D 1_555 1_555
C4D C5D 1_555 1_555
C9D C10D 1_555 1_555
C14D C15D 1_555 1_555
C18D C19D 1_555 1_555

#END
