
#######################################################################
#
#                 Cambridge Crystallographic Data Centre
#                                CCDC 
#
#######################################################################
#
# If this CIF has been generated from an entry in the Cambridge 
# Structural Database, then it will include bibliographic, chemical, 
# crystal, experimental, refinement or atomic coordinate data resulting 
# from the CCDC's data processing and validation procedures.
#
#######################################################################

data_LEWQUB
_chemical_formula_moiety         'C14 H16 N1 O1 1+,C10 H15 O4 S1 1-,H2 O1'
_chemical_name_systematic        
'2-Hydroxy-1,2-diphenylethanaminium (7,7-dimethyl-2-oxobicyclo[2.2.1]hept-1-yl)methanesulfonate monohydrate'
_symmetry_cell_setting           monoclinic
_symmetry_space_group_name_H-M   'P 21'
_symmetry_Int_Tables_number      4
_space_group_name_Hall           'P 2yb'
loop_
_symmetry_equiv_pos_site_id
_symmetry_equiv_pos_as_xyz
1 x,y,z
2 -x,1/2+y,-z
_cell_length_a                   12.3935(15)
_cell_length_b                   6.2288(7)
_cell_length_c                   15.4324(18)
_cell_angle_alpha                90
_cell_angle_beta                 91.428(2)
_cell_angle_gamma                90
_cell_volume                     1190.96
_exptl_crystal_colour            colorless
_exptl_crystal_description       block
_cell_formula_units_Z            2
loop_
_atom_site_label
_atom_site_type_symbol
_atom_site_fract_x
_atom_site_fract_y
_atom_site_fract_z
C1 C 0.3883(3) 0.2961(6) 0.6197(2)
H1 H 0.3449 0.1801 0.6421
H2 H 0.3883 0.2868 0.5570
C2 C 0.5044(2) 0.2871(5) 0.6580(2)
H3 H 0.5121 0.1731 0.7006
H4 H 0.5564 0.2654 0.6130
C3 C 0.5182(2) 0.5064(5) 0.70002(19)
H5 H 0.5785 0.5165 0.7421
C4 C 0.4057(2) 0.5479(5) 0.73826(17)
C5 C 0.3449(2) 0.5178(5) 0.64954(17)
C6 C 0.4057(3) 0.6774(5) 0.5948(2)
C7 C 0.5221(3) 0.6686(6) 0.6258(2)
H6 H 0.5469 0.8078 0.6462
H7 H 0.5686 0.6191 0.5803
C8 C 0.3735(3) 0.3835(6) 0.80630(19)
H8 H 0.4239 0.3891 0.8545
H9 H 0.3741 0.2424 0.7813
H10 H 0.3024 0.4158 0.8258
C9 C 0.3925(3) 0.7733(6) 0.7765(2)
H11 H 0.3219 0.7869 0.8000
H12 H 0.4013 0.8785 0.7317
H13 H 0.4461 0.7957 0.8216
C10 C 0.2229(2) 0.5580(6) 0.6504(2)
H14 H 0.2101 0.7054 0.6327
H15 H 0.2000 0.5452 0.7098
O1 O 0.3681(2) 0.7916(4) 0.53784(16)
O2 O 0.1413(2) 0.1795(5) 0.6224(2)
O3 O 0.03239(19) 0.4902(5) 0.5894(2)
O4 O 0.1806(2) 0.3936(6) 0.49948(14)
S1 S 0.13852(5) 0.39064(12) 0.58519(5)
C11 C 0.2560(2) 0.4083(6) 0.19148(17)
C12 C 0.2976(3) 0.6121(6) 0.1847(2)
H16 H 0.2887 0.7093 0.2297
C13 C 0.3527(3) 0.6747(7) 0.1116(3)
H17 H 0.3797 0.8135 0.1075
C14 C 0.3671(3) 0.5303(8) 0.0450(2)
H18 H 0.4047 0.5709 -0.0038
C15 C 0.3263(4) 0.3295(8) 0.0511(2)
H19 H 0.3366 0.2322 0.0064
C16 C 0.2690(3) 0.2665(6) 0.1236(2)
H20 H 0.2397 0.1293 0.1262
C17 C 0.1955(2) 0.3401(5) 0.27127(18)
H21 H 0.2406 0.3714 0.3227
C18 C 0.0900(2) 0.4708(5) 0.27680(17)
H22 H 0.1093 0.6232 0.2803
C19 C 0.0131(2) 0.4413(5) 0.19957(17)
C20 C -0.0371(3) 0.2503(6) 0.1814(2)
H23 H -0.0247 0.1333 0.2177
C21 C -0.1060(3) 0.2278(7) 0.1101(2)
H24 H -0.1400 0.0972 0.0989
C22 C -0.1239(3) 0.4013(10) 0.0553(2)
H25 H -0.1702 0.3880 0.0072
C23 C -0.0744(4) 0.5875(9) 0.0720(3)
H26 H -0.0862 0.7025 0.0345
C24 C -0.0055(3) 0.6148(7) 0.1440(2)
H27 H 0.0276 0.7465 0.1547
N1 N 0.0359(2) 0.4116(5) 0.35875(15)
H28 H 0.020(3) 0.277(2) 0.361(3)
H29 H 0.081(2) 0.422(7) 0.4015(15)
H30 H -0.018(2) 0.498(5) 0.362(2)
O5 O 0.1732(2) 0.1204(4) 0.26968(15)
H31 H 0.178(4) 0.053(7) 0.3149(18)
H32 H 0.223(4) 0.964(6) 0.440(3)
O6 O 0.1916(2) 0.8716(6) 0.41098(19)
H33 H 0.138(3) 0.872(12) 0.441(3)
loop_
_geom_bond_atom_site_label_1
_geom_bond_atom_site_label_2
_geom_bond_site_symmetry_1
_geom_bond_site_symmetry_2
C1 H1 1_555 1_555
H2 C1 1_555 1_555
C2 C1 1_555 1_555
H3 C2 1_555 1_555
H4 C2 1_555 1_555
C3 C2 1_555 1_555
H5 C3 1_555 1_555
C4 C3 1_555 1_555
C5 C1 1_555 1_555
C6 C5 1_555 1_555
C7 C3 1_555 1_555
H6 C7 1_555 1_555
H7 C7 1_555 1_555
C8 C4 1_555 1_555
H8 C8 1_555 1_555
H9 C8 1_555 1_555
H10 C8 1_555 1_555
C9 C4 1_555 1_555
H11 C9 1_555 1_555
H12 C9 1_555 1_555
H13 C9 1_555 1_555
C10 C5 1_555 1_555
H14 C10 1_555 1_555
H15 C10 1_555 1_555
O1 C6 1_555 1_555
O2 S1 1_555 1_555
O3 S1 1_555 1_555
O4 S1 1_555 1_555
S1 C10 1_555 1_555
C11 C12 1_555 1_555
C12 H16 1_555 1_555
C13 C12 1_555 1_555
H17 C13 1_555 1_555
C14 C13 1_555 1_555
H18 C14 1_555 1_555
C15 C14 1_555 1_555
H19 C15 1_555 1_555
C16 C11 1_555 1_555
H20 C16 1_555 1_555
C17 C11 1_555 1_555
H21 C17 1_555 1_555
C18 C17 1_555 1_555
H22 C18 1_555 1_555
C19 C18 1_555 1_555
C20 C19 1_555 1_555
H23 C20 1_555 1_555
C21 C20 1_555 1_555
H24 C21 1_555 1_555
C22 C21 1_555 1_555
H25 C22 1_555 1_555
C23 C22 1_555 1_555
H26 C23 1_555 1_555
C24 C19 1_555 1_555
H27 C24 1_555 1_555
N1 C18 1_555 1_555
H28 N1 1_555 1_555
H29 N1 1_555 1_555
H30 N1 1_555 1_555
O5 C17 1_555 1_555
H31 O5 1_555 1_555
H32 O6 1_555 1_555
O6 H33 1_555 1_555
C4 C5 1_555 1_555
C6 C7 1_555 1_555
C15 C16 1_555 1_555
C23 C24 1_555 1_555

#END
