
#######################################################################
#
#                 Cambridge Crystallographic Data Centre
#                                CCDC 
#
#######################################################################
#
# If this CIF has been generated from an entry in the Cambridge 
# Structural Database, then it will include bibliographic, chemical, 
# crystal, experimental, refinement or atomic coordinate data resulting 
# from the CCDC's data processing and validation procedures.
#
#######################################################################

data_LEWRUC
_chemical_formula_moiety         'C14 H10 F2 N2 O1'
_chemical_name_systematic        
2-Fluoro-N'-(2-fluorobenzylidene)benzohydrazide
_symmetry_cell_setting           monoclinic
_symmetry_space_group_name_H-M   'P 21/c'
_symmetry_Int_Tables_number      14
_space_group_name_Hall           '-P 2ybc'
loop_
_symmetry_equiv_pos_site_id
_symmetry_equiv_pos_as_xyz
1 x,y,z
2 -x,1/2+y,1/2-z
3 -x,-y,-z
4 x,1/2-y,1/2+z
_cell_length_a                   11.232(3)
_cell_length_b                   12.735(4)
_cell_length_c                   8.612(2)
_cell_angle_alpha                90
_cell_angle_beta                 90.869(3)
_cell_angle_gamma                90
_cell_volume                     1231.71
_cell_formula_units_Z            4
loop_
_atom_site_label
_atom_site_type_symbol
_atom_site_fract_x
_atom_site_fract_y
_atom_site_fract_z
F1 F 0.27452(16) 0.36703(11) 0.9244(2)
F2 F 0.0394(2) 0.79661(19) 0.7779(3)
C1 C 0.0728(2) 0.8887(2) 0.8054(3)
C2 C 0.1759(2) 1.01877(18) 0.9437(3)
H1 H 0.2273 1.0395 1.0237
N1 N 0.29105(15) 0.66743(14) 1.0639(2)
N2 N 0.23786(16) 0.74208(14) 0.9683(2)
O1 O 0.22400(14) 0.85577(11) 1.16871(17)
C3 C 0.35874(18) 0.49223(16) 1.0929(2)
C4 C 0.3461(2) 0.38853(18) 1.0492(3)
C5 C 0.4007(2) 0.30715(19) 1.1246(3)
H2 H 0.3888 0.2384 1.0916
C6 C 0.4732(2) 0.3285(2) 1.2494(3)
H3 H 0.5123 0.2742 1.3013
C7 C 0.4883(2) 0.4302(2) 1.2981(3)
H4 H 0.5374 0.4446 1.3834
C8 C 0.43147(19) 0.51112(17) 1.2216(3)
H5 H 0.4419 0.5796 1.2567
C9 C 0.29992(19) 0.57562(17) 1.0054(3)
H6 H 0.2687 0.5621 0.9068
C10 C 0.20799(17) 0.83526(16) 1.0315(3)
C11 C 0.15244(18) 0.91303(16) 0.9233(2)
C12 C 0.0197(2) 0.9629(3) 0.7121(3)
H7 H -0.0347 0.9431 0.6350
C13 C 0.0476(3) 1.0653(3) 0.7338(4)
H8 H 0.0135 1.1161 0.6695
C14 C 0.1252(3) 1.0946(2) 0.8487(4)
H9 H 0.1439 1.1651 0.8633
H10 H 0.2298(19) 0.7248(17) 0.8675(13)
F3? F 0.2472(3) 1.0503(3) 1.0445(5)
C15? C 0.0728(2) 0.8887(2) 0.8054(3)
H11? H 0.0541 0.8185 0.7883
C16? C 0.1759(2) 1.01877(18) 0.9437(3)
loop_
_geom_bond_atom_site_label_1
_geom_bond_atom_site_label_2
_geom_bond_site_symmetry_1
_geom_bond_site_symmetry_2
F1 C4 1_555 1_555
F2 C1 1_555 1_555
C1 C11 1_555 1_555
C2 H1 1_555 1_555
N1 N2 1_555 1_555
N2 C10 1_555 1_555
O1 C10 1_555 1_555
C3 C4 1_555 1_555
C4 C5 1_555 1_555
C5 H2 1_555 1_555
C6 C5 1_555 1_555
H3 C6 1_555 1_555
C7 C6 1_555 1_555
H4 C7 1_555 1_555
C8 C3 1_555 1_555
H5 C8 1_555 1_555
C9 N1 1_555 1_555
H6 C9 1_555 1_555
C10 C11 1_555 1_555
C11 C2 1_555 1_555
C12 C1 1_555 1_555
H7 C12 1_555 1_555
C13 C12 1_555 1_555
H8 C13 1_555 1_555
C14 C2 1_555 1_555
H9 C14 1_555 1_555
H10 N2 1_555 1_555
C3 C9 1_555 1_555
C7 C8 1_555 1_555
C13 C14 1_555 1_555

#END
