
#######################################################################
#
#                 Cambridge Crystallographic Data Centre
#                                CCDC 
#
#######################################################################
#
# If this CIF has been generated from an entry in the Cambridge 
# Structural Database, then it will include bibliographic, chemical, 
# crystal, experimental, refinement or atomic coordinate data resulting 
# from the CCDC's data processing and validation procedures.
#
#######################################################################

data_LEWTOW10
_chemical_formula_moiety         'C6 H13 N1 O4'
_chemical_name_systematic        
2,5-bis(Hydroxymethyl)-3,4-bis(hydroxy)pyrrolidine
_chemical_properties_biological  
'alpha- and beta-glucosidase inhibitory activity'
_symmetry_cell_setting           orthorhombic
_symmetry_space_group_name_H-M   'P 21 21 21'
_symmetry_Int_Tables_number      19
_space_group_name_Hall           'P 2ac 2ab'
loop_
_symmetry_equiv_pos_site_id
_symmetry_equiv_pos_as_xyz
1 x,y,z
2 1/2-x,-y,1/2+z
3 1/2+x,1/2-y,-z
4 -x,1/2+y,1/2-z
_cell_length_a                   5.946(1)
_cell_length_b                   7.272(1)
_cell_length_c                   17.484(2)
_cell_angle_alpha                90
_cell_angle_beta                 90
_cell_angle_gamma                90
_cell_volume                     755.996
_cell_formula_units_Z            4
loop_
_atom_site_label
_atom_site_type_symbol
_atom_site_fract_x
_atom_site_fract_y
_atom_site_fract_z
O1 O 0.3654(5) 0.1945(4) 0.9573(2)
O2 O 0.6787(4) 0.4978(5) 0.9170(2)
O3 O 0.5956(4) 0.9106(4) 0.8828(2)
O4 O -0.0719(4) 0.9180(4) 0.7790(2)
N1 N 0.1283(5) 0.5996(4) 0.8588(2)
C1 C 0.2566(6) 0.4990(5) 0.9192(2)
C2 C 0.4803(6) 0.6049(5) 0.9266(2)
C3 C 0.4722(6) 0.7485(5) 0.8641(2)
C4 C 0.2221(6) 0.7867(5) 0.8547(2)
C5 C 0.2752(7) 0.2990(5) 0.8953(2)
C6 C 0.1641(6) 0.8803(5) 0.7810(2)
H1 H 0.4597(84) 0.1135(64) 0.9317(24)
H2 H 0.6962(73) 0.4377(60) 0.9539(24)
H3 H 0.6973(85) 0.9264(67) 0.8525(26)
H4 H -0.1087(87) 0.9806(73) 0.7379(33)
H5 H -0.0197(87) 0.5905(59) 0.8710(22)
H6 H 0.1877 0.4950 0.9688
H7 H 0.4910 0.6523 0.9778
H8 H 0.5417 0.7064 0.8177
H9 H 0.1643 0.8705 0.8922
H10 H 0.3728 0.2890 0.8517
H11 H 0.1288 0.2528 0.8822
H12 H 0.2033 0.8018 0.7389
H13 H 0.2462 0.9936 0.7772
loop_
_geom_bond_atom_site_label_1
_geom_bond_atom_site_label_2
_geom_bond_site_symmetry_1
_geom_bond_site_symmetry_2
O1 C5 1_555 1_555
O2 C2 1_555 1_555
O3 C3 1_555 1_555
O4 C6 1_555 1_555
N1 C1 1_555 1_555
C1 C2 1_555 1_555
C2 C3 1_555 1_555
C3 C4 1_555 1_555
C4 N1 1_555 1_555
C5 C1 1_555 1_555
C6 C4 1_555 1_555
H1 O1 1_555 1_555
H2 O2 1_555 1_555
H3 O3 1_555 1_555
H4 O4 1_555 1_555
H5 N1 1_555 1_555
H6 C1 1_555 1_555
H7 C2 1_555 1_555
H8 C3 1_555 1_555
H9 C4 1_555 1_555
H10 C5 1_555 1_555
H11 C5 1_555 1_555
H12 C6 1_555 1_555
H13 C6 1_555 1_555

#END
