
#######################################################################
#
#                 Cambridge Crystallographic Data Centre
#                                CCDC 
#
#######################################################################
#
# If this CIF has been generated from an entry in the Cambridge 
# Structural Database, then it will include bibliographic, chemical, 
# crystal, experimental, refinement or atomic coordinate data resulting 
# from the CCDC's data processing and validation procedures.
#
#######################################################################

data_LEXKIL
_chemical_formula_moiety         'C39 H74 B11 N5 O1 Si4'
_chemical_name_systematic        
1,2-((1-{t-butyl[(t-butylimino)(phenyl)methyl]amino}-1-yl-3,3,3-trimethyldisiloxanyl)(1,3-di-t-butyl-2-yl-4-phenyl-2,3-dihydro-1,3,2-diazasilet-1-ium-2-yl){[(trimethylsilyl)imino]methylidene}borate)-1,2-dicaba-closo-dodecaborane(10)
_symmetry_cell_setting           triclinic
_symmetry_space_group_name_H-M   'P -1'
_symmetry_Int_Tables_number      2
_space_group_name_Hall           '-P 1'
loop_
_symmetry_equiv_pos_site_id
_symmetry_equiv_pos_as_xyz
1 x,y,z
2 -x,-y,-z
_cell_length_a                   10.3263(5)
_cell_length_b                   13.9687(6)
_cell_length_c                   20.0768(8)
_cell_angle_alpha                75.836(2)
_cell_angle_beta                 75.932(3)
_cell_angle_gamma                75.273(3)
_cell_volume                     2664.7
_exptl_crystal_colour            yellow
_exptl_crystal_description       block
_cell_formula_units_Z            2
loop_
_atom_site_label
_atom_site_type_symbol
_atom_site_fract_x
_atom_site_fract_y
_atom_site_fract_z
O1 O 0.8237(3) 0.8331(2) 0.19818(14)
Si1 Si 0.85559(12) 0.52843(8) 0.30986(6)
Si2 Si 0.72947(12) 0.75494(9) 0.24768(6)
Si3 Si 0.92365(18) 0.85067(13) 0.12155(8)
Si4 Si 0.7401(2) 0.47893(16) 0.07846(9)
N1 N 0.8081(3) 0.4090(2) 0.35786(17)
N2 N 1.0080(3) 0.4268(2) 0.30324(16)
N3 N 0.5615(3) 0.8185(3) 0.24720(19)
N4 N 0.5266(5) 0.9716(3) 0.1601(3)
N5 N 0.8124(5) 0.5360(3) 0.1234(2)
C1 C 0.8534(4) 0.6147(3) 0.37040(19)
C2 C 0.7841(4) 0.7386(3) 0.33771(19)
C3 C 0.6800(4) 0.3701(3) 0.3885(2)
C4 C 0.5752(5) 0.4538(4) 0.4179(3)
H1 H 0.4911 0.4315 0.4381
H2 H 0.6075 0.4719 0.4532
H3 H 0.5604 0.5115 0.3810
C5 C 0.6988(5) 0.2775(4) 0.4460(3)
H4 H 0.6139 0.2555 0.4639
H5 H 0.7667 0.2245 0.4275
H6 H 0.7278 0.2937 0.4831
C6 C 0.6283(5) 0.3469(4) 0.3302(3)
H7 H 0.5460 0.3218 0.3496
H8 H 0.6102 0.4074 0.2958
H9 H 0.6964 0.2969 0.3084
C7 C 0.9324(4) 0.3581(3) 0.3343(2)
C8 C 0.9751(4) 0.2462(3) 0.3392(3)
C9 C 1.0195(5) 0.1839(4) 0.3975(3)
H10 H 1.0266 0.2111 0.4341
C10 C 1.0533(6) 0.0812(4) 0.4012(4)
H11 H 1.0836 0.0389 0.4404
C11 C 1.0430(6) 0.0415(5) 0.3488(5)
H12 H 1.0638 -0.0282 0.3529
C12 C 1.0027(6) 0.1009(5) 0.2897(4)
H13 H 0.9989 0.0722 0.2532
C13 C 0.9671(5) 0.2059(4) 0.2844(3)
H14 H 0.9386 0.2478 0.2446
C14 C 1.1514(4) 0.4115(3) 0.2623(2)
C15 C 1.2463(5) 0.3285(4) 0.3014(3)
H15 H 1.3369 0.3209 0.2737
H16 H 1.2469 0.3453 0.3449
H17 H 1.2156 0.2663 0.3106
C16 C 1.1539(5) 0.3900(4) 0.1916(2)
H18 H 1.2460 0.3803 0.1657
H19 H 1.1193 0.3301 0.1981
H20 H 1.0982 0.4460 0.1662
C17 C 1.1967(5) 0.5102(4) 0.2508(3)
H21 H 1.2885 0.5041 0.2246
H22 H 1.1373 0.5631 0.2253
H23 H 1.1928 0.5259 0.2953
C18 C 0.4474(4) 0.7739(3) 0.2345(2)
C19 C 0.4385(5) 0.6810(4) 0.2872(3)
H24 H 0.5239 0.6336 0.2810
H25 H 0.4186 0.6963 0.3332
H26 H 0.3672 0.6524 0.2819
C20 C 0.3083(5) 0.8486(4) 0.2460(3)
H27 H 0.3119 0.9100 0.2120
H28 H 0.2377 0.8190 0.2410
H29 H 0.2891 0.8630 0.2922
C21 C 0.4837(6) 0.7559(4) 0.1582(3)
H30 H 0.4881 0.8189 0.1262
H31 H 0.5705 0.7103 0.1511
H32 H 0.4148 0.7273 0.1503
C22 C 0.5431(5) 0.9322(4) 0.2227(3)
C23 C 0.5410(6) 0.9861(3) 0.2792(3)
C24 C 0.4299(6) 0.9979(4) 0.3310(3)
H33 H 0.3557 0.9716 0.3311
C25 C 0.4234(6) 1.0469(4) 0.3828(3)
H34 H 0.3450 1.0550 0.4172
C26 C 0.5322(7) 1.0839(4) 0.3840(3)
H35 H 0.5274 1.1179 0.4192
C27 C 0.6477(6) 1.0722(4) 0.3344(3)
H36 H 0.7225 1.0962 0.3364
C28 C 0.6531(6) 1.0237(3) 0.2805(3)
H37 H 0.7308 1.0165 0.2456
C29 C 0.4830(12) 1.0819(5) 0.1304(4)
C30 C 0.413(4) 1.0776(14) 0.0747(18)
H38 H 0.3291 1.0555 0.0959
H39 H 0.3944 1.1434 0.0459
H40 H 0.4710 1.0309 0.0464
C31 C 0.396(4) 1.1430(15) 0.1805(10)
H41 H 0.3132 1.1181 0.2003
H42 H 0.4427 1.1390 0.2171
H43 H 0.3735 1.2119 0.1569
C32 C 0.607(3) 1.1144(17) 0.0990(19)
H44 H 0.6606 1.0721 0.0668
H45 H 0.5876 1.1830 0.0745
H46 H 0.6569 1.1100 0.1347
C33 C 0.9623(8) 0.9751(5) 0.1092(3)
H47 H 1.0212 0.9894 0.0646
H48 H 0.8791 1.0252 0.1108
H49 H 1.0069 0.9760 0.1457
C34 C 0.8355(6) 0.8433(4) 0.0552(3)
H50 H 0.8936 0.8536 0.0099
H51 H 0.8130 0.7781 0.0650
H52 H 0.7533 0.8945 0.0557
C35 C 1.0850(6) 0.7545(5) 0.1169(3)
H53 H 1.1407 0.7675 0.0712
H54 H 1.1331 0.7576 0.1515
H55 H 1.0649 0.6886 0.1257
C36 C 0.7959(5) 0.5734(3) 0.1744(3)
C37 C 0.5793(8) 0.4500(6) 0.1279(4)
H56 H 0.5886 0.4182 0.1751
H57 H 0.5110 0.5111 0.1281
H58 H 0.5527 0.4051 0.1068
C38 C 0.751(6) 0.536(4) -0.0068(11)
H59 H 0.7099 0.5016 -0.0297
H60 H 0.7042 0.6048 -0.0102
H61 H 0.8452 0.5323 -0.0288
C39 C 0.855(3) 0.339(3) 0.085(3)
H62 H 0.8493 0.3063 0.1334
H63 H 0.8224 0.3012 0.0609
H64 H 0.9481 0.3423 0.0641
B1 B 0.6964(5) 0.6728(3) 0.4106(2)
H65 H 0.6002 0.6523 0.4107
B2 B 0.8187(5) 0.5918(4) 0.4590(2)
H66 H 0.8018 0.5188 0.4917
B3 B 0.9824(5) 0.6089(4) 0.4106(2)
H67 H 1.0727 0.5469 0.4118
B4 B 0.9580(5) 0.6993(3) 0.3338(3)
H68 H 1.0314 0.6958 0.2841
B5 B 0.7052(5) 0.7983(4) 0.4061(2)
H69 H 0.6145 0.8600 0.4046
B6 B 0.7281(6) 0.7071(4) 0.4832(3)
H70 H 0.6523 0.7090 0.5323
B7 B 0.9052(5) 0.6694(4) 0.4829(3)
H71 H 0.9451 0.6473 0.5317
B8 B 0.9937(5) 0.7355(4) 0.4041(3)
H72 H 1.0911 0.7561 0.4012
B9 B 0.8688(5) 0.8152(4) 0.3574(2)
H73 H 0.8850 0.8880 0.3238
B10 B 0.8357(5) 0.7961(4) 0.4502(3)
H74 H 0.8304 0.8564 0.4777
B11 B 0.7855(5) 0.6156(4) 0.2335(3)
C40? C 0.555(4) 1.102(2) 0.0512(13)
H75? H 0.5290 1.1717 0.0309
H76? H 0.6524 1.0837 0.0478
H77? H 0.5282 1.0613 0.0265
C41? C 0.328(2) 1.1068(16) 0.1385(19)
H78? H 0.2979 1.1770 0.1198
H79? H 0.3012 1.0668 0.1135
H80? H 0.2868 1.0921 0.1872
C42? C 0.525(4) 1.1657(12) 0.1570(13)
H81? H 0.4879 1.2313 0.1323
H82? H 0.4890 1.1610 0.2063
H83? H 0.6223 1.1555 0.1486
C43? C 0.679(3) 0.600(3) 0.0060(16)
H84? H 0.6088 0.6484 0.0287
H85? H 0.7549 0.6311 -0.0182
H86? H 0.6434 0.5796 -0.0270
C44? C 0.864(3) 0.397(3) 0.035(2)
H87? H 0.8233 0.3652 0.0104
H88? H 0.9287 0.4325 0.0026
H89? H 0.9100 0.3458 0.0683
loop_
_geom_bond_atom_site_label_1
_geom_bond_atom_site_label_2
_geom_bond_site_symmetry_1
_geom_bond_site_symmetry_2
O1 Si2 1_555 1_555
Si1 N1 1_555 1_555
Si2 N3 1_555 1_555
Si3 O1 1_555 1_555
Si4 N5 1_555 1_555
N1 C3 1_555 1_555
N2 Si1 1_555 1_555
N3 C18 1_555 1_555
N4 C22 1_555 1_555
N5 C36 1_555 1_555
C1 Si1 1_555 1_555
C2 Si2 1_555 1_555
C3 C4 1_555 1_555
C4 H1 1_555 1_555
H2 C4 1_555 1_555
H3 C4 1_555 1_555
C5 C3 1_555 1_555
H4 C5 1_555 1_555
H5 C5 1_555 1_555
H6 C5 1_555 1_555
C6 C3 1_555 1_555
H7 C6 1_555 1_555
H8 C6 1_555 1_555
H9 C6 1_555 1_555
C7 N1 1_555 1_555
C8 C7 1_555 1_555
C9 C8 1_555 1_555
H10 C9 1_555 1_555
C10 C9 1_555 1_555
H11 C10 1_555 1_555
C11 C10 1_555 1_555
H12 C11 1_555 1_555
C12 C11 1_555 1_555
H13 C12 1_555 1_555
C13 C8 1_555 1_555
H14 C13 1_555 1_555
C14 N2 1_555 1_555
C15 C14 1_555 1_555
H15 C15 1_555 1_555
H16 C15 1_555 1_555
H17 C15 1_555 1_555
C16 C14 1_555 1_555
H18 C16 1_555 1_555
H19 C16 1_555 1_555
H20 C16 1_555 1_555
C17 C14 1_555 1_555
H21 C17 1_555 1_555
H22 C17 1_555 1_555
H23 C17 1_555 1_555
C18 C19 1_555 1_555
C19 H24 1_555 1_555
H25 C19 1_555 1_555
H26 C19 1_555 1_555
C20 C18 1_555 1_555
H27 C20 1_555 1_555
H28 C20 1_555 1_555
H29 C20 1_555 1_555
C21 C18 1_555 1_555
H30 C21 1_555 1_555
H31 C21 1_555 1_555
H32 C21 1_555 1_555
C22 N3 1_555 1_555
C23 C22 1_555 1_555
C24 C23 1_555 1_555
H33 C24 1_555 1_555
C25 C24 1_555 1_555
H34 C25 1_555 1_555
C26 C25 1_555 1_555
H35 C26 1_555 1_555
C27 C26 1_555 1_555
H36 C27 1_555 1_555
C28 C23 1_555 1_555
H37 C28 1_555 1_555
C29 N4 1_555 1_555
C30 C29 1_555 1_555
H38 C30 1_555 1_555
H39 C30 1_555 1_555
H40 C30 1_555 1_555
C31 C29 1_555 1_555
H41 C31 1_555 1_555
H42 C31 1_555 1_555
H43 C31 1_555 1_555
C32 C29 1_555 1_555
H44 C32 1_555 1_555
H45 C32 1_555 1_555
H46 C32 1_555 1_555
C33 Si3 1_555 1_555
H47 C33 1_555 1_555
H48 C33 1_555 1_555
H49 C33 1_555 1_555
C34 Si3 1_555 1_555
H50 C34 1_555 1_555
H51 C34 1_555 1_555
H52 C34 1_555 1_555
C35 Si3 1_555 1_555
H53 C35 1_555 1_555
H54 C35 1_555 1_555
H55 C35 1_555 1_555
C36 B11 1_555 1_555
C37 Si4 1_555 1_555
H56 C37 1_555 1_555
H57 C37 1_555 1_555
H58 C37 1_555 1_555
C38 Si4 1_555 1_555
H59 C38 1_555 1_555
H60 C38 1_555 1_555
H61 C38 1_555 1_555
C39 Si4 1_555 1_555
H62 C39 1_555 1_555
H63 C39 1_555 1_555
H64 C39 1_555 1_555
B1 C1 1_555 1_555
H65 B1 1_555 1_555
B2 C1 1_555 1_555
H66 B2 1_555 1_555
B3 C1 1_555 1_555
H67 B3 1_555 1_555
B4 C1 1_555 1_555
H68 B4 1_555 1_555
B5 C2 1_555 1_555
H69 B5 1_555 1_555
B6 B1 1_555 1_555
H70 B6 1_555 1_555
B7 B2 1_555 1_555
H71 B7 1_555 1_555
B8 B3 1_555 1_555
H72 B8 1_555 1_555
B9 C2 1_555 1_555
H73 B9 1_555 1_555
B10 B5 1_555 1_555
H74 B10 1_555 1_555
B11 Si1 1_555 1_555
Si2 B11 1_555 1_555
N2 C7 1_555 1_555
C1 C2 1_555 1_555
C2 B1 1_555 1_555
C2 B4 1_555 1_555
C12 C13 1_555 1_555
C27 C28 1_555 1_555
B1 B2 1_555 1_555
B1 B5 1_555 1_555
B2 B3 1_555 1_555
B2 B6 1_555 1_555
B3 B4 1_555 1_555
B3 B7 1_555 1_555
B4 B8 1_555 1_555
B4 B9 1_555 1_555
B5 B6 1_555 1_555
B5 B9 1_555 1_555
B6 B7 1_555 1_555
B6 B10 1_555 1_555
B7 B8 1_555 1_555
B7 B10 1_555 1_555
B8 B9 1_555 1_555
B8 B10 1_555 1_555
B9 B10 1_555 1_555

#END
