
#######################################################################
#
#                 Cambridge Crystallographic Data Centre
#                                CCDC 
#
#######################################################################
#
# If this CIF has been generated from an entry in the Cambridge 
# Structural Database, then it will include bibliographic, chemical, 
# crystal, experimental, refinement or atomic coordinate data resulting 
# from the CCDC's data processing and validation procedures.
#
#######################################################################

data_LEXKAC
_chemical_compound_source        
'culture broth of themarine-derived fungus Phoma herbarum (no. IFB-4108)'
_chemical_name_common            'Dibenzoylomassarilactone H'
_chemical_formula_moiety         'C25 H20 O7'
_chemical_name_systematic        
'(2S,3S,4S)-7-Methylene-5-oxo-2-(prop-1-en-1-yl)-3,4,5,7-tetrahydro-2H-furo[3,4-b]pyran-3,4-diyl dibenzoate'
_symmetry_cell_setting           orthorhombic
_symmetry_space_group_name_H-M   'P 21 21 2'
_symmetry_Int_Tables_number      18
_space_group_name_Hall           'P 2 2ab'
loop_
_symmetry_equiv_pos_site_id
_symmetry_equiv_pos_as_xyz
1 x,y,z
2 -x,-y,z
3 1/2-x,1/2+y,-z
4 1/2+x,1/2-y,-z
_cell_length_a                   12.12500(10)
_cell_length_b                   18.1566(2)
_cell_length_c                   9.69140(10)
_cell_angle_alpha                90
_cell_angle_beta                 90
_cell_angle_gamma                90
_cell_volume                     2133.55
_cell_formula_units_Z            4
loop_
_atom_site_label
_atom_site_type_symbol
_atom_site_fract_x
_atom_site_fract_y
_atom_site_fract_z
O1 O 0.74514(7) 0.09652(4) 1.09494(9)
O2 O 0.88034(7) 0.15185(5) 1.21597(9)
O3 O 0.58244(7) 0.23994(4) 0.94988(9)
O4 O 0.73639(7) 0.32898(5) 1.24071(8)
O5 O 0.86484(8) 0.41851(5) 1.23019(9)
O6 O 0.76387(7) 0.32151(5) 0.86369(8)
O7 O 0.88080(8) 0.41758(5) 0.88138(10)
C1 C 0.39038(11) 0.42047(9) 1.22853(16)
H1 H 0.4118 0.4690 1.2572
H2 H 0.4021 0.3865 1.3029
H3 H 0.3138 0.4205 1.2036
C2 C 0.45823(10) 0.39770(8) 1.10667(15)
H4 H 0.4552 0.4274 1.0285
C3 C 0.52224(10) 0.33858(7) 1.10149(14)
H5 H 0.5244 0.3074 1.1776
C4 C 0.59136(10) 0.31975(6) 0.97812(13)
H6 H 0.5606 0.3460 0.8986
C5 C 0.71244(10) 0.34249(6) 0.99211(12)
H7 H 0.7181 0.3958 1.0056
C6 C 0.77330(9) 0.30166(6) 1.10801(12)
H8 H 0.8533 0.3076 1.0983
C7 C 0.74183(10) 0.22308(6) 1.09571(12)
C8 C 0.65661(9) 0.19970(7) 1.01794(12)
C9 C 0.65657(10) 0.11950(7) 1.01181(13)
C10 C 0.59369(10) 0.07308(7) 0.94424(14)
H9 H 0.6069 0.0227 0.9503
H10 H 0.5359 0.0905 0.8903
C11 C 0.79944(10) 0.15837(7) 1.14473(12)
C12 C 0.78808(10) 0.39007(6) 1.28857(12)
C13 C 0.73788(10) 0.41728(6) 1.41835(12)
C14 C 0.78917(11) 0.47585(7) 1.48488(13)
H11 H 0.8531 0.4963 1.4483
C15 C 0.74455(11) 0.50365(7) 1.60608(14)
H12 H 0.7789 0.5426 1.6512
C16 C 0.64866(12) 0.47327(7) 1.65993(13)
H13 H 0.6188 0.4920 1.7410
C17 C 0.59733(11) 0.41519(8) 1.59348(14)
H14 H 0.5329 0.3952 1.6297
C18 C 0.64201(11) 0.38680(7) 1.47275(13)
H15 H 0.6079 0.3475 1.4284
C19 C 0.85018(10) 0.36365(7) 0.82068(13)
C20 C 0.90020(10) 0.33399(7) 0.69231(12)
C21 C 0.99661(12) 0.36671(8) 0.64449(15)
H16 H 1.0287 0.4051 0.6936
C22 C 1.04473(13) 0.34174(9) 0.52300(16)
H17 H 1.1095 0.3633 0.4911
C23 C 0.99635(13) 0.28473(8) 0.44928(15)
H18 H 1.0281 0.2686 0.3673
C24 C 0.90081(13) 0.25182(8) 0.49766(15)
H19 H 0.8689 0.2133 0.4485
C25 C 0.85249(11) 0.27618(7) 0.61927(13)
H20 H 0.7885 0.2539 0.6518
loop_
_geom_bond_atom_site_label_1
_geom_bond_atom_site_label_2
_geom_bond_site_symmetry_1
_geom_bond_site_symmetry_2
O1 C9 1_555 1_555
O2 C11 1_555 1_555
O3 C4 1_555 1_555
O4 C6 1_555 1_555
O5 C12 1_555 1_555
O6 C5 1_555 1_555
O7 C19 1_555 1_555
C1 H1 1_555 1_555
H2 C1 1_555 1_555
H3 C1 1_555 1_555
C2 C1 1_555 1_555
H4 C2 1_555 1_555
C3 C2 1_555 1_555
H5 C3 1_555 1_555
C4 C3 1_555 1_555
H6 C4 1_555 1_555
C5 C4 1_555 1_555
H7 C5 1_555 1_555
C6 C5 1_555 1_555
H8 C6 1_555 1_555
C7 C6 1_555 1_555
C8 O3 1_555 1_555
C9 C8 1_555 1_555
C10 C9 1_555 1_555
H9 C10 1_555 1_555
H10 C10 1_555 1_555
C11 O1 1_555 1_555
C12 O4 1_555 1_555
C13 C12 1_555 1_555
C14 C13 1_555 1_555
H11 C14 1_555 1_555
C15 C14 1_555 1_555
H12 C15 1_555 1_555
C16 C15 1_555 1_555
H13 C16 1_555 1_555
C17 C16 1_555 1_555
H14 C17 1_555 1_555
C18 C13 1_555 1_555
H15 C18 1_555 1_555
C19 O6 1_555 1_555
C20 C19 1_555 1_555
C21 C20 1_555 1_555
H16 C21 1_555 1_555
C22 C21 1_555 1_555
H17 C22 1_555 1_555
C23 C22 1_555 1_555
H18 C23 1_555 1_555
C24 C23 1_555 1_555
H19 C24 1_555 1_555
C25 C20 1_555 1_555
H20 C25 1_555 1_555
C7 C8 1_555 1_555
C7 C11 1_555 1_555
C17 C18 1_555 1_555
C24 C25 1_555 1_555

#END
