
#######################################################################
#
#                 Cambridge Crystallographic Data Centre
#                                CCDC 
#
#######################################################################
#
# If this CIF has been generated from an entry in the Cambridge 
# Structural Database, then it will include bibliographic, chemical, 
# crystal, experimental, refinement or atomic coordinate data resulting 
# from the CCDC's data processing and validation procedures.
#
#######################################################################

data_LEXMOS
_chemical_formula_moiety         'C14 H16 N2 O4,H2 O1'
_chemical_name_systematic        
'1-(2-Carboxyethyl)-3-(carboxylatomethyl)-2-ethylbenzimidazol-1-ium monohydrate'
_symmetry_cell_setting           triclinic
_symmetry_space_group_name_H-M   'P -1'
_symmetry_Int_Tables_number      2
_space_group_name_Hall           '-P 1'
loop_
_symmetry_equiv_pos_site_id
_symmetry_equiv_pos_as_xyz
1 x,y,z
2 -x,-y,-z
_cell_length_a                   8.286(7)
_cell_length_b                   9.041(8)
_cell_length_c                   10.629(9)
_cell_angle_alpha                69.905(7)
_cell_angle_beta                 69.096(7)
_cell_angle_gamma                79.082(8)
_cell_volume                     696.537
_exptl_crystal_colour            colorless
_exptl_crystal_description       block
_cell_formula_units_Z            2
loop_
_atom_site_label
_atom_site_type_symbol
_atom_site_fract_x
_atom_site_fract_y
_atom_site_fract_z
C1 C 0.2641(2) 1.08245(19) 0.06635(18)
C2 C 0.2190(2) 1.1649(2) -0.05422(18)
H1 H 0.2043 1.2747 -0.0837
C3 C 0.1973(2) 1.0757(2) -0.12773(19)
H2 H 0.1676 1.1265 -0.2096
C4 C 0.2185(3) 0.9111(2) -0.0833(2)
H3 H 0.2019 0.8555 -0.1363
C5 C 0.2629(2) 0.8285(2) 0.03621(19)
H4 H 0.2767 0.7188 0.0657
C6 C 0.2861(2) 0.91826(19) 0.11035(17)
C7 C 0.3413(2) 1.0071(2) 0.26096(19)
C8 C 0.3829(3) 1.0131(2) 0.3834(2)
H5 H 0.4589 1.0970 0.3522
H6 H 0.4449 0.9142 0.4195
C9 C 0.2221(3) 1.0414(3) 0.5024(2)
H7 H 0.1572 1.1366 0.4663
H8 H 0.2565 1.0516 0.5760
H9 H 0.1513 0.9539 0.5396
C10 C 0.2867(2) 1.2987(2) 0.1588(2)
H10 H 0.3267 1.3640 0.0613
H11 H 0.3618 1.3096 0.2067
C11 C 0.1029(3) 1.3575(2) 0.22808(19)
C12 C 0.3833(2) 0.7124(2) 0.30663(19)
H12 H 0.4830 0.7123 0.3342
H13 H 0.4172 0.6495 0.2422
C13 C 0.2397(2) 0.63694(19) 0.43592(19)
H14 H 0.2173 0.6898 0.5066
H15 H 0.1347 0.6500 0.4113
C14 C 0.2846(3) 0.4640(2) 0.4969(2)
N1 N 0.29992(18) 1.13350(15) 0.16246(15)
N2 N 0.33392(18) 0.87598(16) 0.23231(15)
O1 O 0.09505(19) 1.48021(15) 0.26178(15)
O2 O -0.01868(18) 1.28600(16) 0.24520(16)
O3 O 0.1787(2) 0.38995(15) 0.61738(15)
H16 H 0.0996 0.4523 0.6453
O4 O 0.41378(18) 0.39251(15) 0.43815(15)
O5 O 0.3224(3) 0.5657(2) 0.8276(2)
H17 H 0.405(4) 0.594(3) 0.734(3)
H18 H 0.230(4) 0.614(4) 0.800(3)
loop_
_geom_bond_atom_site_label_1
_geom_bond_atom_site_label_2
_geom_bond_site_symmetry_1
_geom_bond_site_symmetry_2
C1 C2 1_555 1_555
C2 H1 1_555 1_555
C3 C2 1_555 1_555
H2 C3 1_555 1_555
C4 C3 1_555 1_555
H3 C4 1_555 1_555
C5 C4 1_555 1_555
H4 C5 1_555 1_555
C6 C1 1_555 1_555
C7 C8 1_555 1_555
C8 H5 1_555 1_555
H6 C8 1_555 1_555
C9 C8 1_555 1_555
H7 C9 1_555 1_555
H8 C9 1_555 1_555
H9 C9 1_555 1_555
C10 H10 1_555 1_555
H11 C10 1_555 1_555
C11 C10 1_555 1_555
C12 H12 1_555 1_555
H13 C12 1_555 1_555
C13 C12 1_555 1_555
H14 C13 1_555 1_555
H15 C13 1_555 1_555
C14 C13 1_555 1_555
N1 C1 1_555 1_555
N2 C6 1_555 1_555
O1 C11 1_555 1_555
O2 C11 1_555 1_555
O3 C14 1_555 1_555
H16 O3 1_555 1_555
O4 C14 1_555 1_555
O5 H17 1_555 1_555
H18 O5 1_555 1_555
C5 C6 1_555 1_555
C7 N1 1_555 1_555
C7 N2 1_555 1_555
C10 N1 1_555 1_555
C12 N2 1_555 1_555

#END
