
#######################################################################
#
#                 Cambridge Crystallographic Data Centre
#                                CCDC 
#
#######################################################################
#
# If this CIF has been generated from an entry in the Cambridge 
# Structural Database, then it will include bibliographic, chemical, 
# crystal, experimental, refinement or atomic coordinate data resulting 
# from the CCDC's data processing and validation procedures.
#
#######################################################################

data_LEXPAG
_chemical_formula_moiety         'C28 H24 N2 O4 S1'
_chemical_name_systematic        
'Benzhydryl 2-(3-benzyl-7-oxo-4-thia-2,6-diazabicyclo(3.2.0)hept-2-en-6-yl)-3-hydroxybut-2-enoate'
_symmetry_cell_setting           monoclinic
_symmetry_space_group_name_H-M   'P 21'
_symmetry_Int_Tables_number      4
_space_group_name_Hall           'P 2yb'
loop_
_symmetry_equiv_pos_site_id
_symmetry_equiv_pos_as_xyz
1 x,y,z
2 -x,1/2+y,-z
_cell_length_a                   14.1146(12)
_cell_length_b                   11.4794(10)
_cell_length_c                   16.0864(16)
_cell_angle_alpha                90
_cell_angle_beta                 111.765(3)
_cell_angle_gamma                90
_cell_volume                     2420.63
_exptl_crystal_colour            colorless
_exptl_crystal_description       block
_chemical_melting_point          '400-401 K'
_cell_formula_units_Z            4
_exptl_crystal_recrystallization_method methanol
loop_
_atom_site_label
_atom_site_type_symbol
_atom_site_fract_x
_atom_site_fract_y
_atom_site_fract_z
S1 S 0.37900(3) 0.63716(4) 0.77691(3)
N1 N 0.25222(11) 0.83185(12) 0.74418(9)
N2 N 0.35561(12) 0.73544(12) 0.62193(10)
O1 O 0.23868(10) 0.97155(11) 0.63297(8)
O2 O 0.32586(11) 0.99554(12) 0.95280(9)
H1 H 0.2647(18) 0.985(2) 0.9521(15)
O3 O 0.13864(9) 0.93036(11) 0.89970(8)
O4 O 0.07800(9) 0.82372(10) 0.77290(7)
C1 C 0.24569(13) 0.87414(16) 0.66235(12)
C2 C 0.25719(14) 0.75108(14) 0.62898(12)
H3 H 0.1977 0.7238 0.5759
C3 C 0.25830(13) 0.70753(15) 0.72179(11)
H4 H 0.1977 0.6598 0.7184
C4 C 0.42019(14) 0.68601(15) 0.69080(12)
C5 C 0.53022(14) 0.66788(16) 0.70380(13)
H5 H 0.5408 0.6935 0.6511
H6 H 0.5458 0.5862 0.7114
C6 C 0.60031(11) 0.7326(2) 0.78239(11)
C7 C 0.61615(13) 0.85189(18) 0.7802(3)
H9 H 0.5886 0.8931 0.7252
C8 C 0.67237(18) 0.9109(5) 0.8584(4)
H10 H 0.6832 0.9924 0.8569
C9 C 0.71274(17) 0.8506(9) 0.9389(3)
H11 H 0.7512 0.8909 0.9924
C10 C 0.69690(16) 0.7313(9) 0.94111(12)
H12 H 0.7245 0.6901 0.9961
C11 C 0.64068(14) 0.6723(5) 0.8629(3)
H13 H 0.6299 0.5908 0.8644
C18 C 0.24690(13) 0.88710(14) 0.82101(11)
C19 C 0.33032(14) 0.94057(15) 0.88115(12)
C20 C 0.43228(14) 0.94572(17) 0.87448(14)
H19 H 0.4442 1.0244 0.8569
H20 H 0.4351 0.8897 0.8295
H21 H 0.4849 0.9265 0.9327
C21 C 0.15156(13) 0.88373(14) 0.83595(11)
C22 C -0.01877(13) 0.81094(16) 0.78606(11)
H22 H -0.0357 0.8864 0.8084
C23 C -0.09879(14) 0.78478(16) 0.69590(12)
C24 C -0.07854(14) 0.71605(18) 0.63312(12)
H23 H -0.0115 0.6874 0.6456
C25 C -0.15646(16) 0.68921(17) 0.55203(12)
H24 H -0.1424 0.6425 0.5092
C26 C -0.25349(16) 0.73013(18) 0.53400(13)
H25 H -0.3065 0.7104 0.4790
C27 C -0.27465(15) 0.79966(18) 0.59503(14)
H26 H -0.3416 0.8290 0.5818
C28 C -0.19698(14) 0.82628(17) 0.67603(14)
H27 H -0.2114 0.8736 0.7184
C29 C -0.00943(13) 0.71639(16) 0.85469(11)
C30 C 0.04382(13) 0.61344(15) 0.85678(11)
H28 H 0.0776 0.6027 0.8161
C31 C 0.04781(14) 0.52683(16) 0.91774(13)
H29 H 0.0838 0.4567 0.9183
C32 C -0.00030(16) 0.54167(18) 0.97777(13)
H30 H 0.0028 0.4820 1.0196
C33 C -0.05300(16) 0.6438(2) 0.97669(12)
H31 H -0.0856 0.6545 1.0182
C34 C -0.05819(15) 0.73048(17) 0.91498(12)
H32 H -0.0953 0.7999 0.9139
S2 S 0.06078(4) 0.14501(4) 0.65852(3)
N3 N 0.19602(11) 0.33308(12) 0.70178(9)
N4 N 0.10100(12) 0.21186(14) 0.82487(10)
O5 O 0.22671(10) 0.45291(11) 0.82761(9)
O6 O 0.18750(11) 0.50971(11) 0.51010(8)
H2 H 0.2537(17) 0.502(2) 0.5221(14)
O7 O 0.37195(9) 0.44220(10) 0.60417(8)
O8 O 0.39147(8) 0.32623(10) 0.72341(7)
C35 C 0.21018(13) 0.36151(15) 0.78884(12)
C36 C 0.19513(14) 0.23346(16) 0.81120(12)
H33 H 0.2566 0.1981 0.8580
C37 C 0.18576(14) 0.20668(15) 0.71319(12)
H34 H 0.2426 0.1586 0.7085
C38 C 0.03120(14) 0.17409(14) 0.75479(12)
C39 C -0.07784(14) 0.15566(16) 0.74769(13)
H35 H -0.1105 0.0944 0.7029
H36 H -0.0786 0.1299 0.8062
C40 C -0.13629(14) 0.26873(16) 0.71998(12)
C41 C -0.17898(15) 0.30068(18) 0.63035(13)
H37 H -0.1749 0.2491 0.5856
C42 C -0.22760(15) 0.4074(2) 0.60560(15)
H38 H -0.2563 0.4289 0.5442
C43 C -0.23420(16) 0.48237(19) 0.67042(15)
H39 H -0.2677 0.5553 0.6536
C44 C -0.19206(16) 0.45118(17) 0.75980(15)
H40 H -0.1970 0.5026 0.8043
C45 C -0.14261(15) 0.34517(16) 0.78470(13)
H41 H -0.1129 0.3247 0.8462
C46 C 0.22776(14) 0.39442(14) 0.63959(11)
C47 C 0.15855(14) 0.45104(15) 0.56867(12)
C48 C 0.04723(15) 0.45508(18) 0.54785(13)
H42 H 0.0251 0.5364 0.5447
H43 H 0.0317 0.4145 0.5949
H44 H 0.0113 0.4170 0.4902
C49 C 0.33537(14) 0.39153(14) 0.65294(11)
C50 C 0.49815(13) 0.30847(15) 0.73588(11)
H45 H 0.5274 0.3839 0.7255
C51 C 0.55445(13) 0.27081(15) 0.83235(11)
C52 C 0.65878(14) 0.25273(17) 0.86066(12)
H46 H 0.6929 0.2682 0.8208
C53 C 0.71417(15) 0.21245(19) 0.94624(13)
H47 H 0.7858 0.2014 0.9650
C54 C 0.66478(15) 0.18842(16) 1.00432(12)
H48 H 0.7019 0.1580 1.0622
C55 C 0.56179(15) 0.20879(18) 0.97777(12)
H49 H 0.5281 0.1940 1.0180
C56 C 0.50621(15) 0.25110(17) 0.89199(12)
H50 H 0.4353 0.2664 0.8746
C57 C 0.50514(13) 0.21925(16) 0.66863(11)
C58 C 0.45594(14) 0.11231(15) 0.65992(11)
H51 H 0.4194 0.0943 0.6974
C59 C 0.45992(14) 0.03193(16) 0.59695(12)
H52 H 0.4252 -0.0404 0.5905
C60 C 0.51500(16) 0.05761(18) 0.54326(13)
H53 H 0.5180 0.0028 0.5001
C61 C 0.56531(16) 0.16286(19) 0.55277(13)
H54 H 0.6039 0.1801 0.5168
C62 C 0.55934(15) 0.24367(17) 0.61514(12)
H55 H 0.5931 0.3165 0.6208
H7? H 0.5412 0.6915 0.6508
H8? H 0.5473 0.5868 0.7142
C12? C 0.59937(11) 0.7418(2) 0.78532(10)
C13? C 0.61271(14) 0.85743(15) 0.7666(3)
H14? H 0.5855 0.8848 0.7066
C14? C 0.66590(19) 0.9331(4) 0.8356(5)
H15? H 0.6750 1.0122 0.8227
C15? C 0.70574(19) 0.8931(8) 0.9233(4)
H16? H 0.7421 0.9448 0.9705
C16? C 0.69240(16) 0.7774(9) 0.94211(9)
H17? H 0.7196 0.7500 1.0021
C17? C 0.63922(13) 0.7017(6) 0.87310(18)
H18? H 0.6301 0.6227 0.8859
loop_
_geom_bond_atom_site_label_1
_geom_bond_atom_site_label_2
_geom_bond_site_symmetry_1
_geom_bond_site_symmetry_2
S1 C3 1_555 1_555
S2 C37 1_555 1_555
N1 C1 1_555 1_555
N2 C2 1_555 1_555
N3 C35 1_555 1_555
N4 C36 1_555 1_555
O1 C1 1_555 1_555
O2 H1 1_555 1_555
O3 C21 1_555 1_555
O4 C21 1_555 1_555
O5 C35 1_555 1_555
O6 H2 1_555 1_555
O7 C49 1_555 1_555
O8 C49 1_555 1_555
C1 C2 1_555 1_555
C2 H3 1_555 1_555
C3 N1 1_555 1_555
H4 C3 1_555 1_555
C4 S1 1_555 1_555
C5 C4 1_555 1_555
H5 C5 1_555 1_555
H6 C5 1_555 1_555
C6 C5 1_555 1_555
C7 C6 1_555 1_555
H9 C7 1_555 1_555
C8 C7 1_555 1_555
H10 C8 1_555 1_555
C9 C8 1_555 1_555
H11 C9 1_555 1_555
C10 C9 1_555 1_555
H12 C10 1_555 1_555
C11 C6 1_555 1_555
H13 C11 1_555 1_555
C18 N1 1_555 1_555
C19 O2 1_555 1_555
C20 C19 1_555 1_555
H19 C20 1_555 1_555
H20 C20 1_555 1_555
H21 C20 1_555 1_555
C21 C18 1_555 1_555
C22 O4 1_555 1_555
H22 C22 1_555 1_555
C23 C22 1_555 1_555
C24 C23 1_555 1_555
H23 C24 1_555 1_555
C25 C24 1_555 1_555
H24 C25 1_555 1_555
C26 C25 1_555 1_555
H25 C26 1_555 1_555
C27 C26 1_555 1_555
H26 C27 1_555 1_555
C28 C23 1_555 1_555
H27 C28 1_555 1_555
C29 C22 1_555 1_555
C30 C29 1_555 1_555
H28 C30 1_555 1_555
C31 C30 1_555 1_555
H29 C31 1_555 1_555
C32 C31 1_555 1_555
H30 C32 1_555 1_555
C33 C32 1_555 1_555
H31 C33 1_555 1_555
C34 C29 1_555 1_555
H32 C34 1_555 1_555
C35 C36 1_555 1_555
C36 H33 1_555 1_555
C37 N3 1_555 1_555
H34 C37 1_555 1_555
C38 S2 1_555 1_555
C39 C38 1_555 1_555
H35 C39 1_555 1_555
H36 C39 1_555 1_555
C40 C39 1_555 1_555
C41 C40 1_555 1_555
H37 C41 1_555 1_555
C42 C41 1_555 1_555
H38 C42 1_555 1_555
C43 C42 1_555 1_555
H39 C43 1_555 1_555
C44 C43 1_555 1_555
H40 C44 1_555 1_555
C45 C40 1_555 1_555
H41 C45 1_555 1_555
C46 N3 1_555 1_555
C47 O6 1_555 1_555
C48 C47 1_555 1_555
H42 C48 1_555 1_555
H43 C48 1_555 1_555
H44 C48 1_555 1_555
C49 C46 1_555 1_555
C50 O8 1_555 1_555
H45 C50 1_555 1_555
C51 C50 1_555 1_555
C52 C51 1_555 1_555
H46 C52 1_555 1_555
C53 C52 1_555 1_555
H47 C53 1_555 1_555
C54 C53 1_555 1_555
H48 C54 1_555 1_555
C55 C54 1_555 1_555
H49 C55 1_555 1_555
C56 C51 1_555 1_555
H50 C56 1_555 1_555
C57 C50 1_555 1_555
C58 C57 1_555 1_555
H51 C58 1_555 1_555
C59 C58 1_555 1_555
H52 C59 1_555 1_555
C60 C59 1_555 1_555
H53 C60 1_555 1_555
C61 C60 1_555 1_555
H54 C61 1_555 1_555
C62 C57 1_555 1_555
H55 C62 1_555 1_555
N2 C4 1_555 1_555
N4 C38 1_555 1_555
C2 C3 1_555 1_555
C10 C11 1_555 1_555
C18 C19 1_555 1_555
C27 C28 1_555 1_555
C33 C34 1_555 1_555
C36 C37 1_555 1_555
C44 C45 1_555 1_555
C46 C47 1_555 1_555
C55 C56 1_555 1_555
C61 C62 1_555 1_555

#END
