
#######################################################################
#
#                 Cambridge Crystallographic Data Centre
#                                CCDC 
#
#######################################################################
#
# If this CIF has been generated from an entry in the Cambridge 
# Structural Database, then it will include bibliographic, chemical, 
# crystal, experimental, refinement or atomic coordinate data resulting 
# from the CCDC's data processing and validation procedures.
#
#######################################################################

data_LEXPUA
_chemical_formula_moiety         'C14 H13 N3 O3,H2 O1'
_chemical_name_systematic        
"N'-(4-Hydroxy-3-methoxybenzylidene)isonicotinohydrazide monohydrate"
_symmetry_cell_setting           monoclinic
_symmetry_space_group_name_H-M   'P 21/n'
_symmetry_Int_Tables_number      14
_space_group_name_Hall           '-P 2yn'
loop_
_symmetry_equiv_pos_site_id
_symmetry_equiv_pos_as_xyz
1 x,y,z
2 1/2-x,1/2+y,1/2-z
3 -x,-y,-z
4 1/2+x,1/2-y,1/2+z
_cell_length_a                   13.343(3)
_cell_length_b                   6.5277(13)
_cell_length_c                   16.005(3)
_cell_angle_alpha                90
_cell_angle_beta                 98.420(4)
_cell_angle_gamma                90
_cell_volume                     1379
_exptl_crystal_colour            colorless
_exptl_crystal_description       block
_chemical_melting_point          '492-495 K'
_cell_formula_units_Z            4
_exptl_crystal_recrystallization_method methanol/water
loop_
_atom_site_label
_atom_site_type_symbol
_atom_site_fract_x
_atom_site_fract_y
_atom_site_fract_z
O1 O 0.43809(10) 0.77106(19) 0.40493(10)
O2 O 1.06930(9) 0.8686(2) 0.31664(9)
H1 H 1.0776(18) 0.990(3) 0.3396(14)
O3 O 0.94522(9) 1.08280(18) 0.40071(8)
N1 N 0.18203(11) 0.2035(2) 0.37348(10)
N2 N 0.53408(10) 0.5008(2) 0.38051(10)
H2 H 0.5433(15) 0.373(3) 0.3804(12)
N3 N 0.61921(10) 0.6221(2) 0.37714(9)
C1 C 0.26915(14) 0.1321(3) 0.35493(14)
H3 H 0.2709 -0.0021 0.3357
C2 C 0.35733(14) 0.2450(3) 0.36242(14)
H4 H 0.4166 0.1863 0.3494
C3 C 0.35696(12) 0.4446(2) 0.38914(11)
C4 C 0.26716(14) 0.5203(3) 0.40934(14)
H5 H 0.2632 0.6542 0.4284
C5 C 0.18303(14) 0.3945(3) 0.40092(15)
H6 H 0.1233 0.4477 0.4155
C6 C 0.44677(13) 0.5868(3) 0.39315(11)
C7 C 0.69124(12) 0.5283(3) 0.34852(11)
H7 H 0.6811 0.3929 0.3314
C8 C 0.78864(12) 0.6241(3) 0.34154(11)
C9 C 0.81646(12) 0.8153(2) 0.37732(11)
H8 H 0.7723 0.8862 0.4067
C10 C 0.90944(12) 0.8982(2) 0.36891(10)
C11 C 0.97676(12) 0.7914(3) 0.32485(11)
C12 C 0.94930(13) 0.6032(3) 0.29006(11)
H9 H 0.9936 0.5316 0.2610
C13 C 0.85576(12) 0.5206(3) 0.29833(11)
H10 H 0.8377 0.3935 0.2745
C14 C 0.89027(14) 1.1798(3) 0.45948(12)
H11 H 0.8234 1.2134 0.4320
H12 H 0.9248 1.3028 0.4802
H13 H 0.8855 1.0887 0.5058
O4 O 0.60654(11) 0.0880(2) 0.43262(10)
H14 H 0.595(2) 0.106(4) 0.4841(13)
H15 H 0.5877(19) -0.032(3) 0.4252(16)
loop_
_geom_bond_atom_site_label_1
_geom_bond_atom_site_label_2
_geom_bond_site_symmetry_1
_geom_bond_site_symmetry_2
O1 C6 1_555 1_555
O2 H1 1_555 1_555
O3 C10 1_555 1_555
N1 C1 1_555 1_555
N2 H2 1_555 1_555
N3 N2 1_555 1_555
C1 H3 1_555 1_555
C2 C1 1_555 1_555
H4 C2 1_555 1_555
C3 C2 1_555 1_555
C4 C3 1_555 1_555
H5 C4 1_555 1_555
C5 N1 1_555 1_555
H6 C5 1_555 1_555
C6 N2 1_555 1_555
C7 N3 1_555 1_555
H7 C7 1_555 1_555
C8 C7 1_555 1_555
C9 C8 1_555 1_555
H8 C9 1_555 1_555
C10 C9 1_555 1_555
C11 O2 1_555 1_555
C12 C11 1_555 1_555
H9 C12 1_555 1_555
C13 C8 1_555 1_555
H10 C13 1_555 1_555
C14 O3 1_555 1_555
H11 C14 1_555 1_555
H12 C14 1_555 1_555
H13 C14 1_555 1_555
O4 H14 1_555 1_555
H15 O4 1_555 1_555
C3 C6 1_555 1_555
C4 C5 1_555 1_555
C10 C11 1_555 1_555
C12 C13 1_555 1_555

#END
