
#######################################################################
#
#                 Cambridge Crystallographic Data Centre
#                                CCDC 
#
#######################################################################
#
# If this CIF has been generated from an entry in the Cambridge 
# Structural Database, then it will include bibliographic, chemical, 
# crystal, experimental, refinement or atomic coordinate data resulting 
# from the CCDC's data processing and validation procedures.
#
#######################################################################

data_LEXQUC
_chemical_formula_moiety         'C8 H9 N2 O1 S1 1+,C3 H3 O4 1-,H2 O1'
_chemical_name_systematic        
'2-Amino-6-methoxy-1,3-benzothiazol-3-ium carboxyacetate monohydrate'
_symmetry_cell_setting           monoclinic
_symmetry_space_group_name_H-M   'P 21/n'
_symmetry_Int_Tables_number      14
_space_group_name_Hall           '-P 2yn'
loop_
_symmetry_equiv_pos_site_id
_symmetry_equiv_pos_as_xyz
1 x,y,z
2 1/2-x,1/2+y,1/2-z
3 -x,-y,-z
4 1/2+x,1/2-y,1/2+z
_cell_length_a                   4.749(3)
_cell_length_b                   14.967(9)
_cell_length_c                   19.134(11)
_cell_angle_alpha                90
_cell_angle_beta                 90.573(10)
_cell_angle_gamma                90
_cell_volume                     1359.94
_cell_formula_units_Z            4
loop_
_atom_site_label
_atom_site_type_symbol
_atom_site_fract_x
_atom_site_fract_y
_atom_site_fract_z
S1 S 0.57408(14) 0.73174(4) 0.13083(3)
C1 C 0.3954(5) 0.75357(15) 0.20754(11)
C2 C 0.6708(5) 0.87791(15) 0.19978(11)
C3 C 0.7903(5) 0.95842(15) 0.21721(11)
H1 H 0.7382 0.9882 0.2590
C4 C 0.9874(5) 0.99565(15) 0.17330(12)
H2 H 1.0695 1.0518 0.1845
C5 C 1.0661(5) 0.95129(16) 0.11274(12)
C6 C 0.9493(5) 0.86909(16) 0.09527(11)
H3 H 1.0032 0.8387 0.0539
C7 C 0.7542(5) 0.83324(15) 0.13945(11)
C8 C 1.3683(6) 1.06971(17) 0.07749(13)
H4 H 1.5035 1.0837 0.0407
H5 H 1.4633 1.0723 0.1232
H6 H 1.2144 1.1133 0.0762
N1 N 0.4673(4) 0.82997(12) 0.23625(9)
H7 H 0.3932 0.8494 0.2754
N2 N 0.2097(5) 0.69838(13) 0.23370(10)
H8 H 0.1245 0.7117 0.2730
H9 H 0.1703 0.6480 0.2120
O1 O 1.2580(4) 0.98274(12) 0.06658(9)
C9 C 0.6289(5) 0.82631(17) 0.47051(11)
C10 C 0.8657(5) 0.88089(16) 0.44019(12)
H10 H 1.0070 0.8911 0.4777
H11 H 0.7884 0.9400 0.4268
C11 C 1.0177(5) 0.84333(15) 0.37765(11)
O2 O 0.5843(4) 0.74776(12) 0.44381(9)
H12 H 0.6918 0.7400 0.4097
O3 O 0.4895(4) 0.85406(13) 0.51861(8)
O4 O 0.9426(4) 0.76869(10) 0.35345(8)
O5 O 1.2103(4) 0.88925(10) 0.35280(7)
O6 O 1.4027(4) 1.05959(11) 0.35690(8)
H13 H 1.3426 1.0063 0.3607
H14 H 1.4295 1.0808 0.3977
loop_
_geom_bond_atom_site_label_1
_geom_bond_atom_site_label_2
_geom_bond_site_symmetry_1
_geom_bond_site_symmetry_2
S1 C1 1_555 1_555
C1 N1 1_555 1_555
C2 C3 1_555 1_555
C3 H1 1_555 1_555
C4 C3 1_555 1_555
H2 C4 1_555 1_555
C5 C4 1_555 1_555
C6 C5 1_555 1_555
H3 C6 1_555 1_555
C7 S1 1_555 1_555
C8 H4 1_555 1_555
H5 C8 1_555 1_555
H6 C8 1_555 1_555
N1 C2 1_555 1_555
H7 N1 1_555 1_555
N2 C1 1_555 1_555
H8 N2 1_555 1_555
H9 N2 1_555 1_555
O1 C5 1_555 1_555
C9 C10 1_555 1_555
C10 H10 1_555 1_555
H11 C10 1_555 1_555
C11 C10 1_555 1_555
O2 C9 1_555 1_555
H12 O2 1_555 1_555
O3 C9 1_555 1_555
O4 C11 1_555 1_555
O5 C11 1_555 1_555
O6 H13 1_555 1_555
H14 O6 1_555 1_555
C2 C7 1_555 1_555
C6 C7 1_555 1_555
C8 O1 1_555 1_555

#END
