
#######################################################################
#
#                 Cambridge Crystallographic Data Centre
#                                CCDC 
#
#######################################################################
#
# If this CIF has been generated from an entry in the Cambridge 
# Structural Database, then it will include bibliographic, chemical, 
# crystal, experimental, refinement or atomic coordinate data resulting 
# from the CCDC's data processing and validation procedures.
#
#######################################################################

data_LEXREM
_chemical_formula_moiety         'C22 H34 N3 O3 3+,3(Br1 1-)'
_chemical_name_systematic        
'3,4:12,13-Dibenzo-5,8,11-trioxo-1,15,18-triazonia-3,12-cycloeicosadiene tribromide'
_symmetry_cell_setting           monoclinic
_symmetry_space_group_name_H-M   'P 21/c'
_symmetry_Int_Tables_number      14
_space_group_name_Hall           '-P 2ybc'
loop_
_symmetry_equiv_pos_site_id
_symmetry_equiv_pos_as_xyz
1 x,y,z
2 -x,1/2+y,1/2-z
3 -x,-y,-z
4 x,1/2-y,1/2+z
_cell_length_a                   10.051(2)
_cell_length_b                   19.697(4)
_cell_length_c                   12.750(3)
_cell_angle_alpha                90
_cell_angle_beta                 90.70(3)
_cell_angle_gamma                90
_cell_volume                     2523.99
_exptl_crystal_colour            colorless
_exptl_crystal_description       chunk
_chemical_melting_point          '513-514 K'
_cell_formula_units_Z            4
_exptl_crystal_recrystallization_method 'methanol/diethyl ether'
loop_
_atom_site_label
_atom_site_type_symbol
_atom_site_fract_x
_atom_site_fract_y
_atom_site_fract_z
Br1 Br 0.08804(3) 0.150432(13) 0.90351(2)
Br2 Br 0.67091(3) 0.186345(14) 0.73757(2)
Br3 Br 0.21646(3) 0.170541(13) 0.49400(2)
O1 O 0.38710(17) 0.43892(9) 0.62436(14)
O2 O 0.15256(19) 0.46122(9) 0.75571(14)
O3 O -0.06877(16) 0.45383(8) 0.89142(13)
N1 N 0.4365(2) 0.26622(11) 0.61357(16)
H1 H 0.3811 0.2336 0.5855
H2 H 0.5158 0.2454 0.6305
N2 N 0.1395(2) 0.25327(11) 0.70492(17)
H3 H 0.1639 0.2215 0.6558
H4 H 0.1462 0.2334 0.7700
N3 N -0.1102(2) 0.28164(10) 0.85940(16)
H5 H -0.0452 0.2524 0.8833
H6 H -0.1815 0.2559 0.8372
C1 C 0.5201(2) 0.43378(12) 0.60572(18)
C2 C 0.6123(2) 0.48527(13) 0.62560(19)
H7 H 0.5833 0.5278 0.6522
C3 C 0.7464(3) 0.47438(14) 0.60655(19)
H8 H 0.8089 0.5094 0.6214
C4 C 0.7898(2) 0.41341(14) 0.5664(2)
H9 H 0.8817 0.4060 0.5540
C5 C 0.6967(3) 0.36270(13) 0.5442(2)
H10 H 0.7261 0.3209 0.5155
C6 C 0.5623(2) 0.37183(12) 0.56299(18)
C7 C 0.4628(3) 0.31862(12) 0.5299(2)
H11 H 0.4958 0.2953 0.4665
H12 H 0.3779 0.3412 0.5108
C8 C 0.3760(3) 0.29161(14) 0.7126(2)
H13 H 0.4282 0.3310 0.7383
H14 H 0.3823 0.2555 0.7665
C9 C 0.2333(3) 0.31242(12) 0.7002(2)
H15 H 0.2213 0.3358 0.6321
H16 H 0.2109 0.3450 0.7564
C10 C -0.0014(3) 0.27373(13) 0.6850(2)
H17 H -0.0570 0.2323 0.6804
H18 H -0.0072 0.2971 0.6163
C11 C -0.0582(3) 0.32040(13) 0.7688(2)
H19 H 0.0122 0.3519 0.7936
H20 H -0.1310 0.3479 0.7376
C12 C -0.1534(3) 0.32636(12) 0.94900(19)
H21 H -0.1949 0.2975 1.0031
H22 H -0.0734 0.3476 0.9811
C13 C -0.2500(2) 0.38159(12) 0.91820(18)
C14 C -0.3867(3) 0.37096(14) 0.9208(2)
H23 H -0.4193 0.3267 0.9355
C15 C -0.4767(3) 0.42311(15) 0.9027(2)
H24 H -0.5698 0.4147 0.9032
C16 C -0.4283(3) 0.48789(14) 0.88377(19)
H25 H -0.4890 0.5243 0.8735
C17 C -0.2930(2) 0.50021(13) 0.87965(19)
H26 H -0.2611 0.5447 0.8663
C18 C -0.2037(2) 0.44693(12) 0.89522(17)
C19 C -0.0132(2) 0.51768(12) 0.85900(19)
H27 H -0.0266 0.5528 0.9134
H28 H -0.0554 0.5333 0.7927
C20 C 0.1327(2) 0.50437(13) 0.84382(19)
H29 H 0.1796 0.5479 0.8329
H30 H 0.1705 0.4827 0.9076
C21 C 0.1865(2) 0.49694(13) 0.66220(19)
H31 H 0.1447 0.5424 0.6629
H32 H 0.1513 0.4720 0.6005
C22 C 0.3349(2) 0.50451(12) 0.65295(19)
H33 H 0.3563 0.5386 0.5986
H34 H 0.3742 0.5196 0.7206
loop_
_geom_bond_atom_site_label_1
_geom_bond_atom_site_label_2
_geom_bond_site_symmetry_1
_geom_bond_site_symmetry_2
O1 C1 1_555 1_555
O2 C20 1_555 1_555
O3 C18 1_555 1_555
N1 H1 1_555 1_555
H2 N1 1_555 1_555
N2 H3 1_555 1_555
H4 N2 1_555 1_555
N3 H5 1_555 1_555
H6 N3 1_555 1_555
C1 C2 1_555 1_555
C2 H7 1_555 1_555
C3 C2 1_555 1_555
H8 C3 1_555 1_555
C4 C3 1_555 1_555
H9 C4 1_555 1_555
C5 C4 1_555 1_555
H10 C5 1_555 1_555
C6 C1 1_555 1_555
C7 N1 1_555 1_555
H11 C7 1_555 1_555
H12 C7 1_555 1_555
C8 N1 1_555 1_555
H13 C8 1_555 1_555
H14 C8 1_555 1_555
C9 N2 1_555 1_555
H15 C9 1_555 1_555
H16 C9 1_555 1_555
C10 N2 1_555 1_555
H17 C10 1_555 1_555
H18 C10 1_555 1_555
C11 N3 1_555 1_555
H19 C11 1_555 1_555
H20 C11 1_555 1_555
C12 N3 1_555 1_555
H21 C12 1_555 1_555
H22 C12 1_555 1_555
C13 C12 1_555 1_555
C14 C13 1_555 1_555
H23 C14 1_555 1_555
C15 C14 1_555 1_555
H24 C15 1_555 1_555
C16 C15 1_555 1_555
H25 C16 1_555 1_555
C17 C16 1_555 1_555
H26 C17 1_555 1_555
C18 C13 1_555 1_555
C19 O3 1_555 1_555
H27 C19 1_555 1_555
H28 C19 1_555 1_555
C20 C19 1_555 1_555
H29 C20 1_555 1_555
H30 C20 1_555 1_555
C21 O2 1_555 1_555
H31 C21 1_555 1_555
H32 C21 1_555 1_555
C22 O1 1_555 1_555
H33 C22 1_555 1_555
H34 C22 1_555 1_555
C5 C6 1_555 1_555
C6 C7 1_555 1_555
C8 C9 1_555 1_555
C10 C11 1_555 1_555
C17 C18 1_555 1_555
C21 C22 1_555 1_555

#END
