
#######################################################################
#
#                 Cambridge Crystallographic Data Centre
#                                CCDC 
#
#######################################################################
#
# If this CIF has been generated from an entry in the Cambridge 
# Structural Database, then it will include bibliographic, chemical, 
# crystal, experimental, refinement or atomic coordinate data resulting 
# from the CCDC's data processing and validation procedures.
#
#######################################################################

data_LEXTAL
_chemical_name_common            
'25,26,27,28-tetrakis((Carboxymethyl)oxy)-2,8,14,20-tetrathiacalix(4)arene acetone solvate monohydrate'
_chemical_formula_moiety         'C32 H24 O12 S4,C3 H6 O1,H2 O1'
_chemical_name_systematic        
"2,2',2'',2'''-(2,8,14,20-Tetrathiapentacyclo[19.3.1.1^3,7^.1^9,13^.1^15,19^]octacosa-1(25),3(28),4,6,9(27),10,12,15(26),16,18,21,23-dodecaene-25,26,27,28-tetrayltetrakis(oxy))tetraacetic acid acetone solvate monohydrate"
_symmetry_cell_setting           triclinic
_symmetry_space_group_name_H-M   'P -1'
_symmetry_Int_Tables_number      2
_space_group_name_Hall           '-P 1'
loop_
_symmetry_equiv_pos_site_id
_symmetry_equiv_pos_as_xyz
1 x,y,z
2 -x,-y,-z
_cell_length_a                   10.0799(16)
_cell_length_b                   10.1897(17)
_cell_length_c                   20.368(3)
_cell_angle_alpha                98.999(2)
_cell_angle_beta                 90.299(2)
_cell_angle_gamma                115.445(2)
_cell_volume                     1859.68
_exptl_crystal_colour            colorless
_exptl_crystal_description       block
_cell_formula_units_Z            2
loop_
_atom_site_label
_atom_site_type_symbol
_atom_site_fract_x
_atom_site_fract_y
_atom_site_fract_z
C1 C 0.8337(2) 0.5750(2) 0.31831(10)
C2 C 0.7852(2) 0.4546(3) 0.35114(11)
C3 C 0.8032(3) 0.4785(3) 0.42028(12)
H1 H 0.7696 0.3986 0.4426
C4 C 0.8706(3) 0.6198(3) 0.45579(12)
H2 H 0.8842 0.6349 0.5020
C5 C 0.9181(3) 0.7392(3) 0.42363(12)
H3 H 0.9636 0.8344 0.4482
C6 C 0.8986(2) 0.7185(3) 0.35471(11)
C7 C 0.9386(3) 0.5443(3) 0.21753(11)
H4 H 0.9536 0.4629 0.2294
H5 H 1.0273 0.6347 0.2323
C8 C 0.9093(3) 0.5214(4) 0.14358(13)
C9 C 0.8403(2) 0.8614(2) 0.25814(10)
C10 C 0.8747(3) 0.8749(3) 0.19270(12)
H6 H 0.9659 0.8826 0.1800
C11 C 0.7765(3) 0.8772(3) 0.14665(12)
H7 H 0.8022 0.8894 0.1035
C12 C 0.6402(3) 0.8614(3) 0.16446(11)
H8 H 0.5727 0.8604 0.1328
C13 C 0.6018(2) 0.8469(2) 0.22915(10)
C14 C 0.7044(2) 0.8516(2) 0.27674(10)
C15 C 0.7384(3) 0.9753(2) 0.38857(11)
H9 H 0.7771 1.0589 0.3655
H10 H 0.8200 0.9738 0.4133
C16 C 0.6312(3) 0.9904(3) 0.43513(10)
C17 C 0.3341(2) 0.6796(3) 0.28309(10)
C18 C 0.3162(2) 0.5414(2) 0.25122(9)
C19 C 0.2265(2) 0.4150(3) 0.27662(10)
C20 C 0.1558(2) 0.4305(3) 0.33381(12)
H11 H 0.0973 0.3475 0.3516
C21 C 0.1717(3) 0.5668(3) 0.36409(12)
H12 H 0.1223 0.5753 0.4018
C22 C 0.2595(2) 0.6902(3) 0.33935(11)
H13 H 0.2695 0.7821 0.3604
C23 C 0.3049(3) 0.5057(3) 0.13537(10)
H14 H 0.2769 0.5858 0.1358
H15 H 0.2157 0.4141 0.1313
C24 C 0.3939(3) 0.4992(3) 0.07748(11)
C25 C 0.3474(3) 0.2284(2) 0.21504(11)
C26 C 0.4566(2) 0.2562(2) 0.26436(10)
C27 C 0.5853(3) 0.2455(2) 0.24682(12)
C28 C 0.5993(3) 0.1987(3) 0.18036(13)
H16 H 0.6843 0.1896 0.1685
C29 C 0.4890(4) 0.1659(3) 0.13236(13)
H17 H 0.4980 0.1320 0.0883
C30 C 0.3650(3) 0.1830(3) 0.14920(12)
H18 H 0.2920 0.1640 0.1161
C31 C 0.3583(3) 0.1657(3) 0.35966(12)
H19 H 0.4047 0.0994 0.3514
H20 H 0.2589 0.1146 0.3382
C32 C 0.3508(3) 0.2023(3) 0.43270(11)
O1 O 0.81692(15) 0.55337(17) 0.24952(7)
O2 O 0.7877(2) 0.5185(3) 0.11994(8)
H21 H 0.7396 0.5296 0.1508
O3 O 0.9947(3) 0.5075(4) 0.10710(11)
O4 O 0.66683(16) 0.84159(16) 0.34129(7)
O5 O 0.5093(2) 0.8933(2) 0.43713(8)
O6 O 0.6868(2) 1.11990(18) 0.47473(8)
H22 H 0.6278 1.1222 0.5019
O7 O 0.38953(15) 0.52857(16) 0.19529(6)
O8 O 0.51895(18) 0.5183(2) 0.08201(8)
O9 O 0.3159(2) 0.4700(3) 0.02157(8)
H23 H 0.3670 0.4698 -0.0096
O10 O 0.43921(16) 0.29416(15) 0.33068(7)
O11 O 0.4539(2) 0.3284(2) 0.46094(8)
H24 H 0.4462 0.3400 0.5013
O12 O 0.2585(2) 0.1160(2) 0.46135(9)
S1 S 0.97965(6) 0.87596(7) 0.31584(3)
S2 S 0.42995(7) 0.84361(7) 0.25018(3)
S3 S 0.17853(7) 0.23407(7) 0.23382(3)
S4 S 0.72378(8) 0.27127(7) 0.30778(4)
C33 C 0.0429(6) 0.8167(7) -0.0018(4)
H25 H 0.0210 0.8876 0.0271
H26 H -0.0024 0.7231 0.0128
H27 H 0.0052 0.8065 -0.0466
C34 C 0.2014(5) 0.8664(5) 0.00037(17)
C35 C 0.2675(6) 0.7858(5) 0.0309(2)
H28 H 0.2329 0.6877 0.0058
H29 H 0.2402 0.7807 0.0759
H30 H 0.3728 0.8360 0.0313
O13 O 0.2791(4) 0.9746(4) -0.02101(17)
H31 H 0.506(4) 0.513(4) 0.3966(17)
H32 H 0.538(3) 0.652(4) 0.3904(15)
O14 O 0.5247(2) 0.5988(3) 0.41227(9)
loop_
_geom_bond_atom_site_label_1
_geom_bond_atom_site_label_2
_geom_bond_site_symmetry_1
_geom_bond_site_symmetry_2
C1 C2 1_555 1_555
C2 C3 1_555 1_555
C3 H1 1_555 1_555
C4 C3 1_555 1_555
H2 C4 1_555 1_555
C5 C4 1_555 1_555
H3 C5 1_555 1_555
C6 C1 1_555 1_555
C7 H4 1_555 1_555
H5 C7 1_555 1_555
C8 C7 1_555 1_555
C9 C10 1_555 1_555
C10 H6 1_555 1_555
C11 C10 1_555 1_555
H7 C11 1_555 1_555
C12 C11 1_555 1_555
H8 C12 1_555 1_555
C13 C12 1_555 1_555
C14 C9 1_555 1_555
C15 H9 1_555 1_555
H10 C15 1_555 1_555
C16 C15 1_555 1_555
C17 C18 1_555 1_555
C18 C19 1_555 1_555
C19 C20 1_555 1_555
C20 H11 1_555 1_555
C21 C20 1_555 1_555
H12 C21 1_555 1_555
C22 C17 1_555 1_555
H13 C22 1_555 1_555
C23 H14 1_555 1_555
H15 C23 1_555 1_555
C24 C23 1_555 1_555
C25 C26 1_555 1_555
C26 C27 1_555 1_555
C27 C28 1_555 1_555
C28 H16 1_555 1_555
C29 C28 1_555 1_555
H17 C29 1_555 1_555
C30 C25 1_555 1_555
H18 C30 1_555 1_555
C31 H19 1_555 1_555
H20 C31 1_555 1_555
C32 C31 1_555 1_555
O1 C1 1_555 1_555
O2 C8 1_555 1_555
H21 O2 1_555 1_555
O3 C8 1_555 1_555
O4 C14 1_555 1_555
O5 C16 1_555 1_555
O6 C16 1_555 1_555
H22 O6 1_555 1_555
O7 C18 1_555 1_555
O8 C24 1_555 1_555
O9 C24 1_555 1_555
H23 O9 1_555 1_555
O10 C26 1_555 1_555
O11 C32 1_555 1_555
H24 O11 1_555 1_555
O12 C32 1_555 1_555
S1 C6 1_555 1_555
S2 C13 1_555 1_555
S3 C19 1_555 1_555
S4 C2 1_555 1_555
C33 H25 1_555 1_555
H26 C33 1_555 1_555
H27 C33 1_555 1_555
C34 C33 1_555 1_555
C35 C34 1_555 1_555
H28 C35 1_555 1_555
H29 C35 1_555 1_555
H30 C35 1_555 1_555
O13 C34 1_555 1_555
H31 O14 1_555 1_555
H32 O14 1_555 1_555
C5 C6 1_555 1_555
C7 O1 1_555 1_555
C9 S1 1_555 1_555
C13 C14 1_555 1_555
C15 O4 1_555 1_555
C17 S2 1_555 1_555
C21 C22 1_555 1_555
C23 O7 1_555 1_555
C25 S3 1_555 1_555
C27 S4 1_555 1_555
C29 C30 1_555 1_555
C31 O10 1_555 1_555

#END
