
#######################################################################
#
#                 Cambridge Crystallographic Data Centre
#                                CCDC 
#
#######################################################################
#
# If this CIF has been generated from an entry in the Cambridge 
# Structural Database, then it will include bibliographic, chemical, 
# crystal, experimental, refinement or atomic coordinate data resulting 
# from the CCDC's data processing and validation procedures.
#
#######################################################################

data_LEXXAN
_chemical_formula_moiety         'C26 H54 N7 P3 S3'
_chemical_name_systematic        
1,3-bis(N,N-Diethylthiophosphondiamide)-2-thio-2-diethylaminobenzotriphosphazane
_symmetry_cell_setting           orthorhombic
_symmetry_space_group_name_H-M   'A b a 2'
_symmetry_Int_Tables_number      41
_space_group_name_Hall           'A 2 -2ab'
loop_
_symmetry_equiv_pos_site_id
_symmetry_equiv_pos_as_xyz
1 x,y,z
2 x,1/2+y,1/2+z
3 1/2-x,1/2+y,z
4 1/2-x,y,1/2+z
5 1/2+x,1/2-y,z
6 1/2+x,-y,1/2+z
7 -x,-y,z
8 -x,1/2-y,1/2+z
_cell_length_a                   23.111(4)
_cell_length_b                   21.324(5)
_cell_length_c                   14.609(3)
_cell_angle_alpha                90
_cell_angle_beta                 90
_cell_angle_gamma                90
_cell_volume                     7199.59
_exptl_crystal_colour            colorless
_cell_formula_units_Z            8
loop_
_atom_site_label
_atom_site_type_symbol
_atom_site_fract_x
_atom_site_fract_y
_atom_site_fract_z
S1 S 0.2393(1) 0.8806(1) 0.1474(1)
S2 S 0.1046(1) 0.7828(1) 0.1084(1)
S3 S 0.1296(1) 0.5838(1) 0.3668(1)
P1 P 0.1875(1) 0.8913(1) 0.2501(1)
P2 P 0.1508(1) 0.7599(1) 0.2125(1)
P3 P 0.0910(1) 0.6402(1) 0.2828(1)
N1 N 0.1632(1) 0.8201(2) 0.2903(2)
N2 N 0.1177(1) 0.7151(2) 0.2937(2)
N3 N 0.2165(2) 0.9224(2) 0.3432(2)
N4 N 0.1312(2) 0.9344(2) 0.2254(3)
N5 N 0.2107(2) 0.7243(2) 0.1868(3)
N6 N 0.0221(1) 0.6514(2) 0.3070(3)
N7 N 0.0982(2) 0.6183(2) 0.1753(3)
C1 C 0.1388(2) 0.8059(2) 0.3783(3)
C2 C 0.1143(2) 0.7462(2) 0.3805(3)
C3 C 0.0906(2) 0.7234(2) 0.4600(3)
C4 C 0.0899(2) 0.7600(3) 0.5371(3)
C5 C 0.1133(2) 0.8200(2) 0.5354(3)
C6 C 0.1379(2) 0.8426(2) 0.4560(3)
C7 C 0.2604(2) 0.8867(2) 0.3929(4)
C8 C 0.3230(2) 0.8968(3) 0.3655(5)
C9 C 0.2260(2) 0.9910(2) 0.3422(3)
C10 C 0.2194(3) 1.0185(3) 0.4359(4)
C11 C 0.0854(3) 0.9467(3) 0.2936(4)
C12 C 0.0317(3) 0.9081(3) 0.2793(6)
C13 C 0.1198(3) 0.9588(3) 0.1331(4)
C14 C 0.1323(4) 1.0273(3) 0.1223(5)
C15 C 0.2391(3) 0.7303(3) 0.0944(4)
C16 C 0.2508(4) 0.6731(3) 0.0485(6)
C17 C 0.2501(3) 0.7058(4) 0.2646(5)
C18 C 0.3031(5) 0.7248(6) 0.2704(8)
C19 C -0.0108(2) 0.7073(2) 0.2789(4)
C20 C -0.0458(2) 0.7377(3) 0.3518(5)
C21 C -0.0133(2) 0.5954(2) 0.3292(4)
C22 C -0.0229(2) 0.5860(3) 0.4297(4)
C23 C 0.0512(3) 0.6290(3) 0.1097(4)
C24 C 0.0649(4) 0.6257(5) 0.0141(5)
C25 C 0.1399(2) 0.5695(2) 0.1506(4)
C26 C 0.1156(3) 0.5035(3) 0.1518(5)
H1 H 0.0745 0.6819 0.4616
H2 H 0.0731 0.7441 0.5925
H3 H 0.1124 0.8457 0.5894
H4 H 0.1545 0.8839 0.4548
H5 H 0.2570 0.8973 0.4565
H6 H 0.2519 0.8430 0.3846
H7 H 0.3476 0.8709 0.4026
H8 H 0.3331 0.9400 0.3742
H9 H 0.3280 0.8858 0.3023
H10 H 0.2644 0.9994 0.3203
H11 H 0.1983 1.0101 0.3020
H12 H 0.2258 1.0629 0.4332
H13 H 0.2472 0.9998 0.4765
H14 H 0.1811 1.0104 0.4582
H15 H 0.1005 0.9374 0.3533
H16 H 0.0751 0.9902 0.2904
H17 H 0.0038 0.9182 0.3256
H18 H 0.0412 0.8643 0.2830
H19 H 0.0157 0.9171 0.2200
H20 H 0.1435 0.9361 0.0904
H21 H 0.0797 0.9518 0.1191
H22 H 0.1238 1.0400 0.0607
H23 H 0.1723 1.0351 0.1354
H24 H 0.1086 1.0508 0.1640
H25 H 0.2752 0.7519 0.1027
H26 H 0.2142 0.7548 0.0560
H27 H 0.2688 0.6817 -0.0093
H28 H 0.2152 0.6509 0.0386
H29 H 0.2762 0.6479 0.0852
H30 H 0.2251 0.7104 0.3166
H31 H 0.3039 0.7697 0.2737
H32 H 0.3241 0.7112 0.2173
H33 H 0.3206 0.7075 0.3243
H34 H 0.0162 0.7377 0.2562
H35 H -0.0367 0.6951 0.2306
H36 H -0.0656 0.7735 0.3270
H37 H -0.0208 0.7510 0.4006
H38 H -0.0737 0.7084 0.3750
H39 H -0.0503 0.5998 0.3001
H40 H 0.0060 0.5590 0.3054
H41 H -0.0460 0.5491 0.4392
H42 H -0.0426 0.6217 0.4546
H43 H 0.0137 0.5810 0.4599
H44 H 0.0359 0.6700 0.1214
H45 H 0.0219 0.5981 0.1215
H46 H 0.0306 0.6335 -0.0212
H47 H 0.0796 0.5848 -0.0003
H48 H 0.0936 0.6567 -0.0003
H49 H 0.1539 0.5781 0.0900
H50 H 0.1716 0.5713 0.1932
H51 H 0.1453 0.4742 0.1350
H52 H 0.0841 0.5006 0.1090
H53 H 0.1018 0.4938 0.2122
C27? C 0.2880(8) 0.6619(7) 0.2644(11)
H54? H 0.2286 0.7141 0.2096
H55? H 0.2691 0.6219 0.2599
H56? H 0.3099 0.6636 0.3201
H57? H 0.3134 0.6673 0.2131
loop_
_geom_bond_atom_site_label_1
_geom_bond_atom_site_label_2
_geom_bond_site_symmetry_1
_geom_bond_site_symmetry_2
S1 P1 1_555 1_555
S2 P2 1_555 1_555
S3 P3 1_555 1_555
P1 N1 1_555 1_555
P2 N1 1_555 1_555
P3 N2 1_555 1_555
N1 C1 1_555 1_555
N2 P2 1_555 1_555
N3 P1 1_555 1_555
N4 P1 1_555 1_555
N5 P2 1_555 1_555
N6 P3 1_555 1_555
N7 P3 1_555 1_555
C1 C2 1_555 1_555
C2 N2 1_555 1_555
C3 C2 1_555 1_555
C4 C3 1_555 1_555
C5 C4 1_555 1_555
C6 C1 1_555 1_555
C7 N3 1_555 1_555
C8 C7 1_555 1_555
C9 N3 1_555 1_555
C10 C9 1_555 1_555
C11 N4 1_555 1_555
C12 C11 1_555 1_555
C13 N4 1_555 1_555
C14 C13 1_555 1_555
C15 N5 1_555 1_555
C16 C15 1_555 1_555
C17 N5 1_555 1_555
C18 C17 1_555 1_555
C19 N6 1_555 1_555
C20 C19 1_555 1_555
C21 N6 1_555 1_555
C22 C21 1_555 1_555
C23 N7 1_555 1_555
C24 C23 1_555 1_555
C25 N7 1_555 1_555
C26 C25 1_555 1_555
H1 C3 1_555 1_555
H2 C4 1_555 1_555
H3 C5 1_555 1_555
H4 C6 1_555 1_555
H5 C7 1_555 1_555
H6 C7 1_555 1_555
H7 C8 1_555 1_555
H8 C8 1_555 1_555
H9 C8 1_555 1_555
H10 C9 1_555 1_555
H11 C9 1_555 1_555
H12 C10 1_555 1_555
H13 C10 1_555 1_555
H14 C10 1_555 1_555
H15 C11 1_555 1_555
H16 C11 1_555 1_555
H17 C12 1_555 1_555
H18 C12 1_555 1_555
H19 C12 1_555 1_555
H20 C13 1_555 1_555
H21 C13 1_555 1_555
H22 C14 1_555 1_555
H23 C14 1_555 1_555
H24 C14 1_555 1_555
H25 C15 1_555 1_555
H26 C15 1_555 1_555
H27 C16 1_555 1_555
H28 C16 1_555 1_555
H29 C16 1_555 1_555
H30 C17 1_555 1_555
H31 C18 1_555 1_555
H32 C18 1_555 1_555
H33 C18 1_555 1_555
H34 C19 1_555 1_555
H35 C19 1_555 1_555
H36 C20 1_555 1_555
H37 C20 1_555 1_555
H38 C20 1_555 1_555
H39 C21 1_555 1_555
H40 C21 1_555 1_555
H41 C22 1_555 1_555
H42 C22 1_555 1_555
H43 C22 1_555 1_555
H44 C23 1_555 1_555
H45 C23 1_555 1_555
H46 C24 1_555 1_555
H47 C24 1_555 1_555
H48 C24 1_555 1_555
H49 C25 1_555 1_555
H50 C25 1_555 1_555
H51 C26 1_555 1_555
H52 C26 1_555 1_555
H53 C26 1_555 1_555
C5 C6 1_555 1_555

#END
