
#######################################################################
#
#                 Cambridge Crystallographic Data Centre
#                                CCDC 
#
#######################################################################
#
# If this CIF has been generated from an entry in the Cambridge 
# Structural Database, then it will include bibliographic, chemical, 
# crystal, experimental, refinement or atomic coordinate data resulting 
# from the CCDC's data processing and validation procedures.
#
#######################################################################

data_LEXYAR
_chemical_formula_moiety         'C20 H12 O2 S1'
_chemical_name_systematic        
3-methyl-8H-thieno[2',3':3,4]naphtho[2,1-c][1]benzopyran-8-one
_symmetry_cell_setting           orthorhombic
_symmetry_space_group_name_H-M   'P b c a'
_symmetry_Int_Tables_number      61
_space_group_name_Hall           '-P 2ac 2ab'
loop_
_symmetry_equiv_pos_site_id
_symmetry_equiv_pos_as_xyz
1 x,y,z
2 1/2-x,-y,1/2+z
3 -x,1/2+y,1/2-z
4 1/2+x,1/2-y,-z
5 -x,-y,-z
6 1/2+x,y,1/2-z
7 x,1/2-y,1/2+z
8 1/2-x,1/2+y,z
_cell_length_a                   7.9342(17)
_cell_length_b                   16.527(4)
_cell_length_c                   21.431(5)
_cell_angle_alpha                90
_cell_angle_beta                 90
_cell_angle_gamma                90
_cell_volume                     2810.22
_exptl_crystal_colour            yellow
_exptl_crystal_description       block
_cell_formula_units_Z            8
loop_
_atom_site_label
_atom_site_type_symbol
_atom_site_fract_x
_atom_site_fract_y
_atom_site_fract_z
S1 S 0.18108(6) 0.08334(3) 0.24829(2)
O1 O 0.39495(19) 0.20772(8) 0.41736(6)
O2 O 0.2419(2) 0.11273(9) 0.37333(7)
C1 C 0.3400(2) 0.21659(11) 0.30641(8)
C2 C 0.4022(2) 0.28167(10) 0.18588(8)
C3 C 0.3131(2) 0.20667(11) 0.19246(8)
C4 C 0.4692(2) 0.33034(11) 0.36086(8)
C5 C 0.4639(3) 0.28455(12) 0.41571(8)
C6 C 0.4238(2) 0.29068(11) 0.30177(8)
C7 C 0.4337(2) 0.31417(11) 0.12599(8)
H1 H 0.3875 0.2876 0.0906
C8 C 0.5987(2) 0.41928(10) 0.17058(8)
H2 H 0.6691 0.4653 0.1657
C9 C 0.4632(2) 0.32212(10) 0.24015(8)
C10 C 0.5285(2) 0.38257(10) 0.11706(8)
C11 C 0.5238(3) 0.31214(14) 0.47273(9)
H3 H 0.5261 0.2771 0.5078
C12 C 0.2835(3) 0.17570(10) 0.25182(8)
C13 C 0.5682(2) 0.39035(11) 0.22929(9)
C14 C 0.5799(3) 0.39075(14) 0.47808(9)
H4 H 0.6262 0.4099 0.5162
C15 C 0.5629(3) 0.41697(12) 0.05346(9)
H5 H 0.6774 0.4024 0.0405
H6 H 0.5522 0.4760 0.0549
H7 H 0.4816 0.3949 0.0235
C16 C 0.5675(3) 0.44148(13) 0.42647(9)
H8 H 0.5968 0.4970 0.4305
C17 C 0.5132(3) 0.41253(11) 0.36946(9)
C18 C 0.3171(3) 0.17540(12) 0.36620(9)
C19 C 0.1809(3) 0.08664(11) 0.16793(10)
H9 H 0.1345 0.0450 0.1427
C20 C 0.2531(3) 0.15400(11) 0.14426(9)
H10 H 0.2629 0.1651 0.1009
H11 H 0.628(3) 0.4172(13) 0.2640(11)
H12 H 0.500(3) 0.4502(12) 0.3345(10)
loop_
_geom_bond_atom_site_label_1
_geom_bond_atom_site_label_2
_geom_bond_site_symmetry_1
_geom_bond_site_symmetry_2
S1 C12 1_555 1_555
O1 C5 1_555 1_555
O2 C18 1_555 1_555
C1 C6 1_555 1_555
C2 C3 1_555 1_555
C3 C12 1_555 1_555
C4 C5 1_555 1_555
C5 C11 1_555 1_555
C6 C4 1_555 1_555
C7 C2 1_555 1_555
H1 C7 1_555 1_555
C8 H2 1_555 1_555
C9 C2 1_555 1_555
C10 C7 1_555 1_555
C11 H3 1_555 1_555
C12 C1 1_555 1_555
C13 C8 1_555 1_555
C14 C11 1_555 1_555
H4 C14 1_555 1_555
C15 C10 1_555 1_555
H5 C15 1_555 1_555
H6 C15 1_555 1_555
H7 C15 1_555 1_555
C16 C14 1_555 1_555
H8 C16 1_555 1_555
C17 C4 1_555 1_555
C18 O1 1_555 1_555
C19 S1 1_555 1_555
H9 C19 1_555 1_555
C20 C3 1_555 1_555
H10 C20 1_555 1_555
H11 C13 1_555 1_555
H12 C17 1_555 1_555
C1 C18 1_555 1_555
C6 C9 1_555 1_555
C8 C10 1_555 1_555
C9 C13 1_555 1_555
C16 C17 1_555 1_555
C19 C20 1_555 1_555

#END
