
#######################################################################
#
#                 Cambridge Crystallographic Data Centre
#                                CCDC 
#
#######################################################################
#
# If this CIF has been generated from an entry in the Cambridge 
# Structural Database, then it will include bibliographic, chemical, 
# crystal, experimental, refinement or atomic coordinate data resulting 
# from the CCDC's data processing and validation procedures.
#
#######################################################################

data_LEXZIZ
_chemical_formula_moiety         'C36 H31 N1 O1 S1'
_chemical_name_systematic        
(E)-1-(7-(Diphenylamino)-9,9-diethyl-9H-fluoren-2-yl)-3-(2-thienyl)prop-2-en-1-one
_symmetry_cell_setting           triclinic
_symmetry_space_group_name_H-M   'P -1'
_symmetry_Int_Tables_number      2
_space_group_name_Hall           '-P 1'
loop_
_symmetry_equiv_pos_site_id
_symmetry_equiv_pos_as_xyz
1 x,y,z
2 -x,-y,-z
_cell_length_a                   9.3797(6)
_cell_length_b                   10.4703(6)
_cell_length_c                   15.9304(10)
_cell_angle_alpha                79.5150(10)
_cell_angle_beta                 78.4040(10)
_cell_angle_gamma                67.3940(10)
_cell_volume                     1405.3
_exptl_crystal_colour            yellow
_exptl_crystal_description       prism
_cell_formula_units_Z            2
loop_
_atom_site_label
_atom_site_type_symbol
_atom_site_fract_x
_atom_site_fract_y
_atom_site_fract_z
S1 S 0.21326(5) 0.31621(5) 0.06983(3)
O1 O -0.37098(15) 0.36331(15) 0.04611(9)
N1 N -0.36434(18) -0.18038(16) -0.42933(9)
C1 C -0.2634(2) -0.20826(19) -0.50916(11)
C2 C -0.2062(2) -0.3382(2) -0.53866(13)
H1 H -0.2344 -0.4123 -0.5056
C3 C -0.1074(2) -0.3592(2) -0.61696(13)
H2 H -0.0696 -0.4477 -0.6375
C4 C -0.0636(2) -0.2529(2) -0.66498(13)
H3 H 0.0035 -0.2680 -0.7184
C5 C -0.1182(2) -0.1246(2) -0.63478(13)
H4 H -0.0873 -0.0515 -0.6672
C6 C -0.2178(2) -0.1019(2) -0.55732(12)
H5 H -0.2550 -0.0133 -0.5371
C7 C -0.4810(2) -0.23871(18) -0.40042(11)
C8 C -0.5567(2) -0.26420(19) -0.45896(12)
H6 H -0.5284 -0.2439 -0.5192
C9 C -0.6736(2) -0.3193(2) -0.42934(13)
H7 H -0.7233 -0.3378 -0.4697
C10 C -0.7182(2) -0.34763(19) -0.34187(13)
H8 H -0.7985 -0.3847 -0.3220
C11 C -0.6447(2) -0.32126(19) -0.28385(13)
H9 H -0.6754 -0.3396 -0.2237
C12 C -0.5261(2) -0.26825(19) -0.31229(12)
H10 H -0.4755 -0.2520 -0.2715
C13 C -0.3167(2) -0.12306(18) -0.36953(11)
C14 C -0.4244(2) -0.01036(18) -0.32738(11)
H11 H -0.5286 0.0316 -0.3397
C15 C -0.3758(2) 0.03879(18) -0.26722(11)
C16 C -0.4680(2) 0.16015(18) -0.21415(11)
C17 C -0.5141(2) 0.29999(18) -0.27331(11)
H12 H -0.5850 0.2987 -0.3113
H13 H -0.5731 0.3761 -0.2368
C18 C -0.3781(2) 0.3333(2) -0.32958(12)
H14 H -0.3204 0.2603 -0.3675
H15 H -0.3084 0.3377 -0.2928
H16 H -0.4181 0.4232 -0.3646
C19 C -0.6170(2) 0.14480(19) -0.15888(11)
H17 H -0.6628 0.2191 -0.1202
H18 H -0.6936 0.1599 -0.1977
C20 C -0.5929(2) 0.0047(2) -0.10409(13)
H19 H -0.5183 -0.0112 -0.0647
H20 H -0.5522 -0.0696 -0.1417
H21 H -0.6928 0.0049 -0.0706
C21 C -0.3465(2) 0.15212(18) -0.15995(11)
C22 C -0.3593(2) 0.23378(18) -0.09778(11)
H22 H -0.4567 0.3032 -0.0802
C23 C -0.2264(2) 0.21324(18) -0.06057(11)
C24 C -0.0842(2) 0.11034(18) -0.08724(11)
H23 H 0.0057 0.0983 -0.0632
C25 C -0.0712(2) 0.02559(19) -0.14795(11)
H24 H 0.0253 -0.0458 -0.1643
C26 C -0.2025(2) 0.04746(17) -0.18429(11)
C27 C -0.2215(2) -0.02258(18) -0.25016(11)
C28 C -0.1138(2) -0.13256(19) -0.29334(12)
H25 H -0.0088 -0.1727 -0.2822
C29 C -0.1625(2) -0.18253(19) -0.35301(12)
H26 H -0.0904 -0.2578 -0.3829
C30 C -0.2423(2) 0.30038(19) 0.00784(11)
C31 C -0.1004(2) 0.30862(19) 0.02858(11)
H27 H -0.0012 0.2525 0.0020
C32 C -0.1080(2) 0.39373(18) 0.08432(11)
H28 H -0.2092 0.4488 0.1093
C33 C 0.0225(2) 0.40937(18) 0.10972(11)
C34 C 0.0165(2) 0.49863(18) 0.16754(11)
H29 H -0.0771 0.5589 0.1967
C35 C 0.1691(2) 0.4867(2) 0.17658(12)
H30 H 0.1886 0.5388 0.2130
C36 C 0.2843(2) 0.3935(2) 0.12792(12)
H31 H 0.3924 0.3737 0.1265
loop_
_geom_bond_atom_site_label_1
_geom_bond_atom_site_label_2
_geom_bond_site_symmetry_1
_geom_bond_site_symmetry_2
S1 C33 1_555 1_555
O1 C30 1_555 1_555
N1 C1 1_555 1_555
C1 C2 1_555 1_555
C2 H1 1_555 1_555
C3 C2 1_555 1_555
H2 C3 1_555 1_555
C4 C3 1_555 1_555
H3 C4 1_555 1_555
C5 C4 1_555 1_555
H4 C5 1_555 1_555
C6 C1 1_555 1_555
H5 C6 1_555 1_555
C7 N1 1_555 1_555
C8 C7 1_555 1_555
H6 C8 1_555 1_555
C9 C8 1_555 1_555
H7 C9 1_555 1_555
C10 C9 1_555 1_555
H8 C10 1_555 1_555
C11 C10 1_555 1_555
H9 C11 1_555 1_555
C12 C7 1_555 1_555
H10 C12 1_555 1_555
C13 N1 1_555 1_555
C14 C13 1_555 1_555
H11 C14 1_555 1_555
C15 C14 1_555 1_555
C16 C15 1_555 1_555
C17 C16 1_555 1_555
H12 C17 1_555 1_555
H13 C17 1_555 1_555
C18 C17 1_555 1_555
H14 C18 1_555 1_555
H15 C18 1_555 1_555
H16 C18 1_555 1_555
C19 C16 1_555 1_555
H17 C19 1_555 1_555
H18 C19 1_555 1_555
C20 C19 1_555 1_555
H19 C20 1_555 1_555
H20 C20 1_555 1_555
H21 C20 1_555 1_555
C21 C16 1_555 1_555
C22 C21 1_555 1_555
H22 C22 1_555 1_555
C23 C22 1_555 1_555
C24 C23 1_555 1_555
H23 C24 1_555 1_555
C25 C24 1_555 1_555
H24 C25 1_555 1_555
C26 C21 1_555 1_555
C27 C15 1_555 1_555
C28 C27 1_555 1_555
H25 C28 1_555 1_555
C29 C13 1_555 1_555
H26 C29 1_555 1_555
C30 C23 1_555 1_555
C31 C30 1_555 1_555
H27 C31 1_555 1_555
C32 C31 1_555 1_555
H28 C32 1_555 1_555
C33 C32 1_555 1_555
C34 C33 1_555 1_555
H29 C34 1_555 1_555
C35 C34 1_555 1_555
H30 C35 1_555 1_555
C36 S1 1_555 1_555
H31 C36 1_555 1_555
C5 C6 1_555 1_555
C11 C12 1_555 1_555
C25 C26 1_555 1_555
C26 C27 1_555 1_555
C28 C29 1_555 1_555
C35 C36 1_555 1_555

#END
