
#######################################################################
#
#                 Cambridge Crystallographic Data Centre
#                                CCDC 
#
#######################################################################
#
# If this CIF has been generated from an entry in the Cambridge 
# Structural Database, then it will include bibliographic, chemical, 
# crystal, experimental, refinement or atomic coordinate data resulting 
# from the CCDC's data processing and validation procedures.
#
#######################################################################

data_LEXZEW
_chemical_name_common            'N,N-bis(diphenylphosphine oxide)hydrazine'
_chemical_formula_moiety         'C24 H22 N2 O2 P2'
_chemical_name_systematic        
'N-(diphenylphosphoryl)-P,P-diphenylphosphinic hydrazide'
_symmetry_cell_setting           triclinic
_symmetry_space_group_name_H-M   'P -1'
_symmetry_Int_Tables_number      2
_space_group_name_Hall           '-P 1'
loop_
_symmetry_equiv_pos_site_id
_symmetry_equiv_pos_as_xyz
1 x,y,z
2 -x,-y,-z
_cell_length_a                   8.6901(5)
_cell_length_b                   10.1547(5)
_cell_length_c                   12.6282(7)
_cell_angle_alpha                71.352(4)
_cell_angle_beta                 84.442(4)
_cell_angle_gamma                81.817(4)
_cell_volume                     1043.56
_exptl_crystal_colour            colorless
_exptl_crystal_description       prism
_cell_formula_units_Z            2
loop_
_atom_site_label
_atom_site_type_symbol
_atom_site_fract_x
_atom_site_fract_y
_atom_site_fract_z
C1 C 0.89750(13) 0.48325(12) 0.26480(10)
C2 C 0.77523(15) 0.55487(13) 0.19719(11)
H1 H 0.7771 0.5531 0.1223
C3 C 0.65113(16) 0.62857(15) 0.23907(12)
H2 H 0.5681 0.6775 0.1928
C4 C 0.64754(17) 0.63124(15) 0.34843(13)
H3 H 0.5619 0.6814 0.3771
C5 C 0.76835(17) 0.56106(16) 0.41553(12)
H4 H 0.7660 0.5630 0.4904
C6 C 0.89352(16) 0.48747(14) 0.37381(11)
H5 H 0.9769 0.4398 0.4201
C7 C 1.20749(13) 0.32186(12) 0.29927(10)
C8 C 1.35584(14) 0.36535(13) 0.27120(10)
H6 H 1.3740 0.4382 0.2037
C9 C 1.47602(14) 0.30254(14) 0.34133(12)
H7 H 1.5761 0.3337 0.3228
C10 C 1.45090(15) 0.19430(14) 0.43856(11)
H8 H 1.5346 0.1495 0.4854
C11 C 1.30418(16) 0.15118(14) 0.46774(11)
H9 H 1.2871 0.0776 0.5350
C12 C 1.18228(14) 0.21521(13) 0.39899(10)
H10 H 1.0814 0.1865 0.4197
C13 C 1.01250(14) -0.02059(12) 0.25987(10)
C14 C 1.08887(15) -0.08649(13) 0.35836(10)
H11 H 1.0739 -0.0463 0.4175
C15 C 1.18663(16) -0.21031(14) 0.37088(12)
H12 H 1.2391 -0.2543 0.4381
C16 C 1.20760(17) -0.26968(15) 0.28517(14)
H13 H 1.2745 -0.3545 0.2936
C17 C 1.13138(19) -0.20583(16) 0.18727(13)
H14 H 1.1457 -0.2473 0.1289
C18 C 1.03422(17) -0.08176(14) 0.17395(11)
H15 H 0.9823 -0.0382 0.1064
C19 C 0.72636(14) 0.14265(13) 0.17142(10)
C20 C 0.64662(18) 0.02528(17) 0.20351(13)
H16 H 0.6832 -0.0558 0.2616
C21 C 0.51300(19) 0.0271(2) 0.15020(16)
H17 H 0.4577 -0.0525 0.1725
C22 C 0.46105(17) 0.1442(2) 0.06523(15)
H18 H 0.3717 0.1442 0.0275
C23 C 0.53780(18) 0.26136(19) 0.03472(13)
H19 H 0.4994 0.3428 -0.0225
C24 C 0.67102(15) 0.26122(15) 0.08710(11)
H20 H 0.7243 0.3420 0.0653
N1 N 0.98664(11) 0.27181(10) 0.16766(8)
N2 N 1.03825(14) 0.24976(12) 0.06221(9)
O1 O 1.12316(11) 0.49585(9) 0.09599(7)
O2 O 0.84523(10) 0.16030(9) 0.36001(7)
P1 P 1.05904(3) 0.39960(3) 0.20082(2)
P2 P 0.88965(3) 0.14098(3) 0.24925(2)
H21 H 1.0080(19) 0.3320(18) 0.0093(14)
H22 H 1.146(2) 0.2365(19) 0.0615(15)
loop_
_geom_bond_atom_site_label_1
_geom_bond_atom_site_label_2
_geom_bond_site_symmetry_1
_geom_bond_site_symmetry_2
C1 C2 1_555 1_555
C2 H1 1_555 1_555
C3 C2 1_555 1_555
H2 C3 1_555 1_555
C4 C3 1_555 1_555
H3 C4 1_555 1_555
C5 C4 1_555 1_555
H4 C5 1_555 1_555
C6 C1 1_555 1_555
H5 C6 1_555 1_555
C7 C8 1_555 1_555
C8 H6 1_555 1_555
C9 C8 1_555 1_555
H7 C9 1_555 1_555
C10 C9 1_555 1_555
H8 C10 1_555 1_555
C11 C10 1_555 1_555
H9 C11 1_555 1_555
C12 C7 1_555 1_555
H10 C12 1_555 1_555
C13 C14 1_555 1_555
C14 H11 1_555 1_555
C15 C14 1_555 1_555
H12 C15 1_555 1_555
C16 C15 1_555 1_555
H13 C16 1_555 1_555
C17 C16 1_555 1_555
H14 C17 1_555 1_555
C18 C13 1_555 1_555
H15 C18 1_555 1_555
C19 C20 1_555 1_555
C20 H16 1_555 1_555
C21 C20 1_555 1_555
H17 C21 1_555 1_555
C22 C21 1_555 1_555
H18 C22 1_555 1_555
C23 C22 1_555 1_555
H19 C23 1_555 1_555
C24 C19 1_555 1_555
H20 C24 1_555 1_555
N1 N2 1_555 1_555
N2 H21 1_555 1_555
O1 P1 1_555 1_555
O2 P2 1_555 1_555
P1 C1 1_555 1_555
P2 C13 1_555 1_555
H22 N2 1_555 1_555
C5 C6 1_555 1_555
C7 P1 1_555 1_555
C11 C12 1_555 1_555
C17 C18 1_555 1_555
C19 P2 1_555 1_555
C23 C24 1_555 1_555
N1 P1 1_555 1_555
N1 P2 1_555 1_555

#END
