
#######################################################################
#
#                 Cambridge Crystallographic Data Centre
#                                CCDC 
#
#######################################################################
#
# If this CIF has been generated from an entry in the Cambridge 
# Structural Database, then it will include bibliographic, chemical, 
# crystal, experimental, refinement or atomic coordinate data resulting 
# from the CCDC's data processing and validation procedures.
#
#######################################################################

data_LEYCID
_chemical_formula_moiety         'C22 H19 N1 O3 S1'
_chemical_name_systematic        
(1-((4-Methylphenyl)sulfonyl)-2,3-dihydro-1H-indol-2-yl)(phenyl)methanone
_symmetry_cell_setting           orthorhombic
_symmetry_space_group_name_H-M   'P 21 21 21'
_symmetry_Int_Tables_number      19
_space_group_name_Hall           'P 2ac 2ab'
loop_
_symmetry_equiv_pos_site_id
_symmetry_equiv_pos_as_xyz
1 x,y,z
2 1/2-x,-y,1/2+z
3 -x,1/2+y,1/2-z
4 1/2+x,1/2-y,-z
_cell_length_a                   5.4726(11)
_cell_length_b                   18.051(4)
_cell_length_c                   18.889(4)
_cell_angle_alpha                90
_cell_angle_beta                 90
_cell_angle_gamma                90
_cell_volume                     1865.97
_exptl_crystal_colour            colorless
_exptl_crystal_description       block
_cell_formula_units_Z            4
loop_
_atom_site_label
_atom_site_type_symbol
_atom_site_fract_x
_atom_site_fract_y
_atom_site_fract_z
C1 C -0.1192(7) 0.6047(2) 1.02175(16)
H1 H -0.0578 0.6360 1.0588
H2 H -0.1512 0.5562 1.0404
H3 H -0.2678 0.6254 1.0033
C2 C 0.0682(5) 0.59940(17) 0.96318(12)
C3 C 0.1822(5) 0.53315(16) 0.94903(13)
H4 H 0.1465 0.4920 0.9768
C4 C 0.3482(5) 0.52642(14) 0.89449(12)
H5 H 0.4231 0.4811 0.8855
C5 C 0.4022(4) 0.58745(12) 0.85344(10)
C6 C 0.2912(6) 0.65450(15) 0.86666(15)
H6 H 0.3279 0.6957 0.8391
C7 C 0.1248(7) 0.65977(17) 0.92133(15)
H7 H 0.0492 0.7050 0.9302
C8 C 0.3955(4) 0.46229(11) 0.71361(10)
C9 C 0.5178(5) 0.40286(12) 0.74263(11)
H8 H 0.6581 0.4098 0.7696
C10 C 0.4265(5) 0.33304(13) 0.73065(13)
H9 H 0.5065 0.2922 0.7498
C11 C 0.2179(6) 0.32238(15) 0.69064(14)
H10 H 0.1567 0.2748 0.6838
C12 C 0.1012(5) 0.38229(14) 0.66092(13)
H11 H -0.0365 0.3752 0.6329
C13 C 0.1886(4) 0.45303(13) 0.67279(11)
C14 C 0.0997(5) 0.52598(13) 0.64471(12)
H12 H -0.0688 0.5347 0.6583
H13 H 0.1122 0.5277 0.5935
C15 C 0.2709(4) 0.58330(13) 0.67923(10)
H14 H 0.1805 0.6146 0.7125
C16 C 0.3982(5) 0.63079(12) 0.62299(10)
C17 C 0.3217(4) 0.70913(12) 0.61211(10)
C18 C 0.1145(5) 0.73974(13) 0.64210(13)
H15 H 0.0138 0.7109 0.6706
C19 C 0.0569(5) 0.81344(14) 0.62967(14)
H16 H -0.0835 0.8337 0.6495
C20 C 0.2056(5) 0.85644(14) 0.58836(13)
H17 H 0.1667 0.9059 0.5805
C21 C 0.4106(6) 0.82690(13) 0.55867(13)
H18 H 0.5112 0.8564 0.5307
C22 C 0.4700(5) 0.75354(13) 0.56974(12)
H19 H 0.6094 0.7337 0.5489
N1 N 0.4592(3) 0.53891(9) 0.71709(9)
O1 O 0.6667(4) 0.65046(9) 0.75714(9)
O2 O 0.7982(3) 0.52839(10) 0.80261(9)
O3 O 0.5546(4) 0.60271(9) 0.58659(10)
S1 S 0.60839(11) 0.57807(3) 0.78231(3)
loop_
_geom_bond_atom_site_label_1
_geom_bond_atom_site_label_2
_geom_bond_site_symmetry_1
_geom_bond_site_symmetry_2
C1 H1 1_555 1_555
H2 C1 1_555 1_555
H3 C1 1_555 1_555
C2 C1 1_555 1_555
C3 C2 1_555 1_555
H4 C3 1_555 1_555
C4 C3 1_555 1_555
H5 C4 1_555 1_555
C5 C4 1_555 1_555
C6 C5 1_555 1_555
H6 C6 1_555 1_555
C7 C2 1_555 1_555
H7 C7 1_555 1_555
C8 C9 1_555 1_555
C9 H8 1_555 1_555
C10 C9 1_555 1_555
H9 C10 1_555 1_555
C11 C10 1_555 1_555
H10 C11 1_555 1_555
C12 C11 1_555 1_555
H11 C12 1_555 1_555
C13 C8 1_555 1_555
C14 C13 1_555 1_555
H12 C14 1_555 1_555
H13 C14 1_555 1_555
C15 C14 1_555 1_555
H14 C15 1_555 1_555
C16 C15 1_555 1_555
C17 C16 1_555 1_555
C18 C17 1_555 1_555
H15 C18 1_555 1_555
C19 C18 1_555 1_555
H16 C19 1_555 1_555
C20 C19 1_555 1_555
H17 C20 1_555 1_555
C21 C20 1_555 1_555
H18 C21 1_555 1_555
C22 C17 1_555 1_555
H19 C22 1_555 1_555
N1 C8 1_555 1_555
O1 S1 1_555 1_555
O2 S1 1_555 1_555
O3 C16 1_555 1_555
S1 C5 1_555 1_555
C6 C7 1_555 1_555
C12 C13 1_555 1_555
C15 N1 1_555 1_555
C21 C22 1_555 1_555
N1 S1 1_555 1_555

#END
