
#######################################################################
#
#                 Cambridge Crystallographic Data Centre
#                                CCDC 
#
#######################################################################
#
# If this CIF has been generated from an entry in the Cambridge 
# Structural Database, then it will include bibliographic, chemical, 
# crystal, experimental, refinement or atomic coordinate data resulting 
# from the CCDC's data processing and validation procedures.
#
#######################################################################

data_LEYDEB
_chemical_formula_moiety         'C36 H33 B1 F15 O2 P1 S1,0.5(C6 H14)'
_chemical_name_systematic        
'tris(pentafluorophenyl)(tricyclohexyl(sulfino)phosphoniumato)boron n-hexane solvate'
_symmetry_cell_setting           triclinic
_symmetry_space_group_name_H-M   'P -1'
_symmetry_Int_Tables_number      2
_space_group_name_Hall           '-P 1'
loop_
_symmetry_equiv_pos_site_id
_symmetry_equiv_pos_as_xyz
1 x,y,z
2 -x,-y,-z
_cell_length_a                   10.9369(2)
_cell_length_b                   12.6020(2)
_cell_length_c                   15.7611(4)
_cell_angle_alpha                90.384(1)
_cell_angle_beta                 97.992(1)
_cell_angle_gamma                111.759(2)
_cell_volume                     1993.92
_exptl_crystal_colour            colorless
_exptl_crystal_description       plate
_cell_formula_units_Z            2
loop_
_atom_site_label
_atom_site_type_symbol
_atom_site_fract_x
_atom_site_fract_y
_atom_site_fract_z
S1 S 0.13644(7) 0.45569(5) 0.37325(4)
O1 O 0.0367(2) 0.42625(18) 0.42949(14)
P1 P 0.11800(6) 0.60530(5) 0.30087(4)
C1 C -0.0547(2) 0.5919(2) 0.27237(17)
H1 H -0.0532 0.6636 0.2464
B1 B 0.1136(3) 0.2600(2) 0.28850(17)
O2 O 0.08757(16) 0.37228(14) 0.29094(10)
C2 C -0.1309(3) 0.4939(3) 0.20409(18)
H2 H -0.0854 0.5064 0.1536
H3 H -0.1322 0.4214 0.2268
C3 C -0.2736(3) 0.4869(3) 0.1779(2)
H4 H -0.2723 0.5567 0.1504
H5 H -0.3217 0.4218 0.1362
C4 C -0.3452(3) 0.4731(3) 0.2546(2)
H6 H -0.3535 0.4000 0.2792
H7 H -0.4352 0.4719 0.2363
C5 C -0.2711(3) 0.5700(3) 0.3222(2)
H8 H -0.3179 0.5571 0.3721
H9 H -0.2705 0.6421 0.2991
C6 C -0.1274(3) 0.5798(3) 0.3506(2)
H10 H -0.1274 0.5115 0.3800
H11 H -0.0807 0.6466 0.3911
C7 C 0.2216(2) 0.7319(2) 0.37186(16)
H12 H 0.3146 0.7472 0.3637
C8 C 0.2176(3) 0.7157(3) 0.46742(18)
H13 H 0.1281 0.7031 0.4799
H14 H 0.2378 0.6482 0.4830
C9 C 0.3190(3) 0.8213(3) 0.5202(2)
H15 H 0.3116 0.8118 0.5812
H16 H 0.4090 0.8285 0.5125
C10 C 0.2978(3) 0.9296(3) 0.4942(2)
H17 H 0.2124 0.9265 0.5087
H18 H 0.3684 0.9958 0.5266
C11 C 0.2986(4) 0.9446(3) 0.4000(2)
H19 H 0.3876 0.9569 0.3866
H20 H 0.2789 1.0125 0.3851
C12 C 0.1956(3) 0.8394(2) 0.3459(2)
H21 H 0.1056 0.8309 0.3550
H22 H 0.2017 0.8498 0.2849
C13 C 0.1903(2) 0.6038(2) 0.20377(16)
H23 H 0.1446 0.5255 0.1763
C14 C 0.1675(3) 0.6849(3) 0.13699(19)
H24 H 0.0729 0.6734 0.1261
H25 H 0.2185 0.7646 0.1583
C15 C 0.2124(3) 0.6600(4) 0.0542(2)
H26 H 0.1593 0.5808 0.0324
H27 H 0.1975 0.7109 0.0107
C16 C 0.3591(3) 0.6775(3) 0.06971(19)
H28 H 0.3845 0.6574 0.0164
H29 H 0.4125 0.7584 0.0860
C17 C 0.3886(3) 0.6049(3) 0.13989(19)
H30 H 0.4850 0.6239 0.1520
H31 H 0.3460 0.5239 0.1198
C18 C 0.3388(2) 0.6235(2) 0.22231(17)
H32 H 0.3897 0.7018 0.2468
H33 H 0.3525 0.5705 0.2643
C19 C 0.2036(2) 0.2565(2) 0.38050(15)
F1 F 0.02717(16) 0.11809(15) 0.43941(10)
C20 C 0.1561(3) 0.1890(2) 0.44649(16)
F2 F 0.1789(2) 0.12126(16) 0.58518(11)
C21 C 0.2330(3) 0.1887(2) 0.52399(17)
F3 F 0.44046(19) 0.25896(18) 0.61271(11)
C22 C 0.3642(3) 0.2592(3) 0.53805(17)
F4 F 0.54530(15) 0.40276(16) 0.49105(12)
C23 C 0.4173(2) 0.3307(2) 0.47659(18)
F5 F 0.39302(14) 0.40539(13) 0.34422(10)
C24 C 0.3366(2) 0.3291(2) 0.40091(16)
C25 C -0.0278(2) 0.1489(2) 0.26998(15)
C26 C -0.1549(3) 0.1478(2) 0.26795(19)
F6 F -0.17514(17) 0.24415(17) 0.28554(15)
F7 F -0.38947(18) 0.0551(2) 0.24866(17)
C27 C -0.2688(3) 0.0495(3) 0.2494(2)
F8 F -0.3682(2) -0.14872(19) 0.21324(15)
C28 C -0.2581(3) -0.0527(3) 0.2313(2)
F9 F -0.1225(2) -0.15700(15) 0.21708(14)
C29 C -0.1346(3) -0.0566(2) 0.23309(19)
F10 F 0.09458(17) 0.03168(13) 0.25572(12)
C30 C -0.0243(3) 0.0422(2) 0.25246(16)
C31 C 0.1862(2) 0.2655(2) 0.20326(15)
F11 F 0.35784(16) 0.20247(14) 0.26273(10)
C32 C 0.2973(3) 0.2398(2) 0.19518(17)
F12 F 0.46073(18) 0.22179(18) 0.11887(12)
C33 C 0.3527(3) 0.2475(3) 0.12104(19)
F13 F 0.3466(2) 0.2875(2) -0.02526(12)
C34 C 0.2950(3) 0.2804(3) 0.04800(18)
F14 F 0.12438(18) 0.33411(17) -0.02063(10)
C35 C 0.1834(3) 0.3034(2) 0.05082(17)
F15 F 0.01840(14) 0.31644(13) 0.12253(9)
C36 C 0.1317(2) 0.2951(2) 0.12623(16)
loop_
_geom_bond_atom_site_label_1
_geom_bond_atom_site_label_2
_geom_bond_site_symmetry_1
_geom_bond_site_symmetry_2
S1 O1 1_555 1_555
P1 S1 1_555 1_555
C1 P1 1_555 1_555
H1 C1 1_555 1_555
B1 O2 1_555 1_555
O2 S1 1_555 1_555
C2 C1 1_555 1_555
H2 C2 1_555 1_555
H3 C2 1_555 1_555
C3 C2 1_555 1_555
H4 C3 1_555 1_555
H5 C3 1_555 1_555
C4 C3 1_555 1_555
H6 C4 1_555 1_555
H7 C4 1_555 1_555
C5 C4 1_555 1_555
H8 C5 1_555 1_555
H9 C5 1_555 1_555
C6 C1 1_555 1_555
H10 C6 1_555 1_555
H11 C6 1_555 1_555
C7 P1 1_555 1_555
H12 C7 1_555 1_555
C8 C7 1_555 1_555
H13 C8 1_555 1_555
H14 C8 1_555 1_555
C9 C8 1_555 1_555
H15 C9 1_555 1_555
H16 C9 1_555 1_555
C10 C9 1_555 1_555
H17 C10 1_555 1_555
H18 C10 1_555 1_555
C11 C10 1_555 1_555
H19 C11 1_555 1_555
H20 C11 1_555 1_555
C12 C7 1_555 1_555
H21 C12 1_555 1_555
H22 C12 1_555 1_555
C13 P1 1_555 1_555
H23 C13 1_555 1_555
C14 C13 1_555 1_555
H24 C14 1_555 1_555
H25 C14 1_555 1_555
C15 C14 1_555 1_555
H26 C15 1_555 1_555
H27 C15 1_555 1_555
C16 C15 1_555 1_555
H28 C16 1_555 1_555
H29 C16 1_555 1_555
C17 C16 1_555 1_555
H30 C17 1_555 1_555
H31 C17 1_555 1_555
C18 C13 1_555 1_555
H32 C18 1_555 1_555
H33 C18 1_555 1_555
C19 B1 1_555 1_555
F1 C20 1_555 1_555
C20 C19 1_555 1_555
F2 C21 1_555 1_555
C21 C20 1_555 1_555
F3 C22 1_555 1_555
C22 C21 1_555 1_555
F4 C23 1_555 1_555
C23 C22 1_555 1_555
F5 C24 1_555 1_555
C24 C19 1_555 1_555
C25 B1 1_555 1_555
C26 C25 1_555 1_555
F6 C26 1_555 1_555
F7 C27 1_555 1_555
C27 C26 1_555 1_555
F8 C28 1_555 1_555
C28 C27 1_555 1_555
F9 C29 1_555 1_555
C29 C28 1_555 1_555
F10 C30 1_555 1_555
C30 C25 1_555 1_555
C31 B1 1_555 1_555
F11 C32 1_555 1_555
C32 C31 1_555 1_555
F12 C33 1_555 1_555
C33 C32 1_555 1_555
F13 C34 1_555 1_555
C34 C33 1_555 1_555
F14 C35 1_555 1_555
C35 C34 1_555 1_555
F15 C36 1_555 1_555
C36 C31 1_555 1_555
C5 C6 1_555 1_555
C11 C12 1_555 1_555
C17 C18 1_555 1_555
C23 C24 1_555 1_555
C29 C30 1_555 1_555
C35 C36 1_555 1_555

#END
