
#######################################################################
#
#                 Cambridge Crystallographic Data Centre
#                                CCDC 
#
#######################################################################
#
# If this CIF has been generated from an entry in the Cambridge 
# Structural Database, then it will include bibliographic, chemical, 
# crystal, experimental, refinement or atomic coordinate data resulting 
# from the CCDC's data processing and validation procedures.
#
#######################################################################

data_LEYFAZ
_chemical_formula_moiety         'C15 H12 O5,2(C6 H6 N2 O1)'
_chemical_name_systematic        
'5,7-dihydroxy-2-(4-hydroxyphenyl)-2,3-dihydro-4H-1-benzopyran-4-one bis(pyridine-4-carboxamide)'
_symmetry_cell_setting           monoclinic
_symmetry_space_group_name_H-M   'P 21/n'
_symmetry_Int_Tables_number      14
_space_group_name_Hall           '-P 2yn'
loop_
_symmetry_equiv_pos_site_id
_symmetry_equiv_pos_as_xyz
1 x,y,z
2 1/2-x,1/2+y,1/2-z
3 -x,-y,-z
4 1/2+x,1/2-y,1/2+z
_cell_length_a                   14.2424(8)
_cell_length_b                   5.0793(3)
_cell_length_c                   33.737(2)
_cell_angle_alpha                90
_cell_angle_beta                 95.632(4)
_cell_angle_gamma                90
_cell_volume                     2428.8
_exptl_crystal_colour            colorless
_exptl_crystal_description       block
_cell_formula_units_Z            4
loop_
_atom_site_label
_atom_site_type_symbol
_atom_site_fract_x
_atom_site_fract_y
_atom_site_fract_z
C1 C 0.25334(11) 0.7868(4) 0.56050(5)
H1 H 0.3015 0.9043 0.5709
C2 C 0.16136(12) 0.8188(4) 0.56949(5)
H2 H 0.1479 0.9605 0.5864
C3 C 0.11110(12) 0.4596(4) 0.53280(5)
H3 H 0.0617 0.3438 0.5231
C4 C 0.20127(12) 0.4104(4) 0.52252(5)
H4 H 0.2132 0.2629 0.5064
C5 C 0.27366(11) 0.5791(4) 0.53599(4)
C6 C 0.37070(12) 0.5353(4) 0.52361(5)
N1 N 0.42312(10) 0.7475(3) 0.51968(5)
H5 H 0.4804 0.7314 0.5123
H6 H 0.4006 0.9045 0.5245
N2 N 0.09023(10) 0.6615(4) 0.55566(4)
O1 O 0.39846(8) 0.3090(3) 0.51731(4)
C7 C 0.86274(11) 0.2193(4) 0.71950(4)
C8 C 0.95214(11) 0.2000(4) 0.69935(5)
C9 C 1.0375(3) 0.0944(11) 0.71848(14)
H7 H 1.0396 0.0249 0.7447
C10 C 1.1164(4) 0.0951(12) 0.69831(15)
H8 H 1.1733 0.0232 0.7109
C11 C 0.9516(2) 0.2532(10) 0.65934(10)
H9 H 0.8940 0.2969 0.6441
C12 C 1.0339(2) 0.2435(10) 0.64126(10)
H10 H 1.0307 0.2724 0.6133
N3 N 1.11601(10) 0.1968(4) 0.66035(5)
N4 N 0.85005(10) 0.0390(4) 0.74686(4)
H11 H 0.7986 0.0415 0.7593
H12 H 0.8930 -0.0833 0.7525
O2 O 0.80577(8) 0.3977(3) 0.70978(3)
C17 C 0.37509(12) 0.7710(4) 0.68945(5)
C18 C 0.31412(11) 0.5761(4) 0.67480(5)
H17 H 0.2570 0.5456 0.6865
C19 C 0.33680(11) 0.4240(4) 0.64277(5)
C20 C 0.42121(11) 0.4644(4) 0.62540(5)
H18 H 0.4359 0.3603 0.6034
C21 C 0.48223(11) 0.6570(4) 0.64066(5)
C22 C 0.46229(11) 0.8145(4) 0.67326(5)
C23 C 0.52860(12) 1.0071(4) 0.68970(5)
C24 C 0.61723(13) 1.0355(5) 0.66964(6)
H19 H 0.6683 0.9347 0.6848
H20 H 0.6361 1.2232 0.6701
C25 C 0.86045(12) 0.9594(4) 0.56895(5)
C26 C 0.6064(2) 0.9393(7) 0.62684(10)
H21 H 0.5616 1.0638 0.6119
C27 C 0.8434(3) 0.7330(10) 0.58750(14)
H22 H 0.8853 0.5877 0.5873
C28 C 0.7614(4) 0.7189(11) 0.60716(16)
H23 H 0.7482 0.5639 0.6214
C29 C 0.6953(4) 0.9438(12) 0.60591(18)
C30 C 0.7984(3) 1.1679(13) 0.56634(13)
H24 H 0.8114 1.3217 0.5518
C31 C 0.7171(3) 1.1493(14) 0.58514(15)
H25 H 0.6744 1.2935 0.5830
O3 O 0.27979(8) 0.2352(3) 0.62695(3)
H26 H 0.2291 0.2372 0.6377
O4 O 0.35056(9) 0.9220(4) 0.71972(4)
H27 H 0.3935 1.0320 0.7260
O5 O 0.51468(9) 1.1440(3) 0.71939(4)
O6 O 0.56388(8) 0.6881(3) 0.62296(3)
O7 O 0.93426(9) 0.9892(3) 0.54656(4)
H28 H 0.9737 0.8682 0.5520
C13? C 1.0160(5) 0.0214(17) 0.7040(2)
H13? H 1.0082 -0.1214 0.7216
C14? C 1.0963(5) 0.0334(19) 0.6839(2)
H14? H 1.1410 -0.1039 0.6893
C15? C 0.9700(3) 0.4261(11) 0.67445(15)
H15? H 0.9274 0.5705 0.6717
C16? C 1.0511(3) 0.4224(11) 0.65510(16)
H16? H 1.0650 0.5651 0.6384
H29? H 0.6106 1.1915 0.6520
H30? H 0.6699 1.0711 0.6903
C32? C 0.6419(3) 0.8207(10) 0.64711(12)
H31? H 0.6690 0.6865 0.6667
C33? C 0.6968(4) 1.0167(19) 0.5810(2)
H32? H 0.6350 1.0781 0.5726
C34? C 0.7178(4) 0.8757(13) 0.61979(18)
C35? C 0.7705(4) 1.0544(13) 0.55784(15)
H33? H 0.7592 1.1486 0.5335
C36? C 0.8746(3) 0.8419(10) 0.60772(12)
H34? H 0.9358 0.7823 0.6174
C37? C 0.8012(4) 0.8135(11) 0.63118(14)
H35? H 0.8146 0.7435 0.6572
loop_
_geom_bond_atom_site_label_1
_geom_bond_atom_site_label_2
_geom_bond_site_symmetry_1
_geom_bond_site_symmetry_2
C1 H1 1_555 1_555
C2 C1 1_555 1_555
H2 C2 1_555 1_555
C3 H3 1_555 1_555
C4 C3 1_555 1_555
H4 C4 1_555 1_555
C5 C1 1_555 1_555
C6 C5 1_555 1_555
N1 C6 1_555 1_555
H5 N1 1_555 1_555
H6 N1 1_555 1_555
N2 C2 1_555 1_555
O1 C6 1_555 1_555
C7 C8 1_555 1_555
C8 C9 1_555 1_555
C9 H7 1_555 1_555
C10 C9 1_555 1_555
H8 C10 1_555 1_555
C11 C8 1_555 1_555
H9 C11 1_555 1_555
C12 C11 1_555 1_555
H10 C12 1_555 1_555
N3 C10 1_555 1_555
N4 C7 1_555 1_555
H11 N4 1_555 1_555
H12 N4 1_555 1_555
O2 C7 1_555 1_555
C17 C18 1_555 1_555
C18 H17 1_555 1_555
C19 C18 1_555 1_555
C20 C19 1_555 1_555
H18 C20 1_555 1_555
C21 C20 1_555 1_555
C22 C17 1_555 1_555
C23 C22 1_555 1_555
C24 C23 1_555 1_555
H19 C24 1_555 1_555
H20 C24 1_555 1_555
C25 C27 1_555 1_555
C26 C24 1_555 1_555
H21 C26 1_555 1_555
C27 H22 1_555 1_555
C28 C27 1_555 1_555
H23 C28 1_555 1_555
C29 C26 1_555 1_555
C30 C25 1_555 1_555
H24 C30 1_555 1_555
C31 C29 1_555 1_555
H25 C31 1_555 1_555
O3 C19 1_555 1_555
H26 O3 1_555 1_555
O4 C17 1_555 1_555
H27 O4 1_555 1_555
O5 C23 1_555 1_555
O6 C21 1_555 1_555
O7 C25 1_555 1_555
H28 O7 1_555 1_555
C3 N2 1_555 1_555
C4 C5 1_555 1_555
C12 N3 1_555 1_555
C21 C22 1_555 1_555
C26 O6 1_555 1_555
C28 C29 1_555 1_555
C30 C31 1_555 1_555

#END
