
#######################################################################
#
#                 Cambridge Crystallographic Data Centre
#                                CCDC 
#
#######################################################################
#
# If this CIF has been generated from an entry in the Cambridge 
# Structural Database, then it will include bibliographic, chemical, 
# crystal, experimental, refinement or atomic coordinate data resulting 
# from the CCDC's data processing and validation procedures.
#
#######################################################################

data_LEYFIH
_chemical_formula_moiety         'C15 H12 O5,C5 H11 N1 O2'
_chemical_name_systematic        
'(trimethylazaniumyl)acetate 5,7-dihydroxy-2-(4-hydroxyphenyl)-2,3-dihydro-4H-1-benzopyran-4-one'
_symmetry_cell_setting           monoclinic
_symmetry_space_group_name_H-M   'C 2'
_symmetry_Int_Tables_number      5
_space_group_name_Hall           'C 2y'
loop_
_symmetry_equiv_pos_site_id
_symmetry_equiv_pos_as_xyz
1 x,y,z
2 -x,y,-z
3 1/2+x,1/2+y,z
4 1/2-x,1/2+y,-z
_cell_length_a                   21.6006(7)
_cell_length_b                   6.6844(3)
_cell_length_c                   13.5560(5)
_cell_angle_alpha                90
_cell_angle_beta                 92.0997(19)
_cell_angle_gamma                90
_cell_volume                     1956
_exptl_crystal_colour            colorless
_exptl_crystal_description       block
_cell_formula_units_Z            4
loop_
_atom_site_label
_atom_site_type_symbol
_atom_site_fract_x
_atom_site_fract_y
_atom_site_fract_z
O1 O 0.37945(9) 0.4713(9) 0.87800(16)
O2 O 0.40935(11) 0.4609(12) 0.72272(17)
N1 N 0.53742(11) 0.4742(10) 0.79009(19)
C1 C 0.48428(12) 0.4687(11) 0.85832(19)
H1 H 0.4884 0.5827 0.9023
H2 H 0.4888 0.3494 0.8987
C2 C 0.41860(13) 0.4704(12) 0.8135(2)
C3 C 0.5349(4) 0.6525(17) 0.7263(7)
H3 H 0.4985 0.6468 0.6837
H4 H 0.5711 0.6564 0.6872
H5 H 0.5336 0.7705 0.7665
C4 C 0.59559(14) 0.4688(13) 0.8537(3)
H6 H 0.5982 0.5878 0.8934
H7 H 0.6308 0.4618 0.8127
H8 H 0.5950 0.3535 0.8959
C5 C 0.5382(3) 0.2830(12) 0.7300(5)
H9 H 0.5373 0.1698 0.7735
H10 H 0.5752 0.2786 0.6929
H11 H 0.5026 0.2795 0.6855
O3 O 0.25740(9) 0.4698(10) 0.17633(14)
O4 O 0.06767(9) 0.4708(10) 0.16819(18)
O5 O 0.06839(8) 0.4711(8) -0.02212(16)
H12 H 0.0535 0.4818 0.0324
O6 O 0.26209(10) 0.4713(11) -0.16895(15)
H13 H 0.2992 0.4634 -0.1548
O7 O 0.3939(5) 0.6992(18) 0.5696(7)
H14 H 0.4026 0.6057 0.6066
C6 C 0.2257(4) 0.4664(16) 0.2669(7)
H15 H 0.2130 0.6066 0.2597
C7 C 0.1636(5) 0.399(2) 0.2630(8)
H16 H 0.1434 0.4453 0.3215
H17 H 0.1635 0.2539 0.2642
C8 C 0.12529(13) 0.4713(14) 0.1700(2)
C9 C 0.13144(11) 0.4718(8) -0.0121(2)
C10 C 0.16561(13) 0.4675(10) -0.0956(2)
H18 H 0.1459 0.4618 -0.1577
C11 C 0.2886(3) 0.7113(9) 0.3552(5)
H19 H 0.2737 0.8026 0.3083
C12 C 0.3303(3) 0.7728(9) 0.4296(6)
H20 H 0.3433 0.9054 0.4325
C13 C 0.3525(4) 0.6363(14) 0.4997(5)
C14 C 0.3330(4) 0.4382(13) 0.4953(6)
H21 H 0.3479 0.3469 0.5422
C15 C 0.2913(4) 0.3766(9) 0.4209(7)
H22 H 0.2783 0.2441 0.4179
C16 C 0.2691(3) 0.5132(10) 0.3508(5)
C17 C 0.23028(12) 0.4717(10) -0.0863(2)
C18 C 0.26001(11) 0.4788(8) 0.0055(2)
H23 H 0.3030 0.4884 0.0111
C19 C 0.22550(12) 0.4716(10) 0.0883(2)
C20 C 0.16021(12) 0.4746(9) 0.0829(2)
O8? O 0.3991(4) 0.2320(18) 0.5640(7)
H24? H 0.4019 0.3130 0.6093
C21? C 0.2229(6) 0.387(3) 0.2612(10)
H25? H 0.2096 0.2494 0.2467
C22? C 0.2910(3) 0.1962(12) 0.3546(5)
H26? H 0.2777 0.0991 0.3095
C23? C 0.3347(3) 0.1484(10) 0.4287(6)
H27? H 0.3506 0.0194 0.4332
C24? C 0.3546(3) 0.2935(14) 0.4962(5)
C25? C 0.3307(4) 0.4864(13) 0.4895(6)
H28? H 0.3440 0.5835 0.5346
C26? C 0.2870(4) 0.5342(11) 0.4154(7)
H29? H 0.2711 0.6633 0.4110
C27? C 0.2672(3) 0.3891(14) 0.3480(5)
C28? C 0.1610(4) 0.537(2) 0.2666(8)
H30? H 0.1374 0.5114 0.3248
H31? H 0.1725 0.6775 0.2649
loop_
_geom_bond_atom_site_label_1
_geom_bond_atom_site_label_2
_geom_bond_site_symmetry_1
_geom_bond_site_symmetry_2
O1 C2 1_555 1_555
O2 C2 1_555 1_555
N1 C1 1_555 1_555
C1 H1 1_555 1_555
H2 C1 1_555 1_555
C2 C1 1_555 1_555
C3 N1 1_555 1_555
H3 C3 1_555 1_555
H4 C3 1_555 1_555
H5 C3 1_555 1_555
C4 N1 1_555 1_555
H6 C4 1_555 1_555
H7 C4 1_555 1_555
H8 C4 1_555 1_555
C5 N1 1_555 1_555
H9 C5 1_555 1_555
H10 C5 1_555 1_555
H11 C5 1_555 1_555
O3 C6 1_555 1_555
O4 C8 1_555 1_555
O5 H12 1_555 1_555
O6 H13 1_555 1_555
O7 H14 1_555 1_555
C6 H15 1_555 1_555
C7 C6 1_555 1_555
H16 C7 1_555 1_555
H17 C7 1_555 1_555
C8 C7 1_555 1_555
C9 O5 1_555 1_555
C10 C9 1_555 1_555
H18 C10 1_555 1_555
C11 H19 1_555 1_555
C12 C11 1_555 1_555
H20 C12 1_555 1_555
C13 O7 1_555 1_555
C14 C13 1_555 1_555
H21 C14 1_555 1_555
C15 C14 1_555 1_555
H22 C15 1_555 1_555
C16 C6 1_555 1_555
C17 O6 1_555 1_555
C18 C17 1_555 1_555
H23 C18 1_555 1_555
C19 O3 1_555 1_555
C20 C8 1_555 1_555
C9 C20 1_555 1_555
C10 C17 1_555 1_555
C11 C16 1_555 1_555
C12 C13 1_555 1_555
C15 C16 1_555 1_555
C18 C19 1_555 1_555
C19 C20 1_555 1_555

#END
