
#######################################################################
#
#                 Cambridge Crystallographic Data Centre
#                                CCDC 
#
#######################################################################
#
# If this CIF has been generated from an entry in the Cambridge 
# Structural Database, then it will include bibliographic, chemical, 
# crystal, experimental, refinement or atomic coordinate data resulting 
# from the CCDC's data processing and validation procedures.
#
#######################################################################

data_LEYHOO
_chemical_formula_moiety         'C18 H16 O3'
_chemical_name_systematic        3-Benzoyl-1-phenylpentane-1,4-dione
_symmetry_cell_setting           monoclinic
_symmetry_space_group_name_H-M   'P 21/n'
_symmetry_Int_Tables_number      14
_space_group_name_Hall           '-P 2yn'
loop_
_symmetry_equiv_pos_site_id
_symmetry_equiv_pos_as_xyz
1 x,y,z
2 1/2-x,1/2+y,1/2-z
3 -x,-y,-z
4 1/2+x,1/2-y,1/2+z
_cell_length_a                   7.9077(10)
_cell_length_b                   10.7341(13)
_cell_length_c                   17.410(2)
_cell_angle_alpha                90
_cell_angle_beta                 93.7580(10)
_cell_angle_gamma                90
_cell_volume                     1474.62
_exptl_crystal_colour            yellow
_exptl_crystal_description       block
_cell_formula_units_Z            4
loop_
_atom_site_label
_atom_site_type_symbol
_atom_site_fract_x
_atom_site_fract_y
_atom_site_fract_z
C1 C 1.07598(17) 0.36929(13) 0.13281(8)
C2 C 1.18116(17) 0.40082(13) 0.19677(8)
H1 H 1.1482 0.3830 0.2459
C3 C 1.33494(19) 0.45873(16) 0.18767(10)
H2 H 1.4051 0.4795 0.2307
C4 C 1.3841(2) 0.4855(2) 0.11574(12)
H3 H 1.4878 0.5240 0.1099
C5 C 1.2807(3) 0.4558(2) 0.05205(12)
H4 H 1.3138 0.4749 0.0032
C6 C 1.1277(2) 0.39766(19) 0.06049(10)
H5 H 1.0585 0.3773 0.0171
C7 C 0.90744(18) 0.30844(12) 0.13868(8)
C8 C 0.85945(17) 0.26265(13) 0.21619(8)
H6 H 0.8543 0.3329 0.2510
H7 H 0.9463 0.2062 0.2373
C9 C 0.68904(16) 0.19577(12) 0.21122(8)
H8 H 0.6008 0.2521 0.1895
C10 C 0.69447(17) 0.07875(12) 0.16167(8)
C11 C 0.53332(17) 0.02722(13) 0.12550(7)
C12 C 0.37980(18) 0.08917(17) 0.12534(9)
H9 H 0.3745 0.1672 0.1483
C13 C 0.2343(2) 0.0361(2) 0.09138(10)
H10 H 0.1316 0.0783 0.0917
C14 C 0.2408(2) -0.07842(19) 0.05734(9)
H11 H 0.1426 -0.1137 0.0345
C15 C 0.3919(3) -0.14154(17) 0.05679(9)
H12 H 0.3958 -0.2195 0.0337
C16 C 0.5378(2) -0.08913(14) 0.09052(8)
H13 H 0.6399 -0.1319 0.0899
C17 C 0.64713(18) 0.15608(14) 0.29242(9)
C18 C 0.5082(3) 0.22077(18) 0.32893(10)
H14 H 0.4972 0.1873 0.3795
H15 H 0.4040 0.2089 0.2983
H16 H 0.5332 0.3082 0.3327
O1 O 0.81176(14) 0.29475(12) 0.08202(6)
O2 O 0.82776(14) 0.02527(11) 0.15588(8)
O3 O 0.72747(17) 0.07370(15) 0.32437(9)
loop_
_geom_bond_atom_site_label_1
_geom_bond_atom_site_label_2
_geom_bond_site_symmetry_1
_geom_bond_site_symmetry_2
C1 C2 1_555 1_555
C2 H1 1_555 1_555
C3 C2 1_555 1_555
H2 C3 1_555 1_555
C4 C3 1_555 1_555
H3 C4 1_555 1_555
C5 C4 1_555 1_555
H4 C5 1_555 1_555
C6 C1 1_555 1_555
H5 C6 1_555 1_555
C7 C1 1_555 1_555
C8 C7 1_555 1_555
H6 C8 1_555 1_555
H7 C8 1_555 1_555
C9 C8 1_555 1_555
H8 C9 1_555 1_555
C10 C9 1_555 1_555
C11 C10 1_555 1_555
C12 C11 1_555 1_555
H9 C12 1_555 1_555
C13 C12 1_555 1_555
H10 C13 1_555 1_555
C14 C13 1_555 1_555
H11 C14 1_555 1_555
C15 C14 1_555 1_555
H12 C15 1_555 1_555
C16 C11 1_555 1_555
H13 C16 1_555 1_555
C17 C9 1_555 1_555
C18 C17 1_555 1_555
H14 C18 1_555 1_555
H15 C18 1_555 1_555
H16 C18 1_555 1_555
O1 C7 1_555 1_555
O2 C10 1_555 1_555
O3 C17 1_555 1_555
C5 C6 1_555 1_555
C15 C16 1_555 1_555

#END
