
#######################################################################
#
#                 Cambridge Crystallographic Data Centre
#                                CCDC 
#
#######################################################################
#
# If this CIF has been generated from an entry in the Cambridge 
# Structural Database, then it will include bibliographic, chemical, 
# crystal, experimental, refinement or atomic coordinate data resulting 
# from the CCDC's data processing and validation procedures.
#
#######################################################################

data_LEYJAB
_chemical_formula_moiety         'C13 H13 N1 O1'
_chemical_name_systematic        4,8-Dimethyl-2,3-dihydrofuro(2,3-b)quinoline
_symmetry_cell_setting           monoclinic
_symmetry_space_group_name_H-M   'P 21/c'
_symmetry_Int_Tables_number      14
_space_group_name_Hall           '-P 2ybc'
loop_
_symmetry_equiv_pos_site_id
_symmetry_equiv_pos_as_xyz
1 x,y,z
2 -x,1/2+y,1/2-z
3 -x,-y,-z
4 x,1/2-y,1/2+z
_cell_length_a                   7.449(5)
_cell_length_b                   11.822(5)
_cell_length_c                   11.896(5)
_cell_angle_alpha                90.000(5)
_cell_angle_beta                 101.906(5)
_cell_angle_gamma                90.000(5)
_cell_volume                     1025.05
_chemical_melting_point          '92-93 deg.C'
_cell_formula_units_Z            4
loop_
_atom_site_label
_atom_site_type_symbol
_atom_site_fract_x
_atom_site_fract_y
_atom_site_fract_z
C1 C 0.4049(4) 0.32224(19) 1.0319(2)
H1 H 0.3237 0.3832 1.0440
H2 H 0.5259 0.3536 1.0343
C2 C 0.4139(3) 0.23308(17) 1.12480(19)
H3 H 0.5393 0.2203 1.1651
H4 H 0.3403 0.2547 1.1798
C3 C 0.3367(3) 0.13075(17) 1.05809(17)
C4 C 0.3042(3) 0.02440(18) 1.09004(17)
C5 C 0.2261(3) -0.05237(16) 0.99919(17)
C6 C 0.1813(3) -0.16537(19) 1.0205(2)
H5 H 0.2051 -0.1925 1.0955
C7 C 0.1039(3) -0.23490(19) 0.9332(2)
H6 H 0.0740 -0.3088 0.9489
C8 C 0.0693(3) -0.19643(19) 0.8206(2)
H7 H 0.0156 -0.2451 0.7619
C9 C 0.1122(3) -0.08833(17) 0.79401(18)
C10 C 0.1900(3) -0.01433(17) 0.88458(17)
C11 C 0.2957(3) 0.15932(17) 0.94154(19)
C12 C 0.3482(3) -0.0113(2) 1.21374(17)
H8 H 0.3720 0.0545 1.2619
H9 H 0.4547 -0.0591 1.2271
H10 H 0.2461 -0.0521 1.2314
C13 C 0.0788(3) -0.04856(19) 0.67182(18)
H11 H 0.1933 -0.0449 0.6469
H12 H 0.0237 0.0252 0.6664
H13 H -0.0020 -0.1004 0.6239
N1 N 0.2277(2) 0.09524(14) 0.85460(14)
O1 O 0.3366(2) 0.26904(12) 0.92180(12)
loop_
_geom_bond_atom_site_label_1
_geom_bond_atom_site_label_2
_geom_bond_site_symmetry_1
_geom_bond_site_symmetry_2
C1 H1 1_555 1_555
H2 C1 1_555 1_555
C2 C1 1_555 1_555
H3 C2 1_555 1_555
H4 C2 1_555 1_555
C3 C2 1_555 1_555
C4 C3 1_555 1_555
C5 C4 1_555 1_555
C6 C5 1_555 1_555
H5 C6 1_555 1_555
C7 C6 1_555 1_555
H6 C7 1_555 1_555
C8 C7 1_555 1_555
H7 C8 1_555 1_555
C9 C8 1_555 1_555
C10 C5 1_555 1_555
C11 C3 1_555 1_555
C12 C4 1_555 1_555
H8 C12 1_555 1_555
H9 C12 1_555 1_555
H10 C12 1_555 1_555
C13 C9 1_555 1_555
H11 C13 1_555 1_555
H12 C13 1_555 1_555
H13 C13 1_555 1_555
N1 C10 1_555 1_555
O1 C1 1_555 1_555
C9 C10 1_555 1_555
C11 N1 1_555 1_555
C11 O1 1_555 1_555

#END
