
#######################################################################
#
#                 Cambridge Crystallographic Data Centre
#                                CCDC 
#
#######################################################################
#
# If this CIF has been generated from an entry in the Cambridge 
# Structural Database, then it will include bibliographic, chemical, 
# crystal, experimental, refinement or atomic coordinate data resulting 
# from the CCDC's data processing and validation procedures.
#
#######################################################################

data_LEYMEH
_chemical_formula_moiety         'C16 H25 N5 O4 2+,2(N1 O3 1-),H2 O1'
_chemical_name_systematic        
'(12-(4-Nitrobenzyl)-1,10-diaza-4,7-diazoniacyclotridecane-11,13-dione) dinitrate monohydrate'
_symmetry_cell_setting           triclinic
_symmetry_space_group_name_H-M   'P -1'
_symmetry_Int_Tables_number      2
_space_group_name_Hall           '-P 1'
loop_
_symmetry_equiv_pos_site_id
_symmetry_equiv_pos_as_xyz
1 x,y,z
2 -x,-y,-z
_cell_length_a                   9.803(2)
_cell_length_b                   10.485(4)
_cell_length_c                   11.078(4)
_cell_angle_alpha                82.49(3)
_cell_angle_beta                 83.94(2)
_cell_angle_gamma                78.90(2)
_cell_volume                     1103.97
_exptl_crystal_colour            'pale yellow'
_cell_formula_units_Z            2
loop_
_atom_site_label
_atom_site_type_symbol
_atom_site_fract_x
_atom_site_fract_y
_atom_site_fract_z
O1 O 0.9480(4) 0.5460(3) -0.2117(3)
O2 O 0.7791(5) 0.6838(4) -0.1431(4)
O3 O 0.7391(2) -0.0195(2) 0.4474(2)
O4 O 0.9790(2) 0.1078(3) 0.3442(2)
N1 N 0.8480(5) 0.5754(4) -0.1396(3)
N2 N 0.6103(3) 0.1329(3) 0.5571(2)
N3 N 0.6958(3) 0.0675(3) 0.8274(3)
N4 N 1.0328(3) 0.1719(3) 0.6864(3)
N5 N 0.9209(3) 0.2905(3) 0.4404(3)
C1 C 0.8127(4) 0.4760(4) -0.0419(3)
C2 C 0.6870(5) 0.4996(4) 0.0273(4)
C3 C 0.6555(4) 0.4036(4) 0.1175(4)
C4 C 0.7479(3) 0.2871(3) 0.1402(3)
C5 C 0.8738(4) 0.2699(4) 0.0699(3)
C6 C 0.9072(4) 0.3627(4) -0.0214(3)
C7 C 0.7099(4) 0.1823(4) 0.2374(3)
C8 C 0.7368(3) 0.2041(3) 0.3663(3)
C9 C 0.6939(3) 0.0969(3) 0.4593(3)
C10 C 0.5635(4) 0.0367(4) 0.6511(3)
C11 C 0.6691(4) -0.0237(4) 0.7412(3)
C12 C 0.8453(4) 0.0836(4) 0.8219(3)
C13 C 0.8804(4) 0.1692(4) 0.7069(4)
C14 C 1.0676(4) 0.2917(4) 0.6088(3)
C15 C 1.0609(4) 0.2903(4) 0.4736(3)
C16 C 0.8916(3) 0.1982(3) 0.3807(3)
H1 H 0.623(5) 0.586(5) 0.006(5)
H2 H 0.572(5) 0.411(4) 0.170(4)
H3 H 0.933(4) 0.194(4) 0.083(4)
H4 H 1.000(4) 0.354(4) -0.073(4)
H5 H 0.611(4) 0.175(4) 0.233(4)
H6 H 0.768(4) 0.099(4) 0.221(4)
H7 H 0.694(3) 0.283(3) 0.384(3)
H8 H 0.572(4) 0.215(4) 0.557(3)
H9 H 0.542(4) -0.031(4) 0.609(3)
H10 H 0.482(4) 0.078(4) 0.695(4)
H11 H 0.637(3) -0.096(3) 0.790(3)
H12 H 0.757(4) -0.063(3) 0.702(3)
H13 H 0.640(4) 0.154(4) 0.806(3)
H14 H 0.670(4) 0.027(4) 0.912(4)
H15 H 0.898(4) -0.004(4) 0.829(3)
H16 H 0.860(4) 0.114(4) 0.890(4)
H17 H 0.834(4) 0.258(4) 0.704(4)
H18 H 0.857(4) 0.135(4) 0.639(4)
H19 H 1.064(4) 0.158(4) 0.765(4)
H20 H 1.076(5) 0.099(5) 0.654(4)
H21 H 1.158(4) 0.297(4) 0.622(3)
H22 H 0.997(4) 0.366(4) 0.641(4)
H23 H 1.118(4) 0.218(4) 0.445(4)
H24 H 1.091(3) 0.372(4) 0.433(3)
H25 H 0.862(4) 0.348(4) 0.455(3)
O5 O 1.1590(3) 0.0919(3) 0.9255(2)
O6 O 1.3772(2) 0.0820(3) 0.9484(2)
O7 O 1.2712(3) 0.2301(3) 0.8192(3)
N6 N 1.2694(3) 0.1354(3) 0.8985(3)
O8 O 0.434(1) 0.386(1) 0.3641(8)
O9 O 0.3800(7) 0.3902(8) 0.5512(7)
O10 O 0.294(2) 0.546(1) 0.421(1)
N7 N 0.3636(4) 0.4437(4) 0.4493(4)
O11 O 0.5421(4) 0.3140(3) 0.7849(4)
H26 H 0.556(7) 0.366(7) 0.729(6)
H27 H 0.45(1) 0.31(1) 0.80(1)
O12? O 0.430(2) 0.356(2) 0.434(2)
O13? O 0.306(1) 0.467(1) 0.565(2)
O14? O 0.299(3) 0.533(3) 0.374(3)
loop_
_geom_bond_atom_site_label_1
_geom_bond_atom_site_label_2
_geom_bond_site_symmetry_1
_geom_bond_site_symmetry_2
O1 N1 1_555 1_555
O2 N1 1_555 1_555
O3 C9 1_555 1_555
O4 C16 1_555 1_555
N1 C1 1_555 1_555
N2 C9 1_555 1_555
N3 C11 1_555 1_555
N4 C13 1_555 1_555
N5 C15 1_555 1_555
C1 C2 1_555 1_555
C2 C3 1_555 1_555
C3 C4 1_555 1_555
C4 C5 1_555 1_555
C5 C6 1_555 1_555
C6 C1 1_555 1_555
C7 C4 1_555 1_555
C8 C7 1_555 1_555
C9 C8 1_555 1_555
C10 N2 1_555 1_555
C11 C10 1_555 1_555
C12 N3 1_555 1_555
C13 C12 1_555 1_555
C14 N4 1_555 1_555
C15 C14 1_555 1_555
C16 N5 1_555 1_555
H1 C2 1_555 1_555
H2 C3 1_555 1_555
H3 C5 1_555 1_555
H4 C6 1_555 1_555
H5 C7 1_555 1_555
H6 C7 1_555 1_555
H7 C8 1_555 1_555
H8 N2 1_555 1_555
H9 C10 1_555 1_555
H10 C10 1_555 1_555
H11 C11 1_555 1_555
H12 C11 1_555 1_555
H13 N3 1_555 1_555
H14 N3 1_555 1_555
H15 C12 1_555 1_555
H16 C12 1_555 1_555
H17 C13 1_555 1_555
H18 C13 1_555 1_555
H19 N4 1_555 1_555
H20 N4 1_555 1_555
H21 C14 1_555 1_555
H22 C14 1_555 1_555
H23 C15 1_555 1_555
H24 C15 1_555 1_555
H25 N5 1_555 1_555
O5 N6 1_555 1_555
O6 N6 1_555 1_555
O7 N6 1_555 1_555
O8 N7 1_555 1_555
O9 N7 1_555 1_555
O10 N7 1_555 1_555
O11 H26 1_555 1_555
H27 O11 1_555 1_555
C8 C16 1_555 1_555

#END
