
#######################################################################
#
#                 Cambridge Crystallographic Data Centre
#                                CCDC 
#
#######################################################################
#
# If this CIF has been generated from an entry in the Cambridge 
# Structural Database, then it will include bibliographic, chemical, 
# crystal, experimental, refinement or atomic coordinate data resulting 
# from the CCDC's data processing and validation procedures.
#
#######################################################################

data_LEYNUZ
_chemical_compound_source        'hallucinogenic sage Salvia divinorum'
_chemical_name_common            '8-epi-salvinorin B'
_chemical_formula_moiety         'C21 H26 O7'
_chemical_name_systematic        
'(2S,4aS,6aR,7R,9S,10aS,10bR)-methyl 2-(3-furanyl)-dodecahydro-9-hydroxy-6a,10b-dimethyl-4,10-dioxo-2H-naphtho(2,1-c)pyran-7-carboxylate'
_chemical_properties_biological  
'Relatively low binding affinity, potency and efficacy at the kappa opioid receptor'
_symmetry_cell_setting           monoclinic
_symmetry_space_group_name_H-M   'P 21'
_symmetry_Int_Tables_number      4
_space_group_name_Hall           'P 2yb'
loop_
_symmetry_equiv_pos_site_id
_symmetry_equiv_pos_as_xyz
1 x,y,z
2 -x,1/2+y,-z
_cell_length_a                   10.5103(16)
_cell_length_b                   7.5216(12)
_cell_length_c                   24.079(4)
_cell_angle_alpha                90
_cell_angle_beta                 93.496(3)
_cell_angle_gamma                90
_cell_volume                     1900.01
_exptl_crystal_colour            colorless
_exptl_crystal_description       needle
_chemical_melting_point          '192-196 deg.C'
_cell_formula_units_Z            4
_exptl_crystal_recrystallization_method 'ethyl acetate'
loop_
_atom_site_label
_atom_site_type_symbol
_atom_site_fract_x
_atom_site_fract_y
_atom_site_fract_z
O1 O 0.14699(13) 0.3765(2) 0.89444(6)
O2 O 0.16210(18) 0.4992(2) 0.99636(7)
H1 H 0.1171 0.5250 0.9675
O3 O 0.54169(13) 0.1228(2) 0.79731(6)
O4 O 0.59181(18) 0.6098(3) 0.71796(8)
O5 O 0.60599(14) -0.0884(2) 0.85585(6)
O6 O 0.40681(15) -0.1841(3) 1.06730(7)
O7 O 0.20152(13) -0.1172(2) 1.07398(6)
C1 C 0.22272(17) 0.2963(3) 0.92538(8)
C2 C 0.2457(2) 0.3592(3) 0.98469(9)
H2 H 0.3350 0.4052 0.9894
C3 C 0.2324(2) 0.2064(3) 1.02544(9)
H3 H 0.1419 0.1698 1.0254
H4 H 0.2598 0.2463 1.0635
C4 C 0.31367(19) 0.0484(3) 1.00935(8)
H5 H 0.4032 0.0929 1.0087
C5 C 0.27607(17) -0.0224(3) 0.94940(8)
C6 C 0.36814(19) -0.1707(3) 0.93499(9)
H6 H 0.4563 -0.1320 0.9456
H7 H 0.3503 -0.2771 0.9574
C7 C 0.3597(2) -0.2220(3) 0.87357(9)
H8 H 0.2751 -0.2758 0.8641
H9 H 0.4252 -0.3131 0.8672
C8 C 0.37864(19) -0.0643(3) 0.83468(8)
H10 H 0.3510 -0.1072 0.7965
C9 C 0.29170(18) 0.0978(3) 0.84588(8)
C10 C 0.29936(17) 0.1360(3) 0.90956(8)
H11 H 0.3901 0.1710 0.9185
C11 C 0.34408(18) 0.2644(3) 0.81726(8)
H12 H 0.2718 0.3351 0.8008
H13 H 0.3909 0.3391 0.8455
C12 C 0.43250(19) 0.2162(3) 0.77203(8)
H14 H 0.3864 0.1367 0.7443
C13 C 0.4786(2) 0.3767(3) 0.74307(8)
C14 C 0.4153(2) 0.4617(4) 0.69658(10)
H15 H 0.3368 0.4262 0.6783
C15 C 0.4860(2) 0.6000(5) 0.68343(11)
H16 H 0.4650 0.6805 0.6539
C16 C 0.5845(3) 0.4703(4) 0.75403(11)
H17 H 0.6469 0.4438 0.7831
C17 C 0.5179(2) -0.0136(3) 0.83210(8)
C18 C 0.31472(19) -0.0978(3) 1.05280(8)
C19 C 0.13643(18) -0.0856(3) 0.94551(9)
H18 H 0.1213 -0.1605 0.9125
H19 H 0.0797 0.0178 0.9427
H20 H 0.1194 -0.1542 0.9788
C20 C 0.15840(19) 0.0542(4) 0.81958(8)
H21 H 0.0965 0.1393 0.8328
H22 H 0.1344 -0.0665 0.8302
H23 H 0.1594 0.0618 0.7790
C21 C 0.1902(2) -0.2584(4) 1.11413(9)
H24 H 0.1968 -0.3736 1.0955
H25 H 0.1074 -0.2497 1.1306
H26 H 0.2586 -0.2475 1.1434
O8 O 0.63971(12) -0.2170(2) 0.56170(6)
O9 O 0.69623(15) -0.3231(2) 0.46280(6)
H27 H 0.6455 -0.3594 0.4859
O10 O 0.96207(13) 0.0800(2) 0.70857(6)
O11 O 0.92593(17) -0.3705(3) 0.82481(7)
O12 O 1.03879(13) 0.2983(2) 0.66003(6)
O13 O 0.94326(15) 0.3755(3) 0.42962(8)
O14 O 0.75199(12) 0.2999(2) 0.39342(6)
C22 C 0.71922(16) -0.1243(3) 0.54115(8)
C23 C 0.76845(18) -0.1799(3) 0.48595(8)
H28 H 0.8584 -0.2215 0.4930
C24 C 0.76881(19) -0.0261(3) 0.44487(8)
H29 H 0.6801 0.0041 0.4322
H30 H 0.8147 -0.0619 0.4119
C25 C 0.83346(17) 0.1364(3) 0.47200(8)
H31 H 0.9212 0.0978 0.4852
C26 C 0.76680(17) 0.2002(3) 0.52478(8)
C27 C 0.84228(18) 0.3560(3) 0.55173(8)
H32 H 0.9339 0.3247 0.5547
H33 H 0.8319 0.4615 0.5273
C28 C 0.8004(2) 0.4039(3) 0.60941(8)
H34 H 0.8539 0.5030 0.6246
H35 H 0.7110 0.4458 0.6060
C29 C 0.81053(18) 0.2481(3) 0.64997(8)
H36 H 0.7644 0.2862 0.6831
C30 C 0.74085(17) 0.0768(3) 0.62751(8)
C31 C 0.77762(16) 0.0421(3) 0.56691(7)
H37 H 0.8710 0.0156 0.5708
C32 C 0.78948(18) -0.0851(3) 0.66289(7)
H38 H 0.7170 -0.1654 0.6689
H39 H 0.8522 -0.1520 0.6421
C33 C 0.85103(18) -0.0300(3) 0.71881(8)
H40 H 0.7890 0.0408 0.7396
C34 C 0.89776(17) -0.1836(3) 0.75345(8)
C35 C 0.9803(2) -0.3245(3) 0.73833(9)
H41 H 1.0180 -0.3388 0.7038
C36 C 0.9936(2) -0.4315(4) 0.78233(10)
H42 H 1.0438 -0.5366 0.7839
C37 C 0.8684(2) -0.2187(4) 0.80584(9)
H43 H 0.8146 -0.1469 0.8268
C38 C 0.94646(19) 0.2133(3) 0.67137(8)
C39 C 0.85020(18) 0.2835(4) 0.43019(8)
C40 C 0.62758(17) 0.2519(3) 0.50914(8)
H44 H 0.5931 0.3181 0.5399
H45 H 0.5769 0.1441 0.5019
H46 H 0.6241 0.3264 0.4757
C41 C 0.59733(18) 0.1007(4) 0.63474(8)
H47 H 0.5703 0.2182 0.6210
H48 H 0.5808 0.0906 0.6742
H49 H 0.5495 0.0086 0.6136
C42 C 0.7610(2) 0.4399(4) 0.35240(9)
H50 H 0.7711 0.5549 0.3713
H51 H 0.6832 0.4415 0.3278
H52 H 0.8348 0.4180 0.3304
loop_
_geom_bond_atom_site_label_1
_geom_bond_atom_site_label_2
_geom_bond_site_symmetry_1
_geom_bond_site_symmetry_2
O1 C1 1_555 1_555
O2 H1 1_555 1_555
O3 C12 1_555 1_555
O4 C15 1_555 1_555
O5 C17 1_555 1_555
O6 C18 1_555 1_555
O7 C18 1_555 1_555
C1 C2 1_555 1_555
C2 O2 1_555 1_555
H2 C2 1_555 1_555
C3 C2 1_555 1_555
H3 C3 1_555 1_555
H4 C3 1_555 1_555
C4 C3 1_555 1_555
H5 C4 1_555 1_555
C5 C4 1_555 1_555
C6 C5 1_555 1_555
H6 C6 1_555 1_555
H7 C6 1_555 1_555
C7 C6 1_555 1_555
H8 C7 1_555 1_555
H9 C7 1_555 1_555
C8 C7 1_555 1_555
H10 C8 1_555 1_555
C9 C8 1_555 1_555
C10 C1 1_555 1_555
H11 C10 1_555 1_555
C11 C9 1_555 1_555
H12 C11 1_555 1_555
H13 C11 1_555 1_555
C12 C11 1_555 1_555
H14 C12 1_555 1_555
C13 C12 1_555 1_555
C14 C13 1_555 1_555
H15 C14 1_555 1_555
C15 C14 1_555 1_555
H16 C15 1_555 1_555
C16 O4 1_555 1_555
H17 C16 1_555 1_555
C17 O3 1_555 1_555
C18 C4 1_555 1_555
C19 C5 1_555 1_555
H18 C19 1_555 1_555
H19 C19 1_555 1_555
H20 C19 1_555 1_555
C20 C9 1_555 1_555
H21 C20 1_555 1_555
H22 C20 1_555 1_555
H23 C20 1_555 1_555
C21 O7 1_555 1_555
H24 C21 1_555 1_555
H25 C21 1_555 1_555
H26 C21 1_555 1_555
O8 C22 1_555 1_555
O9 H27 1_555 1_555
O10 C33 1_555 1_555
O11 C36 1_555 1_555
O12 C38 1_555 1_555
O13 C39 1_555 1_555
O14 C39 1_555 1_555
C22 C23 1_555 1_555
C23 O9 1_555 1_555
H28 C23 1_555 1_555
C24 C23 1_555 1_555
H29 C24 1_555 1_555
H30 C24 1_555 1_555
C25 C24 1_555 1_555
H31 C25 1_555 1_555
C26 C25 1_555 1_555
C27 C26 1_555 1_555
H32 C27 1_555 1_555
H33 C27 1_555 1_555
C28 C27 1_555 1_555
H34 C28 1_555 1_555
H35 C28 1_555 1_555
C29 C28 1_555 1_555
H36 C29 1_555 1_555
C30 C29 1_555 1_555
C31 C22 1_555 1_555
H37 C31 1_555 1_555
C32 C30 1_555 1_555
H38 C32 1_555 1_555
H39 C32 1_555 1_555
C33 C32 1_555 1_555
H40 C33 1_555 1_555
C34 C33 1_555 1_555
C35 C34 1_555 1_555
H41 C35 1_555 1_555
C36 C35 1_555 1_555
H42 C36 1_555 1_555
C37 O11 1_555 1_555
H43 C37 1_555 1_555
C38 O10 1_555 1_555
C39 C25 1_555 1_555
C40 C26 1_555 1_555
H44 C40 1_555 1_555
H45 C40 1_555 1_555
H46 C40 1_555 1_555
C41 C30 1_555 1_555
H47 C41 1_555 1_555
H48 C41 1_555 1_555
H49 C41 1_555 1_555
C42 O14 1_555 1_555
H50 C42 1_555 1_555
H51 C42 1_555 1_555
H52 C42 1_555 1_555
C5 C10 1_555 1_555
C8 C17 1_555 1_555
C9 C10 1_555 1_555
C13 C16 1_555 1_555
C26 C31 1_555 1_555
C29 C38 1_555 1_555
C30 C31 1_555 1_555
C34 C37 1_555 1_555

#END
