
#######################################################################
#
#                 Cambridge Crystallographic Data Centre
#                                CCDC 
#
#######################################################################
#
# If this CIF has been generated from an entry in the Cambridge 
# Structural Database, then it will include bibliographic, chemical, 
# crystal, experimental, refinement or atomic coordinate data resulting 
# from the CCDC's data processing and validation procedures.
#
#######################################################################

data_LEYNAF
_chemical_formula_moiety         'C9 H8 B1 N1 O2,H2 O1'
_chemical_name_systematic        '5-Quinolineboronic acid monohydrate'
_symmetry_cell_setting           monoclinic
_symmetry_space_group_name_H-M   'C 2/c'
_symmetry_Int_Tables_number      15
_space_group_name_Hall           '-C 2yn'
loop_
_symmetry_equiv_pos_site_id
_symmetry_equiv_pos_as_xyz
1 x,y,z
2 1/2+x,1/2+y,z
3 -x,y,1/2-z
4 1/2-x,1/2+y,1/2-z
5 -x,-y,-z
6 1/2-x,1/2-y,-z
7 x,-y,1/2+z
8 1/2+x,1/2-y,1/2+z
_cell_length_a                   17.5355(10)
_cell_length_b                   7.1309(4)
_cell_length_c                   15.2705(9)
_cell_angle_alpha                90
_cell_angle_beta                 93.576(3)
_cell_angle_gamma                90
_cell_volume                     1905.76
_exptl_crystal_colour            colorless
_exptl_crystal_description       cube
_cell_formula_units_Z            8
loop_
_atom_site_label
_atom_site_type_symbol
_atom_site_fract_x
_atom_site_fract_y
_atom_site_fract_z
B1 B 0.56874(12) 0.5590(3) 0.64796(15)
C1 C 0.85225(12) 0.3947(3) 0.59583(16)
C2 C 0.81066(12) 0.3951(3) 0.67121(16)
C3 C 0.73550(12) 0.4442(3) 0.66388(14)
C4 C 0.70118(11) 0.4978(2) 0.58143(12)
C5 C 0.62339(11) 0.5594(2) 0.56929(12)
C6 C 0.59734(12) 0.6179(3) 0.48699(13)
C7 C 0.64374(12) 0.6129(3) 0.41494(13)
C8 C 0.71749(12) 0.5531(3) 0.42558(13)
C9 C 0.74819(11) 0.4956(2) 0.50907(13)
H1 H 0.9067(14) 0.358(3) 0.5995(14)
H2 H 0.8360(14) 0.367(4) 0.7280(18)
H3 H 0.7036(13) 0.441(3) 0.7153(16)
H4 H 0.5464(13) 0.665(3) 0.4780(14)
H5 H 0.6216(12) 0.655(3) 0.3568(15)
H6 H 0.7500(13) 0.546(3) 0.3781(16)
N1 N 0.82348(9) 0.4422(2) 0.51748(12)
O1 O 0.55187(8) 0.39620(19) 0.68878(9)
O2 O 0.53782(8) 0.7212(2) 0.67552(10)
H9 H 0.520(2) 0.409(6) 0.734(4)
H10 H 0.547(3) 0.821(8) 0.647(3)
O3 O 0.92007(13) 0.4383(3) 0.38297(14)
H7 H 0.8828 0.4301 0.4205
H8 H 0.9328 0.5220 0.3604
H11? H 0.563(3) 0.278(4) 0.663(3)
H12? H 0.515(3) 0.725(6) 0.730(3)
loop_
_geom_bond_atom_site_label_1
_geom_bond_atom_site_label_2
_geom_bond_site_symmetry_1
_geom_bond_site_symmetry_2
B1 C5 1_555 1_555
C1 C2 1_555 1_555
C2 C3 1_555 1_555
C3 C4 1_555 1_555
C4 C5 1_555 1_555
C5 C6 1_555 1_555
C6 C7 1_555 1_555
C7 C8 1_555 1_555
C8 C9 1_555 1_555
C9 C4 1_555 1_555
H1 C1 1_555 1_555
H2 C2 1_555 1_555
H3 C3 1_555 1_555
H4 C6 1_555 1_555
H5 C7 1_555 1_555
H6 C8 1_555 1_555
N1 C1 1_555 1_555
O1 B1 1_555 1_555
O2 B1 1_555 1_555
O3 H7 1_555 1_555
H8 O3 1_555 1_555
H9 O1 1_555 1_555
H10 O2 1_555 1_555
C9 N1 1_555 1_555

#END
