
#######################################################################
#
#                 Cambridge Crystallographic Data Centre
#                                CCDC 
#
#######################################################################
#
# If this CIF has been generated from an entry in the Cambridge 
# Structural Database, then it will include bibliographic, chemical, 
# crystal, experimental, refinement or atomic coordinate data resulting 
# from the CCDC's data processing and validation procedures.
#
#######################################################################

data_LEYNEJ
_chemical_name_common            '8-Quinolineboronic acid dimer monohydrate'
_chemical_formula_moiety         'C18 H14 B2 N2 O3,H2 O1'
_chemical_name_systematic        
"8,16-dihydroxy-8,16-epoxy[1,5,2,6]diazadiborocino[1,8,7-ij:5,4,3-i'j']diquinoline monohydrate"
_symmetry_cell_setting           monoclinic
_symmetry_space_group_name_H-M   'P 21/c'
_symmetry_Int_Tables_number      14
_space_group_name_Hall           '-P 2ybc'
loop_
_symmetry_equiv_pos_site_id
_symmetry_equiv_pos_as_xyz
1 x,y,z
2 -x,1/2+y,1/2-z
3 -x,-y,-z
4 x,1/2-y,1/2+z
_cell_length_a                   8.3643(3)
_cell_length_b                   17.5044(5)
_cell_length_c                   11.0456(3)
_cell_angle_alpha                90
_cell_angle_beta                 91.511(2)
_cell_angle_gamma                90
_cell_volume                     1616.65
_exptl_crystal_colour            colorless
_exptl_crystal_description       prism
_cell_formula_units_Z            4
loop_
_atom_site_label
_atom_site_type_symbol
_atom_site_fract_x
_atom_site_fract_y
_atom_site_fract_z
B1 B 0.5312(3) 0.57476(13) 0.8691(2)
B2 B 0.2518(3) 0.56543(13) 0.8068(2)
C1 C 0.7177(3) 0.47691(12) 0.7601(2)
H1 H 0.7967 0.4965 0.8122
C2 C 0.7598(3) 0.42021(12) 0.6782(2)
H2 H 0.8640 0.4017 0.6774
C3 C 0.6463(3) 0.39234(12) 0.5994(2)
H3 H 0.6732 0.3549 0.5438
C4 C 0.4883(3) 0.41999(11) 0.60187(18)
C5 C 0.3642(3) 0.39312(12) 0.52417(19)
H4 H 0.3855 0.3558 0.4669
C6 C 0.2145(3) 0.42132(13) 0.5324(2)
H5 H 0.1337 0.4038 0.4800
C7 C 0.1801(3) 0.47725(12) 0.61983(19)
H6 H 0.0761 0.4957 0.6235
C8 C 0.2937(2) 0.50553(11) 0.69970(17)
C9 C 0.4510(2) 0.47688(11) 0.68924(17)
C10 C 0.1429(3) 0.68328(12) 0.68580(19)
H7 H 0.0444 0.6593 0.6927
C11 C 0.1504(3) 0.75041(13) 0.6174(2)
H8 H 0.0589 0.7702 0.5795
C12 C 0.2948(3) 0.78642(12) 0.6073(2)
H9 H 0.3023 0.8306 0.5610
C13 C 0.4317(3) 0.75664(11) 0.66698(19)
C14 C 0.5831(3) 0.79224(12) 0.6627(2)
H10 H 0.5955 0.8368 0.6180
C15 C 0.7103(3) 0.76140(12) 0.7236(2)
H11 H 0.8091 0.7858 0.7224
C16 C 0.6941(3) 0.69255(12) 0.7890(2)
H12 H 0.7836 0.6724 0.8293
C17 C 0.5510(2) 0.65419(11) 0.79541(17)
C18 C 0.4178(3) 0.68753(11) 0.73463(17)
N1 N 0.5707(2) 0.50423(9) 0.76729(14)
N2 N 0.2692(2) 0.65231(9) 0.74111(15)
O1 O 0.64849(17) 0.56819(8) 0.96420(12)
H13 H 0.6357 0.5278 1.0004
O2 O 0.36896(16) 0.56304(7) 0.90395(11)
O3 O 0.08950(17) 0.55606(8) 0.84072(13)
H14 H 0.0740 0.5802 0.9030
O4 O 0.0520(2) 0.40338(9) 0.93705(16)
H15 H 0.176(3) 0.4042(14) 0.975(2)
H16 H 0.052(3) 0.4556(16) 0.894(2)
loop_
_geom_bond_atom_site_label_1
_geom_bond_atom_site_label_2
_geom_bond_site_symmetry_1
_geom_bond_site_symmetry_2
B1 C17 1_555 1_555
B2 C8 1_555 1_555
C1 H1 1_555 1_555
C2 C1 1_555 1_555
H2 C2 1_555 1_555
C3 C2 1_555 1_555
H3 C3 1_555 1_555
C4 C3 1_555 1_555
C5 C4 1_555 1_555
H4 C5 1_555 1_555
C6 C5 1_555 1_555
H5 C6 1_555 1_555
C7 C6 1_555 1_555
H6 C7 1_555 1_555
C8 C7 1_555 1_555
C9 C4 1_555 1_555
C10 H7 1_555 1_555
C11 C10 1_555 1_555
H8 C11 1_555 1_555
C12 C11 1_555 1_555
H9 C12 1_555 1_555
C13 C12 1_555 1_555
C14 C13 1_555 1_555
H10 C14 1_555 1_555
C15 C14 1_555 1_555
H11 C15 1_555 1_555
C16 C15 1_555 1_555
H12 C16 1_555 1_555
C17 C16 1_555 1_555
C18 C13 1_555 1_555
N1 B1 1_555 1_555
N2 B2 1_555 1_555
O1 B1 1_555 1_555
H13 O1 1_555 1_555
O2 B1 1_555 1_555
O3 B2 1_555 1_555
H14 O3 1_555 1_555
O4 H15 1_555 1_555
H16 O4 1_555 1_555
B2 O2 1_555 1_555
C1 N1 1_555 1_555
C8 C9 1_555 1_555
C9 N1 1_555 1_555
C10 N2 1_555 1_555
C17 C18 1_555 1_555
C18 N2 1_555 1_555

#END
