
#######################################################################
#
#                 Cambridge Crystallographic Data Centre
#                                CCDC 
#
#######################################################################
#
# If this CIF has been generated from an entry in the Cambridge 
# Structural Database, then it will include bibliographic, chemical, 
# crystal, experimental, refinement or atomic coordinate data resulting 
# from the CCDC's data processing and validation procedures.
#
#######################################################################

data_LEYQIQ
_chemical_formula_moiety         'C22 H20 O2,C1 H4 O1'
_chemical_name_systematic        
'Heptacyclo[10.8.0.0^2,11^.0^3,20^.0^4,19^.0^5,10^.0^13,18^]icosa-5,7,9,13,15,17-hexaene-1,3-diyldimethanol methanol solvate'
_symmetry_cell_setting           triclinic
_symmetry_space_group_name_H-M   'P -1'
_symmetry_Int_Tables_number      2
_space_group_name_Hall           '-P 1'
loop_
_symmetry_equiv_pos_site_id
_symmetry_equiv_pos_as_xyz
1 x,y,z
2 -x,-y,-z
_cell_length_a                   7.6315(15)
_cell_length_b                   8.4911(17)
_cell_length_c                   15.130(3)
_cell_angle_alpha                87.89(3)
_cell_angle_beta                 88.28(3)
_cell_angle_gamma                73.09(3)
_cell_volume                     937.204
_exptl_crystal_colour            colorless
_exptl_crystal_description       block
_cell_formula_units_Z            2
_exptl_crystal_recrystallization_method dichloromethane/methanol
loop_
_atom_site_label
_atom_site_type_symbol
_atom_site_fract_x
_atom_site_fract_y
_atom_site_fract_z
O1 O 0.59724(19) 0.24207(17) 0.45371(8)
H1 H 0.666(4) 0.168(4) 0.490(2)
O2 O 1.23317(18) -0.02610(18) 0.41925(8)
H2 H 1.219(4) 0.101(4) 0.4075(19)
C1 C 0.7850(2) 0.12476(19) 0.32496(10)
C2 C 0.8783(2) -0.05832(18) 0.35527(10)
H4 H 0.8960 -0.0824 0.4188
C3 C 1.0493(2) -0.06087(19) 0.29675(10)
C4 C 0.9548(2) 0.11989(19) 0.26433(10)
H5 H 1.0191 0.2025 0.2731
C5 C 0.9489(2) 0.06051(19) 0.16914(9)
H6 H 1.0338 0.0996 0.1304
C6 C 1.0443(2) -0.12397(19) 0.20202(10)
H7 H 1.1688 -0.1625 0.1769
C7 C 0.7263(2) -0.11303(19) 0.31064(10)
H8 H 0.6492 -0.1475 0.3558
C8 C 0.6318(2) 0.07294(18) 0.27920(10)
H9 H 0.5147 0.1165 0.3109
C9 C 0.6087(2) 0.11388(18) 0.18245(10)
C10 C 0.7640(2) 0.10435(18) 0.12823(10)
C11 C 0.7422(3) 0.1453(2) 0.03873(11)
H10 H 0.8447 0.1380 0.0025
C12 C 0.5693(3) 0.1971(2) 0.00301(12)
H11 H 0.5562 0.2242 -0.0570
C13 C 0.4167(3) 0.2084(3) 0.05603(13)
H12 H 0.3007 0.2434 0.0318
C14 C 0.4353(2) 0.1680(2) 0.14512(12)
H13 H 0.3315 0.1769 0.1807
C15 C 0.9453(2) -0.25082(19) 0.19076(10)
C16 C 0.7870(2) -0.24188(19) 0.24225(10)
C17 C 0.6915(2) -0.3564(2) 0.22954(12)
H14 H 0.5865 -0.3516 0.2635
C18 C 0.7508(3) -0.4775(2) 0.16694(13)
H15 H 0.6840 -0.5512 0.1582
C19 C 0.9082(3) -0.4880(2) 0.11803(12)
H16 H 0.9491 -0.5700 0.0768
C20 C 1.0058(3) -0.3765(2) 0.13016(11)
H17 H 1.1133 -0.3853 0.0975
C21 C 0.7282(3) 0.2644(2) 0.38869(11)
H18 H 0.8358 0.2733 0.4182
H19 H 0.6763 0.3667 0.3557
C22 C 1.2336(2) -0.1095(2) 0.33899(11)
H20 H 1.2708 -0.2274 0.3513
H21 H 1.3227 -0.0851 0.2978
O3 O 0.2358(3) 0.2940(2) 0.41836(13)
H3 H 0.343(4) 0.286(4) 0.4351(19)
C23 C 0.1597(5) 0.4502(4) 0.3830(3)
H22 H 0.1477 0.5295 0.4281
H23 H 0.0411 0.4583 0.3604
H24 H 0.2374 0.4716 0.3358
loop_
_geom_bond_atom_site_label_1
_geom_bond_atom_site_label_2
_geom_bond_site_symmetry_1
_geom_bond_site_symmetry_2
O1 H1 1_555 1_555
O2 H2 1_555 1_555
O3 H3 1_555 1_555
C1 C2 1_555 1_555
C2 H4 1_555 1_555
C3 C2 1_555 1_555
C4 C1 1_555 1_555
H5 C4 1_555 1_555
C5 C4 1_555 1_555
H6 C5 1_555 1_555
C6 C3 1_555 1_555
H7 C6 1_555 1_555
C7 C2 1_555 1_555
H8 C7 1_555 1_555
C8 C1 1_555 1_555
H9 C8 1_555 1_555
C9 C8 1_555 1_555
C10 C5 1_555 1_555
C11 C10 1_555 1_555
H10 C11 1_555 1_555
C12 C11 1_555 1_555
H11 C12 1_555 1_555
C13 C12 1_555 1_555
H12 C13 1_555 1_555
C14 C9 1_555 1_555
H13 C14 1_555 1_555
C15 C6 1_555 1_555
C16 C7 1_555 1_555
C17 C16 1_555 1_555
H14 C17 1_555 1_555
C18 C17 1_555 1_555
H15 C18 1_555 1_555
C19 C18 1_555 1_555
H16 C19 1_555 1_555
C20 C15 1_555 1_555
H17 C20 1_555 1_555
C21 O1 1_555 1_555
H18 C21 1_555 1_555
H19 C21 1_555 1_555
C22 O2 1_555 1_555
H20 C22 1_555 1_555
H21 C22 1_555 1_555
C23 O3 1_555 1_555
H22 C23 1_555 1_555
H23 C23 1_555 1_555
H24 C23 1_555 1_555
C1 C21 1_555 1_555
C3 C4 1_555 1_555
C3 C22 1_555 1_555
C5 C6 1_555 1_555
C7 C8 1_555 1_555
C9 C10 1_555 1_555
C13 C14 1_555 1_555
C15 C16 1_555 1_555
C19 C20 1_555 1_555

#END
