
#######################################################################
#
#                 Cambridge Crystallographic Data Centre
#                                CCDC 
#
#######################################################################
#
# If this CIF has been generated from an entry in the Cambridge 
# Structural Database, then it will include bibliographic, chemical, 
# crystal, experimental, refinement or atomic coordinate data resulting 
# from the CCDC's data processing and validation procedures.
#
#######################################################################

data_LEYQIR
_chemical_name_common            'Citrylidene malonic acid'
_chemical_formula_moiety         'C13 H18 O4'
_chemical_name_systematic        
1,7,7-Trimethyl-2,6-dioxatricyclo[6.2.2.0^4,9^]dodecane-3,5-dione
_symmetry_cell_setting           monoclinic
_symmetry_space_group_name_H-M   'P 21/c'
_symmetry_Int_Tables_number      14
_space_group_name_Hall           '-P 2ybc'
loop_
_symmetry_equiv_pos_site_id
_symmetry_equiv_pos_as_xyz
1 x,y,z
2 -x,1/2+y,1/2-z
3 -x,-y,-z
4 x,1/2-y,1/2+z
_cell_length_a                   8.7862(3)
_cell_length_b                   19.9329(8)
_cell_length_c                   7.1393(2)
_cell_angle_alpha                90
_cell_angle_beta                 107.364(2)
_cell_angle_gamma                90
_cell_volume                     1193.36
_exptl_crystal_colour            colorless
_exptl_crystal_description       prism
_cell_formula_units_Z            4
loop_
_atom_site_label
_atom_site_type_symbol
_atom_site_fract_x
_atom_site_fract_y
_atom_site_fract_z
C1 C -0.0802(2) 0.62628(10) -0.1776(3)
H1 H -0.1311 0.5856 -0.1559
H2 H -0.0736 0.6267 -0.3094
H3 H -0.1413 0.6642 -0.1583
C2 C 0.08545(18) 0.62994(7) -0.0348(2)
C3 C 0.1702(2) 0.69449(8) -0.0576(2)
H4 H 0.1058 0.7324 -0.0418
H5 H 0.1800 0.6964 -0.1893
C4 C 0.3357(2) 0.70059(7) 0.0904(2)
H6 H 0.3247 0.7080 0.2200
H7 H 0.3896 0.7392 0.0571
C5 C 0.43773(18) 0.63798(7) 0.0952(2)
H8 H 0.4626 0.6359 -0.0297
C6 C 0.34570(16) 0.57408(6) 0.1121(2)
H9 H 0.4103 0.5351 0.1007
C7 C 0.18638(18) 0.57001(7) -0.0482(2)
H10 H 0.2041 0.5691 -0.1759
H11 H 0.1314 0.5291 -0.0332
C8 C 0.31556(17) 0.57189(7) 0.3126(2)
H12 H 0.2908 0.5251 0.3335
C9 C 0.17139(19) 0.61337(8) 0.3261(2)
C10 C 0.45888(18) 0.59051(8) 0.4848(2)
C11 C 0.59593(18) 0.63903(8) 0.2600(2)
C12 C 0.6869(2) 0.70433(10) 0.2754(3)
H13 H 0.6227 0.7405 0.2989
H14 H 0.7116 0.7123 0.1551
H15 H 0.7840 0.7016 0.3819
C13 C 0.7042(2) 0.58052(10) 0.2453(3)
H16 H 0.8051 0.5851 0.3445
H17 H 0.7203 0.5807 0.1181
H18 H 0.6552 0.5390 0.2640
O1 O 0.06033(13) 0.63144(6) 0.16132(16)
O2 O 0.15007(17) 0.62693(8) 0.48034(18)
O3 O 0.47535(16) 0.57081(7) 0.64876(16)
O4 O 0.56675(13) 0.63295(6) 0.45338(15)
loop_
_geom_bond_atom_site_label_1
_geom_bond_atom_site_label_2
_geom_bond_site_symmetry_1
_geom_bond_site_symmetry_2
C1 H1 1_555 1_555
H2 C1 1_555 1_555
H3 C1 1_555 1_555
C2 C1 1_555 1_555
C3 C2 1_555 1_555
H4 C3 1_555 1_555
H5 C3 1_555 1_555
C4 C3 1_555 1_555
H6 C4 1_555 1_555
H7 C4 1_555 1_555
C5 C4 1_555 1_555
H8 C5 1_555 1_555
C6 C5 1_555 1_555
H9 C6 1_555 1_555
C7 C2 1_555 1_555
H10 C7 1_555 1_555
H11 C7 1_555 1_555
C8 C6 1_555 1_555
H12 C8 1_555 1_555
C9 C8 1_555 1_555
C10 C8 1_555 1_555
C11 C5 1_555 1_555
C12 C11 1_555 1_555
H13 C12 1_555 1_555
H14 C12 1_555 1_555
H15 C12 1_555 1_555
C13 C11 1_555 1_555
H16 C13 1_555 1_555
H17 C13 1_555 1_555
H18 C13 1_555 1_555
O1 C2 1_555 1_555
O2 C9 1_555 1_555
O3 C10 1_555 1_555
O4 C10 1_555 1_555
C6 C7 1_555 1_555
C9 O1 1_555 1_555
C11 O4 1_555 1_555

#END
