
#######################################################################
#
#                 Cambridge Crystallographic Data Centre
#                                CCDC 
#
#######################################################################
#
# If this CIF has been generated from an entry in the Cambridge 
# Structural Database, then it will include bibliographic, chemical, 
# crystal, experimental, refinement or atomic coordinate data resulting 
# from the CCDC's data processing and validation procedures.
#
#######################################################################

data_LEYVES
_chemical_compound_source        
'basidiomycete Stereum sp. CCTCC AF 2012007, collected in Xishuangbanna, Yunnan Province'
_chemical_name_common            'Stereumin M'
_chemical_formula_moiety         'C15 H20 O4'
_chemical_name_systematic        
3a-Hydroxy-6,9-dimethyl-3-methylenedecahydrobenzo[de]chromene-4,8-dione
_symmetry_cell_setting           monoclinic
_symmetry_space_group_name_H-M   'C 2'
_symmetry_Int_Tables_number      5
_space_group_name_Hall           'C 2y'
loop_
_symmetry_equiv_pos_site_id
_symmetry_equiv_pos_as_xyz
1 x,y,z
2 -x,y,-z
3 1/2+x,1/2+y,z
4 1/2-x,1/2+y,-z
_cell_length_a                   14.468(3)
_cell_length_b                   9.1749(18)
_cell_length_c                   10.636(2)
_cell_angle_alpha                90
_cell_angle_beta                 94.793(2)
_cell_angle_gamma                90
_cell_volume                     1406.91
_exptl_crystal_colour            colorless
_exptl_crystal_description       block
_chemical_melting_point          '85-87 deg.C'
_cell_formula_units_Z            4
loop_
_atom_site_label
_atom_site_type_symbol
_atom_site_fract_x
_atom_site_fract_y
_atom_site_fract_z
O1 O 0.36400(11) 0.56787(19) 0.55609(14)
O2 O 0.45517(14) 0.3397(2) 0.79800(17)
H1 H 0.4892 0.3475 0.8633
O3 O 0.38176(16) 0.3641(3) 1.01961(19)
O4 O 0.14392(16) 0.5050(3) 0.3792(2)
C1 C 0.43490(19) 0.6150(3) 0.6493(2)
H2 H 0.4466 0.7181 0.6380
H3 H 0.4919 0.5626 0.6379
C2 C 0.40743(17) 0.5891(3) 0.7809(2)
C3 C 0.3359(2) 0.4188(3) 0.9305(2)
C4 C 0.2398(2) 0.4751(4) 0.9400(2)
H4 H 0.2422 0.5806 0.9455
H5 H 0.2172 0.4390 1.0174
C5 C 0.1706(2) 0.4322(3) 0.8291(2)
H6 H 0.1591 0.3273 0.8347
C6 C 0.1444(2) 0.4178(3) 0.5903(2)
H7 H 0.1281 0.3159 0.5986
H8 H 0.0879 0.4747 0.5912
C7 C 0.1850(2) 0.4400(3) 0.4663(3)
C8 C 0.2792(2) 0.3708(3) 0.4551(2)
H9 H 0.2702 0.2653 0.4612
C9 C 0.3180(2) 0.3985(4) 0.3288(3)
H10 H 0.2772 0.3571 0.2624
H11 H 0.3781 0.3544 0.3286
H12 H 0.3232 0.5016 0.3156
C10 C 0.0792(2) 0.5116(4) 0.8417(3)
H13 H 0.0586 0.4933 0.9237
H14 H 0.0334 0.4770 0.7781
H15 H 0.0881 0.6144 0.8311
C11 C 0.4137(2) 0.6938(4) 0.8665(3)
H16 H 0.4353 0.7854 0.8460
H17 H 0.3964 0.6758 0.9473
C12 C 0.37724(18) 0.4343(3) 0.8035(2)
C13 C 0.21152(17) 0.4622(3) 0.7036(2)
H18 H 0.2219 0.5675 0.6980
C14 C 0.34519(19) 0.4145(3) 0.5686(2)
H19 H 0.4033 0.3602 0.5660
C15 C 0.30530(17) 0.3861(3) 0.6954(2)
H20 H 0.2956 0.2809 0.7033
loop_
_geom_bond_atom_site_label_1
_geom_bond_atom_site_label_2
_geom_bond_site_symmetry_1
_geom_bond_site_symmetry_2
O1 C1 1_555 1_555
O2 H1 1_555 1_555
O3 C3 1_555 1_555
O4 C7 1_555 1_555
C1 H2 1_555 1_555
H3 C1 1_555 1_555
C2 C1 1_555 1_555
C3 C4 1_555 1_555
C4 H4 1_555 1_555
H5 C4 1_555 1_555
C5 C4 1_555 1_555
H6 C5 1_555 1_555
C6 H7 1_555 1_555
H8 C6 1_555 1_555
C7 C6 1_555 1_555
C8 C7 1_555 1_555
H9 C8 1_555 1_555
C9 C8 1_555 1_555
H10 C9 1_555 1_555
H11 C9 1_555 1_555
H12 C9 1_555 1_555
C10 C5 1_555 1_555
H13 C10 1_555 1_555
H14 C10 1_555 1_555
H15 C10 1_555 1_555
C11 C2 1_555 1_555
H16 C11 1_555 1_555
H17 C11 1_555 1_555
C12 O2 1_555 1_555
C13 C5 1_555 1_555
H18 C13 1_555 1_555
C14 O1 1_555 1_555
H19 C14 1_555 1_555
C15 C12 1_555 1_555
H20 C15 1_555 1_555
C2 C12 1_555 1_555
C3 C12 1_555 1_555
C6 C13 1_555 1_555
C8 C14 1_555 1_555
C13 C15 1_555 1_555
C14 C15 1_555 1_555

#END
