
#######################################################################
#
#                 Cambridge Crystallographic Data Centre
#                                CCDC 
#
#######################################################################
#
# If this CIF has been generated from an entry in the Cambridge 
# Structural Database, then it will include bibliographic, chemical, 
# crystal, experimental, refinement or atomic coordinate data resulting 
# from the CCDC's data processing and validation procedures.
#
#######################################################################

data_LEYXUK
_chemical_compound_source        
'basidiomycete Stereum sp. CCTCC AF 2012007, collected in Xishuangbanna, Yunnan Province'
_chemical_name_common            'Stereumin K'
_chemical_formula_moiety         'C15 H20 O4,H2 O1'
_chemical_name_systematic        
'4-Hydroxy-3-(hydroxymethyl)-6,9-dimethyl-5,6,6a,7,9a,9b-hexahydrobenzo[de]chromen-2(4H)-one hydrate'
_symmetry_cell_setting           monoclinic
_symmetry_space_group_name_H-M   'P 21'
_symmetry_Int_Tables_number      4
_space_group_name_Hall           'P 2yb'
loop_
_symmetry_equiv_pos_site_id
_symmetry_equiv_pos_as_xyz
1 x,y,z
2 -x,1/2+y,-z
_cell_length_a                   8.5578(2)
_cell_length_b                   6.41910(10)
_cell_length_c                   13.1374(3)
_cell_angle_alpha                90
_cell_angle_beta                 93.2270(10)
_cell_angle_gamma                90
_cell_volume                     720.537
_exptl_crystal_colour            colorless
_exptl_crystal_description       prism
_chemical_melting_point          '135-138 deg.C'
_cell_formula_units_Z            2
loop_
_atom_site_label
_atom_site_type_symbol
_atom_site_fract_x
_atom_site_fract_y
_atom_site_fract_z
O1 O 0.27032(10) 0.46962(17) 0.43494(6)
O2 O 0.44810(11) 0.68493(18) 0.50084(7)
O3 O 0.36121(11) 0.53255(18) 0.06385(7)
H1 H 0.3736 0.5830 0.0075
O4 O 0.54098(11) 1.01028(17) 0.30853(6)
H2 H 0.5588 1.0646 0.3645
C1 C 0.57783(15) 0.7936(3) 0.31480(10)
H3 H 0.6479 0.7703 0.3743
H4 H 0.6331 0.7546 0.2552
C2 C 0.43721(14) 0.6542(2) 0.32149(9)
C3 C 0.34416(14) 0.5974(2) 0.24013(10)
C4 C 0.34748(16) 0.6965(3) 0.13679(9)
H5 H 0.4362 0.7927 0.1345
C5 C 0.19187(18) 0.8151(3) 0.11998(10)
H6 H 0.1900 0.9285 0.1687
H7 H 0.1869 0.8756 0.0522
C6 C 0.04718(16) 0.6789(3) 0.13109(10)
H8 H 0.0463 0.5741 0.0768
C7 C 0.10421(18) 0.0577(3) 0.45999(12)
H9 H 0.0074 -0.0152 0.4667
H10 H 0.1327 0.1292 0.5225
H11 H 0.1848 -0.0401 0.4454
C8 C 0.08511(15) 0.2125(3) 0.37479(10)
C9 C 0.22918(15) 0.3288(2) 0.34890(9)
H12 H 0.3144 0.2281 0.3435
C10 C 0.38996(14) 0.6001(2) 0.42505(10)
C11 C 0.21132(15) 0.4492(2) 0.24960(9)
H13 H 0.2173 0.3475 0.1943
C12 C 0.05345(15) 0.5611(2) 0.23334(10)
H14 H 0.0438 0.6624 0.2884
C13 C -0.07776(17) 0.4017(3) 0.23890(11)
H15 H -0.1750 0.4745 0.2491
H16 H -0.0897 0.3288 0.1742
C14 C -0.05019(16) 0.2449(3) 0.32264(11)
H17 H -0.1349 0.1635 0.3394
C15 C -0.1026(2) 0.8051(4) 0.11559(13)
H18 H -0.1104 0.9007 0.1712
H19 H -0.1910 0.7128 0.1129
H20 H -0.1009 0.8813 0.0528
O5 O 0.57299(15) 0.2113(2) 0.11542(8)
H21 H 0.501(2) 0.298(4) 0.1011(14)
H22 H 0.560(2) 0.157(4) 0.1770(18)
loop_
_geom_bond_atom_site_label_1
_geom_bond_atom_site_label_2
_geom_bond_site_symmetry_1
_geom_bond_site_symmetry_2
O1 C9 1_555 1_555
O2 C10 1_555 1_555
O3 H1 1_555 1_555
O4 H2 1_555 1_555
C1 O4 1_555 1_555
H3 C1 1_555 1_555
H4 C1 1_555 1_555
C2 C1 1_555 1_555
C3 C2 1_555 1_555
C4 O3 1_555 1_555
H5 C4 1_555 1_555
C5 C4 1_555 1_555
H6 C5 1_555 1_555
H7 C5 1_555 1_555
C6 C5 1_555 1_555
H8 C6 1_555 1_555
C7 H9 1_555 1_555
H10 C7 1_555 1_555
H11 C7 1_555 1_555
C8 C7 1_555 1_555
C9 C8 1_555 1_555
H12 C9 1_555 1_555
C10 O1 1_555 1_555
C11 C3 1_555 1_555
H13 C11 1_555 1_555
C12 C6 1_555 1_555
H14 C12 1_555 1_555
C13 C12 1_555 1_555
H15 C13 1_555 1_555
H16 C13 1_555 1_555
C14 C8 1_555 1_555
H17 C14 1_555 1_555
C15 C6 1_555 1_555
H18 C15 1_555 1_555
H19 C15 1_555 1_555
H20 C15 1_555 1_555
O5 H21 1_555 1_555
H22 O5 1_555 1_555
C2 C10 1_555 1_555
C3 C4 1_555 1_555
C9 C11 1_555 1_555
C11 C12 1_555 1_555
C13 C14 1_555 1_555

#END
