
#######################################################################
#
#                 Cambridge Crystallographic Data Centre
#                                CCDC 
#
#######################################################################
#
# If this CIF has been generated from an entry in the Cambridge 
# Structural Database, then it will include bibliographic, chemical, 
# crystal, experimental, refinement or atomic coordinate data resulting 
# from the CCDC's data processing and validation procedures.
#
#######################################################################

data_LEYZOF
_chemical_formula_moiety         'C19 H20 N6 O2,C2 H3 N1'
_chemical_name_systematic        
'4-Benzyloxy-2-(((dimethylamino)methylidene)amino)-6-((E)-prop-2-enyl)pteridin-7(8H)-one acetonitrile solvate'
_symmetry_cell_setting           triclinic
_symmetry_space_group_name_H-M   'P -1'
_symmetry_Int_Tables_number      2
_space_group_name_Hall           '-P 1'
loop_
_symmetry_equiv_pos_site_id
_symmetry_equiv_pos_as_xyz
1 x,y,z
2 -x,-y,-z
_cell_length_a                   4.6804(5)
_cell_length_b                   13.789(2)
_cell_length_c                   17.642(2)
_cell_angle_alpha                79.920(6)
_cell_angle_beta                 87.846(6)
_cell_angle_gamma                83.811(6)
_cell_volume                     1114.27
_exptl_crystal_colour            amber
_exptl_crystal_description       Cube
_cell_formula_units_Z            2
loop_
_atom_site_label
_atom_site_type_symbol
_atom_site_fract_x
_atom_site_fract_y
_atom_site_fract_z
O1 O 0.7376(13) 0.2606(5) 0.6559(3)
O2 O 1.2437(14) -0.0414(5) 0.9331(4)
N1 N 0.5289(16) 0.2134(6) 0.8841(4)
N2 N 0.4596(17) 0.3034(6) 0.7554(4)
N3 N 1.0575(15) 0.1115(6) 0.7524(4)
N4 N 0.8857(16) 0.0850(6) 0.9066(4)
N5 N 0.1778(16) 0.3430(6) 0.8633(4)
N6 N -0.1907(16) 0.4690(6) 0.8366(4)
C1 C 0.387(2) 0.2838(7) 0.8334(5)
C2 C 0.666(2) 0.2461(8) 0.7309(5)
C3 C 1.1942(18) 0.0407(7) 0.8039(5)
C4 C 1.115(2) 0.0251(8) 0.8850(6)
C5 C 0.7434(19) 0.1584(7) 0.8562(5)
C6 C 0.8369(19) 0.1720(7) 0.7798(5)
C7 C 0.018(2) 0.4046(8) 0.8151(6)
C8 C -0.261(2) 0.4676(9) 0.9161(5)
C9 C -0.362(2) 0.5396(8) 0.7786(6)
C10 C 0.551(2) 0.3325(9) 0.6061(5)
C11 C 0.644(2) 0.3303(9) 0.5267(6)
C12 C 0.818(2) 0.3305(13) 0.3735(6)
C13 C 1.424(2) -0.0272(9) 0.7781(6)
C14 C 1.544(2) -0.0179(9) 0.7083(6)
C15 C 1.778(2) -0.0867(10) 0.6837(7)
C18 C 0.733(7) 0.413(2) 0.478(2)
C19 C 0.663(6) 0.237(2) 0.5022(17)
C20 C 0.738(5) 0.239(2) 0.4199(15)
C21 C 0.799(7) 0.407(2) 0.4046(15)
H1 H 0.8292 0.0757 0.9540
H2 H 0.0500 0.4043 0.7627
H3 H -0.1228 0.4225 0.9469
H4 H -0.4492 0.4465 0.9270
H5 H -0.2578 0.5328 0.9279
H6 H -0.2486 0.5917 0.7561
H7 H -0.5308 0.5672 0.8029
H8 H -0.4166 0.5057 0.7392
H9 H 0.5607 0.3981 0.6180
H10 H 0.3537 0.3168 0.6135
H11 H 0.8820 0.3327 0.3227
H12 H 1.4910 -0.0820 0.8139
H13 H 1.4763 0.0363 0.6722
H14 H 1.8311 -0.1384 0.7262
H15 H 1.9408 -0.0515 0.6666
H16 H 1.7132 -0.1152 0.6423
H20 H 0.7479 0.4709 0.4971
H21 H 0.6295 0.1787 0.5355
H22 H 0.7344 0.1821 0.3980
H23 H 0.8339 0.4655 0.3727
C16 C 1.204(2) 0.2297(11) 1.0502(7)
C17 C 1.013(3) 0.2695(10) 1.1061(7)
N7 N 0.880(3) 0.3007(12) 1.1511(8)
H17 H 1.3420 0.2753 1.0318
H18 H 1.0938 0.2197 1.0078
H19 H 1.3014 0.1676 1.0738
C22? C 0.505(6) 0.290(2) 0.4711(15)
C23? C 0.968(5) 0.377(3) 0.4266(19)
C24? C 0.598(7) 0.291(2) 0.3969(14)
C25? C 0.869(7) 0.375(3) 0.493(2)
H24? H 0.3381 0.2600 0.4865
H25? H 1.1347 0.4067 0.4110
H26? H 0.4963 0.2621 0.3638
H27? H 0.9625 0.4100 0.5232
loop_
_geom_bond_atom_site_label_1
_geom_bond_atom_site_label_2
_geom_bond_site_symmetry_1
_geom_bond_site_symmetry_2
O1 C2 1_555 1_555
O2 C4 1_555 1_555
N1 C1 1_555 1_555
N2 C1 1_555 1_555
N3 C3 1_555 1_555
N4 C4 1_555 1_555
N5 C1 1_555 1_555
N6 C7 1_555 1_555
C2 N2 1_555 1_555
C3 C4 1_555 1_555
C5 N1 1_555 1_555
C6 N3 1_555 1_555
C7 N5 1_555 1_555
C8 N6 1_555 1_555
C9 N6 1_555 1_555
C10 O1 1_555 1_555
C11 C10 1_555 1_555
C12 C20 1_555 1_555
C13 C3 1_555 1_555
C14 C13 1_555 1_555
C15 C14 1_555 1_555
C16 C17 1_555 1_555
C17 N7 1_555 1_555
C18 C11 1_555 1_555
C19 C11 1_555 1_555
C20 C19 1_555 1_555
C21 C12 1_555 1_555
H1 N4 1_555 1_555
H2 C7 1_555 1_555
H3 C8 1_555 1_555
H4 C8 1_555 1_555
H5 C8 1_555 1_555
H6 C9 1_555 1_555
H7 C9 1_555 1_555
H8 C9 1_555 1_555
H9 C10 1_555 1_555
H10 C10 1_555 1_555
H11 C12 1_555 1_555
H12 C13 1_555 1_555
H13 C14 1_555 1_555
H14 C15 1_555 1_555
H15 C15 1_555 1_555
H16 C15 1_555 1_555
H17 C16 1_555 1_555
H18 C16 1_555 1_555
H19 C16 1_555 1_555
H20 C18 1_555 1_555
H21 C19 1_555 1_555
H22 C20 1_555 1_555
H23 C21 1_555 1_555
N4 C5 1_555 1_555
C2 C6 1_555 1_555
C5 C6 1_555 1_555
C18 C21 1_555 1_555

#END
