
#######################################################################
#
#                 Cambridge Crystallographic Data Centre
#                                CCDC 
#
#######################################################################
#
# If this CIF has been generated from an entry in the Cambridge 
# Structural Database, then it will include bibliographic, chemical, 
# crystal, experimental, refinement or atomic coordinate data resulting 
# from the CCDC's data processing and validation procedures.
#
#######################################################################

data_LEZGII
_chemical_formula_moiety         'C30 H24 N4 O3'
_chemical_name_systematic        
3-Ethynyl-9-(4-(4-((4-nitrophenyl)diazenyl)phenoxy)butyl)-9H-carbazole
_symmetry_cell_setting           monoclinic
_symmetry_space_group_name_H-M   'P 21/c'
_symmetry_Int_Tables_number      14
_space_group_name_Hall           '-P 2ybc'
loop_
_symmetry_equiv_pos_site_id
_symmetry_equiv_pos_as_xyz
1 x,y,z
2 -x,1/2+y,1/2-z
3 -x,-y,-z
4 x,1/2-y,1/2+z
_cell_length_a                   9.238(3)
_cell_length_b                   28.240(8)
_cell_length_c                   9.783(3)
_cell_angle_alpha                90
_cell_angle_beta                 94.253(3)
_cell_angle_gamma                90
_cell_volume                     2545.17
_exptl_crystal_colour            red
_exptl_crystal_description       block
_cell_formula_units_Z            4
loop_
_atom_site_label
_atom_site_type_symbol
_atom_site_fract_x
_atom_site_fract_y
_atom_site_fract_z
C1 C 0.1677(6) 0.4758(2) 0.4668(7)
H1 H 0.1543 0.4997 0.5298
C2 C 0.1842(6) 0.4460(2) 0.3885(6)
C3 C 0.2130(5) 0.40965(17) 0.2945(5)
C4 C 0.1061(5) 0.39333(19) 0.1955(5)
H2 H 0.0141 0.4068 0.1926
C5 C 0.1319(5) 0.35840(17) 0.1031(5)
H3 H 0.0590 0.3479 0.0396
C6 C 0.2704(5) 0.33922(16) 0.1076(4)
C7 C 0.3789(5) 0.35419(16) 0.2070(4)
C8 C 0.3493(5) 0.38926(16) 0.2990(4)
H4 H 0.4212 0.3992 0.3642
C9 C 0.5064(5) 0.32692(16) 0.1858(4)
C10 C 0.6451(5) 0.3252(2) 0.2486(5)
H5 H 0.6731 0.3454 0.3210
C11 C 0.7399(6) 0.2932(2) 0.2016(7)
H6 H 0.8335 0.2915 0.2433
C12 C 0.7011(8) 0.2629(2) 0.0936(8)
H7 H 0.7683 0.2411 0.0656
C13 C 0.5648(7) 0.2646(2) 0.0270(6)
H8 H 0.5392 0.2451 -0.0473
C14 C 0.4677(6) 0.29651(17) 0.0749(5)
C15 C 0.2470(7) 0.2784(2) -0.0818(6)
H9 H 0.3054 0.2765 -0.1600
H10 H 0.1579 0.2949 -0.1105
C16 C 0.2095(13) 0.2272(4) -0.0349(19)
H11 H 0.2852 0.2075 -0.0687
H12 H 0.2283 0.2277 0.0639
N1 N 0.3251(4) 0.30487(14) 0.0265(4)
C17 C 0.0666(7) 0.1683(3) 0.0521(8)
H13 H 0.1627 0.1633 0.0966
H14 H 0.0356 0.1382 0.0120
C18 C -0.0762(5) 0.14293(18) 0.2361(5)
C19 C -0.1779(5) 0.15392(19) 0.3334(4)
H15 H -0.2127 0.1845 0.3443
C20 C -0.2231(5) 0.11516(16) 0.4133(5)
H16 H -0.2892 0.1209 0.4786
C21 C -0.1742(7) 0.07038(18) 0.3982(6)
C22 C -0.0769(6) 0.0653(2) 0.3000(5)
H17 H -0.0409 0.0349 0.2885
C23 C -0.0298(6) 0.09709(16) 0.2228(5)
H18 H 0.0353 0.0894 0.1581
C24 C -0.3536(6) -0.00265(18) 0.6253(6)
C25 C -0.4473(6) 0.0036(2) 0.7306(5)
H19 H -0.4722 0.0345 0.7514
C26 C -0.5001(6) -0.0285(2) 0.7985(6)
H20 H -0.5634 -0.0218 0.8655
C27 C -0.4623(5) -0.0727(2) 0.7716(5)
C28 C -0.3765(5) -0.08490(19) 0.6743(5)
H21 H -0.3545 -0.1164 0.6575
C29 C -0.3199(5) -0.04748(16) 0.5974(5)
H22 H -0.2596 -0.0541 0.5278
N2 N -0.2272(5) 0.02782(15) 0.4794(5)
N3 N -0.2986(5) 0.04096(15) 0.5497(5)
N4 N -0.5217(6) -0.1103(2) 0.8569(5)
O1 O -0.0279(4) 0.17853(11) 0.1577(4)
O2 O -0.6086(5) -0.0975(2) 0.9373(5)
O3 O -0.4811(7) -0.1495(2) 0.8447(7)
C30 C 0.0821(12) 0.1998(4) -0.0571(11)
H23 H -0.0015 0.2207 -0.0667
H24 H 0.0857 0.1821 -0.1417
C31? C 0.146(6) 0.2306(12) -0.106(2)
C32? C 0.1167(14) 0.2313(3) 0.0328(11)
loop_
_geom_bond_atom_site_label_1
_geom_bond_atom_site_label_2
_geom_bond_site_symmetry_1
_geom_bond_site_symmetry_2
C1 H1 1_555 1_555
C2 C1 1_555 1_555
C3 C2 1_555 1_555
C4 C3 1_555 1_555
H2 C4 1_555 1_555
C5 C4 1_555 1_555
H3 C5 1_555 1_555
C6 C5 1_555 1_555
C7 C6 1_555 1_555
C8 C3 1_555 1_555
H4 C8 1_555 1_555
C9 C7 1_555 1_555
C10 C9 1_555 1_555
H5 C10 1_555 1_555
C11 C10 1_555 1_555
H6 C11 1_555 1_555
C12 C11 1_555 1_555
H7 C12 1_555 1_555
C13 C12 1_555 1_555
H8 C13 1_555 1_555
C14 C9 1_555 1_555
C15 H9 1_555 1_555
H10 C15 1_555 1_555
C16 C15 1_555 1_555
H11 C16 1_555 1_555
H12 C16 1_555 1_555
N1 C6 1_555 1_555
C17 H13 1_555 1_555
H14 C17 1_555 1_555
C18 C19 1_555 1_555
C19 H15 1_555 1_555
C20 C19 1_555 1_555
H16 C20 1_555 1_555
C21 C20 1_555 1_555
C22 C21 1_555 1_555
H17 C22 1_555 1_555
C23 C18 1_555 1_555
H18 C23 1_555 1_555
C24 C25 1_555 1_555
C25 H19 1_555 1_555
C26 C25 1_555 1_555
H20 C26 1_555 1_555
C27 C26 1_555 1_555
C28 C27 1_555 1_555
H21 C28 1_555 1_555
C29 C24 1_555 1_555
H22 C29 1_555 1_555
N2 C21 1_555 1_555
N3 C24 1_555 1_555
N4 C27 1_555 1_555
O1 C17 1_555 1_555
O2 N4 1_555 1_555
O3 N4 1_555 1_555
C30 C16 1_555 1_555
H23 C30 1_555 1_555
H24 C30 1_555 1_555
C7 C8 1_555 1_555
C13 C14 1_555 1_555
C14 N1 1_555 1_555
C15 N1 1_555 1_555
C17 C30 1_555 1_555
C18 O1 1_555 1_555
C22 C23 1_555 1_555
C28 C29 1_555 1_555
N2 N3 1_555 1_555

#END
