
#######################################################################
#
#                 Cambridge Crystallographic Data Centre
#                                CCDC 
#
#######################################################################
#
# If this CIF has been generated from an entry in the Cambridge 
# Structural Database, then it will include bibliographic, chemical, 
# crystal, experimental, refinement or atomic coordinate data resulting 
# from the CCDC's data processing and validation procedures.
#
#######################################################################

data_LEZJUY
_chemical_formula_moiety         'C15 H11 N1 O2 S1'
_chemical_name_systematic        2-phenyl-3-(phenylsulfonyl)prop-2-enenitrile
_symmetry_cell_setting           triclinic
_symmetry_space_group_name_H-M   'P -1'
_symmetry_Int_Tables_number      2
_space_group_name_Hall           '-P 1'
loop_
_symmetry_equiv_pos_site_id
_symmetry_equiv_pos_as_xyz
1 x,y,z
2 -x,-y,-z
_cell_length_a                   6.716(3)
_cell_length_b                   7.287(3)
_cell_length_c                   14.292(7)
_cell_angle_alpha                91.794(8)
_cell_angle_beta                 94.162(7)
_cell_angle_gamma                109.843(8)
_cell_volume                     655.012
_exptl_crystal_colour            colorless
_exptl_crystal_description       block
_cell_formula_units_Z            2
loop_
_atom_site_label
_atom_site_type_symbol
_atom_site_fract_x
_atom_site_fract_y
_atom_site_fract_z
S1 S 0.66780(11) 0.77295(11) 0.31737(5)
O1 O 0.4760(3) 0.7981(3) 0.34186(14)
O2 O 0.7136(3) 0.6036(3) 0.34535(14)
N1 N 0.1355(4) 0.7130(5) 0.1689(2)
C1 C 0.8547(5) 1.1617(5) 0.3601(2)
H1 H 0.7223 1.1706 0.3426
C2 C 1.0238(7) 1.3256(5) 0.3903(2)
H2 H 1.0067 1.4470 0.3931
C3 C 1.2185(6) 1.3110(5) 0.4163(2)
H3 H 1.3324 1.4228 0.4369
C4 C 1.2462(5) 1.1347(5) 0.4123(2)
H4 H 1.3786 1.1267 0.4306
C5 C 1.0797(4) 0.9678(4) 0.38131(18)
H5 H 1.0986 0.8472 0.3774
C6 C 0.8842(4) 0.9838(4) 0.35619(17)
C7 C 0.6760(4) 0.7751(4) 0.19550(18)
H6 H 0.8067 0.7884 0.1734
C8 C 0.5177(4) 0.7601(4) 0.13029(18)
C9 C 0.3076(4) 0.7367(4) 0.1568(2)
C10 C 0.5374(4) 0.7558(4) 0.02789(18)
C11 C 0.7337(5) 0.7927(4) -0.0071(2)
H7 H 0.8554 0.8220 0.0341
C12 C 0.7493(6) 0.7861(5) -0.1024(2)
H8 H 0.8817 0.8114 -0.1251
C13 C 0.5716(6) 0.7426(5) -0.1644(2)
H9 H 0.5834 0.7381 -0.2288
C14 C 0.3772(6) 0.7059(5) -0.1309(2)
H10 H 0.2561 0.6759 -0.1726
C15 C 0.3603(5) 0.7134(4) -0.0360(2)
H11 H 0.2274 0.6895 -0.0140
loop_
_geom_bond_atom_site_label_1
_geom_bond_atom_site_label_2
_geom_bond_site_symmetry_1
_geom_bond_site_symmetry_2
S1 O1 1_555 1_555
O2 S1 1_555 1_555
N1 C9 1_555 1_555
C1 H1 1_555 1_555
C2 C1 1_555 1_555
H2 C2 1_555 1_555
C3 C2 1_555 1_555
H3 C3 1_555 1_555
C4 C3 1_555 1_555
H4 C4 1_555 1_555
C5 C4 1_555 1_555
H5 C5 1_555 1_555
C6 S1 1_555 1_555
C7 S1 1_555 1_555
H6 C7 1_555 1_555
C8 C7 1_555 1_555
C9 C8 1_555 1_555
C10 C8 1_555 1_555
C11 C10 1_555 1_555
H7 C11 1_555 1_555
C12 C11 1_555 1_555
H8 C12 1_555 1_555
C13 C12 1_555 1_555
H9 C13 1_555 1_555
C14 C13 1_555 1_555
H10 C14 1_555 1_555
C15 C10 1_555 1_555
H11 C15 1_555 1_555
C1 C6 1_555 1_555
C5 C6 1_555 1_555
C14 C15 1_555 1_555

#END
