
#######################################################################
#
#                 Cambridge Crystallographic Data Centre
#                                CCDC 
#
#######################################################################
#
# If this CIF has been generated from an entry in the Cambridge 
# Structural Database, then it will include bibliographic, chemical, 
# crystal, experimental, refinement or atomic coordinate data resulting 
# from the CCDC's data processing and validation procedures.
#
#######################################################################

data_LEZKAF
_chemical_formula_moiety         'C32 H28 N2 O4 S1'
_chemical_name_systematic        
'ethyl 1-[(4-methylphenyl)sulfonyl]-5-(naphthalen-2-yl)-1,2,5,10-tetrahydroazepino[2,3-b]indole-4-carboxylate'
_symmetry_cell_setting           triclinic
_symmetry_space_group_name_H-M   'P -1'
_symmetry_Int_Tables_number      2
_space_group_name_Hall           '-P 1'
loop_
_symmetry_equiv_pos_site_id
_symmetry_equiv_pos_as_xyz
1 x,y,z
2 -x,-y,-z
_cell_length_a                   10.0453(6)
_cell_length_b                   10.6051(8)
_cell_length_c                   15.2624(9)
_cell_angle_alpha                85.076(5)
_cell_angle_beta                 76.712(5)
_cell_angle_gamma                73.509(6)
_cell_volume                     1516.93
_exptl_crystal_colour            colorless
_cell_formula_units_Z            2
loop_
_atom_site_label
_atom_site_type_symbol
_atom_site_fract_x
_atom_site_fract_y
_atom_site_fract_z
S1 S 0.40050(10) 0.27192(9) 0.52674(6)
O1 O 0.4616(3) 0.3580(3) 0.46283(19)
O2 O 0.4030(3) 0.1463(3) 0.49883(19)
O3 O 0.2025(3) 0.4857(3) 0.9164(2)
N1 N 0.4927(3) 0.2419(3) 0.6073(2)
O4 O 0.1903(3) 0.6161(3) 0.7928(2)
N2 N 0.4716(3) 0.0257(3) 0.6588(2)
H1 H 0.4848 -0.0046 0.6047
C1 C 0.6909(4) 0.1824(4) 0.8260(3)
H2 H 0.6885 0.1082 0.7962
C2 C 0.5733(4) 0.3930(4) 0.8939(3)
H3 H 0.4889 0.4621 0.9110
C3 C 0.8192(4) 0.1856(4) 0.8481(3)
C4 C 0.4390(4) 0.0388(4) 0.8091(2)
C5 C 0.5695(4) 0.2845(3) 0.8468(2)
C6 C 0.4420(3) 0.1659(3) 0.7690(2)
C7 C 0.3656(4) 0.4138(3) 0.7784(3)
C8 C 0.8232(4) 0.2962(4) 0.8920(3)
C9 C 0.4211(4) -0.0101(4) 0.8983(3)
H4 H 0.4119 0.0447 0.9467
C10 C 0.4543(4) -0.0457(4) 0.7390(3)
C11 C 0.4646(4) 0.1515(3) 0.6780(3)
C12 C 0.6958(4) 0.3996(4) 0.9149(3)
H5 H 0.6962 0.4741 0.9452
C13 C 0.4297(4) 0.2834(3) 0.8234(2)
H6 H 0.3619 0.2770 0.8818
C14 C 0.2433(4) 0.5070(4) 0.8378(3)
C15 C 0.9436(4) 0.0814(4) 0.8263(3)
H7 H 0.9415 0.0066 0.7970
C16 C 0.2239(4) 0.3538(4) 0.5730(3)
C17 C 0.9528(4) 0.3011(4) 0.9113(3)
H8 H 0.9570 0.3754 0.9402
C18 C 1.0680(4) 0.0869(5) 0.8469(3)
H9 H 1.1511 0.0155 0.8332
C19 C 0.4173(4) -0.1390(4) 0.9142(3)
H10 H 0.4032 -0.1726 0.9744
C20 C 0.5348(4) 0.3536(4) 0.6334(3)
H11 H 0.5682 0.4024 0.5783
H12 H 0.6152 0.3191 0.6639
C21 C -0.0573(4) 0.4848(5) 0.6461(3)
C22 C 0.4154(4) 0.4474(4) 0.6949(3)
H13 H 0.3751 0.5329 0.6728
C23 C 0.4529(4) -0.1767(4) 0.7542(3)
H14 H 0.4645 -0.2326 0.7060
C24 C 0.1753(5) 0.4901(4) 0.5619(3)
H15 H 0.2377 0.5386 0.5291
C25 C 0.1339(5) 0.2827(5) 0.6213(3)
H16 H 0.1672 0.1901 0.6291
C26 C 0.4339(5) -0.2219(4) 0.8429(3)
H17 H 0.4321 -0.3107 0.8559
C27 C 0.0346(5) 0.5537(5) 0.5993(3)
H18 H 0.0014 0.6465 0.5924
C28 C 1.0715(4) 0.1994(5) 0.8885(3)
H19 H 1.1584 0.2042 0.9008
C29 C 0.0836(5) 0.7209(4) 0.8461(4)
H20 H 0.0859 0.8066 0.8154
H21 H 0.1071 0.7217 0.9055
C30 C -0.0057(5) 0.3489(5) 0.6582(3)
H22 H -0.0676 0.3009 0.6923
C31 C -0.2111(5) 0.5550(6) 0.6857(4)
H23 H -0.2286 0.5474 0.7515
H24 H -0.2737 0.5149 0.6639
H25 H -0.2302 0.6481 0.6672
C32 C -0.0606(6) 0.7045(6) 0.8592(5)
H26 H -0.0821 0.6985 0.8005
H27 H -0.1297 0.7802 0.8912
H28 H -0.0658 0.6239 0.8948
loop_
_geom_bond_atom_site_label_1
_geom_bond_atom_site_label_2
_geom_bond_site_symmetry_1
_geom_bond_site_symmetry_2
S1 O1 1_555 1_555
O2 S1 1_555 1_555
O3 C14 1_555 1_555
N1 S1 1_555 1_555
O4 C14 1_555 1_555
N2 H1 1_555 1_555
C1 H2 1_555 1_555
C2 H3 1_555 1_555
C3 C1 1_555 1_555
C4 C6 1_555 1_555
C5 C1 1_555 1_555
C6 C11 1_555 1_555
C7 C13 1_555 1_555
C8 C3 1_555 1_555
C9 C4 1_555 1_555
H4 C9 1_555 1_555
C10 N2 1_555 1_555
C11 N1 1_555 1_555
C12 C2 1_555 1_555
H5 C12 1_555 1_555
C13 C5 1_555 1_555
H6 C13 1_555 1_555
C14 C7 1_555 1_555
C15 C3 1_555 1_555
H7 C15 1_555 1_555
C16 S1 1_555 1_555
C17 C8 1_555 1_555
H8 C17 1_555 1_555
C18 C15 1_555 1_555
H9 C18 1_555 1_555
C19 C9 1_555 1_555
H10 C19 1_555 1_555
C20 N1 1_555 1_555
H11 C20 1_555 1_555
H12 C20 1_555 1_555
C21 C27 1_555 1_555
C22 C7 1_555 1_555
H13 C22 1_555 1_555
C23 C10 1_555 1_555
H14 C23 1_555 1_555
C24 C16 1_555 1_555
H15 C24 1_555 1_555
C25 C16 1_555 1_555
H16 C25 1_555 1_555
C26 C19 1_555 1_555
H17 C26 1_555 1_555
C27 C24 1_555 1_555
H18 C27 1_555 1_555
C28 C17 1_555 1_555
H19 C28 1_555 1_555
C29 O4 1_555 1_555
H20 C29 1_555 1_555
H21 C29 1_555 1_555
C30 C21 1_555 1_555
H22 C30 1_555 1_555
C31 C21 1_555 1_555
H23 C31 1_555 1_555
H24 C31 1_555 1_555
H25 C31 1_555 1_555
C32 C29 1_555 1_555
H26 C32 1_555 1_555
H27 C32 1_555 1_555
H28 C32 1_555 1_555
N2 C11 1_555 1_555
C2 C5 1_555 1_555
C4 C10 1_555 1_555
C6 C13 1_555 1_555
C8 C12 1_555 1_555
C18 C28 1_555 1_555
C20 C22 1_555 1_555
C23 C26 1_555 1_555
C25 C30 1_555 1_555

#END
