
#######################################################################
#
#                 Cambridge Crystallographic Data Centre
#                                CCDC 
#
#######################################################################
#
# If this CIF has been generated from an entry in the Cambridge 
# Structural Database, then it will include bibliographic, chemical, 
# crystal, experimental, refinement or atomic coordinate data resulting 
# from the CCDC's data processing and validation procedures.
#
#######################################################################

data_LEZQEP
_chemical_formula_moiety         'C32 H31 N3 O2'
_chemical_name_systematic        
5''-benzylidene-1'-phenyl-1',5',6',7',8',8a'-hexahydro-4''H-dispiro[indole-3,3'-indolizine-2',3''-piperidine]-2,4''(1H)-dione
_symmetry_cell_setting           triclinic
_symmetry_space_group_name_H-M   'P -1'
_symmetry_Int_Tables_number      2
_space_group_name_Hall           '-P 1'
loop_
_symmetry_equiv_pos_site_id
_symmetry_equiv_pos_as_xyz
1 x,y,z
2 -x,-y,-z
_cell_length_a                   7.72600(10)
_cell_length_b                   10.6264(2)
_cell_length_c                   15.9993(3)
_cell_angle_alpha                97.2410(10)
_cell_angle_beta                 101.8780(10)
_cell_angle_gamma                100.7610(10)
_cell_volume                     1244.19
_exptl_crystal_colour            yellow
_exptl_crystal_description       block
_cell_formula_units_Z            2
loop_
_atom_site_label
_atom_site_type_symbol
_atom_site_fract_x
_atom_site_fract_y
_atom_site_fract_z
O1 O 0.52678(16) 0.35023(11) 0.04801(7)
O2 O 0.89335(18) 0.35634(12) 0.38347(8)
N1 N 0.65134(19) 0.56587(13) 0.10552(9)
N2 N 0.90641(19) 0.34590(13) 0.14612(9)
N3 N 0.4331(2) 0.41298(14) 0.23311(9)
C1 C 0.7956(2) 0.63697(16) 0.17355(10)
C2 C 0.8641(2) 0.77023(16) 0.19114(11)
H1 H 0.8099 0.8266 0.1577
C3 C 1.0153(2) 0.81810(17) 0.25974(12)
H2 H 1.0649 0.9090 0.2737
C4 C 1.0952(2) 0.73539(17) 0.30818(12)
H3 H 1.1974 0.7705 0.3552
C5 C 1.0268(2) 0.60099(17) 0.28843(11)
H4 H 1.0835 0.5441 0.3203
C6 C 0.8741(2) 0.55259(15) 0.22118(10)
C7 C 0.7784(2) 0.41351(15) 0.18079(10)
C8 C 0.6306(2) 0.43610(15) 0.10471(10)
C9 C 0.9517(2) 0.38526(16) 0.06699(11)
H5 H 1.0024 0.4801 0.0776
H6 H 0.8404 0.3658 0.0197
C10 C 1.0899(2) 0.31271(16) 0.03980(11)
H7 H 1.1045 0.3300 -0.0180
H8 H 1.2087 0.3464 0.0814
C11 C 1.0340(2) 0.16607(17) 0.03616(11)
H9 H 1.1366 0.1258 0.0286
H10 H 0.9315 0.1288 -0.0146
C12 C 0.9776(2) 0.13366(16) 0.11874(11)
H11 H 0.9300 0.0388 0.1120
H12 H 1.0842 0.1594 0.1686
C13 C 0.8324(2) 0.20596(15) 0.13547(10)
H13 H 0.7231 0.1788 0.0860
C14 C 0.7774(2) 0.19541(15) 0.22100(10)
H14 H 0.8917 0.2066 0.2666
C15 C 0.6985(2) 0.31812(15) 0.23986(10)
C16 C 0.4901(2) 0.28974(16) 0.22124(11)
H15 H 0.4374 0.2432 0.1611
H16 H 0.4471 0.2341 0.2613
C17 C 0.4724(2) 0.47181(17) 0.32461(11)
H17 H 0.3926 0.4187 0.3542
H18 H 0.4463 0.5598 0.3293
C18 C 0.6678(2) 0.48124(16) 0.36866(11)
C19 C 0.7656(2) 0.38298(15) 0.33599(10)
C20 C 0.6594(2) 0.06532(15) 0.22321(11)
C21 C 0.6871(2) 0.01131(17) 0.29884(11)
H19 H 0.7743 0.0593 0.3489
C22 C 0.5893(3) -0.11168(18) 0.30222(13)
H20 H 0.6085 -0.1460 0.3546
C23 C 0.4643(3) -0.18360(18) 0.22914(14)
H21 H 0.4000 -0.2684 0.2307
C24 C 0.4333(3) -0.13119(18) 0.15378(13)
H22 H 0.3460 -0.1798 0.1039
C25 C 0.5292(2) -0.00772(17) 0.15059(12)
H23 H 0.5061 0.0273 0.0987
C26 C 0.7665(2) 0.57431(16) 0.43530(11)
H24 H 0.8868 0.5660 0.4579
C27 C 0.7132(2) 0.68714(17) 0.47779(11)
C28 C 0.5378(3) 0.68726(17) 0.48836(11)
H25 H 0.4443 0.6112 0.4667
C29 C 0.4991(3) 0.79811(18) 0.53052(12)
H26 H 0.3801 0.7969 0.5381
C30 C 0.6341(3) 0.91020(19) 0.56144(12)
H27 H 0.6071 0.9858 0.5896
C31 C 0.8084(3) 0.91185(18) 0.55124(12)
H28 H 0.9006 0.9888 0.5718
C32 C 0.8476(3) 0.80083(18) 0.51092(12)
H29 H 0.9681 0.8019 0.5057
H30 H 0.592(3) 0.599(2) 0.0632(15)
H31 H 0.313(3) 0.402(2) 0.2113(15)
loop_
_geom_bond_atom_site_label_1
_geom_bond_atom_site_label_2
_geom_bond_site_symmetry_1
_geom_bond_site_symmetry_2
O1 C8 1_555 1_555
O2 C19 1_555 1_555
N1 C1 1_555 1_555
N2 C7 1_555 1_555
N3 C16 1_555 1_555
C1 C2 1_555 1_555
C2 H1 1_555 1_555
C3 C2 1_555 1_555
H2 C3 1_555 1_555
C4 C3 1_555 1_555
H3 C4 1_555 1_555
C5 C4 1_555 1_555
H4 C5 1_555 1_555
C6 C1 1_555 1_555
C7 C6 1_555 1_555
C8 N1 1_555 1_555
C9 N2 1_555 1_555
H5 C9 1_555 1_555
H6 C9 1_555 1_555
C10 C9 1_555 1_555
H7 C10 1_555 1_555
H8 C10 1_555 1_555
C11 C10 1_555 1_555
H9 C11 1_555 1_555
H10 C11 1_555 1_555
C12 C11 1_555 1_555
H11 C12 1_555 1_555
H12 C12 1_555 1_555
C13 N2 1_555 1_555
H13 C13 1_555 1_555
C14 C13 1_555 1_555
H14 C14 1_555 1_555
C15 C7 1_555 1_555
C16 C15 1_555 1_555
H15 C16 1_555 1_555
H16 C16 1_555 1_555
C17 N3 1_555 1_555
H17 C17 1_555 1_555
H18 C17 1_555 1_555
C18 C17 1_555 1_555
C19 C15 1_555 1_555
C20 C14 1_555 1_555
C21 C20 1_555 1_555
H19 C21 1_555 1_555
C22 C21 1_555 1_555
H20 C22 1_555 1_555
C23 C22 1_555 1_555
H21 C23 1_555 1_555
C24 C23 1_555 1_555
H22 C24 1_555 1_555
C25 C20 1_555 1_555
H23 C25 1_555 1_555
C26 C18 1_555 1_555
H24 C26 1_555 1_555
C27 C26 1_555 1_555
C28 C27 1_555 1_555
H25 C28 1_555 1_555
C29 C28 1_555 1_555
H26 C29 1_555 1_555
C30 C29 1_555 1_555
H27 C30 1_555 1_555
C31 C30 1_555 1_555
H28 C31 1_555 1_555
C32 C27 1_555 1_555
H29 C32 1_555 1_555
H30 N1 1_555 1_555
H31 N3 1_555 1_555
C5 C6 1_555 1_555
C7 C8 1_555 1_555
C12 C13 1_555 1_555
C14 C15 1_555 1_555
C18 C19 1_555 1_555
C24 C25 1_555 1_555
C31 C32 1_555 1_555

#END
