
#######################################################################
#
#                 Cambridge Crystallographic Data Centre
#                                CCDC 
#
#######################################################################
#
# If this CIF has been generated from an entry in the Cambridge 
# Structural Database, then it will include bibliographic, chemical, 
# crystal, experimental, refinement or atomic coordinate data resulting 
# from the CCDC's data processing and validation procedures.
#
#######################################################################

data_LEZRUG
_chemical_formula_moiety         '2(C12 H23 N1),C16 H10 O4'
_chemical_name_systematic        
'anthracene-9,10-dicarboxylic acid bis(N,N-dicyclohexylamine)'
_symmetry_cell_setting           monoclinic
_symmetry_space_group_name_H-M   'P 21/c'
_symmetry_Int_Tables_number      14
_space_group_name_Hall           '-P 2ybc'
loop_
_symmetry_equiv_pos_site_id
_symmetry_equiv_pos_as_xyz
1 x,y,z
2 -x,1/2+y,1/2-z
3 -x,-y,-z
4 x,1/2-y,1/2+z
_cell_length_a                   9.7956(7)
_cell_length_b                   17.7834(15)
_cell_length_c                   10.0007(8)
_cell_angle_alpha                90
_cell_angle_beta                 99.394(3)
_cell_angle_gamma                90
_cell_volume                     1718.75
_exptl_crystal_description       block
_cell_formula_units_Z            2
_exptl_crystal_recrystallization_method 
'Re-crystallisation from solvent: Methanol'
loop_
_atom_site_label
_atom_site_type_symbol
_atom_site_fract_x
_atom_site_fract_y
_atom_site_fract_z
O1 O 0.97442(9) 0.94770(5) 0.14744(8)
C1 C 1.12065(11) 0.96480(6) 0.46981(10)
C2 C 0.99037(11) 0.90873(6) 0.25502(11)
O2 O 1.00557(11) 0.84015(5) 0.26312(9)
H1 H 1.0014 0.8220 0.1850
C3 C 1.12730(11) 1.01161(6) 0.58746(10)
C4 C 1.24557(12) 0.93022(6) 0.44352(12)
H2 H 1.2431 0.8991 0.3659
C5 C 0.99401(11) 0.95409(6) 0.38386(10)
C6 C 1.37456(12) 0.98818(7) 0.64319(12)
H3 H 1.4606 0.9959 0.7007
C7 C 1.36762(12) 0.94113(7) 0.52769(13)
H4 H 1.4490 0.9170 0.5090
C8 C 1.25820(12) 1.02233(7) 0.67190(11)
H5 H 1.2643 1.0538 0.7494
O1B O 1.02558(9) 1.05230(5) 0.85256(8)
C1B C 0.87935(11) 1.03520(6) 0.53019(10)
C2B C 1.00963(11) 1.09127(6) 0.74498(11)
O2B O 0.99443(11) 1.15985(5) 0.73688(9)
H1B H 0.9986 1.1780 0.8150
C3B C 0.87270(11) 0.98839(6) 0.41254(10)
C4B C 0.75443(12) 1.06978(6) 0.55648(12)
H2B H 0.7569 1.1009 0.6341
C5B C 1.00599(11) 1.04591(6) 0.61614(10)
C6B C 0.62544(12) 1.01182(7) 0.35681(12)
H3B H 0.5394 1.0041 0.2993
C7B C 0.63238(12) 1.05887(7) 0.47231(13)
H4B H 0.5510 1.0830 0.4910
C8B C 0.74180(12) 0.97767(7) 0.32810(11)
H5B H 0.7357 0.9462 0.2506
N1 N 1.04049(10) 0.89586(5) 0.91032(9)
C9 C 0.96024(12) 0.84290(6) 0.68080(11)
H6 H 1.0490 0.8167 0.6784
H7 H 0.9683 0.8946 0.6462
C10 C 1.27840(12) 0.92958(6) 1.00937(12)
H8 H 1.2677 0.9779 0.9595
H9 H 1.2480 0.9372 1.0980
C11 C 0.93416(11) 0.84667(6) 0.82607(11)
H10 H 0.9405 0.7948 0.8651
C12 C 1.18810(11) 0.86979(6) 0.92896(12)
H11 H 1.2164 0.8648 0.8377
C13 C 0.84424(12) 0.80160(7) 0.58880(12)
H12 H 0.8601 0.8050 0.4937
H13 H 0.8457 0.7478 0.6143
C14 C 0.79165(12) 0.87901(7) 0.83515(13)
H14 H 0.7877 0.9322 0.8058
H15 H 0.7758 0.8773 0.9304
C15 C 0.70334(13) 0.83470(7) 0.59956(13)
H16 H 0.6982 0.8870 0.5650
H17 H 0.6302 0.8050 0.5429
C16 C 1.42978(13) 0.90595(8) 1.03184(14)
H18 H 1.4620 0.9018 0.9433
H19 H 1.4864 0.9448 1.0861
C17 C 0.67846(13) 0.83427(8) 0.74563(13)
H20 H 0.6782 0.7818 0.7787
H21 H 0.5870 0.8568 0.7507
C18 C 1.20475(14) 0.79364(7) 0.99960(15)
H22 H 1.1506 0.7553 0.9419
H23 H 1.1686 0.7964 1.0863
C19 C 1.44901(16) 0.83084(8) 1.10519(18)
H24 H 1.4248 0.8362 1.1970
H25 H 1.5472 0.8154 1.1150
C20 C 1.35787(16) 0.77061(8) 1.0270(2)
H26 H 1.3676 0.7232 1.0796
H27 H 1.3899 0.7612 0.9396
H28 H 1.0359(17) 0.9439(10) 0.8718(16)
loop_
_geom_bond_atom_site_label_1
_geom_bond_atom_site_label_2
_geom_bond_site_symmetry_1
_geom_bond_site_symmetry_2
O1 C2 1_555 1_555
C1 C3 1_555 1_555
C2 O2 1_555 1_555
O2 H1 1_555 1_555
C3 C8 1_555 1_555
C4 C1 1_555 1_555
H2 C4 1_555 1_555
C5 C1 1_555 1_555
C6 H3 1_555 1_555
C7 C4 1_555 1_555
H4 C7 1_555 1_555
C8 C6 1_555 1_555
H5 C8 1_555 1_555
N1 C11 1_555 1_555
C9 H6 1_555 1_555
H7 C9 1_555 1_555
C10 H8 1_555 1_555
H9 C10 1_555 1_555
C11 C9 1_555 1_555
H10 C11 1_555 1_555
C12 N1 1_555 1_555
H11 C12 1_555 1_555
C13 C9 1_555 1_555
H12 C13 1_555 1_555
H13 C13 1_555 1_555
C14 C11 1_555 1_555
H14 C14 1_555 1_555
H15 C14 1_555 1_555
C15 C13 1_555 1_555
H16 C15 1_555 1_555
H17 C15 1_555 1_555
C16 C10 1_555 1_555
H18 C16 1_555 1_555
H19 C16 1_555 1_555
C17 C14 1_555 1_555
H20 C17 1_555 1_555
H21 C17 1_555 1_555
C18 C12 1_555 1_555
H22 C18 1_555 1_555
H23 C18 1_555 1_555
C19 C16 1_555 1_555
H24 C19 1_555 1_555
H25 C19 1_555 1_555
C20 C18 1_555 1_555
H26 C20 1_555 1_555
H27 C20 1_555 1_555
H28 N1 1_555 1_555
O1B C2B 1_555 1_555
C1B C3B 1_555 1_555
C2B O2B 1_555 1_555
O2B H1B 1_555 1_555
C3B C5 1_555 1_555
C4B C1B 1_555 1_555
H2B C4B 1_555 1_555
C5B C3 1_555 1_555
C6B H3B 1_555 1_555
C7B C4B 1_555 1_555
H4B C7B 1_555 1_555
C8B C3B 1_555 1_555
H5B C8B 1_555 1_555
C2 C5 1_555 1_555
C6 C7 1_555 1_555
C10 C12 1_555 1_555
C15 C17 1_555 1_555
C19 C20 1_555 1_555
C1B C5B 1_555 1_555
C2B C5B 1_555 1_555
C6B C7B 1_555 1_555
C6B C8B 1_555 1_555

#END
