
#######################################################################
#
#                 Cambridge Crystallographic Data Centre
#                                CCDC 
#
#######################################################################
#
# If this CIF has been generated from an entry in the Cambridge 
# Structural Database, then it will include bibliographic, chemical, 
# crystal, experimental, refinement or atomic coordinate data resulting 
# from the CCDC's data processing and validation procedures.
#
#######################################################################

data_LEZRIS01
_chemical_name_common            
'2-[(E)-2- (4-Hydroxy-3-methoxystyrl)-1-methyl]-quinolinium 4-chlorobenzenesulfonate'
_chemical_formula_moiety         'C19 H18 N1 O2 1+,C6 H4 Cl1 O3 S1 1-'
_chemical_name_systematic        
'2-(2-(4-hydroxy-3-methoxyphenyl)vinyl)-1-methylquinolinium 4-chlorobenzenesulfonate'
_symmetry_cell_setting           monoclinic
_symmetry_space_group_name_H-M   'P 21/n'
_symmetry_Int_Tables_number      14
_space_group_name_Hall           '-P 2yn'
loop_
_symmetry_equiv_pos_site_id
_symmetry_equiv_pos_as_xyz
1 x,y,z
2 1/2-x,1/2+y,1/2-z
3 -x,-y,-z
4 1/2+x,1/2-y,1/2+z
_cell_length_a                   6.8957(3)
_cell_length_b                   21.8047(6)
_cell_length_c                   14.8039(5)
_cell_angle_alpha                90
_cell_angle_beta                 103.351(4)
_cell_angle_gamma                90
_cell_volume                     2165.74
_exptl_crystal_colour            orange
_exptl_crystal_description       Needle
_cell_formula_units_Z            4
_exptl_crystal_recrystallization_method Methanol
_exptl_crystal_preparation       'Non linear optical property'
loop_
_atom_site_label
_atom_site_type_symbol
_atom_site_fract_x
_atom_site_fract_y
_atom_site_fract_z
S1 S 0.1216(3) 0.42249(9) 0.83924(15)
Cl1 Cl 0.3590(6) 0.43166(13) 0.45416(19)
O1 O 0.2347(10) 0.4687(3) 0.8999(4)
O2 O -0.0924(9) 0.4299(3) 0.8215(4)
O3 O 0.1863(10) 0.3599(3) 0.8661(4)
C1 C 0.0424(14) 0.4335(4) 0.6482(6)
H1 H -0.0944 0.4334 0.6500
C2 C 0.1890(13) 0.4321(4) 0.7306(6)
C3 C 0.4413(15) 0.4323(4) 0.6424(7)
H2 H 0.5779 0.4327 0.6402
C4 C 0.3867(14) 0.4309(4) 0.7268(7)
H3 H 0.4869 0.4292 0.7829
C5 C 0.2949(17) 0.4329(4) 0.5622(7)
C6 C 0.0966(17) 0.4352(4) 0.5635(7)
H4 H -0.0024 0.4379 0.5071
O4 O 0.8018(10) 0.6234(3) 0.9178(4)
O5 O 0.7381(10) 0.7259(3) 1.0058(4)
H5 H 0.8240 0.7012 1.0346
N1 N 0.7969(11) 0.8438(3) 0.4394(5)
C7 C 0.7524(13) 0.7297(4) 0.9160(6)
C8 C 0.7886(13) 0.8467(4) 0.3437(6)
C9 C 0.7813(13) 0.6763(4) 0.8657(6)
C10 C 0.8212(14) 0.5660(4) 0.8720(6)
H6 H 0.7082 0.5610 0.8186
H7 H 0.8231 0.5321 0.9156
H8 H 0.9457 0.5661 0.8508
C11 C 0.7261(13) 0.7854(4) 0.8704(6)
H9 H 0.7011 0.8210 0.9030
C12 C 0.7517(13) 0.7920(4) 0.5780(6)
H10 H 0.7257 0.8302 0.6039
C13 C 0.7678(13) 0.7392(4) 0.7296(6)
C14 C 0.7958(14) 0.9025(4) 0.2974(6)
H11 H 0.8065 0.9402 0.3304
C15 C 0.7686(13) 0.7919(4) 0.1982(6)
H12 H 0.7586 0.7545 0.1646
C16 C 0.7351(13) 0.7905(4) 0.7804(6)
H13 H 0.7189 0.8296 0.7513
C17 C 0.7889(13) 0.6810(4) 0.7739(6)
H14 H 0.8082 0.6453 0.7401
C18 C 0.7376(13) 0.7354(4) 0.4302(6)
H15 H 0.7128 0.6982 0.4590
C19 C 0.7788(14) 0.8460(4) 0.1538(6)
H16 H 0.7802 0.8464 0.0898
C20 C 0.7778(13) 0.7418(4) 0.6325(6)
H17 H 0.8054 0.7044 0.6049
C21 C 0.7619(14) 0.7900(4) 0.4806(6)
C22 C 0.7727(13) 0.7912(4) 0.2927(6)
C23 C 0.7874(13) 0.9020(4) 0.2039(6)
H18 H 0.7872 0.9398 0.1720
C24 C 0.8492(14) 0.9000(4) 0.4949(6)
H19 H 0.9115 0.9294 0.4604
H20 H 0.9425 0.8898 0.5536
H21 H 0.7282 0.9181 0.5077
C25 C 0.7494(13) 0.7355(4) 0.3396(6)
H22 H 0.7421 0.6977 0.3071
loop_
_geom_bond_atom_site_label_1
_geom_bond_atom_site_label_2
_geom_bond_site_symmetry_1
_geom_bond_site_symmetry_2
S1 O1 1_555 1_555
Cl1 C5 1_555 1_555
O2 S1 1_555 1_555
O3 S1 1_555 1_555
C1 H1 1_555 1_555
C2 S1 1_555 1_555
C3 H2 1_555 1_555
C4 C2 1_555 1_555
H3 C4 1_555 1_555
C5 C3 1_555 1_555
C6 C1 1_555 1_555
H4 C6 1_555 1_555
O4 C9 1_555 1_555
O5 H5 1_555 1_555
N1 C8 1_555 1_555
C7 O5 1_555 1_555
C8 C14 1_555 1_555
C9 C7 1_555 1_555
C10 O4 1_555 1_555
H6 C10 1_555 1_555
H7 C10 1_555 1_555
H8 C10 1_555 1_555
C11 C7 1_555 1_555
H9 C11 1_555 1_555
C12 H10 1_555 1_555
C13 C16 1_555 1_555
C14 H11 1_555 1_555
C15 H12 1_555 1_555
C16 C11 1_555 1_555
H13 C16 1_555 1_555
C17 C9 1_555 1_555
H14 C17 1_555 1_555
C18 H15 1_555 1_555
C19 C15 1_555 1_555
H16 C19 1_555 1_555
C20 C12 1_555 1_555
H17 C20 1_555 1_555
C21 N1 1_555 1_555
C22 C8 1_555 1_555
C23 C14 1_555 1_555
H18 C23 1_555 1_555
C24 N1 1_555 1_555
H19 C24 1_555 1_555
H20 C24 1_555 1_555
H21 C24 1_555 1_555
C25 C18 1_555 1_555
H22 C25 1_555 1_555
C1 C2 1_555 1_555
C3 C4 1_555 1_555
C5 C6 1_555 1_555
C12 C21 1_555 1_555
C13 C17 1_555 1_555
C13 C20 1_555 1_555
C15 C22 1_555 1_555
C18 C21 1_555 1_555
C19 C23 1_555 1_555
C22 C25 1_555 1_555

#END
