
#######################################################################
#
#                 Cambridge Crystallographic Data Centre
#                                CCDC 
#
#######################################################################
#
# If this CIF has been generated from an entry in the Cambridge 
# Structural Database, then it will include bibliographic, chemical, 
# crystal, experimental, refinement or atomic coordinate data resulting 
# from the CCDC's data processing and validation procedures.
#
#######################################################################

data_LEZVIY
_chemical_compound_source        'Pyxidicoccus fallax'
_chemical_name_common            'Pyxidicycline A formic acid'
_chemical_formula_moiety         'C21 H15 N1 O7,C1 H2 O2'
_chemical_name_systematic        
'2-(10,11-dihydroxy-1-methyl-3,5,12-trioxo-5,12-dihydronaphtho[2,3-g]isoquinolin-2(3H)-yl)ethyl formate formic acid'
_symmetry_cell_setting           orthorhombic
_symmetry_space_group_name_H-M   'P c a 21'
_symmetry_Int_Tables_number      29
_space_group_name_Hall           'P 2c -2ac'
loop_
_symmetry_equiv_pos_site_id
_symmetry_equiv_pos_as_xyz
1 x,y,z
2 -x,-y,1/2+z
3 1/2+x,-y,z
4 1/2-x,y,1/2+z
_cell_length_a                   7.0231(8)
_cell_length_b                   17.534(2)
_cell_length_c                   14.6817(19)
_cell_angle_alpha                90
_cell_angle_beta                 90
_cell_angle_gamma                90
_cell_volume                     1807.95
_exptl_crystal_colour            red
_exptl_crystal_description       plate
_cell_formula_units_Z            4
loop_
_atom_site_label
_atom_site_type_symbol
_atom_site_fract_x
_atom_site_fract_y
_atom_site_fract_z
N1 N 0.0951(4) 0.18353(16) 0.5287(2)
O1 O 0.1925(3) 0.11605(14) 0.4044(2)
O2 O 0.1993(4) 0.38236(15) 0.2963(2)
O3 O 0.0117(3) 0.68649(14) 0.63760(19)
H1 H -0.027(7) 0.637(3) 0.659(4)
O4 O -0.0047(3) 0.53896(13) 0.64370(19)
H2 H -0.0349 0.4955 0.6630
O5 O -0.0269(3) 0.39927(13) 0.64717(18)
O6 O 0.3284(3) 0.13364(17) 0.6796(2)
O7 O 0.6321(4) 0.09599(19) 0.6715(3)
C1 C 0.1570(5) 0.17947(19) 0.4375(3)
C2 C 0.1757(5) 0.24925(19) 0.3914(3)
H3 H 0.201(5) 0.247(2) 0.330(3)
C3 C 0.1381(4) 0.31653(18) 0.4327(2)
C4 C 0.1620(5) 0.38682(19) 0.3769(2)
C5 C 0.1381(4) 0.46035(18) 0.4232(2)
C6 C 0.1716(4) 0.52625(18) 0.3746(2)
H4 H 0.2109 0.5233 0.3128
C7 C 0.1474(4) 0.59898(18) 0.4170(3)
C8 C 0.1841(4) 0.66552(19) 0.3674(3)
H5 H 0.2232 0.6626 0.3056
C9 C 0.1629(5) 0.7353(2) 0.4092(3)
H6 H 0.179(5) 0.782(2) 0.369(3)
C10 C 0.1063(5) 0.7407(2) 0.4996(3)
H7 H 0.091(5) 0.788(2) 0.529(3)
C11 C 0.0672(4) 0.67620(19) 0.5503(3)
C12 C 0.0880(4) 0.60315(18) 0.5097(3)
C13 C 0.0530(4) 0.53363(17) 0.5580(3)
C14 C 0.0785(4) 0.46247(18) 0.5158(2)
C15 C 0.0395(4) 0.39391(19) 0.5677(2)
C16 C 0.0795(4) 0.31911(18) 0.5256(2)
C17 C 0.0581(4) 0.25037(18) 0.5729(2)
C18 C -0.0029(5) 0.2472(2) 0.6700(3)
H8 H -0.137(7) 0.259(3) 0.671(3)
H9 H 0.067(6) 0.286(3) 0.705(4)
H10 H 0.018(5) 0.204(2) 0.693(3)
C19 C 0.0802(5) 0.1079(2) 0.5735(3)
H11 H -0.017(5) 0.1134(17) 0.618(3)
H12 H 0.035(7) 0.077(3) 0.527(4)
C20 C 0.2705(5) 0.0813(2) 0.6083(3)
H13 H 0.256(5) 0.033(2) 0.633(3)
H14 H 0.356(5) 0.0813(19) 0.559(3)
C21 C 0.5108(5) 0.1344(3) 0.7039(3)
H15 H 0.528(6) 0.176(3) 0.755(3)
O8 O 0.6595(5) 0.07592(19) 0.4422(3)
O9 O 0.4950(5) 0.06921(18) 0.3115(2)
C22 C 0.6458(6) 0.0580(2) 0.3644(4)
H16 H 0.388(10) 0.089(3) 0.353(5)
H17 H 0.734(8) 0.028(3) 0.316(4)
loop_
_geom_bond_atom_site_label_1
_geom_bond_atom_site_label_2
_geom_bond_site_symmetry_1
_geom_bond_site_symmetry_2
N1 C1 1_555 1_555
O1 C1 1_555 1_555
O2 C4 1_555 1_555
O3 H1 1_555 1_555
O4 H2 1_555 1_555
O5 C15 1_555 1_555
O6 C20 1_555 1_555
O7 C21 1_555 1_555
C1 C2 1_555 1_555
C2 H3 1_555 1_555
C3 C2 1_555 1_555
C4 C3 1_555 1_555
C5 C4 1_555 1_555
C6 C5 1_555 1_555
H4 C6 1_555 1_555
C7 C6 1_555 1_555
C8 C7 1_555 1_555
H5 C8 1_555 1_555
C9 C8 1_555 1_555
H6 C9 1_555 1_555
C10 C9 1_555 1_555
H7 C10 1_555 1_555
C11 O3 1_555 1_555
C12 C7 1_555 1_555
C13 O4 1_555 1_555
C14 C5 1_555 1_555
C15 C14 1_555 1_555
C16 C3 1_555 1_555
C17 N1 1_555 1_555
C18 C17 1_555 1_555
H8 C18 1_555 1_555
H9 C18 1_555 1_555
H10 C18 1_555 1_555
C19 N1 1_555 1_555
H11 C19 1_555 1_555
H12 C19 1_555 1_555
C20 C19 1_555 1_555
H13 C20 1_555 1_555
H14 C20 1_555 1_555
C21 O6 1_555 1_555
H15 C21 1_555 1_555
O8 C22 1_555 1_555
O9 C22 1_555 1_555
C22 H17 1_555 1_555
H16 O9 1_555 1_555
C10 C11 1_555 1_555
C11 C12 1_555 1_555
C12 C13 1_555 1_555
C13 C14 1_555 1_555
C15 C16 1_555 1_555
C16 C17 1_555 1_555

#END
