
#######################################################################
#
#                 Cambridge Crystallographic Data Centre
#                                CCDC 
#
#######################################################################
#
# If this CIF has been generated from an entry in the Cambridge 
# Structural Database, then it will include bibliographic, chemical, 
# crystal, experimental, refinement or atomic coordinate data resulting 
# from the CCDC's data processing and validation procedures.
#
#######################################################################

data_LEZWEV
_chemical_formula_moiety         'C48 H80 Ca3 I2 O6 Si2,x(C4 H8 O1)'
_chemical_name_systematic        
'bis(\m-2-[1-(trimethylsilyl)prop-1-en-1,2-diyl]benzen-1-yl)-(\m-iodo)-hexakis(tetrahydrofuran)-iodo-tri-calcium tetrahydrofuran solvate'
_symmetry_cell_setting           orthorhombic
_symmetry_space_group_name_H-M   'P 21 21 21'
_symmetry_Int_Tables_number      19
_space_group_name_Hall           'P 2ac 2ab'
loop_
_symmetry_equiv_pos_site_id
_symmetry_equiv_pos_as_xyz
1 x,y,z
2 1/2-x,-y,1/2+z
3 -x,1/2+y,1/2-z
4 1/2+x,1/2-y,-z
_cell_length_a                   12.3201(2)
_cell_length_b                   17.4852(4)
_cell_length_c                   34.1897(6)
_cell_angle_alpha                90
_cell_angle_beta                 90
_cell_angle_gamma                90
_cell_volume                     7365.13
_exptl_crystal_colour            orange
_exptl_crystal_description       block
_cell_formula_units_Z            4
_chemical_properties_physical    
Air-sensitive,Moisture-sensitive,Oxygen-sensitive
loop_
_atom_site_label
_atom_site_type_symbol
_atom_site_fract_x
_atom_site_fract_y
_atom_site_fract_z
I1 I 0.46017(4) 0.67128(3) 0.32618(2)
I2 I 0.35382(7) 0.42485(4) 0.34660(2)
Ca1 Ca 0.41252(10) 0.83721(8) 0.29217(4)
Ca2 Ca 0.25529(10) 0.76330(8) 0.36718(4)
Ca3 Ca 0.33446(11) 0.57689(8) 0.39226(4)
Si1 Si 0.4705(2) 0.92462(13) 0.39593(6)
Si2 Si 0.06740(18) 0.59414(13) 0.33272(7)
O1 O 0.3925(4) 0.9408(3) 0.24726(17)
O2 O 0.6039(4) 0.8598(4) 0.28808(19)
O3 O 0.4231(5) 0.7662(4) 0.23235(17)
O4 O 0.1103(4) 0.8333(4) 0.39753(17)
O5 O 0.5104(7) 0.5591(5) 0.4216(2)
O6 O 0.2763(6) 0.5003(4) 0.44668(18)
C1 C 0.3693(6) 0.8930(4) 0.3592(2)
C2 C 0.2844(6) 0.9370(4) 0.3483(2)
C3 C 0.2043(5) 0.9119(4) 0.3174(2)
C4 C 0.2077(5) 0.8356(4) 0.30336(19)
C5 C 0.1319(6) 0.8171(5) 0.2743(2)
H1 H 0.1307 0.7671 0.2650
C6 C 0.0579(6) 0.8690(6) 0.2584(3)
H2 H 0.0109 0.8545 0.2384
C7 C 0.0566(6) 0.9437(6) 0.2734(3)
H3 H 0.0071 0.9792 0.2639
C8 C 0.1288(6) 0.9644(5) 0.3023(3)
H4 H 0.1277 1.0141 0.3120
C9 C 0.2608(10) 1.0173(5) 0.3652(3)
H5 H 0.1863 1.0202 0.3732
H6 H 0.2747 1.0553 0.3455
H7 H 0.3070 1.0264 0.3873
C10 C 0.5447(13) 1.0145(7) 0.3811(3)
H8 H 0.6035 1.0015 0.3639
H9 H 0.5730 1.0393 0.4040
H10 H 0.4955 1.0483 0.3679
C11 C 0.5776(8) 0.8484(7) 0.3998(3)
H11 H 0.5440 0.7989 0.3987
H12 H 0.6155 0.8538 0.4242
H13 H 0.6280 0.8536 0.3786
C12 C 0.4157(10) 0.9414(7) 0.4471(3)
H14 H 0.3628 0.9817 0.4465
H15 H 0.4742 0.9557 0.4642
H16 H 0.3824 0.8954 0.4566
C13 C 0.1501(6) 0.6336(4) 0.3736(2)
C14 C 0.1129(6) 0.6431(4) 0.4103(2)
C15 C 0.1819(6) 0.6774(4) 0.4422(2)
C16 C 0.2923(6) 0.6970(4) 0.4331(2)
C17 C 0.3512(7) 0.7301(4) 0.4640(2)
H17 H 0.4235 0.7429 0.4596
C18 C 0.3075(9) 0.7446(6) 0.5006(3)
H18 H 0.3493 0.7682 0.5198
C19 C 0.2031(10) 0.7241(6) 0.5083(2)
H19 H 0.1740 0.7326 0.5330
C20 C 0.1401(7) 0.6907(5) 0.4796(3)
H20 H 0.0689 0.6769 0.4852
C21 C -0.0043(8) 0.6242(7) 0.4227(3)
H21 H -0.0409 0.6703 0.4303
H22 H -0.0031 0.5892 0.4443
H23 H -0.0420 0.6012 0.4011
C22 C 0.1540(9) 0.5921(6) 0.2877(3)
H24 H 0.1899 0.6405 0.2847
H25 H 0.1093 0.5825 0.2652
H26 H 0.2073 0.5523 0.2901
C23 C -0.0521(8) 0.6553(7) 0.3197(4)
H27 H -0.1060 0.6514 0.3399
H28 H -0.0823 0.6382 0.2953
H29 H -0.0292 0.7075 0.3172
C24 C 0.0161(8) 0.4941(6) 0.3402(3)
H30 H 0.0746 0.4620 0.3489
H31 H -0.0123 0.4747 0.3160
H32 H -0.0403 0.4943 0.3596
C25 C 0.3383(8) 0.9301(6) 0.2097(3)
H33 H 0.2725 0.9004 0.2131
H34 H 0.3856 0.9032 0.1917
C26 C 0.3117(8) 1.0087(6) 0.1942(3)
H35 H 0.2421 1.0090 0.1809
H36 H 0.3673 1.0266 0.1763
C27 C 0.3084(8) 1.0568(6) 0.2310(4)
H37 H 0.3229 1.1102 0.2253
H38 H 0.2386 1.0526 0.2440
C28 C 0.3973(9) 1.0225(5) 0.2555(3)
H39 H 0.4674 1.0434 0.2482
H40 H 0.3849 1.0323 0.2831
C29 C 0.6966(9) 0.8101(7) 0.2971(4)
H41 H 0.6812 0.7786 0.3198
H42 H 0.7130 0.7770 0.2751
C30 C 0.7851(11) 0.8606(8) 0.3048(4)
H43 H 0.8542 0.8360 0.2996
H44 H 0.7839 0.8784 0.3317
C31 C 0.7647(12) 0.9253(10) 0.2766(5)
H45 H 0.7949 0.9728 0.2864
H46 H 0.7967 0.9143 0.2512
C32 C 0.6467(8) 0.9302(6) 0.2736(3)
H47 H 0.6199 0.9727 0.2891
H48 H 0.6250 0.9379 0.2466
C33 C 0.5276(10) 0.7468(6) 0.2146(3)
H49 H 0.5699 0.7925 0.2095
H50 H 0.5691 0.7132 0.2315
C34 C 0.4994(13) 0.7083(9) 0.1782(5)
H51 H 0.5537 0.6705 0.1712
H52 H 0.4916 0.7446 0.1569
C35 C 0.3883(14) 0.6694(11) 0.1882(5)
H53 H 0.3420 0.6671 0.1653
H54 H 0.3993 0.6180 0.1981
C36 C 0.3420(11) 0.7167(7) 0.2174(4)
H55 H 0.3127 0.6855 0.2383
H56 H 0.2832 0.7466 0.2063
C37 C 0.1210(11) 0.8758(6) 0.4332(3)
H57 H 0.1663 0.9204 0.4290
H58 H 0.1542 0.8443 0.4532
C38 C 0.0104(13) 0.8994(10) 0.4454(5)
H59 H -0.0182 0.8652 0.4652
H60 H 0.0107 0.9511 0.4556
C39 C -0.0518(15) 0.8948(10) 0.4104(5)
H61 H -0.0587 0.9454 0.3990
H62 H -0.1240 0.8763 0.4164
C40 C 0.0014(7) 0.8418(8) 0.3813(4)
H63 H -0.0360 0.7931 0.3800
H64 H 0.0035 0.8644 0.3554
C41 C 0.5854(10) 0.6193(8) 0.4308(5)
H65 H 0.5683 0.6645 0.4155
H66 H 0.5797 0.6325 0.4583
C42 C 0.6908(12) 0.5948(9) 0.4223(5)
H67 H 0.7109 0.6083 0.3958
H68 H 0.7427 0.6175 0.4403
C43 C 0.6875(14) 0.5161(10) 0.4269(6)
H69 H 0.7177 0.5025 0.4522
H70 H 0.7315 0.4922 0.4068
C44 C 0.5680(12) 0.4855(9) 0.4240(5)
H71 H 0.5569 0.4545 0.4008
H72 H 0.5473 0.4566 0.4471
C45 C 0.3110(12) 0.5144(7) 0.4863(3)
H73 H 0.3172 0.5689 0.4911
H74 H 0.3809 0.4907 0.4912
C46 C 0.2281(17) 0.4809(12) 0.5114(6)
H75 H 0.2613 0.4538 0.5330
H76 H 0.1810 0.5204 0.5218
C47 C 0.1674(13) 0.4290(9) 0.4872(4)
H77 H 0.0904 0.4344 0.4925
H78 H 0.1883 0.3767 0.4929
C48 C 0.1899(11) 0.4467(8) 0.4454(4)
H79 H 0.2113 0.4009 0.4313
H80 H 0.1265 0.4686 0.4328
loop_
_geom_bond_atom_site_label_1
_geom_bond_atom_site_label_2
_geom_bond_site_symmetry_1
_geom_bond_site_symmetry_2
I1 Ca1 1_555 1_555
I2 Ca3 1_555 1_555
Ca1 O1 1_555 1_555
Ca2 I1 1_555 1_555
Ca3 I1 1_555 1_555
Si1 C1 1_555 1_555
Si2 C13 1_555 1_555
O1 C25 1_555 1_555
O2 Ca1 1_555 1_555
O3 Ca1 1_555 1_555
O4 Ca2 1_555 1_555
O5 Ca3 1_555 1_555
O6 Ca3 1_555 1_555
C1 Ca1 1_555 1_555
C2 C1 1_555 1_555
C3 C2 1_555 1_555
C4 Ca1 1_555 1_555
C5 C4 1_555 1_555
H1 C5 1_555 1_555
C6 C5 1_555 1_555
H2 C6 1_555 1_555
C7 C6 1_555 1_555
H3 C7 1_555 1_555
C8 C3 1_555 1_555
H4 C8 1_555 1_555
C9 C2 1_555 1_555
H5 C9 1_555 1_555
H6 C9 1_555 1_555
H7 C9 1_555 1_555
C10 Si1 1_555 1_555
H8 C10 1_555 1_555
H9 C10 1_555 1_555
H10 C10 1_555 1_555
C11 Si1 1_555 1_555
H11 C11 1_555 1_555
H12 C11 1_555 1_555
H13 C11 1_555 1_555
C12 Si1 1_555 1_555
H14 C12 1_555 1_555
H15 C12 1_555 1_555
H16 C12 1_555 1_555
C13 Ca2 1_555 1_555
C14 C13 1_555 1_555
C15 C14 1_555 1_555
C16 Ca2 1_555 1_555
C17 C16 1_555 1_555
H17 C17 1_555 1_555
C18 C17 1_555 1_555
H18 C18 1_555 1_555
C19 C18 1_555 1_555
H19 C19 1_555 1_555
C20 C15 1_555 1_555
H20 C20 1_555 1_555
C21 C14 1_555 1_555
H21 C21 1_555 1_555
H22 C21 1_555 1_555
H23 C21 1_555 1_555
C22 Si2 1_555 1_555
H24 C22 1_555 1_555
H25 C22 1_555 1_555
H26 C22 1_555 1_555
C23 Si2 1_555 1_555
H27 C23 1_555 1_555
H28 C23 1_555 1_555
H29 C23 1_555 1_555
C24 Si2 1_555 1_555
H30 C24 1_555 1_555
H31 C24 1_555 1_555
H32 C24 1_555 1_555
C25 H33 1_555 1_555
H34 C25 1_555 1_555
C26 C25 1_555 1_555
H35 C26 1_555 1_555
H36 C26 1_555 1_555
C27 C26 1_555 1_555
H37 C27 1_555 1_555
H38 C27 1_555 1_555
C28 O1 1_555 1_555
H39 C28 1_555 1_555
H40 C28 1_555 1_555
C29 O2 1_555 1_555
H41 C29 1_555 1_555
H42 C29 1_555 1_555
C30 C29 1_555 1_555
H43 C30 1_555 1_555
H44 C30 1_555 1_555
C31 C30 1_555 1_555
H45 C31 1_555 1_555
H46 C31 1_555 1_555
C32 O2 1_555 1_555
H47 C32 1_555 1_555
H48 C32 1_555 1_555
C33 O3 1_555 1_555
H49 C33 1_555 1_555
H50 C33 1_555 1_555
C34 C33 1_555 1_555
H51 C34 1_555 1_555
H52 C34 1_555 1_555
C35 C34 1_555 1_555
H53 C35 1_555 1_555
H54 C35 1_555 1_555
C36 O3 1_555 1_555
H55 C36 1_555 1_555
H56 C36 1_555 1_555
C37 O4 1_555 1_555
H57 C37 1_555 1_555
H58 C37 1_555 1_555
C38 C37 1_555 1_555
H59 C38 1_555 1_555
H60 C38 1_555 1_555
C39 C38 1_555 1_555
H61 C39 1_555 1_555
H62 C39 1_555 1_555
C40 O4 1_555 1_555
H63 C40 1_555 1_555
H64 C40 1_555 1_555
C41 O5 1_555 1_555
H65 C41 1_555 1_555
H66 C41 1_555 1_555
C42 C41 1_555 1_555
H67 C42 1_555 1_555
H68 C42 1_555 1_555
C43 C42 1_555 1_555
H69 C43 1_555 1_555
H70 C43 1_555 1_555
C44 O5 1_555 1_555
H71 C44 1_555 1_555
H72 C44 1_555 1_555
C45 O6 1_555 1_555
H73 C45 1_555 1_555
H74 C45 1_555 1_555
C46 C45 1_555 1_555
H75 C46 1_555 1_555
H76 C46 1_555 1_555
C47 C46 1_555 1_555
H77 C47 1_555 1_555
H78 C47 1_555 1_555
C48 O6 1_555 1_555
H79 C48 1_555 1_555
H80 C48 1_555 1_555
Ca2 C1 1_555 1_555
Ca2 C4 1_555 1_555
Ca3 C13 1_555 1_555
Ca3 C16 1_555 1_555
C3 C4 1_555 1_555
C7 C8 1_555 1_555
C15 C16 1_555 1_555
C19 C20 1_555 1_555
C27 C28 1_555 1_555
C31 C32 1_555 1_555
C35 C36 1_555 1_555
C39 C40 1_555 1_555
C43 C44 1_555 1_555
C47 C48 1_555 1_555

#END
