
#######################################################################
#
#                 Cambridge Crystallographic Data Centre
#                                CCDC 
#
#######################################################################
#
# If this CIF has been generated from an entry in the Cambridge 
# Structural Database, then it will include bibliographic, chemical, 
# crystal, experimental, refinement or atomic coordinate data resulting 
# from the CCDC's data processing and validation procedures.
#
#######################################################################

data_LIANTR
_chemical_formula_moiety         'C14 H10 2-,2(C6 H16 N2),2(Li1 1+)'
_chemical_name_systematic        
'bis(Tetramethylethylenediamine) di-lithium(i) anthracenide'
_symmetry_cell_setting           monoclinic
_symmetry_space_group_name_H-M   'P 21/c'
_symmetry_Int_Tables_number      14
_space_group_name_Hall           '-P 2ybc'
loop_
_symmetry_equiv_pos_site_id
_symmetry_equiv_pos_as_xyz
1 x,y,z
2 -x,1/2+y,1/2-z
3 -x,-y,-z
4 x,1/2-y,1/2+z
_cell_length_a                   8.44(1)
_cell_length_b                   17.43(2)
_cell_length_c                   18.17(2)
_cell_angle_alpha                90
_cell_angle_beta                 91.55
_cell_angle_gamma                90
_cell_volume                     2672
_cell_formula_units_Z            4
loop_
_atom_site_label
_atom_site_type_symbol
_atom_site_fract_x
_atom_site_fract_y
_atom_site_fract_z
C1 C -0.10720 0.04560 0.38290
C2 C -0.32760 0.16950 0.24770
C3 C -0.16510 0.07470 0.31470
C4 C -0.26770 0.14140 0.31670
C5 C -0.26360 0.14820 0.17850
C6 C -0.16460 0.08170 0.17680
C7 C -0.16040 0.07270 0.45130
C20 C -0.25740 0.13540 0.45240
C21 C -0.30270 0.17180 0.38590
C22 C -0.29750 0.18570 0.11140
C23 C -0.24150 0.15810 0.04410
C24 C -0.14940 0.09460 0.04320
C25 C -0.10850 0.05680 0.10850
C26 C -0.13480 0.04210 0.24490
H1 H -0.04100 0.00100 0.38000
H2 H -0.39800 0.21200 0.24900
H3 H -0.12100 0.04700 0.49600
H4 H -0.29700 0.15600 0.49700
H5 H -0.36300 0.21900 0.38800
H6 H -0.37000 0.22800 0.11400
H7 H -0.26600 0.18300 0.00500
H8 H -0.10700 0.07900 -0.00100
H9 H -0.04100 0.01200 0.10800
H10 H -0.07300 -0.00500 0.24400
C8 C 0.34200 0.07630 0.11420
C10 C 0.50510 -0.03020 0.09900
C12 C 0.41030 0.00250 0.36180
C14 C 0.57880 -0.09670 0.32770
C16 C 0.35020 -0.07020 0.25340
C18 C 0.30400 -0.03290 0.18990
N1 N 0.47300 -0.03720 0.30080
N2 N 0.41970 0.01380 0.15340
C9 C 0.10980 0.22110 -0.43870
C11 C 0.27110 0.14660 -0.51630
C13 C 0.13100 0.21660 -0.73890
C15 C -0.01770 0.31080 -0.67560
C17 C 0.23860 0.27260 -0.62770
C19 C 0.21750 0.27840 -0.54610
N3 N 0.15420 0.20770 -0.51500
N4 N 0.09320 0.24770 -0.66630
Li1 Li -0.41220 0.04290 0.23390
Li2 Li -0.02130 0.17330 0.40660
loop_
_geom_bond_atom_site_label_1
_geom_bond_atom_site_label_2
_geom_bond_site_symmetry_1
_geom_bond_site_symmetry_2
C1 C3 1_555 1_555
C2 C4 1_555 1_555
C3 C4 1_555 1_555
C4 C21 1_555 1_555
C5 C2 1_555 1_555
C6 C5 1_555 1_555
C7 C1 1_555 1_555
C8 N2 1_555 1_555
C9 N3 1_555 1_555
C10 N2 1_555 1_555
C11 N3 1_555 1_555
C12 N1 1_555 1_555
C13 N4 1_555 1_555
C14 N1 1_555 1_555
C15 N4 1_555 1_555
C16 C18 1_555 1_555
C17 C19 1_555 1_555
C18 N2 1_555 1_555
C19 N3 1_555 1_555
C20 C7 1_555 1_555
C21 C20 1_555 1_555
C22 C5 1_555 1_555
C23 C22 1_555 1_555
C24 C23 1_555 1_555
C25 C6 1_555 1_555
C26 C3 1_555 1_555
H1 C1 1_555 1_555
H2 C2 1_555 1_555
H3 C7 1_555 1_555
H4 C20 1_555 1_555
H5 C21 1_555 1_555
H6 C22 1_555 1_555
H7 C23 1_555 1_555
H8 C24 1_555 1_555
H9 C25 1_555 1_555
H10 C26 1_555 1_555
N1 C16 1_555 1_555
N4 C17 1_555 1_555
C6 C26 1_555 1_555
C24 C25 1_555 1_555

#END
