
#######################################################################
#
#                 Cambridge Crystallographic Data Centre
#                                CCDC 
#
#######################################################################
#
# If this CIF has been generated from an entry in the Cambridge 
# Structural Database, then it will include bibliographic, chemical, 
# crystal, experimental, refinement or atomic coordinate data resulting 
# from the CCDC's data processing and validation procedures.
#
#######################################################################

data_LIBCIL
_chemical_formula_moiety         'C28 H39 N5 S1'
_chemical_name_systematic        
1-[2-(4-methylpiperazin-1-yl)ethyl]-5-{5-[1-(pyrrolidin-1-yl)cyclohexyl]-1,3-thiazol-2-yl}-1H-indole
_symmetry_cell_setting           monoclinic
_symmetry_space_group_name_H-M   'P 21/n'
_symmetry_Int_Tables_number      14
_space_group_name_Hall           '-P 2yn'
loop_
_symmetry_equiv_pos_site_id
_symmetry_equiv_pos_as_xyz
1 x,y,z
2 1/2-x,1/2+y,1/2-z
3 -x,-y,-z
4 1/2+x,1/2-y,1/2+z
_cell_length_a                   7.39158(16)
_cell_length_b                   36.6637(7)
_cell_length_c                   9.37333(14)
_cell_angle_alpha                90
_cell_angle_beta                 90.2922(16)
_cell_angle_gamma                90
_cell_volume                     2540.16
_exptl_crystal_colour            colorless
_exptl_crystal_description       needle
_cell_formula_units_Z            4
_exptl_crystal_recrystallization_method 
'Re-crystallisation from solvent: dichloromethane/pentane'
loop_
_atom_site_label
_atom_site_type_symbol
_atom_site_fract_x
_atom_site_fract_y
_atom_site_fract_z
S1 S 0.50384(5) 0.09778(2) 0.37463(4)
N1 N 0.76075(17) 0.02400(3) 0.23885(13)
N2 N 0.70936(18) 0.10706(4) 0.59272(13)
N3 N 0.01332(17) 0.16655(3) 0.91532(13)
N4 N -0.34892(17) 0.23759(3) 0.87331(13)
N5 N -0.64339(17) 0.28175(3) 0.76835(13)
C1 C 0.5719(2) 0.01208(4) 0.22960(17)
H1 H 0.5234 0.0157 0.1343
H2 H 0.4970 0.0251 0.2974
C2 C 0.5835(2) -0.02817(4) 0.26636(18)
H3 H 0.6181 -0.0425 0.1838
H4 H 0.4689 -0.0371 0.3021
C3 C 0.7294(3) -0.02953(5) 0.38164(18)
H5 H 0.8013 -0.0515 0.3726
H6 H 0.6754 -0.0291 0.4757
C4 C 0.8459(2) 0.00424(4) 0.35829(16)
H7 H 0.8484 0.0193 0.4434
H8 H 0.9689 -0.0026 0.3347
C5 C 0.8005(2) 0.06351(4) 0.23076(15)
C6 C 0.7177(2) 0.07891(4) 0.09176(15)
H9 H 0.5875 0.0757 0.0935
H10 H 0.7424 0.1049 0.0862
C7 C 0.7943(2) 0.06005(4) -0.04026(15)
H11 H 0.7600 0.0345 -0.0393
H12 H 0.7428 0.0711 -0.1253
C8 C 0.9991(2) 0.06306(4) -0.04528(16)
H13 H 1.0325 0.0883 -0.0616
H14 H 1.0439 0.0487 -0.1246
C9 C 1.0880(2) 0.04981(4) 0.09220(16)
H15 H 1.2168 0.0547 0.0887
H16 H 1.0718 0.0236 0.1006
C10 C 1.0069(2) 0.06866(4) 0.22307(16)
H17 H 1.0344 0.0945 0.2194
H18 H 1.0622 0.0588 0.3088
C11 C 0.7273(2) 0.08378(4) 0.36036(15)
C12 C 0.8113(2) 0.09133(4) 0.48674(16)
H19 H 0.9331 0.0860 0.5009
C13 C 0.5431(2) 0.11199(4) 0.54940(15)
C14 C 0.3987(2) 0.12655(4) 0.63998(15)
C15 C 0.4270(2) 0.12890(4) 0.78647(15)
H20 H 0.5354 0.1210 0.8266
C16 C 0.2319(2) 0.13758(4) 0.58008(15)
H21 H 0.2147 0.1357 0.4820
C17 C 0.0937(2) 0.15102(4) 0.66319(15)
H22 H -0.0166 0.1578 0.6231
C18 C 0.1254(2) 0.15401(4) 0.80924(15)
C19 C 0.2908(2) 0.14331(4) 0.87303(15)
C20 C 0.2744(2) 0.15054(4) 1.02240(16)
H23 H 0.3619 0.1464 1.0922
C21 C 0.1063(2) 0.16456(4) 1.04267(16)
H24 H 0.0605 0.1718 1.1304
C22 C -0.1688(2) 0.18077(4) 0.89594(17)
H25 H -0.2391 0.1758 0.9809
H26 H -0.2264 0.1684 0.8164
C23 C -0.1682(2) 0.22181(4) 0.86746(16)
H27 H -0.0916 0.2337 0.9377
H28 H -0.1171 0.2263 0.7740
C24 C -0.3394(2) 0.27743(4) 0.87184(16)
H29 H -0.2842 0.2855 0.7837
H30 H -0.2644 0.2858 0.9506
C25 C -0.5268(2) 0.29377(4) 0.88457(15)
H31 H -0.5794 0.2866 0.9749
H32 H -0.5180 0.3202 0.8833
C26 C -0.6525(2) 0.24187(4) 0.76942(17)
H33 H -0.7285 0.2336 0.6913
H34 H -0.7061 0.2336 0.8580
C27 C -0.4653(2) 0.22573(4) 0.75469(16)
H35 H -0.4734 0.1993 0.7541
H36 H -0.4129 0.2334 0.6650
C28 C -0.8227(2) 0.29802(5) 0.77956(18)
H37 H -0.8769 0.2908 0.8681
H38 H -0.8969 0.2898 0.7015
H39 H -0.8124 0.3241 0.7765
loop_
_geom_bond_atom_site_label_1
_geom_bond_atom_site_label_2
_geom_bond_site_symmetry_1
_geom_bond_site_symmetry_2
S1 C11 1_555 1_555
N1 C1 1_555 1_555
N2 C12 1_555 1_555
N3 C18 1_555 1_555
N4 C23 1_555 1_555
N5 C25 1_555 1_555
C1 H1 1_555 1_555
H2 C1 1_555 1_555
C2 C1 1_555 1_555
H3 C2 1_555 1_555
H4 C2 1_555 1_555
C3 C2 1_555 1_555
H5 C3 1_555 1_555
H6 C3 1_555 1_555
C4 N1 1_555 1_555
H7 C4 1_555 1_555
H8 C4 1_555 1_555
C5 N1 1_555 1_555
C6 C5 1_555 1_555
H9 C6 1_555 1_555
H10 C6 1_555 1_555
C7 C6 1_555 1_555
H11 C7 1_555 1_555
H12 C7 1_555 1_555
C8 C7 1_555 1_555
H13 C8 1_555 1_555
H14 C8 1_555 1_555
C9 C8 1_555 1_555
H15 C9 1_555 1_555
H16 C9 1_555 1_555
C10 C5 1_555 1_555
H17 C10 1_555 1_555
H18 C10 1_555 1_555
C11 C5 1_555 1_555
C12 C11 1_555 1_555
H19 C12 1_555 1_555
C13 S1 1_555 1_555
C14 C13 1_555 1_555
C15 C14 1_555 1_555
H20 C15 1_555 1_555
C16 C14 1_555 1_555
H21 C16 1_555 1_555
C17 C16 1_555 1_555
H22 C17 1_555 1_555
C18 C17 1_555 1_555
C19 C15 1_555 1_555
C20 C19 1_555 1_555
H23 C20 1_555 1_555
C21 N3 1_555 1_555
H24 C21 1_555 1_555
C22 N3 1_555 1_555
H25 C22 1_555 1_555
H26 C22 1_555 1_555
C23 C22 1_555 1_555
H27 C23 1_555 1_555
H28 C23 1_555 1_555
C24 N4 1_555 1_555
H29 C24 1_555 1_555
H30 C24 1_555 1_555
C25 C24 1_555 1_555
H31 C25 1_555 1_555
H32 C25 1_555 1_555
C26 N5 1_555 1_555
H33 C26 1_555 1_555
H34 C26 1_555 1_555
C27 N4 1_555 1_555
H35 C27 1_555 1_555
H36 C27 1_555 1_555
C28 N5 1_555 1_555
H37 C28 1_555 1_555
H38 C28 1_555 1_555
H39 C28 1_555 1_555
N2 C13 1_555 1_555
C3 C4 1_555 1_555
C9 C10 1_555 1_555
C18 C19 1_555 1_555
C20 C21 1_555 1_555
C26 C27 1_555 1_555

#END
