
#######################################################################
#
#                 Cambridge Crystallographic Data Centre
#                                CCDC 
#
#######################################################################
#
# If this CIF has been generated from an entry in the Cambridge 
# Structural Database, then it will include bibliographic, chemical, 
# crystal, experimental, refinement or atomic coordinate data resulting 
# from the CCDC's data processing and validation procedures.
#
#######################################################################

data_LIBNIW
_chemical_formula_moiety         'C63 H46 N4 P1 1+,Br1 1-,1.5(H2 O1)'
_chemical_name_systematic        
'triphenyl{[4-(10,15,20-triphenylporphyrin-5-yl)phenyl]methyl}phosphanium bromide sesquihydrate'
_symmetry_cell_setting           monoclinic
_symmetry_space_group_name_H-M   'P 21/n'
_symmetry_Int_Tables_number      14
_space_group_name_Hall           '-P 2yn'
loop_
_symmetry_equiv_pos_site_id
_symmetry_equiv_pos_as_xyz
1 x,y,z
2 1/2-x,1/2+y,1/2-z
3 -x,-y,-z
4 1/2+x,1/2-y,1/2+z
_cell_length_a                   13.036(3)
_cell_length_b                   10.330(2)
_cell_length_c                   39.905(8)
_cell_angle_alpha                90
_cell_angle_beta                 90.25(3)
_cell_angle_gamma                90
_cell_volume                     5373.63
_exptl_crystal_description       'thin plate'
_cell_formula_units_Z            4
_exptl_crystal_recrystallization_method dichloromethane/hexane
loop_
_atom_site_label
_atom_site_type_symbol
_atom_site_fract_x
_atom_site_fract_y
_atom_site_fract_z
Br1 Br 0.17808(4) 0.85246(6) 0.03584(2)
N1 N 0.1218(2) 0.6248(3) -0.21272(7)
H1 H 0.0671 0.5935 -0.2218
N2 N 0.0682(2) 0.5138(3) -0.27795(7)
N3 N -0.1383(2) 0.4542(3) -0.25595(7)
H2 H -0.0909 0.5051 -0.2487
N4 N -0.0833(2) 0.5699(3) -0.19144(7)
C1 C 0.1283(3) 0.6798(4) -0.18093(8)
C2 C 0.2314(3) 0.7176(4) -0.17590(9)
H3 H 0.2575 0.7583 -0.1569
C3 C 0.2858(3) 0.6846(4) -0.20348(9)
H4 H 0.3559 0.6963 -0.2064
C4 C 0.2170(3) 0.6286(4) -0.22727(8)
C5 C 0.2390(3) 0.5924(4) -0.26037(8)
C6 C 0.1680(3) 0.5475(4) -0.28426(8)
C7 C 0.1906(3) 0.5295(4) -0.31951(9)
H5 H 0.2528 0.5461 -0.3300
C8 C 0.1054(3) 0.4845(4) -0.33397(9)
H6 H 0.0970 0.4650 -0.3566
C9 C 0.0282(3) 0.4716(4) -0.30823(8)
C10 C -0.0688(3) 0.4181(4) -0.31299(9)
C11 C -0.1434(3) 0.4024(4) -0.28787(9)
C12 C -0.2333(3) 0.3251(4) -0.28947(10)
H7 H -0.2566 0.2797 -0.3081
C13 C -0.2794(3) 0.3290(4) -0.25903(10)
H8 H -0.3390 0.2853 -0.2531
C14 C -0.2208(3) 0.4114(4) -0.23771(9)
C15 C -0.2413(3) 0.4446(4) -0.20418(9)
C16 C -0.1794(3) 0.5219(4) -0.18384(8)
C17 C -0.2085(3) 0.5663(4) -0.15058(9)
H9 H -0.2690 0.5466 -0.1395
C18 C -0.1325(3) 0.6405(4) -0.13894(9)
H10 H -0.1311 0.6839 -0.1185
C19 C -0.0528(3) 0.6409(4) -0.16396(8)
C20 C 0.0441(3) 0.6953(3) -0.15917(8)
C21 C 0.3497(3) 0.6007(4) -0.27105(8)
C22 C 0.4012(3) 0.4871(5) -0.27844(9)
H11 H 0.3672 0.4083 -0.2765
C23 C 0.5026(3) 0.4890(6) -0.28865(11)
H12 H 0.5363 0.4121 -0.2937
C24 C 0.5528(4) 0.6044(8) -0.29131(12)
H13 H 0.6214 0.6056 -0.2977
C25 C 0.5029(4) 0.7191(6) -0.28464(12)
H14 H 0.5369 0.7976 -0.2872
C26 C 0.4009(3) 0.7168(5) -0.27399(10)
H15 H 0.3675 0.7938 -0.2689
C27 C -0.0960(3) 0.3637(4) -0.34702(9)
C28 C -0.1710(3) 0.4213(5) -0.36624(10)
H16 H -0.2061 0.4925 -0.3578
C29 C -0.1956(4) 0.3747(6) -0.39838(12)
H17 H -0.2456 0.4151 -0.4114
C30 C -0.1445(5) 0.2689(7) -0.41005(12)
H18 H -0.1601 0.2372 -0.4313
C31 C -0.0714(4) 0.2086(6) -0.39140(12)
H19 H -0.0383 0.1357 -0.3997
C32 C -0.0460(3) 0.2560(5) -0.35969(10)
H20 H 0.0047 0.2153 -0.3470
C33 C -0.3395(3) 0.3952(4) -0.18958(10)
C34 C -0.3371(4) 0.3055(5) -0.16400(14)
H21 H -0.2747 0.2736 -0.1562
C35 C -0.4290(6) 0.2624(6) -0.14978(17)
H22 H -0.4278 0.2019 -0.1325
C36 C -0.5196(5) 0.3094(7) -0.16122(19)
H23 H -0.5803 0.2806 -0.1516
C37 C -0.5239(4) 0.3977(7) -0.18653(17)
H24 H -0.5867 0.4292 -0.1941
C38 C -0.4339(4) 0.4395(6) -0.20064(12)
H25 H -0.4364 0.4992 -0.2181
C39 C 0.0616(3) 0.7766(4) -0.12821(8)
C40 C 0.1303(3) 0.7434(4) -0.10279(9)
H26 H 0.1680 0.6672 -0.1044
C41 C 0.1431(3) 0.8235(4) -0.07502(9)
H27 H 0.1900 0.8006 -0.0584
C42 C 0.0868(3) 0.9375(4) -0.07170(9)
C43 C 0.0164(3) 0.9666(4) -0.09646(10)
H28 H -0.0238 1.0405 -0.0943
C44 C 0.0040(3) 0.8887(4) -0.12442(9)
H29 H -0.0434 0.9118 -0.1408
C45 C 0.1501(3) 1.2732(4) -0.01202(9)
C46 C 0.1604(5) 1.4050(6) -0.01601(13)
H30 H 0.1793 1.4382 -0.0367
C47 C 0.1427(6) 1.4894(6) 0.01072(16)
H31 H 0.1502 1.5782 0.0079
C48 C 0.1147(5) 1.4402(7) 0.04070(14)
H32 H 0.1057 1.4952 0.0589
C49 C 0.0996(4) 1.3117(7) 0.04437(12)
H33 H 0.0760 1.2798 0.0647
C50 C 0.1185(4) 1.2267(5) 0.01840(10)
H34 H 0.1099 1.1382 0.0216
C51 C 0.3108(3) 1.1278(5) -0.04560(11)
C52 C 0.3507(3) 1.0375(4) -0.06783(10)
H35 H 0.3071 0.9928 -0.0823
C53 C 0.4556(3) 1.0138(5) -0.06846(11)
H36 H 0.4823 0.9534 -0.0833
C54 C 0.5207(3) 1.0805(6) -0.04687(14)
H37 H 0.5910 1.0647 -0.0473
C55 C 0.4809(4) 1.1709(7) -0.02464(15)
H38 H 0.5245 1.2156 -0.0102
C56 C 0.3760(4) 1.1946(6) -0.02400(14)
H39 H 0.3493 1.2550 -0.0091
C57 C 0.1460(3) 1.2479(4) -0.08405(9)
C58 C 0.2155(4) 1.2704(6) -0.10909(12)
H40 H 0.2833 1.2446 -0.1063
C59 C 0.1856(6) 1.3311(7) -0.13835(14)
H41 H 0.2337 1.3456 -0.1551
C60 C 0.0884(6) 1.3696(5) -0.14308(13)
H42 H 0.0696 1.4102 -0.1630
C61 C 0.0174(4) 1.3493(5) -0.11885(14)
H43 H -0.0502 1.3752 -0.1222
C62 C 0.0462(4) 1.2894(5) -0.08905(12)
H44 H -0.0022 1.2772 -0.0723
C63 C 0.0980(3) 1.0250(4) -0.04145(9)
H45 H 0.1253 0.9736 -0.0231
H46 H 0.0300 1.0533 -0.0349
P1 P 0.17746(8) 1.16629(11) -0.04594(2)
C64? C 0.3138(12) 1.130(2) -0.0478(5)
C65? C 0.3535(14) 1.0079(19) -0.0411(5)
H47? H 0.3098 0.9401 -0.0356
C66? C 0.4588(16) 0.987(2) -0.0426(5)
H48? H 0.4854 0.9053 -0.0381
C67? C 0.5242(12) 1.088(3) -0.0508(5)
H49? H 0.5946 1.0744 -0.0518
C68? C 0.4844(17) 1.211(2) -0.0575(6)
H50? H 0.5282 1.2783 -0.0630
C69? C 0.3792(18) 1.2314(19) -0.0560(5)
H51? H 0.3526 1.3132 -0.0604
loop_
_geom_bond_atom_site_label_1
_geom_bond_atom_site_label_2
_geom_bond_site_symmetry_1
_geom_bond_site_symmetry_2
N1 H1 1_555 1_555
N2 C6 1_555 1_555
N3 H2 1_555 1_555
N4 C16 1_555 1_555
C1 N1 1_555 1_555
C2 C1 1_555 1_555
H3 C2 1_555 1_555
C3 C2 1_555 1_555
H4 C3 1_555 1_555
C4 N1 1_555 1_555
C5 C4 1_555 1_555
C6 C5 1_555 1_555
C7 C6 1_555 1_555
H5 C7 1_555 1_555
C8 C7 1_555 1_555
H6 C8 1_555 1_555
C9 N2 1_555 1_555
C10 C9 1_555 1_555
C11 N3 1_555 1_555
C12 C11 1_555 1_555
H7 C12 1_555 1_555
C13 C12 1_555 1_555
H8 C13 1_555 1_555
C14 N3 1_555 1_555
C15 C14 1_555 1_555
C16 C15 1_555 1_555
C17 C16 1_555 1_555
H9 C17 1_555 1_555
C18 C17 1_555 1_555
H10 C18 1_555 1_555
C19 N4 1_555 1_555
C20 C1 1_555 1_555
C21 C5 1_555 1_555
C22 C21 1_555 1_555
H11 C22 1_555 1_555
C23 C22 1_555 1_555
H12 C23 1_555 1_555
C24 C23 1_555 1_555
H13 C24 1_555 1_555
C25 C24 1_555 1_555
H14 C25 1_555 1_555
C26 C21 1_555 1_555
H15 C26 1_555 1_555
C27 C10 1_555 1_555
C28 C27 1_555 1_555
H16 C28 1_555 1_555
C29 C28 1_555 1_555
H17 C29 1_555 1_555
C30 C29 1_555 1_555
H18 C30 1_555 1_555
C31 C30 1_555 1_555
H19 C31 1_555 1_555
C32 C27 1_555 1_555
H20 C32 1_555 1_555
C33 C15 1_555 1_555
C34 C33 1_555 1_555
H21 C34 1_555 1_555
C35 C34 1_555 1_555
H22 C35 1_555 1_555
C36 C35 1_555 1_555
H23 C36 1_555 1_555
C37 C36 1_555 1_555
H24 C37 1_555 1_555
C38 C33 1_555 1_555
H25 C38 1_555 1_555
C39 C20 1_555 1_555
C40 C39 1_555 1_555
H26 C40 1_555 1_555
C41 C40 1_555 1_555
H27 C41 1_555 1_555
C42 C41 1_555 1_555
C43 C42 1_555 1_555
H28 C43 1_555 1_555
C44 C39 1_555 1_555
H29 C44 1_555 1_555
C45 C46 1_555 1_555
C46 H30 1_555 1_555
C47 C46 1_555 1_555
H31 C47 1_555 1_555
C48 C47 1_555 1_555
H32 C48 1_555 1_555
C49 C48 1_555 1_555
H33 C49 1_555 1_555
C50 C45 1_555 1_555
H34 C50 1_555 1_555
C51 C52 1_555 1_555
C52 H35 1_555 1_555
C53 C52 1_555 1_555
H36 C53 1_555 1_555
C54 C53 1_555 1_555
H37 C54 1_555 1_555
C55 C54 1_555 1_555
H38 C55 1_555 1_555
C56 C51 1_555 1_555
H39 C56 1_555 1_555
C57 C58 1_555 1_555
C58 H40 1_555 1_555
C59 C58 1_555 1_555
H41 C59 1_555 1_555
C60 C59 1_555 1_555
H42 C60 1_555 1_555
C61 C60 1_555 1_555
H43 C61 1_555 1_555
C62 C57 1_555 1_555
H44 C62 1_555 1_555
C63 C42 1_555 1_555
H45 C63 1_555 1_555
H46 C63 1_555 1_555
P1 C45 1_555 1_555
C3 C4 1_555 1_555
C8 C9 1_555 1_555
C10 C11 1_555 1_555
C13 C14 1_555 1_555
C18 C19 1_555 1_555
C19 C20 1_555 1_555
C25 C26 1_555 1_555
C31 C32 1_555 1_555
C37 C38 1_555 1_555
C43 C44 1_555 1_555
C49 C50 1_555 1_555
C51 P1 1_555 1_555
C55 C56 1_555 1_555
C57 P1 1_555 1_555
C61 C62 1_555 1_555
C63 P1 1_555 1_555

#END
