
#######################################################################
#
#                 Cambridge Crystallographic Data Centre
#                                CCDC 
#
#######################################################################
#
# If this CIF has been generated from an entry in the Cambridge 
# Structural Database, then it will include bibliographic, chemical, 
# crystal, experimental, refinement or atomic coordinate data resulting 
# from the CCDC's data processing and validation procedures.
#
#######################################################################

data_LIBNEQ
_chemical_formula_moiety         'C28 H20 F6 S2'
_chemical_name_systematic        
(1-(2-Methyl-5-phenyl-3-thienyl)-2-(2-methyl-5-(3-methylphenyl)-3-thienyl))-3,3,4,4,5,5-hexafluorocyclopent-1-ene
_symmetry_cell_setting           monoclinic
_symmetry_space_group_name_H-M   'P 21/n'
_symmetry_Int_Tables_number      14
_space_group_name_Hall           '-P 2yn'
loop_
_symmetry_equiv_pos_site_id
_symmetry_equiv_pos_as_xyz
1 x,y,z
2 1/2-x,1/2+y,1/2-z
3 -x,-y,-z
4 1/2+x,1/2-y,1/2+z
_cell_length_a                   11.956(2)
_cell_length_b                   9.2230(19)
_cell_length_c                   22.630(9)
_cell_angle_alpha                90
_cell_angle_beta                 92.04(2)
_cell_angle_gamma                90
_cell_volume                     2493.83
_exptl_crystal_colour            blue
_exptl_crystal_description       prism
_cell_formula_units_Z            4
_exptl_crystal_recrystallization_method chloroform/hexane
loop_
_atom_site_label
_atom_site_type_symbol
_atom_site_fract_x
_atom_site_fract_y
_atom_site_fract_z
S1 S 0.65540(5) 0.37093(7) 0.21606(2)
S2 S 0.96531(5) 0.60625(6) 0.39701(3)
F1 F 0.83295(15) 0.18688(18) 0.51320(6)
F2 F 0.88632(13) 0.03609(17) 0.45133(8)
C1 C 0.6912(2) 0.0589(3) 0.46520(11)
F3 F 0.63227(17) 0.1244(3) 0.50674(8)
F4 F 0.69685(17) -0.0821(2) 0.47841(10)
F7 F 0.62904(14) -0.02792(15) 0.36884(6)
F8 F 0.52840(11) 0.12081(17) 0.41393(7)
C3 C 0.70028(16) 0.2095(2) 0.37863(9)
C4 C 0.79201(16) 0.2419(2) 0.41284(9)
C5 C 0.80485(16) 0.1333(2) 0.46162(9)
C6 C 0.63551(16) 0.0882(2) 0.40468(8)
C7 C 0.73137(17) 0.3019(2) 0.27540(9)
C8 C 0.66267(16) 0.2730(2) 0.32120(8)
C9 C 0.54859(16) 0.3065(2) 0.30719(9)
H1 H 0.4915 0.2918 0.3334
C10 C 0.53068(17) 0.3619(2) 0.25189(9)
C11 C 0.42474(18) 0.4126(2) 0.22338(9)
C12 C 0.32564(19) 0.3994(3) 0.25074(11)
H2 H 0.3245 0.3568 0.2880
C13 C 0.2247(2) 0.4492(4) 0.22357(12)
C14 C 0.2284(2) 0.5102(3) 0.16866(12)
H4 H 0.1627 0.5445 0.1504
C15 C 0.3256(2) 0.5217(3) 0.14027(12)
H5 H 0.3255 0.5623 0.1026
C16 C 0.4258(2) 0.4738(3) 0.16662(10)
H6 H 0.4924 0.4821 0.1469
C17 C 0.85546(17) 0.2836(3) 0.27080(9)
H7 H 0.8808 0.2061 0.2962
H8 H 0.8925 0.3719 0.2826
H9 H 0.8725 0.2612 0.2307
C18 C 0.1156(3) 0.4206(8) 0.25178(19)
H10 H 0.1178 0.3270 0.2703
H11 H 0.0561 0.4229 0.2221
H12 H 0.1028 0.4936 0.2810
C19 C 0.84748(16) 0.5012(2) 0.39619(9)
C20 C 0.87291(16) 0.3584(2) 0.40901(8)
C21 C 0.98994(16) 0.3401(2) 0.41897(8)
H13 H 1.0215 0.2507 0.4286
C22 C 1.05248(16) 0.4609(2) 0.41357(9)
C23 C 1.17363(16) 0.4769(2) 0.41900(9)
C24 C 1.23027(19) 0.5848(3) 0.38967(11)
H14 H 1.1910 0.6516 0.3662
C25 C 1.34655(19) 0.5924(3) 0.39570(11)
H15 H 1.3847 0.6644 0.3759
C26 C 1.40499(19) 0.4956(3) 0.43022(12)
H16 H 1.4824 0.5030 0.4346
C27 C 1.35131(18) 0.3910(3) 0.45759(11)
H17 H 1.3921 0.3247 0.4806
C28 C 1.23631(17) 0.3780(3) 0.45273(10)
H18 H 1.2007 0.3030 0.4720
C29 C 0.73475(16) 0.5699(2) 0.38550(10)
H19 H 0.6791 0.5143 0.4050
H20 H 0.7171 0.5724 0.3438
H21 H 0.7360 0.6669 0.4008
C2? C 0.7129(3) 0.0215(4) 0.45212(15)
F5? F 0.6588(4) -0.0112(7) 0.50101(16)
F6? F 0.7659(4) -0.0964(4) 0.4328(2)
H3? H 0.1573 0.4407 0.2426
C30? C 1.4152(5) 0.6938(6) 0.3605(3)
H22? H 1.4926 0.6665 0.3644
H23? H 1.4062 0.7909 0.3749
H24? H 1.3910 0.6892 0.3197
loop_
_geom_bond_atom_site_label_1
_geom_bond_atom_site_label_2
_geom_bond_site_symmetry_1
_geom_bond_site_symmetry_2
S1 C7 1_555 1_555
S2 C19 1_555 1_555
F1 C5 1_555 1_555
F2 C5 1_555 1_555
C1 F3 1_555 1_555
F4 C1 1_555 1_555
F7 C6 1_555 1_555
F8 C6 1_555 1_555
C3 C4 1_555 1_555
C4 C5 1_555 1_555
C5 C1 1_555 1_555
C6 C1 1_555 1_555
C7 C8 1_555 1_555
C8 C3 1_555 1_555
C9 C8 1_555 1_555
H1 C9 1_555 1_555
C10 S1 1_555 1_555
C11 C10 1_555 1_555
C12 C11 1_555 1_555
H2 C12 1_555 1_555
C13 C12 1_555 1_555
C14 C13 1_555 1_555
H4 C14 1_555 1_555
C15 C14 1_555 1_555
H5 C15 1_555 1_555
C16 C11 1_555 1_555
H6 C16 1_555 1_555
C17 C7 1_555 1_555
H7 C17 1_555 1_555
H8 C17 1_555 1_555
H9 C17 1_555 1_555
C18 C13 1_555 1_555
H10 C18 1_555 1_555
H11 C18 1_555 1_555
H12 C18 1_555 1_555
C19 C20 1_555 1_555
C20 C4 1_555 1_555
C21 C20 1_555 1_555
H13 C21 1_555 1_555
C22 S2 1_555 1_555
C23 C22 1_555 1_555
C24 C23 1_555 1_555
H14 C24 1_555 1_555
C25 C24 1_555 1_555
H15 C25 1_555 1_555
C26 C25 1_555 1_555
H16 C26 1_555 1_555
C27 C26 1_555 1_555
H17 C27 1_555 1_555
C28 C23 1_555 1_555
H18 C28 1_555 1_555
C29 C19 1_555 1_555
H19 C29 1_555 1_555
H20 C29 1_555 1_555
H21 C29 1_555 1_555
C3 C6 1_555 1_555
C9 C10 1_555 1_555
C15 C16 1_555 1_555
C21 C22 1_555 1_555
C27 C28 1_555 1_555

#END
