
#######################################################################
#
#                 Cambridge Crystallographic Data Centre
#                                CCDC 
#
#######################################################################
#
# If this CIF has been generated from an entry in the Cambridge 
# Structural Database, then it will include bibliographic, chemical, 
# crystal, experimental, refinement or atomic coordinate data resulting 
# from the CCDC's data processing and validation procedures.
#
#######################################################################

data_LIBNAN
_chemical_formula_moiety         'C39 H26'
_chemical_name_systematic        
1,3,4-Triphenyl-9-(phenylethynyl)-1H-cyclopenta[b]naphthalene
_symmetry_cell_setting           triclinic
_symmetry_space_group_name_H-M   'P -1'
_symmetry_Int_Tables_number      2
_space_group_name_Hall           '-P 1'
loop_
_symmetry_equiv_pos_site_id
_symmetry_equiv_pos_as_xyz
1 x,y,z
2 -x,-y,-z
_cell_length_a                   11.398(5)
_cell_length_b                   12.638(5)
_cell_length_c                   20.547(11)
_cell_angle_alpha                107.151(12)
_cell_angle_beta                 96.768(12)
_cell_angle_gamma                103.674(8)
_cell_volume                     2691.32
_exptl_crystal_colour            colorless
_exptl_crystal_description       block
_cell_formula_units_Z            4
loop_
_atom_site_label
_atom_site_type_symbol
_atom_site_fract_x
_atom_site_fract_y
_atom_site_fract_z
C1 C 0.1928(6) 0.8458(6) 0.0169(3)
C2 C 0.2645(6) 0.8529(6) 0.0765(4)
C3 C 0.3582(6) 0.9574(6) 0.1143(3)
C4 C 0.4352(7) 0.9706(7) 0.1766(4)
H1 H 0.4240 0.9093 0.1937
C5 C 0.5250(7) 1.0696(7) 0.2123(4)
H2 H 0.5746 1.0761 0.2534
C6 C 0.5425(7) 1.1619(7) 0.1868(4)
H3 H 0.6051 1.2297 0.2108
C7 C 0.4695(6) 1.1540(7) 0.1278(4)
H4 H 0.4805 1.2175 0.1128
C8 C 0.3766(6) 1.0507(6) 0.0885(3)
C9 C 0.3000(6) 1.0416(6) 0.0251(3)
C10 C 0.2090(6) 0.9396(5) -0.0087(3)
C11 C 0.1112(6) 0.9021(6) -0.0722(3)
C12 C 0.0425(6) 0.7966(6) -0.0822(4)
H5 H -0.0270 0.7581 -0.1174
C13 C 0.0884(6) 0.7445(6) -0.0304(4)
H6 H 0.0243 0.7239 -0.0047
C14 C 0.2505(7) 0.7576(7) 0.1018(4)
C15 C 0.2511(7) 0.6854(7) 0.1278(4)
C16 C 0.2599(7) 0.5959(7) 0.1575(4)
C17 C 0.3150(10) 0.5147(7) 0.1286(4)
H7 H 0.3475 0.5165 0.0893
C18 C 0.3236(11) 0.4303(8) 0.1562(6)
H8 H 0.3586 0.3730 0.1350
C19 C 0.2797(12) 0.4314(9) 0.2158(6)
H9 H 0.2874 0.3753 0.2355
C20 C 0.2264(10) 0.5108(12) 0.2460(6)
H10 H 0.1963 0.5095 0.2860
C21 C 0.2163(8) 0.5948(9) 0.2174(5)
H11 H 0.1800 0.6511 0.2385
C22 C 0.3230(6) 1.1403(6) -0.0013(3)
C23 C 0.4297(7) 1.1711(7) -0.0245(4)
H12 H 0.4859 1.1284 -0.0246
C24 C 0.4556(8) 1.2654(8) -0.0482(5)
H13 H 0.5295 1.2877 -0.0623
C25 C 0.3696(9) 1.3240(8) -0.0500(5)
H14 H 0.3844 1.3861 -0.0665
C26 C 0.2635(8) 1.2936(7) -0.0283(4)
H15 H 0.2060 1.3344 -0.0304
C27 C 0.2391(7) 1.2019(6) -0.0029(4)
H16 H 0.1665 1.1825 0.0129
C28 C 0.0926(6) 0.9686(6) -0.1200(3)
C29 C 0.1835(7) 0.9995(6) -0.1551(4)
H17 H 0.2557 0.9780 -0.1496
C30 C 0.1675(8) 1.0629(7) -0.1987(4)
H18 H 0.2288 1.0845 -0.2223
C31 C 0.0589(8) 1.0934(7) -0.2065(4)
H19 H 0.0476 1.1361 -0.2354
C32 C -0.0310(8) 1.0615(7) -0.1725(4)
H20 H -0.1036 1.0822 -0.1781
C33 C -0.0145(6) 0.9982(6) -0.1295(4)
H21 H -0.0768 0.9755 -0.1068
C34 C 0.1260(6) 0.6400(6) -0.0667(4)
C35 C 0.2313(7) 0.6510(7) -0.0935(4)
H22 H 0.2830 0.7242 -0.0862
C36 C 0.2618(9) 0.5535(8) -0.1315(5)
H23 H 0.3341 0.5621 -0.1487
C37 C 0.1856(9) 0.4451(7) -0.1435(5)
H24 H 0.2048 0.3800 -0.1696
C38 C 0.0811(9) 0.4339(7) -0.1167(5)
H25 H 0.0295 0.3605 -0.1244
C39 C 0.0506(8) 0.5299(7) -0.0783(5)
H26 H -0.0207 0.5206 -0.0602
C40 C 0.6975(6) 0.3093(5) 0.4741(3)
C41 C 0.7307(6) 0.2481(5) 0.4162(3)
C42 C 0.7963(6) 0.3083(6) 0.3766(3)
C43 C 0.8309(6) 0.2505(6) 0.3161(3)
H27 H 0.8155 0.1707 0.3025
C44 C 0.8872(7) 0.3090(7) 0.2764(4)
H28 H 0.9111 0.2691 0.2368
C45 C 0.9081(7) 0.4260(7) 0.2949(4)
H29 H 0.9432 0.4649 0.2668
C46 C 0.8782(6) 0.4856(6) 0.3535(4)
H30 H 0.8955 0.5654 0.3655
C47 C 0.8215(6) 0.4309(6) 0.3976(3)
C48 C 0.7881(5) 0.4940(6) 0.4595(3)
C49 C 0.7278(6) 0.4322(5) 0.4971(3)
C50 C 0.6753(6) 0.4694(6) 0.5590(3)
C51 C 0.6138(6) 0.3748(6) 0.5715(4)
H31 H 0.5696 0.3776 0.6070
C52 C 0.6239(6) 0.2642(6) 0.5224(4)
H32 H 0.5417 0.2151 0.4963
C53 C 0.7040(6) 0.1259(6) 0.3945(3)
C54 C 0.6885(6) 0.0229(6) 0.3730(3)
C55 C 0.6768(6) -0.0977(6) 0.3456(4)
C56 C 0.5680(8) -0.1787(7) 0.3082(5)
H33 H 0.4977 -0.1556 0.3000
C57 C 0.5625(10) -0.2926(8) 0.2832(5)
H34 H 0.4871 -0.3460 0.2593
C58 C 0.6612(10) -0.3307(8) 0.2918(5)
H35 H 0.6558 -0.4088 0.2740
C59 C 0.7696(10) -0.2509(8) 0.3274(6)
H36 H 0.8397 -0.2752 0.3339
C60 C 0.7786(8) -0.1367(7) 0.3538(5)
H37 H 0.8545 -0.0843 0.3778
C61 C 0.8195(6) 0.6218(5) 0.4812(3)
C62 C 0.7296(7) 0.6781(6) 0.4806(4)
H38 H 0.6471 0.6351 0.4657
C63 C 0.7597(8) 0.7965(7) 0.5018(5)
H39 H 0.6980 0.8331 0.5010
C64 C 0.8799(9) 0.8602(8) 0.5239(5)
H40 H 0.9001 0.9405 0.5393
C65 C 0.9720(8) 0.8067(7) 0.5236(5)
H41 H 1.0543 0.8503 0.5378
C66 C 0.9407(7) 0.6873(6) 0.5021(4)
H42 H 1.0027 0.6508 0.5019
C67 C 0.6882(6) 0.5891(6) 0.6045(3)
C68 C 0.5832(7) 0.6240(7) 0.6158(4)
H43 H 0.5058 0.5731 0.5935
C69 C 0.5929(8) 0.7332(7) 0.6598(4)
H44 H 0.5227 0.7571 0.6663
C70 C 0.7069(9) 0.8057(7) 0.6936(4)
H45 H 0.7138 0.8788 0.7241
C71 C 0.8118(8) 0.7727(7) 0.6833(4)
H46 H 0.8889 0.8234 0.7064
C72 C 0.8021(7) 0.6637(6) 0.6384(4)
H47 H 0.8728 0.6410 0.6313
C73 C 0.6837(6) 0.2008(6) 0.5616(4)
C74 C 0.8058(8) 0.2390(8) 0.5903(5)
H48 H 0.8551 0.3031 0.5832
C75 C 0.8587(9) 0.1834(10) 0.6304(6)
H49 H 0.9423 0.2111 0.6505
C76 C 0.7874(11) 0.0890(9) 0.6396(5)
H50 H 0.8224 0.0502 0.6648
C77 C 0.6663(10) 0.0514(8) 0.6123(5)
H51 H 0.6172 -0.0120 0.6200
C78 C 0.6146(8) 0.1058(7) 0.5732(4)
H52 H 0.5307 0.0778 0.5540
loop_
_geom_bond_atom_site_label_1
_geom_bond_atom_site_label_2
_geom_bond_site_symmetry_1
_geom_bond_site_symmetry_2
C1 C2 1_555 1_555
C2 C3 1_555 1_555
C3 C4 1_555 1_555
C4 H1 1_555 1_555
C5 C4 1_555 1_555
H2 C5 1_555 1_555
C6 C5 1_555 1_555
H3 C6 1_555 1_555
C7 C6 1_555 1_555
H4 C7 1_555 1_555
C8 C3 1_555 1_555
C9 C8 1_555 1_555
C10 C1 1_555 1_555
C11 C10 1_555 1_555
C12 C11 1_555 1_555
H5 C12 1_555 1_555
C13 C1 1_555 1_555
H6 C13 1_555 1_555
C14 C2 1_555 1_555
C15 C14 1_555 1_555
C16 C15 1_555 1_555
C17 C16 1_555 1_555
H7 C17 1_555 1_555
C18 C17 1_555 1_555
H8 C18 1_555 1_555
C19 C18 1_555 1_555
H9 C19 1_555 1_555
C20 C19 1_555 1_555
H10 C20 1_555 1_555
C21 C16 1_555 1_555
H11 C21 1_555 1_555
C22 C9 1_555 1_555
C23 C22 1_555 1_555
H12 C23 1_555 1_555
C24 C23 1_555 1_555
H13 C24 1_555 1_555
C25 C24 1_555 1_555
H14 C25 1_555 1_555
C26 C25 1_555 1_555
H15 C26 1_555 1_555
C27 C22 1_555 1_555
H16 C27 1_555 1_555
C28 C11 1_555 1_555
C29 C28 1_555 1_555
H17 C29 1_555 1_555
C30 C29 1_555 1_555
H18 C30 1_555 1_555
C31 C30 1_555 1_555
H19 C31 1_555 1_555
C32 C31 1_555 1_555
H20 C32 1_555 1_555
C33 C28 1_555 1_555
H21 C33 1_555 1_555
C34 C13 1_555 1_555
C35 C34 1_555 1_555
H22 C35 1_555 1_555
C36 C35 1_555 1_555
H23 C36 1_555 1_555
C37 C36 1_555 1_555
H24 C37 1_555 1_555
C38 C37 1_555 1_555
H25 C38 1_555 1_555
C39 C34 1_555 1_555
H26 C39 1_555 1_555
C40 C41 1_555 1_555
C41 C42 1_555 1_555
C42 C43 1_555 1_555
C43 H27 1_555 1_555
C44 C43 1_555 1_555
H28 C44 1_555 1_555
C45 C44 1_555 1_555
H29 C45 1_555 1_555
C46 C45 1_555 1_555
H30 C46 1_555 1_555
C47 C42 1_555 1_555
C48 C47 1_555 1_555
C49 C40 1_555 1_555
C50 C49 1_555 1_555
C51 C50 1_555 1_555
H31 C51 1_555 1_555
C52 C40 1_555 1_555
H32 C52 1_555 1_555
C53 C41 1_555 1_555
C54 C53 1_555 1_555
C55 C54 1_555 1_555
C56 C55 1_555 1_555
H33 C56 1_555 1_555
C57 C56 1_555 1_555
H34 C57 1_555 1_555
C58 C57 1_555 1_555
H35 C58 1_555 1_555
C59 C58 1_555 1_555
H36 C59 1_555 1_555
C60 C55 1_555 1_555
H37 C60 1_555 1_555
C61 C48 1_555 1_555
C62 C61 1_555 1_555
H38 C62 1_555 1_555
C63 C62 1_555 1_555
H39 C63 1_555 1_555
C64 C63 1_555 1_555
H40 C64 1_555 1_555
C65 C64 1_555 1_555
H41 C65 1_555 1_555
C66 C61 1_555 1_555
H42 C66 1_555 1_555
C67 C50 1_555 1_555
C68 C67 1_555 1_555
H43 C68 1_555 1_555
C69 C68 1_555 1_555
H44 C69 1_555 1_555
C70 C69 1_555 1_555
H45 C70 1_555 1_555
C71 C70 1_555 1_555
H46 C71 1_555 1_555
C72 C67 1_555 1_555
H47 C72 1_555 1_555
C73 C52 1_555 1_555
C74 C73 1_555 1_555
H48 C74 1_555 1_555
C75 C74 1_555 1_555
H49 C75 1_555 1_555
C76 C75 1_555 1_555
H50 C76 1_555 1_555
C77 C76 1_555 1_555
H51 C77 1_555 1_555
C78 C73 1_555 1_555
H52 C78 1_555 1_555
C7 C8 1_555 1_555
C9 C10 1_555 1_555
C12 C13 1_555 1_555
C20 C21 1_555 1_555
C26 C27 1_555 1_555
C32 C33 1_555 1_555
C38 C39 1_555 1_555
C46 C47 1_555 1_555
C48 C49 1_555 1_555
C51 C52 1_555 1_555
C59 C60 1_555 1_555
C65 C66 1_555 1_555
C71 C72 1_555 1_555
C77 C78 1_555 1_555

#END
