
#######################################################################
#
#                 Cambridge Crystallographic Data Centre
#                                CCDC 
#
#######################################################################
#
# If this CIF has been generated from an entry in the Cambridge 
# Structural Database, then it will include bibliographic, chemical, 
# crystal, experimental, refinement or atomic coordinate data resulting 
# from the CCDC's data processing and validation procedures.
#
#######################################################################

data_LIBPER
_chemical_formula_moiety         'C36 H38 N4 O4 2+,2(Cl1 1-)'
_chemical_name_systematic        
"N,N'-bis(2,6-Diformyl-4'-methylphenol)-bis(2,6-bis(aminomethyl)-4-methylphenol) dihydrochloride"
_symmetry_cell_setting           triclinic
_symmetry_space_group_name_H-M   'P -1'
_symmetry_Int_Tables_number      2
_space_group_name_Hall           '-P 1'
loop_
_symmetry_equiv_pos_site_id
_symmetry_equiv_pos_as_xyz
1 x,y,z
2 -x,-y,-z
_cell_length_a                   8.809(1)
_cell_length_b                   9.268(2)
_cell_length_c                   10.286(3)
_cell_angle_alpha                89.93(2)
_cell_angle_beta                 84.70(2)
_cell_angle_gamma                72.18(2)
_cell_volume                     795.736
_exptl_crystal_colour            colorless
_cell_formula_units_Z            1
loop_
_atom_site_label
_atom_site_type_symbol
_atom_site_fract_x
_atom_site_fract_y
_atom_site_fract_z
Cl1 Cl 0.2300(4) 0.0505(3) 0.0403(3)
O1 O 0.2114(8) 0.1990(6) 0.5637(6)
O2 O 0.1560(8) 0.3573(7) 0.1738(7)
N1 N 0.0139(9) 0.2404(9) 0.7833(8)
N2 N 0.389(1) 0.1343(9) 0.3369(8)
C1 C 0.027(1) 0.0997(9) 0.7673(9)
C2 C 0.170(1) -0.4010(9) 0.542(1)
C3 C 0.369(1) -0.0004(9) 0.3480(8)
C4 C 0.484(1) 0.1732(9) 0.2256(9)
C5 C 0.645(1) 0.644(1) 0.1650(9)
C6 C -0.079(1) 0.337(1) 0.8941(9)
C7 C 0.202(1) 0.064(1) 0.5600(8)
C8 C 0.112(1) 0.0076(9) 0.6604(8)
C9 C 0.104(1) -0.1412(9) 0.6519(8)
C10 C 0.183(1) -0.243(1) 0.5496(9)
C11 C 0.271(1) -0.190(1) 0.4533(9)
C12 C 0.282(1) -0.042(1) 0.4562(9)
C13 C 0.278(1) 0.4202(9) 0.1712(9)
C14 C 0.432(1) 0.3402(9) 0.1992(8)
C15 C 0.548(1) 0.4135(9) 0.1966(8)
C16 C 0.516(1) 0.567(1) 0.1640(9)
C17 C 0.366(1) 0.641(1) 0.1359(8)
C18 C -0.243(1) 0.4259(9) 0.8599(8)
H1 H 0.20(1) 0.25(1) 0.136(9)
H2 H 0.08(1) 0.270(9) 0.717(8)
H3 H 0.32(1) 0.19(1) 0.40(1)
H4 H -0.032(1) 0.0484(9) 0.8421(9)
H5 H 0.095(1) -0.4257(9) 0.622(1)
H6 H 0.293(1) -0.4644(9) 0.551(1)
H7 H 0.134(1) -0.4326(9) 0.451(1)
H8 H 0.424(1) -0.0841(9) 0.2707(8)
H9 H 0.608(1) 0.1395(9) 0.2461(9)
H10 H 0.473(1) 0.1120(9) 0.1396(9)
H11 H 0.761(1) 0.566(1) 0.1313(9)
H12 H 0.650(1) 0.688(1) 0.2611(9)
H13 H 0.614(1) 0.736(1) 0.083(9)
H14 H -0.091(1) 0.267(1) 0.9756(9)
H15 H -0.017(1) 0.415(1) 0.9212(9)
H16 H 0.033(1) -0.1787(9) 0.7284(8)
H17 H 0.334(1) -0.266(1) 0.3729(9)
H18 H 0.667(1) 0.3509(9) 0.2202(8)
H19 H 0.338(1) 0.758(1) 0.1093(8)
C18A C 0.243(1) 0.5741(9) 0.1401(8)
C13A C -0.278(1) 0.5798(9) 0.8288(9)
C17A C -0.366(1) 0.359(1) 0.8641(8)
C6A C 0.079(1) 0.663(1) 0.1059(9)
O2A O -0.1560(8) 0.6427(7) 0.8262(7)
C14A C -0.432(1) 0.6598(9) 0.8008(8)
C16A C -0.516(1) 0.433(1) 0.8360(9)
H19A H -0.338(1) 0.242(1) 0.8907(8)
N1A N -0.0139(9) 0.7596(9) 0.2167(8)
H14A H 0.091(1) 0.733(1) 0.0244(9)
H15A H 0.017(1) 0.585(1) 0.0788(9)
H1A H -0.20(1) 0.75(1) 0.864(9)
C4A C -0.484(1) 0.8268(9) 0.7744(9)
C15A C -0.548(1) 0.5865(9) 0.8034(8)
C5A C -0.645(1) 0.356(1) 0.8350(9)
C1A C -0.027(1) 0.9003(9) 0.2327(9)
H2A H -0.08(1) 0.730(9) 0.283(8)
N2A N -0.389(1) 0.8657(9) 0.6631(8)
H9A H -0.608(1) 0.8605(9) 0.7539(9)
H10A H -0.473(1) 0.8880(9) 0.8604(9)
H18A H -0.667(1) 0.6491(9) 0.7798(8)
H11A H -0.761(1) 0.434(1) 0.8687(9)
H12A H -0.650(1) 0.312(1) 0.7389(9)
H13A H -0.614(1) 0.264(1) 0.917(9)
C8A C -0.112(1) 0.9924(9) 0.3396(8)
H4A H 0.032(1) 0.9516(9) 0.1579(9)
C3A C -0.369(1) 1.0004(9) 0.6520(8)
H3A H -0.32(1) 0.81(1) 0.60(1)
C7A C -0.202(1) 0.936(1) 0.4400(8)
C9A C -0.104(1) 1.1412(9) 0.3481(8)
C12A C -0.282(1) 1.042(1) 0.5438(9)
H8A H -0.424(1) 1.0841(9) 0.7293(8)
O1A O -0.2114(8) 0.8010(6) 0.4363(6)
C10A C -0.183(1) 1.243(1) 0.4504(9)
H16A H -0.033(1) 1.1787(9) 0.2716(8)
C11A C -0.271(1) 1.190(1) 0.5467(9)
C2A C -0.170(1) 1.4010(9) 0.458(1)
H17A H -0.334(1) 1.266(1) 0.6271(9)
H5A H -0.095(1) 1.4257(9) 0.378(1)
H6A H -0.293(1) 1.4644(9) 0.449(1)
H7A H -0.134(1) 1.4326(9) 0.549(1)
loop_
_geom_bond_atom_site_label_1
_geom_bond_atom_site_label_2
_geom_bond_site_symmetry_1
_geom_bond_site_symmetry_2
O1 C7 1_555 1_555
O2 C13 1_555 1_555
N1 C1 1_555 1_555
N2 C3 1_555 1_555
C1 C8 1_555 1_555
C2 C10 1_555 1_555
C3 C12 1_555 1_555
C4 N2 1_555 1_555
C5 C16 1_555 1_555
C6 N1 1_555 1_555
C7 C8 1_555 1_555
C8 C9 1_555 1_555
C9 C10 1_555 1_555
C10 C11 1_555 1_555
C11 C12 1_555 1_555
C12 C7 1_555 1_555
C13 C14 1_555 1_555
C14 C4 1_555 1_555
C15 C14 1_555 1_555
C16 C15 1_555 1_555
C17 C16 1_555 1_555
C18 C6 1_555 1_555
H1 O2 1_555 1_555
H2 N1 1_555 1_555
H3 N2 1_555 1_555
H4 C1 1_555 1_555
H5 C2 1_555 1_555
H6 C2 1_555 1_555
H7 C2 1_555 1_555
H8 C3 1_555 1_555
H9 C4 1_555 1_555
H10 C4 1_555 1_555
H11 C5 1_555 1_555
H12 C5 1_555 1_555
H13 C5 1_555 1_555
H14 C6 1_555 1_555
H15 C6 1_555 1_555
H16 C9 1_555 1_555
H17 C11 1_555 1_555
H18 C15 1_555 1_555
H19 C17 1_555 1_555
C18A C13 1_555 1_555
C13A C18 1_555 1_555
C17A C18 1_555 1_555
C6A C18A 1_555 1_555
O2A C13A 1_555 1_555
C14A C13A 1_555 1_555
C16A C17A 1_555 1_555
H19A C17A 1_555 1_555
N1A C6A 1_555 1_555
H14A C6A 1_555 1_555
H15A C6A 1_555 1_555
H1A O2A 1_555 1_555
C4A C14A 1_555 1_555
C15A C14A 1_555 1_555
C5A C16A 1_555 1_555
C1A N1A 1_555 1_555
H2A N1A 1_555 1_555
N2A C4A 1_555 1_555
H9A C4A 1_555 1_555
H10A C4A 1_555 1_555
H18A C15A 1_555 1_555
H11A C5A 1_555 1_555
H12A C5A 1_555 1_555
H13A C5A 1_555 1_555
C8A C1A 1_555 1_555
H4A C1A 1_555 1_555
C3A N2A 1_555 1_555
H3A N2A 1_555 1_555
C7A C8A 1_555 1_555
C9A C8A 1_555 1_555
C12A C3A 1_555 1_555
H8A C3A 1_555 1_555
O1A C7A 1_555 1_555
C10A C9A 1_555 1_555
H16A C9A 1_555 1_555
C11A C12A 1_555 1_555
C2A C10A 1_555 1_555
H17A C11A 1_555 1_555
H5A C2A 1_555 1_555
H6A C2A 1_555 1_555
H7A C2A 1_555 1_555
C17 C18A 1_555 1_555
C16A C15A 1_555 1_555
C7A C12A 1_555 1_555
C10A C11A 1_555 1_555

#END
