
#######################################################################
#
#                 Cambridge Crystallographic Data Centre
#                                CCDC 
#
#######################################################################
#
# If this CIF has been generated from an entry in the Cambridge 
# Structural Database, then it will include bibliographic, chemical, 
# crystal, experimental, refinement or atomic coordinate data resulting 
# from the CCDC's data processing and validation procedures.
#
#######################################################################

data_LIBRAS
_chemical_formula_moiety         'C26 H22 Br1 N3 O2 S1'
_chemical_name_systematic        
6-bromo-4-{4-methyl-1-[(4-methylphenyl)sulfonyl]-2,5-dihydro-1H-pyrrol-3-yl}-2-phenylquinazoline
_symmetry_cell_setting           monoclinic
_symmetry_space_group_name_H-M   'P 21/n'
_symmetry_Int_Tables_number      14
_space_group_name_Hall           '-P 2yn'
loop_
_symmetry_equiv_pos_site_id
_symmetry_equiv_pos_as_xyz
1 x,y,z
2 1/2-x,1/2+y,1/2-z
3 -x,-y,-z
4 1/2+x,1/2-y,1/2+z
_cell_length_a                   9.5957(5)
_cell_length_b                   11.9090(7)
_cell_length_c                   20.9265(8)
_cell_angle_alpha                90
_cell_angle_beta                 90.824(4)
_cell_angle_gamma                90
_cell_volume                     2391.13
_exptl_crystal_colour            colorless
_exptl_crystal_description       needle
_cell_formula_units_Z            4
loop_
_atom_site_label
_atom_site_type_symbol
_atom_site_fract_x
_atom_site_fract_y
_atom_site_fract_z
Br1 Br 0.90911(4) 0.42455(4) 0.79234(2)
S1 S 0.90783(10) 0.47896(11) 0.39831(4)
N1 N 0.4690(3) 0.1564(2) 0.65191(12)
N2 N 0.5273(3) 0.2457(2) 0.55340(12)
O1 O 1.0007(3) 0.3861(3) 0.39466(12)
N3 N 0.8312(3) 0.4696(3) 0.46607(13)
O2 O 0.9576(3) 0.5929(3) 0.39331(13)
C1 C 0.6449(3) 0.3029(3) 0.65006(14)
C2 C 0.6874(3) 0.3980(3) 0.54307(14)
C3 C 0.6738(3) 0.5078(3) 0.54496(14)
C4 C 0.6166(3) 0.3125(3) 0.58302(15)
C5 C 0.5646(3) 0.2220(3) 0.68257(16)
C6 C 0.4563(3) 0.1692(3) 0.58933(15)
C7 C 0.7480(3) 0.3646(3) 0.68335(15)
H1 H 0.801886 0.417302 0.662149
C8 C 0.7806(4) 0.4581(3) 0.33713(16)
C9 C 0.5855(4) 0.2087(3) 0.74924(16)
H2 H 0.530882 0.158056 0.771591
C10 C 0.3588(4) 0.0926(3) 0.55501(17)
C11 C 0.7676(4) 0.3459(3) 0.74708(15)
C12 C 0.6846(4) 0.2692(3) 0.78083(16)
H3 H 0.697630 0.260094 0.824648
C13 C 0.7546(4) 0.5644(3) 0.49342(16)
H4 H 0.693289 0.599136 0.461927
H5 H 0.817596 0.620621 0.510898
C14 C 0.5805(4) 0.4256(4) 0.24100(18)
C15 C 0.7818(4) 0.3610(3) 0.49062(16)
H6 H 0.858285 0.315683 0.507023
H7 H 0.731294 0.319097 0.457969
C16 C 0.5892(4) 0.5776(3) 0.58913(18)
H8 H 0.532702 0.529568 0.614944
H9 H 0.530353 0.627150 0.564659
H10 H 0.650274 0.620974 0.616209
C17 C 0.7184(4) 0.5496(4) 0.30818(18)
H11 H 0.741885 0.622218 0.320711
C18 C 0.2782(4) 0.0165(3) 0.58841(19)
H12 H 0.285141 0.013448 0.632749
C19 C 0.7436(4) 0.3509(4) 0.31879(18)
H13 H 0.785452 0.289438 0.338606
C20 C 0.6446(4) 0.3342(4) 0.27118(19)
H14 H 0.620511 0.261554 0.259110
C21 C 0.6196(4) 0.5313(4) 0.2598(2)
H15 H 0.578967 0.592897 0.239525
C22 C 0.3457(5) 0.0953(4) 0.48892(19)
H16 H 0.398501 0.145685 0.465494
C23 C 0.1878(5) -0.0547(4) 0.5563(2)
H17 H 0.135089 -0.106056 0.579087
C24 C 0.1754(5) -0.0501(4) 0.4915(2)
H18 H 0.112929 -0.097173 0.470254
C25 C 0.2544(5) 0.0235(4) 0.4578(2)
H19 H 0.246812 0.025323 0.413461
C26 C 0.4723(5) 0.4074(5) 0.1885(2)
H20 H 0.487203 0.335592 0.168847
H21 H 0.480499 0.465463 0.156961
H22 H 0.380846 0.409516 0.206411
loop_
_geom_bond_atom_site_label_1
_geom_bond_atom_site_label_2
_geom_bond_site_symmetry_1
_geom_bond_site_symmetry_2
Br1 C11 1_555 1_555
S1 O1 1_555 1_555
N1 C5 1_555 1_555
N2 C4 1_555 1_555
N3 S1 1_555 1_555
O2 S1 1_555 1_555
C1 C4 1_555 1_555
C2 C3 1_555 1_555
C3 C13 1_555 1_555
C4 C2 1_555 1_555
C5 C1 1_555 1_555
C6 N1 1_555 1_555
C7 C1 1_555 1_555
H1 C7 1_555 1_555
C8 S1 1_555 1_555
C9 C5 1_555 1_555
H2 C9 1_555 1_555
C10 C6 1_555 1_555
C11 C7 1_555 1_555
C12 C9 1_555 1_555
H3 C12 1_555 1_555
C13 N3 1_555 1_555
H4 C13 1_555 1_555
H5 C13 1_555 1_555
C14 C20 1_555 1_555
C15 N3 1_555 1_555
H6 C15 1_555 1_555
H7 C15 1_555 1_555
C16 C3 1_555 1_555
H8 C16 1_555 1_555
H9 C16 1_555 1_555
H10 C16 1_555 1_555
C17 C8 1_555 1_555
H11 C17 1_555 1_555
C18 C10 1_555 1_555
H12 C18 1_555 1_555
C19 C8 1_555 1_555
H13 C19 1_555 1_555
C20 C19 1_555 1_555
H14 C20 1_555 1_555
C21 C14 1_555 1_555
H15 C21 1_555 1_555
C22 C10 1_555 1_555
H16 C22 1_555 1_555
C23 C18 1_555 1_555
H17 C23 1_555 1_555
C24 C23 1_555 1_555
H18 C24 1_555 1_555
C25 C22 1_555 1_555
H19 C25 1_555 1_555
C26 C14 1_555 1_555
H20 C26 1_555 1_555
H21 C26 1_555 1_555
H22 C26 1_555 1_555
N2 C6 1_555 1_555
C2 C15 1_555 1_555
C11 C12 1_555 1_555
C17 C21 1_555 1_555
C24 C25 1_555 1_555

#END
