
#######################################################################
#
#                 Cambridge Crystallographic Data Centre
#                                CCDC 
#
#######################################################################
#
# If this CIF has been generated from an entry in the Cambridge 
# Structural Database, then it will include bibliographic, chemical, 
# crystal, experimental, refinement or atomic coordinate data resulting 
# from the CCDC's data processing and validation procedures.
#
#######################################################################

data_LIBRIA
_chemical_formula_moiety         'C27 H24 Cl1 N3 O3 S1'
_chemical_name_systematic        
6-chloro-2-(4-methoxyphenyl)-4-{4-methyl-1-[(4-methylphenyl)sulfonyl]-2,5-dihydro-1H-pyrrol-3-yl}quinazoline
_symmetry_cell_setting           monoclinic
_symmetry_space_group_name_H-M   'P 21/c'
_symmetry_Int_Tables_number      14
_space_group_name_Hall           '-P 2ybc'
loop_
_symmetry_equiv_pos_site_id
_symmetry_equiv_pos_as_xyz
1 x,y,z
2 -x,1/2+y,1/2-z
3 -x,-y,-z
4 x,1/2-y,1/2+z
_cell_length_a                   12.7851(2)
_cell_length_b                   9.79700(10)
_cell_length_c                   20.4581(3)
_cell_angle_alpha                90
_cell_angle_beta                 106.718(2)
_cell_angle_gamma                90
_cell_volume                     2454.18
_exptl_crystal_colour            colorless
_exptl_crystal_description       block
_cell_formula_units_Z            4
loop_
_atom_site_label
_atom_site_type_symbol
_atom_site_fract_x
_atom_site_fract_y
_atom_site_fract_z
S1 S 0.58839(3) 0.90065(4) 0.60463(2)
Cl1 Cl 0.22300(5) 0.92264(6) 0.21371(3)
O1 O 0.51572(11) 0.99349(12) 0.62335(6)
O2 O 0.68543(10) 0.94958(14) 0.59120(7)
N1 N 0.24038(10) 0.54483(13) 0.46937(6)
N2 N 0.07345(10) 0.51901(15) 0.37958(7)
N3 N 0.51896(10) 0.82484(14) 0.53617(6)
O3 O 0.00921(12) 0.10236(17) 0.60536(8)
C1 C 0.13874(12) 0.48932(16) 0.44055(8)
C2 C 0.27823(12) 0.63083(15) 0.43229(7)
C3 C 0.21543(12) 0.67110(15) 0.36577(7)
C4 C 0.38800(12) 0.68974(15) 0.46472(7)
C5 C 0.10938(13) 0.61378(17) 0.34251(8)
C6 C 0.47904(12) 0.67052(15) 0.44702(7)
C7 C 0.40529(12) 0.78133(17) 0.52587(8)
H1 H 0.355562 0.858389 0.516370
H2 H 0.396837 0.731963 0.565137
C8 C 0.10197(12) 0.38837(16) 0.48262(8)
C9 C 0.57300(13) 0.74663(17) 0.49377(8)
H3 H 0.627160 0.684527 0.521183
H4 H 0.607579 0.806527 0.468405
C10 C 0.62791(13) 0.77717(17) 0.66998(8)
C11 C 0.00179(13) 0.32301(18) 0.45867(9)
H5 H -0.043203 0.344269 0.415399
C12 C 0.55756(14) 0.74180(19) 0.70766(9)
H6 H 0.490036 0.784553 0.699227
C13 C 0.25057(14) 0.76670(17) 0.32527(8)
H7 H 0.320566 0.803293 0.339854
C14 C 0.72930(13) 0.71429(19) 0.68316(9)
H8 H 0.776763 0.737442 0.657974
C15 C 0.18007(15) 0.80487(19) 0.26411(9)
C16 C -0.03286(14) 0.22673(19) 0.49773(9)
H9 H -0.099811 0.183228 0.480506
C17 C 0.68893(15) 0.57917(18) 0.77201(9)
C18 C 0.75892(15) 0.6168(2) 0.73419(9)
H10 H 0.827140 0.575559 0.743365
C19 C 0.03935(14) 0.6574(2) 0.27882(9)
H11 H -0.030642 0.621180 0.262849
C20 C 0.16571(14) 0.3581(2) 0.54872(9)
H12 H 0.232394 0.402038 0.566316
C21 C 0.07407(16) 0.7519(2) 0.24093(9)
H13 H 0.027316 0.781399 0.199598
C22 C 0.58783(15) 0.6431(2) 0.75771(9)
H14 H 0.539724 0.618905 0.782287
C23 C 0.03311(14) 0.19607(19) 0.56252(10)
C24 C 0.49695(16) 0.5854(2) 0.39094(10)
H15 H 0.429672 0.541941 0.366678
H16 H 0.551016 0.517033 0.409819
H17 H 0.521705 0.642211 0.360157
C25 C 0.13166(16) 0.2648(2) 0.58812(10)
H18 H 0.174766 0.247290 0.632345
C26 C -0.09139(17) 0.0315(2) 0.58391(14)
H19 H -0.093965 -0.021159 0.543911
H20 H -0.150468 0.095950 0.573543
H21 H -0.097951 -0.028205 0.619712
C27 C 0.72228(19) 0.4719(2) 0.82663(12)
H22 H 0.694502 0.384744 0.808025
H23 H 0.693128 0.494363 0.863595
H24 H 0.800517 0.467953 0.843143
loop_
_geom_bond_atom_site_label_1
_geom_bond_atom_site_label_2
_geom_bond_site_symmetry_1
_geom_bond_site_symmetry_2
S1 O1 1_555 1_555
Cl1 C15 1_555 1_555
O2 S1 1_555 1_555
N1 C1 1_555 1_555
N2 C1 1_555 1_555
N3 S1 1_555 1_555
O3 C23 1_555 1_555
C1 C8 1_555 1_555
C2 N1 1_555 1_555
C3 C2 1_555 1_555
C4 C2 1_555 1_555
C5 N2 1_555 1_555
C6 C4 1_555 1_555
C7 N3 1_555 1_555
H1 C7 1_555 1_555
H2 C7 1_555 1_555
C8 C11 1_555 1_555
C9 N3 1_555 1_555
H3 C9 1_555 1_555
H4 C9 1_555 1_555
C10 S1 1_555 1_555
C11 H5 1_555 1_555
C12 C10 1_555 1_555
H6 C12 1_555 1_555
C13 C3 1_555 1_555
H7 C13 1_555 1_555
C14 C10 1_555 1_555
H8 C14 1_555 1_555
C15 C13 1_555 1_555
C16 C11 1_555 1_555
H9 C16 1_555 1_555
C17 C18 1_555 1_555
C18 C14 1_555 1_555
H10 C18 1_555 1_555
C19 C5 1_555 1_555
H11 C19 1_555 1_555
C20 C8 1_555 1_555
H12 C20 1_555 1_555
C21 C15 1_555 1_555
H13 C21 1_555 1_555
C22 C12 1_555 1_555
H14 C22 1_555 1_555
C23 C16 1_555 1_555
C24 C6 1_555 1_555
H15 C24 1_555 1_555
H16 C24 1_555 1_555
H17 C24 1_555 1_555
C25 C20 1_555 1_555
H18 C25 1_555 1_555
C26 O3 1_555 1_555
H19 C26 1_555 1_555
H20 C26 1_555 1_555
H21 C26 1_555 1_555
C27 C17 1_555 1_555
H22 C27 1_555 1_555
H23 C27 1_555 1_555
H24 C27 1_555 1_555
C3 C5 1_555 1_555
C4 C7 1_555 1_555
C6 C9 1_555 1_555
C17 C22 1_555 1_555
C19 C21 1_555 1_555
C23 C25 1_555 1_555

#END
