
#######################################################################
#
#                 Cambridge Crystallographic Data Centre
#                                CCDC 
#
#######################################################################
#
# If this CIF has been generated from an entry in the Cambridge 
# Structural Database, then it will include bibliographic, chemical, 
# crystal, experimental, refinement or atomic coordinate data resulting 
# from the CCDC's data processing and validation procedures.
#
#######################################################################

data_LIBROG
_chemical_formula_moiety         'C28 H27 N3 O2 S1'
_chemical_name_systematic        
6-ethyl-4-{4-methyl-1-[(4-methylphenyl)sulfonyl]-2,5-dihydro-1H-pyrrol-3-yl}-2-phenylquinazoline
_symmetry_cell_setting           triclinic
_symmetry_space_group_name_H-M   'P -1'
_symmetry_Int_Tables_number      2
_space_group_name_Hall           '-P 1'
loop_
_symmetry_equiv_pos_site_id
_symmetry_equiv_pos_as_xyz
1 x,y,z
2 -x,-y,-z
_cell_length_a                   13.3114(4)
_cell_length_b                   14.4189(5)
_cell_length_c                   14.4401(5)
_cell_angle_alpha                81.143(3)
_cell_angle_beta                 86.141(2)
_cell_angle_gamma                64.187(3)
_cell_volume                     2465.27
_cell_formula_units_Z            4
loop_
_atom_site_label
_atom_site_type_symbol
_atom_site_fract_x
_atom_site_fract_y
_atom_site_fract_z
S1 S 0.27245(4) 1.03802(4) 0.69589(4)
O1 O 0.26661(13) 1.01268(13) 0.79478(11)
N1 N 0.35201(12) 0.64046(12) 0.64556(10)
O2 O 0.30355(13) 1.11936(12) 0.65809(14)
N2 N 0.36262(12) 0.93335(12) 0.65646(12)
N3 N 0.45994(13) 0.45958(12) 0.63620(11)
C1 C 0.41782(13) 0.77098(13) 0.61043(12)
C2 C 0.64355(14) 0.59364(15) 0.58102(13)
H1 H 0.640187 0.659975 0.576514
C3 C 0.54567(14) 0.57941(14) 0.60330(12)
C4 C 0.35514(14) 0.83384(14) 0.68674(13)
H2 H 0.278184 0.843664 0.689951
H3 H 0.390270 0.801230 0.747284
C5 C 0.43860(13) 0.66037(14) 0.61924(11)
C6 C 0.36675(15) 0.54010(15) 0.65254(12)
C7 C 0.43988(14) 0.82931(15) 0.53850(14)
C8 C 0.55059(15) 0.47863(14) 0.61208(12)
C9 C 0.26683(17) 0.52094(17) 0.68070(13)
C10 C 0.07653(16) 1.02113(17) 0.69315(17)
H4 H 0.099085 0.978160 0.750115
C11 C 0.14187(15) 1.06699(15) 0.64782(15)
C12 C 0.74322(15) 0.51186(16) 0.56594(13)
C13 C 0.16208(18) 0.60351(19) 0.68312(15)
H5 H 0.154212 0.671365 0.667566
C14 C -0.02340(17) 1.04033(19) 0.65214(19)
H6 H -0.067769 1.009742 0.682161
C15 C 0.10909(19) 1.12981(17) 0.56277(18)
H7 H 0.153962 1.159421 0.531942
C16 C 0.74571(17) 0.41192(17) 0.57295(15)
H8 H 0.812538 0.355897 0.561783
C17 C 0.39989(17) 0.93849(16) 0.55860(16)
H9 H 0.459746 0.960265 0.551337
H10 H 0.338806 0.986329 0.517417
C18 C 0.84954(16) 0.52425(19) 0.54107(18)
H11 H 0.904891 0.481124 0.588748
H12 H 0.877346 0.497542 0.482256
C19 C -0.05825(17) 1.10445(18) 0.5670(2)
C20 C 0.2771(2) 0.4200(2) 0.70410(18)
H13 H 0.346615 0.363739 0.702465
C21 C 0.65366(17) 0.39511(16) 0.59546(15)
H14 H 0.658535 0.328239 0.599945
C22 C 0.0686(2) 0.5856(2) 0.70863(19)
H15 H -0.001477 0.641363 0.709432
C23 C 0.0085(2) 1.14836(19) 0.5237(2)
H16 H -0.014120 1.191545 0.466842
C24 C 0.48838(19) 0.8027(2) 0.44441(16)
H17 H 0.505670 0.731341 0.440955
H18 H 0.555279 0.812711 0.435385
H19 H 0.435335 0.846890 0.396500
C25 C 0.8402(2) 0.6327(2) 0.5318(3)
H20 H 0.785356 0.676787 0.485087
H21 H 0.911071 0.632248 0.513587
H22 H 0.818037 0.658675 0.590851
C26 C 0.0802(2) 0.4855(3) 0.7326(2)
H23 H 0.018071 0.473436 0.750705
C27 C -0.1674(2) 1.1241(2) 0.5246(2)
H24 H -0.153343 1.080411 0.476849
H25 H -0.204673 1.195752 0.497520
H26 H -0.213711 1.108689 0.572480
C28 C 0.1833(3) 0.4034(2) 0.7299(2)
H27 H 0.190523 0.335776 0.745475
S2 S 0.74940(4) 0.86200(4) 0.73085(4)
O3 O 0.69568(16) 0.88723(14) 0.64232(11)
O4 O 0.86248(14) 0.84678(15) 0.73663(15)
N4 N 0.74692(14) 0.75360(14) 0.77964(12)
N5 N 0.47880(15) 0.66963(14) 0.88071(11)
N6 N 0.41787(19) 0.53580(17) 0.88541(13)
C29 C 0.66444(18) 0.65025(15) 0.85283(14)
C30 C 0.58262(19) 0.60430(17) 0.86617(13)
C31 C 0.66676(17) 0.95707(16) 0.80131(15)
C32 C 0.75459(18) 0.62691(17) 0.90226(15)
C33 C 0.64259(18) 0.74149(17) 0.77786(14)
H28 H 0.631011 0.726471 0.717304
H29 H 0.578474 0.803146 0.793043
C34 C 0.6134(2) 0.49827(17) 0.85811(14)
C35 C 0.3991(2) 0.63231(19) 0.88993(13)
C36 C 0.80824(18) 0.69812(18) 0.86692(16)
H30 H 0.798760 0.745747 0.911003
H31 H 0.887193 0.659147 0.855044
C37 C 0.55419(18) 1.01443(17) 0.78197(16)
H32 H 0.523516 1.006568 0.729375
C38 C 0.5241(2) 0.46864(19) 0.86896(14)
C39 C 0.5313(2) 1.09458(19) 0.92140(18)
C40 C 0.2835(2) 0.7091(2) 0.90324(14)
C41 C 0.7122(2) 0.9687(2) 0.88033(19)
H33 H 0.788143 0.931001 0.892833
C42 C 0.2609(2) 0.8043(2) 0.92934(18)
H34 H 0.319429 0.820284 0.939725
C43 C 0.4877(2) 1.08357(19) 0.84163(19)
H35 H 0.412356 1.123373 0.827903
C44 C 0.6444(2) 1.0359(2) 0.9396(2)
H36 H 0.674736 1.042421 0.993078
C45 C 0.7220(2) 0.42617(19) 0.83777(16)
H37 H 0.779342 0.447079 0.829965
C46 C 0.1941(2) 0.6887(3) 0.88547(19)
H38 H 0.207155 0.625533 0.866818
C47 C 0.7444(3) 0.3254(2) 0.82929(18)
C48 C 0.1514(2) 0.8768(3) 0.9403(2)
H39 H 0.137058 0.940169 0.959198
C49 C 0.7999(3) 0.5479(2) 0.9870(2)
H40 H 0.750707 0.515333 1.004753
H41 H 0.805566 0.581373 1.037670
H42 H 0.872403 0.496139 0.973188
C50 C 0.6544(4) 0.2968(2) 0.8407(2)
H43 H 0.668386 0.228863 0.834911
C51 C 0.0645(3) 0.8547(4) 0.9232(3)
H44 H -0.008763 0.903025 0.930501
C52 C 0.5491(3) 0.3644(2) 0.85961(19)
H45 H 0.492650 0.342353 0.866546
C53 C 0.4567(3) 1.1671(2) 0.9874(2)
H46 H 0.387732 1.214095 0.956449
H47 H 0.492906 1.205998 1.006226
H48 H 0.441696 1.127430 1.041733
C54 C 0.0861(3) 0.7623(3) 0.8955(3)
H49 H 0.026947 0.748120 0.883026
C55 C 0.8594(4) 0.2456(2) 0.8071(3)
H50 H 0.877414 0.184145 0.853297
H51 H 0.855955 0.225671 0.746627
C56 C 0.9526(4) 0.2760(3) 0.8045(4)
H52 H 0.937624 0.335514 0.757788
H53 H 1.020677 0.219287 0.789353
H54 H 0.959776 0.293023 0.864681
loop_
_geom_bond_atom_site_label_1
_geom_bond_atom_site_label_2
_geom_bond_site_symmetry_1
_geom_bond_site_symmetry_2
S1 O1 1_555 1_555
N1 C5 1_555 1_555
O2 S1 1_555 1_555
N2 S1 1_555 1_555
N3 C6 1_555 1_555
C1 C4 1_555 1_555
C2 H1 1_555 1_555
C3 C2 1_555 1_555
C4 N2 1_555 1_555
H2 C4 1_555 1_555
H3 C4 1_555 1_555
C5 C1 1_555 1_555
C6 N1 1_555 1_555
C7 C1 1_555 1_555
C8 N3 1_555 1_555
C9 C6 1_555 1_555
C10 H4 1_555 1_555
C11 S1 1_555 1_555
C12 C2 1_555 1_555
C13 C9 1_555 1_555
H5 C13 1_555 1_555
C14 C10 1_555 1_555
H6 C14 1_555 1_555
C15 C11 1_555 1_555
H7 C15 1_555 1_555
C16 C12 1_555 1_555
H8 C16 1_555 1_555
C17 N2 1_555 1_555
H9 C17 1_555 1_555
H10 C17 1_555 1_555
C18 C12 1_555 1_555
H11 C18 1_555 1_555
H12 C18 1_555 1_555
C19 C14 1_555 1_555
C20 C9 1_555 1_555
H13 C20 1_555 1_555
C21 C8 1_555 1_555
H14 C21 1_555 1_555
C22 C13 1_555 1_555
H15 C22 1_555 1_555
C23 C15 1_555 1_555
H16 C23 1_555 1_555
C24 C7 1_555 1_555
H17 C24 1_555 1_555
H18 C24 1_555 1_555
H19 C24 1_555 1_555
C25 C18 1_555 1_555
H20 C25 1_555 1_555
H21 C25 1_555 1_555
H22 C25 1_555 1_555
C26 C22 1_555 1_555
H23 C26 1_555 1_555
C27 C19 1_555 1_555
H24 C27 1_555 1_555
H25 C27 1_555 1_555
H26 C27 1_555 1_555
C28 C20 1_555 1_555
H27 C28 1_555 1_555
S2 O3 1_555 1_555
O4 S2 1_555 1_555
N4 S2 1_555 1_555
N5 C30 1_555 1_555
N6 C35 1_555 1_555
C29 C30 1_555 1_555
C30 C34 1_555 1_555
C31 S2 1_555 1_555
C32 C29 1_555 1_555
C33 N4 1_555 1_555
H28 C33 1_555 1_555
H29 C33 1_555 1_555
C34 C38 1_555 1_555
C35 N5 1_555 1_555
C36 N4 1_555 1_555
H30 C36 1_555 1_555
H31 C36 1_555 1_555
C37 C31 1_555 1_555
H32 C37 1_555 1_555
C38 N6 1_555 1_555
C39 C43 1_555 1_555
C40 C35 1_555 1_555
C41 C31 1_555 1_555
H33 C41 1_555 1_555
C42 C40 1_555 1_555
H34 C42 1_555 1_555
C43 C37 1_555 1_555
H35 C43 1_555 1_555
C44 C39 1_555 1_555
H36 C44 1_555 1_555
C45 C34 1_555 1_555
H37 C45 1_555 1_555
C46 C40 1_555 1_555
H38 C46 1_555 1_555
C47 C45 1_555 1_555
C48 C42 1_555 1_555
H39 C48 1_555 1_555
C49 C32 1_555 1_555
H40 C49 1_555 1_555
H41 C49 1_555 1_555
H42 C49 1_555 1_555
C50 C47 1_555 1_555
H43 C50 1_555 1_555
C51 C48 1_555 1_555
H44 C51 1_555 1_555
C52 C38 1_555 1_555
H45 C52 1_555 1_555
C53 C39 1_555 1_555
H46 C53 1_555 1_555
H47 C53 1_555 1_555
H48 C53 1_555 1_555
C54 C46 1_555 1_555
H49 C54 1_555 1_555
C55 C47 1_555 1_555
H50 C55 1_555 1_555
H51 C55 1_555 1_555
C56 C55 1_555 1_555
H52 C56 1_555 1_555
H53 C56 1_555 1_555
H54 C56 1_555 1_555
C3 C5 1_555 1_555
C3 C8 1_555 1_555
C7 C17 1_555 1_555
C10 C11 1_555 1_555
C16 C21 1_555 1_555
C19 C23 1_555 1_555
C26 C28 1_555 1_555
C29 C33 1_555 1_555
C32 C36 1_555 1_555
C41 C44 1_555 1_555
C50 C52 1_555 1_555
C51 C54 1_555 1_555

#END
