
#######################################################################
#
#                 Cambridge Crystallographic Data Centre
#                                CCDC 
#
#######################################################################
#
# If this CIF has been generated from an entry in the Cambridge 
# Structural Database, then it will include bibliographic, chemical, 
# crystal, experimental, refinement or atomic coordinate data resulting 
# from the CCDC's data processing and validation procedures.
#
#######################################################################

data_LIBSOH
_chemical_formula_moiety         'C27 H25 N3 O3 S1'
_chemical_name_systematic        
6-methoxy-4-{4-methyl-1-[(4-methylphenyl)sulfonyl]-2,5-dihydro-1H-pyrrol-3-yl}-2-phenylquinazoline
_symmetry_cell_setting           triclinic
_symmetry_space_group_name_H-M   'P -1'
_symmetry_Int_Tables_number      2
_space_group_name_Hall           '-P 1'
loop_
_symmetry_equiv_pos_site_id
_symmetry_equiv_pos_as_xyz
1 x,y,z
2 -x,-y,-z
_cell_length_a                   13.1654(3)
_cell_length_b                   14.2767(4)
_cell_length_c                   14.4716(4)
_cell_angle_alpha                81.026(2)
_cell_angle_beta                 63.804(2)
_cell_angle_gamma                84.361(2)
_cell_volume                     2409.48
_exptl_crystal_colour            colorless
_exptl_crystal_description       block
_cell_formula_units_Z            4
loop_
_atom_site_label
_atom_site_type_symbol
_atom_site_fract_x
_atom_site_fract_y
_atom_site_fract_z
S1 S 0.73110(3) 0.29947(3) -0.03603(3)
O1 O 0.74032(12) 0.19921(10) -0.01087(11)
O2 O 0.69820(12) 0.33680(12) -0.11685(10)
N1 N 0.64404(10) 0.35559(8) 0.36229(9)
O3 O 0.14553(10) 0.45613(11) 0.48342(11)
N2 N 0.63798(11) 0.34055(10) 0.06893(9)
N3 N 0.53080(12) 0.36504(9) 0.54276(10)
C1 C 0.57951(11) 0.38942(10) 0.23056(11)
C2 C 0.62755(13) 0.34918(10) 0.46302(12)
C3 C 0.44629(12) 0.39880(9) 0.42105(11)
C4 C 0.64570(13) 0.31080(11) 0.16815(11)
H1 H 0.723702 0.307121 0.158387
H2 H 0.611576 0.249962 0.200816
C5 C 0.55658(12) 0.38197(9) 0.34130(11)
C6 C 0.34768(12) 0.42161(11) 0.40525(12)
H3 H 0.351917 0.427627 0.338733
C7 C 0.43965(13) 0.38889(10) 0.52262(11)
C8 C 0.55665(12) 0.46201(11) 0.17237(12)
C9 C 0.86153(13) 0.34803(13) -0.06591(12)
C10 C 0.72873(15) 0.32244(11) 0.48269(13)
C11 C 0.24572(13) 0.43484(12) 0.48851(14)
C12 C 0.89037(16) 0.43487(14) -0.12711(13)
H4 H 0.843099 0.466101 -0.155267
C13 C 0.59805(15) 0.44024(13) 0.06302(13)
H5 H 0.537280 0.447771 0.041525
H6 H 0.659215 0.480940 0.014986
C14 C 0.33290(15) 0.40368(12) 0.60659(13)
H7 H 0.326878 0.397951 0.673709
C15 C 0.23945(15) 0.42616(13) 0.58959(14)
H8 H 0.170079 0.436026 0.645374
C16 C 0.93107(15) 0.30136(15) -0.02324(14)
H9 H 0.911306 0.243264 0.018217
C17 C 0.83672(16) 0.32403(13) 0.40146(15)
H10 H 0.845677 0.340127 0.333560
C18 C 1.03134(16) 0.34321(18) -0.04367(17)
H11 H 1.078841 0.312234 -0.015639
C19 C 0.50612(17) 0.55815(13) 0.19867(15)
H12 H 0.436658 0.567295 0.191403
H13 H 0.558169 0.605674 0.152559
H14 H 0.491063 0.563271 0.268960
C20 C 0.71766(19) 0.29702(15) 0.58363(16)
H15 H 0.646082 0.295282 0.639229
C21 C 1.06183(16) 0.43002(17) -0.10486(15)
C22 C 0.99088(17) 0.47470(17) -0.14586(15)
H16 H 1.010538 0.532907 -0.187086
C23 C 0.93112(19) 0.30201(17) 0.4202(2)
H17 H 1.003078 0.304126 0.365094
C24 C 0.14709(17) 0.4734(2) 0.38324(19)
H18 H 0.201024 0.520911 0.340721
H19 H 0.073182 0.495149 0.389678
H20 H 0.168129 0.415782 0.351763
C25 C 0.9185(2) 0.2769(2) 0.5206(2)
H21 H 0.981947 0.261669 0.533286
C26 C 0.8126(2) 0.27436(19) 0.6015(2)
H22 H 0.804288 0.257273 0.669105
C27 C 1.17034(19) 0.4745(2) -0.1246(2)
H23 H 1.155128 0.515138 -0.072698
H24 H 1.200090 0.511129 -0.192030
H25 H 1.224693 0.425550 -0.121747
S2 S 0.24689(4) 0.27652(3) 0.14401(3)
O4 O 0.30165(13) 0.36450(9) 0.12049(11)
O5 O 0.13176(12) 0.27499(12) 0.15989(12)
N4 N 0.52252(12) 0.11687(9) 0.33410(11)
N5 N 0.24995(12) 0.22479(10) 0.25135(11)
N6 N 0.58253(16) 0.11515(10) 0.46768(13)
C28 C 0.33395(14) 0.14683(11) 0.35322(12)
C29 C 0.41612(16) 0.13225(10) 0.39942(13)
C30 C 0.35630(15) 0.22256(11) 0.26232(13)
H26 H 0.368936 0.283170 0.277205
H27 H 0.420845 0.205264 0.200445
O6 O 0.1481(2) 0.19511(16) 0.75194(14)
C31 C 0.33007(14) 0.20474(12) 0.04710(13)
C32 C 0.24324(15) 0.09884(12) 0.37572(13)
C33 C 0.60238(17) 0.10861(11) 0.37097(14)
C34 C 0.18922(14) 0.13677(13) 0.30458(14)
H28 H 0.200499 0.092884 0.255766
H29 H 0.108724 0.149670 0.343385
C35 C 0.38381(17) 0.14228(11) 0.50511(13)
C36 C 0.72067(16) 0.09377(11) 0.29502(16)
C37 C 0.4738(2) 0.13250(11) 0.53471(15)
C38 C 0.44473(15) 0.22030(12) -0.00970(14)
H30 H 0.476607 0.271417 -0.000614
C39 C 0.51125(17) 0.15898(15) -0.08005(15)
H31 H 0.587860 0.170400 -0.119570
C40 C 0.46633(19) 0.08070(14) -0.09308(15)
C41 C 0.28260(17) 0.12799(15) 0.03402(15)
H32 H 0.205392 0.118118 0.071486
C42 C 0.3510(2) 0.06658(16) -0.03504(17)
H33 H 0.319391 0.014664 -0.042921
C43 C 0.2726(2) 0.16318(13) 0.57635(15)
H34 H 0.213998 0.169813 0.556218
C44 C 0.74518(19) 0.06004(16) 0.2030(2)
H35 H 0.686225 0.046702 0.188691
C45 C 0.8101(2) 0.11612(16) 0.3130(2)
H36 H 0.795516 0.140235 0.373902
C46 C 0.4481(3) 0.14433(14) 0.63846(18)
H37 H 0.505632 0.138017 0.660000
C47 C 0.2513(3) 0.17374(15) 0.67635(17)
C48 C 0.3417(3) 0.16451(16) 0.70562(19)
H38 H 0.326833 0.172642 0.772999
C49 C 0.1966(2) 0.01422(17) 0.45408(18)
H39 H 0.195049 -0.037615 0.419756
H40 H 0.121138 0.029211 0.503303
H41 H 0.243686 -0.003378 0.489600
C50 C 0.5411(3) 0.01298(19) -0.1665(2)
H42 H 0.605529 0.045563 -0.220171
H43 H 0.499472 -0.011721 -0.197105
H44 H 0.566314 -0.038310 -0.129413
C51 C 0.8564(2) 0.0456(2) 0.1313(2)
H45 H 0.871948 0.022141 0.069794
C52 C 0.9197(2) 0.1029(2) 0.2416(3)
H46 H 0.979023 0.118934 0.253969
C53 C 0.9426(2) 0.0663(2) 0.1522(3)
H47 H 1.017319 0.055509 0.105356
C54 C 0.0540(3) 0.2007(3) 0.7283(3)
H48 H 0.066329 0.248026 0.669862
H49 H -0.013124 0.217447 0.787174
H50 H 0.045090 0.140275 0.711964
loop_
_geom_bond_atom_site_label_1
_geom_bond_atom_site_label_2
_geom_bond_site_symmetry_1
_geom_bond_site_symmetry_2
S1 O1 1_555 1_555
O2 S1 1_555 1_555
N1 C2 1_555 1_555
O3 C11 1_555 1_555
N2 S1 1_555 1_555
N3 C2 1_555 1_555
C1 C4 1_555 1_555
C2 C10 1_555 1_555
C3 C5 1_555 1_555
C4 N2 1_555 1_555
H1 C4 1_555 1_555
H2 C4 1_555 1_555
C5 N1 1_555 1_555
C6 C3 1_555 1_555
H3 C6 1_555 1_555
C7 N3 1_555 1_555
C8 C1 1_555 1_555
C9 S1 1_555 1_555
C10 C17 1_555 1_555
C11 C6 1_555 1_555
C12 C9 1_555 1_555
H4 C12 1_555 1_555
C13 N2 1_555 1_555
H5 C13 1_555 1_555
H6 C13 1_555 1_555
C14 C7 1_555 1_555
H7 C14 1_555 1_555
C15 C11 1_555 1_555
H8 C15 1_555 1_555
C16 C9 1_555 1_555
H9 C16 1_555 1_555
C17 H10 1_555 1_555
C18 C16 1_555 1_555
H11 C18 1_555 1_555
C19 C8 1_555 1_555
H12 C19 1_555 1_555
H13 C19 1_555 1_555
H14 C19 1_555 1_555
C20 C10 1_555 1_555
H15 C20 1_555 1_555
C21 C18 1_555 1_555
C22 C12 1_555 1_555
H16 C22 1_555 1_555
C23 C17 1_555 1_555
H17 C23 1_555 1_555
C24 O3 1_555 1_555
H18 C24 1_555 1_555
H19 C24 1_555 1_555
H20 C24 1_555 1_555
C25 C23 1_555 1_555
H21 C25 1_555 1_555
C26 C20 1_555 1_555
H22 C26 1_555 1_555
C27 C21 1_555 1_555
H23 C27 1_555 1_555
H24 C27 1_555 1_555
H25 C27 1_555 1_555
S2 O4 1_555 1_555
O5 S2 1_555 1_555
N4 C29 1_555 1_555
N5 S2 1_555 1_555
N6 C33 1_555 1_555
C28 C29 1_555 1_555
C29 C35 1_555 1_555
C30 N5 1_555 1_555
H26 C30 1_555 1_555
H27 C30 1_555 1_555
O6 C47 1_555 1_555
C31 S2 1_555 1_555
C32 C28 1_555 1_555
C33 N4 1_555 1_555
C34 N5 1_555 1_555
H28 C34 1_555 1_555
H29 C34 1_555 1_555
C35 C37 1_555 1_555
C36 C33 1_555 1_555
C37 N6 1_555 1_555
C38 C31 1_555 1_555
H30 C38 1_555 1_555
C39 C38 1_555 1_555
H31 C39 1_555 1_555
C40 C39 1_555 1_555
C41 C31 1_555 1_555
H32 C41 1_555 1_555
C42 C40 1_555 1_555
H33 C42 1_555 1_555
C43 C35 1_555 1_555
H34 C43 1_555 1_555
C44 C36 1_555 1_555
H35 C44 1_555 1_555
C45 C36 1_555 1_555
H36 C45 1_555 1_555
C46 C37 1_555 1_555
H37 C46 1_555 1_555
C47 C43 1_555 1_555
C48 C46 1_555 1_555
H38 C48 1_555 1_555
C49 C32 1_555 1_555
H39 C49 1_555 1_555
H40 C49 1_555 1_555
H41 C49 1_555 1_555
C50 C40 1_555 1_555
H42 C50 1_555 1_555
H43 C50 1_555 1_555
H44 C50 1_555 1_555
C51 C44 1_555 1_555
H45 C51 1_555 1_555
C52 C45 1_555 1_555
H46 C52 1_555 1_555
C53 C51 1_555 1_555
H47 C53 1_555 1_555
C54 O6 1_555 1_555
H48 C54 1_555 1_555
H49 C54 1_555 1_555
H50 C54 1_555 1_555
C1 C5 1_555 1_555
C3 C7 1_555 1_555
C8 C13 1_555 1_555
C14 C15 1_555 1_555
C21 C22 1_555 1_555
C25 C26 1_555 1_555
C28 C30 1_555 1_555
C32 C34 1_555 1_555
C41 C42 1_555 1_555
C47 C48 1_555 1_555
C52 C53 1_555 1_555

#END
