
#######################################################################
#
#                 Cambridge Crystallographic Data Centre
#                                CCDC 
#
#######################################################################
#
# If this CIF has been generated from an entry in the Cambridge 
# Structural Database, then it will include bibliographic, chemical, 
# crystal, experimental, refinement or atomic coordinate data resulting 
# from the CCDC's data processing and validation procedures.
#
#######################################################################

data_LIBSUN
_chemical_formula_moiety         'C27 H24 Cl1 N3 O3 S1'
_chemical_name_systematic        
2-(4-chlorophenyl)-6-methoxy-4-{4-methyl-1-[(4-methylphenyl)sulfonyl]-2,5-dihydro-1H-pyrrol-3-yl}quinazoline
_symmetry_cell_setting           triclinic
_symmetry_space_group_name_H-M   'P -1'
_symmetry_Int_Tables_number      2
_space_group_name_Hall           '-P 1'
loop_
_symmetry_equiv_pos_site_id
_symmetry_equiv_pos_as_xyz
1 x,y,z
2 -x,-y,-z
_cell_length_a                   13.7197(4)
_cell_length_b                   14.2953(5)
_cell_length_c                   14.5261(4)
_cell_angle_alpha                94.764(3)
_cell_angle_beta                 118.111(3)
_cell_angle_gamma                93.326(3)
_cell_volume                     2488.87
_exptl_crystal_colour            colorless
_exptl_crystal_description       needle
_cell_formula_units_Z            4
loop_
_atom_site_label
_atom_site_type_symbol
_atom_site_fract_x
_atom_site_fract_y
_atom_site_fract_z
S1 S 0.81750(5) 0.31686(5) 1.04958(4)
Cl1 Cl -0.03090(7) 0.25039(9) 0.46029(9)
O1 O 0.79026(16) 0.21662(14) 1.02512(15)
N1 N 0.51517(15) 0.36262(12) 0.64232(13)
O2 O 0.87247(16) 0.46378(15) 0.52010(15)
O3 O 0.92469(15) 0.35612(17) 1.13188(14)
N2 N 0.44963(16) 0.36346(13) 0.45873(14)
N3 N 0.80444(15) 0.35648(15) 0.94303(14)
C1 C 0.70219(17) 0.39995(15) 0.77638(16)
C2 C 0.43417(19) 0.35198(14) 0.53983(17)
C3 C 0.61819(18) 0.38948(14) 0.66344(16)
C4 C 0.64632(18) 0.40313(14) 0.58243(16)
C5 C 0.5558(2) 0.38788(14) 0.47908(17)
C6 C 0.75517(19) 0.42856(15) 0.59898(17)
H1 H 0.814699 0.438610 0.666919
C7 C 0.31934(19) 0.32556(15) 0.52003(18)
C8 C 0.70648(18) 0.32154(16) 0.84045(16)
H2 H 0.639446 0.312981 0.846979
H3 H 0.716964 0.262437 0.810100
C9 C 0.77274(19) 0.47512(17) 0.83482(18)
C10 C 0.7726(2) 0.43832(17) 0.51484(19)
C11 C 0.7171(2) 0.36449(19) 1.07737(18)
C12 C 0.6817(2) 0.42167(19) 0.4112(2)
H4 H 0.694217 0.427589 0.354202
C13 C 0.5776(2) 0.39743(18) 0.39407(19)
H5 H 0.519297 0.386824 0.325503
C14 C 0.2335(2) 0.29887(18) 0.4181(2)
H6 H 0.248408 0.296341 0.361801
C15 C 0.2939(2) 0.32707(19) 0.6020(2)
H7 H 0.350503 0.344313 0.670620
C16 C 0.8377(2) 0.4572(2) 0.9467(2)
H8 H 0.917006 0.468993 0.971534
H9 H 0.818381 0.496530 0.992015
C17 C 0.6136(2) 0.3145(2) 1.0370(2)
H10 H 0.597869 0.255410 0.998007
C18 C 0.5553(3) 0.4414(2) 1.1129(2)
C19 C 0.7404(2) 0.4526(2) 1.13477(19)
H11 H 0.810374 0.486116 1.162023
C20 C 0.1257(2) 0.2760(2) 0.3999(2)
H12 H 0.068353 0.258961 0.331633
C21 C 0.7858(3) 0.57025(19) 0.8045(2)
H13 H 0.858535 0.581848 0.811024
H14 H 0.776773 0.617504 0.850066
H15 H 0.730553 0.572694 0.733059
C22 C 0.5331(2) 0.3538(2) 1.0555(2)
H16 H 0.463155 0.320406 1.028597
C23 C 0.6582(3) 0.4904(2) 1.1513(2)
H17 H 0.673333 0.549986 1.189009
C24 C 0.1043(2) 0.2788(2) 0.4832(3)
C25 C 0.1873(2) 0.3038(2) 0.5845(2)
H18 H 0.171896 0.304923 0.640381
C26 C 0.9681(2) 0.4796(3) 0.6211(2)
H19 H 1.032399 0.497546 0.613750
H20 H 0.978087 0.422759 0.653852
H21 H 0.958469 0.529226 0.663848
C27 C 0.4645(3) 0.4825(3) 1.1300(3)
H22 H 0.433254 0.528845 1.082971
H23 H 0.495587 0.511670 1.201358
H24 H 0.407404 0.432942 1.116402
S2 S 1.10077(5) 0.26644(5) 0.84569(5)
Cl2 Cl 0.41036(10) 0.09177(9) 0.94575(10)
N4 N 0.66082(16) 0.12385(13) 0.65050(16)
O4 O 1.06964(19) 0.35616(14) 0.86558(16)
N5 N 0.47283(18) 0.12118(14) 0.51684(19)
N6 N 0.99761(17) 0.21617(15) 0.73622(16)
O5 O 1.19852(17) 0.25971(19) 0.83512(18)
C28 C 0.6973(2) 0.13175(15) 0.58172(18)
C29 C 0.8201(2) 0.14275(16) 0.62874(18)
O6 O 0.5999(3) 0.1615(2) 0.21372(18)
C30 C 0.5129(2) 0.10828(16) 0.6953(2)
C31 C 0.5493(2) 0.11766(15) 0.6150(2)
C32 C 0.5094(2) 0.13146(16) 0.4461(2)
C33 C 0.8836(2) 0.21894(17) 0.7195(2)
H25 H 0.857708 0.279939 0.701590
H26 H 0.878078 0.204871 0.781168
C34 C 0.6234(2) 0.13650(16) 0.47343(19)
C35 C 0.8873(2) 0.09139(18) 0.6097(2)
C36 C 1.0523(2) 0.22056(19) 0.9996(2)
H27 H 1.011146 0.271934 0.985987
C37 C 1.11003(19) 0.19960(19) 0.94554(19)
C38 C 1.0068(2) 0.1270(2) 0.6838(2)
H28 H 1.042584 0.083075 0.734014
H29 H 1.047971 0.137845 0.646035
C39 C 1.0564(2) 0.1644(2) 1.0741(2)
H30 H 1.018077 0.178937 1.110862
C40 C 0.5858(2) 0.08695(19) 0.7941(2)
H31 H 0.657996 0.076997 0.809371
C41 C 1.1161(2) 0.0872(2) 1.0952(2)
C42 C 0.6572(3) 0.14768(19) 0.3970(2)
H32 H 0.732116 0.151261 0.415105
C43 C 0.4062(2) 0.1239(2) 0.6744(3)
H33 H 0.355880 0.138588 0.608428
C44 C 0.4313(3) 0.1401(2) 0.3407(3)
H34 H 0.356167 0.138633 0.321130
C45 C 1.1694(2) 0.1217(2) 0.9650(3)
H35 H 1.207620 0.106735 0.928152
C46 C 1.1713(2) 0.0669(3) 1.0389(3)
H36 H 1.210982 0.014599 1.051407
C47 C 0.5780(3) 0.1533(2) 0.2951(2)
C48 C 0.5541(3) 0.0800(2) 0.8704(3)
H37 H 0.603847 0.064954 0.936372
C49 C 0.4658(3) 0.1506(2) 0.2683(3)
H38 H 0.413588 0.156199 0.199408
C50 C 0.4478(3) 0.0959(2) 0.8474(3)
C51 C 0.3737(3) 0.1178(2) 0.7508(3)
H39 H 0.301927 0.128434 0.736449
C52 C 1.1185(3) 0.0255(3) 1.1755(3)
H40 H 1.113581 0.063216 1.230714
H41 H 1.186667 -0.003119 1.204600
H42 H 1.056682 -0.022958 1.142283
C53 C 0.8601(3) 0.0048(3) 0.5344(3)
H43 H 0.781901 -0.015271 0.502050
H44 H 0.901123 -0.044375 0.571197
H45 H 0.879790 0.018061 0.481125
C54 C 0.7104(4) 0.1586(4) 0.2331(3)
H46 H 0.712146 0.154819 0.167592
H47 H 0.739110 0.104262 0.267317
H48 H 0.755087 0.214805 0.277463
loop_
_geom_bond_atom_site_label_1
_geom_bond_atom_site_label_2
_geom_bond_site_symmetry_1
_geom_bond_site_symmetry_2
S1 O1 1_555 1_555
Cl1 C24 1_555 1_555
N1 C2 1_555 1_555
O2 C10 1_555 1_555
O3 S1 1_555 1_555
N2 C2 1_555 1_555
N3 S1 1_555 1_555
C1 C3 1_555 1_555
C2 C7 1_555 1_555
C3 N1 1_555 1_555
C4 C3 1_555 1_555
C5 N2 1_555 1_555
C6 C4 1_555 1_555
H1 C6 1_555 1_555
C7 C14 1_555 1_555
C8 N3 1_555 1_555
H2 C8 1_555 1_555
H3 C8 1_555 1_555
C9 C1 1_555 1_555
C10 C6 1_555 1_555
C11 S1 1_555 1_555
C12 C10 1_555 1_555
H4 C12 1_555 1_555
C13 C5 1_555 1_555
H5 C13 1_555 1_555
C14 H6 1_555 1_555
C15 C7 1_555 1_555
H7 C15 1_555 1_555
C16 N3 1_555 1_555
H8 C16 1_555 1_555
H9 C16 1_555 1_555
C17 C11 1_555 1_555
H10 C17 1_555 1_555
C18 C22 1_555 1_555
C19 C11 1_555 1_555
H11 C19 1_555 1_555
C20 C14 1_555 1_555
H12 C20 1_555 1_555
C21 C9 1_555 1_555
H13 C21 1_555 1_555
H14 C21 1_555 1_555
H15 C21 1_555 1_555
C22 C17 1_555 1_555
H16 C22 1_555 1_555
C23 C18 1_555 1_555
H17 C23 1_555 1_555
C24 C20 1_555 1_555
C25 C15 1_555 1_555
H18 C25 1_555 1_555
C26 O2 1_555 1_555
H19 C26 1_555 1_555
H20 C26 1_555 1_555
H21 C26 1_555 1_555
C27 C18 1_555 1_555
H22 C27 1_555 1_555
H23 C27 1_555 1_555
H24 C27 1_555 1_555
S2 O4 1_555 1_555
Cl2 C50 1_555 1_555
N4 C28 1_555 1_555
N5 C31 1_555 1_555
N6 S2 1_555 1_555
O5 S2 1_555 1_555
C28 C29 1_555 1_555
C29 C33 1_555 1_555
O6 C47 1_555 1_555
C30 C31 1_555 1_555
C31 N4 1_555 1_555
C32 N5 1_555 1_555
C33 N6 1_555 1_555
H25 C33 1_555 1_555
H26 C33 1_555 1_555
C34 C28 1_555 1_555
C35 C29 1_555 1_555
C36 H27 1_555 1_555
C37 S2 1_555 1_555
C38 N6 1_555 1_555
H28 C38 1_555 1_555
H29 C38 1_555 1_555
C39 C36 1_555 1_555
H30 C39 1_555 1_555
C40 C30 1_555 1_555
H31 C40 1_555 1_555
C41 C39 1_555 1_555
C42 C34 1_555 1_555
H32 C42 1_555 1_555
C43 C30 1_555 1_555
H33 C43 1_555 1_555
C44 C32 1_555 1_555
H34 C44 1_555 1_555
C45 C37 1_555 1_555
H35 C45 1_555 1_555
C46 C41 1_555 1_555
H36 C46 1_555 1_555
C47 C42 1_555 1_555
C48 C40 1_555 1_555
H37 C48 1_555 1_555
C49 C44 1_555 1_555
H38 C49 1_555 1_555
C50 C48 1_555 1_555
C51 C43 1_555 1_555
H39 C51 1_555 1_555
C52 C41 1_555 1_555
H40 C52 1_555 1_555
H41 C52 1_555 1_555
H42 C52 1_555 1_555
C53 C35 1_555 1_555
H43 C53 1_555 1_555
H44 C53 1_555 1_555
H45 C53 1_555 1_555
C54 O6 1_555 1_555
H46 C54 1_555 1_555
H47 C54 1_555 1_555
H48 C54 1_555 1_555
C1 C8 1_555 1_555
C4 C5 1_555 1_555
C9 C16 1_555 1_555
C12 C13 1_555 1_555
C19 C23 1_555 1_555
C24 C25 1_555 1_555
C32 C34 1_555 1_555
C35 C38 1_555 1_555
C36 C37 1_555 1_555
C45 C46 1_555 1_555
C47 C49 1_555 1_555
C50 C51 1_555 1_555

#END
