
#######################################################################
#
#                 Cambridge Crystallographic Data Centre
#                                CCDC 
#
#######################################################################
#
# If this CIF has been generated from an entry in the Cambridge 
# Structural Database, then it will include bibliographic, chemical, 
# crystal, experimental, refinement or atomic coordinate data resulting 
# from the CCDC's data processing and validation procedures.
#
#######################################################################

data_LIBSIB
_chemical_formula_moiety         'C25 H22 N4 O2 S1'
_chemical_name_systematic        
'4-{4-methyl-1-[(4-methylphenyl)sulfonyl]-2,5-dihydro-1H-pyrrol-3-yl}-2-(pyridin-4-yl)quinazoline unknown solvate'
_symmetry_cell_setting           triclinic
_symmetry_space_group_name_H-M   'P -1'
_symmetry_Int_Tables_number      2
_space_group_name_Hall           '-P 1'
loop_
_symmetry_equiv_pos_site_id
_symmetry_equiv_pos_as_xyz
1 x,y,z
2 -x,-y,-z
_cell_length_a                   8.2914(5)
_cell_length_b                   11.0916(7)
_cell_length_c                   14.2737(8)
_cell_angle_alpha                110.712(5)
_cell_angle_beta                 98.915(5)
_cell_angle_gamma                96.590(5)
_cell_volume                     1192.41
_exptl_crystal_colour            colorless
_exptl_crystal_description       block
_cell_formula_units_Z            2
loop_
_atom_site_label
_atom_site_type_symbol
_atom_site_fract_x
_atom_site_fract_y
_atom_site_fract_z
S1 S 0.80438(7) 1.06025(6) 0.74239(4)
O1 O 0.94115(19) 0.99247(18) 0.72685(12)
N1 N 0.1939(2) 0.40092(16) 0.52428(13)
N2 N 0.3778(2) 0.60328(17) 0.62826(12)
O2 O 0.8134(2) 1.18761(16) 0.73902(13)
N3 N 0.6461(2) 0.96762(17) 0.65420(12)
C1 C 0.1677(2) 0.4463(2) 0.44659(15)
C2 C 0.2978(3) 0.4799(2) 0.60905(15)
C3 C 0.3627(3) 0.8919(2) 0.58434(14)
C4 C 0.3308(3) 0.4329(2) 0.69453(16)
C5 C 0.4294(3) 0.7884(2) 0.58463(14)
C6 C 0.7630(2) 1.0712(2) 0.86243(15)
C7 C 0.2447(2) 0.57254(19) 0.45818(14)
C8 C 0.3470(2) 0.65090(19) 0.55569(14)
C9 C 0.4900(3) 1.0160(2) 0.63617(15)
H1 H 0.495718 1.065415 0.592288
H2 H 0.465243 1.070902 0.700186
C10 C 0.2198(3) 0.6118(2) 0.37416(15)
H3 H 0.272037 0.693797 0.380270
C11 C 0.6107(3) 0.8268(2) 0.63531(17)
H4 H 0.630520 0.812214 0.698897
H5 H 0.677660 0.778481 0.590466
N4 N 0.3882(3) 0.3490(2) 0.85890(18)
C12 C 0.0635(3) 0.3630(2) 0.35194(16)
H6 H 0.011361 0.279929 0.343613
C13 C 0.8069(3) 0.9808(2) 0.90267(17)
H7 H 0.857179 0.913254 0.866563
C14 C 0.7039(3) 1.0908(3) 1.05410(17)
C15 C 0.2389(3) 0.3193(2) 0.69232(18)
H8 H 0.155756 0.268101 0.635615
C16 C 0.1870(3) 0.9005(2) 0.54789(17)
H9 H 0.181286 0.931975 0.493057
H10 H 0.148365 0.959945 0.603380
H11 H 0.118386 0.815299 0.523821
C17 C 0.4533(3) 0.5039(3) 0.78127(18)
H12 H 0.518657 0.580976 0.786573
C18 C 0.1186(3) 0.5288(2) 0.28370(17)
H13 H 0.101902 0.554969 0.228345
C19 C 0.0400(3) 0.4051(2) 0.27340(17)
H14 H -0.029828 0.350649 0.211471
C20 C 0.2721(3) 0.2827(3) 0.7751(2)
H15 H 0.208423 0.206127 0.771865
C21 C 0.6876(3) 1.1704(2) 0.91662(18)
H16 H 0.656021 1.231217 0.889632
C22 C 0.7753(3) 0.9915(3) 0.99803(19)
H17 H 0.803535 0.929439 1.024477
C23 C 0.6593(3) 1.1785(3) 1.01176(19)
H18 H 0.608398 1.245485 1.047917
C24 C 0.4767(3) 0.4579(3) 0.8599(2)
H19 H 0.559845 0.506239 0.917344
C25 C 0.6754(4) 1.1018(4) 1.15853(19)
H20 H 0.570973 1.048462 1.151111
H21 H 0.674045 1.191581 1.198839
H22 H 0.763243 1.072473 1.192051
loop_
_geom_bond_atom_site_label_1
_geom_bond_atom_site_label_2
_geom_bond_site_symmetry_1
_geom_bond_site_symmetry_2
S1 O1 1_555 1_555
N1 C1 1_555 1_555
N2 C2 1_555 1_555
O2 S1 1_555 1_555
N3 S1 1_555 1_555
C1 C7 1_555 1_555
C2 N1 1_555 1_555
C3 C5 1_555 1_555
C4 C2 1_555 1_555
C5 C8 1_555 1_555
C6 S1 1_555 1_555
C7 C8 1_555 1_555
C8 N2 1_555 1_555
C9 N3 1_555 1_555
H1 C9 1_555 1_555
H2 C9 1_555 1_555
C10 C7 1_555 1_555
H3 C10 1_555 1_555
C11 N3 1_555 1_555
H4 C11 1_555 1_555
H5 C11 1_555 1_555
N4 C20 1_555 1_555
C12 C1 1_555 1_555
H6 C12 1_555 1_555
C13 C6 1_555 1_555
H7 C13 1_555 1_555
C14 C22 1_555 1_555
C15 C4 1_555 1_555
H8 C15 1_555 1_555
C16 C3 1_555 1_555
H9 C16 1_555 1_555
H10 C16 1_555 1_555
H11 C16 1_555 1_555
C17 C4 1_555 1_555
H12 C17 1_555 1_555
C18 C10 1_555 1_555
H13 C18 1_555 1_555
C19 C12 1_555 1_555
H14 C19 1_555 1_555
C20 C15 1_555 1_555
H15 C20 1_555 1_555
C21 C6 1_555 1_555
H16 C21 1_555 1_555
C22 C13 1_555 1_555
H17 C22 1_555 1_555
C23 C14 1_555 1_555
H18 C23 1_555 1_555
C24 N4 1_555 1_555
H19 C24 1_555 1_555
C25 C14 1_555 1_555
H20 C25 1_555 1_555
H21 C25 1_555 1_555
H22 C25 1_555 1_555
C3 C9 1_555 1_555
C5 C11 1_555 1_555
C17 C24 1_555 1_555
C18 C19 1_555 1_555
C21 C23 1_555 1_555

#END
