
#######################################################################
#
#                 Cambridge Crystallographic Data Centre
#                                CCDC 
#
#######################################################################
#
# If this CIF has been generated from an entry in the Cambridge 
# Structural Database, then it will include bibliographic, chemical, 
# crystal, experimental, refinement or atomic coordinate data resulting 
# from the CCDC's data processing and validation procedures.
#
#######################################################################

data_LIBTAT
_chemical_formula_moiety         
'C12 H9 N2 1+,H2 O3 P1 1-,0.5(H3 O3 P1),0.5(H2 O1)'
_chemical_name_systematic        
'1,10-Phenanthrolin-1-ium hydrogen phosphonate hemikis(phosphonic acid) hemihydrate'
_symmetry_cell_setting           monoclinic
_symmetry_space_group_name_H-M   'P 21/n'
_symmetry_Int_Tables_number      14
_space_group_name_Hall           '-P 2yn'
loop_
_symmetry_equiv_pos_site_id
_symmetry_equiv_pos_as_xyz
1 x,y,z
2 1/2-x,1/2+y,1/2-z
3 -x,-y,-z
4 1/2+x,1/2-y,1/2+z
_cell_length_a                   13.640(2)
_cell_length_b                   10.7221(19)
_cell_length_c                   18.581(3)
_cell_angle_alpha                90
_cell_angle_beta                 96.220(2)
_cell_angle_gamma                90
_cell_volume                     2701.46
_exptl_crystal_colour            colorless
_exptl_crystal_description       block
_cell_formula_units_Z            8
loop_
_atom_site_label
_atom_site_type_symbol
_atom_site_fract_x
_atom_site_fract_y
_atom_site_fract_z
C1 C 0.6645(2) 1.0271(3) 0.18721(15)
H1 H 0.6638 1.0841 0.2249
C2 C 0.6898(2) 0.9042(3) 0.20227(17)
H2 H 0.7079 0.8787 0.2497
C3 C 0.6879(2) 0.8202(3) 0.14632(17)
H3 H 0.7050 0.7374 0.1560
C4 C 0.66070(17) 0.8580(2) 0.07500(15)
C5 C 0.6564(2) 0.7747(3) 0.01461(16)
H4 H 0.6702 0.6906 0.0224
C6 C 0.63277(19) 0.8167(3) -0.05329(16)
H5 H 0.6291 0.7606 -0.0916
C7 C 0.61323(17) 0.9458(2) -0.06767(14)
C8 C 0.59404(19) 0.9946(3) -0.13799(15)
H6 H 0.5925 0.9424 -0.1781
C9 C 0.5777(2) 1.1188(3) -0.14667(15)
H7 H 0.5659 1.1530 -0.1928
C10 C 0.5788(2) 1.1947(3) -0.08572(15)
H8 H 0.5657 1.2792 -0.0927
C11 C 0.61515(15) 1.0307(2) -0.01007(13)
C12 C 0.63870(15) 0.9845(2) 0.06216(13)
N1 N 0.64102(14) 1.06426(18) 0.11913(11)
N2 N 0.59727(15) 1.15385(19) -0.01868(11)
H9 H 0.6266 1.1443 0.1120
C13 C 0.8837(2) 0.7644(3) -0.06088(15)
H10 H 0.8920 0.6785 -0.0639
C14 C 0.8585(2) 0.8303(3) -0.12496(15)
H11 H 0.8507 0.7888 -0.1692
C15 C 0.84534(18) 0.9563(3) -0.12203(15)
H12 H 0.8284 1.0016 -0.1642
C16 C 0.85764(16) 1.0170(3) -0.05452(14)
C17 C 0.8445(2) 1.1475(3) -0.04504(16)
H13 H 0.8273 1.1969 -0.0856
C18 C 0.8561(2) 1.2014(3) 0.02056(16)
H14 H 0.8466 1.2869 0.0248
C19 C 0.88297(17) 1.1281(2) 0.08420(14)
C20 C 0.8985(2) 1.1786(2) 0.15419(16)
H15 H 0.8912 1.2639 0.1609
C21 C 0.9242(2) 1.1034(3) 0.21241(15)
H16 H 0.9345 1.1371 0.2587
C22 C 0.9347(2) 0.9763(3) 0.20202(14)
H17 H 0.9512 0.9244 0.2416
C23 C 0.89637(16) 0.9997(2) 0.07635(12)
C24 C 0.88339(15) 0.9413(2) 0.00657(13)
N3 N 0.89654(15) 0.8166(2) 0.00365(11)
N4 N 0.92134(14) 0.92864(18) 0.13574(10)
H18 H 0.9352 0.8475 0.1334
O1 O 0.36569(16) 0.4470(2) 0.16608(12)
H19 H 0.3651 0.3874 0.1962
O2 O 0.18544(17) 0.4571(2) 0.18189(16)
H20 H 0.1366 0.5068 0.1769
O3 O 0.29108(16) 0.64776(19) 0.19461(13)
P1 P 0.27225(5) 0.51968(7) 0.15660(4)
H21 H 0.2505 0.5506 0.0826
H22 H 0.7707 0.5114 0.1317
O5 O 1.00167(17) 0.46257(18) 0.16631(14)
O6 O 0.95656(18) 0.68935(18) 0.16466(11)
O7 O 0.8486(5) 0.5093(7) 0.0992(6)
P2 P 0.93776(6) 0.56830(7) 0.12929(5)
H23 H 0.9593 0.5831 0.0569
O8 O 0.6825(3) 0.4675(4) 0.0618(2)
O9 O 0.52622(18) 0.5089(2) 0.11744(13)
H24 H 0.4927 0.4771 0.1488
O10 O 0.61061(17) 0.30242(18) 0.14107(10)
P3 P 0.59751(6) 0.41216(7) 0.09422(5)
H25 H 0.5587 0.3724 0.0236
O12 O 0.13616(17) 0.7544(2) 0.23652(13)
H26 H 0.1792 0.6978 0.2336
H27 H 0.0807 0.7251 0.2191
O4? O 0.8289(3) 0.5371(6) 0.1444(3)
O11? O 0.6864(5) 0.5105(6) 0.1235(5)
loop_
_geom_bond_atom_site_label_1
_geom_bond_atom_site_label_2
_geom_bond_site_symmetry_1
_geom_bond_site_symmetry_2
C1 H1 1_555 1_555
C2 C1 1_555 1_555
H2 C2 1_555 1_555
C3 C2 1_555 1_555
H3 C3 1_555 1_555
C4 C3 1_555 1_555
C5 C4 1_555 1_555
H4 C5 1_555 1_555
C6 C5 1_555 1_555
H5 C6 1_555 1_555
C7 C6 1_555 1_555
C8 C7 1_555 1_555
H6 C8 1_555 1_555
C9 C8 1_555 1_555
H7 C9 1_555 1_555
C10 C9 1_555 1_555
H8 C10 1_555 1_555
C11 C7 1_555 1_555
C12 C4 1_555 1_555
N1 C1 1_555 1_555
N2 C10 1_555 1_555
H9 N1 1_555 1_555
C13 H10 1_555 1_555
C14 C13 1_555 1_555
H11 C14 1_555 1_555
C15 C14 1_555 1_555
H12 C15 1_555 1_555
C16 C15 1_555 1_555
C17 C16 1_555 1_555
H13 C17 1_555 1_555
C18 C17 1_555 1_555
H14 C18 1_555 1_555
C19 C18 1_555 1_555
C20 C19 1_555 1_555
H15 C20 1_555 1_555
C21 C20 1_555 1_555
H16 C21 1_555 1_555
C22 C21 1_555 1_555
H17 C22 1_555 1_555
C23 C19 1_555 1_555
C24 C16 1_555 1_555
N3 C13 1_555 1_555
N4 C22 1_555 1_555
H18 N4 1_555 1_555
O1 H19 1_555 1_555
O2 H20 1_555 1_555
O3 P1 1_555 1_555
P1 O1 1_555 1_555
H21 P1 1_555 1_555
H22 O7 1_555 1_555
O5 P2 1_555 1_555
O6 P2 1_555 1_555
O7 P2 1_555 1_555
P2 H23 1_555 1_555
O8 P3 1_555 1_555
O9 H24 1_555 1_555
O10 P3 1_555 1_555
P3 O9 1_555 1_555
H25 P3 1_555 1_555
O12 H26 1_555 1_555
H27 O12 1_555 1_555
C11 C12 1_555 1_555
C11 N2 1_555 1_555
C12 N1 1_555 1_555
C23 C24 1_555 1_555
C23 N4 1_555 1_555
C24 N3 1_555 1_555
O2 P1 1_555 1_555

#END
