
#######################################################################
#
#                 Cambridge Crystallographic Data Centre
#                                CCDC 
#
#######################################################################
#
# If this CIF has been generated from an entry in the Cambridge 
# Structural Database, then it will include bibliographic, chemical, 
# crystal, experimental, refinement or atomic coordinate data resulting 
# from the CCDC's data processing and validation procedures.
#
#######################################################################

data_LIBTEY
_chemical_formula_moiety         'C26 H22 F1 N3 O2 S1'
_chemical_name_systematic        
6-fluoro-4-{4-methyl-1-[(4-methylphenyl)sulfonyl]-2,5-dihydro-1H-pyrrol-3-yl}-2-phenylquinazoline
_symmetry_cell_setting           monoclinic
_symmetry_space_group_name_H-M   'P 21/c'
_symmetry_Int_Tables_number      14
_space_group_name_Hall           '-P 2ybc'
loop_
_symmetry_equiv_pos_site_id
_symmetry_equiv_pos_as_xyz
1 x,y,z
2 -x,1/2+y,1/2-z
3 -x,-y,-z
4 x,1/2-y,1/2+z
_cell_length_a                   16.2175(7)
_cell_length_b                   14.3448(7)
_cell_length_c                   9.9607(6)
_cell_angle_alpha                90
_cell_angle_beta                 105.507(5)
_cell_angle_gamma                90
_cell_volume                     2232.87
_exptl_crystal_colour            colorless
_exptl_crystal_description       block
_cell_formula_units_Z            4
loop_
_atom_site_label
_atom_site_type_symbol
_atom_site_fract_x
_atom_site_fract_y
_atom_site_fract_z
S1 S 0.89795(3) 0.39274(3) 0.61296(6)
O1 O 0.87085(9) 0.30994(10) 0.66774(18)
O2 O 0.97225(8) 0.39134(10) 0.56167(17)
F1 F 0.70727(10) 0.63928(14) 0.93401(15)
N1 N 0.81914(9) 0.42474(12) 0.48198(19)
N2 N 0.55878(9) 0.57218(11) 0.32279(18)
N3 N 0.46033(10) 0.63409(11) 0.4398(2)
C1 C 0.91166(11) 0.47965(13) 0.7419(2)
C2 C 0.48122(12) 0.60802(12) 0.3271(2)
C3 C 0.70287(11) 0.52633(13) 0.4369(2)
C4 C 0.61973(11) 0.56764(13) 0.4414(2)
C5 C 0.75581(12) 0.55992(15) 0.3682(2)
C6 C 0.60643(12) 0.60005(12) 0.5690(2)
C7 C 0.41614(12) 0.61769(13) 0.1913(2)
C8 C 0.52259(12) 0.63151(13) 0.5621(2)
C9 C 0.73421(11) 0.43652(14) 0.5098(2)
H1 H 0.739560 0.441024 0.608918
H2 H 0.696223 0.385270 0.471225
C10 C 0.83323(12) 0.49946(15) 0.3893(2)
H3 H 0.837997 0.474169 0.301415
H4 H 0.884821 0.534219 0.432463
C11 C 0.92490(13) 0.61901(15) 0.9411(2)
C12 C 0.87718(12) 0.46671(15) 0.8539(2)
H5 H 0.849315 0.411323 0.862783
C13 C 0.95409(13) 0.56196(15) 0.7303(2)
H6 H 0.978007 0.570990 0.656214
C14 C 0.88436(13) 0.53625(15) 0.9518(2)
H7 H 0.861291 0.526999 1.026837
C15 C 0.50360(14) 0.66121(15) 0.6863(3)
H8 H 0.448307 0.680179 0.683336
C16 C 0.96035(14) 0.63020(15) 0.8300(2)
H9 H 0.989126 0.685220 0.822444
C17 C 0.66981(14) 0.60367(14) 0.6964(2)
H10 H 0.725744 0.585663 0.702174
C18 C 0.34060(12) 0.66648(14) 0.1832(3)
H11 H 0.330064 0.690678 0.263639
C19 C 0.64747(15) 0.63405(17) 0.8106(2)
C20 C 0.56458(16) 0.66234(16) 0.8085(3)
H12 H 0.551804 0.681556 0.889802
C21 C 0.43034(15) 0.58151(17) 0.0708(3)
H13 H 0.480840 0.549549 0.074836
C22 C 0.28166(13) 0.67894(17) 0.0567(3)
H14 H 0.231882 0.712478 0.051938
C23 C 0.74689(16) 0.6446(2) 0.2793(3)
H15 H 0.747274 0.626908 0.186531
H16 H 0.793727 0.686160 0.317104
H17 H 0.693930 0.675281 0.276947
C24 C 0.93174(17) 0.69463(18) 1.0485(3)
H18 H 0.887753 0.740203 1.014545
H19 H 0.986810 0.723954 1.066092
H20 H 0.925014 0.667915 1.133308
C25 C 0.29572(15) 0.6420(2) -0.0637(3)
H21 H 0.255556 0.650496 -0.148965
C26 C 0.36982(18) 0.5925(2) -0.0561(3)
H22 H 0.379168 0.566529 -0.136334
loop_
_geom_bond_atom_site_label_1
_geom_bond_atom_site_label_2
_geom_bond_site_symmetry_1
_geom_bond_site_symmetry_2
S1 O1 1_555 1_555
O2 S1 1_555 1_555
F1 C19 1_555 1_555
N1 S1 1_555 1_555
N2 C2 1_555 1_555
N3 C2 1_555 1_555
C1 S1 1_555 1_555
C2 C7 1_555 1_555
C3 C4 1_555 1_555
C4 N2 1_555 1_555
C5 C3 1_555 1_555
C6 C4 1_555 1_555
C7 C18 1_555 1_555
C8 N3 1_555 1_555
C9 N1 1_555 1_555
H1 C9 1_555 1_555
H2 C9 1_555 1_555
C10 N1 1_555 1_555
H3 C10 1_555 1_555
H4 C10 1_555 1_555
C11 C14 1_555 1_555
C12 C1 1_555 1_555
H5 C12 1_555 1_555
C13 C1 1_555 1_555
H6 C13 1_555 1_555
C14 C12 1_555 1_555
H7 C14 1_555 1_555
C15 C8 1_555 1_555
H8 C15 1_555 1_555
C16 C11 1_555 1_555
H9 C16 1_555 1_555
C17 C6 1_555 1_555
H10 C17 1_555 1_555
C18 H11 1_555 1_555
C19 C17 1_555 1_555
C20 C15 1_555 1_555
H12 C20 1_555 1_555
C21 C7 1_555 1_555
H13 C21 1_555 1_555
C22 C18 1_555 1_555
H14 C22 1_555 1_555
C23 C5 1_555 1_555
H15 C23 1_555 1_555
H16 C23 1_555 1_555
H17 C23 1_555 1_555
C24 C11 1_555 1_555
H18 C24 1_555 1_555
H19 C24 1_555 1_555
H20 C24 1_555 1_555
C25 C22 1_555 1_555
H21 C25 1_555 1_555
C26 C21 1_555 1_555
H22 C26 1_555 1_555
C3 C9 1_555 1_555
C5 C10 1_555 1_555
C6 C8 1_555 1_555
C13 C16 1_555 1_555
C19 C20 1_555 1_555
C25 C26 1_555 1_555

#END
