
#######################################################################
#
#                 Cambridge Crystallographic Data Centre
#                                CCDC 
#
#######################################################################
#
# If this CIF has been generated from an entry in the Cambridge 
# Structural Database, then it will include bibliographic, chemical, 
# crystal, experimental, refinement or atomic coordinate data resulting 
# from the CCDC's data processing and validation procedures.
#
#######################################################################

data_LIBVOK
_chemical_formula_moiety         'C27 H25 N3 O3 S1'
_chemical_name_systematic        
2-(4-methoxyphenyl)-4-{4-methyl-1-[(4-methylphenyl)sulfonyl]-2,5-dihydro-1H-pyrrol-3-yl}quinazoline
_symmetry_cell_setting           monoclinic
_symmetry_space_group_name_H-M   'P 21/n'
_symmetry_Int_Tables_number      14
_space_group_name_Hall           '-P 2yn'
loop_
_symmetry_equiv_pos_site_id
_symmetry_equiv_pos_as_xyz
1 x,y,z
2 1/2-x,1/2+y,1/2-z
3 -x,-y,-z
4 1/2+x,1/2-y,1/2+z
_cell_length_a                   10.1694(7)
_cell_length_b                   11.8918(8)
_cell_length_c                   19.5681(13)
_cell_angle_alpha                90
_cell_angle_beta                 92.908(7)
_cell_angle_gamma                90
_cell_volume                     2363.37
_exptl_crystal_colour            colorless
_exptl_crystal_description       block
_cell_formula_units_Z            4
loop_
_atom_site_label
_atom_site_type_symbol
_atom_site_fract_x
_atom_site_fract_y
_atom_site_fract_z
S1 S 0.11165(10) 1.00334(9) 0.60648(5)
O1 O 0.0786(3) 1.1183(3) 0.61701(16)
O2 O 0.0122(3) 0.9175(3) 0.60677(15)
O3 O 0.8704(3) 0.3902(3) 0.50660(17)
N1 N 0.4397(3) 0.7630(3) 0.42938(16)
N2 N 0.4630(3) 0.6790(3) 0.31940(16)
N3 N 0.1777(3) 0.9974(3) 0.53330(16)
C1 C 0.3338(4) 1.0316(3) 0.45388(19)
C2 C 0.3037(4) 0.9231(3) 0.44990(18)
C3 C 0.3565(4) 0.8376(3) 0.40232(18)
C4 C 0.4355(4) 0.9032(4) 0.7653(2)
C5 C 0.3510(5) 0.8238(4) 0.7348(2)
H1 H 0.361934 0.748387 0.746370
C6 C 0.5897(4) 0.6065(3) 0.4168(2)
C7 C 0.4918(4) 0.6859(3) 0.38582(19)
C8 C 0.3183(4) 0.8391(3) 0.33081(19)
C9 C 0.2281(4) 0.9152(3) 0.2999(2)
H2 H 0.189866 0.970317 0.326117
C10 C 0.2617(4) 1.0879(3) 0.5091(2)
H3 H 0.322108 1.114745 0.545477
H4 H 0.209391 1.150504 0.491205
C11 C 0.3762(4) 0.7548(3) 0.29159(19)
C12 C 0.2351(4) 0.9659(4) 0.66914(19)
C13 C 0.4154(4) 1.0152(4) 0.7460(2)
H5 H 0.469891 1.070217 0.765926
C14 C 0.3182(4) 1.0468(4) 0.6988(2)
H6 H 0.307954 1.122059 0.686652
C15 C 0.2525(5) 0.8534(4) 0.6883(2)
H7 H 0.196774 0.798555 0.669209
C16 C 0.6104(4) 0.5956(4) 0.4882(2)
H8 H 0.561253 0.639091 0.517015
C17 C 0.4262(4) 1.0970(4) 0.4119(2)
H9 H 0.476664 1.046026 0.385671
H10 H 0.484537 1.140401 0.441665
H11 H 0.376730 1.146468 0.381606
C18 C 0.7781(4) 0.4575(3) 0.4747(2)
C19 C 0.2080(4) 0.8880(3) 0.5015(2)
H12 H 0.129822 0.854098 0.479748
H13 H 0.247611 0.835995 0.534657
C20 C 0.6652(4) 0.5393(4) 0.3762(2)
H14 H 0.652429 0.543759 0.328872
C21 C 0.3428(5) 0.7505(3) 0.2196(2)
H15 H 0.380275 0.696370 0.192316
C22 C 0.1964(5) 0.9084(4) 0.2312(2)
H16 H 0.135633 0.958052 0.210812
C23 C 0.7590(5) 0.4660(4) 0.4039(2)
H17 H 0.808973 0.422555 0.375387
C24 C 0.7020(4) 0.5216(4) 0.5157(2)
H18 H 0.712789 0.514737 0.562986
C25 C 0.5418(5) 0.8698(5) 0.8172(3)
H19 H 0.514955 0.888182 0.862234
H20 H 0.621333 0.909563 0.808461
H21 H 0.557056 0.790351 0.814292
C26 C 0.2559(5) 0.8263(4) 0.1916(2)
H22 H 0.235145 0.823640 0.144746
C27 C 0.9758(5) 0.3494(4) 0.4677(3)
H23 H 0.943274 0.292073 0.436700
H24 H 1.043535 0.318475 0.498104
H25 H 1.011383 0.410216 0.442198
loop_
_geom_bond_atom_site_label_1
_geom_bond_atom_site_label_2
_geom_bond_site_symmetry_1
_geom_bond_site_symmetry_2
S1 O1 1_555 1_555
O2 S1 1_555 1_555
O3 C18 1_555 1_555
N1 C3 1_555 1_555
N2 C7 1_555 1_555
N3 S1 1_555 1_555
C1 C2 1_555 1_555
C2 C3 1_555 1_555
C3 C8 1_555 1_555
C4 C5 1_555 1_555
C5 H1 1_555 1_555
C6 C7 1_555 1_555
C7 N1 1_555 1_555
C8 C9 1_555 1_555
C9 H2 1_555 1_555
C10 N3 1_555 1_555
H3 C10 1_555 1_555
H4 C10 1_555 1_555
C11 N2 1_555 1_555
C12 S1 1_555 1_555
C13 C4 1_555 1_555
H5 C13 1_555 1_555
C14 C12 1_555 1_555
H6 C14 1_555 1_555
C15 C5 1_555 1_555
H7 C15 1_555 1_555
C16 C6 1_555 1_555
H8 C16 1_555 1_555
C17 C1 1_555 1_555
H9 C17 1_555 1_555
H10 C17 1_555 1_555
H11 C17 1_555 1_555
C18 C23 1_555 1_555
C19 N3 1_555 1_555
H12 C19 1_555 1_555
H13 C19 1_555 1_555
C20 C6 1_555 1_555
H14 C20 1_555 1_555
C21 C11 1_555 1_555
H15 C21 1_555 1_555
C22 C9 1_555 1_555
H16 C22 1_555 1_555
C23 C20 1_555 1_555
H17 C23 1_555 1_555
C24 C16 1_555 1_555
H18 C24 1_555 1_555
C25 C4 1_555 1_555
H19 C25 1_555 1_555
H20 C25 1_555 1_555
H21 C25 1_555 1_555
C26 C21 1_555 1_555
H22 C26 1_555 1_555
C27 O3 1_555 1_555
H23 C27 1_555 1_555
H24 C27 1_555 1_555
H25 C27 1_555 1_555
C1 C10 1_555 1_555
C2 C19 1_555 1_555
C8 C11 1_555 1_555
C12 C15 1_555 1_555
C13 C14 1_555 1_555
C18 C24 1_555 1_555
C22 C26 1_555 1_555

#END
