
#######################################################################
#
#                 Cambridge Crystallographic Data Centre
#                                CCDC 
#
#######################################################################
#
# If this CIF has been generated from an entry in the Cambridge 
# Structural Database, then it will include bibliographic, chemical, 
# crystal, experimental, refinement or atomic coordinate data resulting 
# from the CCDC's data processing and validation procedures.
#
#######################################################################

data_LIBVEA
_chemical_formula_moiety         'C24 H22 N2 O4'
_chemical_name_systematic        
'dimethyl 3-methyl-4-(2-phenylquinazolin-4-yl)cyclopent-3-ene-1,1-dicarboxylate'
_symmetry_cell_setting           monoclinic
_symmetry_space_group_name_H-M   'P 21/c'
_symmetry_Int_Tables_number      14
_space_group_name_Hall           '-P 2ybc'
loop_
_symmetry_equiv_pos_site_id
_symmetry_equiv_pos_as_xyz
1 x,y,z
2 -x,1/2+y,1/2-z
3 -x,-y,-z
4 x,1/2-y,1/2+z
_cell_length_a                   12.7537(2)
_cell_length_b                   7.89180(10)
_cell_length_c                   20.7375(3)
_cell_angle_alpha                90
_cell_angle_beta                 107.786(2)
_cell_angle_gamma                90
_cell_volume                     1987.46
_exptl_crystal_colour            yellow
_exptl_crystal_description       needle
_cell_formula_units_Z            4
loop_
_atom_site_label
_atom_site_type_symbol
_atom_site_fract_x
_atom_site_fract_y
_atom_site_fract_z
O1 O 0.64920(7) 0.50536(14) 0.66172(5)
O2 O 0.46615(9) 0.71245(13) 0.57795(6)
N1 N 0.20663(8) 0.16046(13) 0.45882(5)
O3 O 0.61352(9) 0.31648(15) 0.57810(5)
N2 N 0.01276(8) 0.11943(13) 0.40879(5)
O4 O 0.40072(12) 0.67027(17) 0.66452(7)
C1 C 0.11572(10) 0.10752(15) 0.40856(6)
C2 C -0.00449(10) 0.19409(15) 0.46390(6)
C3 C 0.19141(10) 0.22876(15) 0.51359(6)
C4 C 0.08361(10) 0.25463(15) 0.51891(6)
C5 C 0.58237(10) 0.40951(16) 0.61385(6)
C6 C 0.29315(10) 0.28129(15) 0.56646(6)
C7 C 0.46337(9) 0.43096(16) 0.61292(6)
C8 C 0.13691(10) 0.03135(16) 0.34799(6)
C9 C 0.38150(10) 0.36959(17) 0.54511(6)
H1 H 0.351537 0.464495 0.515486
H2 H 0.416964 0.292187 0.521953
C10 C 0.44017(10) 0.61678(18) 0.62346(6)
C11 C 0.32505(10) 0.24743(17) 0.63302(6)
C12 C -0.11365(11) 0.21258(17) 0.46629(7)
H3 H -0.172263 0.172168 0.430851
C13 C 0.06015(11) 0.34007(17) 0.57260(7)
H4 H 0.117238 0.385537 0.607702
C14 C 0.43815(11) 0.31755(19) 0.66716(6)
H5 H 0.491763 0.226947 0.680879
H6 H 0.438868 0.383472 0.706773
C15 C 0.05215(12) -0.04648(19) 0.29792(7)
H7 H -0.017895 -0.052568 0.302745
C16 C -0.04581(12) 0.35622(19) 0.57324(8)
H8 H -0.060521 0.412023 0.609022
C17 C 0.24105(12) 0.03719(19) 0.34008(7)
H9 H 0.298827 0.087493 0.373299
C18 C -0.13309(12) 0.28951(19) 0.52042(8)
H10 H -0.204804 0.297846 0.522369
C19 C 0.27039(13) 0.1420(2) 0.67310(7)
H11 H 0.202696 0.097222 0.643629
H12 H 0.255146 0.210674 0.707402
H13 H 0.318122 0.050359 0.694082
C20 C 0.25949(14) -0.0316(2) 0.28290(8)
H14 H 0.329441 -0.026422 0.277900
C21 C 0.07105(15) -0.1147(2) 0.24123(7)
H15 H 0.013606 -0.165721 0.208030
C22 C 0.17471(16) -0.1076(2) 0.23344(7)
H16 H 0.187255 -0.153655 0.195177
C23 C 0.76427(11) 0.4981(2) 0.66630(9)
H17 H 0.774781 0.548271 0.626547
H18 H 0.787954 0.382113 0.669727
H19 H 0.806655 0.559228 0.705672
C24 C 0.44056(16) 0.8902(2) 0.57598(11)
H20 H 0.369118 0.909481 0.544147
H21 H 0.494747 0.952895 0.562336
H22 H 0.440739 0.927003 0.620141
loop_
_geom_bond_atom_site_label_1
_geom_bond_atom_site_label_2
_geom_bond_site_symmetry_1
_geom_bond_site_symmetry_2
O1 C5 1_555 1_555
O2 C10 1_555 1_555
N1 C1 1_555 1_555
O3 C5 1_555 1_555
N2 C1 1_555 1_555
O4 C10 1_555 1_555
C1 C8 1_555 1_555
C2 N2 1_555 1_555
C3 N1 1_555 1_555
C4 C2 1_555 1_555
C5 C7 1_555 1_555
C6 C3 1_555 1_555
C7 C9 1_555 1_555
C8 C15 1_555 1_555
C9 C6 1_555 1_555
H1 C9 1_555 1_555
H2 C9 1_555 1_555
C10 C7 1_555 1_555
C11 C6 1_555 1_555
C12 C2 1_555 1_555
H3 C12 1_555 1_555
C13 C4 1_555 1_555
H4 C13 1_555 1_555
C14 C7 1_555 1_555
H5 C14 1_555 1_555
H6 C14 1_555 1_555
C15 H7 1_555 1_555
C16 C13 1_555 1_555
H8 C16 1_555 1_555
C17 C8 1_555 1_555
H9 C17 1_555 1_555
C18 C12 1_555 1_555
H10 C18 1_555 1_555
C19 C11 1_555 1_555
H11 C19 1_555 1_555
H12 C19 1_555 1_555
H13 C19 1_555 1_555
C20 C17 1_555 1_555
H14 C20 1_555 1_555
C21 C15 1_555 1_555
H15 C21 1_555 1_555
C22 C20 1_555 1_555
H16 C22 1_555 1_555
C23 O1 1_555 1_555
H17 C23 1_555 1_555
H18 C23 1_555 1_555
H19 C23 1_555 1_555
C24 O2 1_555 1_555
H20 C24 1_555 1_555
H21 C24 1_555 1_555
H22 C24 1_555 1_555
C3 C4 1_555 1_555
C11 C14 1_555 1_555
C16 C18 1_555 1_555
C21 C22 1_555 1_555

#END
