
#######################################################################
#
#                 Cambridge Crystallographic Data Centre
#                                CCDC 
#
#######################################################################
#
# If this CIF has been generated from an entry in the Cambridge 
# Structural Database, then it will include bibliographic, chemical, 
# crystal, experimental, refinement or atomic coordinate data resulting 
# from the CCDC's data processing and validation procedures.
#
#######################################################################

data_LIBWOL
_chemical_formula_moiety         'C27 H25 N3 O4 S2'
_chemical_name_systematic        
'ethyl 4-{4-methyl-1-[(4-methylphenyl)sulfonyl]-2,5-dihydro-1H-pyrrol-3-yl}-2-(thiophen-2-yl)quinazoline-7-carboxylate'
_symmetry_cell_setting           monoclinic
_symmetry_space_group_name_H-M   'P 21/c'
_symmetry_Int_Tables_number      14
_space_group_name_Hall           '-P 2ybc'
loop_
_symmetry_equiv_pos_site_id
_symmetry_equiv_pos_as_xyz
1 x,y,z
2 -x,1/2+y,1/2-z
3 -x,-y,-z
4 x,1/2-y,1/2+z
_cell_length_a                   15.6685(19)
_cell_length_b                   8.9637(10)
_cell_length_c                   18.956(2)
_cell_angle_alpha                90
_cell_angle_beta                 105.154(12)
_cell_angle_gamma                90
_cell_volume                     2569.75
_exptl_crystal_colour            colorless
_exptl_crystal_description       block
_cell_formula_units_Z            4
loop_
_atom_site_label
_atom_site_type_symbol
_atom_site_fract_x
_atom_site_fract_y
_atom_site_fract_z
S1 S 0.09528(6) 0.29779(9) 0.27775(4)
O1 O 0.03388(16) 0.3418(3) 0.21139(11)
O2 O 0.64392(16) 1.0210(3) 0.39856(13)
N1 N 0.33389(17) 0.5329(3) 0.51115(12)
N2 N 0.47286(18) 0.6372(3) 0.57894(12)
O3 O 0.71237(17) 0.9463(3) 0.51138(14)
O4 O 0.14375(17) 0.1619(2) 0.28059(13)
N3 N 0.16752(16) 0.4311(3) 0.29878(12)
C1 C 0.5542(2) 0.7946(3) 0.51915(15)
H1 H 0.597621 0.805054 0.562920
C2 C 0.26424(18) 0.5740(3) 0.38600(13)
C3 C 0.4019(2) 0.5541(3) 0.57327(15)
C4 C 0.33897(19) 0.6056(3) 0.45115(13)
C5 C 0.20958(19) 0.6701(3) 0.34319(15)
C6 C 0.4787(2) 0.7094(3) 0.51709(14)
C7 C 0.56475(19) 0.8629(3) 0.45702(15)
C8 C 0.4118(2) 0.6968(3) 0.44996(14)
C9 C 0.6481(2) 0.9461(4) 0.46002(16)
C10 C 0.1385(2) 0.5874(3) 0.28978(16)
H2 H 0.081944 0.599923 0.300869
H3 H 0.133496 0.621498 0.240293
C11 C 0.4236(2) 0.7689(4) 0.38732(15)
H4 H 0.380153 0.761775 0.343361
C12 C 0.2056(2) 0.8356(3) 0.34440(19)
H5 H 0.248997 0.872501 0.386339
H6 H 0.147771 0.866506 0.346891
H7 H 0.217358 0.874737 0.300757
C13 C -0.0330(2) 0.3843(4) 0.34403(19)
H8 H -0.055339 0.444440 0.303423
C14 C 0.2398(2) 0.4160(3) 0.36673(15)
H9 H 0.289243 0.360622 0.358105
H10 H 0.219266 0.366995 0.404878
C15 C 0.4988(2) 0.8498(4) 0.39078(16)
H11 H 0.506397 0.896302 0.348978
C16 C 0.0401(2) 0.2926(3) 0.34715(17)
C17 C -0.0719(2) 0.3850(5) 0.4018(2)
H12 H -0.119999 0.447277 0.399619
C18 C 0.0713(2) 0.2027(4) 0.4073(2)
H13 H 0.118950 0.139513 0.409239
C19 C 0.7206(3) 1.1053(5) 0.3941(2)
H14 H 0.771864 1.040429 0.402522
H15 H 0.732629 1.183244 0.430807
C20 C -0.0411(3) 0.2957(5) 0.4629(2)
C21 C 0.0327(3) 0.2059(5) 0.4642(2)
H16 H 0.056002 0.146871 0.505066
C22 C 0.7026(3) 1.1711(5) 0.3207(2)
H17 H 0.692089 1.093020 0.284817
H18 H 0.752541 1.229346 0.316788
H19 H 0.651324 1.233947 0.312623
C23 C -0.0845(3) 0.3021(7) 0.5242(2)
H20 H -0.125882 0.383224 0.516179
H21 H -0.040372 0.317126 0.569413
H22 H -0.115032 0.210071 0.526290
C24 C 0.45986(10) 0.45508(17) 0.71288(7)
H23 H 0.515742 0.497589 0.728880
C25 C 0.38960(10) 0.47266(18) 0.63375(7)
S2 S 0.30185(11) 0.3784(2) 0.63503(8)
C26 C 0.31782(12) 0.3025(2) 0.71502(9)
H24 H 0.280469 0.242987 0.733889
C27 C 0.4161(2) 0.3592(4) 0.75234(17)
H25 H 0.444678 0.329715 0.799656
H26? H 0.279457 0.245117 0.733798
H27? H 0.444039 0.328283 0.799562
S3? S 0.4683(2) 0.4692(3) 0.70993(12)
C28? C 0.3064(5) 0.3683(10) 0.6423(4)
H28? H 0.256236 0.352445 0.604168
loop_
_geom_bond_atom_site_label_1
_geom_bond_atom_site_label_2
_geom_bond_site_symmetry_1
_geom_bond_site_symmetry_2
S1 O1 1_555 1_555
O2 C9 1_555 1_555
N1 C3 1_555 1_555
N2 C3 1_555 1_555
O3 C9 1_555 1_555
O4 S1 1_555 1_555
N3 S1 1_555 1_555
C1 H1 1_555 1_555
C2 C4 1_555 1_555
C3 C25 1_555 1_555
C4 N1 1_555 1_555
C5 C2 1_555 1_555
C6 N2 1_555 1_555
C7 C1 1_555 1_555
C8 C4 1_555 1_555
C9 C7 1_555 1_555
C10 N3 1_555 1_555
H2 C10 1_555 1_555
H3 C10 1_555 1_555
C11 C8 1_555 1_555
H4 C11 1_555 1_555
C12 C5 1_555 1_555
H5 C12 1_555 1_555
H6 C12 1_555 1_555
H7 C12 1_555 1_555
C13 H8 1_555 1_555
C14 N3 1_555 1_555
H9 C14 1_555 1_555
H10 C14 1_555 1_555
C15 C7 1_555 1_555
H11 C15 1_555 1_555
C16 S1 1_555 1_555
C17 C13 1_555 1_555
H12 C17 1_555 1_555
C18 C16 1_555 1_555
H13 C18 1_555 1_555
C19 O2 1_555 1_555
H14 C19 1_555 1_555
H15 C19 1_555 1_555
C20 C17 1_555 1_555
C21 C18 1_555 1_555
H16 C21 1_555 1_555
C22 C19 1_555 1_555
H17 C22 1_555 1_555
H18 C22 1_555 1_555
H19 C22 1_555 1_555
C23 C20 1_555 1_555
H20 C23 1_555 1_555
H21 C23 1_555 1_555
H22 C23 1_555 1_555
C24 H23 1_555 1_555
C25 C24 1_555 1_555
S2 C25 1_555 1_555
C26 S2 1_555 1_555
H24 C26 1_555 1_555
C27 C24 1_555 1_555
H25 C27 1_555 1_555
C1 C6 1_555 1_555
C2 C14 1_555 1_555
C5 C10 1_555 1_555
C6 C8 1_555 1_555
C11 C15 1_555 1_555
C13 C16 1_555 1_555
C20 C21 1_555 1_555
C26 C27 1_555 1_555

#END
