
#######################################################################
#
#                 Cambridge Crystallographic Data Centre
#                                CCDC 
#
#######################################################################
#
# If this CIF has been generated from an entry in the Cambridge 
# Structural Database, then it will include bibliographic, chemical, 
# crystal, experimental, refinement or atomic coordinate data resulting 
# from the CCDC's data processing and validation procedures.
#
#######################################################################

data_LIBZII
_chemical_formula_moiety         'C18 H19 N3'
_chemical_name_systematic        
1-((E)-((E)-1,2-diphenylvinyl)diazenyl)pyrrolidine
_symmetry_cell_setting           monoclinic
_symmetry_space_group_name_H-M   'P 21'
_symmetry_Int_Tables_number      4
_space_group_name_Hall           'P 2yb'
loop_
_symmetry_equiv_pos_site_id
_symmetry_equiv_pos_as_xyz
1 x,y,z
2 -x,1/2+y,-z
_cell_length_a                   8.6127(5)
_cell_length_b                   5.9461(3)
_cell_length_c                   15.2553(8)
_cell_angle_alpha                90
_cell_angle_beta                 104.655(6)
_cell_angle_gamma                90
_cell_volume                     755.837
_exptl_crystal_colour            colorless
_exptl_crystal_description       needle
_cell_formula_units_Z            2
loop_
_atom_site_label
_atom_site_type_symbol
_atom_site_fract_x
_atom_site_fract_y
_atom_site_fract_z
N1 N 0.5568(3) 0.6022(4) 0.80432(14)
N2 N 0.5030(3) 0.7447(4) 0.85221(15)
N3 N 0.6177(3) 0.8725(5) 0.90181(16)
C1 C 0.4373(3) 0.4622(5) 0.75042(16)
C2 C 0.4935(3) 0.3044(5) 0.70314(18)
H1 H 0.607207 0.294161 0.716684
C3 C 0.2642(3) 0.4921(5) 0.74905(16)
C4 C 0.1840(3) 0.6919(5) 0.72001(18)
H2 H 0.240315 0.814192 0.702409
C5 C 0.0224(4) 0.7140(6) 0.7166(2)
H3 H -0.031761 0.850177 0.695280
C6 C -0.0606(4) 0.5394(7) 0.7438(2)
H4 H -0.171051 0.555831 0.742065
C7 C 0.0180(4) 0.3425(6) 0.7733(2)
H5 H -0.038853 0.221964 0.791782
C8 C 0.1798(4) 0.3168(5) 0.77661(19)
H6 H 0.232956 0.179713 0.797653
C9 C 0.4078(3) 0.1458(5) 0.63413(16)
C10 C 0.2541(3) 0.1846(5) 0.57840(18)
H7 H 0.198175 0.317742 0.586318
C11 C 0.1826(4) 0.0324(6) 0.5121(2)
H8 H 0.078104 0.061394 0.474963
C12 C 0.2634(4) -0.1646(6) 0.4993(2)
H9 H 0.213959 -0.269664 0.453895
C13 C 0.4149(4) -0.2044(5) 0.5531(2)
H10 H 0.470198 -0.337947 0.544992
C14 C 0.4875(4) -0.0504(5) 0.61939(18)
H11 H 0.593010 -0.078741 0.655295
C15 C 0.5776(4) 1.0577(6) 0.9552(2)
H12 H 0.555780 1.002768 1.012194
H13 H 0.483537 1.143305 0.920374
C16 C 0.7301(4) 1.1995(6) 0.9738(2)
H14 H 0.722532 1.315935 0.926531
H15 H 0.749581 1.274023 1.033670
C17 C 0.8626(4) 1.0325(6) 0.9721(2)
H16 H 0.899699 0.955426 1.031238
H17 H 0.955111 1.108299 0.957327
C18 C 0.7840(3) 0.8672(6) 0.8981(2)
H18 H 0.795783 0.916853 0.838175
H19 H 0.830182 0.714681 0.911110
loop_
_geom_bond_atom_site_label_1
_geom_bond_atom_site_label_2
_geom_bond_site_symmetry_1
_geom_bond_site_symmetry_2
N1 N2 1_555 1_555
N2 N3 1_555 1_555
N3 C15 1_555 1_555
C1 N1 1_555 1_555
C2 C1 1_555 1_555
H1 C2 1_555 1_555
C3 C1 1_555 1_555
C4 C3 1_555 1_555
H2 C4 1_555 1_555
C5 C4 1_555 1_555
H3 C5 1_555 1_555
C6 C5 1_555 1_555
H4 C6 1_555 1_555
C7 C6 1_555 1_555
H5 C7 1_555 1_555
C8 C3 1_555 1_555
H6 C8 1_555 1_555
C9 C2 1_555 1_555
C10 C9 1_555 1_555
H7 C10 1_555 1_555
C11 C10 1_555 1_555
H8 C11 1_555 1_555
C12 C11 1_555 1_555
H9 C12 1_555 1_555
C13 C12 1_555 1_555
H10 C13 1_555 1_555
C14 C9 1_555 1_555
H11 C14 1_555 1_555
C15 H12 1_555 1_555
H13 C15 1_555 1_555
C16 C15 1_555 1_555
H14 C16 1_555 1_555
H15 C16 1_555 1_555
C17 C16 1_555 1_555
H16 C17 1_555 1_555
H17 C17 1_555 1_555
C18 N3 1_555 1_555
H18 C18 1_555 1_555
H19 C18 1_555 1_555
C7 C8 1_555 1_555
C13 C14 1_555 1_555
C17 C18 1_555 1_555

#END
