
#######################################################################
#
#                 Cambridge Crystallographic Data Centre
#                                CCDC 
#
#######################################################################
#
# If this CIF has been generated from an entry in the Cambridge 
# Structural Database, then it will include bibliographic, chemical, 
# crystal, experimental, refinement or atomic coordinate data resulting 
# from the CCDC's data processing and validation procedures.
#
#######################################################################

data_LICDUY
_chemical_formula_moiety         'C20 H20 Cl1 N3 O2'
_chemical_name_systematic        
2-(3-Chlorophenyl)-4-(((2-hydroxyethyl)amino)(4-methylphenyl)methylene)-5-methyl-2,4-dihydro-3H-pyrazol-3-one
_symmetry_cell_setting           triclinic
_symmetry_space_group_name_H-M   'P -1'
_symmetry_Int_Tables_number      2
_space_group_name_Hall           '-P 1'
loop_
_symmetry_equiv_pos_site_id
_symmetry_equiv_pos_as_xyz
1 x,y,z
2 -x,-y,-z
_cell_length_a                   7.0934(15)
_cell_length_b                   8.9452(19)
_cell_length_c                   15.861(3)
_cell_angle_alpha                89.387(4)
_cell_angle_beta                 83.801(4)
_cell_angle_gamma                66.970(4)
_cell_volume                     920.236
_exptl_crystal_colour            white
_exptl_crystal_description       'Rectangular plate'
_chemical_melting_point          '433 K'
_cell_formula_units_Z            2
loop_
_atom_site_label
_atom_site_type_symbol
_atom_site_fract_x
_atom_site_fract_y
_atom_site_fract_z
Cl1 Cl 0.58161(9) 0.59427(7) 0.25748(4)
N1 N 0.0908(3) 0.3138(2) 0.22209(11)
N2 N 0.1006(3) 0.2781(2) 0.30864(11)
C1 C -0.0045(3) 0.1866(3) 0.32467(14)
C2 C -0.0886(3) 0.1595(3) 0.25102(14)
O1 O -0.0636(2) 0.25835(19) 0.10863(9)
C3 C -0.0271(3) 0.2469(3) 0.18496(14)
C4 C 0.1916(3) 0.4111(3) 0.18588(14)
C5 C 0.3267(3) 0.4455(3) 0.23225(14)
H1 H 0.3530 0.4025 0.2854
C6 C 0.4210(3) 0.5447(3) 0.19769(15)
C7 C 0.3884(4) 0.6084(3) 0.11807(15)
H2 H 0.4531 0.6752 0.0960
C8 C 0.2566(4) 0.5701(3) 0.07206(15)
H3 H 0.2349 0.6098 0.0180
C9 C 0.1572(3) 0.4736(3) 0.10560(15)
H4 H 0.0673 0.4504 0.0746
C10 C -0.0262(4) 0.1313(3) 0.41276(14)
H5 H 0.0461 0.1717 0.4482
H6 H 0.0309 0.0146 0.4124
H7 H -0.1695 0.1718 0.4344
C11 C -0.2102(3) 0.0710(3) 0.23816(13)
C12 C -0.2403(3) -0.0418(3) 0.30248(13)
C13 C -0.0757(3) -0.1869(3) 0.31334(14)
H8 H 0.0506 -0.2116 0.2809
C14 C -0.0999(4) -0.2953(3) 0.37277(15)
H9 H 0.0107 -0.3928 0.3791
C15 C -0.2853(3) -0.2608(3) 0.42263(14)
C16 C -0.4493(3) -0.1149(3) 0.41121(15)
H10 H -0.5751 -0.0898 0.4442
C17 C -0.4281(3) -0.0066(3) 0.35165(14)
H11 H -0.5395 0.0898 0.3445
C18 C -0.3095(4) -0.3790(3) 0.48727(16)
H12 H -0.2168 -0.4875 0.4692
H13 H -0.4488 -0.3722 0.4925
H14 H -0.2784 -0.3526 0.5412
N3 N -0.2930(3) 0.0853(2) 0.16632(11)
H15 H -0.2799 0.1583 0.1333
C19 C -0.4033(4) -0.0062(3) 0.13588(14)
H16 H -0.5360 0.0681 0.1207
H17 H -0.4274 -0.0740 0.1804
C20 C -0.2790(4) -0.1114(3) 0.05936(15)
H18 H -0.1509 -0.1922 0.0751
H19 H -0.3560 -0.1671 0.0363
O2 O -0.2377(3) -0.0073(2) -0.00186(11)
H20 H -0.135(6) -0.066(4) -0.031(2)
loop_
_geom_bond_atom_site_label_1
_geom_bond_atom_site_label_2
_geom_bond_site_symmetry_1
_geom_bond_site_symmetry_2
Cl1 C6 1_555 1_555
N1 N2 1_555 1_555
N2 C1 1_555 1_555
C1 C2 1_555 1_555
C2 C3 1_555 1_555
O1 C3 1_555 1_555
C3 N1 1_555 1_555
C4 N1 1_555 1_555
C5 C4 1_555 1_555
H1 C5 1_555 1_555
C6 C5 1_555 1_555
C7 C6 1_555 1_555
H2 C7 1_555 1_555
C8 C7 1_555 1_555
H3 C8 1_555 1_555
C9 C4 1_555 1_555
H4 C9 1_555 1_555
C10 C1 1_555 1_555
H5 C10 1_555 1_555
H6 C10 1_555 1_555
H7 C10 1_555 1_555
C11 C2 1_555 1_555
C12 C11 1_555 1_555
C13 C12 1_555 1_555
H8 C13 1_555 1_555
C14 C13 1_555 1_555
H9 C14 1_555 1_555
C15 C14 1_555 1_555
C16 C15 1_555 1_555
H10 C16 1_555 1_555
C17 C12 1_555 1_555
H11 C17 1_555 1_555
C18 C15 1_555 1_555
H12 C18 1_555 1_555
H13 C18 1_555 1_555
H14 C18 1_555 1_555
N3 C11 1_555 1_555
H15 N3 1_555 1_555
C19 N3 1_555 1_555
H16 C19 1_555 1_555
H17 C19 1_555 1_555
C20 C19 1_555 1_555
H18 C20 1_555 1_555
H19 C20 1_555 1_555
O2 C20 1_555 1_555
H20 O2 1_555 1_555
C8 C9 1_555 1_555
C16 C17 1_555 1_555

#END
