
#######################################################################
#
#                 Cambridge Crystallographic Data Centre
#                                CCDC 
#
#######################################################################
#
# If this CIF has been generated from an entry in the Cambridge 
# Structural Database, then it will include bibliographic, chemical, 
# crystal, experimental, refinement or atomic coordinate data resulting 
# from the CCDC's data processing and validation procedures.
#
#######################################################################

data_LICHUB
_chemical_formula_moiety         'C11 H12 I1 N1 O4'
_chemical_name_systematic        
'Ethyl N-(2-(hydroxyacetyl)-4-iodophenyl)carbamate'
_symmetry_cell_setting           monoclinic
_symmetry_space_group_name_H-M   'P 21/n'
_symmetry_Int_Tables_number      14
_space_group_name_Hall           '-P 2yn'
loop_
_symmetry_equiv_pos_site_id
_symmetry_equiv_pos_as_xyz
1 x,y,z
2 1/2-x,1/2+y,1/2-z
3 -x,-y,-z
4 1/2+x,1/2-y,1/2+z
_cell_length_a                   4.7535(2)
_cell_length_b                   15.7179(4)
_cell_length_c                   16.0700(5)
_cell_angle_alpha                90
_cell_angle_beta                 97.123(2)
_cell_angle_gamma                90
_cell_volume                     1191.4
_exptl_crystal_colour            colorless
_exptl_crystal_description       lath
_chemical_melting_point          '391 K'
_cell_formula_units_Z            4
_exptl_crystal_recrystallization_method ethanol
loop_
_atom_site_label
_atom_site_type_symbol
_atom_site_fract_x
_atom_site_fract_y
_atom_site_fract_z
I1 I 0.10231(6) 0.045792(18) 0.639545(18)
O1 O 0.8879(7) 0.3011(2) 0.37346(19)
O2 O 1.2042(7) 0.3917(2) 0.44328(19)
O3 O 1.0130(7) 0.3681(2) 0.67550(19)
O4 O 0.8062(7) 0.4056(2) 0.8138(2)
N1 N 0.9391(8) 0.3151(2) 0.5174(2)
C1 C 0.7438(9) 0.2572(3) 0.5418(3)
C2 C 0.6837(9) 0.2599(3) 0.6267(3)
C3 C 0.4910(9) 0.1996(3) 0.6528(3)
C4 C 0.3688(9) 0.1396(3) 0.5981(3)
C5 C 0.4244(9) 0.1379(3) 0.5151(3)
C6 C 0.6094(10) 0.1966(3) 0.4878(3)
C7 C 1.0001(9) 0.3320(3) 0.4381(3)
C8 C 1.2883(10) 0.4218(3) 0.3647(3)
C9 C 1.5012(10) 0.4911(3) 0.3860(3)
C10 C 0.8122(9) 0.3226(3) 0.6876(3)
C11 C 0.6929(10) 0.3340(3) 0.7701(3)
H1 H 1.0352 0.3445 0.5580
H2 H 0.4461 0.2009 0.7088
H3 H 0.3356 0.0966 0.4773
H4 H 0.6454 0.1955 0.4309
H5 H 1.1218 0.4440 0.3280
H6 H 1.3730 0.3749 0.3350
H7 H 1.4151 0.5368 0.4157
H8 H 1.5625 0.5137 0.3343
H9 H 1.6653 0.4681 0.4219
H10 H 0.4842 0.3398 0.7590
H11 H 0.7356 0.2827 0.8052
H12 H 0.9555 0.4206 0.7948
loop_
_geom_bond_atom_site_label_1
_geom_bond_atom_site_label_2
_geom_bond_site_symmetry_1
_geom_bond_site_symmetry_2
I1 C4 1_555 1_555
O1 C7 1_555 1_555
O2 C7 1_555 1_555
O3 C10 1_555 1_555
O4 C11 1_555 1_555
N1 C1 1_555 1_555
C1 C2 1_555 1_555
C2 C3 1_555 1_555
C3 C4 1_555 1_555
C4 C5 1_555 1_555
C5 C6 1_555 1_555
C6 C1 1_555 1_555
C7 N1 1_555 1_555
C8 O2 1_555 1_555
C9 C8 1_555 1_555
C10 C2 1_555 1_555
C11 C10 1_555 1_555
H1 N1 1_555 1_555
H2 C3 1_555 1_555
H3 C5 1_555 1_555
H4 C6 1_555 1_555
H5 C8 1_555 1_555
H6 C8 1_555 1_555
H7 C9 1_555 1_555
H8 C9 1_555 1_555
H9 C9 1_555 1_555
H10 C11 1_555 1_555
H11 C11 1_555 1_555
H12 O4 1_555 1_555

#END
