
#######################################################################
#
#                 Cambridge Crystallographic Data Centre
#                                CCDC 
#
#######################################################################
#
# If this CIF has been generated from an entry in the Cambridge 
# Structural Database, then it will include bibliographic, chemical, 
# crystal, experimental, refinement or atomic coordinate data resulting 
# from the CCDC's data processing and validation procedures.
#
#######################################################################

data_LICJOZ
_chemical_formula_moiety         'C24 H34 O3'
_chemical_name_systematic        
{4-[3-(benzyloxy)propyl]-5-methyl-6-methylidene-1,2,4,5,6,7,8,8a-octahydroazulene-4,5-diyl}dimethanol
_symmetry_cell_setting           monoclinic
_symmetry_space_group_name_H-M   'C 2/c'
_symmetry_Int_Tables_number      15
_space_group_name_Hall           '-C 2yn'
loop_
_symmetry_equiv_pos_site_id
_symmetry_equiv_pos_as_xyz
1 x,y,z
2 -x,y,1/2-z
3 1/2+x,1/2+y,z
4 1/2-x,1/2+y,1/2-z
5 -x,-y,-z
6 x,-y,1/2+z
7 1/2-x,1/2-y,-z
8 1/2+x,1/2-y,1/2+z
_cell_length_a                   20.658(3)
_cell_length_b                   8.0271(11)
_cell_length_c                   26.312(4)
_cell_angle_alpha                90
_cell_angle_beta                 103.436(10)
_cell_angle_gamma                90
_cell_volume                     4243.74
_exptl_crystal_colour            colorless
_exptl_crystal_description       block
_cell_formula_units_Z            8
loop_
_atom_site_label
_atom_site_type_symbol
_atom_site_fract_x
_atom_site_fract_y
_atom_site_fract_z
O1 O 0.76272(16) 0.9407(4) 0.19892(12)
H1 H 0.762(2) 1.019(6) 0.228(2)
O2 O 0.72681(16) 0.6452(4) 0.21974(10)
H2 H 0.750(2) 0.750(6) 0.2236(18)
O3 O 0.50120(13) 0.3037(3) 0.17332(11)
C1 C 0.4056(2) 0.0070(7) 0.21499(17)
H3 H 0.4121 0.0522 0.2483
C2 C 0.3843(3) -0.1561(7) 0.2063(2)
H4 H 0.3762 -0.2194 0.2337
C3 C 0.3753(2) -0.2229(6) 0.1589(3)
H5 H 0.3604 -0.3321 0.1532
C4 C 0.3879(3) -0.1308(7) 0.1189(2)
H6 H 0.3825 -0.1777 0.0858
C5 C 0.4086(2) 0.0300(6) 0.12725(18)
H7 H 0.4170 0.0918 0.0996
C6 C 0.41737(18) 0.1026(5) 0.17499(16)
C7 C 0.4373(2) 0.2809(5) 0.1830(2)
H8 H 0.4053 0.3505 0.1596
H9 H 0.4379 0.3135 0.2186
C8 C 0.51663(19) 0.4740(5) 0.16736(16)
H10 H 0.5137 0.5359 0.1984
H11 H 0.4851 0.5215 0.1377
C9 C 0.58536(19) 0.4858(5) 0.15892(16)
H12 H 0.5893 0.4121 0.1306
H13 H 0.6169 0.4489 0.1902
C10 C 0.60283(18) 0.6631(4) 0.14584(14)
H14 H 0.6071 0.7318 0.1768
H15 H 0.5664 0.7075 0.1192
C11 C 0.66744(17) 0.6766(4) 0.12641(12)
C12 C 0.65913(17) 0.5771(4) 0.07586(13)
C13 C 0.7022(2) 0.4662(5) 0.06529(16)
H16 H 0.7435 0.4446 0.0875
C14 C 0.6775(2) 0.3800(6) 0.01408(17)
H17 H 0.6655 0.2653 0.0191
H18 H 0.7106 0.3821 -0.0067
C15 C 0.6177(3) 0.4806(7) -0.01092(18)
H19 H 0.5814 0.4081 -0.0276
H20 H 0.6280 0.5545 -0.0371
C16 C 0.5985(2) 0.5799(5) 0.03191(15)
H21 H 0.5660 0.5104 0.0439
C17 C 0.5624(3) 0.7382(6) 0.01378(18)
H22 H 0.5275 0.7535 0.0324
H23 H 0.5413 0.7278 -0.0231
C18 C 0.6072(2) 0.8943(5) 0.02175(15)
H24 H 0.6480 0.8708 0.0108
H25 H 0.5845 0.9850 0.0005
C19 C 0.6234(2) 0.9447(4) 0.07831(14)
C20 C 0.68369(18) 0.8677(4) 0.11614(13)
C21 C 0.74514(19) 0.8820(5) 0.09244(15)
H26 H 0.7537 0.9972 0.0868
H27 H 0.7368 0.8234 0.0598
H28 H 0.7831 0.8341 0.1161
C22 C 0.72435(19) 0.5947(5) 0.16735(13)
H29 H 0.7191 0.4746 0.1650
H30 H 0.7664 0.6220 0.1590
C23 C 0.6987(2) 0.9764(5) 0.16559(15)
H31 H 0.6971 1.0928 0.1555
H32 H 0.6646 0.9580 0.1849
C24 C 0.5830(2) 1.0519(5) 0.09301(19)
H33 H 0.5464 1.0931 0.0687
H34 H 0.5912 1.0865 0.1277
loop_
_geom_bond_atom_site_label_1
_geom_bond_atom_site_label_2
_geom_bond_site_symmetry_1
_geom_bond_site_symmetry_2
O1 H1 1_555 1_555
O2 H2 1_555 1_555
O3 C7 1_555 1_555
C1 H3 1_555 1_555
C2 C1 1_555 1_555
H4 C2 1_555 1_555
C3 C2 1_555 1_555
H5 C3 1_555 1_555
C4 C3 1_555 1_555
H6 C4 1_555 1_555
C5 C4 1_555 1_555
H7 C5 1_555 1_555
C6 C1 1_555 1_555
C7 C6 1_555 1_555
H8 C7 1_555 1_555
H9 C7 1_555 1_555
C8 O3 1_555 1_555
H10 C8 1_555 1_555
H11 C8 1_555 1_555
C9 C8 1_555 1_555
H12 C9 1_555 1_555
H13 C9 1_555 1_555
C10 C9 1_555 1_555
H14 C10 1_555 1_555
H15 C10 1_555 1_555
C11 C10 1_555 1_555
C12 C11 1_555 1_555
C13 C12 1_555 1_555
H16 C13 1_555 1_555
C14 C13 1_555 1_555
H17 C14 1_555 1_555
H18 C14 1_555 1_555
C15 C14 1_555 1_555
H19 C15 1_555 1_555
H20 C15 1_555 1_555
C16 C12 1_555 1_555
H21 C16 1_555 1_555
C17 C16 1_555 1_555
H22 C17 1_555 1_555
H23 C17 1_555 1_555
C18 C17 1_555 1_555
H24 C18 1_555 1_555
H25 C18 1_555 1_555
C19 C18 1_555 1_555
C20 C11 1_555 1_555
C21 C20 1_555 1_555
H26 C21 1_555 1_555
H27 C21 1_555 1_555
H28 C21 1_555 1_555
C22 O2 1_555 1_555
H29 C22 1_555 1_555
H30 C22 1_555 1_555
C23 O1 1_555 1_555
H31 C23 1_555 1_555
H32 C23 1_555 1_555
C24 C19 1_555 1_555
H33 C24 1_555 1_555
H34 C24 1_555 1_555
C5 C6 1_555 1_555
C11 C22 1_555 1_555
C15 C16 1_555 1_555
C19 C20 1_555 1_555
C20 C23 1_555 1_555

#END
