
#######################################################################
#
#                 Cambridge Crystallographic Data Centre
#                                CCDC 
#
#######################################################################
#
# If this CIF has been generated from an entry in the Cambridge 
# Structural Database, then it will include bibliographic, chemical, 
# crystal, experimental, refinement or atomic coordinate data resulting 
# from the CCDC's data processing and validation procedures.
#
#######################################################################

data_LICJIT
_chemical_formula_moiety         'C22 H26 O5'
_chemical_name_systematic        
9b-[3-(benzyloxy)propyl]octahydro-3H-5,9a-epoxyazuleno[4,5-c]furan-3,4(1H)-dione
_symmetry_cell_setting           monoclinic
_symmetry_space_group_name_H-M   'P 21'
_symmetry_Int_Tables_number      4
_space_group_name_Hall           'P 2yb'
loop_
_symmetry_equiv_pos_site_id
_symmetry_equiv_pos_as_xyz
1 x,y,z
2 -x,1/2+y,-z
_cell_length_a                   7.0443(3)
_cell_length_b                   24.1240(10)
_cell_length_c                   11.1252(4)
_cell_angle_alpha                90
_cell_angle_beta                 99.1940(10)
_cell_angle_gamma                90
_cell_volume                     1866.29
_exptl_crystal_colour            colorless
_exptl_crystal_description       block
_cell_formula_units_Z            4
loop_
_atom_site_label
_atom_site_type_symbol
_atom_site_fract_x
_atom_site_fract_y
_atom_site_fract_z
O1 O 0.8434(2) 0.26678(7) 0.65429(15)
O2 O 0.7381(2) 0.16058(7) 0.78150(14)
O3 O 0.6865(2) 0.24622(6) 0.47013(13)
O4 O 0.4397(2) 0.11413(6) 0.52544(13)
C1 C 0.1038(4) 0.45781(10) 0.4676(2)
H1 H 0.1731 0.4936 0.4694
H2 H 0.0480 0.4549 0.5436
C2 C -0.0227(4) 0.47360(9) 0.2460(2)
H3 H 0.1028 0.4847 0.2352
C3 C -0.1698(4) 0.47349(10) 0.1480(2)
H4 H -0.1448 0.4842 0.0698
C4 C -0.3523(4) 0.45793(11) 0.1628(3)
H5 H -0.4530 0.4580 0.0949
C5 C -0.3896(4) 0.44232(11) 0.2745(3)
H6 H -0.5158 0.4315 0.2846
C6 C -0.2416(4) 0.44230(10) 0.3738(2)
H7 H -0.2677 0.4316 0.4517
C7 C -0.0572(3) 0.45762(9) 0.3602(2)
O5 O 0.2378(2) 0.41354(6) 0.46395(15)
C8 C 0.1712(3) 0.36203(9) 0.5034(2)
H8 H 0.0478 0.3519 0.4524
H9 H 0.1499 0.3650 0.5890
C9 C 0.3208(3) 0.31845(8) 0.4926(2)
H10 H 0.4361 0.3254 0.5543
H11 H 0.3596 0.3207 0.4111
C10 C 0.2424(3) 0.26061(8) 0.51135(19)
H12 H 0.1355 0.2531 0.4441
H13 H 0.1877 0.2608 0.5880
C11 C 0.3873(3) 0.21229(8) 0.51731(17)
C12 C 0.2879(3) 0.15533(8) 0.50873(18)
C13 C 0.1587(3) 0.14114(9) 0.3897(2)
H14 H 0.2349 0.1274 0.3284
H15 H 0.0831 0.1738 0.3562
C14 C 0.0272(4) 0.09554(10) 0.4264(2)
H16 H -0.0911 0.0918 0.3656
H17 H 0.0943 0.0594 0.4358
C15 C -0.0185(3) 0.11634(10) 0.5477(2)
H18 H -0.0569 0.0852 0.5967
H19 H -0.1243 0.1438 0.5348
C16 C 0.1682(3) 0.14327(9) 0.61204(19)
H20 H 0.1399 0.1784 0.6536
C17 C 0.3008(3) 0.10559(9) 0.6996(2)
H21 H 0.3106 0.1188 0.7847
H22 H 0.2537 0.0669 0.6948
C18 C 0.4929(3) 0.11018(9) 0.65498(19)
H23 H 0.5723 0.0762 0.6774
C19 C 0.6046(3) 0.16156(9) 0.69853(18)
C20 C 0.5398(3) 0.21641(8) 0.63406(17)
H24 H 0.4874 0.2409 0.6935
C21 C 0.7071(3) 0.24565(9) 0.59343(19)
C22 C 0.5136(3) 0.21680(9) 0.41741(18)
H25 H 0.5462 0.1794 0.3901
H26 H 0.4451 0.2374 0.3465
O6 O 0.4040(2) 0.32011(7) -0.20383(14)
O7 O 0.3571(3) 0.20612(7) -0.09697(15)
O8 O 0.3328(2) 0.36721(6) -0.04507(13)
O9 O 0.17567(19) 0.25607(6) 0.15283(12)
C23 C -0.4249(3) 0.49506(9) -0.3304(2)
H27 H -0.5189 0.4690 -0.3756
H28 H -0.4013 0.5250 -0.3870
C24 C -0.4027(5) 0.55666(11) -0.1470(2)
H29 H -0.2762 0.5662 -0.1588
C25 C -0.4783(6) 0.57958(11) -0.0510(3)
H30 H -0.4032 0.6047 0.0027
C26 C -0.6620(6) 0.56631(12) -0.0328(3)
H31 H -0.7141 0.5823 0.0328
C27 C -0.7684(5) 0.52987(14) -0.1101(3)
H32 H -0.8949 0.5204 -0.0981
C28 C -0.6926(4) 0.50671(10) -0.2058(2)
H33 H -0.7678 0.4813 -0.2585
C29 C -0.5097(3) 0.51988(9) -0.2259(2)
O10 O -0.2487(2) 0.46630(6) -0.29039(14)
C30 C -0.2825(3) 0.41741(9) -0.2259(2)
H34 H -0.3589 0.3909 -0.2820
H35 H -0.3570 0.4267 -0.1604
C31 C -0.0945(3) 0.39108(9) -0.1716(2)
H36 H -0.0051 0.4199 -0.1326
H37 H -0.0351 0.3733 -0.2367
C32 C -0.1288(3) 0.34777(9) -0.07726(19)
H38 H -0.2134 0.3186 -0.1193
H39 H -0.1995 0.3658 -0.0178
C33 C 0.0498(3) 0.31965(8) -0.00665(18)
C34 C -0.0009(3) 0.28333(9) 0.09756(18)
C35 C -0.0860(3) 0.31548(10) 0.19550(18)
H40 H -0.0116 0.3084 0.2773
H41 H -0.0865 0.3558 0.1791
C36 C -0.2911(4) 0.29338(11) 0.1867(2)
H42 H -0.3394 0.2976 0.2650
H43 H -0.3795 0.3126 0.1219
C37 C -0.2692(3) 0.23288(11) 0.1557(2)
H44 H -0.3955 0.2160 0.1241
H45 H -0.2079 0.2117 0.2278
C38 C -0.1396(3) 0.23436(9) 0.05700(19)
H46 H -0.2174 0.2420 -0.0246
C39 C -0.0077(3) 0.18449(9) 0.0504(2)
H47 H -0.0327 0.1669 -0.0310
H48 H -0.0243 0.1565 0.1130
C40 C 0.1932(3) 0.21020(9) 0.07489(18)
H49 H 0.2897 0.1829 0.1153
C41 C 0.2492(3) 0.23121(9) -0.04316(19)
C42 C 0.1562(3) 0.28568(8) -0.09293(17)
H50 H 0.0643 0.2775 -0.1690
C43 C 0.3095(3) 0.32451(9) -0.12404(18)
C44 C 0.2042(3) 0.36240(9) 0.04413(19)
H51 H 0.1441 0.3987 0.0562
H52 H 0.2757 0.3498 0.1233
loop_
_geom_bond_atom_site_label_1
_geom_bond_atom_site_label_2
_geom_bond_site_symmetry_1
_geom_bond_site_symmetry_2
O1 C21 1_555 1_555
O2 C19 1_555 1_555
O3 C21 1_555 1_555
O4 C12 1_555 1_555
C1 H1 1_555 1_555
H2 C1 1_555 1_555
C2 H3 1_555 1_555
C3 C2 1_555 1_555
H4 C3 1_555 1_555
C4 C3 1_555 1_555
H5 C4 1_555 1_555
C5 C4 1_555 1_555
H6 C5 1_555 1_555
C6 C5 1_555 1_555
H7 C6 1_555 1_555
C7 C1 1_555 1_555
O5 C1 1_555 1_555
C8 O5 1_555 1_555
H8 C8 1_555 1_555
H9 C8 1_555 1_555
C9 C8 1_555 1_555
H10 C9 1_555 1_555
H11 C9 1_555 1_555
C10 C9 1_555 1_555
H12 C10 1_555 1_555
H13 C10 1_555 1_555
C11 C10 1_555 1_555
C12 C11 1_555 1_555
C13 C12 1_555 1_555
H14 C13 1_555 1_555
H15 C13 1_555 1_555
C14 C13 1_555 1_555
H16 C14 1_555 1_555
H17 C14 1_555 1_555
C15 C14 1_555 1_555
H18 C15 1_555 1_555
H19 C15 1_555 1_555
C16 C12 1_555 1_555
H20 C16 1_555 1_555
C17 C16 1_555 1_555
H21 C17 1_555 1_555
H22 C17 1_555 1_555
C18 O4 1_555 1_555
H23 C18 1_555 1_555
C19 C18 1_555 1_555
C20 C11 1_555 1_555
H24 C20 1_555 1_555
C21 C20 1_555 1_555
C22 O3 1_555 1_555
H25 C22 1_555 1_555
H26 C22 1_555 1_555
O6 C43 1_555 1_555
O7 C41 1_555 1_555
O8 C43 1_555 1_555
O9 C34 1_555 1_555
C23 H27 1_555 1_555
H28 C23 1_555 1_555
C24 H29 1_555 1_555
C25 C24 1_555 1_555
H30 C25 1_555 1_555
C26 C25 1_555 1_555
H31 C26 1_555 1_555
C27 C26 1_555 1_555
H32 C27 1_555 1_555
C28 C27 1_555 1_555
H33 C28 1_555 1_555
C29 C23 1_555 1_555
O10 C23 1_555 1_555
C30 O10 1_555 1_555
H34 C30 1_555 1_555
H35 C30 1_555 1_555
C31 C30 1_555 1_555
H36 C31 1_555 1_555
H37 C31 1_555 1_555
C32 C31 1_555 1_555
H38 C32 1_555 1_555
H39 C32 1_555 1_555
C33 C32 1_555 1_555
C34 C33 1_555 1_555
C35 C34 1_555 1_555
H40 C35 1_555 1_555
H41 C35 1_555 1_555
C36 C35 1_555 1_555
H42 C36 1_555 1_555
H43 C36 1_555 1_555
C37 C36 1_555 1_555
H44 C37 1_555 1_555
H45 C37 1_555 1_555
C38 C34 1_555 1_555
H46 C38 1_555 1_555
C39 C38 1_555 1_555
H47 C39 1_555 1_555
H48 C39 1_555 1_555
C40 O9 1_555 1_555
H49 C40 1_555 1_555
C41 C40 1_555 1_555
C42 C33 1_555 1_555
H50 C42 1_555 1_555
C43 C42 1_555 1_555
C44 O8 1_555 1_555
H51 C44 1_555 1_555
H52 C44 1_555 1_555
C2 C7 1_555 1_555
C6 C7 1_555 1_555
C11 C22 1_555 1_555
C15 C16 1_555 1_555
C17 C18 1_555 1_555
C19 C20 1_555 1_555
C24 C29 1_555 1_555
C28 C29 1_555 1_555
C33 C44 1_555 1_555
C37 C38 1_555 1_555
C39 C40 1_555 1_555
C41 C42 1_555 1_555

#END
