
#######################################################################
#
#                 Cambridge Crystallographic Data Centre
#                                CCDC 
#
#######################################################################
#
# If this CIF has been generated from an entry in the Cambridge 
# Structural Database, then it will include bibliographic, chemical, 
# crystal, experimental, refinement or atomic coordinate data resulting 
# from the CCDC's data processing and validation procedures.
#
#######################################################################

data_LICJUE
_chemical_formula_moiety         'C52 H62 O12 S8'
_chemical_name_systematic        
33,40-Dimethyl-5,8,11,23,26,29,44,47,50,62,65,68-dodecaoxa-14,16,18,20,53,55,57,59-octathiadecacyclo[38.30.0.0^2,33^.0^4,69^.0^15,19^.0^17,56^.0^30,43^.0^32,41^.0^34,39^.0^54,58^]heptaconta-1,3,15(19),17(56),30(43),31,34,36,38,41,54(58),69-dodecaene
_symmetry_cell_setting           triclinic
_symmetry_space_group_name_H-M   'P -1'
_symmetry_Int_Tables_number      2
_space_group_name_Hall           '-P 1'
loop_
_symmetry_equiv_pos_site_id
_symmetry_equiv_pos_as_xyz
1 x,y,z
2 -x,-y,-z
_cell_length_a                   12.537(3)
_cell_length_b                   13.564(4)
_cell_length_c                   18.947(5)
_cell_angle_alpha                106.841(4)
_cell_angle_beta                 91.90
_cell_angle_gamma                96.165(5)
_cell_volume                     3058.96
_exptl_crystal_colour            yellow
_exptl_crystal_description       plate
_cell_formula_units_Z            2
loop_
_atom_site_label
_atom_site_type_symbol
_atom_site_fract_x
_atom_site_fract_y
_atom_site_fract_z
S1 S 0.21529(9) 0.74388(11) 0.33824(6)
S2 S 0.43345(8) 0.67661(8) 0.40169(5)
S3 S 0.28760(10) 0.64945(9) 0.18493(6)
S4 S 0.48421(8) 0.59079(8) 0.24233(6)
S5 S 0.30818(11) 0.48404(8) 0.02489(6)
S6 S 0.50302(10) 0.42209(9) 0.08333(6)
S7 S 0.29098(14) 0.30905(9) -0.11741(6)
S8 S 0.51356(13) 0.24196(9) -0.05289(6)
O1 O -0.2594(2) 0.49251(19) 0.35882(16)
O2 O -0.1937(2) 0.71527(19) 0.41744(15)
O3 O -0.0900(2) 0.7465(2) 0.28253(16)
O4 O -0.3073(3) 0.4005(2) 0.21375(18)
O5 O 0.4855(3) 0.0848(3) 0.0974(2)
O6 O 0.1642(6) 0.0270(9) 0.3548(8)
O7 O 0.3344(2) 0.1746(2) 0.39607(16)
O8 O 0.4343(2) 0.3814(2) 0.40655(15)
C1 C -0.2091(3) 0.1411(3) 0.3894(2)
C2 C -0.2337(3) 0.2201(3) 0.3475(2)
C3 C -0.2574(3) 0.1743(3) 0.2725(2)
C4 C -0.2535(3) 0.0562(3) 0.2460(2)
C5 C -0.1401(3) 0.0443(3) 0.2728(2)
C6 C -0.1176(3) 0.0873(3) 0.3489(2)
C7 C -0.1820(3) 0.1921(3) 0.4722(2)
H1 H -0.1685 0.1389 0.4959
H2 H -0.2425 0.2273 0.4942
H3 H -0.1177 0.2428 0.4796
C8 C -0.2785(4) 0.0085(3) 0.1630(3)
H4 H -0.3491 0.0245 0.1491
H5 H -0.2789 -0.0670 0.1501
H6 H -0.2234 0.0372 0.1364
C9 C -0.3059(3) 0.0582(3) 0.3697(2)
C10 C -0.3666(3) 0.0243(3) 0.4199(3)
H7 H -0.3504 0.0542 0.4715
C11 C -0.4526(3) -0.0549(3) 0.3932(3)
H8 H -0.4955 -0.0779 0.4271
C12 C -0.4751(3) -0.0987(3) 0.3198(3)
H9 H -0.5336 -0.1522 0.3028
C13 C -0.4138(3) -0.0668(3) 0.2688(3)
H10 H -0.4297 -0.0986 0.2173
C14 C -0.3293(3) 0.0121(3) 0.2939(2)
C15 C -0.2319(3) 0.3259(3) 0.3789(2)
H11 H -0.2150 0.3564 0.4304
C16 C -0.2552(3) 0.3872(3) 0.3340(2)
C17 C -0.2788(4) 0.3420(3) 0.2588(2)
C18 C -0.2813(4) 0.2352(3) 0.2277(2)
H12 H -0.2991 0.2041 0.1763
C19 C -0.2307(4) 0.5434(3) 0.4358(2)
H13 H -0.1527 0.5441 0.4465
H14 H -0.2707 0.5062 0.4664
C20 C -0.2589(4) 0.6538(3) 0.4531(3)
H15 H -0.3353 0.6518 0.4372
H16 H -0.2500 0.6869 0.5072
C21 C -0.2461(3) 0.7269(3) 0.3528(3)
H17 H -0.3138 0.7572 0.3659
H18 H -0.2646 0.6578 0.3161
C22 C -0.1765(3) 0.7946(3) 0.3198(3)
H19 H -0.2212 0.8164 0.2843
H20 H -0.1464 0.8579 0.3594
C23 C 0.0033(3) 0.7543(4) 0.3290(2)
H21 H -0.0100 0.7104 0.3622
H22 H 0.0235 0.8271 0.3597
C24 C 0.0921(4) 0.7176(5) 0.2792(2)
H23 H 0.0990 0.7554 0.2417
H24 H 0.0763 0.6424 0.2534
C25 C -0.2190(5) 0.4619(5) 0.1968(3)
H25 H -0.1765 0.5007 0.2434
H26 H -0.2471 0.5134 0.1755
C26 C -0.1492(9) 0.4061(8) 0.1467(6)
H27 H -0.0833 0.4519 0.1443
H28 H -0.1283 0.3470 0.1626
O9 O -0.2022(7) 0.3734(9) 0.0835(5)
O10 O -0.0093(8) 0.2403(9) -0.0374(6)
C27 C -0.1557(15) 0.2997(16) 0.0334(11)
H29 H -0.2056 0.2730 -0.0114
H30 H -0.1495 0.2413 0.0542
C28 C -0.0484(15) 0.3293(13) 0.0096(10)
H31 H -0.0539 0.3816 -0.0170
H32 H 0.0024 0.3605 0.0535
C29 C 0.1052(9) 0.2490(8) -0.0432(6)
H33 H 0.1271 0.1783 -0.0575
H34 H 0.1405 0.2866 0.0062
C30 C 0.1472(8) 0.3045(10) -0.0985(8)
H35 H 0.1305 0.3770 -0.0809
H36 H 0.1050 0.2714 -0.1462
C31 C 0.3037(3) 0.6719(3) 0.2809(2)
C32 C 0.3932(3) 0.6441(3) 0.3078(2)
C33 C 0.3916(3) 0.5700(3) 0.1663(2)
C34 C 0.3983(3) 0.5005(3) 0.1013(2)
C35 C 0.3544(4) 0.3693(3) -0.0286(2)
C36 C 0.4443(4) 0.3424(3) -0.0025(2)
C37 C -0.0637(4) -0.0039(3) 0.2296(3)
H37 H -0.0794 -0.0339 0.1779
C38 C 0.0368(4) -0.0086(3) 0.2616(3)
C39 C 0.0584(3) 0.0308(3) 0.3382(3)
C40 C -0.0193(3) 0.0800(3) 0.3820(2)
H38 H -0.0050 0.1082 0.4339
O11 O 0.1167(6) -0.0437(6) 0.2109(4)
O12 O 0.2752(8) -0.0095(7) 0.1139(6)
C41 C 0.1027(7) -0.0712(8) 0.1330(5)
H39 H 0.0804 -0.0122 0.1177
H40 H 0.0461 -0.1309 0.1145
C42 C 0.2083(7) -0.0993(7) 0.1013(6)
H41 H 0.2394 -0.1462 0.1256
H42 H 0.1971 -0.1350 0.0476
C43 C 0.3641(7) 0.0111(8) 0.1694(4)
H43 H 0.3353 0.0209 0.2187
H44 H 0.4047 -0.0497 0.1592
C44 C 0.4352(9) 0.1010(9) 0.1703(6)
H45 H 0.4921 0.1150 0.2106
H46 H 0.3948 0.1619 0.1797
C45 C 0.4497(4) 0.1274(4) 0.0409(4)
H47 H 0.3989 0.1782 0.0605
H48 H 0.4127 0.0715 -0.0014
C46 C 0.5467(4) 0.1793(3) 0.0168(3)
H49 H 0.5958 0.1271 -0.0036
H50 H 0.5851 0.2319 0.0603
C47 C 0.1961(3) 0.0800(4) 0.4360(3)
H51 H 0.1625 0.1446 0.4543
H52 H 0.1756 0.0335 0.4664
C48 C 0.3146(3) 0.1025(3) 0.4370(3)
H53 H 0.3460 0.1325 0.4884
H54 H 0.3467 0.0381 0.4139
C49 C 0.4461(3) 0.2013(3) 0.3904(2)
H55 H 0.4770 0.1403 0.3595
H56 H 0.4841 0.2230 0.4401
C50 C 0.4604(4) 0.2883(3) 0.3562(2)
H57 H 0.5358 0.2985 0.3433
H58 H 0.4132 0.2707 0.3103
C51 C 0.4515(4) 0.4651(3) 0.3761(2)
H59 H 0.4180 0.4446 0.3251
H60 H 0.5296 0.4845 0.3744
C52 C 0.4023(3) 0.5555(3) 0.4238(2)
H61 H 0.4270 0.5664 0.4759
H62 H 0.3232 0.5375 0.4194
O13? O 0.1433(10) 0.0015(8) 0.3821(9)
O14? O -0.1162(13) 0.4286(9) 0.0883(6)
O15? O -0.0020(9) 0.3206(10) -0.0836(6)
C53? C -0.021(3) 0.406(5) 0.0563(19)
H63? H 0.0030 0.3437 0.0658
H64? H 0.0365 0.4653 0.0755
C54? C -0.047(2) 0.388(2) -0.0233(13)
H65? H -0.1258 0.3658 -0.0308
H66? H -0.0364 0.4572 -0.0311
C55? C 0.1033(10) 0.3547(11) -0.1000(7)
H67? H 0.1334 0.4212 -0.0638
H68? H 0.1039 0.3621 -0.1505
C56? C 0.1627(13) 0.2667(14) -0.0936(14)
H69? H 0.1314 0.1996 -0.1288
H70? H 0.1647 0.2607 -0.0427
O16? O 0.1130(10) -0.0764(9) 0.2315(7)
O17? O 0.294(2) -0.0187(15) 0.1340(14)
C57? C 0.2243(10) -0.0475(12) 0.2459(7)
H71? H 0.2516 -0.0804 0.2821
H72? H 0.2392 0.0287 0.2677
C58? C 0.2801(11) -0.0798(11) 0.1773(7)
H73? H 0.3523 -0.0945 0.1912
H74? H 0.2408 -0.1465 0.1467
C59? C 0.3136(16) 0.0925(14) 0.1512(12)
H75? H 0.2720 0.1152 0.1146
H76? H 0.2888 0.1249 0.2007
C60? C 0.4242(16) 0.1258(18) 0.1500(13)
H77? H 0.4295 0.2006 0.1540
H78? H 0.4589 0.1212 0.1965
loop_
_geom_bond_atom_site_label_1
_geom_bond_atom_site_label_2
_geom_bond_site_symmetry_1
_geom_bond_site_symmetry_2
S1 C24 1_555 1_555
S2 C32 1_555 1_555
S3 C31 1_555 1_555
S4 C32 1_555 1_555
S5 C34 1_555 1_555
S6 C34 1_555 1_555
S7 C30 1_555 1_555
S8 C36 1_555 1_555
O1 C16 1_555 1_555
O2 C20 1_555 1_555
O3 C22 1_555 1_555
O4 C17 1_555 1_555
O5 C44 1_555 1_555
O6 C39 1_555 1_555
O7 C48 1_555 1_555
O8 C50 1_555 1_555
C1 C2 1_555 1_555
C2 C3 1_555 1_555
C3 C4 1_555 1_555
C4 C5 1_555 1_555
C5 C6 1_555 1_555
C6 C1 1_555 1_555
C7 C1 1_555 1_555
H1 C7 1_555 1_555
H2 C7 1_555 1_555
H3 C7 1_555 1_555
C8 C4 1_555 1_555
H4 C8 1_555 1_555
H5 C8 1_555 1_555
H6 C8 1_555 1_555
C9 C1 1_555 1_555
C10 C9 1_555 1_555
H7 C10 1_555 1_555
C11 C10 1_555 1_555
H8 C11 1_555 1_555
C12 C11 1_555 1_555
H9 C12 1_555 1_555
C13 C12 1_555 1_555
H10 C13 1_555 1_555
C14 C4 1_555 1_555
C15 C2 1_555 1_555
H11 C15 1_555 1_555
C16 C15 1_555 1_555
C17 C16 1_555 1_555
C18 C3 1_555 1_555
H12 C18 1_555 1_555
C19 O1 1_555 1_555
H13 C19 1_555 1_555
H14 C19 1_555 1_555
C20 C19 1_555 1_555
H15 C20 1_555 1_555
H16 C20 1_555 1_555
C21 O2 1_555 1_555
H17 C21 1_555 1_555
H18 C21 1_555 1_555
C22 C21 1_555 1_555
H19 C22 1_555 1_555
H20 C22 1_555 1_555
C23 O3 1_555 1_555
H21 C23 1_555 1_555
H22 C23 1_555 1_555
C24 C23 1_555 1_555
H23 C24 1_555 1_555
H24 C24 1_555 1_555
C25 O4 1_555 1_555
H25 C25 1_555 1_555
H26 C25 1_555 1_555
C26 C25 1_555 1_555
H27 C26 1_555 1_555
H28 C26 1_555 1_555
O9 C26 1_555 1_555
O10 C28 1_555 1_555
C27 O9 1_555 1_555
H29 C27 1_555 1_555
H30 C27 1_555 1_555
C28 C27 1_555 1_555
H31 C28 1_555 1_555
H32 C28 1_555 1_555
C29 O10 1_555 1_555
H33 C29 1_555 1_555
H34 C29 1_555 1_555
C30 C29 1_555 1_555
H35 C30 1_555 1_555
H36 C30 1_555 1_555
C31 S1 1_555 1_555
C32 C31 1_555 1_555
C33 S3 1_555 1_555
C34 C33 1_555 1_555
C35 S5 1_555 1_555
C36 S6 1_555 1_555
C37 C5 1_555 1_555
H37 C37 1_555 1_555
C38 C37 1_555 1_555
C39 C38 1_555 1_555
C40 C6 1_555 1_555
H38 C40 1_555 1_555
O11 C38 1_555 1_555
O12 C42 1_555 1_555
C41 O11 1_555 1_555
H39 C41 1_555 1_555
H40 C41 1_555 1_555
C42 C41 1_555 1_555
H41 C42 1_555 1_555
H42 C42 1_555 1_555
C43 O12 1_555 1_555
H43 C43 1_555 1_555
H44 C43 1_555 1_555
C44 C43 1_555 1_555
H45 C44 1_555 1_555
H46 C44 1_555 1_555
C45 O5 1_555 1_555
H47 C45 1_555 1_555
H48 C45 1_555 1_555
C46 S8 1_555 1_555
H49 C46 1_555 1_555
H50 C46 1_555 1_555
C47 O6 1_555 1_555
H51 C47 1_555 1_555
H52 C47 1_555 1_555
C48 C47 1_555 1_555
H53 C48 1_555 1_555
H54 C48 1_555 1_555
C49 O7 1_555 1_555
H55 C49 1_555 1_555
H56 C49 1_555 1_555
C50 C49 1_555 1_555
H57 C50 1_555 1_555
H58 C50 1_555 1_555
C51 O8 1_555 1_555
H59 C51 1_555 1_555
H60 C51 1_555 1_555
C52 S2 1_555 1_555
H61 C52 1_555 1_555
H62 C52 1_555 1_555
S4 C33 1_555 1_555
S7 C35 1_555 1_555
C9 C14 1_555 1_555
C13 C14 1_555 1_555
C17 C18 1_555 1_555
C35 C36 1_555 1_555
C39 C40 1_555 1_555
C45 C46 1_555 1_555
C51 C52 1_555 1_555

#END
