
#######################################################################
#
#                 Cambridge Crystallographic Data Centre
#                                CCDC 
#
#######################################################################
#
# If this CIF has been generated from an entry in the Cambridge 
# Structural Database, then it will include bibliographic, chemical, 
# crystal, experimental, refinement or atomic coordinate data resulting 
# from the CCDC's data processing and validation procedures.
#
#######################################################################

data_LICJUF
_chemical_formula_moiety         'C32 H42 O4'
_chemical_name_systematic        
'[6-(benzyloxy)-4-[3-(benzyloxy)propyl]-5-(prop-2-en-1-yl)-1,2,4,5,6,7,8,8a-octahydroazulene-4,5-diyl]dimethanol'
_symmetry_cell_setting           triclinic
_symmetry_space_group_name_H-M   'P -1'
_symmetry_Int_Tables_number      2
_space_group_name_Hall           '-P 1'
loop_
_symmetry_equiv_pos_site_id
_symmetry_equiv_pos_as_xyz
1 x,y,z
2 -x,-y,-z
_cell_length_a                   9.552(3)
_cell_length_b                   13.723(3)
_cell_length_c                   21.581(6)
_cell_angle_alpha                100.389(17)
_cell_angle_beta                 93.85(2)
_cell_angle_gamma                90.376(19)
_cell_volume                     2775.72
_exptl_crystal_colour            colorless
_exptl_crystal_description       block
_cell_formula_units_Z            4
loop_
_atom_site_label
_atom_site_type_symbol
_atom_site_fract_x
_atom_site_fract_y
_atom_site_fract_z
O1 O 1.03008(15) 0.65389(10) 0.08219(7)
H1 H 1.093(3) 0.617(2) 0.0728(7)
C1 C 1.06692(17) 0.82748(12) 0.13924(8)
O2 O 0.77700(14) 0.72155(10) 0.07922(7)
H2 H 0.8463 0.6841 0.0751
C2 C 1.16486(18) 0.87317(13) 0.19757(8)
H3 H 1.2581 0.8416 0.1910
O3 O 1.11497(13) 0.84193(10) 0.25223(6)
C3 C 1.1930(2) 0.98494(14) 0.21009(10)
H4 H 1.2752 0.9999 0.2409
H5 H 1.2185 1.0044 0.1703
O4 O 0.71150(16) 0.98252(14) 0.30295(7)
C4 C 1.0730(2) 1.04817(15) 0.23482(10)
H6 H 1.1110 1.1140 0.2559
H7 H 1.0296 1.0173 0.2671
C5 C 0.9781(3) 1.15434(15) 0.15637(11)
H8 H 1.0790 1.1702 0.1549
H9 H 0.9336 1.2116 0.1818
C6 C 1.3926(2) 0.85748(17) 0.05988(12)
H10 H 1.3798 0.9231 0.0525
H11 H 1.4826 0.8286 0.0572
C7 C 0.91280(18) 0.87221(13) 0.13655(8)
C8 C 0.92176(18) 0.98180(13) 0.13140(8)
C9 C 0.9600(3) 1.06244(16) 0.18449(12)
H12 H 0.8726 1.0739 0.2076
C10 C 0.9074(3) 1.13115(16) 0.09014(11)
H13 H 0.8165 1.1651 0.0878
H14 H 0.9681 1.1509 0.0589
C11 C 0.8866(3) 1.02111(17) 0.07941(11)
H15 H 0.8523 0.9827 0.0401
C12 C 0.83495(19) 0.86146(14) 0.19566(9)
H16 H 0.8332 0.7906 0.1993
H17 H 0.8897 0.8979 0.2334
C13 C 0.6841(2) 0.89875(17) 0.19658(10)
H18 H 0.6809 0.9642 0.1833
H19 H 0.6226 0.8522 0.1660
C14 C 0.6731(3) 0.9937(2) 0.36577(11)
H20 H 0.7449 1.0356 0.3937
H21 H 0.6726 0.9278 0.3784
C15 C 0.6303(2) 0.90796(19) 0.26111(10)
H22 H 0.5302 0.9262 0.2597
H23 H 0.6385 0.8439 0.2760
C16 C 0.5311(2) 1.03952(17) 0.37572(9)
C17 C 0.4878(3) 1.11451(19) 0.34402(11)
H24 H 0.5479 1.1361 0.3156
C18 C 0.3598(3) 1.1584(2) 0.35273(12)
H25 H 0.3325 1.2100 0.3307
C19 C 0.2716(3) 1.1274(2) 0.39331(13)
H26 H 0.1828 1.1572 0.3992
C20 C 0.3118(3) 1.0535(2) 0.42530(13)
H27 H 0.2510 1.0324 0.4536
C21 C 0.4421(3) 1.0089(2) 0.41655(11)
H28 H 0.4693 0.9575 0.4387
C22 C 0.82107(19) 0.82059(13) 0.07773(9)
H29 H 0.7366 0.8607 0.0729
H30 H 0.8746 0.8199 0.0399
C23 C 1.0656(2) 0.71494(13) 0.14213(9)
H31 H 1.1595 0.6967 0.1582
H32 H 0.9972 0.7020 0.1723
C24 C 1.2233(2) 0.8258(2) 0.29679(10)
H33 H 1.2943 0.8800 0.3021
H34 H 1.2699 0.7627 0.2812
C25 C 1.1655(2) 0.82156(18) 0.35902(10)
C26 C 1.2432(3) 0.7753(3) 0.40124(13)
H35 H 1.3265 0.7420 0.3889
C27 C 1.2009(4) 0.7771(3) 0.46073(15)
H36 H 1.2556 0.7456 0.4895
C28 C 1.0801(3) 0.8241(3) 0.47919(13)
H37 H 1.0510 0.8247 0.5205
C29 C 1.0015(3) 0.8704(2) 0.43761(11)
H38 H 0.9182 0.9035 0.4502
C30 C 1.0441(2) 0.8684(2) 0.37777(10)
H39 H 0.9892 0.8998 0.3490
C31 C 1.14047(19) 0.84281(14) 0.07956(9)
H40 H 1.0825 0.8090 0.0420
H41 H 1.1408 0.9145 0.0782
C32 C 1.2874(2) 0.80740(14) 0.07366(9)
H42 H 1.3052 0.7421 0.0807
O5 O 0.61781(13) 0.51711(10) 0.25214(6)
C33 C 0.8943(2) 0.40193(16) 0.06451(10)
H43 H 0.8839 0.3322 0.0609
H44 H 0.9839 0.4306 0.0617
O6 O 0.27763(14) 0.55287(10) 0.08665(7)
H45 H 0.3451 0.5877 0.0794
O7 O 0.53581(15) 0.61629(10) 0.08368(7)
H46 H 0.598(3) 0.652(2) 0.0762(7)
O8 O 0.21239(15) 0.40655(14) 0.30432(7)
C34 C 0.66548(18) 0.45718(13) 0.19674(8)
H47 H 0.7592 0.4855 0.1905
C35 C 0.56745(17) 0.47272(12) 0.13894(8)
C36 C 0.41133(17) 0.42818(13) 0.13708(8)
C37 C 0.41514(18) 0.31537(13) 0.12940(9)
C38 C 0.4552(3) 0.26006(16) 0.18030(12)
H48 H 0.3689 0.2594 0.2040
C39 C 0.5708(2) 0.29956(16) 0.23071(10)
H49 H 0.5293 0.3467 0.2645
H50 H 0.6080 0.2436 0.2497
C40 C 0.6921(2) 0.35127(16) 0.20712(10)
H51 H 0.7174 0.3111 0.1667
H52 H 0.7742 0.3527 0.2379
C41 C 0.3721(3) 0.25004(15) 0.07631(11)
H53 H 0.3366 0.2691 0.0382
C42 C 0.3869(3) 0.14440(15) 0.08478(11)
H54 H 0.4385 0.1056 0.0506
H55 H 0.2941 0.1124 0.0857
C43 C 0.4705(3) 0.15415(16) 0.14851(12)
H56 H 0.4324 0.1083 0.1740
H57 H 0.5704 0.1390 0.1426
C44 C 0.33804(19) 0.46940(14) 0.19777(9)
H58 H 0.3927 0.4501 0.2341
H59 H 0.3407 0.5427 0.2039
C45 C 0.1850(2) 0.43490(16) 0.19860(9)
H60 H 0.1250 0.4668 0.1691
H61 H 0.1777 0.3623 0.1839
C46 C 0.1331(2) 0.46024(19) 0.26365(10)
H62 H 0.1444 0.5323 0.2797
H63 H 0.0322 0.4423 0.2623
C47 C 0.1745(2) 0.4292(2) 0.36745(11)
H64 H 0.1771 0.5021 0.3812
H65 H 0.2449 0.4012 0.3948
C48 C 0.0306(2) 0.39013(17) 0.37689(9)
C49 C -0.0153(3) 0.29773(19) 0.34468(11)
H66 H 0.0440 0.2596 0.3164
C50 C -0.1457(3) 0.2600(2) 0.35296(12)
H67 H -0.1752 0.1963 0.3307
C51 C -0.2324(3) 0.3145(2) 0.39322(12)
H68 H -0.3225 0.2889 0.3987
C52 C -0.1893(3) 0.4054(2) 0.42543(12)
H69 H -0.2495 0.4430 0.4535
C53 C -0.0570(3) 0.4440(2) 0.41751(11)
H70 H -0.0278 0.5075 0.4402
C54 C 0.7266(2) 0.5562(2) 0.29710(10)
H71 H 0.7774 0.6094 0.2819
H72 H 0.7940 0.5035 0.3027
C55 C 0.6689(2) 0.59696(18) 0.35876(10)
C56 C 0.5447(2) 0.5618(2) 0.37733(10)
H73 H 0.4886 0.5143 0.3485
C57 C 0.5021(3) 0.5950(2) 0.43691(11)
H74 H 0.4178 0.5694 0.4494
C58 C 0.5810(3) 0.6649(3) 0.47841(13)
H75 H 0.5510 0.6889 0.5194
C59 C 0.7040(4) 0.7000(3) 0.46014(14)
H76 H 0.7599 0.7475 0.4890
C60 C 0.7467(3) 0.6672(2) 0.40095(13)
H77 H 0.8310 0.6931 0.3888
C61 C 0.57017(19) 0.58688(13) 0.14307(9)
H78 H 0.5027 0.6167 0.1736
H79 H 0.6649 0.6132 0.1593
C62 C 0.63855(18) 0.42424(13) 0.07883(8)
H80 H 0.6385 0.3517 0.0771
H81 H 0.5803 0.4370 0.0415
C63 C 0.78600(19) 0.45808(14) 0.07337(9)
H82 H 0.8017 0.5273 0.0767
C64 C 0.31876(18) 0.45212(13) 0.08021(8)
H83 H 0.3709 0.4352 0.0417
H84 H 0.2333 0.4094 0.0742
loop_
_geom_bond_atom_site_label_1
_geom_bond_atom_site_label_2
_geom_bond_site_symmetry_1
_geom_bond_site_symmetry_2
O1 H1 1_555 1_555
C1 C2 1_555 1_555
O2 H2 1_555 1_555
C2 H3 1_555 1_555
O3 C2 1_555 1_555
C3 C2 1_555 1_555
H4 C3 1_555 1_555
H5 C3 1_555 1_555
O4 C14 1_555 1_555
C4 C3 1_555 1_555
H6 C4 1_555 1_555
H7 C4 1_555 1_555
C5 H8 1_555 1_555
H9 C5 1_555 1_555
C6 H10 1_555 1_555
H11 C6 1_555 1_555
C7 C1 1_555 1_555
C8 C7 1_555 1_555
C9 C4 1_555 1_555
H12 C9 1_555 1_555
C10 C5 1_555 1_555
H13 C10 1_555 1_555
H14 C10 1_555 1_555
C11 C8 1_555 1_555
H15 C11 1_555 1_555
C12 C7 1_555 1_555
H16 C12 1_555 1_555
H17 C12 1_555 1_555
C13 C12 1_555 1_555
H18 C13 1_555 1_555
H19 C13 1_555 1_555
C14 H20 1_555 1_555
H21 C14 1_555 1_555
C15 O4 1_555 1_555
H22 C15 1_555 1_555
H23 C15 1_555 1_555
C16 C14 1_555 1_555
C17 C16 1_555 1_555
H24 C17 1_555 1_555
C18 C17 1_555 1_555
H25 C18 1_555 1_555
C19 C18 1_555 1_555
H26 C19 1_555 1_555
C20 C19 1_555 1_555
H27 C20 1_555 1_555
C21 C16 1_555 1_555
H28 C21 1_555 1_555
C22 O2 1_555 1_555
H29 C22 1_555 1_555
H30 C22 1_555 1_555
C23 O1 1_555 1_555
H31 C23 1_555 1_555
H32 C23 1_555 1_555
C24 O3 1_555 1_555
H33 C24 1_555 1_555
H34 C24 1_555 1_555
C25 C24 1_555 1_555
C26 C25 1_555 1_555
H35 C26 1_555 1_555
C27 C26 1_555 1_555
H36 C27 1_555 1_555
C28 C27 1_555 1_555
H37 C28 1_555 1_555
C29 C28 1_555 1_555
H38 C29 1_555 1_555
C30 C25 1_555 1_555
H39 C30 1_555 1_555
C31 C1 1_555 1_555
H40 C31 1_555 1_555
H41 C31 1_555 1_555
C32 C6 1_555 1_555
H42 C32 1_555 1_555
O5 C34 1_555 1_555
C33 H43 1_555 1_555
H44 C33 1_555 1_555
O6 H45 1_555 1_555
O7 H46 1_555 1_555
O8 C46 1_555 1_555
C34 H47 1_555 1_555
C35 C34 1_555 1_555
C36 C35 1_555 1_555
C37 C36 1_555 1_555
C38 C37 1_555 1_555
H48 C38 1_555 1_555
C39 C38 1_555 1_555
H49 C39 1_555 1_555
H50 C39 1_555 1_555
C40 C34 1_555 1_555
H51 C40 1_555 1_555
H52 C40 1_555 1_555
C41 C37 1_555 1_555
H53 C41 1_555 1_555
C42 C41 1_555 1_555
H54 C42 1_555 1_555
H55 C42 1_555 1_555
C43 C38 1_555 1_555
H56 C43 1_555 1_555
H57 C43 1_555 1_555
C44 C36 1_555 1_555
H58 C44 1_555 1_555
H59 C44 1_555 1_555
C45 C44 1_555 1_555
H60 C45 1_555 1_555
H61 C45 1_555 1_555
C46 C45 1_555 1_555
H62 C46 1_555 1_555
H63 C46 1_555 1_555
C47 O8 1_555 1_555
H64 C47 1_555 1_555
H65 C47 1_555 1_555
C48 C47 1_555 1_555
C49 C48 1_555 1_555
H66 C49 1_555 1_555
C50 C49 1_555 1_555
H67 C50 1_555 1_555
C51 C50 1_555 1_555
H68 C51 1_555 1_555
C52 C51 1_555 1_555
H69 C52 1_555 1_555
C53 C48 1_555 1_555
H70 C53 1_555 1_555
C54 O5 1_555 1_555
H71 C54 1_555 1_555
H72 C54 1_555 1_555
C55 C54 1_555 1_555
C56 C55 1_555 1_555
H73 C56 1_555 1_555
C57 C56 1_555 1_555
H74 C57 1_555 1_555
C58 C57 1_555 1_555
H75 C58 1_555 1_555
C59 C58 1_555 1_555
H76 C59 1_555 1_555
C60 C55 1_555 1_555
H77 C60 1_555 1_555
C61 O7 1_555 1_555
H78 C61 1_555 1_555
H79 C61 1_555 1_555
C62 C35 1_555 1_555
H80 C62 1_555 1_555
H81 C62 1_555 1_555
C63 C33 1_555 1_555
H82 C63 1_555 1_555
C64 O6 1_555 1_555
H83 C64 1_555 1_555
H84 C64 1_555 1_555
C1 C23 1_555 1_555
C5 C9 1_555 1_555
C7 C22 1_555 1_555
C8 C9 1_555 1_555
C10 C11 1_555 1_555
C13 C15 1_555 1_555
C20 C21 1_555 1_555
C29 C30 1_555 1_555
C31 C32 1_555 1_555
C35 C61 1_555 1_555
C36 C64 1_555 1_555
C39 C40 1_555 1_555
C42 C43 1_555 1_555
C52 C53 1_555 1_555
C59 C60 1_555 1_555
C62 C63 1_555 1_555

#END
