
#######################################################################
#
#                 Cambridge Crystallographic Data Centre
#                                CCDC 
#
#######################################################################
#
# If this CIF has been generated from an entry in the Cambridge 
# Structural Database, then it will include bibliographic, chemical, 
# crystal, experimental, refinement or atomic coordinate data resulting 
# from the CCDC's data processing and validation procedures.
#
#######################################################################

data_LICKAK
_chemical_formula_moiety         'C32 H52 O4'
_chemical_name_systematic        
3\b-acetoxy-9\a,11-epoxy-5\a-lanost-9(11)-en-7-one
_symmetry_cell_setting           monoclinic
_symmetry_space_group_name_H-M   'P 21'
_symmetry_Int_Tables_number      4
_space_group_name_Hall           'P 2yb'
loop_
_symmetry_equiv_pos_site_id
_symmetry_equiv_pos_as_xyz
1 x,y,z
2 -x,1/2+y,-z
_cell_length_a                   11.483(4)
_cell_length_b                   7.612(3)
_cell_length_c                   16.903(6)
_cell_angle_alpha                90
_cell_angle_beta                 95.79(3)
_cell_angle_gamma                90
_cell_volume                     1469.93
_exptl_crystal_colour            colorless
_exptl_crystal_description       block
_chemical_melting_point          '446 K'
_cell_formula_units_Z            2
_exptl_crystal_recrystallization_method methanol
loop_
_atom_site_label
_atom_site_type_symbol
_atom_site_fract_x
_atom_site_fract_y
_atom_site_fract_z
O1 O 0.37522(13) 0.2718(2) 0.89785(7)
O2 O 0.21373(16) 0.1687(3) 0.94688(10)
O3 O 0.47605(12) 0.0335(3) 0.49951(9)
O4 O 0.15405(11) 0.0900(2) 0.57223(8)
C1 C 0.18057(17) 0.3326(3) 0.70439(11)
H1 H 0.1209 0.4222 0.6871
H2 H 0.1408 0.2172 0.7045
C2 C 0.23381(18) 0.3754(3) 0.78908(11)
H3 H 0.2713 0.4925 0.7900
H4 H 0.1714 0.3780 0.8254
C3 C 0.32393(17) 0.2370(3) 0.81652(11)
H5 H 0.2839 0.1202 0.8157
C4 C 0.42668(16) 0.2244(3) 0.76522(11)
C5 C 0.37306(16) 0.1999(3) 0.67696(10)
H6 H 0.3365 0.0806 0.6750
C6 C 0.46894(17) 0.1908(3) 0.61981(11)
H7 H 0.5067 0.3074 0.6177
H8 H 0.5295 0.1057 0.6408
C7 C 0.42253(16) 0.1367(3) 0.53669(11)
C8 C 0.31151(15) 0.2289(3) 0.50202(10)
H9 H 0.3361 0.3520 0.4914
C9 C 0.22390(15) 0.2457(3) 0.56472(11)
C10 C 0.27347(16) 0.3274(3) 0.64460(11)
C11 C 0.09759(16) 0.2459(3) 0.53682(11)
H10 H 0.0471 0.3106 0.5719
C12 C 0.04955(16) 0.2371(3) 0.45004(10)
H11 H -0.0133 0.3256 0.4398
H12 H 0.0146 0.1197 0.4388
C13 C 0.14384(16) 0.2703(3) 0.39334(11)
C14 C 0.25612(17) 0.1595(3) 0.42123(11)
C15 C 0.33239(17) 0.1907(3) 0.35238(11)
H13 H 0.3894 0.0941 0.3491
H14 H 0.3754 0.3032 0.3594
C16 C 0.24332(16) 0.1957(4) 0.27715(11)
H15 H 0.2508 0.0886 0.2448
H16 H 0.2579 0.2994 0.2442
C17 C 0.11836(16) 0.2061(3) 0.30577(10)
H17 H 0.0884 0.0830 0.3078
C18 C 0.16847(19) 0.4693(3) 0.39447(12)
H18 H 0.2342 0.4941 0.3635
H19 H 0.1881 0.5082 0.4495
H20 H 0.0988 0.5321 0.3712
C19 C 0.31041(18) 0.5177(3) 0.62800(12)
H21 H 0.2463 0.5779 0.5963
H22 H 0.3798 0.5162 0.5987
H23 H 0.3286 0.5799 0.6785
C20 C 0.03244(17) 0.3078(3) 0.24644(11)
H24 H 0.0657 0.4273 0.2390
C21 C -0.08823(18) 0.3298(3) 0.27620(12)
H25 H -0.0804 0.3952 0.3264
H26 H -0.1219 0.2139 0.2847
H27 H -0.1396 0.3945 0.2365
C22 C 0.02258(18) 0.2125(4) 0.16574(11)
H28 H 0.0997 0.2173 0.1444
H29 H 0.0044 0.0874 0.1746
C23 C -0.06952(19) 0.2864(4) 0.10319(11)
H30 H -0.1477 0.2726 0.1223
H31 H -0.0552 0.4137 0.0970
C24 C -0.07022(19) 0.1980(4) 0.02238(11)
H32 H -0.0839 0.0706 0.0286
H33 H 0.0077 0.2129 0.0029
C25 C -0.1639(2) 0.2720(4) -0.03989(12)
H34 H -0.1513 0.4016 -0.0436
C26 C -0.1510(3) 0.1925(6) -0.12106(14)
H35 H -0.2106 0.2419 -0.1604
H36 H -0.1609 0.0648 -0.1185
H37 H -0.0730 0.2194 -0.1366
C27 C -0.2871(2) 0.2420(5) -0.01583(17)
H38 H -0.3449 0.2869 -0.0576
H39 H -0.2957 0.3039 0.0341
H40 H -0.2998 0.1160 -0.0085
C28 C 0.22973(19) -0.0400(3) 0.42300(13)
H41 H 0.2168 -0.0847 0.3684
H42 H 0.1594 -0.0600 0.4502
H43 H 0.2962 -0.1015 0.4515
C29 C 0.4973(2) 0.0593(4) 0.79145(13)
H44 H 0.5661 0.0511 0.7618
H45 H 0.4482 -0.0451 0.7808
H46 H 0.5226 0.0665 0.8485
C30 C 0.5077(2) 0.3840(4) 0.77713(13)
H47 H 0.5728 0.3710 0.7443
H48 H 0.5385 0.3923 0.8332
H49 H 0.4637 0.4909 0.7615
C31 C 0.3125(2) 0.2224(4) 0.95714(12)
C32 C 0.3827(2) 0.2425(5) 1.03695(13)
H50 H 0.3297 0.2445 1.0789
H51 H 0.4271 0.3526 1.0380
H52 H 0.4370 0.1435 1.0458
loop_
_geom_bond_atom_site_label_1
_geom_bond_atom_site_label_2
_geom_bond_site_symmetry_1
_geom_bond_site_symmetry_2
O1 C3 1_555 1_555
O2 C31 1_555 1_555
O3 C7 1_555 1_555
O4 C9 1_555 1_555
C1 H1 1_555 1_555
H2 C1 1_555 1_555
C2 C1 1_555 1_555
H3 C2 1_555 1_555
H4 C2 1_555 1_555
C3 C2 1_555 1_555
H5 C3 1_555 1_555
C4 C3 1_555 1_555
C5 C4 1_555 1_555
H6 C5 1_555 1_555
C6 C5 1_555 1_555
H7 C6 1_555 1_555
H8 C6 1_555 1_555
C7 C6 1_555 1_555
C8 C7 1_555 1_555
H9 C8 1_555 1_555
C9 C8 1_555 1_555
C10 C1 1_555 1_555
C11 O4 1_555 1_555
H10 C11 1_555 1_555
C12 C11 1_555 1_555
H11 C12 1_555 1_555
H12 C12 1_555 1_555
C13 C12 1_555 1_555
C14 C8 1_555 1_555
C15 C14 1_555 1_555
H13 C15 1_555 1_555
H14 C15 1_555 1_555
C16 C15 1_555 1_555
H15 C16 1_555 1_555
H16 C16 1_555 1_555
C17 C13 1_555 1_555
H17 C17 1_555 1_555
C18 C13 1_555 1_555
H18 C18 1_555 1_555
H19 C18 1_555 1_555
H20 C18 1_555 1_555
C19 C10 1_555 1_555
H21 C19 1_555 1_555
H22 C19 1_555 1_555
H23 C19 1_555 1_555
C20 C17 1_555 1_555
H24 C20 1_555 1_555
C21 C20 1_555 1_555
H25 C21 1_555 1_555
H26 C21 1_555 1_555
H27 C21 1_555 1_555
C22 C20 1_555 1_555
H28 C22 1_555 1_555
H29 C22 1_555 1_555
C23 C22 1_555 1_555
H30 C23 1_555 1_555
H31 C23 1_555 1_555
C24 C23 1_555 1_555
H32 C24 1_555 1_555
H33 C24 1_555 1_555
C25 C24 1_555 1_555
H34 C25 1_555 1_555
C26 C25 1_555 1_555
H35 C26 1_555 1_555
H36 C26 1_555 1_555
H37 C26 1_555 1_555
C27 C25 1_555 1_555
H38 C27 1_555 1_555
H39 C27 1_555 1_555
H40 C27 1_555 1_555
C28 C14 1_555 1_555
H41 C28 1_555 1_555
H42 C28 1_555 1_555
H43 C28 1_555 1_555
C29 C4 1_555 1_555
H44 C29 1_555 1_555
H45 C29 1_555 1_555
H46 C29 1_555 1_555
C30 C4 1_555 1_555
H47 C30 1_555 1_555
H48 C30 1_555 1_555
H49 C30 1_555 1_555
C31 O1 1_555 1_555
C32 C31 1_555 1_555
H50 C32 1_555 1_555
H51 C32 1_555 1_555
H52 C32 1_555 1_555
C5 C10 1_555 1_555
C9 C10 1_555 1_555
C9 C11 1_555 1_555
C13 C14 1_555 1_555
C16 C17 1_555 1_555

#END
