
#######################################################################
#
#                 Cambridge Crystallographic Data Centre
#                                CCDC 
#
#######################################################################
#
# If this CIF has been generated from an entry in the Cambridge 
# Structural Database, then it will include bibliographic, chemical, 
# crystal, experimental, refinement or atomic coordinate data resulting 
# from the CCDC's data processing and validation procedures.
#
#######################################################################

data_LICLAM
_chemical_formula_moiety         'C18 H20 N1 O1 P1'
_chemical_name_systematic        
1-(t-Butyl(oxido)phosphoranyl)-2-phenyl-1H-indole
_symmetry_cell_setting           triclinic
_symmetry_space_group_name_H-M   'P -1'
_symmetry_Int_Tables_number      2
_space_group_name_Hall           '-P 1'
loop_
_symmetry_equiv_pos_site_id
_symmetry_equiv_pos_as_xyz
1 x,y,z
2 -x,-y,-z
_cell_length_a                   7.0991(5)
_cell_length_b                   10.5218(7)
_cell_length_c                   11.7316(7)
_cell_angle_alpha                104.455(5)
_cell_angle_beta                 99.973(5)
_cell_angle_gamma                98.786(5)
_cell_volume                     817.899
_exptl_crystal_colour            limpid
_exptl_crystal_description       parallelepiped
_cell_formula_units_Z            2
loop_
_atom_site_label
_atom_site_type_symbol
_atom_site_fract_x
_atom_site_fract_y
_atom_site_fract_z
P1 P 0.75812(6) 0.66959(5) 0.90228(3)
H1 H 0.7327 0.5791 0.9161
N1 N 0.85483(19) 0.65119(14) 0.77769(10)
C1 C 0.9352(2) 0.76203(17) 0.74177(13)
O1 O 0.89728(19) 0.75885(15) 1.01073(10)
C2 C 1.0119(2) 0.89545(18) 0.80933(15)
H2 H 1.0124 0.9246 0.8928
C3 C 1.0868(3) 0.98328(19) 0.75083(16)
H3 H 1.1386 1.0746 0.7947
C4 C 1.0881(3) 0.9406(2) 0.62770(17)
H4 H 1.1413 1.0033 0.5899
C5 C 1.0135(2) 0.8093(2) 0.56068(15)
H5 H 1.0160 0.7811 0.4776
C6 C 0.9336(2) 0.71775(18) 0.61712(13)
C7 C 0.8480(2) 0.57737(18) 0.57773(13)
H6 H 0.8257 0.5211 0.4975
C8 C 0.8037(2) 0.53747(17) 0.67317(12)
C9 C 0.7296(2) 0.40072(17) 0.67605(13)
C10 C 0.5698(2) 0.31946(18) 0.58587(14)
H7 H 0.5063 0.3558 0.5270
C11 C 0.5038(3) 0.18800(19) 0.58165(15)
H8 H 0.3954 0.1346 0.5200
C12 C 0.5946(3) 0.1328(2) 0.66690(15)
H9 H 0.5480 0.0422 0.6641
C13 C 0.7546(3) 0.21166(18) 0.75652(14)
H10 H 0.8177 0.1746 0.8150
C14 C 0.8216(2) 0.34305(18) 0.76048(13)
H11 H 0.9316 0.3955 0.8213
C15 C 0.5212(2) 0.71540(19) 0.87018(13)
C16 C 0.5454(4) 0.8555(3) 0.8552(3)
H12 H 0.4167 0.8784 0.8381
H13 H 0.6095 0.8590 0.7882
H14 H 0.6256 0.9198 0.9297
C17 C 0.3926(3) 0.6129(3) 0.75748(19)
H15 H 0.2651 0.6373 0.7400
H16 H 0.3748 0.5239 0.7708
H17 H 0.4552 0.6114 0.6891
C18 C 0.4319(3) 0.7136(3) 0.97933(17)
H18 H 0.3037 0.7379 0.9661
H19 H 0.5179 0.7783 1.0516
H20 H 0.4169 0.6236 0.9903
loop_
_geom_bond_atom_site_label_1
_geom_bond_atom_site_label_2
_geom_bond_site_symmetry_1
_geom_bond_site_symmetry_2
P1 H1 1_555 1_555
N1 P1 1_555 1_555
C1 N1 1_555 1_555
O1 P1 1_555 1_555
C2 C1 1_555 1_555
H2 C2 1_555 1_555
C3 C2 1_555 1_555
H3 C3 1_555 1_555
C4 C3 1_555 1_555
H4 C4 1_555 1_555
C5 C4 1_555 1_555
H5 C5 1_555 1_555
C6 C1 1_555 1_555
C7 C6 1_555 1_555
H6 C7 1_555 1_555
C8 N1 1_555 1_555
C9 C8 1_555 1_555
C10 C9 1_555 1_555
H7 C10 1_555 1_555
C11 C10 1_555 1_555
H8 C11 1_555 1_555
C12 C11 1_555 1_555
H9 C12 1_555 1_555
C13 C12 1_555 1_555
H10 C13 1_555 1_555
C14 C9 1_555 1_555
H11 C14 1_555 1_555
C15 P1 1_555 1_555
C16 C15 1_555 1_555
H12 C16 1_555 1_555
H13 C16 1_555 1_555
H14 C16 1_555 1_555
C17 C15 1_555 1_555
H15 C17 1_555 1_555
H16 C17 1_555 1_555
H17 C17 1_555 1_555
C18 C15 1_555 1_555
H18 C18 1_555 1_555
H19 C18 1_555 1_555
H20 C18 1_555 1_555
C5 C6 1_555 1_555
C7 C8 1_555 1_555
C13 C14 1_555 1_555

#END
