
#######################################################################
#
#                 Cambridge Crystallographic Data Centre
#                                CCDC 
#
#######################################################################
#
# If this CIF has been generated from an entry in the Cambridge 
# Structural Database, then it will include bibliographic, chemical, 
# crystal, experimental, refinement or atomic coordinate data resulting 
# from the CCDC's data processing and validation procedures.
#
#######################################################################

data_LICLEQ
_chemical_formula_moiety         'C18 H19 Cl1 N1 P1'
_chemical_name_systematic        
't-Butyl(2-phenyl-1H-indol-1-yl)phosphinous chloride'
_symmetry_cell_setting           tetragonal
_symmetry_space_group_name_H-M   'I -4'
_symmetry_Int_Tables_number      82
_space_group_name_Hall           'I -4'
loop_
_symmetry_equiv_pos_site_id
_symmetry_equiv_pos_as_xyz
1 x,y,z
2 -x,-y,z
3 y,-x,-z
4 -y,x,-z
5 1/2+x,1/2+y,1/2+z
6 1/2-x,1/2-y,1/2+z
7 1/2+y,1/2-x,1/2-z
8 1/2-y,1/2+x,1/2-z
_cell_length_a                   18.08290(10)
_cell_length_b                   18.08290(10)
_cell_length_c                   10.1073(2)
_cell_angle_alpha                90
_cell_angle_beta                 90
_cell_angle_gamma                90
_cell_volume                     3305
_exptl_crystal_colour            colorless
_exptl_crystal_description       parallelepiped
_cell_formula_units_Z            8
loop_
_atom_site_label
_atom_site_type_symbol
_atom_site_fract_x
_atom_site_fract_y
_atom_site_fract_z
P1 P 0.197965(19) 0.896504(18) 0.14401(4)
Cl1 Cl 0.12422(2) 0.916213(19) -0.00869(4)
N1 N 0.20178(6) 0.80125(6) 0.14151(14)
C1 C 0.14182(8) 0.92135(8) 0.29180(15)
C2 C 0.14738(8) 0.74530(7) 0.13975(15)
C3 C 0.18229(8) 0.67796(8) 0.17222(15)
C4 C 0.34096(7) 0.80693(7) 0.15963(15)
C5 C 0.07332(8) 0.74827(8) 0.10415(16)
H1 H 0.0504 0.7939 0.0820
C6 C 0.38791(8) 0.81777(8) 0.26714(16)
H2 H 0.3734 0.8018 0.3529
C7 C 0.43067(8) 0.86485(9) 0.01646(17)
H3 H 0.4452 0.8810 -0.0691
C8 C 0.06750(9) 0.61541(8) 0.13369(18)
H4 H 0.0392 0.5712 0.1314
C9 C 0.26985(8) 0.76638(8) 0.17271(14)
C10 C 0.13924(10) 1.00615(9) 0.29054(19)
H5 H 0.1101 1.0237 0.3661
H6 H 0.1163 1.0231 0.2081
H7 H 0.1896 1.0258 0.2966
C11 C 0.47728(8) 0.87534(9) 0.12402(17)
H8 H 0.5239 0.8986 0.1121
C12 C 0.25867(8) 0.69392(8) 0.19554(15)
H9 H 0.2952 0.6593 0.2225
C13 C 0.45577(9) 0.85177(9) 0.24898(18)
H10 H 0.4878 0.8590 0.3224
C14 C 0.14137(9) 0.61227(8) 0.16844(16)
H11 H 0.1640 0.5663 0.1894
C15 C 0.36281(8) 0.83061(9) 0.03469(15)
H12 H 0.3309 0.8233 -0.0389
C16 C 0.03394(9) 0.68255(9) 0.10192(16)
H13 H -0.0169 0.6832 0.0783
C17 C 0.06371(9) 0.89062(10) 0.30393(18)
H14 H 0.0412 0.9086 0.3861
H15 H 0.0656 0.8365 0.3053
H16 H 0.0341 0.9071 0.2282
C18 C 0.18945(10) 0.89526(10) 0.40853(18)
H17 H 0.1639 0.9062 0.4918
H18 H 0.2371 0.9211 0.4068
H19 H 0.1978 0.8419 0.4015
loop_
_geom_bond_atom_site_label_1
_geom_bond_atom_site_label_2
_geom_bond_site_symmetry_1
_geom_bond_site_symmetry_2
P1 Cl1 1_555 1_555
N1 P1 1_555 1_555
C1 P1 1_555 1_555
C2 N1 1_555 1_555
C3 C2 1_555 1_555
C4 C6 1_555 1_555
C5 C2 1_555 1_555
H1 C5 1_555 1_555
C6 H2 1_555 1_555
C7 H3 1_555 1_555
C8 H4 1_555 1_555
C9 N1 1_555 1_555
C10 C1 1_555 1_555
H5 C10 1_555 1_555
H6 C10 1_555 1_555
H7 C10 1_555 1_555
C11 C7 1_555 1_555
H8 C11 1_555 1_555
C12 C3 1_555 1_555
H9 C12 1_555 1_555
C13 C6 1_555 1_555
H10 C13 1_555 1_555
C14 C3 1_555 1_555
H11 C14 1_555 1_555
C15 C4 1_555 1_555
H12 C15 1_555 1_555
C16 C5 1_555 1_555
H13 C16 1_555 1_555
C17 C1 1_555 1_555
H14 C17 1_555 1_555
H15 C17 1_555 1_555
H16 C17 1_555 1_555
C18 C1 1_555 1_555
H17 C18 1_555 1_555
H18 C18 1_555 1_555
H19 C18 1_555 1_555
C4 C9 1_555 1_555
C7 C15 1_555 1_555
C8 C14 1_555 1_555
C8 C16 1_555 1_555
C9 C12 1_555 1_555
C11 C13 1_555 1_555

#END
