
#######################################################################
#
#                 Cambridge Crystallographic Data Centre
#                                CCDC 
#
#######################################################################
#
# If this CIF has been generated from an entry in the Cambridge 
# Structural Database, then it will include bibliographic, chemical, 
# crystal, experimental, refinement or atomic coordinate data resulting 
# from the CCDC's data processing and validation procedures.
#
#######################################################################

data_LICMUH
_chemical_formula_moiety         'C6 H7 Cl1 N1 O1 1+,0.5(C4 H2 O4 2-),H2 O1'
_chemical_name_systematic        
'5-Chloro-2-hydroxyanilinium hemikis(but-2-enedioate) monohydrate'
_symmetry_cell_setting           monoclinic
_symmetry_space_group_name_H-M   'P 21/c'
_symmetry_Int_Tables_number      14
_space_group_name_Hall           '-P 2ybc'
loop_
_symmetry_equiv_pos_site_id
_symmetry_equiv_pos_as_xyz
1 x,y,z
2 -x,1/2+y,1/2-z
3 -x,-y,-z
4 x,1/2-y,1/2+z
_cell_length_a                   5.645(3)
_cell_length_b                   21.777(12)
_cell_length_c                   7.992(4)
_cell_angle_alpha                90
_cell_angle_beta                 90.579(6)
_cell_angle_gamma                90
_cell_volume                     982.416
_exptl_crystal_colour            colorless
_exptl_crystal_description       block
_cell_formula_units_Z            4
loop_
_atom_site_label
_atom_site_type_symbol
_atom_site_fract_x
_atom_site_fract_y
_atom_site_fract_z
Cl1 Cl 0.36299(15) 0.30968(3) -0.03000(10)
N1 N 0.3692(3) 0.07311(9) -0.0648(2)
H1 H 0.2508 0.0826 -0.1346
H2 H 0.3127 0.0523 0.0219
H3 H 0.4748 0.0501 -0.1180
O1 O 0.7754(3) 0.06767(8) 0.1231(2)
H4 H 0.8751 0.0694 0.1983
C1 C 0.6902(4) 0.12509(11) 0.0911(3)
C2 C 0.4833(4) 0.12973(11) -0.0051(3)
C3 C 0.3829(4) 0.18615(11) -0.0434(3)
H5 H 0.2442 0.1886 -0.1068
C4 C 0.4936(5) 0.23879(12) 0.0148(3)
C5 C 0.7017(5) 0.23604(13) 0.1083(3)
H6 H 0.7749 0.2719 0.1455
C6 C 0.7991(5) 0.17902(12) 0.1455(3)
H7 H 0.9391 0.1768 0.2077
O2 O 0.0943(3) 1.07035(8) 0.3717(2)
O3 O 0.2823(3) 1.00042(8) 0.21877(18)
C7 C 0.2559(4) 1.03162(11) 0.3507(3)
C8 C 0.4273(4) 1.02245(13) 0.4922(3)
H8 H 0.4287 1.0519 0.5763
O2B O 0.9057(3) 0.92965(8) 0.6283(2)
O3B O 0.7177(3) 0.99958(8) 0.78123(18)
C7B C 0.7441(4) 0.96838(11) 0.6493(3)
C8B C 0.5727(4) 0.97755(13) 0.5078(3)
H8B H 0.5713 0.9481 0.4237
O4 O 0.9961(3) 0.10518(9) 0.7153(2)
H9 H 1.0343 0.0990 0.6141
H10 H 0.9106 0.0753 0.7468
loop_
_geom_bond_atom_site_label_1
_geom_bond_atom_site_label_2
_geom_bond_site_symmetry_1
_geom_bond_site_symmetry_2
Cl1 C4 1_555 1_555
N1 H1 1_555 1_555
H2 N1 1_555 1_555
H3 N1 1_555 1_555
O1 H4 1_555 1_555
C1 O1 1_555 1_555
C2 N1 1_555 1_555
C3 C2 1_555 1_555
H5 C3 1_555 1_555
C4 C3 1_555 1_555
C5 C4 1_555 1_555
H6 C5 1_555 1_555
C6 C1 1_555 1_555
H7 C6 1_555 1_555
O2 C7 1_555 1_555
O3 C7 1_555 1_555
C7 C8 1_555 1_555
C8 H8 1_555 1_555
O4 H9 1_555 1_555
H10 O4 1_555 1_555
O2B C7B 1_555 1_555
O3B C7B 1_555 1_555
C7B C8B 1_555 1_555
C8B C8 1_555 1_555
H8B C8B 1_555 1_555
C1 C2 1_555 1_555
C5 C6 1_555 1_555

#END
