
#######################################################################
#
#                 Cambridge Crystallographic Data Centre
#                                CCDC 
#
#######################################################################
#
# If this CIF has been generated from an entry in the Cambridge 
# Structural Database, then it will include bibliographic, chemical, 
# crystal, experimental, refinement or atomic coordinate data resulting 
# from the CCDC's data processing and validation procedures.
#
#######################################################################

data_LICPEV
_chemical_name_common            
'3,6-phenanthrene-linked azabuckybowl dimer C70-fullerene complex toluene solvate'
_chemical_formula_moiety         'C114 H100 N2,C70,3(C7 H8)'
_chemical_name_systematic        
"2,2'-(phenanthrene-3,6-diyl)bis(5,8,11,14-tetra-t-butyl-15d-azabenzo[5,6]acenaphtho[4,3,2,1,8,7-pqrstuv]dibenzo[fg,ij]pentaphene) C70-fullerene toluene solvate"
_symmetry_cell_setting           monoclinic
_symmetry_space_group_name_H-M   'P 21/n'
_symmetry_Int_Tables_number      14
_space_group_name_Hall           '-P 2yn'
loop_
_symmetry_equiv_pos_site_id
_symmetry_equiv_pos_as_xyz
1 x,y,z
2 1/2-x,1/2+y,1/2-z
3 -x,-y,-z
4 1/2+x,1/2-y,1/2+z
_cell_length_a                   13.0834(3)
_cell_length_b                   38.2825(7)
_cell_length_c                   26.7591(6)
_cell_angle_alpha                90
_cell_angle_beta                 102.678(2)
_cell_angle_gamma                90
_cell_volume                     13075.9
_exptl_crystal_colour            'dark brown'
_exptl_crystal_description       needle
_cell_formula_units_Z            4
_exptl_crystal_recrystallization_method 
'Re-crystallisation from solvent: toluene/diethyl ether/methanol'
loop_
_atom_site_label
_atom_site_type_symbol
_atom_site_fract_x
_atom_site_fract_y
_atom_site_fract_z
C1 C 0.6512(7) 0.3398(3) 0.6568(3)
C2 C 0.5598(9) 0.3300(2) 0.6197(3)
C3 C 0.5143(8) 0.3004(2) 0.6401(3)
C4 C 0.5761(9) 0.2918(2) 0.6888(4)
C5 C 0.6644(7) 0.3165(3) 0.7003(4)
C6 C 0.6977(6) 0.3284(3) 0.7473(4)
C7 C 0.7250(5) 0.3656(3) 0.7564(3)
C8 C 0.7144(5) 0.3875(2) 0.7189(4)
C9 C 0.6778(6) 0.3737(3) 0.6657(3)
C10 C 0.6158(6) 0.4009(2) 0.6378(3)
C11 C 0.5278(6) 0.3919(2) 0.6035(3)
C12 C 0.4996(6) 0.3557(2) 0.5933(3)
C13 C 0.3842(9) 0.3536(3) 0.5853(3)
C14 C 0.3415(6) 0.3263(2) 0.6020(3)
C15 C 0.4139(7) 0.2987(2) 0.6303(4)
C16 C 0.3591(6) 0.28672(18) 0.6709(4)
C17 C 0.4153(9) 0.27863(18) 0.7174(4)
C18 C 0.5294(8) 0.28095(19) 0.7272(4)
C19 C 0.5667(7) 0.29374(19) 0.7798(4)
C20 C 0.6506(6) 0.3162(2) 0.7878(3)
C21 C 0.6492(6) 0.3450(2) 0.8219(3)
C22 C 0.6926(5) 0.3747(2) 0.8049(3)
C23 C 0.6566(5) 0.4082(2) 0.8115(2)
C24 C 0.6454(5) 0.43322(18) 0.7674(3)
C25 C 0.6736(6) 0.4223(2) 0.7233(4)
C26 C 0.6101(8) 0.4302(2) 0.6736(3)
C27 C 0.5198(9) 0.4499(2) 0.6666(3)
C28 C 0.4221(9) 0.4397(2) 0.6265(3)
C29 C 0.4309(7) 0.4107(2) 0.5986(3)
C30 C 0.3417(6) 0.3871(3) 0.5868(3)
C31 C 0.2440(6) 0.3914(2) 0.6042(2)
C32 C 0.1959(5) 0.36180(18) 0.6238(2)
C33 C 0.2517(6) 0.32890(19) 0.6234(2)
C34 C 0.2610(6) 0.30573(19) 0.6641(3)
C35 C 0.2180(6) 0.31234(17) 0.7069(3)
C36 C 0.2824(7) 0.30372(18) 0.7599(3)
C37 C 0.3820(8) 0.2883(2) 0.7643(5)
C38 C 0.4779(9) 0.2976(2) 0.8002(3)
C39 C 0.4710(8) 0.3245(2) 0.8374(3)
C40 C 0.5652(6) 0.3483(3) 0.8486(3)
C41 C 0.5407(5) 0.3824(2) 0.8625(2)
C42 C 0.5872(5) 0.4118(2) 0.8428(2)
C43 C 0.5099(8) 0.4395(2) 0.8366(3)
C44 C 0.5010(7) 0.4622(2) 0.7984(4)
C45 C 0.5633(5) 0.45830(17) 0.7618(3)
C46 C 0.5046(7) 0.46709(18) 0.7120(4)
C47 C 0.4000(9) 0.4756(2) 0.7170(5)
C48 C 0.3137(9) 0.4683(2) 0.6818(5)
C49 C 0.3254(8) 0.4496(2) 0.6378(4)
C50 C 0.2359(8) 0.4243(2) 0.6244(3)
C51 C 0.1741(6) 0.4291(2) 0.6603(4)
C52 C 0.1273(5) 0.4014(2) 0.6794(3)
C53 C 0.1393(5) 0.36626(19) 0.6627(3)
C54 C 0.1485(5) 0.34231(18) 0.7047(3)
C55 C 0.1424(5) 0.3601(2) 0.7503(3)
C56 C 0.2035(7) 0.3517(4) 0.7967(4)
C57 C 0.2758(9) 0.3254(3) 0.8015(3)
C58 C 0.3742(7) 0.3355(2) 0.8414(2)
C59 C 0.3565(7) 0.3698(3) 0.8582(3)
C60 C 0.4368(6) 0.3923(2) 0.8678(2)
C61 C 0.4147(6) 0.4278(2) 0.8527(3)
C62 C 0.3211(8) 0.4406(3) 0.8269(4)
C63 C 0.3088(9) 0.4626(3) 0.7858(4)
C64 C 0.3941(7) 0.4729(2) 0.7702(5)
C65 C 0.2233(7) 0.45737(19) 0.6969(4)
C66 C 0.2127(7) 0.4521(2) 0.7461(3)
C67 C 0.1686(8) 0.4238(3) 0.7644(5)
C68 C 0.1267(6) 0.3982(3) 0.7364(5)
C69 C 0.2525(6) 0.3803(3) 0.8329(3)
C70 C 0.2353(10) 0.4142(3) 0.8160(4)
C71 C -0.0162(4) 0.25358(12) 0.70845(17)
C72 C -0.0447(4) 0.27685(12) 0.66732(17)
H1 H -0.0959 0.2943 0.6683
C73 C 0.0012(3) 0.27479(12) 0.62454(16)
C74 C 0.0751(3) 0.24763(11) 0.62699(17)
C75 C 0.1192(4) 0.22739(11) 0.67093(18)
C76 C 0.0673(4) 0.23018(12) 0.71097(18)
H2 H 0.0889 0.2160 0.7405
C77 C -0.0740(3) 0.33147(13) 0.57777(17)
H3 H -0.1168 0.3355 0.6016
C78 C -0.0723(4) 0.35656(13) 0.53934(17)
C79 C 0.0007(3) 0.35335(13) 0.50870(16)
H4 H 0.0068 0.3717 0.4856
C80 C 0.0654(3) 0.32402(12) 0.51075(15)
C81 C 0.0463(3) 0.29715(11) 0.54427(15)
C82 C -0.0151(3) 0.30098(12) 0.58180(16)
C83 C 0.1587(3) 0.32127(12) 0.48674(16)
C84 C 0.2000(4) 0.34886(13) 0.46335(16)
H5 H 0.1595 0.3695 0.4547
C85 C 0.3004(4) 0.34690(14) 0.45222(17)
C86 C 0.3620(4) 0.31732(14) 0.46665(18)
H6 H 0.4309 0.3169 0.4605
C87 C 0.3273(3) 0.28836(13) 0.48958(17)
C88 C 0.2206(3) 0.29035(12) 0.49512(16)
C89 C 0.4203(4) 0.21604(12) 0.58885(19)
C90 C 0.3576(3) 0.23563(12) 0.54807(18)
C91 C 0.3967(3) 0.25947(13) 0.51610(18)
C92 C 0.5041(4) 0.25752(14) 0.5189(2)
H7 H 0.5343 0.2716 0.4967
C93 C 0.5690(4) 0.23514(14) 0.5538(2)
C94 C 0.5280(4) 0.21591(13) 0.5891(2)
H8 H 0.5741 0.2023 0.6140
C95 C 0.2846(4) 0.19514(11) 0.7185(2)
H9 H 0.2572 0.1932 0.7485
C96 C 0.2220(4) 0.20884(11) 0.67426(19)
C97 C 0.2660(4) 0.21005(11) 0.63026(18)
C98 C 0.3743(4) 0.20297(11) 0.6312(2)
C99 C 0.4304(4) 0.18863(12) 0.6776(2)
H10 H 0.5011 0.1818 0.6798
C100 C 0.3878(4) 0.18405(12) 0.7200(2)
C101 C 0.1033(3) 0.26661(11) 0.54488(16)
C102 C 0.1850(3) 0.26260(12) 0.52027(16)
C103 C 0.2493(3) 0.23650(12) 0.54558(17)
C104 C 0.2077(3) 0.22488(11) 0.58565(18)
C105 C -0.1469(4) 0.38756(14) 0.53274(19)
C106 C -0.1326(7) 0.4098(2) 0.5804(3)
H11 H -0.1316 0.3948 0.6101
H12 H -0.1906 0.4264 0.5767
H13 H -0.0662 0.4226 0.5851
C107 C -0.1491(9) 0.4085(3) 0.4842(4)
H14 H -0.0858 0.4229 0.4888
H15 H -0.2111 0.4236 0.4772
H16 H -0.1518 0.3925 0.4554
C108 C -0.2643(6) 0.3722(2) 0.5236(3)
H17 H -0.2772 0.3567 0.4937
H18 H -0.3147 0.3915 0.5175
H19 H -0.2724 0.3591 0.5539
C109 C 0.3412(4) 0.37771(16) 0.4253(2)
C110 C 0.3189(8) 0.4138(2) 0.4502(4)
H20 H 0.3464 0.4330 0.4328
H21 H 0.3533 0.4138 0.4866
H22 H 0.2432 0.4167 0.4465
C111 C 0.2872(8) 0.3787(3) 0.3708(3)
H23 H 0.3081 0.3998 0.3548
H24 H 0.2113 0.3790 0.3680
H25 H 0.3064 0.3580 0.3533
C112 C 0.4570(5) 0.3783(2) 0.4334(4)
H26 H 0.4808 0.3573 0.4183
H27 H 0.4881 0.3789 0.4702
H28 H 0.4787 0.3991 0.4170
C113 C 0.6852(4) 0.23156(15) 0.5513(2)
C114 C 0.7290(5) 0.26511(18) 0.5349(4)
H29 H 0.6885 0.2719 0.5010
H30 H 0.8024 0.2616 0.5334
H31 H 0.7243 0.2836 0.5597
C115 C 0.6905(5) 0.20255(18) 0.5119(3)
H32 H 0.6668 0.1804 0.5240
H33 H 0.7628 0.2000 0.5080
H34 H 0.6452 0.2087 0.4789
C116 C 0.7543(4) 0.22082(18) 0.6038(3)
H35 H 0.7455 0.2379 0.6299
H36 H 0.8279 0.2202 0.6014
H37 H 0.7329 0.1977 0.6133
C117 C 0.4531(4) 0.16836(13) 0.7695(2)
C118 C 0.4749(10) 0.1949(2) 0.8100(3)
H38 H 0.4087 0.2034 0.8169
H39 H 0.5131 0.2144 0.7989
H40 H 0.5175 0.1846 0.8412
C119 C 0.5626(7) 0.1577(4) 0.7634(4)
H41 H 0.5853 0.1733 0.7390
H42 H 0.5607 0.1336 0.7508
H43 H 0.6120 0.1592 0.7967
C120 C 0.4057(8) 0.1365(2) 0.7825(4)
H44 H 0.4590 0.1182 0.7903
H45 H 0.3501 0.1292 0.7535
H46 H 0.3758 0.1406 0.8125
C121 C 0.0242(3) 0.39458(11) 0.89915(16)
C122 C 0.1201(3) 0.39444(11) 0.93441(16)
H47 H 0.1391 0.3746 0.9557
C123 C 0.1885(3) 0.42270(11) 0.93915(15)
C124 C 0.1498(3) 0.45219(11) 0.90800(15)
C125 C 0.0595(3) 0.45192(11) 0.86706(15)
C126 C -0.0031(3) 0.42195(11) 0.86445(16)
H48 H -0.0655 0.4203 0.8385
C127 C 0.3543(3) 0.39281(11) 0.99120(15)
H49 H 0.3161 0.3724 0.9958
C128 C 0.4649(3) 0.39288(11) 1.00830(16)
C129 C 0.5217(3) 0.42132(11) 0.99745(16)
H50 H 0.5960 0.4204 1.0068
C130 C 0.4741(3) 0.45137(10) 0.97323(15)
C131 C 0.3633(3) 0.45146(10) 0.96350(15)
C132 C 0.3007(3) 0.42181(10) 0.96796(15)
C133 C 0.5302(3) 0.47934(10) 0.95114(15)
C134 C 0.6373(3) 0.47786(11) 0.95019(16)
H51 H 0.6803 0.4604 0.9694
C135 C 0.6814(3) 0.50155(11) 0.92159(16)
C136 C 0.6168(3) 0.52592(12) 0.88931(17)
H52 H 0.6473 0.5411 0.8686
C137 C 0.5102(3) 0.52821(11) 0.88725(16)
C138 C 0.4724(3) 0.50683(10) 0.92270(15)
C139 C 0.2430(3) 0.54605(11) 0.79629(17)
C140 C 0.3222(3) 0.54193(11) 0.84249(17)
C141 C 0.4322(3) 0.54633(11) 0.84544(17)
C142 C 0.4578(4) 0.56158(12) 0.80232(18)
H53 H 0.5293 0.5665 0.8029
C143 C 0.3816(4) 0.56998(12) 0.75793(19)
C144 C 0.2773(3) 0.56128(12) 0.75505(19)
H54 H 0.2275 0.5658 0.7241
C145 C -0.0289(3) 0.48074(12) 0.78137(17)
H55 H -0.0835 0.4639 0.7757
C146 C 0.0456(3) 0.48005(11) 0.82730(16)
C147 C 0.1229(3) 0.50683(11) 0.83307(17)
C148 C 0.1397(3) 0.52888(12) 0.79231(17)
C149 C 0.0600(3) 0.52798(13) 0.74807(18)
H56 H 0.0642 0.5430 0.7204
C150 C -0.0259(3) 0.50547(13) 0.74343(18)
C151 C 0.3141(3) 0.48140(11) 0.94018(15)
C152 C 0.3647(3) 0.50815(10) 0.92192(15)
C153 C 0.2927(3) 0.52515(10) 0.88341(16)
C154 C 0.1982(3) 0.50796(10) 0.87847(16)
C155 C 0.5210(4) 0.36038(12) 1.03525(18)
C156 C 0.5039(4) 0.32963(13) 0.9983(2)
H57 H 0.5374 0.3088 1.0159
H58 H 0.5348 0.3349 0.9690
H59 H 0.4287 0.3254 0.9863
C157 C 0.4753(5) 0.35192(15) 1.0821(2)
H60 H 0.4001 0.3473 1.0710
H61 H 0.4865 0.3718 1.1058
H62 H 0.5103 0.3312 1.0995
C158 C 0.6381(4) 0.36673(14) 1.0541(3)
H63 H 0.6705 0.3462 1.0731
H64 H 0.6492 0.3872 1.0766
H65 H 0.6700 0.3708 1.0247
C159 C 0.7993(3) 0.50082(12) 0.92226(17)
C160 C 0.8556(4) 0.46989(16) 0.9533(2)
H66 H 0.9298 0.4702 0.9520
H67 H 0.8237 0.4480 0.9386
H68 H 0.8490 0.4718 0.9889
C161 C 0.8494(4) 0.53405(15) 0.9463(2)
H69 H 0.8115 0.5542 0.9288
H70 H 0.9226 0.5349 0.9432
H71 H 0.8467 0.5346 0.9826
C162 C 0.8145(4) 0.49767(16) 0.86747(19)
H72 H 0.7795 0.5172 0.8470
H73 H 0.7843 0.4756 0.8526
H74 H 0.8895 0.4982 0.8677
C163 C 0.4185(4) 0.58740(14) 0.7128(2)
C164 C 0.5121(5) 0.56690(19) 0.7009(3)
H75 H 0.5729 0.5694 0.7295
H76 H 0.5292 0.5761 0.6696
H77 H 0.4935 0.5421 0.6962
C165 C 0.4520(5) 0.62477(16) 0.7281(2)
H78 H 0.3933 0.6373 0.7372
H79 H 0.4727 0.6366 0.6994
H80 H 0.5113 0.6244 0.7577
C166 C 0.3330(4) 0.58779(17) 0.6642(2)
H81 H 0.3089 0.5639 0.6554
H82 H 0.3607 0.5977 0.6361
H83 H 0.2741 0.6020 0.6696
C167 C -0.1173(4) 0.50650(15) 0.69551(19)
C168 C -0.1220(4) 0.47219(19) 0.6673(2)
H84 H -0.1356 0.4532 0.6896
H85 H -0.0551 0.4680 0.6576
H86 H -0.1785 0.4730 0.6365
C169 C -0.1031(6) 0.5368(2) 0.6591(3)
H87 H -0.1710 0.5426 0.6369
H88 H -0.0543 0.5296 0.6380
H89 H -0.0751 0.5573 0.6794
C170 C -0.2193(4) 0.51337(15) 0.7110(3)
H90 H -0.2767 0.5131 0.6806
H91 H -0.2164 0.5363 0.7277
H92 H -0.2311 0.4952 0.7350
C171 C -0.0739(4) 0.25322(13) 0.75090(18)
C172 C -0.0714(4) 0.28080(13) 0.78403(17)
H93 H -0.0338 0.3012 0.7789
C173 C -0.1224(4) 0.28008(12) 0.82537(17)
C174 C -0.1820(4) 0.24960(13) 0.83075(18)
C175 C -0.1850(4) 0.22156(14) 0.7959(2)
H94 H -0.2250 0.2013 0.7993
C176 C -0.1307(4) 0.22315(15) 0.75727(19)
H95 H -0.1318 0.2038 0.7349
C177 C -0.0470(3) 0.36346(11) 0.89826(17)
C178 C -0.0548(3) 0.33824(11) 0.86157(17)
H96 H -0.0183 0.3411 0.8348
C179 C -0.1157(3) 0.30810(12) 0.86254(16)
C180 C -0.1710(4) 0.30481(13) 0.90236(17)
C181 C -0.1630(4) 0.33159(13) 0.93919(18)
H97 H -0.2001 0.3295 0.9659
C182 C -0.1031(4) 0.36046(13) 0.93724(17)
H98 H -0.0993 0.3784 0.9621
C183 C -0.2403(4) 0.24841(14) 0.87039(18)
H99 H -0.2835 0.2288 0.8726
C184 C -0.2350(4) 0.27445(14) 0.90434(18)
H100 H -0.2741 0.2729 0.9302
N1 N 0.1158(3) 0.24291(9) 0.58443(14)
N2 N 0.2103(2) 0.48187(8) 0.91447(13)
C185 C 0.3226(5) 0.23351(16) 0.9068(2)
C186 C 0.2473(6) 0.2586(2) 0.8921(3)
H101 H 0.2680 0.2823 0.8916
C187 C 0.1465(8) 0.2507(3) 0.8785(4)
H102 H 0.0966 0.2690 0.8699
C188 C 0.1128(7) 0.2170(4) 0.8764(3)
H103 H 0.0407 0.2117 0.8642
C189 C 0.1854(8) 0.1906(3) 0.8924(3)
H104 H 0.1628 0.1670 0.8930
C190 C 0.2921(6) 0.19883(19) 0.9076(3)
H105 H 0.3426 0.1810 0.9183
C191 C 0.4353(5) 0.24359(17) 0.9214(2)
H106 H 0.4558 0.2549 0.8923
H107 H 0.4781 0.2227 0.9312
H108 H 0.4460 0.2598 0.9504
C192 C 0.5295(6) 0.10409(19) 0.6206(4)
C193 C 0.5780(8) 0.0884(2) 0.6652(3)
H109 H 0.5399 0.0743 0.6840
C194 C 0.6946(9) 0.0941(3) 0.6840(5)
H110 H 0.7304 0.0854 0.7164
C195 C 0.7457(7) 0.1114(2) 0.6541(5)
H111 H 0.8194 0.1145 0.6637
C196 C 0.6874(9) 0.1253(2) 0.6076(5)
H112 H 0.7239 0.1374 0.5859
C197 C 0.5846(8) 0.12225(19) 0.5928(4)
H113 H 0.5492 0.1331 0.5619
C198 C 0.4162(6) 0.0996(2) 0.6030(4)
H114 H 0.4019 0.0792 0.5804
H115 H 0.3861 0.1205 0.5842
H116 H 0.3846 0.0961 0.6326
C199? C -0.0709(14) 0.4210(4) 0.5445(8)
H117? H -0.0434 0.4265 0.5142
H118? H -0.0126 0.4157 0.5734
H119? H -0.1104 0.4410 0.5532
C200? C -0.2061(16) 0.3901(7) 0.4786(6)
H120? H -0.2422 0.3680 0.4683
H121? H -0.1574 0.3951 0.4564
H122? H -0.2577 0.4090 0.4755
C201? C -0.2149(16) 0.3883(6) 0.5711(7)
H123? H -0.2639 0.4080 0.5635
H124? H -0.1710 0.3911 0.6056
H125? H -0.2543 0.3664 0.5693
C202? C 0.5643(14) 0.0095(6) 1.0067(6)
C203? C 0.5193(15) -0.0065(6) 1.0434(6)
H126? H 0.5580 -0.0085 1.0777
C204? C 0.4178(16) -0.0195(6) 1.0297(7)
H127? H 0.3871 -0.0304 1.0548
C205? C 0.3612(14) -0.0165(6) 0.9795(8)
H128? H 0.2918 -0.0253 0.9702
C206? C 0.4061(15) -0.0005(6) 0.9429(6)
H129? H 0.3674 0.0015 0.9085
C207? C 0.5077(16) 0.0125(6) 0.9565(6)
H130? H 0.5384 0.0234 0.9315
C208? C 0.675(2) 0.0225(9) 1.0209(9)
H131? H 0.7035 0.0187 1.0575
H132? H 0.6769 0.0475 1.0132
H133? H 0.7180 0.0097 1.0011
C209? C 0.0299(13) 0.0090(4) 0.9729(5)
C210? C 0.0707(13) 0.0109(4) 1.0254(6)
H134? H 0.1351 0.0226 1.0381
C211? C 0.0171(15) -0.0044(4) 1.0592(5)
H135? H 0.0449 -0.0031 1.0951
C212? C -0.0773(15) -0.0215(4) 1.0406(7)
H136? H -0.1139 -0.0319 1.0638
C213? C -0.1180(12) -0.0234(4) 0.9882(7)
H137? H -0.1825 -0.0351 0.9755
C214? C -0.0644(13) -0.0082(4) 0.9543(5)
H138? H -0.0923 -0.0095 0.9185
C215? C 0.087(2) 0.0262(7) 0.9350(8)
H139? H 0.0373 0.0309 0.9027
H140? H 0.1421 0.0104 0.9286
H141? H 0.1191 0.0481 0.9495
loop_
_geom_bond_atom_site_label_1
_geom_bond_atom_site_label_2
_geom_bond_site_symmetry_1
_geom_bond_site_symmetry_2
C1 C2 1_555 1_555
C2 C3 1_555 1_555
C3 C4 1_555 1_555
C4 C5 1_555 1_555
C5 C1 1_555 1_555
C6 C5 1_555 1_555
C7 C6 1_555 1_555
C8 C7 1_555 1_555
C9 C1 1_555 1_555
C10 C9 1_555 1_555
C11 C10 1_555 1_555
C12 C2 1_555 1_555
C13 C12 1_555 1_555
C14 C13 1_555 1_555
C15 C3 1_555 1_555
C16 C15 1_555 1_555
C17 C16 1_555 1_555
C18 C4 1_555 1_555
C19 C18 1_555 1_555
C20 C6 1_555 1_555
C21 C20 1_555 1_555
C22 C7 1_555 1_555
C23 C22 1_555 1_555
C24 C23 1_555 1_555
C25 C8 1_555 1_555
C26 C10 1_555 1_555
C27 C26 1_555 1_555
C28 C27 1_555 1_555
C29 C11 1_555 1_555
C30 C13 1_555 1_555
C31 C30 1_555 1_555
C32 C31 1_555 1_555
C33 C14 1_555 1_555
C34 C16 1_555 1_555
C35 C34 1_555 1_555
C36 C35 1_555 1_555
C37 C17 1_555 1_555
C38 C19 1_555 1_555
C39 C38 1_555 1_555
C40 C21 1_555 1_555
C41 C40 1_555 1_555
C42 C23 1_555 1_555
C43 C42 1_555 1_555
C44 C43 1_555 1_555
C45 C24 1_555 1_555
C46 C27 1_555 1_555
C47 C46 1_555 1_555
C48 C47 1_555 1_555
C49 C28 1_555 1_555
C50 C31 1_555 1_555
C51 C50 1_555 1_555
C52 C51 1_555 1_555
C53 C32 1_555 1_555
C54 C35 1_555 1_555
C55 C54 1_555 1_555
C56 C55 1_555 1_555
C57 C36 1_555 1_555
C58 C39 1_555 1_555
C59 C58 1_555 1_555
C60 C41 1_555 1_555
C61 C43 1_555 1_555
C62 C61 1_555 1_555
C63 C62 1_555 1_555
C64 C44 1_555 1_555
C65 C48 1_555 1_555
C66 C63 1_555 1_555
C67 C66 1_555 1_555
C68 C52 1_555 1_555
C69 C56 1_555 1_555
C70 C62 1_555 1_555
C71 C72 1_555 1_555
C72 H1 1_555 1_555
C73 C72 1_555 1_555
C74 C73 1_555 1_555
C75 C74 1_555 1_555
C76 C71 1_555 1_555
H2 C76 1_555 1_555
C77 H3 1_555 1_555
C78 C77 1_555 1_555
C79 C78 1_555 1_555
H4 C79 1_555 1_555
C80 C79 1_555 1_555
C81 C80 1_555 1_555
C82 C73 1_555 1_555
C83 C80 1_555 1_555
C84 C83 1_555 1_555
H5 C84 1_555 1_555
C85 C84 1_555 1_555
C86 C85 1_555 1_555
H6 C86 1_555 1_555
C87 C86 1_555 1_555
C88 C83 1_555 1_555
C89 C90 1_555 1_555
C90 C91 1_555 1_555
C91 C87 1_555 1_555
C92 C91 1_555 1_555
H7 C92 1_555 1_555
C93 C92 1_555 1_555
C94 C89 1_555 1_555
H8 C94 1_555 1_555
C95 H9 1_555 1_555
C96 C75 1_555 1_555
C97 C96 1_555 1_555
C98 C89 1_555 1_555
C99 C98 1_555 1_555
H10 C99 1_555 1_555
C100 C95 1_555 1_555
C101 C81 1_555 1_555
C102 C88 1_555 1_555
C103 C90 1_555 1_555
C104 C97 1_555 1_555
C105 C78 1_555 1_555
C106 C105 1_555 1_555
H11 C106 1_555 1_555
H12 C106 1_555 1_555
H13 C106 1_555 1_555
C107 C105 1_555 1_555
H14 C107 1_555 1_555
H15 C107 1_555 1_555
H16 C107 1_555 1_555
C108 C105 1_555 1_555
H17 C108 1_555 1_555
H18 C108 1_555 1_555
H19 C108 1_555 1_555
C109 C85 1_555 1_555
C110 C109 1_555 1_555
H20 C110 1_555 1_555
H21 C110 1_555 1_555
H22 C110 1_555 1_555
C111 C109 1_555 1_555
H23 C111 1_555 1_555
H24 C111 1_555 1_555
H25 C111 1_555 1_555
C112 C109 1_555 1_555
H26 C112 1_555 1_555
H27 C112 1_555 1_555
H28 C112 1_555 1_555
C113 C93 1_555 1_555
C114 C113 1_555 1_555
H29 C114 1_555 1_555
H30 C114 1_555 1_555
H31 C114 1_555 1_555
C115 C113 1_555 1_555
H32 C115 1_555 1_555
H33 C115 1_555 1_555
H34 C115 1_555 1_555
C116 C113 1_555 1_555
H35 C116 1_555 1_555
H36 C116 1_555 1_555
H37 C116 1_555 1_555
C117 C100 1_555 1_555
C118 C117 1_555 1_555
H38 C118 1_555 1_555
H39 C118 1_555 1_555
H40 C118 1_555 1_555
C119 C117 1_555 1_555
H41 C119 1_555 1_555
H42 C119 1_555 1_555
H43 C119 1_555 1_555
C120 C117 1_555 1_555
H44 C120 1_555 1_555
H45 C120 1_555 1_555
H46 C120 1_555 1_555
C121 C122 1_555 1_555
C122 H47 1_555 1_555
C123 C122 1_555 1_555
C124 C123 1_555 1_555
C125 C124 1_555 1_555
C126 C121 1_555 1_555
H48 C126 1_555 1_555
C127 H49 1_555 1_555
C128 C127 1_555 1_555
C129 C128 1_555 1_555
H50 C129 1_555 1_555
C130 C129 1_555 1_555
C131 C130 1_555 1_555
C132 C123 1_555 1_555
C133 C130 1_555 1_555
C134 C133 1_555 1_555
H51 C134 1_555 1_555
C135 C134 1_555 1_555
C136 C135 1_555 1_555
H52 C136 1_555 1_555
C137 C136 1_555 1_555
C138 C133 1_555 1_555
C139 C140 1_555 1_555
C140 C141 1_555 1_555
C141 C137 1_555 1_555
C142 C141 1_555 1_555
H53 C142 1_555 1_555
C143 C142 1_555 1_555
C144 C139 1_555 1_555
H54 C144 1_555 1_555
C145 H55 1_555 1_555
C146 C125 1_555 1_555
C147 C146 1_555 1_555
C148 C139 1_555 1_555
C149 C148 1_555 1_555
H56 C149 1_555 1_555
C150 C145 1_555 1_555
C151 C131 1_555 1_555
C152 C138 1_555 1_555
C153 C140 1_555 1_555
C154 C147 1_555 1_555
C155 C128 1_555 1_555
C156 C155 1_555 1_555
H57 C156 1_555 1_555
H58 C156 1_555 1_555
H59 C156 1_555 1_555
C157 C155 1_555 1_555
H60 C157 1_555 1_555
H61 C157 1_555 1_555
H62 C157 1_555 1_555
C158 C155 1_555 1_555
H63 C158 1_555 1_555
H64 C158 1_555 1_555
H65 C158 1_555 1_555
C159 C135 1_555 1_555
C160 C159 1_555 1_555
H66 C160 1_555 1_555
H67 C160 1_555 1_555
H68 C160 1_555 1_555
C161 C159 1_555 1_555
H69 C161 1_555 1_555
H70 C161 1_555 1_555
H71 C161 1_555 1_555
C162 C159 1_555 1_555
H72 C162 1_555 1_555
H73 C162 1_555 1_555
H74 C162 1_555 1_555
C163 C143 1_555 1_555
C164 C163 1_555 1_555
H75 C164 1_555 1_555
H76 C164 1_555 1_555
H77 C164 1_555 1_555
C165 C163 1_555 1_555
H78 C165 1_555 1_555
H79 C165 1_555 1_555
H80 C165 1_555 1_555
C166 C163 1_555 1_555
H81 C166 1_555 1_555
H82 C166 1_555 1_555
H83 C166 1_555 1_555
C167 C150 1_555 1_555
C168 C167 1_555 1_555
H84 C168 1_555 1_555
H85 C168 1_555 1_555
H86 C168 1_555 1_555
C169 C167 1_555 1_555
H87 C169 1_555 1_555
H88 C169 1_555 1_555
H89 C169 1_555 1_555
C170 C167 1_555 1_555
H90 C170 1_555 1_555
H91 C170 1_555 1_555
H92 C170 1_555 1_555
C171 C71 1_555 1_555
C172 C171 1_555 1_555
H93 C172 1_555 1_555
C173 C172 1_555 1_555
C174 C173 1_555 1_555
C175 C174 1_555 1_555
H94 C175 1_555 1_555
C176 C171 1_555 1_555
H95 C176 1_555 1_555
C177 C121 1_555 1_555
C178 C177 1_555 1_555
H96 C178 1_555 1_555
C179 C173 1_555 1_555
C180 C179 1_555 1_555
C181 C180 1_555 1_555
H97 C181 1_555 1_555
C182 C177 1_555 1_555
H98 C182 1_555 1_555
C183 C174 1_555 1_555
H99 C183 1_555 1_555
C184 C180 1_555 1_555
H100 C184 1_555 1_555
N1 C74 1_555 1_555
N2 C124 1_555 1_555
C185 C186 1_555 1_555
C186 H101 1_555 1_555
C187 C186 1_555 1_555
H102 C187 1_555 1_555
C188 C187 1_555 1_555
H103 C188 1_555 1_555
C189 C188 1_555 1_555
H104 C189 1_555 1_555
C190 C185 1_555 1_555
H105 C190 1_555 1_555
C191 C185 1_555 1_555
H106 C191 1_555 1_555
H107 C191 1_555 1_555
H108 C191 1_555 1_555
C192 C193 1_555 1_555
C193 H109 1_555 1_555
C194 C193 1_555 1_555
H110 C194 1_555 1_555
C195 C194 1_555 1_555
H111 C195 1_555 1_555
C196 C195 1_555 1_555
H112 C196 1_555 1_555
C197 C192 1_555 1_555
H113 C197 1_555 1_555
C198 C192 1_555 1_555
H114 C198 1_555 1_555
H115 C198 1_555 1_555
H116 C198 1_555 1_555
C8 C9 1_555 1_555
C11 C12 1_555 1_555
C14 C15 1_555 1_555
C17 C18 1_555 1_555
C19 C20 1_555 1_555
C21 C22 1_555 1_555
C24 C25 1_555 1_555
C25 C26 1_555 1_555
C28 C29 1_555 1_555
C29 C30 1_555 1_555
C32 C33 1_555 1_555
C33 C34 1_555 1_555
C36 C37 1_555 1_555
C37 C38 1_555 1_555
C39 C40 1_555 1_555
C41 C42 1_555 1_555
C44 C45 1_555 1_555
C45 C46 1_555 1_555
C47 C64 1_555 1_555
C48 C49 1_555 1_555
C49 C50 1_555 1_555
C51 C65 1_555 1_555
C52 C53 1_555 1_555
C53 C54 1_555 1_555
C55 C68 1_555 1_555
C56 C57 1_555 1_555
C57 C58 1_555 1_555
C59 C60 1_555 1_555
C59 C69 1_555 1_555
C60 C61 1_555 1_555
C63 C64 1_555 1_555
C65 C66 1_555 1_555
C67 C68 1_555 1_555
C67 C70 1_555 1_555
C69 C70 1_555 1_555
C75 C76 1_555 1_555
C77 C82 1_555 1_555
C81 C82 1_555 1_555
C87 C88 1_555 1_555
C93 C94 1_555 1_555
C95 C96 1_555 1_555
C97 C98 1_555 1_555
C99 C100 1_555 1_555
C101 C102 1_555 1_555
C101 N1 1_555 1_555
C102 C103 1_555 1_555
C103 C104 1_555 1_555
C104 N1 1_555 1_555
C125 C126 1_555 1_555
C127 C132 1_555 1_555
C131 C132 1_555 1_555
C137 C138 1_555 1_555
C143 C144 1_555 1_555
C145 C146 1_555 1_555
C147 C148 1_555 1_555
C149 C150 1_555 1_555
C151 C152 1_555 1_555
C151 N2 1_555 1_555
C152 C153 1_555 1_555
C153 C154 1_555 1_555
C154 N2 1_555 1_555
C175 C176 1_555 1_555
C178 C179 1_555 1_555
C181 C182 1_555 1_555
C183 C184 1_555 1_555
C189 C190 1_555 1_555
C196 C197 1_555 1_555

#END
