
#######################################################################
#
#                 Cambridge Crystallographic Data Centre
#                                CCDC 
#
#######################################################################
#
# If this CIF has been generated from an entry in the Cambridge 
# Structural Database, then it will include bibliographic, chemical, 
# crystal, experimental, refinement or atomic coordinate data resulting 
# from the CCDC's data processing and validation procedures.
#
#######################################################################

data_LICPEU
_chemical_formula_moiety         'C34 H29 Br1 O9'
_chemical_name_systematic        
"8a-Bromo-8-oxo-9-(3,4,5-trimethoxyphenyl)-5,5a,6,8,8a,9-hexahydrofuro[3',4':6,7]naphtho[2,3-d][1,3]dioxol-5-yl 1-naphthylacetate"
_symmetry_cell_setting           monoclinic
_symmetry_space_group_name_H-M   'P 21'
_symmetry_Int_Tables_number      4
_space_group_name_Hall           'P 2yb'
loop_
_symmetry_equiv_pos_site_id
_symmetry_equiv_pos_as_xyz
1 x,y,z
2 -x,1/2+y,-z
_cell_length_a                   10.141(4)
_cell_length_b                   13.283(5)
_cell_length_c                   11.128(5)
_cell_angle_alpha                90
_cell_angle_beta                 94.697(4)
_cell_angle_gamma                90
_cell_volume                     1493.94
_exptl_crystal_colour            colorless
_exptl_crystal_description       block
_cell_formula_units_Z            2
loop_
_atom_site_label
_atom_site_type_symbol
_atom_site_fract_x
_atom_site_fract_y
_atom_site_fract_z
Br1 Br 0.52222(6) 0.29512(4) 0.56405(5)
C1 C 0.5117(4) 0.5001(4) 0.6454(4)
H1 H 0.4853 0.4658 0.7176
C2 C 0.5808(5) 0.6009(3) 0.6781(4)
H2 H 0.5295 0.6542 0.6350
C3 C 0.7215(4) 0.6136(3) 0.6517(4)
C4 C 0.7739(5) 0.7105(3) 0.6636(4)
H3 H 0.7214 0.7648 0.6823
C5 C 0.9048(5) 0.7231(3) 0.6468(4)
C6 C 1.1139(5) 0.7711(4) 0.6674(5)
H4 H 1.1733 0.8175 0.6316
H5 H 1.1445 0.7615 0.7515
C7 C 0.9820(5) 0.6437(4) 0.6152(4)
C8 C 0.9319(4) 0.5492(3) 0.5995(3)
H6 H 0.9845 0.4965 0.5763
C9 C 0.7983(4) 0.5336(3) 0.6193(3)
C10 C 0.7440(4) 0.4271(3) 0.6098(4)
H7 H 0.7851 0.3953 0.5427
C11 C 0.5989(5) 0.4314(3) 0.5736(4)
C12 C 0.5688(6) 0.4723(4) 0.4448(5)
C13 C 0.3932(5) 0.5162(5) 0.5540(5)
H8 H 0.3306 0.4612 0.5567
H9 H 0.3485 0.5788 0.5696
C14 C 0.7837(4) 0.3635(3) 0.7217(4)
C15 C 0.7786(5) 0.4033(3) 0.8376(4)
H10 H 0.7486 0.4687 0.8477
C16 C 0.8182(5) 0.3451(3) 0.9373(4)
C17 C 0.8653(5) 0.2485(4) 0.9231(4)
C18 C 0.8670(5) 0.2079(3) 0.8073(4)
C19 C 0.8284(5) 0.2668(3) 0.7077(4)
H11 H 0.8328 0.2407 0.6306
C20 C 0.4633(6) 0.6580(5) 0.8434(5)
C21 C 0.4724(6) 0.6903(5) 0.9713(5)
H12 H 0.5026 0.6344 1.0225
H13 H 0.3855 0.7102 0.9933
C22 C 0.5702(6) 0.7804(5) 0.9922(6)
C23 C 0.5682(7) 0.8572(5) 0.9068(6)
H14 H 0.5079 0.8519 0.8395
C24 C 0.6514(8) 0.9423(5) 0.9156(7)
H15 H 0.6484 0.9902 0.8545
C25 C 0.7383(9) 0.9525(6) 1.0184(7)
H16 H 0.7951 1.0073 1.0291
C26 C 0.7357(5) 0.8739(3) 1.1075(4)
C27 C 0.8243(5) 0.8846(4) 1.2087(5)
H17 H 0.8781 0.9413 1.2172
C28 C 0.8325(5) 0.8106(5) 1.2974(4)
H18 H 0.8918 0.8178 1.3651
C29 C 0.7522(5) 0.7259(4) 1.2847(4)
H19 H 0.7577 0.6764 1.3440
C30 C 0.6635(4) 0.7152(3) 1.1834(5)
H20 H 0.6098 0.6585 1.1750
C31 C 0.6553(4) 0.7892(4) 1.0948(4)
C32 C 0.7684(7) 0.4735(4) 1.0762(5)
H21 H 0.8193 0.5226 1.0368
H22 H 0.7753 0.4862 1.1614
H23 H 0.6773 0.4779 1.0453
C33 C 1.0439(7) 0.1946(6) 1.0492(5)
H24 H 1.0690 0.1473 1.1123
H25 H 1.0695 0.2612 1.0751
H26 H 1.0873 0.1775 0.9784
C34 C 0.9121(9) 0.0642(4) 0.6904(5)
H27 H 0.9749 0.0966 0.6432
H28 H 0.8254 0.0688 0.6492
H29 H 0.9358 -0.0053 0.7016
O1 O 0.9813(3) 0.8095(3) 0.6568(3)
O2 O 1.1096(3) 0.6768(2) 0.6046(3)
O3 O 0.6322(4) 0.4633(3) 0.3611(3)
O4 O 0.4497(4) 0.5195(3) 0.4379(3)
O5 O 0.8173(4) 0.3760(3) 1.0541(3)
O6 O 0.9047(4) 0.1911(2) 1.0221(3)
O7 O 0.9125(4) 0.1119(3) 0.8035(3)
O8 O 0.5752(3) 0.6194(2) 0.8077(3)
O9 O 0.3665(4) 0.6683(4) 0.7746(4)
loop_
_geom_bond_atom_site_label_1
_geom_bond_atom_site_label_2
_geom_bond_site_symmetry_1
_geom_bond_site_symmetry_2
Br1 C11 1_555 1_555
C1 H1 1_555 1_555
C2 C1 1_555 1_555
H2 C2 1_555 1_555
C3 C2 1_555 1_555
C4 C3 1_555 1_555
H3 C4 1_555 1_555
C5 C4 1_555 1_555
C6 H4 1_555 1_555
H5 C6 1_555 1_555
C7 C5 1_555 1_555
C8 C7 1_555 1_555
H6 C8 1_555 1_555
C9 C3 1_555 1_555
C10 C9 1_555 1_555
H7 C10 1_555 1_555
C11 C1 1_555 1_555
C12 C11 1_555 1_555
C13 C1 1_555 1_555
H8 C13 1_555 1_555
H9 C13 1_555 1_555
C14 C10 1_555 1_555
C15 C14 1_555 1_555
H10 C15 1_555 1_555
C16 C15 1_555 1_555
C17 C16 1_555 1_555
C18 C17 1_555 1_555
C19 C14 1_555 1_555
H11 C19 1_555 1_555
C20 C21 1_555 1_555
C21 H12 1_555 1_555
H13 C21 1_555 1_555
C22 C21 1_555 1_555
C23 C22 1_555 1_555
H14 C23 1_555 1_555
C24 C23 1_555 1_555
H15 C24 1_555 1_555
C25 C24 1_555 1_555
H16 C25 1_555 1_555
C26 C25 1_555 1_555
C27 C26 1_555 1_555
H17 C27 1_555 1_555
C28 C27 1_555 1_555
H18 C28 1_555 1_555
C29 C28 1_555 1_555
H19 C29 1_555 1_555
C30 C29 1_555 1_555
H20 C30 1_555 1_555
C31 C22 1_555 1_555
C32 H21 1_555 1_555
H22 C32 1_555 1_555
H23 C32 1_555 1_555
C33 H24 1_555 1_555
H25 C33 1_555 1_555
H26 C33 1_555 1_555
C34 H27 1_555 1_555
H28 C34 1_555 1_555
H29 C34 1_555 1_555
O1 C5 1_555 1_555
O2 C6 1_555 1_555
O3 C12 1_555 1_555
O4 C12 1_555 1_555
O5 C16 1_555 1_555
O6 C17 1_555 1_555
O7 C18 1_555 1_555
O8 C2 1_555 1_555
O9 C20 1_555 1_555
C6 O1 1_555 1_555
C7 O2 1_555 1_555
C8 C9 1_555 1_555
C10 C11 1_555 1_555
C13 O4 1_555 1_555
C18 C19 1_555 1_555
C20 O8 1_555 1_555
C26 C31 1_555 1_555
C30 C31 1_555 1_555
C32 O5 1_555 1_555
C33 O6 1_555 1_555
C34 O7 1_555 1_555

#END
