
#######################################################################
#
#                 Cambridge Crystallographic Data Centre
#                                CCDC 
#
#######################################################################
#
# If this CIF has been generated from an entry in the Cambridge 
# Structural Database, then it will include bibliographic, chemical, 
# crystal, experimental, refinement or atomic coordinate data resulting 
# from the CCDC's data processing and validation procedures.
#
#######################################################################

data_LICRUM
_chemical_formula_moiety         'C22 H16 N2 O1'
_chemical_name_systematic        
2,3-Dimethyl-5-(pyren-1-ylmethylene)-3,5-dihydro-4H-imidazol-4-one
_symmetry_cell_setting           monoclinic
_symmetry_space_group_name_H-M   'P 21/c'
_symmetry_Int_Tables_number      14
_space_group_name_Hall           '-P 2ybc'
loop_
_symmetry_equiv_pos_site_id
_symmetry_equiv_pos_as_xyz
1 x,y,z
2 -x,1/2+y,1/2-z
3 -x,-y,-z
4 x,1/2-y,1/2+z
_cell_length_a                   7.818(3)
_cell_length_b                   7.441(3)
_cell_length_c                   26.567(9)
_cell_angle_alpha                90
_cell_angle_beta                 92.928(3)
_cell_angle_gamma                90
_cell_volume                     1543.48
_exptl_crystal_colour            black
_exptl_crystal_description       block
_cell_formula_units_Z            4
loop_
_atom_site_label
_atom_site_type_symbol
_atom_site_fract_x
_atom_site_fract_y
_atom_site_fract_z
O1 O 0.07624(19) 0.2288(2) 0.61900(5)
N1 N -0.2062(2) 0.3229(2) 0.61127(6)
N2 N -0.2513(2) 0.3399(2) 0.52697(6)
C1 C 0.0356(2) 0.2456(2) 0.45089(6)
C2 C -0.1115(2) 0.3091(3) 0.42397(7)
H1 H -0.2055 0.3506 0.4421
C3 C -0.1233(2) 0.3130(3) 0.37201(7)
H2 H -0.2240 0.3590 0.3551
C4 C 0.0100(2) 0.2506(2) 0.34388(7)
C5 C -0.0022(2) 0.2475(3) 0.28961(7)
H3 H -0.1045 0.2878 0.2724
C6 C 0.1284(3) 0.1888(3) 0.26268(7)
H4 H 0.1162 0.1878 0.2269
C7 C 0.2848(2) 0.1282(2) 0.28716(7)
C8 C 0.4225(3) 0.0678(3) 0.25987(7)
H5 H 0.4124 0.0659 0.2241
C9 C 0.5728(3) 0.0112(3) 0.28453(8)
H6 H 0.6654 -0.0278 0.2655
C10 C 0.5904(2) 0.0106(3) 0.33675(8)
H7 H 0.6941 -0.0307 0.3531
C11 C 0.4565(2) 0.0702(2) 0.36569(7)
C12 C 0.4693(2) 0.0746(3) 0.41967(7)
H8 H 0.5732 0.0381 0.4368
C13 C 0.3376(2) 0.1293(3) 0.44692(7)
H9 H 0.3512 0.1290 0.4827
C14 C 0.1773(2) 0.1880(2) 0.42343(6)
C15 C 0.1629(2) 0.1888(2) 0.36965(6)
C16 C 0.3012(2) 0.1294(2) 0.34074(6)
C17 C 0.0415(2) 0.2407(2) 0.50577(7)
H10 H 0.1475 0.2030 0.5214
C18 C -0.0817(2) 0.2819(2) 0.53775(7)
C19 C -0.0508(2) 0.2705(3) 0.59324(7)
C20 C -0.3175(2) 0.3618(2) 0.57065(7)
C21 C -0.2403(3) 0.3378(3) 0.66442(7)
H11 H -0.3482 0.2768 0.6707
H12 H -0.2490 0.4650 0.6736
H13 H -0.1467 0.2818 0.6847
C22 C -0.4950(3) 0.4224(3) 0.57794(8)
H14 H -0.5519 0.4501 0.5451
H15 H -0.4925 0.5303 0.5991
H16 H -0.5580 0.3269 0.5944
loop_
_geom_bond_atom_site_label_1
_geom_bond_atom_site_label_2
_geom_bond_site_symmetry_1
_geom_bond_site_symmetry_2
O1 C19 1_555 1_555
N1 C19 1_555 1_555
N2 C18 1_555 1_555
C1 C2 1_555 1_555
C2 H1 1_555 1_555
C3 C2 1_555 1_555
H2 C3 1_555 1_555
C4 C3 1_555 1_555
C5 C4 1_555 1_555
H3 C5 1_555 1_555
C6 C5 1_555 1_555
H4 C6 1_555 1_555
C7 C6 1_555 1_555
C8 C7 1_555 1_555
H5 C8 1_555 1_555
C9 C8 1_555 1_555
H6 C9 1_555 1_555
C10 C9 1_555 1_555
H7 C10 1_555 1_555
C11 C10 1_555 1_555
C12 C11 1_555 1_555
H8 C12 1_555 1_555
C13 C12 1_555 1_555
H9 C13 1_555 1_555
C14 C1 1_555 1_555
C15 C4 1_555 1_555
C16 C7 1_555 1_555
C17 C1 1_555 1_555
H10 C17 1_555 1_555
C18 C17 1_555 1_555
C19 C18 1_555 1_555
C20 N1 1_555 1_555
C21 N1 1_555 1_555
H11 C21 1_555 1_555
H12 C21 1_555 1_555
H13 C21 1_555 1_555
C22 C20 1_555 1_555
H14 C22 1_555 1_555
H15 C22 1_555 1_555
H16 C22 1_555 1_555
N2 C20 1_555 1_555
C11 C16 1_555 1_555
C13 C14 1_555 1_555
C14 C15 1_555 1_555
C15 C16 1_555 1_555

#END
