
#######################################################################
#
#                 Cambridge Crystallographic Data Centre
#                                CCDC 
#
#######################################################################
#
# If this CIF has been generated from an entry in the Cambridge 
# Structural Database, then it will include bibliographic, chemical, 
# crystal, experimental, refinement or atomic coordinate data resulting 
# from the CCDC's data processing and validation procedures.
#
#######################################################################

data_LICROG
_chemical_formula_moiety         'C16 H14 N2 O1'
_chemical_name_systematic        
2,3-Dimethyl-5-(1-naphthylmethylene)-3,5-dihydro-4H-imidazol-4-one
_symmetry_cell_setting           monoclinic
_symmetry_space_group_name_H-M   'P 21/c'
_symmetry_Int_Tables_number      14
_space_group_name_Hall           '-P 2ybc'
loop_
_symmetry_equiv_pos_site_id
_symmetry_equiv_pos_as_xyz
1 x,y,z
2 -x,1/2+y,1/2-z
3 -x,-y,-z
4 x,1/2-y,1/2+z
_cell_length_a                   7.7335(15)
_cell_length_b                   20.843(4)
_cell_length_c                   8.4339(17)
_cell_angle_alpha                90
_cell_angle_beta                 114.54(3)
_cell_angle_gamma                90
_cell_volume                     1236.66
_exptl_crystal_colour            yellow
_exptl_crystal_description       plate
_cell_formula_units_Z            4
loop_
_atom_site_label
_atom_site_type_symbol
_atom_site_fract_x
_atom_site_fract_y
_atom_site_fract_z
O1 O 0.2880(3) 0.56223(10) 0.9510(3)
N1 N -0.0353(4) 0.57455(11) 0.8719(3)
N2 N -0.1565(3) 0.49140(11) 0.6877(3)
C1 C 0.2383(4) 0.35327(12) 0.5715(3)
C2 C 0.4360(4) 0.36269(14) 0.6649(4)
H1 H 0.4810 0.3972 0.7453
C3 C 0.5636(4) 0.32270(15) 0.6410(4)
H2 H 0.6959 0.3302 0.7042
C4 C 0.5019(4) 0.27062(15) 0.5244(4)
H3 H 0.5920 0.2432 0.5095
C5 C 0.3127(4) 0.25978(14) 0.4334(4)
H4 H 0.2716 0.2246 0.3547
C6 C 0.1758(4) 0.30005(12) 0.4540(3)
C7 C -0.0204(4) 0.28854(13) 0.3589(4)
H5 H -0.0612 0.2533 0.2806
C8 C -0.1516(4) 0.32734(14) 0.3782(4)
H6 H -0.2832 0.3188 0.3141
C9 C -0.0935(4) 0.37997(13) 0.4925(4)
H7 H -0.1877 0.4066 0.5033
C10 C 0.0955(4) 0.39422(12) 0.5896(3)
C11 C 0.1524(4) 0.44952(13) 0.7055(3)
H8 H 0.2852 0.4576 0.7604
C12 C 0.0422(4) 0.49084(13) 0.7457(4)
C13 C 0.1237(4) 0.54526(13) 0.8693(4)
C14 C -0.0291(5) 0.63206(14) 0.9724(4)
H9 H 0.1033 0.6456 1.0367
H10 H -0.0852 0.6228 1.0549
H11 H -0.1011 0.6664 0.8933
C15 C -0.1949(4) 0.54042(14) 0.7633(4)
C16 C -0.3885(4) 0.55953(15) 0.7401(4)
H12 H -0.4817 0.5297 0.6595
H13 H -0.4153 0.6031 0.6924
H14 H -0.3965 0.5584 0.8530
loop_
_geom_bond_atom_site_label_1
_geom_bond_atom_site_label_2
_geom_bond_site_symmetry_1
_geom_bond_site_symmetry_2
O1 C13 1_555 1_555
N1 C13 1_555 1_555
N2 C12 1_555 1_555
C1 C2 1_555 1_555
C2 H1 1_555 1_555
C3 C2 1_555 1_555
H2 C3 1_555 1_555
C4 C3 1_555 1_555
H3 C4 1_555 1_555
C5 C4 1_555 1_555
H4 C5 1_555 1_555
C6 C1 1_555 1_555
C7 C6 1_555 1_555
H5 C7 1_555 1_555
C8 C7 1_555 1_555
H6 C8 1_555 1_555
C9 C8 1_555 1_555
H7 C9 1_555 1_555
C10 C1 1_555 1_555
C11 C10 1_555 1_555
H8 C11 1_555 1_555
C12 C11 1_555 1_555
C13 C12 1_555 1_555
C14 N1 1_555 1_555
H9 C14 1_555 1_555
H10 C14 1_555 1_555
H11 C14 1_555 1_555
C15 N1 1_555 1_555
C16 C15 1_555 1_555
H12 C16 1_555 1_555
H13 C16 1_555 1_555
H14 C16 1_555 1_555
N2 C15 1_555 1_555
C5 C6 1_555 1_555
C9 C10 1_555 1_555

#END
