
#######################################################################
#
#                 Cambridge Crystallographic Data Centre
#                                CCDC 
#
#######################################################################
#
# If this CIF has been generated from an entry in the Cambridge 
# Structural Database, then it will include bibliographic, chemical, 
# crystal, experimental, refinement or atomic coordinate data resulting 
# from the CCDC's data processing and validation procedures.
#
#######################################################################

data_LICRAS01
_chemical_formula_moiety         'C16 H14 N2 O1'
_chemical_name_systematic        
2,3-Dimethyl-5-(2-naphthylmethylene)-3,5-dihydro-4H-imidazol-4-one
_symmetry_cell_setting           triclinic
_symmetry_space_group_name_H-M   'P -1'
_symmetry_Int_Tables_number      2
_space_group_name_Hall           '-P 1'
loop_
_symmetry_equiv_pos_site_id
_symmetry_equiv_pos_as_xyz
1 x,y,z
2 -x,-y,-z
_cell_length_a                   7.2538(15)
_cell_length_b                   7.5009(15)
_cell_length_c                   11.552(2)
_cell_angle_alpha                78.78(3)
_cell_angle_beta                 86.04(3)
_cell_angle_gamma                86.73(3)
_cell_volume                     614.449
_exptl_crystal_colour            yellow
_exptl_crystal_description       platelet
_cell_formula_units_Z            2
loop_
_atom_site_label
_atom_site_type_symbol
_atom_site_fract_x
_atom_site_fract_y
_atom_site_fract_z
O1 O 0.3928(3) 0.5469(3) 0.82614(18)
N1 N 0.7042(3) 0.4775(3) 0.7828(2)
N2 N 0.7383(3) 0.6075(3) 0.5882(2)
C1 C 0.3711(4) 1.0139(4) 0.2138(3)
C2 C 0.3508(5) 1.1136(4) 0.0981(3)
H1 H 0.4563 1.1317 0.0444
C3 C 0.1809(5) 1.1850(4) 0.0618(3)
H2 H 0.1694 1.2508 -0.0166
C4 C 0.0239(5) 1.1605(4) 0.1411(3)
H3 H -0.0937 1.2089 0.1158
C5 C 0.0402(4) 1.0677(4) 0.2537(3)
H4 H -0.0664 1.0540 0.3067
C6 C 0.2131(4) 0.9911(4) 0.2935(3)
C7 C 0.2334(4) 0.8948(4) 0.4098(3)
H5 H 0.1278 0.8814 0.4637
C8 C 0.4024(4) 0.8194(4) 0.4478(3)
C9 C 0.5587(4) 0.8400(4) 0.3660(3)
H6 H 0.6755 0.7880 0.3904
C10 C 0.5436(4) 0.9333(4) 0.2532(3)
H7 H 0.6500 0.9447 0.2000
C11 C 0.4114(4) 0.7265(4) 0.5695(3)
H8 H 0.2975 0.7291 0.6151
C12 C 0.5517(4) 0.6370(4) 0.6299(3)
C13 C 0.5293(4) 0.5537(4) 0.7562(3)
C14 C 0.7539(5) 0.3832(4) 0.8981(3)
H9 H 0.6446 0.3774 0.9534
H10 H 0.8499 0.4485 0.9260
H11 H 0.8009 0.2596 0.8934
C15 C 0.8179(4) 0.5153(4) 0.6808(3)
C16 C 1.0142(4) 0.4476(4) 0.6814(3)
H12 H 1.0747 0.4856 0.6026
H13 H 1.0200 0.3145 0.7028
H14 H 1.0776 0.4979 0.7393
loop_
_geom_bond_atom_site_label_1
_geom_bond_atom_site_label_2
_geom_bond_site_symmetry_1
_geom_bond_site_symmetry_2
O1 C13 1_555 1_555
N1 C13 1_555 1_555
N2 C12 1_555 1_555
C1 C2 1_555 1_555
C2 H1 1_555 1_555
C3 C2 1_555 1_555
H2 C3 1_555 1_555
C4 C3 1_555 1_555
H3 C4 1_555 1_555
C5 C4 1_555 1_555
H4 C5 1_555 1_555
C6 C1 1_555 1_555
C7 C6 1_555 1_555
H5 C7 1_555 1_555
C8 C7 1_555 1_555
C9 C8 1_555 1_555
H6 C9 1_555 1_555
C10 C1 1_555 1_555
H7 C10 1_555 1_555
C11 C8 1_555 1_555
H8 C11 1_555 1_555
C12 C11 1_555 1_555
C13 C12 1_555 1_555
C14 N1 1_555 1_555
H9 C14 1_555 1_555
H10 C14 1_555 1_555
H11 C14 1_555 1_555
C15 N1 1_555 1_555
C16 C15 1_555 1_555
H12 C16 1_555 1_555
H13 C16 1_555 1_555
H14 C16 1_555 1_555
N2 C15 1_555 1_555
C5 C6 1_555 1_555
C9 C10 1_555 1_555

#END
