
#######################################################################
#
#                 Cambridge Crystallographic Data Centre
#                                CCDC 
#
#######################################################################
#
# If this CIF has been generated from an entry in the Cambridge 
# Structural Database, then it will include bibliographic, chemical, 
# crystal, experimental, refinement or atomic coordinate data resulting 
# from the CCDC's data processing and validation procedures.
#
#######################################################################

data_LICRAS
_chemical_formula_moiety         'C16 H14 N2 O1'
_chemical_name_systematic        
2,3-Dimethyl-5-(2-naphthylmethylene)-3,5-dihydro-4H-imidazol-4-one
_symmetry_cell_setting           orthorhombic
_symmetry_space_group_name_H-M   'P b c a'
_symmetry_Int_Tables_number      61
_space_group_name_Hall           '-P 2ac 2ab'
loop_
_symmetry_equiv_pos_site_id
_symmetry_equiv_pos_as_xyz
1 x,y,z
2 1/2-x,-y,1/2+z
3 1/2+x,1/2-y,-z
4 -x,1/2+y,1/2-z
5 -x,-y,-z
6 1/2+x,y,1/2-z
7 1/2-x,1/2+y,z
8 x,1/2-y,1/2+z
_cell_length_a                   13.579(3)
_cell_length_b                   7.3613(15)
_cell_length_c                   25.184(5)
_cell_angle_alpha                90
_cell_angle_beta                 90
_cell_angle_gamma                90
_cell_volume                     2517.37
_exptl_crystal_colour            colorless
_exptl_crystal_description       block
_cell_formula_units_Z            8
loop_
_atom_site_label
_atom_site_type_symbol
_atom_site_fract_x
_atom_site_fract_y
_atom_site_fract_z
O1 O 0.17470(10) 0.43480(18) -0.11634(5)
N1 N 0.10096(11) 0.75836(19) -0.01995(5)
N2 N 0.12220(11) 0.7330(2) -0.10836(5)
C1 C 0.14013(12) 0.2407(2) 0.13871(7)
C2 C 0.16001(14) 0.0729(3) 0.16392(8)
H1 H 0.1798 -0.0287 0.1432
C3 C 0.15096(15) 0.0556(3) 0.21763(8)
H2 H 0.1653 -0.0573 0.2342
C4 C 0.12036(15) 0.2046(3) 0.24870(8)
H3 H 0.1145 0.1917 0.2861
C5 C 0.09908(14) 0.3674(3) 0.22539(7)
H4 H 0.0778 0.4664 0.2467
C6 C 0.10840(12) 0.3904(3) 0.16961(7)
C7 C 0.08883(13) 0.5576(3) 0.14400(7)
H5 H 0.0668 0.6582 0.1644
C8 C 0.10098(13) 0.5770(2) 0.09048(7)
H6 H 0.0874 0.6906 0.0741
C9 C 0.13382(12) 0.4282(2) 0.05900(7)
C10 C 0.15223(12) 0.2642(2) 0.08346(7)
H7 H 0.1736 0.1643 0.0626
C11 C 0.14813(12) 0.4408(2) 0.00196(7)
H8 H 0.1720 0.3332 -0.0144
C12 C 0.13287(12) 0.5812(2) -0.03132(6)
C13 C 0.14765(12) 0.5640(2) -0.08964(7)
C14 C 0.12976(15) 0.7874(3) -0.16345(7)
H9 H 0.1494 0.6827 -0.1850
H10 H 0.1792 0.8837 -0.1669
H11 H 0.0658 0.8327 -0.1757
C15 C 0.09655(12) 0.8406(2) -0.06540(7)
C16 C 0.06630(16) 1.0319(2) -0.07352(8)
H12 H 0.0509 1.0874 -0.0391
H13 H 0.0079 1.0358 -0.0964
H14 H 0.1201 1.0991 -0.0904
loop_
_geom_bond_atom_site_label_1
_geom_bond_atom_site_label_2
_geom_bond_site_symmetry_1
_geom_bond_site_symmetry_2
O1 C13 1_555 1_555
N1 C12 1_555 1_555
N2 C13 1_555 1_555
C1 C2 1_555 1_555
C2 H1 1_555 1_555
C3 C2 1_555 1_555
H2 C3 1_555 1_555
C4 C3 1_555 1_555
H3 C4 1_555 1_555
C5 C4 1_555 1_555
H4 C5 1_555 1_555
C6 C1 1_555 1_555
C7 C6 1_555 1_555
H5 C7 1_555 1_555
C8 C7 1_555 1_555
H6 C8 1_555 1_555
C9 C8 1_555 1_555
C10 C1 1_555 1_555
H7 C10 1_555 1_555
C11 C9 1_555 1_555
H8 C11 1_555 1_555
C12 C11 1_555 1_555
C13 C12 1_555 1_555
C14 N2 1_555 1_555
H9 C14 1_555 1_555
H10 C14 1_555 1_555
H11 C14 1_555 1_555
C15 N1 1_555 1_555
C16 C15 1_555 1_555
H12 C16 1_555 1_555
H13 C16 1_555 1_555
H14 C16 1_555 1_555
N2 C15 1_555 1_555
C5 C6 1_555 1_555
C9 C10 1_555 1_555

#END
