
#######################################################################
#
#                 Cambridge Crystallographic Data Centre
#                                CCDC 
#
#######################################################################
#
# If this CIF has been generated from an entry in the Cambridge 
# Structural Database, then it will include bibliographic, chemical, 
# crystal, experimental, refinement or atomic coordinate data resulting 
# from the CCDC's data processing and validation procedures.
#
#######################################################################

data_LICTOH
_chemical_formula_moiety         'C32 H52 O4'
_chemical_name_systematic        
3\b-acetoxy-9\b,11-epoxy-5\a-lanost-9(11)-en-7-one
_symmetry_cell_setting           monoclinic
_symmetry_space_group_name_H-M   'P 21'
_symmetry_Int_Tables_number      4
_space_group_name_Hall           'P 2yb'
loop_
_symmetry_equiv_pos_site_id
_symmetry_equiv_pos_as_xyz
1 x,y,z
2 -x,1/2+y,-z
_cell_length_a                   13.356(6)
_cell_length_b                   6.233(13)
_cell_length_c                   18.104(16)
_cell_angle_alpha                90
_cell_angle_beta                 92.14(7)
_cell_angle_gamma                90
_cell_volume                     1506.07
_exptl_crystal_colour            colorless
_exptl_crystal_description       plate
_chemical_melting_point          '489 K'
_cell_formula_units_Z            2
_exptl_crystal_recrystallization_method methanol/acetone
loop_
_atom_site_label
_atom_site_type_symbol
_atom_site_fract_x
_atom_site_fract_y
_atom_site_fract_z
O1 O 0.6620(2) 0.8609(6) -0.28097(16)
O2 O 0.5689(3) 1.1604(7) -0.2711(2)
O3 O 0.9434(2) 0.4370(5) 0.04190(19)
O4 O 0.5989(2) 0.5614(5) 0.06375(17)
C1 C 0.5835(3) 0.7219(7) -0.0906(2)
H1 H 0.5231 0.6488 -0.0729
H2 H 0.5822 0.8718 -0.0727
C2 C 0.5789(3) 0.7230(8) -0.1741(2)
H3 H 0.5165 0.7940 -0.1925
H4 H 0.5791 0.5741 -0.1931
C3 C 0.6691(3) 0.8433(8) -0.2006(2)
H5 H 0.6685 0.9911 -0.1792
C4 C 0.7691(3) 0.7356(7) -0.1773(2)
C5 C 0.7715(3) 0.7101(7) -0.0917(2)
H6 H 0.7757 0.8596 -0.0717
C6 C 0.8675(3) 0.5989(7) -0.0629(2)
H7 H 0.8778 0.4694 -0.0933
H8 H 0.9246 0.6966 -0.0708
C7 C 0.8711(3) 0.5332(7) 0.0165(2)
C8 C 0.7853(3) 0.5811(7) 0.0670(2)
H9 H 0.7723 0.4465 0.0950
C9 C 0.6856(3) 0.6441(6) 0.0268(2)
C10 C 0.6771(3) 0.6095(7) -0.0571(2)
C11 C 0.6174(3) 0.7911(7) 0.0662(3)
H10 H 0.5717 0.8785 0.0332
C12 C 0.6409(3) 0.8880(8) 0.1403(2)
H11 H 0.5817 0.8717 0.1711
H12 H 0.6528 1.0435 0.1338
C13 C 0.7324(3) 0.7894(7) 0.1818(2)
C14 C 0.8170(3) 0.7548(7) 0.1249(2)
C15 C 0.9075(3) 0.6987(9) 0.1759(3)
H13 H 0.9065 0.5453 0.1900
H14 H 0.9711 0.7299 0.1516
C16 C 0.8957(4) 0.8428(10) 0.2437(3)
H15 H 0.9453 0.9608 0.2436
H16 H 0.9070 0.7585 0.2896
C17 C 0.7863(3) 0.9366(8) 0.2401(2)
H17 H 0.7902 1.0830 0.2177
C18 C 0.7023(4) 0.5780(9) 0.2181(3)
H18 H 0.7607 0.5159 0.2447
H19 H 0.6777 0.4775 0.1800
H20 H 0.6493 0.6054 0.2529
C19 C 0.6679(3) 0.3633(7) -0.0689(3)
H21 H 0.7328 0.2953 -0.0574
H22 H 0.6475 0.3339 -0.1204
H23 H 0.6177 0.3055 -0.0362
C20 C 0.7437(4) 0.9634(9) 0.3168(3)
H24 H 0.7504 0.8259 0.3451
C21 C 0.6335(4) 1.0365(10) 0.3135(3)
H25 H 0.6106 1.0571 0.3638
H26 H 0.5922 0.9269 0.2884
H27 H 0.6276 1.1720 0.2863
C22 C 0.8064(12) 1.145(3) 0.3575(8)
H28 H 0.7904 1.2862 0.3351
H29 H 0.8790 1.1177 0.3531
C23 C 0.7765(14) 1.143(3) 0.4466(7)
H30 H 0.7040 1.1692 0.4518
H31 H 0.7944 1.0041 0.4702
C24 C 0.8406(11) 1.331(3) 0.4817(6)
H32 H 0.9112 1.2977 0.4715
H33 H 0.8229 1.4605 0.4524
C25 C 0.8403(9) 1.394(2) 0.5563(6)
H34 H 0.7691 1.3984 0.5716
C26 C 0.8955(11) 1.231(2) 0.6033(5)
H35 H 0.8640 1.0900 0.5962
H36 H 0.8932 1.2722 0.6555
H37 H 0.9655 1.2235 0.5889
C27 C 0.887(2) 1.619(3) 0.5704(11)
H38 H 0.9589 1.6136 0.5624
H39 H 0.8756 1.6632 0.6214
H40 H 0.8552 1.7232 0.5362
C34 C 0.8430(3) 0.9627(7) 0.0834(2)
H54 H 0.8639 1.0734 0.1192
H55 H 0.7839 1.0124 0.0546
H56 H 0.8976 0.9343 0.0502
C35 C 0.8547(3) 0.8879(8) -0.1987(3)
H57 H 0.9194 0.8201 -0.1865
H58 H 0.8496 1.0227 -0.1712
H59 H 0.8493 0.9176 -0.2518
C36 C 0.7826(4) 0.5253(8) -0.2203(3)
H60 H 0.8480 0.4627 -0.2067
H61 H 0.7789 0.5550 -0.2735
H62 H 0.7295 0.4243 -0.2080
C37 C 0.6055(4) 1.0228(11) -0.3080(3)
C38 C 0.5914(5) 1.0061(15) -0.3902(3)
H63 H 0.5786 1.1490 -0.4111
H64 H 0.5344 0.9121 -0.4024
H65 H 0.6521 0.9463 -0.4111
C28? C 0.810(3) 1.083(5) 0.3720(17)
H41? H 0.8675 0.9837 0.3803
H42? H 0.8370 1.2018 0.3422
C29? C 0.802(2) 1.168(4) 0.4343(11)
H43? H 0.8151 1.0510 0.4704
H44? H 0.7298 1.2028 0.4373
C30? C 0.8592(19) 1.369(3) 0.4670(11)
H45? H 0.9315 1.3350 0.4723
H46? H 0.8510 1.4901 0.4320
C31? C 0.822(2) 1.432(6) 0.5390(16)
H47? H 0.8097 1.2939 0.5651
C32? C 0.902(3) 1.544(7) 0.5861(16)
H48? H 0.9656 1.4676 0.5825
H49? H 0.8821 1.5446 0.6377
H50? H 0.9094 1.6917 0.5689
C33? C 0.723(2) 1.538(6) 0.5325(19)
H51? H 0.6741 1.4544 0.5593
H52? H 0.7015 1.5483 0.4803
H53? H 0.7279 1.6829 0.5538
loop_
_geom_bond_atom_site_label_1
_geom_bond_atom_site_label_2
_geom_bond_site_symmetry_1
_geom_bond_site_symmetry_2
O1 C3 1_555 1_555
O2 C37 1_555 1_555
O3 C7 1_555 1_555
O4 C9 1_555 1_555
C1 H1 1_555 1_555
H2 C1 1_555 1_555
C2 C1 1_555 1_555
H3 C2 1_555 1_555
H4 C2 1_555 1_555
C3 C2 1_555 1_555
H5 C3 1_555 1_555
C4 C3 1_555 1_555
C5 C4 1_555 1_555
H6 C5 1_555 1_555
C6 C5 1_555 1_555
H7 C6 1_555 1_555
H8 C6 1_555 1_555
C7 C6 1_555 1_555
C8 C7 1_555 1_555
H9 C8 1_555 1_555
C9 C8 1_555 1_555
C10 C1 1_555 1_555
C11 O4 1_555 1_555
H10 C11 1_555 1_555
C12 C11 1_555 1_555
H11 C12 1_555 1_555
H12 C12 1_555 1_555
C13 C12 1_555 1_555
C14 C8 1_555 1_555
C15 C14 1_555 1_555
H13 C15 1_555 1_555
H14 C15 1_555 1_555
C16 C15 1_555 1_555
H15 C16 1_555 1_555
H16 C16 1_555 1_555
C17 C13 1_555 1_555
H17 C17 1_555 1_555
C18 C13 1_555 1_555
H18 C18 1_555 1_555
H19 C18 1_555 1_555
H20 C18 1_555 1_555
C19 C10 1_555 1_555
H21 C19 1_555 1_555
H22 C19 1_555 1_555
H23 C19 1_555 1_555
C20 C17 1_555 1_555
H24 C20 1_555 1_555
C21 C20 1_555 1_555
H25 C21 1_555 1_555
H26 C21 1_555 1_555
H27 C21 1_555 1_555
C22 C20 1_555 1_555
H28 C22 1_555 1_555
H29 C22 1_555 1_555
C23 C22 1_555 1_555
H30 C23 1_555 1_555
H31 C23 1_555 1_555
C24 C23 1_555 1_555
H32 C24 1_555 1_555
H33 C24 1_555 1_555
C25 C24 1_555 1_555
H34 C25 1_555 1_555
C26 C25 1_555 1_555
H35 C26 1_555 1_555
H36 C26 1_555 1_555
H37 C26 1_555 1_555
C27 C25 1_555 1_555
H38 C27 1_555 1_555
H39 C27 1_555 1_555
H40 C27 1_555 1_555
C34 C14 1_555 1_555
H54 C34 1_555 1_555
H55 C34 1_555 1_555
H56 C34 1_555 1_555
C35 C4 1_555 1_555
H57 C35 1_555 1_555
H58 C35 1_555 1_555
H59 C35 1_555 1_555
C36 C4 1_555 1_555
H60 C36 1_555 1_555
H61 C36 1_555 1_555
H62 C36 1_555 1_555
C37 O1 1_555 1_555
C38 C37 1_555 1_555
H63 C38 1_555 1_555
H64 C38 1_555 1_555
H65 C38 1_555 1_555
C5 C10 1_555 1_555
C9 C10 1_555 1_555
C9 C11 1_555 1_555
C13 C14 1_555 1_555
C16 C17 1_555 1_555

#END
