
#######################################################################
#
#                 Cambridge Crystallographic Data Centre
#                                CCDC 
#
#######################################################################
#
# If this CIF has been generated from an entry in the Cambridge 
# Structural Database, then it will include bibliographic, chemical, 
# crystal, experimental, refinement or atomic coordinate data resulting 
# from the CCDC's data processing and validation procedures.
#
#######################################################################

data_LICZEE
_chemical_formula_moiety         'C27 H22 N2 O3,0.5(C4 H10 O1)'
_chemical_name_systematic        
'Ethyl 2-(4-methoxyphenyl)-4-phenylpyrido[1,2-a]benzimidazole-3-carboxylate diethyl ether solvate'
_symmetry_cell_setting           monoclinic
_symmetry_space_group_name_H-M   'P 21/c'
_symmetry_Int_Tables_number      14
_space_group_name_Hall           '-P 2ybc'
loop_
_symmetry_equiv_pos_site_id
_symmetry_equiv_pos_as_xyz
1 x,y,z
2 -x,1/2+y,1/2-z
3 -x,-y,-z
4 x,1/2-y,1/2+z
_cell_length_a                   13.0331(17)
_cell_length_b                   15.962(2)
_cell_length_c                   12.4647(17)
_cell_angle_alpha                90
_cell_angle_beta                 104.169(2)
_cell_angle_gamma                90
_cell_volume                     2514.2
_cell_formula_units_Z            4
loop_
_atom_site_label
_atom_site_type_symbol
_atom_site_fract_x
_atom_site_fract_y
_atom_site_fract_z
O1 O 1.0000 0.5000 1.0000
C1 C 0.9654(8) 0.5587(6) 0.8292(7)
C2 C 0.9683(16) 0.5214(11) 0.9066(9)
C1B C 1.0346(8) 0.4413(6) 1.1708(7)
C2B C 1.0317(16) 0.4786(11) 1.0934(9)
N1 N 0.90097(14) 0.23592(12) 0.72342(16)
O2 O 0.54777(13) 0.10164(11) 0.67900(16)
N2 N 0.96021(16) 0.19915(13) 0.90394(16)
C3 C 0.83347(19) 0.23469(16) 0.6198(2)
C4 C 0.72622(17) 0.13528(14) 0.68861(19)
C5 C 0.88401(17) 0.18890(14) 0.81214(19)
C6 C 0.63832(18) 0.07159(15) 0.6631(2)
C7 C 0.79278(17) 0.13661(14) 0.79317(19)
C8 C 0.74596(18) 0.18558(14) 0.59923(19)
C9 C 0.77589(18) 0.08433(14) 0.88677(18)
C10 C 0.67641(19) 0.18184(14) 0.48488(19)
O3 O 0.64965(16) 0.00200(12) 0.6332(2)
C11 C 0.7200(2) 0.16567(17) 0.3955(2)
C12 C 0.9963(2) 0.27837(17) 0.7627(2)
C13 C 1.0312(2) 0.25387(17) 0.8743(2)
C14 C 0.6572(3) 0.1636(2) 0.2886(2)
C15 C 0.5054(2) 0.19416(18) 0.3554(3)
O4 O 0.4951(2) 0.17233(17) 0.15930(18)
C16 C 0.5503(2) 0.17731(18) 0.2684(2)
C17 C 0.5677(2) 0.19675(17) 0.4631(2)
C18 C 0.8509(2) 0.02414(17) 0.9343(2)
C19 C 0.8363(3) -0.0251(2) 1.0208(3)
C20 C 0.6870(2) 0.09461(17) 0.9277(2)
H1 H 0.6361 0.1342 0.8964
C21 C 1.0527(2) 0.3322(2) 0.7105(3)
C22 C 0.6741(3) 0.0459(2) 1.0154(3)
H2 H 0.6149 0.0536 1.0435
C23 C 0.4588(2) 0.0441(2) 0.6563(4)
H3 H 0.4352 0.0345 0.5773
H4 H 0.4805 -0.0092 0.6920
C24 C 0.7477(3) -0.0139(2) 1.0613(3)
C25 C 1.1455(3) 0.3632(2) 0.7744(3)
C26 C 1.1269(2) 0.2860(2) 0.9370(3)
C27 C 1.1822(3) 0.3399(3) 0.8870(3)
C28 C 0.3844(3) 0.1725(3) 0.1352(4)
H5 H 0.3564 0.1685 0.0566
H6 H 0.3604 0.2235 0.1618
H7 H 0.3605 0.1255 0.1707
C29 C 0.3748(4) 0.0776(4) 0.6960(6)
H8 H 0.3165 0.0391 0.6809
H9 H 0.3527 0.1299 0.6597
H10 H 0.3982 0.0866 0.7744
H11 H 0.8585(19) 0.2706(16) 0.564(2)
H12 H 0.538(2) 0.2094(18) 0.528(3)
H13 H 0.917(2) 0.0193(18) 0.907(2)
H14 H 0.434(3) 0.203(2) 0.354(3)
H15 H 0.795(2) 0.1514(16) 0.409(2)
H16 H 1.026(3) 0.349(2) 0.632(3)
H17 H 0.893(3) -0.062(2) 1.051(3)
H18 H 1.189(3) 0.406(2) 0.741(3)
H19 H 1.153(2) 0.2727(19) 1.009(3)
H20 H 0.735(3) -0.045(2) 1.125(3)
H21 H 0.689(2) 0.1563(18) 0.233(3)
H22 H 1.250(3) 0.361(2) 0.934(3)
loop_
_geom_bond_atom_site_label_1
_geom_bond_atom_site_label_2
_geom_bond_site_symmetry_1
_geom_bond_site_symmetry_2
O1 C2 1_555 1_555
C1 C2 1_555 1_555
N1 C3 1_555 1_555
O2 C6 1_555 1_555
N2 C5 1_555 1_555
C3 C8 1_555 1_555
C4 C6 1_555 1_555
C5 N1 1_555 1_555
C6 O3 1_555 1_555
C7 C4 1_555 1_555
C8 C4 1_555 1_555
C9 C7 1_555 1_555
C10 C8 1_555 1_555
C11 C10 1_555 1_555
C12 N1 1_555 1_555
C13 N2 1_555 1_555
C14 C11 1_555 1_555
C15 C16 1_555 1_555
O4 C16 1_555 1_555
C16 C14 1_555 1_555
C17 C10 1_555 1_555
C18 C9 1_555 1_555
C19 C18 1_555 1_555
C20 C9 1_555 1_555
H1 C20 1_555 1_555
C21 C12 1_555 1_555
C22 C20 1_555 1_555
H2 C22 1_555 1_555
C23 O2 1_555 1_555
H3 C23 1_555 1_555
H4 C23 1_555 1_555
C24 C19 1_555 1_555
C25 C21 1_555 1_555
C26 C13 1_555 1_555
C27 C25 1_555 1_555
C28 O4 1_555 1_555
H5 C28 1_555 1_555
H6 C28 1_555 1_555
H7 C28 1_555 1_555
C29 C23 1_555 1_555
H8 C29 1_555 1_555
H9 C29 1_555 1_555
H10 C29 1_555 1_555
H11 C3 1_555 1_555
H12 C17 1_555 1_555
H13 C18 1_555 1_555
H14 C15 1_555 1_555
H15 C11 1_555 1_555
H16 C21 1_555 1_555
H17 C19 1_555 1_555
H18 C25 1_555 1_555
H19 C26 1_555 1_555
H20 C24 1_555 1_555
H21 C14 1_555 1_555
H22 C27 1_555 1_555
C1B C2B 1_555 1_555
C2B O1 1_555 1_555
C5 C7 1_555 1_555
C12 C13 1_555 1_555
C15 C17 1_555 1_555
C22 C24 1_555 1_555
C26 C27 1_555 1_555

#END
