
#######################################################################
#
#                 Cambridge Crystallographic Data Centre
#                                CCDC 
#
#######################################################################
#
# If this CIF has been generated from an entry in the Cambridge 
# Structural Database, then it will include bibliographic, chemical, 
# crystal, experimental, refinement or atomic coordinate data resulting 
# from the CCDC's data processing and validation procedures.
#
#######################################################################

data_LIDCAE02
_chemical_name_common            'Orotic acid melamine monohydrate'
_chemical_formula_moiety         'C5 H4 N2 O4,C3 H6 N6,H2 O1'
_chemical_name_systematic        
'2,6-Dioxo-1,2,3,6-tetrahydropyrimidine-4-carboxylic acid 1,3,5-triazine-2,4,6-triamine monohydrate'
_symmetry_cell_setting           triclinic
_symmetry_space_group_name_H-M   'P -1'
_symmetry_Int_Tables_number      2
_space_group_name_Hall           '-P 1'
loop_
_symmetry_equiv_pos_site_id
_symmetry_equiv_pos_as_xyz
1 x,y,z
2 -x,-y,-z
_cell_length_a                   8.1689(6)
_cell_length_b                   8.3465(6)
_cell_length_c                   9.7857(8)
_cell_angle_alpha                113.114(7)
_cell_angle_beta                 98.197(7)
_cell_angle_gamma                99.316(6)
_cell_volume                     589.729
_exptl_crystal_colour            colorless
_exptl_crystal_description       block
_cell_formula_units_Z            2
loop_
_atom_site_label
_atom_site_type_symbol
_atom_site_fract_x
_atom_site_fract_y
_atom_site_fract_z
C1 C 0.7662(2) 1.5439(2) 0.55587(19)
C2 C 0.9316(2) 1.8052(2) 0.76374(19)
C3 C 0.7128(2) 1.6233(2) 0.7908(2)
N1 N 0.67224(18) 1.50443(18) 0.64284(17)
N2 N 0.84044(17) 1.77532(18) 0.85716(16)
N3 N 0.89537(18) 1.69412(18) 0.61291(16)
N4 N 0.74055(19) 1.4384(2) 0.40979(18)
N5 N 1.0618(2) 1.9455(2) 0.8130(2)
N6 N 0.6187(2) 1.5880(2) 0.87932(19)
H1 H 0.806(3) 1.469(3) 0.347(3)
H2 H 0.662(3) 1.337(3) 0.371(3)
H3 H 1.086(2) 2.018(3) 0.906(3)
H4 H 1.114(3) 1.962(3) 0.749(3)
H5 H 0.529(3) 1.484(3) 0.832(3)
H6 H 0.645(3) 1.653(3) 0.975(3)
O1 O 0.22112(16) 0.95126(16) 0.55804(14)
O2 O 0.01614(15) 0.72271(16) 0.38482(14)
H7 H -0.0174 0.7192 0.4621
O3 O 0.53464(15) 1.10462(15) 0.19035(14)
O4 O 0.14228(15) 0.58174(15) -0.09814(13)
C4 C 0.4193(2) 0.9869(2) 0.18698(19)
C5 C 0.2061(2) 0.7049(2) 0.02749(19)
C6 C 0.3587(2) 0.9855(2) 0.3176(2)
C7 C 0.2273(2) 0.8526(2) 0.29749(19)
C8 C 0.1493(2) 0.8431(2) 0.42583(19)
N7 N 0.15267(18) 0.71743(18) 0.15656(16)
N8 N 0.33866(18) 0.84366(18) 0.05007(17)
H8 H 0.405(2) 1.074(2) 0.412(2)
H9 H 0.374(3) 0.844(3) -0.031(3)
H10 H 0.072(3) 0.635(3) 0.149(2)
O5 O 0.32270(17) 1.28660(19) 0.78997(16)
H11 H 0.240(3) 1.334(3) 0.771(3)
H12 H 0.309(4) 1.178(4) 0.710(4)
loop_
_geom_bond_atom_site_label_1
_geom_bond_atom_site_label_2
_geom_bond_site_symmetry_1
_geom_bond_site_symmetry_2
C1 N1 1_555 1_555
C2 N2 1_555 1_555
C3 N1 1_555 1_555
N2 C3 1_555 1_555
N3 C1 1_555 1_555
N4 C1 1_555 1_555
N5 C2 1_555 1_555
N6 C3 1_555 1_555
H1 N4 1_555 1_555
H2 N4 1_555 1_555
H3 N5 1_555 1_555
H4 N5 1_555 1_555
H5 N6 1_555 1_555
H6 N6 1_555 1_555
O1 C8 1_555 1_555
O2 H7 1_555 1_555
O3 C4 1_555 1_555
O4 C5 1_555 1_555
C4 C6 1_555 1_555
C5 N7 1_555 1_555
C6 C7 1_555 1_555
C7 C8 1_555 1_555
C8 O2 1_555 1_555
N7 C7 1_555 1_555
N8 C4 1_555 1_555
H8 C6 1_555 1_555
H9 N8 1_555 1_555
H10 N7 1_555 1_555
O5 H11 1_555 1_555
H12 O5 1_555 1_555
C2 N3 1_555 1_555
C5 N8 1_555 1_555

#END
