
#######################################################################
#
#                 Cambridge Crystallographic Data Centre
#                                CCDC 
#
#######################################################################
#
# If this CIF has been generated from an entry in the Cambridge 
# Structural Database, then it will include bibliographic, chemical, 
# crystal, experimental, refinement or atomic coordinate data resulting 
# from the CCDC's data processing and validation procedures.
#
#######################################################################

data_LIDCAE
_chemical_name_common            'Orotic acid melamine monohydrate'
_chemical_formula_moiety         'C5 H4 N2 O4,C3 H6 N6,H2 O1'
_chemical_name_systematic        
'2,6-Dioxo-1,2,3,6-tetrahydropyrimidine-4-carboxylic acid 1,3,5-triazine-2,4,6-triamine monohydrate'
_symmetry_cell_setting           triclinic
_symmetry_space_group_name_H-M   'P -1'
_symmetry_Int_Tables_number      2
_space_group_name_Hall           '-P 1'
loop_
_symmetry_equiv_pos_site_id
_symmetry_equiv_pos_as_xyz
1 x,y,z
2 -x,-y,-z
_cell_length_a                   8.2133(6)
_cell_length_b                   8.3969(7)
_cell_length_c                   9.8069(8)
_cell_angle_alpha                113.304(8)
_cell_angle_beta                 97.788(7)
_cell_angle_gamma                99.804(7)
_cell_volume                     596.519
_exptl_crystal_colour            colorless
_exptl_crystal_description       block
_cell_formula_units_Z            2
loop_
_atom_site_label
_atom_site_type_symbol
_atom_site_fract_x
_atom_site_fract_y
_atom_site_fract_z
C1 C 0.7665(2) 1.5447(2) 0.55574(19)
C2 C 0.9321(2) 1.8053(2) 0.76367(19)
C3 C 0.7136(2) 1.6237(2) 0.79045(19)
N1 N 0.67308(19) 1.50561(19) 0.64270(17)
N2 N 0.84113(18) 1.77550(18) 0.85669(16)
N3 N 0.89601(18) 1.69471(19) 0.61294(16)
N4 N 0.7405(2) 1.4396(2) 0.40961(18)
N5 N 1.0617(2) 1.9451(2) 0.8126(2)
N6 N 0.6197(2) 1.5883(2) 0.8790(2)
H1 H 0.806(3) 1.471(3) 0.343(3)
H2 H 0.661(3) 1.337(3) 0.370(2)
H3 H 1.086(3) 2.015(3) 0.905(3)
H4 H 1.115(3) 1.962(3) 0.752(3)
H5 H 0.533(3) 1.482(3) 0.833(3)
H6 H 0.650(3) 1.650(3) 0.971(3)
O1 O 0.22088(18) 0.95184(17) 0.55778(14)
O2 O 0.01779(16) 0.72276(17) 0.38524(14)
H7 H -0.0158 0.7192 0.4625
O3 O 0.53414(16) 1.10438(16) 0.19044(14)
O4 O 0.14272(16) 0.58265(15) -0.09719(13)
C4 C 0.4193(2) 0.9872(2) 0.18711(19)
C5 C 0.2065(2) 0.7058(2) 0.02791(19)
C6 C 0.3583(2) 0.9860(2) 0.3174(2)
C7 C 0.2276(2) 0.8535(2) 0.29762(18)
C8 C 0.1495(2) 0.8436(2) 0.42591(19)
N7 N 0.15318(19) 0.71816(19) 0.15698(16)
N8 N 0.33849(18) 0.84402(19) 0.05065(17)
H8 H 0.404(2) 1.073(2) 0.411(2)
H9 H 0.370(3) 0.841(3) -0.031(3)
H10 H 0.070(3) 0.635(3) 0.145(2)
O5 O 0.32240(19) 1.2871(2) 0.78985(17)
H11 H 0.244(4) 1.336(4) 0.774(4)
H12 H 0.312(4) 1.182(4) 0.711(4)
loop_
_geom_bond_atom_site_label_1
_geom_bond_atom_site_label_2
_geom_bond_site_symmetry_1
_geom_bond_site_symmetry_2
C1 N1 1_555 1_555
C2 N2 1_555 1_555
C3 N1 1_555 1_555
N2 C3 1_555 1_555
N3 C1 1_555 1_555
N4 C1 1_555 1_555
N5 C2 1_555 1_555
N6 C3 1_555 1_555
H1 N4 1_555 1_555
H2 N4 1_555 1_555
H3 N5 1_555 1_555
H4 N5 1_555 1_555
H5 N6 1_555 1_555
H6 N6 1_555 1_555
O1 C8 1_555 1_555
O2 H7 1_555 1_555
O3 C4 1_555 1_555
O4 C5 1_555 1_555
C4 C6 1_555 1_555
C5 N7 1_555 1_555
C6 C7 1_555 1_555
C7 C8 1_555 1_555
C8 O2 1_555 1_555
N7 C7 1_555 1_555
N8 C4 1_555 1_555
H8 C6 1_555 1_555
H9 N8 1_555 1_555
H10 N7 1_555 1_555
O5 H11 1_555 1_555
H12 O5 1_555 1_555
C2 N3 1_555 1_555
C5 N8 1_555 1_555

#END
