
#######################################################################
#
#                 Cambridge Crystallographic Data Centre
#                                CCDC 
#
#######################################################################
#
# If this CIF has been generated from an entry in the Cambridge 
# Structural Database, then it will include bibliographic, chemical, 
# crystal, experimental, refinement or atomic coordinate data resulting 
# from the CCDC's data processing and validation procedures.
#
#######################################################################

data_LIDCIL
_chemical_compound_source        
'Isodon japonica(Burm.f) Hara var. Galaucocalyx (maxim)'
_chemical_formula_moiety         'C22 H30 O7,C3 H6 O2'
_chemical_name_systematic        
'6\b,7\b,14\b-Trihydroxy-1\a-acetoxy-7\a,20-epoxy-ent-kaur-16-en-15-one ethyl acetate solvate'
_symmetry_cell_setting           triclinic
_symmetry_space_group_name_H-M   'P 1'
_symmetry_Int_Tables_number      1
_space_group_name_Hall           'P 1'
loop_
_symmetry_equiv_pos_site_id
_symmetry_equiv_pos_as_xyz
1 x,y,z
_cell_length_a                   6.3506(4)
_cell_length_b                   13.5766(8)
_cell_length_c                   15.2777(9)
_cell_angle_alpha                80.5060(10)
_cell_angle_beta                 83.8560(10)
_cell_angle_gamma                88.3070(10)
_cell_volume                     1291.64
_exptl_crystal_colour            colorless
_chemical_melting_point          250-252deg.C
_cell_formula_units_Z            2
loop_
_atom_site_label
_atom_site_type_symbol
_atom_site_fract_x
_atom_site_fract_y
_atom_site_fract_z
O1 O 0.08836(8) 0.30615(3) -0.10822(3)
O2 O -0.22232(11) 0.32437(6) -0.16681(4)
O3 O 0.14024(7) 0.58039(3) 0.15993(3)
H1 H 0.0643 0.5432 0.1972
O4 O 0.42402(7) 0.42363(3) 0.22207(3)
H2 H 0.4166 0.3702 0.2562
O5 O 0.46358(6) 0.37674(3) 0.08586(3)
O6 O -0.08360(8) 0.44741(3) 0.27121(3)
O7 O 0.30719(7) 0.23719(3) 0.27629(3)
H3 H 0.3300(8) 0.17487(9) 0.2945(3)
C1 C 0.06258(10) 0.40660(5) -0.08527(4)
H4 H -0.0886 0.4239 -0.0788
C2 C 0.17193(14) 0.47606(6) -0.16383(4)
H5 H 0.1033 0.4726 -0.2170
H6 H 0.3185 0.4552 -0.1744
C3 C 0.16261(13) 0.58326(6) -0.14529(5)
H7 H 0.0156 0.6039 -0.1355
H8 H 0.2279 0.6269 -0.1972
C4 C 0.27479(11) 0.59516(5) -0.06403(4)
C5 C 0.17117(9) 0.51914(4) 0.01680(4)
H9 H 0.0248 0.5428 0.0272
C6 C 0.26831(10) 0.52228(4) 0.10398(4)
H10 H 0.4041 0.5564 0.0877
C7 C 0.31694(9) 0.41735(4) 0.14972(4)
C8 C 0.12217(9) 0.34745(4) 0.17088(4)
C9 C 0.00345(9) 0.35463(4) 0.08409(4)
H11 H -0.1205 0.3983 0.0916
C10 C 0.15315(8) 0.40791(4) 0.00341(3)
C11 C -0.07813(9) 0.25283(4) 0.07368(4)
H12 H -0.1861 0.2633 0.0326
H13 H 0.0377 0.2160 0.0469
C12 C -0.17070(10) 0.18893(5) 0.15996(4)
H14 H -0.1758 0.1201 0.1507
H15 H -0.3148 0.2111 0.1748
C13 C -0.04117(10) 0.19404(4) 0.23898(4)
H16 H -0.0314 0.1284 0.2763
C14 C 0.18207(10) 0.23643(4) 0.20489(4)
H17 H 0.2536 0.2032 0.1575
C15 C -0.03739(9) 0.36779(5) 0.24855(4)
C16 C -0.12666(10) 0.26996(5) 0.29280(4)
C17 C -0.25958(13) 0.26062(6) 0.36633(5)
H18 H -0.3138 0.1983 0.3917
H19 H -0.2988 0.3163 0.3927
C18 C 0.23020(15) 0.70057(5) -0.04167(6)
H20 H 0.2918 0.7491 -0.0898
H21 H 0.2910 0.7066 0.0121
H22 H 0.0800 0.7119 -0.0333
C19 C 0.51407(12) 0.58262(6) -0.08343(5)
H23 H 0.5652 0.6316 -0.1333
H24 H 0.5459 0.5170 -0.0972
H25 H 0.5816 0.5914 -0.0320
C20 C 0.36886(10) 0.35534(4) 0.01035(4)
H26 H 0.3511 0.2838 0.0158
H27 H 0.4617 0.3773 -0.0436
C21 C -0.06632(15) 0.27646(6) -0.15044(5)
C22 C -0.0124(2) 0.17337(7) -0.16916(6)
H28 H -0.1219 0.1505 -0.1994
H29 H -0.0006 0.1291 -0.1140
H30 H 0.1199 0.1744 -0.2061
O8 O 0.48869(7) 0.68763(3) 0.60980(3)
O9 O 0.78744(10) 0.69785(5) 0.67381(4)
O10 O 0.39759(8) 1.04670(3) 0.33324(3)
H31 H 0.4735(4) 1.01332(13) 0.29805(11)
O11 O 0.12300(7) 0.91236(4) 0.27317(3)
H32 H 0.1355 0.8696 0.2407
O12 O 0.08878(6) 0.82003(3) 0.41167(3)
O13 O 0.62332(8) 0.95005(3) 0.22217(3)
O14 O 0.25719(7) 0.73876(3) 0.22618(3)
H33 H 0.1967 0.7927 0.2280
C23 C 0.48243(11) 0.79584(5) 0.58444(4)
H34 H 0.6276 0.8205 0.5783
C24 C 0.35669(13) 0.83803(5) 0.66064(4)
H35 H 0.2152 0.8107 0.6705
H36 H 0.4247 0.8185 0.7149
C25 C 0.34274(13) 0.95012(5) 0.63969(4)
H37 H 0.4843 0.9771 0.6328
H38 H 0.2631 0.9751 0.6895
C26 C 0.23735(11) 0.98682(5) 0.55530(4)
C27 C 0.35800(9) 0.94061(4) 0.47866(4)
H39 H 0.5003 0.9689 0.4708
C28 C 0.26931(10) 0.97209(4) 0.38877(4)
H40 H 0.1311 1.0036 0.4016
C29 C 0.22785(9) 0.88190(4) 0.34623(4)
C30 C 0.43188(9) 0.81783(4) 0.32678(4)
C31 C 0.55203(8) 0.79851(4) 0.41429(4)
H41 H 0.6691 0.8457 0.4056
C32 C 0.39323(9) 0.82392(4) 0.49418(4)
C33 C 0.64759(9) 0.69253(4) 0.42822(4)
H42 H 0.7567 0.6904 0.4683
H43 H 0.5377 0.6466 0.4574
C34 C 0.74297(11) 0.65586(5) 0.34392(4)
H44 H 0.7576 0.5837 0.3561
H45 H 0.8836 0.6834 0.3273
C35 C 0.60774(10) 0.68522(5) 0.26382(4)
H46 H 0.6036 0.6310 0.2290
C36 C 0.38600(10) 0.71727(4) 0.29768(4)
H47 H 0.3210 0.6688 0.3472
C37 C 0.58805(9) 0.86175(4) 0.24818(4)
C38 C 0.68557(10) 0.77978(5) 0.20686(4)
C39 C 0.81819(14) 0.79335(7) 0.13368(5)
H48 H 0.8539 0.8577 0.1057
H49 H 0.8762 0.7386 0.1099
C40 C 0.25957(15) 1.10118(5) 0.53067(5)
H50 H 0.4069 1.1179 0.5194
H51 H 0.1953 1.1323 0.5791
H52 H 0.1903 1.1245 0.4781
C41 C -0.00240(12) 0.96508(6) 0.57256(5)
H53 H -0.0231 0.8943 0.5877
H54 H -0.0692 0.9903 0.5197
H55 H -0.0638 0.9972 0.6209
C42 C 0.18571(10) 0.77322(5) 0.48892(4)
H56 H 0.2122 0.7031 0.4857
H57 H 0.0906 0.7777 0.5422
C43 C 0.65723(13) 0.64749(6) 0.65186(4)
C44 C 0.65143(18) 0.53787(6) 0.66411(6)
H58 H 0.7707 0.5104 0.6939
H59 H 0.6570 0.5167 0.6069
H60 H 0.5228 0.5149 0.6995
O15 O -0.60699(14) 0.34598(8) 0.54114(5)
O16 O -0.8049(3) 0.32894(13) 0.65714(9)
C45 C -0.4449(3) 0.26158(12) 0.65938(10)
H61 H -0.3235 0.2640 0.6159
H62 H -0.4829 0.1933 0.6807
H63 H -0.4118 0.2924 0.7084
C46 C -0.6246(3) 0.31570(10) 0.61794(9)
C47 C -0.7739(2) 0.40110(16) 0.48358(10)
H64 H -0.7157 0.4138 0.4222
H65 H -0.8123 0.4633 0.5035
H66 H -0.8973 0.3604 0.4893
O17 O -0.4472(2) -0.02245(16) -0.03437(7)
O18 O -0.5181(3) -0.01431(12) -0.15851(9)
C48 C -0.2305(3) -0.10087(11) -0.15250(9)
H67 H -0.1128 -0.1340 -0.1250
H68 H -0.1789 -0.0515 -0.2020
H69 H -0.3125 -0.1489 -0.1732
C49 C -0.3801(2) -0.04622(13) -0.07902(19)
C50 C -0.6260(2) 0.00992(14) 0.02794(7)
H70 H -0.5704 0.0276 0.0792
H71 H -0.7239 -0.0439 0.0466
H72 H -0.6977 0.0667 -0.0023
loop_
_geom_bond_atom_site_label_1
_geom_bond_atom_site_label_2
_geom_bond_site_symmetry_1
_geom_bond_site_symmetry_2
O1 C1 1_555 1_555
O2 C21 1_555 1_555
O3 H1 1_555 1_555
O4 H2 1_555 1_555
O5 C7 1_555 1_555
O6 C15 1_555 1_555
O7 H3 1_555 1_555
C1 H4 1_555 1_555
C2 C1 1_555 1_555
H5 C2 1_555 1_555
H6 C2 1_555 1_555
C3 C2 1_555 1_555
H7 C3 1_555 1_555
H8 C3 1_555 1_555
C4 C3 1_555 1_555
C5 C4 1_555 1_555
H9 C5 1_555 1_555
C6 O3 1_555 1_555
H10 C6 1_555 1_555
C7 O4 1_555 1_555
C8 C7 1_555 1_555
C9 C8 1_555 1_555
H11 C9 1_555 1_555
C10 C1 1_555 1_555
C11 C9 1_555 1_555
H12 C11 1_555 1_555
H13 C11 1_555 1_555
C12 C11 1_555 1_555
H14 C12 1_555 1_555
H15 C12 1_555 1_555
C13 C12 1_555 1_555
H16 C13 1_555 1_555
C14 O7 1_555 1_555
H17 C14 1_555 1_555
C15 C8 1_555 1_555
C16 C13 1_555 1_555
C17 C16 1_555 1_555
H18 C17 1_555 1_555
H19 C17 1_555 1_555
C18 C4 1_555 1_555
H20 C18 1_555 1_555
H21 C18 1_555 1_555
H22 C18 1_555 1_555
C19 C4 1_555 1_555
H23 C19 1_555 1_555
H24 C19 1_555 1_555
H25 C19 1_555 1_555
C20 O5 1_555 1_555
H26 C20 1_555 1_555
H27 C20 1_555 1_555
C21 O1 1_555 1_555
C22 C21 1_555 1_555
H28 C22 1_555 1_555
H29 C22 1_555 1_555
H30 C22 1_555 1_555
O8 C23 1_555 1_555
O9 C43 1_555 1_555
O10 H31 1_555 1_555
O11 H32 1_555 1_555
O12 C29 1_555 1_555
O13 C37 1_555 1_555
O14 H33 1_555 1_555
C23 H34 1_555 1_555
C24 C23 1_555 1_555
H35 C24 1_555 1_555
H36 C24 1_555 1_555
C25 C24 1_555 1_555
H37 C25 1_555 1_555
H38 C25 1_555 1_555
C26 C25 1_555 1_555
C27 C26 1_555 1_555
H39 C27 1_555 1_555
C28 O10 1_555 1_555
H40 C28 1_555 1_555
C29 O11 1_555 1_555
C30 C29 1_555 1_555
C31 C30 1_555 1_555
H41 C31 1_555 1_555
C32 C23 1_555 1_555
C33 C31 1_555 1_555
H42 C33 1_555 1_555
H43 C33 1_555 1_555
C34 C33 1_555 1_555
H44 C34 1_555 1_555
H45 C34 1_555 1_555
C35 C34 1_555 1_555
H46 C35 1_555 1_555
C36 O14 1_555 1_555
H47 C36 1_555 1_555
C37 C30 1_555 1_555
C38 C35 1_555 1_555
C39 C38 1_555 1_555
H48 C39 1_555 1_555
H49 C39 1_555 1_555
C40 C26 1_555 1_555
H50 C40 1_555 1_555
H51 C40 1_555 1_555
H52 C40 1_555 1_555
C41 C26 1_555 1_555
H53 C41 1_555 1_555
H54 C41 1_555 1_555
H55 C41 1_555 1_555
C42 O12 1_555 1_555
H56 C42 1_555 1_555
H57 C42 1_555 1_555
C43 O8 1_555 1_555
C44 C43 1_555 1_555
H58 C44 1_555 1_555
H59 C44 1_555 1_555
H60 C44 1_555 1_555
O15 C46 1_555 1_555
O16 C46 1_555 1_555
C45 H61 1_555 1_555
H62 C45 1_555 1_555
H63 C45 1_555 1_555
C46 C45 1_555 1_555
C47 O15 1_555 1_555
H64 C47 1_555 1_555
H65 C47 1_555 1_555
H66 C47 1_555 1_555
O17 C49 1_555 1_555
O18 C49 1_555 1_555
C48 H67 1_555 1_555
H68 C48 1_555 1_555
H69 C48 1_555 1_555
C49 C48 1_555 1_555
C50 O17 1_555 1_555
H70 C50 1_555 1_555
H71 C50 1_555 1_555
H72 C50 1_555 1_555
C5 C6 1_555 1_555
C5 C10 1_555 1_555
C6 C7 1_555 1_555
C8 C14 1_555 1_555
C9 C10 1_555 1_555
C10 C20 1_555 1_555
C13 C14 1_555 1_555
C15 C16 1_555 1_555
C27 C28 1_555 1_555
C27 C32 1_555 1_555
C28 C29 1_555 1_555
C30 C36 1_555 1_555
C31 C32 1_555 1_555
C32 C42 1_555 1_555
C35 C36 1_555 1_555
C37 C38 1_555 1_555

#END
