
#######################################################################
#
#                 Cambridge Crystallographic Data Centre
#                                CCDC 
#
#######################################################################
#
# If this CIF has been generated from an entry in the Cambridge 
# Structural Database, then it will include bibliographic, chemical, 
# crystal, experimental, refinement or atomic coordinate data resulting 
# from the CCDC's data processing and validation procedures.
#
#######################################################################

data_LIDDOT
_chemical_name_common            
1-(2,4-Dimethyl-5-thiazolyl)-2-(2-cyano-1,5-dimethyl-4-pyrryl)perfluorocyclopentene
_chemical_formula_moiety         'C17 H13 F6 N3 S1'
_chemical_name_systematic        
4-(2-(2,4-Dimethyl-1,3-thiazol-5-yl)-3,3,4,4,5,5-hexafluorocyclopent-1-en-1-yl)-1,5-dimethyl-1H-pyrrole-2-carbonitrile
_symmetry_cell_setting           monoclinic
_symmetry_space_group_name_H-M   'P 21/c'
_symmetry_Int_Tables_number      14
_space_group_name_Hall           '-P 2ybc'
loop_
_symmetry_equiv_pos_site_id
_symmetry_equiv_pos_as_xyz
1 x,y,z
2 -x,1/2+y,1/2-z
3 -x,-y,-z
4 x,1/2-y,1/2+z
_cell_length_a                   15.8095(18)
_cell_length_b                   13.1111(15)
_cell_length_c                   8.6534(10)
_cell_angle_alpha                90
_cell_angle_beta                 98.0170(10)
_cell_angle_gamma                90
_cell_volume                     1776.15
_exptl_crystal_colour            colorless
_exptl_crystal_description       block
_cell_formula_units_Z            4
loop_
_atom_site_label
_atom_site_type_symbol
_atom_site_fract_x
_atom_site_fract_y
_atom_site_fract_z
C1 C 0.2144(2) 0.5375(2) 0.2659(4)
C2 C 0.1832(3) 0.6057(3) 0.3858(5)
C3 C 0.2515(3) 0.6067(3) 0.5249(4)
C4 C 0.3100(2) 0.5191(3) 0.4982(4)
C5 C 0.2891(2) 0.4929(3) 0.3286(4)
C6 C 0.1642(2) 0.5277(2) 0.1131(4)
C7 C 0.1166(2) 0.6061(2) 0.0304(4)
H1 H 0.1109 0.6727 0.0646
C8 C 0.0802(2) 0.5666(2) -0.1090(4)
C9 C 0.1542(2) 0.4408(2) 0.0193(4)
C10 C 0.1828(3) 0.3334(3) 0.0521(5)
H2 H 0.1371 0.2875 0.0150
H3 H 0.1984 0.3244 0.1625
H4 H 0.2312 0.3192 -0.0002
C11 C 0.0808(2) 0.3984(3) -0.2491(4)
H5 H 0.1318 0.3720 -0.2827
H6 H 0.0489 0.4362 -0.3326
H7 H 0.0466 0.3429 -0.2200
C12 C 0.0276(2) 0.6146(3) -0.2345(4)
C13 C 0.3480(2) 0.4281(3) 0.2577(4)
C14 C 0.3821(2) 0.4412(3) 0.1228(4)
C15 C 0.4548(2) 0.3030(3) 0.2114(4)
C16 C 0.3617(3) 0.5235(3) 0.0045(5)
H8 H 0.3259 0.4965 -0.0849
H9 H 0.4136 0.5490 -0.0267
H10 H 0.3323 0.5779 0.0489
C17 C 0.5174(3) 0.2171(4) 0.2224(5)
H11 H 0.4871 0.1534 0.2119
H12 H 0.5529 0.2193 0.3218
H13 H 0.5523 0.2232 0.1406
F1 F 0.11138(17) 0.5649(3) 0.4333(4)
F2 F 0.1597(3) 0.6962(2) 0.3356(3)
F3 F 0.2957(2) 0.6944(2) 0.5185(5)
F4 F 0.2238(2) 0.6063(3) 0.6601(3)
F5 F 0.39265(15) 0.5430(2) 0.5415(3)
F6 F 0.2940(2) 0.4388(2) 0.5906(3)
N1 N 0.44281(18) 0.3690(2) 0.0994(4)
N2 N 0.10357(16) 0.46560(19) -0.1146(3)
N3 N -0.0146(3) 0.6551(3) -0.3340(4)
S1 S 0.39180(7) 0.32200(8) 0.35575(11)
loop_
_geom_bond_atom_site_label_1
_geom_bond_atom_site_label_2
_geom_bond_site_symmetry_1
_geom_bond_site_symmetry_2
C1 C2 1_555 1_555
C2 C3 1_555 1_555
C3 C4 1_555 1_555
C4 C5 1_555 1_555
C5 C1 1_555 1_555
C6 C1 1_555 1_555
C7 C6 1_555 1_555
H1 C7 1_555 1_555
C8 C7 1_555 1_555
C9 C6 1_555 1_555
C10 C9 1_555 1_555
H2 C10 1_555 1_555
H3 C10 1_555 1_555
H4 C10 1_555 1_555
C11 H5 1_555 1_555
H6 C11 1_555 1_555
H7 C11 1_555 1_555
C12 C8 1_555 1_555
C13 C5 1_555 1_555
C14 C13 1_555 1_555
C15 C17 1_555 1_555
C16 C14 1_555 1_555
H8 C16 1_555 1_555
H9 C16 1_555 1_555
H10 C16 1_555 1_555
C17 H11 1_555 1_555
H12 C17 1_555 1_555
H13 C17 1_555 1_555
F1 C2 1_555 1_555
F2 C2 1_555 1_555
F3 C3 1_555 1_555
F4 C3 1_555 1_555
F5 C4 1_555 1_555
F6 C4 1_555 1_555
N1 C14 1_555 1_555
N2 C8 1_555 1_555
N3 C12 1_555 1_555
S1 C13 1_555 1_555
C9 N2 1_555 1_555
C11 N2 1_555 1_555
C15 N1 1_555 1_555
C15 S1 1_555 1_555

#END
