
#######################################################################
#
#                 Cambridge Crystallographic Data Centre
#                                CCDC 
#
#######################################################################
#
# If this CIF has been generated from an entry in the Cambridge 
# Structural Database, then it will include bibliographic, chemical, 
# crystal, experimental, refinement or atomic coordinate data resulting 
# from the CCDC's data processing and validation procedures.
#
#######################################################################

data_LIDDEJ
_chemical_name_common            
1-(2,5-dimethyl-3-thienyl)-2-(2-cyano-1,5-dimethyl-4-pyrryl)perfluorocyclopentene
_chemical_formula_moiety         'C18 H14 F6 N2 S1'
_chemical_name_systematic        
4-(2-(2,5-Dimethyl-3-thienyl)-3,3,4,4,5,5-hexafluorocyclopent-1-en-1-yl)-1,5-dimethyl-1H-pyrrole-2-carbonitrile
_symmetry_cell_setting           monoclinic
_symmetry_space_group_name_H-M   'P 21/c'
_symmetry_Int_Tables_number      14
_space_group_name_Hall           '-P 2ybc'
loop_
_symmetry_equiv_pos_site_id
_symmetry_equiv_pos_as_xyz
1 x,y,z
2 -x,1/2+y,1/2-z
3 -x,-y,-z
4 x,1/2-y,1/2+z
_cell_length_a                   16.432(2)
_cell_length_b                   13.0362(17)
_cell_length_c                   8.6933(12)
_cell_angle_alpha                90
_cell_angle_beta                 93.670(2)
_cell_angle_gamma                90
_cell_volume                     1858.38
_cell_formula_units_Z            4
loop_
_atom_site_label
_atom_site_type_symbol
_atom_site_fract_x
_atom_site_fract_y
_atom_site_fract_z
S1 S 0.94107(5) 0.08156(9) 1.15733(10)
F1 F 0.6507(5) -0.1780(5) 0.6985(9)
F2 F 0.6156(3) -0.0271(5) 0.6101(6)
F3 F 0.7899(3) -0.1652(4) 0.5766(9)
F4 F 0.7242(4) -0.0596(7) 0.4229(5)
F5 F 0.8867(2) -0.0089(5) 0.6196(5)
F6 F 0.7903(3) 0.0975(3) 0.5653(4)
N1 N 0.60071(13) 0.03204(16) 1.1592(2)
N2 N 0.4906(2) -0.1628(2) 1.3256(4)
C1 C 0.5291(2) -0.1205(2) 1.2417(4)
C2 C 0.57871(16) -0.0692(2) 1.1378(3)
C3 C 0.61500(17) -0.1060(2) 1.0124(3)
H1 H 0.6099 -0.1719 0.9722
C4 C 0.66184(16) -0.0253(2) 0.9546(3)
C5 C 0.65074(16) 0.05983(19) 1.0479(3)
C6 C 0.6812(2) 0.1671(2) 1.0357(4)
H2 H 0.6383 0.2142 1.0562
H3 H 0.6984 0.1786 0.9336
H4 H 0.7265 0.1774 1.1094
C7 C 0.5729(2) 0.0982(2) 1.2811(4)
H5 H 0.6191 0.1305 1.3342
H6 H 0.5444 0.0577 1.3526
H7 H 0.5370 0.1498 1.2365
C8 C 0.71233(17) -0.0300(2) 0.8229(3)
C9 C 0.6819(2) -0.0850(3) 0.6794(4)
C10 C 0.7486(2) -0.0750(3) 0.5680(4)
C11 C 0.8090(2) 0.0000(3) 0.6424(4)
C12 C 0.78661(17) 0.0109(2) 0.8056(3)
C13 C 0.84454(16) 0.0573(2) 0.9212(3)
C14 C 0.88608(17) 0.1519(3) 0.9011(4)
H8 H 0.8769 0.1931 0.8144
C15 C 0.93990(19) 0.1762(3) 1.0191(4)
C16 C 0.9943(2) 0.2688(3) 1.0397(5)
H9 H 1.0103 0.2913 0.9409
H10 H 1.0420 0.2512 1.1039
H11 H 0.9654 0.3229 1.0874
C17 C 0.86813(18) 0.0094(3) 1.0569(3)
C18 C 0.8419(2) -0.0913(3) 1.1183(4)
H12 H 0.7933 -0.0820 1.1723
H13 H 0.8844 -0.1184 1.1876
H14 H 0.8311 -0.1383 1.0344
F7? F 0.6934(7) -0.1907(7) 0.7171(16)
F8? F 0.6074(5) -0.0821(11) 0.6315(14)
F9? F 0.7672(8) -0.1555(8) 0.4826(14)
F10? F 0.7140(8) -0.0081(10) 0.4581(14)
F11? F 0.8760(5) -0.0782(12) 0.6529(12)
F12? F 0.8382(10) 0.0706(11) 0.5663(13)
loop_
_geom_bond_atom_site_label_1
_geom_bond_atom_site_label_2
_geom_bond_site_symmetry_1
_geom_bond_site_symmetry_2
S1 C15 1_555 1_555
F1 C9 1_555 1_555
F2 C9 1_555 1_555
F3 C10 1_555 1_555
F4 C10 1_555 1_555
F5 C11 1_555 1_555
F6 C11 1_555 1_555
N1 C2 1_555 1_555
N2 C1 1_555 1_555
C1 C2 1_555 1_555
C2 C3 1_555 1_555
C3 H1 1_555 1_555
C4 C3 1_555 1_555
C5 N1 1_555 1_555
C6 C5 1_555 1_555
H2 C6 1_555 1_555
H3 C6 1_555 1_555
H4 C6 1_555 1_555
C7 N1 1_555 1_555
H5 C7 1_555 1_555
H6 C7 1_555 1_555
H7 C7 1_555 1_555
C8 C4 1_555 1_555
C9 C8 1_555 1_555
C10 C9 1_555 1_555
C11 C10 1_555 1_555
C12 C8 1_555 1_555
C13 C12 1_555 1_555
C14 C13 1_555 1_555
H8 C14 1_555 1_555
C15 C14 1_555 1_555
C16 C15 1_555 1_555
H9 C16 1_555 1_555
H10 C16 1_555 1_555
H11 C16 1_555 1_555
C17 S1 1_555 1_555
C18 C17 1_555 1_555
H12 C18 1_555 1_555
H13 C18 1_555 1_555
H14 C18 1_555 1_555
C4 C5 1_555 1_555
C11 C12 1_555 1_555
C13 C17 1_555 1_555

#END
