
#######################################################################
#
#                 Cambridge Crystallographic Data Centre
#                                CCDC 
#
#######################################################################
#
# If this CIF has been generated from an entry in the Cambridge 
# Structural Database, then it will include bibliographic, chemical, 
# crystal, experimental, refinement or atomic coordinate data resulting 
# from the CCDC's data processing and validation procedures.
#
#######################################################################

data_LIDDIN
_chemical_name_common            
1-(1-methylphenyl)-2-(2-cyano-1,5-dimethyl-4-pyrryl)perfluorocyclopentene
_chemical_formula_moiety         'C19 H14 F6 N2'
_chemical_name_systematic        
4-(3,3,4,4,5,5-Hexafluoro-2-(2-methylphenyl)cyclopent-1-en-1-yl)-1,5-dimethyl-1H-pyrrole-2-carbonitrile
_symmetry_cell_setting           monoclinic
_symmetry_space_group_name_H-M   'P 21/c'
_symmetry_Int_Tables_number      14
_space_group_name_Hall           '-P 2ybc'
loop_
_symmetry_equiv_pos_site_id
_symmetry_equiv_pos_as_xyz
1 x,y,z
2 -x,1/2+y,1/2-z
3 -x,-y,-z
4 x,1/2-y,1/2+z
_cell_length_a                   16.571(3)
_cell_length_b                   13.208(3)
_cell_length_c                   8.2626(17)
_cell_angle_alpha                90
_cell_angle_beta                 90.383(2)
_cell_angle_gamma                90
_cell_volume                     1808.39
_exptl_crystal_colour            colorless
_exptl_crystal_description       block
_cell_formula_units_Z            4
loop_
_atom_site_label
_atom_site_type_symbol
_atom_site_fract_x
_atom_site_fract_y
_atom_site_fract_z
F1 F 0.3710(6) 0.9403(7) 0.5544(8)
F2 F 0.3860(4) 1.0944(6) 0.6244(7)
F3 F 0.2354(6) 0.9823(7) 0.4269(10)
F4 F 0.2784(5) 1.1350(7) 0.4235(9)
F5 F 0.1198(6) 1.0591(7) 0.5904(19)
F6 F 0.1997(4) 1.1837(6) 0.6688(14)
C1 C 0.2966(3) 0.9948(4) 0.7871(5)
C2 C 0.3259(4) 1.0111(5) 0.6184(7)
C3 C 0.2609(4) 1.0595(5) 0.5268(6)
C4 C 0.1947(3) 1.0790(4) 0.6464(7)
C5 C 0.2211(3) 1.0299(4) 0.8005(5)
C6 C 0.3500(3) 0.9526(4) 0.9121(6)
C7 C 0.3754(3) 1.0121(5) 1.0433(6)
C8 C 0.4267(4) 0.9673(6) 1.1584(7)
H1 H 0.4438 1.0052 1.2470
C9 C 0.4522(4) 0.8690(7) 1.1437(10)
H2 H 0.4859 0.8410 1.2223
C10 C 0.4279(4) 0.8110(6) 1.0122(10)
H3 H 0.4451 0.7443 1.0018
C11 C 0.3780(4) 0.8536(5) 0.8972(7)
H4 H 0.3627 0.8155 0.8075
C12 C 0.3527(4) 1.1210(5) 1.0630(7)
H5 H 0.3555 1.1546 0.9602
H6 H 0.3893 1.1529 1.1379
H7 H 0.2987 1.1255 1.1038
C13 C 0.1510(3) 0.9430(3) 1.0347(5)
C14 C 0.1673(3) 1.0266(3) 0.9386(5)
C15 C 0.1204(3) 1.1073(4) 0.9987(5)
H8 H 0.1182 1.1728 0.9576
C16 C 0.0792(3) 1.0715(4) 1.1279(5)
C17 C 0.1793(3) 0.8360(4) 1.0220(7)
H9 H 0.2228 0.8250 1.0973
H10 H 0.1978 0.8233 0.9140
H11 H 0.1356 0.7910 1.0464
C18 C 0.0271(3) 1.1241(4) 1.2359(7)
C19 C 0.0637(3) 0.9063(4) 1.2765(6)
H12 H 0.0308 0.8548 1.2275
H13 H 0.0314 0.9463 1.3483
H14 H 0.1069 0.8752 1.3364
N1 N 0.0973(2) 0.9714(3) 1.1503(4)
N2 N -0.0138(4) 1.1659(4) 1.3223(7)
F7? F 0.3105(7) 0.9094(8) 0.5459(12)
F8? F 0.4008(6) 1.0085(14) 0.5877(15)
F9? F 0.2391(11) 1.0451(14) 0.3752(13)
F10? F 0.2972(9) 1.1532(9) 0.5207(14)
F11? F 0.1318(10) 1.0177(12) 0.594(3)
F12? F 0.1584(8) 1.1705(9) 0.659(2)
loop_
_geom_bond_atom_site_label_1
_geom_bond_atom_site_label_2
_geom_bond_site_symmetry_1
_geom_bond_site_symmetry_2
F1 C2 1_555 1_555
F2 C2 1_555 1_555
F3 C3 1_555 1_555
F4 C3 1_555 1_555
F5 C4 1_555 1_555
F6 C4 1_555 1_555
C1 C2 1_555 1_555
C2 C3 1_555 1_555
C3 C4 1_555 1_555
C4 C5 1_555 1_555
C5 C1 1_555 1_555
C6 C1 1_555 1_555
C7 C6 1_555 1_555
C8 C7 1_555 1_555
H1 C8 1_555 1_555
C9 C8 1_555 1_555
H2 C9 1_555 1_555
C10 C9 1_555 1_555
H3 C10 1_555 1_555
C11 C6 1_555 1_555
H4 C11 1_555 1_555
C12 C7 1_555 1_555
H5 C12 1_555 1_555
H6 C12 1_555 1_555
H7 C12 1_555 1_555
C13 C14 1_555 1_555
C14 C5 1_555 1_555
C15 C14 1_555 1_555
H8 C15 1_555 1_555
C16 C15 1_555 1_555
C17 C13 1_555 1_555
H9 C17 1_555 1_555
H10 C17 1_555 1_555
H11 C17 1_555 1_555
C18 C16 1_555 1_555
C19 H12 1_555 1_555
H13 C19 1_555 1_555
H14 C19 1_555 1_555
N1 C13 1_555 1_555
N2 C18 1_555 1_555
C10 C11 1_555 1_555
C16 N1 1_555 1_555
C19 N1 1_555 1_555

#END
