
#######################################################################
#
#                 Cambridge Crystallographic Data Centre
#                                CCDC 
#
#######################################################################
#
# If this CIF has been generated from an entry in the Cambridge 
# Structural Database, then it will include bibliographic, chemical, 
# crystal, experimental, refinement or atomic coordinate data resulting 
# from the CCDC's data processing and validation procedures.
#
#######################################################################

data_LIDFIO
_chemical_formula_moiety         'C30 H27 N1 O3'
_chemical_name_systematic        
3-Benzoyl-7,7-dimethyl-4-phenyl-2-phenylamino-4,6,7,8-tetrahydrochromen-5-one
_symmetry_cell_setting           triclinic
_symmetry_space_group_name_H-M   'P -1'
_symmetry_Int_Tables_number      2
_space_group_name_Hall           '-P 1'
loop_
_symmetry_equiv_pos_site_id
_symmetry_equiv_pos_as_xyz
1 x,y,z
2 -x,-y,-z
_cell_length_a                   6.3247(16)
_cell_length_b                   11.243(3)
_cell_length_c                   17.553(4)
_cell_angle_alpha                87.306(4)
_cell_angle_beta                 80.822(4)
_cell_angle_gamma                77.798(4)
_cell_volume                     1204.24
_exptl_crystal_colour            colorless
_exptl_crystal_description       block
_chemical_melting_point          166-168deg.C
_cell_formula_units_Z            2
_exptl_crystal_recrystallization_method ethanol
loop_
_atom_site_label
_atom_site_type_symbol
_atom_site_fract_x
_atom_site_fract_y
_atom_site_fract_z
O1 O 1.2980(2) -0.05440(13) 0.06856(9)
O2 O 0.4186(3) -0.00500(15) 0.32753(9)
N1 N 1.2877(3) 0.13116(15) 0.15104(10)
H1 H 1.3405 0.0878 0.1107
O3 O 1.0385(2) 0.16759(13) 0.25788(8)
C1 C 0.7730(4) 0.25141(19) 0.36095(12)
H2 H 0.7072 0.3259 0.3361
H3 H 0.8999 0.2661 0.3807
C2 C 0.6093(4) 0.2203(2) 0.42795(13)
C3 C 0.4377(4) 0.1699(2) 0.39423(14)
H4 H 0.3421 0.1406 0.4364
H5 H 0.3488 0.2361 0.3688
C4 C 0.5272(4) 0.0694(2) 0.33806(13)
C5 C 0.7432(3) 0.06551(19) 0.29179(12)
C6 C 0.8450(3) 0.15369(19) 0.30295(12)
C7 C 1.1181(3) 0.09565(18) 0.19505(12)
C8 C 1.0308(3) -0.00082(18) 0.17943(12)
C9 C 0.8370(3) -0.03332(18) 0.23311(12)
H6 H 0.7235 -0.0366 0.2017
C10 C 0.8911(4) -0.15739(19) 0.27323(12)
C11 C 1.0698(4) -0.1874(2) 0.31160(13)
H7 H 1.1583 -0.1315 0.3134
C12 C 1.1182(5) -0.2993(2) 0.34718(15)
H8 H 1.2393 -0.3187 0.3727
C13 C 0.9884(5) -0.3826(2) 0.34520(16)
H9 H 1.0216 -0.4583 0.3692
C14 C 0.8107(5) -0.3535(2) 0.30782(16)
H10 H 0.7224 -0.4096 0.3065
C15 C 0.7610(4) -0.2416(2) 0.27196(14)
H11 H 0.6392 -0.2227 0.2468
C16 C 1.1317(4) -0.07267(19) 0.11298(13)
C17 C 1.0364(4) -0.17728(19) 0.09412(12)
C18 C 1.1486(4) -0.2950(2) 0.10315(12)
H12 H 1.2815 -0.3093 0.1218
C19 C 1.0648(5) -0.3912(2) 0.08474(14)
H13 H 1.1400 -0.4706 0.0915
C20 C 0.8690(4) -0.3703(2) 0.05627(13)
H14 H 0.8124 -0.4355 0.0439
C21 C 0.7582(4) -0.2539(2) 0.04621(13)
H15 H 0.6273 -0.2398 0.0263
C22 C 0.8413(4) -0.1574(2) 0.06571(12)
H16 H 0.7646 -0.0782 0.0596
C23 C 1.3955(3) 0.22673(19) 0.15883(12)
C24 C 1.6009(4) 0.2173(2) 0.11542(12)
H17 H 1.6576 0.1512 0.0830
C25 C 1.7224(4) 0.3042(2) 0.11947(14)
H18 H 1.8604 0.2964 0.0900
C26 C 1.6413(4) 0.4021(2) 0.16665(14)
H19 H 1.7250 0.4597 0.1706
C27 C 1.4352(4) 0.4143(2) 0.20801(13)
H20 H 1.3781 0.4816 0.2393
C28 C 1.3110(4) 0.3282(2) 0.20393(13)
H21 H 1.1703 0.3385 0.2316
C29 C 0.5006(5) 0.3344(2) 0.47361(15)
H22 H 0.6104 0.3684 0.4916
H23 H 0.4007 0.3141 0.5170
H24 H 0.4221 0.3929 0.4411
C30 C 0.7256(5) 0.1249(2) 0.48069(14)
H25 H 0.8367 0.1561 0.4999
H26 H 0.7918 0.0523 0.4520
H27 H 0.6213 0.1064 0.5232
loop_
_geom_bond_atom_site_label_1
_geom_bond_atom_site_label_2
_geom_bond_site_symmetry_1
_geom_bond_site_symmetry_2
O1 C16 1_555 1_555
O2 C4 1_555 1_555
N1 H1 1_555 1_555
O3 C6 1_555 1_555
C1 H2 1_555 1_555
H3 C1 1_555 1_555
C2 C1 1_555 1_555
C3 C2 1_555 1_555
H4 C3 1_555 1_555
H5 C3 1_555 1_555
C4 C3 1_555 1_555
C5 C4 1_555 1_555
C6 C1 1_555 1_555
C7 N1 1_555 1_555
C8 C7 1_555 1_555
C9 C5 1_555 1_555
H6 C9 1_555 1_555
C10 C9 1_555 1_555
C11 C10 1_555 1_555
H7 C11 1_555 1_555
C12 C11 1_555 1_555
H8 C12 1_555 1_555
C13 C12 1_555 1_555
H9 C13 1_555 1_555
C14 C13 1_555 1_555
H10 C14 1_555 1_555
C15 C10 1_555 1_555
H11 C15 1_555 1_555
C16 C8 1_555 1_555
C17 C16 1_555 1_555
C18 C17 1_555 1_555
H12 C18 1_555 1_555
C19 C18 1_555 1_555
H13 C19 1_555 1_555
C20 C19 1_555 1_555
H14 C20 1_555 1_555
C21 C20 1_555 1_555
H15 C21 1_555 1_555
C22 C17 1_555 1_555
H16 C22 1_555 1_555
C23 N1 1_555 1_555
C24 C23 1_555 1_555
H17 C24 1_555 1_555
C25 C24 1_555 1_555
H18 C25 1_555 1_555
C26 C25 1_555 1_555
H19 C26 1_555 1_555
C27 C26 1_555 1_555
H20 C27 1_555 1_555
C28 C23 1_555 1_555
H21 C28 1_555 1_555
C29 C2 1_555 1_555
H22 C29 1_555 1_555
H23 C29 1_555 1_555
H24 C29 1_555 1_555
C30 C2 1_555 1_555
H25 C30 1_555 1_555
H26 C30 1_555 1_555
H27 C30 1_555 1_555
O3 C7 1_555 1_555
C5 C6 1_555 1_555
C8 C9 1_555 1_555
C14 C15 1_555 1_555
C21 C22 1_555 1_555
C27 C28 1_555 1_555

#END
