
#######################################################################
#
#                 Cambridge Crystallographic Data Centre
#                                CCDC 
#
#######################################################################
#
# If this CIF has been generated from an entry in the Cambridge 
# Structural Database, then it will include bibliographic, chemical, 
# crystal, experimental, refinement or atomic coordinate data resulting 
# from the CCDC's data processing and validation procedures.
#
#######################################################################

data_LIDFOV
_chemical_formula_moiety         'C9 H7 Cl1 N2 S1'
_chemical_name_systematic        
1-(4-Chlorophenyl)-1,3-dihydro-2H-imidazole-2-thione
_symmetry_cell_setting           monoclinic
_symmetry_space_group_name_H-M   'C 2/c'
_symmetry_Int_Tables_number      15
_space_group_name_Hall           '-C 2yn'
loop_
_symmetry_equiv_pos_site_id
_symmetry_equiv_pos_as_xyz
1 x,y,z
2 -x,y,1/2-z
3 1/2+x,1/2+y,z
4 1/2-x,1/2+y,1/2-z
5 -x,-y,-z
6 x,-y,1/2+z
7 1/2-x,1/2-y,-z
8 1/2+x,1/2-y,1/2+z
_cell_length_a                   15.323(7)
_cell_length_b                   9.612(4)
_cell_length_c                   13.267(6)
_cell_angle_alpha                90
_cell_angle_beta                 98.081(5)
_cell_angle_gamma                90
_cell_volume                     1934.62
_exptl_crystal_colour            colorless
_exptl_crystal_description       block
_cell_formula_units_Z            8
loop_
_atom_site_label
_atom_site_type_symbol
_atom_site_fract_x
_atom_site_fract_y
_atom_site_fract_z
S1 S 0.41679(3) 0.10818(5) 0.36077(4)
Cl1 Cl 0.01610(4) 0.18819(7) 0.06980(4)
N1 N 0.38223(12) -0.01040(18) 0.53784(12)
H1 H 0.4350(16) -0.019(2) 0.5615(17)
N2 N 0.26579(10) 0.02259(16) 0.43020(11)
C1 C 0.35501(12) 0.04110(18) 0.44413(13)
C2 C 0.31287(14) -0.0610(2) 0.58145(15)
H2 H 0.3159 -0.1017 0.6455
C3 C 0.24032(15) -0.0412(2) 0.51520(15)
H3 H 0.1832 -0.0656 0.5242
C4 C 0.20610(12) 0.06282(19) 0.34213(13)
C5 C 0.19580(14) 0.2012(2) 0.31666(15)
H4 H 0.2287 0.2686 0.3554
C6 C 0.15751(13) -0.0376(2) 0.28500(15)
H5 H 0.1647 -0.1309 0.3028
C7 C 0.09821(13) 0.0004(2) 0.20129(15)
H6 H 0.0653 -0.0667 0.1623
C8 C 0.08858(12) 0.1389(2) 0.17657(14)
C9 C 0.13655(14) 0.2393(2) 0.23351(16)
H7 H 0.1290 0.3327 0.2160
loop_
_geom_bond_atom_site_label_1
_geom_bond_atom_site_label_2
_geom_bond_site_symmetry_1
_geom_bond_site_symmetry_2
S1 C1 1_555 1_555
Cl1 C8 1_555 1_555
N1 H1 1_555 1_555
N2 C1 1_555 1_555
C1 N1 1_555 1_555
C2 N1 1_555 1_555
H2 C2 1_555 1_555
C3 N2 1_555 1_555
H3 C3 1_555 1_555
C4 N2 1_555 1_555
C5 C4 1_555 1_555
H4 C5 1_555 1_555
C6 C4 1_555 1_555
H5 C6 1_555 1_555
C7 C6 1_555 1_555
H6 C7 1_555 1_555
C8 C7 1_555 1_555
C9 C5 1_555 1_555
H7 C9 1_555 1_555
C2 C3 1_555 1_555
C8 C9 1_555 1_555

#END
