
#######################################################################
#
#                 Cambridge Crystallographic Data Centre
#                                CCDC 
#
#######################################################################
#
# If this CIF has been generated from an entry in the Cambridge 
# Structural Database, then it will include bibliographic, chemical, 
# crystal, experimental, refinement or atomic coordinate data resulting 
# from the CCDC's data processing and validation procedures.
#
#######################################################################

data_LIDGAI
_chemical_formula_moiety         'C25 H23 Br1 I1 N3 O4 S1'
_chemical_name_systematic        
N-(4-Bromophenyl)-1-(5-iodo-2-(((4-methylphenyl)sulfonyl)amino)benzoyl)prolinamide
_symmetry_cell_setting           orthorhombic
_symmetry_space_group_name_H-M   'P 21 21 21'
_symmetry_Int_Tables_number      19
_space_group_name_Hall           'P 2ac 2ab'
loop_
_symmetry_equiv_pos_site_id
_symmetry_equiv_pos_as_xyz
1 x,y,z
2 1/2-x,-y,1/2+z
3 -x,1/2+y,1/2-z
4 1/2+x,1/2-y,-z
_cell_length_a                   7.7468(15)
_cell_length_b                   14.705(3)
_cell_length_c                   23.523(5)
_cell_angle_alpha                90
_cell_angle_beta                 90
_cell_angle_gamma                90
_cell_volume                     2679.66
_exptl_crystal_colour            colorless
_exptl_crystal_description       PLATE
_cell_formula_units_Z            4
loop_
_atom_site_label
_atom_site_type_symbol
_atom_site_fract_x
_atom_site_fract_y
_atom_site_fract_z
I1 I 1.07242(9) 0.24519(4) -0.09831(3)
Br1 Br 1.19101(17) 1.12080(7) 0.16609(5)
S1 S 1.0607(3) 0.48465(16) 0.18009(10)
O1 O 0.9499(7) 0.6235(3) -0.0159(3)
O2 O 0.8824(9) 0.6856(4) 0.1052(3)
O3 O 1.2191(9) 0.4325(5) 0.1820(3)
O4 O 1.0557(11) 0.5710(5) 0.2061(3)
N1 N 0.7146(7) 0.5768(4) 0.0309(3)
N2 N 1.0111(9) 0.5030(5) 0.1145(3)
H1 H 0.9789 0.5577 0.1071
N3 N 0.7519(9) 0.8142(4) 0.0724(3)
H2 H 0.6654 0.8329 0.0527
C1 C 0.6460(10) 0.6688(6) 0.0395(4)
H3 H 0.6294 0.6990 0.0027
C2 C 0.4729(13) 0.6548(7) 0.0688(5)
H4 H 0.4789 0.6727 0.1084
H5 H 0.3829 0.6897 0.0502
C3 C 0.4397(17) 0.5553(8) 0.0634(6)
H6 H 0.3839 0.5329 0.0976
H7 H 0.3637 0.5439 0.0314
C4 C 0.6017(11) 0.5084(6) 0.0550(5)
H8 H 0.5878 0.4576 0.0291
H9 H 0.6470 0.4860 0.0908
C5 C 0.8689(10) 0.5630(5) 0.0089(3)
C6 C 0.9456(10) 0.4686(4) 0.0157(3)
C7 C 0.9608(11) 0.4121(5) -0.0318(4)
H10 H 0.9195 0.4321 -0.0667
C8 C 1.0350(11) 0.3283(5) -0.0278(4)
C9 C 1.0990(12) 0.3003(6) 0.0250(4)
H11 H 1.1505 0.2434 0.0284
C10 C 1.0869(12) 0.3559(6) 0.0722(4)
H12 H 1.1279 0.3360 0.1073
C11 C 1.0120(9) 0.4430(5) 0.0671(3)
C12 C 0.7778(12) 0.7227(6) 0.0761(4)
C13 C 0.8580(13) 0.8806(6) 0.0988(4)
C14 C 1.0204(12) 0.8663(6) 0.1159(4)
H13 H 1.0678 0.8083 0.1137
C15 C 1.1190(13) 0.9380(6) 0.1371(4)
H14 H 1.2321 0.9274 0.1486
C16 C 1.0542(15) 1.0205(6) 0.1411(4)
C17 C 0.8890(15) 1.0353(7) 0.1249(5)
H15 H 0.8420 1.0933 0.1276
C18 C 0.7921(15) 0.9662(6) 0.1047(6)
H16 H 0.6780 0.9771 0.0945
C19 C 0.8942(11) 0.4173(6) 0.2080(3)
C20 C 0.9191(17) 0.3294(7) 0.2230(4)
H17 H 1.0271 0.3026 0.2189
C21 C 0.780(2) 0.2794(7) 0.2449(5)
H18 H 0.7974 0.2195 0.2563
C22 C 0.620(2) 0.3171(12) 0.2497(5)
C23 C 0.6011(14) 0.4065(10) 0.2339(5)
H19 H 0.4939 0.4341 0.2383
C24 C 0.7323(13) 0.4556(7) 0.2122(4)
H20 H 0.7137 0.5150 0.2002
C25 C 0.476(2) 0.2561(13) 0.2738(6)
H21 H 0.4622 0.2678 0.3137
H22 H 0.5055 0.1934 0.2682
H23 H 0.3691 0.2691 0.2546
loop_
_geom_bond_atom_site_label_1
_geom_bond_atom_site_label_2
_geom_bond_site_symmetry_1
_geom_bond_site_symmetry_2
I1 C8 1_555 1_555
Br1 C16 1_555 1_555
S1 O3 1_555 1_555
O1 C5 1_555 1_555
O2 C12 1_555 1_555
O4 S1 1_555 1_555
N1 C1 1_555 1_555
N2 S1 1_555 1_555
H1 N2 1_555 1_555
N3 H2 1_555 1_555
C1 H3 1_555 1_555
C2 C1 1_555 1_555
H4 C2 1_555 1_555
H5 C2 1_555 1_555
C3 C2 1_555 1_555
H6 C3 1_555 1_555
H7 C3 1_555 1_555
C4 N1 1_555 1_555
H8 C4 1_555 1_555
H9 C4 1_555 1_555
C5 N1 1_555 1_555
C6 C5 1_555 1_555
C7 C6 1_555 1_555
H10 C7 1_555 1_555
C8 C7 1_555 1_555
C9 C8 1_555 1_555
H11 C9 1_555 1_555
C10 C9 1_555 1_555
H12 C10 1_555 1_555
C11 N2 1_555 1_555
C12 N3 1_555 1_555
C13 N3 1_555 1_555
C14 C13 1_555 1_555
H13 C14 1_555 1_555
C15 C14 1_555 1_555
H14 C15 1_555 1_555
C16 C15 1_555 1_555
C17 C16 1_555 1_555
H15 C17 1_555 1_555
C18 C13 1_555 1_555
H16 C18 1_555 1_555
C19 S1 1_555 1_555
C20 C19 1_555 1_555
H17 C20 1_555 1_555
C21 C20 1_555 1_555
H18 C21 1_555 1_555
C22 C21 1_555 1_555
C23 C22 1_555 1_555
H19 C23 1_555 1_555
C24 C19 1_555 1_555
H20 C24 1_555 1_555
C25 C22 1_555 1_555
H21 C25 1_555 1_555
H22 C25 1_555 1_555
H23 C25 1_555 1_555
C1 C12 1_555 1_555
C3 C4 1_555 1_555
C6 C11 1_555 1_555
C10 C11 1_555 1_555
C17 C18 1_555 1_555
C23 C24 1_555 1_555

#END
