
#######################################################################
#
#                 Cambridge Crystallographic Data Centre
#                                CCDC 
#
#######################################################################
#
# If this CIF has been generated from an entry in the Cambridge 
# Structural Database, then it will include bibliographic, chemical, 
# crystal, experimental, refinement or atomic coordinate data resulting 
# from the CCDC's data processing and validation procedures.
#
#######################################################################

data_LIDGUA
_chemical_formula_moiety         'C19 H24 O3'
_chemical_name_systematic        2-Formylestradiol
_symmetry_cell_setting           monoclinic
_symmetry_space_group_name_H-M   'P 21'
_symmetry_Int_Tables_number      4
_space_group_name_Hall           'P 2yb'
loop_
_symmetry_equiv_pos_site_id
_symmetry_equiv_pos_as_xyz
1 x,y,z
2 -x,1/2+y,-z
_cell_length_a                   9.2576(21)
_cell_length_b                   13.0165(25)
_cell_length_c                   13.2963(37)
_cell_angle_alpha                90
_cell_angle_beta                 99
_cell_angle_gamma                90
_cell_volume                     1582.5
_cell_formula_units_Z            4
loop_
_atom_site_label
_atom_site_type_symbol
_atom_site_fract_x
_atom_site_fract_y
_atom_site_fract_z
O1 O 1.1918(4) 0.1646 0.5548(3)
O2 O 0.3532(4) 0.4649(3) 0.9762(3)
O3 O 0.6626(4) 0.6503(3) 0.9022(3)
C1 C 1.0367(5) 0.1528(4) 0.5589(4)
C2 C 1.0024(5) 0.0396(4) 0.5754(4)
C3 C 0.8785(5) 0.0412(4) 0.6399(4)
C4 C 0.8375(4) 0.1537(4) 0.6435(3)
C5 C 0.7488(4) 0.1911(3) 0.7232(3)
C6 C 0.6042(5) 0.1362(4) 0.7172(4)
C7 C 0.5245(5) 0.1679(4) 0.8024(4)
C8 C 0.5302(5) 0.2819(4) 0.8234(4)
C9 C 0.4381(5) 0.3227(4) 0.8867(4)
C10 C 0.4423(5) 0.4239(4) 0.9150(4)
C11 C 0.5450(4) 0.4885(3) 0.8820(3)
C12 C 0.6351(4) 0.4479(4) 0.8173(3)
C13 C 0.6290(4) 0.3477(3) 0.7854(3)
C14 C 0.7221(5) 0.3062(4) 0.7099(3)
C15 C 0.8635(6) 0.3669(4) 0.7071(4)
C16 C 0.9499(6) 0.3249(6) 0.6273(4)
C17 C 0.9833(5) 0.2109(4) 0.6461(3)
C18 C 1.0889(5) 0.1943(5) 0.7454(4)
C19 C 0.5656(5) 0.5938(4) 0.9184(4)
O4 O -0.1691(4) 0.8217(3) 0.9714(3)
O5 O 0.6432(4) 0.5263(3) 0.5197(3)
O6 O 0.2948(4) 0.3585(3) 0.5586(4)
C20 C -0.0759(5) 0.8531(4) 0.9004(3)
C21 C 0.0146(6) 0.9454(4) 0.9464(4)
C22 C 0.1641(6) 0.9349(4) 0.9084(4)
C23 C 0.1385(4) 0.8477(3) 0.8308(3)
C24 C 0.2674(5) 0.7959(3) 0.7956(3)
C25 C 0.3632(5) 0.8694(5) 0.7467(4)
C26 C 0.4945(5) 0.8165(4) 0.7135(4)
C27 C 0.4603(5) 0.7135(4) 0.6623(4)
C28 C 0.5628(5) 0.6690(4) 0.6121(4)
C29 C 0.5456(5) 0.5719(4) 0.5713(3)
C30 C 0.4220(5) 0.5147(4) 0.5867(3)
C31 C 0.3173(5) 0.5612(4) 0.6370(4)
C32 C 0.3303(4) 0.6609(4) 0.6724(3)
C33 C 0.2086(5) 0.7124(4) 0.7171(4)
C34 C 0.1029(5) 0.6385(4) 0.7567(4)
C35 C -0.0237(5) 0.6955(4) 0.7958(4)
C36 C 0.0369(5) 0.7753(3) 0.8766(3)
C37 C 0.1120(6) 0.7236(4) 0.9747(4)
C38 C 0.3993(5) 0.4098(4) 0.5489(4)
loop_
_geom_bond_atom_site_label_1
_geom_bond_atom_site_label_2
_geom_bond_site_symmetry_1
_geom_bond_site_symmetry_2
O1 C1 1_555 1_555
O2 C10 1_555 1_555
O3 C19 1_555 1_555
O4 C20 1_555 1_555
O5 C29 1_555 1_555
O6 C38 1_555 1_555
C1 C2 1_555 1_555
C2 C3 1_555 1_555
C3 C4 1_555 1_555
C4 C5 1_555 1_555
C5 C6 1_555 1_555
C6 C7 1_555 1_555
C7 C8 1_555 1_555
C8 C9 1_555 1_555
C9 C10 1_555 1_555
C10 C11 1_555 1_555
C11 C12 1_555 1_555
C12 C13 1_555 1_555
C13 C8 1_555 1_555
C14 C5 1_555 1_555
C15 C14 1_555 1_555
C16 C15 1_555 1_555
C17 C1 1_555 1_555
C18 C17 1_555 1_555
C19 C11 1_555 1_555
C20 C21 1_555 1_555
C21 C22 1_555 1_555
C22 C23 1_555 1_555
C23 C24 1_555 1_555
C24 C25 1_555 1_555
C25 C26 1_555 1_555
C26 C27 1_555 1_555
C27 C28 1_555 1_555
C28 C29 1_555 1_555
C29 C30 1_555 1_555
C30 C31 1_555 1_555
C31 C32 1_555 1_555
C32 C27 1_555 1_555
C33 C24 1_555 1_555
C34 C33 1_555 1_555
C35 C34 1_555 1_555
C36 C20 1_555 1_555
C37 C36 1_555 1_555
C38 C30 1_555 1_555
C4 C17 1_555 1_555
C13 C14 1_555 1_555
C16 C17 1_555 1_555
C23 C36 1_555 1_555
C32 C33 1_555 1_555
C35 C36 1_555 1_555

#END
