
#######################################################################
#
#                 Cambridge Crystallographic Data Centre
#                                CCDC 
#
#######################################################################
#
# If this CIF has been generated from an entry in the Cambridge 
# Structural Database, then it will include bibliographic, chemical, 
# crystal, experimental, refinement or atomic coordinate data resulting 
# from the CCDC's data processing and validation procedures.
#
#######################################################################

data_LIDHIQ
_chemical_formula_moiety         'C24 H16 O4 S1'
_chemical_name_systematic        
2,5-bis(para-carbomethoxyphenylethynyl)thiophene
_symmetry_cell_setting           orthorhombic
_symmetry_space_group_name_H-M   'P c a 21'
_symmetry_Int_Tables_number      29
_space_group_name_Hall           'P 2c -2ac'
loop_
_symmetry_equiv_pos_site_id
_symmetry_equiv_pos_as_xyz
1 x,y,z
2 -x,-y,1/2+z
3 1/2+x,-y,z
4 1/2-x,y,1/2+z
_cell_length_a                   7.1798(8)
_cell_length_b                   45.453(4)
_cell_length_c                   5.8879(4)
_cell_angle_alpha                90
_cell_angle_beta                 90
_cell_angle_gamma                90
_cell_volume                     1921.48
_exptl_crystal_colour            'pale yellow'
_exptl_crystal_description       plate
_chemical_melting_point          '201.5-202.5 deg.C'
_cell_formula_units_Z            4
_exptl_crystal_recrystallization_method toluene/hexane
_exptl_crystal_preparation       fluorescent
loop_
_atom_site_label
_atom_site_type_symbol
_atom_site_fract_x
_atom_site_fract_y
_atom_site_fract_z
S1 S 0.56841(7) 0.753880(10) 0.53558(11)
O1 O 0.5685(2) 0.55773(3) -0.2820(3)
O2 O 0.4358(2) 0.53784(3) 0.0262(4)
O3 O 0.4359(2) 0.94247(3) 1.4647(3)
O4 O 0.5553(3) 0.96093(3) 1.1418(3)
C1 C 0.5021(3) 0.71856(4) 0.6064(4)
C2 C 0.4287(3) 0.71721(5) 0.8232(4)
H1 H 0.384(3) 0.6996(6) 0.895(5)
C3 C 0.4237(3) 0.74481(5) 0.9296(4)
H2 H 0.380(4) 0.7497(6) 1.078(6)
C4 C 0.4931(3) 0.76708(5) 0.7956(4)
C5 C 0.5126(3) 0.69443(5) 0.4540(4)
C6 C 0.5057(3) 0.67254(5) 0.3380(4)
C7 C 0.5074(3) 0.79720(5) 0.8544(4)
C8 C 0.5115(3) 0.82235(5) 0.9188(4)
C9 C 0.4988(3) 0.55881(4) -0.0717(4)
C10 C 0.5002(3) 0.64485(4) 0.2238(4)
C11 C 0.5766(3) 0.64074(4) 0.0069(4)
H3 H 0.623(4) 0.6573(6) -0.070(4)
C12 C 0.5789(3) 0.61295(5) -0.0906(4)
H4 H 0.625(3) 0.6105(5) -0.242(4)
C13 C 0.5039(3) 0.58909(4) 0.0268(4)
C14 C 0.4258(3) 0.59313(5) 0.2412(4)
H5 H 0.382(4) 0.5772(6) 0.317(5)
C15 C 0.4235(3) 0.62070(5) 0.3384(4)
H6 H 0.368(3) 0.6233(5) 0.484(4)
C16 C 0.5580(4) 0.52899(5) -0.3900(5)
H7 H 0.595(4) 0.5307(7) -0.551(6)
H8 H 0.633(4) 0.5146(7) -0.309(6)
H9 H 0.431(4) 0.5232(6) -0.419(5)
C17 C 0.4982(3) 0.94038(5) 1.2519(4)
C18 C 0.5088(3) 0.85178(4) 1.0022(4)
C19 C 0.5779(3) 0.87535(5) 0.8702(4)
H10 H 0.631(3) 0.8709(5) 0.730(5)
C20 C 0.5707(3) 0.90374(5) 0.9538(4)
H11 H 0.621(4) 0.9215(6) 0.859(5)
C21 C 0.4954(3) 0.90942(4) 1.1669(4)
C22 C 0.4243(3) 0.88640(4) 1.2974(4)
H12 H 0.368(4) 0.8907(6) 1.436(5)
C23 C 0.4308(3) 0.85763(4) 1.2151(4)
H13 H 0.389(4) 0.8429(6) 1.307(5)
C24 C 0.4478(4) 0.97189(5) 1.5628(5)
H14 H 0.362(4) 0.9849(6) 1.478(5)
H15 H 0.577(4) 0.9781(6) 1.562(6)
H16 H 0.415(4) 0.9702(7) 1.721(6)
loop_
_geom_bond_atom_site_label_1
_geom_bond_atom_site_label_2
_geom_bond_site_symmetry_1
_geom_bond_site_symmetry_2
S1 C1 1_555 1_555
O1 C9 1_555 1_555
O2 C9 1_555 1_555
O3 C17 1_555 1_555
O4 C17 1_555 1_555
C1 C2 1_555 1_555
C2 H1 1_555 1_555
C3 C2 1_555 1_555
H2 C3 1_555 1_555
C4 S1 1_555 1_555
C5 C1 1_555 1_555
C6 C5 1_555 1_555
C7 C4 1_555 1_555
C8 C7 1_555 1_555
C9 C13 1_555 1_555
C10 C6 1_555 1_555
C11 C10 1_555 1_555
H3 C11 1_555 1_555
C12 C11 1_555 1_555
H4 C12 1_555 1_555
C13 C12 1_555 1_555
C14 C13 1_555 1_555
H5 C14 1_555 1_555
C15 C10 1_555 1_555
H6 C15 1_555 1_555
C16 O1 1_555 1_555
H7 C16 1_555 1_555
H8 C16 1_555 1_555
H9 C16 1_555 1_555
C17 C21 1_555 1_555
C18 C8 1_555 1_555
C19 C18 1_555 1_555
H10 C19 1_555 1_555
C20 C19 1_555 1_555
H11 C20 1_555 1_555
C21 C20 1_555 1_555
C22 C21 1_555 1_555
H12 C22 1_555 1_555
C23 C18 1_555 1_555
H13 C23 1_555 1_555
C24 O3 1_555 1_555
H14 C24 1_555 1_555
H15 C24 1_555 1_555
H16 C24 1_555 1_555
C3 C4 1_555 1_555
C14 C15 1_555 1_555
C22 C23 1_555 1_555

#END
