
#######################################################################
#
#                 Cambridge Crystallographic Data Centre
#                                CCDC 
#
#######################################################################
#
# If this CIF has been generated from an entry in the Cambridge 
# Structural Database, then it will include bibliographic, chemical, 
# crystal, experimental, refinement or atomic coordinate data resulting 
# from the CCDC's data processing and validation procedures.
#
#######################################################################

data_LIDHOW
_chemical_formula_moiety         'C20 H2 F10 S1'
_chemical_name_systematic        2,5-bis(pentafluorophenylethynyl)thiophene
_symmetry_cell_setting           monoclinic
_symmetry_space_group_name_H-M   'P 21/n'
_symmetry_Int_Tables_number      14
_space_group_name_Hall           '-P 2yn'
loop_
_symmetry_equiv_pos_site_id
_symmetry_equiv_pos_as_xyz
1 x,y,z
2 1/2-x,1/2+y,1/2-z
3 -x,-y,-z
4 1/2+x,1/2-y,1/2+z
_cell_length_a                   4.9212(7)
_cell_length_b                   31.274(4)
_cell_length_c                   11.3413(15)
_cell_angle_alpha                90
_cell_angle_beta                 101.83(1)
_cell_angle_gamma                90
_cell_volume                     1708.42
_exptl_crystal_colour            yellow
_exptl_crystal_description       prism
_chemical_melting_point          '153.7-156.1 deg.C'
_cell_formula_units_Z            4
_exptl_crystal_recrystallization_method hexane/toluene
_exptl_crystal_preparation       fluorescent
loop_
_atom_site_label
_atom_site_type_symbol
_atom_site_fract_x
_atom_site_fract_y
_atom_site_fract_z
S1 S 0.14702(12) 0.664049(17) 0.35560(5)
C1 C 0.0143(4) 0.67351(7) 0.4825(2)
C2 C 0.1134(5) 0.64478(8) 0.5722(2)
H1 H 0.065(6) 0.6458(9) 0.648(3)
C3 C 0.2975(5) 0.61515(8) 0.5389(2)
H2 H 0.390(5) 0.5947(9) 0.587(2)
C4 C 0.3377(5) 0.62125(7) 0.4234(2)
C5 C -0.1743(4) 0.70749(7) 0.48535(19)
C6 C -0.3352(4) 0.73587(7) 0.48778(19)
C7 C 0.5097(5) 0.59644(7) 0.3636(2)
C8 C 0.6558(5) 0.57482(7) 0.3165(2)
C9 C -0.5311(4) 0.76922(7) 0.48911(19)
C10 C -0.6096(5) 0.79688(8) 0.3919(2)
C11 C -0.8022(5) 0.82863(8) 0.3918(2)
C12 C -0.9245(5) 0.83344(8) 0.4894(2)
C13 C -0.8512(5) 0.80710(8) 0.5875(2)
C14 C -0.6568(5) 0.77551(7) 0.5870(2)
C15 C 0.8312(4) 0.54657(7) 0.2671(2)
C16 C 0.9571(5) 0.55818(7) 0.1730(2)
C17 C 1.1318(5) 0.53097(8) 0.1281(2)
C18 C 1.1825(5) 0.49065(8) 0.1769(2)
C19 C 1.0597(5) 0.47790(7) 0.2696(2)
C20 C 0.8855(5) 0.50545(7) 0.3135(2)
F1 F -0.4908(3) 0.79270(5) 0.29635(13)
F2 F -0.8683(4) 0.85502(6) 0.29682(16)
F3 F -1.1149(3) 0.86397(5) 0.48883(17)
F4 F -0.9729(3) 0.81161(5) 0.68190(14)
F5 F -0.5897(3) 0.75008(5) 0.68308(12)
F6 F 0.9143(3) 0.59704(4) 0.12437(13)
F7 F 1.2543(3) 0.54328(5) 0.03919(13)
F8 F 1.3507(3) 0.46382(5) 0.13359(16)
F9 F 1.1072(4) 0.43864(5) 0.31613(17)
F10 F 0.7632(3) 0.49209(5) 0.40198(14)
loop_
_geom_bond_atom_site_label_1
_geom_bond_atom_site_label_2
_geom_bond_site_symmetry_1
_geom_bond_site_symmetry_2
S1 C1 1_555 1_555
C1 C2 1_555 1_555
C2 H1 1_555 1_555
C3 C2 1_555 1_555
H2 C3 1_555 1_555
C4 S1 1_555 1_555
C5 C1 1_555 1_555
C6 C5 1_555 1_555
C7 C4 1_555 1_555
C8 C7 1_555 1_555
C9 C6 1_555 1_555
C10 C9 1_555 1_555
C11 C10 1_555 1_555
C12 C11 1_555 1_555
C13 C12 1_555 1_555
C14 C9 1_555 1_555
C15 C8 1_555 1_555
C16 C15 1_555 1_555
C17 C16 1_555 1_555
C18 C17 1_555 1_555
C19 C18 1_555 1_555
C20 C15 1_555 1_555
F1 C10 1_555 1_555
F2 C11 1_555 1_555
F3 C12 1_555 1_555
F4 C13 1_555 1_555
F5 C14 1_555 1_555
F6 C16 1_555 1_555
F7 C17 1_555 1_555
F8 C18 1_555 1_555
F9 C19 1_555 1_555
F10 C20 1_555 1_555
C3 C4 1_555 1_555
C13 C14 1_555 1_555
C19 C20 1_555 1_555

#END
