
#######################################################################
#
#                 Cambridge Crystallographic Data Centre
#                                CCDC 
#
#######################################################################
#
# If this CIF has been generated from an entry in the Cambridge 
# Structural Database, then it will include bibliographic, chemical, 
# crystal, experimental, refinement or atomic coordinate data resulting 
# from the CCDC's data processing and validation procedures.
#
#######################################################################

data_LIDHAI
_chemical_formula_moiety         'C20 H12 S1'
_chemical_name_systematic        2,5-bis(phenylethynyl)thiophene
_symmetry_cell_setting           monoclinic
_symmetry_space_group_name_H-M   'P 21/n'
_symmetry_Int_Tables_number      14
_space_group_name_Hall           '-P 2yn'
loop_
_symmetry_equiv_pos_site_id
_symmetry_equiv_pos_as_xyz
1 x,y,z
2 1/2-x,1/2+y,1/2-z
3 -x,-y,-z
4 1/2+x,1/2-y,1/2+z
_cell_length_a                   14.752(1)
_cell_length_b                   5.7461(2)
_cell_length_c                   17.339(1)
_cell_angle_alpha                90
_cell_angle_beta                 90.87(1)
_cell_angle_gamma                90
_cell_volume                     1469.6
_exptl_crystal_colour            colorless
_exptl_crystal_description       plate
_chemical_melting_point          '83.9-84.5 deg.C'
_cell_formula_units_Z            4
_exptl_crystal_recrystallization_method toluene/hexane
_exptl_crystal_preparation       fluorescent
loop_
_atom_site_label
_atom_site_type_symbol
_atom_site_fract_x
_atom_site_fract_y
_atom_site_fract_z
S1 S 0.17771(4) 0.10828(12) 0.92394(4)
C1 C 0.08714(17) 0.1715(5) 0.86254(14)
C2 C 0.01815(18) 0.0128(5) 0.87153(15)
H1 H -0.0394(18) 0.020(5) 0.8419(15)
C3 C 0.03784(18) -0.1601(5) 0.92702(15)
H2 H -0.0028(19) -0.281(6) 0.9420(16)
C4 C 0.12256(16) -0.1325(4) 0.96084(14)
C5 C 0.09288(16) 0.3535(5) 0.80720(14)
C6 C 0.09956(16) 0.4972(5) 0.75681(14)
C7 C 0.16655(16) -0.2747(5) 1.01703(14)
C8 C 0.20814(16) -0.3925(5) 1.06243(14)
C9 C 0.10829(16) 0.6618(4) 0.69469(14)
C10 C 0.16007(16) 0.8649(5) 0.70421(15)
H3 H 0.1911(18) 0.906(5) 0.7512(15)
C11 C 0.16802(18) 1.0231(5) 0.64401(15)
H4 H 0.2004(19) 1.180(5) 0.6502(15)
C12 C 0.12467(17) 0.9799(5) 0.57340(15)
H5 H 0.1319(18) 1.097(5) 0.5319(16)
C13 C 0.07443(17) 0.7778(5) 0.56310(15)
H6 H 0.0426(17) 0.741(5) 0.5163(15)
C14 C 0.06597(17) 0.6183(5) 0.62282(14)
H7 H 0.0285(18) 0.480(5) 0.6189(14)
C15 C 0.26149(16) -0.5409(4) 1.11266(13)
C16 C 0.34980(17) -0.4768(5) 1.13566(14)
H8 H 0.3743(18) -0.338(5) 1.1180(16)
C17 C 0.40173(17) -0.6240(5) 1.18164(14)
H9 H 0.4638(17) -0.586(5) 1.1970(13)
C18 C 0.36626(18) -0.8353(5) 1.20675(15)
H10 H 0.4003(19) -0.931(5) 1.2400(16)
C19 C 0.27877(18) -0.9001(5) 1.18429(15)
H11 H 0.2558(18) -1.047(5) 1.2032(15)
C20 C 0.22689(17) -0.7556(5) 1.13754(14)
H12 H 0.1640(18) -0.796(5) 1.1225(15)
loop_
_geom_bond_atom_site_label_1
_geom_bond_atom_site_label_2
_geom_bond_site_symmetry_1
_geom_bond_site_symmetry_2
S1 C1 1_555 1_555
C1 C2 1_555 1_555
C2 H1 1_555 1_555
C3 C2 1_555 1_555
H2 C3 1_555 1_555
C4 S1 1_555 1_555
C5 C1 1_555 1_555
C6 C5 1_555 1_555
C7 C4 1_555 1_555
C8 C7 1_555 1_555
C9 C6 1_555 1_555
C10 C9 1_555 1_555
H3 C10 1_555 1_555
C11 C10 1_555 1_555
H4 C11 1_555 1_555
C12 C11 1_555 1_555
H5 C12 1_555 1_555
C13 C12 1_555 1_555
H6 C13 1_555 1_555
C14 C9 1_555 1_555
H7 C14 1_555 1_555
C15 C8 1_555 1_555
C16 C15 1_555 1_555
H8 C16 1_555 1_555
C17 C16 1_555 1_555
H9 C17 1_555 1_555
C18 C17 1_555 1_555
H10 C18 1_555 1_555
C19 C18 1_555 1_555
H11 C19 1_555 1_555
C20 C15 1_555 1_555
H12 C20 1_555 1_555
C3 C4 1_555 1_555
C13 C14 1_555 1_555
C19 C20 1_555 1_555

#END
