
#######################################################################
#
#                 Cambridge Crystallographic Data Centre
#                                CCDC 
#
#######################################################################
#
# If this CIF has been generated from an entry in the Cambridge 
# Structural Database, then it will include bibliographic, chemical, 
# crystal, experimental, refinement or atomic coordinate data resulting 
# from the CCDC's data processing and validation procedures.
#
#######################################################################

data_LIDHAH
_chemical_formula_moiety         'C19 H22 O3'
_chemical_name_systematic        2-Formylestrone
_symmetry_cell_setting           orthorhombic
_symmetry_space_group_name_H-M   'C 2 2 21'
_symmetry_Int_Tables_number      20
_space_group_name_Hall           'C 2n 2'
loop_
_symmetry_equiv_pos_site_id
_symmetry_equiv_pos_as_xyz
1 x,y,z
2 1/2+x,1/2+y,z
3 x,-y,-z
4 1/2+x,1/2-y,-z
5 -x,y,1/2-z
6 1/2-x,1/2+y,1/2-z
7 -x,-y,1/2+z
8 1/2-x,1/2-y,1/2+z
_cell_length_a                   10.4819(25)
_cell_length_b                   11.5743(23)
_cell_length_c                   26.3495(43)
_cell_angle_alpha                90
_cell_angle_beta                 90
_cell_angle_gamma                90
_cell_volume                     3196.74
_cell_formula_units_Z            8
loop_
_atom_site_label
_atom_site_type_symbol
_atom_site_fract_x
_atom_site_fract_y
_atom_site_fract_z
O1 O -0.5234(4) -0.1929(4) 0.6722(2)
O2 O 0.3948(4) 0.1192(4) 0.5382(2)
O3 O 0.2633(4) 0.2706(3) 0.4894(2)
C1 C -0.4118(6) -0.2071(5) 0.6802(2)
C2 C -0.3550(5) -0.3123(5) 0.7058(2)
C3 C -0.2071(5) -0.2934(5) 0.7044(2)
C4 C -0.1918(5) -0.2070(4) 0.6603(2)
C5 C -0.0664(5) -0.1473(4) 0.6509(2)
C6 C 0.0456(4) -0.2306(4) 0.6451(2)
C7 C 0.1691(5) -0.1666(5) 0.6398(2)
C8 C 0.1637(5) -0.0637(4) 0.6035(2)
C9 C 0.2779(5) -0.0176(5) 0.5875(2)
C10 C 0.2827(5) 0.0751(5) 0.5551(2)
C11 C 0.1677(6) 0.1263(4) 0.5390(2)
C12 C 0.0488(5) 0.0786(5) 0.5559(2)
C13 C 0.0458(5) -0.0159(4) 0.5871(2)
C14 C -0.0793(5) -0.0734(4) 0.6024(2)
C15 C -0.1938(5) 0.0102(4) 0.6056(2)
C16 C -0.3190(5) -0.0510(4) 0.6190(2)
C17 C -0.3047(5) -0.1228(4) 0.6677(4)
C18 C 0.1670(6) 0.2228(5) 0.5059(2)
C19 C -0.2939(6) -0.0456(5) 0.7146(2)
loop_
_geom_bond_atom_site_label_1
_geom_bond_atom_site_label_2
_geom_bond_site_symmetry_1
_geom_bond_site_symmetry_2
O1 C1 1_555 1_555
O2 C10 1_555 1_555
O3 C18 1_555 1_555
C1 C2 1_555 1_555
C2 C3 1_555 1_555
C3 C4 1_555 1_555
C4 C5 1_555 1_555
C5 C6 1_555 1_555
C6 C7 1_555 1_555
C7 C8 1_555 1_555
C8 C9 1_555 1_555
C9 C10 1_555 1_555
C10 C11 1_555 1_555
C11 C12 1_555 1_555
C12 C13 1_555 1_555
C13 C8 1_555 1_555
C14 C5 1_555 1_555
C15 C14 1_555 1_555
C16 C15 1_555 1_555
C17 C1 1_555 1_555
C18 C11 1_555 1_555
C19 C17 1_555 1_555
C4 C17 1_555 1_555
C13 C14 1_555 1_555
C16 C17 1_555 1_555

#END
