
#######################################################################
#
#                 Cambridge Crystallographic Data Centre
#                                CCDC 
#
#######################################################################
#
# If this CIF has been generated from an entry in the Cambridge 
# Structural Database, then it will include bibliographic, chemical, 
# crystal, experimental, refinement or atomic coordinate data resulting 
# from the CCDC's data processing and validation procedures.
#
#######################################################################

data_LIDKEP
_chemical_formula_moiety         'C27 H31 N1 O6,C1 H2 Cl2,H2 O1'
_chemical_name_systematic        
'4-((E)-2-(2,3,5,6,8,9,11,12,14,15-decahydro-1,4,7,10,13,16-benzohexaoxacyclooctadecin-18-yl)-1-ethenyl)quinoline dichloromethane solvate monohydrate'
_symmetry_cell_setting           monoclinic
_symmetry_space_group_name_H-M   'P 21/c'
_symmetry_Int_Tables_number      14
_space_group_name_Hall           '-P 2ybc'
loop_
_symmetry_equiv_pos_site_id
_symmetry_equiv_pos_as_xyz
1 x,y,z
2 -x,1/2+y,1/2-z
3 -x,-y,-z
4 x,1/2-y,1/2+z
_cell_length_a                   14.135(4)
_cell_length_b                   7.983(2)
_cell_length_c                   25.020(7)
_cell_angle_alpha                90
_cell_angle_beta                 100.855(10)
_cell_angle_gamma                90
_cell_volume                     2772.73
_exptl_crystal_colour            yellowish
_exptl_crystal_description       plate
_cell_formula_units_Z            4
_exptl_crystal_recrystallization_method dichloromethane/hexane
loop_
_atom_site_label
_atom_site_type_symbol
_atom_site_fract_x
_atom_site_fract_y
_atom_site_fract_z
O1 O -0.2202(5) 1.0608(9) 0.1718(3)
O2 O -0.4120(5) 1.0097(9) 0.1972(3)
O3 O -0.4042(5) 0.9131(8) 0.3116(3)
O4 O -0.2136(5) 0.8464(9) 0.3751(3)
O5 O -0.0483(5) 0.7949(9) 0.3262(3)
O6 O -0.0623(5) 0.9282(8) 0.2221(2)
N1 N 0.3021(7) 0.5350(12) -0.0441(4)
C1 C 0.2119(10) 0.4991(15) -0.0468(5)
H1 H 0.1826 0.4256 -0.0750
C2 C 0.1530(8) 0.5611(13) -0.0107(4)
H2 H 0.0883 0.5239 -0.0144
C3 C 0.1883(8) 0.6717(13) 0.0284(4)
C4 C 0.2877(8) 0.7245(14) 0.0328(4)
C5 C 0.3338(7) 0.8421(13) 0.0722(4)
H3 H 0.2985 0.8940 0.0964
C6 C 0.4283(9) 0.8797(15) 0.0751(5)
H4 H 0.4594 0.9561 0.1019
C7 C 0.4813(8) 0.8040(16) 0.0377(5)
H5 H 0.5474 0.8316 0.0403
C8 C 0.4409(8) 0.6972(17) -0.0003(5)
H6 H 0.4770 0.6518 -0.0252
C9 C 0.3421(7) 0.6508(13) -0.0034(4)
C10 C 0.1294(8) 0.7450(13) 0.0645(4)
H7 H 0.1570 0.7586 0.1019
C11 C 0.0382(7) 0.7937(13) 0.0469(4)
H8 H 0.0136 0.7826 0.0091
C12 C -0.0284(8) 0.8629(13) 0.0805(4)
C13 C -0.1149(8) 0.9353(13) 0.0540(4)
H9 H -0.1298 0.9336 0.0153
C14 C -0.1798(8) 1.0097(13) 0.0823(4)
H10 H -0.2351 1.0668 0.0634
C15 C -0.1624(7) 0.9988(12) 0.1384(4)
C16 C -0.0731(7) 0.9274(12) 0.1661(3)
C17 C -0.0097(7) 0.8567(12) 0.1376(4)
H11 H 0.0470 0.8034 0.1565
C18 C -0.3112(7) 1.1351(14) 0.1436(4)
H12 H -0.3442 1.0582 0.1150
H13 H -0.2988 1.2424 0.1263
C19 C -0.3726(8) 1.1638(13) 0.1860(4)
H14 H -0.3328 1.2104 0.2195
H15 H -0.4246 1.2446 0.1722
C20 C -0.4858(8) 1.0288(15) 0.2279(5)
H16 H -0.5272 0.9277 0.2225
H17 H -0.5263 1.1255 0.2132
C21 C -0.4521(8) 1.0548(14) 0.2880(4)
H18 H -0.4083 1.1526 0.2941
H19 H -0.5082 1.0783 0.3053
C22 C -0.3778(8) 0.9303(14) 0.3684(4)
H20 H -0.4349 0.9148 0.3855
H21 H -0.3515 1.0438 0.3777
C23 C -0.3013(8) 0.7976(15) 0.3898(5)
H22 H -0.2930 0.7889 0.4299
H23 H -0.3216 0.6869 0.3739
C24 C -0.1367(7) 0.7390(13) 0.3960(4)
H24 H -0.1488 0.6260 0.3798
H25 H -0.1304 0.7289 0.4359
C25 C -0.0456(7) 0.8099(14) 0.3824(4)
H26 H -0.0393 0.9293 0.3932
H27 H 0.0107 0.7486 0.4027
C26 C 0.0284(7) 0.8838(13) 0.3106(4)
H28 H 0.0905 0.8437 0.3319
H29 H 0.0222 1.0046 0.3181
C27 C 0.0262(7) 0.8573(14) 0.2507(4)
H30 H 0.0819 0.9134 0.2396
H31 H 0.0290 0.7363 0.2426
Cl1 Cl -0.2624(2) 0.5144(3) 0.27921(12)
Cl2 Cl -0.2867(2) 0.6338(4) 0.16807(12)
C28 C -0.2618(9) 0.6933(13) 0.2366(5)
H32 H -0.3108 0.7747 0.2437
H33 H -0.1979 0.7484 0.2450
O7 O -0.1905(5) 1.1171(10) 0.3008(3)
H34 H -0.1807 1.0845 0.2679
loop_
_geom_bond_atom_site_label_1
_geom_bond_atom_site_label_2
_geom_bond_site_symmetry_1
_geom_bond_site_symmetry_2
O1 C15 1_555 1_555
O2 C19 1_555 1_555
O3 C21 1_555 1_555
O4 C23 1_555 1_555
O5 C25 1_555 1_555
O6 C16 1_555 1_555
N1 C1 1_555 1_555
C1 H1 1_555 1_555
C2 C1 1_555 1_555
H2 C2 1_555 1_555
C3 C2 1_555 1_555
C4 C3 1_555 1_555
C5 C4 1_555 1_555
H3 C5 1_555 1_555
C6 C5 1_555 1_555
H4 C6 1_555 1_555
C7 C6 1_555 1_555
H5 C7 1_555 1_555
C8 C7 1_555 1_555
H6 C8 1_555 1_555
C9 N1 1_555 1_555
C10 C3 1_555 1_555
H7 C10 1_555 1_555
C11 C10 1_555 1_555
H8 C11 1_555 1_555
C12 C11 1_555 1_555
C13 C12 1_555 1_555
H9 C13 1_555 1_555
C14 C13 1_555 1_555
H10 C14 1_555 1_555
C15 C14 1_555 1_555
C16 C15 1_555 1_555
C17 C12 1_555 1_555
H11 C17 1_555 1_555
C18 O1 1_555 1_555
H12 C18 1_555 1_555
H13 C18 1_555 1_555
C19 C18 1_555 1_555
H14 C19 1_555 1_555
H15 C19 1_555 1_555
C20 O2 1_555 1_555
H16 C20 1_555 1_555
H17 C20 1_555 1_555
C21 C20 1_555 1_555
H18 C21 1_555 1_555
H19 C21 1_555 1_555
C22 O3 1_555 1_555
H20 C22 1_555 1_555
H21 C22 1_555 1_555
C23 C22 1_555 1_555
H22 C23 1_555 1_555
H23 C23 1_555 1_555
C24 O4 1_555 1_555
H24 C24 1_555 1_555
H25 C24 1_555 1_555
C25 C24 1_555 1_555
H26 C25 1_555 1_555
H27 C25 1_555 1_555
C26 O5 1_555 1_555
H28 C26 1_555 1_555
H29 C26 1_555 1_555
C27 O6 1_555 1_555
H30 C27 1_555 1_555
H31 C27 1_555 1_555
Cl1 C28 1_555 1_555
Cl2 C28 1_555 1_555
O7 H34 1_555 1_555
C28 H32 1_555 1_555
H33 C28 1_555 1_555
C4 C9 1_555 1_555
C8 C9 1_555 1_555
C16 C17 1_555 1_555
C26 C27 1_555 1_555

#END
