
#######################################################################
#
#                 Cambridge Crystallographic Data Centre
#                                CCDC 
#
#######################################################################
#
# If this CIF has been generated from an entry in the Cambridge 
# Structural Database, then it will include bibliographic, chemical, 
# crystal, experimental, refinement or atomic coordinate data resulting 
# from the CCDC's data processing and validation procedures.
#
#######################################################################

data_LIDKAL
_chemical_formula_moiety         'C21 H22 N1 O2 1+,Cl1 O4 1-,0.5(C6 H6)'
_chemical_name_systematic        
'4-((E)-2-(3,4-dimethoxyphenyl)ethenyl)-1-ethylquinolinium perchlorate benzene solvate'
_symmetry_cell_setting           monoclinic
_symmetry_space_group_name_H-M   'P 21/n'
_symmetry_Int_Tables_number      14
_space_group_name_Hall           '-P 2yn'
loop_
_symmetry_equiv_pos_site_id
_symmetry_equiv_pos_as_xyz
1 x,y,z
2 1/2-x,1/2+y,1/2-z
3 -x,-y,-z
4 1/2+x,1/2-y,1/2+z
_cell_length_a                   7.0340(5)
_cell_length_b                   21.0718(14)
_cell_length_c                   14.6964(10)
_cell_angle_alpha                90
_cell_angle_beta                 94.3050(10)
_cell_angle_gamma                90
_cell_volume                     2172.14
_exptl_crystal_colour            orange
_exptl_crystal_description       block
_chemical_melting_point          '168-171 deg.C'
_cell_formula_units_Z            4
_exptl_crystal_recrystallization_method acetonitrile/benzene
loop_
_atom_site_label
_atom_site_type_symbol
_atom_site_fract_x
_atom_site_fract_y
_atom_site_fract_z
Cl1 Cl 0.54674(6) 0.607359(18) 0.23579(3)
O1 O 0.5474(2) 0.61719(7) 0.13900(9)
O2 O 0.7063(2) 0.56779(6) 0.26692(10)
O3 O 0.5613(2) 0.66755(6) 0.28209(9)
O4 O 0.3722(2) 0.57640(7) 0.25516(11)
O5 O 0.4803(2) 0.63060(6) 0.79239(9)
O6 O 0.5226(2) 0.74251(6) 0.72937(9)
N1 N 0.05399(19) 0.35984(7) 0.28565(9)
C1 C 0.4584(3) 0.56921(9) 0.83111(14)
C2 C 0.5345(3) 0.80697(9) 0.69814(15)
C3 C 0.4673(2) 0.69788(8) 0.66568(11)
C4 C 0.4358(2) 0.70880(8) 0.57310(12)
C5 C 0.3812(2) 0.65931(8) 0.51426(12)
C6 C 0.3531(2) 0.59820(8) 0.54711(11)
C7 C 0.3860(2) 0.58685(8) 0.64170(11)
C8 C 0.4427(2) 0.63606(8) 0.70010(11)
C9 C 0.2849(2) 0.54978(8) 0.48151(12)
C10 C 0.2318(2) 0.49000(8) 0.49864(12)
C11 C 0.1651(2) 0.44527(8) 0.42773(11)
C12 C 0.1300(2) 0.46458(8) 0.33752(12)
C13 C 0.0783(2) 0.42175(8) 0.26945(12)
C14 C 0.0753(2) 0.33726(8) 0.37456(10)
C15 C 0.0411(2) 0.27267(8) 0.39254(12)
C16 C 0.0603(2) 0.25055(8) 0.48055(12)
C17 C 0.1134(2) 0.29183(8) 0.55351(12)
C18 C 0.1483(2) 0.35443(8) 0.53680(11)
C19 C 0.1303(2) 0.37978(7) 0.44726(11)
C20 C 0.0044(3) 0.31392(9) 0.20979(12)
C21 C 0.0029(4) 0.34161(11) 0.11547(14)
H1 H 0.452(3) 0.7507(11) 0.5508(16)
H2 H 0.362(3) 0.6665(9) 0.4527(14)
H3 H 0.372(2) 0.5457(9) 0.6667(12)
H4 H 0.289(3) 0.5671(11) 0.4122(17)
H5 H 0.252(3) 0.4733(11) 0.5610(16)
H6 H 0.143(3) 0.5068(11) 0.3234(15)
H7 H 0.053(3) 0.4368(10) 0.2073(14)
H8 H 0.009(3) 0.2474(10) 0.3426(15)
H9 H 0.030(3) 0.2072(12) 0.4924(15)
H10 H 0.127(3) 0.2769(10) 0.6131(15)
H11 H 0.180(3) 0.3800(11) 0.5835(16)
H12 H -0.032(4) 0.3040(16) 0.070(2)
H13 H -0.107(4) 0.3774(13) 0.1065(18)
H14 H 0.143(4) 0.3542(13) 0.1003(18)
H15 H 0.409(3) 0.8216(10) 0.6732(14)
H16 H 0.112(4) 0.2807(13) 0.2043(17)
H17 H -0.122(3) 0.2991(10) 0.2225(14)
H18 H 0.327(3) 0.5513(11) 0.8183(16)
H19 H 0.553(3) 0.5414(11) 0.8093(16)
H20 H 0.630(3) 0.8110(11) 0.6535(16)
H21 H 0.492(3) 0.5739(11) 0.8925(16)
H22 H 0.571(3) 0.8317(12) 0.7505(17)
C22 C 1.1769(3) 0.48342(11) -0.02646(17)
C23 C 1.1606(3) 0.52280(10) 0.04727(16)
C24 C 1.0149(4) 0.46086(10) -0.07391(14)
H23 H 1.271(4) 0.5404(13) 0.0798(19)
H24 H 1.297(4) 0.4712(14) -0.0422(19)
H25 H 1.004(4) 0.4315(17) -0.122(2)
C22B C 0.8231(3) 0.51658(11) 0.02646(17)
C23B C 0.8394(3) 0.47720(10) -0.04727(16)
C24B C 0.9851(4) 0.53914(10) 0.07391(14)
H23B H 0.729(4) 0.4596(13) -0.0798(19)
H24B H 0.703(4) 0.5288(14) 0.0422(19)
H25B H 0.996(4) 0.5685(17) 0.122(2)
loop_
_geom_bond_atom_site_label_1
_geom_bond_atom_site_label_2
_geom_bond_site_symmetry_1
_geom_bond_site_symmetry_2
Cl1 O1 1_555 1_555
O2 Cl1 1_555 1_555
O3 Cl1 1_555 1_555
O4 Cl1 1_555 1_555
O5 C1 1_555 1_555
O6 C2 1_555 1_555
N1 C13 1_555 1_555
C1 H18 1_555 1_555
C2 H15 1_555 1_555
C3 O6 1_555 1_555
C4 C3 1_555 1_555
C5 C4 1_555 1_555
C6 C5 1_555 1_555
C7 C6 1_555 1_555
C8 O5 1_555 1_555
C9 C6 1_555 1_555
C10 C9 1_555 1_555
C11 C10 1_555 1_555
C12 C11 1_555 1_555
C13 C12 1_555 1_555
C14 N1 1_555 1_555
C15 C14 1_555 1_555
C16 C15 1_555 1_555
C17 C16 1_555 1_555
C18 C17 1_555 1_555
C19 C11 1_555 1_555
C20 N1 1_555 1_555
C21 C20 1_555 1_555
C22 C23 1_555 1_555
C23 H23 1_555 1_555
C24 C22 1_555 1_555
H1 C4 1_555 1_555
H2 C5 1_555 1_555
H3 C7 1_555 1_555
H4 C9 1_555 1_555
H5 C10 1_555 1_555
H6 C12 1_555 1_555
H7 C13 1_555 1_555
H8 C15 1_555 1_555
H9 C16 1_555 1_555
H10 C17 1_555 1_555
H11 C18 1_555 1_555
H12 C21 1_555 1_555
H13 C21 1_555 1_555
H14 C21 1_555 1_555
H16 C20 1_555 1_555
H17 C20 1_555 1_555
H19 C1 1_555 1_555
H20 C2 1_555 1_555
H21 C1 1_555 1_555
H22 C2 1_555 1_555
H24 C22 1_555 1_555
H25 C24 1_555 1_555
C22B C23B 1_555 1_555
C23B C24 1_555 1_555
C24B C23 1_555 1_555
H23B C23B 1_555 1_555
H24B C22B 1_555 1_555
H25B C24B 1_555 1_555
C3 C8 1_555 1_555
C7 C8 1_555 1_555
C14 C19 1_555 1_555
C18 C19 1_555 1_555
C22B C24B 1_555 1_555

#END
