
#######################################################################
#
#                 Cambridge Crystallographic Data Centre
#                                CCDC 
#
#######################################################################
#
# If this CIF has been generated from an entry in the Cambridge 
# Structural Database, then it will include bibliographic, chemical, 
# crystal, experimental, refinement or atomic coordinate data resulting 
# from the CCDC's data processing and validation procedures.
#
#######################################################################

data_LIDLAM
_chemical_formula_moiety         'C42 H44 N2 O4 2+,2(Cl1 O4 1-),3(C6 H6)'
_chemical_name_systematic        
'r-4-(c-2,t-4-bis(3,4-dimethoxyphenyl)-t-3-(1-ethyl-4-quinoliniumyl)cyclobutyl)-1-ethylquinolinium diperchlorate benzene solvate'
_symmetry_cell_setting           triclinic
_symmetry_space_group_name_H-M   'P -1'
_symmetry_Int_Tables_number      2
_space_group_name_Hall           '-P 1'
loop_
_symmetry_equiv_pos_site_id
_symmetry_equiv_pos_as_xyz
1 x,y,z
2 -x,-y,-z
_cell_length_a                   11.0230(4)
_cell_length_b                   11.2484(4)
_cell_length_c                   12.5132(5)
_cell_angle_alpha                82.944(2)
_cell_angle_beta                 76.649(2)
_cell_angle_gamma                61.394(2)
_cell_volume                     1325.18
_exptl_crystal_colour            orange
_exptl_crystal_description       block
_cell_formula_units_Z            1
_exptl_crystal_recrystallization_method acetonitrile/benzene
loop_
_atom_site_label
_atom_site_type_symbol
_atom_site_fract_x
_atom_site_fract_y
_atom_site_fract_z
Cl1 Cl 0.54221(5) 0.34194(5) 0.26896(4)
O1 O 0.62677(16) 0.19955(14) 0.28876(14)
O2 O 0.63004(17) 0.40215(16) 0.21613(14)
O3 O 0.46402(18) 0.40607(16) 0.37317(14)
O4 O 0.44467(19) 0.36047(17) 0.20221(16)
O5 O -0.17345(14) 0.32110(14) 0.51285(12)
O6 O -0.04064(14) 0.08983(13) 0.60995(12)
N1 N 0.34776(16) -0.20991(15) 0.24676(13)
C1 C 0.3983(2) -0.2684(2) 0.33654(17)
C2 C 0.4531(2) -0.2128(2) 0.39373(17)
C3 C 0.45993(19) -0.09559(18) 0.35811(16)
C4 C 0.40829(19) -0.03240(19) 0.25992(16)
C5 C 0.4149(2) 0.0866(2) 0.21331(18)
C6 C 0.3645(2) 0.1444(2) 0.11965(19)
C7 C 0.3024(3) 0.0887(2) 0.0695(2)
C8 C 0.2931(2) -0.0254(2) 0.11135(18)
C9 C 0.3493(2) -0.08937(19) 0.20527(16)
C10 C 0.52091(19) -0.03301(18) 0.41540(16)
C11 C 0.4172(2) 0.10284(19) 0.48100(16)
C12 C 0.2602(2) 0.16153(19) 0.49132(16)
C13 C 0.1861(2) 0.2855(2) 0.44163(17)
C14 C 0.0419(2) 0.3414(2) 0.44793(18)
C15 C -0.0319(2) 0.27493(19) 0.50411(17)
C16 C 0.0410(2) 0.14915(19) 0.55573(16)
C17 C 0.1856(2) 0.0932(2) 0.54833(17)
C18 C -0.2391(3) 0.4254(3) 0.4352(2)
C19 C 0.0333(3) -0.0457(2) 0.6499(2)
C20 C 0.2903(2) -0.2758(2) 0.19010(19)
C21 C 0.3872(3) -0.3428(3) 0.0849(2)
H1 H 0.396(2) -0.353(2) 0.3590(18)
H2 H 0.480(2) -0.2546(19) 0.4534(17)
H3 H 0.454(2) 0.123(2) 0.2464(17)
H4 H 0.371(3) 0.220(2) 0.092(2)
H5 H 0.265(3) 0.132(2) 0.004(2)
H6 H 0.253(2) -0.061(2) 0.0755(18)
H7 H 0.588(2) -0.0168(19) 0.3597(17)
H8 H 0.443(2) 0.1690(19) 0.4510(16)
H9 H 0.234(2) 0.330(2) 0.4033(18)
H10 H -0.004(2) 0.425(2) 0.4167(16)
H11 H 0.2287(19) 0.0104(19) 0.5805(15)
H12 H -0.331(2) 0.432(2) 0.4453(17)
H13 H -0.241(3) 0.510(3) 0.451(2)
H14 H -0.189(2) 0.398(2) 0.358(2)
H15 H 0.104(2) -0.107(2) 0.5928(19)
H16 H -0.042(2) -0.075(2) 0.6798(17)
H17 H 0.080(2) -0.0519(19) 0.7074(17)
H18 H 0.273(2) -0.339(2) 0.2473(19)
H19 H 0.194(3) -0.205(2) 0.1761(19)
H20 H 0.348(2) -0.388(2) 0.0626(19)
H21 H 0.399(3) -0.282(3) 0.031(2)
H22 H 0.481(3) -0.406(2) 0.0956(19)
O5A O 1.17345(14) -0.32110(14) 0.48715(12)
O6A O 1.04064(14) -0.08983(13) 0.39005(12)
N1A N 0.65224(16) 0.20991(15) 0.75324(13)
C1A C 0.6017(2) 0.2684(2) 0.66346(17)
C2A C 0.5469(2) 0.2128(2) 0.60627(17)
C3A C 0.54007(19) 0.09559(18) 0.64189(16)
C4A C 0.59171(19) 0.03240(19) 0.74008(16)
C5A C 0.5851(2) -0.0866(2) 0.78669(18)
C6A C 0.6355(2) -0.1444(2) 0.88035(19)
C7A C 0.6976(3) -0.0887(2) 0.9305(2)
C8A C 0.7069(2) 0.0254(2) 0.88865(18)
C9A C 0.6507(2) 0.08937(19) 0.79473(16)
C10A C 0.47909(19) 0.03301(18) 0.58460(16)
C11A C 0.5828(2) -0.10284(19) 0.51900(16)
C12A C 0.7398(2) -0.16153(19) 0.50868(16)
C13A C 0.8139(2) -0.2855(2) 0.55837(17)
C14A C 0.9581(2) -0.3414(2) 0.55207(18)
C15A C 1.0319(2) -0.27493(19) 0.49589(17)
C16A C 0.9590(2) -0.14915(19) 0.44427(16)
C17A C 0.8144(2) -0.0932(2) 0.45167(17)
C18A C 1.2391(3) -0.4254(3) 0.5648(2)
C19A C 0.9667(3) 0.0457(2) 0.3501(2)
C20A C 0.7097(2) 0.2758(2) 0.80990(19)
C21A C 0.6128(3) 0.3428(3) 0.9151(2)
H1A H 0.604(2) 0.353(2) 0.6410(18)
H2A H 0.520(2) 0.2546(19) 0.5466(17)
H3A H 0.546(2) -0.123(2) 0.7536(17)
H4A H 0.629(3) -0.220(2) 0.908(2)
H5A H 0.735(3) -0.132(2) 0.996(2)
H6A H 0.747(2) 0.061(2) 0.9245(18)
H7A H 0.412(2) 0.0168(19) 0.6403(17)
H8A H 0.557(2) -0.1690(19) 0.5490(16)
H9A H 0.766(2) -0.330(2) 0.5967(18)
H10A H 1.004(2) -0.425(2) 0.5833(16)
H11A H 0.7713(19) -0.0104(19) 0.4195(15)
H12A H 1.331(2) -0.432(2) 0.5547(17)
H13A H 1.241(3) -0.510(3) 0.549(2)
H14A H 1.189(2) -0.398(2) 0.642(2)
H15A H 0.896(2) 0.107(2) 0.4072(19)
H16A H 1.042(2) 0.075(2) 0.3202(17)
H17A H 0.920(2) 0.0519(19) 0.2926(17)
H18A H 0.727(2) 0.339(2) 0.7527(19)
H19A H 0.806(3) 0.205(2) 0.8239(19)
H20A H 0.652(2) 0.388(2) 0.9374(19)
H21A H 0.601(3) 0.282(3) 0.969(2)
H22A H 0.519(3) 0.406(2) 0.9044(19)
C22 C 0.8266(3) 0.6945(3) 0.2240(3)
C23 C 0.7745(3) 0.6335(3) 0.1721(2)
C24 C 0.8622(4) 0.5061(3) 0.1295(3)
C25 C 1.0020(4) 0.4416(3) 0.1388(3)
C26 C 1.0550(4) 0.5041(3) 0.1906(2)
C27 C 0.9658(3) 0.6310(3) 0.2334(2)
H23 H 0.773(4) 0.784(3) 0.254(3)
H24 H 0.676(3) 0.677(3) 0.163(2)
H25 H 0.819(3) 0.464(3) 0.084(3)
H26 H 1.064(4) 0.342(4) 0.106(3)
H27 H 1.156(4) 0.462(3) 0.193(3)
H28 H 1.003(3) 0.674(3) 0.271(3)
C28 C -0.0932(3) 0.9838(3) 0.0886(2)
C29 C 0.0067(3) 0.8737(3) 0.0249(2)
C30 C -0.0994(3) 1.1099(3) 0.0635(2)
H29 H -0.163(3) 0.971(2) 0.151(2)
H30 H 0.015(3) 0.782(3) 0.040(2)
H31 H -0.160(3) 1.187(3) 0.105(2)
C28A C 0.0932(3) 1.0162(3) -0.0886(2)
C29A C -0.0067(3) 1.1263(3) -0.0249(2)
C30A C 0.0994(3) 0.8901(3) -0.0635(2)
H29A H 0.163(3) 1.029(2) -0.151(2)
H30A H -0.015(3) 1.218(3) -0.040(2)
H31A H 0.160(3) 0.813(3) -0.105(2)
loop_
_geom_bond_atom_site_label_1
_geom_bond_atom_site_label_2
_geom_bond_site_symmetry_1
_geom_bond_site_symmetry_2
Cl1 O1 1_555 1_555
O2 Cl1 1_555 1_555
O3 Cl1 1_555 1_555
O4 Cl1 1_555 1_555
O5 C15 1_555 1_555
O6 C16 1_555 1_555
N1 C1 1_555 1_555
C1 C2 1_555 1_555
C2 C3 1_555 1_555
C3 C4 1_555 1_555
C4 C5 1_555 1_555
C5 C6 1_555 1_555
C6 C7 1_555 1_555
C7 C8 1_555 1_555
C8 C9 1_555 1_555
C9 N1 1_555 1_555
C10 C3 1_555 1_555
C11 C10 1_555 1_555
C12 C11 1_555 1_555
C13 C12 1_555 1_555
C14 C13 1_555 1_555
C15 C14 1_555 1_555
C16 C15 1_555 1_555
C17 C12 1_555 1_555
C18 O5 1_555 1_555
C19 O6 1_555 1_555
C20 N1 1_555 1_555
C21 C20 1_555 1_555
C22 C23 1_555 1_555
C23 C24 1_555 1_555
C24 C25 1_555 1_555
C25 C26 1_555 1_555
C26 C27 1_555 1_555
C27 C22 1_555 1_555
C28 C29 1_555 1_555
C29 H30 1_555 1_555
C30 C28 1_555 1_555
H1 C1 1_555 1_555
H2 C2 1_555 1_555
H3 C5 1_555 1_555
H4 C6 1_555 1_555
H5 C7 1_555 1_555
H6 C8 1_555 1_555
H7 C10 1_555 1_555
H8 C11 1_555 1_555
H9 C13 1_555 1_555
H10 C14 1_555 1_555
H11 C17 1_555 1_555
H12 C18 1_555 1_555
H13 C18 1_555 1_555
H14 C18 1_555 1_555
H15 C19 1_555 1_555
H16 C19 1_555 1_555
H17 C19 1_555 1_555
H18 C20 1_555 1_555
H19 C20 1_555 1_555
H20 C21 1_555 1_555
H21 C21 1_555 1_555
H22 C21 1_555 1_555
H23 C22 1_555 1_555
H24 C23 1_555 1_555
H25 C24 1_555 1_555
H26 C25 1_555 1_555
H27 C26 1_555 1_555
H28 C27 1_555 1_555
H29 C28 1_555 1_555
H31 C30 1_555 1_555
O5A C15A 1_555 1_555
O6A C16A 1_555 1_555
N1A C1A 1_555 1_555
C1A C2A 1_555 1_555
C2A C3A 1_555 1_555
C3A C4A 1_555 1_555
C4A C5A 1_555 1_555
C5A C6A 1_555 1_555
C6A C7A 1_555 1_555
C7A C8A 1_555 1_555
C8A C9A 1_555 1_555
C9A N1A 1_555 1_555
C10A C11 1_555 1_555
C11A C10 1_555 1_555
C12A C11A 1_555 1_555
C13A C12A 1_555 1_555
C14A C13A 1_555 1_555
C15A C14A 1_555 1_555
C16A C15A 1_555 1_555
C17A C12A 1_555 1_555
C18A O5A 1_555 1_555
C19A O6A 1_555 1_555
C20A N1A 1_555 1_555
C21A C20A 1_555 1_555
C28A C29A 1_555 1_555
C29A C30 1_555 1_555
C30A C29 1_555 1_555
H1A C1A 1_555 1_555
H2A C2A 1_555 1_555
H3A C5A 1_555 1_555
H4A C6A 1_555 1_555
H5A C7A 1_555 1_555
H6A C8A 1_555 1_555
H7A C10A 1_555 1_555
H8A C11A 1_555 1_555
H9A C13A 1_555 1_555
H10A C14A 1_555 1_555
H11A C17A 1_555 1_555
H12A C18A 1_555 1_555
H13A C18A 1_555 1_555
H14A C18A 1_555 1_555
H15A C19A 1_555 1_555
H16A C19A 1_555 1_555
H17A C19A 1_555 1_555
H18A C20A 1_555 1_555
H19A C20A 1_555 1_555
H20A C21A 1_555 1_555
H21A C21A 1_555 1_555
H22A C21A 1_555 1_555
H29A C28A 1_555 1_555
H30A C29A 1_555 1_555
H31A C30A 1_555 1_555
C4 C9 1_555 1_555
C16 C17 1_555 1_555
C3A C10A 1_555 1_555
C4A C9A 1_555 1_555
C10A C11A 1_555 1_555
C16A C17A 1_555 1_555
C28A C30A 1_555 1_555

#END
