
#######################################################################
#
#                 Cambridge Crystallographic Data Centre
#                                CCDC 
#
#######################################################################
#
# If this CIF has been generated from an entry in the Cambridge 
# Structural Database, then it will include bibliographic, chemical, 
# crystal, experimental, refinement or atomic coordinate data resulting 
# from the CCDC's data processing and validation procedures.
#
#######################################################################

data_LIDPIZ
_chemical_formula_moiety         'C25 H25 N2 O4 1+,0.5(C6 H14),F6 P1 1-'
_chemical_name_systematic        
'1-(3,5-Bis(methoxycarbonyl)phenyl)-4-(2-(4-(dimethylamino)phenyl)vinyl)pyridinium hexafluorophosphate hexane solvate'
_symmetry_cell_setting           triclinic
_symmetry_space_group_name_H-M   'P -1'
_symmetry_Int_Tables_number      2
_space_group_name_Hall           '-P 1'
loop_
_symmetry_equiv_pos_site_id
_symmetry_equiv_pos_as_xyz
1 x,y,z
2 -x,-y,-z
_cell_length_a                   6.914(9)
_cell_length_b                   11.460(14)
_cell_length_c                   17.32(2)
_cell_angle_alpha                84.56(2)
_cell_angle_beta                 84.58(2)
_cell_angle_gamma                87.50(2)
_cell_volume                     1359.22
_exptl_crystal_colour            red
_exptl_crystal_description       plate
_cell_formula_units_Z            2
loop_
_atom_site_label
_atom_site_type_symbol
_atom_site_fract_x
_atom_site_fract_y
_atom_site_fract_z
P1 P 0.3600(12) 0.7422(6) 0.1861(4)
F1 F 0.374(2) 0.6508(11) 0.1224(7)
F2 F 0.202(2) 0.8141(13) 0.1401(8)
F3 F 0.344(2) 0.8339(10) 0.2496(7)
F4 F 0.512(2) 0.6653(10) 0.2328(7)
F5 F 0.182(2) 0.6728(10) 0.2342(7)
F6 F 0.536(2) 0.8105(10) 0.1383(7)
O1 O 0.757(2) 0.3570(11) 0.5149(8)
O2 O 0.737(2) 0.5380(11) 0.4589(7)
O3 O 0.815(2) 0.0354(11) 0.2469(8)
O4 O 0.811(2) 0.0126(11) 0.3783(8)
N1 N 0.709(3) 0.8766(13) -0.4087(10)
C1 C 0.723(3) 0.8090(16) -0.4793(11)
H1 H 0.8470 0.7641 -0.4830
H2 H 0.7157 0.8637 -0.5261
H3 H 0.6155 0.7552 -0.4750
C2 C 0.713(3) 1.0013(15) -0.4192(12)
H4 H 0.5933 1.0347 -0.3935
H5 H 0.7215 1.0272 -0.4750
H6 H 0.8255 1.0278 -0.3963
C3 C 0.709(2) 0.8166(11) -0.3359(6)
C4 C 0.714(2) 0.8790(8) -0.2712(8)
H7 H 0.7133 0.9623 -0.2772
C5 C 0.722(2) 0.8196(11) -0.1977(7)
H8 H 0.7253 0.8622 -0.1534
C6 C 0.723(2) 0.6977(11) -0.1889(6)
C7 C 0.718(2) 0.6353(8) -0.2536(8)
H9 H 0.7192 0.5520 -0.2476
C8 C 0.711(2) 0.6948(11) -0.3272(7)
H10 H 0.7072 0.6521 -0.3714
C9 C 0.741(3) 0.6290(18) -0.1148(12)
H11 H 0.7130 0.5483 -0.1136
C10 C 0.791(3) 0.6647(18) -0.0465(12)
H12 H 0.8253 0.7441 -0.0465
C11 C 0.797(3) 0.5906(15) 0.0256(12)
C12 C 0.866(3) 0.6322(17) 0.0894(10)
H13 H 0.9122 0.7097 0.0841
C13 C 0.872(3) 0.5684(16) 0.1601(12)
H14 H 0.9282 0.5966 0.2025
N2 N 0.793(2) 0.4626(12) 0.1647(9)
C14 C 0.718(3) 0.4125(17) 0.1078(11)
H15 H 0.6669 0.3363 0.1156
C15 C 0.722(3) 0.4792(14) 0.0373(11)
H16 H 0.6702 0.4478 -0.0050
C16 C 0.784(2) 0.3938(10) 0.2397(6)
C17 C 0.766(2) 0.4463(8) 0.3093(8)
H17 H 0.7547 0.5293 0.3086
C18 C 0.763(2) 0.3774(11) 0.3799(6)
C19 C 0.779(2) 0.2559(11) 0.3809(6)
H18 H 0.7772 0.2088 0.4291
C20 C 0.798(2) 0.2034(8) 0.3113(8)
C21 C 0.800(2) 0.2723(11) 0.2407(6)
H19 H 0.8130 0.2364 0.1932
C22 C 0.752(3) 0.435(2) 0.4537(14)
C23 C 0.750(3) 0.4029(18) 0.5889(11)
H20 H 0.8598 0.4538 0.5897
H21 H 0.7569 0.3381 0.6299
H22 H 0.6278 0.4484 0.5979
C24 C 0.808(3) 0.0775(19) 0.3157(14)
C25 C 0.827(3) -0.0968(16) 0.2493(13)
H23 H 0.9494 -0.1265 0.2693
H24 H 0.8214 -0.1204 0.1966
H25 H 0.7175 -0.1294 0.2834
C26? C 0.767(11) 0.111(9) 0.048(6)
C27? C 0.862(10) 0.029(7) 0.024(4)
C28? C 0.919(9) -0.041(5) 0.004(3)
C29? C 0.678(8) -0.013(5) -0.002(3)
C30? C 0.690(10) 0.103(8) 0.045(5)
C31? C 0.836(10) 0.143(6) 0.066(4)
loop_
_geom_bond_atom_site_label_1
_geom_bond_atom_site_label_2
_geom_bond_site_symmetry_1
_geom_bond_site_symmetry_2
O1 C22 1_555 1_555
O2 C22 1_555 1_555
O3 C24 1_555 1_555
O4 C24 1_555 1_555
N1 C1 1_555 1_555
C1 H1 1_555 1_555
H2 C1 1_555 1_555
H3 C1 1_555 1_555
C2 N1 1_555 1_555
H4 C2 1_555 1_555
H5 C2 1_555 1_555
H6 C2 1_555 1_555
C3 N1 1_555 1_555
C4 C3 1_555 1_555
H7 C4 1_555 1_555
C5 C4 1_555 1_555
H8 C5 1_555 1_555
C6 C5 1_555 1_555
C7 C6 1_555 1_555
H9 C7 1_555 1_555
C8 C3 1_555 1_555
H10 C8 1_555 1_555
C9 C6 1_555 1_555
H11 C9 1_555 1_555
C10 C9 1_555 1_555
H12 C10 1_555 1_555
C11 C10 1_555 1_555
C12 C11 1_555 1_555
H13 C12 1_555 1_555
C13 C12 1_555 1_555
H14 C13 1_555 1_555
N2 C13 1_555 1_555
C14 N2 1_555 1_555
H15 C14 1_555 1_555
C15 C11 1_555 1_555
H16 C15 1_555 1_555
C16 N2 1_555 1_555
C17 C16 1_555 1_555
H17 C17 1_555 1_555
C18 C17 1_555 1_555
C19 C18 1_555 1_555
H18 C19 1_555 1_555
C20 C19 1_555 1_555
C21 C16 1_555 1_555
H19 C21 1_555 1_555
C22 C18 1_555 1_555
C23 O1 1_555 1_555
H20 C23 1_555 1_555
H21 C23 1_555 1_555
H22 C23 1_555 1_555
C24 C20 1_555 1_555
C25 O3 1_555 1_555
H23 C25 1_555 1_555
H24 C25 1_555 1_555
H25 C25 1_555 1_555
P1 F1 1_555 1_555
F2 P1 1_555 1_555
F3 P1 1_555 1_555
F4 P1 1_555 1_555
F5 P1 1_555 1_555
F6 P1 1_555 1_555
C7 C8 1_555 1_555
C14 C15 1_555 1_555
C20 C21 1_555 1_555

#END
