
#######################################################################
#
#                 Cambridge Crystallographic Data Centre
#                                CCDC 
#
#######################################################################
#
# If this CIF has been generated from an entry in the Cambridge 
# Structural Database, then it will include bibliographic, chemical, 
# crystal, experimental, refinement or atomic coordinate data resulting 
# from the CCDC's data processing and validation procedures.
#
#######################################################################

data_LIDPEV
_chemical_formula_moiety         'C35 H29 N2 O4 1+,F6 P1 1-,C2 H3 N1'
_chemical_name_systematic        
'1-(3,5-bis(methoxycarbonyl)phenyl)-4-(2-(4-(diphenylamino)phenyl)vinyl)pyridinium hexafluorophosphate acetonitrile solvate'
_symmetry_cell_setting           triclinic
_symmetry_space_group_name_H-M   'P -1'
_symmetry_Int_Tables_number      2
_space_group_name_Hall           '-P 1'
loop_
_symmetry_equiv_pos_site_id
_symmetry_equiv_pos_as_xyz
1 x,y,z
2 -x,-y,-z
_cell_length_a                   8.0011(16)
_cell_length_b                   10.175(2)
_cell_length_c                   21.333(4)
_cell_angle_alpha                99.113(4)
_cell_angle_beta                 95.656(4)
_cell_angle_gamma                96.570(3)
_cell_volume                     1691.47
_exptl_crystal_colour            red
_exptl_crystal_description       plate
_cell_formula_units_Z            2
loop_
_atom_site_label
_atom_site_type_symbol
_atom_site_fract_x
_atom_site_fract_y
_atom_site_fract_z
O1 O 0.2324(3) -0.2140(3) 0.14182(12)
O2 O 0.3073(4) -0.0843(3) 0.07016(13)
O3 O 0.5082(4) 0.4717(3) 0.26102(13)
O4 O 0.4131(4) 0.4252(3) 0.15661(13)
N1 N 0.1823(4) -0.0006(3) 0.84627(14)
N2 N 0.2839(4) 0.0774(3) 0.35385(14)
C1 C 0.2081(5) 0.1124(4) 0.89719(17)
C2 C 0.3204(5) 0.2253(4) 0.89469(19)
H1 H 0.3794 0.2293 0.8584
C3 C 0.3464(5) 0.3323(4) 0.9452(2)
H2 H 0.4208 0.4106 0.9428
C4 C 0.2651(6) 0.3258(4) 0.9989(2)
H3 H 0.2861 0.3981 1.0340
C5 C 0.1534(6) 0.2141(4) 1.00125(19)
H4 H 0.0960 0.2102 1.0380
C6 C 0.1235(5) 0.1074(4) 0.95092(18)
H5 H 0.0454 0.0310 0.9530
C7 C 0.1752(5) -0.1323(4) 0.86196(17)
C8 C 0.2858(5) -0.1586(4) 0.91150(17)
H6 H 0.3651 -0.0886 0.9364
C9 C 0.2787(5) -0.2886(4) 0.92417(19)
H7 H 0.3539 -0.3073 0.9579
C10 C 0.1645(5) -0.3903(4) 0.8887(2)
H8 H 0.1610 -0.4789 0.8978
C11 C 0.0546(5) -0.3639(4) 0.8395(2)
H9 H -0.0242 -0.4344 0.8147
C12 C 0.0593(5) -0.2354(4) 0.82659(18)
H10 H -0.0176 -0.2173 0.7931
C13 C 0.1798(5) 0.0169(4) 0.78247(18)
C14 C 0.2420(5) -0.0756(4) 0.73779(19)
H11 H 0.2859 -0.1515 0.7506
C15 C 0.2393(5) -0.0562(5) 0.67450(19)
H12 H 0.2819 -0.1194 0.6445
C16 C 0.1750(5) 0.0548(5) 0.6541(2)
C17 C 0.1122(5) 0.1438(5) 0.69863(19)
H13 H 0.0662 0.2188 0.6858
C18 C 0.1152(5) 0.1258(4) 0.76120(19)
H14 H 0.0720 0.1894 0.7908
C19 C 0.1750(5) 0.0836(5) 0.5880(2)
H15 H 0.1299 0.1614 0.5784
C20 C 0.2334(6) 0.0080(5) 0.5428(2)
H16 H 0.2742 -0.0714 0.5525
C21 C 0.2413(6) 0.0359(5) 0.4769(2)
C22 C 0.3231(5) -0.0493(5) 0.43676(19)
H17 H 0.3643 -0.1245 0.4513
C23 C 0.3446(5) -0.0266(4) 0.37745(19)
H18 H 0.4040 -0.0851 0.3513
C24 C 0.1975(5) 0.1611(4) 0.39036(18)
H19 H 0.1523 0.2327 0.3738
C25 C 0.1758(5) 0.1413(5) 0.45178(19)
H20 H 0.1155 0.2000 0.4774
C26 C 0.3140(5) 0.1004(4) 0.29069(17)
C27 C 0.2880(5) -0.0071(4) 0.24060(18)
H21 H 0.2546 -0.0954 0.2480
C28 C 0.3114(5) 0.0159(4) 0.17923(17)
C29 C 0.3580(5) 0.1456(4) 0.16902(18)
H22 H 0.3697 0.1617 0.1269
C30 C 0.3876(5) 0.2520(4) 0.21982(17)
C31 C 0.3671(5) 0.2292(4) 0.28145(17)
H23 H 0.3892 0.3013 0.3167
C32 C 0.2842(5) -0.0967(4) 0.12378(19)
C33 C 0.1984(6) -0.3311(4) 0.0920(2)
H24 H 0.0939 -0.3266 0.0648
H25 H 0.1853 -0.4123 0.1114
H26 H 0.2929 -0.3339 0.0661
C34 C 0.4364(5) 0.3906(4) 0.20772(18)
C35 C 0.5559(7) 0.6095(4) 0.2546(2)
H27 H 0.6432 0.6139 0.2256
H28 H 0.6006 0.6623 0.2967
H29 H 0.4564 0.6459 0.2373
N3 N 0.5765(5) 0.2754(4) 0.43834(18)
C36 C 0.6297(5) 0.3855(5) 0.4444(2)
C37 C 0.6948(6) 0.5264(4) 0.4514(2)
H30 H 0.7185 0.5477 0.4096
H31 H 0.7995 0.5459 0.4811
H32 H 0.6106 0.5810 0.4681
P1 P 0.12099(16) 0.54825(13) 0.36631(6)
F1 F 0.0454(4) 0.4369(3) 0.40580(14)
F2 F 0.1385(4) 0.4326(3) 0.30864(13)
F3 F 0.1955(4) 0.6593(3) 0.32788(15)
F4 F 0.1011(3) 0.6632(3) 0.42440(14)
F5 F 0.3070(3) 0.5364(3) 0.39700(14)
F6 F -0.0659(3) 0.5582(3) 0.33575(14)
loop_
_geom_bond_atom_site_label_1
_geom_bond_atom_site_label_2
_geom_bond_site_symmetry_1
_geom_bond_site_symmetry_2
O1 C32 1_555 1_555
O2 C32 1_555 1_555
O3 C34 1_555 1_555
O4 C34 1_555 1_555
N1 C1 1_555 1_555
N2 C23 1_555 1_555
C1 C2 1_555 1_555
C2 H1 1_555 1_555
C3 C2 1_555 1_555
H2 C3 1_555 1_555
C4 C3 1_555 1_555
H3 C4 1_555 1_555
C5 C4 1_555 1_555
H4 C5 1_555 1_555
C6 C1 1_555 1_555
H5 C6 1_555 1_555
C7 N1 1_555 1_555
C8 C7 1_555 1_555
H6 C8 1_555 1_555
C9 C8 1_555 1_555
H7 C9 1_555 1_555
C10 C9 1_555 1_555
H8 C10 1_555 1_555
C11 C10 1_555 1_555
H9 C11 1_555 1_555
C12 C7 1_555 1_555
H10 C12 1_555 1_555
C13 N1 1_555 1_555
C14 C13 1_555 1_555
H11 C14 1_555 1_555
C15 C14 1_555 1_555
H12 C15 1_555 1_555
C16 C15 1_555 1_555
C17 C16 1_555 1_555
H13 C17 1_555 1_555
C18 C13 1_555 1_555
H14 C18 1_555 1_555
C19 C16 1_555 1_555
H15 C19 1_555 1_555
C20 C19 1_555 1_555
H16 C20 1_555 1_555
C21 C20 1_555 1_555
C22 C21 1_555 1_555
H17 C22 1_555 1_555
C23 C22 1_555 1_555
H18 C23 1_555 1_555
C24 N2 1_555 1_555
H19 C24 1_555 1_555
C25 C21 1_555 1_555
H20 C25 1_555 1_555
C26 N2 1_555 1_555
C27 C26 1_555 1_555
H21 C27 1_555 1_555
C28 C27 1_555 1_555
C29 C28 1_555 1_555
H22 C29 1_555 1_555
C30 C29 1_555 1_555
C31 C26 1_555 1_555
H23 C31 1_555 1_555
C32 C28 1_555 1_555
C33 O1 1_555 1_555
H24 C33 1_555 1_555
H25 C33 1_555 1_555
H26 C33 1_555 1_555
C34 C30 1_555 1_555
C35 O3 1_555 1_555
H27 C35 1_555 1_555
H28 C35 1_555 1_555
H29 C35 1_555 1_555
N3 C36 1_555 1_555
C36 C37 1_555 1_555
C37 H30 1_555 1_555
H31 C37 1_555 1_555
H32 C37 1_555 1_555
P1 F1 1_555 1_555
F2 P1 1_555 1_555
F3 P1 1_555 1_555
F4 P1 1_555 1_555
F5 P1 1_555 1_555
F6 P1 1_555 1_555
C5 C6 1_555 1_555
C11 C12 1_555 1_555
C17 C18 1_555 1_555
C24 C25 1_555 1_555
C30 C31 1_555 1_555

#END
