
#######################################################################
#
#                 Cambridge Crystallographic Data Centre
#                                CCDC 
#
#######################################################################
#
# If this CIF has been generated from an entry in the Cambridge 
# Structural Database, then it will include bibliographic, chemical, 
# crystal, experimental, refinement or atomic coordinate data resulting 
# from the CCDC's data processing and validation procedures.
#
#######################################################################

data_LIDSIB
_chemical_formula_moiety         'C17 H8 Br1 Cl2 F3 N4 O2 S1'
_chemical_name_systematic        
1-(2,6-dichloro-4-(trifluoromethyl)phenyl)-5-(4-bromobenzenesulfonylamide)-1H-pyrazole-3-carbonitrile
_symmetry_cell_setting           triclinic
_symmetry_space_group_name_H-M   'P -1'
_symmetry_Int_Tables_number      2
_space_group_name_Hall           '-P 1'
loop_
_symmetry_equiv_pos_site_id
_symmetry_equiv_pos_as_xyz
1 x,y,z
2 -x,-y,-z
_cell_length_a                   9.3253(8)
_cell_length_b                   10.0308(8)
_cell_length_c                   11.7618(10)
_cell_angle_alpha                101.871(2)
_cell_angle_beta                 102.041(2)
_cell_angle_gamma                101.4830(10)
_cell_volume                     1018.77
_exptl_crystal_colour            colorless
_exptl_crystal_description       block
_chemical_melting_point          '514-516 K'
_cell_formula_units_Z            2
_exptl_crystal_recrystallization_method acetone/ethanol
loop_
_atom_site_label
_atom_site_type_symbol
_atom_site_fract_x
_atom_site_fract_y
_atom_site_fract_z
Br1 Br 0.86216(6) 1.66182(6) 1.01010(5)
Cl1 Cl 0.77862(13) 1.06616(13) 0.93456(10)
Cl2 Cl 0.74439(13) 0.67025(11) 0.53961(10)
S1 S 0.72229(10) 1.17628(11) 0.52724(9)
F1 F 0.3118(18) 0.6517(13) 0.8884(9)
F2 F 0.2420(7) 0.5908(11) 0.7016(8)
F3 F 0.3589(10) 0.4622(5) 0.7686(11)
O1 O 0.8354(3) 1.2115(3) 0.4663(3)
O2 O 0.5650(3) 1.1428(3) 0.4656(3)
N1 N 0.8759(3) 0.9438(3) 0.7193(3)
N2 N 1.0174(3) 0.9464(3) 0.7804(3)
N3 N 1.3946(4) 1.0974(5) 0.8210(4)
N4 N 0.7409(3) 1.0352(3) 0.5717(3)
H1 H 0.6641 0.9635 0.5504
C1 C 0.3628(4) 0.6010(4) 0.7927(3)
C2 C 0.4960(4) 0.6929(4) 0.7746(4)
C3 C 0.5637(4) 0.8221(4) 0.8537(3)
H2 H 0.5249 0.8535 0.9181
C4 C 0.6908(4) 0.9053(4) 0.8362(3)
C5 C 0.7468(3) 0.8574(4) 0.7391(3)
C6 C 0.6764(4) 0.7272(4) 0.6618(3)
C7 C 0.5504(4) 0.6425(4) 0.6791(4)
H3 H 0.5040 0.5537 0.6273
C8 C 1.1052(4) 1.0372(4) 0.7400(3)
C9 C 1.0240(4) 1.0895(4) 0.6536(3)
H4 H 1.0619 1.1526 0.6127
C10 C 0.8765(4) 1.0273(4) 0.6427(3)
C11 C 1.2663(4) 1.0682(5) 0.7855(4)
C12 C 0.7609(4) 1.3103(4) 0.6599(4)
C13 C 0.6711(5) 1.2981(5) 0.7380(4)
H5 H 0.5899 1.2196 0.7200
C14 C 0.7006(5) 1.4010(5) 0.8421(5)
H6 H 0.6408 1.3924 0.8956
C15 C 0.8206(5) 1.5181(4) 0.8669(4)
C16 C 0.9087(5) 1.5320(5) 0.7886(5)
H7 H 0.9877 1.6120 0.8055
C17 C 0.8806(4) 1.4280(5) 0.6856(5)
H8 H 0.9415 1.4361 0.6328
F4? F 0.2796(15) 0.6817(12) 0.8417(14)
F5? F 0.2532(11) 0.5173(14) 0.6955(7)
F6? F 0.4051(8) 0.5409(14) 0.8832(10)
loop_
_geom_bond_atom_site_label_1
_geom_bond_atom_site_label_2
_geom_bond_site_symmetry_1
_geom_bond_site_symmetry_2
Br1 C15 1_555 1_555
Cl1 C4 1_555 1_555
Cl2 C6 1_555 1_555
S1 O1 1_555 1_555
F1 C1 1_555 1_555
F2 C1 1_555 1_555
F3 C1 1_555 1_555
O2 S1 1_555 1_555
N1 N2 1_555 1_555
N2 C8 1_555 1_555
N3 C11 1_555 1_555
N4 S1 1_555 1_555
H1 N4 1_555 1_555
C1 C2 1_555 1_555
C2 C3 1_555 1_555
C3 H2 1_555 1_555
C4 C3 1_555 1_555
C5 N1 1_555 1_555
C6 C5 1_555 1_555
C7 C2 1_555 1_555
H3 C7 1_555 1_555
C8 C9 1_555 1_555
C9 H4 1_555 1_555
C10 N1 1_555 1_555
C11 C8 1_555 1_555
C12 S1 1_555 1_555
C13 C12 1_555 1_555
H5 C13 1_555 1_555
C14 C13 1_555 1_555
H6 C14 1_555 1_555
C15 C14 1_555 1_555
C16 C15 1_555 1_555
H7 C16 1_555 1_555
C17 C12 1_555 1_555
H8 C17 1_555 1_555
N4 C10 1_555 1_555
C4 C5 1_555 1_555
C6 C7 1_555 1_555
C9 C10 1_555 1_555
C16 C17 1_555 1_555

#END
