
#######################################################################
#
#                 Cambridge Crystallographic Data Centre
#                                CCDC 
#
#######################################################################
#
# If this CIF has been generated from an entry in the Cambridge 
# Structural Database, then it will include bibliographic, chemical, 
# crystal, experimental, refinement or atomic coordinate data resulting 
# from the CCDC's data processing and validation procedures.
#
#######################################################################

data_LIDSUN
_chemical_formula_moiety         'C16 H26 N2 O2,3(H2 O1)'
_chemical_name_systematic        '18-Methoxymatrine trihydrate'
_chemical_properties_biological  
'matrine exhibits anti-hepatitis B virus, cardiac disease, anti-fibrosis, anti-tumour, antipyretic and cardiotonic activities; it also protects heart muscle'
_symmetry_cell_setting           monoclinic
_symmetry_space_group_name_H-M   'P 21'
_symmetry_Int_Tables_number      4
_space_group_name_Hall           'P 2yb'
loop_
_symmetry_equiv_pos_site_id
_symmetry_equiv_pos_as_xyz
1 x,y,z
2 -x,1/2+y,-z
_cell_length_a                   10.375(6)
_cell_length_b                   8.033(4)
_cell_length_c                   11.318(6)
_cell_angle_alpha                90
_cell_angle_beta                 107.734(9)
_cell_angle_gamma                90
_cell_volume                     898.446
_exptl_crystal_colour            colorless
_exptl_crystal_description       columnar
_cell_formula_units_Z            2
_exptl_crystal_recrystallization_method ethanol/water
loop_
_atom_site_label
_atom_site_type_symbol
_atom_site_fract_x
_atom_site_fract_y
_atom_site_fract_z
N1 N 0.1118(3) 0.1320(3) 0.8134(2)
N2 N 0.4252(3) -0.0459(3) 0.7920(2)
O1 O 0.6519(3) 0.2236(3) 0.6084(2)
O2 O 0.5509(2) -0.2772(3) 0.7951(2)
C1 C 0.2457(3) 0.1197(4) 0.9079(3)
H1 H 0.2392 0.1716 0.9843
C2 C 0.2883(3) -0.0628(4) 0.9372(3)
H2 H 0.3700 -0.0631 1.0092
C3 C 0.1799(3) -0.1625(5) 0.9724(3)
H3 H 0.2044 -0.2794 0.9793
H4 H 0.1752 -0.1253 1.0525
C4 C 0.0434(4) -0.1413(5) 0.8768(4)
H5 H -0.0253 -0.1953 0.9054
H6 H 0.0439 -0.1939 0.7998
C5 C 0.0092(3) 0.0427(5) 0.8539(4)
H7 H -0.0780 0.0536 0.7909
H8 H 0.0022 0.0929 0.9296
C6 C 0.0700(4) 0.3071(4) 0.7888(4)
H9 H 0.0593 0.3564 0.8636
H10 H -0.0170 0.3117 0.7249
C7 C 0.1723(4) 0.4069(4) 0.7475(4)
H11 H 0.1761 0.3651 0.6683
H12 H 0.1440 0.5225 0.7366
C8 C 0.3109(4) 0.3959(4) 0.8414(4)
H13 H 0.3099 0.4497 0.9179
H14 H 0.3760 0.4533 0.8101
C9 C 0.3529(3) 0.2138(4) 0.8673(3)
H15 H 0.4364 0.2124 0.9373
C10 C 0.3843(3) 0.1290(4) 0.7577(3)
H16 H 0.3016 0.1281 0.6868
C11 C 0.3244(3) -0.1438(4) 0.8304(3)
H17 H 0.3601 -0.2543 0.8551
H18 H 0.2431 -0.1556 0.7604
C12 C 0.5287(3) -0.1266(5) 0.7696(3)
C13 C 0.6192(4) -0.0309(5) 0.7125(4)
H19 H 0.6481 -0.1045 0.6575
H20 H 0.6994 0.0034 0.7780
C14 C 0.4937(4) 0.2218(5) 0.7202(3)
H21 H 0.4549 0.3221 0.6758
H22 H 0.5645 0.2549 0.7945
C15 C 0.6973(5) 0.1597(6) 0.5100(4)
H23 H 0.6211 0.1435 0.4375
H24 H 0.7425 0.0554 0.5348
H25 H 0.7589 0.2375 0.4917
C16 C 0.5548(4) 0.1208(5) 0.6405(4)
H26 H 0.4841 0.0867 0.5651
O3 O 0.9536(3) 0.4834(4) 0.4293(3)
H27 H 0.933(4) 0.517(5) 0.354(2)
H28 H 1.021(3) 0.421(4) 0.433(4)
O4 O 0.1316(4) 0.2181(4) 0.4361(3)
H29 H 0.093(4) 0.148(4) 0.471(4)
H30 H 0.162(4) 0.162(4) 0.386(3)
O5 O 0.2608(4) 0.0506(4) 0.2871(4)
H31 H 0.319(3) 0.095(5) 0.257(3)
H32 H 0.279(4) -0.047(3) 0.317(3)
loop_
_geom_bond_atom_site_label_1
_geom_bond_atom_site_label_2
_geom_bond_site_symmetry_1
_geom_bond_site_symmetry_2
N1 C1 1_555 1_555
N2 C10 1_555 1_555
O1 C15 1_555 1_555
O2 C12 1_555 1_555
C1 H1 1_555 1_555
C2 C1 1_555 1_555
H2 C2 1_555 1_555
C3 C2 1_555 1_555
H3 C3 1_555 1_555
H4 C3 1_555 1_555
C4 C3 1_555 1_555
H5 C4 1_555 1_555
H6 C4 1_555 1_555
C5 N1 1_555 1_555
H7 C5 1_555 1_555
H8 C5 1_555 1_555
C6 N1 1_555 1_555
H9 C6 1_555 1_555
H10 C6 1_555 1_555
C7 C6 1_555 1_555
H11 C7 1_555 1_555
H12 C7 1_555 1_555
C8 C7 1_555 1_555
H13 C8 1_555 1_555
H14 C8 1_555 1_555
C9 C1 1_555 1_555
H15 C9 1_555 1_555
C10 C9 1_555 1_555
H16 C10 1_555 1_555
C11 N2 1_555 1_555
H17 C11 1_555 1_555
H18 C11 1_555 1_555
C12 N2 1_555 1_555
C13 C12 1_555 1_555
H19 C13 1_555 1_555
H20 C13 1_555 1_555
C14 C10 1_555 1_555
H21 C14 1_555 1_555
H22 C14 1_555 1_555
C15 H23 1_555 1_555
H24 C15 1_555 1_555
H25 C15 1_555 1_555
C16 O1 1_555 1_555
H26 C16 1_555 1_555
O3 H27 1_555 1_555
H28 O3 1_555 1_555
O4 H29 1_555 1_555
H30 O4 1_555 1_555
O5 H31 1_555 1_555
H32 O5 1_555 1_555
C2 C11 1_555 1_555
C4 C5 1_555 1_555
C8 C9 1_555 1_555
C13 C16 1_555 1_555
C14 C16 1_555 1_555

#END
