
#######################################################################
#
#                 Cambridge Crystallographic Data Centre
#                                CCDC 
#
#######################################################################
#
# If this CIF has been generated from an entry in the Cambridge 
# Structural Database, then it will include bibliographic, chemical, 
# crystal, experimental, refinement or atomic coordinate data resulting 
# from the CCDC's data processing and validation procedures.
#
#######################################################################

data_LIDTUP
_chemical_formula_moiety         'C19 H14 O4'
_chemical_name_systematic        
8,9-Dimethoxy-11-methyleneindeno[1,2-c]isochromen-5(11H)-one
_symmetry_cell_setting           orthorhombic
_symmetry_space_group_name_H-M   'P b c a'
_symmetry_Int_Tables_number      61
_space_group_name_Hall           '-P 2ac 2ab'
loop_
_symmetry_equiv_pos_site_id
_symmetry_equiv_pos_as_xyz
1 x,y,z
2 1/2-x,-y,1/2+z
3 -x,1/2+y,1/2-z
4 1/2+x,1/2-y,-z
5 -x,-y,-z
6 1/2+x,y,1/2-z
7 x,1/2-y,1/2+z
8 1/2-x,1/2+y,z
_cell_length_a                   7.2210(14)
_cell_length_b                   17.001(3)
_cell_length_c                   23.199(5)
_cell_angle_alpha                90
_cell_angle_beta                 90
_cell_angle_gamma                90
_cell_volume                     2848.01
_cell_formula_units_Z            8
loop_
_atom_site_label
_atom_site_type_symbol
_atom_site_fract_x
_atom_site_fract_y
_atom_site_fract_z
O1 O -0.0656(2) 0.78747(9) 0.24337(7)
C1 C 0.0142(3) 0.74748(12) 0.35938(10)
H1 H -0.0429 0.7957 0.3527
O2 O 0.07343(19) 0.68236(7) 0.20872(6)
C2 C 0.0518(4) 0.72435(14) 0.41474(10)
H2 H 0.0204 0.7567 0.4456
O3 O 0.3694(3) 0.37566(9) 0.06877(6)
C3 C 0.1368(4) 0.65252(14) 0.42455(10)
H3 H 0.1623 0.6367 0.4621
O4 O 0.2447(3) 0.50108(9) 0.02093(6)
C4 C 0.1838(3) 0.60451(13) 0.37932(9)
H4 H 0.2419 0.5568 0.3868
C5 C 0.1461(3) 0.62587(11) 0.32218(8)
C6 C 0.0608(3) 0.69958(12) 0.31307(9)
C7 C 0.1879(3) 0.58018(11) 0.27166(9)
C8 C 0.1502(3) 0.61051(11) 0.21904(9)
C9 C 0.0162(3) 0.72789(11) 0.25493(10)
C10 C 0.2641(3) 0.50054(11) 0.26238(8)
C11 C 0.2686(3) 0.49061(11) 0.19877(9)
C12 C 0.1997(3) 0.55808(11) 0.17261(8)
C13 C 0.3281(3) 0.42779(12) 0.16534(9)
H5 H 0.3747 0.3826 0.1826
C14 C 0.3170(3) 0.43349(13) 0.10609(9)
C15 C 0.2461(3) 0.50235(13) 0.07989(9)
C16 C 0.1866(3) 0.56480(12) 0.11295(8)
H6 H 0.1393 0.6101 0.0959
C17 C 0.3165(3) 0.44596(13) 0.29966(9)
H7 H 0.3076 0.4555 0.3390
H8 H 0.3622 0.3981 0.2865
C18 C 0.4620(4) 0.30925(14) 0.09209(10)
H9 H 0.4913 0.2731 0.0617
H10 H 0.3831 0.2838 0.1197
H11 H 0.5741 0.3259 0.1107
C19 C 0.1954(4) 0.57183(15) -0.00750(10)
H12 H 0.1994 0.5639 -0.0485
H13 H 0.2809 0.6126 0.0030
H14 H 0.0724 0.5869 0.0037
loop_
_geom_bond_atom_site_label_1
_geom_bond_atom_site_label_2
_geom_bond_site_symmetry_1
_geom_bond_site_symmetry_2
O1 C9 1_555 1_555
C1 H1 1_555 1_555
O2 C8 1_555 1_555
C2 C1 1_555 1_555
H2 C2 1_555 1_555
O3 C14 1_555 1_555
C3 C2 1_555 1_555
H3 C3 1_555 1_555
O4 C15 1_555 1_555
C4 C3 1_555 1_555
H4 C4 1_555 1_555
C5 C4 1_555 1_555
C6 C1 1_555 1_555
C7 C5 1_555 1_555
C8 C7 1_555 1_555
C9 O2 1_555 1_555
C10 C7 1_555 1_555
C11 C10 1_555 1_555
C12 C8 1_555 1_555
C13 C11 1_555 1_555
H5 C13 1_555 1_555
C14 C13 1_555 1_555
C15 C14 1_555 1_555
C16 C12 1_555 1_555
H6 C16 1_555 1_555
C17 C10 1_555 1_555
H7 C17 1_555 1_555
H8 C17 1_555 1_555
C18 O3 1_555 1_555
H9 C18 1_555 1_555
H10 C18 1_555 1_555
H11 C18 1_555 1_555
C19 O4 1_555 1_555
H12 C19 1_555 1_555
H13 C19 1_555 1_555
H14 C19 1_555 1_555
C5 C6 1_555 1_555
C6 C9 1_555 1_555
C11 C12 1_555 1_555
C15 C16 1_555 1_555

#END
