
#######################################################################
#
#                 Cambridge Crystallographic Data Centre
#                                CCDC 
#
#######################################################################
#
# If this CIF has been generated from an entry in the Cambridge 
# Structural Database, then it will include bibliographic, chemical, 
# crystal, experimental, refinement or atomic coordinate data resulting 
# from the CCDC's data processing and validation procedures.
#
#######################################################################

data_LIDXOL
_chemical_formula_moiety         'C23 H18 N4 O1'
_chemical_name_systematic        
6,7-(3',6'-bis(2''-Pyridyl)-4',5'-pyridizino)tetracyclo(6.3.0.0^4,11^.0^5,9^)undecan-2-one
_symmetry_cell_setting           monoclinic
_symmetry_space_group_name_H-M   'P 21/n'
_symmetry_Int_Tables_number      14
_space_group_name_Hall           '-P 2yn'
loop_
_symmetry_equiv_pos_site_id
_symmetry_equiv_pos_as_xyz
1 x,y,z
2 1/2-x,1/2+y,1/2-z
3 -x,-y,-z
4 1/2+x,1/2-y,1/2+z
_cell_length_a                   11.150(2)
_cell_length_b                   15.462(2)
_cell_length_c                   11.290(2)
_cell_angle_alpha                90
_cell_angle_beta                 116.48(1)
_cell_angle_gamma                90
_cell_volume                     1742.21
_cell_formula_units_Z            4
loop_
_atom_site_label
_atom_site_type_symbol
_atom_site_fract_x
_atom_site_fract_y
_atom_site_fract_z
O1 O 0.4509(2) 0.3066(2) 0.8278(3)
N1 N 0.3906(2) 0.1201(2) 0.9732(2)
N2 N 0.7223(2) 0.0856(1) 1.0083(2)
N3 N 0.7948(2) 0.0791(1) 0.9407(2)
N4 N 0.7875(2) 0.1297(1) 0.6313(2)
C1 C 0.5219(2) 0.0999(1) 0.8076(2)
C2 C 0.3753(2) 0.1048(2) 0.7087(2)
C3 C 0.3755(2) 0.0640(2) 0.5833(2)
C4 C 0.2635(2) 0.1080(2) 0.4675(3)
C5 C 0.3082(2) 0.1992(2) 0.5166(2)
C6 C 0.3248(2) 0.2005(2) 0.6598(2)
C7 C 0.4335(2) 0.2665(2) 0.7297(3)
C8 C 0.5179(3) 0.2706(2) 0.6546(3)
C9 C 0.4587(2) 0.2024(2) 0.5472(2)
C10 C 0.5058(2) 0.1059(2) 0.5926(2)
C11 C 0.5984(2) 0.0981(1) 0.7376(2)
C12 C 0.7360(2) 0.0892(1) 0.8086(2)
C13 C 0.8295(2) 0.0879(2) 0.7464(2)
C14 C 0.9509(2) 0.0451(2) 0.8060(3)
C15 C 1.0339(3) 0.0458(2) 0.7434(3)
C16 C 0.9922(3) 0.0885(2) 0.6257(3)
C17 C 0.8704(3) 0.1299(2) 0.5736(3)
C18 C 0.5890(2) 0.0983(1) 0.9446(2)
C19 C 0.5238(2) 0.1137(1) 1.0335(2)
C20 C 0.5988(3) 0.1251(2) 1.1677(3)
C21 C 0.5338(3) 0.1456(2) 1.2442(3)
C22 C 0.3975(3) 0.1515(2) 1.1838(3)
C23 C 0.3299(3) 0.1375(2) 1.0508(3)
H1 H 0.314(2) 0.073(1) 0.738(2)
H2 H 0.379(2) 0.005(2) 0.584(2)
H3 H 0.173(2) 0.089(2) 0.458(2)
H4 H 0.262(2) 0.096(2) 0.382(2)
H5 H 0.255(2) 0.249(1) 0.461(2)
H6 H 0.245(2) 0.217(1) 0.663(2)
H9 H 0.501(3) 0.328(2) 0.614(3)
H10 H 0.616(4) 0.269(2) 0.722(3)
H11 H 0.469(2) 0.219(2) 0.473(2)
H12 H 0.540(2) 0.076(1) 0.537(2)
H13 H 0.978(2) 0.013(2) 0.893(2)
H14 H 1.119(3) 0.004(2) 0.785(3)
H15 H 1.045(3) 0.085(2) 0.578(3)
H16 H 0.836(3) 0.164(2) 0.489(3)
H17 H 0.692(3) 0.114(2) 1.203(2)
H18 H 0.588(3) 0.161(2) 1.342(3)
H19 H 0.349(3) 0.161(2) 1.233(3)
H20 H 0.235(3) 0.150(2) 1.003(3)
O2? O 0.617(1) 0.3102(7) 0.675(1)
H7? H 0.49(2) 0.27(1) 0.82(2)
H8? H 0.38(1) 0.337(8) 0.70(1)
loop_
_geom_bond_atom_site_label_1
_geom_bond_atom_site_label_2
_geom_bond_site_symmetry_1
_geom_bond_site_symmetry_2
O1 C7 1_555 1_555
N1 C19 1_555 1_555
N2 N3 1_555 1_555
N3 C12 1_555 1_555
N4 C13 1_555 1_555
C1 C2 1_555 1_555
C2 C3 1_555 1_555
C3 C4 1_555 1_555
C4 C5 1_555 1_555
C5 C6 1_555 1_555
C6 C2 1_555 1_555
C7 C6 1_555 1_555
C8 C7 1_555 1_555
C9 C5 1_555 1_555
C10 C3 1_555 1_555
C11 C1 1_555 1_555
C12 C11 1_555 1_555
C13 C12 1_555 1_555
C14 C13 1_555 1_555
C15 C14 1_555 1_555
C16 C15 1_555 1_555
C17 N4 1_555 1_555
C18 N2 1_555 1_555
C19 C18 1_555 1_555
C20 C19 1_555 1_555
C21 C20 1_555 1_555
C22 C21 1_555 1_555
C23 N1 1_555 1_555
H1 C2 1_555 1_555
H2 C3 1_555 1_555
H3 C4 1_555 1_555
H4 C4 1_555 1_555
H5 C5 1_555 1_555
H6 C6 1_555 1_555
H9 C8 1_555 1_555
H10 C8 1_555 1_555
H11 C9 1_555 1_555
H12 C10 1_555 1_555
H13 C14 1_555 1_555
H14 C15 1_555 1_555
H15 C16 1_555 1_555
H16 C17 1_555 1_555
H17 C20 1_555 1_555
H18 C21 1_555 1_555
H19 C22 1_555 1_555
H20 C23 1_555 1_555
C1 C18 1_555 1_555
C8 C9 1_555 1_555
C9 C10 1_555 1_555
C10 C11 1_555 1_555
C16 C17 1_555 1_555
C22 C23 1_555 1_555

#END
