
#######################################################################
#
#                 Cambridge Crystallographic Data Centre
#                                CCDC 
#
#######################################################################
#
# If this CIF has been generated from an entry in the Cambridge 
# Structural Database, then it will include bibliographic, chemical, 
# crystal, experimental, refinement or atomic coordinate data resulting 
# from the CCDC's data processing and validation procedures.
#
#######################################################################

data_LIFDEL
_chemical_formula_moiety         'C35 H29 N5 O6,4(H2 O1)'
_chemical_name_systematic        
'bis(2-((2-hydroxy-4-methoxybenzylidene)amino)phenyl)pyridine-2,6-dicarboxamide tetrahydrate'
_symmetry_cell_setting           monoclinic
_symmetry_space_group_name_H-M   'P 21/c'
_symmetry_Int_Tables_number      14
_space_group_name_Hall           '-P 2ybc'
loop_
_symmetry_equiv_pos_site_id
_symmetry_equiv_pos_as_xyz
1 x,y,z
2 -x,1/2+y,1/2-z
3 -x,-y,-z
4 x,1/2-y,1/2+z
_cell_length_a                   18.167(4)
_cell_length_b                   22.901(5)
_cell_length_c                   8.2471(17)
_cell_angle_alpha                90
_cell_angle_beta                 101.959(6)
_cell_angle_gamma                90
_cell_volume                     3356.67
_cell_formula_units_Z            4
loop_
_atom_site_label
_atom_site_type_symbol
_atom_site_fract_x
_atom_site_fract_y
_atom_site_fract_z
C1 C 0.6568(3) -0.1040(2) 1.1338(7)
H1 H 0.6386 -0.1386 1.1786
H2 H 0.6207 -0.0914 1.0381
H3 H 0.6641 -0.0737 1.2159
C2 C 0.7625(2) -0.07209(18) 1.0206(5)
C3 C 0.7351(2) -0.01575(17) 1.0022(5)
H4 H 0.6901 -0.0061 1.0329
C4 C 0.7760(2) 0.02640(17) 0.9364(5)
C5 C 0.8433(2) 0.01149(16) 0.8874(5)
C6 C 0.8682(2) -0.04544(18) 0.9083(5)
H5 H 0.9129 -0.0557 0.8772
C7 C 0.8293(2) -0.08699(18) 0.9734(6)
H6 H 0.8472 -0.1251 0.9862
C8 C 0.8862(2) 0.05364(18) 0.8148(5)
H7 H 0.9297 0.0409 0.7828
C9 C 0.9153(2) 0.14589(17) 0.7243(5)
C10 C 0.9929(2) 0.13828(19) 0.7483(6)
H8 H 1.0153 0.1070 0.8120
C11 C 1.0371(2) 0.1759(2) 0.6801(6)
H9 H 1.0888 0.1699 0.6961
C12 C 1.0036(3) 0.2227(2) 0.5876(6)
H10 H 1.0332 0.2485 0.5417
C13 C 0.9278(2) 0.23153(18) 0.5624(6)
H11 H 0.9063 0.2629 0.4979
C14 C 0.8822(2) 0.19411(16) 0.6323(5)
C15 C 0.7647(2) 0.25088(18) 0.5781(6)
C16 C 0.6847(2) 0.25004(18) 0.5981(5)
C17 C 0.6457(3) 0.30241(19) 0.5814(6)
H12 H 0.6682 0.3368 0.5565
C18 C 0.5724(3) 0.3019(2) 0.6028(6)
H13 H 0.5445 0.3363 0.5924
C19 C 0.5409(3) 0.2506(2) 0.6393(6)
H14 H 0.4915 0.2495 0.6542
C20 C 0.5836(2) 0.20084(18) 0.6533(5)
C21 C 0.5479(2) 0.1443(2) 0.6894(5)
C22 C 0.5693(2) 0.03806(19) 0.6999(5)
C23 C 0.5125(2) 0.0197(2) 0.7771(6)
H15 H 0.4873 0.0466 0.8300
C24 C 0.4934(3) -0.0388(3) 0.7755(6)
H16 H 0.4544 -0.0505 0.8255
C25 C 0.5308(3) -0.0802(2) 0.7014(7)
H17 H 0.5172 -0.1193 0.7013
C26 C 0.5884(3) -0.0628(2) 0.6278(6)
H18 H 0.6142 -0.0906 0.5788
C27 C 0.6085(2) -0.00474(19) 0.6255(5)
C28 C 0.7234(2) -0.01491(19) 0.5356(5)
H19 H 0.7277 -0.0520 0.5825
C29 C 0.7816(2) 0.00573(18) 0.4549(5)
C30 C 0.8453(3) -0.0280(2) 0.4516(6)
H20 H 0.8483 -0.0656 0.4950
C31 C 0.9031(3) -0.0072(2) 0.3864(6)
H21 H 0.9449 -0.0307 0.3856
C32 C 0.8999(2) 0.0490(2) 0.3212(5)
C33 C 0.8375(2) 0.08295(18) 0.3193(5)
H22 H 0.8351 0.1203 0.2740
C34 C 0.7781(2) 0.06214(18) 0.3840(5)
C35 C 0.9638(3) 0.1255(2) 0.2145(6)
H23 H 1.0097 0.1323 0.1772
H24 H 0.9620 0.1504 0.3071
H25 H 0.9217 0.1337 0.1261
N1 N 0.86792(17) 0.10753(14) 0.7920(4)
N2 N 0.80424(17) 0.20177(13) 0.6160(4)
H26 H 0.7791 0.1713 0.6323
N3 N 0.65479(17) 0.19916(14) 0.6337(4)
N4 N 0.59037(18) 0.09689(15) 0.6890(5)
H27 H 0.6362 0.1029 0.6810
N5 N 0.66503(19) 0.01673(15) 0.5448(4)
O1 O 0.72716(17) -0.11664(13) 1.0871(4)
O2 O 0.74740(14) 0.08083(11) 0.9205(4)
H28 H 0.7754 0.1023 0.8812
O3 O 0.79177(19) 0.29567(14) 0.5320(6)
O4 O 0.48323(18) 0.14392(14) 0.7140(5)
O5 O 0.71793(15) 0.09726(13) 0.3787(4)
H29 H 0.6866 0.0804 0.4203
O6 O 0.96097(17) 0.06628(14) 0.2633(4)
O7 O 0.6576(3) -0.2168(3) 0.549(2)
O8 O 0.6995(11) -0.2324(10) 0.843(6)
O9 O 0.7755(5) -0.2541(4) 0.8546(17)
O10 O 0.8162(3) -0.2025(3) 0.6063(11)
loop_
_geom_bond_atom_site_label_1
_geom_bond_atom_site_label_2
_geom_bond_site_symmetry_1
_geom_bond_site_symmetry_2
C1 H1 1_555 1_555
H2 C1 1_555 1_555
H3 C1 1_555 1_555
C2 C3 1_555 1_555
C3 H4 1_555 1_555
C4 C3 1_555 1_555
C5 C4 1_555 1_555
C6 C5 1_555 1_555
H5 C6 1_555 1_555
C7 C2 1_555 1_555
H6 C7 1_555 1_555
C8 C5 1_555 1_555
H7 C8 1_555 1_555
C9 C10 1_555 1_555
C10 H8 1_555 1_555
C11 C10 1_555 1_555
H9 C11 1_555 1_555
C12 C11 1_555 1_555
H10 C12 1_555 1_555
C13 C12 1_555 1_555
H11 C13 1_555 1_555
C14 C9 1_555 1_555
C15 C16 1_555 1_555
C16 C17 1_555 1_555
C17 H12 1_555 1_555
C18 C17 1_555 1_555
H13 C18 1_555 1_555
C19 C18 1_555 1_555
H14 C19 1_555 1_555
C20 C19 1_555 1_555
C21 C20 1_555 1_555
C22 C23 1_555 1_555
C23 H15 1_555 1_555
C24 C23 1_555 1_555
H16 C24 1_555 1_555
C25 C24 1_555 1_555
H17 C25 1_555 1_555
C26 C25 1_555 1_555
H18 C26 1_555 1_555
C27 C22 1_555 1_555
C28 H19 1_555 1_555
C29 C28 1_555 1_555
C30 C29 1_555 1_555
H20 C30 1_555 1_555
C31 C30 1_555 1_555
H21 C31 1_555 1_555
C32 C31 1_555 1_555
C33 C32 1_555 1_555
H22 C33 1_555 1_555
C34 C29 1_555 1_555
C35 H23 1_555 1_555
H24 C35 1_555 1_555
H25 C35 1_555 1_555
N1 C8 1_555 1_555
N2 C14 1_555 1_555
H26 N2 1_555 1_555
N3 C16 1_555 1_555
N4 C21 1_555 1_555
H27 N4 1_555 1_555
N5 C27 1_555 1_555
O1 C1 1_555 1_555
O2 C4 1_555 1_555
H28 O2 1_555 1_555
O3 C15 1_555 1_555
O4 C21 1_555 1_555
O5 C34 1_555 1_555
H29 O5 1_555 1_555
O6 C32 1_555 1_555
C2 O1 1_555 1_555
C6 C7 1_555 1_555
C9 N1 1_555 1_555
C13 C14 1_555 1_555
C15 N2 1_555 1_555
C20 N3 1_555 1_555
C22 N4 1_555 1_555
C26 C27 1_555 1_555
C28 N5 1_555 1_555
C33 C34 1_555 1_555
C35 O6 1_555 1_555

#END
