
#######################################################################
#
#                 Cambridge Crystallographic Data Centre
#                                CCDC 
#
#######################################################################
#
# If this CIF has been generated from an entry in the Cambridge 
# Structural Database, then it will include bibliographic, chemical, 
# crystal, experimental, refinement or atomic coordinate data resulting 
# from the CCDC's data processing and validation procedures.
#
#######################################################################

data_LIFDOW
_chemical_formula_moiety         'C15 H11 N1 O1'
_chemical_name_systematic        2H-spiro[1-benzofuran-3,1'-isoindole]
_symmetry_cell_setting           orthorhombic
_symmetry_space_group_name_H-M   'P 21 21 21'
_symmetry_Int_Tables_number      19
_space_group_name_Hall           'P 2ac 2ab'
loop_
_symmetry_equiv_pos_site_id
_symmetry_equiv_pos_as_xyz
1 x,y,z
2 1/2-x,-y,1/2+z
3 -x,1/2+y,1/2-z
4 1/2+x,1/2-y,-z
_cell_length_a                   6.4849(5)
_cell_length_b                   7.9199(6)
_cell_length_c                   21.9097(17)
_cell_angle_alpha                90
_cell_angle_beta                 90
_cell_angle_gamma                90
_cell_volume                     1125.28
_exptl_crystal_colour            colorless
_exptl_crystal_description       block
_cell_formula_units_Z            4
loop_
_atom_site_label
_atom_site_type_symbol
_atom_site_fract_x
_atom_site_fract_y
_atom_site_fract_z
O1 O -0.09289(19) 0.72290(18) 0.38945(6)
N1 N 0.3547(2) 0.67340(17) 0.44963(6)
C1 C 0.4915(2) 0.40441(19) 0.44266(7)
C2 C 0.4986(3) 0.5754(2) 0.46842(7)
H1 H 0.6001 0.6100 0.4964
C3 C 0.3208(2) 0.4020(2) 0.40426(7)
C4 C 0.2273(2) 0.5761(2) 0.40510(7)
C5 C 0.2219(3) 0.6713(2) 0.34505(7)
C6 C 0.6111(3) 0.2616(2) 0.45185(8)
H2 H 0.7267 0.2647 0.4777
C7 C 0.2646(3) 0.2545(2) 0.37487(8)
H3 H 0.1487 0.2514 0.3491
C8 C 0.0360(3) 0.7559(2) 0.34139(8)
C9 C -0.0020(3) 0.5834(2) 0.42248(8)
H4 H -0.0706 0.4775 0.4115
H5 H -0.0171 0.6007 0.4665
C10 C 0.3688(3) 0.6914(2) 0.30024(8)
H6 H 0.4959 0.6346 0.3026
C11 C 0.5561(3) 0.1147(2) 0.42196(8)
H7 H 0.6358 0.0166 0.4271
C12 C 0.3837(3) 0.1110(2) 0.38431(8)
H8 H 0.3469 0.0096 0.3649
C13 C -0.0097(4) 0.8643(3) 0.29372(10)
H9 H -0.1358 0.9225 0.2918
C14 C 0.1391(4) 0.8828(3) 0.24907(10)
H10 H 0.1130 0.9555 0.2161
C15 C 0.3246(4) 0.7979(3) 0.25137(9)
H11 H 0.4215 0.8120 0.2199
loop_
_geom_bond_atom_site_label_1
_geom_bond_atom_site_label_2
_geom_bond_site_symmetry_1
_geom_bond_site_symmetry_2
O1 C8 1_555 1_555
N1 C2 1_555 1_555
C1 C2 1_555 1_555
C2 H1 1_555 1_555
C3 C1 1_555 1_555
C4 N1 1_555 1_555
C5 C4 1_555 1_555
C6 C1 1_555 1_555
H2 C6 1_555 1_555
C7 C3 1_555 1_555
H3 C7 1_555 1_555
C8 C5 1_555 1_555
C9 O1 1_555 1_555
H4 C9 1_555 1_555
H5 C9 1_555 1_555
C10 C5 1_555 1_555
H6 C10 1_555 1_555
C11 C6 1_555 1_555
H7 C11 1_555 1_555
C12 C7 1_555 1_555
H8 C12 1_555 1_555
C13 C8 1_555 1_555
H9 C13 1_555 1_555
C14 C13 1_555 1_555
H10 C14 1_555 1_555
C15 C10 1_555 1_555
H11 C15 1_555 1_555
C3 C4 1_555 1_555
C4 C9 1_555 1_555
C11 C12 1_555 1_555
C14 C15 1_555 1_555

#END
