
#######################################################################
#
#                 Cambridge Crystallographic Data Centre
#                                CCDC 
#
#######################################################################
#
# If this CIF has been generated from an entry in the Cambridge 
# Structural Database, then it will include bibliographic, chemical, 
# crystal, experimental, refinement or atomic coordinate data resulting 
# from the CCDC's data processing and validation procedures.
#
#######################################################################

data_LIFDIP
_chemical_formula_moiety         'C39 H33 N5 O4,C2 H6 O1'
_chemical_name_systematic        
'bis(2-((4-oxo-4-phenylbut-2-en-2-yl)amino)phenyl)pyridine-2,6-dicarboxamide ethanol solvate'
_symmetry_cell_setting           triclinic
_symmetry_space_group_name_H-M   'P -1'
_symmetry_Int_Tables_number      2
_space_group_name_Hall           '-P 1'
loop_
_symmetry_equiv_pos_site_id
_symmetry_equiv_pos_as_xyz
1 x,y,z
2 -x,-y,-z
_cell_length_a                   11.895(4)
_cell_length_b                   12.584(4)
_cell_length_c                   13.191(4)
_cell_angle_alpha                106.264(6)
_cell_angle_beta                 94.199(6)
_cell_angle_gamma                107.911(6)
_cell_volume                     1775.98
_cell_formula_units_Z            2
loop_
_atom_site_label
_atom_site_type_symbol
_atom_site_fract_x
_atom_site_fract_y
_atom_site_fract_z
C1 C 0.5045(2) 0.3592(2) 0.4611(2)
H1 H 0.4856 0.3945 0.4122
C2 C 0.4126(3) 0.2877(3) 0.4965(3)
H2 H 0.3331 0.2775 0.4734
C3 C 0.4401(3) 0.2319(3) 0.5662(3)
H3 H 0.3792 0.1840 0.5904
C4 C 0.5584(3) 0.2476(3) 0.5998(3)
H4 H 0.5769 0.2083 0.6452
C5 C 0.6493(3) 0.3210(2) 0.5667(2)
H5 H 0.7287 0.3319 0.5908
C6 C 0.6233(2) 0.3789(2) 0.4972(2)
C7 C 0.7202(2) 0.4665(2) 0.4664(2)
C8 C 0.8296(2) 0.5291(2) 0.5407(2)
H6 H 0.8381 0.5077 0.6020
C9 C 0.9233(2) 0.6183(2) 0.5294(2)
C10 C 1.0357(2) 0.6734(3) 0.6116(2)
H7 H 1.0921 0.7341 0.5920
H8 H 1.0699 0.6144 0.6153
H9 H 1.0171 0.7070 0.6804
C11 C 1.0098(2) 0.7427(2) 0.4191(2)
C12 C 1.0636(3) 0.8557(3) 0.4887(2)
H10 H 1.0350 0.8789 0.5521
C13 C 1.1589(3) 0.9349(3) 0.4660(3)
H11 H 1.1948 1.0106 0.5142
C14 C 1.2012(3) 0.9025(3) 0.3725(3)
H12 H 1.2670 0.9555 0.3581
C15 C 1.1463(2) 0.7914(3) 0.2997(2)
H13 H 1.1745 0.7700 0.2359
C16 C 1.0489(2) 0.7113(2) 0.3214(2)
C17 C 1.0369(2) 0.5242(3) 0.1913(2)
C18 C 0.9517(2) 0.4084(2) 0.1170(2)
C19 C 0.9964(3) 0.3347(3) 0.0451(2)
H14 H 1.0780 0.3567 0.0425
C20 C 0.9188(3) 0.2296(3) -0.0214(3)
H15 H 0.9468 0.1780 -0.0693
C21 C 0.7981(3) 0.2005(3) -0.0169(2)
H16 H 0.7432 0.1300 -0.0628
C22 C 0.7600(2) 0.2778(2) 0.0571(2)
C23 C 0.6287(2) 0.2478(2) 0.0652(2)
C24 C 0.48652(19) 0.3028(2) 0.17612(19)
C25 C 0.4109(2) 0.1955(2) 0.1788(2)
H17 H 0.4356 0.1303 0.1618
C26 C 0.2994(2) 0.1848(2) 0.2064(2)
H18 H 0.2488 0.1122 0.2074
C27 C 0.2626(2) 0.2815(2) 0.2325(2)
H19 H 0.1873 0.2738 0.2512
C28 C 0.3366(2) 0.3890(2) 0.2311(2)
H20 H 0.3122 0.4543 0.2507
C29 C 0.44808(19) 0.4003(2) 0.2005(2)
C30 C 0.3791(2) 0.5476(2) 0.0863(2)
H21 H 0.3282 0.4765 0.0956
H22 H 0.3810 0.5355 0.0114
H23 H 0.3484 0.6101 0.1142
C31 C 0.5026(2) 0.5797(2) 0.1448(2)
C32 C 0.5923(2) 0.6781(2) 0.1420(2)
H24 H 0.5704 0.7258 0.1076
C33 C 0.7148(2) 0.7132(2) 0.1869(2)
C34 C 0.8009(2) 0.8203(2) 0.1702(2)
C35 C 0.7796(2) 0.8537(2) 0.0808(2)
H25 H 0.7121 0.8078 0.0284
C36 C 0.8577(3) 0.9544(2) 0.0692(3)
H26 H 0.8430 0.9755 0.0087
C37 C 0.9573(3) 1.0241(2) 0.1463(2)
H27 H 1.0090 1.0926 0.1385
C38 C 0.9802(2) 0.9920(2) 0.2350(2)
H28 H 1.0477 1.0384 0.2871
C39 C 0.9019(2) 0.8897(2) 0.2463(2)
H29 H 0.9179 0.8679 0.3061
N1 N 0.91581(18) 0.65745(18) 0.44408(17)
H30 H 0.8480 0.6280 0.4012
N2 N 0.98621(17) 0.59817(18) 0.24559(17)
H31 H 0.9091 0.5756 0.2337
N3 N 0.83542(17) 0.38171(18) 0.12354(16)
N4 N 0.60378(17) 0.31632(17) 0.15209(17)
H32 H 0.6629 0.3725 0.1965
N5 N 0.52752(16) 0.50953(16) 0.19715(17)
H33 H 0.5992 0.5334 0.2323
O1 O 0.70170(16) 0.48352(16) 0.37897(15)
O2 O 1.14501(17) 0.5451(2) 0.20262(19)
O3 O 0.55164(17) 0.16784(17) -0.00515(16)
O4 O 0.75526(14) 0.65826(16) 0.23794(16)
O5 O 0.4469(2) 0.9489(2) 0.2257(2)
H34 H 0.4552 0.9046 0.1702
C40 C 0.5586(5) 1.0074(5) 0.2951(5)
H35 H 0.5450 1.0548 0.3617
H36 H 0.5857 0.9478 0.3115
C41 C 0.6486(4) 1.0770(5) 0.2632(6)
H37 H 0.7178 1.1121 0.3192
H38 H 0.6249 1.1378 0.2476
H39 H 0.6679 1.0311 0.1999
loop_
_geom_bond_atom_site_label_1
_geom_bond_atom_site_label_2
_geom_bond_site_symmetry_1
_geom_bond_site_symmetry_2
C1 H1 1_555 1_555
C2 C1 1_555 1_555
H2 C2 1_555 1_555
C3 C2 1_555 1_555
H3 C3 1_555 1_555
C4 C3 1_555 1_555
H4 C4 1_555 1_555
C5 C4 1_555 1_555
H5 C5 1_555 1_555
C6 C1 1_555 1_555
C7 C6 1_555 1_555
C8 C7 1_555 1_555
H6 C8 1_555 1_555
C9 C8 1_555 1_555
C10 C9 1_555 1_555
H7 C10 1_555 1_555
H8 C10 1_555 1_555
H9 C10 1_555 1_555
C11 C12 1_555 1_555
C12 H10 1_555 1_555
C13 C12 1_555 1_555
H11 C13 1_555 1_555
C14 C13 1_555 1_555
H12 C14 1_555 1_555
C15 C14 1_555 1_555
H13 C15 1_555 1_555
C16 C11 1_555 1_555
C17 C18 1_555 1_555
C18 C19 1_555 1_555
C19 H14 1_555 1_555
C20 C19 1_555 1_555
H15 C20 1_555 1_555
C21 C20 1_555 1_555
H16 C21 1_555 1_555
C22 C21 1_555 1_555
C23 C22 1_555 1_555
C24 C25 1_555 1_555
C25 H17 1_555 1_555
C26 C25 1_555 1_555
H18 C26 1_555 1_555
C27 C26 1_555 1_555
H19 C27 1_555 1_555
C28 C27 1_555 1_555
H20 C28 1_555 1_555
C29 C24 1_555 1_555
C30 H21 1_555 1_555
H22 C30 1_555 1_555
H23 C30 1_555 1_555
C31 C30 1_555 1_555
C32 C31 1_555 1_555
H24 C32 1_555 1_555
C33 C32 1_555 1_555
C34 C33 1_555 1_555
C35 C34 1_555 1_555
H25 C35 1_555 1_555
C36 C35 1_555 1_555
H26 C36 1_555 1_555
C37 C36 1_555 1_555
H27 C37 1_555 1_555
C38 C37 1_555 1_555
H28 C38 1_555 1_555
C39 C34 1_555 1_555
H29 C39 1_555 1_555
N1 C9 1_555 1_555
H30 N1 1_555 1_555
N2 C16 1_555 1_555
H31 N2 1_555 1_555
N3 C18 1_555 1_555
N4 C23 1_555 1_555
H32 N4 1_555 1_555
N5 C29 1_555 1_555
H33 N5 1_555 1_555
O1 C7 1_555 1_555
O2 C17 1_555 1_555
O3 C23 1_555 1_555
O4 C33 1_555 1_555
O5 H34 1_555 1_555
C40 O5 1_555 1_555
H35 C40 1_555 1_555
H36 C40 1_555 1_555
C41 C40 1_555 1_555
H37 C41 1_555 1_555
H38 C41 1_555 1_555
H39 C41 1_555 1_555
C5 C6 1_555 1_555
C11 N1 1_555 1_555
C15 C16 1_555 1_555
C17 N2 1_555 1_555
C22 N3 1_555 1_555
C24 N4 1_555 1_555
C28 C29 1_555 1_555
C31 N5 1_555 1_555
C38 C39 1_555 1_555

#END
