
#######################################################################
#
#                 Cambridge Crystallographic Data Centre
#                                CCDC 
#
#######################################################################
#
# If this CIF has been generated from an entry in the Cambridge 
# Structural Database, then it will include bibliographic, chemical, 
# crystal, experimental, refinement or atomic coordinate data resulting 
# from the CCDC's data processing and validation procedures.
#
#######################################################################

data_LIFDAI
_chemical_formula_moiety         'C68 H44 N4,C3 H6 O1'
_chemical_name_systematic        
"2,2'-[(2,2-diphenylethene-1,1-diyl)bis(4,1-phenylene)]bis(1-phenyl-1H-phenanthro[9,10-d]imidazole) acetone solvate"
_symmetry_cell_setting           triclinic
_symmetry_space_group_name_H-M   'P -1'
_symmetry_Int_Tables_number      2
_space_group_name_Hall           '-P 1'
loop_
_symmetry_equiv_pos_site_id
_symmetry_equiv_pos_as_xyz
1 x,y,z
2 -x,-y,-z
_cell_length_a                   9.8212(14)
_cell_length_b                   13.607(2)
_cell_length_c                   19.760(3)
_cell_angle_alpha                78.113(2)
_cell_angle_beta                 89.046(2)
_cell_angle_gamma                83.269(2)
_cell_volume                     2566.15
_exptl_crystal_colour            colorless
_exptl_crystal_description       block
_cell_formula_units_Z            2
loop_
_atom_site_label
_atom_site_type_symbol
_atom_site_fract_x
_atom_site_fract_y
_atom_site_fract_z
C1 C 0.80214(18) -0.06775(13) 0.30570(8)
C2 C 0.7103(2) -0.08011(14) 0.36045(9)
H1 H 0.6272 -0.1040 0.3549
C3 C 0.7414(2) -0.05721(15) 0.42289(9)
H2 H 0.6790 -0.0652 0.4590
C4 C 0.8659(2) -0.02221(15) 0.43197(9)
H3 H 0.8856 -0.0046 0.4735
C5 C 0.9604(2) -0.01365(14) 0.37882(9)
H4 H 1.0452 0.0073 0.3853
C6 C 0.92921(19) -0.03617(13) 0.31633(9)
H5 H 0.9932 -0.0303 0.2809
C7 C 0.70358(18) -0.18320(13) 0.23908(9)
C8 C 0.76979(19) -0.27386(14) 0.27633(10)
H6 H 0.8471 -0.2734 0.3028
C9 C 0.7211(2) -0.36453(15) 0.27419(11)
H7 H 0.7675 -0.4248 0.2981
C10 C 0.6046(2) -0.36636(16) 0.23702(12)
H8 H 0.5732 -0.4277 0.2352
C11 C 0.5343(2) -0.27645(16) 0.20235(11)
H9 H 0.4541 -0.2774 0.1782
C12 C 0.58236(19) -0.18542(14) 0.20344(9)
H10 H 0.5340 -0.1253 0.1804
C13 C 0.76232(18) -0.08697(13) 0.23770(8)
C14 C 0.77892(18) -0.02016(13) 0.17786(8)
C15 C 0.81643(18) 0.08252(13) 0.17854(8)
C16 C 0.73488(18) 0.14727(13) 0.21295(9)
H11 H 0.6527 0.1281 0.2325
C17 C 0.77442(19) 0.23962(13) 0.21846(9)
H12 H 0.7186 0.2820 0.2414
C18 C 0.89753(18) 0.26956(13) 0.18981(8)
C19 C 0.97649(19) 0.20659(13) 0.15294(9)
H13 H 1.0575 0.2265 0.1324
C20 C 0.93579(19) 0.11520(14) 0.14657(9)
H14 H 0.9883 0.0750 0.1208
C21 C 0.94751(18) 0.36529(13) 0.19595(9)
C22 C 1.01865(18) 0.48519(13) 0.24307(9)
C23 C 1.05835(19) 0.54975(14) 0.28624(10)
C24 C 1.0457(2) 0.53123(15) 0.35896(10)
H15 H 1.0126 0.4721 0.3819
C25 C 1.0814(2) 0.59914(17) 0.39633(12)
H16 H 1.0712 0.5863 0.4441
C26 C 1.1329(2) 0.68719(18) 0.36265(14)
H17 H 1.1566 0.7333 0.3880
C27 C 1.1487(2) 0.70610(17) 0.29248(13)
H18 H 1.1855 0.7645 0.2710
C28 C 1.11112(19) 0.63997(14) 0.25158(11)
C29 C 1.12217(19) 0.66389(13) 0.17636(11)
C30 C 1.1665(2) 0.75520(15) 0.13963(13)
H19 H 1.1918 0.8019 0.1640
C31 C 1.1729(2) 0.77604(16) 0.06874(13)
H20 H 1.2013 0.8370 0.0459
C32 C 1.1378(2) 0.70773(16) 0.03055(12)
H21 H 1.1446 0.7222 -0.0174
C33 C 1.0929(2) 0.61848(15) 0.06415(10)
H22 H 1.0681 0.5728 0.0388
C34 C 1.08440(19) 0.59613(13) 0.13632(10)
C35 C 1.03367(18) 0.50505(13) 0.17264(9)
C36 C 0.93657(19) 0.33617(13) 0.32563(9)
C37 C 1.0458(2) 0.27306(15) 0.35954(10)
H23 H 1.1302 0.2664 0.3379
C38 C 1.0282(3) 0.21984(16) 0.42618(10)
H24 H 1.1014 0.1778 0.4497
C39 C 0.9025(3) 0.22902(16) 0.45772(10)
H25 H 0.8913 0.1933 0.5026
C40 C 0.7933(3) 0.29081(17) 0.42320(11)
H26 H 0.7083 0.2959 0.4444
C41 C 0.8103(2) 0.34558(15) 0.35662(10)
H27 H 0.7374 0.3881 0.3333
C42 C 0.76044(18) -0.04450(13) 0.10889(8)
C43 C 0.68367(19) 0.02368(13) 0.05735(9)
H28 H 0.6463 0.0861 0.0657
C44 C 0.66216(19) -0.00003(13) -0.00607(9)
H29 H 0.6106 0.0465 -0.0399
C45 C 0.71687(18) -0.09275(13) -0.01982(8)
C46 C 0.79866(19) -0.15952(14) 0.03047(9)
H30 H 0.8390 -0.2207 0.0214
C47 C 0.82025(19) -0.13550(14) 0.09369(9)
H31 H 0.8755 -0.1807 0.1266
C48 C 0.69060(18) -0.11535(13) -0.08774(9)
C49 C 0.64997(18) -0.19881(13) -0.16921(8)
C50 C 0.66024(18) -0.09855(13) -0.19638(8)
C51 C 0.64941(18) -0.05812(13) -0.26939(9)
C52 C 0.66592(19) 0.04337(14) -0.29760(9)
H32 H 0.6838 0.0861 -0.2685
C53 C 0.6560(2) 0.07973(15) -0.36724(9)
H33 H 0.6671 0.1470 -0.3855
C54 C 0.6291(2) 0.01556(15) -0.41116(9)
H34 H 0.6223 0.0404 -0.4586
C55 C 0.61255(19) -0.08385(14) -0.38459(9)
H35 H 0.5945 -0.1254 -0.4145
C56 C 0.62236(18) -0.12434(14) -0.31274(9)
C57 C 0.61158(18) -0.23123(14) -0.28338(9)
C58 C 0.58972(19) -0.30001(14) -0.32567(9)
H36 H 0.5727 -0.2756 -0.3726
C59 C 0.5929(2) -0.40190(15) -0.29936(10)
H37 H 0.5795 -0.4456 -0.3286
C60 C 0.61620(19) -0.43985(14) -0.22902(10)
H38 H 0.6208 -0.5091 -0.2115
C61 C 0.63238(19) -0.37558(14) -0.18555(9)
H39 H 0.6453 -0.4015 -0.1384
C62 C 0.62981(17) -0.27066(13) -0.21105(9)
C63 C 0.64787(18) -0.29580(13) -0.04407(8)
C64 C 0.75520(19) -0.37071(14) -0.02201(9)
H40 H 0.8398 -0.3683 -0.0438
C65 C 0.7351(2) -0.44942(15) 0.03294(9)
H41 H 0.8071 -0.4992 0.0488
C66 C 0.6082(2) -0.45397(14) 0.06416(9)
H42 H 0.5951 -0.5067 0.1010
C67 C 0.5011(2) -0.38047(15) 0.04066(11)
H43 H 0.4155 -0.3843 0.0612
C68 C 0.5206(2) -0.30075(14) -0.01359(10)
H44 H 0.4485 -0.2510 -0.0293
N1 N 0.95927(15) 0.39517(11) 0.25804(7)
N2 N 0.99157(15) 0.42995(11) 0.14367(7)
N3 N 0.66975(15) -0.20993(11) -0.09833(7)
N4 N 0.68528(16) -0.04670(11) -0.14584(7)
loop_
_geom_bond_atom_site_label_1
_geom_bond_atom_site_label_2
_geom_bond_site_symmetry_1
_geom_bond_site_symmetry_2
C1 C2 1_555 1_555
C2 H1 1_555 1_555
C3 C2 1_555 1_555
H2 C3 1_555 1_555
C4 C3 1_555 1_555
H3 C4 1_555 1_555
C5 C4 1_555 1_555
H4 C5 1_555 1_555
C6 C1 1_555 1_555
H5 C6 1_555 1_555
C7 C8 1_555 1_555
C8 H6 1_555 1_555
C9 C8 1_555 1_555
H7 C9 1_555 1_555
C10 C9 1_555 1_555
H8 C10 1_555 1_555
C11 C10 1_555 1_555
H9 C11 1_555 1_555
C12 C7 1_555 1_555
H10 C12 1_555 1_555
C13 C1 1_555 1_555
C14 C13 1_555 1_555
C15 C14 1_555 1_555
C16 C15 1_555 1_555
H11 C16 1_555 1_555
C17 C16 1_555 1_555
H12 C17 1_555 1_555
C18 C17 1_555 1_555
C19 C18 1_555 1_555
H13 C19 1_555 1_555
C20 C15 1_555 1_555
H14 C20 1_555 1_555
C21 C18 1_555 1_555
C22 C23 1_555 1_555
C23 C24 1_555 1_555
C24 H15 1_555 1_555
C25 C24 1_555 1_555
H16 C25 1_555 1_555
C26 C25 1_555 1_555
H17 C26 1_555 1_555
C27 C26 1_555 1_555
H18 C27 1_555 1_555
C28 C23 1_555 1_555
C29 C28 1_555 1_555
C30 C29 1_555 1_555
H19 C30 1_555 1_555
C31 C30 1_555 1_555
H20 C31 1_555 1_555
C32 C31 1_555 1_555
H21 C32 1_555 1_555
C33 C32 1_555 1_555
H22 C33 1_555 1_555
C34 C29 1_555 1_555
C35 C22 1_555 1_555
C36 C37 1_555 1_555
C37 H23 1_555 1_555
C38 C37 1_555 1_555
H24 C38 1_555 1_555
C39 C38 1_555 1_555
H25 C39 1_555 1_555
C40 C39 1_555 1_555
H26 C40 1_555 1_555
C41 C36 1_555 1_555
H27 C41 1_555 1_555
C42 C14 1_555 1_555
C43 C42 1_555 1_555
H28 C43 1_555 1_555
C44 C43 1_555 1_555
H29 C44 1_555 1_555
C45 C44 1_555 1_555
C46 C45 1_555 1_555
H30 C46 1_555 1_555
C47 C42 1_555 1_555
H31 C47 1_555 1_555
C48 C45 1_555 1_555
C49 C50 1_555 1_555
C50 C51 1_555 1_555
C51 C52 1_555 1_555
C52 H32 1_555 1_555
C53 C52 1_555 1_555
H33 C53 1_555 1_555
C54 C53 1_555 1_555
H34 C54 1_555 1_555
C55 C54 1_555 1_555
H35 C55 1_555 1_555
C56 C51 1_555 1_555
C57 C56 1_555 1_555
C58 C57 1_555 1_555
H36 C58 1_555 1_555
C59 C58 1_555 1_555
H37 C59 1_555 1_555
C60 C59 1_555 1_555
H38 C60 1_555 1_555
C61 C60 1_555 1_555
H39 C61 1_555 1_555
C62 C49 1_555 1_555
C63 C64 1_555 1_555
C64 H40 1_555 1_555
C65 C64 1_555 1_555
H41 C65 1_555 1_555
C66 C65 1_555 1_555
H42 C66 1_555 1_555
C67 C66 1_555 1_555
H43 C67 1_555 1_555
C68 C63 1_555 1_555
H44 C68 1_555 1_555
N1 C21 1_555 1_555
N2 C21 1_555 1_555
N3 C48 1_555 1_555
N4 C48 1_555 1_555
C5 C6 1_555 1_555
C7 C13 1_555 1_555
C11 C12 1_555 1_555
C19 C20 1_555 1_555
C22 N1 1_555 1_555
C27 C28 1_555 1_555
C33 C34 1_555 1_555
C34 C35 1_555 1_555
C35 N2 1_555 1_555
C36 N1 1_555 1_555
C40 C41 1_555 1_555
C46 C47 1_555 1_555
C49 N3 1_555 1_555
C50 N4 1_555 1_555
C55 C56 1_555 1_555
C57 C62 1_555 1_555
C61 C62 1_555 1_555
C63 N3 1_555 1_555
C67 C68 1_555 1_555

#END
