
#######################################################################
#
#                 Cambridge Crystallographic Data Centre
#                                CCDC 
#
#######################################################################
#
# If this CIF has been generated from an entry in the Cambridge 
# Structural Database, then it will include bibliographic, chemical, 
# crystal, experimental, refinement or atomic coordinate data resulting 
# from the CCDC's data processing and validation procedures.
#
#######################################################################

data_LIFFIR
_chemical_name_common            'dihydroresveratrol tricyanate'
_chemical_formula_moiety         'C17 H11 N3 O3'
_chemical_name_systematic        
'3-Cyanato-5-(2-(4-cyanatophenyl)ethyl)phenyl cyanate'
_symmetry_cell_setting           monoclinic
_symmetry_space_group_name_H-M   'P 21/c'
_symmetry_Int_Tables_number      14
_space_group_name_Hall           '-P 2ybc'
loop_
_symmetry_equiv_pos_site_id
_symmetry_equiv_pos_as_xyz
1 x,y,z
2 -x,1/2+y,1/2-z
3 -x,-y,-z
4 x,1/2-y,1/2+z
_cell_length_a                   4.4993(2)
_cell_length_b                   19.1442(8)
_cell_length_c                   17.7080(7)
_cell_angle_alpha                90
_cell_angle_beta                 93.7330(10)
_cell_angle_gamma                90
_cell_volume                     1522.05
_exptl_crystal_colour            colorless
_exptl_crystal_description       needle
_chemical_melting_point          '391 K'
_cell_formula_units_Z            4
loop_
_atom_site_label
_atom_site_type_symbol
_atom_site_fract_x
_atom_site_fract_y
_atom_site_fract_z
O1 O -0.5613(4) 1.08035(8) 0.30300(7)
O2 O 0.5450(4) 0.66162(8) 0.62381(7)
O3 O 0.6098(3) 0.58374(7) 0.36942(7)
N1 N -0.7991(5) 1.15169(11) 0.39360(13)
C1 C 0.2978(4) 0.67800(8) 0.39503(10)
H1 H 0.2493 0.6802 0.3432
C2 C 0.4931(4) 0.62824(8) 0.42457(9)
C3 C -0.6853(5) 1.11776(11) 0.35208(12)
C4 C -0.3871(4) 1.02195(9) 0.32975(10)
C5 C -0.2687(5) 0.98225(11) 0.27539(11)
H2 H -0.3048 0.993 0.2244
C6 C -0.0941(4) 0.92572(10) 0.29764(11)
H3 H -0.0114 0.8984 0.261
C7 C -0.0395(4) 0.90889(8) 0.37270(10)
C8 C 0.1525(4) 0.84753(9) 0.39775(11)
H4 H 0.272 0.8603 0.4432
H5 H 0.2873 0.8371 0.3587
C9 C -0.0254(4) 0.78241(9) 0.41359(11)
H6 H -0.17 0.7932 0.4502
H7 H -0.133 0.7671 0.3673
C10 C 0.1752(3) 0.72464(8) 0.44377(10)
C11 C 0.2537(4) 0.71994(9) 0.52092(10)
H8 H 0.1737 0.7508 0.5548
C12 C 0.4504(4) 0.66926(9) 0.54625(9)
C13 C 0.4246(6) 0.70002(12) 0.67254(12)
N2 N 0.3288(6) 0.73176(13) 0.71842(12)
C14 C -0.3428(4) 1.00722(9) 0.40431(10)
H9 H -0.4277 1.0347 0.4405
C15 C -0.1676(4) 0.95016(9) 0.42519(10)
H10 H -0.1356 0.9394 0.4763
C16 C 0.5760(4) 0.62155(9) 0.49995(9)
H11 H 0.7076 0.5872 0.5185
C17 C 0.7905(5) 0.53450(10) 0.39037(10)
N3 N 0.9506(5) 0.49074(11) 0.40316(11)
loop_
_geom_bond_atom_site_label_1
_geom_bond_atom_site_label_2
_geom_bond_site_symmetry_1
_geom_bond_site_symmetry_2
O1 C3 1_555 1_555
O2 C12 1_555 1_555
O3 C2 1_555 1_555
N1 C3 1_555 1_555
C1 H1 1_555 1_555
C2 C1 1_555 1_555
C4 O1 1_555 1_555
C5 C4 1_555 1_555
H2 C5 1_555 1_555
C6 C5 1_555 1_555
H3 C6 1_555 1_555
C7 C6 1_555 1_555
C8 C7 1_555 1_555
H4 C8 1_555 1_555
H5 C8 1_555 1_555
C9 C8 1_555 1_555
H6 C9 1_555 1_555
H7 C9 1_555 1_555
C10 C1 1_555 1_555
C11 C10 1_555 1_555
H8 C11 1_555 1_555
C12 C11 1_555 1_555
C13 O2 1_555 1_555
N2 C13 1_555 1_555
C14 C4 1_555 1_555
H9 C14 1_555 1_555
C15 C7 1_555 1_555
H10 C15 1_555 1_555
C16 C2 1_555 1_555
H11 C16 1_555 1_555
C17 O3 1_555 1_555
N3 C17 1_555 1_555
C9 C10 1_555 1_555
C12 C16 1_555 1_555
C14 C15 1_555 1_555

#END
