
#######################################################################
#
#                 Cambridge Crystallographic Data Centre
#                                CCDC 
#
#######################################################################
#
# If this CIF has been generated from an entry in the Cambridge 
# Structural Database, then it will include bibliographic, chemical, 
# crystal, experimental, refinement or atomic coordinate data resulting 
# from the CCDC's data processing and validation procedures.
#
#######################################################################

data_LIFMUL
_chemical_formula_moiety         'C35 H34 N6 O2 2+,O4 S1 2-'
_chemical_name_systematic        
'15,21-dioxo-13,14,22,23-tetraaza-3,33-diazoniahexacyclo[33.2.2.1^3,7^.1^29,33^.0^6,11^.0^25,30^]hentetraconta-1(37),3(41),4,6,8,10,12,23,25,27,29(40),30,32,35,38-pentadecaene sulfate unknown solvate'
_symmetry_cell_setting           triclinic
_symmetry_space_group_name_H-M   'P -1'
_symmetry_Int_Tables_number      2
_space_group_name_Hall           '-P 1'
loop_
_symmetry_equiv_pos_site_id
_symmetry_equiv_pos_as_xyz
1 x,y,z
2 -x,-y,-z
_cell_length_a                   12.3237(6)
_cell_length_b                   13.4102(7)
_cell_length_c                   13.7397(6)
_cell_angle_alpha                74.526(4)
_cell_angle_beta                 85.761(3)
_cell_angle_gamma                67.151(3)
_cell_volume                     2015.52
_exptl_crystal_colour            colorless
_exptl_crystal_description       block
_cell_formula_units_Z            2
loop_
_atom_site_label
_atom_site_type_symbol
_atom_site_fract_x
_atom_site_fract_y
_atom_site_fract_z
S1 S 0.3975(3) 0.7840(4) 0.9193(2)
O1 O 0.4681(6) 0.8456(5) 0.8715(4)
O2 O 0.4161(6) 0.7456(7) 1.0280(4)
O3 O 0.4442(12) 0.6657(10) 0.9081(12)
O4 O 0.2797(8) 0.8324(13) 0.8731(9)
O7 O 0.8354(5) 0.7107(10) 0.7226(4)
O8 O 0.9031(7) 0.3094(9) 0.7660(5)
N1 N 0.6414(5) 0.7695(5) 0.7435(4)
H1 H 0.583329 0.775777 0.785719
N2 N 0.6175(5) 0.8038(5) 0.6411(3)
N3 N 0.7319(6) 0.2930(6) 0.8137(4)
H2 H 0.685186 0.283239 0.863754
N4 N 0.6979(5) 0.3092(5) 0.7162(4)
N5 N 0.6888(5) 0.8503(4) 0.2549(3)
N6 N 0.7027(4) 0.3499(4) 0.3273(4)
C1 C 0.7522(7) 0.7266(9) 0.7790(5)
C2 C 0.7680(7) 0.6893(9) 0.8911(5)
H3 H 0.790526 0.742633 0.914395
H4 H 0.691731 0.691612 0.921046
C3 C 0.8578(6) 0.5756(8) 0.9286(5)
H5 H 0.876542 0.562225 1.000970
H6 H 0.930812 0.568583 0.890843
C4 C 0.8137(7) 0.4897(9) 0.9159(5)
H7 H 0.795047 0.503756 0.843380
H8 H 0.739942 0.498171 0.952912
C5 C 0.9028(8) 0.3699(9) 0.9543(5)
H9 H 0.921524 0.356895 1.026553
H10 H 0.976428 0.362421 0.917205
C6 C 0.8625(11) 0.2778(11) 0.9433(6)
H11 H 0.924365 0.203080 0.971727
H12 H 0.789889 0.282786 0.981218
C7 C 0.8388(9) 0.2924(9) 0.8318(6)
C8 C 0.5940(6) 0.3130(5) 0.7061(5)
H13 H 0.551814 0.297039 0.764990
C9 C 0.5369(6) 0.3416(5) 0.6056(4)
C10 C 0.4165(5) 0.3756(5) 0.6023(5)
H14 H 0.376707 0.374722 0.664263
C11 C 0.3488(5) 0.4117(5) 0.5121(5)
H15 H 0.265688 0.433409 0.514019
C12 C 0.4042(5) 0.4152(5) 0.4213(5)
H16 H 0.359768 0.441894 0.359557
C13 C 0.5304(5) 0.3778(5) 0.4214(4)
C14 C 0.5869(5) 0.3827(5) 0.3292(5)
H17 H 0.541858 0.409652 0.267741
C15 C 0.7710(5) 0.3077(5) 0.4135(5)
H18 H 0.854345 0.280867 0.409491
C16 C 0.7208(5) 0.3037(5) 0.5061(5)
H19 H 0.769785 0.276303 0.565300
C17 C 0.5985(5) 0.3392(5) 0.5147(4)
C18 C 0.7598(6) 0.3690(7) 0.2279(5)
H20 H 0.711869 0.367841 0.173787
H21 H 0.839046 0.309178 0.230509
C19 C 0.7696(5) 0.4808(6) 0.2062(4)
C20 C 0.6805(5) 0.5768(6) 0.1453(4)
H22 H 0.619941 0.568378 0.113397
C21 C 0.6815(5) 0.6825(6) 0.1324(4)
H23 H 0.621019 0.746163 0.092452
C22 C 0.7719(6) 0.6962(6) 0.1781(4)
C23 C 0.8606(5) 0.6000(6) 0.2359(4)
H24 H 0.922217 0.607802 0.267030
C24 C 0.8602(5) 0.4935(6) 0.2487(4)
H25 H 0.922201 0.429583 0.286634
C25 C 0.7642(7) 0.8113(6) 0.1718(4)
H26 H 0.729146 0.862226 0.105471
H27 H 0.843755 0.810652 0.179298
C26 C 0.7422(5) 0.8230(5) 0.3494(4)
H28 H 0.825592 0.794681 0.356478
C27 C 0.6741(5) 0.8370(5) 0.4325(4)
H29 H 0.711366 0.818500 0.496569
C28 C 0.5487(5) 0.8789(4) 0.4244(4)
C29 C 0.4724(6) 0.8874(4) 0.5062(4)
C30 C 0.3529(6) 0.9319(5) 0.4866(5)
H30 H 0.301489 0.939242 0.541557
C31 C 0.3041(6) 0.9669(5) 0.3884(6)
H31 H 0.221027 0.996335 0.377533
C32 C 0.3772(7) 0.9581(5) 0.3080(6)
H32 H 0.344934 0.983265 0.241066
C33 C 0.4974(6) 0.9128(5) 0.3250(5)
C34 C 0.5746(7) 0.8958(5) 0.2433(5)
H33 H 0.540994 0.918868 0.176996
C35 C 0.5118(6) 0.8511(5) 0.6128(4)
H34 H 0.453820 0.864403 0.662476
S2? S 0.4095(4) 0.8486(5) 0.9688(4)
O5? O 0.2813(9) 0.9114(12) 0.9556(12)
O6? O 0.4728(17) 0.9095(16) 1.0083(14)
loop_
_geom_bond_atom_site_label_1
_geom_bond_atom_site_label_2
_geom_bond_site_symmetry_1
_geom_bond_site_symmetry_2
S1 O1 1_555 1_555
O2 S1 1_555 1_555
O3 S1 1_555 1_555
O4 S1 1_555 1_555
O7 C1 1_555 1_555
O8 C7 1_555 1_555
N1 H1 1_555 1_555
N2 N1 1_555 1_555
N3 H2 1_555 1_555
N4 N3 1_555 1_555
N5 C25 1_555 1_555
N6 C14 1_555 1_555
C1 N1 1_555 1_555
C2 C1 1_555 1_555
H3 C2 1_555 1_555
H4 C2 1_555 1_555
C3 C2 1_555 1_555
H5 C3 1_555 1_555
H6 C3 1_555 1_555
C4 C3 1_555 1_555
H7 C4 1_555 1_555
H8 C4 1_555 1_555
C5 C4 1_555 1_555
H9 C5 1_555 1_555
H10 C5 1_555 1_555
C6 C5 1_555 1_555
H11 C6 1_555 1_555
H12 C6 1_555 1_555
C7 N3 1_555 1_555
C8 N4 1_555 1_555
H13 C8 1_555 1_555
C9 C8 1_555 1_555
C10 C9 1_555 1_555
H14 C10 1_555 1_555
C11 C10 1_555 1_555
H15 C11 1_555 1_555
C12 C11 1_555 1_555
H16 C12 1_555 1_555
C13 C12 1_555 1_555
C14 C13 1_555 1_555
H17 C14 1_555 1_555
C15 N6 1_555 1_555
H18 C15 1_555 1_555
C16 C15 1_555 1_555
H19 C16 1_555 1_555
C17 C9 1_555 1_555
C18 N6 1_555 1_555
H20 C18 1_555 1_555
H21 C18 1_555 1_555
C19 C18 1_555 1_555
C20 C19 1_555 1_555
H22 C20 1_555 1_555
C21 C20 1_555 1_555
H23 C21 1_555 1_555
C22 C21 1_555 1_555
C23 C22 1_555 1_555
H24 C23 1_555 1_555
C24 C19 1_555 1_555
H25 C24 1_555 1_555
C25 C22 1_555 1_555
H26 C25 1_555 1_555
H27 C25 1_555 1_555
C26 N5 1_555 1_555
H28 C26 1_555 1_555
C27 C26 1_555 1_555
H29 C27 1_555 1_555
C28 C27 1_555 1_555
C29 C28 1_555 1_555
C30 C29 1_555 1_555
H30 C30 1_555 1_555
C31 C30 1_555 1_555
H31 C31 1_555 1_555
C32 C31 1_555 1_555
H32 C32 1_555 1_555
C33 C28 1_555 1_555
C34 N5 1_555 1_555
H33 C34 1_555 1_555
C35 N2 1_555 1_555
H34 C35 1_555 1_555
C6 C7 1_555 1_555
C13 C17 1_555 1_555
C16 C17 1_555 1_555
C23 C24 1_555 1_555
C29 C35 1_555 1_555
C32 C33 1_555 1_555
C33 C34 1_555 1_555

#END
