
#######################################################################
#
#                 Cambridge Crystallographic Data Centre
#                                CCDC 
#
#######################################################################
#
# If this CIF has been generated from an entry in the Cambridge 
# Structural Database, then it will include bibliographic, chemical, 
# crystal, experimental, refinement or atomic coordinate data resulting 
# from the CCDC's data processing and validation procedures.
#
#######################################################################

data_LIFPUO
_chemical_formula_moiety         'C12 H24 O6,C6 H7 N2 O2 1+,H1 O4 S1 1-'
_chemical_name_systematic        '4-nitroanilinium hydrogen sulfate 18-crown-6'
_symmetry_cell_setting           monoclinic
_symmetry_space_group_name_H-M   'P 21/n'
_symmetry_Int_Tables_number      14
_space_group_name_Hall           '-P 2yn'
loop_
_symmetry_equiv_pos_site_id
_symmetry_equiv_pos_as_xyz
1 x,y,z
2 1/2-x,1/2+y,1/2-z
3 -x,-y,-z
4 1/2+x,1/2-y,1/2+z
_cell_length_a                   10.3715(18)
_cell_length_b                   18.235(3)
_cell_length_c                   13.384(3)
_cell_angle_alpha                90
_cell_angle_beta                 112.736(2)
_cell_angle_gamma                90
_cell_volume                     2334.55
_exptl_crystal_colour            yellow
_exptl_crystal_description       block
_cell_formula_units_Z            4
loop_
_atom_site_label
_atom_site_type_symbol
_atom_site_fract_x
_atom_site_fract_y
_atom_site_fract_z
S1 S 0.83899(5) 0.07508(2) 0.94614(3)
O1 O 0.71270(14) 0.10463(8) 0.95149(11)
O2 O 0.95889(14) 0.07757(7) 1.05014(10)
O3 O 0.80462(14) -0.00892(7) 0.92137(11)
H1 H 0.8840 -0.0294 0.9323
O4 O 0.87290(14) 0.10467(7) 0.85958(10)
O5 O 0.37796(13) -0.03224(6) 0.59047(10)
O6 O 0.32861(13) 0.00754(7) 0.77200(9)
O7 O 0.21017(13) 0.14510(7) 0.78540(9)
O8 O 0.03713(13) 0.20848(6) 0.58133(9)
O9 O 0.04660(13) 0.16179(7) 0.38403(10)
O10 O 0.17180(13) 0.02330(7) 0.39790(9)
C1 C 0.2861(2) -0.02083(11) 0.39759(15)
H2 H 0.3661 0.0110 0.4034
H3 H 0.2576 -0.0486 0.3289
C2 C 0.3283(2) -0.07272(10) 0.49117(16)
H4 H 0.2472 -0.1032 0.4867
H5 H 0.4029 -0.1057 0.4888
C3 C 0.4155(2) -0.07980(10) 0.68204(15)
H6 H 0.4978 -0.1095 0.6875
H7 H 0.3372 -0.1136 0.6732
C4 C 0.44904(19) -0.03530(10) 0.78324(15)
H8 H 0.4735 -0.0681 0.8469
H9 H 0.5298 -0.0028 0.7940
C5 C 0.3379(2) 0.03879(10) 0.87314(14)
H10 H 0.4230 0.0694 0.9040
H11 H 0.3438 -0.0008 0.9254
C6 C 0.2112(2) 0.08461(10) 0.85388(15)
H12 H 0.1259 0.0547 0.8190
H13 H 0.2122 0.1030 0.9238
C7 C 0.0975(2) 0.19448(11) 0.77113(15)
H14 H 0.1157 0.2217 0.8392
H15 H 0.0095 0.1666 0.7529
C8 C 0.0837(2) 0.24727(10) 0.68181(14)
H16 H 0.0156 0.2861 0.6788
H17 H 0.1750 0.2707 0.6955
C9 C 0.00557(19) 0.25664(10) 0.49015(14)
H18 H 0.0918 0.2812 0.4924
H19 H -0.0618 0.2947 0.4915
C10 C -0.05598(19) 0.21144(10) 0.38980(15)
H20 H -0.1376 0.1838 0.3909
H21 H -0.0882 0.2437 0.3253
C11 C -0.0099(2) 0.10793(11) 0.30061(14)
H22 H -0.0588 0.1323 0.2298
H23 H -0.0779 0.0766 0.3161
C12 C 0.1079(2) 0.06230(10) 0.29711(14)
H24 H 0.0724 0.0270 0.2363
H25 H 0.1781 0.0941 0.2853
O11 O 0.23573(14) 0.19324(8) 0.06593(12)
O12 O 0.30248(14) 0.20365(8) 0.23968(11)
C13 C -0.13023(18) 0.34620(9) 0.10331(14)
C14 C -0.13257(18) 0.30114(9) 0.01898(14)
H26 H -0.2119 0.3004 -0.0475
C15 C -0.01771(18) 0.25714(9) 0.03281(14)
H27 H -0.0165 0.2260 -0.0237
C16 C 0.09517(18) 0.25991(9) 0.13141(14)
C17 C 0.09859(19) 0.30414(9) 0.21629(14)
H28 H 0.1776 0.3044 0.2830
C18 C -0.01611(19) 0.34794(9) 0.20143(14)
H29 H -0.0168 0.3791 0.2581
N1 N -0.25054(14) 0.39259(7) 0.08914(11)
H30 H -0.2341 0.4262 0.1409
H31 H -0.3257 0.3657 0.0895
H32 H -0.2811 0.4185 0.0290
N2 N 0.21941(16) 0.21547(8) 0.14661(13)
loop_
_geom_bond_atom_site_label_1
_geom_bond_atom_site_label_2
_geom_bond_site_symmetry_1
_geom_bond_site_symmetry_2
S1 O1 1_555 1_555
O2 S1 1_555 1_555
O3 S1 1_555 1_555
H1 O3 1_555 1_555
O4 S1 1_555 1_555
O5 C2 1_555 1_555
O6 C4 1_555 1_555
O7 C6 1_555 1_555
O8 C8 1_555 1_555
O9 C10 1_555 1_555
O10 C1 1_555 1_555
C1 H2 1_555 1_555
H3 C1 1_555 1_555
C2 C1 1_555 1_555
H4 C2 1_555 1_555
H5 C2 1_555 1_555
C3 O5 1_555 1_555
H6 C3 1_555 1_555
H7 C3 1_555 1_555
C4 C3 1_555 1_555
H8 C4 1_555 1_555
H9 C4 1_555 1_555
C5 O6 1_555 1_555
H10 C5 1_555 1_555
H11 C5 1_555 1_555
C6 C5 1_555 1_555
H12 C6 1_555 1_555
H13 C6 1_555 1_555
C7 O7 1_555 1_555
H14 C7 1_555 1_555
H15 C7 1_555 1_555
C8 C7 1_555 1_555
H16 C8 1_555 1_555
H17 C8 1_555 1_555
C9 O8 1_555 1_555
H18 C9 1_555 1_555
H19 C9 1_555 1_555
C10 C9 1_555 1_555
H20 C10 1_555 1_555
H21 C10 1_555 1_555
C11 O9 1_555 1_555
H22 C11 1_555 1_555
H23 C11 1_555 1_555
C12 O10 1_555 1_555
H24 C12 1_555 1_555
H25 C12 1_555 1_555
O11 N2 1_555 1_555
O12 N2 1_555 1_555
C13 C14 1_555 1_555
C14 H26 1_555 1_555
C15 C14 1_555 1_555
H27 C15 1_555 1_555
C16 C15 1_555 1_555
C17 C16 1_555 1_555
H28 C17 1_555 1_555
C18 C13 1_555 1_555
H29 C18 1_555 1_555
N1 C13 1_555 1_555
H30 N1 1_555 1_555
H31 N1 1_555 1_555
H32 N1 1_555 1_555
N2 C16 1_555 1_555
C11 C12 1_555 1_555
C17 C18 1_555 1_555

#END
