
#######################################################################
#
#                 Cambridge Crystallographic Data Centre
#                                CCDC 
#
#######################################################################
#
# If this CIF has been generated from an entry in the Cambridge 
# Structural Database, then it will include bibliographic, chemical, 
# crystal, experimental, refinement or atomic coordinate data resulting 
# from the CCDC's data processing and validation procedures.
#
#######################################################################

data_LIFQOJ
_chemical_compound_source        Actinomycete
_chemical_name_common            
4-hydroxy-6-(3-hydroxybutan-2-yl)-3-methyl-2H-pyran-2-one
_chemical_formula_moiety         'C10 H14 O4'
_chemical_name_systematic        
4-hydroxy-6-((2S,3R)-3-hydroxybutan-2-yl)-3-methyl-2H-pyran-2-one
_symmetry_cell_setting           orthorhombic
_symmetry_space_group_name_H-M   'P 21 21 2'
_symmetry_Int_Tables_number      18
_space_group_name_Hall           'P 2 2ab'
loop_
_symmetry_equiv_pos_site_id
_symmetry_equiv_pos_as_xyz
1 x,y,z
2 -x,-y,z
3 1/2-x,1/2+y,-z
4 1/2+x,1/2-y,-z
_cell_length_a                   15.4492(5)
_cell_length_b                   6.8778(3)
_cell_length_c                   10.0201(4)
_cell_angle_alpha                90
_cell_angle_beta                 90
_cell_angle_gamma                90
_cell_volume                     1064.7
_exptl_crystal_colour            colorless
_exptl_crystal_description       prism
_chemical_melting_point          '113 deg.C'
_cell_formula_units_Z            4
_exptl_crystal_recrystallization_method methanol
loop_
_atom_site_label
_atom_site_type_symbol
_atom_site_fract_x
_atom_site_fract_y
_atom_site_fract_z
O1 O 0.01234(7) 0.76503(19) 0.09089(11)
O2 O -0.10951(7) 0.8016(2) -0.02053(13)
O3 O 0.14906(8) 0.6888(2) -0.25317(11)
H1 H 0.2001 0.6704 -0.2345
O4 O 0.18975(8) 1.0723(2) 0.20375(13)
H2 H 0.1649 1.1024 0.1344
C1 C -0.03160(10) 0.7720(2) -0.02943(17)
C2 C 0.01621(9) 0.7463(2) -0.14960(16)
C3 C 0.10329(10) 0.7130(2) -0.14048(16)
C4 C 0.14572(10) 0.7066(2) -0.01406(17)
H3 H 0.2050 0.6841 -0.0093
C5 C 0.10007(10) 0.7331(3) 0.09685(16)
C6 C 0.13253(11) 0.7447(3) 0.23747(17)
H4 H 0.0910 0.6751 0.2938
C7 C 0.13349(10) 0.9577(3) 0.28413(16)
H5 H 0.0747 1.0100 0.2757
C8 C 0.16238(17) 0.9817(5) 0.4284(2)
H6 H 0.2229 0.9517 0.4355
H7 H 0.1298 0.8952 0.4843
H8 H 0.1527 1.1135 0.4563
C9 C -0.03236(11) 0.7553(3) -0.27869(18)
H9 H 0.0079 0.7608 -0.3515
H10 H -0.0683 0.8692 -0.2798
H11 H -0.0679 0.6415 -0.2875
C10 C 0.21979(16) 0.6423(4) 0.2523(2)
H12 H 0.2161 0.5141 0.2147
H13 H 0.2345 0.6330 0.3452
H14 H 0.2635 0.7153 0.2063
loop_
_geom_bond_atom_site_label_1
_geom_bond_atom_site_label_2
_geom_bond_site_symmetry_1
_geom_bond_site_symmetry_2
O1 C1 1_555 1_555
O2 C1 1_555 1_555
O3 H1 1_555 1_555
O4 H2 1_555 1_555
C1 C2 1_555 1_555
C2 C3 1_555 1_555
C3 O3 1_555 1_555
C4 C3 1_555 1_555
H3 C4 1_555 1_555
C5 O1 1_555 1_555
C6 C5 1_555 1_555
H4 C6 1_555 1_555
C7 O4 1_555 1_555
H5 C7 1_555 1_555
C8 C7 1_555 1_555
H6 C8 1_555 1_555
H7 C8 1_555 1_555
H8 C8 1_555 1_555
C9 C2 1_555 1_555
H9 C9 1_555 1_555
H10 C9 1_555 1_555
H11 C9 1_555 1_555
C10 C6 1_555 1_555
H12 C10 1_555 1_555
H13 C10 1_555 1_555
H14 C10 1_555 1_555
C4 C5 1_555 1_555
C6 C7 1_555 1_555

#END
