
#######################################################################
#
#                 Cambridge Crystallographic Data Centre
#                                CCDC 
#
#######################################################################
#
# If this CIF has been generated from an entry in the Cambridge 
# Structural Database, then it will include bibliographic, chemical, 
# crystal, experimental, refinement or atomic coordinate data resulting 
# from the CCDC's data processing and validation procedures.
#
#######################################################################

data_LIFQUP
_chemical_name_common            
4-hydroxy-6-(3-hydroxybutan-2-yl)-3-methyl-2H-pyran-2-one
_chemical_formula_moiety         'C10 H14 O4'
_chemical_name_systematic        
4-hydroxy-6-((2S,3S)-3-hydroxybutan-2-yl)-3-methyl-2H-pyran-2-one
_symmetry_cell_setting           orthorhombic
_symmetry_space_group_name_H-M   'P 21 21 2'
_symmetry_Int_Tables_number      18
_space_group_name_Hall           'P 2 2ab'
loop_
_symmetry_equiv_pos_site_id
_symmetry_equiv_pos_as_xyz
1 x,y,z
2 -x,-y,z
3 1/2-x,1/2+y,-z
4 1/2+x,1/2-y,-z
_cell_length_a                   15.2361(8)
_cell_length_b                   6.9936(4)
_cell_length_c                   9.8333(5)
_cell_angle_alpha                90
_cell_angle_beta                 90
_cell_angle_gamma                90
_cell_volume                     1047.79
_chemical_melting_point          '444-445 K'
_cell_formula_units_Z            4
loop_
_atom_site_label
_atom_site_type_symbol
_atom_site_fract_x
_atom_site_fract_y
_atom_site_fract_z
O1 O 0.47410(7) 0.7746(2) 0.60290(12)
O2 O 0.60184(8) 0.7864(2) 0.49751(12)
O3 O 0.34517(8) 0.7071(3) 0.24435(12)
H1 H 0.2924 0.6972 0.2595
O4 O 0.31855(9) 1.1097(2) 0.72555(14)
H2 H 0.3485 1.1313 0.6580
C1 C 0.52253(11) 0.7703(3) 0.48434(17)
C2 C 0.47707(10) 0.7483(3) 0.35894(17)
C3 C 0.38818(11) 0.7290(3) 0.36177(17)
C4 C 0.34105(11) 0.7339(3) 0.48782(17)
H3 H 0.2803 0.7209 0.4887
C5 C 0.38488(11) 0.7572(3) 0.60334(17)
C6 C 0.34764(11) 0.7680(3) 0.74457(17)
H4 H 0.2845 0.7431 0.7386
C7 C 0.36003(11) 0.9666(3) 0.80599(17)
H5 H 0.4230 0.9946 0.8113
C8 C 0.32043(17) 0.9848(4) 0.9469(2)
H6 H 0.2587 0.9575 0.9427
H7 H 0.3290 1.1126 0.9800
H8 H 0.3485 0.8959 1.0073
C9 C 0.53128(12) 0.7489(3) 0.23077(18)
H9 H 0.4938 0.7283 0.1537
H10 H 0.5743 0.6487 0.2353
H11 H 0.5604 0.8700 0.2217
C10 C 0.38857(19) 0.6118(4) 0.8350(3)
H12 H 0.4499 0.6378 0.8474
H13 H 0.3815 0.4894 0.7922
H14 H 0.3598 0.6109 0.9219
loop_
_geom_bond_atom_site_label_1
_geom_bond_atom_site_label_2
_geom_bond_site_symmetry_1
_geom_bond_site_symmetry_2
O1 C1 1_555 1_555
O2 C1 1_555 1_555
O3 H1 1_555 1_555
O4 H2 1_555 1_555
C1 C2 1_555 1_555
C2 C3 1_555 1_555
C3 O3 1_555 1_555
C4 C3 1_555 1_555
H3 C4 1_555 1_555
C5 O1 1_555 1_555
C6 C5 1_555 1_555
H4 C6 1_555 1_555
C7 O4 1_555 1_555
H5 C7 1_555 1_555
C8 C7 1_555 1_555
H6 C8 1_555 1_555
H7 C8 1_555 1_555
H8 C8 1_555 1_555
C9 C2 1_555 1_555
H9 C9 1_555 1_555
H10 C9 1_555 1_555
H11 C9 1_555 1_555
C10 C6 1_555 1_555
H12 C10 1_555 1_555
H13 C10 1_555 1_555
H14 C10 1_555 1_555
C4 C5 1_555 1_555
C6 C7 1_555 1_555

#END
