
#######################################################################
#
#                 Cambridge Crystallographic Data Centre
#                                CCDC 
#
#######################################################################
#
# If this CIF has been generated from an entry in the Cambridge 
# Structural Database, then it will include bibliographic, chemical, 
# crystal, experimental, refinement or atomic coordinate data resulting 
# from the CCDC's data processing and validation procedures.
#
#######################################################################

data_LIFRUQ
_chemical_formula_moiety         'C26 H23 Br1 N2'
_chemical_name_systematic        
N-[3-([1,1'-biphenyl]-4-yl)-3-(pyridin-2-yl)propyl]-4-bromoaniline
_symmetry_cell_setting           monoclinic
_symmetry_space_group_name_H-M   'C 2'
_symmetry_Int_Tables_number      5
_space_group_name_Hall           'C 2y'
loop_
_symmetry_equiv_pos_site_id
_symmetry_equiv_pos_as_xyz
1 x,y,z
2 -x,y,-z
3 1/2+x,1/2+y,z
4 1/2-x,1/2+y,-z
_cell_length_a                   22.7031(11)
_cell_length_b                   5.8682(4)
_cell_length_c                   16.6098(8)
_cell_angle_alpha                90
_cell_angle_beta                 107.064(5)
_cell_angle_gamma                90
_cell_volume                     2115.45
_cell_formula_units_Z            4
loop_
_atom_site_label
_atom_site_type_symbol
_atom_site_fract_x
_atom_site_fract_y
_atom_site_fract_z
Br1 Br 0.11933(2) 0.50848(18) 0.47940(3)
C1 C 0.1955(2) 0.4478(10) 0.5634(3)
C2 C 0.2419(2) 0.6085(10) 0.5780(3)
H1 H 0.2362 0.7436 0.5473
C3 C 0.2970(2) 0.5646(10) 0.6390(4)
H2 H 0.3284 0.6721 0.6490
C4 C 0.3065(2) 0.3653(10) 0.6854(3)
C5 C 0.2593(2) 0.2055(10) 0.6679(3)
H3 H 0.2649 0.0683 0.6973
C6 C 0.2038(2) 0.2488(10) 0.6072(3)
H4 H 0.1722 0.1416 0.5963
C7 C 0.3853(2) 0.1037(9) 0.7712(3)
H5 H 0.3874 0.0235 0.7211
H6 H 0.3578 0.0200 0.7955
C8 C 0.4494(2) 0.1158(10) 0.8346(3)
H7 H 0.4730 0.2335 0.8171
H8 H 0.4454 0.1588 0.8891
C9 C 0.4844(2) -0.1081(10) 0.8434(3)
H9 H 0.4585 -0.2250 0.8580
C10 C 0.49590(19) -0.1825(9) 0.7618(3)
C11 C 0.5327(3) -0.0568(14) 0.7255(4)
H10 H 0.5491 0.0809 0.7497
C12 C 0.5454(3) -0.1306(19) 0.6552(4)
H11 H 0.5704 -0.0449 0.6312
C13 C 0.5214(4) -0.330(2) 0.6205(4)
H12 H 0.5304 -0.3871 0.5732
C14 C 0.4831(4) -0.4471(16) 0.6572(4)
H13 H 0.4655 -0.5827 0.6326
C15 C 0.5451(2) -0.1045(9) 0.9136(3)
C16 C 0.5652(2) -0.2915(10) 0.9640(3)
H14 H 0.5398 -0.4188 0.9572
C17 C 0.6219(2) -0.2961(10) 1.0246(3)
H15 H 0.6336 -0.4253 1.0580
C18 C 0.6617(2) -0.1127(10) 1.0367(3)
C19 C 0.6421(3) 0.0757(9) 0.9865(4)
H16 H 0.6679 0.2018 0.9929
C20 C 0.5847(3) 0.0816(9) 0.9264(4)
H17 H 0.5725 0.2125 0.8943
C21 C 0.7237(2) -0.1165(10) 1.1010(3)
C22 C 0.7661(2) 0.0555(12) 1.1039(4)
H18 H 0.7563 0.1732 1.0647
C23 C 0.8230(2) 0.0531(14) 1.1648(4)
H19 H 0.8509 0.1702 1.1663
C24 C 0.8385(2) -0.1168(12) 1.2221(4)
H20 H 0.8765 -0.1154 1.2631
C25 C 0.7979(3) -0.2905(13) 1.2193(4)
H21 H 0.8087 -0.4097 1.2577
C26 C 0.7409(3) -0.2898(11) 1.1596(4)
H22 H 0.7135 -0.4083 1.1588
N1 N 0.36135(19) 0.3321(9) 0.7488(3)
H23 H 0.388(3) 0.424(12) 0.746(4)
N2 N 0.4699(2) -0.3739(9) 0.7273(3)
loop_
_geom_bond_atom_site_label_1
_geom_bond_atom_site_label_2
_geom_bond_site_symmetry_1
_geom_bond_site_symmetry_2
Br1 C1 1_555 1_555
C1 C2 1_555 1_555
C2 H1 1_555 1_555
C3 C2 1_555 1_555
H2 C3 1_555 1_555
C4 C3 1_555 1_555
C5 C4 1_555 1_555
H3 C5 1_555 1_555
C6 C1 1_555 1_555
H4 C6 1_555 1_555
C7 H5 1_555 1_555
H6 C7 1_555 1_555
C8 C7 1_555 1_555
H7 C8 1_555 1_555
H8 C8 1_555 1_555
C9 C8 1_555 1_555
H9 C9 1_555 1_555
C10 C9 1_555 1_555
C11 C10 1_555 1_555
H10 C11 1_555 1_555
C12 C11 1_555 1_555
H11 C12 1_555 1_555
C13 C12 1_555 1_555
H12 C13 1_555 1_555
C14 C13 1_555 1_555
H13 C14 1_555 1_555
C15 C9 1_555 1_555
C16 C15 1_555 1_555
H14 C16 1_555 1_555
C17 C16 1_555 1_555
H15 C17 1_555 1_555
C18 C17 1_555 1_555
C19 C18 1_555 1_555
H16 C19 1_555 1_555
C20 C15 1_555 1_555
H17 C20 1_555 1_555
C21 C18 1_555 1_555
C22 C21 1_555 1_555
H18 C22 1_555 1_555
C23 C22 1_555 1_555
H19 C23 1_555 1_555
C24 C23 1_555 1_555
H20 C24 1_555 1_555
C25 C24 1_555 1_555
H21 C25 1_555 1_555
C26 C21 1_555 1_555
H22 C26 1_555 1_555
N1 C4 1_555 1_555
H23 N1 1_555 1_555
N2 C10 1_555 1_555
C5 C6 1_555 1_555
C7 N1 1_555 1_555
C14 N2 1_555 1_555
C19 C20 1_555 1_555
C25 C26 1_555 1_555

#END
