
#######################################################################
#
#                 Cambridge Crystallographic Data Centre
#                                CCDC 
#
#######################################################################
#
# If this CIF has been generated from an entry in the Cambridge 
# Structural Database, then it will include bibliographic, chemical, 
# crystal, experimental, refinement or atomic coordinate data resulting 
# from the CCDC's data processing and validation procedures.
#
#######################################################################

data_LIFYIL
_chemical_formula_moiety         'C42 H49 N1 O12,C3 H6 O1,3(H2 O1)'
_chemical_name_systematic        
'2,25,28,30-tetrahydroxy-15-isobutyl-4,17,18,22,32-pentamethyl-7,27,35-trioxa-14-azaundecacyclo[28.6.1.0^1,33^.0^2,28^.0^5,29^.0^5,32^.0^6,10^.0^8,29^.0^9,26^.0^12,16^.0^12,20^]heptatriaconta-18,21,33-triene-3,11,13,31,37-pentone acetone solvate trihydrate'
_symmetry_cell_setting           orthorhombic
_symmetry_space_group_name_H-M   'P 21 21 21'
_symmetry_Int_Tables_number      19
_space_group_name_Hall           'P 2ac 2ab'
loop_
_symmetry_equiv_pos_site_id
_symmetry_equiv_pos_as_xyz
1 x,y,z
2 1/2+x,1/2-y,-z
3 -x,1/2+y,1/2-z
4 1/2-x,-y,1/2+z
_cell_length_a                   10.5605(4)
_cell_length_b                   19.8475(7)
_cell_length_c                   22.5037(8)
_cell_angle_alpha                90
_cell_angle_beta                 90
_cell_angle_gamma                90
_cell_volume                     4716.76
_exptl_crystal_colour            colorless
_exptl_crystal_description       block
_cell_formula_units_Z            4
loop_
_atom_site_label
_atom_site_type_symbol
_atom_site_fract_x
_atom_site_fract_y
_atom_site_fract_z
O1 O 0.9922(5) 1.1192(2) 0.3589(2)
O2 O 0.8821(4) 0.9347(2) 0.42110(16)
H1 H 0.8147 0.9432 0.4376
O3 O 0.7773(3) 0.84276(17) 0.32994(15)
O4 O 0.9483(4) 0.71989(19) 0.3002(2)
H2 H 0.9812 0.7528 0.3160
O5 O 0.4073(3) 0.86877(19) 0.23362(16)
O6 O 0.6875(3) 0.8054(2) 0.09962(16)
O7 O 0.8938(3) 0.88180(16) 0.16213(14)
O8 O 1.1114(4) 1.0032(2) 0.17543(19)
O9 O 1.1940(4) 0.9685(2) 0.3347(2)
O10 O 1.1481(3) 0.8827(2) 0.24084(18)
H3 H 1.2116 0.8876 0.2613
O11 O 0.6806(4) 1.0055(2) 0.37898(19)
O12 O 0.9947(3) 0.8458(2) 0.35010(17)
H4 H 0.9755 0.8302 0.3826
C1 C 0.9514(6) 1.1092(3) 0.3028(3)
H5 H 0.9381 1.1449 0.2767
C2 C 0.9315(5) 1.0461(3) 0.2869(2)
C3 C 0.9057(5) 1.0162(2) 0.2259(2)
C4 C 0.8195(5) 0.9531(2) 0.2371(2)
C5 C 0.7792(5) 0.9160(3) 0.1797(2)
H6 H 0.7453 0.9460 0.1490
C6 C 0.6902(4) 0.8560(2) 0.1949(2)
H7 H 0.6261 0.8700 0.2239
C7 C 0.6270(5) 0.8284(2) 0.1395(2)
C8 C 0.4822(5) 0.8270(2) 0.1352(2)
C9 C 0.4342(5) 0.8516(3) 0.0734(2)
H8 H 0.5077 0.8571 0.0473
C10 C 0.3740(5) 0.9226(2) 0.0840(2)
H9 H 0.2928 0.9258 0.0631
C11 C 0.4598(7) 0.9803(3) 0.0656(3)
H10 H 0.5414 0.9741 0.0846
H11 H 0.4732 0.9775 0.0230
C12 C 0.4123(7) 1.0500(3) 0.0801(3)
H12 H 0.3873 1.0501 0.1220
C13 C 0.5162(9) 1.1007(4) 0.0728(4)
H13 H 0.5439 1.1011 0.0322
H14 H 0.5859 1.0889 0.0982
H15 H 0.4853 1.1446 0.0835
C14 C 0.8706(5) 0.9468(3) 0.3599(2)
C15 C 0.8910(5) 0.8798(3) 0.3261(2)
C16 C 0.7535(5) 0.7871(2) 0.2877(2)
H16 H 0.6620 0.7790 0.2888
C17 C 0.8161(5) 0.7216(3) 0.3099(3)
H17 H 0.8000 0.7171 0.3526
C18 C 0.7666(6) 0.6583(3) 0.2784(3)
H18 H 0.7954 0.6193 0.3007
H19 H 0.8059 0.6561 0.2395
C19 C 0.6225(5) 0.6517(3) 0.2699(3)
H20 H 0.5989 0.6049 0.2755
H21 H 0.5805 0.6779 0.3006
C20 C 0.5748(5) 0.6747(3) 0.2103(2)
C21 C 0.6276(7) 0.6361(3) 0.1582(3)
H22 H 0.5627 0.6304 0.1287
H23 H 0.6563 0.5927 0.1714
H24 H 0.6973 0.6605 0.1414
C22 C 0.4908(5) 0.7254(3) 0.2049(2)
H25 H 0.4607 0.7449 0.2397
C23 C 0.4419(5) 0.7531(3) 0.1471(2)
H26 H 0.4800 0.7259 0.1155
C24 C 0.3002(5) 0.7487(3) 0.1387(3)
H27 H 0.2499 0.7294 0.1680
C25 C 0.2483(5) 0.7721(3) 0.0901(3)
C26 C 0.1105(6) 0.7736(4) 0.0784(3)
H28 H 0.0657 0.7592 0.1132
H29 H 0.0911 0.7439 0.0459
H30 H 0.0853 0.8186 0.0683
C27 C 0.3433(5) 0.8000(3) 0.0445(2)
H31 H 0.3968 0.7616 0.0336
C28 C 0.2887(7) 0.8257(3) -0.0135(3)
H32 H 0.2454 0.7897 -0.0334
H33 H 0.3559 0.8421 -0.0383
H34 H 0.2301 0.8616 -0.0055
N1 N 0.3530(4) 0.9222(2) 0.14795(19)
H35 H 0.3042 0.9511 0.1648
C29 C 0.4120(5) 0.8755(3) 0.1786(2)
C30 C 0.7842(4) 0.8060(2) 0.2239(2)
H36 H 0.7860 0.7647 0.2000
C31 C 0.9100(5) 0.8430(3) 0.2155(2)
H37 H 0.9835 0.8129 0.2143
C32 C 1.0352(5) 0.9866(3) 0.2124(3)
C33 C 1.0568(5) 0.9295(3) 0.2577(2)
C34 C 1.0871(6) 0.9654(3) 0.3156(3)
C35 C 0.9733(5) 1.0006(3) 0.3394(2)
C36 C 1.0001(7) 1.0545(3) 0.3872(3)
H38 H 0.9382 1.0513 0.4190
H39 H 1.0837 1.0480 0.4040
C37 C 0.9206(4) 0.8982(2) 0.2625(2)
C38 C 0.8658(6) 1.0672(3) 0.1791(3)
H40 H 0.9316 1.1000 0.1740
H41 H 0.7894 1.0893 0.1916
H42 H 0.8510 1.0445 0.1421
C39 C 0.7086(5) 0.9690(3) 0.2789(2)
H43 H 0.6572 0.9279 0.2786
C40 C 0.6181(6) 1.0241(3) 0.2572(3)
H44 H 0.5402 1.0215 0.2791
H45 H 0.6012 1.0178 0.2157
H46 H 0.6562 1.0674 0.2633
C41 C 0.7454(5) 0.9777(3) 0.3429(3)
C42 C 0.2967(12) 1.0668(5) 0.0440(6)
H47 H 0.2231 1.0650 0.0689
H48 H 0.2881 1.0348 0.0122
H49 H 0.3053 1.1113 0.0277
O13 O 0.7293(8) 0.0050(4) 0.5170(3)
C43 C 0.6479(8) 0.0455(5) 0.5093(3)
C44 C 0.6728(11) 0.1148(5) 0.4891(4)
H50 H 0.7272 0.1137 0.4549
H51 H 0.7132 0.1396 0.5204
H52 H 0.5943 0.1362 0.4788
C45 C 0.5144(10) 0.0264(7) 0.5190(6)
H53 H 0.5062 -0.0218 0.5168
H54 H 0.4623 0.0469 0.4891
H55 H 0.4877 0.0415 0.5576
O14 O 0.960(2) 0.2675(11) 0.0388(9)
O15 O 0.547(2) 0.3514(11) 0.1147(10)
O16 O 0.703(3) 0.2570(14) 0.1386(14)
loop_
_geom_bond_atom_site_label_1
_geom_bond_atom_site_label_2
_geom_bond_site_symmetry_1
_geom_bond_site_symmetry_2
O1 C1 1_555 1_555
O2 H1 1_555 1_555
O3 C15 1_555 1_555
O4 H2 1_555 1_555
O5 C29 1_555 1_555
O6 C7 1_555 1_555
O7 C5 1_555 1_555
O8 C32 1_555 1_555
O9 C34 1_555 1_555
O10 H3 1_555 1_555
O11 C41 1_555 1_555
O12 H4 1_555 1_555
C1 H5 1_555 1_555
C2 C1 1_555 1_555
C3 C2 1_555 1_555
C4 C3 1_555 1_555
C5 C4 1_555 1_555
H6 C5 1_555 1_555
C6 C5 1_555 1_555
H7 C6 1_555 1_555
C7 C6 1_555 1_555
C8 C7 1_555 1_555
C9 C8 1_555 1_555
H8 C9 1_555 1_555
C10 C9 1_555 1_555
H9 C10 1_555 1_555
C11 C10 1_555 1_555
H10 C11 1_555 1_555
H11 C11 1_555 1_555
C12 C11 1_555 1_555
H12 C12 1_555 1_555
C13 C12 1_555 1_555
H13 C13 1_555 1_555
H14 C13 1_555 1_555
H15 C13 1_555 1_555
C14 O2 1_555 1_555
C15 O12 1_555 1_555
C16 O3 1_555 1_555
H16 C16 1_555 1_555
C17 O4 1_555 1_555
H17 C17 1_555 1_555
C18 C17 1_555 1_555
H18 C18 1_555 1_555
H19 C18 1_555 1_555
C19 C18 1_555 1_555
H20 C19 1_555 1_555
H21 C19 1_555 1_555
C20 C19 1_555 1_555
C21 C20 1_555 1_555
H22 C21 1_555 1_555
H23 C21 1_555 1_555
H24 C21 1_555 1_555
C22 C20 1_555 1_555
H25 C22 1_555 1_555
C23 C8 1_555 1_555
H26 C23 1_555 1_555
C24 C23 1_555 1_555
H27 C24 1_555 1_555
C25 C24 1_555 1_555
C26 C25 1_555 1_555
H28 C26 1_555 1_555
H29 C26 1_555 1_555
H30 C26 1_555 1_555
C27 C9 1_555 1_555
H31 C27 1_555 1_555
C28 C27 1_555 1_555
H32 C28 1_555 1_555
H33 C28 1_555 1_555
H34 C28 1_555 1_555
N1 C10 1_555 1_555
H35 N1 1_555 1_555
C29 C8 1_555 1_555
C30 C6 1_555 1_555
H36 C30 1_555 1_555
C31 O7 1_555 1_555
H37 C31 1_555 1_555
C32 C3 1_555 1_555
C33 O10 1_555 1_555
C34 C33 1_555 1_555
C35 C2 1_555 1_555
C36 O1 1_555 1_555
H38 C36 1_555 1_555
H39 C36 1_555 1_555
C37 C4 1_555 1_555
C38 C3 1_555 1_555
H40 C38 1_555 1_555
H41 C38 1_555 1_555
H42 C38 1_555 1_555
C39 C4 1_555 1_555
H43 C39 1_555 1_555
C40 C39 1_555 1_555
H44 C40 1_555 1_555
H45 C40 1_555 1_555
H46 C40 1_555 1_555
C41 C14 1_555 1_555
C42 C12 1_555 1_555
H47 C42 1_555 1_555
H48 C42 1_555 1_555
H49 C42 1_555 1_555
O13 C43 1_555 1_555
C43 C44 1_555 1_555
C44 H50 1_555 1_555
H51 C44 1_555 1_555
H52 C44 1_555 1_555
C45 C43 1_555 1_555
H53 C45 1_555 1_555
H54 C45 1_555 1_555
H55 C45 1_555 1_555
C14 C15 1_555 1_555
C14 C35 1_555 1_555
C15 C37 1_555 1_555
C16 C17 1_555 1_555
C16 C30 1_555 1_555
C22 C23 1_555 1_555
C25 C27 1_555 1_555
N1 C29 1_555 1_555
C30 C31 1_555 1_555
C31 C37 1_555 1_555
C32 C33 1_555 1_555
C33 C37 1_555 1_555
C34 C35 1_555 1_555
C35 C36 1_555 1_555
C39 C41 1_555 1_555

#END
