
#######################################################################
#
#                 Cambridge Crystallographic Data Centre
#                                CCDC 
#
#######################################################################
#
# If this CIF has been generated from an entry in the Cambridge 
# Structural Database, then it will include bibliographic, chemical, 
# crystal, experimental, refinement or atomic coordinate data resulting 
# from the CCDC's data processing and validation procedures.
#
#######################################################################

data_LIGLEV
_chemical_formula_moiety         'C22 H17 N1 O1'
_chemical_name_systematic        4-methoxy-2,3-diphenylquinoline
_symmetry_cell_setting           monoclinic
_symmetry_space_group_name_H-M   'P 21'
_symmetry_Int_Tables_number      4
_space_group_name_Hall           'P 2yb'
loop_
_symmetry_equiv_pos_site_id
_symmetry_equiv_pos_as_xyz
1 x,y,z
2 -x,1/2+y,-z
_cell_length_a                   9.899(2)
_cell_length_b                   16.256(3)
_cell_length_c                   10.260(2)
_cell_angle_alpha                90
_cell_angle_beta                 91.08(3)
_cell_angle_gamma                90
_cell_volume                     1650.73
_exptl_crystal_colour            yellow
_exptl_crystal_description       block
_cell_formula_units_Z            4
loop_
_atom_site_label
_atom_site_type_symbol
_atom_site_fract_x
_atom_site_fract_y
_atom_site_fract_z
N1 N -0.0362(3) -0.36097(17) -0.4585(3)
O1 O -0.0208(3) -0.12655(15) -0.6226(2)
C1 C 0.0730(3) -0.3152(2) -0.4442(3)
C2 C 0.0865(3) -0.2338(2) -0.4985(3)
C3 C 0.1824(3) -0.3561(2) -0.3657(3)
C4 C -0.0226(4) -0.2041(2) -0.5686(3)
C5 C -0.1427(3) -0.3306(2) -0.5299(3)
C6 C -0.2571(4) -0.2232(2) -0.6570(4)
H1 H -0.2579 -0.1699 -0.6948
C7 C 0.4418(4) -0.0855(2) -0.4482(4)
H2 H 0.5207 -0.0527 -0.4377
C8 C 0.2610(4) -0.1652(2) -0.3551(3)
H3 H 0.2169 -0.1863 -0.2808
C9 C -0.2586(4) -0.3804(2) -0.5459(4)
H4 H -0.2603 -0.4339 -0.5086
C10 C 0.2112(3) -0.18356(19) -0.4797(3)
C11 C 0.3923(4) -0.1034(2) -0.5707(4)
H5 H 0.4365 -0.0822 -0.6449
C12 C 0.3128(4) -0.3654(2) -0.4121(4)
H6 H 0.3373 -0.3397 -0.4915
C13 C -0.1410(4) -0.2515(2) -0.5873(3)
C14 C 0.2427(4) -0.4402(2) -0.1802(4)
H7 H 0.2192 -0.4656 -0.1005
C15 C -0.3682(4) -0.3519(3) -0.6148(4)
H8 H -0.4455 -0.3860 -0.6255
C16 C 0.1487(4) -0.3935(2) -0.2489(3)
H9 H 0.0603 -0.3870 -0.2159
C17 C -0.3686(4) -0.2735(3) -0.6697(4)
H10 H -0.4464 -0.2546 -0.7163
C18 C 0.3757(4) -0.1158(2) -0.3392(4)
H11 H 0.4088 -0.1028 -0.2541
C19 C 0.4069(4) -0.4119(2) -0.3432(4)
H12 H 0.4959 -0.4178 -0.3750
C20 C 0.3718(4) -0.4495(2) -0.2288(4)
H13 H 0.4363 -0.4822 -0.1826
C21 C -0.0569(5) -0.0631(2) -0.5331(4)
H14 H -0.0467 -0.0093 -0.5749
H15 H 0.0022 -0.0660 -0.4556
H16 H -0.1510 -0.0706 -0.5075
C22 C 0.2774(4) -0.1525(2) -0.5873(3)
H17 H 0.2443 -0.1648 -0.6726
N2 N 0.4970(3) -0.44356(18) 0.1090(3)
C23 C 0.5600(3) -0.3207(2) -0.0110(3)
C24 C 0.5833(3) -0.4023(2) 0.0369(3)
C25 C 0.4369(4) -0.2849(2) 0.0167(3)
O2 O 0.4032(3) -0.20811(16) -0.0282(3)
C26 C 0.3757(4) -0.4079(2) 0.1361(3)
C27 C 0.6650(4) -0.2761(2) -0.0858(3)
C28 C 0.3406(3) -0.3284(2) 0.0911(3)
C29 C 0.7075(3) -0.4490(2) 0.0012(3)
C30 C 0.2811(4) -0.4522(3) 0.2106(4)
H18 H 0.3038 -0.5054 0.2426
C31 C 0.9251(4) -0.5481(3) -0.0654(5)
H19 H 0.9982 -0.5828 -0.0880
C32 C 0.7450(4) -0.4579(2) -0.1281(3)
H20 H 0.6960 -0.4293 -0.1945
C33 C 0.8921(4) -0.2257(2) -0.1057(4)
H21 H 0.9809 -0.2193 -0.0703
C34 C 0.2113(4) -0.2956(3) 0.1193(4)
H22 H 0.1865 -0.2425 0.0888
C35 C 0.6330(4) -0.2445(2) -0.2098(3)
H23 H 0.5444 -0.2509 -0.2456
C36 C 0.7824(4) -0.4899(2) 0.0978(4)
H24 H 0.7589 -0.4846 0.1867
C37 C 0.8919(4) -0.5386(2) 0.0633(5)
H25 H 0.9441 -0.5654 0.1292
C38 C 0.7950(4) -0.2664(2) -0.0353(4)
H26 H 0.8175 -0.2879 0.0484
C39 C 0.7313(4) -0.2038(2) -0.2798(4)
H27 H 0.7097 -0.1825 -0.3639
C40 C 0.1584(4) -0.4196(3) 0.2368(4)
H28 H 0.0962 -0.4502 0.2869
C41 C 0.8597(4) -0.1942(2) -0.2285(4)
H29 H 0.9263 -0.1660 -0.2768
C42 C 0.1222(4) -0.3413(3) 0.1908(4)
H30 H 0.0355 -0.3195 0.2093
C43 C 0.8525(4) -0.5076(2) -0.1613(4)
H31 H 0.8761 -0.5137 -0.2501
C44 C 0.4682(5) -0.1415(2) 0.0409(4)
H32 H 0.4563 -0.0905 -0.0087
H33 H 0.5648 -0.1534 0.0517
H34 H 0.4277 -0.1354 0.1268
loop_
_geom_bond_atom_site_label_1
_geom_bond_atom_site_label_2
_geom_bond_site_symmetry_1
_geom_bond_site_symmetry_2
N1 C1 1_555 1_555
O1 C4 1_555 1_555
C1 C2 1_555 1_555
C2 C4 1_555 1_555
C3 C1 1_555 1_555
C4 C13 1_555 1_555
C5 N1 1_555 1_555
C6 H1 1_555 1_555
C7 H2 1_555 1_555
C8 H3 1_555 1_555
C9 C5 1_555 1_555
H4 C9 1_555 1_555
C10 C2 1_555 1_555
C11 C7 1_555 1_555
H5 C11 1_555 1_555
C12 C3 1_555 1_555
H6 C12 1_555 1_555
C13 C5 1_555 1_555
C14 H7 1_555 1_555
C15 C9 1_555 1_555
H8 C15 1_555 1_555
C16 C3 1_555 1_555
H9 C16 1_555 1_555
C17 C6 1_555 1_555
H10 C17 1_555 1_555
C18 C7 1_555 1_555
H11 C18 1_555 1_555
C19 C12 1_555 1_555
H12 C19 1_555 1_555
C20 C14 1_555 1_555
H13 C20 1_555 1_555
C21 O1 1_555 1_555
H14 C21 1_555 1_555
H15 C21 1_555 1_555
H16 C21 1_555 1_555
C22 C10 1_555 1_555
H17 C22 1_555 1_555
N2 C24 1_555 1_555
C23 C24 1_555 1_555
C24 C29 1_555 1_555
C25 C23 1_555 1_555
O2 C25 1_555 1_555
C26 N2 1_555 1_555
C27 C23 1_555 1_555
C28 C25 1_555 1_555
C29 C32 1_555 1_555
C30 C26 1_555 1_555
H18 C30 1_555 1_555
C31 H19 1_555 1_555
C32 H20 1_555 1_555
C33 H21 1_555 1_555
C34 C28 1_555 1_555
H22 C34 1_555 1_555
C35 C27 1_555 1_555
H23 C35 1_555 1_555
C36 C29 1_555 1_555
H24 C36 1_555 1_555
C37 C31 1_555 1_555
H25 C37 1_555 1_555
C38 C27 1_555 1_555
H26 C38 1_555 1_555
C39 C35 1_555 1_555
H27 C39 1_555 1_555
C40 C30 1_555 1_555
H28 C40 1_555 1_555
C41 C33 1_555 1_555
H29 C41 1_555 1_555
C42 C34 1_555 1_555
H30 C42 1_555 1_555
C43 C31 1_555 1_555
H31 C43 1_555 1_555
C44 O2 1_555 1_555
H32 C44 1_555 1_555
H33 C44 1_555 1_555
H34 C44 1_555 1_555
C6 C13 1_555 1_555
C8 C10 1_555 1_555
C8 C18 1_555 1_555
C11 C22 1_555 1_555
C14 C16 1_555 1_555
C15 C17 1_555 1_555
C19 C20 1_555 1_555
C26 C28 1_555 1_555
C32 C43 1_555 1_555
C33 C38 1_555 1_555
C36 C37 1_555 1_555
C39 C41 1_555 1_555
C40 C42 1_555 1_555

#END
