
#######################################################################
#
#                 Cambridge Crystallographic Data Centre
#                                CCDC 
#
#######################################################################
#
# If this CIF has been generated from an entry in the Cambridge 
# Structural Database, then it will include bibliographic, chemical, 
# crystal, experimental, refinement or atomic coordinate data resulting 
# from the CCDC's data processing and validation procedures.
#
#######################################################################

data_LIGLIZ
_chemical_formula_moiety         'C29 H20 N2 O4 S1,C1 H2 Cl2'
_chemical_name_systematic        
'5-[(4-methylphenyl)sulfonyl]-9-nitro-11-phenyl-5H-benzo[b]carbazole dichloromethane solvate'
_symmetry_cell_setting           triclinic
_symmetry_space_group_name_H-M   'P -1'
_symmetry_Int_Tables_number      2
_space_group_name_Hall           '-P 1'
loop_
_symmetry_equiv_pos_site_id
_symmetry_equiv_pos_as_xyz
1 x,y,z
2 -x,-y,-z
_cell_length_a                   8.5622(15)
_cell_length_b                   12.230(2)
_cell_length_c                   13.208(2)
_cell_angle_alpha                86.228(4)
_cell_angle_beta                 81.425(4)
_cell_angle_gamma                83.430(3)
_cell_volume                     1356.97
_exptl_crystal_colour            colorless
_exptl_crystal_description       block
_cell_formula_units_Z            2
loop_
_atom_site_label
_atom_site_type_symbol
_atom_site_fract_x
_atom_site_fract_y
_atom_site_fract_z
Cl1 Cl 0.2748(6) 0.9393(3) 0.4981(2)
Cl2 Cl 0.0910(8) 0.9395(5) 0.6797(4)
C1 C 0.1836(10) 1.0140(7) 0.5906(8)
H1 H 0.260247 1.051104 0.618950
H2 H 0.108436 1.069781 0.563835
S1 S 0.59174(9) 0.79907(6) 0.22829(6)
O1 O 0.7403(3) 0.8220(2) 0.1714(2)
O2 O 0.5402(3) 0.84514(18) 0.32556(19)
O3 O 0.0058(4) 0.2738(2) 0.6348(2)
O4 O -0.0444(4) 0.3966(3) 0.7474(2)
N1 N 0.6023(3) 0.66146(19) 0.24999(19)
N2 N 0.0206(3) 0.3631(3) 0.6646(2)
C2 C 0.6503(4) 0.5899(2) 0.1666(2)
C3 C 0.7618(4) 0.6038(3) 0.0809(3)
H3 H 0.815633 0.666369 0.069559
C4 C 0.7894(5) 0.5202(3) 0.0128(3)
H4 H 0.863499 0.526950 -0.045786
C5 C 0.7107(5) 0.4275(3) 0.0292(3)
H5 H 0.731559 0.373633 -0.018974
C6 C 0.6009(4) 0.4126(3) 0.1158(3)
H6 H 0.548943 0.349270 0.126773
C7 C 0.5703(3) 0.4956(2) 0.1867(2)
C8 C 0.4687(3) 0.5067(2) 0.2847(2)
C9 C 0.3711(3) 0.4361(2) 0.3432(2)
C10 C 0.2919(3) 0.4698(2) 0.4405(2)
C11 C 0.1935(3) 0.4012(2) 0.5051(2)
H7 H 0.177782 0.332570 0.484316
C12 C 0.1218(3) 0.4365(3) 0.5985(2)
C13 C 0.1408(4) 0.5388(3) 0.6345(3)
H8 H 0.090938 0.560034 0.698705
C14 C 0.2344(4) 0.6060(3) 0.5728(3)
H9 H 0.247011 0.674586 0.595202
C15 C 0.3131(3) 0.5745(2) 0.4754(2)
C16 C 0.4134(3) 0.6447(2) 0.4144(2)
H10 H 0.427730 0.712979 0.436701
C17 C 0.4890(3) 0.6098(2) 0.3217(2)
C18 C 0.3449(4) 0.3290(2) 0.3041(2)
C19 C 0.4196(5) 0.2298(3) 0.3366(3)
H11 H 0.488306 0.227975 0.385121
C20 C 0.3921(6) 0.1327(3) 0.2967(4)
H12 H 0.443176 0.066041 0.318624
C21 C 0.2921(6) 0.1337(4) 0.2267(4)
H13 H 0.273728 0.067961 0.201230
C22 C 0.2183(5) 0.2308(4) 0.1932(4)
H14 H 0.150139 0.231387 0.144539
C23 C 0.2443(4) 0.3292(3) 0.2315(3)
H15 H 0.193815 0.395450 0.208218
C24 C 0.4421(3) 0.8296(2) 0.1499(2)
C25 C 0.4845(4) 0.8529(3) 0.0458(3)
H16 H 0.590038 0.857336 0.018029
C26 C 0.3658(5) 0.8692(3) -0.0151(3)
H17 H 0.392079 0.885502 -0.084950
C27 C 0.2081(5) 0.8618(3) 0.0252(3)
C28 C 0.1699(4) 0.8401(3) 0.1287(3)
H18 H 0.064076 0.836212 0.156352
C29 C 0.2846(4) 0.8240(2) 0.1923(3)
H19 H 0.257206 0.809600 0.262345
C30 C 0.0824(7) 0.8713(5) -0.0460(5)
H20 H 0.072374 0.799643 -0.068355
H21 H 0.113103 0.919085 -0.104400
H22 H -0.017593 0.901153 -0.010053
loop_
_geom_bond_atom_site_label_1
_geom_bond_atom_site_label_2
_geom_bond_site_symmetry_1
_geom_bond_site_symmetry_2
Cl1 C1 1_555 1_555
Cl2 C1 1_555 1_555
C1 H1 1_555 1_555
H2 C1 1_555 1_555
S1 O1 1_555 1_555
O2 S1 1_555 1_555
O3 N2 1_555 1_555
O4 N2 1_555 1_555
N1 S1 1_555 1_555
N2 C12 1_555 1_555
C2 N1 1_555 1_555
C3 C2 1_555 1_555
H3 C3 1_555 1_555
C4 C3 1_555 1_555
H4 C4 1_555 1_555
C5 C4 1_555 1_555
H5 C5 1_555 1_555
C6 C5 1_555 1_555
H6 C6 1_555 1_555
C7 C2 1_555 1_555
C8 C7 1_555 1_555
C9 C8 1_555 1_555
C10 C9 1_555 1_555
C11 C10 1_555 1_555
H7 C11 1_555 1_555
C12 C11 1_555 1_555
C13 C12 1_555 1_555
H8 C13 1_555 1_555
C14 C13 1_555 1_555
H9 C14 1_555 1_555
C15 C10 1_555 1_555
C16 C15 1_555 1_555
H10 C16 1_555 1_555
C17 N1 1_555 1_555
C18 C9 1_555 1_555
C19 C18 1_555 1_555
H11 C19 1_555 1_555
C20 C19 1_555 1_555
H12 C20 1_555 1_555
C21 C20 1_555 1_555
H13 C21 1_555 1_555
C22 C21 1_555 1_555
H14 C22 1_555 1_555
C23 C18 1_555 1_555
H15 C23 1_555 1_555
C24 S1 1_555 1_555
C25 C24 1_555 1_555
H16 C25 1_555 1_555
C26 C25 1_555 1_555
H17 C26 1_555 1_555
C27 C26 1_555 1_555
C28 C27 1_555 1_555
H18 C28 1_555 1_555
C29 C24 1_555 1_555
H19 C29 1_555 1_555
C30 C27 1_555 1_555
H20 C30 1_555 1_555
H21 C30 1_555 1_555
H22 C30 1_555 1_555
C6 C7 1_555 1_555
C8 C17 1_555 1_555
C14 C15 1_555 1_555
C16 C17 1_555 1_555
C22 C23 1_555 1_555
C28 C29 1_555 1_555

#END
