
#######################################################################
#
#                 Cambridge Crystallographic Data Centre
#                                CCDC 
#
#######################################################################
#
# If this CIF has been generated from an entry in the Cambridge 
# Structural Database, then it will include bibliographic, chemical, 
# crystal, experimental, refinement or atomic coordinate data resulting 
# from the CCDC's data processing and validation procedures.
#
#######################################################################

data_LIGRUR
_chemical_formula_moiety         'C19 H22 O4'
_chemical_name_systematic        
2,12-dimethoxy-3,11-dimethyl-7,8-dihydro-6H-dibenzo[f,h][1,5]dioxonine
_symmetry_cell_setting           orthorhombic
_symmetry_space_group_name_H-M   'P b c n'
_symmetry_Int_Tables_number      60
_space_group_name_Hall           '-P 2n 2ab'
loop_
_symmetry_equiv_pos_site_id
_symmetry_equiv_pos_as_xyz
1 x,y,z
2 1/2-x,1/2-y,1/2+z
3 -x,y,1/2-z
4 1/2+x,1/2-y,-z
5 -x,-y,-z
6 1/2+x,1/2+y,1/2-z
7 x,-y,1/2+z
8 1/2-x,1/2+y,z
_cell_length_a                   7.49840(10)
_cell_length_b                   10.1051(2)
_cell_length_c                   20.5483(4)
_cell_angle_alpha                90
_cell_angle_beta                 90
_cell_angle_gamma                90
_cell_volume                     1556.99
_exptl_crystal_colour            colorless
_exptl_crystal_description       plate
_cell_formula_units_Z            4
loop_
_atom_site_label
_atom_site_type_symbol
_atom_site_fract_x
_atom_site_fract_y
_atom_site_fract_z
O1 O 0.14721(9) 0.56714(6) 0.21305(3)
O2 O -0.02426(10) 0.11349(7) 0.07583(3)
C1 C 0.0000 0.76816(14) 0.2500
C2 C 0.05319(15) 0.68484(10) 0.19166(5)
C3 C 0.01587(12) 0.34899(10) 0.21424(5)
C4 C 0.09276(12) 0.45445(9) 0.18029(5)
C5 C 0.12042(13) 0.44536(10) 0.11329(5)
C6 C 0.07724(13) 0.33275(10) 0.07818(5)
C7 C 0.00610(13) 0.22502(10) 0.11252(5)
C8 C -0.02657(13) 0.23383(10) 0.17875(5)
C9 C 0.10808(16) 0.32405(12) 0.00589(5)
C10 C -0.08264(15) -0.00224(11) 0.10921(6)
H1 H 0.0971(18) 0.8281(13) 0.2631(6)
H2 H 0.1297(16) 0.7370(12) 0.1618(6)
H3 H -0.0521(17) 0.6574(12) 0.1686(6)
H4 H 0.1768(17) 0.5228(13) 0.0908(6)
H5 H -0.0795(17) 0.1589(12) 0.2024(6)
H6 H -0.003(2) 0.3039(15) -0.0178(7)
H7 H 0.153(2) 0.4058(16) -0.0110(7)
H8 H 0.195(2) 0.2544(15) -0.0049(7)
H9 H 0.0008(19) -0.0262(12) 0.1451(7)
H10 H -0.2039(19) 0.0073(13) 0.1288(6)
H11 H -0.0823(19) -0.0739(14) 0.0767(7)
O1B O -0.14721(9) 0.56714(6) 0.28695(3)
O2B O 0.02426(10) 0.11349(7) 0.42417(3)
C2B C -0.05319(15) 0.68484(10) 0.30834(5)
C3B C -0.01587(12) 0.34899(10) 0.28576(5)
C4B C -0.09276(12) 0.45445(9) 0.31971(5)
C5B C -0.12042(13) 0.44536(10) 0.38671(5)
C6B C -0.07724(13) 0.33275(10) 0.42182(5)
C7B C -0.00610(13) 0.22502(10) 0.38748(5)
C8B C 0.02657(13) 0.23383(10) 0.32125(5)
C9B C -0.10808(16) 0.32405(12) 0.49411(5)
C10B C 0.08264(15) -0.00224(11) 0.39079(6)
H1B H -0.0971(18) 0.8281(13) 0.2369(6)
H2B H -0.1297(16) 0.7370(12) 0.3382(6)
H3B H 0.0521(17) 0.6574(12) 0.3314(6)
H4B H -0.1768(17) 0.5228(13) 0.4092(6)
H5B H 0.0795(17) 0.1589(12) 0.2976(6)
H6B H 0.003(2) 0.3039(15) 0.5178(7)
H7B H -0.153(2) 0.4058(16) 0.5110(7)
H8B H -0.195(2) 0.2544(15) 0.5049(7)
H9B H -0.0008(19) -0.0262(12) 0.3549(7)
H10B H 0.2039(19) 0.0073(13) 0.3712(6)
H11B H 0.0823(19) -0.0739(14) 0.4233(7)
loop_
_geom_bond_atom_site_label_1
_geom_bond_atom_site_label_2
_geom_bond_site_symmetry_1
_geom_bond_site_symmetry_2
O1 C2 1_555 1_555
O2 C7 1_555 1_555
C1 C2 1_555 1_555
C2 H2 1_555 1_555
C3 C4 1_555 1_555
C4 O1 1_555 1_555
C5 C4 1_555 1_555
C6 C5 1_555 1_555
C7 C6 1_555 1_555
C8 C3 1_555 1_555
C9 C6 1_555 1_555
C10 O2 1_555 1_555
H1 C1 1_555 1_555
H3 C2 1_555 1_555
H4 C5 1_555 1_555
H5 C8 1_555 1_555
H6 C9 1_555 1_555
H7 C9 1_555 1_555
H8 C9 1_555 1_555
H9 C10 1_555 1_555
H10 C10 1_555 1_555
H11 C10 1_555 1_555
O1B C2B 1_555 1_555
O2B C7B 1_555 1_555
C2B C1 1_555 1_555
C3B C3 1_555 1_555
C4B O1B 1_555 1_555
C5B C4B 1_555 1_555
C6B C5B 1_555 1_555
C7B C6B 1_555 1_555
C8B C3B 1_555 1_555
C9B C6B 1_555 1_555
C10B O2B 1_555 1_555
H1B C1 1_555 1_555
H2B C2B 1_555 1_555
H3B C2B 1_555 1_555
H4B C5B 1_555 1_555
H5B C8B 1_555 1_555
H6B C9B 1_555 1_555
H7B C9B 1_555 1_555
H8B C9B 1_555 1_555
H9B C10B 1_555 1_555
H10B C10B 1_555 1_555
H11B C10B 1_555 1_555
C7 C8 1_555 1_555
C3B C4B 1_555 1_555
C7B C8B 1_555 1_555

#END
