
#######################################################################
#
#                 Cambridge Crystallographic Data Centre
#                                CCDC 
#
#######################################################################
#
# If this CIF has been generated from an entry in the Cambridge 
# Structural Database, then it will include bibliographic, chemical, 
# crystal, experimental, refinement or atomic coordinate data resulting 
# from the CCDC's data processing and validation procedures.
#
#######################################################################

data_LIGSIG
_chemical_formula_moiety         'C17 H18 O4'
_chemical_name_systematic        
2,10-dimethoxy-3,9-dimethyl-6H-dibenzo[d,f][1,3]dioxepine
_symmetry_cell_setting           monoclinic
_symmetry_space_group_name_H-M   'C 2/c'
_symmetry_Int_Tables_number      15
_space_group_name_Hall           '-C 2yn'
loop_
_symmetry_equiv_pos_site_id
_symmetry_equiv_pos_as_xyz
1 x,y,z
2 -x,y,1/2-z
3 1/2+x,1/2+y,z
4 1/2-x,1/2+y,1/2-z
5 -x,-y,-z
6 x,-y,1/2+z
7 1/2-x,1/2-y,-z
8 1/2+x,1/2-y,1/2+z
_cell_length_a                   11.1202(3)
_cell_length_b                   11.2585(3)
_cell_length_c                   11.2577(3)
_cell_angle_alpha                90
_cell_angle_beta                 99.472(2)
_cell_angle_gamma                90
_cell_volume                     1390.21
_exptl_crystal_colour            colorless
_exptl_crystal_description       bipyramid
_cell_formula_units_Z            4
loop_
_atom_site_label
_atom_site_type_symbol
_atom_site_fract_x
_atom_site_fract_y
_atom_site_fract_z
O1 O -0.05731(7) 0.40122(6) -0.17119(6)
O2 O 0.18803(7) 0.02011(6) 0.06458(6)
C1 C 0.02363(9) 0.20377(9) -0.18428(9)
C2 C 0.01122(9) 0.30575(9) -0.11724(10)
C3 C 0.05679(9) 0.31143(10) 0.00491(10)
C4 C 0.11513(9) 0.21506(10) 0.06526(9)
C5 C 0.12827(9) 0.11131(9) -0.00102(9)
C6 C 0.08350(10) 0.10573(9) -0.12410(10)
C7 C 0.0000 0.47057(14) -0.2500
C8 C 0.16259(11) 0.21956(11) 0.19818(10)
C9 C 0.20556(11) -0.08700(10) 0.00222(10)
H1 H 0.0468(11) 0.3834(11) 0.0470(12)
H2 H 0.0953(11) 0.0342(12) -0.1693(12)
H3 H -0.0642(11) 0.5196(11) -0.2928(11)
H4 H 0.2418(14) 0.1900(12) 0.2192(12)
H5 H 0.1641(15) 0.3009(17) 0.2251(16)
H6 H 0.1121(15) 0.1714(15) 0.2423(15)
H7 H 0.1261(13) -0.1233(11) -0.0331(12)
H8 H 0.2563(12) -0.0751(12) -0.0602(12)
H9 H 0.2455(13) -0.1420(13) 0.0622(13)
O1A O 0.05731(7) 0.40122(6) -0.32881(6)
O2A O -0.18803(7) 0.02011(6) -0.56458(6)
C1A C -0.02363(9) 0.20377(9) -0.31572(9)
C2A C -0.01122(9) 0.30575(9) -0.38276(10)
C3A C -0.05679(9) 0.31143(10) -0.50491(10)
C4A C -0.11513(9) 0.21506(10) -0.56526(9)
C5A C -0.12827(9) 0.11131(9) -0.49898(9)
C6A C -0.08350(10) 0.10573(9) -0.37590(10)
C8A C -0.16259(11) 0.21956(11) -0.69818(10)
C9A C -0.20556(11) -0.08700(10) -0.50222(10)
H1A H -0.0468(11) 0.3834(11) -0.5470(12)
H2A H -0.0953(11) 0.0342(12) -0.3307(12)
H3A H 0.0642(11) 0.5196(11) -0.2072(11)
H4A H -0.2418(14) 0.1900(12) -0.7192(12)
H5A H -0.1641(15) 0.3009(17) -0.7251(16)
H6A H -0.1121(15) 0.1714(15) -0.7423(15)
H7A H -0.1261(13) -0.1233(11) -0.4669(12)
H8A H -0.2563(12) -0.0751(12) -0.4398(12)
H9A H -0.2455(13) -0.1420(13) -0.5622(13)
loop_
_geom_bond_atom_site_label_1
_geom_bond_atom_site_label_2
_geom_bond_site_symmetry_1
_geom_bond_site_symmetry_2
O1 C2 1_555 1_555
O2 C5 1_555 1_555
C1 C2 1_555 1_555
C2 C3 1_555 1_555
C3 C4 1_555 1_555
C4 C5 1_555 1_555
C5 C6 1_555 1_555
C6 C1 1_555 1_555
C7 O1 1_555 1_555
C8 C4 1_555 1_555
C9 O2 1_555 1_555
H1 C3 1_555 1_555
H2 C6 1_555 1_555
H3 C7 1_555 1_555
H4 C8 1_555 1_555
H5 C8 1_555 1_555
H6 C8 1_555 1_555
H7 C9 1_555 1_555
H8 C9 1_555 1_555
H9 C9 1_555 1_555
O1A C7 1_555 1_555
O2A C5A 1_555 1_555
C1A C1 1_555 1_555
C2A O1A 1_555 1_555
C3A C2A 1_555 1_555
C4A C3A 1_555 1_555
C5A C4A 1_555 1_555
C6A C1A 1_555 1_555
C8A C4A 1_555 1_555
C9A O2A 1_555 1_555
H1A C3A 1_555 1_555
H2A C6A 1_555 1_555
H3A C7 1_555 1_555
H4A C8A 1_555 1_555
H5A C8A 1_555 1_555
H6A C8A 1_555 1_555
H7A C9A 1_555 1_555
H8A C9A 1_555 1_555
H9A C9A 1_555 1_555
C1A C2A 1_555 1_555
C5A C6A 1_555 1_555

#END
