
#######################################################################
#
#                 Cambridge Crystallographic Data Centre
#                                CCDC 
#
#######################################################################
#
# If this CIF has been generated from an entry in the Cambridge 
# Structural Database, then it will include bibliographic, chemical, 
# crystal, experimental, refinement or atomic coordinate data resulting 
# from the CCDC's data processing and validation procedures.
#
#######################################################################

data_LIGTEA
_chemical_formula_moiety         'C7 H7 O3 S1 1-,C36 H30 N1 P2 1+'
_chemical_name_systematic        
'bis(Triphenylphosphine)iminium p-tolylsulfonate'
_symmetry_cell_setting           monoclinic
_symmetry_space_group_name_H-M   'P 21/c'
_symmetry_Int_Tables_number      14
_space_group_name_Hall           '-P 2ybc'
loop_
_symmetry_equiv_pos_site_id
_symmetry_equiv_pos_as_xyz
1 x,y,z
2 -x,1/2+y,1/2-z
3 -x,-y,-z
4 x,1/2-y,1/2+z
_cell_length_a                   9.421
_cell_length_b                   29.140
_cell_length_c                   14.138
_cell_angle_alpha                90
_cell_angle_beta                 105.70
_cell_angle_gamma                90
_cell_volume                     3736.47
_cell_formula_units_Z            4
loop_
_atom_site_label
_atom_site_type_symbol
_atom_site_fract_x
_atom_site_fract_y
_atom_site_fract_z
S1 S -0.2380(2) 0.8859(1) 0.2713(1)
O1 O -0.3082(6) 0.8816(1) 0.1688(3)
O2 O -0.1501(5) 0.8462(1) 0.3109(3)
O3 O -0.3382(6) 0.9009(2) 0.3276(4)
C1 C -0.1077(6) 0.9311(2) 0.2851(4)
C2 C -0.0055(8) 0.9294(2) 0.2314(5)
C3 C 0.1069(9) 0.9594(3) 0.2486(6)
C4 C 0.1237(9) 0.9930(3) 0.3186(7)
C5 C 0.0183(9) 0.9967(2) 0.3703(5)
C6 C -0.0974(7) 0.9654(2) 0.3536(4)
C7 C 0.2576(9) 1.0244(3) 0.3431(7)
N1 N 0.5310(4) 1.1575(1) 0.1376(3)
P1 P 0.6202(1) 1.1126(1) 0.1757(1)
P2 P 0.4558(1) 1.1995(1) 0.1759(1)
C8 C 0.7704(5) 1.1099(2) 0.1204(3)
C9 C 0.8841(6) 1.0787(2) 0.1503(4)
C10 C 0.9966(6) 1.0766(2) 0.1064(4)
C11 C 0.9975(6) 1.1058(2) 0.0303(4)
C12 C 0.8864(7) 1.1363(2) -0.0013(4)
C13 C 0.7721(6) 1.1386(2) 0.0425(4)
C14 C 0.5103(5) 1.0622(2) 0.1370(3)
C15 C 0.3879(5) 1.0652(2) 0.0572(3)
C16 C 0.3067(6) 1.0264(2) 0.0214(4)
C17 C 0.3483(7) 0.9848(2) 0.0653(4)
C18 C 0.4716(6) 0.9813(2) 0.1439(4)
C19 C 0.5531(6) 1.0196(2) 0.1790(4)
C20 C 0.6964(5) 1.1088(2) 0.3068(3)
C21 C 0.6154(6) 1.0896(2) 0.3645(4)
C22 C 0.6721(7) 1.0891(2) 0.4659(4)
C23 C 0.8076(7) 1.1079(2) 0.5081(4)
C24 C 0.8868(6) 1.1277(2) 0.4518(4)
C25 C 0.8323(6) 1.1286(2) 0.3512(4)
C26 C 0.5771(5) 1.2484(2) 0.1996(3)
C27 C 0.7153(6) 1.2460(2) 0.1831(3)
C28 C 0.8063(7) 1.2837(2) 0.1973(4)
C29 C 0.7604(8) 1.3239(2) 0.2264(4)
C30 C 0.6238(8) 1.3275(2) 0.2435(4)
C31 C 0.5321(6) 1.2900(2) 0.2302(4)
C32 C 0.2941(5) 1.2151(1) 0.0815(3)
C33 C 0.1896(5) 1.2448(2) 0.1010(4)
C34 C 0.0707(7) 1.2583(2) 0.0272(4)
C35 C 0.0556(6) 1.2432(2) -0.0680(4)
C36 C 0.1575(6) 1.2139(2) -0.0881(4)
C37 C 0.2764(5) 1.2000(2) -0.0141(3)
C38 C 0.4042(5) 1.1885(2) 0.2861(3)
C39 C 0.2777(6) 1.1632(2) 0.2823(4)
C40 C 0.2430(7) 1.1504(2) 0.3668(5)
C41 C 0.3339(8) 1.1628(2) 0.4565(5)
C42 C 0.4591(8) 1.1878(2) 0.4617(4)
C43 C 0.4935(6) 1.2009(2) 0.3777(3)
loop_
_geom_bond_atom_site_label_1
_geom_bond_atom_site_label_2
_geom_bond_site_symmetry_1
_geom_bond_site_symmetry_2
S1 O1 1_555 1_555
O2 S1 1_555 1_555
O3 S1 1_555 1_555
C1 S1 1_555 1_555
C2 C1 1_555 1_555
C3 C2 1_555 1_555
C4 C3 1_555 1_555
C5 C4 1_555 1_555
C6 C1 1_555 1_555
C7 C4 1_555 1_555
N1 P1 1_555 1_555
P1 C8 1_555 1_555
P2 N1 1_555 1_555
C8 C9 1_555 1_555
C9 C10 1_555 1_555
C10 C11 1_555 1_555
C11 C12 1_555 1_555
C12 C13 1_555 1_555
C13 C8 1_555 1_555
C14 P1 1_555 1_555
C15 C14 1_555 1_555
C16 C15 1_555 1_555
C17 C16 1_555 1_555
C18 C17 1_555 1_555
C19 C14 1_555 1_555
C20 P1 1_555 1_555
C21 C20 1_555 1_555
C22 C21 1_555 1_555
C23 C22 1_555 1_555
C24 C23 1_555 1_555
C25 C20 1_555 1_555
C26 P2 1_555 1_555
C27 C26 1_555 1_555
C28 C27 1_555 1_555
C29 C28 1_555 1_555
C30 C29 1_555 1_555
C31 C26 1_555 1_555
C32 P2 1_555 1_555
C33 C32 1_555 1_555
C34 C33 1_555 1_555
C35 C34 1_555 1_555
C36 C35 1_555 1_555
C37 C32 1_555 1_555
C38 P2 1_555 1_555
C39 C38 1_555 1_555
C40 C39 1_555 1_555
C41 C40 1_555 1_555
C42 C41 1_555 1_555
C43 C38 1_555 1_555
C5 C6 1_555 1_555
C18 C19 1_555 1_555
C24 C25 1_555 1_555
C30 C31 1_555 1_555
C36 C37 1_555 1_555
C42 C43 1_555 1_555

#END
