
#######################################################################
#
#                 Cambridge Crystallographic Data Centre
#                                CCDC 
#
#######################################################################
#
# If this CIF has been generated from an entry in the Cambridge 
# Structural Database, then it will include bibliographic, chemical, 
# crystal, experimental, refinement or atomic coordinate data resulting 
# from the CCDC's data processing and validation procedures.
#
#######################################################################

data_LIGWUT
_chemical_formula_moiety         '2(C7 H9 N3 1+),O4 S1 2-'
_chemical_name_systematic        'bis(2-Methylbenzotriazole) sulfate'
_symmetry_cell_setting           triclinic
_symmetry_space_group_name_H-M   'P -1'
_symmetry_Int_Tables_number      2
_space_group_name_Hall           '-P 1'
loop_
_symmetry_equiv_pos_site_id
_symmetry_equiv_pos_as_xyz
1 x,y,z
2 -x,-y,-z
_cell_length_a                   6.986
_cell_length_b                   18.914
_cell_length_c                   6.990
_cell_angle_alpha                95.083
_cell_angle_beta                 115.56
_cell_angle_gamma                84.93
_cell_volume                     828.651
_cell_formula_units_Z            2
_chemical_properties_physical    'Extremely deliquescent'
loop_
_atom_site_label
_atom_site_type_symbol
_atom_site_fract_x
_atom_site_fract_y
_atom_site_fract_z
C1 C 0.3837(7) -0.1819(3) 0.2434(7)
N1 N 0.3333(5) -0.1111(2) 0.1571(5)
N2 N 0.3239(5) -0.0533(2) 0.2700(5)
N3 N 0.2969(4) -0.1024(2) -0.0438(4)
C2 C 0.2754(5) -0.0015(2) 0.1321(6)
C3 C 0.2414(6) 0.0726(3) 0.1616(7)
C4 C 0.1935(7) 0.1106(2) -0.0111(8)
C5 C 0.1769(6) 0.0804(3) -0.2071(8)
C6 C 0.2115(5) 0.0088(2) -0.2397(6)
C7 C 0.2575(5) -0.0318(2) -0.0646(6)
S1 S 0.0955(2) -0.2500(1) -0.4046(2)
O1 O 0.2735(5) -0.1992(2) -0.3327(5)
O2 O 0.0866(5) -0.2864(2) -0.5938(5)
O3 O -0.0947(5) -0.2131(2) -0.4125(6)
O4 O 0.1678(5) -0.3010(2) -0.2267(5)
C8 C 0.7422(7) -0.3181(3) -0.1176(7)
N4 N 0.6573(5) -0.3885(2) -0.1665(5)
N5 N 0.7705(5) -0.4473(2) -0.1757(5)
N6 N 0.4560(4) -0.3973(2) -0.2030(4)
C9 C 0.6326(6) -0.4987(2) -0.2246(5)
C10 C 0.6601(7) -0.5728(2) -0.2589(6)
C11 C 0.2930(8) -0.5800(3) -0.3218(6)
C12 C 0.4904(8) -0.6110(3) -0.3070(6)
C13 C 0.2591(6) -0.5086(2) -0.2883(5)
C14 C 0.4355(6) -0.4681(2) -0.2413(5)
loop_
_geom_bond_atom_site_label_1
_geom_bond_atom_site_label_2
_geom_bond_site_symmetry_1
_geom_bond_site_symmetry_2
C1 N1 1_555 1_555
N1 N2 1_555 1_555
N2 C2 1_555 1_555
N3 N1 1_555 1_555
C2 C3 1_555 1_555
C3 C4 1_555 1_555
C4 C5 1_555 1_555
C5 C6 1_555 1_555
C6 C7 1_555 1_555
C7 N3 1_555 1_555
S1 O1 1_555 1_555
O2 S1 1_555 1_555
O3 S1 1_555 1_555
O4 S1 1_555 1_555
C8 N4 1_555 1_555
N4 N5 1_555 1_555
N5 C9 1_555 1_555
N6 N4 1_555 1_555
C9 C10 1_555 1_555
C10 C12 1_555 1_555
C11 C12 1_555 1_555
C13 C11 1_555 1_555
C14 N6 1_555 1_555
C2 C7 1_555 1_555
C9 C14 1_555 1_555
C13 C14 1_555 1_555

#END
