
#######################################################################
#
#                 Cambridge Crystallographic Data Centre
#                                CCDC 
#
#######################################################################
#
# If this CIF has been generated from an entry in the Cambridge 
# Structural Database, then it will include bibliographic, chemical, 
# crystal, experimental, refinement or atomic coordinate data resulting 
# from the CCDC's data processing and validation procedures.
#
#######################################################################

data_LIHFOZ
_chemical_formula_moiety         'C22 H16 Br1 N1 O2'
_chemical_name_systematic        
3-(Anilinomethylene)-2-(2-bromophenyl)-2,3-dihydro-4H-chromen-4-one
_symmetry_cell_setting           monoclinic
_symmetry_space_group_name_H-M   'P 21/c'
_symmetry_Int_Tables_number      14
_space_group_name_Hall           '-P 2ybc'
loop_
_symmetry_equiv_pos_site_id
_symmetry_equiv_pos_as_xyz
1 x,y,z
2 -x,1/2+y,1/2-z
3 -x,-y,-z
4 x,1/2-y,1/2+z
_cell_length_a                   15.7458(9)
_cell_length_b                   5.1545(2)
_cell_length_c                   20.8004(10)
_cell_angle_alpha                90
_cell_angle_beta                 92.048(2)
_cell_angle_gamma                90
_cell_volume                     1687.12
_cell_formula_units_Z            4
loop_
_atom_site_label
_atom_site_type_symbol
_atom_site_fract_x
_atom_site_fract_y
_atom_site_fract_z
Br1 Br 0.43154(3) 0.17523(11) 0.04722(3)
O1 O 0.07523(19) 0.2298(7) 0.03128(16)
O2 O 0.22490(18) 0.1518(7) 0.19302(14)
N1 N 0.1859(2) 0.5898(8) -0.00852(18)
H1 H 0.1300 0.5192 -0.0174
C1 C 0.1853(3) 1.1032(10) -0.1304(2)
H2 H 0.1453 1.2113 -0.1528
C2 C 0.1362(3) -0.1733(11) 0.2334(2)
H3 H 0.1648 -0.1570 0.2742
C3 C 0.2153(3) 0.7661(10) -0.0538(2)
C4 C 0.2693(3) 0.2049(10) 0.1347(2)
H4 H 0.2940 0.0381 0.1195
C5 C 0.4176(3) 0.3925(9) 0.1205(2)
C6 C 0.1291(3) 0.1753(10) 0.0742(2)
C7 C 0.2100(3) 0.3061(11) 0.0824(2)
C8 C 0.2335(3) 0.4980(10) 0.0415(2)
H5 H 0.2881 0.5732 0.0490
C9 C 0.3011(3) 0.7853(11) -0.0663(2)
H6 H 0.3409 0.6724 -0.0453
C10 C 0.3422(3) 0.3852(9) 0.1533(2)
C11 C 0.3349(3) 0.5568(10) 0.2045(2)
H7 H 0.2844 0.5573 0.2282
C12 C 0.0296(3) -0.3770(10) 0.1637(3)
H8 H -0.0124 -0.5075 0.1569
C13 C 0.4001(3) 0.7268(10) 0.2216(2)
H9 H 0.3934 0.8448 0.2561
C14 C 0.1572(3) 0.9230(10) -0.0871(2)
H10 H 0.0982 0.9062 -0.0801
C15 C 0.2713(3) 1.1291(10) -0.1418(2)
H11 H 0.2904 1.2549 -0.1713
C16 C 0.4747(3) 0.7258(10) 0.1889(2)
H12 H 0.5196 0.8398 0.2016
C17 C 0.0716(3) -0.3568(10) 0.2234(2)
H13 H 0.0565 -0.4681 0.2576
C18 C 0.1576(3) -0.0165(10) 0.1828(2)
C19 C 0.0478(3) -0.2110(10) 0.1148(2)
H14 H 0.0169 -0.2221 0.0748
C20 C 0.4840(3) 0.5581(11) 0.1374(2)
H15 H 0.5350 0.5569 0.1143
C21 C 0.3285(3) 0.9688(11) -0.1094(3)
H16 H 0.3874 0.9848 -0.1168
C22 C 0.1123(3) -0.0236(9) 0.1236(2)
loop_
_geom_bond_atom_site_label_1
_geom_bond_atom_site_label_2
_geom_bond_site_symmetry_1
_geom_bond_site_symmetry_2
Br1 C5 1_555 1_555
O1 C6 1_555 1_555
O2 C4 1_555 1_555
N1 H1 1_555 1_555
C1 H2 1_555 1_555
C2 H3 1_555 1_555
C3 N1 1_555 1_555
C4 H4 1_555 1_555
C5 C10 1_555 1_555
C6 C7 1_555 1_555
C7 C4 1_555 1_555
C8 N1 1_555 1_555
H5 C8 1_555 1_555
C9 C3 1_555 1_555
H6 C9 1_555 1_555
C10 C4 1_555 1_555
C11 C10 1_555 1_555
H7 C11 1_555 1_555
C12 H8 1_555 1_555
C13 C11 1_555 1_555
H9 C13 1_555 1_555
C14 C1 1_555 1_555
H10 C14 1_555 1_555
C15 C1 1_555 1_555
H11 C15 1_555 1_555
C16 C13 1_555 1_555
H12 C16 1_555 1_555
C17 C2 1_555 1_555
H13 C17 1_555 1_555
C18 O2 1_555 1_555
C19 C12 1_555 1_555
H14 C19 1_555 1_555
C20 C5 1_555 1_555
H15 C20 1_555 1_555
C21 C9 1_555 1_555
H16 C21 1_555 1_555
C22 C6 1_555 1_555
C2 C18 1_555 1_555
C3 C14 1_555 1_555
C7 C8 1_555 1_555
C12 C17 1_555 1_555
C15 C21 1_555 1_555
C16 C20 1_555 1_555
C18 C22 1_555 1_555
C19 C22 1_555 1_555

#END
