
#######################################################################
#
#                 Cambridge Crystallographic Data Centre
#                                CCDC 
#
#######################################################################
#
# If this CIF has been generated from an entry in the Cambridge 
# Structural Database, then it will include bibliographic, chemical, 
# crystal, experimental, refinement or atomic coordinate data resulting 
# from the CCDC's data processing and validation procedures.
#
#######################################################################

data_LIHGAL
_chemical_formula_moiety         'C24 H26 N1 O3 1+,C2 F3 O2 1-'
_chemical_name_systematic        
'Ethyl N-(diphenylmethyl)-\b-hydroxyphenylalaninium trifluoroacetate'
_symmetry_cell_setting           triclinic
_symmetry_space_group_name_H-M   'P -1'
_symmetry_Int_Tables_number      2
_space_group_name_Hall           '-P 1'
loop_
_symmetry_equiv_pos_site_id
_symmetry_equiv_pos_as_xyz
1 x,y,z
2 -x,-y,-z
_cell_length_a                   9.6523(19)
_cell_length_b                   11.259(2)
_cell_length_c                   12.919(3)
_cell_angle_alpha                113.04(3)
_cell_angle_beta                 100.21(3)
_cell_angle_gamma                101.66(3)
_cell_volume                     1213.05
_cell_formula_units_Z            2
loop_
_atom_site_label
_atom_site_type_symbol
_atom_site_fract_x
_atom_site_fract_y
_atom_site_fract_z
C1 C 0.5502(3) 0.2689(3) -0.0953(3)
H1 H 0.4860 0.2713 -0.1619
N1 N 0.4688(3) 0.2767(3) -0.0053(2)
H2 H 0.424(3) 0.353(3) 0.008(2)
H3 H 0.534(3) 0.298(3) 0.059(3)
C2 C 0.3471(3) 0.1482(3) -0.0308(3)
H4 H 0.3963 0.0906 -0.0077
C3 C 0.2703(3) 0.0693(3) -0.1611(3)
C4 C 0.2642(4) -0.0654(3) -0.2173(3)
H5 H 0.3033 -0.1067 -0.1744
C5 C 0.1996(4) -0.1396(4) -0.3383(3)
H6 H 0.1951 -0.2302 -0.3760
C6 C 0.1427(4) -0.0776(4) -0.4008(3)
H7 H 0.1008 -0.1265 -0.4815
C7 C 0.1467(4) 0.0564(4) -0.3459(3)
H8 H 0.1075 0.0975 -0.3890
C8 C 0.2099(4) 0.1287(3) -0.2255(3)
H9 H 0.2116 0.2185 -0.1878
C9 C 0.2489(4) 0.1880(3) 0.0479(3)
C10 C 0.0997(4) 0.1687(4) 0.0061(3)
H10 H 0.0564 0.1327 -0.0742
C11 C 0.0142(4) 0.2022(4) 0.0821(4)
H11 H -0.0860 0.1878 0.0525
C12 C 0.0765(5) 0.2567(4) 0.2011(4)
H12 H 0.0192 0.2807 0.2522
C13 C 0.2253(5) 0.2756(4) 0.2445(4)
H13 H 0.2684 0.3114 0.3248
C14 C 0.3086(4) 0.2410(4) 0.1678(3)
H14 H 0.4083 0.2536 0.1976
C15 C 0.6927(3) 0.3902(3) -0.0439(3)
H15 H 0.7629 0.3805 0.0149
O1 O 0.6606(2) 0.5143(2) 0.0113(2)
H16 H 0.664(4) 0.528(3) 0.086(3)
C16 C 0.7606(3) 0.3884(3) -0.1408(3)
C17 C 0.8979(4) 0.3698(3) -0.1393(3)
H17 H 0.9510 0.3606 -0.0769
C18 C 0.9568(4) 0.3650(3) -0.2307(3)
H18 H 1.0497 0.3532 -0.2290
C19 C 0.8790(4) 0.3774(3) -0.3235(3)
H19 H 0.9189 0.3736 -0.3848
C20 C 0.7436(4) 0.3953(4) -0.3261(3)
H20 H 0.6908 0.4029 -0.3896
C21 C 0.6837(4) 0.4023(4) -0.2347(3)
H21 H 0.5917 0.4163 -0.2364
C22 C 0.5905(4) 0.1385(3) -0.1387(3)
O2 O 0.6318(3) 0.0908(2) -0.0747(2)
O3 O 0.5790(3) 0.0911(2) -0.2519(2)
C23 C 0.6288(6) -0.0277(4) -0.3025(4)
H22 H 0.7131 -0.0219 -0.2452
H23 H 0.5505 -0.1084 -0.3212
C24 C 0.6666(14) -0.0376(8) -0.4006(9)
H24 H 0.6974 -0.1171 -0.4323
H25 H 0.7462 0.0409 -0.3817
H26 H 0.5832 -0.0436 -0.4574
C25 C 0.6878(3) 0.4828(4) 0.2677(3)
O4 O 0.6714(3) 0.3602(2) 0.2100(2)
O5 O 0.6747(2) 0.5683(2) 0.23202(19)
C26 C 0.7287(5) 0.5350(4) 0.4004(3)
F1 F 0.6191(3) 0.5107(5) 0.4357(2)
F2 F 0.8007(4) 0.6646(3) 0.4593(2)
F3 F 0.8268(4) 0.4873(3) 0.4413(2)
loop_
_geom_bond_atom_site_label_1
_geom_bond_atom_site_label_2
_geom_bond_site_symmetry_1
_geom_bond_site_symmetry_2
C1 H1 1_555 1_555
N1 C1 1_555 1_555
H2 N1 1_555 1_555
H3 N1 1_555 1_555
C2 N1 1_555 1_555
H4 C2 1_555 1_555
C3 C2 1_555 1_555
C4 C3 1_555 1_555
H5 C4 1_555 1_555
C5 C4 1_555 1_555
H6 C5 1_555 1_555
C6 C5 1_555 1_555
H7 C6 1_555 1_555
C7 C6 1_555 1_555
H8 C7 1_555 1_555
C8 C3 1_555 1_555
H9 C8 1_555 1_555
C9 C2 1_555 1_555
C10 C9 1_555 1_555
H10 C10 1_555 1_555
C11 C10 1_555 1_555
H11 C11 1_555 1_555
C12 C11 1_555 1_555
H12 C12 1_555 1_555
C13 C12 1_555 1_555
H13 C13 1_555 1_555
C14 C9 1_555 1_555
H14 C14 1_555 1_555
C15 C1 1_555 1_555
H15 C15 1_555 1_555
O1 C15 1_555 1_555
H16 O1 1_555 1_555
C16 C15 1_555 1_555
C17 C16 1_555 1_555
H17 C17 1_555 1_555
C18 C17 1_555 1_555
H18 C18 1_555 1_555
C19 C18 1_555 1_555
H19 C19 1_555 1_555
C20 C19 1_555 1_555
H20 C20 1_555 1_555
C21 C16 1_555 1_555
H21 C21 1_555 1_555
C22 C1 1_555 1_555
O2 C22 1_555 1_555
O3 C22 1_555 1_555
C23 O3 1_555 1_555
H22 C23 1_555 1_555
H23 C23 1_555 1_555
C24 C23 1_555 1_555
H24 C24 1_555 1_555
H25 C24 1_555 1_555
H26 C24 1_555 1_555
C25 O4 1_555 1_555
O5 C25 1_555 1_555
C26 C25 1_555 1_555
F1 C26 1_555 1_555
F2 C26 1_555 1_555
F3 C26 1_555 1_555
C7 C8 1_555 1_555
C13 C14 1_555 1_555
C20 C21 1_555 1_555

#END
