
#######################################################################
#
#                 Cambridge Crystallographic Data Centre
#                                CCDC 
#
#######################################################################
#
# If this CIF has been generated from an entry in the Cambridge 
# Structural Database, then it will include bibliographic, chemical, 
# crystal, experimental, refinement or atomic coordinate data resulting 
# from the CCDC's data processing and validation procedures.
#
#######################################################################

data_LIHGER
_chemical_compound_source        'Ziziphus cambodiana'
_chemical_name_common            'Cambodine E monohydrate'
_chemical_formula_moiety         'C37 H36 N4 O4,H2 O1'
_chemical_name_systematic        
'7-benzyl-4-(4-benzyl-3-methyl-5-oxoimidazolidin-1-yl)-3-phenyl-2-oxa-6,9-diazabicyclo[10.2.2]hexadeca-1(14),10,12,15-tetraene-5,8-dione monohydrate'
_symmetry_cell_setting           orthorhombic
_symmetry_space_group_name_H-M   'P 21 21 21'
_symmetry_Int_Tables_number      19
_space_group_name_Hall           'P 2ac 2ab'
loop_
_symmetry_equiv_pos_site_id
_symmetry_equiv_pos_as_xyz
1 x,y,z
2 1/2+x,1/2-y,-z
3 -x,1/2+y,1/2-z
4 1/2-x,-y,1/2+z
_cell_length_a                   8.3830(1)
_cell_length_b                   9.5920(1)
_cell_length_c                   40.1370(7)
_cell_angle_alpha                90
_cell_angle_beta                 90
_cell_angle_gamma                90
_cell_volume                     3227.41
_exptl_crystal_colour            colorless
_exptl_crystal_description       needle
_chemical_melting_point          '135 deg.C'
_cell_formula_units_Z            4
_exptl_crystal_preparation       'slow evaperate'
loop_
_atom_site_label
_atom_site_type_symbol
_atom_site_fract_x
_atom_site_fract_y
_atom_site_fract_z
O1 O 0.93986(12) 0.03076(10) 0.86875(3)
O2 O 0.55459(13) 0.46581(10) 1.00156(3)
O3 O 1.07820(11) 0.48074(10) 0.85688(3)
O4 O 0.65442(12) 0.48283(10) 0.89336(2)
N1 N 0.76891(13) 0.21177(10) 0.85677(3)
N2 N 0.58951(13) 0.10178(11) 0.82345(3)
C1 C 0.74508(15) 0.38622(12) 0.89921(3)
C2 C 0.62749(16) -0.22774(13) 0.80711(3)
C3 C 0.81603(15) 0.07737(13) 0.85677(3)
C4 C 1.03571(16) 0.66988(14) 0.94994(4)
C5 C 0.54195(16) 0.07122(13) 0.94907(3)
C6 C 0.68520(16) -0.00644(13) 0.84000(3)
H1 H 0.62016(16) -0.05215(13) 0.85710(3)
C7 C 0.85766(15) 0.32504(12) 0.87246(3)
H2 H 0.95008(15) 0.28452(12) 0.88385(3)
N3 N 0.78886(14) 0.51348(12) 0.97534(3)
H3 H 0.85488(14) 0.48377(12) 0.95713(3)
N4 N 0.74632(13) 0.31518(11) 0.92829(3)
H4 H 0.82249(13) 0.24164(11) 0.93146(3)
C8 C 0.92008(15) 0.43417(13) 0.84685(3)
H5 H 0.84737(15) 0.51414(13) 0.84627(3)
C9 C 0.62056(16) 0.32950(12) 0.95316(3)
H6 H 0.52106(16) 0.35228(12) 0.94156(3)
C10 C 0.60897(15) 0.22801(13) 0.84315(3)
H7 H 0.52981(15) 0.23334(13) 0.86073(3)
H8 H 0.60141(15) 0.31070(13) 0.82933(3)
C11 C 0.84402(18) 0.62888(14) 0.99403(3)
H9 H 0.79605(18) 0.65094(14) 1.01424(3)
C12 C 0.96379(18) 0.70548(14) 0.98278(4)
H10 H 1.00234(18) 0.78019(14) 0.99517(4)
C13 C 0.57419(18) -0.24686(14) 0.77443(3)
H11 H 0.61660(18) -0.19257(14) 0.75739(3)
C14 C 0.56356(17) -0.31230(13) 0.83201(3)
H12 H 0.60018(17) -0.30302(13) 0.85377(3)
C15 C 0.59726(17) 0.18943(13) 0.97129(3)
H13 H 0.51967(17) 0.20224(13) 0.98895(3)
H14 H 0.69745(17) 0.16295(13) 0.98158(3)
C16 C 0.74912(16) -0.11677(13) 0.81585(3)
H15 H 0.84159(16) -0.16123(13) 0.82576(3)
H16 H 0.78368(16) -0.07105(13) 0.79554(3)
C17 C 0.44625(19) -0.41009(14) 0.82493(4)
H17 H 0.40316(19) -0.46418(14) 0.84193(4)
C18 C 0.93731(15) 0.37500(13) 0.81226(3)
C19 C 1.04842(17) 0.27003(16) 0.80617(4)
H18 H 1.11529(17) 0.23995(16) 0.82320(4)
C20 C 0.42136(17) 0.06719(16) 0.81875(4)
H19 H 0.41260(18) -0.0146(8) 0.8051(3)
H20 H 0.3729(4) 0.0498(13) 0.84002(5)
H21 H 0.3681(4) 0.1436(6) 0.8081(3)
C21 C 1.07775(16) 0.55131(13) 0.88714(3)
C22 C 1.14562(17) 0.48772(14) 0.91480(4)
H22 H 1.20425(17) 0.40599(14) 0.91247(4)
C23 C 0.65207(17) 0.44374(13) 0.97927(3)
C24 C 0.39872(17) 0.07959(15) 0.93156(4)
H23 H 0.33999(17) 0.16182(15) 0.93206(4)
C25 C 0.45858(19) -0.34601(15) 0.76709(4)
H24 H 0.42476(19) -0.35826(15) 0.74522(4)
C26 C 0.39348(19) -0.42682(16) 0.79235(5)
H25 H 0.31474(19) -0.49201(16) 0.78748(5)
C27 C 0.8513(2) 0.35908(16) 0.75515(4)
H26 H 0.7847(2) 0.38910(16) 0.73806(4)
C28 C 0.98746(17) 0.73994(14) 0.92127(4)
H27 H 0.94010(17) 0.82725(14) 0.92318(4)
C29 C 1.00871(17) 0.68192(14) 0.88994(4)
H28 H 0.97690(17) 0.73029(14) 0.87099(4)
C30 C 0.34257(19) -0.03354(16) 0.91335(4)
H29 H 0.24696(19) -0.02646(16) 0.90172(4)
C31 C 1.05968(19) 0.21023(17) 0.77480(4)
H30 H 1.13417(19) 0.14030(17) 0.77086(4)
C32 C 0.5725(2) -0.16573(15) 0.92927(4)
H31 H 0.6314(2) -0.24781(15) 0.92853(4)
C33 C 0.84049(18) 0.42017(15) 0.78661(4)
H32 H 0.76773(18) 0.49170(15) 0.79032(4)
C34 C 0.96031(19) 0.25433(17) 0.74932(4)
H33 H 0.96716(19) 0.21343(17) 0.72836(4)
C35 C 0.42879(19) -0.15697(16) 0.91248(4)
H34 H 0.39019(19) -0.23330(16) 0.90069(4)
C36 C 0.62919(18) -0.05188(14) 0.94728(4)
H35 H 0.72662(18) -0.05829(14) 0.95826(4)
C37 C 1.12479(18) 0.54787(15) 0.94607(4)
H36 H 1.17084(18) 0.50622(15) 0.96466(4)
O5 O 1.00301(13) 0.13247(12) 0.93432(3)
H37 H 1.030(2) 0.0821(19) 0.9517(5)
H38 H 1.003(2) 0.0798(19) 0.9174(5)
loop_
_geom_bond_atom_site_label_1
_geom_bond_atom_site_label_2
_geom_bond_site_symmetry_1
_geom_bond_site_symmetry_2
O1 C3 1_555 1_555
O2 C23 1_555 1_555
O3 C8 1_555 1_555
O4 C1 1_555 1_555
N1 C3 1_555 1_555
N2 C6 1_555 1_555
C1 C7 1_555 1_555
C2 C13 1_555 1_555
C3 C6 1_555 1_555
C4 C12 1_555 1_555
C5 C15 1_555 1_555
C6 H1 1_555 1_555
C7 N1 1_555 1_555
H2 C7 1_555 1_555
N3 H3 1_555 1_555
N4 C1 1_555 1_555
H4 N4 1_555 1_555
C8 C7 1_555 1_555
H5 C8 1_555 1_555
C9 N4 1_555 1_555
H6 C9 1_555 1_555
C10 N1 1_555 1_555
H7 C10 1_555 1_555
H8 C10 1_555 1_555
C11 N3 1_555 1_555
H9 C11 1_555 1_555
C12 C11 1_555 1_555
H10 C12 1_555 1_555
C13 H11 1_555 1_555
C14 C2 1_555 1_555
H12 C14 1_555 1_555
C15 C9 1_555 1_555
H13 C15 1_555 1_555
H14 C15 1_555 1_555
C16 C2 1_555 1_555
H15 C16 1_555 1_555
H16 C16 1_555 1_555
C17 C14 1_555 1_555
H17 C17 1_555 1_555
C18 C8 1_555 1_555
C19 C18 1_555 1_555
H18 C19 1_555 1_555
C20 N2 1_555 1_555
H19 C20 1_555 1_555
H20 C20 1_555 1_555
H21 C20 1_555 1_555
C21 O3 1_555 1_555
C22 C21 1_555 1_555
H22 C22 1_555 1_555
C23 N3 1_555 1_555
C24 C5 1_555 1_555
H23 C24 1_555 1_555
C25 C13 1_555 1_555
H24 C25 1_555 1_555
C26 C17 1_555 1_555
H25 C26 1_555 1_555
C27 H26 1_555 1_555
C28 C4 1_555 1_555
H27 C28 1_555 1_555
C29 C21 1_555 1_555
H28 C29 1_555 1_555
C30 C24 1_555 1_555
H29 C30 1_555 1_555
C31 C19 1_555 1_555
H30 C31 1_555 1_555
C32 H31 1_555 1_555
C33 C18 1_555 1_555
H32 C33 1_555 1_555
C34 C27 1_555 1_555
H33 C34 1_555 1_555
C35 C30 1_555 1_555
H34 C35 1_555 1_555
C36 C5 1_555 1_555
H35 C36 1_555 1_555
C37 C4 1_555 1_555
H36 C37 1_555 1_555
O5 H37 1_555 1_555
H38 O5 1_555 1_555
N2 C10 1_555 1_555
C6 C16 1_555 1_555
C9 C23 1_555 1_555
C22 C37 1_555 1_555
C25 C26 1_555 1_555
C27 C33 1_555 1_555
C28 C29 1_555 1_555
C31 C34 1_555 1_555
C32 C35 1_555 1_555
C32 C36 1_555 1_555

#END
