
#######################################################################
#
#                 Cambridge Crystallographic Data Centre
#                                CCDC 
#
#######################################################################
#
# If this CIF has been generated from an entry in the Cambridge 
# Structural Database, then it will include bibliographic, chemical, 
# crystal, experimental, refinement or atomic coordinate data resulting 
# from the CCDC's data processing and validation procedures.
#
#######################################################################

data_LIHHUI
_chemical_name_common            dihexylamine
_chemical_formula_moiety         'C12 H27 N1'
_chemical_name_systematic        N-hexylhexan-1-amine
_symmetry_cell_setting           orthorhombic
_symmetry_space_group_name_H-M   'P b c m'
_symmetry_Int_Tables_number      57
_space_group_name_Hall           '-P 2c 2b'
loop_
_symmetry_equiv_pos_site_id
_symmetry_equiv_pos_as_xyz
1 x,y,z
2 -x,-y,1/2+z
3 -x,1/2+y,1/2-z
4 x,1/2-y,-z
5 -x,-y,-z
6 x,y,1/2-z
7 x,1/2-y,1/2+z
8 -x,1/2+y,z
_cell_length_a                   4.856(4)
_cell_length_b                   7.056(6)
_cell_length_c                   36.24(3)
_cell_angle_alpha                90
_cell_angle_beta                 90
_cell_angle_gamma                90
_cell_volume                     1241.73
_exptl_crystal_colour            colorless
_exptl_crystal_description       cylinder
_cell_formula_units_Z            4
_exptl_crystal_recrystallization_method 'From the Melt'
loop_
_atom_site_label
_atom_site_type_symbol
_atom_site_fract_x
_atom_site_fract_y
_atom_site_fract_z
N1 N 0.8304(4) 0.0609(3) 0.2500
H1 H 0.827(5) -0.056(3) 0.2500
C1 C 0.6961(3) 0.1323(2) 0.28340(3)
H2 H 0.4969 0.1031 0.2823
H3 H 0.7168 0.2718 0.2845
C2 C 0.8179(4) 0.0452(2) 0.31810(3)
H4 H 1.0189 0.0686 0.3185
H5 H 0.7887 -0.0936 0.3175
C3 C 0.6903(3) 0.1255(2) 0.35324(3)
H6 H 0.7202 0.2643 0.3537
H7 H 0.4891 0.1030 0.3527
C4 C 0.8077(3) 0.0395(2) 0.38845(3)
H8 H 1.0091 0.0609 0.3890
H9 H 0.7758 -0.0990 0.3881
C5 C 0.6808(3) 0.1225(2) 0.42339(4)
H10 H 0.4791 0.1023 0.4227
H11 H 0.7144 0.2608 0.4238
C6 C 0.7961(3) 0.0350(2) 0.45872(4)
H12 H 0.7086 0.0943 0.4802
H13 H 0.9955 0.0561 0.4598
H14 H 0.7584 -0.1014 0.4589
C1E C 0.6961(3) 0.1323(2) 0.21660(3)
H2E H 0.4969 0.1031 0.2177
H3E H 0.7168 0.2718 0.2155
C2E C 0.8179(4) 0.0452(2) 0.18190(3)
H4E H 1.0189 0.0686 0.1815
H5E H 0.7887 -0.0936 0.1825
C3E C 0.6903(3) 0.1255(2) 0.14676(3)
H6E H 0.7202 0.2643 0.1463
H7E H 0.4891 0.1030 0.1473
C4E C 0.8077(3) 0.0395(2) 0.11155(3)
H8E H 1.0091 0.0609 0.1110
H9E H 0.7758 -0.0990 0.1119
C5E C 0.6808(3) 0.1225(2) 0.07661(4)
H10E H 0.4791 0.1023 0.0773
H11E H 0.7144 0.2608 0.0762
C6E C 0.7961(3) 0.0350(2) 0.04128(4)
H12E H 0.7086 0.0943 0.0198
H13E H 0.9955 0.0561 0.0402
H14E H 0.7584 -0.1014 0.0411
loop_
_geom_bond_atom_site_label_1
_geom_bond_atom_site_label_2
_geom_bond_site_symmetry_1
_geom_bond_site_symmetry_2
N1 H1 1_555 1_555
C1 N1 1_555 1_555
H2 C1 1_555 1_555
H3 C1 1_555 1_555
C2 C1 1_555 1_555
H4 C2 1_555 1_555
H5 C2 1_555 1_555
C3 C2 1_555 1_555
H6 C3 1_555 1_555
H7 C3 1_555 1_555
C4 C3 1_555 1_555
H8 C4 1_555 1_555
H9 C4 1_555 1_555
C5 C4 1_555 1_555
H10 C5 1_555 1_555
H11 C5 1_555 1_555
C6 C5 1_555 1_555
H12 C6 1_555 1_555
H13 C6 1_555 1_555
H14 C6 1_555 1_555
C1E N1 1_555 1_555
H2E C1E 1_555 1_555
H3E C1E 1_555 1_555
C2E C1E 1_555 1_555
H4E C2E 1_555 1_555
H5E C2E 1_555 1_555
C3E C2E 1_555 1_555
H6E C3E 1_555 1_555
H7E C3E 1_555 1_555
C4E C3E 1_555 1_555
H8E C4E 1_555 1_555
H9E C4E 1_555 1_555
C5E C4E 1_555 1_555
H10E C5E 1_555 1_555
H11E C5E 1_555 1_555
C6E C5E 1_555 1_555
H12E C6E 1_555 1_555
H13E C6E 1_555 1_555
H14E C6E 1_555 1_555

#END
