
#######################################################################
#
#                 Cambridge Crystallographic Data Centre
#                                CCDC 
#
#######################################################################
#
# If this CIF has been generated from an entry in the Cambridge 
# Structural Database, then it will include bibliographic, chemical, 
# crystal, experimental, refinement or atomic coordinate data resulting 
# from the CCDC's data processing and validation procedures.
#
#######################################################################

data_LIHHOC
_chemical_name_common            Dibutylamine
_chemical_formula_moiety         'C8 H19 N1'
_chemical_name_systematic        N-butylbutan-1-amine
_symmetry_cell_setting           orthorhombic
_symmetry_space_group_name_H-M   'P b c m'
_symmetry_Int_Tables_number      57
_space_group_name_Hall           '-P 2c 2b'
loop_
_symmetry_equiv_pos_site_id
_symmetry_equiv_pos_as_xyz
1 x,y,z
2 -x,-y,1/2+z
3 -x,1/2+y,1/2-z
4 x,1/2-y,-z
5 -x,-y,-z
6 x,y,1/2-z
7 x,1/2-y,1/2+z
8 -x,1/2+y,z
_cell_length_a                   4.8201(15)
_cell_length_b                   7.003(2)
_cell_length_c                   26.028(8)
_cell_angle_alpha                90
_cell_angle_beta                 90
_cell_angle_gamma                90
_cell_volume                     878.579
_exptl_crystal_colour            colorless
_exptl_crystal_description       cylinder
_chemical_melting_point          '211 K'
_cell_formula_units_Z            4
_exptl_crystal_recrystallization_method 'From the Melt'
loop_
_atom_site_label
_atom_site_type_symbol
_atom_site_fract_x
_atom_site_fract_y
_atom_site_fract_z
N1 N 0.8302(3) 0.0610(3) 0.2500
H1 H 0.819(5) -0.064(4) 0.2500
C1 C 0.6949(2) 0.1337(2) 0.29629(4)
H2 H 0.4938 0.1058 0.2945
H3 H 0.7179 0.2740 0.2979
C2 C 0.8145(2) 0.0449(2) 0.34466(4)
H4 H 1.0172 0.0678 0.3456
H5 H 0.7841 -0.0949 0.3437
C3 C 0.6838(2) 0.12614(19) 0.39325(4)
H6 H 0.7169 0.2656 0.3943
H7 H 0.4807 0.1054 0.3919
C4 C 0.7973(3) 0.0366(2) 0.44220(5)
H8 H 0.7053 0.0937 0.4721
H9 H 0.9975 0.0597 0.4443
H10 H 0.7621 -0.1012 0.4417
C1E C 0.6949(2) 0.1337(2) 0.20371(4)
H2E H 0.4938 0.1058 0.2055
H3E H 0.7179 0.2740 0.2021
C2E C 0.8145(2) 0.0449(2) 0.15534(4)
H4E H 1.0172 0.0678 0.1544
H5E H 0.7841 -0.0949 0.1563
C3E C 0.6838(2) 0.12614(19) 0.10675(4)
H6E H 0.7169 0.2656 0.1057
H7E H 0.4807 0.1054 0.1081
C4E C 0.7973(3) 0.0366(2) 0.05780(5)
H8E H 0.7053 0.0937 0.0279
H9E H 0.9975 0.0597 0.0557
H10E H 0.7621 -0.1012 0.0583
loop_
_geom_bond_atom_site_label_1
_geom_bond_atom_site_label_2
_geom_bond_site_symmetry_1
_geom_bond_site_symmetry_2
N1 H1 1_555 1_555
C1 N1 1_555 1_555
H2 C1 1_555 1_555
H3 C1 1_555 1_555
C2 C1 1_555 1_555
H4 C2 1_555 1_555
H5 C2 1_555 1_555
C3 C2 1_555 1_555
H6 C3 1_555 1_555
H7 C3 1_555 1_555
C4 C3 1_555 1_555
H8 C4 1_555 1_555
H9 C4 1_555 1_555
H10 C4 1_555 1_555
C1E N1 1_555 1_555
H2E C1E 1_555 1_555
H3E C1E 1_555 1_555
C2E C1E 1_555 1_555
H4E C2E 1_555 1_555
H5E C2E 1_555 1_555
C3E C2E 1_555 1_555
H6E C3E 1_555 1_555
H7E C3E 1_555 1_555
C4E C3E 1_555 1_555
H8E C4E 1_555 1_555
H9E C4E 1_555 1_555
H10E C4E 1_555 1_555

#END
