
#######################################################################
#
#                 Cambridge Crystallographic Data Centre
#                                CCDC 
#
#######################################################################
#
# If this CIF has been generated from an entry in the Cambridge 
# Structural Database, then it will include bibliographic, chemical, 
# crystal, experimental, refinement or atomic coordinate data resulting 
# from the CCDC's data processing and validation procedures.
#
#######################################################################

data_LIHJAP
_chemical_compound_source        'endophytic fungus Epicoccum nigrum'
_chemical_name_common            'Rostratin A dihydrate'
_chemical_formula_moiety         'C18 H24 N2 O6 S2,2(H2 O1)'
_chemical_name_systematic        
'5,8,15,18-Tetrahydroxy-21,22-dithia-3,13-diazahexacyclo[9.9.2.0^1,13^.0^3,11^.0^4,9^.0^14,19^]docosane-2,12-dione dihydrate'
_symmetry_cell_setting           monoclinic
_symmetry_space_group_name_H-M   'P 21'
_symmetry_Int_Tables_number      4
_space_group_name_Hall           'P 2yb'
loop_
_symmetry_equiv_pos_site_id
_symmetry_equiv_pos_as_xyz
1 x,y,z
2 -x,1/2+y,-z
_cell_length_a                   7.5089(15)
_cell_length_b                   8.5861(17)
_cell_length_c                   15.762(3)
_cell_angle_alpha                90
_cell_angle_beta                 97.91(3)
_cell_angle_gamma                90
_cell_volume                     1006.54
_exptl_crystal_colour            colorless
_exptl_crystal_description       block
_cell_formula_units_Z            2
loop_
_atom_site_label
_atom_site_type_symbol
_atom_site_fract_x
_atom_site_fract_y
_atom_site_fract_z
S1 S 0.13162(9) 0.82649(7) 0.28081(4)
S2 S 0.35899(10) 0.81719(9) 0.21885(4)
O1 O -0.0579(2) 1.0314(2) 0.55861(11)
H1 H -0.1529 1.0648 0.5300
O2 O 0.6353(2) 1.1789(2) 0.48129(11)
H2 H 0.6401 1.1544 0.4301
O3 O 0.6012(2) 1.1268(3) 0.31454(11)
O4 O 0.5820(2) 1.0328(2) -0.05265(11)
H3 H 0.6791 1.0717 -0.0292
O5 O -0.1112(2) 1.1925(2) 0.02120(10)
H4 H -0.1087 1.1767 0.0740
O6 O -0.0731(2) 1.1649(3) 0.19106(11)
N1 N 0.3099(2) 1.0942(2) 0.33943(12)
N2 N 0.2088(2) 1.0969(2) 0.16399(12)
C1 C 0.1328(3) 1.0403(3) 0.30220(15)
C2 C 0.0113(3) 1.0740(3) 0.36994(14)
H5 H -0.0875 0.9972 0.3678
H6 H -0.0398 1.1803 0.3638
C3 C 0.1454(3) 1.0574(3) 0.45212(13)
H7 H 0.1768 0.9445 0.4591
C4 C 0.0953(3) 1.1147(3) 0.53705(14)
H8 H 0.0692 1.2289 0.5338
C5 C 0.2543(3) 1.0825(3) 0.60570(14)
H9 H 0.2661 0.9686 0.6145
H10 H 0.2303 1.1296 0.6603
C6 C 0.4310(3) 1.1464(3) 0.58314(15)
H11 H 0.5299 1.1104 0.6268
H12 H 0.4275 1.2615 0.5861
C7 C 0.4735(3) 1.0990(3) 0.49485(14)
H13 H 0.4935 0.9839 0.4934
C8 C 0.3119(3) 1.1423(3) 0.43037(14)
H14 H 0.2916 1.2573 0.4328
C9 C 0.4442(3) 1.0932(3) 0.29061(14)
C10 C 0.3810(3) 1.0305(3) 0.20106(15)
C11 C 0.5054(3) 1.0618(3) 0.13491(14)
H15 H 0.5991 0.9804 0.1360
H16 H 0.5636 1.1651 0.1435
C12 C 0.3733(3) 1.0561(3) 0.05176(13)
H17 H 0.3352 0.9452 0.0419
C13 C 0.4297(3) 1.1170(3) -0.03131(14)
H18 H 0.4587 1.2305 -0.0257
C14 C 0.2719(3) 1.0917(3) -0.10180(14)
H19 H 0.2552 0.9786 -0.1122
H20 H 0.2999 1.1400 -0.1555
C15 C 0.0973(3) 1.1611(3) -0.07886(15)
H21 H 0.1073 1.2760 -0.0794
H22 H -0.0023 1.1314 -0.1238
C16 C 0.0491(3) 1.1104(3) 0.00796(13)
H23 H 0.0255 0.9957 0.0073
C17 C 0.2107(3) 1.1471(3) 0.07428(13)
H24 H 0.2369 1.2612 0.0731
C18 C 0.0774(3) 1.1099(3) 0.21350(14)
O7 O 0.5897(4) 0.9127(4) -0.22273(16)
H25 H 0.6104 0.9500 -0.1731
H26 H 0.6918 0.9252 -0.2378
O8 O 0.9217(4) 0.9522(4) -0.27343(16)
H27 H 0.9207 0.9709 -0.3258
H28 H 1.0053 0.8869 -0.2641
loop_
_geom_bond_atom_site_label_1
_geom_bond_atom_site_label_2
_geom_bond_site_symmetry_1
_geom_bond_site_symmetry_2
S1 S2 1_555 1_555
S2 C10 1_555 1_555
O1 H1 1_555 1_555
O2 H2 1_555 1_555
O3 C9 1_555 1_555
O4 H3 1_555 1_555
O5 H4 1_555 1_555
O6 C18 1_555 1_555
N1 C1 1_555 1_555
N2 C10 1_555 1_555
C1 S1 1_555 1_555
C2 C1 1_555 1_555
H5 C2 1_555 1_555
H6 C2 1_555 1_555
C3 C2 1_555 1_555
H7 C3 1_555 1_555
C4 O1 1_555 1_555
H8 C4 1_555 1_555
C5 C4 1_555 1_555
H9 C5 1_555 1_555
H10 C5 1_555 1_555
C6 C5 1_555 1_555
H11 C6 1_555 1_555
H12 C6 1_555 1_555
C7 O2 1_555 1_555
H13 C7 1_555 1_555
C8 N1 1_555 1_555
H14 C8 1_555 1_555
C9 N1 1_555 1_555
C10 C9 1_555 1_555
C11 C10 1_555 1_555
H15 C11 1_555 1_555
H16 C11 1_555 1_555
C12 C11 1_555 1_555
H17 C12 1_555 1_555
C13 O4 1_555 1_555
H18 C13 1_555 1_555
C14 C13 1_555 1_555
H19 C14 1_555 1_555
H20 C14 1_555 1_555
C15 C14 1_555 1_555
H21 C15 1_555 1_555
H22 C15 1_555 1_555
C16 O5 1_555 1_555
H23 C16 1_555 1_555
C17 N2 1_555 1_555
H24 C17 1_555 1_555
C18 N2 1_555 1_555
O7 H25 1_555 1_555
H26 O7 1_555 1_555
O8 H27 1_555 1_555
H28 O8 1_555 1_555
C1 C18 1_555 1_555
C3 C4 1_555 1_555
C3 C8 1_555 1_555
C6 C7 1_555 1_555
C7 C8 1_555 1_555
C12 C13 1_555 1_555
C12 C17 1_555 1_555
C15 C16 1_555 1_555
C16 C17 1_555 1_555

#END
