
#######################################################################
#
#                 Cambridge Crystallographic Data Centre
#                                CCDC 
#
#######################################################################
#
# If this CIF has been generated from an entry in the Cambridge 
# Structural Database, then it will include bibliographic, chemical, 
# crystal, experimental, refinement or atomic coordinate data resulting 
# from the CCDC's data processing and validation procedures.
#
#######################################################################

data_LIHJET
_chemical_formula_moiety         'C18 H16 N1 O2 1+,H2 O1,I1 1-'
_chemical_name_systematic        
'2,6-bis(2-(2-Furyl)vinyl)-1-methylpyridinium iodide monohydrate'
_symmetry_cell_setting           triclinic
_symmetry_space_group_name_H-M   'P -1'
_symmetry_Int_Tables_number      2
_space_group_name_Hall           '-P 1'
loop_
_symmetry_equiv_pos_site_id
_symmetry_equiv_pos_as_xyz
1 x,y,z
2 -x,-y,-z
_cell_length_a                   9.6501(16)
_cell_length_b                   10.2308(17)
_cell_length_c                   10.7341(17)
_cell_angle_alpha                68.221(2)
_cell_angle_beta                 72.253(2)
_cell_angle_gamma                66.519(2)
_cell_volume                     887.159
_cell_formula_units_Z            2
loop_
_atom_site_label
_atom_site_type_symbol
_atom_site_fract_x
_atom_site_fract_y
_atom_site_fract_z
I1 I 0.25225(3) 0.17296(3) 0.68143(3)
N1 N 0.0340(3) 0.3140(3) 0.2687(3)
O1 O -0.2037(4) 0.2492(4) 0.7738(3)
O2 O 0.3744(4) 0.5768(4) -0.1242(3)
C1 C -0.2643(7) 0.2233(8) 0.9110(5)
H1 H -0.2405 0.2550 0.9702
C2 C -0.3587(7) 0.1490(6) 0.9470(5)
H2 H -0.4141 0.1198 1.0342
C3 C -0.3613(6) 0.1210(6) 0.8293(5)
H3 H -0.4184 0.0694 0.8233
C4 C -0.2650(5) 0.1836(5) 0.7270(4)
C5 C -0.2180(5) 0.1855(5) 0.5862(4)
H4 H -0.2684 0.1473 0.5539
C6 C -0.1085(5) 0.2374(5) 0.4988(4)
H5 H -0.0625 0.2815 0.5293
C7 C -0.0553(4) 0.2304(4) 0.3594(4)
C8 C -0.0888(5) 0.1370(5) 0.3147(4)
H6 H -0.1508 0.0808 0.3740
C9 C -0.0309(5) 0.1272(5) 0.1836(4)
H7 H -0.0545 0.0651 0.1540
C10 C 0.0617(5) 0.2088(5) 0.0965(4)
H8 H 0.1022 0.2000 0.0084
C11 C 0.0958(4) 0.3043(4) 0.1375(4)
C12 C 0.1923(5) 0.3932(5) 0.0481(4)
H9 H 0.2122 0.4525 0.0841
C13 C 0.2550(5) 0.3965(4) -0.0821(4)
H10 H 0.2368 0.3353 -0.1169
C14 C 0.3466(5) 0.4851(5) -0.1712(4)
C15 C 0.4169(5) 0.5005(5) -0.3030(4)
H11 H 0.4154 0.4510 -0.3595
C16 C 0.4931(6) 0.6052(6) -0.3393(5)
H12 H 0.5513 0.6380 -0.4237
C17 C 0.4654(7) 0.6472(7) -0.2300(6)
H13 H 0.5028 0.7158 -0.2252
C18 C 0.0613(6) 0.4203(5) 0.3134(5)
H14 H 0.1252 0.4709 0.2402
H15 H 0.1117 0.3676 0.3907
H16 H -0.0351 0.4916 0.3383
O3 O 0.3603(5) 0.0899(5) 0.3635(4)
loop_
_geom_bond_atom_site_label_1
_geom_bond_atom_site_label_2
_geom_bond_site_symmetry_1
_geom_bond_site_symmetry_2
N1 C7 1_555 1_555
O1 C1 1_555 1_555
O2 C14 1_555 1_555
C1 H1 1_555 1_555
C2 C1 1_555 1_555
H2 C2 1_555 1_555
C3 C2 1_555 1_555
H3 C3 1_555 1_555
C4 O1 1_555 1_555
C5 C4 1_555 1_555
H4 C5 1_555 1_555
C6 C5 1_555 1_555
H5 C6 1_555 1_555
C7 C6 1_555 1_555
C8 C7 1_555 1_555
H6 C8 1_555 1_555
C9 C8 1_555 1_555
H7 C9 1_555 1_555
C10 C9 1_555 1_555
H8 C10 1_555 1_555
C11 N1 1_555 1_555
C12 C11 1_555 1_555
H9 C12 1_555 1_555
C13 C12 1_555 1_555
H10 C13 1_555 1_555
C14 C13 1_555 1_555
C15 C14 1_555 1_555
H11 C15 1_555 1_555
C16 C15 1_555 1_555
H12 C16 1_555 1_555
C17 O2 1_555 1_555
H13 C17 1_555 1_555
C18 N1 1_555 1_555
H14 C18 1_555 1_555
H15 C18 1_555 1_555
H16 C18 1_555 1_555
C3 C4 1_555 1_555
C10 C11 1_555 1_555
C16 C17 1_555 1_555

#END
