
#######################################################################
#
#                 Cambridge Crystallographic Data Centre
#                                CCDC 
#
#######################################################################
#
# If this CIF has been generated from an entry in the Cambridge 
# Structural Database, then it will include bibliographic, chemical, 
# crystal, experimental, refinement or atomic coordinate data resulting 
# from the CCDC's data processing and validation procedures.
#
#######################################################################

data_LIHJAQ01
_chemical_name_common            diethylamine
_chemical_formula_moiety         'C4 H11 N1'
_chemical_name_systematic        N-ethylethanamine
_symmetry_cell_setting           monoclinic
_symmetry_space_group_name_H-M   'P 21/n'
_symmetry_Int_Tables_number      14
_space_group_name_Hall           '-P 2yn'
loop_
_symmetry_equiv_pos_site_id
_symmetry_equiv_pos_as_xyz
1 x,y,z
2 1/2-x,1/2+y,1/2-z
3 -x,-y,-z
4 1/2+x,1/2-y,1/2+z
_cell_length_a                   7.989(2)
_cell_length_b                   15.320(5)
_cell_length_c                   13.213(4)
_cell_angle_alpha                90
_cell_angle_beta                 96.290(5)
_cell_angle_gamma                90
_cell_volume                     1607.42
_exptl_crystal_colour            colorless
_exptl_crystal_description       cylinder
_chemical_melting_point          '223 K'
_cell_formula_units_Z            12
loop_
_atom_site_label
_atom_site_type_symbol
_atom_site_fract_x
_atom_site_fract_y
_atom_site_fract_z
N1 N 0.98340(18) 0.34873(9) 0.74867(10)
H1 H 0.912(3) 0.3765(17) 0.778(2)
C1 C 1.0536(2) 0.28226(10) 0.82052(13)
H2 H 1.1422 0.2492 0.7902
H3 H 0.9640 0.2408 0.8345
C2 C 1.1280(2) 0.32408(12) 0.91937(13)
H4 H 1.2173 0.3649 0.9055
H5 H 1.1752 0.2787 0.9664
H6 H 1.0397 0.3557 0.9501
C3 C 0.9102(2) 0.31255(11) 0.65174(12)
H7 H 0.8143 0.2741 0.6630
H8 H 0.9954 0.2770 0.6214
C4 C 0.8498(2) 0.38588(12) 0.57928(13)
H9 H 0.7666 0.4214 0.6099
H10 H 0.7981 0.3610 0.5150
H11 H 0.9457 0.4225 0.5662
N2 N 1.30515(19) 0.45517(9) 0.69740(10)
H13 H 1.232(3) 0.4198(17) 0.713(2)
C5 C 1.3428(2) 0.43399(11) 0.59449(12)
H14 H 1.4366 0.4712 0.5767
H15 H 1.2429 0.4467 0.5455
C6 C 1.3908(2) 0.33874(12) 0.58562(14)
H16 H 1.4903 0.3261 0.6336
H17 H 1.4162 0.3267 0.5161
H18 H 1.2969 0.3018 0.6014
C7 C 1.2513(2) 0.54567(11) 0.70614(13)
H19 H 1.1433 0.5546 0.6630
H20 H 1.3362 0.5849 0.6811
C8 C 1.2295(2) 0.56872(12) 0.81559(13)
H21 H 1.1452 0.5301 0.8404
H22 H 1.1920 0.6294 0.8191
H23 H 1.3372 0.5615 0.8580
N3 N 1.6552(2) 0.41360(9) 0.84249(11)
H25 H 1.570(3) 0.426(2) 0.8024(19)
C9 C 1.7153(2) 0.49571(11) 0.89010(14)
H26 H 1.8223 0.4853 0.9337
H27 H 1.6317 0.5178 0.9339
C10 C 1.7431(3) 0.56336(12) 0.81016(16)
H28 H 1.8269 0.5418 0.7674
H29 H 1.7835 0.6177 0.8436
H30 H 1.6367 0.5744 0.7678
C11 C 1.6237(2) 0.34698(12) 0.91742(13)
H31 H 1.5370 0.3684 0.9594
H32 H 1.7284 0.3363 0.9631
C12 C 1.5647(2) 0.26219(12) 0.86626(14)
H33 H 1.4583 0.2720 0.8234
H34 H 1.5479 0.2184 0.9183
H35 H 1.6498 0.2413 0.8240
H12? H 1.059(3) 0.3845(17) 0.738(2)
H24? H 1.391(3) 0.447(2) 0.739(2)
H36? H 1.726(3) 0.3921(19) 0.807(2)
loop_
_geom_bond_atom_site_label_1
_geom_bond_atom_site_label_2
_geom_bond_site_symmetry_1
_geom_bond_site_symmetry_2
N1 H1 1_555 1_555
C1 N1 1_555 1_555
H2 C1 1_555 1_555
H3 C1 1_555 1_555
C2 C1 1_555 1_555
H4 C2 1_555 1_555
H5 C2 1_555 1_555
H6 C2 1_555 1_555
C3 N1 1_555 1_555
H7 C3 1_555 1_555
H8 C3 1_555 1_555
C4 C3 1_555 1_555
H9 C4 1_555 1_555
H10 C4 1_555 1_555
H11 C4 1_555 1_555
N2 H13 1_555 1_555
C5 N2 1_555 1_555
H14 C5 1_555 1_555
H15 C5 1_555 1_555
C6 C5 1_555 1_555
H16 C6 1_555 1_555
H17 C6 1_555 1_555
H18 C6 1_555 1_555
C7 N2 1_555 1_555
H19 C7 1_555 1_555
H20 C7 1_555 1_555
C8 C7 1_555 1_555
H21 C8 1_555 1_555
H22 C8 1_555 1_555
H23 C8 1_555 1_555
N3 H25 1_555 1_555
C9 N3 1_555 1_555
H26 C9 1_555 1_555
H27 C9 1_555 1_555
C10 C9 1_555 1_555
H28 C10 1_555 1_555
H29 C10 1_555 1_555
H30 C10 1_555 1_555
C11 N3 1_555 1_555
H31 C11 1_555 1_555
H32 C11 1_555 1_555
C12 C11 1_555 1_555
H33 C12 1_555 1_555
H34 C12 1_555 1_555
H35 C12 1_555 1_555

#END
