
#######################################################################
#
#                 Cambridge Crystallographic Data Centre
#                                CCDC 
#
#######################################################################
#
# If this CIF has been generated from an entry in the Cambridge 
# Structural Database, then it will include bibliographic, chemical, 
# crystal, experimental, refinement or atomic coordinate data resulting 
# from the CCDC's data processing and validation procedures.
#
#######################################################################

data_LIHJUK
_chemical_name_common            methylethylamine
_chemical_formula_moiety         'C3 H9 N1'
_chemical_name_systematic        N-methylethanamine
_symmetry_cell_setting           monoclinic
_symmetry_space_group_name_H-M   'P 21/n'
_symmetry_Int_Tables_number      14
_space_group_name_Hall           '-P 2yn'
loop_
_symmetry_equiv_pos_site_id
_symmetry_equiv_pos_as_xyz
1 x,y,z
2 1/2-x,1/2+y,1/2-z
3 -x,-y,-z
4 1/2+x,1/2-y,1/2+z
_cell_length_a                   7.761(5)
_cell_length_b                   16.084(13)
_cell_length_c                   14.231(12)
_cell_angle_alpha                90
_cell_angle_beta                 99.851(10)
_cell_angle_gamma                90
_cell_volume                     1750.23
_exptl_crystal_colour            colorless
_exptl_crystal_description       cylinder
_cell_formula_units_Z            16
loop_
_atom_site_label
_atom_site_type_symbol
_atom_site_fract_x
_atom_site_fract_y
_atom_site_fract_z
N1 N -0.8543(3) 0.06137(12) 0.72199(13)
H1 H -0.814(3) 0.1101(16) 0.7319(16)
C1 C -0.8499(4) 0.03267(16) 0.62463(16)
H2 H -0.7284 0.0228 0.6171
H3 H -0.9016 0.0752 0.5790
H4 H -0.9167 -0.0191 0.6127
C2 C -0.7637(4) 0.00324(15) 0.79248(16)
H5 H -0.6432 -0.0057 0.7803
H6 H -0.8250 -0.0510 0.7859
C3 C -0.7564(4) 0.03546(16) 0.89298(16)
H7 H -0.6924 0.0883 0.9003
H8 H -0.6964 -0.0052 0.9385
H9 H -0.8755 0.0442 0.9052
N2 N -0.7455(3) 0.25381(13) 0.74253(14)
H10 H -0.651(4) 0.2811(17) 0.7326(17)
C4 C -0.7782(4) 0.27195(16) 0.84016(16)
H11 H -0.8045 0.3312 0.8454
H12 H -0.6740 0.2578 0.8867
H13 H -0.8777 0.2388 0.8529
C5 C -0.8905(4) 0.28187(15) 0.67131(17)
H14 H -0.9200 0.3400 0.6850
H15 H -0.9944 0.2469 0.6743
C6 C -0.8445(4) 0.27682(18) 0.57314(17)
H16 H -0.7465 0.3143 0.5690
H17 H -0.9459 0.2932 0.5259
H18 H -0.8110 0.2197 0.5606
N3 N -0.3720(3) 0.32958(12) 0.70088(13)
H19 H -0.316(4) 0.2810(16) 0.7108(16)
C7 C -0.3701(4) 0.35400(17) 0.60163(16)
H20 H -0.4377 0.4053 0.5872
H21 H -0.4223 0.3097 0.5587
H22 H -0.2492 0.3633 0.5927
C8 C -0.2856(4) 0.39182(15) 0.76756(16)
H23 H -0.3523 0.4445 0.7587
H24 H -0.1667 0.4026 0.7540
C9 C -0.2731(4) 0.36282(16) 0.86966(16)
H25 H -0.3903 0.3496 0.8823
H26 H -0.2216 0.4070 0.9130
H27 H -0.1992 0.3131 0.8798
N4 N -0.2395(4) 0.13949(13) 0.73932(14)
H28 H -0.147(4) 0.1154(16) 0.7337(16)
C10 C -0.2785(4) 0.12494(16) 0.83686(16)
H29 H -0.3851 0.1551 0.8443
H30 H -0.1806 0.1449 0.8843
H31 H -0.2955 0.0653 0.8462
C11 C -0.3774(4) 0.10843(16) 0.66635(17)
H32 H -0.4846 0.1419 0.6658
H33 H -0.4041 0.0501 0.6806
C12 C -0.3223(4) 0.11302(18) 0.57005(17)
H34 H -0.2830 0.1696 0.5592
H35 H -0.4217 0.0987 0.5204
H36 H -0.2264 0.0738 0.5678
loop_
_geom_bond_atom_site_label_1
_geom_bond_atom_site_label_2
_geom_bond_site_symmetry_1
_geom_bond_site_symmetry_2
N1 H1 1_555 1_555
C1 N1 1_555 1_555
H2 C1 1_555 1_555
H3 C1 1_555 1_555
H4 C1 1_555 1_555
C2 N1 1_555 1_555
H5 C2 1_555 1_555
H6 C2 1_555 1_555
C3 C2 1_555 1_555
H7 C3 1_555 1_555
H8 C3 1_555 1_555
H9 C3 1_555 1_555
N2 H10 1_555 1_555
C4 N2 1_555 1_555
H11 C4 1_555 1_555
H12 C4 1_555 1_555
H13 C4 1_555 1_555
C5 N2 1_555 1_555
H14 C5 1_555 1_555
H15 C5 1_555 1_555
C6 C5 1_555 1_555
H16 C6 1_555 1_555
H17 C6 1_555 1_555
H18 C6 1_555 1_555
N3 H19 1_555 1_555
C7 N3 1_555 1_555
H20 C7 1_555 1_555
H21 C7 1_555 1_555
H22 C7 1_555 1_555
C8 N3 1_555 1_555
H23 C8 1_555 1_555
H24 C8 1_555 1_555
C9 C8 1_555 1_555
H25 C9 1_555 1_555
H26 C9 1_555 1_555
H27 C9 1_555 1_555
N4 H28 1_555 1_555
C10 N4 1_555 1_555
H29 C10 1_555 1_555
H30 C10 1_555 1_555
H31 C10 1_555 1_555
C11 N4 1_555 1_555
H32 C11 1_555 1_555
H33 C11 1_555 1_555
C12 C11 1_555 1_555
H34 C12 1_555 1_555
H35 C12 1_555 1_555
H36 C12 1_555 1_555

#END
