
#######################################################################
#
#                 Cambridge Crystallographic Data Centre
#                                CCDC 
#
#######################################################################
#
# If this CIF has been generated from an entry in the Cambridge 
# Structural Database, then it will include bibliographic, chemical, 
# crystal, experimental, refinement or atomic coordinate data resulting 
# from the CCDC's data processing and validation procedures.
#
#######################################################################

data_LIHJAQ
_chemical_name_common            diethylamine
_chemical_formula_moiety         'C4 H11 N1'
_chemical_name_systematic        N-ethylethanamine
_symmetry_cell_setting           monoclinic
_symmetry_space_group_name_H-M   'C 2/c'
_symmetry_Int_Tables_number      15
_space_group_name_Hall           '-C 2yn'
loop_
_symmetry_equiv_pos_site_id
_symmetry_equiv_pos_as_xyz
1 x,y,z
2 -x,y,1/2-z
3 1/2+x,1/2+y,z
4 1/2-x,1/2+y,1/2-z
5 -x,-y,-z
6 x,-y,1/2+z
7 1/2-x,1/2-y,-z
8 1/2+x,1/2-y,1/2+z
_cell_length_a                   8.0789(19)
_cell_length_b                   15.538(4)
_cell_length_c                   13.319(3)
_cell_angle_alpha                90
_cell_angle_beta                 98.065(4)
_cell_angle_gamma                90
_cell_volume                     1655.4
_exptl_crystal_colour            colorless
_exptl_crystal_description       cylinder
_chemical_melting_point          '223 K'
_cell_formula_units_Z            12
_exptl_crystal_recrystallization_method 'From the Melt'
loop_
_atom_site_label
_atom_site_type_symbol
_atom_site_fract_x
_atom_site_fract_y
_atom_site_fract_z
N1 N 1.0000 0.65166(9) 0.2500
C1 C 1.0687(2) 0.70334(8) 0.33716(10)
H1 H 0.9818 0.7433 0.3549
H2 H 1.1632 0.7381 0.3196
C2 C 1.1287(2) 0.64700(10) 0.42738(11)
H3 H 1.0350 0.6128 0.4451
H4 H 1.1733 0.6832 0.4851
H5 H 1.2166 0.6084 0.4104
C1A C 0.9313(2) 0.70334(8) 0.16284(10)
H1A H 1.0182 0.7433 0.1451
H2A H 0.8368 0.7381 0.1804
C2A C 0.8713(2) 0.64700(10) 0.07262(11)
H3A H 0.9650 0.6128 0.0549
H4A H 0.8267 0.6832 0.0149
H5A H 0.7834 0.6084 0.0896
N2 N 0.6833(2) 0.54751(9) 0.31594(10)
H6 H 0.598(3) 0.5495(15) 0.2724(17)
C3 C 0.7414(2) 0.45790(11) 0.32013(14)
H7 H 0.6588 0.4213 0.3482
H8 H 0.8486 0.4539 0.3661
C4 C 0.6505(3) 0.58068(14) 0.41289(12)
H9 H 0.7526 0.5749 0.4631
H10 H 0.5609 0.5462 0.4371
C5 C 0.7655(3) 0.42506(11) 0.21713(16)
H11 H 0.6583 0.4261 0.1724
H12 H 0.8078 0.3659 0.2231
H13 H 0.8460 0.4617 0.1887
C6 C 0.5988(3) 0.67308(15) 0.40521(16)
H14 H 0.6892 0.7076 0.3838
H15 H 0.5752 0.6933 0.4715
H16 H 0.4981 0.6790 0.3553
H17? H 0.747(3) 0.5811(14) 0.2927(18)
H18? H 0.928(3) 0.6185(13) 0.2668(17)
loop_
_geom_bond_atom_site_label_1
_geom_bond_atom_site_label_2
_geom_bond_site_symmetry_1
_geom_bond_site_symmetry_2
N1 C1 1_555 1_555
C1 H1 1_555 1_555
H2 C1 1_555 1_555
C2 C1 1_555 1_555
H3 C2 1_555 1_555
H4 C2 1_555 1_555
H5 C2 1_555 1_555
N2 H6 1_555 1_555
C3 N2 1_555 1_555
H7 C3 1_555 1_555
H8 C3 1_555 1_555
C4 N2 1_555 1_555
H9 C4 1_555 1_555
H10 C4 1_555 1_555
C5 C3 1_555 1_555
H11 C5 1_555 1_555
H12 C5 1_555 1_555
H13 C5 1_555 1_555
C6 C4 1_555 1_555
H14 C6 1_555 1_555
H15 C6 1_555 1_555
H16 C6 1_555 1_555
C1A N1 1_555 1_555
H1A C1A 1_555 1_555
H2A C1A 1_555 1_555
C2A C1A 1_555 1_555
H3A C2A 1_555 1_555
H4A C2A 1_555 1_555
H5A C2A 1_555 1_555

#END
