
#######################################################################
#
#                 Cambridge Crystallographic Data Centre
#                                CCDC 
#
#######################################################################
#
# If this CIF has been generated from an entry in the Cambridge 
# Structural Database, then it will include bibliographic, chemical, 
# crystal, experimental, refinement or atomic coordinate data resulting 
# from the CCDC's data processing and validation procedures.
#
#######################################################################

data_LIHJES
_chemical_compound_source        'fruits of Daphniphyllum longeracemosum'
_chemical_formula_moiety         'C24 H31 N1 O5,H2 O1'
_chemical_name_systematic        'Daphlongeranine A monohydrate'
_symmetry_cell_setting           monoclinic
_symmetry_space_group_name_H-M   'P 21'
_symmetry_Int_Tables_number      4
_space_group_name_Hall           'P 2yb'
loop_
_symmetry_equiv_pos_site_id
_symmetry_equiv_pos_as_xyz
1 x,y,z
2 -x,1/2+y,-z
_cell_length_a                   13.576(1)
_cell_length_b                   8.049(1)
_cell_length_c                   10.772(1)
_cell_angle_alpha                90
_cell_angle_beta                 109.89(1)
_cell_angle_gamma                90
_cell_volume                     1106.87
_exptl_crystal_colour            yellow
_exptl_crystal_description       block
_chemical_melting_point          '227-229 deg.C'
_cell_formula_units_Z            2
loop_
_atom_site_label
_atom_site_type_symbol
_atom_site_fract_x
_atom_site_fract_y
_atom_site_fract_z
O1 O 0.44015(11) 0.2085(2) 0.03961(14)
O2 O 0.42158(12) 0.3484(2) 0.27609(14)
O3 O 0.58540(12) 0.1841(3) -0.00407(18)
O4 O 0.44447(19) 0.5630(3) 0.4128(2)
O5 O 0.09548(13) -0.2252(2) -0.1187(2)
H1 H 0.1320 -0.2753 -0.0528
N1 N 0.20447(13) 0.2884(2) 0.11849(15)
C1 C 0.32930(13) 0.2534(2) -0.00267(17)
H2 H 0.3211 0.3743 -0.0094
C2 C 0.36707(16) 0.1900(3) 0.24975(18)
H3 H 0.4160 0.0962 0.2690
C3 C 0.29159(14) 0.1860(2) 0.10714(18)
C4 C 0.25723(15) 0.0106(2) 0.05693(19)
H4 H 0.2187 -0.0422 0.1072
H5 H 0.3167 -0.0583 0.0602
C5 C 0.18642(15) 0.0443(2) -0.08637(19)
C6 C 0.08594(15) 0.1265(3) -0.0760(2)
H6 H 0.0623 0.0528 -0.0194
C7 C 0.11081(15) 0.2931(3) -0.00253(19)
H7 H 0.1213 0.3766 -0.0617
H8 H 0.0509 0.3267 0.0211
C8 C 0.25765(13) 0.1676(2) -0.13445(17)
C9 C 0.19867(15) 0.2943(3) -0.23764(18)
C10 C 0.09638(15) 0.2515(3) -0.34896(19)
H9 H 0.0991 0.1388 -0.3820
C11 C 0.00128(15) 0.2725(4) -0.3042(2)
H10 H 0.0043 0.3822 -0.2657
H11 H -0.0617 0.2675 -0.3814
C12 C -0.00794(16) 0.1442(3) -0.2042(2)
H12 H -0.0209 0.0367 -0.2475
H13 H -0.0690 0.1717 -0.1810
C13 C 0.32868(15) 0.0713(3) -0.19649(19)
H14 H 0.3511 -0.0325 -0.1496
H15 H 0.2894 0.0455 -0.2880
C14 C 0.42468(17) 0.1764(3) -0.1888(2)
H16 H 0.4640 0.1232 -0.2380
H17 H 0.4028 0.2853 -0.2267
C15 C 0.22773(19) 0.4485(3) -0.2532(2)
H18 H 0.2862 0.5003 -0.1941
C16 C 0.1559(2) 0.5306(3) -0.3770(2)
H19 H 0.1953 0.5861 -0.4250
H20 H 0.1097 0.6101 -0.3570
C17 C 0.0947(2) 0.3821(4) -0.4545(2)
H21 H 0.1279 0.3389 -0.5145
H22 H 0.0233 0.4137 -0.5049
C18 C 0.29545(18) 0.1851(3) 0.33607(19)
C19 C 0.18559(17) 0.2252(3) 0.2365(2)
H23 H 0.1424 0.1261 0.2156
H24 H 0.1509 0.3084 0.2721
C20 C 0.2961(2) 0.0168(4) 0.4032(3)
H25 H 0.2502 0.0215 0.4540
H26 H 0.3660 -0.0080 0.4605
H27 H 0.2727 -0.0682 0.3372
C21 C 0.15973(17) -0.1193(3) -0.1646(2)
H28 H 0.1238 -0.0943 -0.2571
H29 H 0.2242 -0.1770 -0.1574
C22 C 0.49098(15) 0.1927(3) -0.0478(2)
C23 C 0.3420(2) 0.3237(4) 0.4352(2)
H30 H 0.2867 0.3894 0.4491
H31 H 0.3854 0.2777 0.5192
C24 C 0.40597(19) 0.4279(4) 0.3775(2)
O6 O 0.24008(15) 0.6318(2) 0.1099(2)
H32 H 0.299(2) 0.644(5) 0.105(4)
H33 H 0.234(3) 0.534(3) 0.128(4)
loop_
_geom_bond_atom_site_label_1
_geom_bond_atom_site_label_2
_geom_bond_site_symmetry_1
_geom_bond_site_symmetry_2
O1 C1 1_555 1_555
O2 C2 1_555 1_555
O3 C22 1_555 1_555
O4 C24 1_555 1_555
O5 H1 1_555 1_555
N1 C3 1_555 1_555
C1 H2 1_555 1_555
C2 H3 1_555 1_555
C3 C1 1_555 1_555
C4 C3 1_555 1_555
H4 C4 1_555 1_555
H5 C4 1_555 1_555
C5 C4 1_555 1_555
C6 C5 1_555 1_555
H6 C6 1_555 1_555
C7 N1 1_555 1_555
H7 C7 1_555 1_555
H8 C7 1_555 1_555
C8 C1 1_555 1_555
C9 C8 1_555 1_555
C10 C9 1_555 1_555
H9 C10 1_555 1_555
C11 C10 1_555 1_555
H10 C11 1_555 1_555
H11 C11 1_555 1_555
C12 C6 1_555 1_555
H12 C12 1_555 1_555
H13 C12 1_555 1_555
C13 C8 1_555 1_555
H14 C13 1_555 1_555
H15 C13 1_555 1_555
C14 C13 1_555 1_555
H16 C14 1_555 1_555
H17 C14 1_555 1_555
C15 C9 1_555 1_555
H18 C15 1_555 1_555
C16 C15 1_555 1_555
H19 C16 1_555 1_555
H20 C16 1_555 1_555
C17 C10 1_555 1_555
H21 C17 1_555 1_555
H22 C17 1_555 1_555
C18 C2 1_555 1_555
C19 N1 1_555 1_555
H23 C19 1_555 1_555
H24 C19 1_555 1_555
C20 C18 1_555 1_555
H25 C20 1_555 1_555
H26 C20 1_555 1_555
H27 C20 1_555 1_555
C21 O5 1_555 1_555
H28 C21 1_555 1_555
H29 C21 1_555 1_555
C22 O1 1_555 1_555
C23 C18 1_555 1_555
H30 C23 1_555 1_555
H31 C23 1_555 1_555
C24 O2 1_555 1_555
O6 H32 1_555 1_555
H33 O6 1_555 1_555
C2 C3 1_555 1_555
C5 C8 1_555 1_555
C5 C21 1_555 1_555
C6 C7 1_555 1_555
C11 C12 1_555 1_555
C14 C22 1_555 1_555
C16 C17 1_555 1_555
C18 C19 1_555 1_555
C23 C24 1_555 1_555

#END
