
#######################################################################
#
#                 Cambridge Crystallographic Data Centre
#                                CCDC 
#
#######################################################################
#
# If this CIF has been generated from an entry in the Cambridge 
# Structural Database, then it will include bibliographic, chemical, 
# crystal, experimental, refinement or atomic coordinate data resulting 
# from the CCDC's data processing and validation procedures.
#
#######################################################################

data_LIHJEU
_chemical_name_common            diisobutylamine
_chemical_formula_moiety         'C8 H19 N1'
_chemical_name_systematic        2-methyl-N-(2-methylpropyl)propan-1-amine
_symmetry_cell_setting           monoclinic
_symmetry_space_group_name_H-M   'C 2/c'
_symmetry_Int_Tables_number      15
_space_group_name_Hall           '-C 2yn'
loop_
_symmetry_equiv_pos_site_id
_symmetry_equiv_pos_as_xyz
1 x,y,z
2 -x,y,1/2-z
3 1/2+x,1/2+y,z
4 1/2-x,1/2+y,1/2-z
5 -x,-y,-z
6 x,-y,1/2+z
7 1/2-x,1/2-y,-z
8 1/2+x,1/2-y,1/2+z
_cell_length_a                   17.442(11)
_cell_length_b                   11.612(8)
_cell_length_c                   18.375(12)
_cell_angle_alpha                90
_cell_angle_beta                 90.080(15)
_cell_angle_gamma                90
_cell_volume                     3721.6
_exptl_crystal_colour            colorless
_exptl_crystal_description       cylinder
_cell_formula_units_Z            16
_exptl_crystal_recrystallization_method 'From the Melt'
loop_
_atom_site_label
_atom_site_type_symbol
_atom_site_fract_x
_atom_site_fract_y
_atom_site_fract_z
N1 N 0.10199(16) 0.5776(2) 0.22987(16)
H1 H 0.118(3) 0.528(4) 0.196(2)
C1 C 0.15035(18) 0.5613(2) 0.29474(16)
H2 H 0.1336 0.6155 0.3331
H3 H 0.2041 0.5801 0.2823
C2 C 0.14708(18) 0.4389(2) 0.32451(17)
H4 H 0.1573 0.3849 0.2833
C3 C 0.2103(2) 0.4215(3) 0.38159(19)
H5 H 0.2604 0.4351 0.3592
H6 H 0.2080 0.3425 0.4002
H7 H 0.2027 0.4758 0.4218
C4 C 0.06923(19) 0.4100(3) 0.35549(19)
H8 H 0.0698 0.3311 0.3744
H9 H 0.0303 0.4166 0.3172
H10 H 0.0571 0.4636 0.3950
C5 C 0.10349(18) 0.6971(2) 0.20423(16)
H11 H 0.1573 0.7197 0.1946
H12 H 0.0836 0.7479 0.2432
C6 C 0.05614(18) 0.7161(2) 0.13514(17)
H13 H 0.0025 0.6899 0.1451
C7 C 0.0863(2) 0.6482(3) 0.07091(18)
H14 H 0.0838 0.5657 0.0819
H15 H 0.1396 0.6702 0.0614
H16 H 0.0549 0.6647 0.0279
C8 C 0.0536(2) 0.8442(3) 0.11760(19)
H17 H 0.0322 0.8863 0.1591
H18 H 0.0212 0.8568 0.0747
H19 H 0.1056 0.8719 0.1077
N2 N 0.21463(16) 0.4039(2) 0.12199(16)
H21 H 0.225(3) 0.424(4) 0.0762(18)
C9 C 0.28676(17) 0.4209(2) 0.16213(17)
H22 H 0.3253 0.3646 0.1448
H23 H 0.2779 0.4063 0.2145
C10 C 0.31811(18) 0.5425(2) 0.15232(17)
H24 H 0.2760 0.5980 0.1639
C11 C 0.3438(2) 0.5645(3) 0.07436(18)
H25 H 0.3606 0.6446 0.0695
H26 H 0.3009 0.5502 0.0411
H27 H 0.3863 0.5128 0.0623
C12 C 0.3839(2) 0.5640(3) 0.20594(19)
H28 H 0.3664 0.5481 0.2556
H29 H 0.4004 0.6444 0.2024
H30 H 0.4270 0.5132 0.1941
C13 C 0.18423(18) 0.2871(2) 0.12667(17)
H31 H 0.1701 0.2703 0.1777
H32 H 0.2244 0.2317 0.1119
C14 C 0.11399(18) 0.2714(2) 0.07800(17)
H33 H 0.0768 0.3343 0.0895
C15 C 0.07480(19) 0.1567(3) 0.09286(19)
H34 H 0.0570 0.1548 0.1434
H35 H 0.1113 0.0938 0.0848
H36 H 0.0309 0.1477 0.0600
C16 C 0.1351(2) 0.2808(3) -0.00226(18)
H37 H 0.1589 0.3558 -0.0114
H38 H 0.0886 0.2733 -0.0320
H39 H 0.1711 0.2193 -0.0149
H20? H 0.0536(19) 0.558(4) 0.240(3)
H40? H 0.184(3) 0.459(4) 0.139(2)
loop_
_geom_bond_atom_site_label_1
_geom_bond_atom_site_label_2
_geom_bond_site_symmetry_1
_geom_bond_site_symmetry_2
N1 H1 1_555 1_555
C1 N1 1_555 1_555
H2 C1 1_555 1_555
H3 C1 1_555 1_555
C2 C1 1_555 1_555
H4 C2 1_555 1_555
C3 C2 1_555 1_555
H5 C3 1_555 1_555
H6 C3 1_555 1_555
H7 C3 1_555 1_555
C4 C2 1_555 1_555
H8 C4 1_555 1_555
H9 C4 1_555 1_555
H10 C4 1_555 1_555
C5 N1 1_555 1_555
H11 C5 1_555 1_555
H12 C5 1_555 1_555
C6 C5 1_555 1_555
H13 C6 1_555 1_555
C7 C6 1_555 1_555
H14 C7 1_555 1_555
H15 C7 1_555 1_555
H16 C7 1_555 1_555
C8 C6 1_555 1_555
H17 C8 1_555 1_555
H18 C8 1_555 1_555
H19 C8 1_555 1_555
N2 H21 1_555 1_555
C9 N2 1_555 1_555
H22 C9 1_555 1_555
H23 C9 1_555 1_555
C10 C9 1_555 1_555
H24 C10 1_555 1_555
C11 C10 1_555 1_555
H25 C11 1_555 1_555
H26 C11 1_555 1_555
H27 C11 1_555 1_555
C12 C10 1_555 1_555
H28 C12 1_555 1_555
H29 C12 1_555 1_555
H30 C12 1_555 1_555
C13 N2 1_555 1_555
H31 C13 1_555 1_555
H32 C13 1_555 1_555
C14 C13 1_555 1_555
H33 C14 1_555 1_555
C15 C14 1_555 1_555
H34 C15 1_555 1_555
H35 C15 1_555 1_555
H36 C15 1_555 1_555
C16 C14 1_555 1_555
H37 C16 1_555 1_555
H38 C16 1_555 1_555
H39 C16 1_555 1_555

#END
