
#######################################################################
#
#                 Cambridge Crystallographic Data Centre
#                                CCDC 
#
#######################################################################
#
# If this CIF has been generated from an entry in the Cambridge 
# Structural Database, then it will include bibliographic, chemical, 
# crystal, experimental, refinement or atomic coordinate data resulting 
# from the CCDC's data processing and validation procedures.
#
#######################################################################

data_LIHKEV
_chemical_name_common            methylpropylamine
_chemical_formula_moiety         'C4 H11 N1'
_chemical_name_systematic        N-methylpropan-1-amine
_symmetry_cell_setting           monoclinic
_symmetry_space_group_name_H-M   'C 2/c'
_symmetry_Int_Tables_number      15
_space_group_name_Hall           '-C 2yn'
loop_
_symmetry_equiv_pos_site_id
_symmetry_equiv_pos_as_xyz
1 x,y,z
2 -x,y,1/2-z
3 1/2+x,1/2+y,z
4 1/2-x,1/2+y,1/2-z
5 -x,-y,-z
6 x,-y,1/2+z
7 1/2-x,1/2-y,-z
8 1/2+x,1/2-y,1/2+z
_cell_length_a                   15.168(15)
_cell_length_b                   8.902(8)
_cell_length_c                   15.176(15)
_cell_angle_alpha                90
_cell_angle_beta                 90.67(2)
_cell_angle_gamma                90
_cell_volume                     2049.01
_exptl_crystal_colour            colorless
_exptl_crystal_description       cylinder
_cell_formula_units_Z            16
_exptl_crystal_recrystallization_method 'From the Melt'
loop_
_atom_site_label
_atom_site_type_symbol
_atom_site_fract_x
_atom_site_fract_y
_atom_site_fract_z
N1 N 0.5746(2) 0.0773(4) 0.6184(2)
H1 H 0.590(3) 0.071(6) 0.671(3)
C1 C 0.6128(3) 0.2020(6) 0.5701(3)
H2 H 0.6770 0.1901 0.5684
H3 H 0.5983 0.2966 0.5995
H4 H 0.5889 0.2031 0.5098
C2 C 0.5950(3) -0.0677(5) 0.5785(3)
H5 H 0.6596 -0.0773 0.5723
H6 H 0.5680 -0.0725 0.5189
C3 C 0.5611(3) -0.1969(6) 0.6333(3)
H7 H 0.5902 -0.1943 0.6920
H8 H 0.4970 -0.1839 0.6420
C4 C 0.5772(3) -0.3484(6) 0.5915(3)
H9 H 0.5460 -0.3537 0.5346
H10 H 0.5555 -0.4278 0.6304
H11 H 0.6406 -0.3620 0.5823
N2 N 0.3642(2) 0.0943(4) 0.6777(2)
H12 H 0.416(3) 0.087(6) 0.662(3)
C5 C 0.3088(3) -0.0302(6) 0.6487(3)
H13 H 0.2513 -0.0234 0.6771
H14 H 0.3372 -0.1254 0.6648
H15 H 0.3008 -0.0256 0.5846
C6 C 0.3261(3) 0.2394(5) 0.6526(3)
H16 H 0.2687 0.2522 0.6821
H17 H 0.3153 0.2410 0.5882
C7 C 0.3861(3) 0.3679(6) 0.6775(3)
H18 H 0.4441 0.3528 0.6498
H19 H 0.3953 0.3680 0.7422
C8 C 0.3491(3) 0.5191(6) 0.6492(3)
H20 H 0.3430 0.5218 0.5849
H21 H 0.3892 0.5991 0.6687
H22 H 0.2912 0.5341 0.6759
loop_
_geom_bond_atom_site_label_1
_geom_bond_atom_site_label_2
_geom_bond_site_symmetry_1
_geom_bond_site_symmetry_2
N1 H1 1_555 1_555
C1 N1 1_555 1_555
H2 C1 1_555 1_555
H3 C1 1_555 1_555
H4 C1 1_555 1_555
C2 N1 1_555 1_555
H5 C2 1_555 1_555
H6 C2 1_555 1_555
C3 C2 1_555 1_555
H7 C3 1_555 1_555
H8 C3 1_555 1_555
C4 C3 1_555 1_555
H9 C4 1_555 1_555
H10 C4 1_555 1_555
H11 C4 1_555 1_555
N2 H12 1_555 1_555
C5 N2 1_555 1_555
H13 C5 1_555 1_555
H14 C5 1_555 1_555
H15 C5 1_555 1_555
C6 N2 1_555 1_555
H16 C6 1_555 1_555
H17 C6 1_555 1_555
C7 C6 1_555 1_555
H18 C7 1_555 1_555
H19 C7 1_555 1_555
C8 C7 1_555 1_555
H20 C8 1_555 1_555
H21 C8 1_555 1_555
H22 C8 1_555 1_555

#END
