
#######################################################################
#
#                 Cambridge Crystallographic Data Centre
#                                CCDC 
#
#######################################################################
#
# If this CIF has been generated from an entry in the Cambridge 
# Structural Database, then it will include bibliographic, chemical, 
# crystal, experimental, refinement or atomic coordinate data resulting 
# from the CCDC's data processing and validation procedures.
#
#######################################################################

data_LIHKUL
_chemical_formula_moiety         'C15 H9 Cl1 O3'
_chemical_name_systematic        
3-(4-chlorophenyl)-7-hydroxy-2H-1-benzopyran-2-one
_symmetry_cell_setting           orthorhombic
_symmetry_space_group_name_H-M   'P 21 21 21'
_symmetry_Int_Tables_number      19
_space_group_name_Hall           'P 2ac 2ab'
loop_
_symmetry_equiv_pos_site_id
_symmetry_equiv_pos_as_xyz
1 x,y,z
2 1/2-x,-y,1/2+z
3 -x,1/2+y,1/2-z
4 1/2+x,1/2-y,-z
_cell_length_a                   7.3159(5)
_cell_length_b                   12.2255(9)
_cell_length_c                   13.2803(9)
_cell_angle_alpha                90
_cell_angle_beta                 90
_cell_angle_gamma                90
_cell_volume                     1187.8
_cell_formula_units_Z            4
loop_
_atom_site_label
_atom_site_type_symbol
_atom_site_fract_x
_atom_site_fract_y
_atom_site_fract_z
C1 C 0.1429(3) 0.60936(17) -0.33648(14)
C2 C 0.0784(3) 0.66882(17) -0.41766(15)
C3 C 0.0060(3) 0.77412(18) -0.40456(15)
C4 C 0.0009(3) 0.81945(18) -0.30965(15)
C5 C 0.0656(3) 0.76171(17) -0.22521(15)
C6 C 0.1326(3) 0.65620(16) -0.24186(14)
C7 C 0.0646(3) 0.80166(17) -0.12458(15)
C8 C 0.1242(3) 0.74101(16) -0.04519(14)
C9 C 0.1879(3) 0.63000(17) -0.06454(15)
C10 C 0.1273(3) 0.78452(16) 0.05924(14)
C11 C 0.1755(3) 0.89341(18) 0.07457(15)
C12 C 0.1756(3) 0.93944(18) 0.17032(16)
C13 C 0.1268(3) 0.87447(17) 0.25111(15)
C14 C 0.0774(3) 0.76592(18) 0.23897(16)
C15 C 0.0774(3) 0.72178(17) 0.14273(15)
O1 O 0.1918(2) 0.59358(11) -0.16192(10)
O2 O 0.2406(2) 0.56510(12) -0.00113(10)
O3 O 0.0800(2) 0.62949(13) -0.51343(10)
Cl1 Cl 0.12799(8) 0.93120(5) 0.37158(4)
H1 H 0.1918 0.5398 -0.3453
H2 H -0.0383 0.8130 -0.4596
H3 H -0.0462 0.8895 -0.3012
H4 H 0.0214 0.8720 -0.1126
H5 H 0.2083 0.9363 0.0196
H6 H 0.2077 1.0123 0.1798
H7 H 0.0448 0.7235 0.2942
H8 H 0.0437 0.6491 0.1336
H9 H 0.1321 0.5701 -0.5145
loop_
_geom_bond_atom_site_label_1
_geom_bond_atom_site_label_2
_geom_bond_site_symmetry_1
_geom_bond_site_symmetry_2
C1 C2 1_555 1_555
C2 C3 1_555 1_555
C3 C4 1_555 1_555
C4 C5 1_555 1_555
C5 C6 1_555 1_555
C6 C1 1_555 1_555
C7 C5 1_555 1_555
C8 C7 1_555 1_555
C9 C8 1_555 1_555
C10 C8 1_555 1_555
C11 C10 1_555 1_555
C12 C11 1_555 1_555
C13 C12 1_555 1_555
C14 C13 1_555 1_555
C15 C10 1_555 1_555
O1 C6 1_555 1_555
O2 C9 1_555 1_555
O3 C2 1_555 1_555
Cl1 C13 1_555 1_555
H1 C1 1_555 1_555
H2 C3 1_555 1_555
H3 C4 1_555 1_555
H4 C7 1_555 1_555
H5 C11 1_555 1_555
H6 C12 1_555 1_555
H7 C14 1_555 1_555
H8 C15 1_555 1_555
H9 O3 1_555 1_555
C9 O1 1_555 1_555
C14 C15 1_555 1_555

#END
