
#######################################################################
#
#                 Cambridge Crystallographic Data Centre
#                                CCDC 
#
#######################################################################
#
# If this CIF has been generated from an entry in the Cambridge 
# Structural Database, then it will include bibliographic, chemical, 
# crystal, experimental, refinement or atomic coordinate data resulting 
# from the CCDC's data processing and validation procedures.
#
#######################################################################

data_LIHKIX
_chemical_compound_source        'leaves and twigs of Walsura robusta'
_chemical_formula_moiety         'C32 H42 O10,H2 O1'
_chemical_name_systematic        'Walsuronoid A monohydrate'
_chemical_properties_biological  'weak antimalarial activity'
_symmetry_cell_setting           monoclinic
_symmetry_space_group_name_H-M   'P 21'
_symmetry_Int_Tables_number      4
_space_group_name_Hall           'P 2yb'
loop_
_symmetry_equiv_pos_site_id
_symmetry_equiv_pos_as_xyz
1 x,y,z
2 -x,1/2+y,-z
_cell_length_a                   8.2919(8)
_cell_length_b                   18.2388(18)
_cell_length_c                   10.7413(10)
_cell_angle_alpha                90
_cell_angle_beta                 106.478(2)
_cell_angle_gamma                90
_cell_volume                     1557.73
_exptl_crystal_colour            colorless
_exptl_crystal_description       prismatic
_chemical_melting_point          '465 K'
_cell_formula_units_Z            2
_exptl_crystal_recrystallization_method acetone
loop_
_atom_site_label
_atom_site_type_symbol
_atom_site_fract_x
_atom_site_fract_y
_atom_site_fract_z
O1 O 0.9046(3) 0.77264(15) -0.3317(2)
O2 O 1.0537(3) 0.86257(15) -0.2118(2)
O3 O 1.0670(3) 0.91011(13) -0.0998(2)
O4 O 0.6095(5) 0.4793(3) 0.5569(4)
O5 O 0.8284(3) 0.90070(11) 0.02731(19)
O6 O 0.7543(3) 0.85990(14) 0.1992(2)
O7 O 1.1964(2) 0.76344(12) 0.35608(18)
O8 O 1.4591(3) 0.7644(2) 0.4836(3)
O9 O 0.7321(3) 0.66089(13) -0.05901(18)
O10 O 0.4578(3) 0.6723(2) -0.0774(3)
C1 C 0.8171(4) 0.82739(16) -0.0294(3)
H1 H 0.7227 0.8015 -0.0112
C2 C 0.7812(4) 0.83514(19) -0.1767(3)
H2 H 0.6812 0.8077 -0.2212
H3 H 0.7641 0.8862 -0.2022
C3 C 0.9327(4) 0.80502(19) -0.2097(3)
C4 C 1.2015(4) 0.88470(19) 0.0104(3)
C5 C 1.1369(4) 0.82476(16) 0.0922(3)
H4 H 1.1051 0.8517 0.1606
C6 C 1.2862(4) 0.77684(18) 0.1615(3)
H5 H 1.3243 0.7499 0.0972
H6 H 1.3779 0.8081 0.2088
C7 C 1.2448(3) 0.72293(18) 0.2552(3)
H7 H 1.3443 0.6931 0.2952
C8 C 1.0983(4) 0.67299(16) 0.1911(3)
C9 C 0.9459(3) 0.72196(15) 0.1213(3)
H8 H 0.9327 0.7536 0.1915
C10 C 0.9807(3) 0.77885(15) 0.0211(2)
C11 C 0.7760(4) 0.68050(16) 0.0794(3)
H9 H 0.6889 0.7138 0.0914
C12 C 0.7667(4) 0.61015(17) 0.1541(3)
H10 H 0.6504 0.6008 0.1510
H11 H 0.8056 0.5694 0.1124
C13 C 0.8724(4) 0.61463(16) 0.2954(3)
C14 C 1.0536(4) 0.62773(16) 0.2970(3)
C15 C 1.1600(5) 0.5920(2) 0.3932(4)
H12 H 1.2765 0.5954 0.4136
C16 C 1.0666(5) 0.5450(2) 0.4654(4)
H13 H 1.0606 0.5685 0.5449
H14 H 1.1192 0.4973 0.4859
C17 C 0.8919(4) 0.53863(17) 0.3673(3)
H15 H 0.8999 0.5011 0.3040
C18 C 0.8069(4) 0.67317(17) 0.3705(3)
H16 H 0.6922 0.6626 0.3668
H17 H 0.8129 0.7204 0.3326
H18 H 0.8743 0.6733 0.4594
C19 C 1.0060(4) 0.74751(17) -0.1066(3)
H19 H 1.1244 0.7399 -0.0978
H20 H 0.9474 0.7012 -0.1287
C20 C 0.7534(5) 0.51604(17) 0.4223(4)
C21 C 0.7565(7) 0.5052(4) 0.5443(5)
H21 H 0.8502 0.5144 0.6142
C22 C 0.5866(6) 0.4958(2) 0.3515(4)
H22 H 0.5419 0.4972 0.2617
C23 C 0.5052(6) 0.4744(2) 0.4368(5)
H23 H 0.3941 0.4586 0.4158
C24 C 0.7840(4) 0.90928(18) 0.1365(3)
C25 C 0.7737(7) 0.9888(3) 0.1683(5)
H24 H 0.7476 0.9934 0.2495
H25 H 0.6872 1.0120 0.1010
H26 H 0.8797 1.0120 0.1748
C26 C 1.3141(4) 0.77729(19) 0.4665(3)
C27 C 1.2407(6) 0.8089(3) 0.5656(4)
H27 H 1.3294 0.8224 0.6411
H28 H 1.1695 0.7731 0.5891
H29 H 1.1755 0.8515 0.5307
C28 C 1.2405(6) 0.9541(2) 0.0923(4)
H30 H 1.1373 0.9774 0.0940
H31 H 1.3047 0.9870 0.0554
H32 H 1.3042 0.9417 0.1792
C29 C 1.3523(4) 0.8633(3) -0.0359(4)
H33 H 1.3750 0.9015 -0.0901
H34 H 1.3283 0.8185 -0.0845
H35 H 1.4487 0.8565 0.0378
C30 C 1.1537(5) 0.61795(19) 0.1008(3)
H36 H 1.2446 0.5884 0.1514
H37 H 1.1901 0.6445 0.0364
H38 H 1.0606 0.5870 0.0588
C31 C 0.5683(5) 0.6588(2) -0.1246(3)
C32 C 0.5463(6) 0.6364(3) -0.2632(4)
H39 H 0.4386 0.6526 -0.3162
H40 H 0.5530 0.5839 -0.2683
H41 H 0.6334 0.6582 -0.2937
H42 H 0.856(5) 0.806(2) -0.383(4)
O11 O 0.7239(3) 0.85691(17) 0.4608(2)
H43 H 0.630(5) 0.832(3) 0.460(6)
H44 H 0.745(6) 0.855(4) 0.384(3)
loop_
_geom_bond_atom_site_label_1
_geom_bond_atom_site_label_2
_geom_bond_site_symmetry_1
_geom_bond_site_symmetry_2
O1 C3 1_555 1_555
O2 O3 1_555 1_555
O3 C4 1_555 1_555
O4 C21 1_555 1_555
O5 C1 1_555 1_555
O6 C24 1_555 1_555
O7 C7 1_555 1_555
O8 C26 1_555 1_555
O9 C11 1_555 1_555
O10 C31 1_555 1_555
O11 H43 1_555 1_555
C1 H1 1_555 1_555
C2 C1 1_555 1_555
H2 C2 1_555 1_555
H3 C2 1_555 1_555
C3 O2 1_555 1_555
C4 C5 1_555 1_555
C5 H4 1_555 1_555
C6 C5 1_555 1_555
H5 C6 1_555 1_555
H6 C6 1_555 1_555
C7 C6 1_555 1_555
H7 C7 1_555 1_555
C8 C7 1_555 1_555
C9 C8 1_555 1_555
H8 C9 1_555 1_555
C10 C1 1_555 1_555
C11 C9 1_555 1_555
H9 C11 1_555 1_555
C12 C11 1_555 1_555
H10 C12 1_555 1_555
H11 C12 1_555 1_555
C13 C12 1_555 1_555
C14 C8 1_555 1_555
C15 C14 1_555 1_555
H12 C15 1_555 1_555
C16 C15 1_555 1_555
H13 C16 1_555 1_555
H14 C16 1_555 1_555
C17 C13 1_555 1_555
H15 C17 1_555 1_555
C18 C13 1_555 1_555
H16 C18 1_555 1_555
H17 C18 1_555 1_555
H18 C18 1_555 1_555
C19 C3 1_555 1_555
H19 C19 1_555 1_555
H20 C19 1_555 1_555
C20 C17 1_555 1_555
C21 C20 1_555 1_555
H21 C21 1_555 1_555
C22 C20 1_555 1_555
H22 C22 1_555 1_555
C23 O4 1_555 1_555
H23 C23 1_555 1_555
C24 O5 1_555 1_555
C25 C24 1_555 1_555
H24 C25 1_555 1_555
H25 C25 1_555 1_555
H26 C25 1_555 1_555
C26 O7 1_555 1_555
C27 C26 1_555 1_555
H27 C27 1_555 1_555
H28 C27 1_555 1_555
H29 C27 1_555 1_555
C28 C4 1_555 1_555
H30 C28 1_555 1_555
H31 C28 1_555 1_555
H32 C28 1_555 1_555
C29 C4 1_555 1_555
H33 C29 1_555 1_555
H34 C29 1_555 1_555
H35 C29 1_555 1_555
C30 C8 1_555 1_555
H36 C30 1_555 1_555
H37 C30 1_555 1_555
H38 C30 1_555 1_555
C31 O9 1_555 1_555
C32 C31 1_555 1_555
H39 C32 1_555 1_555
H40 C32 1_555 1_555
H41 C32 1_555 1_555
H42 O1 1_555 1_555
H44 O11 1_555 1_555
C2 C3 1_555 1_555
C5 C10 1_555 1_555
C9 C10 1_555 1_555
C10 C19 1_555 1_555
C13 C14 1_555 1_555
C16 C17 1_555 1_555
C22 C23 1_555 1_555

#END
