
#######################################################################
#
#                 Cambridge Crystallographic Data Centre
#                                CCDC 
#
#######################################################################
#
# If this CIF has been generated from an entry in the Cambridge 
# Structural Database, then it will include bibliographic, chemical, 
# crystal, experimental, refinement or atomic coordinate data resulting 
# from the CCDC's data processing and validation procedures.
#
#######################################################################

data_LIHKOF
_chemical_name_common            dipropylamine
_chemical_formula_moiety         'C6 H15 N1'
_chemical_name_systematic        N-propylpropan-1-amine
_symmetry_cell_setting           monoclinic
_symmetry_space_group_name_H-M   'P 21/c'
_symmetry_Int_Tables_number      14
_space_group_name_Hall           '-P 2ybc'
loop_
_symmetry_equiv_pos_site_id
_symmetry_equiv_pos_as_xyz
1 x,y,z
2 -x,1/2+y,1/2-z
3 -x,-y,-z
4 x,1/2-y,1/2+z
_cell_length_a                   8.158(2)
_cell_length_b                   10.492(3)
_cell_length_c                   26.090(7)
_cell_angle_alpha                90
_cell_angle_beta                 90.156(4)
_cell_angle_gamma                90
_cell_volume                     2233.13
_exptl_crystal_colour            colorless
_exptl_crystal_description       cylinder
_chemical_melting_point          '210 K'
_cell_formula_units_Z            12
_exptl_crystal_recrystallization_method 'From the Melt'
loop_
_atom_site_label
_atom_site_type_symbol
_atom_site_fract_x
_atom_site_fract_y
_atom_site_fract_z
N1 N 0.03842(18) 0.41353(11) 0.40073(4)
H1 H 0.117(2) 0.4252(15) 0.3815(6)
C1 C 0.0865(2) 0.31488(13) 0.43731(5)
H2 H -0.0060 0.2974 0.4608
H3 H 0.1800 0.3458 0.4581
C2 C 0.1347(2) 0.19302(13) 0.41024(5)
H4 H 0.2304 0.2101 0.3880
H5 H 0.0430 0.1652 0.3880
C3 C 0.1773(2) 0.08613(14) 0.44729(6)
H6 H 0.2077 0.0097 0.4279
H7 H 0.0821 0.0673 0.4688
H8 H 0.2695 0.1125 0.4690
C4 C 0.0004(2) 0.53395(13) 0.42625(5)
H9 H 0.0980 0.5634 0.4455
H10 H -0.0892 0.5200 0.4511
C5 C -0.0509(2) 0.63656(13) 0.38826(5)
H11 H 0.0284 0.6389 0.3596
H12 H -0.1599 0.6150 0.3739
C6 C -0.0586(2) 0.76719(15) 0.41325(6)
H13 H -0.0948 0.8303 0.3879
H14 H 0.0503 0.7905 0.4261
H15 H -0.1364 0.7651 0.4418
N2 N 0.37957(18) 0.47479(11) 0.34541(5)
H16 H 0.469(2) 0.4288(16) 0.3469(6)
C7 C 0.4194(2) 0.59756(13) 0.36843(6)
H17 H 0.3218 0.6536 0.3671
H18 H 0.5078 0.6388 0.3485
C8 C 0.4744(2) 0.58225(15) 0.42376(6)
H19 H 0.5828 0.5399 0.4244
H20 H 0.3958 0.5263 0.4419
C9 C 0.4866(3) 0.70838(17) 0.45212(8)
H21 H 0.5313 0.6938 0.4865
H22 H 0.3773 0.7465 0.4549
H23 H 0.5590 0.7662 0.4333
C10 C 0.3302(2) 0.48293(14) 0.29167(5)
H24 H 0.4227 0.5159 0.2711
H25 H 0.2375 0.5432 0.2882
C11 C 0.2794(2) 0.35322(14) 0.27156(6)
H26 H 0.1783 0.3258 0.2893
H27 H 0.3665 0.2906 0.2797
C12 C 0.2487(3) 0.35301(17) 0.21412(6)
H28 H 0.2105 0.2685 0.2034
H29 H 0.3507 0.3735 0.1962
H30 H 0.1652 0.4168 0.2057
N3 N 0.71949(18) 0.32524(11) 0.33233(5)
H31 H 0.804(2) 0.3565(15) 0.3494(6)
C13 C 0.7546(2) 0.32676(14) 0.27747(6)
H32 H 0.6578 0.2949 0.2585
H33 H 0.8474 0.2686 0.2704
C14 C 0.7971(2) 0.45909(15) 0.25848(6)
H34 H 0.9073 0.4829 0.2713
H35 H 0.7173 0.5209 0.2725
C15 C 0.7953(3) 0.4672(2) 0.20005(7)
H36 H 0.8332 0.5516 0.1893
H37 H 0.6835 0.4532 0.1874
H38 H 0.8681 0.4018 0.1859
C16 C 0.6864(2) 0.19727(13) 0.35147(6)
H39 H 0.7838 0.1428 0.3458
H40 H 0.5936 0.1600 0.3321
C17 C 0.6454(2) 0.19878(14) 0.40799(6)
H41 H 0.5410 0.2452 0.4131
H42 H 0.7323 0.2454 0.4268
C18 C 0.6296(3) 0.06537(16) 0.43015(7)
H43 H 0.5989 0.0710 0.4664
H44 H 0.7346 0.0208 0.4271
H45 H 0.5450 0.0183 0.4113
loop_
_geom_bond_atom_site_label_1
_geom_bond_atom_site_label_2
_geom_bond_site_symmetry_1
_geom_bond_site_symmetry_2
N1 H1 1_555 1_555
C1 N1 1_555 1_555
H2 C1 1_555 1_555
H3 C1 1_555 1_555
C2 C1 1_555 1_555
H4 C2 1_555 1_555
H5 C2 1_555 1_555
C3 C2 1_555 1_555
H6 C3 1_555 1_555
H7 C3 1_555 1_555
H8 C3 1_555 1_555
C4 N1 1_555 1_555
H9 C4 1_555 1_555
H10 C4 1_555 1_555
C5 C4 1_555 1_555
H11 C5 1_555 1_555
H12 C5 1_555 1_555
C6 C5 1_555 1_555
H13 C6 1_555 1_555
H14 C6 1_555 1_555
H15 C6 1_555 1_555
N2 H16 1_555 1_555
C7 N2 1_555 1_555
H17 C7 1_555 1_555
H18 C7 1_555 1_555
C8 C7 1_555 1_555
H19 C8 1_555 1_555
H20 C8 1_555 1_555
C9 C8 1_555 1_555
H21 C9 1_555 1_555
H22 C9 1_555 1_555
H23 C9 1_555 1_555
C10 N2 1_555 1_555
H24 C10 1_555 1_555
H25 C10 1_555 1_555
C11 C10 1_555 1_555
H26 C11 1_555 1_555
H27 C11 1_555 1_555
C12 C11 1_555 1_555
H28 C12 1_555 1_555
H29 C12 1_555 1_555
H30 C12 1_555 1_555
N3 H31 1_555 1_555
C13 N3 1_555 1_555
H32 C13 1_555 1_555
H33 C13 1_555 1_555
C14 C13 1_555 1_555
H34 C14 1_555 1_555
H35 C14 1_555 1_555
C15 C14 1_555 1_555
H36 C15 1_555 1_555
H37 C15 1_555 1_555
H38 C15 1_555 1_555
C16 N3 1_555 1_555
H39 C16 1_555 1_555
H40 C16 1_555 1_555
C17 C16 1_555 1_555
H41 C17 1_555 1_555
H42 C17 1_555 1_555
C18 C17 1_555 1_555
H43 C18 1_555 1_555
H44 C18 1_555 1_555
H45 C18 1_555 1_555

#END
