
#######################################################################
#
#                 Cambridge Crystallographic Data Centre
#                                CCDC 
#
#######################################################################
#
# If this CIF has been generated from an entry in the Cambridge 
# Structural Database, then it will include bibliographic, chemical, 
# crystal, experimental, refinement or atomic coordinate data resulting 
# from the CCDC's data processing and validation procedures.
#
#######################################################################

data_LIHKAP
_chemical_formula_moiety         'C13 H10 Cl3 N1 O1'
_chemical_name_systematic        
4-Chloro-3-(2-chloroethyl)-1-(4-chlorophenyl)pyridin-2(1H)-one
_symmetry_cell_setting           monoclinic
_symmetry_space_group_name_H-M   'P 21/n'
_symmetry_Int_Tables_number      14
_space_group_name_Hall           '-P 2yn'
loop_
_symmetry_equiv_pos_site_id
_symmetry_equiv_pos_as_xyz
1 x,y,z
2 1/2-x,1/2+y,1/2-z
3 -x,-y,-z
4 1/2+x,1/2-y,1/2+z
_cell_length_a                   11.0773(4)
_cell_length_b                   7.2082(3)
_cell_length_c                   17.3552(6)
_cell_angle_alpha                90.00
_cell_angle_beta                 105.9840(10)
_cell_angle_gamma                90.00
_cell_volume                     1332.19
_exptl_crystal_colour            white
_chemical_melting_point          '99-100 deg.C'
_cell_formula_units_Z            4
loop_
_atom_site_label
_atom_site_type_symbol
_atom_site_fract_x
_atom_site_fract_y
_atom_site_fract_z
C1 C 0.43235(19) 0.5625(3) 0.84376(13)
C2 C 0.55446(19) 0.5869(3) 0.83903(12)
H1 H 0.5735 0.6815 0.8079
C3 C 0.64695(17) 0.4690(3) 0.88111(11)
H2 H 0.7288 0.4826 0.8778
C4 C 0.40227(19) 0.4222(3) 0.88826(13)
H3 H 0.3196 0.4048 0.8895
C5 C 0.49631(17) 0.3067(3) 0.93135(12)
H4 H 0.4772 0.2124 0.9626
C6 C 0.61863(16) 0.3307(2) 0.92822(10)
N1 N 0.71705(13) 0.2126(2) 0.97492(9)
C7 C 0.70388(17) 0.0227(2) 0.96978(11)
H5 H 0.6321 -0.0274 0.9349
C8 C 0.82360(16) 0.2967(2) 1.02580(11)
C9 C 0.92065(16) 0.1733(2) 1.07191(10)
C10 C 0.90092(17) -0.0132(2) 1.06555(10)
C11 C 1.03581(16) 0.2666(3) 1.12293(11)
H6 H 1.0587 0.3681 1.0931
H7 H 1.1047 0.1786 1.1354
C12 C 1.01635(18) 0.3405(3) 1.19989(12)
H8 H 0.9944 0.2392 1.2303
H9 H 0.9475 0.4286 1.1878
Cl1 Cl 0.31704(7) 0.71492(13) 0.79253(6)
Cl2 Cl 1.01321(5) -0.16468(7) 1.12108(3)
Cl3 Cl 1.15593(5) 0.45156(8) 1.25848(3)
C13 C 0.79123(18) -0.0918(2) 1.01349(11)
H10 H 0.7803 -0.2197 1.0098
O1 O 0.83236(13) 0.46632(17) 1.03044(9)
loop_
_geom_bond_atom_site_label_1
_geom_bond_atom_site_label_2
_geom_bond_site_symmetry_1
_geom_bond_site_symmetry_2
C1 C2 1_555 1_555
C2 H1 1_555 1_555
C3 C2 1_555 1_555
H2 C3 1_555 1_555
C4 C1 1_555 1_555
H3 C4 1_555 1_555
C5 C4 1_555 1_555
H4 C5 1_555 1_555
C6 C3 1_555 1_555
N1 C6 1_555 1_555
C7 N1 1_555 1_555
H5 C7 1_555 1_555
C8 N1 1_555 1_555
C9 C8 1_555 1_555
C10 C9 1_555 1_555
C11 C9 1_555 1_555
H6 C11 1_555 1_555
H7 C11 1_555 1_555
C12 C11 1_555 1_555
H8 C12 1_555 1_555
H9 C12 1_555 1_555
Cl1 C1 1_555 1_555
Cl2 C10 1_555 1_555
Cl3 C12 1_555 1_555
C13 C7 1_555 1_555
H10 C13 1_555 1_555
O1 C8 1_555 1_555
C5 C6 1_555 1_555
C10 C13 1_555 1_555

#END
