
#######################################################################
#
#                 Cambridge Crystallographic Data Centre
#                                CCDC 
#
#######################################################################
#
# If this CIF has been generated from an entry in the Cambridge 
# Structural Database, then it will include bibliographic, chemical, 
# crystal, experimental, refinement or atomic coordinate data resulting 
# from the CCDC's data processing and validation procedures.
#
#######################################################################

data_LIHLIA
_chemical_formula_moiety         'C27 H29 N3 O3'
_chemical_name_systematic        
N-[4-(diethylamino)phenyl]-2-[2-(2,3-dihydro-1H-indol-1-yl)-2-oxoethoxy]benzamide
_symmetry_cell_setting           orthorhombic
_symmetry_space_group_name_H-M   'P 21 21 21'
_symmetry_Int_Tables_number      19
_space_group_name_Hall           'P 2ac 2ab'
loop_
_symmetry_equiv_pos_site_id
_symmetry_equiv_pos_as_xyz
1 x,y,z
2 1/2-x,-y,1/2+z
3 -x,1/2+y,1/2-z
4 1/2+x,1/2-y,-z
_cell_length_a                   14.0375(3)
_cell_length_b                   17.8538(3)
_cell_length_c                   18.1362(4)
_cell_angle_alpha                90
_cell_angle_beta                 90
_cell_angle_gamma                90
_cell_volume                     4545.34
_cell_formula_units_Z            8
loop_
_atom_site_label
_atom_site_type_symbol
_atom_site_fract_x
_atom_site_fract_y
_atom_site_fract_z
C1 C 0.42051(19) 0.08682(15) 0.81539(14)
C2 C 0.51536(19) 0.10618(14) 0.81953(14)
C3 C 0.54507(17) 0.17315(14) 0.85153(13)
C4 C 0.47478(17) 0.22116(14) 0.87899(13)
C5 C 0.37915(18) 0.20195(15) 0.87399(14)
C6 C 0.35241(19) 0.13491(15) 0.84283(14)
C7 C 0.65123(18) 0.18590(14) 0.85248(14)
C8 C 0.78131(17) 0.26648(14) 0.90089(14)
C9 C 0.79957(18) 0.33087(14) 0.94144(15)
C10 C 0.89140(18) 0.35637(14) 0.95126(15)
C11 C 0.97012(17) 0.31807(14) 0.92246(14)
C12 C 0.95003(17) 0.25449(14) 0.87955(14)
C13 C 0.85785(17) 0.22920(14) 0.86895(13)
C14 C 1.0825(2) 0.41400(16) 0.96796(17)
C15 C 1.0698(3) 0.47748(17) 0.9139(2)
C16 C 1.14227(18) 0.29665(15) 0.90900(15)
C17 C 1.1648(2) 0.30874(16) 0.82791(16)
C18 C 0.43801(17) 0.33076(14) 0.95004(14)
C19 C 0.49559(17) 0.38041(13) 1.00070(14)
C20 C 0.33843(17) 0.43836(14) 1.03266(15)
C21 C 0.3106(2) 0.49889(15) 1.08864(17)
C22 C 0.40296(19) 0.52070(14) 1.12360(15)
C23 C 0.47774(19) 0.47852(13) 1.09548(14)
C24 C 0.5700(2) 0.48638(14) 1.12173(15)
C25 C 0.5848(2) 0.53892(17) 1.17737(16)
C26 C 0.5118(2) 0.58247(17) 1.20482(16)
C27 C 0.4204(2) 0.57350(15) 1.17800(16)
N1 N 0.68498(14) 0.24313(11) 0.89386(12)
N2 N 1.06287(15) 0.34026(12) 0.93755(13)
N3 N 0.44309(14) 0.42967(11) 1.04041(12)
O1 O 0.50479(12) 0.28689(10) 0.91015(10)
O2 O 0.70327(14) 0.14428(12) 0.81708(13)
O3 O 0.58247(12) 0.37489(9) 1.00609(10)
H1 H 0.4025 0.0415 0.7942
H2 H 0.5608 0.0736 0.8004
H3 H 0.3329 0.2346 0.8918
H4 H 0.2883 0.1220 0.8403
H5 H 0.7491 0.3572 0.9623
H6 H 0.9014 0.4003 0.9778
H7 H 1.0001 0.2287 0.8576
H8 H 0.8470 0.1869 0.8402
H9 H 1.1475 0.4148 0.9861
H10 H 1.0407 0.4224 1.0097
H11 H 1.1105 0.4696 0.8720
H12 H 1.0863 0.5240 0.9373
H13 H 1.0047 0.4793 0.8979
H14 H 1.1285 0.2440 0.9166
H15 H 1.1986 0.3086 0.9376
H16 H 1.1080 0.3021 0.7992
H17 H 1.2120 0.2731 0.8124
H18 H 1.1888 0.3586 0.8209
H19 H 0.3957 0.2989 0.9784
H20 H 0.4000 0.3608 0.9166
H21 H 0.3061 0.3916 1.0435
H22 H 0.3220 0.4538 0.9830
H23 H 0.2813 0.5414 1.0642
H24 H 0.2667 0.4792 1.1251
H25 H 0.6198 0.4578 1.1030
H26 H 0.6458 0.5448 1.1966
H27 H 0.5240 0.6178 1.2413
H28 H 0.3708 0.6027 1.1963
H29 H 0.6435 0.2681 0.9186
C28 C -0.0479(2) 0.12527(15) 0.71718(15)
C29 C 0.04906(19) 0.13516(15) 0.70917(14)
C30 C 0.08699(18) 0.18669(13) 0.65905(13)
C31 C 0.02250(17) 0.22767(13) 0.61594(14)
C32 C -0.07503(18) 0.21802(14) 0.62398(15)
C33 C -0.1095(2) 0.16708(15) 0.67527(15)
C34 C 0.19423(18) 0.19234(14) 0.65802(14)
C35 C 0.33099(17) 0.27182(13) 0.61945(13)
C36 C 0.40176(18) 0.24124(14) 0.66385(14)
C37 C 0.49431(18) 0.26813(15) 0.66039(14)
C38 C 0.52041(18) 0.32723(15) 0.61417(14)
C39 C 0.44836(17) 0.35679(14) 0.56866(14)
C40 C 0.35633(18) 0.32908(13) 0.57119(14)
C41 C 0.69101(19) 0.31619(17) 0.64645(17)
C42 C 0.7076(2) 0.3350(2) 0.72646(18)
C43 C 0.6349(2) 0.42682(16) 0.57615(16)
C44 C 0.6653(2) 0.4160(2) 0.49815(19)
C45 C 0.00088(17) 0.32182(14) 0.52230(13)
C46 C 0.06570(17) 0.36625(13) 0.47174(13)
C47 C -0.08304(17) 0.43287(14) 0.43208(14)
C48 C -0.10107(18) 0.49341(14) 0.37370(15)
C49 C -0.00355(18) 0.50991(14) 0.34278(14)
C50 C 0.06436(17) 0.46291(13) 0.37442(13)
C51 C 0.15875(18) 0.46476(14) 0.35232(14)
C52 C 0.1838(2) 0.51529(15) 0.29745(15)
C53 C 0.1177(2) 0.56362(15) 0.26680(15)
C54 C 0.0231(2) 0.56092(14) 0.28940(15)
N4 N 0.23361(14) 0.25043(11) 0.62089(12)
N5 N 0.61183(16) 0.35617(13) 0.61354(14)
N6 N 0.02074(13) 0.41678(11) 0.42832(11)
O4 O 0.06142(12) 0.27554(10) 0.56507(10)
O5 O 0.24191(13) 0.14619(11) 0.69181(11)
O6 O 0.15197(12) 0.35603(10) 0.47076(10)
H30 H -0.0713 0.0905 0.7508
H31 H 0.0903 0.1067 0.7379
H32 H -0.1171 0.2456 0.5951
H33 H -0.1749 0.1612 0.6813
H34 H 0.3869 0.2025 0.6961
H35 H 0.5406 0.2460 0.6899
H36 H 0.4629 0.3956 0.5363
H37 H 0.3104 0.3492 0.5400
H38 H 0.7484 0.3275 0.6189
H39 H 0.6794 0.2628 0.6422
H40 H 0.7141 0.3883 0.7318
H41 H 0.7647 0.3109 0.7432
H42 H 0.6545 0.3180 0.7553
H43 H 0.6856 0.4518 0.6030
H44 H 0.5794 0.4592 0.5772
H45 H 0.7170 0.3808 0.4964
H46 H 0.6858 0.4631 0.4780
H47 H 0.6128 0.3972 0.4698
H48 H -0.0354 0.3552 0.5538
H49 H -0.0432 0.2916 0.4938
H50 H -0.1005 0.4509 0.4807
H51 H -0.1198 0.3882 0.4213
H52 H -0.1435 0.4751 0.3355
H53 H -0.1287 0.5378 0.3958
H54 H 0.2038 0.4332 0.3735
H55 H 0.2465 0.5167 0.2809
H56 H 0.1366 0.5979 0.2311
H57 H -0.0218 0.5931 0.2688
H58 H 0.1952 0.2775 0.5952
loop_
_geom_bond_atom_site_label_1
_geom_bond_atom_site_label_2
_geom_bond_site_symmetry_1
_geom_bond_site_symmetry_2
C1 C2 1_555 1_555
C2 C3 1_555 1_555
C3 C4 1_555 1_555
C4 C5 1_555 1_555
C5 C6 1_555 1_555
C6 C1 1_555 1_555
C7 C3 1_555 1_555
C8 C9 1_555 1_555
C9 C10 1_555 1_555
C10 C11 1_555 1_555
C11 C12 1_555 1_555
C12 C13 1_555 1_555
C13 C8 1_555 1_555
C14 C15 1_555 1_555
C15 H11 1_555 1_555
C16 C17 1_555 1_555
C17 H16 1_555 1_555
C18 C19 1_555 1_555
C19 N3 1_555 1_555
C20 C21 1_555 1_555
C21 C22 1_555 1_555
C22 C23 1_555 1_555
C23 C24 1_555 1_555
C24 C25 1_555 1_555
C25 C26 1_555 1_555
C26 C27 1_555 1_555
C27 C22 1_555 1_555
N1 C7 1_555 1_555
N2 C11 1_555 1_555
N3 C20 1_555 1_555
O1 C4 1_555 1_555
O2 C7 1_555 1_555
O3 C19 1_555 1_555
H1 C1 1_555 1_555
H2 C2 1_555 1_555
H3 C5 1_555 1_555
H4 C6 1_555 1_555
H5 C9 1_555 1_555
H6 C10 1_555 1_555
H7 C12 1_555 1_555
H8 C13 1_555 1_555
H9 C14 1_555 1_555
H10 C14 1_555 1_555
H12 C15 1_555 1_555
H13 C15 1_555 1_555
H14 C16 1_555 1_555
H15 C16 1_555 1_555
H17 C17 1_555 1_555
H18 C17 1_555 1_555
H19 C18 1_555 1_555
H20 C18 1_555 1_555
H21 C20 1_555 1_555
H22 C20 1_555 1_555
H23 C21 1_555 1_555
H24 C21 1_555 1_555
H25 C24 1_555 1_555
H26 C25 1_555 1_555
H27 C26 1_555 1_555
H28 C27 1_555 1_555
H29 N1 1_555 1_555
C28 C29 1_555 1_555
C29 C30 1_555 1_555
C30 C31 1_555 1_555
C31 C32 1_555 1_555
C32 C33 1_555 1_555
C33 C28 1_555 1_555
C34 C30 1_555 1_555
C35 C36 1_555 1_555
C36 C37 1_555 1_555
C37 C38 1_555 1_555
C38 C39 1_555 1_555
C39 C40 1_555 1_555
C40 C35 1_555 1_555
C41 C42 1_555 1_555
C42 H40 1_555 1_555
C43 C44 1_555 1_555
C44 H45 1_555 1_555
C45 C46 1_555 1_555
C46 N6 1_555 1_555
C47 C48 1_555 1_555
C48 C49 1_555 1_555
C49 C50 1_555 1_555
C50 C51 1_555 1_555
C51 C52 1_555 1_555
C52 C53 1_555 1_555
C53 C54 1_555 1_555
C54 C49 1_555 1_555
N4 C34 1_555 1_555
N5 C38 1_555 1_555
N6 C47 1_555 1_555
O4 C31 1_555 1_555
O5 C34 1_555 1_555
O6 C46 1_555 1_555
H30 C28 1_555 1_555
H31 C29 1_555 1_555
H32 C32 1_555 1_555
H33 C33 1_555 1_555
H34 C36 1_555 1_555
H35 C37 1_555 1_555
H36 C39 1_555 1_555
H37 C40 1_555 1_555
H38 C41 1_555 1_555
H39 C41 1_555 1_555
H41 C42 1_555 1_555
H42 C42 1_555 1_555
H43 C43 1_555 1_555
H44 C43 1_555 1_555
H46 C44 1_555 1_555
H47 C44 1_555 1_555
H48 C45 1_555 1_555
H49 C45 1_555 1_555
H50 C47 1_555 1_555
H51 C47 1_555 1_555
H52 C48 1_555 1_555
H53 C48 1_555 1_555
H54 C51 1_555 1_555
H55 C52 1_555 1_555
H56 C53 1_555 1_555
H57 C54 1_555 1_555
H58 N4 1_555 1_555
C8 N1 1_555 1_555
C14 N2 1_555 1_555
C16 N2 1_555 1_555
C18 O1 1_555 1_555
C23 N3 1_555 1_555
C35 N4 1_555 1_555
C41 N5 1_555 1_555
C43 N5 1_555 1_555
C45 O4 1_555 1_555
C50 N6 1_555 1_555

#END
