
#######################################################################
#
#                 Cambridge Crystallographic Data Centre
#                                CCDC 
#
#######################################################################
#
# If this CIF has been generated from an entry in the Cambridge 
# Structural Database, then it will include bibliographic, chemical, 
# crystal, experimental, refinement or atomic coordinate data resulting 
# from the CCDC's data processing and validation procedures.
#
#######################################################################

data_LIHLUL
_chemical_formula_moiety         'C32 H28 N4 O6'
_chemical_name_systematic        
5,15-Dibenzyl-3,17-dioxa-6,14,23,24-tetraazatricyclo[17.3.1.1^8,12^]tetracosa-1(23),8(24),9,11,19,21-hexaene-2,7,13,18-tetrone
_symmetry_cell_setting           triclinic
_symmetry_space_group_name_H-M   'P 1'
_symmetry_Int_Tables_number      1
_space_group_name_Hall           'P 1'
loop_
_symmetry_equiv_pos_site_id
_symmetry_equiv_pos_as_xyz
1 x,y,z
_cell_length_a                   4.6179(4)
_cell_length_b                   11.3774(8)
_cell_length_c                   13.0822(10)
_cell_angle_alpha                89.106(6)
_cell_angle_beta                 85.523(7)
_cell_angle_gamma                86.669(7)
_cell_volume                     684.038
_exptl_crystal_colour            colorless
_exptl_crystal_description       block
_cell_formula_units_Z            1
loop_
_atom_site_label
_atom_site_type_symbol
_atom_site_fract_x
_atom_site_fract_y
_atom_site_fract_z
C1 C -0.3028(5) -0.6876(2) -0.5550(2)
N1 N -0.0407(4) -1.14522(17) -0.82461(16)
C2 C 0.0464(6) -0.5168(2) -0.6243(2)
H1 H 0.1666 -0.4593 -0.6512
N2 N -0.1204(4) -0.71154(16) -0.63733(15)
C3 C -0.3159(6) -0.5818(2) -0.5025(2)
H2 H -0.4417 -0.5702 -0.4440
N3 N -0.4197(5) -1.10280(17) -0.65556(16)
H3 H -0.3213 -1.0486 -0.6857
C4 C -0.1397(7) -0.4948(2) -0.5386(2)
H4 H -0.1460 -0.4226 -0.5059
C5 C 0.0519(5) -0.6258(2) -0.6699(2)
C6 C 0.3251(6) -1.0721(3) -0.9502(2)
C7 C -0.4039(6) -1.2116(2) -0.6945(2)
O1 O -0.6848(4) -0.76286(18) -0.44589(15)
O2 O -0.4933(4) -0.87272(15) -0.57828(14)
N4 N 0.2953(5) -0.96918(18) -0.90073(17)
H5 H 0.1786 -0.9623 -0.8463
O3 O -0.5463(5) -1.29068(17) -0.65553(18)
C8 C -0.2035(6) -1.2329(2) -0.7890(2)
O4 O 0.4967(5) -1.0886(2) -1.02499(17)
C9 C 0.4951(5) -0.7274(3) -1.0877(2)
C10 C -0.6038(5) -1.0767(2) -0.56224(19)
H6 H -0.7685 -1.1272 -0.5623
O5 O 0.4143(5) -0.57736(18) -0.79892(18)
O6 O 0.2996(3) -0.76495(15) -0.78221(13)
C11 C -0.7587(8) -1.0623(3) -0.3016(3)
H7 H -0.6899 -0.9870 -0.3028
C12 C 0.4571(5) -0.8693(2) -0.9377(2)
H8 H 0.6344 -0.9016 -0.9757
C13 C 0.7454(9) -0.5572(3) -1.1453(3)
H9 H 0.7805 -0.4784 -1.1368
C14 C 0.5572(8) -0.6126(3) -1.0754(3)
H10 H 0.4714 -0.5712 -1.0191
C15 C 0.1365(6) -1.1675(2) -0.9088(2)
C16 C -1.0619(8) -1.2039(4) -0.2206(3)
H11 H -1.1953 -1.2250 -0.1675
C17 C -0.6596(5) -1.1414(3) -0.3770(2)
C18 C -0.1969(6) -1.3420(2) -0.8344(2)
H12 H -0.3132 -1.4005 -0.8070
C19 C -0.7644(7) -1.2520(3) -0.3723(2)
H13 H -0.6972 -1.3067 -0.4220
C20 C -0.5115(6) -0.7783(2) -0.5185(2)
C21 C -0.0132(7) -1.3617(3) -0.9213(3)
H14 H -0.0045 -1.4341 -0.9538
C22 C 0.2931(5) -0.7918(2) -1.0134(2)
H15 H 0.1749 -0.8407 -1.0514
H16 H 0.1636 -0.7350 -0.9755
C23 C 0.8191(8) -0.7325(4) -1.2403(2)
H17 H 0.9066 -0.7737 -1.2964
C24 C 0.5524(5) -0.8024(2) -0.8501(2)
H18 H 0.6862 -0.8520 -0.8124
H19 H 0.6527 -0.7341 -0.8758
C25 C 0.1555(6) -1.2743(3) -0.9593(2)
H20 H 0.2808 -1.2861 -1.0179
C26 C -0.7278(5) -0.9529(2) -0.5641(2)
H21 H -0.8546 -0.9424 -0.6197
H22 H -0.8423 -0.9359 -0.5002
C27 C 0.2717(5) -0.6509(2) -0.7578(2)
C28 C 0.6302(6) -0.7866(3) -1.1714(2)
H23 H 0.5920 -0.8648 -1.1812
C29 C -0.4491(6) -1.1091(2) -0.4653(2)
H24 H -0.3099 -1.1750 -0.4798
H25 H -0.3426 -1.0429 -0.4461
C30 C 0.8796(8) -0.6174(4) -1.2265(3)
H26 H 1.0112 -0.5808 -1.2723
C31 C -0.9623(9) -1.0953(4) -0.2236(3)
H27 H -1.0296 -1.0415 -0.1731
C32 C -0.9689(8) -1.2836(3) -0.2948(3)
H28 H -1.0418 -1.3581 -0.2934
loop_
_geom_bond_atom_site_label_1
_geom_bond_atom_site_label_2
_geom_bond_site_symmetry_1
_geom_bond_site_symmetry_2
C1 N2 1_555 1_555
N1 C8 1_555 1_555
C2 H1 1_555 1_555
N2 C5 1_555 1_555
C3 C1 1_555 1_555
H2 C3 1_555 1_555
N3 H3 1_555 1_555
C4 C2 1_555 1_555
H4 C4 1_555 1_555
C5 C2 1_555 1_555
C6 N4 1_555 1_555
C7 N3 1_555 1_555
O1 C20 1_555 1_555
O2 C20 1_555 1_555
N4 H5 1_555 1_555
O3 C7 1_555 1_555
C8 C7 1_555 1_555
O4 C6 1_555 1_555
C9 C14 1_555 1_555
C10 N3 1_555 1_555
H6 C10 1_555 1_555
O5 C27 1_555 1_555
O6 C24 1_555 1_555
C11 H7 1_555 1_555
C12 N4 1_555 1_555
H8 C12 1_555 1_555
C13 H9 1_555 1_555
C14 C13 1_555 1_555
H10 C14 1_555 1_555
C15 N1 1_555 1_555
C16 H11 1_555 1_555
C17 C11 1_555 1_555
C18 C8 1_555 1_555
H12 C18 1_555 1_555
C19 C17 1_555 1_555
H13 C19 1_555 1_555
C20 C1 1_555 1_555
C21 C18 1_555 1_555
H14 C21 1_555 1_555
C22 C9 1_555 1_555
H15 C22 1_555 1_555
H16 C22 1_555 1_555
C23 H17 1_555 1_555
C24 C12 1_555 1_555
H18 C24 1_555 1_555
H19 C24 1_555 1_555
C25 C15 1_555 1_555
H20 C25 1_555 1_555
C26 O2 1_555 1_555
H21 C26 1_555 1_555
H22 C26 1_555 1_555
C27 C5 1_555 1_555
C28 C9 1_555 1_555
H23 C28 1_555 1_555
C29 C10 1_555 1_555
H24 C29 1_555 1_555
H25 C29 1_555 1_555
C30 C13 1_555 1_555
H26 C30 1_555 1_555
C31 C11 1_555 1_555
H27 C31 1_555 1_555
C32 C16 1_555 1_555
H28 C32 1_555 1_555
C3 C4 1_555 1_555
C6 C15 1_555 1_555
C10 C26 1_555 1_555
O6 C27 1_555 1_555
C12 C22 1_555 1_555
C16 C31 1_555 1_555
C17 C29 1_555 1_555
C19 C32 1_555 1_555
C21 C25 1_555 1_555
C23 C28 1_555 1_555
C23 C30 1_555 1_555

#END
