
#######################################################################
#
#                 Cambridge Crystallographic Data Centre
#                                CCDC 
#
#######################################################################
#
# If this CIF has been generated from an entry in the Cambridge 
# Structural Database, then it will include bibliographic, chemical, 
# crystal, experimental, refinement or atomic coordinate data resulting 
# from the CCDC's data processing and validation procedures.
#
#######################################################################

data_LIHLIX
_chemical_compound_source        'immature seeds of Pisum sativum'
_chemical_formula_moiety         'C10 H8 Cl1 N1 O2'
_chemical_name_systematic        '4-Chloroindole-3-acetic acid'
_chemical_properties_biological  'biological activity'
_symmetry_cell_setting           monoclinic
_symmetry_space_group_name_H-M   'P 21/c'
_symmetry_Int_Tables_number      14
_space_group_name_Hall           '-P 2ybc'
loop_
_symmetry_equiv_pos_site_id
_symmetry_equiv_pos_as_xyz
1 x,y,z
2 -x,1/2+y,1/2-z
3 -x,-y,-z
4 x,1/2-y,1/2+z
_cell_length_a                   7.322
_cell_length_b                   17.178
_cell_length_c                   7.647
_cell_angle_alpha                90
_cell_angle_beta                 92.66
_cell_angle_gamma                90
_cell_volume                     960.783
_cell_formula_units_Z            4
loop_
_atom_site_label
_atom_site_type_symbol
_atom_site_fract_x
_atom_site_fract_y
_atom_site_fract_z
Cl1 Cl 0.3897(2) 0.05496(8) 0.7833(2)
O1 O 0.9306(5) -0.0346(2) 0.7792(4)
O2 O 0.8949(4) 0.0771(2) 0.9193(4)
N1 N 0.7467(6) 0.2794(2) 0.5773(5)
C1 C 0.8378(6) 0.2116(3) 0.5548(6)
C2 C 0.7393(6) 0.1503(3) 0.6133(5)
C3 C 0.4119(6) 0.1548(3) 0.7433(5)
C4 C 0.2730(6) 0.2036(3) 0.7852(6)
C5 C 0.2902(7) 0.2831(3) 0.7604(7)
C6 C 0.4410(7) 0.3149(3) 0.6941(6)
C7 C 0.5815(6) 0.2642(3) 0.6486(5)
C8 C 0.5728(6) 0.1828(2) 0.6731(5)
C9 C 0.8017(7) 0.0677(3) 0.6133(6)
C10 C 0.8784(6) 0.0381(2) 0.7876(6)
loop_
_geom_bond_atom_site_label_1
_geom_bond_atom_site_label_2
_geom_bond_site_symmetry_1
_geom_bond_site_symmetry_2
Cl1 C3 1_555 1_555
O1 C10 1_555 1_555
O2 C10 1_555 1_555
N1 C1 1_555 1_555
C1 C2 1_555 1_555
C2 C8 1_555 1_555
C3 C4 1_555 1_555
C4 C5 1_555 1_555
C5 C6 1_555 1_555
C6 C7 1_555 1_555
C7 N1 1_555 1_555
C8 C3 1_555 1_555
C9 C2 1_555 1_555
C10 C9 1_555 1_555
C7 C8 1_555 1_555

#END
