
#######################################################################
#
#                 Cambridge Crystallographic Data Centre
#                                CCDC 
#
#######################################################################
#
# If this CIF has been generated from an entry in the Cambridge 
# Structural Database, then it will include bibliographic, chemical, 
# crystal, experimental, refinement or atomic coordinate data resulting 
# from the CCDC's data processing and validation procedures.
#
#######################################################################

data_LIHPUP
_chemical_formula_moiety         'C31 H21 I1 N4 O6'
_chemical_name_systematic        
4'-((2,4-Dinitrophenyl)hydrazono)-5-iodo-2',6'-diphenyl-3H-spiro[1-benzofuran-2,1'-cyclohex[2]en]-3-one
_symmetry_cell_setting           orthorhombic
_symmetry_space_group_name_H-M   'C 2 2 21'
_symmetry_Int_Tables_number      20
_space_group_name_Hall           'C 2n 2'
loop_
_symmetry_equiv_pos_site_id
_symmetry_equiv_pos_as_xyz
1 x,y,z
2 -x,-y,1/2+z
3 -x,y,1/2-z
4 x,-y,-z
5 1/2+x,1/2+y,z
6 1/2-x,1/2-y,1/2+z
7 1/2-x,1/2+y,1/2-z
8 1/2+x,1/2-y,-z
_cell_length_a                   11.345(2)
_cell_length_b                   22.103(4)
_cell_length_c                   23.288(5)
_cell_angle_alpha                90
_cell_angle_beta                 90
_cell_angle_gamma                90
_cell_volume                     5839.66
_cell_formula_units_Z            8
loop_
_atom_site_label
_atom_site_type_symbol
_atom_site_fract_x
_atom_site_fract_y
_atom_site_fract_z
I1 I 0.67113(5) 0.82393(3) 0.57125(3)
O1 O 0.1959(6) 0.9645(3) 0.5719(3)
O2 O 0.1418(6) 0.8067(4) 0.5917(3)
O3 O -0.6156(6) 1.2432(3) 0.5793(3)
O4 O -0.5743(7) 1.2742(4) 0.6658(4)
O5 O -0.3003(11) 1.1650(5) 0.7792(4)
O6 O -0.1654(9) 1.1083(4) 0.7391(3)
N1 N -0.2043(7) 1.0173(4) 0.5954(3)
N2 N -0.2202(8) 1.0554(4) 0.6401(4)
N3 N -0.5625(8) 1.2395(4) 0.6247(4)
N4 N -0.2609(10) 1.1370(5) 0.7376(4)
C1 C 0.3048(8) 0.9373(5) 0.5728(4)
C2 C 0.4085(9) 0.9698(4) 0.5686(5)
H1 H 0.4081 1.0127 0.5663
C3 C 0.5157(8) 0.9368(5) 0.5680(5)
H2 H 0.5889 0.9573 0.5646
C4 C 0.5124(8) 0.8727(4) 0.5726(4)
C5 C 0.4071(8) 0.8419(5) 0.5774(4)
H3 H 0.4054 0.7990 0.5804
C6 C 0.3040(7) 0.8753(4) 0.5777(4)
C7 C 0.1810(10) 0.8569(5) 0.5851(4)
C8 C 0.1082(8) 0.9154(4) 0.5842(4)
C9 C 0.0533(9) 0.9255(5) 0.6441(4)
H4 H 0.0005 0.8903 0.6524
C10 C -0.0240(8) 0.9846(5) 0.6454(4)
H5 H -0.0648 0.9876 0.6828
H6 H 0.0277 1.0205 0.6412
C11 C -0.1105(8) 0.9842(4) 0.5994(4)
C12 C -0.0882(9) 0.9469(5) 0.5473(4)
H7 H -0.1488 0.9439 0.5193
C13 C 0.0143(8) 0.9172(5) 0.5378(4)
C14 C 0.0371(9) 0.8875(5) 0.4820(4)
C15 C -0.0546(10) 0.8557(5) 0.4545(5)
H8 H -0.1281 0.8512 0.4736
C16 C -0.0399(10) 0.8307(5) 0.3999(4)
H9 H -0.1025 0.8092 0.3821
C17 C 0.0648(10) 0.8375(4) 0.3725(4)
H10 H 0.0751 0.8217 0.3349
C18 C 0.1574(11) 0.8677(5) 0.3995(4)
H11 H 0.2317 0.8710 0.3809
C19 C 0.1408(10) 0.8929(5) 0.4538(4)
H12 H 0.2038 0.9144 0.4714
C20 C 0.1481(8) 0.9280(5) 0.6914(4)
C21 C 0.1589(10) 0.8799(5) 0.7302(5)
H13 H 0.1099 0.8454 0.7255
C22 C 0.2365(11) 0.8809(6) 0.7743(6)
H14 H 0.2372 0.8483 0.8008
C23 C 0.3132(12) 0.9270(6) 0.7816(5)
H15 H 0.3681 0.9267 0.8124
C24 C 0.3097(12) 0.9769(6) 0.7415(5)
H16 H 0.3654 1.0088 0.7450
C25 C 0.2251(10) 0.9790(6) 0.6973(5)
H17 H 0.2193 1.0129 0.6724
C26 C -0.3025(8) 1.0995(4) 0.6375(4)
C27 C -0.3774(10) 1.1049(5) 0.5886(4)
H18 H -0.3691 1.0770 0.5579
C28 C -0.4633(9) 1.1504(5) 0.5848(4)
H19 H -0.5103 1.1541 0.5513
C29 C -0.4792(9) 1.1904(4) 0.6309(4)
C30 C -0.4129(9) 1.1842(5) 0.6804(5)
H20 H -0.4256 1.2106 0.7120
C31 C -0.3300(11) 1.1406(5) 0.6836(4)
H21 H -0.144(9) 1.047(4) 0.669(4)
loop_
_geom_bond_atom_site_label_1
_geom_bond_atom_site_label_2
_geom_bond_site_symmetry_1
_geom_bond_site_symmetry_2
I1 C4 1_555 1_555
O1 C1 1_555 1_555
O2 C7 1_555 1_555
O3 N3 1_555 1_555
O4 N3 1_555 1_555
O5 N4 1_555 1_555
O6 N4 1_555 1_555
N1 N2 1_555 1_555
N2 C26 1_555 1_555
N3 C29 1_555 1_555
N4 C31 1_555 1_555
C1 C2 1_555 1_555
C2 H1 1_555 1_555
C3 C2 1_555 1_555
H2 C3 1_555 1_555
C4 C3 1_555 1_555
C5 C4 1_555 1_555
H3 C5 1_555 1_555
C6 C1 1_555 1_555
C7 C6 1_555 1_555
C8 O1 1_555 1_555
C9 C8 1_555 1_555
H4 C9 1_555 1_555
C10 C9 1_555 1_555
H5 C10 1_555 1_555
H6 C10 1_555 1_555
C11 N1 1_555 1_555
C12 C11 1_555 1_555
H7 C12 1_555 1_555
C13 C8 1_555 1_555
C14 C13 1_555 1_555
C15 C14 1_555 1_555
H8 C15 1_555 1_555
C16 C15 1_555 1_555
H9 C16 1_555 1_555
C17 C16 1_555 1_555
H10 C17 1_555 1_555
C18 C17 1_555 1_555
H11 C18 1_555 1_555
C19 C14 1_555 1_555
H12 C19 1_555 1_555
C20 C9 1_555 1_555
C21 C20 1_555 1_555
H13 C21 1_555 1_555
C22 C21 1_555 1_555
H14 C22 1_555 1_555
C23 C22 1_555 1_555
H15 C23 1_555 1_555
C24 C23 1_555 1_555
H16 C24 1_555 1_555
C25 C20 1_555 1_555
H17 C25 1_555 1_555
C26 C27 1_555 1_555
C27 H18 1_555 1_555
C28 C27 1_555 1_555
H19 C28 1_555 1_555
C29 C28 1_555 1_555
C30 C29 1_555 1_555
H20 C30 1_555 1_555
C31 C26 1_555 1_555
H21 N2 1_555 1_555
C5 C6 1_555 1_555
C7 C8 1_555 1_555
C10 C11 1_555 1_555
C12 C13 1_555 1_555
C18 C19 1_555 1_555
C24 C25 1_555 1_555
C30 C31 1_555 1_555

#END
