
#######################################################################
#
#                 Cambridge Crystallographic Data Centre
#                                CCDC 
#
#######################################################################
#
# If this CIF has been generated from an entry in the Cambridge 
# Structural Database, then it will include bibliographic, chemical, 
# crystal, experimental, refinement or atomic coordinate data resulting 
# from the CCDC's data processing and validation procedures.
#
#######################################################################

data_LIHQOL
_chemical_formula_moiety         'C52 H42 O4 P4,C1 H2 Cl2,0.25(H2 O1)'
_chemical_name_systematic        
'(buta-1,3-diene-1,2,3,4-tetrayl)tetrakis[oxo(diphenyl)-\l^5^-phosphane] dichloromethane solvate hydrate'
_symmetry_cell_setting           monoclinic
_symmetry_space_group_name_H-M   'P 21/c'
_symmetry_Int_Tables_number      14
_space_group_name_Hall           '-P 2ybc'
loop_
_symmetry_equiv_pos_site_id
_symmetry_equiv_pos_as_xyz
1 x,y,z
2 -x,1/2+y,1/2-z
3 -x,-y,-z
4 x,1/2-y,1/2+z
_cell_length_a                   13.2361(3)
_cell_length_b                   32.4432(1)
_cell_length_c                   11.6045(1)
_cell_angle_alpha                90
_cell_angle_beta                 107.9607(5)
_cell_angle_gamma                90
_cell_volume                     4740.38
_exptl_crystal_colour            colorless
_exptl_crystal_description       needle
_cell_formula_units_Z            4
_exptl_crystal_recrystallization_method dichloromethane
loop_
_atom_site_label
_atom_site_type_symbol
_atom_site_fract_x
_atom_site_fract_y
_atom_site_fract_z
P1 P -0.06604(4) 0.16215(2) -0.04962(5)
P2 P 0.46601(4) 0.15808(2) 0.22462(5)
P3 P 0.11381(4) 0.14046(2) 0.26694(5)
P4 P 0.26322(4) 0.07779(2) 0.06921(5)
O1 O -0.08766(12) 0.19876(5) 0.01291(14)
O2 O 0.50948(13) 0.13921(6) 0.13553(16)
O3 O 0.18265(12) 0.10918(5) 0.34605(14)
O4 O 0.17337(14) 0.05216(5) 0.07567(18)
C1 C 0.06880(16) 0.14346(7) 0.00644(19)
H1 H 0.0969 0.1355 -0.0544
C2 C 0.32370(16) 0.15675(7) 0.18885(19)
H2 H 0.2954 0.1800 0.2145
C3 C 0.13597(15) 0.13880(6) 0.11784(18)
C4 C 0.25056(15) 0.12886(6) 0.13245(17)
C5 C -0.15638(19) 0.12031(7) -0.0543(2)
C6 C -0.1320(3) 0.07983(9) -0.0663(3)
H3 H -0.0646 0.0723 -0.0676
C7 C -0.2122(5) 0.04958(11) -0.0769(4)
H4 H -0.1979 0.0219 -0.0858
C8 C -0.3110(4) 0.06159(16) -0.0738(3)
H5 H -0.3634 0.0418 -0.0815
C9 C -0.3331(3) 0.10039(14) -0.0604(3)
H6 H -0.4000 0.1077 -0.0569
C10 C -0.2572(2) 0.13046(10) -0.0514(2)
H7 H -0.2740 0.1579 -0.0433
C11 C -0.07835(16) 0.17292(7) -0.20603(19)
C12 C -0.0438(2) 0.14624(9) -0.2802(2)
H8 H -0.0139 0.1209 -0.2508
C13 C -0.0546(3) 0.15799(11) -0.3987(2)
H9 H -0.0313 0.1405 -0.4486
C14 C -0.0993(3) 0.19507(12) -0.4423(3)
H10 H -0.1049 0.2028 -0.5212
C15 C -0.1358(3) 0.22096(10) -0.3713(3)
H11 H -0.1676 0.2458 -0.4023
C16 C -0.1253(2) 0.21004(8) -0.2532(2)
H12 H -0.1499 0.2277 -0.2047
C17 C 0.51361(16) 0.13878(7) 0.37821(19)
C18 C 0.44816(18) 0.11920(8) 0.4343(2)
H13 H 0.3755 0.1174 0.3952
C19 C 0.4912(2) 0.10243(9) 0.5486(2)
H14 H 0.4475 0.0890 0.5857
C20 C 0.5981(2) 0.10558(9) 0.6076(2)
H15 H 0.6269 0.0937 0.6837
C21 C 0.6623(2) 0.12610(10) 0.5545(2)
H16 H 0.7344 0.1289 0.5956
C22 C 0.62097(18) 0.14268(9) 0.4407(2)
H17 H 0.6652 0.1566 0.4053
C23 C 0.49350(17) 0.21287(7) 0.2377(2)
C24 C 0.4638(2) 0.23775(8) 0.3188(2)
H18 H 0.4297 0.2263 0.3702
C25 C 0.4847(3) 0.27950(9) 0.3234(3)
H19 H 0.4638 0.2962 0.3770
C26 C 0.5367(3) 0.29636(11) 0.2486(3)
H20 H 0.5514 0.3244 0.2526
C27 C 0.5665(3) 0.27215(11) 0.1689(3)
H21 H 0.6012 0.2839 0.1184
C28 C 0.5457(2) 0.23021(9) 0.1625(2)
H22 H 0.5666 0.2138 0.1082
C29 C -0.02380(16) 0.13195(7) 0.25150(19)
C30 C -0.0570(2) 0.09155(9) 0.2464(3)
H23 H -0.0098 0.0705 0.2452
C31 C -0.1599(2) 0.08195(10) 0.2431(3)
H24 H -0.1812 0.0546 0.2406
C32 C -0.2296(2) 0.11284(10) 0.2436(2)
H25 H -0.2987 0.1065 0.2411
C33 C -0.19804(19) 0.15318(10) 0.2476(2)
H26 H -0.2462 0.1741 0.2469
C34 C -0.09505(17) 0.16304(8) 0.2526(2)
H27 H -0.0738 0.1905 0.2567
C35 C 0.14909(17) 0.19229(7) 0.32175(19)
C36 C 0.2113(2) 0.19629(9) 0.4423(2)
H28 H 0.2306 0.1730 0.4910
C37 C 0.2443(3) 0.23486(11) 0.4894(3)
H29 H 0.2850 0.2376 0.5702
C38 C 0.2169(2) 0.26902(10) 0.4171(3)
H30 H 0.2397 0.2949 0.4493
C39 C 0.1562(2) 0.26564(8) 0.2976(3)
H31 H 0.1382 0.2890 0.2492
C40 C 0.12210(19) 0.22707(7) 0.2498(2)
H32 H 0.0809 0.2246 0.1692
C41 C 0.25960(18) 0.08688(7) -0.0855(2)
C42 C 0.1952(2) 0.06110(10) -0.1725(3)
H33 H 0.1572 0.0401 -0.1500
C43 C 0.1874(3) 0.06660(11) -0.2935(3)
H34 H 0.1442 0.0492 -0.3516
C44 C 0.2419(2) 0.09702(10) -0.3281(2)
H35 H 0.2359 0.1005 -0.4095
C45 C 0.3059(3) 0.12271(10) -0.2428(2)
H36 H 0.3430 0.1437 -0.2666
C46 C 0.3157(2) 0.11762(8) -0.1212(2)
H37 H 0.3601 0.1349 -0.0636
C47 C 0.38869(17) 0.05407(7) 0.1472(2)
C48 C 0.3992(2) 0.03701(9) 0.2593(2)
H38 H 0.3464 0.0411 0.2956
C49 C 0.4876(3) 0.01393(11) 0.3178(3)
H39 H 0.4944 0.0024 0.3933
C50 C 0.5656(3) 0.00797(10) 0.2641(3)
H40 H 0.6253 -0.0076 0.3037
C51 C 0.5565(2) 0.02444(9) 0.1541(3)
H41 H 0.6097 0.0201 0.1184
C52 C 0.46835(18) 0.04767(8) 0.0948(2)
H42 H 0.4624 0.0591 0.0195
C53 C 0.1558(4) 0.00885(19) 0.3491(6)
Cl1 Cl 0.0427(2) -0.01711(9) 0.2875(3)
Cl2 Cl 0.2592(4) -0.0156(2) 0.4471(4)
O5 O -0.0034(6) 0.0002(2) 0.0894(7)
Cl3? Cl 0.0394(3) 0.00397(15) 0.4330(5)
Cl4? Cl 0.103(2) -0.0368(9) 0.413(3)
Cl5? Cl 0.2339(12) 0.0092(5) 0.4559(11)
Cl6? Cl 0.2178(9) -0.0255(5) 0.4349(15)
loop_
_geom_bond_atom_site_label_1
_geom_bond_atom_site_label_2
_geom_bond_site_symmetry_1
_geom_bond_site_symmetry_2
P1 O1 1_555 1_555
P2 O2 1_555 1_555
P3 O3 1_555 1_555
P4 O4 1_555 1_555
C1 P1 1_555 1_555
H1 C1 1_555 1_555
C2 P2 1_555 1_555
H2 C2 1_555 1_555
C3 P3 1_555 1_555
C4 P4 1_555 1_555
C5 P1 1_555 1_555
C6 C5 1_555 1_555
H3 C6 1_555 1_555
C7 C6 1_555 1_555
H4 C7 1_555 1_555
C8 C7 1_555 1_555
H5 C8 1_555 1_555
C9 C8 1_555 1_555
H6 C9 1_555 1_555
C10 C5 1_555 1_555
H7 C10 1_555 1_555
C11 P1 1_555 1_555
C12 C11 1_555 1_555
H8 C12 1_555 1_555
C13 C12 1_555 1_555
H9 C13 1_555 1_555
C14 C13 1_555 1_555
H10 C14 1_555 1_555
C15 C14 1_555 1_555
H11 C15 1_555 1_555
C16 C11 1_555 1_555
H12 C16 1_555 1_555
C17 P2 1_555 1_555
C18 C17 1_555 1_555
H13 C18 1_555 1_555
C19 C18 1_555 1_555
H14 C19 1_555 1_555
C20 C19 1_555 1_555
H15 C20 1_555 1_555
C21 C20 1_555 1_555
H16 C21 1_555 1_555
C22 C17 1_555 1_555
H17 C22 1_555 1_555
C23 P2 1_555 1_555
C24 C23 1_555 1_555
H18 C24 1_555 1_555
C25 C24 1_555 1_555
H19 C25 1_555 1_555
C26 C25 1_555 1_555
H20 C26 1_555 1_555
C27 C26 1_555 1_555
H21 C27 1_555 1_555
C28 C23 1_555 1_555
H22 C28 1_555 1_555
C29 P3 1_555 1_555
C30 C29 1_555 1_555
H23 C30 1_555 1_555
C31 C30 1_555 1_555
H24 C31 1_555 1_555
C32 C31 1_555 1_555
H25 C32 1_555 1_555
C33 C32 1_555 1_555
H26 C33 1_555 1_555
C34 C29 1_555 1_555
H27 C34 1_555 1_555
C35 P3 1_555 1_555
C36 C35 1_555 1_555
H28 C36 1_555 1_555
C37 C36 1_555 1_555
H29 C37 1_555 1_555
C38 C37 1_555 1_555
H30 C38 1_555 1_555
C39 C38 1_555 1_555
H31 C39 1_555 1_555
C40 C35 1_555 1_555
H32 C40 1_555 1_555
C41 P4 1_555 1_555
C42 C41 1_555 1_555
H33 C42 1_555 1_555
C43 C42 1_555 1_555
H34 C43 1_555 1_555
C44 C43 1_555 1_555
H35 C44 1_555 1_555
C45 C44 1_555 1_555
H36 C45 1_555 1_555
C46 C41 1_555 1_555
H37 C46 1_555 1_555
C47 P4 1_555 1_555
C48 C47 1_555 1_555
H38 C48 1_555 1_555
C49 C48 1_555 1_555
H39 C49 1_555 1_555
C50 C49 1_555 1_555
H40 C50 1_555 1_555
C51 C50 1_555 1_555
H41 C51 1_555 1_555
C52 C47 1_555 1_555
H42 C52 1_555 1_555
C53 Cl1 1_555 1_555
Cl2 C53 1_555 1_555
C1 C3 1_555 1_555
C2 C4 1_555 1_555
C3 C4 1_555 1_555
C9 C10 1_555 1_555
C15 C16 1_555 1_555
C21 C22 1_555 1_555
C27 C28 1_555 1_555
C33 C34 1_555 1_555
C39 C40 1_555 1_555
C45 C46 1_555 1_555
C51 C52 1_555 1_555

#END
