
#######################################################################
#
#                 Cambridge Crystallographic Data Centre
#                                CCDC 
#
#######################################################################
#
# If this CIF has been generated from an entry in the Cambridge 
# Structural Database, then it will include bibliographic, chemical, 
# crystal, experimental, refinement or atomic coordinate data resulting 
# from the CCDC's data processing and validation procedures.
#
#######################################################################

data_LIHRIG
_chemical_formula_moiety         'C26 H24 Cl2 N2 O3'
_chemical_name_systematic        
't-butyl [1-benzyl-6-chloro-3-(4-chlorophenyl)-2-oxo-2,3-dihydro-1H-indol-3-yl]carbamate'
_symmetry_cell_setting           orthorhombic
_symmetry_space_group_name_H-M   'P 21 21 21'
_symmetry_Int_Tables_number      19
_space_group_name_Hall           'P 2ac 2ab'
loop_
_symmetry_equiv_pos_site_id
_symmetry_equiv_pos_as_xyz
1 x,y,z
2 1/2-x,-y,1/2+z
3 -x,1/2+y,1/2-z
4 1/2+x,1/2-y,-z
_cell_length_a                   10.1448(13)
_cell_length_b                   11.1837(14)
_cell_length_c                   21.438(3)
_cell_angle_alpha                90
_cell_angle_beta                 90
_cell_angle_gamma                90
_cell_volume                     2432.28
_exptl_crystal_colour            colorless
_exptl_crystal_description       block
_cell_formula_units_Z            4
loop_
_atom_site_label
_atom_site_type_symbol
_atom_site_fract_x
_atom_site_fract_y
_atom_site_fract_z
Cl1 Cl 0.89964(10) -0.04253(8) 0.74978(4)
Cl2 Cl 0.55506(13) 0.79457(8) 0.76564(5)
O1 O 0.8347(2) 0.4349(2) 1.06311(9)
N1 N 0.7954(2) 0.3751(2) 0.96713(11)
C1 C 0.2805(3) 0.5017(2) 0.94158(14)
C2 C 0.5584(3) 0.4992(2) 0.86733(12)
C3 C 0.5659(3) 0.3373(2) 0.93241(12)
N2 N 0.4857(2) 0.4103(2) 0.89788(11)
C4 C 0.7116(2) 0.3651(2) 0.91269(12)
C5 C 0.7601(2) 0.2627(2) 0.87101(12)
C6 C 0.3418(3) 0.4053(3) 0.90150(16)
O2 O 0.6556(2) 0.5066(2) 1.01227(11)
C7 C 0.6932(3) 0.4812(2) 0.87706(12)
O3 O 0.5312(2) 0.26360(18) 0.97009(10)
C8 C 0.3508(3) 0.5768(3) 0.97966(15)
C9 C 0.7837(3) 0.5617(3) 0.85500(15)
C10 C 0.6083(4) 0.6740(3) 0.81095(14)
C11 C 0.7393(4) 0.6600(3) 0.82095(16)
C12 C 0.8445(3) 0.0753(3) 0.79655(15)
C13 C 0.5134(3) 0.5960(3) 0.83327(14)
C14 C 0.1428(3) 0.5116(4) 0.94081(19)
C15 C 0.7528(3) 0.4456(3) 1.01503(13)
C16 C 0.8042(4) 0.4899(3) 1.12391(15)
C17 C 0.8382(4) 0.1867(3) 0.77236(16)
C18 C 0.7959(4) 0.2811(3) 0.80955(15)
C19 C 0.7678(4) 0.1477(3) 0.89390(16)
C20 C 0.9245(6) 0.4549(5) 1.1613(2)
C21 C 0.0808(3) 0.5961(4) 0.9774(2)
C22 C 0.2866(4) 0.6613(3) 1.01613(17)
C23 C 0.8093(4) 0.0542(3) 0.85708(18)
C24 C 0.7954(6) 0.6236(4) 1.1178(2)
C25 C 0.1523(4) 0.6723(4) 1.0138(2)
C26 C 0.6851(7) 0.4266(7) 1.1494(3)
H1 H 0.312(4) 0.412(3) 0.8584(18)
H2 H 0.324(4) 0.325(4) 0.9205(18)
H3 H 0.445(3) 0.562(3) 0.9832(16)
H4 H 0.875(4) 0.542(3) 0.8579(16)
H5 H 0.809(4) 0.717(3) 0.8066(17)
H6 H 0.422(4) 0.613(3) 0.8289(18)
H7 H 0.100(6) 0.461(5) 0.909(3)
H8 H 0.868(5) 0.208(4) 0.727(2)
H9 H 0.799(4) 0.356(3) 0.7904(18)
H10 H 0.741(5) 0.136(5) 0.936(3)
H11 H 0.992(5) 0.500(5) 1.144(2)
H12 H 0.914(4) 0.486(4) 1.204(2)
H13 H 0.926(5) 0.379(4) 1.161(2)
H14 H -0.019(5) 0.605(5) 0.975(2)
H15 H 0.331(4) 0.708(3) 1.0348(17)
H16 H 0.819(6) -0.026(5) 0.873(3)
H17 H 0.709(5) 0.640(4) 1.104(2)
H18 H 0.803(5) 0.658(4) 1.158(2)
H19 H 0.881(6) 0.665(5) 1.098(3)
H20 H 0.110(5) 0.729(5) 1.036(2)
H21 H 0.693(8) 0.332(8) 1.144(4)
H22 H 0.664(7) 0.456(7) 1.185(4)
H23 H 0.609(6) 0.467(5) 1.128(3)
loop_
_geom_bond_atom_site_label_1
_geom_bond_atom_site_label_2
_geom_bond_site_symmetry_1
_geom_bond_site_symmetry_2
Cl1 C12 1_555 1_555
Cl2 C10 1_555 1_555
O1 C15 1_555 1_555
N1 C4 1_555 1_555
C1 C6 1_555 1_555
C2 N2 1_555 1_555
C3 N2 1_555 1_555
N2 C6 1_555 1_555
C4 C3 1_555 1_555
C5 C4 1_555 1_555
C6 H1 1_555 1_555
O2 C15 1_555 1_555
C7 C2 1_555 1_555
O3 C3 1_555 1_555
C8 C1 1_555 1_555
C9 C7 1_555 1_555
C10 C11 1_555 1_555
C11 C9 1_555 1_555
C12 C17 1_555 1_555
C13 C2 1_555 1_555
C14 C1 1_555 1_555
C15 N1 1_555 1_555
C16 O1 1_555 1_555
C17 C18 1_555 1_555
C18 C5 1_555 1_555
C19 C5 1_555 1_555
C20 C16 1_555 1_555
C21 C14 1_555 1_555
C22 C8 1_555 1_555
C23 C12 1_555 1_555
C24 C16 1_555 1_555
C25 C21 1_555 1_555
C26 C16 1_555 1_555
H2 C6 1_555 1_555
H3 C8 1_555 1_555
H4 C9 1_555 1_555
H5 C11 1_555 1_555
H6 C13 1_555 1_555
H7 C14 1_555 1_555
H8 C17 1_555 1_555
H9 C18 1_555 1_555
H10 C19 1_555 1_555
H11 C20 1_555 1_555
H12 C20 1_555 1_555
H13 C20 1_555 1_555
H14 C21 1_555 1_555
H15 C22 1_555 1_555
H16 C23 1_555 1_555
H17 C24 1_555 1_555
H18 C24 1_555 1_555
H19 C24 1_555 1_555
H20 C25 1_555 1_555
H21 C26 1_555 1_555
H22 C26 1_555 1_555
H23 C26 1_555 1_555
C4 C7 1_555 1_555
C10 C13 1_555 1_555
C19 C23 1_555 1_555
C22 C25 1_555 1_555

#END
