
#######################################################################
#
#                 Cambridge Crystallographic Data Centre
#                                CCDC 
#
#######################################################################
#
# If this CIF has been generated from an entry in the Cambridge 
# Structural Database, then it will include bibliographic, chemical, 
# crystal, experimental, refinement or atomic coordinate data resulting 
# from the CCDC's data processing and validation procedures.
#
#######################################################################

data_LIHTOM
_chemical_formula_moiety         'C32 H34'
_chemical_name_systematic        4,4'''-Di-t-butyl-p-quaterphenyl
_symmetry_cell_setting           monoclinic
_symmetry_space_group_name_H-M   'C c'
_symmetry_Int_Tables_number      9
_space_group_name_Hall           'C -2yc'
loop_
_symmetry_equiv_pos_site_id
_symmetry_equiv_pos_as_xyz
1 x,y,z
2 x,-y,1/2+z
3 1/2+x,1/2+y,z
4 1/2+x,1/2-y,1/2+z
_cell_length_a                   11.7185(2)
_cell_length_b                   11.7394(2)
_cell_length_c                   34.3511(5)
_cell_angle_alpha                90
_cell_angle_beta                 92.9890(10)
_cell_angle_gamma                90
_cell_volume                     4719.19
_exptl_crystal_colour            colorless
_exptl_crystal_description       plate
_cell_formula_units_Z            8
loop_
_atom_site_label
_atom_site_type_symbol
_atom_site_fract_x
_atom_site_fract_y
_atom_site_fract_z
C1 C -0.55407(17) 1.28483(17) 0.56082(6)
C2 C -0.6414(2) 1.37075(19) 0.54398(7)
H1 H -0.6026 1.4274 0.5284
H2 H -0.6784 1.4090 0.5653
H3 H -0.6992 1.3309 0.5274
C3 C -0.46796(18) 1.34825(18) 0.58820(6)
H4 H -0.4229 1.4008 0.5730
H5 H -0.4169 1.2931 0.6016
H6 H -0.5091 1.3913 0.6075
C4 C -0.61601(19) 1.19560(19) 0.58458(7)
H7 H -0.6544 1.2334 0.6057
H8 H -0.5604 1.1405 0.5956
H9 H -0.6727 1.1558 0.5676
C5 C 0.24918(17) 0.46049(18) 0.18936(6)
C6 C 0.33698(19) 0.3766(2) 0.20741(7)
H10 H 0.3972 0.4189 0.2221
H11 H 0.3707 0.3326 0.1867
H12 H 0.2992 0.3248 0.2250
C7 C 0.16330(19) 0.39266(18) 0.16331(7)
H13 H 0.1173 0.3440 0.1796
H14 H 0.2046 0.3451 0.1453
H15 H 0.1131 0.4455 0.1484
C8 C 0.30932(19) 0.54601(19) 0.16374(7)
H16 H 0.3675 0.5874 0.1796
H17 H 0.2532 0.6001 0.1524
H18 H 0.3458 0.5053 0.1428
C9 C -0.49052(16) 1.22419(16) 0.52876(6)
C10 C -0.39404(18) 1.15994(19) 0.53849(6)
H19 H -0.3657(19) 1.1539(19) 0.5662(7)
C11 C -0.33362(18) 1.10388(18) 0.51081(6)
H20 H -0.267(2) 1.060(2) 0.5193(7)
C12 C -0.36751(17) 1.10886(16) 0.47127(6)
C13 C -0.46573(18) 1.17148(19) 0.46119(6)
H21 H -0.4936(19) 1.175(2) 0.4341(7)
C14 C -0.52591(17) 1.22812(18) 0.48921(6)
H22 H -0.595(2) 1.269(2) 0.4811(7)
C15 C -0.30229(17) 1.04709(17) 0.44204(6)
C16 C -0.18429(17) 1.02933(17) 0.44749(5)
H23 H -0.144(2) 1.063(2) 0.4703(7)
C17 C -0.12448(17) 0.96680(17) 0.42123(6)
H24 H -0.041(2) 0.9515(19) 0.4264(7)
C18 C -0.17805(17) 0.91915(17) 0.38757(6)
C19 C -0.29550(18) 0.93953(19) 0.38176(6)
H25 H -0.338(2) 0.9088(19) 0.3587(7)
C20 C -0.35556(18) 1.00126(19) 0.40827(6)
H26 H -0.437(2) 1.011(2) 0.4043(7)
C21 C -0.11373(18) 0.85052(17) 0.35956(6)
C22 C 0.00520(17) 0.84396(18) 0.36205(6)
H27 H 0.052(2) 0.887(2) 0.3820(7)
C23 C 0.06493(17) 0.77989(18) 0.33610(6)
H28 H 0.149(2) 0.777(2) 0.3376(8)
C24 C 0.00844(17) 0.71977(16) 0.30578(6)
C25 C -0.11080(17) 0.72616(16) 0.30316(6)
H29 H -0.1538(19) 0.6846(19) 0.2832(6)
C26 C -0.17048(17) 0.78959(16) 0.32939(6)
H30 H -0.252(2) 0.7924(19) 0.3273(6)
C27 C 0.07158(18) 0.65331(17) 0.27689(6)
C28 C 0.17683(19) 0.6032(2) 0.28608(6)
H31 H 0.212(2) 0.613(2) 0.3115(8)
C29 C 0.23372(18) 0.54073(19) 0.25875(6)
H32 H 0.307(2) 0.506(2) 0.2670(8)
C30 C 0.18769(16) 0.52603(17) 0.22073(6)
C31 C 0.08373(19) 0.5783(2) 0.21168(6)
H33 H 0.046(2) 0.572(2) 0.1865(8)
C32 C 0.02617(19) 0.6399(2) 0.23904(6)
H34 H -0.048(2) 0.672(2) 0.2302(7)
C33 C -0.54146(17) 1.80668(17) 0.56005(6)
C34 C -0.6310(2) 1.8891(2) 0.54183(7)
H35 H -0.6723 1.9256 0.5625
H36 H -0.6850 1.8467 0.5246
H37 H -0.5928 1.9474 0.5268
C35 C -0.45238(19) 1.87415(19) 0.58452(7)
H38 H -0.3954 1.8217 0.5963
H39 H -0.4900 1.9154 0.6051
H40 H -0.4146 1.9287 0.5678
C36 C -0.60289(18) 1.72584(18) 0.58736(6)
H41 H -0.5462 1.6804 0.6025
H42 H -0.6536 1.6751 0.5718
H43 H -0.6480 1.7706 0.6051
C37 C 0.22686(17) 0.94842(17) 0.18837(6)
C38 C 0.3160(2) 0.86365(19) 0.20516(6)
H44 H 0.3522 0.8247 0.1838
H45 H 0.2786 0.8074 0.2213
H46 H 0.3743 0.9046 0.2211
C39 C 0.13370(18) 0.88258(19) 0.16455(7)
H47 H 0.1680 0.8431 0.1429
H48 H 0.0754 0.9360 0.1542
H49 H 0.0984 0.8267 0.1814
C40 C 0.28605(18) 1.02980(18) 0.16108(6)
H50 H 0.3266 0.9857 0.1419
H51 H 0.3407 1.0774 0.1763
H52 H 0.2288 1.0785 0.1475
C41 C -0.48100(16) 1.74011(17) 0.52882(6)
C42 C -0.4289(2) 1.63662(19) 0.53764(6)
H53 H -0.434(2) 1.604(2) 0.5644(8)
C43 C -0.3710(2) 1.57553(19) 0.51049(6)
H54 H -0.336(2) 1.505(2) 0.5176(7)
C44 C -0.36168(17) 1.61550(17) 0.47248(6)
C45 C -0.4123(2) 1.72006(18) 0.46364(6)
H55 H -0.405(2) 1.754(2) 0.4378(8)
C46 C -0.47062(19) 1.78068(18) 0.49092(6)
H56 H -0.507(2) 1.853(2) 0.4836(8)
C47 C -0.29969(16) 1.54810(18) 0.44369(6)
C48 C -0.29298(17) 1.42936(18) 0.44620(6)
H57 H -0.334(2) 1.3901(19) 0.4658(7)
C49 C -0.23314(17) 1.36577(17) 0.42018(6)
H58 H -0.233(2) 1.281(2) 0.4236(7)
C50 C -0.17620(16) 1.41762(18) 0.38983(6)
C51 C -0.18377(18) 1.53631(18) 0.38747(6)
H59 H -0.146(2) 1.576(2) 0.3668(7)
C52 C -0.24386(18) 1.59980(17) 0.41328(6)
H60 H -0.247(2) 1.684(2) 0.4114(7)
C53 C -0.11189(17) 1.34897(18) 0.36171(6)
C54 C -0.09070(19) 1.23307(19) 0.36775(6)
H61 H -0.120(2) 1.195(2) 0.3914(8)
C55 C -0.0333(2) 1.16861(18) 0.34128(6)
H62 H -0.022(2) 1.089(2) 0.3461(7)
C56 C 0.00669(16) 1.21689(17) 0.30739(6)
C57 C -0.01192(16) 1.33326(17) 0.30179(6)
H63 H 0.0198(19) 1.3725(19) 0.2790(7)
C58 C -0.07033(17) 1.39733(17) 0.32819(6)
H64 H -0.0805(19) 1.476(2) 0.3224(6)
C59 C 0.06431(17) 1.14692(17) 0.27802(6)
C60 C 0.12934(18) 1.05101(18) 0.28807(6)
H65 H 0.142(2) 1.032(2) 0.3161(7)
C61 C 0.18129(18) 0.98716(18) 0.26011(6)
H66 H 0.232(2) 0.920(2) 0.2683(7)
C62 C 0.17136(16) 1.01592(17) 0.22060(6)
C63 C 0.10413(18) 1.11039(18) 0.21078(6)
H67 H 0.0938(19) 1.1330(18) 0.1838(7)
C64 C 0.05215(18) 1.17505(18) 0.23866(6)
H68 H 0.007(2) 1.243(2) 0.2310(7)
loop_
_geom_bond_atom_site_label_1
_geom_bond_atom_site_label_2
_geom_bond_site_symmetry_1
_geom_bond_site_symmetry_2
C1 C2 1_555 1_555
C2 H1 1_555 1_555
H2 C2 1_555 1_555
H3 C2 1_555 1_555
C3 C1 1_555 1_555
H4 C3 1_555 1_555
H5 C3 1_555 1_555
H6 C3 1_555 1_555
C4 C1 1_555 1_555
H7 C4 1_555 1_555
H8 C4 1_555 1_555
H9 C4 1_555 1_555
C5 C6 1_555 1_555
C6 H10 1_555 1_555
H11 C6 1_555 1_555
H12 C6 1_555 1_555
C7 C5 1_555 1_555
H13 C7 1_555 1_555
H14 C7 1_555 1_555
H15 C7 1_555 1_555
C8 C5 1_555 1_555
H16 C8 1_555 1_555
H17 C8 1_555 1_555
H18 C8 1_555 1_555
C9 C1 1_555 1_555
C10 C9 1_555 1_555
H19 C10 1_555 1_555
C11 C10 1_555 1_555
H20 C11 1_555 1_555
C12 C11 1_555 1_555
C13 C12 1_555 1_555
H21 C13 1_555 1_555
C14 C9 1_555 1_555
H22 C14 1_555 1_555
C15 C12 1_555 1_555
C16 C15 1_555 1_555
H23 C16 1_555 1_555
C17 C16 1_555 1_555
H24 C17 1_555 1_555
C18 C17 1_555 1_555
C19 C18 1_555 1_555
H25 C19 1_555 1_555
C20 C15 1_555 1_555
H26 C20 1_555 1_555
C21 C18 1_555 1_555
C22 C21 1_555 1_555
H27 C22 1_555 1_555
C23 C22 1_555 1_555
H28 C23 1_555 1_555
C24 C23 1_555 1_555
C25 C24 1_555 1_555
H29 C25 1_555 1_555
C26 C21 1_555 1_555
H30 C26 1_555 1_555
C27 C24 1_555 1_555
C28 C27 1_555 1_555
H31 C28 1_555 1_555
C29 C28 1_555 1_555
H32 C29 1_555 1_555
C30 C5 1_555 1_555
C31 C30 1_555 1_555
H33 C31 1_555 1_555
C32 C27 1_555 1_555
H34 C32 1_555 1_555
C33 C34 1_555 1_555
C34 H35 1_555 1_555
H36 C34 1_555 1_555
H37 C34 1_555 1_555
C35 C33 1_555 1_555
H38 C35 1_555 1_555
H39 C35 1_555 1_555
H40 C35 1_555 1_555
C36 C33 1_555 1_555
H41 C36 1_555 1_555
H42 C36 1_555 1_555
H43 C36 1_555 1_555
C37 C38 1_555 1_555
C38 H44 1_555 1_555
H45 C38 1_555 1_555
H46 C38 1_555 1_555
C39 C37 1_555 1_555
H47 C39 1_555 1_555
H48 C39 1_555 1_555
H49 C39 1_555 1_555
C40 C37 1_555 1_555
H50 C40 1_555 1_555
H51 C40 1_555 1_555
H52 C40 1_555 1_555
C41 C33 1_555 1_555
C42 C41 1_555 1_555
H53 C42 1_555 1_555
C43 C42 1_555 1_555
H54 C43 1_555 1_555
C44 C43 1_555 1_555
C45 C44 1_555 1_555
H55 C45 1_555 1_555
C46 C41 1_555 1_555
H56 C46 1_555 1_555
C47 C44 1_555 1_555
C48 C47 1_555 1_555
H57 C48 1_555 1_555
C49 C48 1_555 1_555
H58 C49 1_555 1_555
C50 C49 1_555 1_555
C51 C50 1_555 1_555
H59 C51 1_555 1_555
C52 C47 1_555 1_555
H60 C52 1_555 1_555
C53 C50 1_555 1_555
C54 C53 1_555 1_555
H61 C54 1_555 1_555
C55 C54 1_555 1_555
H62 C55 1_555 1_555
C56 C55 1_555 1_555
C57 C56 1_555 1_555
H63 C57 1_555 1_555
C58 C53 1_555 1_555
H64 C58 1_555 1_555
C59 C56 1_555 1_555
C60 C59 1_555 1_555
H65 C60 1_555 1_555
C61 C60 1_555 1_555
H66 C61 1_555 1_555
C62 C37 1_555 1_555
C63 C62 1_555 1_555
H67 C63 1_555 1_555
C64 C59 1_555 1_555
H68 C64 1_555 1_555
C13 C14 1_555 1_555
C19 C20 1_555 1_555
C25 C26 1_555 1_555
C29 C30 1_555 1_555
C31 C32 1_555 1_555
C45 C46 1_555 1_555
C51 C52 1_555 1_555
C57 C58 1_555 1_555
C61 C62 1_555 1_555
C63 C64 1_555 1_555

#END
