
#######################################################################
#
#                 Cambridge Crystallographic Data Centre
#                                CCDC 
#
#######################################################################
#
# If this CIF has been generated from an entry in the Cambridge 
# Structural Database, then it will include bibliographic, chemical, 
# crystal, experimental, refinement or atomic coordinate data resulting 
# from the CCDC's data processing and validation procedures.
#
#######################################################################

data_LIHZUY
_chemical_formula_moiety         'C66 H6 O4,C1 S2'
_chemical_name_systematic        
'1,2-(1-(Methoxycarbonyl)-2-methoxy-3-oxopropen-1,3-diyl)-C60fullerene carbon disulfide solvate'
_symmetry_cell_setting           triclinic
_symmetry_space_group_name_H-M   'P -1'
_symmetry_Int_Tables_number      2
_space_group_name_Hall           '-P 1'
loop_
_symmetry_equiv_pos_site_id
_symmetry_equiv_pos_as_xyz
1 x,y,z
2 -x,-y,-z
_cell_length_a                   9.9162(2)
_cell_length_b                   12.3631(3)
_cell_length_c                   15.3130(4)
_cell_angle_alpha                89.3860(10)
_cell_angle_beta                 84.2830(10)
_cell_angle_gamma                69.6090(10)
_cell_volume                     1750.33
_exptl_crystal_colour            black
_exptl_crystal_description       plate
_cell_formula_units_Z            2
loop_
_atom_site_label
_atom_site_type_symbol
_atom_site_fract_x
_atom_site_fract_y
_atom_site_fract_z
C1 C 0.3579(3) 0.2940(2) 0.92751(16)
C2 C 0.2725(3) 0.3965(2) 0.87468(16)
C3 C 0.3489(3) 0.3931(2) 0.78927(17)
C4 C 0.4652(3) 0.2830(2) 0.77673(17)
C5 C 0.4616(2) 0.2169(2) 0.85479(16)
C6 C 0.4929(2) 0.1007(2) 0.84720(16)
C7 C 0.4039(3) 0.0450(2) 0.90113(17)
C8 C 0.2914(3) 0.1096(2) 0.95962(16)
C9 C 0.2646(3) 0.2358(2) 0.98758(16)
C10 C 0.1001(3) 0.2899(2) 0.97993(15)
C11 C 0.0372(3) 0.3923(2) 0.94032(16)
C12 C 0.1267(3) 0.4471(2) 0.88681(16)
C13 C 0.0464(3) 0.5010(2) 0.81315(17)
C14 C 0.1203(3) 0.5013(2) 0.73113(17)
C15 C 0.2753(3) 0.4461(2) 0.71943(17)
C16 C 0.3151(3) 0.3884(2) 0.63240(16)
C17 C 0.4259(3) 0.2833(2) 0.62057(16)
C18 C 0.5044(3) 0.2280(2) 0.69396(16)
C19 C 0.5371(3) 0.1066(2) 0.68670(17)
C20 C 0.5300(3) 0.0441(2) 0.76187(17)
C21 C 0.4657(3) -0.0454(2) 0.76175(18)
C22 C 0.3885(3) -0.0445(2) 0.84675(17)
C23 C 0.2590(3) -0.0660(2) 0.85361(17)
C24 C 0.1398(3) 0.0034(2) 0.91355(16)
C25 C 0.1562(3) 0.0908(2) 0.96395(15)
C26 C 0.0393(3) 0.2000(2) 0.97635(15)
C27 C -0.0885(3) 0.2187(3) 0.93851(16)
C28 C -0.1570(3) 0.3289(3) 0.89853(17)
C29 C -0.0937(3) 0.4128(2) 0.89942(17)
C30 C -0.0882(3) 0.4792(2) 0.82137(18)
C31 C -0.1449(3) 0.4593(2) 0.74639(17)
C32 C -0.0677(3) 0.4587(2) 0.66033(16)
C33 C 0.0627(3) 0.4786(2) 0.65242(17)
C34 C 0.1824(3) 0.4090(2) 0.59147(16)
C35 C 0.1669(3) 0.3225(2) 0.54051(15)
C36 C 0.2840(3) 0.2116(2) 0.52836(15)
C37 C 0.4107(3) 0.1928(3) 0.56743(16)
C38 C 0.4794(3) 0.0823(3) 0.60856(16)
C39 C 0.4181(3) -0.0026(2) 0.60829(17)
C40 C 0.4118(3) -0.0685(2) 0.68671(18)
C41 C 0.2780(3) -0.0908(2) 0.69365(18)
C42 C 0.2025(3) -0.0892(2) 0.77479(18)
C43 C 0.0465(3) -0.0341(2) 0.78710(18)
C44 C 0.0066(3) 0.0239(2) 0.87351(17)
C45 C -0.1041(3) 0.1278(3) 0.88569(16)
C46 C -0.1831(3) 0.1835(3) 0.81206(17)
C47 C -0.2154(3) 0.3055(3) 0.82000(17)
C48 C -0.2098(3) 0.3694(2) 0.74557(17)
C49 C -0.1714(2) 0.3130(2) 0.65943(16)
C50 C -0.0837(3) 0.3684(2) 0.60718(16)
C51 C 0.0306(3) 0.3018(2) 0.54838(16)
C52 C 0.0628(3) 0.1781(2) 0.54075(16)
C53 C 0.2213(3) 0.1219(2) 0.52823(15)
C54 C 0.2859(3) 0.0171(2) 0.56757(17)
C55 C 0.1986(3) -0.0368(2) 0.61993(18)
C56 C 0.0492(3) 0.0154(2) 0.63176(17)
C57 C -0.0290(3) 0.0174(2) 0.71764(18)
C58 C -0.1456(3) 0.1275(2) 0.73046(18)
C59 C -0.1394(3) 0.1946(2) 0.65176(17)
C60 C -0.0199(3) 0.1252(2) 0.59118(17)
C61 C 0.4451(3) 0.3324(2) 0.99171(16)
O1 O 0.5311(2) 0.37834(17) 0.96892(13)
C62 C 0.4025(3) 0.3028(2) 1.08217(16)
O2 O 0.4551(2) 0.32310(17) 1.15430(12)
C63 C 0.5653(11) 0.3759(9) 1.1498(8)
H1 H 0.6494 0.3294 1.1106
H2 H 0.5943 0.3801 1.2086
H3 H 0.5264 0.4539 1.1271
C65 C 0.3031(3) 0.2510(2) 1.08016(16)
C66 C 0.2320(3) 0.2070(2) 1.15547(15)
O3 O 0.1850(11) 0.1313(8) 1.1488(3)
O4 O 0.2323(8) 0.2595(6) 1.2326(3)
C67 C 0.1640(16) 0.2176(13) 1.3082(5)
H7 H 0.0613 0.2353 1.3013
H8 H 0.1732 0.2554 1.3620
H9 H 0.2116 0.1339 1.3119
S1 S 0.4224(7) 0.4019(11) 0.3852(9)
C69 C 0.576(3) 0.362(7) 0.414(4)
S2 S 0.7311(10) 0.3244(4) 0.4406(6)
C64? C 0.590(4) 0.353(5) 1.130(3)
H4? H 0.6280 0.3666 1.1841
H5? H 0.5657 0.4222 1.0951
H6? H 0.6628 0.2883 1.0964
O5? O 0.141(2) 0.166(2) 1.1501(12)
O6? O 0.261(3) 0.247(3) 1.2308(11)
C68? C 0.176(7) 0.229(6) 1.3100(18)
H10? H 0.1987 0.2656 1.3605
H11? H 0.2008 0.1464 1.3195
H12? H 0.0730 0.2643 1.3030
S3? S 0.4207(14) 0.3881(12) 0.3699(11)
C70? C 0.564(6) 0.364(14) 0.410(7)
S4? S 0.705(2) 0.3329(13) 0.4545(13)
loop_
_geom_bond_atom_site_label_1
_geom_bond_atom_site_label_2
_geom_bond_site_symmetry_1
_geom_bond_site_symmetry_2
C1 C2 1_555 1_555
C2 C3 1_555 1_555
C3 C4 1_555 1_555
C4 C5 1_555 1_555
C5 C1 1_555 1_555
C6 C5 1_555 1_555
C7 C6 1_555 1_555
C8 C7 1_555 1_555
C9 C1 1_555 1_555
C10 C9 1_555 1_555
C11 C10 1_555 1_555
C12 C2 1_555 1_555
C13 C12 1_555 1_555
C14 C13 1_555 1_555
C15 C3 1_555 1_555
C16 C15 1_555 1_555
C17 C16 1_555 1_555
C18 C4 1_555 1_555
C19 C18 1_555 1_555
C20 C6 1_555 1_555
C21 C20 1_555 1_555
C22 C7 1_555 1_555
C23 C22 1_555 1_555
C24 C23 1_555 1_555
C25 C8 1_555 1_555
C26 C10 1_555 1_555
C27 C26 1_555 1_555
C28 C27 1_555 1_555
C29 C11 1_555 1_555
C30 C13 1_555 1_555
C31 C30 1_555 1_555
C32 C31 1_555 1_555
C33 C14 1_555 1_555
C34 C16 1_555 1_555
C35 C34 1_555 1_555
C36 C35 1_555 1_555
C37 C17 1_555 1_555
C38 C19 1_555 1_555
C39 C38 1_555 1_555
C40 C21 1_555 1_555
C41 C40 1_555 1_555
C42 C23 1_555 1_555
C43 C42 1_555 1_555
C44 C24 1_555 1_555
C45 C27 1_555 1_555
C46 C45 1_555 1_555
C47 C28 1_555 1_555
C48 C31 1_555 1_555
C49 C48 1_555 1_555
C50 C32 1_555 1_555
C51 C35 1_555 1_555
C52 C51 1_555 1_555
C53 C36 1_555 1_555
C54 C39 1_555 1_555
C55 C41 1_555 1_555
C56 C55 1_555 1_555
C57 C43 1_555 1_555
C58 C46 1_555 1_555
C59 C49 1_555 1_555
C60 C52 1_555 1_555
C61 C1 1_555 1_555
O1 C61 1_555 1_555
C62 C61 1_555 1_555
O2 C62 1_555 1_555
C63 O2 1_555 1_555
H1 C63 1_555 1_555
H2 C63 1_555 1_555
H3 C63 1_555 1_555
C65 C9 1_555 1_555
C66 C65 1_555 1_555
O3 C66 1_555 1_555
O4 C66 1_555 1_555
C67 O4 1_555 1_555
H7 C67 1_555 1_555
H8 C67 1_555 1_555
H9 C67 1_555 1_555
S1 C69 1_555 1_555
C69 S2 1_555 1_555
C8 C9 1_555 1_555
C11 C12 1_555 1_555
C14 C15 1_555 1_555
C17 C18 1_555 1_555
C19 C20 1_555 1_555
C21 C22 1_555 1_555
C24 C25 1_555 1_555
C25 C26 1_555 1_555
C28 C29 1_555 1_555
C29 C30 1_555 1_555
C32 C33 1_555 1_555
C33 C34 1_555 1_555
C36 C37 1_555 1_555
C37 C38 1_555 1_555
C39 C40 1_555 1_555
C41 C42 1_555 1_555
C43 C44 1_555 1_555
C44 C45 1_555 1_555
C46 C47 1_555 1_555
C47 C48 1_555 1_555
C49 C50 1_555 1_555
C50 C51 1_555 1_555
C52 C53 1_555 1_555
C53 C54 1_555 1_555
C54 C55 1_555 1_555
C56 C57 1_555 1_555
C56 C60 1_555 1_555
C57 C58 1_555 1_555
C58 C59 1_555 1_555
C59 C60 1_555 1_555
C62 C65 1_555 1_555

#END
