
#######################################################################
#
#                 Cambridge Crystallographic Data Centre
#                                CCDC 
#
#######################################################################
#
# If this CIF has been generated from an entry in the Cambridge 
# Structural Database, then it will include bibliographic, chemical, 
# crystal, experimental, refinement or atomic coordinate data resulting 
# from the CCDC's data processing and validation procedures.
#
#######################################################################

data_LIJFIW
_chemical_formula_moiety         'C15 H9 F4 N1'
_chemical_name_systematic        
8-fluoro-10-methyl-6-(trifluoromethyl)phenanthridine
_symmetry_cell_setting           monoclinic
_symmetry_space_group_name_H-M   'P 21/c'
_symmetry_Int_Tables_number      14
_space_group_name_Hall           '-P 2ybc'
loop_
_symmetry_equiv_pos_site_id
_symmetry_equiv_pos_as_xyz
1 x,y,z
2 -x,1/2+y,1/2-z
3 -x,-y,-z
4 x,1/2-y,1/2+z
_cell_length_a                   8.8311(10)
_cell_length_b                   9.8288(9)
_cell_length_c                   14.2274(15)
_cell_angle_alpha                90
_cell_angle_beta                 100.600(10)
_cell_angle_gamma                90
_cell_volume                     1213.85
_exptl_crystal_colour            colorless
_exptl_crystal_description       block
_cell_formula_units_Z            4
loop_
_atom_site_label
_atom_site_type_symbol
_atom_site_fract_x
_atom_site_fract_y
_atom_site_fract_z
F1 F 0.6133(2) 0.96923(17) 0.43699(14)
F2 F 0.8308(2) 0.98659(16) 0.53266(14)
F3 F 0.8208(2) 0.98618(14) 0.38185(13)
F4 F 0.5328(2) 0.73836(19) 0.72707(11)
N1 N 0.8367(2) 0.72814(18) 0.38348(13)
C1 C 0.7752(3) 0.7760(2) 0.45211(16)
C2 C 0.8501(2) 0.5890(2) 0.37733(14)
C3 C 0.9161(3) 0.5420(2) 0.30063(15)
H1 H 0.9456 0.6047 0.2584
C4 C 0.9376(3) 0.4075(2) 0.28688(16)
H2 H 0.9822 0.3773 0.2363
C5 C 0.8915(3) 0.3167(2) 0.34999(19)
H3 H 0.9054 0.2240 0.3415
C6 C 0.8264(3) 0.3592(2) 0.42417(17)
H4 H 0.7966 0.2944 0.4648
C7 C 0.8021(2) 0.4975(2) 0.44199(14)
C8 C 0.7332(2) 0.5525(2) 0.51966(14)
C9 C 0.6782(2) 0.4737(3) 0.59069(15)
C10 C 0.6121(3) 0.5400(3) 0.65809(17)
H5 H 0.5747 0.4896 0.7042
C11 C 0.6001(3) 0.6793(4) 0.65853(17)
C12 C 0.6518(3) 0.7594(3) 0.59480(17)
H6 H 0.6435 0.8535 0.5976
C13 C 0.7191(2) 0.6962(2) 0.52324(15)
C14 C 0.6887(3) 0.3207(3) 0.60015(18)
H7 H 0.6318 0.2792 0.5434
H8 H 0.6463 0.2924 0.6545
H9 H 0.7946 0.2932 0.6086
C15 C 0.7599(4) 0.9289(3) 0.4507(2)
loop_
_geom_bond_atom_site_label_1
_geom_bond_atom_site_label_2
_geom_bond_site_symmetry_1
_geom_bond_site_symmetry_2
F1 C15 1_555 1_555
F2 C15 1_555 1_555
F3 C15 1_555 1_555
F4 C11 1_555 1_555
N1 C1 1_555 1_555
C1 C13 1_555 1_555
C2 N1 1_555 1_555
C3 C2 1_555 1_555
H1 C3 1_555 1_555
C4 C3 1_555 1_555
H2 C4 1_555 1_555
C5 C4 1_555 1_555
H3 C5 1_555 1_555
C6 C5 1_555 1_555
H4 C6 1_555 1_555
C7 C2 1_555 1_555
C8 C7 1_555 1_555
C9 C8 1_555 1_555
C10 C9 1_555 1_555
H5 C10 1_555 1_555
C11 C10 1_555 1_555
C12 C11 1_555 1_555
H6 C12 1_555 1_555
C13 C8 1_555 1_555
C14 C9 1_555 1_555
H7 C14 1_555 1_555
H8 C14 1_555 1_555
H9 C14 1_555 1_555
C15 C1 1_555 1_555
C6 C7 1_555 1_555
C12 C13 1_555 1_555

#END
