
#######################################################################
#
#                 Cambridge Crystallographic Data Centre
#                                CCDC 
#
#######################################################################
#
# If this CIF has been generated from an entry in the Cambridge 
# Structural Database, then it will include bibliographic, chemical, 
# crystal, experimental, refinement or atomic coordinate data resulting 
# from the CCDC's data processing and validation procedures.
#
#######################################################################

data_LIJFAM
_chemical_formula_moiety         'C23 H19 N1 O1'
_chemical_name_systematic        
1-(1-(4-Methoxyphenyl)vinyl)-2-phenyl-1H-indole
_symmetry_cell_setting           orthorhombic
_symmetry_space_group_name_H-M   'P b c a'
_symmetry_Int_Tables_number      61
_space_group_name_Hall           '-P 2ac 2ab'
loop_
_symmetry_equiv_pos_site_id
_symmetry_equiv_pos_as_xyz
1 x,y,z
2 1/2-x,-y,1/2+z
3 -x,1/2+y,1/2-z
4 1/2+x,1/2-y,-z
5 -x,-y,-z
6 1/2+x,y,1/2-z
7 x,1/2-y,1/2+z
8 1/2-x,1/2+y,z
_cell_length_a                   19.144(4)
_cell_length_b                   8.9660(18)
_cell_length_c                   20.056(4)
_cell_angle_alpha                90
_cell_angle_beta                 90
_cell_angle_gamma                90
_cell_volume                     3442.51
_exptl_crystal_colour            white
_exptl_crystal_description       block
_cell_formula_units_Z            8
loop_
_atom_site_label
_atom_site_type_symbol
_atom_site_fract_x
_atom_site_fract_y
_atom_site_fract_z
O1 O 0.15827(5) 0.88795(10) 0.49113(5)
N1 N 0.10982(5) 1.31220(11) 0.74562(5)
C1 C 0.13055(6) 1.30762(14) 0.81240(6)
C2 C 0.16678(6) 1.43525(14) 0.82690(6)
H1 H 0.1875 1.4590 0.8686
C3 C 0.16809(6) 1.52620(14) 0.76869(6)
C4 C 0.13159(6) 1.44733(13) 0.71891(6)
C5 C 0.11760(7) 1.50794(15) 0.65634(6)
H2 H 0.0924 1.4537 0.6235
C6 C 0.14201(7) 1.65086(15) 0.64408(7)
H3 H 0.1335 1.6954 0.6019
C7 C 0.17881(7) 1.73083(15) 0.69242(8)
H4 H 0.1946 1.8288 0.6825
C8 C 0.19269(7) 1.67040(15) 0.75424(7)
H5 H 0.2184 1.7252 0.7865
C9 C 0.11530(6) 1.18208(14) 0.85743(6)
C10 C 0.12069(7) 1.03293(15) 0.83780(7)
H6 H 0.1333 1.0090 0.7932
C11 C 0.10767(8) 0.91953(16) 0.88345(8)
H7 H 0.1117 0.8183 0.8700
C12 C 0.08890(9) 0.95337(19) 0.94840(8)
H8 H 0.0797 0.8756 0.9793
C13 C 0.08359(9) 1.1008(2) 0.96813(7)
H9 H 0.0709 1.1241 1.0127
C14 C 0.09670(7) 1.21434(17) 0.92311(6)
H10 H 0.0930 1.3153 0.9371
C15 C 0.06039(6) 1.21537(14) 0.71348(6)
C16 C -0.00312(7) 1.20410(18) 0.73944(7)
H11 H -0.0149 1.2593 0.7783
H12 H -0.0368 1.1409 0.7192
C17 C 0.08640(6) 1.13426(13) 0.65417(6)
C18 C 0.04145(7) 1.05269(14) 0.61247(7)
H13 H -0.0073 1.0526 0.6212
C19 C 0.06720(7) 0.97293(14) 0.55917(7)
H14 H 0.0361 0.9174 0.5319
C20 C 0.13855(7) 0.97275(13) 0.54480(6)
C21 C 0.18377(7) 1.05387(13) 0.58455(6)
H15 H 0.2324 1.0554 0.5751
C22 C 0.15721(6) 1.13329(14) 0.63860(6)
H16 H 0.1885 1.1887 0.6658
C23 C 0.23147(8) 0.86891(16) 0.48049(7)
H17 H 0.2528 0.9657 0.4705
H18 H 0.2390 0.8009 0.4429
H19 H 0.2529 0.8271 0.5207
loop_
_geom_bond_atom_site_label_1
_geom_bond_atom_site_label_2
_geom_bond_site_symmetry_1
_geom_bond_site_symmetry_2
O1 C20 1_555 1_555
N1 C1 1_555 1_555
C1 C2 1_555 1_555
C2 H1 1_555 1_555
C3 C2 1_555 1_555
C4 N1 1_555 1_555
C5 C4 1_555 1_555
H2 C5 1_555 1_555
C6 C5 1_555 1_555
H3 C6 1_555 1_555
C7 C6 1_555 1_555
H4 C7 1_555 1_555
C8 C3 1_555 1_555
H5 C8 1_555 1_555
C9 C1 1_555 1_555
C10 C9 1_555 1_555
H6 C10 1_555 1_555
C11 C10 1_555 1_555
H7 C11 1_555 1_555
C12 C11 1_555 1_555
H8 C12 1_555 1_555
C13 C12 1_555 1_555
H9 C13 1_555 1_555
C14 C9 1_555 1_555
H10 C14 1_555 1_555
C15 N1 1_555 1_555
C16 C15 1_555 1_555
H11 C16 1_555 1_555
H12 C16 1_555 1_555
C17 C15 1_555 1_555
C18 C17 1_555 1_555
H13 C18 1_555 1_555
C19 C18 1_555 1_555
H14 C19 1_555 1_555
C20 C19 1_555 1_555
C21 C20 1_555 1_555
H15 C21 1_555 1_555
C22 C17 1_555 1_555
H16 C22 1_555 1_555
C23 O1 1_555 1_555
H17 C23 1_555 1_555
H18 C23 1_555 1_555
H19 C23 1_555 1_555
C3 C4 1_555 1_555
C7 C8 1_555 1_555
C13 C14 1_555 1_555
C21 C22 1_555 1_555

#END
