
#######################################################################
#
#                 Cambridge Crystallographic Data Centre
#                                CCDC 
#
#######################################################################
#
# If this CIF has been generated from an entry in the Cambridge 
# Structural Database, then it will include bibliographic, chemical, 
# crystal, experimental, refinement or atomic coordinate data resulting 
# from the CCDC's data processing and validation procedures.
#
#######################################################################

data_LIJFOC
_chemical_formula_moiety         'C13 H11 F1 N2 O2'
_chemical_name_systematic        
'2-[(3-fluoro-2-methylphenyl)amino]pyridine-3-carboxylic acid'
_symmetry_cell_setting           monoclinic
_symmetry_space_group_name_H-M   'P 21/c'
_symmetry_Int_Tables_number      14
_space_group_name_Hall           '-P 2ybc'
loop_
_symmetry_equiv_pos_site_id
_symmetry_equiv_pos_as_xyz
1 x,y,z
2 -x,1/2+y,1/2-z
3 -x,-y,-z
4 x,1/2-y,1/2+z
_cell_length_a                   3.821(1)
_cell_length_b                   21.056(4)
_cell_length_c                   13.791(3)
_cell_angle_alpha                90
_cell_angle_beta                 96.01(1)
_cell_angle_gamma                90
_cell_volume                     1103.46
_exptl_crystal_colour            yellow
_exptl_crystal_description       plate
_cell_formula_units_Z            4
loop_
_atom_site_label
_atom_site_type_symbol
_atom_site_fract_x
_atom_site_fract_y
_atom_site_fract_z
C1 C 0.0735(5) 0.47339(8) 0.28546(13)
C2 C -0.1215(5) 0.52202(8) 0.23165(13)
C3 C -0.1576(5) 0.58022(9) 0.27698(13)
H1 H -0.2846 0.6136 0.2428
C4 C -0.0098(5) 0.58975(9) 0.37128(14)
H2 H -0.0343 0.6291 0.4036
C5 C 0.1759(5) 0.53983(8) 0.41718(14)
H3 H 0.2798 0.5464 0.4820
C6 C 0.2906(5) 0.35989(8) 0.27922(14)
C7 C 0.3340(5) 0.31266(8) 0.20865(14)
C8 C 0.5027(5) 0.25774(9) 0.24191(14)
C9 C 0.6245(5) 0.24560(9) 0.33783(15)
H4 H 0.7381 0.2068 0.3569
C10 C 0.5736(5) 0.29263(9) 0.40485(15)
H5 H 0.6538 0.2860 0.4716
C11 C 0.4084(5) 0.34921(8) 0.37694(14)
H6 H 0.3752 0.3808 0.4244
C12 C 0.2010(5) 0.32112(9) 0.10272(14)
H7 H 0.2657 0.2840 0.0657
H8 H 0.3064 0.3593 0.0774
H9 H -0.0557 0.3256 0.0962
C13 C -0.2797(4) 0.51277(8) 0.13092(13)
N1 N 0.2196(4) 0.48321(7) 0.37715(11)
N2 N 0.1192(4) 0.41562(7) 0.24330(11)
H10 H 0.0240 0.4127 0.1825
O1 O -0.4646(3) 0.56143(6) 0.09372(9)
H11 H -0.5605 0.5518 0.0381
O2 O -0.2463(3) 0.46344(6) 0.08386(9)
F1 F 0.5558(3) 0.21183(5) 0.17459(8)
loop_
_geom_bond_atom_site_label_1
_geom_bond_atom_site_label_2
_geom_bond_site_symmetry_1
_geom_bond_site_symmetry_2
C1 C2 1_555 1_555
C2 C3 1_555 1_555
C3 H1 1_555 1_555
C4 C3 1_555 1_555
H2 C4 1_555 1_555
C5 C4 1_555 1_555
H3 C5 1_555 1_555
C6 C7 1_555 1_555
C7 C8 1_555 1_555
C8 C9 1_555 1_555
C9 H4 1_555 1_555
C10 C9 1_555 1_555
H5 C10 1_555 1_555
C11 C6 1_555 1_555
H6 C11 1_555 1_555
C12 C7 1_555 1_555
H7 C12 1_555 1_555
H8 C12 1_555 1_555
H9 C12 1_555 1_555
C13 C2 1_555 1_555
N1 C1 1_555 1_555
N2 C1 1_555 1_555
H10 N2 1_555 1_555
O1 C13 1_555 1_555
H11 O1 1_555 1_555
O2 C13 1_555 1_555
F1 C8 1_555 1_555
C5 N1 1_555 1_555
C6 N2 1_555 1_555
C10 C11 1_555 1_555

#END
