
#######################################################################
#
#                 Cambridge Crystallographic Data Centre
#                                CCDC 
#
#######################################################################
#
# If this CIF has been generated from an entry in the Cambridge 
# Structural Database, then it will include bibliographic, chemical, 
# crystal, experimental, refinement or atomic coordinate data resulting 
# from the CCDC's data processing and validation procedures.
#
#######################################################################

data_LIJFOC01
_chemical_formula_moiety         'C13 H11 F1 N2 O2'
_chemical_name_systematic        
2-[(3-fluoro-2-methylphenyl)amino]pyridinium-3-carboxylate
_symmetry_cell_setting           monoclinic
_symmetry_space_group_name_H-M   'P 21/c'
_symmetry_Int_Tables_number      14
_space_group_name_Hall           '-P 2ybc'
loop_
_symmetry_equiv_pos_site_id
_symmetry_equiv_pos_as_xyz
1 x,y,z
2 -x,1/2+y,1/2-z
3 -x,-y,-z
4 x,1/2-y,1/2+z
_cell_length_a                   3.85100(10)
_cell_length_b                   22.3090(6)
_cell_length_c                   12.5920(4)
_cell_angle_alpha                90
_cell_angle_beta                 92.4090(10)
_cell_angle_gamma                90
_cell_volume                     1080.85
_exptl_crystal_colour            'light yellow'
_exptl_crystal_description       needle
_cell_formula_units_Z            4
loop_
_atom_site_label
_atom_site_type_symbol
_atom_site_fract_x
_atom_site_fract_y
_atom_site_fract_z
F1 F 0.9576(4) -0.02586(6) 0.19742(12)
O1 O 0.0109(4) 0.28372(7) -0.04903(12)
O2 O 0.1734(4) 0.18994(7) -0.00780(12)
N1 N 0.6388(5) 0.25483(8) 0.27934(13)
H1 H 0.7386 0.2313 0.3276
N2 N 0.4700(5) 0.17006(8) 0.17627(14)
H2 H 0.3707 0.1593 0.1150
C1 C 0.3238(5) 0.26896(9) 0.11387(16)
C2 C 0.3348(6) 0.32914(10) 0.13220(17)
H3 H 0.2260 0.3555 0.0817
C3 C 0.6507(6) 0.31465(10) 0.29543(17)
H4 H 0.7648 0.3300 0.3580
C4 C 0.5022(6) 0.35314(10) 0.22352(17)
H5 H 0.5116 0.3952 0.2348
C5 C 0.5903(5) 0.12122(10) 0.24028(17)
C6 C 0.5627(6) 0.12026(10) 0.34933(18)
H6 H 0.4670 0.1536 0.3847
C7 C 0.4799(5) 0.22929(10) 0.19214(16)
C8 C 0.1546(6) 0.24508(10) 0.01112(17)
C9 C 0.6754(6) 0.07037(10) 0.40697(19)
H7 H 0.6606 0.0701 0.4821
C10 C 0.8258(6) 0.02348(10) 0.2476(2)
C11 C 0.7183(6) 0.07131(10) 0.18495(18)
C12 C 0.7289(7) 0.07003(11) 0.0667(2)
H8 H 0.8619 0.0350 0.0447
H9 H 0.8403 0.1066 0.0418
H10 H 0.4915 0.0676 0.0358
C13 C 0.8089(6) 0.02106(11) 0.3562(2)
H11 H 0.8861 -0.0133 0.3951
loop_
_geom_bond_atom_site_label_1
_geom_bond_atom_site_label_2
_geom_bond_site_symmetry_1
_geom_bond_site_symmetry_2
F1 C10 1_555 1_555
O1 C8 1_555 1_555
O2 C8 1_555 1_555
N1 H1 1_555 1_555
N2 H2 1_555 1_555
C1 C2 1_555 1_555
C2 H3 1_555 1_555
C3 N1 1_555 1_555
H4 C3 1_555 1_555
C4 C2 1_555 1_555
H5 C4 1_555 1_555
C5 N2 1_555 1_555
C6 C5 1_555 1_555
H6 C6 1_555 1_555
C7 N1 1_555 1_555
C8 C1 1_555 1_555
C9 C6 1_555 1_555
H7 C9 1_555 1_555
C10 C11 1_555 1_555
C11 C5 1_555 1_555
C12 C11 1_555 1_555
H8 C12 1_555 1_555
H9 C12 1_555 1_555
H10 C12 1_555 1_555
C13 C9 1_555 1_555
H11 C13 1_555 1_555
N2 C7 1_555 1_555
C1 C7 1_555 1_555
C3 C4 1_555 1_555
C10 C13 1_555 1_555

#END
