
#######################################################################
#
#                 Cambridge Crystallographic Data Centre
#                                CCDC 
#
#######################################################################
#
# If this CIF has been generated from an entry in the Cambridge 
# Structural Database, then it will include bibliographic, chemical, 
# crystal, experimental, refinement or atomic coordinate data resulting 
# from the CCDC's data processing and validation procedures.
#
#######################################################################

data_LIJGOD
_chemical_formula_moiety         'C13 H11 I1 N2 O2'
_chemical_name_systematic        
'2-[(3-iodo-2-methylphenyl)amino]pyridine-3-carboxylic acid'
_symmetry_cell_setting           triclinic
_symmetry_space_group_name_H-M   'P -1'
_symmetry_Int_Tables_number      2
_space_group_name_Hall           '-P 1'
loop_
_symmetry_equiv_pos_site_id
_symmetry_equiv_pos_as_xyz
1 x,y,z
2 -x,-y,-z
_cell_length_a                   7.10120(10)
_cell_length_b                   7.69820(10)
_cell_length_c                   11.5625(2)
_cell_angle_alpha                78.6401(7)
_cell_angle_beta                 79.5043(7)
_cell_angle_gamma                86.5626(7)
_cell_volume                     609.139
_exptl_crystal_colour            colorless
_exptl_crystal_description       plate
_cell_formula_units_Z            2
loop_
_atom_site_label
_atom_site_type_symbol
_atom_site_fract_x
_atom_site_fract_y
_atom_site_fract_z
I1 I 0.32310(3) 0.79947(2) -0.011634(17)
O1 O 0.4043(3) 0.1947(3) 0.4774(2)
O2 O 0.3852(3) 0.0198(3) 0.6579(2)
H1 H 0.4429 -0.0521 0.6168
N1 N 0.2532(3) 0.5213(3) 0.4661(2)
H2 H 0.2997 0.4296 0.4341
C1 C 0.3454(4) 0.4785(4) 0.2298(3)
H3 H 0.3617 0.4851 0.1430
H4 H 0.2530 0.3871 0.2708
H5 H 0.4688 0.4483 0.2562
N2 N 0.1501(3) 0.6164(3) 0.6483(2)
C2 C 0.1640(4) 0.4174(4) 0.8365(3)
H6 H 0.1418 0.3986 0.9215
C3 C 0.3584(4) 0.1732(4) 0.5868(3)
C4 C 0.2238(4) 0.6740(3) 0.3814(3)
C5 C 0.2386(4) 0.2832(4) 0.7750(3)
H7 H 0.2674 0.1694 0.8184
C6 C 0.1539(4) 0.8362(4) 0.4113(3)
H8 H 0.1208 0.8475 0.4929
C7 C 0.2236(4) 0.4878(4) 0.5883(3)
C8 C 0.2510(4) 0.8056(4) 0.1729(3)
C9 C 0.1332(4) 0.9806(4) 0.3209(3)
H9 H 0.0846 1.0902 0.3415
C10 C 0.1820(4) 0.9678(4) 0.2014(3)
H10 H 0.1686 1.0676 0.1401
C11 C 0.2724(4) 0.6557(4) 0.2598(3)
C12 C 0.2708(4) 0.3149(3) 0.6509(3)
C13 C 0.1239(4) 0.5798(4) 0.7680(3)
H11 H 0.0738 0.6722 0.8092
loop_
_geom_bond_atom_site_label_1
_geom_bond_atom_site_label_2
_geom_bond_site_symmetry_1
_geom_bond_site_symmetry_2
I1 C8 1_555 1_555
O1 C3 1_555 1_555
O2 H1 1_555 1_555
N1 H2 1_555 1_555
C1 H3 1_555 1_555
H4 C1 1_555 1_555
H5 C1 1_555 1_555
N2 C7 1_555 1_555
C2 H6 1_555 1_555
C3 O2 1_555 1_555
C4 N1 1_555 1_555
C5 C2 1_555 1_555
H7 C5 1_555 1_555
C6 C4 1_555 1_555
H8 C6 1_555 1_555
C7 N1 1_555 1_555
C8 C10 1_555 1_555
C9 C6 1_555 1_555
H9 C9 1_555 1_555
C10 C9 1_555 1_555
H10 C10 1_555 1_555
C11 C1 1_555 1_555
C12 C3 1_555 1_555
C13 N2 1_555 1_555
H11 C13 1_555 1_555
C2 C13 1_555 1_555
C4 C11 1_555 1_555
C5 C12 1_555 1_555
C7 C12 1_555 1_555
C8 C11 1_555 1_555

#END
