
#######################################################################
#
#                 Cambridge Crystallographic Data Centre
#                                CCDC 
#
#######################################################################
#
# If this CIF has been generated from an entry in the Cambridge 
# Structural Database, then it will include bibliographic, chemical, 
# crystal, experimental, refinement or atomic coordinate data resulting 
# from the CCDC's data processing and validation procedures.
#
#######################################################################

data_LIJGAP
_chemical_formula_moiety         'C13 H11 Br1 N2 O2'
_chemical_name_systematic        
'2-[(3-bromo-2-methylphenyl)amino]pyridine-3-carboxylic acid'
_symmetry_cell_setting           monoclinic
_symmetry_space_group_name_H-M   'P 21/c'
_symmetry_Int_Tables_number      14
_space_group_name_Hall           '-P 2ybc'
loop_
_symmetry_equiv_pos_site_id
_symmetry_equiv_pos_as_xyz
1 x,y,z
2 -x,1/2+y,1/2-z
3 -x,-y,-z
4 x,1/2-y,1/2+z
_cell_length_a                   7.605(1)
_cell_length_b                   14.106(2)
_cell_length_c                   11.762(2)
_cell_angle_alpha                90
_cell_angle_beta                 101.82(1)
_cell_angle_gamma                90
_cell_volume                     1235.03
_exptl_crystal_colour            colorless
_exptl_crystal_description       block
_cell_formula_units_Z            4
loop_
_atom_site_label
_atom_site_type_symbol
_atom_site_fract_x
_atom_site_fract_y
_atom_site_fract_z
N1 N 0.5165(3) 0.42515(19) 0.2061(2)
C1 C 0.5448(4) 0.5114(2) 0.2560(3)
C2 C 0.4443(4) 0.5921(2) 0.2046(3)
C3 C 0.3149(4) 0.5794(2) 0.1042(3)
H1 H 0.2449 0.6316 0.0698
C4 C 0.2877(4) 0.4902(2) 0.0543(3)
H2 H 0.2003 0.4803 -0.0149
C5 C 0.3916(4) 0.4161(2) 0.1080(3)
H3 H 0.3735 0.3551 0.0734
C6 C 0.4765(4) 0.6867(2) 0.2591(3)
O1 O 0.3764(3) 0.75415(15) 0.2012(2)
H4 H 0.4025 0.8063 0.2349
O2 O 0.5835(3) 0.70079(16) 0.3501(2)
N2 N 0.6690(4) 0.5196(2) 0.3580(3)
H5 H 0.6812 0.5757 0.3916
C7 C 0.7798(4) 0.4449(2) 0.4141(3)
C8 C 0.9119(6) 0.4046(3) 0.3618(4)
C9 C 1.0119(6) 0.3309(3) 0.4234(4)
C10 C 0.9921(10) 0.3009(6) 0.5319(6)
H6 H 1.0636 0.2508 0.5708
C11 C 0.8648(9) 0.3458(5) 0.5829(6)
H7 H 0.8503 0.3274 0.6581
C12 C 0.7596(7) 0.4173(4) 0.5240(4)
H8 H 0.6728 0.4479 0.5590
C13 C 0.9426(8) 0.4391(5) 0.2470(4)
H9 H 1.0717 0.4388 0.2475
H10 H 0.8960 0.5038 0.2332
H11 H 0.8803 0.3974 0.1851
Br1 Br 1.18518(15) 0.26664(10) 0.35535(8)
N3? N 0.6690(4) 0.5196(2) 0.3580(3)
H12? H 0.6812 0.5757 0.3916
C14? C 0.7798(4) 0.4449(2) 0.4141(3)
C15? C 0.931(2) 0.4188(14) 0.3717(15)
C16? C 1.036(3) 0.3478(17) 0.4356(18)
C17? C 0.998(4) 0.305(2) 0.533(2)
H13? H 1.0747 0.2572 0.5731
C18? C 0.846(4) 0.334(3) 0.572(3)
H14? H 0.8162 0.3054 0.6392
C19? C 0.737(3) 0.4036(17) 0.5120(16)
H15? H 0.6327 0.4235 0.5380
C20? C 0.971(4) 0.460(2) 0.2622(19)
H16? H 1.0976 0.4788 0.2755
H17? H 0.8944 0.5149 0.2388
H18? H 0.9476 0.4117 0.2005
Br2? Br 1.2389(7) 0.3045(5) 0.3790(4)
N4? N 0.722(3) 0.5272(13) 0.2940(17)
H19? H 0.7605 0.5858 0.2921
C21? C 0.850(2) 0.4554(12) 0.3370(13)
C22? C 0.842(2) 0.4094(11) 0.4409(12)
C23? C 0.971(2) 0.3381(11) 0.4751(11)
C24? C 1.098(2) 0.3138(12) 0.4123(13)
H20? H 1.1828 0.2650 0.4391
C25? C 1.102(2) 0.3614(14) 0.3092(14)
H21? H 1.1894 0.3456 0.2649
C26? C 0.977(2) 0.4323(15) 0.2722(15)
H22? H 0.9787 0.4652 0.2019
C27? C 0.694(3) 0.428(3) 0.505(2)
H23? H 0.6443 0.4914 0.4848
H24? H 0.7428 0.4250 0.5888
H25? H 0.5998 0.3805 0.4834
Br3? Br 0.9686(5) 0.2716(3) 0.6159(3)
loop_
_geom_bond_atom_site_label_1
_geom_bond_atom_site_label_2
_geom_bond_site_symmetry_1
_geom_bond_site_symmetry_2
N1 C1 1_555 1_555
C1 C2 1_555 1_555
C2 C3 1_555 1_555
C3 H1 1_555 1_555
C4 C3 1_555 1_555
H2 C4 1_555 1_555
C5 N1 1_555 1_555
H3 C5 1_555 1_555
C6 C2 1_555 1_555
O1 C6 1_555 1_555
H4 O1 1_555 1_555
O2 C6 1_555 1_555
N2 C1 1_555 1_555
H5 N2 1_555 1_555
C7 N2 1_555 1_555
C8 C7 1_555 1_555
C9 C8 1_555 1_555
C10 C9 1_555 1_555
H6 C10 1_555 1_555
C11 C10 1_555 1_555
H7 C11 1_555 1_555
C12 C7 1_555 1_555
H8 C12 1_555 1_555
C13 C8 1_555 1_555
H9 C13 1_555 1_555
H10 C13 1_555 1_555
H11 C13 1_555 1_555
Br1 C9 1_555 1_555
C4 C5 1_555 1_555
C11 C12 1_555 1_555

#END
