
#######################################################################
#
#                 Cambridge Crystallographic Data Centre
#                                CCDC 
#
#######################################################################
#
# If this CIF has been generated from an entry in the Cambridge 
# Structural Database, then it will include bibliographic, chemical, 
# crystal, experimental, refinement or atomic coordinate data resulting 
# from the CCDC's data processing and validation procedures.
#
#######################################################################

data_LIJJIY
_chemical_formula_moiety         'C15 H12 N6'
_chemical_name_systematic        1,3,5-tris(1H-Pyrazol-3-yl)benzene
_symmetry_cell_setting           orthorhombic
_symmetry_space_group_name_H-M   'P n a 21'
_symmetry_Int_Tables_number      33
_space_group_name_Hall           'P 2c -2n'
loop_
_symmetry_equiv_pos_site_id
_symmetry_equiv_pos_as_xyz
1 x,y,z
2 -x,-y,1/2+z
3 1/2-x,1/2+y,1/2+z
4 1/2+x,1/2-y,z
_cell_length_a                   8.183(5)
_cell_length_b                   17.128(5)
_cell_length_c                   9.173(5)
_cell_angle_alpha                90
_cell_angle_beta                 90
_cell_angle_gamma                90
_cell_volume                     1285.67
_exptl_crystal_colour            yellow
_exptl_crystal_description       block
_cell_formula_units_Z            4
_exptl_crystal_recrystallization_method DMF
loop_
_atom_site_label
_atom_site_type_symbol
_atom_site_fract_x
_atom_site_fract_y
_atom_site_fract_z
C1 C 0.3602(3) 0.18881(14) 0.5920(3)
C2 C 0.3385(3) 0.26016(13) 0.5217(3)
H1 H 0.3054 0.2612 0.4247
C3 C 0.3662(3) 0.33028(14) 0.5959(3)
C4 C 0.4121(3) 0.32782(14) 0.7426(3)
H2 H 0.4291 0.3742 0.7929
C5 C 0.4326(3) 0.25690(13) 0.8144(3)
C6 C 0.4073(3) 0.18830(14) 0.7377(3)
H3 H 0.4221 0.1407 0.7848
C7 C 0.3371(3) 0.11425(14) 0.5129(2)
C8 C 0.4001(4) 0.04043(15) 0.5471(3)
H4 H 0.4687 0.0274 0.6241
C9 C 0.3388(4) -0.00815(16) 0.4426(3)
H5 H 0.3563 -0.0617 0.4369
C10 C 0.3529(3) 0.40462(14) 0.5151(3)
C11 C 0.3294(3) 0.41669(15) 0.3655(3)
H6 H 0.3131 0.3787 0.2945
C12 C 0.3355(4) 0.49591(16) 0.3455(3)
H7 H 0.3255 0.5221 0.2571
C13 C 0.4818(3) 0.25235(13) 0.9689(3)
C14 C 0.4694(3) 0.18895(14) 1.0637(3)
H8 H 0.4265 0.1400 1.0427
C15 C 0.5333(3) 0.21336(15) 1.1941(3)
H9 H 0.5424 0.1837 1.2787
N1 N 0.2498(3) 0.03384(13) 0.3505(3)
H10 H 0.2004 0.0152 0.2754
N2 N 0.2472(3) 0.11020(12) 0.3905(2)
N3 N 0.3585(3) 0.52856(13) 0.4757(3)
H11 H 0.3642 0.5780 0.4908
N4 N 0.3717(3) 0.47320(13) 0.5816(2)
N5 N 0.5799(3) 0.28760(13) 1.1773(2)
H12 H 0.6233 0.3156 1.2448
N6 N 0.5498(3) 0.31309(11) 1.0397(2)
loop_
_geom_bond_atom_site_label_1
_geom_bond_atom_site_label_2
_geom_bond_site_symmetry_1
_geom_bond_site_symmetry_2
C1 C2 1_555 1_555
C2 H1 1_555 1_555
C3 C2 1_555 1_555
C4 C3 1_555 1_555
H2 C4 1_555 1_555
C5 C4 1_555 1_555
C6 C1 1_555 1_555
H3 C6 1_555 1_555
C7 C1 1_555 1_555
C8 C7 1_555 1_555
H4 C8 1_555 1_555
C9 C8 1_555 1_555
H5 C9 1_555 1_555
C10 C3 1_555 1_555
C11 C10 1_555 1_555
H6 C11 1_555 1_555
C12 C11 1_555 1_555
H7 C12 1_555 1_555
C13 C5 1_555 1_555
C14 C13 1_555 1_555
H8 C14 1_555 1_555
C15 C14 1_555 1_555
H9 C15 1_555 1_555
N1 C9 1_555 1_555
H10 N1 1_555 1_555
N2 C7 1_555 1_555
N3 C12 1_555 1_555
H11 N3 1_555 1_555
N4 C10 1_555 1_555
N5 C15 1_555 1_555
H12 N5 1_555 1_555
N6 C13 1_555 1_555
C5 C6 1_555 1_555
N1 N2 1_555 1_555
N3 N4 1_555 1_555
N5 N6 1_555 1_555

#END
