
#######################################################################
#
#                 Cambridge Crystallographic Data Centre
#                                CCDC 
#
#######################################################################
#
# If this CIF has been generated from an entry in the Cambridge 
# Structural Database, then it will include bibliographic, chemical, 
# crystal, experimental, refinement or atomic coordinate data resulting 
# from the CCDC's data processing and validation procedures.
#
#######################################################################

data_LIJKAR
_chemical_formula_moiety         'C56 H48 O16,6(C3 H7 N1 O1)'
_chemical_name_systematic        
'2,8,14,20-tetrakis(p-Methoxyphenyl)pyrogallol(4)arene dimethylformamide solvate'
_symmetry_cell_setting           triclinic
_symmetry_space_group_name_H-M   'P -1'
_symmetry_Int_Tables_number      2
_space_group_name_Hall           '-P 1'
loop_
_symmetry_equiv_pos_site_id
_symmetry_equiv_pos_as_xyz
1 x,y,z
2 -x,-y,-z
_cell_length_a                   10.8399(6)
_cell_length_b                   11.6307(7)
_cell_length_c                   15.3585(9)
_cell_angle_alpha                73.4800(10)
_cell_angle_beta                 73.5540(10)
_cell_angle_gamma                73.0030(10)
_cell_volume                     1732.56
_exptl_crystal_colour            pink
_exptl_crystal_description       block
_chemical_melting_point          '632-633 K'
_cell_formula_units_Z            1
_exptl_crystal_recrystallization_method 'diethyl ether/DMF'
loop_
_atom_site_label
_atom_site_type_symbol
_atom_site_fract_x
_atom_site_fract_y
_atom_site_fract_z
C1 C 0.6658(2) 0.6549(2) 1.01615(13)
H1 H 0.7124 0.6711 1.0536
C2 C 0.6637(3) 0.5315(2) 0.91362(17)
H2 H 0.5810 0.5926 0.9063
H3 H 0.6448 0.4501 0.9426
H4 H 0.7232 0.5295 0.8524
C3 C 0.8567(3) 0.4911(3) 0.97997(19)
H5 H 0.8927 0.5254 1.0162
H6 H 0.9143 0.4923 0.9178
H7 H 0.8520 0.4060 1.0116
N1 N 0.72534(19) 0.56446(18) 0.97160(11)
O1 O 0.55477(17) 0.71894(15) 1.01234(10)
C4 C 0.42933(16) 1.11176(14) 0.19126(11)
H8 H 0.4498 1.1682 0.1339
C5 C 0.47278(18) 0.90179(15) 0.28231(12)
H9 H 0.4014 0.9384 0.3289
H10 H 0.5534 0.8674 0.3067
H11 H 0.4473 0.8361 0.2681
C6 C 0.59696(19) 0.95763(18) 0.11855(13)
H12 H 0.6050 1.0292 0.0667
H13 H 0.5708 0.8965 0.0992
H14 H 0.6821 0.9211 0.1367
N2 N 0.49696(13) 0.99649(12) 0.19751(9)
O2 O 0.34118(13) 1.15300(11) 0.25381(8)
C7 C -0.04528(16) 0.06013(14) 0.13697(10)
H15 H -0.1108 0.0223 0.1815
C8 C 0.1655(2) 0.1142(2) 0.10120(13)
H16 H 0.1418 0.1525 0.0407
H17 H 0.2481 0.0510 0.0933
H18 H 0.1773 0.1772 0.1271
C9 C 0.08011(18) -0.00344(16) 0.25792(11)
H19 H 0.0044 -0.0390 0.2937
H20 H 0.0879 0.0567 0.2885
H21 H 0.1611 -0.0691 0.2545
N3 N 0.06071(13) 0.05763(12) 0.16428(9)
O3 O -0.06606(12) 0.10807(11) 0.05755(8)
C10 C 0.08449(15) 0.54655(13) 0.73022(10)
H22 H 0.0029 0.5568 0.7142
C11 C 0.10938(15) 0.64325(14) 0.75351(11)
H23 H 0.0452 0.7191 0.7529
C12 C 0.22786(15) 0.62924(14) 0.77765(10)
C13 C 0.32319(15) 0.51968(15) 0.77624(11)
H24 H 0.4054 0.5103 0.7912
C14 C 0.29646(15) 0.42339(14) 0.75247(10)
H25 H 0.3616 0.3483 0.7517
C15 C 0.17776(14) 0.43408(13) 0.72994(9)
C16 C 0.15459(13) 0.32867(12) 0.70084(9)
H26 H 0.2082 0.2503 0.7322
C17 C 0.20160(13) 0.33775(12) 0.59585(9)
C18 C 0.21157(14) 0.23746(12) 0.55967(10)
C19 C 0.24456(14) 0.24523(13) 0.46370(10)
C20 C 0.27271(14) 0.35332(13) 0.40240(9)
C21 C 0.26516(13) 0.45511(12) 0.43692(9)
C22 C 0.22852(13) 0.44541(12) 0.53301(9)
H27 H 0.2216 0.5147 0.5566
C23 C 0.34920(19) 0.70947(19) 0.84427(14)
H28 H 0.3467 0.6388 0.8974
H29 H 0.3425 0.7832 0.8658
H30 H 0.4326 0.6930 0.7987
C24 C 0.19028(14) 0.75328(13) 0.44920(10)
H31 H 0.1108 0.7616 0.4309
C25 C 0.19295(15) 0.82921(13) 0.50364(10)
H32 H 0.1157 0.8890 0.5222
C26 C 0.30867(15) 0.81782(13) 0.53097(10)
C27 C 0.42235(15) 0.73175(13) 0.50256(10)
H33 H 0.5020 0.7244 0.5203
C28 C 0.41803(14) 0.65622(13) 0.44765(10)
H34 H 0.4958 0.5976 0.4281
C29 C 0.30300(14) 0.66457(12) 0.42082(9)
C30 C 0.29994(13) 0.57199(12) 0.36881(9)
H35 H 0.3914 0.5472 0.3314
C31 C 0.20893(14) 0.62977(12) 0.30071(9)
C32 C 0.25441(14) 0.69388(13) 0.21136(9)
C33 C 0.16993(14) 0.74998(13) 0.14914(9)
C34 C 0.03791(14) 0.74173(13) 0.17682(9)
C35 C 0.01042(13) 0.32010(12) 0.73265(9)
C36 C 0.07631(13) 0.62514(12) 0.32698(9)
H36 H 0.0437 0.5828 0.3882
C37 C 0.41800(18) 0.88299(17) 0.61660(14)
H37 H 0.4500 0.7970 0.6468
H38 H 0.3988 0.9356 0.6608
H39 H 0.4859 0.9083 0.5625
O4 O 0.24155(12) 0.72893(11) 0.80213(9)
O5 O 0.18662(11) 0.12992(9) 0.61961(7)
H40 H 0.2089 0.0738 0.5900
O6 O 0.24647(13) 0.14031(10) 0.43813(8)
H41 H 0.2755 0.1483 0.3804
O7 O 0.31128(12) 0.36441(10) 0.30769(7)
H42 H 0.3096 0.2997 0.2945
O8 O 0.30071(11) 0.89459(10) 0.58718(8)
O9 O 0.38426(10) 0.70251(11) 0.18480(7)
H43 H 0.4065 0.7207 0.1265
O10 O 0.22783(11) 0.81115(12) 0.06305(7)
H44 H 0.1726 0.8390 0.0289
O11 O -0.05048(11) 0.79371(11) 0.11931(7)
H45 H -0.0101 0.8211 0.0654
C10A C -0.08449(15) 0.45345(13) 0.26978(10)
H22A H -0.0029 0.4432 0.2858
C11A C -0.10938(15) 0.35675(14) 0.24649(11)
H23A H -0.0452 0.2809 0.2471
C12A C -0.22786(15) 0.37076(14) 0.22235(10)
C13A C -0.32319(15) 0.48032(15) 0.22376(11)
H24A H -0.4054 0.4897 0.2088
C14A C -0.29646(15) 0.57661(14) 0.24753(10)
H25A H -0.3616 0.6517 0.2483
C15A C -0.17776(14) 0.56592(13) 0.27006(9)
C16A C -0.15459(13) 0.67133(12) 0.29916(9)
H26A H -0.2082 0.7497 0.2678
C17A C -0.20160(13) 0.66225(12) 0.40415(9)
C18A C -0.21157(14) 0.76254(12) 0.44033(10)
C19A C -0.24456(14) 0.75477(13) 0.53630(10)
C20A C -0.27271(14) 0.64668(13) 0.59760(9)
C21A C -0.26516(13) 0.54489(12) 0.56308(9)
C22A C -0.22852(13) 0.55459(12) 0.46699(9)
H27A H -0.2216 0.4853 0.4434
C23A C -0.34920(19) 0.29053(19) 0.15573(14)
H28A H -0.3467 0.3612 0.1026
H29A H -0.3425 0.2168 0.1342
H30A H -0.4326 0.3070 0.2013
C24A C -0.19028(14) 0.24672(13) 0.55080(10)
H31A H -0.1108 0.2384 0.5691
C25A C -0.19295(15) 0.17079(13) 0.49636(10)
H32A H -0.1157 0.1110 0.4778
C26A C -0.30867(15) 0.18218(13) 0.46903(10)
C27A C -0.42235(15) 0.26825(13) 0.49744(10)
H33A H -0.5020 0.2756 0.4797
C28A C -0.41803(14) 0.34378(13) 0.55235(10)
H34A H -0.4958 0.4024 0.5719
C29A C -0.30300(14) 0.33543(12) 0.57918(9)
C30A C -0.29994(13) 0.42801(12) 0.63119(9)
H35A H -0.3914 0.4528 0.6686
C31A C -0.20893(14) 0.37023(12) 0.69929(9)
C32A C -0.25441(14) 0.30612(13) 0.78864(9)
C33A C -0.16993(14) 0.25002(13) 0.85086(9)
C34A C -0.03791(14) 0.25827(13) 0.82318(9)
C35A C -0.01042(13) 0.67990(12) 0.26735(9)
C36A C -0.07631(13) 0.37486(12) 0.67302(9)
H36A H -0.0437 0.4172 0.6118
C37A C -0.41800(18) 0.11701(17) 0.38340(14)
H37A H -0.4500 0.2030 0.3532
H38A H -0.3988 0.0644 0.3392
H39A H -0.4859 0.0917 0.4375
O4A O -0.24155(12) 0.27107(11) 0.19787(9)
O5A O -0.18662(11) 0.87008(9) 0.38039(7)
H40A H -0.2089 0.9262 0.4100
O6A O -0.24647(13) 0.85969(10) 0.56187(8)
H41A H -0.2755 0.8517 0.6196
O7A O -0.31128(12) 0.63559(10) 0.69231(7)
H42A H -0.3096 0.7003 0.7055
O8A O -0.30071(11) 0.10541(10) 0.41282(8)
O9A O -0.38426(10) 0.29749(11) 0.81520(7)
H43A H -0.4065 0.2793 0.8735
O10A O -0.22783(11) 0.18885(12) 0.93695(7)
H44A H -0.1726 0.1610 0.9711
O11A O 0.05048(11) 0.20629(11) 0.88069(7)
H45A H 0.0101 0.1789 0.9346
loop_
_geom_bond_atom_site_label_1
_geom_bond_atom_site_label_2
_geom_bond_site_symmetry_1
_geom_bond_site_symmetry_2
C1 H1 1_555 1_555
C2 H2 1_555 1_555
H3 C2 1_555 1_555
H4 C2 1_555 1_555
C3 H5 1_555 1_555
H6 C3 1_555 1_555
H7 C3 1_555 1_555
N1 C1 1_555 1_555
O1 C1 1_555 1_555
C4 H8 1_555 1_555
C5 H9 1_555 1_555
H10 C5 1_555 1_555
H11 C5 1_555 1_555
C6 H12 1_555 1_555
H13 C6 1_555 1_555
H14 C6 1_555 1_555
N2 C4 1_555 1_555
O2 C4 1_555 1_555
C7 H15 1_555 1_555
C8 H16 1_555 1_555
H17 C8 1_555 1_555
H18 C8 1_555 1_555
C9 H19 1_555 1_555
H20 C9 1_555 1_555
H21 C9 1_555 1_555
N3 C7 1_555 1_555
O3 C7 1_555 1_555
C10 H22 1_555 1_555
C11 C10 1_555 1_555
H23 C11 1_555 1_555
C12 C11 1_555 1_555
C13 C12 1_555 1_555
H24 C13 1_555 1_555
C14 C13 1_555 1_555
H25 C14 1_555 1_555
C15 C10 1_555 1_555
C16 C15 1_555 1_555
H26 C16 1_555 1_555
C17 C16 1_555 1_555
C18 C17 1_555 1_555
C19 C18 1_555 1_555
C20 C19 1_555 1_555
C21 C20 1_555 1_555
C22 C17 1_555 1_555
H27 C22 1_555 1_555
C23 H28 1_555 1_555
H29 C23 1_555 1_555
H30 C23 1_555 1_555
C24 H31 1_555 1_555
C25 C24 1_555 1_555
H32 C25 1_555 1_555
C26 C25 1_555 1_555
C27 C26 1_555 1_555
H33 C27 1_555 1_555
C28 C27 1_555 1_555
H34 C28 1_555 1_555
C29 C24 1_555 1_555
C30 C21 1_555 1_555
H35 C30 1_555 1_555
C31 C30 1_555 1_555
C32 C31 1_555 1_555
C33 C32 1_555 1_555
C34 C33 1_555 1_555
C35 C16 1_555 1_555
C36 C31 1_555 1_555
H36 C36 1_555 1_555
C37 H37 1_555 1_555
H38 C37 1_555 1_555
H39 C37 1_555 1_555
O4 C12 1_555 1_555
O5 C18 1_555 1_555
H40 O5 1_555 1_555
O6 C19 1_555 1_555
H41 O6 1_555 1_555
O7 C20 1_555 1_555
H42 O7 1_555 1_555
O8 C26 1_555 1_555
O9 C32 1_555 1_555
H43 O9 1_555 1_555
O10 C33 1_555 1_555
H44 O10 1_555 1_555
O11 C34 1_555 1_555
H45 O11 1_555 1_555
C10A H22A 1_555 1_555
C11A C10A 1_555 1_555
H23A C11A 1_555 1_555
C12A C11A 1_555 1_555
C13A C12A 1_555 1_555
H24A C13A 1_555 1_555
C14A C13A 1_555 1_555
H25A C14A 1_555 1_555
C15A C10A 1_555 1_555
C16A C15A 1_555 1_555
H26A C16A 1_555 1_555
C17A C16A 1_555 1_555
C18A C17A 1_555 1_555
C19A C18A 1_555 1_555
C20A C19A 1_555 1_555
C21A C20A 1_555 1_555
C22A C17A 1_555 1_555
H27A C22A 1_555 1_555
C23A H28A 1_555 1_555
H29A C23A 1_555 1_555
H30A C23A 1_555 1_555
C24A H31A 1_555 1_555
C25A C24A 1_555 1_555
H32A C25A 1_555 1_555
C26A C25A 1_555 1_555
C27A C26A 1_555 1_555
H33A C27A 1_555 1_555
C28A C27A 1_555 1_555
H34A C28A 1_555 1_555
C29A C24A 1_555 1_555
C30A C21A 1_555 1_555
H35A C30A 1_555 1_555
C31A C30A 1_555 1_555
C32A C31A 1_555 1_555
C33A C32A 1_555 1_555
C34A C35 1_555 1_555
C35A C34 1_555 1_555
C36A C35 1_555 1_555
H36A C36A 1_555 1_555
C37A H37A 1_555 1_555
H38A C37A 1_555 1_555
H39A C37A 1_555 1_555
O4A C12A 1_555 1_555
O5A C18A 1_555 1_555
H40A O5A 1_555 1_555
O6A C19A 1_555 1_555
H41A O6A 1_555 1_555
O7A C20A 1_555 1_555
H42A O7A 1_555 1_555
O8A C26A 1_555 1_555
O9A C32A 1_555 1_555
H43A O9A 1_555 1_555
O10A C33A 1_555 1_555
H44A O10A 1_555 1_555
O11A C34A 1_555 1_555
H45A O11A 1_555 1_555
C2 N1 1_555 1_555
C3 N1 1_555 1_555
C5 N2 1_555 1_555
C6 N2 1_555 1_555
C8 N3 1_555 1_555
C9 N3 1_555 1_555
C14 C15 1_555 1_555
C21 C22 1_555 1_555
C23 O4 1_555 1_555
C28 C29 1_555 1_555
C29 C30 1_555 1_555
C36 C35A 1_555 1_555
C37 O8 1_555 1_555
C14A C15A 1_555 1_555
C16A C35A 1_555 1_555
C21A C22A 1_555 1_555
C23A O4A 1_555 1_555
C28A C29A 1_555 1_555
C29A C30A 1_555 1_555
C31A C36A 1_555 1_555
C33A C34A 1_555 1_555
C37A O8A 1_555 1_555

#END
