
#######################################################################
#
#                 Cambridge Crystallographic Data Centre
#                                CCDC 
#
#######################################################################
#
# If this CIF has been generated from an entry in the Cambridge 
# Structural Database, then it will include bibliographic, chemical, 
# crystal, experimental, refinement or atomic coordinate data resulting 
# from the CCDC's data processing and validation procedures.
#
#######################################################################

data_LIJKAT
_chemical_formula_moiety         'C22 H13 B1 N2'
_chemical_name_systematic        
13a,13c-diaza-13b-borabenzo[op]dicyclopenta[de,hi]tetracene
_symmetry_cell_setting           monoclinic
_symmetry_space_group_name_H-M   'P 21/n'
_symmetry_Int_Tables_number      14
_space_group_name_Hall           '-P 2yn'
loop_
_symmetry_equiv_pos_site_id
_symmetry_equiv_pos_as_xyz
1 x,y,z
2 1/2-x,1/2+y,1/2-z
3 -x,-y,-z
4 1/2+x,1/2-y,1/2+z
_cell_length_a                   16.7162(4)
_cell_length_b                   5.08680(10)
_cell_length_c                   16.8671(4)
_cell_angle_alpha                90
_cell_angle_beta                 91.5800(10)
_cell_angle_gamma                90
_cell_volume                     1433.7
_exptl_crystal_colour            yellow
_exptl_crystal_description       Needle
_cell_formula_units_Z            4
loop_
_atom_site_label
_atom_site_type_symbol
_atom_site_fract_x
_atom_site_fract_y
_atom_site_fract_z
N1 N 0.54719(6) 0.7178(2) 0.29935(6)
C1 C 0.45906(7) 0.3572(2) 0.23830(7)
B1 B 0.48132(9) 0.5410(3) 0.30887(9)
N2 N 0.43417(6) 0.5209(2) 0.37846(6)
C2 C 0.39740(7) 0.1683(2) 0.24515(8)
C3 C 0.35316(8) 0.1578(3) 0.31930(8)
C4 C 0.28937(8) -0.0108(3) 0.33488(8)
H1 H 0.2726 -0.1347 0.2957
C5 C 0.24979(8) -0.0010(3) 0.40675(9)
H2 H 0.2067 -0.1186 0.4151
C6 C 0.27162(8) 0.1750(3) 0.46614(8)
H3 H 0.2442 0.1783 0.5147
C7 C 0.33477(8) 0.3472(3) 0.45293(8)
C8 C 0.37370(8) 0.5558(3) 0.49676(8)
H4 H 0.3609 0.6135 0.5485
C9 C 0.43174(8) 0.6549(3) 0.45109(8)
H5 H 0.4662 0.7960 0.4661
C10 C 0.37355(7) 0.3335(2) 0.38021(8)
C11 C 0.50081(7) 0.3746(2) 0.16628(7)
C12 C 0.56426(7) 0.5727(3) 0.16015(8)
C13 C 0.60827(8) 0.6256(3) 0.09273(8)
H6 H 0.5982 0.5256 0.0459
C14 C 0.66671(8) 0.8222(3) 0.09248(9)
H7 H 0.6947 0.8540 0.0452
C15 C 0.68508(8) 0.9723(3) 0.15911(9)
H8 H 0.7251 1.1047 0.1580
C16 C 0.64304(8) 0.9230(3) 0.22784(8)
C17 C 0.64341(8) 1.0314(3) 0.30646(9)
H9 H 0.6777 1.1667 0.3262
C18 C 0.58627(8) 0.9063(3) 0.34729(8)
H10 H 0.5742 0.9412 0.4010
C19 C 0.58366(7) 0.7285(3) 0.22609(8)
C20 C 0.48060(8) 0.2045(3) 0.10381(8)
H11 H 0.5080 0.2166 0.0553
C21 C 0.42084(8) 0.0182(3) 0.11216(8)
H12 H 0.4083 -0.0980 0.0695
C22 C 0.37934(8) -0.0007(3) 0.18168(8)
H13 H 0.3384 -0.1289 0.1864
loop_
_geom_bond_atom_site_label_1
_geom_bond_atom_site_label_2
_geom_bond_site_symmetry_1
_geom_bond_site_symmetry_2
N1 B1 1_555 1_555
C1 B1 1_555 1_555
B1 N2 1_555 1_555
N2 C9 1_555 1_555
C2 C1 1_555 1_555
C3 C2 1_555 1_555
C4 C3 1_555 1_555
H1 C4 1_555 1_555
C5 C4 1_555 1_555
H2 C5 1_555 1_555
C6 C5 1_555 1_555
H3 C6 1_555 1_555
C7 C6 1_555 1_555
C8 C7 1_555 1_555
H4 C8 1_555 1_555
C9 C8 1_555 1_555
H5 C9 1_555 1_555
C10 N2 1_555 1_555
C11 C1 1_555 1_555
C12 C11 1_555 1_555
C13 C12 1_555 1_555
H6 C13 1_555 1_555
C14 C13 1_555 1_555
H7 C14 1_555 1_555
C15 C14 1_555 1_555
H8 C15 1_555 1_555
C16 C15 1_555 1_555
C17 C16 1_555 1_555
H9 C17 1_555 1_555
C18 N1 1_555 1_555
H10 C18 1_555 1_555
C19 N1 1_555 1_555
C20 C11 1_555 1_555
H11 C20 1_555 1_555
C21 C20 1_555 1_555
H12 C21 1_555 1_555
C22 C2 1_555 1_555
H13 C22 1_555 1_555
C3 C10 1_555 1_555
C7 C10 1_555 1_555
C12 C19 1_555 1_555
C16 C19 1_555 1_555
C17 C18 1_555 1_555
C21 C22 1_555 1_555

#END
