
#######################################################################
#
#                 Cambridge Crystallographic Data Centre
#                                CCDC 
#
#######################################################################
#
# If this CIF has been generated from an entry in the Cambridge 
# Structural Database, then it will include bibliographic, chemical, 
# crystal, experimental, refinement or atomic coordinate data resulting 
# from the CCDC's data processing and validation procedures.
#
#######################################################################

data_LIJLIC
_chemical_formula_moiety         'C18 H19 N1 O1 S1'
_chemical_name_systematic        5-(t-butylsulfinyl)-5H-dibenzo[b,f]azepine
_symmetry_cell_setting           monoclinic
_symmetry_space_group_name_H-M   'P 21/c'
_symmetry_Int_Tables_number      14
_space_group_name_Hall           '-P 2ybc'
loop_
_symmetry_equiv_pos_site_id
_symmetry_equiv_pos_as_xyz
1 x,y,z
2 -x,1/2+y,1/2-z
3 -x,-y,-z
4 x,1/2-y,1/2+z
_cell_length_a                   10.3089(6)
_cell_length_b                   15.6759(9)
_cell_length_c                   10.0392(6)
_cell_angle_alpha                90
_cell_angle_beta                 106.516(3)
_cell_angle_gamma                90
_cell_volume                     1555.41
_exptl_crystal_colour            'light colorless'
_exptl_crystal_description       block
_cell_formula_units_Z            4
_exptl_crystal_recrystallization_method tetrahydrofuran
loop_
_atom_site_label
_atom_site_type_symbol
_atom_site_fract_x
_atom_site_fract_y
_atom_site_fract_z
S1 S 0.66290(3) 0.49319(2) 0.21820(3)
O1 O 0.73831(10) 0.55035(5) 0.33242(10)
N1 N 0.65863(10) 0.39281(6) 0.27451(10)
C1 C 0.53109(12) 0.36513(7) 0.28971(12)
C2 C 0.45631(13) 0.41815(8) 0.35150(12)
H1 H 0.491767 0.471958 0.387884
C3 C 0.32988(14) 0.39237(9) 0.35994(14)
H2 H 0.278570 0.428631 0.401517
C4 C 0.27874(13) 0.31333(9) 0.30733(14)
H3 H 0.192580 0.295442 0.313470
C5 C 0.35311(13) 0.26063(8) 0.24600(14)
H4 H 0.316819 0.206956 0.209850
C6 C 0.48126(12) 0.28506(8) 0.23623(12)
C7 C 0.55460(13) 0.22776(8) 0.16800(13)
H5 H 0.500588 0.192445 0.096681
C8 C 0.68916(13) 0.21915(8) 0.19415(13)
H6 H 0.719700 0.180500 0.136680
C9 C 0.79373(12) 0.26309(7) 0.30197(12)
C10 C 0.91518(13) 0.22065(8) 0.36619(14)
H7 H 0.930731 0.165569 0.334340
C11 C 1.01299(13) 0.25753(9) 0.47525(14)
H8 H 1.094452 0.227619 0.517476
C12 C 0.99216(13) 0.33816(9) 0.52297(13)
H9 H 1.058879 0.363146 0.598283
C13 C 0.87322(12) 0.38223(8) 0.46008(12)
H10 H 0.857980 0.437019 0.493172
C14 C 0.77646(12) 0.34560(7) 0.34823(12)
C15 C 0.76952(13) 0.48443(8) 0.09850(13)
C16 C 0.70333(15) 0.41925(9) -0.01276(14)
H11 H 0.716225 0.361838 0.027504
H12 H 0.744872 0.422579 -0.089114
H13 H 0.606344 0.431425 -0.048185
C17 C 0.91771(13) 0.46425(9) 0.17151(14)
H14 H 0.948535 0.499066 0.255696
H15 H 0.972855 0.477060 0.108987
H16 H 0.926781 0.403691 0.196676
C18 C 0.75696(15) 0.57444(9) 0.03607(15)
H17 H 0.661157 0.588524 -0.004110
H18 H 0.803305 0.576584 -0.036636
H19 H 0.798414 0.615714 0.109092
loop_
_geom_bond_atom_site_label_1
_geom_bond_atom_site_label_2
_geom_bond_site_symmetry_1
_geom_bond_site_symmetry_2
S1 O1 1_555 1_555
N1 S1 1_555 1_555
C1 N1 1_555 1_555
C2 C1 1_555 1_555
H1 C2 1_555 1_555
C3 C2 1_555 1_555
H2 C3 1_555 1_555
C4 C3 1_555 1_555
H3 C4 1_555 1_555
C5 C4 1_555 1_555
H4 C5 1_555 1_555
C6 C1 1_555 1_555
C7 C6 1_555 1_555
H5 C7 1_555 1_555
C8 C7 1_555 1_555
H6 C8 1_555 1_555
C9 C8 1_555 1_555
C10 C9 1_555 1_555
H7 C10 1_555 1_555
C11 C10 1_555 1_555
H8 C11 1_555 1_555
C12 C11 1_555 1_555
H9 C12 1_555 1_555
C13 C12 1_555 1_555
H10 C13 1_555 1_555
C14 N1 1_555 1_555
C15 S1 1_555 1_555
C16 C15 1_555 1_555
H11 C16 1_555 1_555
H12 C16 1_555 1_555
H13 C16 1_555 1_555
C17 C15 1_555 1_555
H14 C17 1_555 1_555
H15 C17 1_555 1_555
H16 C17 1_555 1_555
C18 C15 1_555 1_555
H17 C18 1_555 1_555
H18 C18 1_555 1_555
H19 C18 1_555 1_555
C5 C6 1_555 1_555
C9 C14 1_555 1_555
C13 C14 1_555 1_555

#END
