
#######################################################################
#
#                 Cambridge Crystallographic Data Centre
#                                CCDC 
#
#######################################################################
#
# If this CIF has been generated from an entry in the Cambridge 
# Structural Database, then it will include bibliographic, chemical, 
# crystal, experimental, refinement or atomic coordinate data resulting 
# from the CCDC's data processing and validation procedures.
#
#######################################################################

data_LIJLEY
_chemical_formula_moiety         'C16 H28 O7 S1'
_chemical_name_systematic        
'5-(2,2-dimethyl-1,3-dioxolan-4-yl)-2,2-dimethyltetrahydro-2H-furo[2,3-d][1,3]dioxol-6-yl 2-methylpropane-2-sulfinate'
_symmetry_cell_setting           triclinic
_symmetry_space_group_name_H-M   'P 1'
_symmetry_Int_Tables_number      1
_space_group_name_Hall           'P 1'
loop_
_symmetry_equiv_pos_site_id
_symmetry_equiv_pos_as_xyz
1 x,y,z
_cell_length_a                   10.2270(17)
_cell_length_b                   11.780(2)
_cell_length_c                   16.393(3)
_cell_angle_alpha                84.284(4)
_cell_angle_beta                 78.446(4)
_cell_angle_gamma                88.872(4)
_cell_volume                     1925.29
_exptl_crystal_colour            colorless
_exptl_crystal_description       block
_cell_formula_units_Z            4
loop_
_atom_site_label
_atom_site_type_symbol
_atom_site_fract_x
_atom_site_fract_y
_atom_site_fract_z
S1 S 0.62421(10) 0.17437(10) 0.21315(7)
O1 O 0.4965(3) 0.2344(4) 0.2287(2)
O2 O 0.7358(3) 0.2622(2) 0.23196(16)
O3 O 0.8079(3) 0.1265(2) 0.42772(15)
O4 O 0.8168(3) 0.2939(2) 0.48242(17)
O5 O 0.8582(3) 0.3823(2) 0.34694(16)
O6 O 1.1472(3) 0.4799(2) 0.12591(17)
O7 O 1.0493(2) 0.3035(2) 0.14955(15)
C1 C 0.8183(4) 0.2148(3) 0.2886(2)
H1 H 0.8578 0.1417 0.2728
C2 C 0.7415(4) 0.2059(3) 0.3784(2)
H2 H 0.6470 0.1877 0.3834
C3 C 0.8056(4) 0.1726(3) 0.5052(2)
C4 C 0.6775(4) 0.1454(3) 0.5655(2)
H3 H 0.6040 0.1710 0.5401
H4 H 0.6753 0.1833 0.6149
H5 H 0.6709 0.0645 0.5801
C5 C 0.9275(4) 0.1311(4) 0.5375(3)
H6 H 0.9243 0.0495 0.5483
H7 H 0.9298 0.1643 0.5884
H8 H 1.0060 0.1531 0.4965
C6 C 0.7632(4) 0.3214(3) 0.4099(2)
H9 H 0.6795 0.3639 0.4224
C7 C 0.9246(4) 0.3039(3) 0.2898(2)
H10 H 0.9991 0.2671 0.3117
C8 C 0.9775(4) 0.3751(3) 0.2086(2)
H11 H 0.9037 0.4130 0.1867
C9 C 1.0835(5) 0.4607(3) 0.2115(2)
H12 H 1.0446 0.5303 0.2327
H13 H 1.1453 0.4297 0.2458
C10 C 1.1385(4) 0.3769(3) 0.0879(2)
C11 C 1.2730(4) 0.3203(4) 0.0707(3)
H14 H 1.3048 0.3054 0.1220
H15 H 1.3347 0.3696 0.0318
H16 H 1.2654 0.2497 0.0474
C12 C 1.0798(4) 0.4053(4) 0.0111(3)
H17 H 1.0641 0.3361 -0.0119
H18 H 1.1408 0.4526 -0.0298
H19 H 0.9969 0.4451 0.0259
C13 C 0.6813(4) 0.1834(3) 0.0997(2)
C14 C 0.8191(4) 0.1286(3) 0.0830(3)
H20 H 0.8512 0.1294 0.0237
H21 H 0.8135 0.0512 0.1082
H22 H 0.8795 0.1706 0.1065
C15 C 0.6838(5) 0.3066(3) 0.0622(3)
H23 H 0.7459 0.3491 0.0840
H24 H 0.5963 0.3391 0.0764
H25 H 0.7106 0.3096 0.0025
C16 C 0.5795(4) 0.1143(3) 0.0685(3)
H26 H 0.4929 0.1486 0.0822
H27 H 0.5765 0.0376 0.0948
H28 H 0.6050 0.1133 0.0089
S2 S -0.04781(8) 0.23144(7) 0.77541(6)
O8 O -0.0761(3) 0.1967(3) 0.86550(18)
O9 O 0.1074(2) 0.2771(2) 0.74884(16)
O10 O 0.3101(2) 0.02905(19) 0.78618(15)
O11 O 0.4917(2) 0.1332(2) 0.79231(18)
O12 O 0.4017(2) 0.28723(19) 0.72221(16)
O13 O 0.4372(2) 0.3226(2) 0.47786(16)
O14 O 0.2235(2) 0.2962(2) 0.55086(15)
C17 C 0.2039(3) 0.1887(3) 0.7249(2)
H29 H 0.1659 0.1291 0.6991
C18 C 0.2598(3) 0.1399(3) 0.8009(2)
H30 H 0.1955 0.1415 0.8539
C19 C 0.4374(3) 0.0195(3) 0.8104(2)
C20 C 0.4187(4) -0.0174(3) 0.9030(2)
H31 H 0.5039 -0.0207 0.9192
H32 H 0.3777 -0.0914 0.9148
H33 H 0.3625 0.0365 0.9338
C21 C 0.5244(4) -0.0588(3) 0.7555(2)
H34 H 0.5244 -0.0342 0.6979
H35 H 0.4904 -0.1352 0.7685
H36 H 0.6138 -0.0568 0.7651
C22 C 0.3862(4) 0.2125(3) 0.7964(2)
H37 H 0.3783 0.2549 0.8456
C23 C 0.3265(3) 0.2433(3) 0.6674(2)
H38 H 0.3789 0.1845 0.6371
C24 C 0.2983(3) 0.3408(3) 0.6051(2)
H39 H 0.2474 0.4009 0.6347
C25 C 0.4226(4) 0.3909(3) 0.5464(2)
H40 H 0.4097 0.4706 0.5285
H41 H 0.4996 0.3838 0.5728
C26 C 0.3057(4) 0.2972(4) 0.4688(3)
C27 C 0.2538(5) 0.3873(6) 0.4113(3)
H42 H 0.1620 0.3718 0.4112
H43 H 0.3055 0.3867 0.3556
H44 H 0.2607 0.4609 0.4306
C28 C 0.3093(5) 0.1787(5) 0.4397(4)
H45 H 0.3341 0.1243 0.4816
H46 H 0.3735 0.1770 0.3884
H47 H 0.2227 0.1599 0.4308
C29 C -0.1222(3) 0.3735(3) 0.7599(2)
C30 C -0.0724(4) 0.4547(3) 0.8137(3)
H48 H 0.0218 0.4666 0.7946
H49 H -0.0895 0.4223 0.8710
H50 H -0.1181 0.5264 0.8096
C31 C -0.0844(4) 0.4126(3) 0.6668(3)
H51 H -0.1213 0.4869 0.6562
H52 H -0.1192 0.3597 0.6357
H53 H 0.0110 0.4159 0.6500
C32 C -0.2717(4) 0.3520(3) 0.7868(3)
H54 H -0.3191 0.4215 0.7770
H55 H -0.2925 0.3257 0.8452
H56 H -0.2976 0.2951 0.7550
S3 S -0.04435(9) 0.87003(8) 0.79640(6)
O15 O -0.1569(3) 0.8279(3) 0.76586(19)
O16 O 0.0715(2) 0.7712(2) 0.78618(16)
O17 O 0.2588(2) 0.8641(2) 0.57776(15)
O18 O 0.2644(3) 0.6876(2) 0.53459(17)
O19 O 0.2232(2) 0.61527(19) 0.67453(15)
O20 O 0.3958(3) 0.5092(2) 0.88432(16)
O21 O 0.3503(2) 0.69708(19) 0.85178(15)
C33 C 0.1887(3) 0.7973(3) 0.7214(2)
H57 H 0.2343 0.8663 0.7299
C34 C 0.1547(3) 0.8034(3) 0.6351(2)
H58 H 0.0659 0.8350 0.6333
C35 C 0.2836(4) 0.8059(3) 0.5040(2)
C36 C 0.1844(4) 0.8429(4) 0.4497(2)
H59 H 0.0955 0.8271 0.4806
H60 H 0.2008 0.8020 0.4008
H61 H 0.1938 0.9233 0.4330
C37 C 0.4252(4) 0.8255(5) 0.4599(3)
H62 H 0.4394 0.9055 0.4433
H63 H 0.4435 0.7842 0.4113
H64 H 0.4838 0.7995 0.4969
C38 C 0.1716(4) 0.6797(3) 0.6109(2)
H65 H 0.0865 0.6483 0.6047
C39 C 0.2786(3) 0.6921(3) 0.7219(2)
H66 H 0.3699 0.7128 0.6936
C40 C 0.2800(3) 0.6295(3) 0.8069(2)
H67 H 0.1883 0.6163 0.8379
C41 C 0.3567(4) 0.5182(3) 0.8051(2)
H68 H 0.3005 0.4548 0.8004
H69 H 0.4337 0.5219 0.7594
C42 C 0.4261(4) 0.6222(3) 0.8994(2)
C43 C 0.5722(4) 0.6475(4) 0.8670(3)
H70 H 0.6245 0.5964 0.8968
H71 H 0.5904 0.7248 0.8752
H72 H 0.5948 0.6375 0.8085
C44 C 0.3816(5) 0.6347(4) 0.9910(3)
H73 H 0.2872 0.6218 1.0072
H74 H 0.4018 0.7103 1.0019
H75 H 0.4275 0.5800 1.0226
C45 C -0.0844(4) 0.8468(3) 0.9109(2)
C46 C -0.1034(4) 0.7207(3) 0.9402(3)
H76 H -0.0198 0.6817 0.9262
H77 H -0.1676 0.6894 0.9133
H78 H -0.1348 0.7114 0.9998
C47 C 0.0283(4) 0.8983(4) 0.9417(3)
H79 H 0.0109 0.8889 1.0018
H80 H 0.0356 0.9781 0.9226
H81 H 0.1104 0.8606 0.9204
C48 C -0.2151(4) 0.9127(3) 0.9358(3)
H82 H -0.2398 0.9089 0.9957
H83 H -0.2844 0.8795 0.9142
H84 H -0.2027 0.9910 0.9132
S4 S 0.62640(9) 0.77422(7) 0.23711(6)
O22 O 0.6467(3) 0.8405(2) 0.15495(19)
O23 O 0.7729(2) 0.72734(19) 0.25290(15)
O24 O 0.9969(2) 0.96854(19) 0.22259(16)
O25 O 1.1781(2) 0.8602(2) 0.23440(16)
O26 O 1.0415(2) 0.7063(2) 0.29358(15)
O27 O 0.8954(2) 0.6711(2) 0.53492(15)
O28 O 0.7388(2) 0.7013(2) 0.45376(15)
C49 C 0.8486(3) 0.8118(3) 0.2818(2)
H85 H 0.7918 0.8733 0.3052
C50 C 0.9598(4) 0.8569(3) 0.2097(2)
H86 H 0.9367 0.8533 0.1548
C51 C 1.1392(4) 0.9718(3) 0.2053(2)
C52 C 1.1934(4) 0.9962(4) 0.1125(3)
H87 H 1.1683 0.9356 0.0836
H88 H 1.2890 1.0013 0.1026
H89 H 1.1575 1.0670 0.0924
C53 C 1.1844(4) 1.0578(3) 0.2563(2)
H90 H 1.1608 1.1331 0.2361
H91 H 1.2794 1.0529 0.2513
H92 H 1.1417 1.0419 0.3140
C54 C 1.0812(4) 0.7824(3) 0.2216(2)
H93 H 1.1146 0.7414 0.1724
C55 C 0.9259(3) 0.7533(3) 0.3445(2)
H94 H 0.9540 0.8102 0.3772
C56 C 0.8545(3) 0.6561(3) 0.4032(2)
H95 H 0.8287 0.5974 0.3710
C57 C 0.9336(4) 0.6030(3) 0.4665(2)
H96 H 0.9092 0.5237 0.4832
H97 H 1.0288 0.6079 0.4443
C58 C 0.7591(4) 0.7015(3) 0.5374(2)
C59 C 0.6662(4) 0.6128(4) 0.5928(3)
H98 H 0.6875 0.5388 0.5740
H99 H 0.5754 0.6314 0.5896
H100 H 0.6771 0.6124 0.6496
C60 C 0.7389(5) 0.8200(4) 0.5657(3)
H101 H 0.7658 0.8213 0.6184
H102 H 0.6463 0.8404 0.5717
H103 H 0.7917 0.8735 0.5248
C61 C 0.5642(4) 0.6334(3) 0.2238(2)
C62 C 0.5730(5) 0.5525(4) 0.3008(3)
H104 H 0.5293 0.5862 0.3501
H105 H 0.6650 0.5386 0.3032
H106 H 0.5301 0.4817 0.2977
C63 C 0.4192(4) 0.6556(4) 0.2162(3)
H107 H 0.4165 0.7103 0.1692
H108 H 0.3712 0.6847 0.2663
H109 H 0.3789 0.5856 0.2085
C64 C 0.6455(4) 0.5921(4) 0.1438(3)
H110 H 0.6089 0.5216 0.1336
H111 H 0.7364 0.5803 0.1497
H112 H 0.6424 0.6483 0.0976
loop_
_geom_bond_atom_site_label_1
_geom_bond_atom_site_label_2
_geom_bond_site_symmetry_1
_geom_bond_site_symmetry_2
S1 O1 1_555 1_555
O2 S1 1_555 1_555
O3 C2 1_555 1_555
O4 C3 1_555 1_555
O5 C6 1_555 1_555
O6 C9 1_555 1_555
O7 C8 1_555 1_555
C1 O2 1_555 1_555
H1 C1 1_555 1_555
C2 C1 1_555 1_555
H2 C2 1_555 1_555
C3 O3 1_555 1_555
C4 C3 1_555 1_555
H3 C4 1_555 1_555
H4 C4 1_555 1_555
H5 C4 1_555 1_555
C5 C3 1_555 1_555
H6 C5 1_555 1_555
H7 C5 1_555 1_555
H8 C5 1_555 1_555
C6 O4 1_555 1_555
H9 C6 1_555 1_555
C7 O5 1_555 1_555
H10 C7 1_555 1_555
C8 C7 1_555 1_555
H11 C8 1_555 1_555
C9 C8 1_555 1_555
H12 C9 1_555 1_555
H13 C9 1_555 1_555
C10 O6 1_555 1_555
C11 C10 1_555 1_555
H14 C11 1_555 1_555
H15 C11 1_555 1_555
H16 C11 1_555 1_555
C12 C10 1_555 1_555
H17 C12 1_555 1_555
H18 C12 1_555 1_555
H19 C12 1_555 1_555
C13 S1 1_555 1_555
C14 C13 1_555 1_555
H20 C14 1_555 1_555
H21 C14 1_555 1_555
H22 C14 1_555 1_555
C15 C13 1_555 1_555
H23 C15 1_555 1_555
H24 C15 1_555 1_555
H25 C15 1_555 1_555
C16 C13 1_555 1_555
H26 C16 1_555 1_555
H27 C16 1_555 1_555
H28 C16 1_555 1_555
S2 O8 1_555 1_555
O9 S2 1_555 1_555
O10 C18 1_555 1_555
O11 C19 1_555 1_555
O12 C22 1_555 1_555
O13 C25 1_555 1_555
O14 C24 1_555 1_555
C17 O9 1_555 1_555
H29 C17 1_555 1_555
C18 C17 1_555 1_555
H30 C18 1_555 1_555
C19 O10 1_555 1_555
C20 C19 1_555 1_555
H31 C20 1_555 1_555
H32 C20 1_555 1_555
H33 C20 1_555 1_555
C21 C19 1_555 1_555
H34 C21 1_555 1_555
H35 C21 1_555 1_555
H36 C21 1_555 1_555
C22 O11 1_555 1_555
H37 C22 1_555 1_555
C23 O12 1_555 1_555
H38 C23 1_555 1_555
C24 C23 1_555 1_555
H39 C24 1_555 1_555
C25 C24 1_555 1_555
H40 C25 1_555 1_555
H41 C25 1_555 1_555
C26 O13 1_555 1_555
C27 C26 1_555 1_555
H42 C27 1_555 1_555
H43 C27 1_555 1_555
H44 C27 1_555 1_555
C28 C26 1_555 1_555
H45 C28 1_555 1_555
H46 C28 1_555 1_555
H47 C28 1_555 1_555
C29 S2 1_555 1_555
C30 C29 1_555 1_555
H48 C30 1_555 1_555
H49 C30 1_555 1_555
H50 C30 1_555 1_555
C31 C29 1_555 1_555
H51 C31 1_555 1_555
H52 C31 1_555 1_555
H53 C31 1_555 1_555
C32 C29 1_555 1_555
H54 C32 1_555 1_555
H55 C32 1_555 1_555
H56 C32 1_555 1_555
S3 O15 1_555 1_555
O16 S3 1_555 1_555
O17 C34 1_555 1_555
O18 C35 1_555 1_555
O19 C38 1_555 1_555
O20 C41 1_555 1_555
O21 C40 1_555 1_555
C33 O16 1_555 1_555
H57 C33 1_555 1_555
C34 C33 1_555 1_555
H58 C34 1_555 1_555
C35 O17 1_555 1_555
C36 C35 1_555 1_555
H59 C36 1_555 1_555
H60 C36 1_555 1_555
H61 C36 1_555 1_555
C37 C35 1_555 1_555
H62 C37 1_555 1_555
H63 C37 1_555 1_555
H64 C37 1_555 1_555
C38 O18 1_555 1_555
H65 C38 1_555 1_555
C39 O19 1_555 1_555
H66 C39 1_555 1_555
C40 C39 1_555 1_555
H67 C40 1_555 1_555
C41 C40 1_555 1_555
H68 C41 1_555 1_555
H69 C41 1_555 1_555
C42 O20 1_555 1_555
C43 C42 1_555 1_555
H70 C43 1_555 1_555
H71 C43 1_555 1_555
H72 C43 1_555 1_555
C44 C42 1_555 1_555
H73 C44 1_555 1_555
H74 C44 1_555 1_555
H75 C44 1_555 1_555
C45 S3 1_555 1_555
C46 C45 1_555 1_555
H76 C46 1_555 1_555
H77 C46 1_555 1_555
H78 C46 1_555 1_555
C47 C45 1_555 1_555
H79 C47 1_555 1_555
H80 C47 1_555 1_555
H81 C47 1_555 1_555
C48 C45 1_555 1_555
H82 C48 1_555 1_555
H83 C48 1_555 1_555
H84 C48 1_555 1_555
S4 O22 1_555 1_555
O23 S4 1_555 1_555
O24 C50 1_555 1_555
O25 C51 1_555 1_555
O26 C54 1_555 1_555
O27 C57 1_555 1_555
O28 C56 1_555 1_555
C49 O23 1_555 1_555
H85 C49 1_555 1_555
C50 C49 1_555 1_555
H86 C50 1_555 1_555
C51 O24 1_555 1_555
C52 C51 1_555 1_555
H87 C52 1_555 1_555
H88 C52 1_555 1_555
H89 C52 1_555 1_555
C53 C51 1_555 1_555
H90 C53 1_555 1_555
H91 C53 1_555 1_555
H92 C53 1_555 1_555
C54 O25 1_555 1_555
H93 C54 1_555 1_555
C55 O26 1_555 1_555
H94 C55 1_555 1_555
C56 C55 1_555 1_555
H95 C56 1_555 1_555
C57 C56 1_555 1_555
H96 C57 1_555 1_555
H97 C57 1_555 1_555
C58 O27 1_555 1_555
C59 C58 1_555 1_555
H98 C59 1_555 1_555
H99 C59 1_555 1_555
H100 C59 1_555 1_555
C60 C58 1_555 1_555
H101 C60 1_555 1_555
H102 C60 1_555 1_555
H103 C60 1_555 1_555
C61 S4 1_555 1_555
C62 C61 1_555 1_555
H104 C62 1_555 1_555
H105 C62 1_555 1_555
H106 C62 1_555 1_555
C63 C61 1_555 1_555
H107 C63 1_555 1_555
H108 C63 1_555 1_555
H109 C63 1_555 1_555
C64 C61 1_555 1_555
H110 C64 1_555 1_555
H111 C64 1_555 1_555
H112 C64 1_555 1_555
O7 C10 1_555 1_555
C1 C7 1_555 1_555
C2 C6 1_555 1_555
O14 C26 1_555 1_555
C17 C23 1_555 1_555
C18 C22 1_555 1_555
O21 C42 1_555 1_555
C33 C39 1_555 1_555
C34 C38 1_555 1_555
O28 C58 1_555 1_555
C49 C55 1_555 1_555
C50 C54 1_555 1_555

#END
