
#######################################################################
#
#                 Cambridge Crystallographic Data Centre
#                                CCDC 
#
#######################################################################
#
# If this CIF has been generated from an entry in the Cambridge 
# Structural Database, then it will include bibliographic, chemical, 
# crystal, experimental, refinement or atomic coordinate data resulting 
# from the CCDC's data processing and validation procedures.
#
#######################################################################

data_LIJMOH
_chemical_formula_moiety         'C25 H17 N5'
_chemical_name_systematic        
(E)-4-(2-(2-Phenylindolizin-3-yl)-1-(1,2,4-triazol-1-yl)vinyl)benzonitrile
_symmetry_cell_setting           triclinic
_symmetry_space_group_name_H-M   'P -1'
_symmetry_Int_Tables_number      2
_space_group_name_Hall           '-P 1'
loop_
_symmetry_equiv_pos_site_id
_symmetry_equiv_pos_as_xyz
1 x,y,z
2 -x,-y,-z
_cell_length_a                   9.947(5)
_cell_length_b                   9.996(5)
_cell_length_c                   10.833(5)
_cell_angle_alpha                83.381(5)
_cell_angle_beta                 74.695(6)
_cell_angle_gamma                76.924(6)
_cell_volume                     1010.22
_exptl_crystal_colour            yellow
_exptl_crystal_description       prism
_cell_formula_units_Z            2
_exptl_crystal_recrystallization_method 'petroleum ether/ethyl acetate'
loop_
_atom_site_label
_atom_site_type_symbol
_atom_site_fract_x
_atom_site_fract_y
_atom_site_fract_z
N1 N 0.38641(16) 0.43743(16) 0.64233(14)
N2 N -0.03197(16) 0.79181(15) 0.73271(14)
N3 N -0.16952(17) 0.78722(18) 0.79478(16)
N4 N -0.1620(2) 0.9431(2) 0.62648(18)
N5 N 0.0589(3) 0.6483(3) 1.4102(2)
C1 C 0.3291(2) 0.56631(19) 0.68966(17)
C2 C 0.4254(2) 0.5964(2) 0.75032(17)
C3 C 0.5397(2) 0.4840(2) 0.74142(19)
H1 H 0.6183 0.4772 0.7746
C4 C 0.5164(2) 0.3841(2) 0.67480(18)
C5 C 0.5885(2) 0.2513(2) 0.63865(19)
H2 H 0.6766 0.2148 0.6561
C6 C 0.5305(3) 0.1764(2) 0.5786(2)
H3 H 0.5774 0.0875 0.5571
C7 C 0.3985(3) 0.2329(2) 0.5484(2)
H4 H 0.3598 0.1814 0.5059
C8 C 0.3282(2) 0.3609(2) 0.58079(18)
H5 H 0.2408 0.3971 0.5616
C9 C 0.4068(2) 0.7238(2) 0.81463(18)
C10 C 0.4369(2) 0.7183(2) 0.9333(2)
H6 H 0.4740 0.6339 0.9700
C11 C 0.4124(3) 0.8362(3) 0.9976(2)
H7 H 0.4323 0.8304 1.0774
C12 C 0.3592(3) 0.9612(3) 0.9449(2)
H8 H 0.3408 1.0401 0.9895
C13 C 0.3329(2) 0.9699(2) 0.8258(2)
H9 H 0.3001 1.0553 0.7883
C14 C 0.3552(2) 0.8519(2) 0.76121(19)
H10 H 0.3353 0.8586 0.6812
C15 C 0.1904(2) 0.64008(19) 0.67592(18)
H11 H 0.1724 0.6450 0.5954
C16 C 0.08603(19) 0.70170(18) 0.76966(17)
C17 C 0.08146(18) 0.69058(19) 0.90751(17)
C18 C 0.13747(19) 0.5670(2) 0.96614(18)
H12 H 0.1789 0.4909 0.9172
C19 C 0.1329(2) 0.5549(2) 1.09464(19)
H13 H 0.1705 0.4713 1.1322
C20 C 0.0721(2) 0.6680(2) 1.16816(18)
C21 C 0.0155(2) 0.7910(2) 1.11187(19)
H14 H -0.0254 0.8669 1.1611
C22 C 0.0191(2) 0.8026(2) 0.98321(19)
H15 H -0.0206 0.8859 0.9465
C23 C -0.2408(2) 0.8792(2) 0.7270(2)
H16 H -0.3398 0.8993 0.7468
C24 C -0.0326(2) 0.8845(2) 0.6342(2)
H17 H 0.0492 0.9052 0.5776
C25 C 0.0644(2) 0.6565(3) 1.3034(2)
loop_
_geom_bond_atom_site_label_1
_geom_bond_atom_site_label_2
_geom_bond_site_symmetry_1
_geom_bond_site_symmetry_2
N1 C1 1_555 1_555
N2 N3 1_555 1_555
N3 C23 1_555 1_555
N4 C23 1_555 1_555
N5 C25 1_555 1_555
C1 C2 1_555 1_555
C2 C3 1_555 1_555
C3 H1 1_555 1_555
C4 N1 1_555 1_555
C5 C4 1_555 1_555
H2 C5 1_555 1_555
C6 C5 1_555 1_555
H3 C6 1_555 1_555
C7 C6 1_555 1_555
H4 C7 1_555 1_555
C8 N1 1_555 1_555
H5 C8 1_555 1_555
C9 C2 1_555 1_555
C10 C9 1_555 1_555
H6 C10 1_555 1_555
C11 C10 1_555 1_555
H7 C11 1_555 1_555
C12 C11 1_555 1_555
H8 C12 1_555 1_555
C13 C12 1_555 1_555
H9 C13 1_555 1_555
C14 C9 1_555 1_555
H10 C14 1_555 1_555
C15 C1 1_555 1_555
H11 C15 1_555 1_555
C16 N2 1_555 1_555
C17 C16 1_555 1_555
C18 C17 1_555 1_555
H12 C18 1_555 1_555
C19 C18 1_555 1_555
H13 C19 1_555 1_555
C20 C19 1_555 1_555
C21 C20 1_555 1_555
H14 C21 1_555 1_555
C22 C17 1_555 1_555
H15 C22 1_555 1_555
C23 H16 1_555 1_555
C24 N2 1_555 1_555
H17 C24 1_555 1_555
C25 C20 1_555 1_555
N4 C24 1_555 1_555
C3 C4 1_555 1_555
C7 C8 1_555 1_555
C13 C14 1_555 1_555
C15 C16 1_555 1_555
C21 C22 1_555 1_555

#END
