
#######################################################################
#
#                 Cambridge Crystallographic Data Centre
#                                CCDC 
#
#######################################################################
#
# If this CIF has been generated from an entry in the Cambridge 
# Structural Database, then it will include bibliographic, chemical, 
# crystal, experimental, refinement or atomic coordinate data resulting 
# from the CCDC's data processing and validation procedures.
#
#######################################################################

data_LIJNIC
_chemical_name_common            
N,N'-bis(N,N-Dimethyl-p-isopropylphenylamine)bis(ethoxycarbonyl)-glycoluril
_chemical_formula_moiety         'C32 H40 N6 O6'
_chemical_name_systematic        
'Diethyl 2,6-bis(4-isopropylphenyl)-4,8-dioxo-2,6,3a,4a,7a,8a-hexa-azaperhydrocyclopenta(def)fluorene-8b,8c-dicarboxylate'
_symmetry_cell_setting           triclinic
_symmetry_space_group_name_H-M   'P -1'
_symmetry_Int_Tables_number      2
_space_group_name_Hall           '-P 1'
loop_
_symmetry_equiv_pos_site_id
_symmetry_equiv_pos_as_xyz
1 x,y,z
2 -x,-y,-z
_cell_length_a                   10.1090(13)
_cell_length_b                   12.0760(16)
_cell_length_c                   13.3560(18)
_cell_angle_alpha                94.923(2)
_cell_angle_beta                 107.235(2)
_cell_angle_gamma                91.014(2)
_cell_volume                     1549.9
_exptl_crystal_colour            colorless
_exptl_crystal_description       block
_cell_formula_units_Z            2
loop_
_atom_site_label
_atom_site_type_symbol
_atom_site_fract_x
_atom_site_fract_y
_atom_site_fract_z
C1 C 0.8029(4) 0.3378(4) 0.7675(3)
H1 H 0.9015 0.3516 0.7942
H2 H 0.7736 0.2881 0.8099
H3 H 0.7576 0.4068 0.7699
C2 C 0.7693(4) 0.2918(6) 0.6675(4)
H4 H 0.7862 0.2168 0.6898
C3 C 0.8587(4) 0.2801(5) 0.6040(4)
H5 H 0.8314 0.3281 0.5484
H6 H 0.8533 0.2044 0.5743
H7 H 0.9522 0.3000 0.6462
C4 C 0.6189(3) 0.2613(5) 0.6094(3)
C5 C 0.5381(4) 0.3374(4) 0.5519(3)
H8 H 0.5773 0.4078 0.5524
C6 C 0.4001(3) 0.3147(3) 0.4927(2)
H9 H 0.3498 0.3685 0.4537
C7 C 0.3385(2) 0.2112(2) 0.49238(18)
C8 C 0.4174(3) 0.1347(3) 0.5515(2)
H10 H 0.3783 0.0651 0.5539
C9 C 0.5555(3) 0.1612(4) 0.6078(2)
H11 H 0.6067 0.1074 0.6462
C10 C 0.0931(3) 0.2609(2) 0.4350(2)
H12 H 0.1322 0.3359 0.4589
H13 H 0.0495 0.2368 0.4855
C11 C 0.1464(3) 0.0729(2) 0.3981(2)
H14 H 0.1020 0.0500 0.4487
H15 H 0.2203 0.0232 0.3969
C12 C 0.0131(2) 0.33010(19) 0.26148(19)
C13 C 0.0956(2) 0.05948(17) 0.20743(18)
C14 C -0.0621(2) 0.15017(18) 0.27892(17)
C15 C -0.1849(2) 0.1101(2) 0.31536(18)
C16 C -0.4158(3) 0.1497(3) 0.3121(2)
H16 H -0.4009 0.1655 0.3871
H17 H -0.4420 0.0714 0.2928
C17 C -0.5262(3) 0.2183(3) 0.2529(3)
H18 H -0.4988 0.2956 0.2719
H19 H -0.6102 0.2028 0.2697
H20 H -0.5414 0.2010 0.1788
C18 C -0.0971(2) 0.17054(17) 0.15953(17)
C19 C -0.2451(2) 0.13019(19) 0.09281(18)
C20 C -0.4616(3) 0.1772(2) -0.0195(2)
H21 H -0.5201 0.2404 -0.0233
H22 H -0.4998 0.1192 0.0111
C21 C -0.4605(3) 0.1357(3) -0.1274(2)
H23 H -0.4227 0.1932 -0.1577
H24 H -0.5535 0.1153 -0.1703
H25 H -0.4046 0.0719 -0.1238
C22 C -0.0256(3) 0.32243(19) 0.0719(2)
H26 H 0.0058 0.4002 0.0855
H27 H -0.1055 0.3145 0.0095
C23 C 0.0401(2) 0.13656(18) 0.03493(18)
H28 H -0.0386 0.1248 -0.0281
H29 H 0.1144 0.0917 0.0244
C24 C 0.1447(2) 0.29381(19) -0.02230(19)
C25 C 0.1541(3) 0.2275(2) -0.1101(2)
H30 H 0.1197 0.1541 -0.1217
C26 C 0.2139(3) 0.2695(2) -0.1802(2)
H31 H 0.2199 0.2230 -0.2378
C27 C 0.2645(3) 0.3770(2) -0.1678(2)
C28 C 0.2548(3) 0.4435(2) -0.0809(3)
H32 H 0.2876 0.5173 -0.0708
C29 C 0.1969(3) 0.4025(2) -0.0084(2)
H33 H 0.1933 0.4486 0.0501
C30 C 0.3317(3) 0.4201(3) -0.2465(3)
H34 H 0.3409 0.3554 -0.2931
C31 C 0.2418(4) 0.4985(3) -0.3153(3)
H35 H 0.2367 0.5663 -0.2736
H36 H 0.1504 0.4648 -0.3460
H37 H 0.2807 0.5146 -0.3701
C32 C 0.4765(4) 0.4688(4) -0.1925(3)
H38 H 0.5184 0.4890 -0.2445
H39 H 0.5308 0.4146 -0.1518
H40 H 0.4723 0.5336 -0.1469
N1 N 0.2021(2) 0.18694(18) 0.42762(18)
N2 N -0.00950(19) 0.25972(16) 0.33196(15)
N3 N 0.04502(19) 0.06902(15) 0.29320(15)
N4 N 0.00119(19) 0.10323(15) 0.12450(14)
N5 N -0.06466(19) 0.28778(15) 0.16120(15)
N6 N 0.0858(2) 0.25419(15) 0.05369(15)
O1 O 0.0824(2) 0.41615(14) 0.28468(16)
O2 O 0.20021(18) 0.01458(15) 0.20352(15)
O3 O -0.1824(2) 0.0326(2) 0.36445(18)
O4 O -0.28856(17) 0.17690(15) 0.28589(15)
O5 O -0.28085(18) 0.03424(15) 0.08548(16)
O6 O -0.32039(16) 0.21045(14) 0.04754(13)
loop_
_geom_bond_atom_site_label_1
_geom_bond_atom_site_label_2
_geom_bond_site_symmetry_1
_geom_bond_site_symmetry_2
C1 H1 1_555 1_555
H2 C1 1_555 1_555
H3 C1 1_555 1_555
C2 C1 1_555 1_555
H4 C2 1_555 1_555
C3 C2 1_555 1_555
H5 C3 1_555 1_555
H6 C3 1_555 1_555
H7 C3 1_555 1_555
C4 C2 1_555 1_555
C5 C4 1_555 1_555
H8 C5 1_555 1_555
C6 C5 1_555 1_555
H9 C6 1_555 1_555
C7 C6 1_555 1_555
C8 C7 1_555 1_555
H10 C8 1_555 1_555
C9 C4 1_555 1_555
H11 C9 1_555 1_555
C10 H12 1_555 1_555
H13 C10 1_555 1_555
C11 H14 1_555 1_555
H15 C11 1_555 1_555
C12 N2 1_555 1_555
C13 N3 1_555 1_555
C14 C15 1_555 1_555
C15 O3 1_555 1_555
C16 H16 1_555 1_555
H17 C16 1_555 1_555
C17 C16 1_555 1_555
H18 C17 1_555 1_555
H19 C17 1_555 1_555
H20 C17 1_555 1_555
C18 C14 1_555 1_555
C19 C18 1_555 1_555
C20 H21 1_555 1_555
H22 C20 1_555 1_555
C21 C20 1_555 1_555
H23 C21 1_555 1_555
H24 C21 1_555 1_555
H25 C21 1_555 1_555
C22 H26 1_555 1_555
H27 C22 1_555 1_555
C23 H28 1_555 1_555
H29 C23 1_555 1_555
C24 C25 1_555 1_555
C25 H30 1_555 1_555
C26 C25 1_555 1_555
H31 C26 1_555 1_555
C27 C26 1_555 1_555
C28 C27 1_555 1_555
H32 C28 1_555 1_555
C29 C24 1_555 1_555
H33 C29 1_555 1_555
C30 C27 1_555 1_555
H34 C30 1_555 1_555
C31 C30 1_555 1_555
H35 C31 1_555 1_555
H36 C31 1_555 1_555
H37 C31 1_555 1_555
C32 C30 1_555 1_555
H38 C32 1_555 1_555
H39 C32 1_555 1_555
H40 C32 1_555 1_555
N1 C7 1_555 1_555
N2 C10 1_555 1_555
N3 C11 1_555 1_555
N4 C13 1_555 1_555
N5 C12 1_555 1_555
N6 C22 1_555 1_555
O1 C12 1_555 1_555
O2 C13 1_555 1_555
O4 C15 1_555 1_555
O5 C19 1_555 1_555
O6 C19 1_555 1_555
C8 C9 1_555 1_555
C10 N1 1_555 1_555
C11 N1 1_555 1_555
C14 N2 1_555 1_555
C14 N3 1_555 1_555
C16 O4 1_555 1_555
C18 N4 1_555 1_555
C18 N5 1_555 1_555
C20 O6 1_555 1_555
C22 N5 1_555 1_555
C23 N4 1_555 1_555
C23 N6 1_555 1_555
C24 N6 1_555 1_555
C28 C29 1_555 1_555

#END
