
#######################################################################
#
#                 Cambridge Crystallographic Data Centre
#                                CCDC 
#
#######################################################################
#
# If this CIF has been generated from an entry in the Cambridge 
# Structural Database, then it will include bibliographic, chemical, 
# crystal, experimental, refinement or atomic coordinate data resulting 
# from the CCDC's data processing and validation procedures.
#
#######################################################################

data_LIJTAC
_chemical_formula_moiety         'C15 H23 N1 O1 S1,H2 O1'
_chemical_name_systematic        
'2-methyl-N-(3-phenylcyclopentyl)propane-2-sulfinamide monohydrate'
_symmetry_cell_setting           monoclinic
_symmetry_space_group_name_H-M   'C 2'
_symmetry_Int_Tables_number      5
_space_group_name_Hall           'C 2y'
loop_
_symmetry_equiv_pos_site_id
_symmetry_equiv_pos_as_xyz
1 x,y,z
2 -x,y,-z
3 1/2+x,1/2+y,z
4 1/2-x,1/2+y,-z
_cell_length_a                   26.1269(19)
_cell_length_b                   5.8782(4)
_cell_length_c                   11.2048(8)
_cell_angle_alpha                90
_cell_angle_beta                 109.145(5)
_cell_angle_gamma                90
_cell_volume                     1625.65
_exptl_crystal_colour            colorless
_exptl_crystal_description       rod
_cell_formula_units_Z            4
_exptl_crystal_recrystallization_method 
'Re-crystallisation from solvent: n-butyl acetate'
loop_
_atom_site_label
_atom_site_type_symbol
_atom_site_fract_x
_atom_site_fract_y
_atom_site_fract_z
S1 S 0.22535(3) 0.32578(17) 0.70983(7)
O1 O 0.21053(12) 0.4262(6) 0.8166(2)
N1 N 0.27053(11) 0.1233(7) 0.7579(3)
H1 H 0.2637 0.0485 0.8254
C1 C 0.44684(12) 0.2739(8) 1.1031(3)
C2 C 0.51547(14) 0.3105(12) 1.3522(3)
H2 H 0.5389 0.3225 1.4360
C3 C 0.12187(15) 0.3288(12) 0.5706(4)
H3 H 0.1324 0.4313 0.5149
H4 H 0.1166 0.4148 0.6396
H5 H 0.0883 0.2529 0.5236
C4 C 0.16591(13) 0.1532(8) 0.6232(3)
C5 C 0.44906(15) 0.1038(9) 1.1885(4)
H6 H 0.4270 -0.0255 1.1628
C6 C 0.41166(13) 0.2549(8) 0.9665(3)
H7 H 0.4215 0.3825 0.9206
C7 C 0.35060(13) 0.2690(8) 0.9411(3)
H8 H 0.3391 0.1638 0.9952
H9 H 0.3395 0.4238 0.9539
C8 C 0.47837(15) 0.4632(9) 1.1449(4)
H10 H 0.4767 0.5837 1.0886
C9 C 0.48409(16) 0.1209(9) 1.3144(4)
H11 H 0.4858 0.0025 1.3719
C10 C 0.51300(17) 0.4800(10) 1.2699(4)
H12 H 0.5346 0.6102 1.2964
C11 C 0.17860(19) 0.0266(11) 0.5190(4)
H13 H 0.1456 -0.0405 0.4624
H14 H 0.2048 -0.0925 0.5555
H15 H 0.1935 0.1314 0.4723
C12 C 0.41689(16) 0.0395(10) 0.8992(4)
H16 H 0.4222 -0.0907 0.9566
H17 H 0.4481 0.0494 0.8691
C13 C 0.32808(15) 0.1996(9) 0.8034(3)
H18 H 0.3318 0.3301 0.7510
C14 C 0.15120(17) -0.0056(10) 0.7149(4)
H19 H 0.1523 0.0782 0.7903
H20 H 0.1769 -0.1301 0.7378
H21 H 0.1150 -0.0656 0.6749
C15 C 0.36544(16) 0.0106(11) 0.7893(4)
H22 H 0.3493 -0.1389 0.7922
H23 H 0.3726 0.0251 0.7090
O2 O 0.22373(13) 0.2786(6) 1.0619(3)
H24 H 0.2478 0.1531 1.0937
H25 H 0.2225 0.3131 0.9773
loop_
_geom_bond_atom_site_label_1
_geom_bond_atom_site_label_2
_geom_bond_site_symmetry_1
_geom_bond_site_symmetry_2
S1 O1 1_555 1_555
N1 S1 1_555 1_555
H1 N1 1_555 1_555
C1 C5 1_555 1_555
C2 H2 1_555 1_555
C3 H3 1_555 1_555
H4 C3 1_555 1_555
H5 C3 1_555 1_555
C4 S1 1_555 1_555
C5 H6 1_555 1_555
C6 C1 1_555 1_555
H7 C6 1_555 1_555
C7 C6 1_555 1_555
H8 C7 1_555 1_555
H9 C7 1_555 1_555
C8 C1 1_555 1_555
H10 C8 1_555 1_555
C9 C2 1_555 1_555
H11 C9 1_555 1_555
C10 C2 1_555 1_555
H12 C10 1_555 1_555
C11 C4 1_555 1_555
H13 C11 1_555 1_555
H14 C11 1_555 1_555
H15 C11 1_555 1_555
C12 C6 1_555 1_555
H16 C12 1_555 1_555
H17 C12 1_555 1_555
C13 N1 1_555 1_555
H18 C13 1_555 1_555
C14 C4 1_555 1_555
H19 C14 1_555 1_555
H20 C14 1_555 1_555
H21 C14 1_555 1_555
C15 C12 1_555 1_555
H22 C15 1_555 1_555
H23 C15 1_555 1_555
O2 H24 1_555 1_555
H25 O2 1_555 1_555
C3 C4 1_555 1_555
C5 C9 1_555 1_555
C7 C13 1_555 1_555
C8 C10 1_555 1_555
C13 C15 1_555 1_555

#END
