
#######################################################################
#
#                 Cambridge Crystallographic Data Centre
#                                CCDC 
#
#######################################################################
#
# If this CIF has been generated from an entry in the Cambridge 
# Structural Database, then it will include bibliographic, chemical, 
# crystal, experimental, refinement or atomic coordinate data resulting 
# from the CCDC's data processing and validation procedures.
#
#######################################################################

data_LIJVOR
_chemical_formula_moiety         'C22 H14 N2'
_chemical_name_systematic        5,10-Dihydrobenzo[a]indolo[2,3-c]carbazole
_symmetry_cell_setting           orthorhombic
_symmetry_space_group_name_H-M   'F d d 2'
_symmetry_Int_Tables_number      43
_space_group_name_Hall           'F 2 -2d'
loop_
_symmetry_equiv_pos_site_id
_symmetry_equiv_pos_as_xyz
1 x,y,z
2 1/4-x,1/4+y,1/4+z
3 1/4+x,1/4-y,1/4+z
4 1/2-x,-y,1/2+z
5 x,1/2+y,1/2+z
6 1/4-x,3/4+y,3/4+z
7 1/4+x,3/4-y,3/4+z
8 1/2-x,1/2-y,z
9 1/2+x,y,1/2+z
10 3/4-x,1/4+y,3/4+z
11 3/4+x,1/4-y,3/4+z
12 -x,-y,z
13 1/2+x,1/2+y,z
14 3/4-x,3/4+y,1/4+z
15 3/4+x,3/4-y,1/4+z
16 -x,1/2-y,1/2+z
_cell_length_a                   20.059(7)
_cell_length_b                   57.22(2)
_cell_length_c                   5.3071(16)
_cell_angle_alpha                90
_cell_angle_beta                 90
_cell_angle_gamma                90
_cell_volume                     6091.36
_exptl_crystal_colour            'pale brown'
_exptl_crystal_description       needle
_cell_formula_units_Z            16
loop_
_atom_site_label
_atom_site_type_symbol
_atom_site_fract_x
_atom_site_fract_y
_atom_site_fract_z
N1 N 0.3214(3) 0.09953(10) -0.1611(11)
N2 N 0.2725(3) 0.03022(9) 0.5248(10)
C1 C 0.2627(3) 0.09950(10) -0.2934(11)
C2 C 0.2444(4) 0.11324(10) -0.4952(11)
C3 C 0.1814(4) 0.10951(12) -0.5986(12)
C4 C 0.1400(3) 0.09251(11) -0.5043(12)
C5 C 0.1594(3) 0.07878(10) -0.3026(11)
C6 C 0.2216(3) 0.08182(9) -0.1997(10)
C7 C 0.2550(4) 0.06998(10) 0.0040(10)
C8 C 0.3189(4) 0.08184(10) 0.0186(13)
C9 C 0.3700(4) 0.07657(13) 0.1947(12)
C10 C 0.4326(4) 0.08802(12) 0.2082(15)
C11 C 0.4780(4) 0.08251(16) 0.3818(18)
C12 C 0.4661(5) 0.06596(17) 0.5507(19)
C13 C 0.4078(5) 0.05405(12) 0.5552(15)
C14 C 0.3581(3) 0.05875(12) 0.3839(13)
C15 C 0.2927(4) 0.04698(11) 0.3658(12)
C16 C 0.2478(4) 0.05249(11) 0.1814(12)
C17 C 0.1874(4) 0.03608(10) 0.2352(11)
C18 C 0.1297(4) 0.03186(12) 0.1340(15)
C19 C 0.0874(4) 0.01656(14) 0.2258(16)
C20 C 0.1046(4) 0.00306(13) 0.4414(16)
C21 C 0.1660(5) 0.00652(12) 0.5570(13)
C22 C 0.2072(3) 0.02352(12) 0.4422(13)
H1 H 0.3551 0.1091 -0.1857
H2 H 0.2948 0.0245 0.6536
H3 H 0.2735 0.1248 -0.5612
H4 H 0.1670 0.1189 -0.7360
H5 H 0.0975 0.0901 -0.5787
H6 H 0.1299 0.0673 -0.2359
H7 H 0.4425 0.1000 0.0899
H8 H 0.5195 0.0905 0.3845
H9 H 0.4994 0.0624 0.6720
H10 H 0.4012 0.0423 0.6786
H11 H 0.1175 0.0402 -0.0136
H12 H 0.0452 0.0145 0.1480
H13 H 0.0743 -0.0082 0.5059
H14 H 0.1793 -0.0019 0.7027
loop_
_geom_bond_atom_site_label_1
_geom_bond_atom_site_label_2
_geom_bond_site_symmetry_1
_geom_bond_site_symmetry_2
N1 C1 1_555 1_555
N2 C15 1_555 1_555
C1 C2 1_555 1_555
C2 C3 1_555 1_555
C3 C4 1_555 1_555
C4 C5 1_555 1_555
C5 C6 1_555 1_555
C6 C1 1_555 1_555
C7 C6 1_555 1_555
C8 N1 1_555 1_555
C9 C8 1_555 1_555
C10 C9 1_555 1_555
C11 C10 1_555 1_555
C12 C11 1_555 1_555
C13 C12 1_555 1_555
C14 C9 1_555 1_555
C15 C14 1_555 1_555
C16 C7 1_555 1_555
C17 C16 1_555 1_555
C18 C17 1_555 1_555
C19 C18 1_555 1_555
C20 C19 1_555 1_555
C21 C20 1_555 1_555
C22 N2 1_555 1_555
H1 N1 1_555 1_555
H2 N2 1_555 1_555
H3 C2 1_555 1_555
H4 C3 1_555 1_555
H5 C4 1_555 1_555
H6 C5 1_555 1_555
H7 C10 1_555 1_555
H8 C11 1_555 1_555
H9 C12 1_555 1_555
H10 C13 1_555 1_555
H11 C18 1_555 1_555
H12 C19 1_555 1_555
H13 C20 1_555 1_555
H14 C21 1_555 1_555
C7 C8 1_555 1_555
C13 C14 1_555 1_555
C15 C16 1_555 1_555
C17 C22 1_555 1_555
C21 C22 1_555 1_555

#END
