
#######################################################################
#
#                 Cambridge Crystallographic Data Centre
#                                CCDC 
#
#######################################################################
#
# If this CIF has been generated from an entry in the Cambridge 
# Structural Database, then it will include bibliographic, chemical, 
# crystal, experimental, refinement or atomic coordinate data resulting 
# from the CCDC's data processing and validation procedures.
#
#######################################################################

data_LIJZEM
_chemical_formula_moiety         'C7 H8 N1 O2 1+,C2 Cl3 O2 1-'
_chemical_name_systematic        '4-carboxyanilinium trichloroacetate'
_symmetry_cell_setting           monoclinic
_symmetry_space_group_name_H-M   'P 21/c'
_symmetry_Int_Tables_number      14
_space_group_name_Hall           '-P 2ybc'
loop_
_symmetry_equiv_pos_site_id
_symmetry_equiv_pos_as_xyz
1 x,y,z
2 -x,1/2+y,1/2-z
3 -x,-y,-z
4 x,1/2-y,1/2+z
_cell_length_a                   7.911(7)
_cell_length_b                   21.006(19)
_cell_length_c                   7.043(6)
_cell_angle_alpha                90
_cell_angle_beta                 97.714(13)
_cell_angle_gamma                90
_cell_volume                     1159.8
_exptl_crystal_colour            colorless
_exptl_crystal_description       block
_cell_formula_units_Z            4
loop_
_atom_site_label
_atom_site_type_symbol
_atom_site_fract_x
_atom_site_fract_y
_atom_site_fract_z
Cl1 Cl 0.5594(2) 0.05527(11) 0.1974(3)
Cl2 Cl 0.7556(3) -0.01228(12) 0.4994(3)
Cl3 Cl 0.8297(3) -0.02522(10) 0.1182(3)
O1 O 0.9503(6) 0.1018(2) 0.1751(7)
O2 O 0.8890(8) 0.1132(3) 0.4639(8)
C1 C 0.8794(9) 0.0874(3) 0.3137(10)
C2 C 0.7651(9) 0.0279(3) 0.2821(10)
N1 N 0.8619(7) 0.3502(3) 0.3158(7)
H1 H 0.9441 0.3211 0.3201
H2 H 0.8782 0.3739 0.4214
H3 H 0.8642 0.3749 0.2135
O3 O 0.2302(6) 0.1677(3) 0.2428(8)
H4 H 0.1336 0.1528 0.2327
O4 O 0.0916(6) 0.2572(3) 0.2407(9)
C3 C 0.2221(9) 0.2289(4) 0.2531(10)
C4 C 0.3914(8) 0.2601(3) 0.2713(9)
C5 C 0.3987(9) 0.3241(3) 0.2476(10)
H5 H 0.2988 0.3477 0.2210
C6 C 0.5561(9) 0.3541(3) 0.2633(10)
H6 H 0.5638 0.3979 0.2462
C7 C 0.6970(8) 0.3185(3) 0.3036(9)
C8 C 0.6945(9) 0.2556(3) 0.3262(10)
H7 H 0.7955 0.2326 0.3515
C9 C 0.5378(9) 0.2252(3) 0.3112(10)
H8 H 0.5323 0.1814 0.3282
loop_
_geom_bond_atom_site_label_1
_geom_bond_atom_site_label_2
_geom_bond_site_symmetry_1
_geom_bond_site_symmetry_2
Cl1 C2 1_555 1_555
Cl2 C2 1_555 1_555
Cl3 C2 1_555 1_555
O1 C1 1_555 1_555
O2 C1 1_555 1_555
C1 C2 1_555 1_555
N1 H1 1_555 1_555
H2 N1 1_555 1_555
H3 N1 1_555 1_555
O3 H4 1_555 1_555
O4 C3 1_555 1_555
C3 O3 1_555 1_555
C4 C3 1_555 1_555
C5 C4 1_555 1_555
H5 C5 1_555 1_555
C6 C5 1_555 1_555
H6 C6 1_555 1_555
C7 N1 1_555 1_555
C8 C7 1_555 1_555
H7 C8 1_555 1_555
C9 C4 1_555 1_555
H8 C9 1_555 1_555
C6 C7 1_555 1_555
C8 C9 1_555 1_555

#END
