
#######################################################################
#
#                 Cambridge Crystallographic Data Centre
#                                CCDC 
#
#######################################################################
#
# If this CIF has been generated from an entry in the Cambridge 
# Structural Database, then it will include bibliographic, chemical, 
# crystal, experimental, refinement or atomic coordinate data resulting 
# from the CCDC's data processing and validation procedures.
#
#######################################################################

data_LIJZOW
_chemical_formula_moiety         'C8 H4 N1 O6 1-,C7 H8 N1 O2 1+,H2 O1'
_chemical_name_systematic        
'2-carboxyanilinium 2-carboxy-6-nitrobenzoate monohydrate'
_symmetry_cell_setting           monoclinic
_symmetry_space_group_name_H-M   'P 21'
_symmetry_Int_Tables_number      4
_space_group_name_Hall           'P 2yb'
loop_
_symmetry_equiv_pos_site_id
_symmetry_equiv_pos_as_xyz
1 x,y,z
2 -x,1/2+y,-z
_cell_length_a                   7.1795(6)
_cell_length_b                   7.9002(7)
_cell_length_c                   14.1303(12)
_cell_angle_alpha                90
_cell_angle_beta                 94.0310(10)
_cell_angle_gamma                90
_cell_volume                     799.481
_exptl_crystal_colour            colorless
_exptl_crystal_description       block
_cell_formula_units_Z            2
loop_
_atom_site_label
_atom_site_type_symbol
_atom_site_fract_x
_atom_site_fract_y
_atom_site_fract_z
N1 N 0.1479(4) 0.8157(3) 0.35020(16)
H1 H 0.1576 0.9216 0.3714
H2 H 0.2458 0.7559 0.3734
H3 H 0.0435 0.7695 0.3689
O1 O 0.1233(3) 0.4843(3) 0.32627(16)
H4 H 0.1287 0.3854 0.3438
O2 O 0.1689(6) 0.3672(3) 0.1885(2)
C1 C 0.1463(5) 0.4917(5) 0.2353(3)
C2 C 0.1432(5) 0.6645(4) 0.1946(2)
C3 C 0.1424(4) 0.8158(4) 0.2461(2)
C4 C 0.1382(5) 0.9704(4) 0.2016(2)
H5 H 0.1385 1.0692 0.2374
C5 C 0.1336(5) 0.9800(5) 0.1044(2)
H6 H 0.1313 1.0849 0.0746
C6 C 0.1323(6) 0.8341(5) 0.0515(2)
H7 H 0.1269 0.8398 -0.0144
C7 C 0.1392(5) 0.6785(4) 0.0967(2)
H8 H 0.1412 0.5805 0.0603
N2 N 0.6469(4) 0.6703(4) 0.15069(19)
O3 O 0.7359(4) 1.1824(3) 0.45625(15)
O4 O 0.4961(3) 1.0045(3) 0.46441(14)
H9 H 0.5039 1.0331 0.5203
O5 O 0.7984(3) 0.7212(3) 0.40932(14)
O6 O 0.5055(3) 0.6398(3) 0.37110(13)
O7 O 0.7100(4) 0.5611(3) 0.20450(18)
O8 O 0.6025(4) 0.6448(4) 0.06727(16)
C8 C 0.6253(5) 1.0805(4) 0.4202(2)
C9 C 0.6484(5) 0.7281(4) 0.3606(2)
C10 C 0.6243(5) 1.0350(4) 0.3170(2)
C11 C 0.6328(5) 0.8667(4) 0.2860(2)
C12 C 0.6285(5) 0.8419(4) 0.1885(2)
C13 C 0.6140(5) 0.9738(5) 0.1243(2)
H10 H 0.6091 0.9519 0.0595
C14 C 0.6068(6) 1.1370(5) 0.1564(2)
H11 H 0.5966 1.2262 0.1134
C15 C 0.6149(5) 1.1693(5) 0.2531(2)
H12 H 0.6140 1.2802 0.2752
O9 O 0.9022(3) 0.6740(3) 0.59451(13)
H13 H 0.8489 0.6885 0.5395
H14 H 1.0195 0.6740 0.5895
loop_
_geom_bond_atom_site_label_1
_geom_bond_atom_site_label_2
_geom_bond_site_symmetry_1
_geom_bond_site_symmetry_2
N1 H1 1_555 1_555
H2 N1 1_555 1_555
H3 N1 1_555 1_555
O1 H4 1_555 1_555
O2 C1 1_555 1_555
C1 O1 1_555 1_555
C2 C1 1_555 1_555
C3 N1 1_555 1_555
C4 C3 1_555 1_555
H5 C4 1_555 1_555
C5 C4 1_555 1_555
H6 C5 1_555 1_555
C6 C5 1_555 1_555
H7 C6 1_555 1_555
C7 C2 1_555 1_555
H8 C7 1_555 1_555
N2 O7 1_555 1_555
O3 C8 1_555 1_555
O4 H9 1_555 1_555
O5 C9 1_555 1_555
O6 C9 1_555 1_555
O8 N2 1_555 1_555
C8 O4 1_555 1_555
C9 C11 1_555 1_555
C10 C8 1_555 1_555
C11 C10 1_555 1_555
C12 N2 1_555 1_555
C13 C12 1_555 1_555
H10 C13 1_555 1_555
C14 C13 1_555 1_555
H11 C14 1_555 1_555
C15 C10 1_555 1_555
H12 C15 1_555 1_555
O9 H13 1_555 1_555
H14 O9 1_555 1_555
C2 C3 1_555 1_555
C6 C7 1_555 1_555
C11 C12 1_555 1_555
C14 C15 1_555 1_555

#END
