
#######################################################################
#
#                 Cambridge Crystallographic Data Centre
#                                CCDC 
#
#######################################################################
#
# If this CIF has been generated from an entry in the Cambridge 
# Structural Database, then it will include bibliographic, chemical, 
# crystal, experimental, refinement or atomic coordinate data resulting 
# from the CCDC's data processing and validation procedures.
#
#######################################################################

data_LIJZUC
_chemical_formula_moiety         'C10 H6 O6 S2 2-,2(C7 H8 N1 O2 1+)'
_chemical_name_systematic        
'bis(4-carboxyanilinium) naphthalene-1,5-disulfonate'
_symmetry_cell_setting           triclinic
_symmetry_space_group_name_H-M   'P -1'
_symmetry_Int_Tables_number      2
_space_group_name_Hall           '-P 1'
loop_
_symmetry_equiv_pos_site_id
_symmetry_equiv_pos_as_xyz
1 x,y,z
2 -x,-y,-z
_cell_length_a                   7.3585(6)
_cell_length_b                   8.1496(7)
_cell_length_c                   10.3205(9)
_cell_angle_alpha                79.4300(10)
_cell_angle_beta                 82.931(2)
_cell_angle_gamma                76.8170(10)
_cell_volume                     590.236
_exptl_crystal_colour            colorless
_exptl_crystal_description       BLOCK
_cell_formula_units_Z            1
loop_
_atom_site_label
_atom_site_type_symbol
_atom_site_fract_x
_atom_site_fract_y
_atom_site_fract_z
N1 N 0.1478(3) 0.9570(2) 0.21035(17)
H1 H 0.0398 1.0161 0.2424
H2 H 0.1482 0.9665 0.1230
H3 H 0.2421 0.9977 0.2293
O1 O 0.1451(3) 0.1674(2) 0.39791(17)
O2 O 0.3006(3) 0.2199(2) 0.55013(17)
H4 H 0.3029 0.1191 0.5803
C1 C 0.2143(3) 0.2619(3) 0.4412(2)
C2 C 0.2054(3) 0.4432(3) 0.3811(2)
C3 C 0.2611(4) 0.5550(3) 0.4447(2)
H5 H 0.3125 0.5156 0.5255
C4 C 0.2416(4) 0.7243(3) 0.3902(2)
H6 H 0.2765 0.8009 0.4340
C5 C 0.1694(3) 0.7775(3) 0.2699(2)
C6 C 0.1149(3) 0.6687(3) 0.2044(2)
H7 H 0.0658 0.7081 0.1228
C7 C 0.1333(4) 0.5010(3) 0.2602(2)
H8 H 0.0969 0.4254 0.2162
O3 O 0.2424(2) 0.9312(2) -0.29189(15)
O4 O 0.2137(2) 0.9629(2) -0.06549(15)
O5 O 0.5107(2) 0.9506(2) -0.19085(18)
S1 S 0.33744(7) 0.89600(6) -0.17177(5)
C8 C 0.3428(3) 0.4037(3) -0.1653(2)
H9 H 0.2962 0.3421 -0.2163
C9 C 0.3142(3) 0.5808(3) -0.1989(2)
H10 H 0.2469 0.6367 -0.2707
C10 C 0.3848(3) 0.6714(3) -0.1269(2)
C11 C 0.4878(3) 0.5903(3) -0.01682(19)
C12 C 0.5633(3) 0.6796(3) 0.0602(2)
H11 H 0.5483 0.7976 0.0384
O3A O 0.7576(2) 0.0688(2) 0.29189(15)
O4A O 0.7863(2) 0.0371(2) 0.06549(15)
O5A O 0.4893(2) 0.0494(2) 0.19085(18)
S1A S 0.66256(7) 0.10400(6) 0.17177(5)
C8A C 0.6572(3) 0.5963(3) 0.1653(2)
H9A H 0.7038 0.6579 0.2163
C9A C 0.6858(3) 0.4192(3) 0.1989(2)
H10A H 0.7531 0.3633 0.2707
C10A C 0.6152(3) 0.3286(3) 0.1269(2)
C11A C 0.5122(3) 0.4097(3) 0.01682(19)
C12A C 0.4367(3) 0.3204(3) -0.0602(2)
H11A H 0.4517 0.2024 -0.0384
loop_
_geom_bond_atom_site_label_1
_geom_bond_atom_site_label_2
_geom_bond_site_symmetry_1
_geom_bond_site_symmetry_2
N1 H1 1_555 1_555
H2 N1 1_555 1_555
H3 N1 1_555 1_555
O1 C1 1_555 1_555
O2 H4 1_555 1_555
C1 O2 1_555 1_555
C2 C1 1_555 1_555
C3 C2 1_555 1_555
H5 C3 1_555 1_555
C4 C3 1_555 1_555
H6 C4 1_555 1_555
C5 N1 1_555 1_555
C6 C5 1_555 1_555
H7 C6 1_555 1_555
C7 C2 1_555 1_555
H8 C7 1_555 1_555
O3 S1 1_555 1_555
O4 S1 1_555 1_555
O5 S1 1_555 1_555
S1 C10 1_555 1_555
C8 H9 1_555 1_555
C9 C8 1_555 1_555
H10 C9 1_555 1_555
C10 C9 1_555 1_555
C11 C10 1_555 1_555
C12 C11 1_555 1_555
H11 C12 1_555 1_555
O3A S1A 1_555 1_555
O4A S1A 1_555 1_555
O5A S1A 1_555 1_555
S1A C10A 1_555 1_555
C8A C12 1_555 1_555
H9A C8A 1_555 1_555
C9A C8A 1_555 1_555
H10A C9A 1_555 1_555
C10A C9A 1_555 1_555
C11A C11 1_555 1_555
C12A C8 1_555 1_555
H11A C12A 1_555 1_555
C4 C5 1_555 1_555
C6 C7 1_555 1_555
C10A C11A 1_555 1_555
C11A C12A 1_555 1_555

#END
