
#######################################################################
#
#                 Cambridge Crystallographic Data Centre
#                                CCDC 
#
#######################################################################
#
# If this CIF has been generated from an entry in the Cambridge 
# Structural Database, then it will include bibliographic, chemical, 
# crystal, experimental, refinement or atomic coordinate data resulting 
# from the CCDC's data processing and validation procedures.
#
#######################################################################

data_LIKBEP
_chemical_formula_moiety         'C24 H20 B1 1-,C14 H20 N1 O4 1+'
_chemical_name_systematic        
'1-(5-carboxypentyl)-3-(ethoxycarbonyl)pyridin-1-ium tetraphenylborate'
_symmetry_cell_setting           monoclinic
_symmetry_space_group_name_H-M   'P 21/c'
_symmetry_Int_Tables_number      14
_space_group_name_Hall           '-P 2ybc'
loop_
_symmetry_equiv_pos_site_id
_symmetry_equiv_pos_as_xyz
1 x,y,z
2 -x,1/2+y,1/2-z
3 -x,-y,-z
4 x,1/2-y,1/2+z
_cell_length_a                   13.5715(12)
_cell_length_b                   10.6930(9)
_cell_length_c                   21.9043(16)
_cell_angle_alpha                90
_cell_angle_beta                 99.931(2)
_cell_angle_gamma                90
_cell_volume                     3131.12
_exptl_crystal_colour            'yellow green'
_exptl_crystal_description       Columnar
_cell_formula_units_Z            4
loop_
_atom_site_label
_atom_site_type_symbol
_atom_site_fract_x
_atom_site_fract_y
_atom_site_fract_z
O1 O 0.70580(10) 1.11079(12) 0.82776(6)
O2 O 0.93002(10) 0.05701(13) 0.93027(6)
H1 H 0.9408 -0.0038 0.9548
O3 O 0.62966(10) 1.20374(13) 0.89950(6)
O4 O 1.04433(10) 0.14677(13) 1.00259(6)
N1 N 0.73920(11) 0.78372(14) 0.92272(6)
C1 C 0.74844(19) 1.2036(2) 0.73727(11)
H2 H 0.8184 1.1786 0.7504
H3 H 0.7456 1.2796 0.7121
H4 H 0.7119 1.1363 0.7128
C2 C 0.70175(15) 1.22841(19) 0.79336(9)
H5 H 0.7392 1.2945 0.8193
H6 H 0.6316 1.2561 0.7809
C3 C 0.66592(13) 1.11316(19) 0.87912(8)
C4 C 0.67147(13) 0.98803(18) 0.90971(8)
C5 C 0.73149(13) 0.89474(18) 0.89308(8)
H7 H 0.7679 0.9087 0.8604
C6 C 0.80419(14) 0.68752(18) 0.90006(8)
H8 H 0.8718 0.7235 0.9015
H9 H 0.7768 0.6686 0.8562
C7 C 0.81404(14) 0.56691(18) 0.93604(8)
H10 H 0.7476 0.5270 0.9332
H11 H 0.8404 0.5840 0.9803
C8 C 0.88468(15) 0.47965(18) 0.90978(9)
H12 H 0.8582 0.4644 0.8654
H13 H 0.9507 0.5207 0.9127
C9 C 0.89793(15) 0.35512(18) 0.94366(9)
H14 H 0.8321 0.3136 0.9408
H15 H 0.9247 0.3699 0.9880
C10 C 0.96947(15) 0.26912(19) 0.91615(9)
H16 H 0.9413 0.2502 0.8724
H17 H 1.0346 0.3116 0.9173
C11 C 0.98458(14) 0.15038(18) 0.95248(9)
C12 C 0.68780(13) 0.76188(18) 0.96915(8)
H18 H 0.6947 0.6837 0.9901
C13 C 0.62557(14) 0.85160(19) 0.98647(8)
H19 H 0.5886 0.8350 1.0187
C14 C 0.61712(13) 0.96601(18) 0.95679(8)
H20 H 0.5746 1.0289 0.9685
C15 C 1.02048(14) 0.7524(2) 0.32063(8)
H21 H 1.0815 0.7420 0.3488
C16 C 0.99409(14) 0.86790(19) 0.29431(8)
H22 H 1.0369 0.9378 0.3049
C17 C 0.90516(13) 0.88232(18) 0.25240(8)
H23 H 0.8886 0.9627 0.2352
C18 C 0.83907(13) 0.78286(17) 0.23461(8)
C19 C 0.65124(12) 0.81536(17) 0.23734(8)
C20 C 0.59883(13) 0.71425(18) 0.25705(8)
H24 H 0.6048 0.6343 0.2391
C21 C 0.53855(14) 0.72697(19) 0.30186(8)
H25 H 0.5042 0.6560 0.3138
C22 C 0.52779(14) 0.84138(19) 0.32936(8)
H26 H 0.4861 0.8498 0.3598
C23 C 0.73234(14) 1.13382(18) 0.06413(8)
H27 H 0.7339 1.2056 0.0387
C24 C 0.64933(14) 1.10815(18) 0.09078(8)
H28 H 0.5930 1.1622 0.0832
C25 C 0.64756(13) 1.00412(17) 0.12861(8)
H29 H 0.5887 0.9876 0.1452
C26 C 0.72923(13) 0.92251(17) 0.14329(8)
C27 C 0.81090(13) 0.95008(17) 0.11382(8)
H30 H 0.8672 0.8958 0.1207
C28 C 0.81337(14) 1.05260(18) 0.07522(8)
H31 H 0.8704 1.0672 0.0564
C29 C 0.57903(14) 0.94353(19) 0.31161(8)
H32 H 0.5729 1.0229 0.3301
C30 C 0.63953(13) 0.92990(18) 0.26677(8)
H33 H 0.6744 1.0010 0.2556
C31 C 0.70304(13) 0.67966(17) 0.14224(8)
C32 C 0.60409(14) 0.65619(17) 0.11353(8)
H34 H 0.5526 0.7097 0.1226
C33 C 0.57842(14) 0.55788(18) 0.07244(8)
H35 H 0.5105 0.5459 0.0538
C34 C 0.65136(15) 0.47707(18) 0.05848(8)
H36 H 0.6339 0.4089 0.0309
C35 C 0.74990(14) 0.49762(18) 0.08543(8)
H37 H 0.8008 0.4433 0.0763
C36 C 0.77472(14) 0.59750(17) 0.12582(8)
H38 H 0.8431 0.6106 0.1430
C37 C 0.95632(14) 0.65207(19) 0.30513(8)
H39 H 0.9729 0.5724 0.3232
C38 C 0.86771(13) 0.66766(18) 0.26313(8)
H40 H 0.8249 0.5976 0.2534
B1 B 0.73064(15) 0.80000(19) 0.18878(9)
loop_
_geom_bond_atom_site_label_1
_geom_bond_atom_site_label_2
_geom_bond_site_symmetry_1
_geom_bond_site_symmetry_2
O1 C2 1_555 1_555
O2 H1 1_555 1_555
O3 C3 1_555 1_555
O4 C11 1_555 1_555
N1 C5 1_555 1_555
C1 H2 1_555 1_555
H3 C1 1_555 1_555
H4 C1 1_555 1_555
C2 C1 1_555 1_555
H5 C2 1_555 1_555
H6 C2 1_555 1_555
C3 O1 1_555 1_555
C4 C3 1_555 1_555
C5 C4 1_555 1_555
H7 C5 1_555 1_555
C6 N1 1_555 1_555
H8 C6 1_555 1_555
H9 C6 1_555 1_555
C7 C6 1_555 1_555
H10 C7 1_555 1_555
H11 C7 1_555 1_555
C8 C7 1_555 1_555
H12 C8 1_555 1_555
H13 C8 1_555 1_555
C9 C8 1_555 1_555
H14 C9 1_555 1_555
H15 C9 1_555 1_555
C10 C9 1_555 1_555
H16 C10 1_555 1_555
H17 C10 1_555 1_555
C11 O2 1_555 1_555
C12 N1 1_555 1_555
H18 C12 1_555 1_555
C13 C12 1_555 1_555
H19 C13 1_555 1_555
C14 C4 1_555 1_555
H20 C14 1_555 1_555
C15 H21 1_555 1_555
C16 C15 1_555 1_555
H22 C16 1_555 1_555
C17 C16 1_555 1_555
H23 C17 1_555 1_555
C18 C17 1_555 1_555
C19 C20 1_555 1_555
C20 H24 1_555 1_555
C21 C20 1_555 1_555
H25 C21 1_555 1_555
C22 C21 1_555 1_555
H26 C22 1_555 1_555
C23 H27 1_555 1_555
C24 C23 1_555 1_555
H28 C24 1_555 1_555
C25 C24 1_555 1_555
H29 C25 1_555 1_555
C26 C25 1_555 1_555
C27 C26 1_555 1_555
H30 C27 1_555 1_555
C28 C23 1_555 1_555
H31 C28 1_555 1_555
C29 C22 1_555 1_555
H32 C29 1_555 1_555
C30 C19 1_555 1_555
H33 C30 1_555 1_555
C31 C32 1_555 1_555
C32 H34 1_555 1_555
C33 C32 1_555 1_555
H35 C33 1_555 1_555
C34 C33 1_555 1_555
H36 C34 1_555 1_555
C35 C34 1_555 1_555
H37 C35 1_555 1_555
C36 C31 1_555 1_555
H38 C36 1_555 1_555
C37 C15 1_555 1_555
H39 C37 1_555 1_555
C38 C18 1_555 1_555
H40 C38 1_555 1_555
B1 C18 1_555 1_555
C10 C11 1_555 1_555
C13 C14 1_555 1_555
C19 B1 1_555 1_555
C26 B1 1_555 1_555
C27 C28 1_555 1_555
C29 C30 1_555 1_555
C31 B1 1_555 1_555
C35 C36 1_555 1_555
C37 C38 1_555 1_555

#END
