
#######################################################################
#
#                 Cambridge Crystallographic Data Centre
#                                CCDC 
#
#######################################################################
#
# If this CIF has been generated from an entry in the Cambridge 
# Structural Database, then it will include bibliographic, chemical, 
# crystal, experimental, refinement or atomic coordinate data resulting 
# from the CCDC's data processing and validation procedures.
#
#######################################################################

data_LIKBIT
_chemical_formula_moiety         'C14 H20 N1 O4 1+,Br1 1-'
_chemical_name_systematic        
'1-(5-carboxypentyl)-3-(ethoxycarbonyl)pyridin-1-ium bromide'
_symmetry_cell_setting           triclinic
_symmetry_space_group_name_H-M   'P -1'
_symmetry_Int_Tables_number      2
_space_group_name_Hall           '-P 1'
loop_
_symmetry_equiv_pos_site_id
_symmetry_equiv_pos_as_xyz
1 x,y,z
2 -x,-y,-z
_cell_length_a                   7.6544(2)
_cell_length_b                   10.3806(3)
_cell_length_c                   10.4938(3)
_cell_angle_alpha                105.5910(13)
_cell_angle_beta                 102.9580(12)
_cell_angle_gamma                95.4460(13)
_cell_volume                     771.908
_exptl_crystal_colour            colorless
_exptl_crystal_description       Acicular
_cell_formula_units_Z            2
loop_
_atom_site_label
_atom_site_type_symbol
_atom_site_fract_x
_atom_site_fract_y
_atom_site_fract_z
Br1 Br 0.29138(3) 0.13971(2) 0.23224(2)
C1 C 0.3336(3) 1.0497(3) 0.6897(3)
H1 H 0.4413 1.0127 0.7112
C2 C 0.3097(3) 1.1139(3) 0.5903(3)
H2 H 0.3988 1.1188 0.5409
C3 C 0.1549(3) 1.1720(2) 0.5618(3)
H3 H 0.1383 1.2187 0.4946
C4 C 0.0248(3) 1.1606(2) 0.6333(2)
C5 C 0.0521(3) 1.0920(2) 0.7302(2)
H4 H -0.0376 1.0824 0.7780
C6 C -0.1464(3) 1.2197(2) 0.6131(2)
C7 C -0.3007(3) 1.3757(3) 0.5230(3)
H5 H -0.3412 1.4020 0.6083
H6 H -0.4018 1.3136 0.4495
C8 C -0.2458(4) 1.4986(3) 0.4836(3)
H7 H -0.1480 1.5602 0.5582
H8 H -0.3505 1.5448 0.4661
H9 H -0.2029 1.4713 0.4005
C9 C 0.2359(4) 0.9741(3) 0.8695(3)
H10 H 0.1493 0.9991 0.9257
H11 H 0.3602 1.0109 0.9293
C10 C 0.2151(4) 0.8207(3) 0.8195(3)
H12 H 0.3065 0.7936 0.7684
H13 H 0.0926 0.7820 0.7573
C11 C 0.2421(5) 0.7681(3) 0.9434(3)
H14 H 0.3620 0.8132 1.0067
H15 H 0.1483 0.7958 0.9918
C12 C 0.2334(4) 0.6161(3) 0.9141(3)
H16 H 0.3269 0.5860 0.8663
H17 H 0.1127 0.5688 0.8539
C13 C 0.2661(5) 0.5808(3) 1.0482(3)
H18 H 0.3860 0.6313 1.1072
H19 H 0.1731 0.6142 1.0950
C14 C 0.2622(4) 0.4340(3) 1.0387(3)
N1 N 0.2038(3) 1.0387(2) 0.7574(2)
O1 O 0.2868(5) 0.4171(3) 1.1620(2)
O2 O -0.2718(3) 1.1884(2) 0.6565(2)
O3 O -0.1406(2) 1.30915(18) 0.54396(19)
O4 O 0.2426(4) 0.3431(2) 0.9365(2)
H20 H 0.311(6) 0.359(5) 1.158(5)
loop_
_geom_bond_atom_site_label_1
_geom_bond_atom_site_label_2
_geom_bond_site_symmetry_1
_geom_bond_site_symmetry_2
C1 H1 1_555 1_555
C2 C1 1_555 1_555
H2 C2 1_555 1_555
C3 C2 1_555 1_555
H3 C3 1_555 1_555
C4 C3 1_555 1_555
C5 C4 1_555 1_555
H4 C5 1_555 1_555
C6 C4 1_555 1_555
C7 H5 1_555 1_555
H6 C7 1_555 1_555
C8 C7 1_555 1_555
H7 C8 1_555 1_555
H8 C8 1_555 1_555
H9 C8 1_555 1_555
C9 H10 1_555 1_555
H11 C9 1_555 1_555
C10 C9 1_555 1_555
H12 C10 1_555 1_555
H13 C10 1_555 1_555
C11 C10 1_555 1_555
H14 C11 1_555 1_555
H15 C11 1_555 1_555
C12 C11 1_555 1_555
H16 C12 1_555 1_555
H17 C12 1_555 1_555
C13 C12 1_555 1_555
H18 C13 1_555 1_555
H19 C13 1_555 1_555
C14 C13 1_555 1_555
N1 C1 1_555 1_555
O1 C14 1_555 1_555
O2 C6 1_555 1_555
O3 C6 1_555 1_555
O4 C14 1_555 1_555
H20 O1 1_555 1_555
C5 N1 1_555 1_555
C7 O3 1_555 1_555
C9 N1 1_555 1_555

#END
