
#######################################################################
#
#                 Cambridge Crystallographic Data Centre
#                                CCDC 
#
#######################################################################
#
# If this CIF has been generated from an entry in the Cambridge 
# Structural Database, then it will include bibliographic, chemical, 
# crystal, experimental, refinement or atomic coordinate data resulting 
# from the CCDC's data processing and validation procedures.
#
#######################################################################

data_LIKCEO
_chemical_compound_source        'roots of Gypsophila oldhamiana'
_chemical_formula_moiety         'C41 H53 N7 O8,0.5(H2 O1)'
_chemical_name_systematic        'Gypsophin hemihydrate'
_chemical_properties_biological  'inhibitory activity against alpha-glucosidase'
_symmetry_cell_setting           monoclinic
_symmetry_space_group_name_H-M   'P 21'
_symmetry_Int_Tables_number      4
_space_group_name_Hall           'P 2yb'
loop_
_symmetry_equiv_pos_site_id
_symmetry_equiv_pos_as_xyz
1 x,y,z
2 -x,1/2+y,-z
_cell_length_a                   9.830(2)
_cell_length_b                   22.617(5)
_cell_length_c                   10.286(2)
_cell_angle_alpha                90
_cell_angle_beta                 115.373(3)
_cell_angle_gamma                90
_cell_volume                     2066.24
_cell_formula_units_Z            2
loop_
_atom_site_label
_atom_site_type_symbol
_atom_site_fract_x
_atom_site_fract_y
_atom_site_fract_z
N1 N 0.3455(3) 0.14765(11) -0.0455(3)
N2 N 0.5055(3) 0.25197(11) 0.2480(3)
H1 H 0.4297 0.2593 0.2663
N3 N 0.4333(3) 0.37652(11) 0.2075(3)
H2 H 0.3488 0.3660 0.2064
N4 N 0.1595(3) 0.42799(11) 0.0445(3)
N5 N -0.0578(3) 0.34217(13) 0.1548(3)
H3 H -0.1427 0.3332 0.1549
N6 N -0.0114(3) 0.21148(12) 0.0910(3)
H4 H 0.0633 0.2048 0.0705
N7 N -0.0372(3) 0.17075(13) -0.1765(3)
H5 H -0.0313 0.2002 -0.2267
O1 O 0.0704(3) 0.08581(12) -0.0670(3)
O2 O 0.2531(2) 0.22027(10) 0.0398(2)
O3 O 0.7325(3) 0.28575(12) 0.2778(4)
O4 O 0.5410(3) 0.43167(17) 0.0953(4)
O5 O 0.0125(3) 0.35245(12) -0.0928(3)
O6 O 0.2660(4) 0.50102(12) 0.2105(3)
O7 O 0.1865(2) 0.31866(10) 0.2338(2)
O8 O -0.2643(16) 0.2081(15) 0.0108(16)
C1 C 0.0729(3) 0.12987(15) -0.1328(3)
C2 C 0.2011(3) 0.14198(14) -0.1744(3)
H8 H 0.1806 0.1781 -0.2323
C3 C 0.2294(4) 0.09046(19) -0.2555(4)
H9 H 0.1961 0.0535 -0.2311
H10 H 0.1770 0.0964 -0.3586
C4 C 0.3981(4) 0.09024(19) -0.2069(4)
H11 H 0.4332 0.0513 -0.2175
H12 H 0.4271 0.1185 -0.2615
C5 C 0.4601(4) 0.10775(16) -0.0511(4)
H13 H 0.4731 0.0735 0.0098
H14 H 0.5561 0.1278 -0.0209
C6 C 0.3599(3) 0.18894(13) 0.0520(3)
C7 C 0.5095(3) 0.19503(13) 0.1853(3)
H15 H 0.5934 0.1937 0.1577
C8 C 0.5219(4) 0.14382(14) 0.2867(3)
H16 H 0.5095 0.1071 0.2341
H17 H 0.4391 0.1468 0.3140
C9 C 0.6690(4) 0.14041(16) 0.4239(4)
H18 H 0.6802 0.1774 0.4772
C10 C 0.6586(7) 0.0900(2) 0.5173(5)
H19 H 0.5721 0.0957 0.5364
H20 H 0.7479 0.0894 0.6064
H21 H 0.6494 0.0532 0.4679
C11 C 0.8046(5) 0.1334(3) 0.3936(5)
H22 H 0.8087 0.1657 0.3347
H23 H 0.7977 0.0968 0.3441
H24 H 0.8940 0.1334 0.4826
C12 C 0.6108(3) 0.29400(14) 0.2797(3)
C13 C 0.5707(3) 0.35381(14) 0.3231(4)
H25 H 0.6523 0.3814 0.3358
C14 C 0.5578(4) 0.35060(15) 0.4658(4)
H26 H 0.4725 0.3248 0.4514
C15 C 0.5245(5) 0.41163(18) 0.5113(5)
H27 H 0.6154 0.4353 0.5448
H28 H 0.4489 0.4312 0.4275
C16 C 0.4702(9) 0.4097(3) 0.6271(7)
H29 H 0.4522 0.4492 0.6500
H30 H 0.5453 0.3913 0.7115
H31 H 0.3785 0.3873 0.5940
C17 C 0.6979(5) 0.3231(2) 0.5831(5)
H32 H 0.6866 0.3214 0.6711
H33 H 0.7842 0.3468 0.5971
H34 H 0.7113 0.2839 0.5550
C18 C 0.4297(4) 0.41251(16) 0.1035(4)
C19 C 0.2720(4) 0.42794(16) -0.0127(4)
H35 H 0.2438 0.3958 -0.0834
C20 C 0.2682(5) 0.48474(18) -0.0954(4)
H36 H 0.2938 0.5181 -0.0301
H37 H 0.3430 0.4822 -0.1333
C21 C 0.1162(5) 0.49464(17) -0.2168(4)
C22 C 0.0773(6) 0.4669(2) -0.3465(5)
H38 H 0.1396 0.4408 -0.3655
C23 C -0.0753(14) 0.4834(6) -0.4522(13)
H39 H -0.1107 0.4687 -0.5454
C24 C -0.1683(14) 0.5203(6) -0.4171(15)
H40 H -0.2642 0.5284 -0.4879
C25 C -0.1258(13) 0.5453(5) -0.2833(15)
H41 H -0.1865 0.5696 -0.2573
C29 C 0.0107(6) 0.5301(2) -0.1990(6)
H45 H 0.0451 0.5464 -0.1075
C30 C 0.0414(4) 0.38827(14) 0.0008(4)
C31 C -0.0416(4) 0.39794(16) 0.0955(4)
H46 H -0.1420 0.4138 0.0358
C32 C 0.0509(5) 0.44550(17) 0.2014(4)
H47 H -0.0122 0.4791 0.1976
H48 H 0.0950 0.4300 0.2987
C33 C 0.1706(5) 0.46353(16) 0.1580(4)
C34 C 0.0577(3) 0.30396(14) 0.2100(3)
C35 C 0.0188(3) 0.24083(14) 0.2281(3)
H49 H -0.0726 0.2402 0.2440
C36 C 0.1447(3) 0.20976(14) 0.3516(3)
H50 H 0.1112 0.1701 0.3594
H51 H 0.2299 0.2060 0.3280
C37 C 0.1979(3) 0.23925(13) 0.4961(3)
C38 C 0.3473(4) 0.23468(16) 0.5944(4)
H52 H 0.4140 0.2145 0.5680
C39 C 0.4003(4) 0.25888(18) 0.7293(4)
H53 H 0.5012 0.2548 0.7930
C40 C 0.3043(5) 0.28902(18) 0.7698(4)
H54 H 0.3394 0.3052 0.8616
C41 C 0.1552(5) 0.29543(16) 0.6743(4)
H55 H 0.0902 0.3167 0.7010
C42 C 0.1022(4) 0.27043(15) 0.5389(3)
H56 H 0.0011 0.2745 0.4756
C43 C -0.1474(4) 0.19471(18) -0.0026(4)
C44 C -0.1648(4) 0.1671(2) -0.1424(4)
H57 H -0.1894 0.1256 -0.1407
H58 H -0.2501 0.1856 -0.2200
O10 O 0.6808(9) 0.4944(4) 0.9239(9)
H6 H 0.7664 0.5093 0.9418
H7 H 0.6912 0.4774 1.0013
O9? O -0.245(5) 0.183(3) 0.039(6)
C26? C -0.0487(17) 0.4597(8) -0.4678(15)
H42? H -0.0603 0.4341 -0.5426
C27? C -0.159(2) 0.4969(8) -0.4631(18)
H43? H -0.2511 0.5008 -0.5434
C28? C -0.1322(17) 0.5283(8) -0.3380(18)
H44? H -0.2118 0.5510 -0.3398
loop_
_geom_bond_atom_site_label_1
_geom_bond_atom_site_label_2
_geom_bond_site_symmetry_1
_geom_bond_site_symmetry_2
N1 C2 1_555 1_555
N2 H1 1_555 1_555
N3 H2 1_555 1_555
N4 C19 1_555 1_555
N5 H3 1_555 1_555
N6 H4 1_555 1_555
N7 H5 1_555 1_555
O1 C1 1_555 1_555
O2 C6 1_555 1_555
O3 C12 1_555 1_555
O4 C18 1_555 1_555
O5 C30 1_555 1_555
O6 C33 1_555 1_555
O7 C34 1_555 1_555
O8 C43 1_555 1_555
O10 H6 1_555 1_555
H7 O10 1_555 1_555
C1 N7 1_555 1_555
C2 C1 1_555 1_555
H8 C2 1_555 1_555
C3 C2 1_555 1_555
H9 C3 1_555 1_555
H10 C3 1_555 1_555
C4 C3 1_555 1_555
H11 C4 1_555 1_555
H12 C4 1_555 1_555
C5 N1 1_555 1_555
H13 C5 1_555 1_555
H14 C5 1_555 1_555
C6 N1 1_555 1_555
C7 N2 1_555 1_555
H15 C7 1_555 1_555
C8 C7 1_555 1_555
H16 C8 1_555 1_555
H17 C8 1_555 1_555
C9 C8 1_555 1_555
H18 C9 1_555 1_555
C10 C9 1_555 1_555
H19 C10 1_555 1_555
H20 C10 1_555 1_555
H21 C10 1_555 1_555
C11 C9 1_555 1_555
H22 C11 1_555 1_555
H23 C11 1_555 1_555
H24 C11 1_555 1_555
C12 N2 1_555 1_555
C13 N3 1_555 1_555
H25 C13 1_555 1_555
C14 C13 1_555 1_555
H26 C14 1_555 1_555
C15 C14 1_555 1_555
H27 C15 1_555 1_555
H28 C15 1_555 1_555
C16 C15 1_555 1_555
H29 C16 1_555 1_555
H30 C16 1_555 1_555
H31 C16 1_555 1_555
C17 C14 1_555 1_555
H32 C17 1_555 1_555
H33 C17 1_555 1_555
H34 C17 1_555 1_555
C18 N3 1_555 1_555
C19 C18 1_555 1_555
H35 C19 1_555 1_555
C20 C19 1_555 1_555
H36 C20 1_555 1_555
H37 C20 1_555 1_555
C21 C20 1_555 1_555
C22 C21 1_555 1_555
H38 C22 1_555 1_555
C23 C22 1_555 1_555
H39 C23 1_555 1_555
C24 C23 1_555 1_555
H40 C24 1_555 1_555
C25 C24 1_555 1_555
H41 C25 1_555 1_555
C29 C21 1_555 1_555
H45 C29 1_555 1_555
C30 N4 1_555 1_555
C31 N5 1_555 1_555
H46 C31 1_555 1_555
C32 C31 1_555 1_555
H47 C32 1_555 1_555
H48 C32 1_555 1_555
C33 N4 1_555 1_555
C34 N5 1_555 1_555
C35 N6 1_555 1_555
H49 C35 1_555 1_555
C36 C35 1_555 1_555
H50 C36 1_555 1_555
H51 C36 1_555 1_555
C37 C36 1_555 1_555
C38 C37 1_555 1_555
H52 C38 1_555 1_555
C39 C38 1_555 1_555
H53 C39 1_555 1_555
C40 C39 1_555 1_555
H54 C40 1_555 1_555
C41 C40 1_555 1_555
H55 C41 1_555 1_555
C42 C37 1_555 1_555
H56 C42 1_555 1_555
C43 N6 1_555 1_555
C44 N7 1_555 1_555
H57 C44 1_555 1_555
H58 C44 1_555 1_555
C4 C5 1_555 1_555
C6 C7 1_555 1_555
C12 C13 1_555 1_555
C25 C29 1_555 1_555
C30 C31 1_555 1_555
C32 C33 1_555 1_555
C34 C35 1_555 1_555
C41 C42 1_555 1_555
C43 C44 1_555 1_555

#END
