
#######################################################################
#
#                 Cambridge Crystallographic Data Centre
#                                CCDC 
#
#######################################################################
#
# If this CIF has been generated from an entry in the Cambridge 
# Structural Database, then it will include bibliographic, chemical, 
# crystal, experimental, refinement or atomic coordinate data resulting 
# from the CCDC's data processing and validation procedures.
#
#######################################################################

data_LIKDOY01
_chemical_name_common            (-)-Securinine
_chemical_formula_moiety         'C13 H15 N1 O2'
_chemical_name_systematic        
14-Oxa-7-azatetracyclo[6.6.1.0^1,11^.0^2,7^]pentadeca-9,11-dien-13-one
_chemical_properties_biological  
'Exhibits a range of biological activity and has clinical use in treatment of ALS and poliomyelitis'
_symmetry_cell_setting           orthorhombic
_symmetry_space_group_name_H-M   'P 21 21 21'
_symmetry_Int_Tables_number      19
_space_group_name_Hall           'P 2ac 2ab'
loop_
_symmetry_equiv_pos_site_id
_symmetry_equiv_pos_as_xyz
1 x,y,z
2 1/2-x,-y,1/2+z
3 1/2+x,1/2-y,-z
4 -x,1/2+y,1/2-z
_cell_length_a                   6.9876(10)
_cell_length_b                   9.3485(13)
_cell_length_c                   16.411(2)
_cell_angle_alpha                90
_cell_angle_beta                 90
_cell_angle_gamma                90
_cell_volume                     1072.03
_exptl_crystal_colour            colorless
_exptl_crystal_description       rod
_chemical_melting_point          142-144deg.C
_cell_formula_units_Z            4
_exptl_crystal_recrystallization_method methanol
loop_
_atom_site_label
_atom_site_type_symbol
_atom_site_fract_x
_atom_site_fract_y
_atom_site_fract_z
C1 C 0.3948(3) 0.9108(2) 0.41544(12)
C2 C 0.5192(3) 0.7880(2) 0.43137(11)
H1 H 0.4980 0.7164 0.4714
C3 C 0.6664(3) 0.7934(2) 0.38060(11)
C4 C 0.8423(3) 0.7133(2) 0.36926(11)
H2 H 0.8587 0.6223 0.3941
C5 C 0.9806(3) 0.7696(2) 0.32335(12)
H3 H 1.0965 0.7182 0.3159
C6 C 0.9563(3) 0.9149(2) 0.28267(12)
H4 H 1.0825 0.9616 0.2720
C7 C 0.8922(3) 0.8358(2) 0.13472(12)
H5 H 0.8790 0.7311 0.1421
H6 H 1.0267 0.8575 0.1205
C8 C 0.7576(3) 0.8885(3) 0.06780(12)
H7 H 0.7830 0.8345 0.0171
H8 H 0.7836 0.9909 0.0569
C9 C 0.5472(3) 0.8703(2) 0.09150(12)
H9 H 0.5150 0.7672 0.0916
H10 H 0.4659 0.9177 0.0501
C10 C 0.5025(3) 0.9336(2) 0.17561(12)
H11 H 0.5142 1.0391 0.1741
H12 H 0.3703 0.9088 0.1921
C11 C 0.6442(3) 0.8715(2) 0.23515(11)
H13 H 0.6327 0.7649 0.2338
C12 C 0.6442(3) 0.9208(2) 0.32554(11)
C13 C 0.8262(3) 1.0100(2) 0.33467(12)
H14 H 0.8698 1.0160 0.3920
H15 H 0.8120 1.1073 0.3116
N1 N 0.8370(2) 0.91061(18) 0.20878(10)
O1 O 0.4705(2) 0.98724(15) 0.35156(8)
O2 O 0.2501(2) 0.94962(19) 0.44842(10)
loop_
_geom_bond_atom_site_label_1
_geom_bond_atom_site_label_2
_geom_bond_site_symmetry_1
_geom_bond_site_symmetry_2
C1 C2 1_555 1_555
C2 H1 1_555 1_555
C3 C2 1_555 1_555
C4 C3 1_555 1_555
H2 C4 1_555 1_555
C5 C4 1_555 1_555
H3 C5 1_555 1_555
C6 C5 1_555 1_555
H4 C6 1_555 1_555
C7 H5 1_555 1_555
H6 C7 1_555 1_555
C8 C7 1_555 1_555
H7 C8 1_555 1_555
H8 C8 1_555 1_555
C9 C8 1_555 1_555
H9 C9 1_555 1_555
H10 C9 1_555 1_555
C10 C9 1_555 1_555
H11 C10 1_555 1_555
H12 C10 1_555 1_555
C11 C10 1_555 1_555
H13 C11 1_555 1_555
C12 C3 1_555 1_555
C13 C6 1_555 1_555
H14 C13 1_555 1_555
H15 C13 1_555 1_555
N1 C6 1_555 1_555
O1 C1 1_555 1_555
O2 C1 1_555 1_555
C7 N1 1_555 1_555
C11 C12 1_555 1_555
C11 N1 1_555 1_555
C12 C13 1_555 1_555
C12 O1 1_555 1_555

#END
