
#######################################################################
#
#                 Cambridge Crystallographic Data Centre
#                                CCDC 
#
#######################################################################
#
# If this CIF has been generated from an entry in the Cambridge 
# Structural Database, then it will include bibliographic, chemical, 
# crystal, experimental, refinement or atomic coordinate data resulting 
# from the CCDC's data processing and validation procedures.
#
#######################################################################

data_LIKFIX
_chemical_name_common            
'Filgotinib hydrochloride dimethyl sulfoxide solvate monohydrate'
_chemical_formula_moiety         'C21 H24 N5 O3 S1 1+,C2 H6 O1 S1,H2 O1,Cl1 1-'
_chemical_name_systematic        
'4-[(4-{2-[(cyclopropanecarbonyl)amino][1,2,4]triazolo[1,5-a]pyridin-5-yl}phenyl)methyl]-1,1-dioxo-1,4-thiazinan-4-ium chloride dimethyl sulfoxide solvate monohydrate'
_chemical_properties_biological  
'Filgotinib (also known as GLPG-0634) is a selective JAK1 inhibitor'
_symmetry_cell_setting           triclinic
_symmetry_space_group_name_H-M   'P -1'
_symmetry_Int_Tables_number      2
_space_group_name_Hall           '-P 1'
loop_
_symmetry_equiv_pos_site_id
_symmetry_equiv_pos_as_xyz
1 x,y,z
2 -x,-y,-z
_cell_length_a                   9.5730(6)
_cell_length_b                   11.2400(7)
_cell_length_c                   13.1259(8)
_cell_angle_alpha                97.6390(10)
_cell_angle_beta                 101.9840(10)
_cell_angle_gamma                104.2220(10)
_cell_volume                     1313.79
_exptl_crystal_colour            colorless
_exptl_crystal_description       block
_cell_formula_units_Z            2
loop_
_atom_site_label
_atom_site_type_symbol
_atom_site_fract_x
_atom_site_fract_y
_atom_site_fract_z
S1 S 1.28331(3) 0.94453(2) 1.05635(2)
O1 O 0.15065(10) -0.12700(8) 0.36465(7)
O2 O 1.22079(11) 1.04931(8) 1.06409(7)
O3 O 1.44157(10) 0.96768(9) 1.09594(7)
N1 N 0.55626(10) 0.25620(9) 0.45496(7)
N2 N 0.48462(11) 0.20283(9) 0.52455(7)
N3 N 0.40398(11) 0.07385(9) 0.35970(8)
N4 N 0.30902(11) 0.01371(9) 0.51006(8)
H1 H 0.332117 0.029774 0.579916
N5 N 0.99473(10) 0.72460(8) 0.94637(7)
H2 H 1.0365(19) 0.6624(16) 0.9414(13)
C1 C 0.39687(12) 0.09458(10) 0.46193(9)
C2 C 0.50645(12) 0.17817(10) 0.35587(9)
C3 C 0.56260(14) 0.21924(11) 0.27169(9)
H3 H 0.532804 0.167246 0.203228
C4 C 0.66149(14) 0.33624(11) 0.29076(9)
H4 H 0.699580 0.365792 0.234664
C5 C 0.70715(13) 0.41314(11) 0.39308(9)
H5 H 0.775118 0.493847 0.404327
C6 C 0.65537(12) 0.37368(10) 0.47650(9)
C7 C 0.69965(12) 0.44884(10) 0.58559(9)
C8 C 0.69806(12) 0.57374(10) 0.59996(9)
H6 H 0.667234 0.608908 0.540191
C9 C 0.74152(13) 0.64711(10) 0.70168(9)
H7 H 0.739316 0.731842 0.710930
C10 C 0.78820(12) 0.59678(10) 0.78993(9)
C11 C 0.79271(13) 0.47234(10) 0.77508(9)
H8 H 0.826872 0.438197 0.834739
C12 C 0.74784(13) 0.39809(10) 0.67413(9)
H9 H 0.749741 0.313275 0.665040
C13 C 0.82818(12) 0.67240(10) 0.90090(9)
H10 H 0.786042 0.618876 0.947516
H11 H 0.782575 0.742462 0.900193
C14 C 1.05918(13) 0.81706(10) 0.88398(9)
H12 H 1.016108 0.888444 0.890449
H13 H 1.031339 0.776726 0.808047
C15 C 1.22808(13) 0.86558(11) 0.92201(9)
H14 H 1.266174 0.923554 0.877087
H15 H 1.271732 0.794595 0.914856
C16 C 1.02367(12) 0.78165(10) 1.06211(8)
H16 H 0.974390 0.718353 1.098741
H17 H 0.979387 0.852329 1.068313
C17 C 1.18940(13) 0.82854(10) 1.11661(9)
H18 H 1.233271 0.757463 1.112853
H19 H 1.202910 0.863668 1.192430
C18 C 0.19068(12) -0.08806(10) 0.46106(9)
C19 C 0.11143(13) -0.14655(11) 0.53598(10)
H20 H 0.160041 -0.117118 0.613522
C20 C -0.05717(14) -0.18097(13) 0.50284(12)
H21 H -0.110343 -0.171294 0.559188
H22 H -0.104072 -0.162976 0.434170
C21 C 0.01900(15) -0.28161(12) 0.50008(13)
H23 H 0.019046 -0.325939 0.429677
H24 H 0.012777 -0.334255 0.554668
S2 S 0.44235(3) 0.23247(3) 0.78581(2)
O4 O 0.31772(11) 0.11877(10) 0.72325(8)
C22 C 0.39511(18) 0.36405(15) 0.74014(13)
H25 H 0.399530 0.360303 0.665896
H26 H 0.465748 0.441515 0.783748
H27 H 0.294191 0.362395 0.745779
C23 C 0.40905(17) 0.26264(14) 0.91479(11)
H28 H 0.310517 0.276256 0.907882
H29 H 0.485244 0.337395 0.958036
H30 H 0.413154 0.190790 0.949014
O5 O 1.04518(13) 0.02300(11) 0.76542(9)
H31 H 1.128996 0.055549 0.753801
H32 H 0.978059 0.045938 0.726292
Cl1 Cl 0.81108(3) 0.45486(3) 1.07003(2)
loop_
_geom_bond_atom_site_label_1
_geom_bond_atom_site_label_2
_geom_bond_site_symmetry_1
_geom_bond_site_symmetry_2
S1 O2 1_555 1_555
O1 C18 1_555 1_555
O3 S1 1_555 1_555
N1 N2 1_555 1_555
N2 C1 1_555 1_555
N3 C1 1_555 1_555
N4 H1 1_555 1_555
N5 H2 1_555 1_555
C1 N4 1_555 1_555
C2 N1 1_555 1_555
C3 C2 1_555 1_555
H3 C3 1_555 1_555
C4 C3 1_555 1_555
H4 C4 1_555 1_555
C5 C4 1_555 1_555
H5 C5 1_555 1_555
C6 N1 1_555 1_555
C7 C6 1_555 1_555
C8 C7 1_555 1_555
H6 C8 1_555 1_555
C9 C8 1_555 1_555
H7 C9 1_555 1_555
C10 C9 1_555 1_555
C11 C10 1_555 1_555
H8 C11 1_555 1_555
C12 C7 1_555 1_555
H9 C12 1_555 1_555
C13 N5 1_555 1_555
H10 C13 1_555 1_555
H11 C13 1_555 1_555
C14 N5 1_555 1_555
H12 C14 1_555 1_555
H13 C14 1_555 1_555
C15 S1 1_555 1_555
H14 C15 1_555 1_555
H15 C15 1_555 1_555
C16 N5 1_555 1_555
H16 C16 1_555 1_555
H17 C16 1_555 1_555
C17 S1 1_555 1_555
H18 C17 1_555 1_555
H19 C17 1_555 1_555
C18 N4 1_555 1_555
C19 C18 1_555 1_555
H20 C19 1_555 1_555
C20 C19 1_555 1_555
H21 C20 1_555 1_555
H22 C20 1_555 1_555
C21 C19 1_555 1_555
H23 C21 1_555 1_555
H24 C21 1_555 1_555
S2 O4 1_555 1_555
C22 S2 1_555 1_555
H25 C22 1_555 1_555
H26 C22 1_555 1_555
H27 C22 1_555 1_555
C23 S2 1_555 1_555
H28 C23 1_555 1_555
H29 C23 1_555 1_555
H30 C23 1_555 1_555
O5 H31 1_555 1_555
H32 O5 1_555 1_555
N3 C2 1_555 1_555
C5 C6 1_555 1_555
C10 C13 1_555 1_555
C11 C12 1_555 1_555
C14 C15 1_555 1_555
C16 C17 1_555 1_555
C20 C21 1_555 1_555

#END
