
#######################################################################
#
#                 Cambridge Crystallographic Data Centre
#                                CCDC 
#
#######################################################################
#
# If this CIF has been generated from an entry in the Cambridge 
# Structural Database, then it will include bibliographic, chemical, 
# crystal, experimental, refinement or atomic coordinate data resulting 
# from the CCDC's data processing and validation procedures.
#
#######################################################################

data_LIKHET
_chemical_formula_moiety         'C16 H18 N1 O3 P1'
_chemical_name_systematic        
'2-Isopropoxy-3-phenyl-4H-(1,4,2-benzoxazaphosphinine) 2-oxide'
_symmetry_cell_setting           triclinic
_symmetry_space_group_name_H-M   'P -1'
_symmetry_Int_Tables_number      2
_space_group_name_Hall           '-P 1'
loop_
_symmetry_equiv_pos_site_id
_symmetry_equiv_pos_as_xyz
1 x,y,z
2 -x,-y,-z
_cell_length_a                   10.8629(19)
_cell_length_b                   12.432(2)
_cell_length_c                   12.773(2)
_cell_angle_alpha                83.599(3)
_cell_angle_beta                 87.517(3)
_cell_angle_gamma                65.599(3)
_cell_volume                     1561.08
_chemical_melting_point          135-137deg.C
_cell_formula_units_Z            4
loop_
_atom_site_label
_atom_site_type_symbol
_atom_site_fract_x
_atom_site_fract_y
_atom_site_fract_z
P1 P 0.50234(8) 0.15905(7) 0.26134(6)
N1 N 0.6461(3) -0.0585(2) 0.2134(2)
H1 H 0.660(3) -0.116(3) 0.182(2)
O1 O 0.4187(2) 0.28249(18) 0.22360(17)
O2 O 0.6475(2) 0.14390(19) 0.29652(17)
O3 O 0.4494(2) 0.10657(18) 0.36056(15)
C1 C 0.7634(3) -0.0601(3) 0.2535(2)
C2 C 0.7646(3) 0.0386(3) 0.2949(2)
C3 C 0.8793(4) 0.0362(3) 0.3384(3)
H3 H 0.8774 0.1038 0.3644
C4 C 0.9966(4) -0.0657(4) 0.3439(3)
H4 H 1.0744 -0.0670 0.3728
C5 C 0.9982(4) -0.1657(4) 0.3060(3)
H5 H 1.0763 -0.2358 0.3117
C6 C 0.8836(3) -0.1622(3) 0.2595(2)
H6 H 0.8870 -0.2293 0.2317
C7 C 0.5433(3) 0.0516(3) 0.1662(2)
H7 H 0.5811 0.0794 0.1033
C8 C 0.4177(3) 0.0391(3) 0.1347(2)
C9 C 0.3899(3) -0.0558(3) 0.1765(3)
H8 H 0.4500 -0.1145 0.2238
C10 C 0.2728(4) -0.0634(4) 0.1480(3)
H9 H 0.2551 -0.1281 0.1753
C11 C 0.1826(4) 0.0232(4) 0.0799(3)
H10 H 0.1033 0.0181 0.0621
C12 C 0.2093(4) 0.1174(4) 0.0383(3)
H11 H 0.1479 0.1764 -0.0080
C13 C 0.3270(3) 0.1251(3) 0.0647(2)
H12 H 0.3454 0.1886 0.0352
C14 C 0.3110(3) 0.1600(3) 0.4009(3)
H13 H 0.2529 0.2212 0.3479
C15 C 0.2613(5) 0.0644(5) 0.4228(4)
H14 H 0.2571 0.0334 0.3582
H15 H 0.1729 0.0964 0.4535
H16 H 0.3221 0.0018 0.4709
C16 C 0.3134(4) 0.2150(4) 0.4983(3)
H17 H 0.3697 0.1548 0.5503
H18 H 0.2232 0.2515 0.5252
H19 H 0.3487 0.2740 0.4821
P2 P 0.66846(8) 0.60556(7) 0.21892(6)
N2 N 0.5226(3) 0.4791(2) 0.2428(2)
H2 H 0.496(3) 0.433(3) 0.222(2)
O4 O 0.7000(2) 0.69324(19) 0.15146(17)
O5 O 0.5749(2) 0.6634(2) 0.31405(17)
O6 O 0.7939(2) 0.49996(19) 0.27259(16)
C17 C 0.4453(3) 0.5435(3) 0.3225(2)
C18 C 0.4710(3) 0.6339(3) 0.3582(2)
C19 C 0.3994(3) 0.6946(3) 0.4400(3)
H20 H 0.4166 0.7563 0.4611
C20 C 0.3018(4) 0.6639(4) 0.4910(3)
H21 H 0.2534 0.7043 0.5468
C21 C 0.2773(3) 0.5727(4) 0.4580(3)
H22 H 0.2132 0.5502 0.4926
C22 C 0.3467(3) 0.5152(3) 0.3747(2)
H23 H 0.3270 0.4553 0.3524
C23 C 0.5730(3) 0.5388(3) 0.1584(2)
H24 H 0.4958 0.6019 0.1204
C24 C 0.6593(3) 0.4548(3) 0.0815(2)
C25 C 0.6862(3) 0.4992(3) -0.0166(2)
H25 H 0.6490 0.5806 -0.0361
C26 C 0.7687(4) 0.4219(5) -0.0859(3)
H26 H 0.7874 0.4522 -0.1515
C27 C 0.8228(4) 0.3025(5) -0.0594(4)
H27 H 0.8777 0.2515 -0.1067
C28 C 0.7962(4) 0.2579(4) 0.0369(3)
H28 H 0.8324 0.1763 0.0552
C29 C 0.7158(3) 0.3333(3) 0.1071(3)
H29 H 0.6992 0.3019 0.1730
C30 C 0.9343(4) 0.4805(4) 0.2453(3)
H30 H 0.9324 0.5456 0.1936
C31 C 1.0011(4) 0.4845(5) 0.3411(4)
H31 H 1.0022 0.4221 0.3931
H32 H 0.9527 0.5599 0.3680
H33 H 1.0922 0.4742 0.3249
C32 C 1.0019(5) 0.3697(6) 0.1986(5)
H34 H 0.9937 0.3064 0.2445
H35 H 1.0958 0.3536 0.1886
H36 H 0.9610 0.3759 0.1318
loop_
_geom_bond_atom_site_label_1
_geom_bond_atom_site_label_2
_geom_bond_site_symmetry_1
_geom_bond_site_symmetry_2
P1 O1 1_555 1_555
P2 O4 1_555 1_555
N1 H1 1_555 1_555
N2 H2 1_555 1_555
O2 P1 1_555 1_555
O3 P1 1_555 1_555
O5 P2 1_555 1_555
O6 P2 1_555 1_555
C1 N1 1_555 1_555
C2 O2 1_555 1_555
C3 C2 1_555 1_555
H3 C3 1_555 1_555
C4 C3 1_555 1_555
H4 C4 1_555 1_555
C5 C4 1_555 1_555
H5 C5 1_555 1_555
C6 C1 1_555 1_555
H6 C6 1_555 1_555
C7 P1 1_555 1_555
H7 C7 1_555 1_555
C8 C7 1_555 1_555
C9 C8 1_555 1_555
H8 C9 1_555 1_555
C10 C9 1_555 1_555
H9 C10 1_555 1_555
C11 C10 1_555 1_555
H10 C11 1_555 1_555
C12 C11 1_555 1_555
H11 C12 1_555 1_555
C13 C8 1_555 1_555
H12 C13 1_555 1_555
C14 O3 1_555 1_555
H13 C14 1_555 1_555
C15 C14 1_555 1_555
H14 C15 1_555 1_555
H15 C15 1_555 1_555
H16 C15 1_555 1_555
C16 C14 1_555 1_555
H17 C16 1_555 1_555
H18 C16 1_555 1_555
H19 C16 1_555 1_555
C17 N2 1_555 1_555
C18 O5 1_555 1_555
C19 C18 1_555 1_555
H20 C19 1_555 1_555
C20 C19 1_555 1_555
H21 C20 1_555 1_555
C21 C20 1_555 1_555
H22 C21 1_555 1_555
C22 C17 1_555 1_555
H23 C22 1_555 1_555
C23 P2 1_555 1_555
H24 C23 1_555 1_555
C24 C23 1_555 1_555
C25 C24 1_555 1_555
H25 C25 1_555 1_555
C26 C25 1_555 1_555
H26 C26 1_555 1_555
C27 C26 1_555 1_555
H27 C27 1_555 1_555
C28 C27 1_555 1_555
H28 C28 1_555 1_555
C29 C24 1_555 1_555
H29 C29 1_555 1_555
C30 O6 1_555 1_555
H30 C30 1_555 1_555
C31 C30 1_555 1_555
H31 C31 1_555 1_555
H32 C31 1_555 1_555
H33 C31 1_555 1_555
C32 C30 1_555 1_555
H34 C32 1_555 1_555
H35 C32 1_555 1_555
H36 C32 1_555 1_555
N1 C7 1_555 1_555
N2 C23 1_555 1_555
C1 C2 1_555 1_555
C5 C6 1_555 1_555
C12 C13 1_555 1_555
C17 C18 1_555 1_555
C21 C22 1_555 1_555
C28 C29 1_555 1_555

#END
