
#######################################################################
#
#                 Cambridge Crystallographic Data Centre
#                                CCDC 
#
#######################################################################
#
# If this CIF has been generated from an entry in the Cambridge 
# Structural Database, then it will include bibliographic, chemical, 
# crystal, experimental, refinement or atomic coordinate data resulting 
# from the CCDC's data processing and validation procedures.
#
#######################################################################

data_LIKLOG
_chemical_formula_moiety         'C36 H58 Br1 N5 O7,C1 H4 O1'
_chemical_name_systematic        
'p-Bromobenzoyl-bis(D-isovalyl-L-isovalyl)-D-isovaline t-butyl ester methanol solvate'
_symmetry_cell_setting           orthorhombic
_symmetry_space_group_name_H-M   'P 21 21 21'
_symmetry_Int_Tables_number      19
_space_group_name_Hall           'P 2bc 2ac'
loop_
_symmetry_equiv_pos_site_id
_symmetry_equiv_pos_as_xyz
1 x,y,z
2 -x,1/2-y,1/2+z
3 1/2+x,-y,1/2-z
4 1/2-x,1/2+y,-z
_cell_length_a                   22.223
_cell_length_b                   18.888
_cell_length_c                   10.587
_cell_angle_alpha                90
_cell_angle_beta                 90
_cell_angle_gamma                90
_cell_volume                     4443.87
_exptl_crystal_colour            colorless
_chemical_melting_point          225-226deg.C
_cell_formula_units_Z            4
loop_
_atom_site_label
_atom_site_type_symbol
_atom_site_fract_x
_atom_site_fract_y
_atom_site_fract_z
Br1 Br -0.78978(8) -0.7926(1) 0.4777(2)
O1 O -0.6207(3) -0.6054(5) 0.0603(7)
O2 O -0.5968(3) -0.4833(4) -0.1828(8)
O3 O -0.5418(3) -0.6202(4) -0.3992(6)
O4 O -0.3999(3) -0.6177(3) -0.2550(6)
O5 O -0.3698(3) -0.4416(3) -0.4415(6)
O6 O -0.3996(3) -0.4239(4) -0.7423(7)
O7 O -0.4793(3) -0.4029(4) -0.6146(6)
N1 N -0.7031(4) -0.5410(4) 0.0442(8)
N2 N -0.6662(3) -0.5680(4) -0.2032(7)
N3 N -0.5553(3) -0.6330(4) -0.1888(7)
N4 N -0.4671(3) -0.5322(4) -0.2196(7)
N5 N -0.4484(3) -0.5170(4) -0.4748(7)
C1 C -0.7575(4) -0.7340(5) 0.3547(7)
C2 C -0.7017(4) -0.7503(5) 0.3019(7)
C3 C -0.6754(4) -0.7042(5) 0.2149(7)
C4 C -0.7049(4) -0.6419(5) 0.1807(7)
C5 C -0.7608(4) -0.6257(5) 0.2335(7)
C6 C -0.7871(4) -0.6717(5) 0.3205(7)
C7 C -0.6723(4) -0.5944(6) 0.090(1)
C8 C -0.6754(5) -0.4825(6) -0.027(1)
C9 C -0.6298(7) -0.4430(8) 0.057(1)
C10 C -0.7287(7) -0.4365(8) -0.078(2)
C11 C -0.711(1) -0.376(1) -0.147(2)
C12 C -0.6428(4) -0.5119(5) -0.144(1)
C13 C -0.6423(4) -0.5977(6) -0.3196(9)
C14 C -0.6755(5) -0.6666(7) -0.348(1)
C15 C -0.6483(5) -0.5456(8) -0.434(1)
C16 C -0.7086(7) -0.5215(9) -0.460(1)
C17 C -0.5751(4) -0.6177(5) -0.305(1)
C18 C -0.4925(4) -0.6531(5) -0.162(1)
C19 C -0.4816(4) -0.7273(5) -0.219(1)
C20 C -0.4860(4) -0.6509(5) -0.018(1)
C21 C -0.4246(5) -0.6728(6) 0.028(1)
C22 C -0.4495(4) -0.5980(6) -0.2202(8)
C23 C -0.4294(4) -0.4711(5) -0.2599(9)
C24 C -0.3724(5) -0.4666(6) -0.1770(8)
C25 C -0.3844(6) -0.4614(7) -0.037(1)
C26 C -0.4682(5) -0.4043(5) -0.250(1)
C27 C -0.4133(4) -0.4782(5) -0.4005(9)
C28 C -0.4392(4) -0.5179(5) -0.6129(8)
C29 C -0.4957(5) -0.5524(6) -0.669(1)
C30 C -0.3829(5) -0.5569(5) -0.6467(9)
C31 C -0.3797(7) -0.6349(6) -0.597(1)
C32 C -0.4357(5) -0.4408(5) -0.665(1)
C33 C -0.4892(6) -0.3295(6) -0.658(1)
C34 C -0.5017(8) -0.3255(8) -0.794(1)
C35 C -0.4381(7) -0.2861(6) -0.616(1)
C36 C -0.5461(6) -0.3111(7) -0.582(1)
H1 H -0.754630 -0.536310 0.056540
H2 H -0.704940 -0.593070 -0.158170
H3 H -0.579670 -0.616690 -0.121900
H4 H -0.500800 -0.518600 -0.193100
H5 H -0.484770 -0.548470 -0.433160
H7 H -0.678590 -0.797850 0.333210
H8 H -0.632500 -0.717880 0.175310
H9 H -0.784010 -0.578410 0.205280
H10 H -0.830100 -0.658390 0.363180
H11 H -0.596640 -0.413510 -0.004130
H12 H -0.605620 -0.475800 0.118530
H13 H -0.656560 -0.401820 0.108560
H14 H -0.754590 -0.419620 0.011120
H15 H -0.760500 -0.471580 -0.126720
H16 H -0.679380 -0.395470 -0.213530
H17 H -0.694560 -0.338550 -0.085410
H18 H -0.751660 -0.358290 -0.195620
H19 H -0.720070 -0.658780 -0.379930
H20 H -0.676460 -0.699990 -0.261750
H21 H -0.648560 -0.695720 -0.419790
H22 H -0.631580 -0.570330 -0.519920
H23 H -0.620320 -0.497880 -0.417530
H24 H -0.716210 -0.485390 -0.534680
H25 H -0.729670 -0.494830 -0.371400
H26 H -0.740940 -0.567280 -0.473780
H27 H -0.478820 -0.731600 -0.311700
H28 H -0.494470 -0.780220 -0.170660
H29 H -0.439570 -0.741380 -0.179310
H30 H -0.500780 -0.586830 0.002290
H31 H -0.521790 -0.691740 0.006710
H32 H -0.399490 -0.626530 0.061340
H33 H -0.399690 -0.694810 -0.052290
H34 H -0.421510 -0.711030 0.101010
H35 H -0.346470 -0.518240 -0.193450
H36 H -0.342810 -0.425460 -0.210620
H37 H -0.413900 -0.502290 -0.003830
H38 H -0.406910 -0.409700 -0.019590
H39 H -0.347900 -0.460700 0.002400
H40 H -0.474370 -0.389770 -0.151810
H41 H -0.511280 -0.411650 -0.294030
H42 H -0.440800 -0.360500 -0.302100
H43 H -0.532780 -0.521700 -0.710000
H44 H -0.499900 -0.606430 -0.698290
H46 H -0.375300 -0.558600 -0.749600
H47 H -0.344800 -0.529300 -0.605900
H48 H -0.339600 -0.659100 -0.619800
H49 H -0.377300 -0.644400 -0.526300
H51 H -0.520370 -0.275330 -0.820770
H52 H -0.536880 -0.366620 -0.815990
H53 H -0.468700 -0.337000 -0.880900
H54 H -0.400290 -0.284550 -0.683060
H55 H -0.418360 -0.304110 -0.524650
H56 H -0.456900 -0.229300 -0.602200
H57 H -0.578020 -0.351120 -0.576510
H58 H -0.567890 -0.261450 -0.617800
H59 H -0.521100 -0.300100 -0.498300
O8 O -0.7783(3) -0.6457(5) -0.1264(9)
C37 C -0.7906(7) -0.712(1) -0.108(2)
H6 H -0.808550 -0.616250 -0.103660
H60 H -0.778870 -0.732280 -0.011650
H61 H -0.768370 -0.748370 -0.174250
H62 H -0.836120 -0.71770 -0.117840
H45? H -0.537500 -0.535800 -0.326000
H50? H -0.379700 -0.600200 -0.667700
loop_
_geom_bond_atom_site_label_1
_geom_bond_atom_site_label_2
_geom_bond_site_symmetry_1
_geom_bond_site_symmetry_2
Br1 C1 1_555 1_555
O1 C7 1_555 1_555
O2 C12 1_555 1_555
O3 C17 1_555 1_555
O4 C22 1_555 1_555
O5 C27 1_555 1_555
O6 C32 1_555 1_555
O7 C32 1_555 1_555
N1 C7 1_555 1_555
N2 C12 1_555 1_555
N3 C17 1_555 1_555
N4 C22 1_555 1_555
N5 C27 1_555 1_555
C1 C2 1_555 1_555
C2 C3 1_555 1_555
C3 C4 1_555 1_555
C4 C5 1_555 1_555
C5 C6 1_555 1_555
C6 C1 1_555 1_555
C7 C4 1_555 1_555
C8 N1 1_555 1_555
C9 C8 1_555 1_555
C10 C8 1_555 1_555
C11 C10 1_555 1_555
C12 C8 1_555 1_555
C13 N2 1_555 1_555
C14 C13 1_555 1_555
C15 C13 1_555 1_555
C16 C15 1_555 1_555
C17 C13 1_555 1_555
C18 N3 1_555 1_555
C19 C18 1_555 1_555
C20 C18 1_555 1_555
C21 C20 1_555 1_555
C22 C18 1_555 1_555
C23 N4 1_555 1_555
C24 C23 1_555 1_555
C25 C24 1_555 1_555
C26 C23 1_555 1_555
C27 C23 1_555 1_555
C28 N5 1_555 1_555
C29 C28 1_555 1_555
C30 C28 1_555 1_555
C31 C30 1_555 1_555
C32 C28 1_555 1_555
C33 O7 1_555 1_555
C34 C33 1_555 1_555
C35 C33 1_555 1_555
C36 C33 1_555 1_555
O8 C37 1_555 1_555
C37 H60 1_555 1_555
H1 N1 1_555 1_555
H2 N2 1_555 1_555
H3 N3 1_555 1_555
H4 N4 1_555 1_555
H5 N5 1_555 1_555
H6 O8 1_555 1_555
H7 C2 1_555 1_555
H8 C3 1_555 1_555
H9 C5 1_555 1_555
H10 C6 1_555 1_555
H11 C9 1_555 1_555
H12 C9 1_555 1_555
H13 C9 1_555 1_555
H14 C10 1_555 1_555
H15 C10 1_555 1_555
H16 C11 1_555 1_555
H17 C11 1_555 1_555
H18 C11 1_555 1_555
H19 C14 1_555 1_555
H20 C14 1_555 1_555
H21 C14 1_555 1_555
H22 C15 1_555 1_555
H23 C15 1_555 1_555
H24 C16 1_555 1_555
H25 C16 1_555 1_555
H26 C16 1_555 1_555
H27 C19 1_555 1_555
H28 C19 1_555 1_555
H29 C19 1_555 1_555
H30 C20 1_555 1_555
H31 C20 1_555 1_555
H32 C21 1_555 1_555
H33 C21 1_555 1_555
H34 C21 1_555 1_555
H35 C24 1_555 1_555
H36 C24 1_555 1_555
H37 C25 1_555 1_555
H38 C25 1_555 1_555
H39 C25 1_555 1_555
H40 C26 1_555 1_555
H41 C26 1_555 1_555
H42 C26 1_555 1_555
H43 C29 1_555 1_555
H44 C29 1_555 1_555
H46 C30 1_555 1_555
H47 C30 1_555 1_555
H48 C31 1_555 1_555
H49 C31 1_555 1_555
H51 C34 1_555 1_555
H52 C34 1_555 1_555
H53 C34 1_555 1_555
H54 C35 1_555 1_555
H55 C35 1_555 1_555
H56 C35 1_555 1_555
H57 C36 1_555 1_555
H58 C36 1_555 1_555
H59 C36 1_555 1_555
H61 C37 1_555 1_555
H62 C37 1_555 1_555

#END
