
#######################################################################
#
#                 Cambridge Crystallographic Data Centre
#                                CCDC 
#
#######################################################################
#
# If this CIF has been generated from an entry in the Cambridge 
# Structural Database, then it will include bibliographic, chemical, 
# crystal, experimental, refinement or atomic coordinate data resulting 
# from the CCDC's data processing and validation procedures.
#
#######################################################################

data_LIKLEW
_chemical_formula_moiety         'C22 H30 Br1 N3 O4'
_chemical_name_systematic        
2-(p-Bromobenzoyl-D-isovaleryl-L-isovaleryl)-4-ethyl-4-methyl-5(4H)-1,3-oxazolone
_symmetry_cell_setting           orthorhombic
_symmetry_space_group_name_H-M   'P 21 21 21'
_symmetry_Int_Tables_number      19
_space_group_name_Hall           'P 2bc 2ac'
loop_
_symmetry_equiv_pos_site_id
_symmetry_equiv_pos_as_xyz
1 x,y,z
2 -x,1/2-y,1/2+z
3 1/2+x,-y,1/2-z
4 1/2-x,1/2+y,-z
_cell_length_a                   18.695
_cell_length_b                   12.484
_cell_length_c                   10.391
_cell_angle_alpha                90
_cell_angle_beta                 90
_cell_angle_gamma                90
_cell_volume                     2425.14
_exptl_crystal_colour            colorless
_chemical_melting_point          63-65deg.C
_cell_formula_units_Z            4
loop_
_atom_site_label
_atom_site_type_symbol
_atom_site_fract_x
_atom_site_fract_y
_atom_site_fract_z
Br1 Br 0.22414(7) 0.2958(1) 0.0269(1)
O1 O 0.3878(4) 0.6614(6) -0.3607(6)
O2 O 0.4745(3) 0.8639(4) -0.4535(6)
O3 O 0.4405(5) 1.0909(6) -0.4268(7)
O4 O 0.5187(6) 1.2095(7) -0.512(1)
N1 N 0.4409(4) 0.7139(6) -0.1770(7)
N2 N 0.3915(5) 0.9039(6) -0.3054(7)
N3 N 0.3688(5) 1.0528(7) -0.5986(7)
C1 C 0.2759(3) 0.4057(5) -0.0517(6)
C2 C 0.3373(3) 0.4456(5) 0.0077(6)
C3 C 0.3769(3) 0.5264(5) -0.0515(6)
C4 C 0.3552(3) 0.5674(5) -0.1701(6)
C5 C 0.2938(3) 0.5274(5) -0.2295(6)
C6 C 0.2542(3) 0.4466(5) -0.1703(6)
C7 C 0.3965(5) 0.6509(7) -0.2448(9)
C8 C 0.4909(5) 0.7875(7) -0.2412(8)
C9 C 0.5537(6) 0.7259(9) -0.299(1)
C10 C 0.5187(6) 0.8660(7) -0.1364(9)
C11 C 0.5659(8) 0.958(1) -0.187(1)
C12 C 0.4512(5) 0.8530(7) -0.344(1)
C13 C 0.3433(7) 0.959(1) -0.391(1)
C14 C 0.2966(7) 0.882(1) -0.467(2)
C15 C 0.309550 1.036870 -0.285770
C16 C 0.264500 1.1293 -0.328410
C17 C 0.3840(6) 1.0345(8) -0.482(1)
C18 C 0.4194(7) 1.1326(8) -0.642(1)
C19 C 0.3804(9) 1.2347(9) -0.677(1)
C20 C 0.4695(8) 1.085(1) -0.745(1)
C21 C 0.424(1) 1.072(2) -0.871(2)
C22 C 0.4681(8) 1.1540(8) -0.524(1)
H1 H 0.440040 0.711750 -0.071400
H2 H 0.380890 0.906420 -0.202840
H3 H 0.353600 0.415230 0.101510
H4 H 0.424640 0.557870 -0.003870
H5 H 0.279000 0.558410 -0.324210
H6 H 0.207950 0.415770 -0.218830
H7 H 0.589780 0.783300 -0.346960
H8 H 0.536600 0.668190 -0.369390
H9 H 0.584140 0.686110 -0.223610
H10 H 0.550390 0.820890 -0.0667
H11 H 0.473790 0.901650 -0.086770
H12 H 0.581470 1.009300 -0.108430
H13 H 0.533140 1.006730 -0.254930
H14 H 0.611280 0.928930 -0.237950
H15 H 0.263290 0.930900 -0.525710
H16 H 0.269390 0.834690 -0.401310
H17 H 0.334330 0.838040 -0.525000
H18 H 0.353690 1.069660 -0.231520
H19 H 0.276750 0.988200 -0.223300
H20 H 0.236750 1.180970 -0.285440
H21 H 0.226450 1.092280 -0.392730
H22 H 0.301570 1.177380 -0.383360
H23 H 0.422070 1.295620 -0.715530
H24 H 0.356900 1.271720 -0.595600
H25 H 0.343250 1.225230 -0.754830
H26 H 0.493350 1.003730 -0.714790
H27 H 0.517510 1.131190 -0.773770
H28 H 0.452310 1.023630 -0.953920
H29 H 0.401650 1.137140 -0.910390
H30 H 0.377490 1.009680 -0.851410
loop_
_geom_bond_atom_site_label_1
_geom_bond_atom_site_label_2
_geom_bond_site_symmetry_1
_geom_bond_site_symmetry_2
Br1 C1 1_555 1_555
O1 C7 1_555 1_555
O2 C12 1_555 1_555
O3 C17 1_555 1_555
O4 C22 1_555 1_555
N1 C7 1_555 1_555
N2 C12 1_555 1_555
N3 C17 1_555 1_555
C1 C2 1_555 1_555
C2 C3 1_555 1_555
C3 C4 1_555 1_555
C4 C5 1_555 1_555
C5 C6 1_555 1_555
C6 C1 1_555 1_555
C7 C4 1_555 1_555
C8 N1 1_555 1_555
C9 C8 1_555 1_555
C10 C8 1_555 1_555
C11 C10 1_555 1_555
C12 C8 1_555 1_555
C13 N2 1_555 1_555
C14 C13 1_555 1_555
C15 C13 1_555 1_555
C16 C15 1_555 1_555
C17 C13 1_555 1_555
C18 N3 1_555 1_555
C19 C18 1_555 1_555
C20 C18 1_555 1_555
C21 C20 1_555 1_555
C22 O3 1_555 1_555
H1 N1 1_555 1_555
H2 N2 1_555 1_555
H3 C2 1_555 1_555
H4 C3 1_555 1_555
H5 C5 1_555 1_555
H6 C6 1_555 1_555
H7 C9 1_555 1_555
H8 C9 1_555 1_555
H9 C9 1_555 1_555
H10 C10 1_555 1_555
H11 C10 1_555 1_555
H12 C11 1_555 1_555
H13 C11 1_555 1_555
H14 C11 1_555 1_555
H15 C14 1_555 1_555
H16 C14 1_555 1_555
H17 C14 1_555 1_555
H18 C15 1_555 1_555
H19 C15 1_555 1_555
H20 C16 1_555 1_555
H21 C16 1_555 1_555
H22 C16 1_555 1_555
H23 C19 1_555 1_555
H24 C19 1_555 1_555
H25 C19 1_555 1_555
H26 C20 1_555 1_555
H27 C20 1_555 1_555
H28 C21 1_555 1_555
H29 C21 1_555 1_555
H30 C21 1_555 1_555
C18 C22 1_555 1_555

#END
