
#######################################################################
#
#                 Cambridge Crystallographic Data Centre
#                                CCDC 
#
#######################################################################
#
# If this CIF has been generated from an entry in the Cambridge 
# Structural Database, then it will include bibliographic, chemical, 
# crystal, experimental, refinement or atomic coordinate data resulting 
# from the CCDC's data processing and validation procedures.
#
#######################################################################

data_LIKZIQ
_chemical_formula_moiety         'C45 H50 O10,C7 H10 N4,C1 H2 Cl2'
_chemical_name_systematic        
'4,9,14,19,24,26,28,30,32,34-Decamethoxyhexacyclo[21.2.2.2^3,6^.2^8,11^.2^13,16^.2^18,21^]pentatriaconta-1(25),3,5,8,10,13,15,18,20,23,26,28,30,32,34-pentadecaene 5-(1H-1,2,3-triazol-1-yl)pentanenitrile dichloromethane solvate'
_symmetry_cell_setting           orthorhombic
_symmetry_space_group_name_H-M   'C 2 2 21'
_symmetry_Int_Tables_number      20
_space_group_name_Hall           'C 2n 2'
loop_
_symmetry_equiv_pos_site_id
_symmetry_equiv_pos_as_xyz
1 x,y,z
2 -x,-y,1/2+z
3 -x,y,1/2-z
4 x,-y,-z
5 1/2+x,1/2+y,z
6 1/2-x,1/2-y,1/2+z
7 1/2-x,1/2+y,1/2-z
8 1/2+x,1/2-y,-z
_cell_length_a                   16.0946(19)
_cell_length_b                   17.225(2)
_cell_length_c                   36.370(4)
_cell_angle_alpha                90
_cell_angle_beta                 90
_cell_angle_gamma                90
_cell_volume                     10082.8
_exptl_crystal_colour            colorless
_exptl_crystal_description       block
_cell_formula_units_Z            8
loop_
_atom_site_label
_atom_site_type_symbol
_atom_site_fract_x
_atom_site_fract_y
_atom_site_fract_z
O1 O 0.99806(15) 0.38979(16) 0.18773(7)
O2 O 0.72824(15) 0.55934(17) 0.13962(7)
O3 O 0.89413(16) 0.12568(17) 0.21904(9)
O4 O 0.70463(16) 0.38260(16) 0.25383(8)
O5 O 0.78522(16) 0.00868(19) 0.10401(7)
O6 O 0.56900(16) 0.13716(17) 0.20522(7)
O7 O 0.8138(2) 0.18682(17) -0.00737(10)
O8 O 0.52106(15) 0.17174(16) 0.07138(8)
O9 O 0.95379(16) 0.44240(17) 0.04646(8)
O10 O 0.61291(17) 0.42356(16) 0.02987(8)
C1 C 0.8574(2) 0.54190(18) 0.08963(8)
H1 H 0.8237 0.5900 0.0900
H2 H 0.9142 0.5558 0.0815
C2 C 0.86155(19) 0.50871(18) 0.12818(9)
C3 C 0.9298(2) 0.46544(18) 0.13984(9)
H3 H 0.9749 0.4574 0.1234
C4 C 0.9334(2) 0.43385(19) 0.17488(9)
C5 C 0.8680(2) 0.4449(2) 0.19924(9)
C6 C 0.8702(2) 0.4102(2) 0.23794(9)
H4 H 0.9283 0.4082 0.2468
H5 H 0.8382 0.4438 0.2549
C7 C 0.8336(2) 0.3292(2) 0.23813(8)
C8 C 0.8824(2) 0.2651(2) 0.22937(9)
H6 H 0.9399 0.2722 0.2246
C9 C 0.8489(2) 0.1912(2) 0.22751(9)
C10 C 0.7645(2) 0.1787(2) 0.23476(8)
C11 C 0.7260(2) 0.0994(2) 0.23085(9)
H7 H 0.6770 0.0956 0.2472
H8 H 0.7666 0.0595 0.2386
C12 C 0.6998(2) 0.08403(18) 0.19155(9)
C13 C 0.7542(2) 0.0507(2) 0.16638(9)
H9 H 0.8079 0.0353 0.1744
C14 C 0.7327(2) 0.0394(2) 0.13006(10)
C15 C 0.6530(2) 0.05943(18) 0.11782(9)
C16 C 0.6276(2) 0.04552(19) 0.07826(9)
H10 H 0.5673 0.0345 0.0773
H11 H 0.6573 -0.0007 0.0688
C17 C 0.6465(2) 0.11449(19) 0.05365(9)
C18 C 0.7192(2) 0.1172(2) 0.03358(10)
H12 H 0.7561 0.0742 0.0343
C19 C 0.7398(3) 0.1817(2) 0.01218(11)
C20 C 0.6869(2) 0.2444(2) 0.01019(9)
C21 C 0.7091(3) 0.3178(2) -0.01101(9)
H13 H 0.7492 0.3049 -0.0307
H14 H 0.6585 0.3391 -0.0227
C22 C 0.7467(2) 0.37846(19) 0.01413(8)
C23 C 0.8319(2) 0.3836(2) 0.01753(9)
H15 H 0.8662 0.3506 0.0031
C24 C 0.8686(2) 0.4361(2) 0.04154(9)
C25 C 0.8200(2) 0.48545(18) 0.06256(8)
C26 C 0.7954(2) 0.5182(2) 0.15273(9)
C27 C 0.7998(2) 0.48685(19) 0.18786(9)
H16 H 0.7547 0.4944 0.2044
C28 C 0.7499(2) 0.3171(2) 0.24583(9)
C29 C 0.7166(2) 0.2432(2) 0.24404(9)
H17 H 0.6593 0.2362 0.2493
C30 C 0.6204(2) 0.10428(19) 0.17939(9)
C31 C 0.5978(2) 0.09160(19) 0.14316(9)
H18 H 0.5434 0.1052 0.1354
C32 C 0.5926(2) 0.1776(2) 0.05134(9)
C33 C 0.6131(2) 0.2408(2) 0.02975(10)
H19 H 0.5754 0.2832 0.0283
C34 C 0.6974(2) 0.4289(2) 0.03446(9)
C35 C 0.7342(2) 0.48178(19) 0.05858(9)
H20 H 0.7000 0.5158 0.0725
C36 C 1.0704(2) 0.3822(2) 0.16590(11)
H21 H 1.0554 0.3614 0.1417
H22 H 1.1094 0.3467 0.1780
H23 H 1.0966 0.4331 0.1629
C37 C 0.6602(3) 0.5709(3) 0.16447(13)
H24 H 0.6410 0.5206 0.1737
H25 H 0.6146 0.5969 0.1515
H26 H 0.6784 0.6032 0.1851
C38 C 0.9725(3) 0.1352(3) 0.20144(16)
H27 H 0.9652 0.1651 0.1788
H28 H 0.9956 0.0841 0.1955
H29 H 1.0105 0.1628 0.2179
C39 C 0.6209(3) 0.3728(3) 0.26444(18)
H30 H 0.5885 0.3542 0.2434
H31 H 0.5984 0.4226 0.2729
H32 H 0.6176 0.3347 0.2844
C40 C 0.8646(3) -0.0178(5) 0.11701(17)
C41 C 0.4852(3) 0.1517(3) 0.19489(13)
H33 H 0.4833 0.1956 0.1778
H34 H 0.4524 0.1640 0.2168
H35 H 0.4621 0.1055 0.1829
C42 C 0.8591(7) 0.1177(4) -0.0110(4)
H36 H 0.8882 0.1066 0.0121
H37 H 0.8997 0.1233 -0.0309
H38 H 0.8210 0.0749 -0.0167
C43 C 0.4625(3) 0.2339(3) 0.06918(16)
H39 H 0.4901 0.2829 0.0755
H40 H 0.4168 0.2244 0.0864
H41 H 0.4406 0.2372 0.0441
C44 C 1.0043(3) 0.4049(3) 0.01977(16)
H42 H 0.9984 0.3485 0.0222
H43 H 1.0625 0.4194 0.0236
H44 H 0.9869 0.4209 -0.0049
C45 C 0.5630(3) 0.4781(3) 0.04851(15)
H45 H 0.5683 0.4703 0.0751
H46 H 0.5049 0.4713 0.0412
H47 H 0.5812 0.5307 0.0422
N1 N 0.9184(3) 0.2213(3) 0.09853(15)
N2 N 1.0337(4) 0.1639(4) 0.08522(16)
C46 C 0.5786(5) 0.3542(5) 0.1507(2)
N3 N 0.5233(5) 0.3772(6) 0.1611(3)
C47 C 0.8636(9) 0.2560(12) 0.1241(4)
H48 H 0.8629 0.2220 0.1461
H49 H 0.8895 0.3055 0.1318
C48 C 0.7846(4) 0.2718(5) 0.1160(2)
H50 H 0.7705 0.2971 0.0924
C49 C 0.7160(6) 0.2988(6) 0.1368(3)
H51 H 0.7019 0.2544 0.1529
H52 H 0.7404 0.3385 0.1533
C50 C 0.6459(11) 0.3271(11) 0.1280(6)
H53 H 0.6205 0.2874 0.1118
H54 H 0.6593 0.3715 0.1118
N4 N 0.9559(14) 0.1495(6) 0.1016(4)
C51 C 0.9625(9) 0.2701(9) 0.0867(4)
H55 H 0.9512 0.3234 0.0823
C52 C 1.0288(14) 0.2325(14) 0.0813(6)
H56 H 1.0770 0.2602 0.0739
Cl1 Cl 0.2846(2) 0.24632(19) 0.15421(9)
Cl2 Cl 0.2147(2) 0.32646(13) 0.09264(7)
C53 C 0.2144(6) 0.2426(5) 0.1184(2)
H57 H 0.2281 0.1981 0.1023
H58 H 0.1579 0.2341 0.1284
C54? C 0.7846(4) 0.2718(5) 0.1160(2)
H59? H 0.7640 0.2231 0.1048
H60? H 0.7886 0.3094 0.0955
C55? C 0.7160(6) 0.2988(6) 0.1368(3)
H61? H 0.7522 0.3301 0.1531
H62? H 0.6998 0.3363 0.1175
N5? N 0.9994(6) 0.1982(6) 0.1085(3)
C56? C 0.9175(7) 0.2051(7) 0.0609(3)
H63? H 0.8750 0.2190 0.0441
C57? C 0.9882(6) 0.1661(7) 0.0529(3)
H64? H 1.0034 0.1446 0.0298
C58? C 0.6508(15) 0.3142(18) 0.1562(10)
H65? H 0.6741 0.3385 0.1786
H66? H 0.6314 0.2623 0.1641
C59? C 0.832(2) 0.220(2) 0.1036(12)
H67? H 0.8088 0.2061 0.0792
H68? H 0.8216 0.1738 0.1194
H69? H 0.8277 0.3061 0.1267
loop_
_geom_bond_atom_site_label_1
_geom_bond_atom_site_label_2
_geom_bond_site_symmetry_1
_geom_bond_site_symmetry_2
O1 C4 1_555 1_555
O2 C26 1_555 1_555
O3 C9 1_555 1_555
O4 C28 1_555 1_555
O5 C14 1_555 1_555
O6 C30 1_555 1_555
O7 C19 1_555 1_555
O8 C32 1_555 1_555
O9 C24 1_555 1_555
O10 C34 1_555 1_555
C1 H1 1_555 1_555
H2 C1 1_555 1_555
C2 C1 1_555 1_555
C3 C2 1_555 1_555
H3 C3 1_555 1_555
C4 C3 1_555 1_555
C5 C4 1_555 1_555
C6 C5 1_555 1_555
H4 C6 1_555 1_555
H5 C6 1_555 1_555
C7 C6 1_555 1_555
C8 C7 1_555 1_555
H6 C8 1_555 1_555
C9 C8 1_555 1_555
C10 C9 1_555 1_555
C11 C10 1_555 1_555
H7 C11 1_555 1_555
H8 C11 1_555 1_555
C12 C11 1_555 1_555
C13 C12 1_555 1_555
H9 C13 1_555 1_555
C14 C13 1_555 1_555
C15 C14 1_555 1_555
C16 C15 1_555 1_555
H10 C16 1_555 1_555
H11 C16 1_555 1_555
C17 C16 1_555 1_555
C18 C17 1_555 1_555
H12 C18 1_555 1_555
C19 C18 1_555 1_555
C20 C19 1_555 1_555
C21 C20 1_555 1_555
H13 C21 1_555 1_555
H14 C21 1_555 1_555
C22 C21 1_555 1_555
C23 C22 1_555 1_555
H15 C23 1_555 1_555
C24 C23 1_555 1_555
C25 C1 1_555 1_555
C26 C2 1_555 1_555
C27 C5 1_555 1_555
H16 C27 1_555 1_555
C28 C7 1_555 1_555
C29 C10 1_555 1_555
H17 C29 1_555 1_555
C30 C12 1_555 1_555
C31 C15 1_555 1_555
H18 C31 1_555 1_555
C32 C17 1_555 1_555
C33 C20 1_555 1_555
H19 C33 1_555 1_555
C34 C22 1_555 1_555
C35 C25 1_555 1_555
H20 C35 1_555 1_555
C36 O1 1_555 1_555
H21 C36 1_555 1_555
H22 C36 1_555 1_555
H23 C36 1_555 1_555
C37 O2 1_555 1_555
H24 C37 1_555 1_555
H25 C37 1_555 1_555
H26 C37 1_555 1_555
C38 O3 1_555 1_555
H27 C38 1_555 1_555
H28 C38 1_555 1_555
H29 C38 1_555 1_555
C39 O4 1_555 1_555
H30 C39 1_555 1_555
H31 C39 1_555 1_555
H32 C39 1_555 1_555
C40 O5 1_555 1_555
C41 O6 1_555 1_555
H33 C41 1_555 1_555
H34 C41 1_555 1_555
H35 C41 1_555 1_555
C42 O7 1_555 1_555
H36 C42 1_555 1_555
H37 C42 1_555 1_555
H38 C42 1_555 1_555
C43 O8 1_555 1_555
H39 C43 1_555 1_555
H40 C43 1_555 1_555
H41 C43 1_555 1_555
C44 O9 1_555 1_555
H42 C44 1_555 1_555
H43 C44 1_555 1_555
H44 C44 1_555 1_555
C45 O10 1_555 1_555
H45 C45 1_555 1_555
H46 C45 1_555 1_555
H47 C45 1_555 1_555
N1 C47 1_555 1_555
N2 N4 1_555 1_555
C46 N3 1_555 1_555
C47 H48 1_555 1_555
H49 C47 1_555 1_555
C48 C47 1_555 1_555
H50 C48 1_555 1_555
C49 C48 1_555 1_555
H51 C49 1_555 1_555
H52 C49 1_555 1_555
C50 C46 1_555 1_555
H53 C50 1_555 1_555
H54 C50 1_555 1_555
N4 N1 1_555 1_555
C51 N1 1_555 1_555
H55 C51 1_555 1_555
C52 N2 1_555 1_555
H56 C52 1_555 1_555
Cl1 C53 1_555 1_555
Cl2 C53 1_555 1_555
C53 H57 1_555 1_555
H58 C53 1_555 1_555
C24 C25 1_555 1_555
C26 C27 1_555 1_555
C28 C29 1_555 1_555
C30 C31 1_555 1_555
C32 C33 1_555 1_555
C34 C35 1_555 1_555
C49 C50 1_555 1_555
C51 C52 1_555 1_555

#END
