
#######################################################################
#
#                 Cambridge Crystallographic Data Centre
#                                CCDC 
#
#######################################################################
#
# If this CIF has been generated from an entry in the Cambridge 
# Structural Database, then it will include bibliographic, chemical, 
# crystal, experimental, refinement or atomic coordinate data resulting 
# from the CCDC's data processing and validation procedures.
#
#######################################################################

data_LILBEQ
_chemical_formula_moiety         'C66 H60 N4 O10'
_chemical_name_systematic        
17,18,38,39-tetrabutoxy-2,12,23,33-tetraoxa-43,46,51,54-tetraazaundecacyclo[32.8.4.4^13,22^.2^3,6^.2^8,11^.2^24,27^.2^29,32^.0^16,53^.0^19,52^.0^37,45^.0^40,44^]octapentaconta-1(43),3,5,8,10,13(54),14,16(53),17,19(52),20,22(51),24,26,29,31,34(46),35,37(45),38,40(44),41,47,49,55,57-hexacosaene-7,28-dione
_symmetry_cell_setting           triclinic
_symmetry_space_group_name_H-M   'P -1'
_symmetry_Int_Tables_number      2
_space_group_name_Hall           '-P 1'
loop_
_symmetry_equiv_pos_site_id
_symmetry_equiv_pos_as_xyz
1 x,y,z
2 -x,-y,-z
_cell_length_a                   9.5297(19)
_cell_length_b                   12.386(3)
_cell_length_c                   12.981(3)
_cell_angle_alpha                64.27(3)
_cell_angle_beta                 69.70(3)
_cell_angle_gamma                84.73(3)
_cell_volume                     1291.43
_exptl_crystal_colour            colorless
_exptl_crystal_description       Block
_cell_formula_units_Z            1
loop_
_atom_site_label
_atom_site_type_symbol
_atom_site_fract_x
_atom_site_fract_y
_atom_site_fract_z
O1 O 1.12414(19) 0.14395(14) -0.15227(14)
O2 O 1.18780(16) 0.08565(13) 0.33833(13)
O3 O 0.85247(16) 0.28343(12) 0.72816(12)
O4 O 0.58768(15) 0.37591(12) 0.68864(12)
O5 O 0.50549(17) 0.24561(13) 0.29271(13)
N1 N 0.95956(18) 0.16499(14) 0.39979(14)
N2 N 0.68274(18) 0.22792(14) 0.38300(15)
C1 C 1.1914(2) 0.06974(17) -0.09095(18)
C2 C 1.1877(2) 0.06855(16) 0.02471(17)
C3 C 1.2933(2) 0.01543(17) 0.08072(17)
H1 H 1.367273 -0.026730 0.048254
C4 C 1.2889(2) 0.02485(17) 0.18409(18)
H2 H 1.361230 -0.009186 0.219692
C5 C 1.1761(2) 0.08538(17) 0.23485(17)
C6 C 1.0696(2) 0.13921(18) 0.18073(18)
H3 H 0.994141 0.179686 0.214396
C7 C 1.0782(2) 0.13125(17) 0.07597(18)
H4 H 1.008880 0.168901 0.038179
C8 C 1.0870(2) 0.12911(17) 0.41370(17)
C9 C 1.1341(2) 0.12668(18) 0.50629(18)
H5 H 1.223614 0.094613 0.515062
C10 C 1.0439(2) 0.17295(17) 0.58252(18)
H6 H 1.071225 0.172938 0.644678
C11 C 0.9082(2) 0.22108(16) 0.56648(17)
C12 C 0.8680(2) 0.21014(16) 0.47668(17)
C13 C 0.7246(2) 0.24766(16) 0.46436(16)
C14 C 0.6323(2) 0.30241(16) 0.53677(17)
C15 C 0.6799(2) 0.31773(16) 0.62368(17)
C16 C 0.8120(2) 0.27742(16) 0.63886(17)
C17 C 0.9709(2) 0.37408(18) 0.68607(19)
H7 H 1.031574 0.392602 0.602296
H8 H 1.035112 0.342981 0.735012
C18 C 0.9070(3) 0.48703(19) 0.69445(19)
H9 H 0.849126 0.521055 0.640492
H10 H 0.988743 0.545213 0.666950
C19 C 0.8071(3) 0.46524(19) 0.8229(2)
H11 H 0.722742 0.410069 0.848744
H12 H 0.863571 0.427293 0.877480
C20 C 0.7485(3) 0.5787(2) 0.8339(2)
H13 H 0.697341 0.619335 0.776821
H14 H 0.830752 0.630342 0.816882
H15 H 0.680019 0.558603 0.915031
C21 C 0.4978(2) 0.29465(18) 0.81080(18)
H16 H 0.562174 0.251736 0.857236
H17 H 0.439373 0.236341 0.808188
C22 C 0.3949(2) 0.36701(19) 0.87013(19)
H18 H 0.454793 0.429337 0.865369
H19 H 0.345359 0.314862 0.955575
C23 C 0.2759(2) 0.4254(2) 0.8134(2)
H20 H 0.216106 0.363489 0.817349
H21 H 0.324820 0.478868 0.728315
C24 C 0.1729(3) 0.4962(2) 0.8771(2)
H22 H 0.104750 0.536026 0.834693
H23 H 0.232021 0.554845 0.877191
H24 H 0.117140 0.442338 0.959390
C25 C 0.4942(2) 0.34020(17) 0.52061(18)
H25 H 0.431358 0.378340 0.565421
C26 C 0.4530(2) 0.32068(17) 0.43912(18)
H26 H 0.362508 0.344955 0.426986
C27 C 0.5525(2) 0.26244(17) 0.37406(17)
C28 C 0.5806(2) 0.16759(18) 0.24335(18)
C29 C 0.5853(2) 0.04795(19) 0.31672(18)
H27 H 0.540399 0.018128 0.400762
C30 C 0.6569(2) -0.02719(18) 0.26472(18)
H28 H 0.663102 -0.107365 0.314343
C31 C 0.7205(2) 0.01548(17) 0.13831(17)
C32 C 0.7094(2) 0.13546(17) 0.06547(18)
H29 H 0.748368 0.164712 -0.018812
C33 C 0.6401(2) 0.21192(18) 0.11829(18)
H30 H 0.633888 0.292402 0.069566
O1A O 0.87586(19) -0.14395(14) 0.15227(14)
O2A O 0.81220(16) -0.08565(13) -0.33833(13)
O3A O 1.14753(16) -0.28343(12) -0.72816(12)
O4A O 1.41232(15) -0.37591(12) -0.68864(12)
O5A O 1.49451(17) -0.24561(13) -0.29271(13)
N1A N 1.04044(18) -0.16499(14) -0.39979(14)
N2A N 1.31726(18) -0.22792(14) -0.38300(15)
C1A C 0.8086(2) -0.06974(17) 0.09095(18)
C2A C 0.8123(2) -0.06855(16) -0.02471(17)
C3A C 0.7067(2) -0.01543(17) -0.08072(17)
H1A H 0.632727 0.026730 -0.048254
C4A C 0.7111(2) -0.02485(17) -0.18409(18)
H2A H 0.638770 0.009186 -0.219692
C5A C 0.8239(2) -0.08538(17) -0.23485(17)
C6A C 0.9304(2) -0.13921(18) -0.18073(18)
H3A H 1.005859 -0.179686 -0.214396
C7A C 0.9218(2) -0.13125(17) -0.07597(18)
H4A H 0.991120 -0.168901 -0.038179
C8A C 0.9130(2) -0.12911(17) -0.41370(17)
C9A C 0.8659(2) -0.12668(18) -0.50629(18)
H5A H 0.776386 -0.094613 -0.515062
C10A C 0.9561(2) -0.17295(17) -0.58252(18)
H6A H 0.928775 -0.172938 -0.644678
C11A C 1.0918(2) -0.22108(16) -0.56648(17)
C12A C 1.1320(2) -0.21014(16) -0.47668(17)
C13A C 1.2754(2) -0.24766(16) -0.46436(16)
C14A C 1.3677(2) -0.30241(16) -0.53677(17)
C15A C 1.3201(2) -0.31773(16) -0.62368(17)
C16A C 1.1880(2) -0.27742(16) -0.63886(17)
C17A C 1.0291(2) -0.37408(18) -0.68607(19)
H7A H 0.968426 -0.392602 -0.602296
H8A H 0.964888 -0.342981 -0.735012
C18A C 1.0930(3) -0.48703(19) -0.69445(19)
H9A H 1.150874 -0.521055 -0.640492
H10A H 1.011257 -0.545213 -0.666950
C19A C 1.1929(3) -0.46524(19) -0.8229(2)
H11A H 1.277258 -0.410069 -0.848744
H12A H 1.136429 -0.427293 -0.877480
C20A C 1.2515(3) -0.5787(2) -0.8339(2)
H13A H 1.302659 -0.619335 -0.776821
H14A H 1.169248 -0.630342 -0.816882
H15A H 1.319981 -0.558603 -0.915031
C21A C 1.5022(2) -0.29465(18) -0.81080(18)
H16A H 1.437826 -0.251736 -0.857236
H17A H 1.560627 -0.236341 -0.808188
C22A C 1.6051(2) -0.36701(19) -0.87013(19)
H18A H 1.545207 -0.429337 -0.865369
H19A H 1.654641 -0.314862 -0.955575
C23A C 1.7241(2) -0.4254(2) -0.8134(2)
H20A H 1.783894 -0.363489 -0.817349
H21A H 1.675180 -0.478868 -0.728315
C24A C 1.8271(3) -0.4962(2) -0.8771(2)
H22A H 1.895250 -0.536026 -0.834693
H23A H 1.767979 -0.554845 -0.877191
H24A H 1.882860 -0.442338 -0.959390
C25A C 1.5058(2) -0.34020(17) -0.52061(18)
H25A H 1.568642 -0.378340 -0.565421
C26A C 1.5470(2) -0.32068(17) -0.43912(18)
H26A H 1.637492 -0.344955 -0.426986
C27A C 1.4475(2) -0.26244(17) -0.37406(17)
C28A C 1.4194(2) -0.16759(18) -0.24335(18)
C29A C 1.4147(2) -0.04795(19) -0.31672(18)
H27A H 1.459601 -0.018128 -0.400762
C30A C 1.3431(2) 0.02719(18) -0.26472(18)
H28A H 1.336898 0.107365 -0.314343
C31A C 1.2795(2) -0.01548(17) -0.13831(17)
C32A C 1.2906(2) -0.13546(17) -0.06547(18)
H29A H 1.251632 -0.164712 0.018812
C33A C 1.3599(2) -0.21192(18) -0.11829(18)
H30A H 1.366112 -0.292402 -0.069566
loop_
_geom_bond_atom_site_label_1
_geom_bond_atom_site_label_2
_geom_bond_site_symmetry_1
_geom_bond_site_symmetry_2
O1 C1 1_555 1_555
O2 C5 1_555 1_555
O3 C16 1_555 1_555
O4 C15 1_555 1_555
O5 C27 1_555 1_555
N1 C8 1_555 1_555
N2 C13 1_555 1_555
C1 C2 1_555 1_555
C2 C3 1_555 1_555
C3 H1 1_555 1_555
C4 C3 1_555 1_555
H2 C4 1_555 1_555
C5 C4 1_555 1_555
C6 C5 1_555 1_555
H3 C6 1_555 1_555
C7 C2 1_555 1_555
H4 C7 1_555 1_555
C8 O2 1_555 1_555
C9 C8 1_555 1_555
H5 C9 1_555 1_555
C10 C9 1_555 1_555
H6 C10 1_555 1_555
C11 C10 1_555 1_555
C12 N1 1_555 1_555
C13 C12 1_555 1_555
C14 C13 1_555 1_555
C15 C14 1_555 1_555
C16 C11 1_555 1_555
C17 O3 1_555 1_555
H7 C17 1_555 1_555
H8 C17 1_555 1_555
C18 C17 1_555 1_555
H9 C18 1_555 1_555
H10 C18 1_555 1_555
C19 C18 1_555 1_555
H11 C19 1_555 1_555
H12 C19 1_555 1_555
C20 C19 1_555 1_555
H13 C20 1_555 1_555
H14 C20 1_555 1_555
H15 C20 1_555 1_555
C21 O4 1_555 1_555
H16 C21 1_555 1_555
H17 C21 1_555 1_555
C22 C21 1_555 1_555
H18 C22 1_555 1_555
H19 C22 1_555 1_555
C23 C22 1_555 1_555
H20 C23 1_555 1_555
H21 C23 1_555 1_555
C24 C23 1_555 1_555
H22 C24 1_555 1_555
H23 C24 1_555 1_555
H24 C24 1_555 1_555
C25 C14 1_555 1_555
H25 C25 1_555 1_555
C26 C25 1_555 1_555
H26 C26 1_555 1_555
C27 N2 1_555 1_555
C28 O5 1_555 1_555
C29 C28 1_555 1_555
H27 C29 1_555 1_555
C30 C29 1_555 1_555
H28 C30 1_555 1_555
C31 C30 1_555 1_555
C32 C31 1_555 1_555
H29 C32 1_555 1_555
C33 C28 1_555 1_555
H30 C33 1_555 1_555
O1A C1A 1_555 1_555
O2A C5A 1_555 1_555
O3A C16A 1_555 1_555
O4A C15A 1_555 1_555
O5A C27A 1_555 1_555
N1A C8A 1_555 1_555
N2A C13A 1_555 1_555
C1A C31 1_555 1_555
C2A C1A 1_555 1_555
C3A C2A 1_555 1_555
H1A C3A 1_555 1_555
C4A C3A 1_555 1_555
H2A C4A 1_555 1_555
C5A C4A 1_555 1_555
C6A C5A 1_555 1_555
H3A C6A 1_555 1_555
C7A C2A 1_555 1_555
H4A C7A 1_555 1_555
C8A O2A 1_555 1_555
C9A C8A 1_555 1_555
H5A C9A 1_555 1_555
C10A C9A 1_555 1_555
H6A C10A 1_555 1_555
C11A C10A 1_555 1_555
C12A N1A 1_555 1_555
C13A C12A 1_555 1_555
C14A C13A 1_555 1_555
C15A C14A 1_555 1_555
C16A C11A 1_555 1_555
C17A O3A 1_555 1_555
H7A C17A 1_555 1_555
H8A C17A 1_555 1_555
C18A C17A 1_555 1_555
H9A C18A 1_555 1_555
H10A C18A 1_555 1_555
C19A C18A 1_555 1_555
H11A C19A 1_555 1_555
H12A C19A 1_555 1_555
C20A C19A 1_555 1_555
H13A C20A 1_555 1_555
H14A C20A 1_555 1_555
H15A C20A 1_555 1_555
C21A O4A 1_555 1_555
H16A C21A 1_555 1_555
H17A C21A 1_555 1_555
C22A C21A 1_555 1_555
H18A C22A 1_555 1_555
H19A C22A 1_555 1_555
C23A C22A 1_555 1_555
H20A C23A 1_555 1_555
H21A C23A 1_555 1_555
C24A C23A 1_555 1_555
H22A C24A 1_555 1_555
H23A C24A 1_555 1_555
H24A C24A 1_555 1_555
C25A C14A 1_555 1_555
H25A C25A 1_555 1_555
C26A C25A 1_555 1_555
H26A C26A 1_555 1_555
C27A N2A 1_555 1_555
C28A O5A 1_555 1_555
C29A C28A 1_555 1_555
H27A C29A 1_555 1_555
C30A C29A 1_555 1_555
H28A C30A 1_555 1_555
C31A C1 1_555 1_555
C32A C31A 1_555 1_555
H29A C32A 1_555 1_555
C33A C28A 1_555 1_555
H30A C33A 1_555 1_555
C6 C7 1_555 1_555
C11 C12 1_555 1_555
C15 C16 1_555 1_555
C26 C27 1_555 1_555
C32 C33 1_555 1_555
C6A C7A 1_555 1_555
C11A C12A 1_555 1_555
C15A C16A 1_555 1_555
C26A C27A 1_555 1_555
C30A C31A 1_555 1_555
C32A C33A 1_555 1_555

#END
