
#######################################################################
#
#                 Cambridge Crystallographic Data Centre
#                                CCDC 
#
#######################################################################
#
# If this CIF has been generated from an entry in the Cambridge 
# Structural Database, then it will include bibliographic, chemical, 
# crystal, experimental, refinement or atomic coordinate data resulting 
# from the CCDC's data processing and validation procedures.
#
#######################################################################

data_LILBUG
_chemical_formula_moiety         'C52 H52 N4 O8'
_chemical_name_systematic        
13,14,30,31-tetrabutoxy-2,8,19,25-tetraoxa-35,38,40,43-tetraazanonacyclo[24.8.4.4^9,18^.1^3,7^.1^20,24^.0^12,42^.0^15,41^.0^29,37^.0^32,36^]tetratetraconta-1(35),3(44),4,6,9(43),10,12(42),13,15(41),16,18(40),20(39),21,23,26(38),27,29(37),30,32(36),33-icosaene
_symmetry_cell_setting           monoclinic
_symmetry_space_group_name_H-M   'P 21/c'
_symmetry_Int_Tables_number      14
_space_group_name_Hall           '-P 2ybc'
loop_
_symmetry_equiv_pos_site_id
_symmetry_equiv_pos_as_xyz
1 x,y,z
2 -x,1/2+y,1/2-z
3 -x,-y,-z
4 x,1/2-y,1/2+z
_cell_length_a                   13.599(3)
_cell_length_b                   11.144(2)
_cell_length_c                   29.772(6)
_cell_angle_alpha                90
_cell_angle_beta                 96.44(3)
_cell_angle_gamma                90
_cell_volume                     4483.39
_exptl_crystal_colour            colorless
_exptl_crystal_description       plate
_cell_formula_units_Z            4
loop_
_atom_site_label
_atom_site_type_symbol
_atom_site_fract_x
_atom_site_fract_y
_atom_site_fract_z
O1 O 0.2547(2) 0.6226(3) 0.54787(10)
O2 O 0.2975(2) 0.8096(3) 0.49075(10)
O3 O 0.5318(2) 0.5955(3) 0.33735(10)
O4 O 0.6653(2) 0.3726(3) 0.22518(10)
O5 O 0.8744(2) -0.0960(3) 0.16384(10)
O6 O 0.8470(3) -0.2766(3) 0.22654(12)
O7 O 0.6482(2) -0.0473(3) 0.38841(10)
O8 O 0.4327(2) 0.1430(3) 0.47919(9)
N1 N 0.4222(3) 0.3427(3) 0.45792(11)
N2 N 0.4628(3) 0.5263(3) 0.40043(11)
N3 N 0.7062(3) 0.1842(3) 0.25345(12)
N4 N 0.6955(3) 0.0121(3) 0.31927(12)
C1 C 0.4042(3) 0.2590(4) 0.48637(14)
C2 C 0.3579(3) 0.2756(4) 0.52598(14)
H1 H 0.3490 0.2120 0.5453
C3 C 0.3268(3) 0.3886(4) 0.53483(14)
H2 H 0.2948 0.4032 0.5603
C4 C 0.3433(3) 0.4832(4) 0.50515(14)
C5 C 0.3930(3) 0.4575(4) 0.46722(14)
C6 C 0.4133(3) 0.5530(4) 0.43720(13)
C7 C 0.3830(3) 0.6706(4) 0.44623(14)
C8 C 0.3280(3) 0.6931(4) 0.48388(15)
C9 C 0.3104(3) 0.6036(4) 0.51275(14)
C10 C 0.4065(3) 0.7627(4) 0.41680(14)
H3 H 0.3891 0.8417 0.4222
C11 C 0.4549(3) 0.7355(4) 0.38042(14)
H4 H 0.4704 0.7946 0.3603
C12 C 0.4805(3) 0.6155(4) 0.37436(14)
C13 C 0.1987(4) 0.8336(5) 0.46934(18)
H5 H 0.1522 0.7775 0.4802
H6 H 0.1966 0.8244 0.4368
C14 C 0.1716(4) 0.9604(5) 0.48079(19)
H7 H 0.2246 1.0136 0.4742
H8 H 0.1125 0.9835 0.4614
C15 C 0.1534(4) 0.9778(6) 0.5292(2)
H9 H 0.2138 0.9605 0.5486
H10 H 0.1034 0.9211 0.5365
C16 C 0.1193(5) 1.1043(7) 0.5391(3)
H11 H 0.0585 1.1214 0.5205
H12 H 0.1690 1.1609 0.5325
H13 H 0.1090 1.1103 0.5704
C17 C 0.3105(4) 0.6706(5) 0.58843(15)
H14 H 0.3363 0.7494 0.5824
H15 H 0.3657 0.6182 0.5984
C18 C 0.2403(4) 0.6784(5) 0.62432(16)
H16 H 0.1863 0.7321 0.6139
H17 H 0.2751 0.7127 0.6515
C19 C 0.1976(4) 0.5572(5) 0.63578(17)
H18 H 0.1572 0.5263 0.6094
H19 H 0.2514 0.5011 0.6435
C20 C 0.1355(4) 0.5650(6) 0.67474(18)
H20 H 0.0850 0.6247 0.6682
H21 H 0.1768 0.5866 0.7018
H22 H 0.1052 0.4886 0.6789
C21 C 0.5229(3) 0.4907(4) 0.31165(14)
C22 C 0.4466(3) 0.4088(4) 0.31232(14)
H23 H 0.3992 0.4171 0.3323
C23 C 0.4435(3) 0.3136(4) 0.28195(14)
H24 H 0.3917 0.2589 0.2812
C24 C 0.5146(3) 0.2977(4) 0.25297(15)
H25 H 0.5113 0.2333 0.2330
C25 C 0.5907(3) 0.3800(4) 0.25438(14)
C26 C 0.5957(3) 0.4781(4) 0.28274(14)
H26 H 0.6463 0.5341 0.2825
C27 C 0.7114(3) 0.2638(4) 0.22210(14)
C28 C 0.7647(3) 0.2501(4) 0.18443(15)
H27 H 0.7714 0.3133 0.1646
C29 C 0.8058(3) 0.1410(4) 0.17819(15)
H28 H 0.8403 0.1280 0.1533
C30 C 0.7964(3) 0.0473(4) 0.20943(14)
C31 C 0.7477(3) 0.0744(4) 0.24761(14)
C32 C 0.7400(3) -0.0170(4) 0.28183(14)
C33 C 0.7778(3) -0.1321(4) 0.27439(15)
C34 C 0.8220(3) -0.1585(4) 0.23390(16)
C35 C 0.8309(3) -0.0720(4) 0.20267(15)
C36 C 0.8042(4) -0.1302(6) 0.12648(17)
H29 H 0.7574 -0.0655 0.1194
H30 H 0.7677 -0.2002 0.1346
C37 C 0.8561(4) -0.1581(6) 0.08594(18)
H31 H 0.8115 -0.1941 0.0620
H32 H 0.9121 -0.2111 0.0936
C38 C 0.8907(13) -0.0288(11) 0.0723(5)
H33 H 0.8324 0.0215 0.0665
H34 H 0.9314 0.0051 0.0980
C39 C 0.9478(15) -0.022(2) 0.0319(6)
H35 H 0.9046 -0.0399 0.0050
H36 H 1.0012 -0.0786 0.0352
H37 H 0.9740 0.0577 0.0296
C40 C 0.9527(4) -0.3015(5) 0.23321(19)
H38 H 0.9782 -0.2936 0.2648
H39 H 0.9885 -0.2472 0.2155
C41 C 0.9619(7) -0.4316(7) 0.2171(3)
H40 H 1.0288 -0.4592 0.2263
H41 H 0.9173 -0.4814 0.2323
C42 C 0.9391(7) -0.4494(9) 0.1662(3)
C43 C 0.9807(7) -0.5628(8) 0.1524(3)
H42 H 0.9507 -0.5258 0.1251
H43 H 0.9582 -0.6442 0.1537
H44 H 1.0514 -0.5618 0.1527
C44 C 0.7681(3) -0.2196(4) 0.30804(15)
H45 H 0.7921 -0.2968 0.3047
C45 C 0.7234(3) -0.1908(4) 0.34554(15)
H46 H 0.7167 -0.2470 0.3681
C46 C 0.6884(3) -0.0736(4) 0.34870(14)
C47 C 0.5604(3) 0.0174(4) 0.38870(14)
C48 C 0.4909(3) 0.0305(4) 0.35127(15)
H47 H 0.5051 0.0067 0.3228
C49 C 0.4000(3) 0.0796(4) 0.35727(15)
H48 H 0.3520 0.0865 0.3326
C50 C 0.3792(4) 0.1187(4) 0.39912(16)
H49 H 0.3175 0.1505 0.4029
C51 C 0.4518(3) 0.1097(4) 0.43538(14)
C52 C 0.5418(3) 0.0578(4) 0.43108(14)
H50 H 0.5892 0.0498 0.4560
H51? H 0.8865 -0.2364 0.0911
H52? H 0.8053 -0.1668 0.0606
C53? C 0.9328(10) -0.0778(14) 0.0709(5)
H53? H 0.9819 -0.0582 0.0961
H54? H 0.9032 -0.0039 0.0586
C54? C 0.9797(15) -0.146(2) 0.0350(6)
H55? H 0.9331 -0.1536 0.0084
H56? H 0.9984 -0.2250 0.0461
H57? H 1.0373 -0.1043 0.0276
C55? C 0.9933(11) -0.3656(13) 0.1941(5)
H58? H 1.0650 -0.3673 0.1985
H59? H 0.9722 -0.3253 0.1658
C56? C 0.9515(15) -0.4926(14) 0.1938(6)
H60? H 0.8800 -0.4892 0.1926
H61? H 0.9770 -0.5337 0.2214
C57? C 1.0234(13) -0.412(2) 0.1400(7)
H62? H 1.0062 -0.4286 0.1084
H63? H 1.0821 -0.4556 0.1508
H64? H 1.0354 -0.3274 0.1440
H65? H 0.9243 -0.5334 0.1601
H66? H 0.8806 -0.4033 0.1555
loop_
_geom_bond_atom_site_label_1
_geom_bond_atom_site_label_2
_geom_bond_site_symmetry_1
_geom_bond_site_symmetry_2
O1 C9 1_555 1_555
O2 C8 1_555 1_555
O3 C12 1_555 1_555
O4 C25 1_555 1_555
O5 C35 1_555 1_555
O6 C34 1_555 1_555
O7 C46 1_555 1_555
O8 C1 1_555 1_555
N1 C1 1_555 1_555
N2 C6 1_555 1_555
N3 C27 1_555 1_555
N4 C32 1_555 1_555
C1 C2 1_555 1_555
C2 H1 1_555 1_555
C3 C2 1_555 1_555
H2 C3 1_555 1_555
C4 C3 1_555 1_555
C5 N1 1_555 1_555
C6 C5 1_555 1_555
C7 C6 1_555 1_555
C8 C7 1_555 1_555
C9 C4 1_555 1_555
C10 C7 1_555 1_555
H3 C10 1_555 1_555
C11 C10 1_555 1_555
H4 C11 1_555 1_555
C12 N2 1_555 1_555
C13 O2 1_555 1_555
H5 C13 1_555 1_555
H6 C13 1_555 1_555
C14 C13 1_555 1_555
H7 C14 1_555 1_555
H8 C14 1_555 1_555
C15 C14 1_555 1_555
H9 C15 1_555 1_555
H10 C15 1_555 1_555
C16 C15 1_555 1_555
H11 C16 1_555 1_555
H12 C16 1_555 1_555
H13 C16 1_555 1_555
C17 O1 1_555 1_555
H14 C17 1_555 1_555
H15 C17 1_555 1_555
C18 C17 1_555 1_555
H16 C18 1_555 1_555
H17 C18 1_555 1_555
C19 C18 1_555 1_555
H18 C19 1_555 1_555
H19 C19 1_555 1_555
C20 C19 1_555 1_555
H20 C20 1_555 1_555
H21 C20 1_555 1_555
H22 C20 1_555 1_555
C21 O3 1_555 1_555
C22 C21 1_555 1_555
H23 C22 1_555 1_555
C23 C22 1_555 1_555
H24 C23 1_555 1_555
C24 C23 1_555 1_555
H25 C24 1_555 1_555
C25 C24 1_555 1_555
C26 C21 1_555 1_555
H26 C26 1_555 1_555
C27 O4 1_555 1_555
C28 C27 1_555 1_555
H27 C28 1_555 1_555
C29 C28 1_555 1_555
H28 C29 1_555 1_555
C30 C29 1_555 1_555
C31 N3 1_555 1_555
C32 C31 1_555 1_555
C33 C32 1_555 1_555
C34 C33 1_555 1_555
C35 C30 1_555 1_555
C36 O5 1_555 1_555
H29 C36 1_555 1_555
H30 C36 1_555 1_555
C37 C36 1_555 1_555
H31 C37 1_555 1_555
H32 C37 1_555 1_555
C38 C37 1_555 1_555
H33 C38 1_555 1_555
H34 C38 1_555 1_555
C39 C38 1_555 1_555
H35 C39 1_555 1_555
H36 C39 1_555 1_555
H37 C39 1_555 1_555
C40 O6 1_555 1_555
H38 C40 1_555 1_555
H39 C40 1_555 1_555
C41 C40 1_555 1_555
H40 C41 1_555 1_555
H41 C41 1_555 1_555
C42 C41 1_555 1_555
C43 C42 1_555 1_555
H42 C43 1_555 1_555
H43 C43 1_555 1_555
H44 C43 1_555 1_555
C44 C33 1_555 1_555
H45 C44 1_555 1_555
C45 C44 1_555 1_555
H46 C45 1_555 1_555
C46 N4 1_555 1_555
C47 O7 1_555 1_555
C48 C47 1_555 1_555
H47 C48 1_555 1_555
C49 C48 1_555 1_555
H48 C49 1_555 1_555
C50 C49 1_555 1_555
H49 C50 1_555 1_555
C51 O8 1_555 1_555
C52 C47 1_555 1_555
H50 C52 1_555 1_555
C4 C5 1_555 1_555
C8 C9 1_555 1_555
C11 C12 1_555 1_555
C25 C26 1_555 1_555
C30 C31 1_555 1_555
C34 C35 1_555 1_555
C45 C46 1_555 1_555
C50 C51 1_555 1_555
C51 C52 1_555 1_555

#END
