
#######################################################################
#
#                 Cambridge Crystallographic Data Centre
#                                CCDC 
#
#######################################################################
#
# If this CIF has been generated from an entry in the Cambridge 
# Structural Database, then it will include bibliographic, chemical, 
# crystal, experimental, refinement or atomic coordinate data resulting 
# from the CCDC's data processing and validation procedures.
#
#######################################################################

data_LILBOA
_chemical_formula_moiety         'C64 H60 N4 O10'
_chemical_name_systematic        
17,18,38,39-tetrabutoxy-2,7,12,23,28,33-hexaoxa-43,46,51,54-tetraazaundecacyclo[32.8.4.4^13,22^.2^3,6^.2^8,11^.2^24,27^.2^29,32^.0^16,53^.0^19,52^.0^37,45^.0^40,44^]octapentaconta-1(43),3,5,8,10,13,15,17,19,21,24,26,29,31,34(46),35,37(45),38,40(44),41,47,49,51,53,55,57-hexacosaene
_symmetry_cell_setting           triclinic
_symmetry_space_group_name_H-M   'P -1'
_symmetry_Int_Tables_number      2
_space_group_name_Hall           '-P 1'
loop_
_symmetry_equiv_pos_site_id
_symmetry_equiv_pos_as_xyz
1 x,y,z
2 -x,-y,-z
_cell_length_a                   5.700(4)
_cell_length_b                   12.943(9)
_cell_length_c                   17.893(12)
_cell_angle_alpha                96.055(17)
_cell_angle_beta                 90.677(14)
_cell_angle_gamma                101.044(18)
_cell_volume                     1287.69
_exptl_crystal_colour            colorless
_exptl_crystal_description       needle
_cell_formula_units_Z            1
loop_
_atom_site_label
_atom_site_type_symbol
_atom_site_fract_x
_atom_site_fract_y
_atom_site_fract_z
O1 O 0.4241(5) 0.9794(2) 0.58107(15)
O2 O 0.0714(5) 0.5873(2) 0.42422(17)
O3 O 0.5580(5) 0.3008(2) 0.27582(16)
O4 O 0.4205(5) -0.1725(2) 0.13045(15)
O5 O -0.0102(5) -0.2853(2) 0.18089(15)
N1 N 0.0998(6) 0.9708(3) 0.65813(18)
N2 N 0.2944(6) 0.1418(2) 0.28276(18)
C1 C -0.0180(7) 1.0224(3) 0.7112(2)
C2 C 0.0592(7) 1.1292(3) 0.7388(2)
C3 C 0.2724(7) 1.1834(3) 0.7107(2)
H1 H 0.3327 1.2554 0.7287
C4 C 0.3921(7) 1.1322(3) 0.6577(2)
H2 H 0.5363 1.1671 0.6379
C5 C 0.2932(7) 1.0257(3) 0.6334(2)
C6 C 0.3297(7) 0.8787(3) 0.5434(2)
C7 C 0.4660(7) 0.8018(3) 0.5447(2)
H3 H 0.6125 0.8162 0.5732
C8 C 0.3894(8) 0.7031(3) 0.5043(2)
H4 H 0.4811 0.6492 0.5055
C9 C 0.1771(7) 0.6845(3) 0.4623(2)
C10 C 0.0430(8) 0.7633(3) 0.4608(2)
H5 H -0.1012 0.7500 0.4312
C11 C 0.1173(8) 0.8601(3) 0.5017(2)
H6 H 0.0242 0.9136 0.5014
C12 C 0.2074(7) 0.5177(3) 0.3915(2)
C13 C 0.4328(7) 0.5468(3) 0.3643(2)
H7 H 0.5138 0.6187 0.3712
C14 C 0.5389(8) 0.4701(3) 0.3268(2)
H8 H 0.6950 0.4894 0.3083
C15 C 0.4225(7) 0.3663(3) 0.3159(2)
C16 C 0.1951(7) 0.3363(3) 0.3427(2)
H9 H 0.1135 0.2646 0.3353
C17 C 0.0902(7) 0.4136(3) 0.3805(2)
H10 H -0.0656 0.3946 0.3992
C18 C 0.4880(7) 0.1933(3) 0.2560(2)
C19 C 0.6402(8) 0.1489(3) 0.2067(2)
H11 H 0.7843 0.1903 0.1915
C20 C 0.5745(7) 0.0450(3) 0.1816(2)
H12 H 0.6712 0.0126 0.1471
C21 C 0.3627(7) -0.0153(3) 0.2064(2)
C22 C 0.2294(7) 0.0364(3) 0.2591(2)
C23 C 0.2783(7) -0.1256(3) 0.1809(2)
C24 C 0.0745(7) -0.1803(3) 0.2071(2)
C25 C 0.3150(8) -0.1954(4) 0.0558(2)
H13 H 0.2612 -0.1321 0.0406
H14 H 0.1742 -0.2538 0.0546
C26 C 0.4973(9) -0.2265(4) 0.0025(3)
H15 H 0.4175 -0.2525 -0.0472
H16 H 0.5593 -0.2859 0.0211
C27 C 0.7051(9) -0.1382(4) -0.0072(3)
H17 H 0.8011 -0.1201 0.0404
H18 H 0.6430 -0.0747 -0.0180
C28 C 0.8666(10) -0.1666(5) -0.0705(3)
H19 H 0.7763 -0.1785 -0.1186
H20 H 0.9233 -0.2311 -0.0613
H21 H 1.0038 -0.1083 -0.0721
C29 C 0.0984(9) -0.3577(3) 0.2203(3)
H22 H 0.0585 -0.3513 0.2740
H23 H 0.2745 -0.3406 0.2168
C30 C 0.0037(10) -0.4685(4) 0.1846(3)
H24 H 0.0568 -0.5183 0.2164
H25 H -0.1731 -0.4811 0.1851
C31 C 0.0744(13) -0.4950(5) 0.1064(3)
H26 H 0.0439 -0.4395 0.0756
H27 H -0.0273 -0.5628 0.0853
C32 C 0.3308(14) -0.5043(7) 0.1005(5)
H28 H 0.3665 -0.5204 0.0476
H29 H 0.3611 -0.5613 0.1290
H30 H 0.4331 -0.4374 0.1210
O1A O -0.4241(5) 0.0206(2) 0.41893(15)
O2A O -0.0714(5) 0.4127(2) 0.57578(17)
O3A O -0.5580(5) 0.6992(2) 0.72418(16)
O4A O -0.4205(5) 1.1725(2) 0.86955(15)
O5A O 0.0102(5) 1.2853(2) 0.81911(15)
N1A N -0.0998(6) 0.0292(3) 0.34187(18)
N2A N -0.2944(6) 0.8582(2) 0.71724(18)
C1A C 0.0180(7) -0.0224(3) 0.2888(2)
C2A C -0.0592(7) -0.1292(3) 0.2612(2)
C3A C -0.2724(7) -0.1834(3) 0.2893(2)
H1A H -0.3327 -0.2554 0.2713
C4A C -0.3921(7) -0.1322(3) 0.3423(2)
H2A H -0.5363 -0.1671 0.3621
C5A C -0.2932(7) -0.0257(3) 0.3666(2)
C6A C -0.3297(7) 0.1213(3) 0.4566(2)
C7A C -0.4660(7) 0.1982(3) 0.4553(2)
H3A H -0.6125 0.1838 0.4268
C8A C -0.3894(8) 0.2969(3) 0.4957(2)
H4A H -0.4811 0.3508 0.4945
C9A C -0.1771(7) 0.3155(3) 0.5377(2)
C10A C -0.0430(8) 0.2367(3) 0.5392(2)
H5A H 0.1012 0.2500 0.5688
C11A C -0.1173(8) 0.1399(3) 0.4983(2)
H6A H -0.0242 0.0864 0.4986
C12A C -0.2074(7) 0.4823(3) 0.6085(2)
C13A C -0.4328(7) 0.4532(3) 0.6357(2)
H7A H -0.5138 0.3813 0.6288
C14A C -0.5389(8) 0.5299(3) 0.6732(2)
H8A H -0.6950 0.5106 0.6917
C15A C -0.4225(7) 0.6337(3) 0.6841(2)
C16A C -0.1951(7) 0.6637(3) 0.6573(2)
H9A H -0.1135 0.7354 0.6647
C17A C -0.0902(7) 0.5864(3) 0.6195(2)
H10A H 0.0656 0.6054 0.6008
C18A C -0.4880(7) 0.8067(3) 0.7440(2)
C19A C -0.6402(8) 0.8511(3) 0.7933(2)
H11A H -0.7843 0.8097 0.8085
C20A C -0.5745(7) 0.9550(3) 0.8184(2)
H12A H -0.6712 0.9874 0.8529
C21A C -0.3627(7) 1.0153(3) 0.7936(2)
C22A C -0.2294(7) 0.9636(3) 0.7409(2)
C23A C -0.2783(7) 1.1256(3) 0.8191(2)
C24A C -0.0745(7) 1.1803(3) 0.7929(2)
C25A C -0.3150(8) 1.1954(4) 0.9442(2)
H13A H -0.2612 1.1321 0.9594
H14A H -0.1742 1.2538 0.9454
C26A C -0.4973(9) 1.2265(4) 0.9975(3)
H15A H -0.4175 1.2525 1.0472
H16A H -0.5593 1.2859 0.9789
C27A C -0.7051(9) 1.1382(4) 1.0072(3)
H17A H -0.8011 1.1201 0.9596
H18A H -0.6430 1.0747 1.0180
C28A C -0.8666(10) 1.1666(5) 1.0705(3)
H19A H -0.7763 1.1785 1.1186
H20A H -0.9233 1.2311 1.0613
H21A H -1.0038 1.1083 1.0721
C29A C -0.0984(9) 1.3577(3) 0.7797(3)
H22A H -0.0585 1.3513 0.7260
H23A H -0.2745 1.3406 0.7832
C30A C -0.0037(10) 1.4685(4) 0.8154(3)
H24A H -0.0568 1.5183 0.7836
H25A H 0.1731 1.4811 0.8149
C31A C -0.0744(13) 1.4950(5) 0.8936(3)
H26A H -0.0439 1.4395 0.9244
H27A H 0.0273 1.5628 0.9147
C32A C -0.3308(14) 1.5043(7) 0.8995(5)
H28A H -0.3665 1.5204 0.9524
H29A H -0.3611 1.5613 0.8710
H30A H -0.4331 1.4374 0.8790
loop_
_geom_bond_atom_site_label_1
_geom_bond_atom_site_label_2
_geom_bond_site_symmetry_1
_geom_bond_site_symmetry_2
O1 C5 1_555 1_555
O2 C9 1_555 1_555
O3 C15 1_555 1_555
O4 C23 1_555 1_555
O5 C24 1_555 1_555
N1 C1 1_555 1_555
N2 C18 1_555 1_555
C1 C2 1_555 1_555
C2 C3 1_555 1_555
C3 H1 1_555 1_555
C4 C3 1_555 1_555
H2 C4 1_555 1_555
C5 N1 1_555 1_555
C6 O1 1_555 1_555
C7 C6 1_555 1_555
H3 C7 1_555 1_555
C8 C7 1_555 1_555
H4 C8 1_555 1_555
C9 C8 1_555 1_555
C10 C9 1_555 1_555
H5 C10 1_555 1_555
C11 C6 1_555 1_555
H6 C11 1_555 1_555
C12 O2 1_555 1_555
C13 C12 1_555 1_555
H7 C13 1_555 1_555
C14 C13 1_555 1_555
H8 C14 1_555 1_555
C15 C14 1_555 1_555
C16 C15 1_555 1_555
H9 C16 1_555 1_555
C17 C12 1_555 1_555
H10 C17 1_555 1_555
C18 O3 1_555 1_555
C19 C18 1_555 1_555
H11 C19 1_555 1_555
C20 C19 1_555 1_555
H12 C20 1_555 1_555
C21 C20 1_555 1_555
C22 N2 1_555 1_555
C23 C21 1_555 1_555
C24 C23 1_555 1_555
C25 O4 1_555 1_555
H13 C25 1_555 1_555
H14 C25 1_555 1_555
C26 C25 1_555 1_555
H15 C26 1_555 1_555
H16 C26 1_555 1_555
C27 C26 1_555 1_555
H17 C27 1_555 1_555
H18 C27 1_555 1_555
C28 C27 1_555 1_555
H19 C28 1_555 1_555
H20 C28 1_555 1_555
H21 C28 1_555 1_555
C29 O5 1_555 1_555
H22 C29 1_555 1_555
H23 C29 1_555 1_555
C30 C29 1_555 1_555
H24 C30 1_555 1_555
H25 C30 1_555 1_555
C31 C30 1_555 1_555
H26 C31 1_555 1_555
H27 C31 1_555 1_555
C32 C31 1_555 1_555
H28 C32 1_555 1_555
H29 C32 1_555 1_555
H30 C32 1_555 1_555
O1A C5A 1_555 1_555
O2A C9A 1_555 1_555
O3A C15A 1_555 1_555
O4A C23A 1_555 1_555
O5A C24A 1_555 1_555
N1A C1A 1_555 1_555
N2A C18A 1_555 1_555
C1A C22 1_555 1_555
C2A C24 1_555 1_555
C3A C2A 1_555 1_555
H1A C3A 1_555 1_555
C4A C3A 1_555 1_555
H2A C4A 1_555 1_555
C5A N1A 1_555 1_555
C6A O1A 1_555 1_555
C7A C6A 1_555 1_555
H3A C7A 1_555 1_555
C8A C7A 1_555 1_555
H4A C8A 1_555 1_555
C9A C8A 1_555 1_555
C10A C9A 1_555 1_555
H5A C10A 1_555 1_555
C11A C6A 1_555 1_555
H6A C11A 1_555 1_555
C12A O2A 1_555 1_555
C13A C12A 1_555 1_555
H7A C13A 1_555 1_555
C14A C13A 1_555 1_555
H8A C14A 1_555 1_555
C15A C14A 1_555 1_555
C16A C15A 1_555 1_555
H9A C16A 1_555 1_555
C17A C12A 1_555 1_555
H10A C17A 1_555 1_555
C18A O3A 1_555 1_555
C19A C18A 1_555 1_555
H11A C19A 1_555 1_555
C20A C19A 1_555 1_555
H12A C20A 1_555 1_555
C21A C20A 1_555 1_555
C22A C1 1_555 1_555
C23A C21A 1_555 1_555
C24A C2 1_555 1_555
C25A O4A 1_555 1_555
H13A C25A 1_555 1_555
H14A C25A 1_555 1_555
C26A C25A 1_555 1_555
H15A C26A 1_555 1_555
H16A C26A 1_555 1_555
C27A C26A 1_555 1_555
H17A C27A 1_555 1_555
H18A C27A 1_555 1_555
C28A C27A 1_555 1_555
H19A C28A 1_555 1_555
H20A C28A 1_555 1_555
H21A C28A 1_555 1_555
C29A O5A 1_555 1_555
H22A C29A 1_555 1_555
H23A C29A 1_555 1_555
C30A C29A 1_555 1_555
H24A C30A 1_555 1_555
H25A C30A 1_555 1_555
C31A C30A 1_555 1_555
H26A C31A 1_555 1_555
H27A C31A 1_555 1_555
C32A C31A 1_555 1_555
H28A C32A 1_555 1_555
H29A C32A 1_555 1_555
H30A C32A 1_555 1_555
C4 C5 1_555 1_555
C10 C11 1_555 1_555
C16 C17 1_555 1_555
C21 C22 1_555 1_555
N2A C22A 1_555 1_555
C1A C2A 1_555 1_555
C4A C5A 1_555 1_555
C10A C11A 1_555 1_555
C16A C17A 1_555 1_555
C21A C22A 1_555 1_555
C23A C24A 1_555 1_555

#END
