
#######################################################################
#
#                 Cambridge Crystallographic Data Centre
#                                CCDC 
#
#######################################################################
#
# If this CIF has been generated from an entry in the Cambridge 
# Structural Database, then it will include bibliographic, chemical, 
# crystal, experimental, refinement or atomic coordinate data resulting 
# from the CCDC's data processing and validation procedures.
#
#######################################################################

data_LILBIU
_chemical_formula_moiety         'C60 H36 N4 O4'
_chemical_name_systematic        
2,16,27,41-tetraoxa-51,54,60,63-tetraazatridecacyclo[40.8.4.4^17,26^.2^3,6^.2^12,15^.2^28,31^.2^37,40^.1^7,11^.1^32,36^.0^20,62^.0^23,61^.0^45,53^.0^48,52^]octahexaconta-1(50),3,5,7(66),8,10,12,14,17,19,21,23,25,28,30,32(57),33,35,37,39,42,44,46,48,51,53,55,58,60,62,64,67-dotriacontaene
_symmetry_cell_setting           triclinic
_symmetry_space_group_name_H-M   'P -1'
_symmetry_Int_Tables_number      2
_space_group_name_Hall           '-P 1'
loop_
_symmetry_equiv_pos_site_id
_symmetry_equiv_pos_as_xyz
1 x,y,z
2 -x,-y,-z
_cell_length_a                   10.526(3)
_cell_length_b                   15.042(4)
_cell_length_c                   15.272(3)
_cell_angle_alpha                65.961(10)
_cell_angle_beta                 74.535(12)
_cell_angle_gamma                78.789(11)
_cell_volume                     2118.23
_exptl_crystal_colour            colorless
_exptl_crystal_description       block
_cell_formula_units_Z            2
loop_
_atom_site_label
_atom_site_type_symbol
_atom_site_fract_x
_atom_site_fract_y
_atom_site_fract_z
O1 O -0.34489(17) 0.48302(13) 0.24096(13)
O2 O 0.32493(16) 0.49079(13) 0.11734(12)
O3 O 0.57419(18) -0.09181(12) 0.90893(12)
O4 O 0.55687(17) 0.39098(12) 0.63358(13)
N1 N -0.1553(2) 0.54392(14) 0.13002(14)
N2 N 0.1148(2) 0.54580(14) 0.08005(14)
N3 N 0.6372(2) 0.25571(15) 0.75346(15)
N4 N 0.64208(19) 0.06063(15) 0.86606(14)
C1 C -0.2839(3) 0.54558(18) 0.15196(18)
C2 C -0.3713(3) 0.60712(19) 0.0904(2)
H1 H -0.4623 0.6033 0.1099
C3 C -0.3167(3) 0.67173(19) 0.0020(2)
H2 H -0.3706 0.7136 -0.0405
C4 C -0.1779(3) 0.67582(18) -0.02589(18)
C5 C -0.1158(3) 0.74359(19) -0.11691(19)
H3 H -0.1677 0.7883 -0.1596
C6 C 0.0176(3) 0.74427(19) -0.14258(19)
H4 H 0.0560 0.7887 -0.2030
C7 C 0.1003(3) 0.67734(18) -0.07791(18)
C8 C 0.2396(3) 0.67579(19) -0.09987(18)
H5 H 0.2820 0.7182 -0.1600
C9 C 0.3119(3) 0.61316(19) -0.03430(18)
H6 H 0.4035 0.6122 -0.0478
C10 C 0.2432(3) 0.54939(18) 0.05522(17)
C11 C 0.0419(2) 0.60990(17) 0.01359(17)
C12 C -0.1007(3) 0.60933(17) 0.04047(17)
C13 C 0.2929(2) 0.40682(17) 0.20065(16)
C14 C 0.1691(2) 0.37284(18) 0.24299(17)
H7 H 0.0944 0.4085 0.2195
C15 C 0.1604(2) 0.28357(18) 0.32191(17)
H8 H 0.0780 0.2595 0.3505
C16 C 0.2694(2) 0.22867(17) 0.36000(16)
C17 C 0.3913(2) 0.26744(18) 0.31749(17)
H9 H 0.4657 0.2332 0.3423
C18 C 0.4031(2) 0.35588(19) 0.23920(18)
H10 H 0.4847 0.3814 0.2123
C19 C 0.2582(2) 0.13165(18) 0.44112(17)
C20 C 0.3302(2) 0.10195(17) 0.51458(16)
H11 H 0.3863 0.1441 0.5121
C21 C 0.3206(2) 0.01137(17) 0.59134(17)
C22 C 0.2379(2) -0.05189(18) 0.59245(18)
H12 H 0.2319 -0.1137 0.6420
C23 C 0.1649(2) -0.02319(19) 0.52033(19)
H13 H 0.1094 -0.0655 0.5223
C24 C 0.1741(2) 0.06791(19) 0.44563(18)
H14 H 0.1241 0.0869 0.3980
C25 C 0.3909(2) -0.01599(17) 0.67264(17)
C26 C 0.5131(2) 0.01760(18) 0.65723(17)
H15 H 0.5533 0.0556 0.5940
C27 C 0.5759(2) -0.00414(19) 0.73339(18)
H16 H 0.6569 0.0192 0.7216
C28 C 0.5164(2) -0.06119(17) 0.82762(17)
C29 C 0.3987(2) -0.09864(18) 0.84468(17)
H17 H 0.3617 -0.1397 0.9075
C30 C 0.3360(2) -0.07489(18) 0.76817(18)
H18 H 0.2552 -0.0988 0.7807
C31 C 0.6438(3) -0.03165(19) 0.92194(18)
C32 C 0.7123(3) -0.0786(2) 0.99959(19)
H19 H 0.7053 -0.1442 1.0397
C33 C 0.7886(3) -0.0241(2) 1.01313(19)
H20 H 0.8343 -0.0522 1.0639
C34 C 0.7991(3) 0.0748(2) 0.95084(18)
C35 C 0.8836(3) 0.1349(2) 0.9565(2)
H21 H 0.9339 0.1087 1.0045
C36 C 0.8926(3) 0.2285(2) 0.8941(2)
H22 H 0.9523 0.2647 0.8972
C37 C 0.8106(2) 0.2731(2) 0.82246(19)
C38 C 0.8123(3) 0.3711(2) 0.7573(2)
H23 H 0.8714 0.4098 0.7571
C39 C 0.7278(3) 0.4097(2) 0.6943(2)
H24 H 0.7278 0.4745 0.6508
C40 C 0.6404(2) 0.34785(19) 0.69760(18)
C41 C 0.7214(2) 0.21712(18) 0.81751(18)
C42 C 0.7199(2) 0.11511(19) 0.87966(18)
C43 C 0.4516(2) 0.34373(17) 0.63791(18)
C44 C 0.3751(2) 0.28614(18) 0.72428(18)
H25 H 0.3975 0.2708 0.7841
C45 C 0.2650(2) 0.25162(18) 0.72046(18)
H26 H 0.2133 0.2132 0.7786
C46 C 0.2291(2) 0.27285(17) 0.63176(17)
C47 C 0.3093(2) 0.33048(18) 0.54636(18)
H27 H 0.2883 0.3453 0.4862
C48 C 0.4194(2) 0.36616(18) 0.54881(18)
H28 H 0.4713 0.4049 0.4910
C49 C 0.1100(2) 0.23597(17) 0.62881(17)
C50 C 0.0716(3) 0.14390(18) 0.69458(17)
H29 H 0.1206 0.1047 0.7417
C51 C -0.0397(3) 0.11117(18) 0.68944(18)
H30 H -0.0643 0.0497 0.7329
C52 C -0.1146(2) 0.16873(18) 0.62055(18)
H31 H -0.1901 0.1462 0.6193
C53 C -0.0777(2) 0.26047(17) 0.55279(18)
C54 C 0.0348(2) 0.29151(18) 0.55909(17)
H32 H 0.0608 0.3523 0.5145
C55 C -0.1519(2) 0.32079(18) 0.47424(17)
C56 C -0.2308(3) 0.27989(19) 0.44328(19)
H33 H -0.2440 0.2140 0.4768
C57 C -0.2900(3) 0.3339(2) 0.3644(2)
H34 H -0.3408 0.3042 0.3447
C58 C -0.2738(2) 0.43119(19) 0.31534(17)
C59 C -0.2011(2) 0.47621(19) 0.34604(18)
H35 H -0.1926 0.5429 0.3142
C60 C -0.1413(2) 0.42132(18) 0.42436(18)
H36 H -0.0926 0.4520 0.4446
loop_
_geom_bond_atom_site_label_1
_geom_bond_atom_site_label_2
_geom_bond_site_symmetry_1
_geom_bond_site_symmetry_2
O1 C1 1_555 1_555
O2 C10 1_555 1_555
O3 C28 1_555 1_555
O4 C40 1_555 1_555
N1 C1 1_555 1_555
N2 C10 1_555 1_555
N3 C40 1_555 1_555
N4 C31 1_555 1_555
C1 C2 1_555 1_555
C2 H1 1_555 1_555
C3 C2 1_555 1_555
H2 C3 1_555 1_555
C4 C3 1_555 1_555
C5 C4 1_555 1_555
H3 C5 1_555 1_555
C6 C5 1_555 1_555
H4 C6 1_555 1_555
C7 C6 1_555 1_555
C8 C7 1_555 1_555
H5 C8 1_555 1_555
C9 C8 1_555 1_555
H6 C9 1_555 1_555
C10 C9 1_555 1_555
C11 N2 1_555 1_555
C12 N1 1_555 1_555
C13 O2 1_555 1_555
C14 C13 1_555 1_555
H7 C14 1_555 1_555
C15 C14 1_555 1_555
H8 C15 1_555 1_555
C16 C15 1_555 1_555
C17 C16 1_555 1_555
H9 C17 1_555 1_555
C18 C13 1_555 1_555
H10 C18 1_555 1_555
C19 C16 1_555 1_555
C20 C19 1_555 1_555
H11 C20 1_555 1_555
C21 C20 1_555 1_555
C22 C21 1_555 1_555
H12 C22 1_555 1_555
C23 C22 1_555 1_555
H13 C23 1_555 1_555
C24 C19 1_555 1_555
H14 C24 1_555 1_555
C25 C21 1_555 1_555
C26 C25 1_555 1_555
H15 C26 1_555 1_555
C27 C26 1_555 1_555
H16 C27 1_555 1_555
C28 C27 1_555 1_555
C29 C28 1_555 1_555
H17 C29 1_555 1_555
C30 C25 1_555 1_555
H18 C30 1_555 1_555
C31 O3 1_555 1_555
C32 C31 1_555 1_555
H19 C32 1_555 1_555
C33 C32 1_555 1_555
H20 C33 1_555 1_555
C34 C33 1_555 1_555
C35 C34 1_555 1_555
H21 C35 1_555 1_555
C36 C35 1_555 1_555
H22 C36 1_555 1_555
C37 C36 1_555 1_555
C38 C37 1_555 1_555
H23 C38 1_555 1_555
C39 C38 1_555 1_555
H24 C39 1_555 1_555
C40 C39 1_555 1_555
C41 N3 1_555 1_555
C42 N4 1_555 1_555
C43 O4 1_555 1_555
C44 C43 1_555 1_555
H25 C44 1_555 1_555
C45 C44 1_555 1_555
H26 C45 1_555 1_555
C46 C45 1_555 1_555
C47 C46 1_555 1_555
H27 C47 1_555 1_555
C48 C43 1_555 1_555
H28 C48 1_555 1_555
C49 C46 1_555 1_555
C50 C49 1_555 1_555
H29 C50 1_555 1_555
C51 C50 1_555 1_555
H30 C51 1_555 1_555
C52 C51 1_555 1_555
H31 C52 1_555 1_555
C53 C52 1_555 1_555
C54 C49 1_555 1_555
H32 C54 1_555 1_555
C55 C53 1_555 1_555
C56 C55 1_555 1_555
H33 C56 1_555 1_555
C57 C56 1_555 1_555
H34 C57 1_555 1_555
C58 O1 1_555 1_555
C59 C58 1_555 1_555
H35 C59 1_555 1_555
C60 C55 1_555 1_555
H36 C60 1_555 1_555
C4 C12 1_555 1_555
C7 C11 1_555 1_555
C11 C12 1_555 1_555
C17 C18 1_555 1_555
C23 C24 1_555 1_555
C29 C30 1_555 1_555
C34 C42 1_555 1_555
C37 C41 1_555 1_555
C41 C42 1_555 1_555
C47 C48 1_555 1_555
C53 C54 1_555 1_555
C57 C58 1_555 1_555
C59 C60 1_555 1_555

#END
