
#######################################################################
#
#                 Cambridge Crystallographic Data Centre
#                                CCDC 
#
#######################################################################
#
# If this CIF has been generated from an entry in the Cambridge 
# Structural Database, then it will include bibliographic, chemical, 
# crystal, experimental, refinement or atomic coordinate data resulting 
# from the CCDC's data processing and validation procedures.
#
#######################################################################

data_LILFAQ
_chemical_formula_moiety         'C5 H8 N3 O1 1+,C5 H7 N3 O1,C3 H3 O4 1-,H2 O1'
_chemical_name_systematic        
'2-amino-6-methyl-4-oxo-3,4-dihydropyrimidin-1-ium carboxyacetate 2-amino-6-methylpyrimidin-4(1H)-one monohydrate'
_symmetry_cell_setting           monoclinic
_symmetry_space_group_name_H-M   'P 21/n'
_symmetry_Int_Tables_number      14
_space_group_name_Hall           '-P 2yn'
loop_
_symmetry_equiv_pos_site_id
_symmetry_equiv_pos_as_xyz
1 x,y,z
2 1/2-x,1/2+y,1/2-z
3 -x,-y,-z
4 1/2+x,1/2-y,1/2+z
_cell_length_a                   4.7073(9)
_cell_length_b                   32.916(7)
_cell_length_c                   10.921(2)
_cell_angle_alpha                90
_cell_angle_beta                 97.96(3)
_cell_angle_gamma                90
_cell_volume                     1675.86
_exptl_crystal_colour            colorless
_exptl_crystal_description       block
_cell_formula_units_Z            4
loop_
_atom_site_label
_atom_site_type_symbol
_atom_site_fract_x
_atom_site_fract_y
_atom_site_fract_z
N1 N 0.6096(4) 0.17052(6) 0.9748(2)
N2 N 0.2106(5) 0.20663(6) 0.8439(2)
N3 N 0.2012(5) 0.13686(7) 0.8535(3)
O1 O 1.0005(4) 0.20561(5) 1.09493(19)
C1 C 0.1694(6) 0.28039(8) 0.8306(3)
H1 H 0.177537 0.281576 0.741454
H2 H 0.254431 0.305115 0.869983
H3 H -0.030938 0.278222 0.844988
C2 C 0.3376(5) 0.24311(8) 0.8859(3)
C3 C 0.6007(6) 0.24349(9) 0.9717(3)
C4 C 0.7489(5) 0.20625(8) 1.0175(3)
C5 C 0.3430(5) 0.17141(8) 0.8910(3)
H4 H 0.037(7) 0.2068(9) 0.783(3)
H5 H 0.305(6) 0.1125(8) 0.889(3)
H6 H 0.034(7) 0.1378(10) 0.800(3)
H7 H 0.688(6) 0.2669(10) 1.003(3)
N4 N -1.7453(5) 0.06393(6) 0.2282(2)
N5 N -2.1176(4) 0.09828(6) 0.0844(2)
N6 N -1.7089(5) 0.13300(7) 0.2021(3)
O2 O -2.5182(4) 0.06498(6) -0.0333(2)
C6 C -1.8550(5) 0.09872(7) 0.1717(3)
C7 C -1.8907(5) 0.02746(8) 0.1960(3)
C8 C -1.7446(6) -0.00848(8) 0.2686(3)
H8 H -1.540452 -0.008881 0.259329
H9 H -1.834543 -0.033897 0.236546
H10 H -1.765259 -0.005652 0.356223
C9 C -2.1499(5) 0.02661(8) 0.1079(3)
H11 H -2.24096 0.001181 0.088977
C10 C -2.2783(6) 0.06278(8) 0.0467(3)
H12 H -1.570(6) 0.0641(8) 0.281(3)
H13 H -1.796(6) 0.1560(9) 0.168(3)
H14 H -1.545(6) 0.1317(8) 0.259(3)
H15 H -2.206(6) 0.1237(10) 0.045(3)
O3 O -0.3018(6) 0.21454(7) 0.6670(3)
H16 H -0.363(7) 0.2381(7) 0.643(4)
H17 H -0.430(7) 0.1983(11) 0.631(4)
O4 O -0.6929(5) 0.15266(7) 0.5356(3)
O5 O -0.3589(4) 0.11608(7) 0.6674(2)
O6 O -1.1393(4) 0.12188(6) 0.3972(2)
O7 O -1.2371(4) 0.05705(6) 0.4138(2)
C11 C -0.5971(6) 0.11850(9) 0.5903(3)
C12 C -0.7982(6) 0.08238(8) 0.5529(3)
H18 H -0.869308 0.072721 0.628974
H19 H -0.678565 0.060298 0.525737
C13 C -1.0794(5) 0.08713(9) 0.4462(3)
H20 H -0.843(6) 0.1460(13) 0.479(3)
loop_
_geom_bond_atom_site_label_1
_geom_bond_atom_site_label_2
_geom_bond_site_symmetry_1
_geom_bond_site_symmetry_2
N1 C4 1_555 1_555
N2 C2 1_555 1_555
N3 C5 1_555 1_555
O1 C4 1_555 1_555
C1 H1 1_555 1_555
H2 C1 1_555 1_555
H3 C1 1_555 1_555
C2 C1 1_555 1_555
C3 C2 1_555 1_555
C4 C3 1_555 1_555
C5 N1 1_555 1_555
H4 N2 1_555 1_555
H5 N3 1_555 1_555
H6 N3 1_555 1_555
H7 C3 1_555 1_555
N4 C6 1_555 1_555
N5 C6 1_555 1_555
N6 C6 1_555 1_555
O2 C10 1_555 1_555
C7 N4 1_555 1_555
C8 C7 1_555 1_555
H8 C8 1_555 1_555
H9 C8 1_555 1_555
H10 C8 1_555 1_555
C9 C7 1_555 1_555
H11 C9 1_555 1_555
C10 N5 1_555 1_555
H12 N4 1_555 1_555
H13 N6 1_555 1_555
H14 N6 1_555 1_555
H15 N5 1_555 1_555
O3 H16 1_555 1_555
H17 O3 1_555 1_555
O4 C11 1_555 1_555
O5 C11 1_555 1_555
O6 C13 1_555 1_555
O7 C13 1_555 1_555
C11 C12 1_555 1_555
C12 H18 1_555 1_555
H19 C12 1_555 1_555
C13 C12 1_555 1_555
H20 O4 1_555 1_555
N2 C5 1_555 1_555
C9 C10 1_555 1_555

#END
