
#######################################################################
#
#                 Cambridge Crystallographic Data Centre
#                                CCDC 
#
#######################################################################
#
# If this CIF has been generated from an entry in the Cambridge 
# Structural Database, then it will include bibliographic, chemical, 
# crystal, experimental, refinement or atomic coordinate data resulting 
# from the CCDC's data processing and validation procedures.
#
#######################################################################

data_LILFEU
_chemical_formula_moiety         'C5 H8 N3 O1 1+,C5 H7 N3 O1,C3 H3 O4 1-'
_chemical_name_systematic        
'2-amino-6-methyl-4-oxo-3,4-dihydropyrimidin-1-ium carboxyacetate 2-amino-6-methylpyrimidin-4(1H)-one'
_symmetry_cell_setting           monoclinic
_symmetry_space_group_name_H-M   'P 21/c'
_symmetry_Int_Tables_number      14
_space_group_name_Hall           '-P 2ybc'
loop_
_symmetry_equiv_pos_site_id
_symmetry_equiv_pos_as_xyz
1 x,y,z
2 -x,1/2+y,1/2-z
3 -x,-y,-z
4 x,1/2-y,1/2+z
_cell_length_a                   11.107(2)
_cell_length_b                   15.996(3)
_cell_length_c                   9.2485(18)
_cell_angle_alpha                90
_cell_angle_beta                 98.21(3)
_cell_angle_gamma                90
_cell_volume                     1626.32
_exptl_crystal_colour            colorless
_exptl_crystal_description       block
_cell_formula_units_Z            4
loop_
_atom_site_label
_atom_site_type_symbol
_atom_site_fract_x
_atom_site_fract_y
_atom_site_fract_z
O1 O 0.27047(16) 0.89080(11) 0.45144(17)
N1 N 0.16926(18) 0.78780(12) 0.5523(2)
N2 N 0.02544(18) 0.82528(12) 0.70305(19)
H1 H -0.026913 0.808760 0.760132
N3 N 0.0655(2) 0.68725(15) 0.6609(3)
C1 C 0.0886(2) 0.76708(15) 0.6372(2)
C2 C 0.1924(2) 0.87131(16) 0.5288(2)
C3 C 0.0418(2) 0.90909(16) 0.6822(2)
C4 C 0.1234(2) 0.93273(15) 0.5974(2)
H2 H 0.136311 0.990554 0.581976
C5 C -0.0332(3) 0.96609(18) 0.7604(3)
H3 H -0.119600 0.957174 0.724296
H4 H -0.011582 1.024244 0.742984
H5 H -0.017896 0.954330 0.865446
H6 H 0.020(3) 0.6765(16) 0.719(3)
H7 H 0.114(3) 0.6457(18) 0.624(3)
O2 O 0.20979(17) 0.56704(11) 0.53591(19)
N4 N 0.44719(18) 0.63544(12) 0.2742(2)
N5 N 0.30434(18) 0.66828(13) 0.4237(2)
N6 N 0.4001(2) 0.77311(15) 0.3134(3)
C6 C 0.3845(2) 0.69395(15) 0.3373(2)
C7 C 0.4332(2) 0.55137(15) 0.2979(2)
C8 C 0.2845(2) 0.58473(16) 0.4542(2)
C9 C 0.3550(2) 0.52558(16) 0.3859(2)
H8 H 0.346149 0.467510 0.403152
C10 C 0.5084(3) 0.49449(17) 0.2181(3)
H9 H 0.486121 0.502296 0.112568
H10 H 0.493609 0.436299 0.243597
H11 H 0.594796 0.507701 0.245959
H12 H 0.362(2) 0.8110(16) 0.362(3)
H13 H 0.500(2) 0.6528(16) 0.219(3)
H14 H 0.449(3) 0.7887(17) 0.264(3)
H15 H 0.259(3) 0.710(2) 0.475(3)
O3 O 0.62485(17) 0.67718(12) 0.10904(19)
O4 O 0.57859(17) 0.81103(11) 0.12490(19)
O5 O 0.87636(17) 0.71968(12) -0.1578(2)
O6 O 0.77450(18) 0.63038(13) -0.0435(2)
C11 C 0.6377(2) 0.75423(17) 0.0791(2)
C12 C 0.8002(2) 0.70620(17) -0.0785(3)
C13 C 0.7337(2) 0.77622(16) -0.0164(2)
H16 H 0.694065 0.810325 -0.099089
H17 H 0.795018 0.812247 0.041711
H18 H 0.717(2) 0.635(2) 0.022(3)
loop_
_geom_bond_atom_site_label_1
_geom_bond_atom_site_label_2
_geom_bond_site_symmetry_1
_geom_bond_site_symmetry_2
O1 C2 1_555 1_555
N1 C1 1_555 1_555
N2 H1 1_555 1_555
N3 C1 1_555 1_555
C1 N2 1_555 1_555
C2 N1 1_555 1_555
C3 N2 1_555 1_555
C4 C2 1_555 1_555
H2 C4 1_555 1_555
C5 C3 1_555 1_555
H3 C5 1_555 1_555
H4 C5 1_555 1_555
H5 C5 1_555 1_555
H6 N3 1_555 1_555
H7 N3 1_555 1_555
O2 C8 1_555 1_555
N4 C6 1_555 1_555
N5 C6 1_555 1_555
N6 C6 1_555 1_555
C7 N4 1_555 1_555
C8 N5 1_555 1_555
C9 C7 1_555 1_555
H8 C9 1_555 1_555
C10 C7 1_555 1_555
H9 C10 1_555 1_555
H10 C10 1_555 1_555
H11 C10 1_555 1_555
H12 N6 1_555 1_555
H13 N4 1_555 1_555
H14 N6 1_555 1_555
H15 N5 1_555 1_555
O3 C11 1_555 1_555
O4 C11 1_555 1_555
O5 C12 1_555 1_555
O6 C12 1_555 1_555
C11 C13 1_555 1_555
C12 C13 1_555 1_555
C13 H16 1_555 1_555
H17 C13 1_555 1_555
H18 O6 1_555 1_555
C3 C4 1_555 1_555
C8 C9 1_555 1_555

#END
