
#######################################################################
#
#                 Cambridge Crystallographic Data Centre
#                                CCDC 
#
#######################################################################
#
# If this CIF has been generated from an entry in the Cambridge 
# Structural Database, then it will include bibliographic, chemical, 
# crystal, experimental, refinement or atomic coordinate data resulting 
# from the CCDC's data processing and validation procedures.
#
#######################################################################

data_LILGEV
_chemical_formula_moiety         'C5 H8 N3 O1 1+,C7 H4 N1 O3 S1 1-,H2 O1'
_chemical_name_systematic        
'2-amino-6-methyl-4-oxo-3,4-dihydropyrimidin-1-ium 1,1,3-trioxo-1,3-dihydro-1\l^6^,2-benzothiazol-2-ide monohydrate'
_symmetry_cell_setting           triclinic
_symmetry_space_group_name_H-M   'P -1'
_symmetry_Int_Tables_number      2
_space_group_name_Hall           '-P 1'
loop_
_symmetry_equiv_pos_site_id
_symmetry_equiv_pos_as_xyz
1 x,y,z
2 -x,-y,-z
_cell_length_a                   6.3096(10)
_cell_length_b                   7.5095(10)
_cell_length_c                   14.836(3)
_cell_angle_alpha                83.168(12)
_cell_angle_beta                 86.857(13)
_cell_angle_gamma                85.943(12)
_cell_volume                     695.453
_exptl_crystal_colour            colorless
_exptl_crystal_description       plate
_cell_formula_units_Z            2
loop_
_atom_site_label
_atom_site_type_symbol
_atom_site_fract_x
_atom_site_fract_y
_atom_site_fract_z
S1 S 0.27102(10) 0.70077(9) 0.09248(5)
O1 O 0.3738(3) 0.5122(3) 0.32519(15)
O2 O 0.2017(3) 0.5847(3) 0.03034(15)
O3 O 0.3838(3) 0.8503(3) 0.04900(16)
N1 N 0.4041(4) 0.5843(3) 0.17174(17)
C1 C 0.3055(4) 0.5907(4) 0.2529(2)
C2 C -0.1282(5) 0.8793(4) 0.1418(2)
C3 C 0.0555(4) 0.7745(4) 0.1634(2)
C4 C 0.0964(4) 0.7003(4) 0.2509(2)
C5 C -0.2354(5) 0.8337(4) 0.3019(2)
C6 C -0.2732(4) 0.9075(4) 0.2136(2)
C7 C -0.0476(4) 0.7284(4) 0.3220(2)
H1 H -0.030173 0.679075 0.385661
H2 H -0.144138 0.927946 0.081262
H3 H -0.334535 0.854053 0.356492
H4 H -0.400488 0.974163 0.200433
O4 O 1.3414(3) 0.0841(3) 0.33434(16)
N2 N 0.7550(4) 0.3203(3) 0.32079(18)
N3 N 1.0725(4) 0.2223(3) 0.25196(18)
N4 N 0.8053(4) 0.3673(3) 0.16546(18)
C8 C 0.8759(4) 0.3044(4) 0.2451(2)
C9 C 0.8258(5) 0.2559(4) 0.4056(2)
C10 C 1.0256(5) 0.1800(4) 0.4136(2)
C11 C 1.1612(4) 0.1561(4) 0.3349(2)
C12 C 0.6689(5) 0.2787(5) 0.4831(2)
H5 H 0.881658 0.351305 0.110438
H6 H 0.703634 0.208650 0.537719
H7 H 1.074494 0.140544 0.475358
H8 H 0.622410 0.366571 0.320259
H9 H 1.156931 0.206127 0.194438
H10 H 0.536083 0.238789 0.466339
H11 H 0.676328 0.431333 0.159029
H12 H 0.664772 0.400951 0.492599
O5 O 1.2410(4) 0.2108(3) 0.08105(16)
H13 H 1.323240 0.131399 0.055497
H14 H 1.275568 0.318189 0.059297
loop_
_geom_bond_atom_site_label_1
_geom_bond_atom_site_label_2
_geom_bond_site_symmetry_1
_geom_bond_site_symmetry_2
S1 O2 1_555 1_555
O1 C1 1_555 1_555
O3 S1 1_555 1_555
N1 S1 1_555 1_555
C1 N1 1_555 1_555
C2 C3 1_555 1_555
C3 S1 1_555 1_555
C4 C1 1_555 1_555
C5 C6 1_555 1_555
C6 C2 1_555 1_555
C7 C4 1_555 1_555
H1 C7 1_555 1_555
H2 C2 1_555 1_555
H3 C5 1_555 1_555
H4 C6 1_555 1_555
O4 C11 1_555 1_555
N2 C8 1_555 1_555
N3 C8 1_555 1_555
N4 C8 1_555 1_555
C9 N2 1_555 1_555
C10 C9 1_555 1_555
C11 N3 1_555 1_555
C12 C9 1_555 1_555
H5 N4 1_555 1_555
H6 C12 1_555 1_555
H7 C10 1_555 1_555
H8 N2 1_555 1_555
H9 N3 1_555 1_555
H10 C12 1_555 1_555
H11 N4 1_555 1_555
H12 C12 1_555 1_555
O5 H13 1_555 1_555
H14 O5 1_555 1_555
C3 C4 1_555 1_555
C5 C7 1_555 1_555
C10 C11 1_555 1_555

#END
