
#######################################################################
#
#                 Cambridge Crystallographic Data Centre
#                                CCDC 
#
#######################################################################
#
# If this CIF has been generated from an entry in the Cambridge 
# Structural Database, then it will include bibliographic, chemical, 
# crystal, experimental, refinement or atomic coordinate data resulting 
# from the CCDC's data processing and validation procedures.
#
#######################################################################

data_LILGAR
_chemical_formula_moiety         '3(C5 H7 N3 O1),C5 H8 N3 O1 1+,Cl1 1-,5(H2 O1)'
_chemical_name_systematic        
'2-amino-6-methyl-4-oxo-3,4-dihydropyrimidin-1-ium chloride tris(2-amino-6-methylpyrimidin-4(3H)-one) pentahydrate'
_symmetry_cell_setting           triclinic
_symmetry_space_group_name_H-M   'P -1'
_symmetry_Int_Tables_number      2
_space_group_name_Hall           '-P 1'
loop_
_symmetry_equiv_pos_site_id
_symmetry_equiv_pos_as_xyz
1 x,y,z
2 -x,-y,-z
_cell_length_a                   6.7683(5)
_cell_length_b                   8.1761(7)
_cell_length_c                   14.0552(10)
_cell_angle_alpha                104.625(7)
_cell_angle_beta                 92.203(6)
_cell_angle_gamma                103.703(7)
_cell_volume                     727.164
_exptl_crystal_colour            colorless
_exptl_crystal_description       block
_cell_formula_units_Z            1
loop_
_atom_site_label
_atom_site_type_symbol
_atom_site_fract_x
_atom_site_fract_y
_atom_site_fract_z
C1 C 0.1061(2) 0.3112(2) 0.55396(12)
C2 C 0.0384(2) 0.1464(2) 0.67096(12)
C3 C 0.1286(2) 0.4568(2) 0.72802(13)
C4 C 0.1435(2) 0.4668(2) 0.63431(12)
H1 H 0.178345 0.575644 0.621523
C5 C 0.1608(3) 0.6107(2) 0.81569(14)
H2 H 0.033165 0.613567 0.842776
H3 H 0.212298 0.715903 0.796123
H4 H 0.257540 0.601939 0.864716
N1 N 0.05089(19) 0.15335(18) 0.57724(10)
H5 H 0.015(5) 0.053(4) 0.522(3)
N2 N 0.07869(19) 0.29418(18) 0.74626(11)
N3 N -0.0126(2) -0.00645(19) 0.69089(11)
H6 H -0.037649 -0.101325 0.643694
H7 H -0.020725 -0.011259 0.751076
O1 O 0.12062(17) 0.31096(15) 0.46612(9)
C1A C -0.1061(2) -0.3112(2) 0.44604(12)
C2A C -0.0384(2) -0.1464(2) 0.32904(12)
C3A C -0.1286(2) -0.4568(2) 0.27198(13)
C4A C -0.1435(2) -0.4668(2) 0.36569(12)
H1A H -0.178345 -0.575644 0.378477
C5A C -0.1608(3) -0.6107(2) 0.18431(14)
H2A H -0.033165 -0.613567 0.157224
H3A H -0.212298 -0.715903 0.203877
H4A H -0.257540 -0.601939 0.135284
N1A N -0.05089(19) -0.15335(18) 0.42276(10)
H5A H -0.015(5) -0.053(4) 0.478(3)
N2A N -0.07869(19) -0.29418(18) 0.25374(11)
N3A N 0.0126(2) 0.00645(19) 0.30911(11)
H6A H 0.037649 0.101325 0.356306
H7A H 0.020725 0.011259 0.248924
O1A O -0.12062(17) -0.31096(15) 0.53388(9)
O2 O 0.0296(2) 0.1943(2) 0.92234(11)
H8 H 0.035(7) 0.225(6) 0.876(2)
H9 H 0.112(3) 0.160(3) 0.9423(18)
C6 C 0.5018(2) 0.9885(2) 0.32818(12)
C7 C 0.4089(2) 0.7231(2) 0.37373(12)
C8 C 0.4129(2) 0.7107(2) 0.20580(12)
C9 C 0.4738(2) 0.8872(2) 0.22758(12)
H10 H 0.497268 0.942259 0.177184
C10 C 0.3779(3) 0.5963(2) 0.10240(12)
H11 H 0.440603 0.501410 0.098715
H12 H 0.436885 0.663209 0.058691
H13 H 0.233632 0.550495 0.083261
N4 N 0.47050(19) 0.89913(17) 0.39901(10)
H14 H 0.498(6) 0.957(5) 0.458(3)
N5 N 0.37859(19) 0.62650(18) 0.27873(10)
N6 N 0.3792(2) 0.64372(17) 0.44528(10)
H15 H 0.399254 0.704396 0.506061
H16 H 0.339910 0.531535 0.430925
O3 O 0.55121(17) 1.15261(14) 0.35455(8)
H17 H 0.352(5) 0.508(5) 0.263(3)
C6A C 0.4982(2) 1.0115(2) 0.67182(12)
C7A C 0.5911(2) 1.2769(2) 0.62627(12)
C8A C 0.5871(2) 1.2893(2) 0.79420(12)
C9A C 0.5262(2) 1.1128(2) 0.77242(12)
H10A H 0.502732 1.057741 0.822816
C10A C 0.6221(3) 1.4037(2) 0.89760(12)
H11A H 0.559397 1.498590 0.901285
H12A H 0.563115 1.336791 0.941309
H13A H 0.766368 1.449505 0.916739
N4A N 0.52950(19) 1.10087(17) 0.60099(10)
H14A H 0.502(6) 1.043(5) 0.542(3)
N5A N 0.62141(19) 1.37350(18) 0.72127(10)
N6A N 0.6208(2) 1.35628(17) 0.55472(10)
H15A H 0.600746 1.295604 0.493939
H16A H 0.660090 1.468465 0.569075
O3A O 0.44879(17) 0.84739(14) 0.64545(8)
H17A H 0.648(5) 1.492(5) 0.737(3)
H18 H 0.389(3) 0.245(3) 0.2695(16)
O4 O 0.3149(2) 0.26870(18) 0.23298(11)
H19 H 0.325(6) 0.224(5) 0.1787(17)
Cl1 Cl 0.65691(19) -0.06455(19) 0.97757(10)
O5 O 0.7247(6) -0.0773(7) 0.9585(4)
H20? H 0.070(5) 0.286(5) 0.808(3)
H21? H -0.073(5) 0.139(6) 0.934(4)
H22? H 0.341(7) 0.370(3) 0.243(3)
H23? H 0.697959 -0.133117 0.897800
H24? H 0.619469 -0.040197 0.973060
H25? H 0.799429 0.015003 0.948470
loop_
_geom_bond_atom_site_label_1
_geom_bond_atom_site_label_2
_geom_bond_site_symmetry_1
_geom_bond_site_symmetry_2
C1 C4 1_555 1_555
C2 N1 1_555 1_555
C3 C4 1_555 1_555
C4 H1 1_555 1_555
C5 C3 1_555 1_555
H2 C5 1_555 1_555
H3 C5 1_555 1_555
H4 C5 1_555 1_555
N1 C1 1_555 1_555
H5 N1 1_555 1_555
N2 C2 1_555 1_555
N3 C2 1_555 1_555
H6 N3 1_555 1_555
H7 N3 1_555 1_555
O1 C1 1_555 1_555
O2 H8 1_555 1_555
H9 O2 1_555 1_555
C6 C9 1_555 1_555
C7 N4 1_555 1_555
C8 C9 1_555 1_555
C9 H10 1_555 1_555
C10 C8 1_555 1_555
H11 C10 1_555 1_555
H12 C10 1_555 1_555
H13 C10 1_555 1_555
N4 C6 1_555 1_555
H14 N4 1_555 1_555
N5 C7 1_555 1_555
N6 C7 1_555 1_555
H15 N6 1_555 1_555
H16 N6 1_555 1_555
O3 C6 1_555 1_555
H17 N5 1_555 1_555
H18 O4 1_555 1_555
O4 H19 1_555 1_555
C1A C4A 1_555 1_555
C2A N1A 1_555 1_555
C3A C4A 1_555 1_555
C4A H1A 1_555 1_555
C5A C3A 1_555 1_555
H2A C5A 1_555 1_555
H3A C5A 1_555 1_555
H4A C5A 1_555 1_555
N1A C1A 1_555 1_555
H5A N1A 1_555 1_555
N2A C2A 1_555 1_555
N3A C2A 1_555 1_555
H6A N3A 1_555 1_555
H7A N3A 1_555 1_555
O1A C1A 1_555 1_555
C6A C9A 1_555 1_555
C7A N4A 1_555 1_555
C8A C9A 1_555 1_555
C9A H10A 1_555 1_555
C10A C8A 1_555 1_555
H11A C10A 1_555 1_555
H12A C10A 1_555 1_555
H13A C10A 1_555 1_555
N4A C6A 1_555 1_555
H14A N4A 1_555 1_555
N5A C7A 1_555 1_555
N6A C7A 1_555 1_555
H15A N6A 1_555 1_555
H16A N6A 1_555 1_555
O3A C6A 1_555 1_555
H17A N5A 1_555 1_555
C3 N2 1_555 1_555
C8 N5 1_555 1_555
C3A N2A 1_555 1_555
C8A N5A 1_555 1_555

#END
