
#######################################################################
#
#                 Cambridge Crystallographic Data Centre
#                                CCDC 
#
#######################################################################
#
# If this CIF has been generated from an entry in the Cambridge 
# Structural Database, then it will include bibliographic, chemical, 
# crystal, experimental, refinement or atomic coordinate data resulting 
# from the CCDC's data processing and validation procedures.
#
#######################################################################

data_LILGOF
_chemical_formula_moiety         'C8 H5 O4 1-,C5 H8 N3 O1 1+'
_chemical_name_systematic        
'2-amino-6-methyl-4-oxo-3,4-dihydropyrimidin-1-ium 2-carboxybenzoate'
_symmetry_cell_setting           triclinic
_symmetry_space_group_name_H-M   'P -1'
_symmetry_Int_Tables_number      2
_space_group_name_Hall           '-P 1'
loop_
_symmetry_equiv_pos_site_id
_symmetry_equiv_pos_as_xyz
1 x,y,z
2 -x,-y,-z
_cell_length_a                   7.9490(6)
_cell_length_b                   12.3337(7)
_cell_length_c                   13.7736(8)
_cell_angle_alpha                88.319(5)
_cell_angle_beta                 74.844(6)
_cell_angle_gamma                86.849(5)
_cell_volume                     1301.28
_exptl_crystal_colour            colorless
_exptl_crystal_description       block
_cell_formula_units_Z            4
loop_
_atom_site_label
_atom_site_type_symbol
_atom_site_fract_x
_atom_site_fract_y
_atom_site_fract_z
O1 O 0.26753(12) 0.87363(8) 0.73703(7)
O2 O 0.30590(14) 0.93887(8) 0.56891(7)
O3 O 0.19624(14) 1.06360(8) 0.48318(7)
O4 O 0.07737(14) 0.89158(8) 0.88403(8)
C1 C 0.05523(17) 1.02653(10) 0.76056(10)
C2 C 0.20197(18) 1.02176(11) 0.56430(10)
C3 C 0.13502(18) 0.92373(10) 0.79755(10)
C4 C 0.08660(17) 1.06981(11) 0.66113(10)
C5 C -0.06254(18) 1.08415(11) 0.83802(10)
C6 C -0.14542(18) 1.18132(11) 0.82032(11)
C7 C -0.1121(2) 1.22420(12) 0.72373(11)
C8 C 0.00161(19) 1.16843(11) 0.64591(11)
H1 H -0.0825(19) 1.0547(12) 0.9052(12)
H2 H -0.227(2) 1.2191(14) 0.8747(13)
H3 H 0.025(2) 1.1962(13) 0.5793(13)
H4 H -0.169(2) 1.2908(15) 0.7100(13)
H5 H 0.289(3) 0.9100(19) 0.6502(19)
O5 O 1.20138(13) 0.43165(8) 0.08580(7)
O6 O 0.76562(13) 0.64151(8) 0.23241(7)
O7 O 1.00507(14) 0.56682(8) 0.10683(7)
O8 O 0.64712(17) 0.62293(9) 0.39445(8)
C9 C 0.98190(17) 0.43144(10) 0.24133(10)
C10 C 0.79313(19) 0.42432(12) 0.41030(10)
C11 C 1.04867(18) 0.32777(11) 0.25919(11)
C12 C 0.84811(17) 0.48110(10) 0.31892(10)
C13 C 0.74810(18) 0.58927(11) 0.31653(10)
C14 C 1.07041(17) 0.47826(10) 0.13812(10)
C15 C 0.98988(19) 0.27282(11) 0.34980(11)
C16 C 0.86248(19) 0.32210(12) 0.42603(11)
H6 H 0.701(2) 0.4598(13) 0.4618(13)
H7 H 1.045(2) 0.2025(14) 0.3563(13)
H8 H 1.137(2) 0.2965(13) 0.2076(13)
H9 H 0.822(2) 0.2835(14) 0.4896(14)
H10 H 0.891(3) 0.6035(19) 0.1658(18)
O9 O 0.34073(14) 1.12708(8) 0.21920(8)
N1 N 0.57624(15) 0.83308(9) 0.22011(8)
N2 N 0.40265(15) 0.97579(9) 0.30343(8)
N3 N 0.47153(17) 0.82535(10) 0.39247(9)
C17 C 0.60113(17) 0.88813(11) 0.12887(10)
C18 C 0.41773(18) 1.03872(10) 0.21497(10)
C19 C 0.52811(19) 0.98854(11) 0.12580(10)
C20 C 0.48300(17) 0.87776(10) 0.30677(10)
C21 C 0.7117(2) 0.82709(13) 0.04096(11)
H11 H 0.337(2) 1.0041(14) 0.3627(14)
H12 H 0.534(2) 0.7624(15) 0.3905(13)
H13 H 0.825(3) 0.8076(15) 0.0513(14)
H14 H 0.636(2) 0.7692(15) 0.2225(13)
H15 H 0.416(2) 0.8598(14) 0.4490(14)
H16 H 0.544(2) 1.0299(13) 0.0658(13)
H17 H 0.725(3) 0.8697(16) -0.0193(16)
H18 H 0.656(3) 0.7607(17) 0.0319(15)
O10 O 0.56209(14) 0.38014(8) 0.86655(8)
N4 N 0.38291(15) 0.53116(9) 0.90270(9)
N5 N 0.19940(16) 0.68510(10) 0.94241(9)
N6 N 0.40629(15) 0.67604(9) 0.79067(8)
C22 C 0.53667(17) 0.62099(11) 0.72029(10)
C23 C 0.51812(17) 0.46922(11) 0.83871(10)
C24 C 0.32800(17) 0.63123(10) 0.87983(10)
C25 C 0.59145(18) 0.52073(11) 0.74224(10)
C26 C 0.6027(2) 0.68177(13) 0.62373(11)
H19 H 0.680(2) 0.4801(13) 0.6960(13)
H20 H 0.508(3) 0.6947(15) 0.5937(14)
H21 H 0.651(2) 0.7483(15) 0.6338(13)
H22 H 0.162(2) 0.7475(15) 0.9215(13)
H23 H 0.325(3) 0.5019(15) 0.9619(15)
H24 H 0.693(3) 0.6407(16) 0.5788(15)
H25 H 0.141(2) 0.6499(15) 0.9976(15)
H26 H 0.365(2) 0.7405(15) 0.7737(13)
loop_
_geom_bond_atom_site_label_1
_geom_bond_atom_site_label_2
_geom_bond_site_symmetry_1
_geom_bond_site_symmetry_2
O1 C3 1_555 1_555
O2 C2 1_555 1_555
O3 C2 1_555 1_555
O4 C3 1_555 1_555
C1 C3 1_555 1_555
C2 C4 1_555 1_555
C4 C1 1_555 1_555
C5 C1 1_555 1_555
C6 C5 1_555 1_555
C7 C6 1_555 1_555
C8 C4 1_555 1_555
H1 C5 1_555 1_555
H2 C6 1_555 1_555
H3 C8 1_555 1_555
H4 C7 1_555 1_555
H5 O2 1_555 1_555
O5 C14 1_555 1_555
O6 C13 1_555 1_555
O7 C14 1_555 1_555
O8 C13 1_555 1_555
C9 C11 1_555 1_555
C10 C12 1_555 1_555
C11 C15 1_555 1_555
C12 C9 1_555 1_555
C13 C12 1_555 1_555
C14 C9 1_555 1_555
C15 C16 1_555 1_555
C16 C10 1_555 1_555
H6 C10 1_555 1_555
H7 C15 1_555 1_555
H8 C11 1_555 1_555
H9 C16 1_555 1_555
H10 O7 1_555 1_555
O9 C18 1_555 1_555
N1 C17 1_555 1_555
N2 C18 1_555 1_555
N3 C20 1_555 1_555
C17 C19 1_555 1_555
C18 C19 1_555 1_555
C19 H16 1_555 1_555
C20 N1 1_555 1_555
C21 C17 1_555 1_555
H11 N2 1_555 1_555
H12 N3 1_555 1_555
H13 C21 1_555 1_555
H14 N1 1_555 1_555
H15 N3 1_555 1_555
H17 C21 1_555 1_555
H18 C21 1_555 1_555
O10 C23 1_555 1_555
N4 C23 1_555 1_555
N5 C24 1_555 1_555
N6 C22 1_555 1_555
C22 C25 1_555 1_555
C23 C25 1_555 1_555
C24 N4 1_555 1_555
C25 H19 1_555 1_555
C26 C22 1_555 1_555
H20 C26 1_555 1_555
H21 C26 1_555 1_555
H22 N5 1_555 1_555
H23 N4 1_555 1_555
H24 C26 1_555 1_555
H25 N5 1_555 1_555
H26 N6 1_555 1_555
C7 C8 1_555 1_555
N2 C20 1_555 1_555
N6 C24 1_555 1_555

#END
