
#######################################################################
#
#                 Cambridge Crystallographic Data Centre
#                                CCDC 
#
#######################################################################
#
# If this CIF has been generated from an entry in the Cambridge 
# Structural Database, then it will include bibliographic, chemical, 
# crystal, experimental, refinement or atomic coordinate data resulting 
# from the CCDC's data processing and validation procedures.
#
#######################################################################

data_LILJUM
_chemical_formula_moiety         'C19 H13 Cl1 N2 O2 S1'
_chemical_name_systematic        
2-(2-Benzofurancarboximide)-3-(4-chlorophenyl)-4-methyl-1,3-thiazoline
_symmetry_cell_setting           monoclinic
_symmetry_space_group_name_H-M   'P 21/n'
_symmetry_Int_Tables_number      14
_space_group_name_Hall           '-P 2yn'
loop_
_symmetry_equiv_pos_site_id
_symmetry_equiv_pos_as_xyz
1 x,y,z
2 1/2-x,1/2+y,1/2-z
3 -x,-y,-z
4 1/2+x,1/2-y,1/2+z
_cell_length_a                   8.7622(4)
_cell_length_b                   12.9038(7)
_cell_length_c                   15.7760(8)
_cell_angle_alpha                90
_cell_angle_beta                 95.598(1)
_cell_angle_gamma                90
_cell_volume                     1775.22
_chemical_melting_point          '216-217 deg.C'
_cell_formula_units_Z            4
loop_
_atom_site_label
_atom_site_type_symbol
_atom_site_fract_x
_atom_site_fract_y
_atom_site_fract_z
S1 S 0.08780(7) 1.05036(4) 0.38926(4)
Cl1 Cl 0.28908(8) 0.46579(5) 0.60161(4)
N1 N 0.11224(19) 0.85839(13) 0.42393(11)
N2 N 0.2720(2) 0.95810(12) 0.51926(11)
O1 O 0.2769(2) 1.13715(11) 0.50797(11)
O2 O 0.46489(18) 1.15146(11) 0.65442(10)
C1 C 0.1711(2) 0.95129(15) 0.45246(13)
C2 C -0.0202(3) 0.96188(19) 0.32784(15)
H1 H -0.0887 0.9806 0.2816
C3 C 0.0035(3) 0.86383(18) 0.35265(13)
C4 C -0.0684(3) 0.7688(2) 0.31323(17)
H2 H -0.1323 0.7372 0.3521
H3 H 0.0102 0.7210 0.3007
H4 H -0.1296 0.7869 0.2615
C5 C 0.1557(2) 0.76342(15) 0.46835(12)
C6 C 0.0480(2) 0.70846(16) 0.50730(14)
H5 H -0.0521 0.7329 0.5057
C7 C 0.0884(3) 0.61709(17) 0.54879(14)
H6 H 0.0158 0.5789 0.5747
C8 C 0.2375(3) 0.58306(17) 0.55135(14)
C9 C 0.3463(3) 0.63870(18) 0.51375(15)
H7 H 0.4470 0.6150 0.5165
C10 C 0.3055(2) 0.72968(17) 0.47203(14)
H8 H 0.3783 0.7681 0.4465
C11 C 0.3169(2) 1.05522(15) 0.54331(14)
C12 C 0.4244(2) 1.05492(15) 0.62158(13)
C13 C 0.4963(2) 0.97931(16) 0.66758(14)
H9 H 0.4858 0.9085 0.6576
C14 C 0.5926(2) 1.02730(16) 0.73517(14)
C15 C 0.6963(3) 0.9944(2) 0.80234(16)
H10 H 0.7148 0.9243 0.8120
C16 C 0.7705(3) 1.0683(2) 0.85400(18)
H11 H 0.8399 1.0473 0.8991
C17 C 0.7442(3) 1.1733(2) 0.84048(17)
H12 H 0.7967 1.2212 0.8765
C18 C 0.6421(3) 1.2080(2) 0.77481(16)
H13 H 0.6236 1.2782 0.7655
C19 C 0.5688(3) 1.13313(17) 0.72370(15)
loop_
_geom_bond_atom_site_label_1
_geom_bond_atom_site_label_2
_geom_bond_site_symmetry_1
_geom_bond_site_symmetry_2
S1 C1 1_555 1_555
Cl1 C8 1_555 1_555
N1 C1 1_555 1_555
N2 C1 1_555 1_555
O1 C11 1_555 1_555
O2 C12 1_555 1_555
C2 S1 1_555 1_555
H1 C2 1_555 1_555
C3 N1 1_555 1_555
C4 C3 1_555 1_555
H2 C4 1_555 1_555
H3 C4 1_555 1_555
H4 C4 1_555 1_555
C5 N1 1_555 1_555
C6 C5 1_555 1_555
H5 C6 1_555 1_555
C7 C6 1_555 1_555
H6 C7 1_555 1_555
C8 C7 1_555 1_555
C9 C8 1_555 1_555
H7 C9 1_555 1_555
C10 C5 1_555 1_555
H8 C10 1_555 1_555
C11 N2 1_555 1_555
C12 C11 1_555 1_555
C13 C12 1_555 1_555
H9 C13 1_555 1_555
C14 C13 1_555 1_555
C15 C14 1_555 1_555
H10 C15 1_555 1_555
C16 C15 1_555 1_555
H11 C16 1_555 1_555
C17 C16 1_555 1_555
H12 C17 1_555 1_555
C18 C17 1_555 1_555
H13 C18 1_555 1_555
C19 O2 1_555 1_555
C2 C3 1_555 1_555
C9 C10 1_555 1_555
C14 C19 1_555 1_555
C18 C19 1_555 1_555

#END
