
#######################################################################
#
#                 Cambridge Crystallographic Data Centre
#                                CCDC 
#
#######################################################################
#
# If this CIF has been generated from an entry in the Cambridge 
# Structural Database, then it will include bibliographic, chemical, 
# crystal, experimental, refinement or atomic coordinate data resulting 
# from the CCDC's data processing and validation procedures.
#
#######################################################################

data_LILKIA
_chemical_formula_moiety         'C11 H11 Cl1 O1 S5'
_chemical_name_systematic        
4-(O-(4-Chlorobutyryl)thiocarboxyl)tetrathiafulvalene
_symmetry_cell_setting           triclinic
_symmetry_space_group_name_H-M   'P -1'
_symmetry_Int_Tables_number      2
_space_group_name_Hall           '-P 1'
loop_
_symmetry_equiv_pos_site_id
_symmetry_equiv_pos_as_xyz
1 x,y,z
2 -x,-y,-z
_cell_length_a                   7.530
_cell_length_b                   10.033
_cell_length_c                   11.526
_cell_angle_alpha                65.51
_cell_angle_beta                 71.25
_cell_angle_gamma                81.47
_cell_volume                     750.263
_exptl_crystal_colour            black
_chemical_melting_point          95-97deg.C
_cell_formula_units_Z            2
loop_
_atom_site_label
_atom_site_type_symbol
_atom_site_fract_x
_atom_site_fract_y
_atom_site_fract_z
S1 S 0.1209(2) 0.5818(1) 0.3195(1)
S2 S 0.2371(2) 0.5672(1) 0.0555(1)
S3 S 0.1695(2) 0.2335(1) 0.4606(1)
S4 S 0.3006(2) 0.2117(1) 0.1973(1)
S5 S 0.1655(2) -0.0364(1) 0.7218(1)
Cl1 Cl 0.3762(2) -0.8817(1) 0.8866(1)
O1 O 0.2965(4) -0.1857(2) 0.5684(2)
C1 C 0.1965(5) 0.4713(4) 0.2276(3)
C2 C 0.1424(6) 0.7446(4) 0.1813(5)
C3 C 0.1946(7) 0.7375(4) 0.0628(5)
C4 C 0.2193(5) 0.3254(4) 0.2861(3)
C5 C 0.2447(5) 0.0613(3) 0.4552(3)
C6 C 0.3005(6) 0.0546(4) 0.3355(4)
C7 C 0.2365(5) -0.0594(3) 0.5816(4)
C8 C 0.2897(6) -0.3151(3) 0.6887(4)
C9 C 0.3510(6) -0.4446(4) 0.6498(4)
C10 C 0.3367(6) -0.5852(3) 0.7747(4)
C11 C 0.3865(7) -0.7178(4) 0.7405(4)
H1 H 0.1167 0.8370 0.1904
H2 H 0.2102 0.8245 -0.0173
H3 H 0.3411 -0.0370 0.3266
H4 H 0.1648 -0.3292 0.7485
H5 H 0.3725 -0.3047 0.7327
H6 H 0.4783 -0.4324 0.5938
H7 H 0.2727 -0.4506 0.6009
H8 H 0.2112 -0.5930 0.8331
H9 H 0.4205 -0.5808 0.8205
H10 H 0.2996 -0.7243 0.6978
H11 H 0.5101 -0.7080 0.6793
loop_
_geom_bond_atom_site_label_1
_geom_bond_atom_site_label_2
_geom_bond_site_symmetry_1
_geom_bond_site_symmetry_2
S1 C1 1_555 1_555
S2 C1 1_555 1_555
S3 C4 1_555 1_555
S4 C4 1_555 1_555
S5 C7 1_555 1_555
Cl1 C11 1_555 1_555
O1 C7 1_555 1_555
C1 C4 1_555 1_555
C2 S1 1_555 1_555
C3 S2 1_555 1_555
C5 S3 1_555 1_555
C6 S4 1_555 1_555
C7 C5 1_555 1_555
C8 O1 1_555 1_555
C9 C8 1_555 1_555
C10 C9 1_555 1_555
C11 C10 1_555 1_555
H1 C2 1_555 1_555
H2 C3 1_555 1_555
H3 C6 1_555 1_555
H4 C8 1_555 1_555
H5 C8 1_555 1_555
H6 C9 1_555 1_555
H7 C9 1_555 1_555
H8 C10 1_555 1_555
H9 C10 1_555 1_555
H10 C11 1_555 1_555
H11 C11 1_555 1_555
C2 C3 1_555 1_555
C5 C6 1_555 1_555

#END
