
#######################################################################
#
#                 Cambridge Crystallographic Data Centre
#                                CCDC 
#
#######################################################################
#
# If this CIF has been generated from an entry in the Cambridge 
# Structural Database, then it will include bibliographic, chemical, 
# crystal, experimental, refinement or atomic coordinate data resulting 
# from the CCDC's data processing and validation procedures.
#
#######################################################################

data_LILLOK
_chemical_compound_source        
'coculture of Chaetomium globosum and Aspergillus flavipes'
_chemical_name_common            'cytochathiazine A'
_chemical_formula_moiety         'C38 H42 N4 O7 S1'
_chemical_name_systematic        
"methyl N-{12-hydroxy-9-[(1H-indol-3-yl)methyl]-10,16,18-trimethyl-11-methylidene-6,7,19-trioxo-5,6,8,9,9a,10,11,12,12a,15,16,19-dodecahydro-4aH,7H-[1,4]thiazino[3',2':10,11]cyclotrideca[1,2-d]isoindole-2-carbonyl}glycinate"
_chemical_properties_biological  
'tested for cytotoxicity against six human cancer cell lines (SW480, NB4, HL-60, A549, MCF-7 and SMMC-7721)'
_symmetry_cell_setting           monoclinic
_symmetry_space_group_name_H-M   'P 21'
_symmetry_Int_Tables_number      4
_space_group_name_Hall           'P 2yb'
loop_
_symmetry_equiv_pos_site_id
_symmetry_equiv_pos_as_xyz
1 x,y,z
2 -x,1/2+y,-z
_cell_length_a                   11.9204(3)
_cell_length_b                   10.2457(2)
_cell_length_c                   15.0219(3)
_cell_angle_alpha                90
_cell_angle_beta                 95.8030(10)
_cell_angle_gamma                90
_cell_volume                     1825.27
_exptl_crystal_colour            colorless
_exptl_crystal_description       block
_cell_formula_units_Z            2
loop_
_atom_site_label
_atom_site_type_symbol
_atom_site_fract_x
_atom_site_fract_y
_atom_site_fract_z
S1 S -0.09997(5) 0.64481(9) 0.51166(5)
O1 O 0.25988(17) 0.7725(2) 0.51862(15)
O2 O 0.3136(2) 0.3832(2) 0.52267(17)
N1 N 0.3124(2) 0.3896(3) 0.3713(2)
H1 H 0.3077 0.3065 0.3636
N2 N 0.0545(2) 0.5907(3) 0.68262(17)
O3 O -0.0772(3) 0.2778(3) 0.6819(2)
O4 O 0.0642(3) 0.9102(3) 0.6653(2)
C1 C 0.3182(2) 0.4426(3) 0.4525(2)
C2 C 0.2410(2) 0.6653(3) 0.48796(17)
C3 C 0.3144(3) 0.4783(3) 0.2963(2)
H2 H 0.3842 0.4656 0.2681
O5 O 0.6508(2) 0.6165(3) 0.4658(4)
H3 H 0.6622 0.6948 0.4735
C4 C 0.3330(2) 0.5903(3) 0.4441(2)
O6 O -0.0816(4) 0.3516(4) 0.9090(3)
C5 C -0.0160(3) 0.4902(3) 0.6475(2)
C6 C 0.0738(2) 0.6886(3) 0.6341(2)
N3 N 0.0618(3) 0.3684(4) 0.7740(3)
H4 H 0.1068 0.4335 0.7842
C7 C -0.0143(3) 0.3694(4) 0.7015(3)
O7 O -0.0162(4) 0.1535(4) 0.9452(3)
C8 C 0.0463(2) 0.6915(3) 0.53424(19)
H5 H 0.0548 0.7813 0.5134
C9 C -0.0965(2) 0.5097(4) 0.5784(2)
H6 H -0.1524 0.4468 0.5669
C10 C 0.1262(2) 0.6034(3) 0.4878(2)
H7 H 0.1334 0.5200 0.5184
H8 H 0.0949 0.5877 0.4266
C11 C 0.2709(3) 0.2896(4) 0.1085(2)
C12 C 0.2116(3) 0.3266(4) 0.1827(2)
N4 N 0.1753(4) 0.1161(4) 0.1495(3)
H9 H 0.1479 0.0388 0.1527
C13 C 0.3157(3) 0.6151(3) 0.3410(2)
H10 H 0.2409 0.6539 0.3270
C14 C 0.2450(3) 0.1572(5) 0.0894(2)
C15 C 0.2130(3) 0.4565(4) 0.2274(3)
H11 H 0.1446 0.4658 0.2568
H12 H 0.2124 0.5240 0.1820
C16 C 0.1181(4) 0.8108(3) 0.6815(2)
C17 C 0.4789(3) 0.6669(4) 0.6515(3)
H13 H 0.4773 0.7566 0.6417
C18 C 0.4510(2) 0.6350(3) 0.4867(3)
H14 H 0.4488 0.7306 0.4884
C19 C 0.2883(4) 0.7058(5) 0.7463(3)
H15 H 0.2651 0.6371 0.7084
C20 C 0.1559(4) 0.2194(5) 0.2047(3)
H16 H 0.1102 0.2153 0.2513
C21 C 0.4742(3) 0.5912(4) 0.5806(4)
H17 H 0.4866 0.5025 0.5903
C22 C 0.3429(4) 0.3521(5) 0.0554(3)
H18 H 0.3621 0.4391 0.0660
C23 C 0.5401(3) 0.5969(4) 0.4177(6)
H19 H 0.5314 0.5036 0.4042
C24 C 0.2191(5) 0.8049(4) 0.7456(3)
C25 C -0.0186(5) 0.2661(5) 0.8997(4)
C26 C 0.4022(5) 0.7098(4) 0.3087(3)
H20 H 0.3931 0.7912 0.3415
C27 C 0.2879(4) 0.0905(5) 0.0202(3)
H21 H 0.2698 0.0035 0.0086
C28 C 0.3573(4) 0.1566(6) -0.0304(3)
H22 H 0.3863 0.1145 -0.0779
C29 C 0.4014(6) 0.6883(7) 0.8008(4)
H23 H 0.4307 0.7750 0.8181
C30 C 0.5161(4) 0.6729(6) 0.3294(4)
C31 C 0.3855(5) 0.2858(6) -0.0123(3)
H24 H 0.4346 0.3282 -0.0471
C32 C 0.0683(5) 0.2596(5) 0.8342(4)
H25 H 0.1428 0.2572 0.8667
H26 H 0.0580 0.1795 0.7999
C33 C 0.4864(5) 0.6215(7) 0.7464(5)
H27 H 0.5619 0.6381 0.7745
H28 H 0.4739 0.5280 0.7472
C34 C -0.0954(8) 0.1431(11) 1.0109(5)
H29 H -0.0690 0.1934 1.0627
H30 H -0.1027 0.0533 1.0276
H31 H -0.1674 0.1758 0.9862
C35 C 0.3747(8) 0.7442(6) 0.2094(4)
H32 H 0.4183 0.8187 0.1950
H33 H 0.2958 0.7640 0.1978
H34 H 0.3927 0.6714 0.1732
C36 C 0.3817(7) 0.6123(13) 0.8877(5)
H35 H 0.3614 0.6725 0.9323
H36 H 0.4497 0.5674 0.9096
H37 H 0.3221 0.5501 0.8748
C37 C 0.6003(6) 0.7039(11) 0.2828(6)
H38 H 0.5871 0.7543 0.2313
H39 H 0.6730 0.6753 0.3014
C38 C 0.2386(10) 0.9234(8) 0.8059(6)
H40 H 0.2643 0.9950 0.7720
H41 H 0.2946 0.9031 0.8544
H42 H 0.1694 0.9469 0.8293
loop_
_geom_bond_atom_site_label_1
_geom_bond_atom_site_label_2
_geom_bond_site_symmetry_1
_geom_bond_site_symmetry_2
S1 C8 1_555 1_555
O1 C2 1_555 1_555
O2 C1 1_555 1_555
N1 H1 1_555 1_555
N2 C5 1_555 1_555
O3 C7 1_555 1_555
O4 C16 1_555 1_555
C1 N1 1_555 1_555
C2 C4 1_555 1_555
C3 N1 1_555 1_555
H2 C3 1_555 1_555
O5 H3 1_555 1_555
C4 C1 1_555 1_555
O6 C25 1_555 1_555
C5 C7 1_555 1_555
C6 N2 1_555 1_555
N3 H4 1_555 1_555
C7 N3 1_555 1_555
O7 C25 1_555 1_555
C8 C6 1_555 1_555
H5 C8 1_555 1_555
C9 S1 1_555 1_555
H6 C9 1_555 1_555
C10 C2 1_555 1_555
H7 C10 1_555 1_555
H8 C10 1_555 1_555
C11 C12 1_555 1_555
C12 C15 1_555 1_555
N4 H9 1_555 1_555
C13 C3 1_555 1_555
H10 C13 1_555 1_555
C14 C11 1_555 1_555
C15 C3 1_555 1_555
H11 C15 1_555 1_555
H12 C15 1_555 1_555
C16 C6 1_555 1_555
C17 H13 1_555 1_555
C18 C4 1_555 1_555
H14 C18 1_555 1_555
C19 H15 1_555 1_555
C20 C12 1_555 1_555
H16 C20 1_555 1_555
C21 C17 1_555 1_555
H17 C21 1_555 1_555
C22 C11 1_555 1_555
H18 C22 1_555 1_555
C23 O5 1_555 1_555
H19 C23 1_555 1_555
C24 C16 1_555 1_555
C25 C32 1_555 1_555
C26 C13 1_555 1_555
H20 C26 1_555 1_555
C27 C14 1_555 1_555
H21 C27 1_555 1_555
C28 C27 1_555 1_555
H22 C28 1_555 1_555
C29 C19 1_555 1_555
H23 C29 1_555 1_555
C30 C23 1_555 1_555
C31 C22 1_555 1_555
H24 C31 1_555 1_555
C32 N3 1_555 1_555
H25 C32 1_555 1_555
H26 C32 1_555 1_555
C33 C17 1_555 1_555
H27 C33 1_555 1_555
H28 C33 1_555 1_555
C34 O7 1_555 1_555
H29 C34 1_555 1_555
H30 C34 1_555 1_555
H31 C34 1_555 1_555
C35 C26 1_555 1_555
H32 C35 1_555 1_555
H33 C35 1_555 1_555
H34 C35 1_555 1_555
C36 C29 1_555 1_555
H35 C36 1_555 1_555
H36 C36 1_555 1_555
H37 C36 1_555 1_555
C37 C30 1_555 1_555
H38 C37 1_555 1_555
H39 C37 1_555 1_555
C38 C24 1_555 1_555
H40 C38 1_555 1_555
H41 C38 1_555 1_555
H42 C38 1_555 1_555
C4 C13 1_555 1_555
C5 C9 1_555 1_555
C8 C10 1_555 1_555
N4 C14 1_555 1_555
N4 C20 1_555 1_555
C18 C21 1_555 1_555
C18 C23 1_555 1_555
C19 C24 1_555 1_555
C26 C30 1_555 1_555
C28 C31 1_555 1_555
C29 C33 1_555 1_555

#END
