
#######################################################################
#
#                 Cambridge Crystallographic Data Centre
#                                CCDC 
#
#######################################################################
#
# If this CIF has been generated from an entry in the Cambridge 
# Structural Database, then it will include bibliographic, chemical, 
# crystal, experimental, refinement or atomic coordinate data resulting 
# from the CCDC's data processing and validation procedures.
#
#######################################################################

data_LILLID
_chemical_formula_moiety         'C34 H32 Be1 N2 O4,C1 H2 Cl2'
_chemical_name_systematic        
'bis(3-(4-(dimethylamino)phenyl)-1-(2-(oxy)phenyl)prop-2-en-1-one)-beryllium dichloromethane solvate'
_symmetry_cell_setting           monoclinic
_symmetry_space_group_name_H-M   'C 2/c'
_symmetry_Int_Tables_number      15
_space_group_name_Hall           '-C 2yn'
loop_
_symmetry_equiv_pos_site_id
_symmetry_equiv_pos_as_xyz
1 x,y,z
2 -x,y,1/2-z
3 1/2+x,1/2+y,z
4 1/2-x,1/2+y,1/2-z
5 -x,-y,-z
6 x,-y,1/2+z
7 1/2-x,1/2-y,-z
8 1/2+x,1/2-y,1/2+z
_cell_length_a                   21.027(4)
_cell_length_b                   9.855(2)
_cell_length_c                   15.357(3)
_cell_angle_alpha                90
_cell_angle_beta                 100.44(3)
_cell_angle_gamma                90
_cell_volume                     3129.61
_exptl_crystal_colour            red
_exptl_crystal_description       block
_cell_formula_units_Z            4
loop_
_atom_site_label
_atom_site_type_symbol
_atom_site_fract_x
_atom_site_fract_y
_atom_site_fract_z
Be1 Be 0.5000 0.3804(8) -0.2500
O1 O 0.44208(17) 0.4656(3) -0.2272(2)
O2 O 0.52471(13) 0.2827(3) -0.16407(19)
N1 N 0.72220(17) -0.2444(4) 0.2219(3)
C1 C 0.4233(2) 0.4628(4) -0.1510(3)
C2 C 0.3727(2) 0.5493(5) -0.1360(4)
H1 H 0.3526 0.6052 -0.1816
C3 C 0.3526(2) 0.5530(5) -0.0566(4)
H2 H 0.3195 0.6120 -0.0491
C4 C 0.3802(2) 0.4713(5) 0.0129(4)
H3 H 0.3664 0.4753 0.0670
C5 C 0.4285(2) 0.3839(4) 0.0003(3)
H4 H 0.4470 0.3279 0.0467
C6 C 0.45111(19) 0.3762(4) -0.0803(3)
C7 C 0.50304(19) 0.2846(4) -0.0919(3)
C8 C 0.53152(19) 0.1925(4) -0.0230(3)
H5 H 0.5119 0.1821 0.0262
C9 C 0.58503(19) 0.1214(4) -0.0269(3)
H6 H 0.6025 0.1335 -0.0778
C10 C 0.61908(19) 0.0288(4) 0.0371(3)
C11 C 0.6764(2) -0.0337(4) 0.0231(3)
H7 H 0.6921 -0.0136 -0.0282
C12 C 0.7099(2) -0.1231(4) 0.0825(3)
H8 H 0.7475 -0.1624 0.0702
C13 C 0.68906(19) -0.1569(4) 0.1610(3)
C14 C 0.63075(17) -0.0958(4) 0.1754(3)
H9 H 0.6147 -0.1169 0.2264
C15 C 0.59779(18) -0.0066(4) 0.1157(3)
H10 H 0.5599 0.0322 0.1275
C16 C 0.7008(2) -0.2777(5) 0.3039(3)
H11 H 0.6646 -0.2215 0.3102
H12 H 0.7355 -0.2624 0.3528
H13 H 0.6881 -0.3714 0.3029
C17 C 0.7767(3) -0.3204(5) 0.2010(4)
H14 H 0.7860 -0.2900 0.1453
H15 H 0.7662 -0.4153 0.1973
H16 H 0.8138 -0.3062 0.2466
O1A O 0.55792(17) 0.4656(3) -0.2728(2)
O2A O 0.47529(13) 0.2827(3) -0.33593(19)
N1A N 0.27780(17) -0.2444(4) -0.7219(3)
C1A C 0.5767(2) 0.4628(4) -0.3490(3)
C2A C 0.6273(2) 0.5493(5) -0.3640(4)
H1A H 0.6474 0.6052 -0.3184
C3A C 0.6474(2) 0.5530(5) -0.4434(4)
H2A H 0.6805 0.6120 -0.4509
C4A C 0.6198(2) 0.4713(5) -0.5129(4)
H3A H 0.6336 0.4753 -0.5670
C5A C 0.5715(2) 0.3839(4) -0.5003(3)
H4A H 0.5530 0.3279 -0.5467
C6A C 0.54889(19) 0.3762(4) -0.4197(3)
C7A C 0.49696(19) 0.2846(4) -0.4081(3)
C8A C 0.46848(19) 0.1925(4) -0.4770(3)
H5A H 0.4881 0.1821 -0.5262
C9A C 0.41497(19) 0.1214(4) -0.4731(3)
H6A H 0.3975 0.1335 -0.4222
C10A C 0.38092(19) 0.0288(4) -0.5371(3)
C11A C 0.3236(2) -0.0337(4) -0.5231(3)
H7A H 0.3079 -0.0136 -0.4718
C12A C 0.2901(2) -0.1231(4) -0.5825(3)
H8A H 0.2525 -0.1624 -0.5702
C13A C 0.31094(19) -0.1569(4) -0.6610(3)
C14A C 0.36925(17) -0.0958(4) -0.6754(3)
H9A H 0.3853 -0.1169 -0.7264
C15A C 0.40221(18) -0.0066(4) -0.6157(3)
H10A H 0.4401 0.0322 -0.6275
C16A C 0.2992(2) -0.2777(5) -0.8039(3)
H11A H 0.3354 -0.2215 -0.8102
H12A H 0.2645 -0.2624 -0.8528
H13A H 0.3119 -0.3714 -0.8029
C17A C 0.2233(3) -0.3204(5) -0.7010(4)
H14A H 0.2140 -0.2900 -0.6453
H15A H 0.2338 -0.4153 -0.6973
H16A H 0.1862 -0.3062 -0.7466
Cl1 Cl 0.44313(6) 0.14079(15) 0.18171(9)
C18 C 0.5000 0.2361(7) 0.2500
H17 H 0.4781 0.2942 0.2862
H17A H 0.5219 0.2942 0.2138
Cl1A Cl 0.55687(6) 0.14079(15) 0.31829(9)
H18? H 0.4781 0.2942 0.2862
loop_
_geom_bond_atom_site_label_1
_geom_bond_atom_site_label_2
_geom_bond_site_symmetry_1
_geom_bond_site_symmetry_2
Be1 O1 1_555 1_555
O1 C1 1_555 1_555
O2 Be1 1_555 1_555
N1 C13 1_555 1_555
C1 C2 1_555 1_555
C2 H1 1_555 1_555
C3 C2 1_555 1_555
H2 C3 1_555 1_555
C4 C3 1_555 1_555
H3 C4 1_555 1_555
C5 C4 1_555 1_555
H4 C5 1_555 1_555
C6 C1 1_555 1_555
C7 O2 1_555 1_555
C8 C7 1_555 1_555
H5 C8 1_555 1_555
C9 C8 1_555 1_555
H6 C9 1_555 1_555
C10 C9 1_555 1_555
C11 C10 1_555 1_555
H7 C11 1_555 1_555
C12 C11 1_555 1_555
H8 C12 1_555 1_555
C13 C12 1_555 1_555
C14 C13 1_555 1_555
H9 C14 1_555 1_555
C15 C10 1_555 1_555
H10 C15 1_555 1_555
C16 N1 1_555 1_555
H11 C16 1_555 1_555
H12 C16 1_555 1_555
H13 C16 1_555 1_555
C17 N1 1_555 1_555
H14 C17 1_555 1_555
H15 C17 1_555 1_555
H16 C17 1_555 1_555
Cl1 C18 1_555 1_555
C18 H17 1_555 1_555
O1A Be1 1_555 1_555
O2A Be1 1_555 1_555
N1A C13A 1_555 1_555
C1A O1A 1_555 1_555
C2A C1A 1_555 1_555
H1A C2A 1_555 1_555
C3A C2A 1_555 1_555
H2A C3A 1_555 1_555
C4A C3A 1_555 1_555
H3A C4A 1_555 1_555
C5A C4A 1_555 1_555
H4A C5A 1_555 1_555
C6A C1A 1_555 1_555
C7A O2A 1_555 1_555
C8A C7A 1_555 1_555
H5A C8A 1_555 1_555
C9A C8A 1_555 1_555
H6A C9A 1_555 1_555
C10A C9A 1_555 1_555
C11A C10A 1_555 1_555
H7A C11A 1_555 1_555
C12A C11A 1_555 1_555
H8A C12A 1_555 1_555
C13A C12A 1_555 1_555
C14A C13A 1_555 1_555
H9A C14A 1_555 1_555
C15A C10A 1_555 1_555
H10A C15A 1_555 1_555
C16A N1A 1_555 1_555
H11A C16A 1_555 1_555
H12A C16A 1_555 1_555
H13A C16A 1_555 1_555
C17A N1A 1_555 1_555
H14A C17A 1_555 1_555
H15A C17A 1_555 1_555
H16A C17A 1_555 1_555
H17A C18 1_555 1_555
Cl1A C18 1_555 1_555
C5 C6 1_555 1_555
C6 C7 1_555 1_555
C14 C15 1_555 1_555
C5A C6A 1_555 1_555
C6A C7A 1_555 1_555
C14A C15A 1_555 1_555

#END
