
#######################################################################
#
#                 Cambridge Crystallographic Data Centre
#                                CCDC 
#
#######################################################################
#
# If this CIF has been generated from an entry in the Cambridge 
# Structural Database, then it will include bibliographic, chemical, 
# crystal, experimental, refinement or atomic coordinate data resulting 
# from the CCDC's data processing and validation procedures.
#
#######################################################################

data_LILLOJ
_chemical_formula_moiety         'C34 H32 Be1 N2 O4,H2 O1'
_chemical_name_systematic        
'bis(3-(4-(dimethylamino)phenyl)-1-(2-(oxy)phenyl)prop-2-en-1-one)-beryllium monohydrate'
_symmetry_cell_setting           monoclinic
_symmetry_space_group_name_H-M   'C 2/c'
_symmetry_Int_Tables_number      15
_space_group_name_Hall           '-C 2yn'
loop_
_symmetry_equiv_pos_site_id
_symmetry_equiv_pos_as_xyz
1 x,y,z
2 -x,y,1/2-z
3 1/2+x,1/2+y,z
4 1/2-x,1/2+y,1/2-z
5 -x,-y,-z
6 x,-y,1/2+z
7 1/2-x,1/2-y,-z
8 1/2+x,1/2-y,1/2+z
_cell_length_a                   20.489(4)
_cell_length_b                   10.148(2)
_cell_length_c                   14.499(3)
_cell_angle_alpha                90
_cell_angle_beta                 99.68(3)
_cell_angle_gamma                90
_cell_volume                     2971.74
_exptl_crystal_colour            brown
_exptl_crystal_description       block
_cell_formula_units_Z            4
loop_
_atom_site_label
_atom_site_type_symbol
_atom_site_fract_x
_atom_site_fract_y
_atom_site_fract_z
Be1 Be 0.0000 0.6353(4) 0.2500
O1 O 0.05892(10) 0.54860(18) 0.22355(13)
O2 O -0.02552(8) 0.72868(15) 0.15996(12)
N1 N -0.22594(11) 1.2525(2) -0.24057(17)
C1 C 0.07722(12) 0.5507(2) 0.14112(18)
C2 C 0.12895(14) 0.4658(3) 0.1244(2)
H1 H 0.1505 0.4134 0.1728
C3 C 0.14758(13) 0.4597(3) 0.0389(2)
H2 H 0.1809 0.4014 0.0293
C4 C 0.11781(14) 0.5390(3) -0.0349(2)
H3 H 0.1306 0.5334 -0.0933
C5 C 0.06895(13) 0.6259(3) -0.01962(19)
H4 H 0.0498 0.6806 -0.0682
C6 C 0.04726(11) 0.6343(2) 0.06737(17)
C7 C -0.00457(11) 0.7253(2) 0.08248(17)
C8 C -0.03377(12) 0.8156(3) 0.00940(18)
H5 H -0.0173 0.8179 -0.0465
C9 C -0.08413(12) 0.8961(2) 0.02050(18)
H6 H -0.0989 0.8910 0.0776
C10 C -0.11780(11) 0.9894(2) -0.04640(17)
C11 C -0.09712(12) 1.0225(3) -0.13088(18)
H7 H -0.0589 0.9837 -0.1450
C12 C -0.13122(12) 1.1104(2) -0.19365(19)
H8 H -0.1152 1.1309 -0.2483
C13 C -0.19013(12) 1.1695(2) -0.17588(18)
C14 C -0.21058(13) 1.1400(2) -0.0907(2)
H9 H -0.2485 1.1794 -0.0761
C15 C -0.17521(13) 1.0533(3) -0.02849(19)
H10 H -0.1899 1.0364 0.0276
C16 C -0.20362(16) 1.2836(3) -0.3270(2)
H11 H -0.2346 1.3432 -0.3588
H12 H -0.1553 1.3316 -0.3067
H13 H -0.1987 1.1991 -0.3651
C17 C -0.28237(16) 1.3239(3) -0.2173(3)
H14 H -0.3165 1.2602 -0.1883
H15 H -0.2674 1.3808 -0.1685
H16 H -0.3137 1.3640 -0.2802
O1A O -0.05892(10) 0.54860(18) 0.27645(13)
O2A O 0.02552(8) 0.72868(15) 0.34004(12)
N1A N 0.22594(11) 1.2525(2) 0.74057(17)
C1A C -0.07722(12) 0.5507(2) 0.35888(18)
C2A C -0.12895(14) 0.4658(3) 0.3756(2)
H1A H -0.1505 0.4134 0.3272
C3A C -0.14758(13) 0.4597(3) 0.4611(2)
H2A H -0.1809 0.4014 0.4707
C4A C -0.11781(14) 0.5390(3) 0.5349(2)
H3A H -0.1306 0.5334 0.5933
C5A C -0.06895(13) 0.6259(3) 0.51962(19)
H4A H -0.0498 0.6806 0.5682
C6A C -0.04726(11) 0.6343(2) 0.43263(17)
C7A C 0.00457(11) 0.7253(2) 0.41752(17)
C8A C 0.03377(12) 0.8156(3) 0.49060(18)
H5A H 0.0173 0.8179 0.5465
C9A C 0.08413(12) 0.8961(2) 0.47950(18)
H6A H 0.0989 0.8910 0.4224
C10A C 0.11780(11) 0.9894(2) 0.54640(17)
C11A C 0.09712(12) 1.0225(3) 0.63088(18)
H7A H 0.0589 0.9837 0.6450
C12A C 0.13122(12) 1.1104(2) 0.69365(19)
H8A H 0.1152 1.1309 0.7483
C13A C 0.19013(12) 1.1695(2) 0.67588(18)
C14A C 0.21058(13) 1.1400(2) 0.5907(2)
H9A H 0.2485 1.1794 0.5761
C15A C 0.17521(13) 1.0533(3) 0.52849(19)
H10A H 0.1899 1.0364 0.4724
C16A C 0.20362(16) 1.2836(3) 0.8270(2)
H11A H 0.2346 1.3432 0.8588
H12A H 0.1553 1.3316 0.8067
H13A H 0.1987 1.1991 0.8651
C17A C 0.28237(16) 1.3239(3) 0.7173(3)
H14A H 0.3165 1.2602 0.6883
H15A H 0.2674 1.3808 0.6685
H16A H 0.3137 1.3640 0.7802
O3 O 0.0299(2) 0.2606(4) 0.2425(3)
H17 H 0.0313 0.3773 0.2347
O3A O -0.0299(2) 0.2606(4) 0.2575(3)
H17A H -0.0313 0.3773 0.2653
H18? H 0.0000 0.1997 0.2500
loop_
_geom_bond_atom_site_label_1
_geom_bond_atom_site_label_2
_geom_bond_site_symmetry_1
_geom_bond_site_symmetry_2
Be1 O1 1_555 1_555
O1 C1 1_555 1_555
O2 Be1 1_555 1_555
N1 C13 1_555 1_555
C1 C2 1_555 1_555
C2 H1 1_555 1_555
C3 C2 1_555 1_555
H2 C3 1_555 1_555
C4 C3 1_555 1_555
H3 C4 1_555 1_555
C5 C4 1_555 1_555
H4 C5 1_555 1_555
C6 C1 1_555 1_555
C7 O2 1_555 1_555
C8 C7 1_555 1_555
H5 C8 1_555 1_555
C9 C8 1_555 1_555
H6 C9 1_555 1_555
C10 C9 1_555 1_555
C11 C10 1_555 1_555
H7 C11 1_555 1_555
C12 C11 1_555 1_555
H8 C12 1_555 1_555
C13 C12 1_555 1_555
C14 C13 1_555 1_555
H9 C14 1_555 1_555
C15 C10 1_555 1_555
H10 C15 1_555 1_555
C16 N1 1_555 1_555
H11 C16 1_555 1_555
H12 C16 1_555 1_555
H13 C16 1_555 1_555
C17 N1 1_555 1_555
H14 C17 1_555 1_555
H15 C17 1_555 1_555
H16 C17 1_555 1_555
O3 H17 1_555 1_555
O1A Be1 1_555 1_555
O2A Be1 1_555 1_555
N1A C13A 1_555 1_555
C1A O1A 1_555 1_555
C2A C1A 1_555 1_555
H1A C2A 1_555 1_555
C3A C2A 1_555 1_555
H2A C3A 1_555 1_555
C4A C3A 1_555 1_555
H3A C4A 1_555 1_555
C5A C4A 1_555 1_555
H4A C5A 1_555 1_555
C6A C1A 1_555 1_555
C7A O2A 1_555 1_555
C8A C7A 1_555 1_555
H5A C8A 1_555 1_555
C9A C8A 1_555 1_555
H6A C9A 1_555 1_555
C10A C9A 1_555 1_555
C11A C10A 1_555 1_555
H7A C11A 1_555 1_555
C12A C11A 1_555 1_555
H8A C12A 1_555 1_555
C13A C12A 1_555 1_555
C14A C13A 1_555 1_555
H9A C14A 1_555 1_555
C15A C10A 1_555 1_555
H10A C15A 1_555 1_555
C16A N1A 1_555 1_555
H11A C16A 1_555 1_555
H12A C16A 1_555 1_555
H13A C16A 1_555 1_555
C17A N1A 1_555 1_555
H14A C17A 1_555 1_555
H15A C17A 1_555 1_555
H16A C17A 1_555 1_555
O3A H17A 1_555 1_555
C5 C6 1_555 1_555
C6 C7 1_555 1_555
C14 C15 1_555 1_555
C5A C6A 1_555 1_555
C6A C7A 1_555 1_555
C14A C15A 1_555 1_555

#END
