
#######################################################################
#
#                 Cambridge Crystallographic Data Centre
#                                CCDC 
#
#######################################################################
#
# If this CIF has been generated from an entry in the Cambridge 
# Structural Database, then it will include bibliographic, chemical, 
# crystal, experimental, refinement or atomic coordinate data resulting 
# from the CCDC's data processing and validation procedures.
#
#######################################################################

data_LILNIF
_chemical_formula_moiety         'C16 H19 N1 O2'
_chemical_name_systematic        
'Methyl 1-t-butyl-5-phenyl-1H-pyrrole-3-carboxylate'
_symmetry_cell_setting           monoclinic
_symmetry_space_group_name_H-M   'C 2/c'
_symmetry_Int_Tables_number      15
_space_group_name_Hall           '-C 2yn'
loop_
_symmetry_equiv_pos_site_id
_symmetry_equiv_pos_as_xyz
1 x,y,z
2 -x,y,1/2-z
3 1/2+x,1/2+y,z
4 1/2-x,1/2+y,1/2-z
5 -x,-y,-z
6 x,-y,1/2+z
7 1/2-x,1/2-y,-z
8 1/2+x,1/2-y,1/2+z
_cell_length_a                   8.4087(9)
_cell_length_b                   17.6504(18)
_cell_length_c                   19.4816(19)
_cell_angle_alpha                90
_cell_angle_beta                 96.184(2)
_cell_angle_gamma                90
_cell_volume                     2874.57
_exptl_crystal_colour            colorless
_exptl_crystal_description       prismatic
_cell_formula_units_Z            8
loop_
_atom_site_label
_atom_site_type_symbol
_atom_site_fract_x
_atom_site_fract_y
_atom_site_fract_z
N1 N 0.67507(16) 0.11845(7) 0.41246(6)
O1 O 0.30007(17) 0.21978(9) 0.28447(6)
O2 O 0.22902(14) 0.26360(8) 0.38322(6)
C1 C 0.5712(2) 0.14822(9) 0.36118(8)
H1 H 0.5841 0.1465 0.3144
C2 C 0.44558(18) 0.18086(9) 0.38853(7)
C3 C 0.47356(18) 0.17091(9) 0.46085(7)
H2 H 0.4079 0.1878 0.4932
C4 C 0.61337(19) 0.13224(8) 0.47495(7)
C5 C 0.68757(18) 0.11088(9) 0.54529(7)
C6 C 0.7747(2) 0.16389(9) 0.58591(8)
H3 H 0.7965 0.2108 0.5673
C7 C 0.8298(2) 0.14811(11) 0.65393(8)
H4 H 0.8881 0.1844 0.6806
C8 C 0.7988(2) 0.07938(11) 0.68209(8)
H5 H 0.8355 0.0689 0.7279
C9 C 0.7130(2) 0.02582(10) 0.64236(9)
H6 H 0.6922 -0.0211 0.6612
C10 C 0.6577(2) 0.04158(10) 0.57466(8)
H7 H 0.5994 0.0051 0.5483
C11 C 0.8282(2) 0.08039(11) 0.40077(8)
C12 C 0.9664(2) 0.12213(15) 0.44099(12)
H8 H 0.9612 0.1749 0.4291
H9 H 1.0659 0.1014 0.4297
H10 H 0.9594 0.1165 0.4896
C13 C 0.8223(3) -0.00141(13) 0.42276(14)
H11 H 0.8149 -0.0039 0.4715
H12 H 0.9178 -0.0268 0.4123
H13 H 0.7307 -0.0255 0.3984
C14 C 0.8523(3) 0.08389(17) 0.32465(11)
H14 H 0.7673 0.0570 0.2982
H15 H 0.9530 0.0611 0.3177
H16 H 0.8517 0.1358 0.3099
C15 C 0.31984(19) 0.22135(9) 0.34646(8)
C16 C 0.1065(3) 0.30693(13) 0.34326(10)
H17 H 0.1542 0.3373 0.3101
H18 H 0.0540 0.3392 0.3734
H19 H 0.0297 0.2731 0.3196
loop_
_geom_bond_atom_site_label_1
_geom_bond_atom_site_label_2
_geom_bond_site_symmetry_1
_geom_bond_site_symmetry_2
N1 C1 1_555 1_555
O1 C15 1_555 1_555
O2 C15 1_555 1_555
C1 H1 1_555 1_555
C2 C1 1_555 1_555
C3 C2 1_555 1_555
H2 C3 1_555 1_555
C4 N1 1_555 1_555
C5 C4 1_555 1_555
C6 C5 1_555 1_555
H3 C6 1_555 1_555
C7 C6 1_555 1_555
H4 C7 1_555 1_555
C8 C7 1_555 1_555
H5 C8 1_555 1_555
C9 C8 1_555 1_555
H6 C9 1_555 1_555
C10 C5 1_555 1_555
H7 C10 1_555 1_555
C11 N1 1_555 1_555
C12 C11 1_555 1_555
H8 C12 1_555 1_555
H9 C12 1_555 1_555
H10 C12 1_555 1_555
C13 C11 1_555 1_555
H11 C13 1_555 1_555
H12 C13 1_555 1_555
H13 C13 1_555 1_555
C14 C11 1_555 1_555
H14 C14 1_555 1_555
H15 C14 1_555 1_555
H16 C14 1_555 1_555
C15 C2 1_555 1_555
C16 O2 1_555 1_555
H17 C16 1_555 1_555
H18 C16 1_555 1_555
H19 C16 1_555 1_555
C3 C4 1_555 1_555
C9 C10 1_555 1_555

#END
