
#######################################################################
#
#                 Cambridge Crystallographic Data Centre
#                                CCDC 
#
#######################################################################
#
# If this CIF has been generated from an entry in the Cambridge 
# Structural Database, then it will include bibliographic, chemical, 
# crystal, experimental, refinement or atomic coordinate data resulting 
# from the CCDC's data processing and validation procedures.
#
#######################################################################

data_LILQEE
_chemical_formula_moiety         'C46 H42 N4,C1 H4 O1'
_chemical_name_systematic        
'6-((10-(bis(4-t-butylphenyl)amino)-9-anthryl)ethynyl)-N-(pyridin-2-yl)pyridin-2-amine methanol solvate'
_symmetry_cell_setting           monoclinic
_symmetry_space_group_name_H-M   'P 21/c'
_symmetry_Int_Tables_number      14
_space_group_name_Hall           '-P 2ybc'
loop_
_symmetry_equiv_pos_site_id
_symmetry_equiv_pos_as_xyz
1 x,y,z
2 -x,1/2+y,1/2-z
3 -x,-y,-z
4 x,1/2-y,1/2+z
_cell_length_a                   24.460(2)
_cell_length_b                   10.4080(10)
_cell_length_c                   15.1901(14)
_cell_angle_alpha                90
_cell_angle_beta                 94.2550(10)
_cell_angle_gamma                90
_cell_volume                     3856.43
_cell_formula_units_Z            4
loop_
_atom_site_label
_atom_site_type_symbol
_atom_site_fract_x
_atom_site_fract_y
_atom_site_fract_z
N1 N 0.3702(3) 0.9024(7) 0.4044(5)
H1 H 0.3352 0.9103 0.3964
N2 N 0.3647(3) 1.0510(8) 0.2961(5)
N3 N 0.4407(2) 0.7850(6) 0.4779(4)
N4 N 0.7917(2) 0.5676(5) 0.5969(4)
C1 C 0.3989(4) 0.9837(8) 0.3539(6)
C2 C 0.4545(4) 0.9974(9) 0.3577(6)
H2 H 0.4768 0.9480 0.3966
C3 C 0.4771(5) 1.0855(10) 0.3031(8)
H3 H 0.5149 1.0971 0.3049
C4 C 0.4429(6) 1.1553(10) 0.2462(7)
H4 H 0.4569 1.2159 0.2090
C5 C 0.3891(6) 1.1349(11) 0.2451(7)
H5 H 0.3666 1.1831 0.2056
C6 C 0.3873(3) 0.8101(7) 0.4658(5)
C7 C 0.3475(3) 0.7449(8) 0.5094(5)
H6 H 0.3105 0.7640 0.4980
C8 C 0.3639(3) 0.6527(7) 0.5689(5)
H7 H 0.3383 0.6092 0.6000
C9 C 0.4189(3) 0.6242(7) 0.5827(5)
H8 H 0.4310 0.5607 0.6226
C10 C 0.4554(3) 0.6919(7) 0.5361(5)
C11 C 0.5132(3) 0.6673(7) 0.5474(5)
C12 C 0.5616(3) 0.6498(7) 0.5580(5)
C13 C 0.6199(3) 0.6323(6) 0.5697(5)
C14 C 0.6414(3) 0.5346(6) 0.6273(4)
C15 C 0.6071(3) 0.4555(7) 0.6756(5)
H9 H 0.5693 0.4658 0.6683
C16 C 0.6287(3) 0.3648(7) 0.7324(5)
H10 H 0.6057 0.3150 0.7645
C17 C 0.6857(3) 0.3458(7) 0.7428(5)
H11 H 0.7002 0.2827 0.7812
C18 C 0.7198(3) 0.4188(6) 0.6973(4)
H12 H 0.7574 0.4054 0.7051
C19 C 0.6990(3) 0.5155(6) 0.6380(4)
C20 C 0.7331(3) 0.5892(6) 0.5887(4)
C21 C 0.7120(3) 0.6886(6) 0.5320(5)
C22 C 0.7459(3) 0.7624(7) 0.4796(5)
H13 H 0.7834 0.7472 0.4831
C23 C 0.7244(4) 0.8548(8) 0.4246(6)
H14 H 0.7470 0.9013 0.3896
C24 C 0.6678(4) 0.8804(8) 0.4207(6)
H15 H 0.6537 0.9472 0.3853
C25 C 0.6337(3) 0.8114(7) 0.4664(5)
H16 H 0.5964 0.8291 0.4614
C26 C 0.6546(3) 0.7092(6) 0.5237(5)
C27 C 0.8123(3) 0.4535(6) 0.5602(4)
C28 C 0.7912(3) 0.4094(7) 0.4791(5)
H17 H 0.7628 0.4538 0.4482
C29 C 0.8121(3) 0.2990(7) 0.4436(5)
H18 H 0.7966 0.2702 0.3894
C30 C 0.8552(3) 0.2289(6) 0.4847(4)
C31 C 0.8752(3) 0.2753(6) 0.5669(4)
H19 H 0.9036 0.2311 0.5977
C32 C 0.8546(3) 0.3843(7) 0.6046(5)
H20 H 0.8691 0.4115 0.6598
C33 C 0.8810(3) 0.1112(7) 0.4453(5)
C34 C 0.9429(3) 0.1296(9) 0.4452(7)
H21 H 0.9505 0.1998 0.4069
H22 H 0.9592 0.0525 0.4245
H23 H 0.9578 0.1482 0.5040
C35 C 0.8578(4) 0.0848(9) 0.3520(6)
H24 H 0.8192 0.0686 0.3519
H25 H 0.8757 0.0111 0.3293
H26 H 0.8639 0.1580 0.3156
C36 C 0.8699(5) -0.0061(8) 0.5018(6)
H27 H 0.8876 0.0051 0.5599
H28 H 0.8841 -0.0816 0.4753
H29 H 0.8312 -0.0154 0.5058
C37 C 0.8260(2) 0.6512(6) 0.6494(4)
C38 C 0.8804(3) 0.6684(6) 0.6316(5)
H30 H 0.8939 0.6270 0.5835
C39 C 0.9146(3) 0.7465(7) 0.6847(5)
H31 H 0.9511 0.7542 0.6722
C40 C 0.8965(3) 0.8133(6) 0.7553(4)
C41 C 0.8418(3) 0.7981(7) 0.7712(5)
H32 H 0.8278 0.8422 0.8178
C42 C 0.8079(3) 0.7194(7) 0.7197(5)
H33 H 0.7714 0.7116 0.7324
C43 C 0.9359(3) 0.8970(7) 0.8139(5)
C44 C 0.9514(11) 1.012(2) 0.7581(17)
H34 H 0.9669 1.0782 0.7960
H35 H 0.9192 1.0438 0.7253
H36 H 0.9777 0.9852 0.7180
C45 C 0.9825(11) 0.818(3) 0.850(2)
H37 H 1.0121 0.8732 0.8710
H38 H 0.9944 0.7627 0.8047
H39 H 0.9712 0.7669 0.8981
C46 C 0.9079(11) 0.959(3) 0.8905(18)
H40 H 0.8939 0.8927 0.9267
H41 H 0.8783 1.0123 0.8674
H42 H 0.9341 1.0099 0.9253
O1 O 0.2579(3) 0.9572(9) 0.2425(6)
H52 H 0.2862 0.9971 0.2559
C50 C 0.2289(5) 0.9364(12) 0.3199(9)
H53 H 0.2454 0.8661 0.3532
H54 H 0.1913 0.9164 0.3028
H55 H 0.2307 1.0127 0.3555
C47? C 0.9178(14) 1.037(2) 0.804(2)
H43? H 0.9126 1.0727 0.8608
H44? H 0.8839 1.0414 0.7676
H45? H 0.9454 1.0853 0.7764
C48? C 0.9947(7) 0.896(3) 0.790(2)
H46? H 1.0155 0.9575 0.8259
H47? H 0.9961 0.9185 0.7289
H48? H 1.0100 0.8120 0.8001
C49? C 0.9307(14) 0.872(4) 0.9068(17)
H49? H 0.9469 0.7901 0.9222
H50? H 0.8926 0.8709 0.9181
H51? H 0.9492 0.9381 0.9415
loop_
_geom_bond_atom_site_label_1
_geom_bond_atom_site_label_2
_geom_bond_site_symmetry_1
_geom_bond_site_symmetry_2
N1 H1 1_555 1_555
N2 C1 1_555 1_555
N3 C6 1_555 1_555
N4 C20 1_555 1_555
C1 N1 1_555 1_555
C2 C1 1_555 1_555
H2 C2 1_555 1_555
C3 C2 1_555 1_555
H3 C3 1_555 1_555
C4 C3 1_555 1_555
H4 C4 1_555 1_555
C5 N2 1_555 1_555
H5 C5 1_555 1_555
C6 N1 1_555 1_555
C7 C6 1_555 1_555
H6 C7 1_555 1_555
C8 C7 1_555 1_555
H7 C8 1_555 1_555
C9 C8 1_555 1_555
H8 C9 1_555 1_555
C10 N3 1_555 1_555
C11 C10 1_555 1_555
C12 C11 1_555 1_555
C13 C12 1_555 1_555
C14 C13 1_555 1_555
C15 C14 1_555 1_555
H9 C15 1_555 1_555
C16 C15 1_555 1_555
H10 C16 1_555 1_555
C17 C16 1_555 1_555
H11 C17 1_555 1_555
C18 C17 1_555 1_555
H12 C18 1_555 1_555
C19 C14 1_555 1_555
C20 C19 1_555 1_555
C21 C20 1_555 1_555
C22 C21 1_555 1_555
H13 C22 1_555 1_555
C23 C22 1_555 1_555
H14 C23 1_555 1_555
C24 C23 1_555 1_555
H15 C24 1_555 1_555
C25 C24 1_555 1_555
H16 C25 1_555 1_555
C26 C13 1_555 1_555
C27 N4 1_555 1_555
C28 C27 1_555 1_555
H17 C28 1_555 1_555
C29 C28 1_555 1_555
H18 C29 1_555 1_555
C30 C29 1_555 1_555
C31 C30 1_555 1_555
H19 C31 1_555 1_555
C32 C27 1_555 1_555
H20 C32 1_555 1_555
C33 C30 1_555 1_555
C34 C33 1_555 1_555
H21 C34 1_555 1_555
H22 C34 1_555 1_555
H23 C34 1_555 1_555
C35 C33 1_555 1_555
H24 C35 1_555 1_555
H25 C35 1_555 1_555
H26 C35 1_555 1_555
C36 C33 1_555 1_555
H27 C36 1_555 1_555
H28 C36 1_555 1_555
H29 C36 1_555 1_555
C37 N4 1_555 1_555
C38 C37 1_555 1_555
H30 C38 1_555 1_555
C39 C38 1_555 1_555
H31 C39 1_555 1_555
C40 C39 1_555 1_555
C41 C40 1_555 1_555
H32 C41 1_555 1_555
C42 C37 1_555 1_555
H33 C42 1_555 1_555
C43 C40 1_555 1_555
C44 C43 1_555 1_555
H34 C44 1_555 1_555
H35 C44 1_555 1_555
H36 C44 1_555 1_555
C45 C43 1_555 1_555
H37 C45 1_555 1_555
H38 C45 1_555 1_555
H39 C45 1_555 1_555
C46 C43 1_555 1_555
H40 C46 1_555 1_555
H41 C46 1_555 1_555
H42 C46 1_555 1_555
O1 H52 1_555 1_555
C50 O1 1_555 1_555
H53 C50 1_555 1_555
H54 C50 1_555 1_555
H55 C50 1_555 1_555
C4 C5 1_555 1_555
C9 C10 1_555 1_555
C18 C19 1_555 1_555
C21 C26 1_555 1_555
C25 C26 1_555 1_555
C31 C32 1_555 1_555
C41 C42 1_555 1_555

#END
