
#######################################################################
#
#                 Cambridge Crystallographic Data Centre
#                                CCDC 
#
#######################################################################
#
# If this CIF has been generated from an entry in the Cambridge 
# Structural Database, then it will include bibliographic, chemical, 
# crystal, experimental, refinement or atomic coordinate data resulting 
# from the CCDC's data processing and validation procedures.
#
#######################################################################

data_LILVUY
_chemical_formula_moiety         'C23 H20 N4'
_chemical_name_systematic        
N-(1-(6-(Quinoxalin-2-yl)pyridin-2-yl)ethylidene)-2,6-dimethylaniline
_symmetry_cell_setting           triclinic
_symmetry_space_group_name_H-M   'P -1'
_symmetry_Int_Tables_number      2
_space_group_name_Hall           '-P 1'
loop_
_symmetry_equiv_pos_site_id
_symmetry_equiv_pos_as_xyz
1 x,y,z
2 -x,-y,-z
_cell_length_a                   7.621(2)
_cell_length_b                   11.455(3)
_cell_length_c                   11.567(3)
_cell_angle_alpha                99.315(5)
_cell_angle_beta                 96.938(5)
_cell_angle_gamma                99.134(5)
_cell_volume                     972.647
_exptl_crystal_colour            yellow
_exptl_crystal_description       block
_cell_formula_units_Z            2
_exptl_crystal_recrystallization_method 'hexane/ethyl acetate'
loop_
_atom_site_label
_atom_site_type_symbol
_atom_site_fract_x
_atom_site_fract_y
_atom_site_fract_z
N1 N -0.1813(2) 0.05235(14) 0.10065(14)
N2 N -0.1908(2) 0.12216(17) -0.12292(16)
N3 N 0.1162(2) 0.33771(14) 0.17882(13)
N4 N 0.4695(2) 0.56627(15) 0.33704(15)
C1 C -0.0962(2) 0.15805(17) 0.08752(17)
C2 C -0.1021(3) 0.1911(2) -0.02562(19)
H1 H -0.0393 0.2661 -0.0309
C3 C -0.2794(3) 0.01215(19) -0.11152(18)
C4 C -0.2745(2) -0.02241(17) 0.00076(18)
C5 C -0.3691(3) -0.13632(18) 0.0092(2)
H2 H -0.3664 -0.1601 0.0825
C6 C -0.4640(3) -0.2113(2) -0.0890(2)
H3 H -0.5268 -0.2859 -0.0824
C7 C -0.4683(3) -0.1777(2) -0.2004(2)
H4 H -0.5334 -0.2301 -0.2671
C8 C -0.3778(3) -0.0686(2) -0.2116(2)
H5 H -0.3810 -0.0473 -0.2860
C9 C 0.0053(2) 0.23952(17) 0.19506(17)
C10 C -0.0125(3) 0.2147(2) 0.30743(18)
H6 H -0.0927 0.1478 0.3165
C11 C 0.0901(3) 0.2903(2) 0.4045(2)
H7 H 0.0791 0.2758 0.4803
C12 C 0.2096(3) 0.3881(2) 0.38866(19)
H8 H 0.2833 0.4389 0.4532
C13 C 0.2178(2) 0.40931(17) 0.27421(17)
C14 C 0.3459(3) 0.51416(17) 0.25261(17)
C15 C 0.3175(3) 0.5496(2) 0.13277(19)
H9 H 0.4077 0.6176 0.1302
H10 H 0.2006 0.5705 0.1193
H11 H 0.3262 0.4834 0.0725
C16 C 0.6000(3) 0.66643(18) 0.32618(16)
C17 C 0.5781(3) 0.7821(2) 0.37373(19)
C18 C 0.7152(4) 0.8774(2) 0.3713(2)
H12 H 0.7032 0.9555 0.4022
C19 C 0.8678(3) 0.8587(2) 0.3242(2)
H13 H 0.9575 0.9236 0.3230
C20 C 0.8871(3) 0.7454(2) 0.27962(19)
H14 H 0.9910 0.7337 0.2482
C21 C 0.7560(3) 0.64649(18) 0.27963(17)
C22 C 0.4112(4) 0.8011(2) 0.4265(3)
H15 H 0.4177 0.8854 0.4550
H16 H 0.4022 0.7584 0.4911
H17 H 0.3074 0.7716 0.3670
C23 C 0.7838(3) 0.5212(2) 0.2338(3)
H18 H 0.8976 0.5250 0.2055
H19 H 0.6892 0.4830 0.1700
H20 H 0.7823 0.4756 0.2965
loop_
_geom_bond_atom_site_label_1
_geom_bond_atom_site_label_2
_geom_bond_site_symmetry_1
_geom_bond_site_symmetry_2
N1 C1 1_555 1_555
N2 C2 1_555 1_555
N3 C9 1_555 1_555
N4 C14 1_555 1_555
C1 C2 1_555 1_555
C2 H1 1_555 1_555
C3 N2 1_555 1_555
C4 N1 1_555 1_555
C5 C4 1_555 1_555
H2 C5 1_555 1_555
C6 C5 1_555 1_555
H3 C6 1_555 1_555
C7 C6 1_555 1_555
H4 C7 1_555 1_555
C8 C3 1_555 1_555
H5 C8 1_555 1_555
C9 C1 1_555 1_555
C10 C9 1_555 1_555
H6 C10 1_555 1_555
C11 C10 1_555 1_555
H7 C11 1_555 1_555
C12 C11 1_555 1_555
H8 C12 1_555 1_555
C13 N3 1_555 1_555
C14 C13 1_555 1_555
C15 C14 1_555 1_555
H9 C15 1_555 1_555
H10 C15 1_555 1_555
H11 C15 1_555 1_555
C16 N4 1_555 1_555
C17 C16 1_555 1_555
C18 C17 1_555 1_555
H12 C18 1_555 1_555
C19 C18 1_555 1_555
H13 C19 1_555 1_555
C20 C19 1_555 1_555
H14 C20 1_555 1_555
C21 C16 1_555 1_555
C22 C17 1_555 1_555
H15 C22 1_555 1_555
H16 C22 1_555 1_555
H17 C22 1_555 1_555
C23 C21 1_555 1_555
H18 C23 1_555 1_555
H19 C23 1_555 1_555
H20 C23 1_555 1_555
C3 C4 1_555 1_555
C7 C8 1_555 1_555
C12 C13 1_555 1_555
C20 C21 1_555 1_555

#END
