
#######################################################################
#
#                 Cambridge Crystallographic Data Centre
#                                CCDC 
#
#######################################################################
#
# If this CIF has been generated from an entry in the Cambridge 
# Structural Database, then it will include bibliographic, chemical, 
# crystal, experimental, refinement or atomic coordinate data resulting 
# from the CCDC's data processing and validation procedures.
#
#######################################################################

data_LILXUC
_chemical_formula_moiety         'C16 H17 N1 O3'
_chemical_name_systematic        
'ethyl 2-(cyanomethyl)-1-hydroxy-1-methyl-3-methylidene-2,3-dihydro-1H-indene-2-carboxylate'
_symmetry_cell_setting           orthorhombic
_symmetry_space_group_name_H-M   'P b c a'
_symmetry_Int_Tables_number      61
_space_group_name_Hall           '-P 2ac 2ab'
loop_
_symmetry_equiv_pos_site_id
_symmetry_equiv_pos_as_xyz
1 x,y,z
2 1/2-x,-y,1/2+z
3 1/2+x,1/2-y,-z
4 -x,1/2+y,1/2-z
5 -x,-y,-z
6 1/2+x,y,1/2-z
7 1/2-x,1/2+y,z
8 x,1/2-y,1/2+z
_cell_length_a                   18.5434(6)
_cell_length_b                   8.2224(3)
_cell_length_c                   18.7134(7)
_cell_angle_alpha                90
_cell_angle_beta                 90
_cell_angle_gamma                90
_cell_volume                     2853.26
_exptl_crystal_colour            colorless
_exptl_crystal_description       block
_cell_formula_units_Z            8
_exptl_crystal_recrystallization_method 'diethyl ether'
loop_
_atom_site_label
_atom_site_type_symbol
_atom_site_fract_x
_atom_site_fract_y
_atom_site_fract_z
C1 C 0.42464(6) 0.71343(13) 0.54055(6)
C2 C 0.39055(6) 0.86958(13) 0.57763(6)
C3 C 0.35816(6) 0.96722(14) 0.51589(6)
C4 C 0.34897(6) 0.85271(14) 0.45628(6)
C5 C 0.31172(6) 0.87394(15) 0.39211(6)
H1 H 0.286655 0.972351 0.382586
C6 C 0.31202(6) 0.74869(17) 0.34263(6)
H2 H 0.287006 0.761572 0.298694
C7 C 0.34854(6) 0.60409(16) 0.35650(6)
H3 H 0.348445 0.519819 0.321767
C8 C 0.38513(6) 0.58169(15) 0.42058(6)
H4 H 0.409737 0.482811 0.430319
C9 C 0.38475(6) 0.70768(13) 0.46996(6)
O1 O 0.50008(4) 0.74099(11) 0.52933(4)
H5 H 0.5062(8) 0.8073(19) 0.4912(9)
C10 C 0.41995(7) 0.55724(14) 0.58345(6)
H6 H 0.442773 0.468710 0.556656
H7 H 0.369205 0.530489 0.592182
H8 H 0.444828 0.571618 0.629215
C11 C 0.45012(6) 0.95667(14) 0.61841(6)
O2 O 0.48231(5) 1.07534(11) 0.59844(5)
O3 O 0.46297(5) 0.88076(11) 0.68030(4)
C12 C 0.52416(8) 0.93519(19) 0.72252(8)
H9 H 0.511698 0.931719 0.773941
H10 H 0.536214 1.048905 0.709880
C13 C 0.58701(8) 0.8291(2) 0.70869(11)
H11 H 0.627754 0.864691 0.738156
H12 H 0.600266 0.835949 0.658081
H13 H 0.574666 0.716501 0.720653
C14 C 0.32882(6) 0.81839(14) 0.62845(6)
H14 H 0.290773 0.763015 0.600429
H15 H 0.347740 0.739699 0.663834
C15 C 0.29711(6) 0.95656(16) 0.66624(6)
N1 N 0.27410(7) 1.06460(16) 0.69711(6)
C16 C 0.33989(7) 1.12352(15) 0.51704(7)
H16 H 0.318389 1.172039 0.476183
H17 H 0.348325 1.186705 0.558706
H18? H 0.555645 1.000523 0.690876
H19? H 0.505594 1.009433 0.759888
C17? C 0.5682(9) 0.817(2) 0.7568(10)
H20? H 0.544856 0.781147 0.801104
H21? H 0.615270 0.864729 0.767995
H22? H 0.574766 0.723444 0.724998
loop_
_geom_bond_atom_site_label_1
_geom_bond_atom_site_label_2
_geom_bond_site_symmetry_1
_geom_bond_site_symmetry_2
C1 C2 1_555 1_555
C2 C3 1_555 1_555
C3 C4 1_555 1_555
C4 C5 1_555 1_555
C5 H1 1_555 1_555
C6 C5 1_555 1_555
H2 C6 1_555 1_555
C7 C6 1_555 1_555
H3 C7 1_555 1_555
C8 C7 1_555 1_555
H4 C8 1_555 1_555
C9 C1 1_555 1_555
O1 C1 1_555 1_555
H5 O1 1_555 1_555
C10 C1 1_555 1_555
H6 C10 1_555 1_555
H7 C10 1_555 1_555
H8 C10 1_555 1_555
C11 C2 1_555 1_555
O2 C11 1_555 1_555
O3 C11 1_555 1_555
C12 O3 1_555 1_555
H9 C12 1_555 1_555
H10 C12 1_555 1_555
C13 C12 1_555 1_555
H11 C13 1_555 1_555
H12 C13 1_555 1_555
H13 C13 1_555 1_555
C14 C2 1_555 1_555
H14 C14 1_555 1_555
H15 C14 1_555 1_555
C15 C14 1_555 1_555
N1 C15 1_555 1_555
C16 C3 1_555 1_555
H16 C16 1_555 1_555
H17 C16 1_555 1_555
C4 C9 1_555 1_555
C8 C9 1_555 1_555

#END
