
#######################################################################
#
#                 Cambridge Crystallographic Data Centre
#                                CCDC 
#
#######################################################################
#
# If this CIF has been generated from an entry in the Cambridge 
# Structural Database, then it will include bibliographic, chemical, 
# crystal, experimental, refinement or atomic coordinate data resulting 
# from the CCDC's data processing and validation procedures.
#
#######################################################################

data_LILYUD
_chemical_formula_moiety         'C32 H45 N1 O4 S1,0.5(C6 H14)'
_chemical_name_systematic        
'ethyl 3-oxo-20-{[(2,4,6-trimethylphenyl)sulfinyl]amino}pregn-4-en-21-oate hexane solvate'
_symmetry_cell_setting           orthorhombic
_symmetry_space_group_name_H-M   'P 21 21 21'
_symmetry_Int_Tables_number      19
_space_group_name_Hall           'P 2ac 2ab'
loop_
_symmetry_equiv_pos_site_id
_symmetry_equiv_pos_as_xyz
1 x,y,z
2 1/2-x,-y,1/2+z
3 -x,1/2+y,1/2-z
4 1/2+x,1/2-y,-z
_cell_length_a                   9.5622(3)
_cell_length_b                   23.5391(6)
_cell_length_c                   28.7418(9)
_cell_angle_alpha                90
_cell_angle_beta                 90
_cell_angle_gamma                90
_cell_volume                     6469.36
_exptl_crystal_colour            colorless
_exptl_crystal_description       Needle
_cell_formula_units_Z            8
loop_
_atom_site_label
_atom_site_type_symbol
_atom_site_fract_x
_atom_site_fract_y
_atom_site_fract_z
S1 S 0.33702(14) 0.76578(5) 0.64491(4)
O1 O 0.1319(4) 0.65761(14) 0.57834(12)
O2 O 0.0778(4) 0.61617(13) 0.64644(12)
O3 O 0.1279(5) 1.12828(16) 0.70879(15)
O4 O 0.4200(4) 0.71337(13) 0.63855(13)
N1 N 0.1760(5) 0.76041(17) 0.62210(14)
H1 H 0.173(5) 0.7568(19) 0.5904(9)
C1 C 0.1041(5) 0.6607(2) 0.61888(17)
C2 C 0.0901(5) 0.71659(19) 0.64505(17)
H2 H 0.126681 0.710937 0.677309
C3 C -0.0674(5) 0.7316(2) 0.64842(17)
H3 H -0.116177 0.698736 0.663370
C4 C -0.1371(6) 0.7420(2) 0.60013(18)
H4 H -0.068432 0.735793 0.574845
H5 H -0.216409 0.715547 0.595562
C5 C -0.1891(6) 0.8041(2) 0.59969(19)
H6 H -0.168020 0.822637 0.569587
H7 H -0.291096 0.805993 0.605416
C6 C -0.1081(5) 0.83176(19) 0.63912(17)
H8 H -0.009907 0.835815 0.627603
C7 C -0.1032(5) 0.78554(19) 0.67680(17)
C8 C -0.0044(6) 0.8042(2) 0.71517(17)
H9 H 0.092195 0.805949 0.702815
H10 H -0.006142 0.775933 0.740651
C9 C -0.0456(6) 0.8629(2) 0.73451(17)
H11 H 0.024015 0.874771 0.758058
H12 H -0.137573 0.859894 0.750146
C10 C -0.0540(6) 0.90842(19) 0.69610(17)
H13 H 0.041592 0.909451 0.682043
C11 C -0.1510(6) 0.8906(2) 0.65628(17)
H14 H -0.248878 0.888520 0.668423
C12 C -0.1462(7) 0.9339(2) 0.61758(18)
H15 H -0.214848 0.923369 0.593303
H16 H -0.052032 0.933596 0.603239
C13 C -0.1784(7) 0.9934(2) 0.6351(2)
H17 H -0.166479 1.020747 0.609175
H18 H -0.277332 0.995054 0.645178
C14 C -0.0869(6) 1.0108(2) 0.67454(18)
C15 C -0.0787(6) 0.9698(2) 0.71543(18)
C16 C 0.0450(6) 0.9861(2) 0.74725(18)
H19 H 0.034201 0.966342 0.777447
H20 H 0.132917 0.972588 0.732840
C17 C 0.0568(7) 1.0503(2) 0.75617(19)
H21 H -0.025400 1.063094 0.774293
H22 H 0.141544 1.057894 0.774924
C18 C 0.0645(7) 1.0834(2) 0.7116(2)
C19 C -0.0158(6) 1.0599(2) 0.6731(2)
H23 H -0.017979 1.080887 0.644904
C20 C -0.2502(6) 0.7744(2) 0.6978(2)
H24 H -0.241744 0.748657 0.724396
H25 H -0.310431 0.757106 0.674096
H26 H -0.291206 0.810450 0.708017
C21 C -0.2174(6) 0.9735(2) 0.7431(2)
H27 H -0.294629 0.960074 0.723541
H28 H -0.234561 1.013043 0.752158
H29 H -0.210856 0.949798 0.771003
C22 C 0.0691(6) 0.5604(2) 0.62393(19)
H30 H 0.096567 0.530377 0.646293
H31 H 0.134345 0.558920 0.597207
C23 C -0.0782(6) 0.5499(2) 0.6073(2)
H32 H -0.103110 0.578400 0.583849
H33 H -0.142866 0.552709 0.633674
H34 H -0.084514 0.511892 0.593600
C24 C 0.4000(5) 0.81847(19) 0.60471(17)
C25 C 0.4360(6) 0.8051(2) 0.55855(18)
C26 C 0.4951(6) 0.8483(2) 0.53200(18)
H35 H 0.519547 0.840354 0.500639
C27 C 0.5198(6) 0.9023(2) 0.54900(19)
C28 C 0.4821(6) 0.9135(2) 0.59449(19)
H36 H 0.497354 0.950539 0.606647
C29 C 0.4221(5) 0.87224(19) 0.62319(17)
C30 C 0.4158(8) 0.7474(2) 0.53673(19)
H37 H 0.444868 0.717880 0.558753
H38 H 0.472392 0.744659 0.508400
H39 H 0.316878 0.742118 0.528870
C31 C 0.5850(8) 0.9478(3) 0.5184(2)
H40 H 0.514849 0.962003 0.496379
H41 H 0.663814 0.931558 0.501112
H42 H 0.618244 0.979186 0.537839
C32 C 0.3869(6) 0.8870(2) 0.67263(18)
H43 H 0.443567 0.863715 0.693734
H44 H 0.287554 0.879530 0.678294
H45 H 0.406762 0.927248 0.678148
S2 S 0.15754(14) 0.37825(5) 0.63182(4)
O5 O 0.3609(4) 0.49285(16) 0.57058(16)
O6 O 0.4146(4) 0.52669(15) 0.64247(16)
O7 O 0.3869(6) 0.0197(2) 0.7066(3)
O8 O 0.0733(4) 0.43111(14) 0.62897(13)
N2 N 0.3182(4) 0.38572(17) 0.60841(14)
H46 H 0.309(5) 0.3940(17) 0.5773(9)
C33 C 0.3894(6) 0.4860(2) 0.6109(2)
C34 C 0.4026(5) 0.4281(2) 0.63314(18)
H47 H 0.367729 0.430661 0.665868
C35 C 0.5609(6) 0.4129(2) 0.63454(19)
H48 H 0.611013 0.445999 0.648640
C36 C 0.6267(6) 0.4022(2) 0.58582(19)
H49 H 0.556061 0.408087 0.561117
H50 H 0.705529 0.428617 0.580409
C37 C 0.6788(6) 0.3403(2) 0.58526(19)
H51 H 0.655230 0.321631 0.555429
H52 H 0.781342 0.338708 0.589866
C38 C 0.6025(5) 0.3121(2) 0.62560(17)
H53 H 0.503193 0.307362 0.615364
C39 C 0.6015(5) 0.3592(2) 0.66330(17)
C40 C 0.5045(5) 0.3405(2) 0.70209(17)
H54 H 0.407969 0.337092 0.689949
H55 H 0.504354 0.369496 0.727066
C41 C 0.5519(6) 0.2830(2) 0.72212(17)
H56 H 0.645266 0.287523 0.736569
H57 H 0.485721 0.271068 0.746721
C42 C 0.5593(5) 0.2367(2) 0.68460(17)
H58 H 0.462090 0.233406 0.672069
C43 C 0.6499(5) 0.2545(2) 0.64297(16)
H59 H 0.749581 0.257191 0.653242
C44 C 0.6385(6) 0.2100(2) 0.60502(18)
H60 H 0.701335 0.220402 0.579004
H61 H 0.541525 0.209406 0.592957
C45 C 0.6770(7) 0.1509(2) 0.62260(19)
H62 H 0.659020 0.122732 0.597753
H63 H 0.778047 0.149860 0.630042
C46 C 0.5951(6) 0.1353(2) 0.6648(2)
C47 C 0.5945(6) 0.1770(2) 0.70471(18)
C48 C 0.4801(6) 0.1615(2) 0.7406(2)
H64 H 0.498485 0.182096 0.769974
H65 H 0.388059 0.174045 0.728654
C49 C 0.4747(8) 0.0978(3) 0.7505(3)
H66 H 0.563050 0.085899 0.765606
H67 H 0.397105 0.089807 0.772361
C50 C 0.4542(8) 0.0646(3) 0.7078(4)
C51 C 0.5255(7) 0.0855(3) 0.6661(3)
H68 H 0.522542 0.063010 0.638643
C52 C 0.7482(6) 0.3702(2) 0.6827(2)
H69 H 0.790034 0.334181 0.692597
H70 H 0.741932 0.396005 0.709343
H71 H 0.806501 0.387465 0.658453
C53 C 0.7399(6) 0.1761(2) 0.72854(19)
H72 H 0.811714 0.187457 0.706066
H73 H 0.759866 0.137624 0.739785
H74 H 0.740076 0.202583 0.754838
C54 C 0.4253(7) 0.5847(2) 0.6250(3)
H75 H 0.384429 0.611616 0.647683
H76 H 0.373759 0.588368 0.595254
C55 C 0.5788(7) 0.5978(3) 0.6176(3)
H77 H 0.612549 0.577560 0.590017
H78 H 0.632209 0.585477 0.644930
H79 H 0.590970 0.638758 0.613183
C56 C 0.0916(5) 0.32970(19) 0.58919(16)
C57 C 0.0501(5) 0.3473(2) 0.54438(17)
C58 C -0.0130(6) 0.3074(2) 0.51568(18)
H80 H -0.042216 0.318691 0.485484
C59 C -0.0350(5) 0.2516(2) 0.52941(18)
C60 C 0.0083(6) 0.2355(2) 0.57364(19)
H81 H -0.005580 0.197299 0.583385
C61 C 0.0713(5) 0.2736(2) 0.60403(17)
C62 C 0.0673(7) 0.4074(2) 0.52630(19)
H82 H 0.022234 0.434086 0.547799
H83 H 0.023624 0.410589 0.495552
H84 H 0.167011 0.416525 0.523853
C63 C -0.1079(7) 0.2102(3) 0.4976(2)
H85 H -0.072962 0.215051 0.465774
H86 H -0.208853 0.217390 0.498218
H87 H -0.089388 0.171317 0.508052
C64 C 0.1134(6) 0.2542(2) 0.65203(18)
H88 H 0.213959 0.260228 0.656320
H89 H 0.091838 0.213750 0.655564
H90 H 0.061656 0.276079 0.675405
C65 C 0.2641(7) 1.1219(3) 0.5809(3)
H91 H 0.363778 1.116093 0.574568
H92 H 0.244063 1.111889 0.613324
H93 H 0.240163 1.161906 0.575634
C66 C 0.1852(11) 1.0878(4) 0.5514(3)
H94 H 0.207410 1.098515 0.518965
H95 H 0.085170 1.096613 0.556681
C67 C 0.2037(12) 1.0270(4) 0.5560(3)
H96 H 0.302451 1.018090 0.548703
H97 H 0.188223 1.016890 0.589067
C68 C 0.1212(11) 0.9928(4) 0.5295(3)
H98 H 0.122107 1.008338 0.497502
H99 H 0.024306 0.996733 0.541221
C69 C 0.1495(16) 0.9340(7) 0.5261(6)
H100 H 0.174371 0.922339 0.558099
H101 H 0.237377 0.931736 0.507932
C70 C 0.0611(14) 0.8862(5) 0.5078(4)
H102 H 0.064121 0.886238 0.473680
H103 H -0.035707 0.891329 0.518175
H104 H 0.097119 0.849999 0.519493
loop_
_geom_bond_atom_site_label_1
_geom_bond_atom_site_label_2
_geom_bond_site_symmetry_1
_geom_bond_site_symmetry_2
S1 O4 1_555 1_555
O1 C1 1_555 1_555
O2 C1 1_555 1_555
O3 C18 1_555 1_555
N1 S1 1_555 1_555
H1 N1 1_555 1_555
C1 C2 1_555 1_555
C2 N1 1_555 1_555
H2 C2 1_555 1_555
C3 C2 1_555 1_555
H3 C3 1_555 1_555
C4 C3 1_555 1_555
H4 C4 1_555 1_555
H5 C4 1_555 1_555
C5 C4 1_555 1_555
H6 C5 1_555 1_555
H7 C5 1_555 1_555
C6 C5 1_555 1_555
H8 C6 1_555 1_555
C7 C3 1_555 1_555
C8 C7 1_555 1_555
H9 C8 1_555 1_555
H10 C8 1_555 1_555
C9 C8 1_555 1_555
H11 C9 1_555 1_555
H12 C9 1_555 1_555
C10 C9 1_555 1_555
H13 C10 1_555 1_555
C11 C6 1_555 1_555
H14 C11 1_555 1_555
C12 C11 1_555 1_555
H15 C12 1_555 1_555
H16 C12 1_555 1_555
C13 C12 1_555 1_555
H17 C13 1_555 1_555
H18 C13 1_555 1_555
C14 C13 1_555 1_555
C15 C10 1_555 1_555
C16 C15 1_555 1_555
H19 C16 1_555 1_555
H20 C16 1_555 1_555
C17 C16 1_555 1_555
H21 C17 1_555 1_555
H22 C17 1_555 1_555
C18 C17 1_555 1_555
C19 C14 1_555 1_555
H23 C19 1_555 1_555
C20 C7 1_555 1_555
H24 C20 1_555 1_555
H25 C20 1_555 1_555
H26 C20 1_555 1_555
C21 C15 1_555 1_555
H27 C21 1_555 1_555
H28 C21 1_555 1_555
H29 C21 1_555 1_555
C22 O2 1_555 1_555
H30 C22 1_555 1_555
H31 C22 1_555 1_555
C23 C22 1_555 1_555
H32 C23 1_555 1_555
H33 C23 1_555 1_555
H34 C23 1_555 1_555
C24 S1 1_555 1_555
C25 C24 1_555 1_555
C26 C25 1_555 1_555
H35 C26 1_555 1_555
C27 C26 1_555 1_555
C28 C27 1_555 1_555
H36 C28 1_555 1_555
C29 C24 1_555 1_555
C30 C25 1_555 1_555
H37 C30 1_555 1_555
H38 C30 1_555 1_555
H39 C30 1_555 1_555
C31 C27 1_555 1_555
H40 C31 1_555 1_555
H41 C31 1_555 1_555
H42 C31 1_555 1_555
C32 C29 1_555 1_555
H43 C32 1_555 1_555
H44 C32 1_555 1_555
H45 C32 1_555 1_555
S2 O8 1_555 1_555
O5 C33 1_555 1_555
O6 C33 1_555 1_555
O7 C50 1_555 1_555
N2 S2 1_555 1_555
H46 N2 1_555 1_555
C33 C34 1_555 1_555
C34 N2 1_555 1_555
H47 C34 1_555 1_555
C35 C34 1_555 1_555
H48 C35 1_555 1_555
C36 C35 1_555 1_555
H49 C36 1_555 1_555
H50 C36 1_555 1_555
C37 C36 1_555 1_555
H51 C37 1_555 1_555
H52 C37 1_555 1_555
C38 C37 1_555 1_555
H53 C38 1_555 1_555
C39 C35 1_555 1_555
C40 C39 1_555 1_555
H54 C40 1_555 1_555
H55 C40 1_555 1_555
C41 C40 1_555 1_555
H56 C41 1_555 1_555
H57 C41 1_555 1_555
C42 C41 1_555 1_555
H58 C42 1_555 1_555
C43 C38 1_555 1_555
H59 C43 1_555 1_555
C44 C43 1_555 1_555
H60 C44 1_555 1_555
H61 C44 1_555 1_555
C45 C44 1_555 1_555
H62 C45 1_555 1_555
H63 C45 1_555 1_555
C46 C45 1_555 1_555
C47 C42 1_555 1_555
C48 C47 1_555 1_555
H64 C48 1_555 1_555
H65 C48 1_555 1_555
C49 C48 1_555 1_555
H66 C49 1_555 1_555
H67 C49 1_555 1_555
C50 C49 1_555 1_555
C51 C46 1_555 1_555
H68 C51 1_555 1_555
C52 C39 1_555 1_555
H69 C52 1_555 1_555
H70 C52 1_555 1_555
H71 C52 1_555 1_555
C53 C47 1_555 1_555
H72 C53 1_555 1_555
H73 C53 1_555 1_555
H74 C53 1_555 1_555
C54 O6 1_555 1_555
H75 C54 1_555 1_555
H76 C54 1_555 1_555
C55 C54 1_555 1_555
H77 C55 1_555 1_555
H78 C55 1_555 1_555
H79 C55 1_555 1_555
C56 S2 1_555 1_555
C57 C56 1_555 1_555
C58 C57 1_555 1_555
H80 C58 1_555 1_555
C59 C58 1_555 1_555
C60 C59 1_555 1_555
H81 C60 1_555 1_555
C61 C56 1_555 1_555
C62 C57 1_555 1_555
H82 C62 1_555 1_555
H83 C62 1_555 1_555
H84 C62 1_555 1_555
C63 C59 1_555 1_555
H85 C63 1_555 1_555
H86 C63 1_555 1_555
H87 C63 1_555 1_555
C64 C61 1_555 1_555
H88 C64 1_555 1_555
H89 C64 1_555 1_555
H90 C64 1_555 1_555
C65 H91 1_555 1_555
H92 C65 1_555 1_555
H93 C65 1_555 1_555
C66 C65 1_555 1_555
H94 C66 1_555 1_555
H95 C66 1_555 1_555
C67 C66 1_555 1_555
H96 C67 1_555 1_555
H97 C67 1_555 1_555
C68 C67 1_555 1_555
H98 C68 1_555 1_555
H99 C68 1_555 1_555
C69 C68 1_555 1_555
H100 C69 1_555 1_555
H101 C69 1_555 1_555
C70 C69 1_555 1_555
H102 C70 1_555 1_555
H103 C70 1_555 1_555
H104 C70 1_555 1_555
C6 C7 1_555 1_555
C10 C11 1_555 1_555
C14 C15 1_555 1_555
C18 C19 1_555 1_555
C28 C29 1_555 1_555
C38 C39 1_555 1_555
C42 C43 1_555 1_555
C46 C47 1_555 1_555
C50 C51 1_555 1_555
C60 C61 1_555 1_555

#END
