
#######################################################################
#
#                 Cambridge Crystallographic Data Centre
#                                CCDC 
#
#######################################################################
#
# If this CIF has been generated from an entry in the Cambridge 
# Structural Database, then it will include bibliographic, chemical, 
# crystal, experimental, refinement or atomic coordinate data resulting 
# from the CCDC's data processing and validation procedures.
#
#######################################################################

data_LILZIS
_chemical_formula_moiety         'C18 H16 N2 O1'
_chemical_name_systematic        
1-(5-methyl-1,3-diphenyl-1H-pyrazol-4-yl)ethan-1-one
_symmetry_cell_setting           monoclinic
_symmetry_space_group_name_H-M   'P 21/n'
_symmetry_Int_Tables_number      14
_space_group_name_Hall           '-P 2yn'
loop_
_symmetry_equiv_pos_site_id
_symmetry_equiv_pos_as_xyz
1 x,y,z
2 1/2-x,1/2+y,1/2-z
3 -x,-y,-z
4 1/2+x,1/2-y,1/2+z
_cell_length_a                   14.2864(13)
_cell_length_b                   5.3688(5)
_cell_length_c                   19.4632(16)
_cell_angle_alpha                90
_cell_angle_beta                 108.952(3)
_cell_angle_gamma                90
_cell_volume                     1411.92
_exptl_crystal_colour            yellow
_exptl_crystal_description       block
_cell_formula_units_Z            4
loop_
_atom_site_label
_atom_site_type_symbol
_atom_site_fract_x
_atom_site_fract_y
_atom_site_fract_z
O1 O 0.52865(7) -0.18572(19) 0.43311(5)
N1 N 0.81416(8) 0.2830(2) 0.51256(6)
N2 N 0.75201(8) 0.34182(19) 0.44414(5)
C1 C 0.78837(9) 0.5175(2) 0.40339(6)
C2 C 0.72598(10) 0.6844(2) 0.35567(7)
H1 H 0.6568 0.6821 0.3481
C3 C 0.76584(10) 0.8555(2) 0.31902(7)
H2 H 0.7232 0.9657 0.2847
C4 C 0.86695(10) 0.8665(2) 0.33203(7)
H3 H 0.8938 0.9876 0.3081
C5 C 0.92887(10) 0.7001(3) 0.38020(7)
H4 H 0.9983 0.7076 0.3893
C6 C 0.88989(9) 0.5225(3) 0.41521(7)
H5 H 0.9322 0.4052 0.4470
C7 C 0.58715(10) 0.2313(3) 0.35387(7)
H6 H 0.5418 0.3646 0.3569
H7 H 0.5507 0.0740 0.3419
H8 H 0.6162 0.2716 0.3160
C8 C 0.66739(9) 0.2063(2) 0.42509(7)
C9 C 0.67372(9) 0.0505(2) 0.48381(6)
C10 C 0.60156(9) -0.1432(2) 0.48602(7)
C11 C 0.61996(10) -0.2928(3) 0.55439(7)
H9 H 0.5664 -0.4137 0.5478
H10 H 0.6224 -0.1811 0.5948
H11 H 0.6831 -0.3811 0.5652
C12 C 0.76673(9) 0.1090(2) 0.53654(6)
C13 C 0.81404(9) 0.0128(2) 0.61152(6)
C14 C 0.79363(10) 0.1270(3) 0.66931(7)
H12 H 0.7503 0.2662 0.6605
C15 C 0.83608(11) 0.0394(3) 0.73954(7)
H13 H 0.8219 0.1190 0.7786
C16 C 0.89913(10) -0.1641(3) 0.75290(7)
H14 H 0.9275 -0.2257 0.8010
C17 C 0.92064(10) -0.2771(3) 0.69578(8)
H15 H 0.9644 -0.4155 0.7049
C18 C 0.87849(10) -0.1893(3) 0.62514(7)
H16 H 0.8937 -0.2672 0.5862
loop_
_geom_bond_atom_site_label_1
_geom_bond_atom_site_label_2
_geom_bond_site_symmetry_1
_geom_bond_site_symmetry_2
O1 C10 1_555 1_555
N1 N2 1_555 1_555
N2 C1 1_555 1_555
C1 C2 1_555 1_555
C2 H1 1_555 1_555
C3 C2 1_555 1_555
H2 C3 1_555 1_555
C4 C3 1_555 1_555
H3 C4 1_555 1_555
C5 C4 1_555 1_555
H4 C5 1_555 1_555
C6 C1 1_555 1_555
H5 C6 1_555 1_555
C7 H6 1_555 1_555
H7 C7 1_555 1_555
H8 C7 1_555 1_555
C8 N2 1_555 1_555
C9 C8 1_555 1_555
C10 C9 1_555 1_555
C11 C10 1_555 1_555
H9 C11 1_555 1_555
H10 C11 1_555 1_555
H11 C11 1_555 1_555
C12 N1 1_555 1_555
C13 C12 1_555 1_555
C14 C13 1_555 1_555
H12 C14 1_555 1_555
C15 C14 1_555 1_555
H13 C15 1_555 1_555
C16 C15 1_555 1_555
H14 C16 1_555 1_555
C17 C16 1_555 1_555
H15 C17 1_555 1_555
C18 C13 1_555 1_555
H16 C18 1_555 1_555
C5 C6 1_555 1_555
C7 C8 1_555 1_555
C9 C12 1_555 1_555
C17 C18 1_555 1_555

#END
