
#######################################################################
#
#                 Cambridge Crystallographic Data Centre
#                                CCDC 
#
#######################################################################
#
# If this CIF has been generated from an entry in the Cambridge 
# Structural Database, then it will include bibliographic, chemical, 
# crystal, experimental, refinement or atomic coordinate data resulting 
# from the CCDC's data processing and validation procedures.
#
#######################################################################

data_LIMCIW
_chemical_formula_moiety         'C24 H17 N1 O3'
_chemical_name_systematic        
'methyl 5-oxo-12-phenyl-5,7-dihydroisoindolo[2,1-b]isoquinoline-7-carboxylate'
_symmetry_cell_setting           triclinic
_symmetry_space_group_name_H-M   'P -1'
_symmetry_Int_Tables_number      2
_space_group_name_Hall           '-P 1'
loop_
_symmetry_equiv_pos_site_id
_symmetry_equiv_pos_as_xyz
1 x,y,z
2 -x,-y,-z
_cell_length_a                   5.97007(13)
_cell_length_b                   10.7499(3)
_cell_length_c                   14.3987(4)
_cell_angle_alpha                81.279(2)
_cell_angle_beta                 84.444(2)
_cell_angle_gamma                84.681(2)
_cell_volume                     906.237
_exptl_crystal_colour            colorless
_exptl_crystal_description       block
_cell_formula_units_Z            2
loop_
_atom_site_label
_atom_site_type_symbol
_atom_site_fract_x
_atom_site_fract_y
_atom_site_fract_z
O1 O 0.13657(19) 0.50520(10) 0.64877(8)
O2 O 0.4001(2) 0.42002(11) 0.86847(9)
O3 O 0.03764(17) 0.49186(10) 0.86149(8)
N1 N 0.13024(18) 0.67696(10) 0.72158(7)
C1 C 0.0507(2) 0.61087(12) 0.65896(9)
C2 C -0.1411(2) 0.67682(12) 0.61122(9)
C3 C -0.2469(3) 0.61340(14) 0.55190(10)
H1 H -0.1931 0.5317 0.5429
C4 C -0.4296(3) 0.67085(16) 0.50689(11)
H2 H -0.4999 0.6281 0.4678
C5 C -0.5092(3) 0.79303(16) 0.51988(12)
H3 H -0.6339 0.8314 0.4897
C6 C -0.4060(3) 0.85810(14) 0.57691(10)
H4 H -0.4604 0.9403 0.5840
C7 C -0.2194(2) 0.80182(12) 0.62456(9)
C8 C -0.1120(2) 0.86582(12) 0.68814(9)
C9 C 0.0506(2) 0.79848(11) 0.73830(9)
C10 C 0.1720(2) 0.82393(12) 0.81638(9)
C11 C 0.1420(2) 0.92288(14) 0.87008(10)
H5 H 0.0351 0.9902 0.8566
C12 C 0.2761(3) 0.91781(15) 0.94409(11)
H6 H 0.2567 0.9821 0.9813
C13 C 0.4384(3) 0.81910(16) 0.96383(12)
H7 H 0.5286 0.8192 1.0130
C14 C 0.4680(3) 0.72037(15) 0.91134(11)
H8 H 0.5771 0.6540 0.9244
C15 C 0.3306(2) 0.72322(13) 0.83889(9)
C16 C 0.3121(2) 0.62152(13) 0.77888(9)
H9 H 0.4525 0.6092 0.7389
C17 C 0.2569(2) 0.49805(13) 0.84013(10)
C18 C -0.0313(3) 0.37543(18) 0.91607(14)
H10 H 0.0267 0.3058 0.8839
H11 H -0.1931 0.3782 0.9237
H12 H 0.0268 0.3650 0.9769
C19 C -0.1692(2) 1.00182(12) 0.69582(9)
C20 C -0.3727(3) 1.04478(15) 0.73943(11)
H13 H -0.4794 0.9878 0.7634
C21 C -0.4191(3) 1.17096(17) 0.74783(13)
H14 H -0.5565 1.1985 0.7772
C22 C -0.2620(3) 1.25657(15) 0.71273(13)
H15 H -0.2926 1.3414 0.7191
C23 C -0.0603(3) 1.21570(14) 0.66842(12)
H16 H 0.0453 1.2732 0.6443
C24 C -0.0138(2) 1.08940(13) 0.65963(11)
H17 H 0.1228 1.0627 0.6292
loop_
_geom_bond_atom_site_label_1
_geom_bond_atom_site_label_2
_geom_bond_site_symmetry_1
_geom_bond_site_symmetry_2
O1 C1 1_555 1_555
O2 C17 1_555 1_555
O3 C17 1_555 1_555
N1 C1 1_555 1_555
C1 C2 1_555 1_555
C2 C3 1_555 1_555
C3 H1 1_555 1_555
C4 C3 1_555 1_555
H2 C4 1_555 1_555
C5 C4 1_555 1_555
H3 C5 1_555 1_555
C6 C5 1_555 1_555
H4 C6 1_555 1_555
C7 C2 1_555 1_555
C8 C7 1_555 1_555
C9 N1 1_555 1_555
C10 C9 1_555 1_555
C11 C10 1_555 1_555
H5 C11 1_555 1_555
C12 C11 1_555 1_555
H6 C12 1_555 1_555
C13 C12 1_555 1_555
H7 C13 1_555 1_555
C14 C13 1_555 1_555
H8 C14 1_555 1_555
C15 C10 1_555 1_555
C16 N1 1_555 1_555
H9 C16 1_555 1_555
C17 C16 1_555 1_555
C18 O3 1_555 1_555
H10 C18 1_555 1_555
H11 C18 1_555 1_555
H12 C18 1_555 1_555
C19 C8 1_555 1_555
C20 C19 1_555 1_555
H13 C20 1_555 1_555
C21 C20 1_555 1_555
H14 C21 1_555 1_555
C22 C21 1_555 1_555
H15 C22 1_555 1_555
C23 C22 1_555 1_555
H16 C23 1_555 1_555
C24 C19 1_555 1_555
H17 C24 1_555 1_555
C6 C7 1_555 1_555
C8 C9 1_555 1_555
C14 C15 1_555 1_555
C15 C16 1_555 1_555
C23 C24 1_555 1_555

#END
