
#######################################################################
#
#                 Cambridge Crystallographic Data Centre
#                                CCDC 
#
#######################################################################
#
# If this CIF has been generated from an entry in the Cambridge 
# Structural Database, then it will include bibliographic, chemical, 
# crystal, experimental, refinement or atomic coordinate data resulting 
# from the CCDC's data processing and validation procedures.
#
#######################################################################

data_LIMFUL
_chemical_formula_moiety         'C15 H17 N1 O1'
_chemical_name_systematic        
6,6-dimethyl-6,8,9,10-tetrahydrophenanthridin-7(5H)-one
_symmetry_cell_setting           monoclinic
_symmetry_space_group_name_H-M   'P 21/n'
_symmetry_Int_Tables_number      14
_space_group_name_Hall           '-P 2yn'
loop_
_symmetry_equiv_pos_site_id
_symmetry_equiv_pos_as_xyz
1 x,y,z
2 1/2-x,1/2+y,1/2-z
3 -x,-y,-z
4 1/2+x,1/2-y,1/2+z
_cell_length_a                   8.8038(8)
_cell_length_b                   12.8773(9)
_cell_length_c                   11.2318(10)
_cell_angle_alpha                90
_cell_angle_beta                 109.578(10)
_cell_angle_gamma                90
_cell_volume                     1199.72
_exptl_crystal_colour            orange
_exptl_crystal_description       block
_cell_formula_units_Z            4
_exptl_crystal_recrystallization_method 'diethyl ether'
loop_
_atom_site_label
_atom_site_type_symbol
_atom_site_fract_x
_atom_site_fract_y
_atom_site_fract_z
C1 C 0.34387(17) 0.09212(10) 0.52697(12)
H1 H 0.2509 0.0490 0.4853
H2 H 0.4323 0.0467 0.5721
C2 C 0.38951(16) 0.15240(10) 0.42834(12)
H3 H 0.2972 0.1915 0.3758
H4 H 0.4223 0.1047 0.3746
C3 C 0.52663(15) 0.22594(10) 0.49288(12)
H5 H 0.6233 0.1859 0.5343
H6 H 0.5476 0.2695 0.4296
C4 C 0.49014(13) 0.29417(9) 0.58938(10)
C5 C 0.37746(14) 0.26667(9) 0.64227(11)
C6 C 0.30511(14) 0.16219(9) 0.61996(11)
C7 C 0.58098(14) 0.39074(9) 0.62545(11)
C8 C 0.53013(14) 0.46219(9) 0.69953(11)
N1 N 0.39841(14) 0.44050(8) 0.73179(11)
H7 H 0.3634(19) 0.4877(12) 0.7716(15)
C9 C 0.33564(14) 0.33605(9) 0.73750(11)
C10 C 0.71295(15) 0.41660(10) 0.58832(12)
H8 H 0.7471 0.3701 0.5392
C11 C 0.79367(15) 0.50983(10) 0.62309(13)
H9 H 0.8816 0.5256 0.5981
C12 C 0.74223(15) 0.57950(10) 0.69544(12)
H10 H 0.7960 0.6424 0.7187
C13 C 0.61273(15) 0.55709(10) 0.73336(12)
H11 H 0.5795 0.6049 0.7816
C14 C 0.15290(15) 0.34923(11) 0.70443(13)
H12 H 0.1317 0.4021 0.7571
H13 H 0.1065 0.2848 0.7181
H14 H 0.1061 0.3691 0.6174
C15 C 0.41014(16) 0.29215(11) 0.87167(12)
H15 H 0.5248 0.2865 0.8923
H16 H 0.3656 0.2247 0.8758
H17 H 0.3865 0.3378 0.9308
O1 O 0.21947(12) 0.12934(7) 0.67825(9)
loop_
_geom_bond_atom_site_label_1
_geom_bond_atom_site_label_2
_geom_bond_site_symmetry_1
_geom_bond_site_symmetry_2
C1 H1 1_555 1_555
H2 C1 1_555 1_555
C2 C1 1_555 1_555
H3 C2 1_555 1_555
H4 C2 1_555 1_555
C3 C2 1_555 1_555
H5 C3 1_555 1_555
H6 C3 1_555 1_555
C4 C3 1_555 1_555
C5 C4 1_555 1_555
C6 C1 1_555 1_555
C7 C4 1_555 1_555
C8 C7 1_555 1_555
N1 C8 1_555 1_555
H7 N1 1_555 1_555
C9 C5 1_555 1_555
C10 C7 1_555 1_555
H8 C10 1_555 1_555
C11 C10 1_555 1_555
H9 C11 1_555 1_555
C12 C11 1_555 1_555
H10 C12 1_555 1_555
C13 C8 1_555 1_555
H11 C13 1_555 1_555
C14 C9 1_555 1_555
H12 C14 1_555 1_555
H13 C14 1_555 1_555
H14 C14 1_555 1_555
C15 C9 1_555 1_555
H15 C15 1_555 1_555
H16 C15 1_555 1_555
H17 C15 1_555 1_555
O1 C6 1_555 1_555
C5 C6 1_555 1_555
N1 C9 1_555 1_555
C12 C13 1_555 1_555

#END
