
#######################################################################
#
#                 Cambridge Crystallographic Data Centre
#                                CCDC 
#
#######################################################################
#
# If this CIF has been generated from an entry in the Cambridge 
# Structural Database, then it will include bibliographic, chemical, 
# crystal, experimental, refinement or atomic coordinate data resulting 
# from the CCDC's data processing and validation procedures.
#
#######################################################################

data_LIMFIZ
_chemical_formula_moiety         'C13 H15 N1 O1'
_chemical_name_systematic        
2'-amino-2-methyl-5,6-dihydro[1,1'-biphenyl]-3(4H)-one
_symmetry_cell_setting           monoclinic
_symmetry_space_group_name_H-M   'P 21/c'
_symmetry_Int_Tables_number      14
_space_group_name_Hall           '-P 2ybc'
loop_
_symmetry_equiv_pos_site_id
_symmetry_equiv_pos_as_xyz
1 x,y,z
2 -x,1/2+y,1/2-z
3 -x,-y,-z
4 x,1/2-y,1/2+z
_cell_length_a                   13.9326(3)
_cell_length_b                   31.3218(6)
_cell_length_c                   7.60130(10)
_cell_angle_alpha                90
_cell_angle_beta                 98.270(2)
_cell_angle_gamma                90
_cell_volume                     3282.67
_exptl_crystal_colour            colorless
_exptl_crystal_description       block
_cell_formula_units_Z            12
_exptl_crystal_recrystallization_method 'ethyl acetate/diethyl ether'
loop_
_atom_site_label
_atom_site_type_symbol
_atom_site_fract_x
_atom_site_fract_y
_atom_site_fract_z
C1 C 0.31891(17) 0.40175(9) 0.7835(3)
H1 H 0.3393 0.3785 0.8644
H2 H 0.3349 0.4283 0.8468
C2 C 0.2118(2) 0.39948(12) 0.7313(4)
H3 H 0.1891 0.4258 0.6722
H4 H 0.1809 0.3967 0.8372
C3 C 0.18279(16) 0.36224(8) 0.6087(3)
H5 H 0.1934 0.3358 0.6752
H6 H 0.1142 0.3643 0.5636
C4 C 0.24003(14) 0.36128(6) 0.4544(2)
C5 C 0.32662(13) 0.38059(6) 0.4608(2)
C6 C 0.37449(15) 0.39938(7) 0.6289(3)
C7 C 0.19439(14) 0.33660(6) 0.2960(2)
C8 C 0.38286(14) 0.38381(7) 0.3066(3)
H7 H 0.4404 0.3666 0.3299
H8 H 0.4006 0.4130 0.2909
H9 H 0.3435 0.3738 0.2006
O1 O 0.45893(11) 0.41097(6) 0.6427(2)
C9 C 0.10276(15) 0.34824(7) 0.2090(3)
H10 H 0.0718 0.3719 0.2486
C10 C 0.05693(17) 0.32517(8) 0.0647(3)
H11 H -0.0038 0.3334 0.0079
C11 C 0.10290(18) 0.28989(8) 0.0070(3)
H12 H 0.0732 0.2745 -0.0904
C12 C 0.19254(17) 0.27729(8) 0.0924(3)
H13 H 0.2220 0.2532 0.0529
C13 C 0.23977(15) 0.30024(7) 0.2376(3)
N1 N 0.32982(13) 0.28704(6) 0.3188(3)
H14 H 0.3379 0.2607 0.2926
H15 H 0.3740 0.3023 0.2811
C15 C 0.9893(4) 0.4613(2) 0.7534(9)
H22 H 1.0443 0.4667 0.8444
H23 H 1.0135 0.4575 0.6410
C16 C 0.9378(6) 0.42105(16) 0.7987(10)
H24 H 0.8883 0.4138 0.7001
H25 H 0.9841 0.3977 0.8149
C17 C 0.89152(17) 0.42585(7) 0.9639(3)
H26 H 0.9416 0.4269 1.0666
H27 H 0.8510 0.4012 0.9768
C18 C 0.83080(14) 0.46568(6) 0.9583(3)
C19 C 0.84345(14) 0.49876(6) 0.8510(2)
C20 C 0.92272(17) 0.49824(8) 0.7408(3)
C21 C 0.75501(14) 0.46706(6) 1.0791(3)
C22 C 0.78402(18) 0.53862(7) 0.8403(3)
H28 H 0.7345 0.5359 0.9153
H29 H 0.7544 0.5431 0.7197
H30 H 0.8250 0.5625 0.8789
O2 O 0.94355(15) 0.53035(6) 0.6640(2)
C23 C 0.78072(17) 0.47586(8) 1.2583(3)
H31 H 0.8459 0.4791 1.3039
C24 C 0.71122(19) 0.47991(8) 1.3717(3)
H32 H 0.7294 0.4867 1.4909
C25 C 0.61446(19) 0.47362(8) 1.3039(3)
H33 H 0.5673 0.4761 1.3783
C26 C 0.58784(16) 0.46374(8) 1.1275(3)
H34 H 0.5228 0.4590 1.0848
C27 C 0.65682(15) 0.46071(7) 1.0108(3)
N2 N 0.62905(17) 0.45372(9) 0.8330(3)
H35 H 0.675(3) 0.4479(11) 0.764(5)
H36 H 0.568(3) 0.4453(11) 0.800(5)
C30 C 0.52239(17) 0.32998(8) 1.0002(3)
H43 H 0.4762 0.3184 1.0717
H44 H 0.5121 0.3606 0.9913
C31 C 0.62482(18) 0.32140(8) 1.0933(3)
H45 H 0.6358 0.3372 1.2041
H46 H 0.6320 0.2912 1.1210
C32 C 0.69928(16) 0.33453(8) 0.9767(3)
H47 H 0.7041 0.3654 0.9765
H48 H 0.7621 0.3233 1.0272
C33 C 0.67523(14) 0.31908(6) 0.7880(2)
C34 C 0.58541(14) 0.30698(6) 0.7155(2)
C35 C 0.50345(15) 0.31076(6) 0.8171(3)
C36 C 0.7588(4) 0.3168(2) 0.6851(9)
C37 C 0.7708(4) 0.34728(19) 0.5571(8)
C38 C 0.8484(5) 0.34422(19) 0.4615(7)
H49 H 0.8565 0.3646 0.3759
C39 C 0.9140(4) 0.3107(2) 0.4939(8)
H50 H 0.9659 0.3087 0.4299
C40 C 0.9019(3) 0.2802(2) 0.6219(8)
H51 H 0.9458 0.2578 0.6435
C41 C 0.8243(4) 0.2833(2) 0.7175(8)
H52 H 0.8163 0.2629 0.8031
C42 C 0.56125(15) 0.29044(7) 0.5291(3)
H53 H 0.5188 0.2663 0.5282
H54 H 0.6198 0.2820 0.4857
H55 H 0.5297 0.3125 0.4542
O3 O 0.42151(10) 0.30014(5) 0.7511(2)
N3 N 0.7073(6) 0.3815(2) 0.5295(8)
H56 H 0.7056 0.3985 0.4246
H57 H 0.6415 0.3745 0.5194
H16? H 0.3647 0.3985 0.8914
H17? H 0.2916 0.4302 0.7855
C14? C 0.2436(9) 0.3723(4) 0.7896(14)
H18? H 0.2007 0.3833 0.8688
H19? H 0.2713 0.3458 0.8404
H20? H 0.1517 0.3347 0.6165
H21? H 0.1320 0.3835 0.5847
C28? C 0.9558(9) 0.4515(3) 0.6923(14)
H37? H 0.9046 0.4375 0.6134
H38? H 1.0132 0.4530 0.6339
C29? C 0.9774(8) 0.4275(3) 0.8655(14)
H39? H 0.9970 0.3986 0.8416
H40? H 1.0311 0.4412 0.9399
H41? H 0.9146 0.4192 1.0874
H42? H 0.8501 0.4025 0.9160
C43? C 0.7551(5) 0.3222(3) 0.6761(11)
C44? C 0.7493(5) 0.3528(3) 0.5422(10)
C45? C 0.8212(6) 0.3551(3) 0.4334(9)
H58? H 0.8174 0.3755 0.3439
C46? C 0.8990(4) 0.3268(4) 0.4587(9)
H59? H 0.9472 0.3284 0.3859
C47? C 0.9048(4) 0.2963(4) 0.5926(10)
H60? H 0.9569 0.2775 0.6094
C48? C 0.8328(6) 0.2940(3) 0.7013(11)
H61? H 0.8367 0.2736 0.7909
N4? N 0.6742(7) 0.3834(3) 0.5230(13)
H62? H 0.6459 0.3872 0.4025
H63? H 0.6124 0.3786 0.5701
loop_
_geom_bond_atom_site_label_1
_geom_bond_atom_site_label_2
_geom_bond_site_symmetry_1
_geom_bond_site_symmetry_2
C1 H1 1_555 1_555
H2 C1 1_555 1_555
C2 C1 1_555 1_555
H3 C2 1_555 1_555
H4 C2 1_555 1_555
C3 C2 1_555 1_555
H5 C3 1_555 1_555
H6 C3 1_555 1_555
C4 C3 1_555 1_555
C5 C4 1_555 1_555
C6 C1 1_555 1_555
C7 C4 1_555 1_555
C8 C5 1_555 1_555
H7 C8 1_555 1_555
H8 C8 1_555 1_555
H9 C8 1_555 1_555
O1 C6 1_555 1_555
C9 C7 1_555 1_555
H10 C9 1_555 1_555
C10 C9 1_555 1_555
H11 C10 1_555 1_555
C11 C10 1_555 1_555
H12 C11 1_555 1_555
C12 C11 1_555 1_555
H13 C12 1_555 1_555
C13 C7 1_555 1_555
N1 C13 1_555 1_555
H14 N1 1_555 1_555
H15 N1 1_555 1_555
C15 H22 1_555 1_555
H23 C15 1_555 1_555
C16 C15 1_555 1_555
H24 C16 1_555 1_555
H25 C16 1_555 1_555
C17 C16 1_555 1_555
H26 C17 1_555 1_555
H27 C17 1_555 1_555
C18 C17 1_555 1_555
C19 C18 1_555 1_555
C20 C15 1_555 1_555
C21 C18 1_555 1_555
C22 C19 1_555 1_555
H28 C22 1_555 1_555
H29 C22 1_555 1_555
H30 C22 1_555 1_555
O2 C20 1_555 1_555
C23 C21 1_555 1_555
H31 C23 1_555 1_555
C24 C23 1_555 1_555
H32 C24 1_555 1_555
C25 C24 1_555 1_555
H33 C25 1_555 1_555
C26 C25 1_555 1_555
H34 C26 1_555 1_555
C27 C21 1_555 1_555
N2 C27 1_555 1_555
H35 N2 1_555 1_555
H36 N2 1_555 1_555
C30 H43 1_555 1_555
H44 C30 1_555 1_555
C31 C30 1_555 1_555
H45 C31 1_555 1_555
H46 C31 1_555 1_555
C32 C31 1_555 1_555
H47 C32 1_555 1_555
H48 C32 1_555 1_555
C33 C32 1_555 1_555
C34 C33 1_555 1_555
C35 C30 1_555 1_555
C36 C33 1_555 1_555
C37 C36 1_555 1_555
C38 C37 1_555 1_555
H49 C38 1_555 1_555
C39 C38 1_555 1_555
H50 C39 1_555 1_555
C40 C39 1_555 1_555
H51 C40 1_555 1_555
C41 C36 1_555 1_555
H52 C41 1_555 1_555
C42 C34 1_555 1_555
H53 C42 1_555 1_555
H54 C42 1_555 1_555
H55 C42 1_555 1_555
O3 C35 1_555 1_555
N3 C37 1_555 1_555
H56 N3 1_555 1_555
H57 N3 1_555 1_555
C5 C6 1_555 1_555
C12 C13 1_555 1_555
C19 C20 1_555 1_555
C26 C27 1_555 1_555
C34 C35 1_555 1_555
C40 C41 1_555 1_555

#END
