
#######################################################################
#
#                 Cambridge Crystallographic Data Centre
#                                CCDC 
#
#######################################################################
#
# If this CIF has been generated from an entry in the Cambridge 
# Structural Database, then it will include bibliographic, chemical, 
# crystal, experimental, refinement or atomic coordinate data resulting 
# from the CCDC's data processing and validation procedures.
#
#######################################################################

data_LIMHUL
_chemical_formula_moiety         'C18 H13 Cl1 F3 N1 O3,0.5(C2 H6 O1)'
_chemical_name_systematic        
'(+)-4-(5-Chloro-2-hydroxyphenyl)-3-(2-hydroxyethyl)-6-(trifluoromethyl)quinolin-2(1H)-one ethanol solvate'
_chemical_properties_biological  
'activity on hSlo Maxi-K currents expressed in Xenopus laevis oocytes'
_symmetry_cell_setting           orthorhombic
_symmetry_space_group_name_H-M   'P 21 21 21'
_symmetry_Int_Tables_number      19
_space_group_name_Hall           'P 2ac 2ab'
loop_
_symmetry_equiv_pos_site_id
_symmetry_equiv_pos_as_xyz
1 x,y,z
2 1/2-x,-y,1/2+z
3 -x,1/2+y,1/2-z
4 1/2+x,1/2-y,-z
_cell_length_a                   8.3527(2)
_cell_length_b                   19.5473(3)
_cell_length_c                   22.9783(4)
_cell_angle_alpha                90
_cell_angle_beta                 90
_cell_angle_gamma                90
_cell_volume                     3751.73
_exptl_crystal_colour            colorless
_exptl_crystal_description       needle
_cell_formula_units_Z            8
_exptl_crystal_recrystallization_method ethanol/water
loop_
_atom_site_label
_atom_site_type_symbol
_atom_site_fract_x
_atom_site_fract_y
_atom_site_fract_z
Cl1 Cl -0.0859(2) -0.31630(8) 0.46821(10)
O1 O 0.2424(5) 0.0180(2) 0.35529(15)
H1 H 0.2192 -0.0164 0.3342
O2 O 0.3661(4) 0.02859(19) 0.53607(14)
O3 O -0.2387(5) -0.02435(17) 0.44643(16)
H2 H -0.2946 -0.0183 0.4159
N1 N 0.1627(5) 0.0226(2) 0.60033(16)
H3 H 0.2178 0.0500 0.6246
C1 C 0.0150(6) -0.0004(2) 0.61827(18)
C2 C -0.0446(6) 0.0197(2) 0.6724(2)
H4 H 0.0146 0.0490 0.6960
C3 C -0.1895(6) -0.0037(3) 0.6905(2)
H5 H -0.2287 0.0096 0.7267
C4 C -0.2805(6) -0.0475(2) 0.6556(2)
C5 C -0.2206(5) -0.0669(2) 0.60210(19)
H6 H -0.2814 -0.0959 0.5789
C6 C -0.0721(5) -0.0447(2) 0.58154(17)
C7 C -0.0019(5) -0.0626(2) 0.52591(18)
C8 C 0.1398(6) -0.0361(2) 0.50841(18)
C9 C 0.2311(6) 0.0071(2) 0.54817(19)
C10 C -0.4370(7) -0.0754(3) 0.6766(3)
F1 F -0.5512(5) -0.0679(3) 0.6387(2)
F2 F -0.4272(6) -0.1397(3) 0.6914(4)
F3 F -0.4858(7) -0.0430(5) 0.7252(3)
C11 C 0.2089(6) -0.0456(2) 0.4486(2)
H7 H 0.1642 -0.0864 0.4308
H8 H 0.3241 -0.0512 0.4511
C12 C 0.1682(7) 0.0173(3) 0.4119(2)
H9 H 0.0530 0.0196 0.4069
H10 H 0.2012 0.0580 0.4329
C13 C -0.0906(5) -0.1128(2) 0.48875(18)
C14 C -0.2072(5) -0.0929(2) 0.44911(19)
C15 C -0.2807(6) -0.1412(3) 0.4148(2)
H11 H -0.3569 -0.1277 0.3876
C16 C -0.2425(6) -0.2089(3) 0.4202(2)
H12 H -0.2922 -0.2411 0.3965
C17 C -0.1322(6) -0.2295(3) 0.4601(2)
C18 C -0.0551(6) -0.1822(2) 0.4941(2)
H13 H 0.0215 -0.1964 0.5209
Cl2 Cl 1.12392(17) 0.23238(10) 0.84871(6)
O4 O 0.3605(7) 0.0878(2) 0.79176(17)
H14 H 0.3461 0.0794 0.7558
O5 O 0.3361(4) 0.10465(18) 0.67648(14)
O6 O 0.6744(5) 0.34108(19) 0.67677(16)
H15 H 0.7032 0.3825 0.6728
N2 N 0.5412(5) 0.10925(19) 0.61307(15)
H16 H 0.4870 0.0803 0.5899
C19 C 0.6880(5) 0.1311(2) 0.59433(18)
C20 C 0.7503(6) 0.1069(2) 0.54163(19)
H17 H 0.6938 0.0749 0.5198
C21 C 0.8930(6) 0.1305(2) 0.52276(19)
H18 H 0.9349 0.1147 0.4877
C22 C 0.9773(6) 0.1779(2) 0.5552(2)
C23 C 0.9217(6) 0.2002(2) 0.6079(2)
H19 H 0.9820 0.2310 0.6296
C24 C 0.7751(5) 0.1770(2) 0.62917(18)
C25 C 0.7056(6) 0.1983(2) 0.68395(19)
C26 C 0.5606(6) 0.1739(2) 0.70120(19)
C27 C 0.4716(6) 0.1280(2) 0.66351(18)
C28 C 1.1291(8) 0.2070(3) 0.5314(3)
F7 F 1.181(2) 0.1820(12) 0.4840(7)
F8 F 1.120(2) 0.2741(5) 0.5239(12)
F9 F 1.2491(13) 0.2022(13) 0.5708(7)
C29 C 0.4804(7) 0.1941(3) 0.7576(2)
H20 H 0.5355 0.2336 0.7736
H21 H 0.3711 0.2077 0.7494
C30 C 0.4779(8) 0.1384(3) 0.8030(2)
H22 H 0.5824 0.1168 0.8044
H23 H 0.4574 0.1586 0.8408
C31 C 0.7993(5) 0.2467(2) 0.72193(17)
C32 C 0.7768(6) 0.3164(2) 0.71803(18)
C33 C 0.8579(7) 0.3600(3) 0.7554(2)
H24 H 0.8402 0.4070 0.7536
C34 C 0.9636(6) 0.3339(3) 0.7947(2)
H25 H 1.0174 0.3633 0.8198
C35 C 0.9919(6) 0.2643(3) 0.79777(19)
C36 C 0.9097(6) 0.2199(2) 0.76156(19)
H26 H 0.9277 0.1730 0.7636
O7 O 0.5822(6) 0.0226(3) 0.3590(2)
H27 H 0.4806 0.0222 0.3568
C37 C 0.6042(11) 0.1003(5) 0.3701(4)
H28 H 0.5199 0.1261 0.3511
H29 H 0.6015 0.1100 0.4114
C38 C 0.7491(16) 0.1169(7) 0.3474(5)
H30 H 0.7692 0.1647 0.3534
H31 H 0.7496 0.1072 0.3064
H32 H 0.8310 0.0905 0.3662
F4? F -0.443(3) -0.094(2) 0.7287(13)
F5? F -0.538(4) -0.0314(16) 0.682(2)
F6? F -0.485(4) -0.135(2) 0.6484(15)
F10? F 1.214(2) 0.2468(14) 0.5656(8)
F11? F 1.2365(19) 0.1584(5) 0.5188(13)
F12? F 1.1124(16) 0.2418(15) 0.4850(10)
loop_
_geom_bond_atom_site_label_1
_geom_bond_atom_site_label_2
_geom_bond_site_symmetry_1
_geom_bond_site_symmetry_2
Cl1 C17 1_555 1_555
O1 H1 1_555 1_555
O2 C9 1_555 1_555
O3 H2 1_555 1_555
N1 H3 1_555 1_555
C1 N1 1_555 1_555
C2 C1 1_555 1_555
H4 C2 1_555 1_555
C3 C2 1_555 1_555
H5 C3 1_555 1_555
C4 C3 1_555 1_555
C5 C4 1_555 1_555
H6 C5 1_555 1_555
C6 C1 1_555 1_555
C7 C6 1_555 1_555
C8 C7 1_555 1_555
C9 N1 1_555 1_555
C10 C4 1_555 1_555
F1 C10 1_555 1_555
F2 C10 1_555 1_555
F3 C10 1_555 1_555
C11 C8 1_555 1_555
H7 C11 1_555 1_555
H8 C11 1_555 1_555
C12 O1 1_555 1_555
H9 C12 1_555 1_555
H10 C12 1_555 1_555
C13 C7 1_555 1_555
C14 O3 1_555 1_555
C15 C14 1_555 1_555
H11 C15 1_555 1_555
C16 C15 1_555 1_555
H12 C16 1_555 1_555
C17 C16 1_555 1_555
C18 C13 1_555 1_555
H13 C18 1_555 1_555
Cl2 C35 1_555 1_555
O4 H14 1_555 1_555
O5 C27 1_555 1_555
O6 H15 1_555 1_555
N2 H16 1_555 1_555
C19 N2 1_555 1_555
C20 C19 1_555 1_555
H17 C20 1_555 1_555
C21 C20 1_555 1_555
H18 C21 1_555 1_555
C22 C21 1_555 1_555
C23 C22 1_555 1_555
H19 C23 1_555 1_555
C24 C19 1_555 1_555
C25 C24 1_555 1_555
C26 C25 1_555 1_555
C27 N2 1_555 1_555
C28 C22 1_555 1_555
F7 C28 1_555 1_555
F8 C28 1_555 1_555
F9 C28 1_555 1_555
C29 C26 1_555 1_555
H20 C29 1_555 1_555
H21 C29 1_555 1_555
C30 O4 1_555 1_555
H22 C30 1_555 1_555
H23 C30 1_555 1_555
C31 C25 1_555 1_555
C32 O6 1_555 1_555
C33 C32 1_555 1_555
H24 C33 1_555 1_555
C34 C33 1_555 1_555
H25 C34 1_555 1_555
C35 C34 1_555 1_555
C36 C31 1_555 1_555
H26 C36 1_555 1_555
O7 H27 1_555 1_555
C37 O7 1_555 1_555
H28 C37 1_555 1_555
H29 C37 1_555 1_555
C38 C37 1_555 1_555
H30 C38 1_555 1_555
H31 C38 1_555 1_555
H32 C38 1_555 1_555
C5 C6 1_555 1_555
C8 C9 1_555 1_555
C11 C12 1_555 1_555
C13 C14 1_555 1_555
C17 C18 1_555 1_555
C23 C24 1_555 1_555
C26 C27 1_555 1_555
C29 C30 1_555 1_555
C31 C32 1_555 1_555
C35 C36 1_555 1_555

#END
