
#######################################################################
#
#                 Cambridge Crystallographic Data Centre
#                                CCDC 
#
#######################################################################
#
# If this CIF has been generated from an entry in the Cambridge 
# Structural Database, then it will include bibliographic, chemical, 
# crystal, experimental, refinement or atomic coordinate data resulting 
# from the CCDC's data processing and validation procedures.
#
#######################################################################

data_LIMJEW
_chemical_formula_moiety         'C19 H32 O2'
_chemical_name_systematic        
6-n-Butyl-1,5,5-trimethylbicyclo(6.4.0)dodeca-3,8-diene-6,7-diol
_symmetry_cell_setting           monoclinic
_symmetry_space_group_name_H-M   'P 21/c'
_symmetry_Int_Tables_number      14
_space_group_name_Hall           '-P 2ybc'
loop_
_symmetry_equiv_pos_site_id
_symmetry_equiv_pos_as_xyz
1 x,y,z
2 -x,1/2+y,1/2-z
3 -x,-y,-z
4 x,1/2-y,1/2+z
_cell_length_a                   8.7890(3)
_cell_length_b                   20.7820(3)
_cell_length_c                   9.9300(8)
_cell_angle_alpha                90
_cell_angle_beta                 107.7280(16)
_cell_angle_gamma                90
_cell_volume                     1727.61
_exptl_crystal_colour            colorless
_exptl_crystal_description       cube
_cell_formula_units_Z            4
loop_
_atom_site_label
_atom_site_type_symbol
_atom_site_fract_x
_atom_site_fract_y
_atom_site_fract_z
C1 C 0.30242(14) 0.15446(5) 0.52735(12)
C2 C 0.27393(14) 0.17552(5) 0.36886(12)
H1 H 0.1560 0.1757 0.3213
C3 C 0.34992(14) 0.13586(5) 0.27655(12)
C4 C 0.50446(15) 0.14354(6) 0.28950(12)
H2 H 0.5643 0.1710 0.3631
C5 C 0.59238(16) 0.11269(7) 0.19821(14)
H3 H 0.6584 0.0768 0.2506
H4 H 0.6648 0.1446 0.1760
C6 C 0.47733(17) 0.08728(7) 0.06128(14)
H5 H 0.4328 0.1235 -0.0033
H6 H 0.5347 0.0583 0.0140
C7 C 0.34298(16) 0.05076(6) 0.09400(14)
H7 H 0.3893 0.0152 0.1602
H8 H 0.2731 0.0315 0.0056
C8 C 0.24105(14) 0.09359(6) 0.15957(12)
C9 C 0.13311(15) 0.04943(6) 0.21725(13)
H9 H 0.0480 0.0758 0.2361
H10 H 0.0811 0.0174 0.1440
C10 C 0.22254(16) 0.01486(6) 0.34983(14)
H11 H 0.2637 -0.0263 0.3382
C11 C 0.25092(15) 0.03532(6) 0.48216(13)
H12 H 0.3171 0.0077 0.5520
C12 C 0.19483(15) 0.09568(6) 0.54031(12)
C13 C 0.47930(14) 0.14109(6) 0.60746(12)
H13 H 0.4841 0.1187 0.6967
H14 H 0.5209 0.1109 0.5500
C14 C 0.59201(14) 0.19884(6) 0.64395(13)
H15 H 0.5900 0.2217 0.5560
H16 H 0.5547 0.2291 0.7042
C15 C 0.76195(16) 0.17804(7) 0.72102(17)
H17 H 0.7968 0.1463 0.6622
H18 H 0.7639 0.1566 0.8105
C16 C 0.87904(18) 0.23392(8) 0.7539(2)
H19 H 0.8759 0.2560 0.6659
H20 H 0.9872 0.2176 0.7994
H21 H 0.8496 0.2641 0.8176
C17 C 0.13035(16) 0.13584(6) 0.04330(13)
H22 H 0.0739 0.1665 0.0861
H23 H 0.0525 0.1085 -0.0243
H24 H 0.1941 0.1594 -0.0060
C18 C 0.01533(15) 0.11061(7) 0.47358(14)
H25 H -0.0039 0.1254 0.3761
H26 H -0.0167 0.1443 0.5286
H27 H -0.0472 0.0716 0.4737
C19 C 0.21176(18) 0.08205(7) 0.69746(14)
H28 H 0.1338 0.0493 0.7034
H29 H 0.1922 0.1217 0.7429
H30 H 0.3199 0.0665 0.7456
O1 O 0.24768(10) 0.20784(4) 0.59424(9)
H31 H 0.2606 0.2424 0.5553
O2 O 0.32776(10) 0.24153(4) 0.37805(8)
H32 H 0.3043 0.2574 0.2965
loop_
_geom_bond_atom_site_label_1
_geom_bond_atom_site_label_2
_geom_bond_site_symmetry_1
_geom_bond_site_symmetry_2
C1 C2 1_555 1_555
C2 H1 1_555 1_555
C3 C2 1_555 1_555
C4 C3 1_555 1_555
H2 C4 1_555 1_555
C5 C4 1_555 1_555
H3 C5 1_555 1_555
H4 C5 1_555 1_555
C6 C5 1_555 1_555
H5 C6 1_555 1_555
H6 C6 1_555 1_555
C7 C6 1_555 1_555
H7 C7 1_555 1_555
H8 C7 1_555 1_555
C8 C3 1_555 1_555
C9 C8 1_555 1_555
H9 C9 1_555 1_555
H10 C9 1_555 1_555
C10 C9 1_555 1_555
H11 C10 1_555 1_555
C11 C10 1_555 1_555
H12 C11 1_555 1_555
C12 C1 1_555 1_555
C13 C1 1_555 1_555
H13 C13 1_555 1_555
H14 C13 1_555 1_555
C14 C13 1_555 1_555
H15 C14 1_555 1_555
H16 C14 1_555 1_555
C15 C14 1_555 1_555
H17 C15 1_555 1_555
H18 C15 1_555 1_555
C16 C15 1_555 1_555
H19 C16 1_555 1_555
H20 C16 1_555 1_555
H21 C16 1_555 1_555
C17 C8 1_555 1_555
H22 C17 1_555 1_555
H23 C17 1_555 1_555
H24 C17 1_555 1_555
C18 C12 1_555 1_555
H25 C18 1_555 1_555
H26 C18 1_555 1_555
H27 C18 1_555 1_555
C19 C12 1_555 1_555
H28 C19 1_555 1_555
H29 C19 1_555 1_555
H30 C19 1_555 1_555
O1 C1 1_555 1_555
H31 O1 1_555 1_555
O2 C2 1_555 1_555
H32 O2 1_555 1_555
C7 C8 1_555 1_555
C11 C12 1_555 1_555

#END
