
#######################################################################
#
#                 Cambridge Crystallographic Data Centre
#                                CCDC 
#
#######################################################################
#
# If this CIF has been generated from an entry in the Cambridge 
# Structural Database, then it will include bibliographic, chemical, 
# crystal, experimental, refinement or atomic coordinate data resulting 
# from the CCDC's data processing and validation procedures.
#
#######################################################################

data_LIMJUP
_chemical_formula_moiety         'C16 H19 N1 O1'
_chemical_name_systematic        
6-ethyl-6-methyl-6,8,9,10-tetrahydrophenanthridin-7(5H)-one
_symmetry_cell_setting           monoclinic
_symmetry_space_group_name_H-M   'P 21/n'
_symmetry_Int_Tables_number      14
_space_group_name_Hall           '-P 2yn'
loop_
_symmetry_equiv_pos_site_id
_symmetry_equiv_pos_as_xyz
1 x,y,z
2 1/2-x,1/2+y,1/2-z
3 -x,-y,-z
4 1/2+x,1/2-y,1/2+z
_cell_length_a                   9.3856(3)
_cell_length_b                   12.2110(3)
_cell_length_c                   12.1822(4)
_cell_angle_alpha                90
_cell_angle_beta                 108.645(4)
_cell_angle_gamma                90
_cell_volume                     1322.9
_exptl_crystal_colour            orange
_exptl_crystal_description       plate
_cell_formula_units_Z            4
loop_
_atom_site_label
_atom_site_type_symbol
_atom_site_fract_x
_atom_site_fract_y
_atom_site_fract_z
C1 C 0.3449(4) 0.90489(19) 0.5213(2)
H1 H 0.4288 0.9515 0.5620
H2 H 0.2615 0.9517 0.4800
C2 C 0.3890(3) 0.8346(2) 0.4354(2)
H3 H 0.3028 0.7926 0.3895
H4 H 0.4220 0.8808 0.3834
C3 C 0.5137(3) 0.7582(2) 0.4988(2)
H5 H 0.6055 0.8001 0.5306
H6 H 0.5302 0.7059 0.4441
C4 C 0.4818(2) 0.69670(17) 0.59562(18)
C5 C 0.3734(2) 0.72981(15) 0.64001(19)
C6 C 0.3002(3) 0.83688(17) 0.6075(2)
O1 O 0.2106(2) 0.87388(14) 0.65193(19)
C7 C 0.5716(2) 0.59932(18) 0.63986(19)
C8 C 0.6992(3) 0.5699(3) 0.6114(3)
H7 H 0.7312 0.6144 0.5618
C9 C 0.7790(4) 0.4759(3) 0.6557(3)
H8 H 0.8638 0.4577 0.6359
C10 C 0.7330(3) 0.4089(2) 0.7294(3)
H9 H 0.7868 0.3455 0.7587
C11 C 0.6094(3) 0.43518(19) 0.7593(2)
H10 H 0.5786 0.3893 0.8083
C12 C 0.5280(3) 0.53128(17) 0.7164(2)
C13 C 0.3357(3) 0.66440(18) 0.7341(2)
C14 C 0.4129(4) 0.7254(3) 0.8538(3)
H11 H 0.3896 0.6874 0.9149
H12 H 0.3761 0.7992 0.8491
H13 H 0.5200 0.7265 0.8699
C15 C 0.1110(7) 0.5945(6) 0.6118(6)
H14 H 0.1149 0.6400 0.5486
H15 H 0.0083 0.5755 0.6019
H16 H 0.1682 0.5290 0.6135
C16 C 0.1693(4) 0.6496(3) 0.7127(4)
N1 N 0.4188(19) 0.5621(12) 0.764(3)
H17 H 0.387(7) 0.520(5) 0.812(6)
N2? N 0.385(2) 0.5525(7) 0.719(3)
H18? H 0.348(8) 0.506(6) 0.749(7)
H19? H 0.1252 0.7187 0.7212
H20? H 0.1227 0.6223 0.6356
H21? H 0.1541 0.5983 0.7677
C17? C 0.3843(7) 0.6618(5) 0.9421(5)
H22? H 0.2778 0.6564 0.9273
H23? H 0.4301 0.6962 1.0159
H24? H 0.4257 0.5898 0.9429
loop_
_geom_bond_atom_site_label_1
_geom_bond_atom_site_label_2
_geom_bond_site_symmetry_1
_geom_bond_site_symmetry_2
C1 H1 1_555 1_555
H2 C1 1_555 1_555
C2 C1 1_555 1_555
H3 C2 1_555 1_555
H4 C2 1_555 1_555
C3 C2 1_555 1_555
H5 C3 1_555 1_555
H6 C3 1_555 1_555
C4 C3 1_555 1_555
C5 C4 1_555 1_555
C6 C1 1_555 1_555
O1 C6 1_555 1_555
C7 C4 1_555 1_555
C8 C7 1_555 1_555
H7 C8 1_555 1_555
C9 C8 1_555 1_555
H8 C9 1_555 1_555
C10 C9 1_555 1_555
H9 C10 1_555 1_555
C11 C10 1_555 1_555
H10 C11 1_555 1_555
C12 C7 1_555 1_555
C13 C5 1_555 1_555
C14 C13 1_555 1_555
H11 C14 1_555 1_555
H12 C14 1_555 1_555
H13 C14 1_555 1_555
C15 H14 1_555 1_555
H15 C15 1_555 1_555
H16 C15 1_555 1_555
C16 C13 1_555 1_555
N1 C12 1_555 1_555
H17 N1 1_555 1_555
C5 C6 1_555 1_555
C11 C12 1_555 1_555
C13 N1 1_555 1_555
C15 C16 1_555 1_555

#END
