
#######################################################################
#
#                 Cambridge Crystallographic Data Centre
#                                CCDC 
#
#######################################################################
#
# If this CIF has been generated from an entry in the Cambridge 
# Structural Database, then it will include bibliographic, chemical, 
# crystal, experimental, refinement or atomic coordinate data resulting 
# from the CCDC's data processing and validation procedures.
#
#######################################################################

data_LIMJEZ
_chemical_formula_moiety         'C30 H28 B1 N1'
_chemical_name_systematic        
(4-ethynyl-2,6-dimethylphenyl)-[2-(pyridin-2-yl)phenyl]-(2,4,6-trimethylphenyl)-borate
_symmetry_cell_setting           monoclinic
_symmetry_space_group_name_H-M   'P 21/c'
_symmetry_Int_Tables_number      14
_space_group_name_Hall           '-P 2ybc'
loop_
_symmetry_equiv_pos_site_id
_symmetry_equiv_pos_as_xyz
1 x,y,z
2 -x,1/2+y,1/2-z
3 -x,-y,-z
4 x,1/2-y,1/2+z
_cell_length_a                   11.7753(4)
_cell_length_b                   14.8277(4)
_cell_length_c                   14.2674(4)
_cell_angle_alpha                90
_cell_angle_beta                 110.8920(10)
_cell_angle_gamma                90
_cell_volume                     2327.32
_exptl_crystal_colour            colorless
_exptl_crystal_description       Block
_cell_formula_units_Z            4
loop_
_atom_site_label
_atom_site_type_symbol
_atom_site_fract_x
_atom_site_fract_y
_atom_site_fract_z
C1 C 0.67740(11) 0.55785(9) 0.21044(10)
B1 B 0.65533(14) 0.64439(10) 0.27316(11)
N1 N 0.71220(11) 0.59616(8) 0.38328(9)
C2 C 0.64214(14) 0.54360(10) 0.10851(11)
H1 H 0.6029 0.5908 0.0636
C3 C 0.66271(15) 0.46203(11) 0.07047(12)
H2 H 0.6387 0.4539 0.0000
C4 C 0.71830(15) 0.39200(11) 0.13497(13)
H3 H 0.7330 0.3361 0.1088
C5 C 0.75214(15) 0.40368(10) 0.23715(12)
H4 H 0.7894 0.3560 0.2821
C6 C 0.73062(13) 0.48679(9) 0.27325(11)
C7 C 0.74116(12) 0.73515(9) 0.28969(10)
C8 C 0.73027(14) 0.63190(11) 0.47570(11)
H5 H 0.7020 0.6911 0.4804
C9 C 0.78856(16) 0.58399(12) 0.56203(12)
H6 H 0.7979 0.6091 0.6256
C10 C 0.83374(17) 0.49866(13) 0.55568(12)
H7 H 0.8747 0.4654 0.6151
C11 C 0.81942(15) 0.46209(11) 0.46354(12)
H8 H 0.8512 0.4041 0.4586
C12 C 0.75721(13) 0.51193(9) 0.37752(11)
C13 C 0.70847(13) 0.81592(9) 0.32733(10)
C14 C 0.78607(14) 0.89061(10) 0.35061(11)
H9 H 0.7615 0.9435 0.3758
C15 C 0.89732(14) 0.89011(10) 0.33827(11)
C16 C 0.93009(13) 0.81176(10) 0.30183(11)
H10 H 1.0058 0.8099 0.2922
C17 C 0.85638(13) 0.73548(9) 0.27868(11)
C18 C 0.58929(14) 0.82957(11) 0.34431(12)
H11 H 0.5261 0.8481 0.2813
H12 H 0.5997 0.8765 0.3951
H13 H 0.5653 0.7730 0.3675
C19 C 0.98215(16) 0.96995(12) 0.36584(15)
H14 H 1.0098 0.9838 0.3103
H15 H 1.0525 0.9557 0.4260
H16 H 0.9393 1.0223 0.3792
C20 C 0.90764(15) 0.65430(11) 0.24366(15)
H17 H 0.8550 0.6386 0.1752
H18 H 0.9118 0.6033 0.2884
H19 H 0.9894 0.6683 0.2446
C21 C 0.50824(13) 0.66047(9) 0.22484(10)
C22 C 0.45540(15) 0.54656(11) 0.34013(13)
H20 H 0.3816 0.5168 0.3413
H21 H 0.4969 0.5761 0.4048
H22 H 0.5096 0.5016 0.3280
C23 C 0.02362(16) 0.73130(13) 0.04643(15)
H23 H -0.0600 0.7459 0.0149
C24 C 0.12591(14) 0.71339(11) 0.08507(12)
C25 C 0.53954(14) 0.76710(10) 0.09212(11)
H24 H 0.4954 0.7722 0.0197
H25 H 0.6150 0.7333 0.1044
H26 H 0.5588 0.8275 0.1213
C26 C 0.42158(13) 0.61639(9) 0.25719(11)
C27 C 0.29786(13) 0.63475(10) 0.21190(12)
H27 H 0.2422 0.6060 0.2367
C28 C 0.25357(13) 0.69393(10) 0.13153(11)
C29 C 0.33708(13) 0.73400(9) 0.09563(11)
H28 H 0.3085 0.7732 0.0394
C30 C 0.46114(13) 0.71795(9) 0.14007(10)
loop_
_geom_bond_atom_site_label_1
_geom_bond_atom_site_label_2
_geom_bond_site_symmetry_1
_geom_bond_site_symmetry_2
C1 B1 1_555 1_555
B1 N1 1_555 1_555
N1 C8 1_555 1_555
C2 C1 1_555 1_555
H1 C2 1_555 1_555
C3 C2 1_555 1_555
H2 C3 1_555 1_555
C4 C3 1_555 1_555
H3 C4 1_555 1_555
C5 C4 1_555 1_555
H4 C5 1_555 1_555
C6 C1 1_555 1_555
C7 B1 1_555 1_555
C8 H5 1_555 1_555
C9 C8 1_555 1_555
H6 C9 1_555 1_555
C10 C9 1_555 1_555
H7 C10 1_555 1_555
C11 C10 1_555 1_555
H8 C11 1_555 1_555
C12 N1 1_555 1_555
C13 C7 1_555 1_555
C14 C13 1_555 1_555
H9 C14 1_555 1_555
C15 C14 1_555 1_555
C16 C15 1_555 1_555
H10 C16 1_555 1_555
C17 C7 1_555 1_555
C18 C13 1_555 1_555
H11 C18 1_555 1_555
H12 C18 1_555 1_555
H13 C18 1_555 1_555
C19 C15 1_555 1_555
H14 C19 1_555 1_555
H15 C19 1_555 1_555
H16 C19 1_555 1_555
C20 C17 1_555 1_555
H17 C20 1_555 1_555
H18 C20 1_555 1_555
H19 C20 1_555 1_555
C21 B1 1_555 1_555
C22 H20 1_555 1_555
H21 C22 1_555 1_555
H22 C22 1_555 1_555
C23 H23 1_555 1_555
C24 C23 1_555 1_555
C25 H24 1_555 1_555
H25 C25 1_555 1_555
H26 C25 1_555 1_555
C26 C21 1_555 1_555
C27 C26 1_555 1_555
H27 C27 1_555 1_555
C28 C24 1_555 1_555
C29 C28 1_555 1_555
H28 C29 1_555 1_555
C30 C21 1_555 1_555
C5 C6 1_555 1_555
C6 C12 1_555 1_555
C11 C12 1_555 1_555
C16 C17 1_555 1_555
C22 C26 1_555 1_555
C25 C30 1_555 1_555
C27 C28 1_555 1_555
C29 C30 1_555 1_555

#END
