
#######################################################################
#
#                 Cambridge Crystallographic Data Centre
#                                CCDC 
#
#######################################################################
#
# If this CIF has been generated from an entry in the Cambridge 
# Structural Database, then it will include bibliographic, chemical, 
# crystal, experimental, refinement or atomic coordinate data resulting 
# from the CCDC's data processing and validation procedures.
#
#######################################################################

data_LIMKAW
_chemical_formula_moiety         'C35 H31 N3 O4'
_chemical_name_systematic        
"ethyl 1,5'-dibenzyl-2,2''-dioxo-1,1'',2,2''-tetrahydrodispiro[indole-3,2'-pyrrolidine-3',3''-indole]-4'-carboxylate unknown solvate"
_symmetry_cell_setting           monoclinic
_symmetry_space_group_name_H-M   'P 21/c'
_symmetry_Int_Tables_number      14
_space_group_name_Hall           '-P 2ybc'
loop_
_symmetry_equiv_pos_site_id
_symmetry_equiv_pos_as_xyz
1 x,y,z
2 -x,1/2+y,1/2-z
3 -x,-y,-z
4 x,1/2-y,1/2+z
_cell_length_a                   12.4477(12)
_cell_length_b                   18.7622(19)
_cell_length_c                   15.0881(17)
_cell_angle_alpha                90
_cell_angle_beta                 112.767(3)
_cell_angle_gamma                90
_cell_volume                     3249.22
_exptl_crystal_colour            colorless
_exptl_crystal_description       cube
_cell_formula_units_Z            4
loop_
_atom_site_label
_atom_site_type_symbol
_atom_site_fract_x
_atom_site_fract_y
_atom_site_fract_z
O1 O 0.01856(14) 0.32454(9) 0.94682(11)
O2 O -0.21855(15) 0.29956(10) 1.17014(13)
N1 N -0.18801(15) 0.36948(10) 0.98876(13)
H1 H -0.2267 0.4086 0.9807
N2 N 0.08881(15) 0.41524(9) 1.05371(13)
N3 N -0.03951(17) 0.25144(11) 1.25718(14)
H2 H -0.0427 0.2513 1.3131
C1 C -0.03082(19) 0.41230(11) 1.13680(15)
C2 C 0.01579(18) 0.36009(11) 1.01259(14)
C3 C -0.08073(18) 0.27415(11) 1.09459(15)
C4 C -0.12355(19) 0.27741(12) 1.17782(16)
C5 C 0.03374(19) 0.23502(11) 1.14117(16)
C6 C -0.07228(17) 0.35410(11) 1.06226(14)
O3 O -0.16402(19) 0.11847(10) 1.00917(15)
C7 C 0.06211(18) 0.44756(11) 1.12668(14)
O4 O -0.1115(2) 0.17488(10) 0.90217(16)
C8 C -0.22377(19) 0.30368(12) 0.93171(16)
H3 H -0.1817 0.3010 0.8887
C9 C 0.28940(19) 0.40563(12) 1.05611(17)
C10 C 0.0539(2) 0.22471(12) 1.23796(17)
C11 C -0.1812(2) 0.24230(12) 1.00484(17)
H4 H -0.2452 0.2295 1.0244
C12 C 0.17226(19) 0.44132(12) 1.01576(17)
H5 H 0.1831 0.4920 1.0285
H6 H 0.1396 0.4350 0.9466
C13 C -0.0756(2) 0.43920(13) 1.20086(17)
H7 H -0.1384 0.4171 1.2084
C14 C 0.1139(2) 0.20977(13) 1.10620(18)
H8 H 0.1015 0.2155 1.0417
C15 C 0.1135(2) 0.50745(13) 1.17991(18)
H9 H 0.1765 0.5298 1.1730
C16 C -0.1479(2) 0.17664(13) 0.96473(17)
C17 C -0.0253(3) 0.49973(15) 1.25374(19)
H10 H -0.0552 0.5181 1.2967
C18 C -0.3855(2) 0.35938(14) 0.79310(19)
C19 C 0.1536(2) 0.19106(15) 1.3011(2)
H11 H 0.1662 0.1849 1.3655
C20 C -0.3539(2) 0.30345(15) 0.8703(2)
H12 H -0.3763 0.2569 0.8408
H13 H -0.3968 0.3120 0.9109
C21 C 0.2135(2) 0.17570(14) 1.1689(2)
H14 H 0.2679 0.1584 1.1460
C22 C -0.4368(3) 0.42303(19) 0.8019(3)
H15 H -0.4571 0.4304 0.8544
C23 C 0.2329(2) 0.16726(15) 1.2649(2)
H16 H 0.3008 0.1451 1.3057
C24 C 0.5084(3) 0.3432(3) 1.1255(4)
H17 H 0.5820 0.3224 1.1489
C25 C 0.3176(2) 0.35374(16) 1.1250(2)
H18 H 0.2625 0.3390 1.1487
C26 C 0.3720(3) 0.42580(19) 1.0209(2)
H19 H 0.3546 0.4606 0.9735
C27 C -0.3578(3) 0.35048(18) 0.7138(2)
H20 H -0.3236 0.3081 0.7061
C28 C -0.4301(4) 0.4652(3) 0.6558(3)
H21 H -0.4454 0.5007 0.6095
C29 C -0.4581(4) 0.4757(2) 0.7330(3)
H22 H -0.4919 0.5185 0.7398
C30 C -0.1377(4) 0.05097(16) 0.9742(3)
H23 H -0.0729 0.0572 0.9544
H24 H -0.1153 0.0159 1.0255
C31 C 0.4272(3) 0.3230(2) 1.1600(3)
H25 H 0.4453 0.2882 1.2075
C32 C 0.4810(3) 0.3940(3) 1.0566(4)
H26 H 0.5364 0.4078 1.0327
C33 C -0.2393(5) 0.0258(3) 0.8933(4)
H27 H -0.2568 0.0584 0.8405
H28 H -0.3047 0.0228 0.9119
H29 H -0.2234 -0.0205 0.8741
C34 C -0.3800(4) 0.4036(3) 0.6451(3)
H30 H -0.3606 0.3969 0.5921
C35 C 0.0672(3) 0.53267(15) 1.2437(2)
H31 H 0.0997 0.5728 1.2805
loop_
_geom_bond_atom_site_label_1
_geom_bond_atom_site_label_2
_geom_bond_site_symmetry_1
_geom_bond_site_symmetry_2
O1 C2 1_555 1_555
O2 C4 1_555 1_555
N1 H1 1_555 1_555
N2 C2 1_555 1_555
N3 H2 1_555 1_555
C1 C6 1_555 1_555
C2 C6 1_555 1_555
C3 C4 1_555 1_555
C4 N3 1_555 1_555
C5 C3 1_555 1_555
C6 N1 1_555 1_555
O3 C16 1_555 1_555
C7 N2 1_555 1_555
O4 C16 1_555 1_555
C8 N1 1_555 1_555
H3 C8 1_555 1_555
C9 C12 1_555 1_555
C10 N3 1_555 1_555
C11 C3 1_555 1_555
H4 C11 1_555 1_555
C12 N2 1_555 1_555
H5 C12 1_555 1_555
H6 C12 1_555 1_555
C13 C1 1_555 1_555
H7 C13 1_555 1_555
C14 C5 1_555 1_555
H8 C14 1_555 1_555
C15 C7 1_555 1_555
H9 C15 1_555 1_555
C16 C11 1_555 1_555
C17 C13 1_555 1_555
H10 C17 1_555 1_555
C18 C20 1_555 1_555
C19 C10 1_555 1_555
H11 C19 1_555 1_555
C20 C8 1_555 1_555
H12 C20 1_555 1_555
H13 C20 1_555 1_555
C21 C14 1_555 1_555
H14 C21 1_555 1_555
C22 C18 1_555 1_555
H15 C22 1_555 1_555
C23 C19 1_555 1_555
H16 C23 1_555 1_555
C24 H17 1_555 1_555
C25 C9 1_555 1_555
H18 C25 1_555 1_555
C26 C9 1_555 1_555
H19 C26 1_555 1_555
C27 C18 1_555 1_555
H20 C27 1_555 1_555
C28 H21 1_555 1_555
C29 C22 1_555 1_555
H22 C29 1_555 1_555
C30 O3 1_555 1_555
H23 C30 1_555 1_555
H24 C30 1_555 1_555
C31 C24 1_555 1_555
H25 C31 1_555 1_555
C32 C24 1_555 1_555
H26 C32 1_555 1_555
C33 C30 1_555 1_555
H27 C33 1_555 1_555
H28 C33 1_555 1_555
H29 C33 1_555 1_555
C34 C27 1_555 1_555
H30 C34 1_555 1_555
C35 C15 1_555 1_555
H31 C35 1_555 1_555
C1 C7 1_555 1_555
C3 C6 1_555 1_555
C5 C10 1_555 1_555
C8 C11 1_555 1_555
C17 C35 1_555 1_555
C21 C23 1_555 1_555
C25 C31 1_555 1_555
C26 C32 1_555 1_555
C28 C29 1_555 1_555
C28 C34 1_555 1_555

#END
