
#######################################################################
#
#                 Cambridge Crystallographic Data Centre
#                                CCDC 
#
#######################################################################
#
# If this CIF has been generated from an entry in the Cambridge 
# Structural Database, then it will include bibliographic, chemical, 
# crystal, experimental, refinement or atomic coordinate data resulting 
# from the CCDC's data processing and validation procedures.
#
#######################################################################

data_LIMNON
_chemical_formula_moiety         'C21 H17 N2 O2 P1,0.25(H2 O1)'
_chemical_name_systematic        
'2-(diphenylphosphoryl)-8-methoxyquinoxaline hydrate'
_symmetry_cell_setting           triclinic
_symmetry_space_group_name_H-M   'P -1'
_symmetry_Int_Tables_number      2
_space_group_name_Hall           '-P 1'
loop_
_symmetry_equiv_pos_site_id
_symmetry_equiv_pos_as_xyz
1 x,y,z
2 -x,-y,-z
_cell_length_a                   8.6441(2)
_cell_length_b                   14.5300(3)
_cell_length_c                   15.1708(3)
_cell_angle_alpha                75.454(2)
_cell_angle_beta                 77.788(2)
_cell_angle_gamma                89.162(2)
_cell_volume                     1801.13
_exptl_crystal_colour            yellow
_exptl_crystal_description       needle
_cell_formula_units_Z            4
loop_
_atom_site_label
_atom_site_type_symbol
_atom_site_fract_x
_atom_site_fract_y
_atom_site_fract_z
P1 P 0.76466(5) 0.82000(3) 0.04359(3)
O1 O 0.81797(15) 0.87356(9) 0.10422(9)
O2 O 0.67874(17) 0.51910(10) -0.05786(10)
N1 N 0.75932(17) 0.63707(11) 0.03504(11)
N2 N 0.92737(19) 0.57219(12) 0.17843(11)
C1 C 0.8067(2) 0.69475(13) 0.08021(12)
C2 C 0.8651(2) 0.85838(13) -0.07652(12)
C3 C 0.7969(2) 0.54444(13) 0.06064(13)
C4 C 0.5555(2) 0.82408(12) 0.04586(12)
C5 C 0.8792(2) 0.51069(14) 0.13322(13)
C6 C 0.7511(2) 0.47930(14) 0.01287(14)
C7 C 0.8909(2) 0.66169(14) 0.15160(13)
H1 H 0.9220 0.7051 0.1809
C8 C 0.4490(2) 0.76972(13) 0.12304(13)
H2 H 0.4863 0.7270 0.1699
C9 C 0.2873(2) 0.77949(14) 0.12982(14)
H3 H 0.2164 0.7428 0.1811
C10 C 0.9773(2) 0.93346(13) -0.10326(13)
H4 H 0.9966 0.9640 -0.0594
C11 C 0.4979(2) 0.88762(14) -0.02394(14)
H5 H 0.5683 0.9237 -0.0759
C12 C 0.8361(2) 0.81350(14) -0.14327(13)
H6 H 0.7609 0.7636 -0.1265
C13 C 0.7829(2) 0.38489(14) 0.04045(15)
H7 H 0.7523 0.3420 0.0104
C14 C 0.2311(2) 0.84362(14) 0.06067(15)
H8 H 0.1227 0.8505 0.0660
C15 C 0.3360(2) 0.89729(16) -0.01615(15)
H9 H 0.2980 0.9400 -0.0628
C16 C 1.0317(3) 0.91834(16) -0.26006(14)
H10 H 1.0875 0.9383 -0.3216
C17 C 0.8615(3) 0.35274(15) 0.11394(16)
H11 H 0.8805 0.2883 0.1322
C18 C 0.9108(2) 0.41310(15) 0.15947(15)
H12 H 0.9645 0.3902 0.2071
C19 C 0.6311(3) 0.45553(16) -0.10673(17)
H13 H 0.5771 0.4901 -0.1532
H14 H 0.5615 0.4059 -0.0635
H15 H 0.7231 0.4281 -0.1363
C20 C 0.9204(3) 0.84404(15) -0.23453(14)
H16 H 0.9017 0.8142 -0.2790
C21 C 1.0603(3) 0.96287(15) -0.19468(14)
H17 H 1.1356 1.0128 -0.2120
P2 P 0.72552(5) 0.83536(3) 0.45079(3)
O3 O 0.65726(15) 0.91936(9) 0.39565(9)
O4 O 0.82438(17) 0.48790(10) 0.56649(10)
N3 N 0.73977(17) 0.64840(11) 0.46460(11)
N4 N 0.57956(19) 0.64867(13) 0.32139(12)
C22 C 0.7083(2) 0.56630(13) 0.44372(13)
C23 C 0.9373(2) 0.84737(13) 0.43642(13)
C24 C 0.6896(2) 0.72765(13) 0.41616(13)
C25 C 0.6282(2) 0.56572(14) 0.37105(13)
C26 C 0.6404(2) 0.80970(13) 0.57409(13)
C27 C 1.0361(2) 0.84358(15) 0.35251(14)
H18 H 0.9938 0.8265 0.3071
C28 C 0.7566(2) 0.47903(14) 0.49619(14)
C29 C 0.6016(2) 0.47882(16) 0.35024(15)
H19 H 0.5490 0.4773 0.3031
C30 C 0.6085(2) 0.72730(15) 0.34429(14)
H20 H 0.5746 0.7846 0.3122
C31 C 0.7310(2) 0.39590(15) 0.47293(15)
H21 H 0.7648 0.3388 0.5055
C32 C 0.5360(2) 0.87432(16) 0.60473(15)
H22 H 0.5125 0.9280 0.5621
C33 C 0.6536(3) 0.39718(15) 0.39973(15)
H23 H 0.6374 0.3403 0.3847
C34 C 1.2620(2) 0.89009(16) 0.40225(16)
H24 H 1.3702 0.9039 0.3911
C35 C 1.1973(2) 0.86505(16) 0.33569(16)
H25 H 1.2621 0.8625 0.2791
C36 C 0.6762(3) 0.72932(14) 0.63844(14)
H26 H 0.7468 0.6860 0.6187
C37 C 1.0033(3) 0.8745(2) 0.50236(15)
H27 H 0.9388 0.8794 0.5583
C38 C 0.8687(3) 0.40235(16) 0.62385(17)
H28 H 0.9444 0.3712 0.5863
H29 H 0.7766 0.3610 0.6528
H30 H 0.9149 0.4173 0.6711
C39 C 0.5007(3) 0.7799(2) 0.76152(16)
H31 H 0.4533 0.7696 0.8244
C40 C 0.6050(3) 0.71507(16) 0.73205(15)
H32 H 0.6275 0.6616 0.7753
C41 C 1.1649(3) 0.8944(2) 0.48541(17)
H33 H 1.2081 0.9109 0.5308
C42 C 0.4668(3) 0.8591(2) 0.69863(17)
H34 H 0.3974 0.9026 0.7190
O5 O 0.5583(4) 0.9453(3) 0.2184(3)
H35 H 0.6360 0.9264 0.1836
H36 H 0.5918 0.9463 0.2669
loop_
_geom_bond_atom_site_label_1
_geom_bond_atom_site_label_2
_geom_bond_site_symmetry_1
_geom_bond_site_symmetry_2
P1 O1 1_555 1_555
O2 C6 1_555 1_555
N1 C1 1_555 1_555
N2 C5 1_555 1_555
C1 P1 1_555 1_555
C2 P1 1_555 1_555
C3 N1 1_555 1_555
C4 P1 1_555 1_555
C5 C3 1_555 1_555
C6 C3 1_555 1_555
C7 N2 1_555 1_555
H1 C7 1_555 1_555
C8 C4 1_555 1_555
H2 C8 1_555 1_555
C9 C8 1_555 1_555
H3 C9 1_555 1_555
C10 C2 1_555 1_555
H4 C10 1_555 1_555
C11 C4 1_555 1_555
H5 C11 1_555 1_555
C12 C2 1_555 1_555
H6 C12 1_555 1_555
C13 C6 1_555 1_555
H7 C13 1_555 1_555
C14 C9 1_555 1_555
H8 C14 1_555 1_555
C15 C11 1_555 1_555
H9 C15 1_555 1_555
C16 H10 1_555 1_555
C17 C13 1_555 1_555
H11 C17 1_555 1_555
C18 C5 1_555 1_555
H12 C18 1_555 1_555
C19 O2 1_555 1_555
H13 C19 1_555 1_555
H14 C19 1_555 1_555
H15 C19 1_555 1_555
C20 C12 1_555 1_555
H16 C20 1_555 1_555
C21 C10 1_555 1_555
H17 C21 1_555 1_555
P2 O3 1_555 1_555
O4 C28 1_555 1_555
N3 C22 1_555 1_555
N4 C25 1_555 1_555
C22 C25 1_555 1_555
C23 P2 1_555 1_555
C24 P2 1_555 1_555
C25 C29 1_555 1_555
C26 P2 1_555 1_555
C27 C23 1_555 1_555
H18 C27 1_555 1_555
C28 C22 1_555 1_555
C29 H19 1_555 1_555
C30 N4 1_555 1_555
H20 C30 1_555 1_555
C31 C28 1_555 1_555
H21 C31 1_555 1_555
C32 C26 1_555 1_555
H22 C32 1_555 1_555
C33 C29 1_555 1_555
H23 C33 1_555 1_555
C34 H24 1_555 1_555
C35 C27 1_555 1_555
H25 C35 1_555 1_555
C36 C26 1_555 1_555
H26 C36 1_555 1_555
C37 C23 1_555 1_555
H27 C37 1_555 1_555
C38 O4 1_555 1_555
H28 C38 1_555 1_555
H29 C38 1_555 1_555
H30 C38 1_555 1_555
C39 H31 1_555 1_555
C40 C36 1_555 1_555
H32 C40 1_555 1_555
C41 C34 1_555 1_555
H33 C41 1_555 1_555
C42 C32 1_555 1_555
H34 C42 1_555 1_555
O5 H35 1_555 1_555
H36 O5 1_555 1_555
C1 C7 1_555 1_555
C14 C15 1_555 1_555
C16 C20 1_555 1_555
C16 C21 1_555 1_555
C17 C18 1_555 1_555
N3 C24 1_555 1_555
C24 C30 1_555 1_555
C31 C33 1_555 1_555
C34 C35 1_555 1_555
C37 C41 1_555 1_555
C39 C40 1_555 1_555
C39 C42 1_555 1_555

#END
