
#######################################################################
#
#                 Cambridge Crystallographic Data Centre
#                                CCDC 
#
#######################################################################
#
# If this CIF has been generated from an entry in the Cambridge 
# Structural Database, then it will include bibliographic, chemical, 
# crystal, experimental, refinement or atomic coordinate data resulting 
# from the CCDC's data processing and validation procedures.
#
#######################################################################

data_LIMTAF
_chemical_formula_moiety         'C45 H64 O6'
_chemical_name_systematic        
"3,3,3',3',5,5'-hexamethyl-2,2',3,3'-tetrahydro-1,1'-spirobi[indene]-6,6'-diyl bis[5-methyl-2-(propan-2-yl)cyclohexyl] biscarbonate"
_symmetry_cell_setting           orthorhombic
_symmetry_space_group_name_H-M   'P 21 21 21'
_symmetry_Int_Tables_number      19
_space_group_name_Hall           'P 2ac 2ab'
loop_
_symmetry_equiv_pos_site_id
_symmetry_equiv_pos_as_xyz
1 x,y,z
2 1/2-x,-y,1/2+z
3 1/2+x,1/2-y,-z
4 -x,1/2+y,1/2-z
_cell_length_a                   10.53555(14)
_cell_length_b                   16.17984(19)
_cell_length_c                   24.4076(3)
_cell_angle_alpha                90
_cell_angle_beta                 90
_cell_angle_gamma                90
_cell_volume                     4160.61
_exptl_crystal_colour            colorless
_exptl_crystal_description       block
_cell_formula_units_Z            4
loop_
_atom_site_label
_atom_site_type_symbol
_atom_site_fract_x
_atom_site_fract_y
_atom_site_fract_z
O1 O 0.07877(17) 0.51990(10) 0.87494(8)
O2 O -0.09637(18) 0.58106(12) 0.90996(9)
O3 O 0.09595(17) 0.64200(10) 0.90794(8)
O4 O 0.37667(18) 0.12246(11) 0.85211(8)
O5 O 0.3165(2) -0.00711(13) 0.82969(9)
O6 O 0.49176(17) 0.05327(11) 0.79528(8)
C1 C 0.0163(2) 0.37904(14) 0.88499(10)
H1 H 0.068396 0.375105 0.916645
C2 C 0.0061(2) 0.45210(14) 0.85660(10)
C3 C -0.0649(2) 0.46087(15) 0.80873(10)
C4 C -0.1336(3) 0.39204(15) 0.79116(10)
H2 H -0.184426 0.395615 0.759094
C5 C -0.1282(2) 0.31837(14) 0.82023(10)
C6 C -0.0517(2) 0.31095(14) 0.86613(10)
C7 C -0.0613(2) 0.22530(15) 0.89178(10)
C8 C -0.1366(3) 0.17752(16) 0.84675(12)
H3 H -0.077759 0.143417 0.824649
H4 H -0.199630 0.140392 0.864068
C9 C -0.2043(3) 0.24031(16) 0.80989(11)
C10 C -0.1231(3) 0.22890(18) 0.94974(12)
H5 H -0.114210 0.285139 0.965250
H6 H -0.214600 0.215618 0.947203
C11 C -0.0556(3) 0.16564(17) 0.98689(11)
C12 C 0.0691(2) 0.15298(14) 0.95725(10)
C13 C 0.0645(2) 0.18436(13) 0.90439(10)
C14 C 0.1658(2) 0.17260(14) 0.86894(10)
H7 H 0.162780 0.193105 0.832488
C15 C 0.2714(2) 0.13036(15) 0.88778(11)
C16 C 0.2814(3) 0.10017(15) 0.94097(11)
C17 C 0.1776(3) 0.11206(15) 0.97545(10)
H8 H 0.180869 0.091941 1.011992
C18 C 0.0129(2) 0.58235(15) 0.89899(10)
C19 C 0.0493(2) 0.71986(15) 0.93105(11)
H9 H -0.039983 0.712602 0.944054
C20 C 0.1341(3) 0.74192(17) 0.97908(12)
H10 H 0.223754 0.739967 0.965632
C21 C 0.1073(4) 0.83177(19) 0.99685(14)
H11 H 0.023135 0.834016 1.014801
H12 H 0.171629 0.848558 1.024254
C22 C 0.1092(4) 0.89278(18) 0.95000(15)
H13 H 0.196187 0.895729 0.934733
H14 H 0.086782 0.948316 0.963990
C23 C 0.0170(3) 0.86889(16) 0.90460(13)
H15 H -0.070239 0.866410 0.920641
C24 C 0.0527(3) 0.78223(16) 0.88498(12)
H16 H -0.007016 0.764838 0.855867
H17 H 0.139057 0.783571 0.869006
C25 C 0.1255(3) 0.6836(2) 1.02885(13)
H18 H 0.173237 0.711214 1.059163
C26 C -0.0095(3) 0.6717(2) 1.04963(14)
H19 H -0.047711 0.725782 1.057054
H20 H -0.007972 0.638992 1.083411
H21 H -0.059639 0.642745 1.021804
C27 C 0.1884(4) 0.5990(2) 1.02060(17)
H22 H 0.133000 0.563936 0.998238
H23 H 0.202225 0.572843 1.056301
H24 H 0.270005 0.606276 1.001970
C28 C 0.0159(4) 0.9313(2) 0.85825(17)
H25 H 0.099840 0.933002 0.840946
H26 H -0.004884 0.986105 0.872827
H27 H -0.047804 0.915191 0.831042
C29 C -0.0672(4) 0.54106(17) 0.77755(13)
H28 H -0.114501 0.582480 0.798564
H29 H -0.108543 0.532536 0.742029
H30 H 0.019907 0.560400 0.771755
C30 C -0.3411(3) 0.2549(2) 0.8291(2)
H31 H -0.341049 0.269098 0.868165
H32 H -0.391067 0.204545 0.823425
H33 H -0.378538 0.300369 0.808103
C31 C -0.2049(5) 0.2147(2) 0.74987(14)
H34 H -0.246152 0.257787 0.727962
H35 H -0.251629 0.162678 0.745805
H36 H -0.117429 0.207158 0.737200
C32 C -0.0387(4) 0.1987(2) 1.04523(12)
H37 H 0.005126 0.157298 1.067587
H38 H -0.122095 0.210474 1.061202
H39 H 0.011743 0.249611 1.044218
C33 C -0.1286(3) 0.0840(2) 0.98945(16)
H40 H -0.142658 0.063296 0.952207
H41 H -0.210656 0.093038 1.007424
H42 H -0.079410 0.043441 1.010349
C34 C 0.3880(3) 0.04939(16) 0.82578(11)
C35 C 0.5209(3) -0.02083(16) 0.76287(11)
H43 H 0.439839 -0.048399 0.751940
C36 C 0.5909(2) 0.00752(16) 0.71167(10)
H44 H 0.670223 0.035792 0.724120
C37 C 0.6316(3) -0.06925(19) 0.67958(12)
H45 H 0.554959 -0.097470 0.665381
H46 H 0.683347 -0.051877 0.647757
C38 C 0.7076(3) -0.1298(2) 0.71387(14)
H47 H 0.788915 -0.103817 0.724594
H48 H 0.727308 -0.179216 0.691505
C39 C 0.6366(3) -0.15654(18) 0.76524(14)
H49 H 0.556974 -0.184993 0.753344
C40 C 0.5983(3) -0.07965(18) 0.79770(12)
H50 H 0.547853 -0.096442 0.830064
H51 H 0.675503 -0.051071 0.810917
C41 C 0.5154(3) 0.0706(2) 0.67771(13)
H52 H 0.488590 0.115820 0.703102
C42 C 0.5976(4) 0.1095(3) 0.63339(15)
H53 H 0.675873 0.130807 0.649840
H54 H 0.551112 0.154928 0.616029
H55 H 0.618750 0.067730 0.605764
C43 C 0.3962(4) 0.0357(3) 0.6517(2)
H56 H 0.419603 -0.004966 0.623719
H57 H 0.347628 0.080524 0.634772
H58 H 0.344319 0.008840 0.679926
C44 C 0.7120(4) -0.2172(2) 0.80025(19)
H59 H 0.790936 -0.190957 0.812415
H60 H 0.731990 -0.266474 0.778568
H61 H 0.661453 -0.233121 0.832264
C45 C 0.3983(3) 0.0562(2) 0.96040(14)
H62 H 0.390632 0.044508 0.999666
H63 H 0.472784 0.091101 0.953976
H64 H 0.407778 0.004131 0.940270
loop_
_geom_bond_atom_site_label_1
_geom_bond_atom_site_label_2
_geom_bond_site_symmetry_1
_geom_bond_site_symmetry_2
O1 C2 1_555 1_555
O2 C18 1_555 1_555
O3 C18 1_555 1_555
O4 C15 1_555 1_555
O5 C34 1_555 1_555
O6 C34 1_555 1_555
C1 H1 1_555 1_555
C2 C1 1_555 1_555
C3 C2 1_555 1_555
C4 C3 1_555 1_555
H2 C4 1_555 1_555
C5 C4 1_555 1_555
C6 C1 1_555 1_555
C7 C6 1_555 1_555
C8 C7 1_555 1_555
H3 C8 1_555 1_555
H4 C8 1_555 1_555
C9 C5 1_555 1_555
C10 C7 1_555 1_555
H5 C10 1_555 1_555
H6 C10 1_555 1_555
C11 C10 1_555 1_555
C12 C11 1_555 1_555
C13 C7 1_555 1_555
C14 C13 1_555 1_555
H7 C14 1_555 1_555
C15 C14 1_555 1_555
C16 C15 1_555 1_555
C17 C12 1_555 1_555
H8 C17 1_555 1_555
C18 O1 1_555 1_555
C19 O3 1_555 1_555
H9 C19 1_555 1_555
C20 C19 1_555 1_555
H10 C20 1_555 1_555
C21 C20 1_555 1_555
H11 C21 1_555 1_555
H12 C21 1_555 1_555
C22 C21 1_555 1_555
H13 C22 1_555 1_555
H14 C22 1_555 1_555
C23 C22 1_555 1_555
H15 C23 1_555 1_555
C24 C19 1_555 1_555
H16 C24 1_555 1_555
H17 C24 1_555 1_555
C25 C20 1_555 1_555
H18 C25 1_555 1_555
C26 C25 1_555 1_555
H19 C26 1_555 1_555
H20 C26 1_555 1_555
H21 C26 1_555 1_555
C27 C25 1_555 1_555
H22 C27 1_555 1_555
H23 C27 1_555 1_555
H24 C27 1_555 1_555
C28 C23 1_555 1_555
H25 C28 1_555 1_555
H26 C28 1_555 1_555
H27 C28 1_555 1_555
C29 C3 1_555 1_555
H28 C29 1_555 1_555
H29 C29 1_555 1_555
H30 C29 1_555 1_555
C30 C9 1_555 1_555
H31 C30 1_555 1_555
H32 C30 1_555 1_555
H33 C30 1_555 1_555
C31 C9 1_555 1_555
H34 C31 1_555 1_555
H35 C31 1_555 1_555
H36 C31 1_555 1_555
C32 C11 1_555 1_555
H37 C32 1_555 1_555
H38 C32 1_555 1_555
H39 C32 1_555 1_555
C33 C11 1_555 1_555
H40 C33 1_555 1_555
H41 C33 1_555 1_555
H42 C33 1_555 1_555
C34 O4 1_555 1_555
C35 O6 1_555 1_555
H43 C35 1_555 1_555
C36 C35 1_555 1_555
H44 C36 1_555 1_555
C37 C36 1_555 1_555
H45 C37 1_555 1_555
H46 C37 1_555 1_555
C38 C37 1_555 1_555
H47 C38 1_555 1_555
H48 C38 1_555 1_555
C39 C38 1_555 1_555
H49 C39 1_555 1_555
C40 C35 1_555 1_555
H50 C40 1_555 1_555
H51 C40 1_555 1_555
C41 C36 1_555 1_555
H52 C41 1_555 1_555
C42 C41 1_555 1_555
H53 C42 1_555 1_555
H54 C42 1_555 1_555
H55 C42 1_555 1_555
C43 C41 1_555 1_555
H56 C43 1_555 1_555
H57 C43 1_555 1_555
H58 C43 1_555 1_555
C44 C39 1_555 1_555
H59 C44 1_555 1_555
H60 C44 1_555 1_555
H61 C44 1_555 1_555
C45 C16 1_555 1_555
H62 C45 1_555 1_555
H63 C45 1_555 1_555
H64 C45 1_555 1_555
C5 C6 1_555 1_555
C8 C9 1_555 1_555
C12 C13 1_555 1_555
C16 C17 1_555 1_555
C23 C24 1_555 1_555
C39 C40 1_555 1_555

#END
