
#######################################################################
#
#                 Cambridge Crystallographic Data Centre
#                                CCDC 
#
#######################################################################
#
# If this CIF has been generated from an entry in the Cambridge 
# Structural Database, then it will include bibliographic, chemical, 
# crystal, experimental, refinement or atomic coordinate data resulting 
# from the CCDC's data processing and validation procedures.
#
#######################################################################

data_LIMZAL
_chemical_formula_moiety         
'C30 H31 N7 S1 2+,2(C30 H30 N7 S1 1+),4(B1 F4 1-)'
_chemical_name_systematic        
'bis(3,7-bis[4-(pyridin-3-yl)piperazin-1-yl]phenothiazin-5-ium) 3-[4-(pyridin-1-ium-3-yl)piperazin-1-yl]-7-[4-(pyridin-3-yl)piperazin-1-yl]phenothiazin-5-ium tetrakis(tetrafluoroborate) unknown solvate'
_symmetry_cell_setting           monoclinic
_symmetry_space_group_name_H-M   'C 2/c'
_symmetry_Int_Tables_number      15
_space_group_name_Hall           '-C 2yn'
loop_
_symmetry_equiv_pos_site_id
_symmetry_equiv_pos_as_xyz
1 x,y,z
2 -x,y,1/2-z
3 1/2+x,1/2+y,z
4 1/2-x,1/2+y,1/2-z
5 -x,-y,-z
6 x,-y,1/2+z
7 1/2-x,1/2-y,-z
8 1/2+x,1/2-y,1/2+z
_cell_length_a                   38.963(8)
_cell_length_b                   16.439(3)
_cell_length_c                   13.840(3)
_cell_angle_alpha                90
_cell_angle_beta                 99.41(3)
_cell_angle_gamma                90
_cell_volume                     8745.41
_exptl_crystal_colour            blue
_exptl_crystal_description       needle
_cell_formula_units_Z            4
loop_
_atom_site_label
_atom_site_type_symbol
_atom_site_fract_x
_atom_site_fract_y
_atom_site_fract_z
C1 C 0.70637(5) 0.24771(13) 1.05528(16)
C2 C 0.71956(7) 0.32614(15) 1.05459(18)
H1 H 0.7078 0.3646 1.0098
N1 N 0.74824(7) 0.34935(16) 1.11466(17)
H2 H 0.750(2) 0.412(5) 1.122(5)
C3 C 0.76661(7) 0.29569(19) 1.17545(18)
H3 H 0.7873 0.3127 1.2167
C4 C 0.75586(6) 0.21692(16) 1.17847(17)
H4 H 0.7694 0.1789 1.2203
C5 C 0.72534(6) 0.19251(15) 1.12075(18)
H5 H 0.7172 0.1384 1.1253
N2 N 0.67514(5) 0.22594(11) 0.99830(16)
C6 C 0.65692(6) 0.28279(14) 0.9278(2)
H6 H 0.6667 0.2799 0.8662
H7 H 0.6603 0.3388 0.9538
C7 C 0.61864(6) 0.26358(14) 0.90686(19)
H8 H 0.6083 0.2749 0.9662
H9 H 0.6072 0.2997 0.8540
N3 N 0.61180(5) 0.17894(11) 0.87763(15)
C8 C 0.63203(6) 0.12023(15) 0.9440(2)
H10 H 0.6291 0.0652 0.9148
H11 H 0.6230 0.1191 1.0069
C9 C 0.66991(6) 0.14154(14) 0.9630(2)
H12 H 0.6824 0.1039 1.0126
H13 H 0.6798 0.1350 0.9019
C10 C 0.58404(5) 0.15682(13) 0.81075(15)
C11 C 0.56277(5) 0.21608(12) 0.75572(16)
H14 H 0.5674 0.2722 0.7682
C12 C 0.53551(5) 0.19327(12) 0.68427(15)
C13 C 0.52679(5) 0.10959(12) 0.66488(15)
C14 C 0.54768(6) 0.05125(12) 0.72464(16)
H15 H 0.5421 -0.0048 0.7161
C15 C 0.57511(6) 0.07292(13) 0.79292(16)
H16 H 0.5887 0.0319 0.8296
S1 S 0.51128(2) 0.27005(3) 0.62057(4)
N4 N 0.50115(5) 0.08080(11) 0.59800(13)
C16 C 0.48173(5) 0.21726(12) 0.53612(15)
C17 C 0.45928(5) 0.26242(12) 0.46977(15)
H17 H 0.4612 0.3200 0.4701
C18 C 0.43331(5) 0.22432(12) 0.40097(15)
C19 C 0.43231(6) 0.13720(13) 0.40073(16)
H18 H 0.4157 0.1097 0.3542
C20 C 0.45475(6) 0.09329(12) 0.46604(16)
H19 H 0.4532 0.0356 0.4642
C21 C 0.48050(5) 0.13022(12) 0.53700(15)
N5 N 0.40967(5) 0.26859(11) 0.33989(14)
C22 C 0.41235(6) 0.35733(13) 0.33053(18)
H20 H 0.4244 0.3703 0.2748
H21 H 0.4264 0.3797 0.3908
C23 C 0.37664(6) 0.39700(13) 0.31420(16)
H22 H 0.3658 0.3905 0.3737
H23 H 0.3791 0.4559 0.3023
N6 N 0.35414(4) 0.36029(10) 0.23044(13)
C24 C 0.34990(5) 0.27376(12) 0.24732(16)
H24 H 0.3343 0.2496 0.1910
H25 H 0.3392 0.2658 0.3067
C25 C 0.38518(6) 0.23163(13) 0.26031(16)
H26 H 0.3822 0.1733 0.2749
H27 H 0.3948 0.2354 0.1985
C26 C 0.32363(5) 0.40450(12) 0.19461(15)
C27 C 0.32679(6) 0.48497(14) 0.16299(17)
H28 H 0.3494 0.5083 0.1710
N7 N 0.29996(6) 0.53061(13) 0.12239(16)
C28 C 0.26820(6) 0.49732(15) 0.11209(19)
H29 H 0.2488 0.5290 0.0831
C29 C 0.26241(6) 0.41966(16) 0.14143(19)
H30 H 0.2394 0.3986 0.1336
C30 C 0.29047(6) 0.37171(14) 0.18284(18)
H31 H 0.2869 0.3174 0.2027
C31 C 0.29880(6) 0.63683(16) 0.40825(16)
C32 C 0.28998(7) 0.55642(19) 0.3829(2)
H32 H 0.3081 0.5196 0.3744
N8 N 0.25664(8) 0.5282(2) 0.3697(2)
C33 C 0.23069(9) 0.5849(3) 0.3779(3)
H33 H 0.2071 0.5678 0.3644
C34 C 0.23772(7) 0.6645(3) 0.4047(2)
H34 H 0.2195 0.7013 0.4117
C35 C 0.27138(7) 0.68889(19) 0.42091(18)
H35 H 0.2766 0.7432 0.4416
N9 N 0.33320(5) 0.66430(13) 0.41497(15)
C36 C 0.36121(7) 0.61544(16) 0.4697(2)
H36 H 0.3567 0.5573 0.4539
H37 H 0.3612 0.6227 0.5407
C37 C 0.39644(7) 0.63804(16) 0.4471(2)
H38 H 0.4146 0.6066 0.4897
H39 H 0.3977 0.6244 0.3781
N10 N 0.40254(6) 0.72545(13) 0.46339(16)
C38 C 0.42732(6) 0.75806(14) 0.53163(16)
C39 C 0.37524(7) 0.77250(17) 0.4023(2)
H40 H 0.3754 0.7603 0.3323
H41 H 0.3797 0.8314 0.4128
C40 C 0.33970(7) 0.75116(15) 0.42824(19)
H42 H 0.3390 0.7663 0.4971
H43 H 0.3213 0.7822 0.3858
C41 C 0.44971(6) 0.70836(13) 0.59879(16)
H44 H 0.4478 0.6508 0.5942
C42 C 0.47417(5) 0.74270(12) 0.67047(15)
C43 C 0.47838(5) 0.82898(12) 0.68059(15)
C44 C 0.45696(6) 0.87759(13) 0.60881(16)
H45 H 0.4600 0.9349 0.6104
C45 C 0.43245(6) 0.84473(14) 0.53847(16)
H46 H 0.4185 0.8795 0.4932
S2 S 0.5000 0.67695(4) 0.7500
N11 N 0.5000 0.86829(15) 0.7500
C31A C 0.70120(6) 0.63683(16) 1.09175(16)
C32A C 0.71002(7) 0.55642(19) 1.1171(2)
H32A H 0.6919 0.5196 1.1256
N8A N 0.74336(8) 0.5282(2) 1.1303(2)
C33A C 0.76931(9) 0.5849(3) 1.1221(3)
H33A H 0.7929 0.5678 1.1356
C34A C 0.76228(7) 0.6645(3) 1.0953(2)
H34A H 0.7805 0.7013 1.0883
C35A C 0.72862(7) 0.68889(19) 1.07909(18)
H35A H 0.7234 0.7432 1.0584
N9A N 0.66680(5) 0.66430(13) 1.08503(15)
C36A C 0.63879(7) 0.61544(16) 1.0303(2)
H36A H 0.6433 0.5573 1.0461
H37A H 0.6388 0.6227 0.9593
C37A C 0.60356(7) 0.63804(16) 1.0529(2)
H38A H 0.5854 0.6066 1.0103
H39A H 0.6023 0.6244 1.1219
N10A N 0.59746(6) 0.72545(13) 1.03661(16)
C38A C 0.57268(6) 0.75806(14) 0.96837(16)
C39A C 0.62476(7) 0.77250(17) 1.0977(2)
H40A H 0.6246 0.7603 1.1677
H41A H 0.6203 0.8314 1.0872
C40A C 0.66030(7) 0.75116(15) 1.07176(19)
H42A H 0.6610 0.7663 1.0029
H43A H 0.6787 0.7822 1.1142
C41A C 0.55029(6) 0.70836(13) 0.90121(16)
H44A H 0.5522 0.6508 0.9058
C42A C 0.52583(5) 0.74270(12) 0.82953(15)
C43A C 0.52162(5) 0.82898(12) 0.81941(15)
C44A C 0.54304(6) 0.87759(13) 0.89119(16)
H45A H 0.5400 0.9349 0.8896
C45A C 0.56755(6) 0.84473(14) 0.96153(16)
H46A H 0.5815 0.8795 1.0068
B1 B 0.42425(8) 0.45074(16) 0.6389(2)
F1 F 0.43733(7) 0.52739(11) 0.65420(16)
F2 F 0.44927(5) 0.39379(12) 0.62934(16)
F3 F 0.39943(6) 0.44866(13) 0.55416(14)
F4 F 0.40871(5) 0.42703(11) 0.71896(13)
F6 F 0.3736(2) -0.0233(7) 0.3993(8)
B3 B 0.3449(3) -0.0172(6) 0.3417(9)
F7 F 0.33960(15) 0.0608(2) 0.3053(4)
F8 F 0.32346(11) -0.0316(3) 0.4113(4)
F9 F 0.3368(4) -0.0739(6) 0.2689(8)
B2? B 0.3463(2) -0.0151(6) 0.3202(8)
F5? F 0.3400(3) -0.0891(5) 0.2740(7)
F10? F 0.35622(13) 0.0399(3) 0.2544(5)
F11? F 0.31713(11) 0.0128(4) 0.3540(5)
F12? F 0.3792(2) -0.0263(6) 0.3882(9)
loop_
_geom_bond_atom_site_label_1
_geom_bond_atom_site_label_2
_geom_bond_site_symmetry_1
_geom_bond_site_symmetry_2
C1 C2 1_555 1_555
C2 H1 1_555 1_555
N1 C2 1_555 1_555
H2 N1 1_555 1_555
C3 N1 1_555 1_555
H3 C3 1_555 1_555
C4 C3 1_555 1_555
H4 C4 1_555 1_555
C5 C1 1_555 1_555
H5 C5 1_555 1_555
N2 C1 1_555 1_555
C6 N2 1_555 1_555
H6 C6 1_555 1_555
H7 C6 1_555 1_555
C7 C6 1_555 1_555
H8 C7 1_555 1_555
H9 C7 1_555 1_555
N3 C7 1_555 1_555
C8 N3 1_555 1_555
H10 C8 1_555 1_555
H11 C8 1_555 1_555
C9 N2 1_555 1_555
H12 C9 1_555 1_555
H13 C9 1_555 1_555
C10 N3 1_555 1_555
C11 C10 1_555 1_555
H14 C11 1_555 1_555
C12 C11 1_555 1_555
C13 C12 1_555 1_555
C14 C13 1_555 1_555
H15 C14 1_555 1_555
C15 C10 1_555 1_555
H16 C15 1_555 1_555
S1 C12 1_555 1_555
N4 C13 1_555 1_555
C16 S1 1_555 1_555
C17 C16 1_555 1_555
H17 C17 1_555 1_555
C18 C17 1_555 1_555
C19 C18 1_555 1_555
H18 C19 1_555 1_555
C20 C19 1_555 1_555
H19 C20 1_555 1_555
C21 N4 1_555 1_555
N5 C18 1_555 1_555
C22 N5 1_555 1_555
H20 C22 1_555 1_555
H21 C22 1_555 1_555
C23 C22 1_555 1_555
H22 C23 1_555 1_555
H23 C23 1_555 1_555
N6 C23 1_555 1_555
C24 N6 1_555 1_555
H24 C24 1_555 1_555
H25 C24 1_555 1_555
C25 N5 1_555 1_555
H26 C25 1_555 1_555
H27 C25 1_555 1_555
C26 N6 1_555 1_555
C27 C26 1_555 1_555
H28 C27 1_555 1_555
N7 C27 1_555 1_555
C28 N7 1_555 1_555
H29 C28 1_555 1_555
C29 C28 1_555 1_555
H30 C29 1_555 1_555
C30 C26 1_555 1_555
H31 C30 1_555 1_555
C31 C32 1_555 1_555
C32 H32 1_555 1_555
N8 C32 1_555 1_555
C33 N8 1_555 1_555
H33 C33 1_555 1_555
C34 C33 1_555 1_555
H34 C34 1_555 1_555
C35 C31 1_555 1_555
H35 C35 1_555 1_555
N9 C31 1_555 1_555
C36 N9 1_555 1_555
H36 C36 1_555 1_555
H37 C36 1_555 1_555
C37 C36 1_555 1_555
H38 C37 1_555 1_555
H39 C37 1_555 1_555
N10 C37 1_555 1_555
C38 N10 1_555 1_555
C39 N10 1_555 1_555
H40 C39 1_555 1_555
H41 C39 1_555 1_555
C40 N9 1_555 1_555
H42 C40 1_555 1_555
H43 C40 1_555 1_555
C41 C38 1_555 1_555
H44 C41 1_555 1_555
C42 C41 1_555 1_555
C43 C42 1_555 1_555
C44 C43 1_555 1_555
H45 C44 1_555 1_555
C45 C38 1_555 1_555
H46 C45 1_555 1_555
S2 C42 1_555 1_555
N11 C43 1_555 1_555
B1 F1 1_555 1_555
F2 B1 1_555 1_555
F3 B1 1_555 1_555
F4 B1 1_555 1_555
F6 B3 1_555 1_555
B3 F7 1_555 1_555
F8 B3 1_555 1_555
F9 B3 1_555 1_555
C31A C32A 1_555 1_555
C32A H32A 1_555 1_555
N8A C32A 1_555 1_555
C33A N8A 1_555 1_555
H33A C33A 1_555 1_555
C34A C33A 1_555 1_555
H34A C34A 1_555 1_555
C35A C31A 1_555 1_555
H35A C35A 1_555 1_555
N9A C31A 1_555 1_555
C36A N9A 1_555 1_555
H36A C36A 1_555 1_555
H37A C36A 1_555 1_555
C37A C36A 1_555 1_555
H38A C37A 1_555 1_555
H39A C37A 1_555 1_555
N10A C37A 1_555 1_555
C38A N10A 1_555 1_555
C39A N10A 1_555 1_555
H40A C39A 1_555 1_555
H41A C39A 1_555 1_555
C40A N9A 1_555 1_555
H42A C40A 1_555 1_555
H43A C40A 1_555 1_555
C41A C38A 1_555 1_555
H44A C41A 1_555 1_555
C42A S2 1_555 1_555
C43A N11 1_555 1_555
C44A C43A 1_555 1_555
H45A C44A 1_555 1_555
C45A C38A 1_555 1_555
H46A C45A 1_555 1_555
C4 C5 1_555 1_555
C8 C9 1_555 1_555
C14 C15 1_555 1_555
C16 C21 1_555 1_555
C20 C21 1_555 1_555
C24 C25 1_555 1_555
C29 C30 1_555 1_555
C34 C35 1_555 1_555
C39 C40 1_555 1_555
C44 C45 1_555 1_555
C34A C35A 1_555 1_555
C39A C40A 1_555 1_555
C41A C42A 1_555 1_555
C42A C43A 1_555 1_555
C44A C45A 1_555 1_555

#END
