
#######################################################################
#
#                 Cambridge Crystallographic Data Centre
#                                CCDC 
#
#######################################################################
#
# If this CIF has been generated from an entry in the Cambridge 
# Structural Database, then it will include bibliographic, chemical, 
# crystal, experimental, refinement or atomic coordinate data resulting 
# from the CCDC's data processing and validation procedures.
#
#######################################################################

data_LINBIU
_chemical_formula_moiety         'C19 H13 Cl2 N5 S1,H2 O1'
_chemical_name_systematic        
'2-Amino-6-((2-aminophenyl)sulfanyl)-4-(2,6-dichlorophenyl)-1,4-dihydropyridine-3,5-dicarbonitrile monohydrate'
_symmetry_cell_setting           triclinic
_symmetry_space_group_name_H-M   'P -1'
_symmetry_Int_Tables_number      2
_space_group_name_Hall           '-P 1'
loop_
_symmetry_equiv_pos_site_id
_symmetry_equiv_pos_as_xyz
1 x,y,z
2 -x,-y,-z
_cell_length_a                   10.026(3)
_cell_length_b                   10.294(3)
_cell_length_c                   10.483(3)
_cell_angle_alpha                98.859(9)
_cell_angle_beta                 115.168(9)
_cell_angle_gamma                91.022(7)
_cell_volume                     963.321
_exptl_crystal_colour            'light yellow'
_exptl_crystal_description       plate
_cell_formula_units_Z            2
loop_
_atom_site_label
_atom_site_type_symbol
_atom_site_fract_x
_atom_site_fract_y
_atom_site_fract_z
S1 S 0.27846(7) 0.95117(7) 0.49160(8)
Cl1 Cl -0.03613(8) 0.80829(7) 0.00898(8)
Cl2 Cl -0.29654(11) 0.49280(8) 0.22975(11)
N1 N 0.0131(2) 1.0213(2) 0.3163(2)
H1 H 0.0607 1.1018 0.3517
N2 N -0.1973(2) 1.1167(2) 0.1904(3)
H2 H -0.2975 1.1190 0.1300
H3 H -0.1473 1.1915 0.2356
N3 N -0.4945(2) 0.8581(2) 0.0462(3)
N4 N 0.1595(3) 0.5980(2) 0.4343(3)
N5 N 0.3080(3) 0.9533(3) 0.2151(3)
H4 H 0.3501 0.9473 0.1478
H5 H 0.3341 0.8796 0.2644
C1 C -0.1377(3) 1.0059(2) 0.2312(3)
C2 C -0.2141(3) 0.8839(2) 0.1954(3)
C3 C -0.1423(3) 0.7602(2) 0.2405(3)
H6 H -0.1865 0.7273 0.2992
C4 C 0.0223(3) 0.7945(2) 0.3361(3)
C5 C 0.0895(3) 0.9182(2) 0.3703(3)
C6 C -0.3684(3) 0.8711(2) 0.1130(3)
C7 C -0.1723(3) 0.6494(2) 0.1128(3)
C8 C -0.1323(3) 0.6628(2) 0.0036(3)
C9 C -0.1630(3) 0.5637(3) -0.1127(3)
H7 H -0.1333 0.5764 -0.1841
C10 C -0.2373(3) 0.4463(3) -0.1229(3)
H8 H -0.2598 0.3788 -0.2023
C11 C -0.2786(3) 0.4271(3) -0.0186(4)
H9 H -0.3290 0.3465 -0.0257
C12 C -0.2458(3) 0.5271(3) 0.0982(3)
C13 C 0.1033(3) 0.6887(3) 0.3928(3)
C14 C 0.3383(3) 1.0867(3) 0.4370(3)
C15 C 0.3850(3) 1.2072(3) 0.5326(4)
H10 H 0.3769 1.2163 0.6196
C16 C 0.4428(4) 1.3121(3) 0.4994(5)
H11 H 0.4739 1.3933 0.5631
C17 C 0.4545(3) 1.2973(4) 0.3725(5)
H12 H 0.4941 1.3694 0.3503
C18 C 0.4103(3) 1.1805(4) 0.2770(4)
H13 H 0.4187 1.1734 0.1903
C19 C 0.3521(3) 1.0707(3) 0.3096(3)
O1 O 0.0541(3) 0.3152(2) 0.3878(3)
H14 H 0.0793 0.2980 0.3218
H15 H 0.0553 0.3933 0.4235
loop_
_geom_bond_atom_site_label_1
_geom_bond_atom_site_label_2
_geom_bond_site_symmetry_1
_geom_bond_site_symmetry_2
S1 C5 1_555 1_555
Cl1 C8 1_555 1_555
Cl2 C12 1_555 1_555
N1 H1 1_555 1_555
N2 H2 1_555 1_555
H3 N2 1_555 1_555
N3 C6 1_555 1_555
N4 C13 1_555 1_555
N5 H4 1_555 1_555
H5 N5 1_555 1_555
C1 N1 1_555 1_555
C2 C1 1_555 1_555
C3 C2 1_555 1_555
H6 C3 1_555 1_555
C4 C3 1_555 1_555
C5 N1 1_555 1_555
C6 C2 1_555 1_555
C7 C3 1_555 1_555
C8 C7 1_555 1_555
C9 C8 1_555 1_555
H7 C9 1_555 1_555
C10 C9 1_555 1_555
H8 C10 1_555 1_555
C11 C10 1_555 1_555
H9 C11 1_555 1_555
C12 C7 1_555 1_555
C13 C4 1_555 1_555
C14 S1 1_555 1_555
C15 C14 1_555 1_555
H10 C15 1_555 1_555
C16 C15 1_555 1_555
H11 C16 1_555 1_555
C17 C16 1_555 1_555
H12 C17 1_555 1_555
C18 C17 1_555 1_555
H13 C18 1_555 1_555
C19 N5 1_555 1_555
O1 H14 1_555 1_555
H15 O1 1_555 1_555
N2 C1 1_555 1_555
C4 C5 1_555 1_555
C11 C12 1_555 1_555
C14 C19 1_555 1_555
C18 C19 1_555 1_555

#END
