
#######################################################################
#
#                 Cambridge Crystallographic Data Centre
#                                CCDC 
#
#######################################################################
#
# If this CIF has been generated from an entry in the Cambridge 
# Structural Database, then it will include bibliographic, chemical, 
# crystal, experimental, refinement or atomic coordinate data resulting 
# from the CCDC's data processing and validation procedures.
#
#######################################################################

data_LINCOD
_chemical_formula_moiety         'C20 H15 N2 O1 P1'
_chemical_name_systematic        2-(diphenylphosphoryl)quinoxaline
_symmetry_cell_setting           triclinic
_symmetry_space_group_name_H-M   'P -1'
_symmetry_Int_Tables_number      2
_space_group_name_Hall           '-P 1'
loop_
_symmetry_equiv_pos_site_id
_symmetry_equiv_pos_as_xyz
1 x,y,z
2 -x,-y,-z
_cell_length_a                   8.4116(3)
_cell_length_b                   10.4562(5)
_cell_length_c                   10.4805(5)
_cell_angle_alpha                110.835(4)
_cell_angle_beta                 102.211(4)
_cell_angle_gamma                92.540(4)
_cell_volume                     834.784
_cell_formula_units_Z            2
loop_
_atom_site_label
_atom_site_type_symbol
_atom_site_fract_x
_atom_site_fract_y
_atom_site_fract_z
P1 P 0.10293(4) 0.26441(3) 0.19024(3)
O1 O 0.15189(11) 0.17115(9) 0.06438(9)
N1 N 0.08267(13) 0.24520(11) 0.43870(11)
C1 C 0.15376(14) 0.20119(12) 0.33287(12)
N2 N 0.30686(14) 0.04824(12) 0.41935(12)
C2 C 0.26604(16) 0.10282(14) 0.32364(13)
H1 H 0.31268(16) 0.07585(14) 0.24673(13)
C3 C 0.26915(19) 0.03492(15) 0.63569(15)
H2 H 0.34257(19) -0.02960(15) 0.63081(15)
C4 C 0.23297(16) 0.09021(13) 0.52899(13)
C5 C 0.04672(17) 0.22933(16) 0.65404(14)
H3 H -0.02728(17) 0.29354(16) 0.66097(14)
C6 C 0.27865(17) 0.51382(14) 0.39728(15)
H4 H 0.27287(17) 0.47605(14) 0.46448(15)
C7 C 0.12132(15) 0.18907(13) 0.53910(13)
C8 C -0.11400(15) 0.27425(13) 0.15810(13)
C9 C 0.20607(15) 0.43823(13) 0.25591(13)
C10 C -0.18201(17) 0.38768(16) 0.23252(15)
H5 H -0.11474(17) 0.46310(16) 0.30409(15)
C11 C -0.38404(17) 0.16283(15) 0.01950(15)
H6 H -0.45173(17) 0.08739(15) -0.05170(15)
C12 C -0.35127(19) 0.38790(18) 0.19946(17)
H7 H -0.39703(19) 0.46367(18) 0.24907(17)
C13 C 0.2974(2) 0.62807(16) 0.19807(18)
H8 H 0.3036(2) 0.66664(16) 0.13155(18)
C14 C -0.21539(16) 0.16126(13) 0.05131(14)
H9 H -0.17031(16) 0.08511(13) 0.00153(14)
C15 C 0.08386(18) 0.17352(16) 0.75477(14)
H10 H 0.03457(18) 0.19983(16) 0.83009(14)
C16 C -0.45191(17) 0.27546(17) 0.09275(16)
H11 H -0.56487(17) 0.27601(17) 0.07064(16)
C17 C 0.19602(19) 0.07659(15) 0.74554(15)
H12 H 0.22068(19) 0.04034(15) 0.81551(15)
C18 C 0.21678(18) 0.49594(14) 0.15593(15)
H13 H 0.16975(18) 0.44560(14) 0.06107(15)
C19 C 0.36895(18) 0.70291(15) 0.33941(19)
H14 H 0.42304(18) 0.79158(15) 0.36755(19)
C20 C 0.35987(19) 0.64599(15) 0.43788(18)
H15 H 0.40848(19) 0.69635(15) 0.53244(18)
loop_
_geom_bond_atom_site_label_1
_geom_bond_atom_site_label_2
_geom_bond_site_symmetry_1
_geom_bond_site_symmetry_2
P1 O1 1_555 1_555
N1 C1 1_555 1_555
C1 P1 1_555 1_555
N2 C2 1_555 1_555
C2 C1 1_555 1_555
H1 C2 1_555 1_555
C3 H2 1_555 1_555
C4 N2 1_555 1_555
C5 H3 1_555 1_555
C6 H4 1_555 1_555
C7 N1 1_555 1_555
C8 P1 1_555 1_555
C9 P1 1_555 1_555
C10 C8 1_555 1_555
H5 C10 1_555 1_555
C11 H6 1_555 1_555
C12 C10 1_555 1_555
H7 C12 1_555 1_555
C13 H8 1_555 1_555
C14 C8 1_555 1_555
H9 C14 1_555 1_555
C15 C5 1_555 1_555
H10 C15 1_555 1_555
C16 C11 1_555 1_555
H11 C16 1_555 1_555
C17 C3 1_555 1_555
H12 C17 1_555 1_555
C18 C9 1_555 1_555
H13 C18 1_555 1_555
C19 C13 1_555 1_555
H14 C19 1_555 1_555
C20 C6 1_555 1_555
H15 C20 1_555 1_555
C3 C4 1_555 1_555
C4 C7 1_555 1_555
C5 C7 1_555 1_555
C6 C9 1_555 1_555
C11 C14 1_555 1_555
C12 C16 1_555 1_555
C13 C18 1_555 1_555
C15 C17 1_555 1_555
C19 C20 1_555 1_555

#END
