
#######################################################################
#
#                 Cambridge Crystallographic Data Centre
#                                CCDC 
#
#######################################################################
#
# If this CIF has been generated from an entry in the Cambridge 
# Structural Database, then it will include bibliographic, chemical, 
# crystal, experimental, refinement or atomic coordinate data resulting 
# from the CCDC's data processing and validation procedures.
#
#######################################################################

data_LINCIX
_chemical_formula_moiety         'C26 H16 I4'
_chemical_name_systematic        
"1,1',1'',1'''-(ethene-1,1,2,2-tetrayl)tetrakis(4-iodobenzene) unknown solvate"
_symmetry_cell_setting           orthorhombic
_symmetry_space_group_name_H-M   'P 21 21 21'
_symmetry_Int_Tables_number      19
_space_group_name_Hall           'P 2ac 2ab'
loop_
_symmetry_equiv_pos_site_id
_symmetry_equiv_pos_as_xyz
1 x,y,z
2 1/2-x,-y,1/2+z
3 -x,1/2+y,1/2-z
4 1/2+x,1/2-y,-z
_cell_length_a                   9.8155(2)
_cell_length_b                   15.6764(2)
_cell_length_c                   22.6588(2)
_cell_angle_alpha                90
_cell_angle_beta                 90
_cell_angle_gamma                90
_cell_volume                     3486.55
_cell_formula_units_Z            4
loop_
_atom_site_label
_atom_site_type_symbol
_atom_site_fract_x
_atom_site_fract_y
_atom_site_fract_z
I1 I 0.72164(11) 0.06686(7) 0.64153(4)
I2 I 0.80702(12) 0.20623(7) 0.18029(4)
I3 I 0.47524(17) 0.53858(9) 0.70808(5)
I4 I 0.74228(15) 0.73958(8) 0.27120(7)
C1 C 0.6843(12) 0.5005(7) 0.4064(5)
C2 C 0.7774(14) 0.2552(7) 0.2660(5)
C3 C 0.6695(11) 0.4316(7) 0.4503(5)
C4 C 0.7316(11) 0.3170(6) 0.3776(5)
C5 C 0.6486(12) 0.2031(8) 0.4794(6)
H1 H 0.603859 0.191020 0.444154
C6 C 0.7185(13) 0.1585(7) 0.5742(5)
C7 C 0.7093(11) 0.2827(6) 0.4863(5)
C8 C 0.6359(13) 0.3299(8) 0.3342(5)
H2 H 0.556150 0.359703 0.342373
C9 C 0.6598(14) 0.2978(8) 0.2780(5)
H3 H 0.595170 0.305451 0.248464
C10 C 0.6169(13) 0.4588(7) 0.5096(5)
C11 C 0.8735(14) 0.2434(8) 0.3086(6)
H4 H 0.953957 0.214677 0.300051
C12 C 0.8503(12) 0.2743(7) 0.3643(5)
H5 H 0.915587 0.266228 0.393569
C13 C 0.6522(13) 0.1435(7) 0.5213(6)
H6 H 0.609703 0.091328 0.515009
C14 C 0.5781(13) 0.5574(8) 0.3959(7)
H7 H 0.495358 0.549517 0.415139
C15 C 0.7153(16) 0.6362(9) 0.3297(7)
C16 C 0.7782(13) 0.2954(7) 0.5389(5)
H8 H 0.821642 0.347453 0.544736
C17 C 0.8042(14) 0.5120(8) 0.3776(7)
H9 H 0.875120 0.473646 0.383524
C18 C 0.7857(14) 0.2360(8) 0.5824(5)
H10 H 0.834529 0.246664 0.616786
C19 C 0.7033(12) 0.3498(6) 0.4389(5)
C20 C 0.5926(14) 0.6253(8) 0.3576(7)
H11 H 0.520788 0.662755 0.350835
C21 C 0.5300(16) 0.5056(9) 0.6213(6)
C22 C 0.4676(15) 0.4389(8) 0.5919(7)
H12 H 0.396438 0.409561 0.609885
C23 C 0.5086(15) 0.4165(7) 0.5381(6)
H13 H 0.464710 0.371885 0.518843
C24 C 0.8227(16) 0.5819(8) 0.3384(7)
H14 H 0.905348 0.590505 0.319206
C25 C 0.6707(17) 0.5276(8) 0.5375(6)
H15 H 0.738394 0.558694 0.518445
C26 C 0.6295(19) 0.5534(10) 0.5925(7)
H16 H 0.666973 0.601542 0.610116
loop_
_geom_bond_atom_site_label_1
_geom_bond_atom_site_label_2
_geom_bond_site_symmetry_1
_geom_bond_site_symmetry_2
I1 C6 1_555 1_555
I2 C2 1_555 1_555
I3 C21 1_555 1_555
I4 C15 1_555 1_555
C1 C3 1_555 1_555
C2 C9 1_555 1_555
C3 C10 1_555 1_555
C4 C8 1_555 1_555
C5 H1 1_555 1_555
C6 C13 1_555 1_555
C7 C5 1_555 1_555
C8 H2 1_555 1_555
C9 C8 1_555 1_555
H3 C9 1_555 1_555
C10 C23 1_555 1_555
C11 C2 1_555 1_555
H4 C11 1_555 1_555
C12 C4 1_555 1_555
H5 C12 1_555 1_555
C13 C5 1_555 1_555
H6 C13 1_555 1_555
C14 C1 1_555 1_555
H7 C14 1_555 1_555
C15 C20 1_555 1_555
C16 C7 1_555 1_555
H8 C16 1_555 1_555
C17 C1 1_555 1_555
H9 C17 1_555 1_555
C18 C6 1_555 1_555
H10 C18 1_555 1_555
C19 C3 1_555 1_555
C20 C14 1_555 1_555
H11 C20 1_555 1_555
C21 C22 1_555 1_555
C22 H12 1_555 1_555
C23 C22 1_555 1_555
H13 C23 1_555 1_555
C24 C15 1_555 1_555
H14 C24 1_555 1_555
C25 C10 1_555 1_555
H15 C25 1_555 1_555
C26 C21 1_555 1_555
H16 C26 1_555 1_555
C4 C19 1_555 1_555
C7 C19 1_555 1_555
C11 C12 1_555 1_555
C16 C18 1_555 1_555
C17 C24 1_555 1_555
C25 C26 1_555 1_555

#END
