
#######################################################################
#
#                 Cambridge Crystallographic Data Centre
#                                CCDC 
#
#######################################################################
#
# If this CIF has been generated from an entry in the Cambridge 
# Structural Database, then it will include bibliographic, chemical, 
# crystal, experimental, refinement or atomic coordinate data resulting 
# from the CCDC's data processing and validation procedures.
#
#######################################################################

data_LINCET
_chemical_formula_moiety         'C26 H16 Br4'
_chemical_name_systematic        
"1,1',1'',1'''-(ethene-1,1,2,2-tetrayl)tetrakis(4-bromobenzene) unknown solvate"
_symmetry_cell_setting           orthorhombic
_symmetry_space_group_name_H-M   'P 21 21 21'
_symmetry_Int_Tables_number      19
_space_group_name_Hall           'P 2ac 2ab'
loop_
_symmetry_equiv_pos_site_id
_symmetry_equiv_pos_as_xyz
1 x,y,z
2 1/2-x,-y,1/2+z
3 -x,1/2+y,1/2-z
4 1/2+x,1/2-y,-z
_cell_length_a                   9.6034(2)
_cell_length_b                   15.4711(2)
_cell_length_c                   22.0743(3)
_cell_angle_alpha                90
_cell_angle_beta                 90
_cell_angle_gamma                90
_cell_volume                     3279.69
_cell_formula_units_Z            4
loop_
_atom_site_label
_atom_site_type_symbol
_atom_site_fract_x
_atom_site_fract_y
_atom_site_fract_z
Br1 Br 0.72063(8) 0.07192(5) 0.35781(3)
Br2 Br 0.80764(9) 0.20581(5) 0.81427(3)
Br3 Br 0.74620(9) 0.73615(5) 0.72461(4)
Br4 Br 0.47028(11) 0.54837(6) 0.29441(3)
C1 C 0.6855(5) 0.5022(3) 0.5932(2)
C2 C 0.7317(4) 0.3174(2) 0.62049(18)
C3 C 0.6689(4) 0.4324(3) 0.5474(2)
C4 C 0.7025(5) 0.3491(3) 0.55795(19)
C5 C 0.6158(5) 0.4622(3) 0.4870(2)
C6 C 0.8548(5) 0.2745(3) 0.6351(2)
H1 H 0.922023 0.267402 0.605210
C7 C 0.7084(4) 0.2817(2) 0.51049(19)
C8 C 0.8804(5) 0.2425(3) 0.6920(2)
H2 H 0.964268 0.215443 0.701070
C9 C 0.6496(5) 0.2003(3) 0.5188(2)
H3 H 0.607314 0.187332 0.555651
C10 C 0.5783(5) 0.5614(3) 0.6035(2)
H4 H 0.494408 0.555068 0.582942
C11 C 0.6563(5) 0.2927(3) 0.7240(2)
H5 H 0.589282 0.298680 0.754148
C12 C 0.6331(5) 0.3263(3) 0.6657(2)
H6 H 0.550092 0.354976 0.657385
C13 C 0.7771(6) 0.2519(3) 0.7355(2)
C14 C 0.7182(5) 0.1559(3) 0.4204(2)
C15 C 0.7212(6) 0.6393(3) 0.6721(3)
C16 C 0.6524(5) 0.1391(3) 0.4743(2)
H7 H 0.609559 0.085958 0.480467
C17 C 0.5070(5) 0.4210(3) 0.4584(2)
H8 H 0.464023 0.374352 0.477287
C18 C 0.8091(5) 0.5145(3) 0.6234(3)
H9 H 0.882376 0.476359 0.616619
C19 C 0.7764(5) 0.2969(3) 0.4553(2)
H10 H 0.818167 0.350339 0.448696
C20 C 0.5941(6) 0.6285(4) 0.6434(3)
H11 H 0.520743 0.666254 0.650994
C21 C 0.7829(5) 0.2352(3) 0.4107(2)
H12 H 0.829803 0.246139 0.374633
C22 C 0.4599(6) 0.4478(3) 0.4014(2)
H13 H 0.383992 0.421286 0.383006
C23 C 0.5288(6) 0.5143(4) 0.3735(2)
C24 C 0.8272(6) 0.5826(3) 0.6638(3)
H14 H 0.910658 0.589101 0.684660
C25 C 0.6740(6) 0.5330(3) 0.4595(2)
H15 H 0.743484 0.563684 0.479450
C26 C 0.6309(7) 0.5602(4) 0.4016(3)
H16 H 0.671005 0.608142 0.383108
loop_
_geom_bond_atom_site_label_1
_geom_bond_atom_site_label_2
_geom_bond_site_symmetry_1
_geom_bond_site_symmetry_2
Br1 C14 1_555 1_555
Br2 C13 1_555 1_555
Br3 C15 1_555 1_555
Br4 C23 1_555 1_555
C1 C3 1_555 1_555
C2 C4 1_555 1_555
C3 C4 1_555 1_555
C4 C7 1_555 1_555
C5 C3 1_555 1_555
C6 C2 1_555 1_555
H1 C6 1_555 1_555
C7 C9 1_555 1_555
C8 C6 1_555 1_555
H2 C8 1_555 1_555
C9 H3 1_555 1_555
C10 C1 1_555 1_555
H4 C10 1_555 1_555
C11 H5 1_555 1_555
C12 C2 1_555 1_555
H6 C12 1_555 1_555
C13 C8 1_555 1_555
C14 C16 1_555 1_555
C15 C20 1_555 1_555
C16 C9 1_555 1_555
H7 C16 1_555 1_555
C17 C5 1_555 1_555
H8 C17 1_555 1_555
C18 C1 1_555 1_555
H9 C18 1_555 1_555
C19 C7 1_555 1_555
H10 C19 1_555 1_555
C20 C10 1_555 1_555
H11 C20 1_555 1_555
C21 C14 1_555 1_555
H12 C21 1_555 1_555
C22 C17 1_555 1_555
H13 C22 1_555 1_555
C23 C22 1_555 1_555
C24 C15 1_555 1_555
H14 C24 1_555 1_555
C25 C5 1_555 1_555
H15 C25 1_555 1_555
C26 C23 1_555 1_555
H16 C26 1_555 1_555
C11 C12 1_555 1_555
C11 C13 1_555 1_555
C18 C24 1_555 1_555
C19 C21 1_555 1_555
C25 C26 1_555 1_555

#END
