
#######################################################################
#
#                 Cambridge Crystallographic Data Centre
#                                CCDC 
#
#######################################################################
#
# If this CIF has been generated from an entry in the Cambridge 
# Structural Database, then it will include bibliographic, chemical, 
# crystal, experimental, refinement or atomic coordinate data resulting 
# from the CCDC's data processing and validation procedures.
#
#######################################################################

data_LINGOH
_chemical_formula_moiety         'C13 H18 O4'
_chemical_name_systematic        
5-(1-hydroxyethyl)-2-(2-hydroxypropan-2-yl)-2,3-dihydro-1-benzofuran-3-ol
_symmetry_cell_setting           orthorhombic
_symmetry_space_group_name_H-M   'P 21 21 21'
_symmetry_Int_Tables_number      19
_space_group_name_Hall           'P 2ac 2ab'
loop_
_symmetry_equiv_pos_site_id
_symmetry_equiv_pos_as_xyz
1 x,y,z
2 1/2-x,-y,1/2+z
3 1/2+x,1/2-y,-z
4 -x,1/2+y,1/2-z
_cell_length_a                   6.8682(2)
_cell_length_b                   9.6210(4)
_cell_length_c                   18.8039(8)
_cell_angle_alpha                90
_cell_angle_beta                 90
_cell_angle_gamma                90
_cell_volume                     1242.54
_exptl_crystal_colour            colorless
_exptl_crystal_description       prism
_cell_formula_units_Z            4
loop_
_atom_site_label
_atom_site_type_symbol
_atom_site_fract_x
_atom_site_fract_y
_atom_site_fract_z
C1 C 0.2266(4) 0.5889(3) 0.33514(14)
H1 H 0.0962 0.6059 0.3250
C2 C 0.3134(4) 0.4628(3) 0.31422(13)
C3 C 0.5065(4) 0.4398(3) 0.33015(15)
H2 H 0.5635 0.3563 0.3165
C4 C 0.6184(4) 0.5370(3) 0.36581(18)
H3 H 0.7485 0.5199 0.3764
C5 C 0.5299(4) 0.6604(3) 0.38519(14)
C6 C 0.3360(4) 0.6870(3) 0.37069(13)
C7 C 0.2908(4) 0.8323(3) 0.39608(15)
H4 H 0.1765 0.8319 0.4273
C8 C 0.4774(4) 0.8680(3) 0.43902(14)
H5 H 0.4476 0.8547 0.4895
C9 C 0.5640(4) 1.0136(3) 0.43043(13)
C10 C 0.7618(5) 1.0244(3) 0.46702(17)
H6 H 0.8460 0.9523 0.4496
H7 H 0.7454 1.0141 0.5174
H8 H 0.8185 1.1135 0.4570
C11 C 0.4231(6) 1.1202(3) 0.46051(18)
H9 H 0.4756 1.2118 0.4540
H10 H 0.4041 1.1030 0.5103
H11 H 0.3006 1.1132 0.4362
C12 C 0.1965(4) 0.3523(3) 0.27534(15)
H12 H 0.2863 0.2799 0.2591
C13 C 0.0410(5) 0.2846(3) 0.32105(17)
H13 H -0.0466 0.3545 0.3385
H14 H 0.1014 0.2382 0.3605
H15 H -0.0302 0.2183 0.2931
O1 O 0.0996(3) 0.4088(3) 0.21470(11)
H16 H 0.172(6) 0.447(4) 0.192(2)
O2 O 0.6228(3) 0.76596(19) 0.41932(12)
O3 O 0.2632(4) 0.9265(2) 0.33838(14)
H17 H 0.164(6) 0.917(4) 0.3234(19)
O4 O 0.6024(3) 1.0426(2) 0.35709(9)
H18 H 0.5053 1.0249 0.3334
loop_
_geom_bond_atom_site_label_1
_geom_bond_atom_site_label_2
_geom_bond_site_symmetry_1
_geom_bond_site_symmetry_2
C1 H1 1_555 1_555
C2 C1 1_555 1_555
C3 C2 1_555 1_555
H2 C3 1_555 1_555
C4 C3 1_555 1_555
H3 C4 1_555 1_555
C5 C4 1_555 1_555
C6 C1 1_555 1_555
C7 C6 1_555 1_555
H4 C7 1_555 1_555
C8 C7 1_555 1_555
H5 C8 1_555 1_555
C9 C8 1_555 1_555
C10 C9 1_555 1_555
H6 C10 1_555 1_555
H7 C10 1_555 1_555
H8 C10 1_555 1_555
C11 C9 1_555 1_555
H9 C11 1_555 1_555
H10 C11 1_555 1_555
H11 C11 1_555 1_555
C12 C2 1_555 1_555
H12 C12 1_555 1_555
C13 C12 1_555 1_555
H13 C13 1_555 1_555
H14 C13 1_555 1_555
H15 C13 1_555 1_555
O1 C12 1_555 1_555
H16 O1 1_555 1_555
O2 C5 1_555 1_555
O3 C7 1_555 1_555
H17 O3 1_555 1_555
O4 C9 1_555 1_555
H18 O4 1_555 1_555
C5 C6 1_555 1_555
C8 O2 1_555 1_555

#END
