
#######################################################################
#
#                 Cambridge Crystallographic Data Centre
#                                CCDC 
#
#######################################################################
#
# If this CIF has been generated from an entry in the Cambridge 
# Structural Database, then it will include bibliographic, chemical, 
# crystal, experimental, refinement or atomic coordinate data resulting 
# from the CCDC's data processing and validation procedures.
#
#######################################################################

data_LINKOL
_chemical_name_common            'hydroxyikarugamycin A'
_chemical_formula_moiety         'C30 H42 N2 O8'
_chemical_name_systematic        
4,5,13,18-tetrahydroxy-3-(1-methoxyethyl)-2-methyl-2,3,3a,4,5,5a,5b,6,10,11,12,13,14,15,20a,21,21a,21b-octadecahydro-1H-14,17-methano-as-indaceno[3,2-k][1,6]diazacycloheptadecine-9,16,22-trione
_symmetry_cell_setting           monoclinic
_symmetry_space_group_name_H-M   'P 21'
_symmetry_Int_Tables_number      4
_space_group_name_Hall           'P 2yb'
loop_
_symmetry_equiv_pos_site_id
_symmetry_equiv_pos_as_xyz
1 x,y,z
2 -x,1/2+y,-z
_cell_length_a                   7.48710(10)
_cell_length_b                   11.17730(10)
_cell_length_c                   16.8503(2)
_cell_angle_alpha                90
_cell_angle_beta                 100.0260(10)
_cell_angle_gamma                90
_cell_volume                     1388.59
_exptl_crystal_colour            red
_exptl_crystal_description       needle
_cell_formula_units_Z            2
_chemical_properties_physical    
Heat-sensitive,Oxygen-sensitive,Light-sensitive
_exptl_crystal_recrystallization_method 'methanol / water'
loop_
_atom_site_label
_atom_site_type_symbol
_atom_site_fract_x
_atom_site_fract_y
_atom_site_fract_z
O1 O 0.8959(2) 0.2814(2) 0.80788(12)
H1 H 0.8849 0.3013 0.8536
O2 O 0.0849(3) 0.8206(2) 1.02009(12)
O3 O 0.8329(3) 0.0438(2) 0.74956(13)
H2 H 0.8617 -0.0073 0.7192
O4 O 0.0925(3) 0.6340(2) 0.92939(12)
H3 H 0.0770 0.6750 0.9680
O5 O 0.2438(3) 0.9165(2) 0.76811(12)
O6 O 0.8539(3) -0.1002(2) 0.62232(14)
O7 O 0.6910(3) 0.7284(2) 0.93307(13)
N1 N 0.1555(4) 0.9967(2) 0.95993(15)
H4 H 0.1404 1.0448 0.9981
C1 C 0.7256(3) 0.2385(3) 0.76551(15)
H5 H 0.6636 0.1970 0.8041
C2 C 0.1529(4) 0.7026(3) 0.87529(16)
C3 C 0.7682(3) 0.1471(3) 0.70424(16)
H6 H 0.8663 0.1787 0.6787
N2 N 0.7186(6) 0.9112(4) 0.8696(2)
H7 H 0.7289 0.9458 0.8250
O8 O 0.4277(5) 1.2005(3) 0.9199(2)
H8 H 0.4117 1.2105 0.9664
C4 C 0.4234(4) 0.1616(3) 0.66294(16)
H9 H 0.4126 0.1232 0.7142
C5 C 0.1276(4) 0.8784(3) 0.96247(17)
C6 C 0.6691(4) 0.5204(3) 0.82888(16)
H10 H 0.6239 0.5535 0.8748
H11 H 0.7861 0.4844 0.8490
C7 C 0.5636(4) -0.0080(3) 0.61038(17)
H12 H 0.5715 -0.0548 0.6601
C8 C 0.2214(4) 0.6424(3) 0.81081(16)
H13 H 0.2489 0.6888 0.7687
C9 C 0.2143(4) 1.0357(3) 0.88567(16)
H14 H 0.1334 1.0968 0.8573
C10 C 0.6035(4) 0.3414(3) 0.72796(15)
H15 H 0.6710 0.3905 0.6951
C11 C 0.6978(4) -0.0663(3) 0.56326(17)
H16 H 0.6423 -0.1389 0.5372
C12 C 0.6015(3) 0.1226(3) 0.63779(15)
H17 H 0.6165 0.1696 0.5903
C13 C 0.6969(4) 0.6209(3) 0.77389(16)
H18 H 0.7043 0.6003 0.7211
C14 C 0.2090(4) 0.9199(3) 0.83694(16)
C15 C 0.1580(4) 0.8247(3) 0.88687(16)
C16 C 0.2476(4) 0.5242(3) 0.80785(17)
H19 H 0.1993 0.4760 0.8438
C17 C 0.3496(4) 0.4657(3) 0.75038(16)
H20 H 0.3646 0.5229 0.7080
C18 C 0.6998(4) 0.7893(3) 0.87213(18)
C19 C 0.4242(4) 0.2965(3) 0.67373(16)
H21 H 0.4181 0.3326 0.6203
C20 C 0.5396(4) 0.4218(3) 0.79213(15)
H22 H 0.5204 0.3693 0.8365
C21 C 0.3581(4) -0.0091(3) 0.57075(17)
H23 H 0.3002 -0.0737 0.5963
C22 C 0.2689(4) 0.3492(3) 0.71106(17)
H24 H 0.2342 0.2954 0.7509
H25 H 0.1636 0.3653 0.6701
C23 C 0.7122(4) 0.7366(3) 0.79235(17)
H26 H 0.7323 0.7889 0.7519
C24 C 0.2806(4) 0.1093(3) 0.59606(18)
H27 H 0.2570 0.1638 0.5507
H28 H 0.1680 0.0953 0.6156
C25 C 0.9502(4) -0.2004(3) 0.6016(2)
H29 H 0.9887 -0.1860 0.5509
H30 H 0.8730 -0.2696 0.5970
H31 H 1.0544 -0.2139 0.6426
C26 C 0.7604(4) 0.0116(3) 0.4998(2)
H32 H 0.8276 0.0785 0.5253
H33 H 0.6568 0.0401 0.4629
H34 H 0.8366 -0.0344 0.4709
C27 C 0.3109(4) -0.0282(4) 0.4799(2)
H35 H 0.3624 0.0352 0.4527
H36 H 0.1815 -0.0283 0.4636
H37 H 0.3592 -0.1035 0.4662
C28 C 0.4116(9) 1.0759(10) 0.9003(4)
H38 H 0.4554 1.0658 0.8491
C29 C 0.5320(6) 0.9988(4) 0.9621(2)
H39 H 0.4753 0.9212 0.9648
H40 H 0.5424 1.0360 1.0147
C30 C 0.7212(5) 0.9814(4) 0.9420(2)
H41 H 0.7740 1.0591 0.9349
H42 H 0.7973 0.9419 0.9868
H43? H 0.1145 1.0846 0.8574
N3? N 0.6523(13) 0.9026(9) 0.8846(6)
H44? H 0.6437 0.9501 0.8440
C31? C 0.6140(14) 0.9540(9) 0.9586(5)
H45? H 0.7221 0.9470 0.9994
H46? H 0.5199 0.9065 0.9764
C32? C 0.5547(12) 1.0826(9) 0.9546(5)
H47? H 0.6543 1.1304 0.9422
H48? H 0.5360 1.1059 1.0080
O9? O 0.3449(11) 1.2420(7) 0.9077(4)
H49? H 0.3212 1.2506 0.9531
C33? C 0.3846(17) 1.1170(13) 0.8950(9)
H50? H 0.4220 1.1150 0.8421
loop_
_geom_bond_atom_site_label_1
_geom_bond_atom_site_label_2
_geom_bond_site_symmetry_1
_geom_bond_site_symmetry_2
O1 H1 1_555 1_555
O2 C5 1_555 1_555
O3 H2 1_555 1_555
O4 H3 1_555 1_555
O5 C14 1_555 1_555
O6 C11 1_555 1_555
O7 C18 1_555 1_555
N1 H4 1_555 1_555
C1 O1 1_555 1_555
H5 C1 1_555 1_555
C2 O4 1_555 1_555
C3 O3 1_555 1_555
H6 C3 1_555 1_555
N2 H7 1_555 1_555
O8 H8 1_555 1_555
C4 H9 1_555 1_555
C5 N1 1_555 1_555
C6 H10 1_555 1_555
H11 C6 1_555 1_555
C7 H12 1_555 1_555
C8 C2 1_555 1_555
H13 C8 1_555 1_555
C9 N1 1_555 1_555
H14 C9 1_555 1_555
C10 C1 1_555 1_555
H15 C10 1_555 1_555
C11 C7 1_555 1_555
H16 C11 1_555 1_555
C12 C3 1_555 1_555
H17 C12 1_555 1_555
C13 C6 1_555 1_555
H18 C13 1_555 1_555
C14 C9 1_555 1_555
C15 C2 1_555 1_555
C16 C8 1_555 1_555
H19 C16 1_555 1_555
C17 C16 1_555 1_555
H20 C17 1_555 1_555
C18 N2 1_555 1_555
C19 C4 1_555 1_555
H21 C19 1_555 1_555
C20 C6 1_555 1_555
H22 C20 1_555 1_555
C21 C7 1_555 1_555
H23 C21 1_555 1_555
C22 C17 1_555 1_555
H24 C22 1_555 1_555
H25 C22 1_555 1_555
C23 C13 1_555 1_555
H26 C23 1_555 1_555
C24 C4 1_555 1_555
H27 C24 1_555 1_555
H28 C24 1_555 1_555
C25 O6 1_555 1_555
H29 C25 1_555 1_555
H30 C25 1_555 1_555
H31 C25 1_555 1_555
C26 C11 1_555 1_555
H32 C26 1_555 1_555
H33 C26 1_555 1_555
H34 C26 1_555 1_555
C27 C21 1_555 1_555
H35 C27 1_555 1_555
H36 C27 1_555 1_555
H37 C27 1_555 1_555
C28 O8 1_555 1_555
H38 C28 1_555 1_555
C29 C28 1_555 1_555
H39 C29 1_555 1_555
H40 C29 1_555 1_555
C30 N2 1_555 1_555
H41 C30 1_555 1_555
H42 C30 1_555 1_555
C1 C3 1_555 1_555
C4 C12 1_555 1_555
C5 C15 1_555 1_555
C7 C12 1_555 1_555
C9 C28 1_555 1_555
C10 C19 1_555 1_555
C10 C20 1_555 1_555
C14 C15 1_555 1_555
C17 C20 1_555 1_555
C18 C23 1_555 1_555
C19 C22 1_555 1_555
C21 C24 1_555 1_555
C29 C30 1_555 1_555

#END
