
#######################################################################
#
#                 Cambridge Crystallographic Data Centre
#                                CCDC 
#
#######################################################################
#
# If this CIF has been generated from an entry in the Cambridge 
# Structural Database, then it will include bibliographic, chemical, 
# crystal, experimental, refinement or atomic coordinate data resulting 
# from the CCDC's data processing and validation procedures.
#
#######################################################################

data_LINKEY
_chemical_formula_moiety         'C17 H16 N4'
_chemical_name_systematic        
(Z)-(4-(1-Cyano-3-(diethyliminio)-1-propenyl)phenyl)dicyanomethanide
_symmetry_cell_setting           triclinic
_symmetry_space_group_name_H-M   'P -1'
_symmetry_Int_Tables_number      2
_space_group_name_Hall           '-P 1'
loop_
_symmetry_equiv_pos_site_id
_symmetry_equiv_pos_as_xyz
1 x,y,z
2 -x,-y,-z
_cell_length_a                   7.221(2)
_cell_length_b                   7.2620(10)
_cell_length_c                   14.670(2)
_cell_angle_alpha                76.970(10)
_cell_angle_beta                 82.280(10)
_cell_angle_gamma                79.400(10)
_cell_volume                     733.21
_exptl_crystal_colour            'Emerald green'
_chemical_melting_point          527K(dec.)
_cell_formula_units_Z            2
loop_
_atom_site_label
_atom_site_type_symbol
_atom_site_fract_x
_atom_site_fract_y
_atom_site_fract_z
N1 N -0.6559(3) 0.4289(3) 0.74852(13)
C1 C -0.4926(3) 0.3955(3) 0.74316(14)
C2 C -0.2921(3) 0.3543(3) 0.73463(13)
C3 C -0.2013(3) 0.3549(3) 0.81468(14)
N2 N -0.1273(3) 0.3526(3) 0.88030(12)
C4 C -0.1874(3) 0.3181(3) 0.64966(13)
C5 C 0.0132(3) 0.2805(3) 0.64052(14)
H1 H 0.0801(15) 0.2810(3) 0.6922(12)
C6 C 0.1121(3) 0.2435(3) 0.55867(13)
H2 H 0.2522(30) 0.2156(7) 0.5548(2)
C7 C 0.0195(3) 0.2440(3) 0.47906(13)
C8 C -0.1810(3) 0.2822(3) 0.48821(14)
H3 H -0.2505(15) 0.2839(3) 0.4340(12)
C9 C -0.2802(3) 0.3168(3) 0.57009(13)
H4 H -0.4187(30) 0.3414(6) 0.5743(2)
C10 C 0.1240(3) 0.2062(3) 0.39376(13)
C11 C 0.3288(3) 0.1607(3) 0.39281(13)
N3 N 0.4914(3) 0.1275(3) 0.38767(12)
C12 C 0.0497(3) 0.2128(3) 0.31042(13)
H5 H -0.0847(30) 0.2551(10) 0.3059(2)
C13 C 0.1645(3) 0.1597(3) 0.23282(13)
H6 H 0.3061(29) 0.1101(10) 0.2415(2)
N4 N 0.1100(2) 0.1666(2) 0.14989(11)
C14 C 0.2484(3) 0.1027(3) 0.07522(14)
H7 H 0.1878(9) 0.0242(12) 0.0413(5)
H8 H 0.3622(17) 0.0161(13) 0.1050(4)
C15 C 0.3159(3) 0.2695(3) 0.00435(15)
H9 H 0.2044(14) 0.3507(16) -0.0291(8)
H10 H 0.4161(20) 0.2189(7) -0.0436(8)
H11 H 0.3722(20) 0.3509(16) 0.0382(4)
C16 C -0.0853(3) 0.2446(3) 0.12588(14)
H12 H -0.0839(3) 0.2925(8) 0.0546(10)
H13 H -0.1363(8) 0.3590(17) 0.1570(5)
C17 C -0.2167(3) 0.0956(4) 0.1578(2)
H14 H -0.2313(17) 0.0593(16) 0.2298(9)
H15 H -0.1605(12) -0.0239(17) 0.1312(9)
H16 H -0.3466(17) 0.1510(10) 0.1339(9)
loop_
_geom_bond_atom_site_label_1
_geom_bond_atom_site_label_2
_geom_bond_site_symmetry_1
_geom_bond_site_symmetry_2
N1 C1 1_555 1_555
C1 C2 1_555 1_555
C2 C3 1_555 1_555
C3 N2 1_555 1_555
C4 C2 1_555 1_555
C5 C4 1_555 1_555
H1 C5 1_555 1_555
C6 C5 1_555 1_555
H2 C6 1_555 1_555
C7 C6 1_555 1_555
C8 C7 1_555 1_555
H3 C8 1_555 1_555
C9 C4 1_555 1_555
H4 C9 1_555 1_555
C10 C7 1_555 1_555
C11 C10 1_555 1_555
N3 C11 1_555 1_555
C12 C10 1_555 1_555
H5 C12 1_555 1_555
C13 C12 1_555 1_555
H6 C13 1_555 1_555
N4 C13 1_555 1_555
C14 N4 1_555 1_555
H7 C14 1_555 1_555
H8 C14 1_555 1_555
C15 C14 1_555 1_555
H9 C15 1_555 1_555
H10 C15 1_555 1_555
H11 C15 1_555 1_555
C16 N4 1_555 1_555
H12 C16 1_555 1_555
H13 C16 1_555 1_555
C17 C16 1_555 1_555
H14 C17 1_555 1_555
H15 C17 1_555 1_555
H16 C17 1_555 1_555
C8 C9 1_555 1_555

#END
