
#######################################################################
#
#                 Cambridge Crystallographic Data Centre
#                                CCDC 
#
#######################################################################
#
# If this CIF has been generated from an entry in the Cambridge 
# Structural Database, then it will include bibliographic, chemical, 
# crystal, experimental, refinement or atomic coordinate data resulting 
# from the CCDC's data processing and validation procedures.
#
#######################################################################

data_LINPUW
_chemical_formula_moiety         'C29 H25 B1 O1'
_chemical_name_systematic        
'[2-(anthracen-9-yl)phenyl](2,4,6-trimethylphenyl)borinic acid'
_symmetry_cell_setting           monoclinic
_symmetry_space_group_name_H-M   'P 21/c'
_symmetry_Int_Tables_number      14
_space_group_name_Hall           '-P 2ybc'
loop_
_symmetry_equiv_pos_site_id
_symmetry_equiv_pos_as_xyz
1 x,y,z
2 -x,1/2+y,1/2-z
3 -x,-y,-z
4 x,1/2-y,1/2+z
_cell_length_a                   7.9345(5)
_cell_length_b                   30.5017(18)
_cell_length_c                   19.0417(16)
_cell_angle_alpha                90
_cell_angle_beta                 100.386(7)
_cell_angle_gamma                90
_cell_volume                     4532.89
_exptl_crystal_colour            colorless
_exptl_crystal_description       block
_cell_formula_units_Z            8
loop_
_atom_site_label
_atom_site_type_symbol
_atom_site_fract_x
_atom_site_fract_y
_atom_site_fract_z
O1 O 0.7352(3) 0.14151(8) 0.10417(18)
H1 H 0.6623 0.1256 0.1187
C1 C 1.0297(4) 0.14189(10) 0.07562(16)
C2 C 1.1446(4) 0.11745(12) 0.04325(17)
H2 H 1.1261 0.0868 0.0368
C3 C 1.2827(5) 0.13610(14) 0.02057(19)
H3 H 1.3551 0.1187 -0.0028
C4 C 1.3163(5) 0.17994(14) 0.0317(2)
H4 H 1.4135 0.1929 0.0172
C5 C 1.2079(4) 0.20491(12) 0.06392(18)
H5 H 1.2310 0.2353 0.0715
C6 C 1.0652(4) 0.18679(11) 0.08574(16)
C7 C 0.9545(4) 0.21758(10) 0.11967(18)
C8 C 0.8246(4) 0.24133(10) 0.0752(2)
C9 C 0.7898(5) 0.23669(12) -0.0001(2)
H6 H 0.8551 0.2166 -0.0224
C10 C 0.6648(5) 0.26048(14) -0.0407(3)
H7 H 0.6455 0.2572 -0.0912
C11 C 0.5629(6) 0.28997(15) -0.0100(3)
H8 H 0.4747 0.3061 -0.0393
C12 C 0.5919(6) 0.29507(13) 0.0616(3)
H9 H 0.5212 0.3147 0.0820
C13 C 0.7234(5) 0.27229(11) 0.1074(3)
C14 C 0.7608(6) 0.27846(12) 0.1808(3)
H10 H 0.6949 0.2990 0.2018
C15 C 0.8895(5) 0.25603(13) 0.2245(2)
C16 C 0.9269(7) 0.26275(17) 0.3001(3)
H11 H 0.8644 0.2842 0.3210
C17 C 1.0481(7) 0.23942(19) 0.3421(3)
H12 H 1.0701 0.2442 0.3922
C18 C 1.1434(6) 0.20764(17) 0.3120(2)
H13 H 1.2284 0.1910 0.3421
C19 C 1.1148(5) 0.20072(14) 0.2409(2)
H14 H 1.1817 0.1795 0.2219
C20 C 0.9881(4) 0.22417(11) 0.1939(2)
C21 C 0.8755(4) 0.06661(11) 0.11412(19)
C22 C 0.9426(4) 0.05115(12) 0.18275(19)
C23 C 0.9425(4) 0.00637(12) 0.1964(2)
H15 H 0.9906 -0.0037 0.2429
C24 C 0.8760(5) -0.02394(12) 0.1456(2)
C25 C 0.8085(5) -0.00837(13) 0.0786(2)
H16 H 0.7606 -0.0287 0.0427
C26 C 0.8078(4) 0.03598(12) 0.06128(19)
C27 C 0.7324(8) 0.05058(17) -0.0141(2)
H17 H 0.6421 0.0301 -0.0352
H18 H 0.8227 0.0510 -0.0431
H19 H 0.6839 0.0800 -0.0128
C28 C 1.0133(6) 0.08258(14) 0.2419(2)
H20 H 1.0261 0.0674 0.2879
H21 H 0.9344 0.1073 0.2415
H22 H 1.1252 0.0934 0.2347
C29 C 0.8734(8) -0.07259(13) 0.1624(3)
H23 H 0.9353 -0.0778 0.2111
H24 H 0.9286 -0.0889 0.1285
H25 H 0.7545 -0.0824 0.1585
B1 B 0.8747(5) 0.11719(13) 0.0981(2)
O2 O 0.2977(4) 0.02708(8) 0.68751(19)
H26 H 0.2357 0.0124 0.7102
C30 C 0.5833(4) 0.02437(11) 0.64682(16)
C31 C 0.7108(4) -0.00282(12) 0.62873(18)
H27 H 0.6978 -0.0337 0.6320
C32 C 0.8544(4) 0.01324(13) 0.60631(19)
H28 H 0.9368 -0.0063 0.5932
C33 C 0.8772(4) 0.05783(12) 0.60306(19)
H29 H 0.9785 0.0693 0.5900
C34 C 0.7533(4) 0.08594(12) 0.61875(17)
H30 H 0.7690 0.1167 0.6156
C35 C 0.6050(4) 0.06982(10) 0.63925(16)
C36 C 0.4729(4) 0.10246(11) 0.6525(2)
C37 C 0.4872(6) 0.12224(12) 0.7194(2)
C38 C 0.6218(8) 0.11189(16) 0.7767(3)
H31 H 0.7045 0.0905 0.7699
C39 C 0.6345(11) 0.1318(2) 0.8406(3)
H32 H 0.7272 0.1247 0.8778
C40 C 0.5132(14) 0.1631(3) 0.8533(4)
H33 H 0.5221 0.1763 0.8989
C41 C 0.3848(11) 0.1740(2) 0.8003(5)
H34 H 0.3048 0.1955 0.8095
C42 C 0.3621(8) 0.15507(14) 0.7305(3)
C43 C 0.2330(7) 0.16586(16) 0.6745(4)
H35 H 0.1504 0.1870 0.6824
C44 C 0.2182(5) 0.14734(13) 0.6075(3)
C45 C 0.0896(6) 0.16071(16) 0.5487(4)
H36 H 0.0079 0.1823 0.5558
C46 C 0.0834(7) 0.14328(18) 0.4844(4)
H37 H -0.0009 0.1534 0.4459
C47 C 0.1972(5) 0.11050(16) 0.4716(3)
H38 H 0.1884 0.0979 0.4255
C48 C 0.3214(4) 0.09681(13) 0.5266(2)
H39 H 0.3984 0.0745 0.5177
C49 C 0.4369(4) -0.04766(10) 0.69794(18)
C50 C 0.5101(4) -0.06153(11) 0.76694(18)
C51 C 0.5129(4) -0.10593(12) 0.7838(2)
H40 H 0.5632 -0.1150 0.8306
C52 C 0.4445(4) -0.13724(12) 0.7343(2)
C53 C 0.3750(4) -0.12318(12) 0.6665(2)
H41 H 0.3281 -0.1443 0.6318
C54 C 0.3709(4) -0.07949(12) 0.64704(18)
C55 C 0.2924(6) -0.06640(17) 0.5717(2)
H42 H 0.1745 -0.0564 0.5704
H43 H 0.2922 -0.0917 0.5399
H44 H 0.3596 -0.0426 0.5558
C56 C 0.5813(6) -0.02810(14) 0.8236(2)
H45 H 0.4879 -0.0096 0.8340
H46 H 0.6666 -0.0098 0.8062
H47 H 0.6353 -0.0433 0.8672
C57 C 0.4385(6) -0.18507(12) 0.7551(3)
H48 H 0.5050 -0.1893 0.8032
H49 H 0.4874 -0.2031 0.7212
H50 H 0.3193 -0.1938 0.7544
C58 C 0.3399(4) 0.11446(11) 0.5961(2)
B2 B 0.4327(5) 0.00228(14) 0.6768(2)
loop_
_geom_bond_atom_site_label_1
_geom_bond_atom_site_label_2
_geom_bond_site_symmetry_1
_geom_bond_site_symmetry_2
O1 H1 1_555 1_555
C1 C2 1_555 1_555
C2 H2 1_555 1_555
C3 C2 1_555 1_555
H3 C3 1_555 1_555
C4 C3 1_555 1_555
H4 C4 1_555 1_555
C5 C4 1_555 1_555
H5 C5 1_555 1_555
C6 C1 1_555 1_555
C7 C6 1_555 1_555
C8 C7 1_555 1_555
C9 C8 1_555 1_555
H6 C9 1_555 1_555
C10 C9 1_555 1_555
H7 C10 1_555 1_555
C11 C10 1_555 1_555
H8 C11 1_555 1_555
C12 C11 1_555 1_555
H9 C12 1_555 1_555
C13 C8 1_555 1_555
C14 C13 1_555 1_555
H10 C14 1_555 1_555
C15 C14 1_555 1_555
C16 C15 1_555 1_555
H11 C16 1_555 1_555
C17 C16 1_555 1_555
H12 C17 1_555 1_555
C18 C17 1_555 1_555
H13 C18 1_555 1_555
C19 C18 1_555 1_555
H14 C19 1_555 1_555
C20 C7 1_555 1_555
C21 C22 1_555 1_555
C22 C23 1_555 1_555
C23 H15 1_555 1_555
C24 C23 1_555 1_555
C25 C24 1_555 1_555
H16 C25 1_555 1_555
C26 C21 1_555 1_555
C27 C26 1_555 1_555
H17 C27 1_555 1_555
H18 C27 1_555 1_555
H19 C27 1_555 1_555
C28 C22 1_555 1_555
H20 C28 1_555 1_555
H21 C28 1_555 1_555
H22 C28 1_555 1_555
C29 C24 1_555 1_555
H23 C29 1_555 1_555
H24 C29 1_555 1_555
H25 C29 1_555 1_555
B1 O1 1_555 1_555
O2 H26 1_555 1_555
C30 C31 1_555 1_555
C31 H27 1_555 1_555
C32 C31 1_555 1_555
H28 C32 1_555 1_555
C33 C32 1_555 1_555
H29 C33 1_555 1_555
C34 C33 1_555 1_555
H30 C34 1_555 1_555
C35 C30 1_555 1_555
C36 C35 1_555 1_555
C37 C36 1_555 1_555
C38 C37 1_555 1_555
H31 C38 1_555 1_555
C39 C38 1_555 1_555
H32 C39 1_555 1_555
C40 C39 1_555 1_555
H33 C40 1_555 1_555
C41 C40 1_555 1_555
H34 C41 1_555 1_555
C42 C37 1_555 1_555
C43 C42 1_555 1_555
H35 C43 1_555 1_555
C44 C43 1_555 1_555
C45 C44 1_555 1_555
H36 C45 1_555 1_555
C46 C45 1_555 1_555
H37 C46 1_555 1_555
C47 C46 1_555 1_555
H38 C47 1_555 1_555
C48 C47 1_555 1_555
H39 C48 1_555 1_555
C49 C50 1_555 1_555
C50 C51 1_555 1_555
C51 H40 1_555 1_555
C52 C51 1_555 1_555
C53 C52 1_555 1_555
H41 C53 1_555 1_555
C54 C49 1_555 1_555
C55 C54 1_555 1_555
H42 C55 1_555 1_555
H43 C55 1_555 1_555
H44 C55 1_555 1_555
C56 C50 1_555 1_555
H45 C56 1_555 1_555
H46 C56 1_555 1_555
H47 C56 1_555 1_555
C57 C52 1_555 1_555
H48 C57 1_555 1_555
H49 C57 1_555 1_555
H50 C57 1_555 1_555
C58 C36 1_555 1_555
B2 O2 1_555 1_555
C1 B1 1_555 1_555
C5 C6 1_555 1_555
C12 C13 1_555 1_555
C15 C20 1_555 1_555
C19 C20 1_555 1_555
C21 B1 1_555 1_555
C25 C26 1_555 1_555
C30 B2 1_555 1_555
C34 C35 1_555 1_555
C41 C42 1_555 1_555
C44 C58 1_555 1_555
C48 C58 1_555 1_555
C49 B2 1_555 1_555
C53 C54 1_555 1_555

#END
