
#######################################################################
#
#                 Cambridge Crystallographic Data Centre
#                                CCDC 
#
#######################################################################
#
# If this CIF has been generated from an entry in the Cambridge 
# Structural Database, then it will include bibliographic, chemical, 
# crystal, experimental, refinement or atomic coordinate data resulting 
# from the CCDC's data processing and validation procedures.
#
#######################################################################

data_LINQAD
_chemical_name_common            
'(2.2.2)cryptand-potassium bis(mu-[2-(anthracen-9-yl)phenyl](2,4,6-trimethylphenyl)borinato radical)-tris(tetrahydrofuran)-tri-potassium tetrahydrofuran solvate'
_chemical_formula_moiety         
'C18 H36 K1 N2 O6 1+,C66 H64 B2 K3 O4 1-,2(C4 H8 O1)'
_chemical_name_systematic        
'(4,7,13,16,21,24-hexaoxa-1,10-diazabicyclo[8.8.8]hexacosane)-potassium bis(\m-[2-(anthracen-9-yl)phenyl](2,4,6-trimethylphenyl)borinato radical)-tris(tetrahydrofuran)-tri-potassium tetrahydrofuran solvate'
_symmetry_cell_setting           triclinic
_symmetry_space_group_name_H-M   'P -1'
_symmetry_Int_Tables_number      2
_space_group_name_Hall           '-P 1'
loop_
_symmetry_equiv_pos_site_id
_symmetry_equiv_pos_as_xyz
1 x,y,z
2 -x,-y,-z
_cell_length_a                   15.407(3)
_cell_length_b                   16.279(2)
_cell_length_c                   18.055(3)
_cell_angle_alpha                73.967(13)
_cell_angle_beta                 79.969(14)
_cell_angle_gamma                88.923(13)
_cell_volume                     4283.66
_exptl_crystal_colour            'dark blue'
_exptl_crystal_description       block
_cell_formula_units_Z            2
loop_
_atom_site_label
_atom_site_type_symbol
_atom_site_fract_x
_atom_site_fract_y
_atom_site_fract_z
K1 K 0.79767(8) 0.07666(7) 0.35484(6)
K2 K 0.93166(8) 0.20749(7) 0.15224(6)
K3 K 0.71867(8) 0.27680(8) 0.23964(7)
O1 O 0.7748(2) 0.1393(2) 0.19563(18)
O2 O 0.8623(2) 0.2321(2) 0.30010(18)
O3 O 1.0410(3) 0.0708(3) 0.1394(2)
O4 O 0.9286(3) -0.0335(3) 0.3873(3)
C1 C 0.6945(3) 0.0894(3) 0.1000(3)
C2 C 0.6458(4) 0.0204(3) 0.0936(3)
H1 H 0.6367 -0.0294 0.1367
C3 C 0.6100(4) 0.0204(4) 0.0282(3)
H2 H 0.5792 -0.0288 0.0262
C4 C 0.6202(4) 0.0936(4) -0.0342(3)
H3 H 0.5941 0.0965 -0.0787
C5 C 0.6681(4) 0.1614(4) -0.0307(3)
H4 H 0.6770 0.2104 -0.0746
C6 C 0.7043(3) 0.1618(3) 0.0340(3)
C7 C 0.7544(4) 0.2405(3) 0.0320(3)
C8 C 0.7091(4) 0.3037(4) 0.0634(3)
C9 C 0.6184(5) 0.2944(4) 0.0956(3)
H5 H 0.5866 0.2447 0.0965
C10 C 0.5749(5) 0.3561(5) 0.1259(3)
H6 H 0.5137 0.3488 0.1468
C11 C 0.6201(6) 0.4277(5) 0.1259(4)
H7 H 0.5892 0.4702 0.1460
C12 C 0.7081(6) 0.4395(4) 0.0977(4)
H8 H 0.7381 0.4889 0.1001
C13 C 0.7561(5) 0.3779(4) 0.0645(3)
C14 C 0.8451(6) 0.3868(4) 0.0349(4)
H9 H 0.8767 0.4345 0.0389
C15 C 0.8917(4) 0.3285(4) -0.0009(3)
C16 C 0.9805(5) 0.3374(5) -0.0338(4)
H10 H 1.0133 0.3849 -0.0308
C17 C 1.0228(5) 0.2813(5) -0.0702(4)
H11 H 1.0837 0.2907 -0.0919
C18 C 0.9781(4) 0.2097(5) -0.0761(4)
H12 H 1.0071 0.1717 -0.1032
C19 C 0.8904(4) 0.1966(4) -0.0412(3)
H13 H 0.8601 0.1469 -0.0426
C20 C 0.8445(4) 0.2526(4) -0.0040(3)
C21 C 0.7006(3) -0.0032(3) 0.2520(3)
C22 C 0.6278(4) -0.0024(4) 0.3106(3)
C23 C 0.6160(4) -0.0644(4) 0.3826(3)
H14 H 0.5669 -0.0620 0.4218
C24 C 0.6745(4) -0.1291(4) 0.3975(3)
C25 C 0.7433(4) -0.1341(3) 0.3387(3)
H15 H 0.7822 -0.1803 0.3480
C26 C 0.7571(4) -0.0732(3) 0.2662(3)
C27 C 0.8307(4) -0.0800(3) 0.2025(3)
H16 H 0.8658 -0.0264 0.1834
H17 H 0.8064 -0.0911 0.1595
H18 H 0.8683 -0.1271 0.2231
C28 C 0.5621(4) 0.0686(4) 0.2961(3)
H19 H 0.5809 0.1166 0.3132
H20 H 0.5037 0.0470 0.3257
H21 H 0.5595 0.0879 0.2401
C29 C 0.6650(4) -0.1941(4) 0.4773(3)
H22 H 0.6946 -0.1717 0.5118
H23 H 0.6921 -0.2475 0.4716
H24 H 0.6024 -0.2051 0.5000
C30 C 0.9100(4) 0.3148(3) 0.3913(3)
C31 C 0.9800(4) 0.3648(3) 0.3988(3)
H25 H 1.0307 0.3764 0.3588
C32 C 0.9779(4) 0.3977(3) 0.4621(3)
H26 H 1.0255 0.4329 0.4641
C33 C 0.9071(4) 0.3791(4) 0.5217(3)
H27 H 0.9060 0.4006 0.5657
C34 C 0.8370(4) 0.3295(3) 0.5185(3)
H28 H 0.7884 0.3164 0.5606
C35 C 0.8372(4) 0.2982(3) 0.4529(3)
C36 C 0.7562(4) 0.2493(4) 0.4522(3)
C37 C 0.6919(4) 0.2914(4) 0.4117(3)
C38 C 0.6998(4) 0.3783(4) 0.3694(3)
H29 H 0.7507 0.4106 0.3688
C39 C 0.6345(4) 0.4187(4) 0.3280(3)
H30 H 0.6413 0.4775 0.2997
C40 C 0.5602(4) 0.3720(5) 0.3290(3)
H31 H 0.5153 0.3990 0.3017
C41 C 0.5509(4) 0.2884(5) 0.3685(3)
H32 H 0.4994 0.2581 0.3671
C42 C 0.6138(4) 0.2428(5) 0.4120(3)
C43 C 0.6047(4) 0.1566(4) 0.4528(3)
H33 H 0.5534 0.1254 0.4523
C44 C 0.6683(4) 0.1143(4) 0.4943(3)
C45 C 0.6600(5) 0.0266(4) 0.5357(4)
H34 H 0.6084 -0.0048 0.5363
C46 C 0.7239(5) -0.0150(4) 0.5752(3)
H35 H 0.7166 -0.0742 0.6022
C47 C 0.7988(4) 0.0301(4) 0.5750(3)
H36 H 0.8435 0.0023 0.6022
C48 C 0.8087(4) 0.1152(4) 0.5356(3)
H37 H 0.8609 0.1449 0.5364
C49 C 0.7461(4) 0.1610(4) 0.4941(3)
C50 C 1.0081(4) 0.3079(3) 0.2515(3)
C51 C 1.0783(4) 0.2561(4) 0.2473(3)
C52 C 1.1447(4) 0.2718(4) 0.1809(3)
H38 H 1.1929 0.2346 0.1800
C53 C 1.1410(4) 0.3404(4) 0.1169(3)
C54 C 1.0731(5) 0.3952(4) 0.1218(3)
H39 H 1.0711 0.4444 0.0790
C55 C 1.0071(4) 0.3811(3) 0.1875(3)
C56 C 0.9360(4) 0.4439(4) 0.1900(3)
H40 H 0.9500 0.4941 0.1446
H41 H 0.9314 0.4615 0.2382
H42 H 0.8798 0.4175 0.1889
C57 C 1.0845(4) 0.1781(4) 0.3166(3)
H43 H 1.0396 0.1348 0.3197
H44 H 1.0747 0.1954 0.3652
H45 H 1.1431 0.1541 0.3093
C58 C 1.2111(4) 0.3535(4) 0.0437(3)
H46 H 1.2602 0.3158 0.0556
H47 H 1.2327 0.4132 0.0261
H48 H 1.1856 0.3399 0.0023
C59 C 1.0388(5) 0.0384(5) 0.0739(4)
H49 H 0.9934 0.0673 0.0440
H50 H 1.0248 -0.0238 0.0916
C60 C 1.1290(5) 0.0563(5) 0.0238(4)
H51 H 1.1489 0.0074 0.0032
H52 H 1.1301 0.1083 -0.0205
C61 C 1.1830(5) 0.0685(7) 0.0791(5)
H53 H 1.2311 0.0271 0.0831
H54 H 1.2095 0.1271 0.0617
C62 C 1.1246(5) 0.0547(6) 0.1537(5)
H55 H 1.1278 -0.0050 0.1857
H56 H 1.1420 0.0935 0.1826
C63 C 0.9276(5) -0.0908(5) 0.4634(4)
H57 H 0.8706 -0.0887 0.4980
H58 H 0.9757 -0.0754 0.4874
C64 C 0.9400(5) -0.1772(4) 0.4518(4)
H59 H 0.8825 -0.2073 0.4594
H60 H 0.9759 -0.2120 0.4887
C65 C 0.9873(5) -0.1605(5) 0.3684(4)
H61 H 1.0476 -0.1829 0.3666
H62 H 0.9547 -0.1877 0.3383
C66 C 0.9904(5) -0.0665(5) 0.3367(4)
H63 H 1.0503 -0.0434 0.3336
H64 H 0.9756 -0.0504 0.2834
B1 B 0.7287(4) 0.0823(4) 0.1803(3)
B2 B 0.9195(4) 0.2806(4) 0.3154(3)
K4 K 0.62969(8) 0.36366(7) -0.26151(7)
O5 O 0.6955(3) 0.5211(2) -0.3700(2)
O6 O 0.5734(3) 0.4188(3) -0.4074(2)
O7 O 0.5503(2) 0.4209(2) -0.13251(19)
O8 O 0.4706(2) 0.2812(2) -0.1622(2)
O9 O 0.7901(2) 0.3152(2) -0.2130(2)
O10 O 0.7104(3) 0.2133(2) -0.2860(2)
N1 N 0.7281(3) 0.4865(3) -0.2100(3)
N2 N 0.5297(3) 0.2407(3) -0.3119(3)
C67 C 0.7927(4) 0.4384(4) -0.1654(3)
H65 H 0.7611 0.4045 -0.1137
H66 H 0.8333 0.4795 -0.1562
C68 C 0.8466(4) 0.3787(4) -0.2050(3)
H67 H 0.8779 0.4115 -0.2573
H68 H 0.8911 0.3513 -0.1734
C69 C 0.8391(4) 0.2564(4) -0.2478(4)
H69 H 0.8882 0.2349 -0.2196
H70 H 0.8642 0.2851 -0.3031
C70 C 0.7781(4) 0.1828(4) -0.2434(4)
H71 H 0.8118 0.1399 -0.2652
H72 H 0.7524 0.1548 -0.1881
C71 C 0.6545(4) 0.1448(4) -0.2875(4)
H73 H 0.6230 0.1167 -0.2339
H74 H 0.6903 0.1016 -0.3072
C72 C 0.5899(4) 0.1800(4) -0.3396(3)
H75 H 0.6226 0.2092 -0.3924
H76 H 0.5546 0.1321 -0.3443
C73 C 0.4882(4) 0.2896(4) -0.3763(4)
H77 H 0.4378 0.3197 -0.3548
H78 H 0.4644 0.2492 -0.4004
C74 C 0.5479(4) 0.3540(4) -0.4389(3)
H79 H 0.6009 0.3257 -0.4587
H80 H 0.5170 0.3796 -0.4831
C75 C 0.6305(4) 0.4811(4) -0.4651(3)
H81 H 0.6027 0.5032 -0.5119
H82 H 0.6865 0.4546 -0.4811
C76 C 0.6492(4) 0.5531(4) -0.4336(3)
H83 H 0.6853 0.5983 -0.4751
H84 H 0.5932 0.5781 -0.4152
C77 C 0.7190(4) 0.5882(4) -0.3407(3)
H85 H 0.6652 0.6136 -0.3187
H86 H 0.7534 0.6335 -0.3835
C78 C 0.7733(4) 0.5527(4) -0.2778(3)
H87 H 0.8272 0.5285 -0.3012
H88 H 0.7920 0.6004 -0.2594
C79 C 0.6645(4) 0.5260(4) -0.1602(3)
H89 H 0.6290 0.5664 -0.1938
H90 H 0.6976 0.5595 -0.1355
C80 C 0.6040(4) 0.4644(4) -0.0981(3)
H91 H 0.6385 0.4227 -0.0647
H92 H 0.5664 0.4951 -0.0648
C81 C 0.4890(4) 0.3626(4) -0.0745(3)
H93 H 0.4568 0.3920 -0.0373
H94 H 0.5207 0.3147 -0.0448
C82 C 0.4259(4) 0.3294(4) -0.1139(3)
H95 H 0.3796 0.2930 -0.0740
H96 H 0.3970 0.3779 -0.1460
C83 C 0.4127(4) 0.2480(4) -0.1997(3)
H97 H 0.3859 0.2955 -0.2349
H98 H 0.3646 0.2138 -0.1601
C84 C 0.4620(4) 0.1923(4) -0.2466(3)
H99 H 0.4909 0.1466 -0.2114
H100 H 0.4194 0.1646 -0.2680
O11 O 0.8100(5) 0.6451(5) 0.2751(3)
C85 C 0.7622(3) 0.6344(4) 0.3520(4)
H101 H 0.7280 0.6860 0.3545
H102 H 0.7205 0.5846 0.3667
C86 C 0.8237(6) 0.6212(5) 0.4040(3)
H103 H 0.8190 0.6664 0.4314
H104 H 0.8115 0.5651 0.4436
C87 C 0.9095(4) 0.6237(5) 0.3592(5)
H105 H 0.9460 0.6701 0.3652
H106 H 0.9385 0.5688 0.3773
C88 C 0.9011(4) 0.6385(5) 0.2795(4)
H107 H 0.9260 0.5907 0.2595
H108 H 0.9335 0.6920 0.2474
O12 O 0.3868(4) 0.2270(4) 0.1169(4)
C89 C 0.3788(5) 0.1954(6) 0.2009(5)
H109 H 0.3345 0.2271 0.2280
H110 H 0.4361 0.1992 0.2178
C90 C 0.3491(5) 0.1036(5) 0.2162(4)
H111 H 0.2846 0.0984 0.2190
H112 H 0.3655 0.0671 0.2651
C91 C 0.3998(5) 0.0815(5) 0.1449(4)
H113 H 0.4575 0.0578 0.1551
H114 H 0.3661 0.0391 0.1302
C92 C 0.4112(6) 0.1593(6) 0.0854(5)
H115 H 0.4737 0.1673 0.0592
H116 H 0.3746 0.1579 0.0458
loop_
_geom_bond_atom_site_label_1
_geom_bond_atom_site_label_2
_geom_bond_site_symmetry_1
_geom_bond_site_symmetry_2
K1 O1 1_555 1_555
K2 O1 1_555 1_555
K3 O1 1_555 1_555
O1 B1 1_555 1_555
O2 K1 1_555 1_555
O3 K2 1_555 1_555
O4 K1 1_555 1_555
C1 C2 1_555 1_555
C2 H1 1_555 1_555
C3 C2 1_555 1_555
H2 C3 1_555 1_555
C4 C3 1_555 1_555
H3 C4 1_555 1_555
C5 C4 1_555 1_555
H4 C5 1_555 1_555
C6 C1 1_555 1_555
C7 K2 1_555 1_555
C8 K3 1_555 1_555
C9 K3 1_555 1_555
H5 C9 1_555 1_555
C10 K3 1_555 1_555
H6 C10 1_555 1_555
C11 K3 1_555 1_555
H7 C11 1_555 1_555
C12 K3 1_555 1_555
H8 C12 1_555 1_555
C13 K3 1_555 1_555
C14 K2 1_555 1_555
H9 C14 1_555 1_555
C15 K2 1_555 1_555
C16 K2 1_555 1_555
H10 C16 1_555 1_555
C17 C16 1_555 1_555
H11 C17 1_555 1_555
C18 C17 1_555 1_555
H12 C18 1_555 1_555
C19 K2 1_555 1_555
H13 C19 1_555 1_555
C20 K2 1_555 1_555
C21 K1 1_555 1_555
C22 K1 1_555 1_555
C23 K1 1_555 1_555
H14 C23 1_555 1_555
C24 K1 1_555 1_555
C25 K1 1_555 1_555
H15 C25 1_555 1_555
C26 K1 1_555 1_555
C27 C26 1_555 1_555
H16 C27 1_555 1_555
H17 C27 1_555 1_555
H18 C27 1_555 1_555
C28 C22 1_555 1_555
H19 C28 1_555 1_555
H20 C28 1_555 1_555
H21 C28 1_555 1_555
C29 C24 1_555 1_555
H22 C29 1_555 1_555
H23 C29 1_555 1_555
H24 C29 1_555 1_555
C30 C31 1_555 1_555
C31 H25 1_555 1_555
C32 C31 1_555 1_555
H26 C32 1_555 1_555
C33 C32 1_555 1_555
H27 C33 1_555 1_555
C34 C33 1_555 1_555
H28 C34 1_555 1_555
C35 C30 1_555 1_555
C36 K1 1_555 1_555
C37 K3 1_555 1_555
C38 K3 1_555 1_555
H29 C38 1_555 1_555
C39 K3 1_555 1_555
H30 C39 1_555 1_555
C40 K3 1_555 1_555
H31 C40 1_555 1_555
C41 K3 1_555 1_555
H32 C41 1_555 1_555
C42 K3 1_555 1_555
C43 K1 1_555 1_555
H33 C43 1_555 1_555
C44 K1 1_555 1_555
C45 K1 1_555 1_555
H34 C45 1_555 1_555
C46 C45 1_555 1_555
H35 C46 1_555 1_555
C47 C46 1_555 1_555
H36 C47 1_555 1_555
C48 K1 1_555 1_555
H37 C48 1_555 1_555
C49 K1 1_555 1_555
C50 K2 1_555 1_555
C51 K2 1_555 1_555
C52 K2 1_555 1_555
H38 C52 1_555 1_555
C53 K2 1_555 1_555
C54 K2 1_555 1_555
H39 C54 1_555 1_555
C55 K2 1_555 1_555
C56 C55 1_555 1_555
H40 C56 1_555 1_555
H41 C56 1_555 1_555
H42 C56 1_555 1_555
C57 C51 1_555 1_555
H43 C57 1_555 1_555
H44 C57 1_555 1_555
H45 C57 1_555 1_555
C58 C53 1_555 1_555
H46 C58 1_555 1_555
H47 C58 1_555 1_555
H48 C58 1_555 1_555
C59 O3 1_555 1_555
H49 C59 1_555 1_555
H50 C59 1_555 1_555
C60 C59 1_555 1_555
H51 C60 1_555 1_555
H52 C60 1_555 1_555
C61 C60 1_555 1_555
H53 C61 1_555 1_555
H54 C61 1_555 1_555
C62 O3 1_555 1_555
H55 C62 1_555 1_555
H56 C62 1_555 1_555
C63 O4 1_555 1_555
H57 C63 1_555 1_555
H58 C63 1_555 1_555
C64 C63 1_555 1_555
H59 C64 1_555 1_555
H60 C64 1_555 1_555
C65 C64 1_555 1_555
H61 C65 1_555 1_555
H62 C65 1_555 1_555
C66 O4 1_555 1_555
H63 C66 1_555 1_555
H64 C66 1_555 1_555
B1 C1 1_555 1_555
B2 O2 1_555 1_555
K4 O5 1_555 1_555
O5 C76 1_555 1_555
O6 K4 1_555 1_555
O7 K4 1_555 1_555
O8 K4 1_555 1_555
O9 K4 1_555 1_555
O10 K4 1_555 1_555
N1 K4 1_555 1_555
N2 K4 1_555 1_555
C67 N1 1_555 1_555
H65 C67 1_555 1_555
H66 C67 1_555 1_555
C68 O9 1_555 1_555
H67 C68 1_555 1_555
H68 C68 1_555 1_555
C69 O9 1_555 1_555
H69 C69 1_555 1_555
H70 C69 1_555 1_555
C70 O10 1_555 1_555
H71 C70 1_555 1_555
H72 C70 1_555 1_555
C71 O10 1_555 1_555
H73 C71 1_555 1_555
H74 C71 1_555 1_555
C72 N2 1_555 1_555
H75 C72 1_555 1_555
H76 C72 1_555 1_555
C73 N2 1_555 1_555
H77 C73 1_555 1_555
H78 C73 1_555 1_555
C74 O6 1_555 1_555
H79 C74 1_555 1_555
H80 C74 1_555 1_555
C75 O6 1_555 1_555
H81 C75 1_555 1_555
H82 C75 1_555 1_555
C76 C75 1_555 1_555
H83 C76 1_555 1_555
H84 C76 1_555 1_555
C77 O5 1_555 1_555
H85 C77 1_555 1_555
H86 C77 1_555 1_555
C78 N1 1_555 1_555
H87 C78 1_555 1_555
H88 C78 1_555 1_555
C79 N1 1_555 1_555
H89 C79 1_555 1_555
H90 C79 1_555 1_555
C80 O7 1_555 1_555
H91 C80 1_555 1_555
H92 C80 1_555 1_555
C81 O7 1_555 1_555
H93 C81 1_555 1_555
H94 C81 1_555 1_555
C82 O8 1_555 1_555
H95 C82 1_555 1_555
H96 C82 1_555 1_555
C83 O8 1_555 1_555
H97 C83 1_555 1_555
H98 C83 1_555 1_555
C84 N2 1_555 1_555
H99 C84 1_555 1_555
H100 C84 1_555 1_555
O11 C85 1_555 1_555
C85 H101 1_555 1_555
H102 C85 1_555 1_555
C86 C85 1_555 1_555
H103 C86 1_555 1_555
H104 C86 1_555 1_555
C87 C86 1_555 1_555
H105 C87 1_555 1_555
H106 C87 1_555 1_555
C88 O11 1_555 1_555
H107 C88 1_555 1_555
H108 C88 1_555 1_555
O12 C89 1_555 1_555
C89 H109 1_555 1_555
H110 C89 1_555 1_555
C90 C89 1_555 1_555
H111 C90 1_555 1_555
H112 C90 1_555 1_555
C91 C90 1_555 1_555
H113 C91 1_555 1_555
H114 C91 1_555 1_555
C92 O12 1_555 1_555
H115 C92 1_555 1_555
H116 C92 1_555 1_555
K2 O2 1_555 1_555
K3 O2 1_555 1_555
C5 C6 1_555 1_555
C6 C7 1_555 1_555
C7 C8 1_555 1_555
C7 C20 1_555 1_555
C8 C9 1_555 1_555
C8 C13 1_555 1_555
C9 C10 1_555 1_555
C10 C11 1_555 1_555
C11 C12 1_555 1_555
C12 C13 1_555 1_555
C13 C14 1_555 1_555
C14 C15 1_555 1_555
C15 C16 1_555 1_555
C15 C20 1_555 1_555
C18 C19 1_555 1_555
C19 C20 1_555 1_555
C21 C22 1_555 1_555
C21 C26 1_555 1_555
C21 B1 1_555 1_555
C22 C23 1_555 1_555
C23 C24 1_555 1_555
C24 C25 1_555 1_555
C25 C26 1_555 1_555
C30 B2 1_555 1_555
C34 C35 1_555 1_555
C35 C36 1_555 1_555
C36 C37 1_555 1_555
C36 C49 1_555 1_555
C37 C38 1_555 1_555
C37 C42 1_555 1_555
C38 C39 1_555 1_555
C39 C40 1_555 1_555
C40 C41 1_555 1_555
C41 C42 1_555 1_555
C42 C43 1_555 1_555
C43 C44 1_555 1_555
C44 C45 1_555 1_555
C44 C49 1_555 1_555
C47 C48 1_555 1_555
C48 C49 1_555 1_555
C50 C51 1_555 1_555
C50 C55 1_555 1_555
C50 B2 1_555 1_555
C51 C52 1_555 1_555
C52 C53 1_555 1_555
C53 C54 1_555 1_555
C54 C55 1_555 1_555
C61 C62 1_555 1_555
C65 C66 1_555 1_555
C67 C68 1_555 1_555
C69 C70 1_555 1_555
C71 C72 1_555 1_555
C73 C74 1_555 1_555
C77 C78 1_555 1_555
C79 C80 1_555 1_555
C81 C82 1_555 1_555
C83 C84 1_555 1_555
C87 C88 1_555 1_555
C91 C92 1_555 1_555

#END
