
#######################################################################
#
#                 Cambridge Crystallographic Data Centre
#                                CCDC 
#
#######################################################################
#
# If this CIF has been generated from an entry in the Cambridge 
# Structural Database, then it will include bibliographic, chemical, 
# crystal, experimental, refinement or atomic coordinate data resulting 
# from the CCDC's data processing and validation procedures.
#
#######################################################################

data_LINRAD
_chemical_formula_moiety         'C24 H15 N1 O3'
_chemical_name_systematic        
2-Hydroxy-2-(2-(quinolin-2-yl)phenyl)-1H-indene-1,3(2H)-dione
_symmetry_cell_setting           orthorhombic
_symmetry_space_group_name_H-M   'P c a 21'
_symmetry_Int_Tables_number      29
_space_group_name_Hall           'P 2c -2ac'
loop_
_symmetry_equiv_pos_site_id
_symmetry_equiv_pos_as_xyz
1 x,y,z
2 -x,-y,1/2+z
3 1/2-x,y,1/2+z
4 1/2+x,-y,z
_cell_length_a                   17.5730(10)
_cell_length_b                   12.5039(8)
_cell_length_c                   16.2761(12)
_cell_angle_alpha                90
_cell_angle_beta                 90
_cell_angle_gamma                90
_cell_volume                     3576.36
_cell_formula_units_Z            8
loop_
_atom_site_label
_atom_site_type_symbol
_atom_site_fract_x
_atom_site_fract_y
_atom_site_fract_z
O1 O 0.54770(10) 0.80534(14) 0.79752(13)
O2 O 0.71648(10) 0.51636(15) 0.83067(13)
O3 O 0.57838(11) 0.58544(15) 0.72426(12)
H1 H 0.5915 0.5212 0.7189
N1 N 0.67208(12) 0.71194(17) 0.95159(15)
C1 C 0.60225(14) 0.7474(2) 0.78941(17)
C2 C 0.67955(15) 0.7764(2) 0.75996(17)
C3 C 0.70430(16) 0.8712(2) 0.72493(18)
H2 H 0.6708 0.9301 0.7183
C4 C 0.77944(17) 0.8772(3) 0.69991(19)
H3 H 0.7978 0.9415 0.6759
C5 C 0.82839(17) 0.7910(3) 0.7093(2)
H4 H 0.8796 0.7970 0.6910
C6 C 0.80404(16) 0.6969(2) 0.74445(19)
H5 H 0.8377 0.6382 0.7513
C7 C 0.72865(14) 0.6905(2) 0.76959(17)
C8 C 0.68835(15) 0.5998(2) 0.80673(17)
C9 C 0.60271(14) 0.6244(2) 0.80357(18)
C10 C 0.55219(15) 0.5833(2) 0.87184(19)
C11 C 0.47926(15) 0.5486(2) 0.8517(2)
H6 H 0.4629 0.5514 0.7962
C12 C 0.43034(17) 0.5100(2) 0.9112(2)
H7 H 0.3803 0.4883 0.8965
C13 C 0.45379(18) 0.5031(3) 0.9912(2)
H8 H 0.4203 0.4758 1.0319
C14 C 0.52615(17) 0.5357(3) 1.0125(2)
H9 H 0.5423 0.5295 1.0681
C15 C 0.57607(15) 0.5775(2) 0.95421(19)
C16 C 0.65077(15) 0.6185(2) 0.98187(17)
C17 C 0.69553(16) 0.5586(2) 1.03710(18)
H10 H 0.6781 0.4915 1.0570
C18 C 0.76393(16) 0.5983(2) 1.06148(18)
H11 H 0.7950 0.5584 1.0981
C19 C 0.78882(15) 0.6991(2) 1.03227(16)
C20 C 0.85773(15) 0.7474(2) 1.05583(18)
H12 H 0.8913 0.7105 1.0918
C21 C 0.87684(16) 0.8464(2) 1.02764(19)
H13 H 0.9234 0.8783 1.0442
C22 C 0.82796(16) 0.9013(2) 0.97426(19)
H14 H 0.8413 0.9709 0.9557
C23 C 0.76133(15) 0.8560(2) 0.94854(19)
H15 H 0.7294 0.8933 0.9112
C24 C 0.74004(15) 0.7541(2) 0.97746(17)
O4 O 0.75976(11) 0.07728(14) 0.81026(13)
O5 O 0.64511(11) 0.38643(15) 0.69843(12)
O6 O 0.76719(11) 0.31174(14) 0.82194(13)
H16 H 0.7580 0.3774 0.8172
N2 N 0.64928(12) 0.13854(17) 0.62748(14)
C25 C 0.71493(15) 0.1479(2) 0.79461(16)
C26 C 0.63424(15) 0.1531(2) 0.81923(17)
C27 C 0.59240(17) 0.0801(3) 0.86403(17)
H17 H 0.6149 0.0165 0.8848
C28 C 0.51632(18) 0.1033(3) 0.8774(2)
H18 H 0.4863 0.0545 0.9082
C29 C 0.48266(18) 0.1959(3) 0.8472(2)
H19 H 0.4304 0.2095 0.8577
C30 C 0.52490(16) 0.2685(3) 0.80169(19)
H20 H 0.5024 0.3320 0.7808
C31 C 0.60038(15) 0.2456(2) 0.78783(17)
C32 C 0.65671(16) 0.3060(2) 0.73886(17)
C33 C 0.73514(16) 0.2553(2) 0.75326(17)
C34 C 0.78950(15) 0.2518(2) 0.68184(18)
C35 C 0.86569(16) 0.2740(2) 0.6971(2)
H21 H 0.8815 0.2869 0.7520
C36 C 0.91926(18) 0.2778(3) 0.6347(3)
H22 H 0.9709 0.2939 0.6469
C37 C 0.89711(19) 0.2582(3) 0.5553(2)
H23 H 0.9333 0.2616 0.5120
C38 C 0.82212(18) 0.2336(3) 0.5384(2)
H24 H 0.8073 0.2194 0.4834
C39 C 0.76748(15) 0.2291(2) 0.60092(18)
C40 C 0.68821(16) 0.2001(2) 0.57657(17)
C41 C 0.65813(18) 0.2393(2) 0.50195(19)
H25 H 0.6882 0.2836 0.4674
C42 C 0.58574(17) 0.2131(2) 0.48001(19)
H26 H 0.5648 0.2395 0.4301
C43 C 0.54215(15) 0.1471(2) 0.53145(18)
C44 C 0.46728(17) 0.1156(2) 0.5128(2)
H27 H 0.4438 0.1413 0.4641
C45 C 0.42797(17) 0.0491(3) 0.5632(2)
H28 H 0.3778 0.0275 0.5492
C46 C 0.46186(16) 0.0122(2) 0.63628(19)
H29 H 0.4343 -0.0343 0.6715
C47 C 0.53420(15) 0.0428(2) 0.65717(18)
H30 H 0.5562 0.0177 0.7069
C48 C 0.57620(15) 0.1109(2) 0.60541(17)
loop_
_geom_bond_atom_site_label_1
_geom_bond_atom_site_label_2
_geom_bond_site_symmetry_1
_geom_bond_site_symmetry_2
O1 C1 1_555 1_555
O2 C8 1_555 1_555
O3 H1 1_555 1_555
N1 C16 1_555 1_555
C1 C2 1_555 1_555
C2 C3 1_555 1_555
C3 H2 1_555 1_555
C4 C3 1_555 1_555
H3 C4 1_555 1_555
C5 C4 1_555 1_555
H4 C5 1_555 1_555
C6 C5 1_555 1_555
H5 C6 1_555 1_555
C7 C2 1_555 1_555
C8 C7 1_555 1_555
C9 O3 1_555 1_555
C10 C9 1_555 1_555
C11 C10 1_555 1_555
H6 C11 1_555 1_555
C12 C11 1_555 1_555
H7 C12 1_555 1_555
C13 C12 1_555 1_555
H8 C13 1_555 1_555
C14 C13 1_555 1_555
H9 C14 1_555 1_555
C15 C10 1_555 1_555
C16 C15 1_555 1_555
C17 C16 1_555 1_555
H10 C17 1_555 1_555
C18 C17 1_555 1_555
H11 C18 1_555 1_555
C19 C18 1_555 1_555
C20 C19 1_555 1_555
H12 C20 1_555 1_555
C21 C20 1_555 1_555
H13 C21 1_555 1_555
C22 C21 1_555 1_555
H14 C22 1_555 1_555
C23 C22 1_555 1_555
H15 C23 1_555 1_555
C24 N1 1_555 1_555
O4 C25 1_555 1_555
O5 C32 1_555 1_555
O6 H16 1_555 1_555
N2 C40 1_555 1_555
C25 C26 1_555 1_555
C26 C27 1_555 1_555
C27 H17 1_555 1_555
C28 C27 1_555 1_555
H18 C28 1_555 1_555
C29 C28 1_555 1_555
H19 C29 1_555 1_555
C30 C29 1_555 1_555
H20 C30 1_555 1_555
C31 C26 1_555 1_555
C32 C31 1_555 1_555
C33 O6 1_555 1_555
C34 C33 1_555 1_555
C35 C34 1_555 1_555
H21 C35 1_555 1_555
C36 C35 1_555 1_555
H22 C36 1_555 1_555
C37 C36 1_555 1_555
H23 C37 1_555 1_555
C38 C37 1_555 1_555
H24 C38 1_555 1_555
C39 C34 1_555 1_555
C40 C39 1_555 1_555
C41 C40 1_555 1_555
H25 C41 1_555 1_555
C42 C41 1_555 1_555
H26 C42 1_555 1_555
C43 C42 1_555 1_555
C44 C43 1_555 1_555
H27 C44 1_555 1_555
C45 C44 1_555 1_555
H28 C45 1_555 1_555
C46 C45 1_555 1_555
H29 C46 1_555 1_555
C47 C46 1_555 1_555
H30 C47 1_555 1_555
C48 N2 1_555 1_555
C1 C9 1_555 1_555
C6 C7 1_555 1_555
C8 C9 1_555 1_555
C14 C15 1_555 1_555
C19 C24 1_555 1_555
C23 C24 1_555 1_555
C25 C33 1_555 1_555
C30 C31 1_555 1_555
C32 C33 1_555 1_555
C38 C39 1_555 1_555
C43 C48 1_555 1_555
C47 C48 1_555 1_555

#END
