
#######################################################################
#
#                 Cambridge Crystallographic Data Centre
#                                CCDC 
#
#######################################################################
#
# If this CIF has been generated from an entry in the Cambridge 
# Structural Database, then it will include bibliographic, chemical, 
# crystal, experimental, refinement or atomic coordinate data resulting 
# from the CCDC's data processing and validation procedures.
#
#######################################################################

data_LINSUW
_chemical_formula_moiety         'C10 H10 O3'
_chemical_name_systematic        4,7-Dimethoxybenzo(c)furan
_symmetry_cell_setting           monoclinic
_symmetry_space_group_name_H-M   'C 2/c'
_symmetry_Int_Tables_number      15
_space_group_name_Hall           '-C 2yn'
loop_
_symmetry_equiv_pos_site_id
_symmetry_equiv_pos_as_xyz
1 x,y,z
2 -x,y,1/2-z
3 1/2+x,1/2+y,z
4 1/2-x,1/2+y,1/2-z
5 -x,-y,-z
6 x,-y,1/2+z
7 1/2-x,1/2-y,-z
8 1/2+x,1/2-y,1/2+z
_cell_length_a                   22.500(3)
_cell_length_b                   6.0128(5)
_cell_length_c                   13.2540(15)
_cell_angle_alpha                90
_cell_angle_beta                 102.446(10)
_cell_angle_gamma                90
_cell_volume                     1750.97
_exptl_crystal_colour            colorless
_cell_formula_units_Z            8
loop_
_atom_site_label
_atom_site_type_symbol
_atom_site_fract_x
_atom_site_fract_y
_atom_site_fract_z
C1 C 0.05476(9) 0.5093(3) 0.6501(2)
O1 O 0.06756(6) 0.6140(2) 0.74341(11)
C2 C 0.11443(8) 0.5031(4) 0.8055(2)
C3 C 0.13193(8) 0.3298(3) 0.75272(14)
C4 C 0.17692(8) 0.1589(3) 0.77885(14)
C5 C 0.18243(9) 0.0076(3) 0.7063(2)
C6 C 0.14350(9) 0.0118(3) 0.6042(2)
C7 C 0.09950(8) 0.1668(3) 0.57733(13)
C8 C 0.09283(8) 0.3335(3) 0.65118(14)
O2 O 0.21022(6) 0.1694(2) 0.87854(9)
C9 C 0.25369(11) -0.0045(4) 0.9099(2)
O3 O 0.05879(6) 0.1848(2) 0.48419(9)
C10 C 0.05805(11) 0.0067(4) 0.4126(2)
H1 H 0.1272(9) 0.557(3) 0.875(2)
H2 H 0.2121(10) -0.111(3) 0.7211(15)
H3 H 0.1501(8) -0.107(3) 0.5538(14)
H4 H 0.0221(9) 0.568(3) 0.597(2)
H5 H 0.2320(10) -0.158(4) 0.900(2)
H6 H 0.2726(9) 0.029(3) 0.985(2)
H7 H 0.2860(10) -0.001(3) 0.867(2)
H8 H 0.0516(9) -0.139(4) 0.446(2)
H9 H 0.0964(10) -0.001(3) 0.390(2)
H10 H 0.0237(9) 0.043(3) 0.351(2)
loop_
_geom_bond_atom_site_label_1
_geom_bond_atom_site_label_2
_geom_bond_site_symmetry_1
_geom_bond_site_symmetry_2
C1 O1 1_555 1_555
O1 C2 1_555 1_555
C2 C3 1_555 1_555
C3 C4 1_555 1_555
C4 C5 1_555 1_555
C5 C6 1_555 1_555
C6 C7 1_555 1_555
C7 C8 1_555 1_555
C8 C1 1_555 1_555
O2 C4 1_555 1_555
C9 O2 1_555 1_555
O3 C7 1_555 1_555
C10 O3 1_555 1_555
H1 C2 1_555 1_555
H2 C5 1_555 1_555
H3 C6 1_555 1_555
H4 C1 1_555 1_555
H5 C9 1_555 1_555
H6 C9 1_555 1_555
H7 C9 1_555 1_555
H8 C10 1_555 1_555
H9 C10 1_555 1_555
H10 C10 1_555 1_555
C3 C8 1_555 1_555

#END
