
#######################################################################
#
#                 Cambridge Crystallographic Data Centre
#                                CCDC 
#
#######################################################################
#
# If this CIF has been generated from an entry in the Cambridge 
# Structural Database, then it will include bibliographic, chemical, 
# crystal, experimental, refinement or atomic coordinate data resulting 
# from the CCDC's data processing and validation procedures.
#
#######################################################################

data_LINTEH
_chemical_formula_moiety         'C28 H27 N1 O4,0.5(C4 H8 O2)'
_chemical_name_systematic        
'Tricyclo(3.3.1.1^3,7^)decyl 6-methoxy-17-oxo-2-azatricyclo(7.7.1.0^3,8^) heptadeca-3(8),4,6,13-tetraene-11,15-diyne-2-carboxylate ethyl acetate solvate'
_chemical_properties_biological  
'analogue of Dynemicin A which has antitumour activity'
_symmetry_cell_setting           triclinic
_symmetry_space_group_name_H-M   'P -1'
_symmetry_Int_Tables_number      2
_space_group_name_Hall           '-P 1'
loop_
_symmetry_equiv_pos_site_id
_symmetry_equiv_pos_as_xyz
1 x,y,z
2 -x,-y,-z
_cell_length_a                   10.747(3)
_cell_length_b                   11.529(3)
_cell_length_c                   11.661(2)
_cell_angle_alpha                89.82(2)
_cell_angle_beta                 70.51(2)
_cell_angle_gamma                67.43(2)
_cell_volume                     1244.7
_exptl_crystal_colour            colorless
_cell_formula_units_Z            2
loop_
_atom_site_label
_atom_site_type_symbol
_atom_site_fract_x
_atom_site_fract_y
_atom_site_fract_z
C29 C 0.2352(6) 0.5804(5) 0.2108(5)
C30 C 0.2996(5) 0.5780(3) 0.0702(3)
C31 C 0.4623(4) 0.5154(3) 0.0525(2)
O5 O 0.4660(5) 0.5169(4) 0.1514(4)
C31A C 0.5377(4) 0.4846(3) -0.0525(2)
C30A C 0.7004(5) 0.4220(3) -0.0702(3)
O5A O 0.5340(5) 0.4831(4) -0.1514(4)
C29A C 0.7648(6) 0.4196(5) -0.2108(5)
C1 C 0.4156(2) -0.1028(2) -0.1035(2)
C2 C 0.4859(2) -0.2250(2) -0.1972(2)
C3 C 0.4722(2) -0.1942(2) -0.3156(2)
C4 C 0.4467(2) -0.1518(2) -0.4029(2)
C5 C 0.3928(3) -0.0788(3) -0.4880(2)
C6 C 0.2821(3) 0.0343(3) -0.4465(2)
C7 C 0.2208(2) 0.0780(2) -0.3173(2)
C8 C 0.1891(2) 0.0938(2) -0.2088(2)
C9 C 0.1736(2) 0.0896(2) -0.0783(2)
N1 N 0.2423(2) 0.1636(2) -0.04115(14)
C10 C 0.3934(2) 0.1240(2) -0.1094(2)
C11 C 0.4548(2) 0.2113(2) -0.1438(2)
C12 C 0.6015(2) 0.1713(2) -0.2099(2)
C13 C 0.6872(2) 0.0417(2) -0.2434(2)
C14 C 0.6252(2) -0.0451(2) -0.2114(2)
C15 C 0.4793(2) -0.0062(2) -0.1442(2)
C16 C 0.2517(2) -0.0500(2) -0.0662(2)
O1 O 0.1853(2) -0.1146(2) -0.0273(2)
O2 O 0.83253(14) -0.00977(14) -0.30981(14)
C17 C 0.9058(3) 0.0721(3) -0.3299(3)
C18 C 0.1725(2) 0.2556(2) 0.0606(2)
O3 O 0.22829(14) 0.31668(13) 0.09188(12)
O4 O 0.0379(2) 0.26417(14) 0.11771(13)
C19 C -0.0640(2) 0.3605(2) 0.2261(2)
C20 C -0.1956(2) 0.3278(2) 0.2628(2)
C21 C -0.3159(2) 0.4224(2) 0.3743(2)
C22 C -0.2612(3) 0.4136(3) 0.4811(2)
C23 C -0.1280(2) 0.4457(2) 0.4423(2)
C24 C -0.0077(2) 0.3501(2) 0.3305(2)
C25 C -0.1039(2) 0.4932(2) 0.1906(2)
C26 C -0.2238(2) 0.5878(2) 0.3016(2)
C27 C -0.1683(3) 0.5800(2) 0.4072(2)
C28 C -0.3564(2) 0.5559(2) 0.3404(2)
H1 H 1.0062(3) 0.0240(3) -0.3772(3)
H2 H 0.8650(3) 0.1377(3) -0.3740(3)
H3 H 0.8962(3) 0.1098(3) -0.2524(3)
H4 H 0.436(2) -0.132(2) -0.032(2)
H5 H 0.076(2) 0.119(2) -0.018(2)
H6 H 0.244(3) 0.081(2) -0.502(2)
H7 H 0.438(3) -0.113(2) -0.576(2)
H8 H 0.432(2) -0.284(2) -0.164(2)
H9 H 0.583(3) -0.270(2) -0.203(2)
H10 H 0.394(2) 0.303(2) -0.125(2)
H11 H 0.642(2) 0.241(2) -0.237(2)
H12 H 0.688(2) -0.139(2) -0.233(2)
H13 H -0.166(2) 0.240(2) 0.282(2)
H14 H -0.229(2) 0.329(2) 0.196(2)
H15 H -0.404(2) 0.401(2) 0.399(2)
H16 H -0.236(3) 0.324(3) 0.509(2)
H17 H -0.338(3) 0.476(3) 0.557(2)
H18 H -0.082(3) 0.438(3) 0.515(2)
H19 H 0.073(2) 0.375(2) 0.307(2)
H20 H 0.021(2) 0.264(2) 0.343(2)
H21 H -0.140(3) 0.493(2) 0.121(2)
H22 H -0.024(3) 0.512(2) 0.168(2)
H23 H -0.249(2) 0.671(2) 0.279(2)
H24 H -0.072(3) 0.605(2) 0.375(2)
H25 H -0.249(3) 0.647(3) 0.481(2)
H26 H -0.431(2) 0.619(2) 0.412(2)
H27 H -0.392(2) 0.558(2) 0.268(2)
loop_
_geom_bond_atom_site_label_1
_geom_bond_atom_site_label_2
_geom_bond_site_symmetry_1
_geom_bond_site_symmetry_2
C1 C2 1_555 1_555
C2 C3 1_555 1_555
C3 C4 1_555 1_555
C4 C5 1_555 1_555
C5 C6 1_555 1_555
C6 C7 1_555 1_555
C7 C8 1_555 1_555
C8 C9 1_555 1_555
C9 N1 1_555 1_555
N1 C10 1_555 1_555
C10 C11 1_555 1_555
C11 C12 1_555 1_555
C12 C13 1_555 1_555
C13 C14 1_555 1_555
C14 C15 1_555 1_555
C15 C1 1_555 1_555
C16 C1 1_555 1_555
O1 C16 1_555 1_555
O2 C13 1_555 1_555
C17 O2 1_555 1_555
C18 N1 1_555 1_555
O3 C18 1_555 1_555
O4 C18 1_555 1_555
C19 O4 1_555 1_555
C20 C19 1_555 1_555
C21 C20 1_555 1_555
C22 C21 1_555 1_555
C23 C22 1_555 1_555
C24 C19 1_555 1_555
C25 C19 1_555 1_555
C26 C25 1_555 1_555
C27 C23 1_555 1_555
C28 C21 1_555 1_555
C29 C30 1_555 1_555
C30 C31 1_555 1_555
C31 O5 1_555 1_555
H1 C17 1_555 1_555
H2 C17 1_555 1_555
H3 C17 1_555 1_555
H4 C1 1_555 1_555
H5 C9 1_555 1_555
H6 C6 1_555 1_555
H7 C5 1_555 1_555
H8 C2 1_555 1_555
H9 C2 1_555 1_555
H10 C11 1_555 1_555
H11 C12 1_555 1_555
H12 C14 1_555 1_555
H13 C20 1_555 1_555
H14 C20 1_555 1_555
H15 C21 1_555 1_555
H16 C22 1_555 1_555
H17 C22 1_555 1_555
H18 C23 1_555 1_555
H19 C24 1_555 1_555
H20 C24 1_555 1_555
H21 C25 1_555 1_555
H22 C25 1_555 1_555
H23 C26 1_555 1_555
H24 C27 1_555 1_555
H25 C27 1_555 1_555
H26 C28 1_555 1_555
H27 C28 1_555 1_555
C31A C31 1_555 1_555
C30A C31A 1_555 1_555
O5A C31A 1_555 1_555
C29A C30A 1_555 1_555
C9 C16 1_555 1_555
C10 C15 1_555 1_555
C23 C24 1_555 1_555
C26 C27 1_555 1_555
C26 C28 1_555 1_555

#END
