
#######################################################################
#
#                 Cambridge Crystallographic Data Centre
#                                CCDC 
#
#######################################################################
#
# If this CIF has been generated from an entry in the Cambridge 
# Structural Database, then it will include bibliographic, chemical, 
# crystal, experimental, refinement or atomic coordinate data resulting 
# from the CCDC's data processing and validation procedures.
#
#######################################################################

data_LINWOX
_chemical_formula_moiety         'C23 H21 Br1 F2 N2 O3'
_chemical_name_systematic        
'(R)-methyl 5-(bromo(difluoro)methyl)-1-(4-methoxyphenyl)-2-(2-naphthyl)imidazolidine-4-carboxylate'
_symmetry_cell_setting           monoclinic
_symmetry_space_group_name_H-M   'P 21'
_symmetry_Int_Tables_number      4
_space_group_name_Hall           'P 2yb'
loop_
_symmetry_equiv_pos_site_id
_symmetry_equiv_pos_as_xyz
1 x,y,z
2 -x,1/2+y,-z
_cell_length_a                   9.3652(17)
_cell_length_b                   10.803(2)
_cell_length_c                   11.038(2)
_cell_angle_alpha                90
_cell_angle_beta                 102.554(2)
_cell_angle_gamma                90
_cell_volume                     1090.04
_cell_formula_units_Z            2
loop_
_atom_site_label
_atom_site_type_symbol
_atom_site_fract_x
_atom_site_fract_y
_atom_site_fract_z
Br1 Br 0.16226(5) 0.95762(5) 0.54318(5)
C1 C -0.1030(5) 0.4375(7) 0.0619(4)
H1 H -0.1132 0.5220 0.0463
C2 C -0.1917(6) 0.3544(8) -0.0148(6)
H2 H -0.2599 0.3834 -0.0830
C3 C -0.1806(8) 0.2313(10) 0.0082(8)
H3 H -0.2437 0.1772 -0.0431
C4 C -0.0770(9) 0.1842(7) 0.1067(7)
H4 H -0.0684 0.0991 0.1192
C5 C 0.0164(6) 0.2668(5) 0.1889(5)
C6 C 0.1190(8) 0.2268(5) 0.2899(7)
H5 H 0.1276 0.1425 0.3069
C7 C 0.2080(6) 0.3069(5) 0.3655(5)
H6 H 0.2773 0.2767 0.4324
C8 C 0.1964(4) 0.4356(4) 0.3436(4)
C9 C 0.0959(4) 0.4773(4) 0.2443(4)
H7 H 0.0877 0.5619 0.2284
C10 C 0.0035(5) 0.3938(4) 0.1645(4)
C11 C 0.2899(4) 0.5197(4) 0.4350(4)
H8 H 0.3860 0.4809 0.4633
C12 C 0.2707(4) 0.6607(4) 0.5919(4)
H9 H 0.1940 0.6976 0.6283
C13 C 0.2932(4) 0.7380(4) 0.4802(4)
H10 H 0.3822 0.7880 0.5039
C14 C 0.1633(4) 0.8209(4) 0.4316(4)
C15 C 0.4121(5) 0.6513(5) 0.6883(5)
C16 C 0.5504(10) 0.7271(14) 0.8747(7)
H11 H 0.5708 0.6426 0.8996
H12 H 0.5346 0.7745 0.9441
H13 H 0.6319 0.7608 0.8459
C17 C 0.4238(4) 0.6642(4) 0.3225(4)
C18 C 0.4788(4) 0.5664(4) 0.2668(4)
H14 H 0.4413 0.4873 0.2720
C19 C 0.5896(5) 0.5843(4) 0.2028(4)
H15 H 0.6242 0.5171 0.1650
C20 C 0.6483(5) 0.6980(4) 0.1945(4)
C21 C 0.5916(5) 0.7974(4) 0.2462(4)
H16 H 0.6278 0.8764 0.2381
C22 C 0.4805(5) 0.7808(4) 0.3107(4)
H17 H 0.4441 0.8487 0.3460
C23 C 0.8215(6) 0.8239(6) 0.1232(6)
H18 H 0.7543 0.8743 0.0656
H19 H 0.9105 0.8143 0.0945
H20 H 0.8424 0.8629 0.2033
F1 F 0.1654(3) 0.8680(3) 0.3195(2)
F2 F 0.0304(3) 0.7589(3) 0.4171(3)
N1 N 0.2260(4) 0.5405(4) 0.5419(3)
H21 H 0.1709 0.4895 0.5704
N2 N 0.3113(3) 0.6458(3) 0.3888(3)
O1 O 0.5099(5) 0.5849(5) 0.6819(6)
O2 O 0.4187(6) 0.7320(8) 0.7741(4)
O3 O 0.7589(3) 0.7071(4) 0.1323(4)
loop_
_geom_bond_atom_site_label_1
_geom_bond_atom_site_label_2
_geom_bond_site_symmetry_1
_geom_bond_site_symmetry_2
Br1 C14 1_555 1_555
C1 H1 1_555 1_555
C2 C1 1_555 1_555
H2 C2 1_555 1_555
C3 C2 1_555 1_555
H3 C3 1_555 1_555
C4 C3 1_555 1_555
H4 C4 1_555 1_555
C5 C4 1_555 1_555
C6 C5 1_555 1_555
H5 C6 1_555 1_555
C7 C6 1_555 1_555
H6 C7 1_555 1_555
C8 C7 1_555 1_555
C9 C8 1_555 1_555
H7 C9 1_555 1_555
C10 C1 1_555 1_555
C11 C8 1_555 1_555
H8 C11 1_555 1_555
C12 H9 1_555 1_555
C13 C12 1_555 1_555
H10 C13 1_555 1_555
C14 C13 1_555 1_555
C15 C12 1_555 1_555
C16 H11 1_555 1_555
H12 C16 1_555 1_555
H13 C16 1_555 1_555
C17 C18 1_555 1_555
C18 H14 1_555 1_555
C19 C18 1_555 1_555
H15 C19 1_555 1_555
C20 C19 1_555 1_555
C21 C20 1_555 1_555
H16 C21 1_555 1_555
C22 C17 1_555 1_555
H17 C22 1_555 1_555
C23 H18 1_555 1_555
H19 C23 1_555 1_555
H20 C23 1_555 1_555
F1 C14 1_555 1_555
F2 C14 1_555 1_555
N1 C11 1_555 1_555
H21 N1 1_555 1_555
N2 C11 1_555 1_555
O1 C15 1_555 1_555
O2 C15 1_555 1_555
O3 C20 1_555 1_555
C5 C10 1_555 1_555
C9 C10 1_555 1_555
C12 N1 1_555 1_555
C13 N2 1_555 1_555
C16 O2 1_555 1_555
C17 N2 1_555 1_555
C21 C22 1_555 1_555
C23 O3 1_555 1_555

#END
