
#######################################################################
#
#                 Cambridge Crystallographic Data Centre
#                                CCDC 
#
#######################################################################
#
# If this CIF has been generated from an entry in the Cambridge 
# Structural Database, then it will include bibliographic, chemical, 
# crystal, experimental, refinement or atomic coordinate data resulting 
# from the CCDC's data processing and validation procedures.
#
#######################################################################

data_LINYOZ
_chemical_formula_moiety         'C24 H24 Cl1 N1 O3'
_chemical_name_systematic        
'ethyl 7-benzyl-4-(4-chlorophenyl)-6-methyl-2,3,4,7-tetrahydropyrano[2,3-b]pyrrole-5-carboxylate'
_symmetry_cell_setting           orthorhombic
_symmetry_space_group_name_H-M   'P 21 21 21'
_symmetry_Int_Tables_number      19
_space_group_name_Hall           'P 2ac 2ab'
loop_
_symmetry_equiv_pos_site_id
_symmetry_equiv_pos_as_xyz
1 x,y,z
2 1/2-x,-y,1/2+z
3 -x,1/2+y,1/2-z
4 1/2+x,1/2-y,-z
_cell_length_a                   5.3829(4)
_cell_length_b                   17.6389(12)
_cell_length_c                   21.6279(15)
_cell_angle_alpha                90
_cell_angle_beta                 90
_cell_angle_gamma                90
_cell_volume                     2053.54
_exptl_crystal_colour            colorless
_exptl_crystal_description       Block
_cell_formula_units_Z            4
loop_
_atom_site_label
_atom_site_type_symbol
_atom_site_fract_x
_atom_site_fract_y
_atom_site_fract_z
H1 H 0.463(5) 0.6446(15) -0.1448(14)
H2 H 0.290(5) 0.7603(15) -0.1980(12)
H3 H 0.003(7) 0.9540(18) -0.1860(16)
H4 H 1.068(8) 0.925(2) -0.3562(16)
H5 H 0.839(6) 0.8431(16) -0.1472(14)
H6 H 0.876(6) 0.9037(16) -0.0550(13)
H7 H 0.426(6) 0.6391(16) -0.2186(13)
H8 H 0.106(6) 1.0049(18) -0.2372(14)
H9 H 0.199(6) 0.7540(17) -0.0846(13)
H10 H 1.364(6) 0.6354(16) -0.3921(13)
H11 H 0.824(5) 0.5933(16) -0.1895(12)
H12 H 0.234(6) 0.8141(17) 0.0071(15)
H13 H 0.882(5) 0.6776(14) -0.1615(12)
H14 H 0.647(7) 0.6711(17) -0.5080(16)
H15 H 0.905(7) 0.8874(19) -0.4044(17)
H16 H 0.743(6) 0.7489(18) -0.4285(13)
H17 H 1.235(6) 0.7292(16) -0.3227(14)
H18 H 1.231(6) 0.7994(18) -0.3674(13)
H19 H 0.923(7) 0.576(2) -0.5302(17)
H20 H 0.315(8) 0.985(2) -0.1229(18)
H21 H 0.454(9) 1.036(2) -0.179(2)
H22 H 0.793(8) 0.954(2) -0.3586(17)
H23 H 0.191(8) 1.055(2) -0.1409(18)
H24 H 1.282(8) 0.564(2) -0.4712(18)
Cl1 Cl 0.59106(18) 0.91801(4) 0.05271(3)
O1 O 0.8869(4) 0.67190(10) -0.25223(8)
N1 N 0.9196(5) 0.78196(12) -0.31354(10)
O2 O 0.2851(4) 0.90704(10) -0.22177(9)
C1 C 0.4588(5) 0.92031(16) -0.26519(12)
C2 C 0.6173(5) 0.78374(14) -0.24154(11)
O3 O 0.4752(5) 0.98052(12) -0.29171(10)
C3 C 1.0619(5) 0.70025(15) -0.40089(12)
C4 C 0.3586(6) 0.82043(16) -0.02461(13)
C5 C 1.1289(6) 0.75346(18) -0.34898(13)
C6 C 0.6180(5) 0.85477(14) -0.27502(11)
C7 C 0.7972(7) 0.66179(18) -0.48491(14)
C8 C 0.7109(6) 0.83653(15) -0.11666(13)
C9 C 0.4614(5) 0.75262(15) -0.18978(12)
C10 C 0.5611(6) 0.86694(15) -0.01624(11)
C11 C 0.5152(6) 0.66652(15) -0.18642(14)
C12 C 0.8030(5) 0.74230(15) -0.26701(11)
C13 C 0.5046(5) 0.79182(14) -0.12788(11)
C14 C 1.2200(6) 0.64177(17) -0.41555(15)
C15 C 0.7895(6) 0.64979(16) -0.19202(13)
C16 C 0.8060(5) 0.85161(15) -0.31874(12)
C17 C 0.7404(6) 0.87451(15) -0.06103(13)
C18 C 0.8484(6) 0.70958(17) -0.43584(13)
C19 C 0.3320(5) 0.78344(16) -0.08061(13)
C20 C 0.1461(7) 0.97282(17) -0.20128(16)
C21 C 0.8940(7) 0.90911(18) -0.36421(14)
C22 C 0.9585(7) 0.60396(19) -0.49881(15)
C23 C 1.1697(7) 0.59391(19) -0.46434(16)
C24 C 0.2919(9) 1.0155(3) -0.1545(2)
loop_
_geom_bond_atom_site_label_1
_geom_bond_atom_site_label_2
_geom_bond_site_symmetry_1
_geom_bond_site_symmetry_2
H1 C11 1_555 1_555
H2 C9 1_555 1_555
H3 C20 1_555 1_555
H4 C21 1_555 1_555
H5 C8 1_555 1_555
H6 C17 1_555 1_555
H7 C11 1_555 1_555
H8 C20 1_555 1_555
H9 C19 1_555 1_555
H10 C14 1_555 1_555
H11 C15 1_555 1_555
H12 C4 1_555 1_555
H13 C15 1_555 1_555
H14 C7 1_555 1_555
H15 C21 1_555 1_555
H16 C18 1_555 1_555
H17 C5 1_555 1_555
H18 C5 1_555 1_555
H19 C22 1_555 1_555
H20 C24 1_555 1_555
H21 C24 1_555 1_555
H22 C21 1_555 1_555
H23 C24 1_555 1_555
H24 C23 1_555 1_555
Cl1 C10 1_555 1_555
O1 C12 1_555 1_555
N1 C5 1_555 1_555
O2 C1 1_555 1_555
C1 O3 1_555 1_555
C2 C6 1_555 1_555
C3 C5 1_555 1_555
C4 C10 1_555 1_555
C6 C1 1_555 1_555
C7 C18 1_555 1_555
C8 C13 1_555 1_555
C9 C2 1_555 1_555
C10 C17 1_555 1_555
C11 C9 1_555 1_555
C12 N1 1_555 1_555
C13 C9 1_555 1_555
C14 C3 1_555 1_555
C15 O1 1_555 1_555
C16 N1 1_555 1_555
C17 C8 1_555 1_555
C18 C3 1_555 1_555
C19 C4 1_555 1_555
C20 O2 1_555 1_555
C21 C16 1_555 1_555
C22 C7 1_555 1_555
C23 C14 1_555 1_555
C24 C20 1_555 1_555
C2 C12 1_555 1_555
C6 C16 1_555 1_555
C11 C15 1_555 1_555
C13 C19 1_555 1_555
C22 C23 1_555 1_555

#END
