
#######################################################################
#
#                 Cambridge Crystallographic Data Centre
#                                CCDC 
#
#######################################################################
#
# If this CIF has been generated from an entry in the Cambridge 
# Structural Database, then it will include bibliographic, chemical, 
# crystal, experimental, refinement or atomic coordinate data resulting 
# from the CCDC's data processing and validation procedures.
#
#######################################################################

data_LINZAM
_chemical_formula_moiety         'C24 H25 Cl1 N4 O4'
_chemical_name_systematic        
'ethyl [1-acetyl-2-(benzylcarbamoyl)-3-(4-chlorophenyl)pyrrolidin-2-yl](diazo)acetate'
_symmetry_cell_setting           monoclinic
_symmetry_space_group_name_H-M   'C 2'
_symmetry_Int_Tables_number      5
_space_group_name_Hall           'C 2y'
loop_
_symmetry_equiv_pos_site_id
_symmetry_equiv_pos_as_xyz
1 x,y,z
2 -x,y,-z
3 1/2+x,1/2+y,z
4 1/2-x,1/2+y,-z
_cell_length_a                   24.087(4)
_cell_length_b                   8.8775(15)
_cell_length_c                   11.5808(19)
_cell_angle_alpha                90
_cell_angle_beta                 107.337(4)
_cell_angle_gamma                90
_cell_volume                     2363.85
_exptl_crystal_colour            colorless
_exptl_crystal_description       rectangular
_cell_formula_units_Z            4
loop_
_atom_site_label
_atom_site_type_symbol
_atom_site_fract_x
_atom_site_fract_y
_atom_site_fract_z
C1 C -0.0019(2) 0.6051(6) -0.7168(5)
C2 C -0.0152(3) 0.7699(7) -0.7273(9)
N1 N 0.17443(12) 0.2396(3) -0.5566(2)
H1 H 0.1730(14) -0.020(4) -0.430(3)
H2 H 0.1871(17) 0.039(5) -0.619(3)
H3 H 0.0792(15) 0.175(4) -0.490(3)
H4 H 0.0175(17) 0.181(4) -0.155(3)
H5 H 0.1117(19) -0.066(5) -0.513(4)
H6 H 0.2323(18) 0.346(5) -0.756(4)
H7 H 0.3422(17) 0.255(4) -0.288(3)
H8 H 0.1916(17) 0.036(5) -0.229(3)
H9 H 0.3110(14) 0.377(4) -0.226(3)
H10 H 0.2894(17) 0.082(5) 0.098(4)
H11 H 0.241(2) 0.187(6) -0.716(4)
H12 H 0.1190(16) 0.100(4) -0.672(3)
H13 H 0.0320(17) 0.224(4) -0.347(3)
H14 H 0.3980(15) 0.071(4) -0.169(3)
H15 H 0.4209(19) -0.089(5) 0.003(4)
H16 H 0.178(2) 0.255(5) -0.786(4)
H17 H 0.3633(17) -0.093(5) 0.134(4)
H18 H -0.049(3) 0.787(7) -0.796(6)
H19 H 0.019(3) 0.811(7) -0.750(5)
H20 H 0.2550(15) 0.158(4) -0.384(3)
H21 H -0.031(2) 0.548(6) -0.702(4)
H22 H 0.2614(19) 0.239(5) -0.068(3)
H23 H 0.1783(17) -0.004(4) -0.041(3)
H24 H 0.0081(19) 0.562(5) -0.781(4)
H25 H -0.024(3) 0.798(8) -0.648(6)
Cl1 Cl 0.08430(4) 0.04586(12) 0.05389(8)
O1 O 0.20886(11) 0.4159(3) -0.2681(2)
N2 N 0.13244(13) 0.5592(4) -0.4222(3)
O2 O 0.05738(11) 0.3463(3) -0.6687(2)
O3 O 0.21904(11) 0.4589(3) -0.5656(2)
C3 C 0.07307(15) 0.4474(4) -0.5959(4)
C4 C 0.05186(16) 0.1510(4) -0.1754(3)
C5 C 0.06069(15) 0.1755(4) -0.2863(3)
O4 O 0.04911(11) 0.5857(3) -0.6116(3)
C6 C 0.09502(15) 0.0808(4) -0.0866(3)
N3 N 0.25709(13) 0.2353(3) -0.3355(3)
C7 C 0.14663(15) 0.0368(5) -0.1053(3)
C8 C 0.15433(16) 0.0627(5) -0.2174(3)
C9 C 0.37507(16) 0.0675(5) -0.1145(3)
C10 C 0.21024(15) 0.3202(4) -0.3426(3)
C11 C 0.13959(18) 0.0211(4) -0.4907(3)
C12 C 0.29543(17) 0.1697(5) -0.0569(3)
C13 C 0.2150(2) 0.2774(5) -0.7226(4)
C14 C 0.20334(15) 0.3332(4) -0.6104(3)
C15 C 0.11732(15) 0.1559(4) -0.4352(3)
N4 N 0.13917(17) 0.6715(4) -0.3745(4)
C16 C 0.15359(18) 0.0881(4) -0.5987(3)
C17 C 0.11138(15) 0.1323(4) -0.3100(3)
C18 C 0.11938(15) 0.4333(4) -0.4839(3)
C19 C 0.32807(15) 0.1654(4) -0.1376(3)
C20 C 0.30909(17) 0.0765(5) 0.0428(3)
C21 C 0.15632(15) 0.2914(4) -0.4529(3)
C22 C 0.31303(16) 0.2665(4) -0.2466(3)
C23 C 0.35567(18) -0.0206(5) 0.0645(4)
C24 C 0.38870(19) -0.0249(5) -0.0138(4)
loop_
_geom_bond_atom_site_label_1
_geom_bond_atom_site_label_2
_geom_bond_site_symmetry_1
_geom_bond_site_symmetry_2
C1 C2 1_555 1_555
C2 H18 1_555 1_555
N1 C14 1_555 1_555
H1 C11 1_555 1_555
H2 C16 1_555 1_555
H3 C15 1_555 1_555
H4 C4 1_555 1_555
H5 C11 1_555 1_555
H6 C13 1_555 1_555
H7 C22 1_555 1_555
H8 C8 1_555 1_555
H9 C22 1_555 1_555
H10 C20 1_555 1_555
H11 C13 1_555 1_555
H12 C16 1_555 1_555
H13 C5 1_555 1_555
H14 C9 1_555 1_555
H15 C24 1_555 1_555
H16 C13 1_555 1_555
H17 C23 1_555 1_555
H19 C2 1_555 1_555
H20 N3 1_555 1_555
H21 C1 1_555 1_555
H22 C12 1_555 1_555
H23 C7 1_555 1_555
H24 C1 1_555 1_555
H25 C2 1_555 1_555
Cl1 C6 1_555 1_555
O1 C10 1_555 1_555
N2 N4 1_555 1_555
O2 C3 1_555 1_555
O3 C14 1_555 1_555
C3 O4 1_555 1_555
C4 C5 1_555 1_555
C5 C17 1_555 1_555
O4 C1 1_555 1_555
C6 C4 1_555 1_555
N3 C10 1_555 1_555
C7 C6 1_555 1_555
C8 C7 1_555 1_555
C9 C19 1_555 1_555
C10 C21 1_555 1_555
C11 C15 1_555 1_555
C12 C19 1_555 1_555
C13 C14 1_555 1_555
C15 C17 1_555 1_555
C16 N1 1_555 1_555
C17 C8 1_555 1_555
C18 N2 1_555 1_555
C19 C22 1_555 1_555
C20 C12 1_555 1_555
C21 N1 1_555 1_555
C22 N3 1_555 1_555
C23 C20 1_555 1_555
C24 C9 1_555 1_555
C3 C18 1_555 1_555
C11 C16 1_555 1_555
C15 C21 1_555 1_555
C18 C21 1_555 1_555
C23 C24 1_555 1_555

#END
