
#######################################################################
#
#                 Cambridge Crystallographic Data Centre
#                                CCDC 
#
#######################################################################
#
# If this CIF has been generated from an entry in the Cambridge 
# Structural Database, then it will include bibliographic, chemical, 
# crystal, experimental, refinement or atomic coordinate data resulting 
# from the CCDC's data processing and validation procedures.
#
#######################################################################

data_LIPBIW
_chemical_formula_moiety         'C29 H49 N5 O2'
_chemical_name_systematic        Methyl-bis(3-(N'-adamantylurea-N)propyl)amine
_symmetry_cell_setting           orthorhombic
_symmetry_space_group_name_H-M   'P 21 21 21'
_symmetry_Int_Tables_number      19
_space_group_name_Hall           'P 2ac 2ab'
loop_
_symmetry_equiv_pos_site_id
_symmetry_equiv_pos_as_xyz
1 x,y,z
2 1/2-x,-y,1/2+z
3 1/2+x,1/2-y,-z
4 -x,1/2+y,1/2-z
_cell_length_a                   7.5033(10)
_cell_length_b                   17.662(2)
_cell_length_c                   21.498(3)
_cell_angle_alpha                90
_cell_angle_beta                 90
_cell_angle_gamma                90
_cell_volume                     2848.99
_exptl_crystal_colour            colorless
_exptl_crystal_description       plate
_cell_formula_units_Z            4
loop_
_atom_site_label
_atom_site_type_symbol
_atom_site_fract_x
_atom_site_fract_y
_atom_site_fract_z
O1 O 1.0550(2) -0.03350(8) 0.18998(7)
O2 O 0.0443(2) 0.21417(8) 0.26225(7)
N1 N 1.1152(3) -0.15794(11) 0.17228(10)
N2 N 0.8990(3) -0.12385(11) 0.24157(9)
N3 N -0.0482(3) 0.12937(11) 0.18884(10)
N4 N 0.1677(3) 0.09785(11) 0.25865(10)
N5 N 0.6139(3) -0.01475(10) 0.39470(9)
C1 C 1.2660(3) -0.14797(12) 0.12999(10)
C2 C 1.3326(4) -0.22730(13) 0.11252(12)
C3 C 1.4920(4) -0.22160(14) 0.06809(12)
C4 C 1.4340(4) -0.17965(17) 0.00915(13)
C5 C 1.3690(4) -0.10064(16) 0.02648(11)
C6 C 1.2098(3) -0.10674(15) 0.07056(11)
C7 C 1.4190(3) -0.10537(13) 0.16113(11)
C8 C 1.5779(3) -0.09902(13) 0.11691(11)
C9 C 1.5182(4) -0.05748(15) 0.05872(12)
C10 C 1.6428(4) -0.17817(14) 0.09904(12)
C11 C 1.0252(3) -0.10167(12) 0.20101(10)
C12 C 0.8000(3) -0.07005(13) 0.27844(10)
C13 C 0.8903(3) -0.04855(13) 0.33962(11)
C14 C 0.7867(3) 0.01254(13) 0.37346(11)
C15 C -0.1899(3) 0.17425(12) 0.15988(11)
C16 C -0.3367(4) 0.19276(17) 0.20622(12)
C17 C -0.4870(4) 0.23598(19) 0.17379(13)
C18 C -0.5658(4) 0.18719(19) 0.12162(14)
C19 C -0.4202(4) 0.16915(14) 0.07492(12)
C20 C -0.2694(4) 0.12615(14) 0.10780(12)
C21 C -0.1179(3) 0.24691(13) 0.13165(11)
C22 C -0.2685(4) 0.29023(14) 0.09965(12)
C23 C -0.3472(4) 0.24225(15) 0.04759(11)
C24 C -0.4121(5) 0.30871(16) 0.14706(13)
C25 C 0.0516(3) 0.15076(12) 0.23812(11)
C26 C 0.2607(3) 0.10689(13) 0.31691(11)
C27 C 0.3976(3) 0.04511(12) 0.32468(11)
C28 C 0.4722(4) 0.04103(14) 0.38972(11)
C29 C 0.6229(4) -0.04640(15) 0.45711(11)
H1 H 1.36850 -0.25490 0.15060
H2 H 1.23530 -0.25610 0.09230
H3 H 1.53390 -0.27360 0.05690
H4 H 1.53570 -0.17580 -0.02000
H5 H 1.33720 -0.20800 -0.01170
H6 H 1.33240 -0.07290 -0.01200
H7 H 1.11210 -0.13490 0.05000
H8 H 1.16570 -0.05550 0.08100
H9 H 1.45570 -0.13250 0.19940
H10 H 1.37850 -0.05410 0.17320
H11 H 1.67650 -0.07030 0.13750
H12 H 1.62030 -0.05190 0.02990
H13 H 1.47590 -0.00620 0.07000
H14 H 1.74500 -0.17410 0.07010
H15 H 1.68300 -0.20560 0.13670
H16 H 1.090(3) -0.2040(14) 0.1848(11)
H17 H 0.886(3) -0.1689(14) 0.2487(11)
H18 H 0.68120 -0.09160 0.28770
H19 H 0.78160 -0.02360 0.25350
H20 H 0.89940 -0.09390 0.36650
H21 H 1.01250 -0.03020 0.33100
H22 H 0.85670 0.03020 0.40970
H23 H 0.76890 0.05620 0.34530
H24 H -0.28750 0.22390 0.24040
H25 H -0.38420 0.14530 0.22430
H26 H -0.58230 0.24830 0.20470
H27 H -0.61460 0.13970 0.13920
H28 H -0.66400 0.21480 0.10080
H29 H -0.47030 0.13700 0.04080
H30 H -0.31640 0.07830 0.12530
H31 H -0.17530 0.11330 0.07730
H32 H -0.02370 0.23480 0.10100
H33 H -0.06460 0.27870 0.16470
H34 H -0.22040 0.33840 0.08180
H35 H -0.44390 0.27050 0.02660
H36 H -0.25400 0.23060 0.01640
H37 H -0.36100 0.34000 0.18090
H38 H -0.50860 0.33800 0.12690
H39 H -0.042(4) 0.0851(14) 0.1782(11)
H40 H 0.156(4) 0.0555(15) 0.2445(11)
H41 H 0.17440 0.10490 0.35170
H42 H 0.32030 0.15690 0.31790
H43 H 0.49650 0.05390 0.29510
H44 H 0.34230 -0.00420 0.31410
H45 H 0.51910 0.09140 0.40170
H46 H 0.37540 0.02780 0.41910
H47 H 0.72400 -0.08130 0.45990
H48 H 0.51230 -0.07380 0.46620
H49 H 0.63840 -0.00540 0.48730
loop_
_geom_bond_atom_site_label_1
_geom_bond_atom_site_label_2
_geom_bond_site_symmetry_1
_geom_bond_site_symmetry_2
O1 C11 1_555 1_555
O2 C25 1_555 1_555
N1 C1 1_555 1_555
N2 C11 1_555 1_555
N3 C15 1_555 1_555
N4 C25 1_555 1_555
N5 C14 1_555 1_555
C1 C2 1_555 1_555
C2 C3 1_555 1_555
C3 C4 1_555 1_555
C4 C5 1_555 1_555
C5 C6 1_555 1_555
C6 C1 1_555 1_555
C7 C1 1_555 1_555
C8 C7 1_555 1_555
C9 C5 1_555 1_555
C10 C3 1_555 1_555
C11 N1 1_555 1_555
C12 N2 1_555 1_555
C13 C12 1_555 1_555
C14 C13 1_555 1_555
C15 C16 1_555 1_555
C16 C17 1_555 1_555
C17 C18 1_555 1_555
C18 C19 1_555 1_555
C19 C20 1_555 1_555
C20 C15 1_555 1_555
C21 C15 1_555 1_555
C22 C21 1_555 1_555
C23 C19 1_555 1_555
C24 C17 1_555 1_555
C25 N3 1_555 1_555
C26 N4 1_555 1_555
C27 C26 1_555 1_555
C28 N5 1_555 1_555
C29 N5 1_555 1_555
H1 C2 1_555 1_555
H2 C2 1_555 1_555
H3 C3 1_555 1_555
H4 C4 1_555 1_555
H5 C4 1_555 1_555
H6 C5 1_555 1_555
H7 C6 1_555 1_555
H8 C6 1_555 1_555
H9 C7 1_555 1_555
H10 C7 1_555 1_555
H11 C8 1_555 1_555
H12 C9 1_555 1_555
H13 C9 1_555 1_555
H14 C10 1_555 1_555
H15 C10 1_555 1_555
H16 N1 1_555 1_555
H17 N2 1_555 1_555
H18 C12 1_555 1_555
H19 C12 1_555 1_555
H20 C13 1_555 1_555
H21 C13 1_555 1_555
H22 C14 1_555 1_555
H23 C14 1_555 1_555
H24 C16 1_555 1_555
H25 C16 1_555 1_555
H26 C17 1_555 1_555
H27 C18 1_555 1_555
H28 C18 1_555 1_555
H29 C19 1_555 1_555
H30 C20 1_555 1_555
H31 C20 1_555 1_555
H32 C21 1_555 1_555
H33 C21 1_555 1_555
H34 C22 1_555 1_555
H35 C23 1_555 1_555
H36 C23 1_555 1_555
H37 C24 1_555 1_555
H38 C24 1_555 1_555
H39 N3 1_555 1_555
H40 N4 1_555 1_555
H41 C26 1_555 1_555
H42 C26 1_555 1_555
H43 C27 1_555 1_555
H44 C27 1_555 1_555
H45 C28 1_555 1_555
H46 C28 1_555 1_555
H47 C29 1_555 1_555
H48 C29 1_555 1_555
H49 C29 1_555 1_555
C8 C9 1_555 1_555
C8 C10 1_555 1_555
C22 C23 1_555 1_555
C22 C24 1_555 1_555
C27 C28 1_555 1_555

#END
