
#######################################################################
#
#                 Cambridge Crystallographic Data Centre
#                                CCDC 
#
#######################################################################
#
# If this CIF has been generated from an entry in the Cambridge 
# Structural Database, then it will include bibliographic, chemical, 
# crystal, experimental, refinement or atomic coordinate data resulting 
# from the CCDC's data processing and validation procedures.
#
#######################################################################

data_LIPBOC
_chemical_formula_moiety         'C21 H29 N5 O2'
_chemical_name_systematic        Methyl-bis(3-(N'-phenylurea-N)propyl)amine
_symmetry_cell_setting           monoclinic
_symmetry_space_group_name_H-M   'P 21/c'
_symmetry_Int_Tables_number      14
_space_group_name_Hall           '-P 2ybc'
loop_
_symmetry_equiv_pos_site_id
_symmetry_equiv_pos_as_xyz
1 x,y,z
2 -x,1/2+y,1/2-z
3 -x,-y,-z
4 x,1/2-y,1/2+z
_cell_length_a                   10.4824(10)
_cell_length_b                   18.201(2)
_cell_length_c                   21.903(7)
_cell_angle_alpha                90
_cell_angle_beta                 104.61(4)
_cell_angle_gamma                90
_cell_volume                     4043.75
_exptl_crystal_colour            colorless
_exptl_crystal_description       block
_cell_formula_units_Z            8
loop_
_atom_site_label
_atom_site_type_symbol
_atom_site_fract_x
_atom_site_fract_y
_atom_site_fract_z
O1 O 0.96997(9) 0.40423(5) 0.27626(4)
O2 O 0.95602(9) 0.14895(5) 0.25841(4)
N1 N 0.90235(10) 0.30192(6) 0.21638(5)
N2 N 1.04065(10) 0.29200(6) 0.31534(5)
N3 N 0.88854(10) 0.04319(6) 0.20216(5)
N4 N 1.05881(11) 0.04056(6) 0.29058(5)
N5 N 1.29710(10) 0.20159(5) 0.41733(5)
C1 C 0.80320(11) 0.33731(6) 0.16911(6)
C2 C 0.70927(12) 0.38213(7) 0.18506(6)
C3 C 0.61182(13) 0.41411(8) 0.13807(7)
C4 C 0.60635(13) 0.40211(7) 0.07528(6)
C5 C 0.69884(13) 0.35674(7) 0.05927(6)
C6 C 0.79677(12) 0.32445(7) 0.10606(6)
C7 C 0.97094(11) 0.33647(6) 0.27024(6)
C8 C 1.10501(12) 0.32030(7) 0.37760(6)
C9 C 1.25207(13) 0.33329(7) 0.38716(6)
C10 C 1.32708(12) 0.26346(7) 0.38054(6)
C11 C 0.79172(11) 0.07161(6) 0.15083(5)
C12 C 0.72124(12) 0.13575(7) 0.15352(6)
C13 C 0.62539(12) 0.15863(7) 0.10096(6)
C14 C 0.59592(13) 0.11763(8) 0.04604(6)
C15 C 0.66435(13) 0.05326(8) 0.04359(6)
C16 C 0.76247(13) 0.03074(7) 0.09523(6)
C17 C 0.96783(11) 0.08220(6) 0.25120(5)
C18 C 1.14584(12) 0.06977(7) 0.34798(6)
C19 C 1.27420(12) 0.10061(7) 0.33924(6)
C20 C 1.35628(13) 0.13392(7) 0.40026(6)
C21 C 1.34261(16) 0.21578(8) 0.48497(6)
H1 H 0.9090(14) 0.2538(8) 0.2153(6)
H2 H 1.0297(13) 0.2449(8) 0.3095(6)
H3 H 0.71200 0.39080 0.22810
H4 H 0.54780 0.44470 0.14920
H5 H 0.53970 0.42480 0.04330
H6 H 0.69510 0.34770 0.01610
H7 H 0.85990 0.29330 0.09480
H8 H 1.09160 0.28500 0.40980
H9 H 1.06250 0.36720 0.38420
H10 H 1.26560 0.36970 0.35580
H11 H 1.28850 0.35420 0.42970
H12 H 1.30590 0.24920 0.33550
H13 H 1.42280 0.27380 0.39410
H14 H 0.9104(13) -0.0027(8) 0.1984(6)
H15 H 1.0654(14) -0.0058(8) 0.2816(6)
H16 H 0.73870 0.16380 0.19130
H17 H 0.57930 0.20320 0.10270
H18 H 0.52950 0.13350 0.01050
H19 H 0.64400 0.02430 0.00630
H20 H 0.81030 -0.01300 0.09270
H21 H 1.16610 0.03020 0.37990
H22 H 1.09870 0.10910 0.36470
H23 H 1.25510 0.13870 0.30590
H24 H 1.32500 0.06090 0.32530
H25 H 1.36510 0.09770 0.43480
H26 H 1.44570 0.14500 0.39550
H27 H 1.43790 0.22480 0.49610
H28 H 1.32340 0.17310 0.50840
H29 H 1.29710 0.25900 0.49580
O3 O 0.55413(9) -0.07135(5) 0.22784(4)
O4 O 0.51851(9) 0.18004(5) 0.25289(4)
N6 N 0.60822(11) 0.03106(6) 0.28962(5)
N7 N 0.46689(10) 0.03908(6) 0.19162(5)
N8 N 0.58080(11) 0.28995(6) 0.30274(5)
N9 N 0.41491(11) 0.28516(6) 0.21228(5)
N10 N 0.16943(10) 0.11634(5) 0.09626(4)
C22 C 0.69960(11) -0.00194(6) 0.34095(6)
C23 C 0.79230(12) -0.05272(7) 0.33217(7)
C24 C 0.88233(14) -0.08144(8) 0.38414(8)
C25 C 0.88220(15) -0.06000(8) 0.44458(8)
C26 C 0.79069(15) -0.00923(8) 0.45328(7)
C27 C 0.69954(13) 0.01956(7) 0.40183(6)
C28 C 0.54371(12) -0.00439(6) 0.23529(6)
C29 C 0.39555(12) 0.01132(7) 0.13032(6)
C30 C 0.25396(12) -0.01000(7) 0.12788(6)
C31 C 0.17105(13) 0.05461(7) 0.13958(6)
C32 C 0.68128(11) 0.26469(6) 0.35409(5)
C33 C 0.76168(12) 0.20514(7) 0.34972(6)
C34 C 0.86022(12) 0.18415(7) 0.40185(6)
C35 C 0.88251(13) 0.22260(7) 0.45794(6)
C36 C 0.80381(13) 0.28270(7) 0.46218(6)
C37 C 0.70351(12) 0.30315(7) 0.41084(6)
C38 C 0.50501(12) 0.24738(6) 0.25544(6)
C39 C 0.32590(12) 0.24939(7) 0.15863(6)
C40 C 0.20144(13) 0.22013(7) 0.17343(6)
C41 C 0.11065(12) 0.18212(7) 0.11695(6)
C42 C 0.09690(15) 0.09645(8) 0.03247(6)
H30 H 0.5886(14) 0.0762(8) 0.2920(7)
H31 H 0.4689(13) 0.0850(8) 0.1997(6)
H32 H 0.79390 -0.06760 0.29080
H33 H 0.94520 -0.11650 0.37810
H34 H 0.94460 -0.08000 0.47990
H35 H 0.79020 0.00600 0.49470
H36 H 0.63640 0.05430 0.40820
H37 H 0.44240 -0.03220 0.11970
H38 H 0.39510 0.04940 0.09800
H39 H 0.21280 -0.03130 0.08590
H40 H 0.25440 -0.04830 0.16000
H41 H 0.07950 0.03760 0.13520
H42 H 0.20590 0.07200 0.18350
H43 H 0.5541(14) 0.3334(8) 0.3024(6)
H44 H 0.4090(14) 0.3329(8) 0.2177(7)
H45 H 0.74910 0.17890 0.31110
H46 H 0.91330 0.14260 0.39900
H47 H 0.95100 0.20800 0.49320
H48 H 0.81880 0.30980 0.50040
H49 H 0.64910 0.34390 0.41430
H50 H 0.37290 0.20820 0.14440
H51 H 0.30110 0.28500 0.12350
H52 H 0.15350 0.26130 0.18700
H53 H 0.22600 0.18490 0.20890
H54 H 0.02810 0.16800 0.12810
H55 H 0.08740 0.21730 0.08140
H56 H 0.00730 0.08130 0.03270
H57 H 0.14190 0.05580 0.01730
H58 H 0.09270 0.13890 0.00450
loop_
_geom_bond_atom_site_label_1
_geom_bond_atom_site_label_2
_geom_bond_site_symmetry_1
_geom_bond_site_symmetry_2
O1 C7 1_555 1_555
O2 C17 1_555 1_555
N1 C1 1_555 1_555
N2 C7 1_555 1_555
N3 C11 1_555 1_555
N4 C17 1_555 1_555
N5 C10 1_555 1_555
C1 C2 1_555 1_555
C2 C3 1_555 1_555
C3 C4 1_555 1_555
C4 C5 1_555 1_555
C5 C6 1_555 1_555
C6 C1 1_555 1_555
C7 N1 1_555 1_555
C8 N2 1_555 1_555
C9 C8 1_555 1_555
C10 C9 1_555 1_555
C11 C12 1_555 1_555
C12 C13 1_555 1_555
C13 C14 1_555 1_555
C14 C15 1_555 1_555
C15 C16 1_555 1_555
C16 C11 1_555 1_555
C17 N3 1_555 1_555
C18 N4 1_555 1_555
C19 C18 1_555 1_555
C20 N5 1_555 1_555
C21 N5 1_555 1_555
H1 N1 1_555 1_555
H2 N2 1_555 1_555
H3 C2 1_555 1_555
H4 C3 1_555 1_555
H5 C4 1_555 1_555
H6 C5 1_555 1_555
H7 C6 1_555 1_555
H8 C8 1_555 1_555
H9 C8 1_555 1_555
H10 C9 1_555 1_555
H11 C9 1_555 1_555
H12 C10 1_555 1_555
H13 C10 1_555 1_555
H14 N3 1_555 1_555
H15 N4 1_555 1_555
H16 C12 1_555 1_555
H17 C13 1_555 1_555
H18 C14 1_555 1_555
H19 C15 1_555 1_555
H20 C16 1_555 1_555
H21 C18 1_555 1_555
H22 C18 1_555 1_555
H23 C19 1_555 1_555
H24 C19 1_555 1_555
H25 C20 1_555 1_555
H26 C20 1_555 1_555
H27 C21 1_555 1_555
H28 C21 1_555 1_555
H29 C21 1_555 1_555
O3 C28 1_555 1_555
O4 C38 1_555 1_555
N6 C22 1_555 1_555
N7 C28 1_555 1_555
N8 C32 1_555 1_555
N9 C38 1_555 1_555
N10 C31 1_555 1_555
C22 C23 1_555 1_555
C23 C24 1_555 1_555
C24 C25 1_555 1_555
C25 C26 1_555 1_555
C26 C27 1_555 1_555
C27 C22 1_555 1_555
C28 N6 1_555 1_555
C29 N7 1_555 1_555
C30 C29 1_555 1_555
C31 C30 1_555 1_555
C32 C33 1_555 1_555
C33 C34 1_555 1_555
C34 C35 1_555 1_555
C35 C36 1_555 1_555
C36 C37 1_555 1_555
C37 C32 1_555 1_555
C38 N8 1_555 1_555
C39 N9 1_555 1_555
C40 C39 1_555 1_555
C41 N10 1_555 1_555
C42 N10 1_555 1_555
H30 N6 1_555 1_555
H31 N7 1_555 1_555
H32 C23 1_555 1_555
H33 C24 1_555 1_555
H34 C25 1_555 1_555
H35 C26 1_555 1_555
H36 C27 1_555 1_555
H37 C29 1_555 1_555
H38 C29 1_555 1_555
H39 C30 1_555 1_555
H40 C30 1_555 1_555
H41 C31 1_555 1_555
H42 C31 1_555 1_555
H43 N8 1_555 1_555
H44 N9 1_555 1_555
H45 C33 1_555 1_555
H46 C34 1_555 1_555
H47 C35 1_555 1_555
H48 C36 1_555 1_555
H49 C37 1_555 1_555
H50 C39 1_555 1_555
H51 C39 1_555 1_555
H52 C40 1_555 1_555
H53 C40 1_555 1_555
H54 C41 1_555 1_555
H55 C41 1_555 1_555
H56 C42 1_555 1_555
H57 C42 1_555 1_555
H58 C42 1_555 1_555
C19 C20 1_555 1_555
C40 C41 1_555 1_555

#END
