
#######################################################################
#
#                 Cambridge Crystallographic Data Centre
#                                CCDC 
#
#######################################################################
#
# If this CIF has been generated from an entry in the Cambridge 
# Structural Database, then it will include bibliographic, chemical, 
# crystal, experimental, refinement or atomic coordinate data resulting 
# from the CCDC's data processing and validation procedures.
#
#######################################################################

data_LIPDIX
_chemical_formula_moiety         'C54 H42 P4 S4,0.75(C1 H2 Cl2)'
_chemical_name_systematic        
'1,2,3,5-tetrakis(Diphenylthiophosphino)benzene dichloromethane solvate'
_symmetry_cell_setting           monoclinic
_symmetry_space_group_name_H-M   'P 21/n'
_symmetry_Int_Tables_number      14
_space_group_name_Hall           '-P 2yn'
loop_
_symmetry_equiv_pos_site_id
_symmetry_equiv_pos_as_xyz
1 x,y,z
2 1/2-x,1/2+y,1/2-z
3 -x,-y,-z
4 1/2+x,1/2-y,1/2+z
_cell_length_a                   12.356(3)
_cell_length_b                   18.851(4)
_cell_length_c                   23.153(6)
_cell_angle_alpha                90
_cell_angle_beta                 103.57(4)
_cell_angle_gamma                90
_cell_volume                     5242.32
_exptl_crystal_colour            yellow
_cell_formula_units_Z            4
_exptl_crystal_recrystallization_method 'dichloromethane/diethyl ether'
loop_
_atom_site_label
_atom_site_type_symbol
_atom_site_fract_x
_atom_site_fract_y
_atom_site_fract_z
P1 P 0.74609(8) 0.57532(5) 0.32609(5)
P2 P 0.50620(8) 0.57298(5) 0.19355(4)
P3 P 0.35998(8) 0.73543(5) 0.19405(4)
P4 P 0.49697(9) 0.73742(6) 0.43553(5)
S1 S 0.81539(9) 0.57463(6) 0.25934(5)
S2 S 0.34616(9) 0.56272(6) 0.16161(5)
S3 S 0.40325(9) 0.74033(6) 0.11900(4)
S4 S 0.53434(10) 0.67096(7) 0.50127(5)
C1 C 0.6081(3) 0.6195(2) 0.31362(17)
C2 C 0.5303(3) 0.6339(2) 0.25846(17)
C3 C 0.4509(3) 0.6882(2) 0.25840(17)
C4 C 0.4406(3) 0.7177(2) 0.31199(17)
C5 C 0.5065(3) 0.6964(2) 0.36568(17)
C6 C 0.5917(3) 0.6498(2) 0.36560(17)
C7 C 0.7368(3) 0.4906(2) 0.36188(18)
C8 C 0.8125(4) 0.4380(2) 0.3567(2)
C9 C 0.8193(4) 0.3760(3) 0.3899(2)
C10 C 0.7507(5) 0.3675(3) 0.4283(2)
C11 C 0.6739(4) 0.4190(3) 0.4331(2)
C12 C 0.6671(4) 0.4807(2) 0.3999(2)
C13 C 0.8279(3) 0.6299(2) 0.38606(19)
C14 C 0.8390(4) 0.7018(3) 0.3749(2)
C15 C 0.8950(5) 0.7458(3) 0.4199(2)
C16 C 0.9427(4) 0.7185(3) 0.4749(2)
C17 C 0.9336(5) 0.6475(4) 0.4856(2)
C18 C 0.8758(4) 0.6029(3) 0.4415(2)
C19 C 0.5606(3) 0.4864(2) 0.21977(18)
C20 C 0.6363(4) 0.4502(2) 0.1946(2)
C21 C 0.6618(4) 0.3799(2) 0.2097(2)
C22 C 0.6130(4) 0.3454(2) 0.2492(2)
C23 C 0.5385(4) 0.3813(2) 0.2748(2)
C24 C 0.5116(4) 0.4513(2) 0.2603(2)
C25 C 0.5784(3) 0.6040(2) 0.13875(17)
C26 C 0.5495(4) 0.5741(2) 0.0825(2)
C27 C 0.5980(5) 0.5984(3) 0.0382(2)
C28 C 0.6756(4) 0.6525(3) 0.0502(2)
C29 C 0.7029(4) 0.6831(3) 0.1053(2)
C30 C 0.6550(3) 0.6594(2) 0.14980(19)
C31 C 0.2182(3) 0.7083(2) 0.19135(18)
C32 C 0.1887(3) 0.6700(2) 0.23642(19)
C33 C 0.0771(4) 0.6558(2) 0.2337(2)
C34 C -0.0034(4) 0.6789(3) 0.1865(2)
C35 C 0.0251(4) 0.7176(3) 0.1414(2)
C36 C 0.1360(3) 0.7322(2) 0.14419(19)
C37 C 0.3668(3) 0.8254(2) 0.22373(18)
C38 C 0.2815(4) 0.8552(2) 0.2458(2)
C39 C 0.2915(5) 0.9245(3) 0.2679(2)
C40 C 0.3843(5) 0.9634(3) 0.2683(2)
C41 C 0.4696(5) 0.9343(3) 0.2463(2)
C42 C 0.4610(4) 0.8656(2) 0.2241(2)
C43 C 0.3569(4) 0.7725(3) 0.41911(18)
C44 C 0.2704(5) 0.7248(4) 0.4055(3)
C45 C 0.1616(5) 0.7485(7) 0.3879(4)
C46 C 0.1390(6) 0.8195(7) 0.3846(3)
C47 C 0.2242(7) 0.8677(5) 0.4001(3)
C48 C 0.3334(5) 0.8435(3) 0.4170(3)
C49 C 0.5921(3) 0.8118(2) 0.44059(19)
C50 C 0.5838(4) 0.8583(2) 0.3934(2)
C51 C 0.6590(4) 0.9139(3) 0.3980(2)
C52 C 0.7429(5) 0.9229(3) 0.4490(3)
C53 C 0.7519(5) 0.8759(3) 0.4953(2)
C54 C 0.6767(4) 0.8196(3) 0.4914(2)
H1 H 0.3864 0.7536 0.3115
H2 H 0.6412 0.6379 0.4023
H3 H 0.8601 0.4444 0.3303
H4 H 0.8709 0.3399 0.3861
H5 H 0.7561 0.3258 0.4518
H6 H 0.6257 0.4121 0.4591
H7 H 0.6144 0.5162 0.4033
H8 H 0.8082 0.7206 0.3365
H9 H 0.9004 0.7951 0.4128
H10 H 0.9819 0.7487 0.5056
H11 H 0.9673 0.6287 0.5236
H12 H 0.8691 0.5538 0.4494
H13 H 0.6705 0.4736 0.1671
H14 H 0.7137 0.3554 0.1925
H15 H 0.6303 0.2971 0.2589
H16 H 0.5055 0.3576 0.3026
H17 H 0.4599 0.4755 0.2778
H18 H 0.4963 0.5369 0.0745
H19 H 0.5780 0.5779 -0.0003
H20 H 0.7102 0.6685 0.0200
H21 H 0.7552 0.7208 0.1129
H22 H 0.6742 0.6808 0.1880
H23 H 0.2446 0.6534 0.2691
H24 H 0.0568 0.6301 0.2648
H25 H -0.0793 0.6683 0.1845
H26 H -0.0312 0.7340 0.1088
H27 H 0.1557 0.7590 0.1134
H28 H 0.2164 0.8283 0.2459
H29 H 0.2330 0.9446 0.2827
H30 H 0.3906 1.0104 0.2835
H31 H 0.5343 0.9616 0.2465
H32 H 0.5199 0.8461 0.2092
H33 H 0.2854 0.6753 0.4083
H34 H 0.1024 0.7152 0.3780
H35 H 0.0644 0.8355 0.3716
H36 H 0.2086 0.9171 0.3993
H37 H 0.3926 0.8768 0.4272
H38 H 0.5271 0.8521 0.3582
H39 H 0.6530 0.9462 0.3659
H40 H 0.7938 0.9613 0.4520
H41 H 0.8097 0.8816 0.5302
H42 H 0.6836 0.7870 0.5234
Cl1 Cl 0.8682(3) 0.4859(2) 0.58813(18)
Cl2 Cl 0.6470(4) 0.5008(4) 0.6031(3)
C55 C 0.7683(9) 0.4837(9) 0.6141(7)
Cl3? Cl 0.7056(14) 0.4368(7) 0.6453(6)
C56? C 0.7600(10) 0.5388(8) 0.5942(8)
Cl4? Cl 0.5391(10) 0.9857(5) 0.5258(4)
Cl5? Cl 0.4372(10) 1.0350(6) 0.4153(5)
C57? C 0.5333(19) 1.0417(12) 0.4730(8)
loop_
_geom_bond_atom_site_label_1
_geom_bond_atom_site_label_2
_geom_bond_site_symmetry_1
_geom_bond_site_symmetry_2
P1 S1 1_555 1_555
P2 S2 1_555 1_555
P3 S3 1_555 1_555
P4 S4 1_555 1_555
C1 P1 1_555 1_555
C2 P2 1_555 1_555
C3 P3 1_555 1_555
C4 C3 1_555 1_555
C5 P4 1_555 1_555
C6 C1 1_555 1_555
C7 P1 1_555 1_555
C8 C7 1_555 1_555
C9 C8 1_555 1_555
C10 C9 1_555 1_555
C11 C10 1_555 1_555
C12 C7 1_555 1_555
C13 P1 1_555 1_555
C14 C13 1_555 1_555
C15 C14 1_555 1_555
C16 C15 1_555 1_555
C17 C16 1_555 1_555
C18 C13 1_555 1_555
C19 P2 1_555 1_555
C20 C19 1_555 1_555
C21 C20 1_555 1_555
C22 C21 1_555 1_555
C23 C22 1_555 1_555
C24 C19 1_555 1_555
C25 P2 1_555 1_555
C26 C25 1_555 1_555
C27 C26 1_555 1_555
C28 C27 1_555 1_555
C29 C28 1_555 1_555
C30 C25 1_555 1_555
C31 P3 1_555 1_555
C32 C31 1_555 1_555
C33 C32 1_555 1_555
C34 C33 1_555 1_555
C35 C34 1_555 1_555
C36 C31 1_555 1_555
C37 P3 1_555 1_555
C38 C37 1_555 1_555
C39 C38 1_555 1_555
C40 C39 1_555 1_555
C41 C40 1_555 1_555
C42 C37 1_555 1_555
C43 P4 1_555 1_555
C44 C43 1_555 1_555
C45 C44 1_555 1_555
C46 C45 1_555 1_555
C47 C46 1_555 1_555
C48 C43 1_555 1_555
C49 P4 1_555 1_555
C50 C49 1_555 1_555
C51 C50 1_555 1_555
C52 C51 1_555 1_555
C53 C52 1_555 1_555
C54 C49 1_555 1_555
H1 C4 1_555 1_555
H2 C6 1_555 1_555
H3 C8 1_555 1_555
H4 C9 1_555 1_555
H5 C10 1_555 1_555
H6 C11 1_555 1_555
H7 C12 1_555 1_555
H8 C14 1_555 1_555
H9 C15 1_555 1_555
H10 C16 1_555 1_555
H11 C17 1_555 1_555
H12 C18 1_555 1_555
H13 C20 1_555 1_555
H14 C21 1_555 1_555
H15 C22 1_555 1_555
H16 C23 1_555 1_555
H17 C24 1_555 1_555
H18 C26 1_555 1_555
H19 C27 1_555 1_555
H20 C28 1_555 1_555
H21 C29 1_555 1_555
H22 C30 1_555 1_555
H23 C32 1_555 1_555
H24 C33 1_555 1_555
H25 C34 1_555 1_555
H26 C35 1_555 1_555
H27 C36 1_555 1_555
H28 C38 1_555 1_555
H29 C39 1_555 1_555
H30 C40 1_555 1_555
H31 C41 1_555 1_555
H32 C42 1_555 1_555
H33 C44 1_555 1_555
H34 C45 1_555 1_555
H35 C46 1_555 1_555
H36 C47 1_555 1_555
H37 C48 1_555 1_555
H38 C50 1_555 1_555
H39 C51 1_555 1_555
H40 C52 1_555 1_555
H41 C53 1_555 1_555
H42 C54 1_555 1_555
Cl1 C55 1_555 1_555
Cl2 C55 1_555 1_555
C1 C2 1_555 1_555
C2 C3 1_555 1_555
C4 C5 1_555 1_555
C5 C6 1_555 1_555
C11 C12 1_555 1_555
C17 C18 1_555 1_555
C23 C24 1_555 1_555
C29 C30 1_555 1_555
C35 C36 1_555 1_555
C41 C42 1_555 1_555
C47 C48 1_555 1_555
C53 C54 1_555 1_555

#END
