
#######################################################################
#
#                 Cambridge Crystallographic Data Centre
#                                CCDC 
#
#######################################################################
#
# If this CIF has been generated from an entry in the Cambridge 
# Structural Database, then it will include bibliographic, chemical, 
# crystal, experimental, refinement or atomic coordinate data resulting 
# from the CCDC's data processing and validation procedures.
#
#######################################################################

data_LIPPOQ
_chemical_formula_moiety         'C35 H45 F3 N2 O1'
_chemical_name_systematic        
N,N'-bis(2,6-Diisopropylphenyl)-N-(4-(3',4',5'-trifluorophenoxy)butyl)formamidine
_symmetry_cell_setting           monoclinic
_symmetry_space_group_name_H-M   'P 21/n'
_symmetry_Int_Tables_number      14
_space_group_name_Hall           '-P 2yn'
loop_
_symmetry_equiv_pos_site_id
_symmetry_equiv_pos_as_xyz
1 x,y,z
2 1/2-x,1/2+y,1/2-z
3 -x,-y,-z
4 1/2+x,1/2-y,1/2+z
_cell_length_a                   15.1258(5)
_cell_length_b                   14.2672(4)
_cell_length_c                   16.3892(5)
_cell_angle_alpha                90
_cell_angle_beta                 117.121(2)
_cell_angle_gamma                90
_cell_volume                     3147.95
_exptl_crystal_colour            colorless
_exptl_crystal_description       rod
_chemical_melting_point          '429 K'
_cell_formula_units_Z            4
loop_
_atom_site_label
_atom_site_type_symbol
_atom_site_fract_x
_atom_site_fract_y
_atom_site_fract_z
F1 F 0.82507(17) 0.10886(18) 0.79895(15)
F2 F 0.90839(16) 0.08385(16) 0.68608(17)
F3 F 0.79124(17) 0.08256(17) 0.50154(16)
O1 O 0.50637(18) 0.12594(16) 0.55056(15)
N1 N 0.19842(19) 0.31871(17) 0.51963(16)
N2 N 0.1713(2) 0.42009(18) 0.40014(17)
C1 C 0.2018(2) 0.3004(2) 0.60812(19)
C2 C 0.1235(2) 0.2512(2) 0.61119(19)
C3 C 0.1309(2) 0.2284(2) 0.6963(2)
H1 H 0.0790 0.1939 0.6997
C4 C 0.2119(3) 0.2548(2) 0.7757(2)
H2 H 0.2158 0.2382 0.8334
C5 C 0.2874(3) 0.3051(2) 0.7722(2)
H3 H 0.3423 0.3239 0.8277
C6 C 0.2853(2) 0.3290(2) 0.6891(2)
C7 C 0.0299(2) 0.2242(2) 0.5249(2)
H4 H 0.0365 0.2480 0.4706
C8 C 0.0182(3) 0.1183(2) 0.5164(2)
H5 H 0.0766 0.0907 0.5146
H6 H -0.0415 0.1025 0.4599
H7 H 0.0119 0.0934 0.5692
C9 C -0.0606(2) 0.2707(2) 0.5254(2)
H8 H -0.1198 0.2563 0.4680
H9 H -0.0507 0.3387 0.5313
H10 H -0.0696 0.2468 0.5772
C10 C 0.3704(3) 0.3867(2) 0.6894(2)
H11 H 0.3583 0.3942 0.6245
C11 C 0.4712(3) 0.3377(3) 0.7431(2)
H12 H 0.5238 0.3766 0.7415
H13 H 0.4699 0.2767 0.7152
H14 H 0.4841 0.3288 0.8068
C12 C 0.3706(3) 0.4850(3) 0.7287(2)
H15 H 0.3060 0.5150 0.6926
H16 H 0.4230 0.5232 0.7258
H17 H 0.3830 0.4793 0.7926
C13 C 0.1406(3) 0.5089(2) 0.3576(2)
C14 C 0.2130(3) 0.5771(2) 0.3685(2)
C15 C 0.1800(3) 0.6602(2) 0.3197(2)
H18 H 0.2270 0.7072 0.3258
C16 C 0.0810(4) 0.6759(3) 0.2628(2)
H19 H 0.0606 0.7336 0.2306
C17 C 0.0106(3) 0.6083(3) 0.2522(2)
H20 H -0.0577 0.6202 0.2132
C18 C 0.0391(3) 0.5234(2) 0.2980(2)
C19 C 0.3218(3) 0.5625(3) 0.4337(3)
H21 H 0.3328 0.4937 0.4459
C20 C 0.3915(4) 0.5957(3) 0.3964(3)
H22 H 0.3723 0.5671 0.3363
H23 H 0.4597 0.5774 0.4387
H24 H 0.3876 0.6641 0.3902
C21 C 0.3481(3) 0.6115(3) 0.5257(3)
H25 H 0.3359 0.6790 0.5154
H26 H 0.4183 0.6007 0.5679
H27 H 0.3067 0.5860 0.5522
C22 C -0.0376(3) 0.4502(2) 0.2870(2)
H28 H -0.0035 0.3880 0.3017
C23 C -0.1235(3) 0.4438(3) 0.1909(2)
H29 H -0.1624 0.5019 0.1767
H30 H -0.1660 0.3907 0.1876
H31 H -0.0974 0.4349 0.1466
C24 C -0.0797(3) 0.4664(3) 0.3540(2)
H32 H -0.0256 0.4658 0.4168
H33 H -0.1274 0.4167 0.3470
H34 H -0.1134 0.5273 0.3415
C25 C 0.1755(2) 0.4045(2) 0.4789(2)
H35 H 0.1621 0.4546 0.5098
C26 C 0.2168(2) 0.2410(2) 0.4709(2)
H36 H 0.1716 0.2471 0.4046
H37 H 0.2011 0.1813 0.4922
C27 C 0.3239(2) 0.2376(2) 0.4854(2)
H38 H 0.3697 0.2335 0.5518
H39 H 0.3392 0.2959 0.4616
C28 C 0.3394(3) 0.1532(2) 0.4362(2)
H40 H 0.3181 0.0959 0.4565
H41 H 0.2964 0.1602 0.3695
C29 C 0.4455(3) 0.1404(2) 0.4529(2)
H42 H 0.4505 0.0856 0.4182
H43 H 0.4682 0.1967 0.4325
C30 C 0.6058(3) 0.1160(2) 0.5801(2)
C31 C 0.6650(3) 0.1159(2) 0.6758(2)
H44 H 0.6361 0.1231 0.7162
C32 C 0.7642(3) 0.1053(3) 0.7084(3)
C33 C 0.8086(3) 0.0938(2) 0.6515(3)
C34 C 0.7493(3) 0.0946(2) 0.5582(3)
C35 C 0.6484(3) 0.1059(2) 0.5203(3)
H45 H 0.6086 0.1069 0.4557
loop_
_geom_bond_atom_site_label_1
_geom_bond_atom_site_label_2
_geom_bond_site_symmetry_1
_geom_bond_site_symmetry_2
F1 C32 1_555 1_555
F2 C33 1_555 1_555
F3 C34 1_555 1_555
O1 C29 1_555 1_555
N1 C1 1_555 1_555
N2 C13 1_555 1_555
C1 C2 1_555 1_555
C2 C3 1_555 1_555
C3 H1 1_555 1_555
C4 C3 1_555 1_555
H2 C4 1_555 1_555
C5 C4 1_555 1_555
H3 C5 1_555 1_555
C6 C1 1_555 1_555
C7 C2 1_555 1_555
H4 C7 1_555 1_555
C8 C7 1_555 1_555
H5 C8 1_555 1_555
H6 C8 1_555 1_555
H7 C8 1_555 1_555
C9 C7 1_555 1_555
H8 C9 1_555 1_555
H9 C9 1_555 1_555
H10 C9 1_555 1_555
C10 C6 1_555 1_555
H11 C10 1_555 1_555
C11 C10 1_555 1_555
H12 C11 1_555 1_555
H13 C11 1_555 1_555
H14 C11 1_555 1_555
C12 C10 1_555 1_555
H15 C12 1_555 1_555
H16 C12 1_555 1_555
H17 C12 1_555 1_555
C13 C14 1_555 1_555
C14 C15 1_555 1_555
C15 H18 1_555 1_555
C16 C15 1_555 1_555
H19 C16 1_555 1_555
C17 C16 1_555 1_555
H20 C17 1_555 1_555
C18 C13 1_555 1_555
C19 C14 1_555 1_555
H21 C19 1_555 1_555
C20 C19 1_555 1_555
H22 C20 1_555 1_555
H23 C20 1_555 1_555
H24 C20 1_555 1_555
C21 C19 1_555 1_555
H25 C21 1_555 1_555
H26 C21 1_555 1_555
H27 C21 1_555 1_555
C22 C18 1_555 1_555
H28 C22 1_555 1_555
C23 C22 1_555 1_555
H29 C23 1_555 1_555
H30 C23 1_555 1_555
H31 C23 1_555 1_555
C24 C22 1_555 1_555
H32 C24 1_555 1_555
H33 C24 1_555 1_555
H34 C24 1_555 1_555
C25 N1 1_555 1_555
H35 C25 1_555 1_555
C26 N1 1_555 1_555
H36 C26 1_555 1_555
H37 C26 1_555 1_555
C27 C26 1_555 1_555
H38 C27 1_555 1_555
H39 C27 1_555 1_555
C28 C27 1_555 1_555
H40 C28 1_555 1_555
H41 C28 1_555 1_555
C29 C28 1_555 1_555
H42 C29 1_555 1_555
H43 C29 1_555 1_555
C30 O1 1_555 1_555
C31 C30 1_555 1_555
H44 C31 1_555 1_555
C32 C31 1_555 1_555
C33 C32 1_555 1_555
C34 C33 1_555 1_555
C35 C30 1_555 1_555
H45 C35 1_555 1_555
N2 C25 1_555 1_555
C5 C6 1_555 1_555
C17 C18 1_555 1_555
C34 C35 1_555 1_555

#END
