
#######################################################################
#
#                 Cambridge Crystallographic Data Centre
#                                CCDC 
#
#######################################################################
#
# If this CIF has been generated from an entry in the Cambridge 
# Structural Database, then it will include bibliographic, chemical, 
# crystal, experimental, refinement or atomic coordinate data resulting 
# from the CCDC's data processing and validation procedures.
#
#######################################################################

data_LIPQOQ
_chemical_formula_moiety         'C16 H30 O4'
_chemical_name_systematic        1,2,7,8-Tetraoxaspiro(8.11)icosane
_symmetry_cell_setting           triclinic
_symmetry_space_group_name_H-M   'P -1'
_symmetry_Int_Tables_number      2
_space_group_name_Hall           '-P 1'
loop_
_symmetry_equiv_pos_site_id
_symmetry_equiv_pos_as_xyz
1 x,y,z
2 -x,-y,-z
_cell_length_a                   10.1486(9)
_cell_length_b                   12.092(3)
_cell_length_c                   14.3437(18)
_cell_angle_alpha                102.212(11)
_cell_angle_beta                 110.689(9)
_cell_angle_gamma                90.108(9)
_cell_volume                     1603.78
_exptl_crystal_colour            colorless
_exptl_crystal_description       block
_chemical_melting_point          '97-98 deg.C'
_cell_formula_units_Z            4
loop_
_atom_site_label
_atom_site_type_symbol
_atom_site_fract_x
_atom_site_fract_y
_atom_site_fract_z
O1 O 1.0290(1) 0.4956(1) 0.1729(1)
O2 O 0.8966(1) 0.5092(1) 0.0907(1)
O3 O 1.0029(1) 0.6390(1) 0.3423(1)
O4 O 0.9126(1) 0.5318(1) 0.2907(1)
C1 C 0.9912(2) 0.4544(1) 0.2467(1)
C2 C 0.8916(2) 0.3463(1) 0.1997(1)
C3 C 0.9348(2) 0.2582(2) 0.1243(1)
C4 C 0.8611(2) 0.1397(2) 0.1009(1)
C5 C 0.9009(2) 0.0823(2) 0.1913(2)
C6 C 1.0547(2) 0.0531(2) 0.2285(1)
C7 C 1.1116(2) 0.0394(2) 0.3389(1)
C8 C 1.1331(2) 0.1507(2) 0.4188(1)
C9 C 1.2544(2) 0.2321(2) 0.4273(1)
C10 C 1.2524(2) 0.3557(2) 0.4808(1)
C11 C 1.1278(2) 0.4173(2) 0.4245(1)
C12 C 1.1349(2) 0.4391(2) 0.3248(1)
C13 C 0.9242(2) 0.6125(2) 0.0639(1)
C14 C 0.9566(2) 0.7170(2) 0.1503(1)
C15 C 0.8496(2) 0.7265(2) 0.2043(2)
C16 C 0.9125(2) 0.7275(2) 0.3172(2)
H1 H 0.7954 0.3668 0.1636
H2 H 0.8877 0.3116 0.2553
H3 H 0.9123 0.2837 0.0596
H4 H 1.0384 0.2539 0.1530
H5 H 0.7577 0.1453 0.0757
H6 H 0.8838 0.0904 0.0449
H7 H 0.8384 0.0116 0.1712
H8 H 0.8833 0.1332 0.2488
H9 H 1.0631 -0.0184 0.1831
H10 H 1.1146 0.1138 0.2221
H11 H 1.2030 0.0052 0.3517
H12 H 1.0449 -0.0140 0.3474
H13 H 1.0446 0.1893 0.4013
H14 H 1.1517 0.1329 0.4864
H15 H 1.2523 0.2305 0.3575
H16 H 1.3448 0.2037 0.4648
H17 H 1.2508 0.3571 0.5497
H18 H 1.3413 0.3982 0.4902
H19 H 1.1262 0.4909 0.4701
H20 H 1.0386 0.3713 0.4087
H21 H 1.1765 0.3745 0.2932
H22 H 1.1989 0.5081 0.3414
H23 H 0.8408 0.6239 0.0058
H24 H 1.0053 0.6041 0.0405
H25 H 0.9571 0.7854 0.1228
H26 H 1.0522 0.7149 0.2010
H27 H 0.8020 0.7971 0.1961
H28 H 0.7766 0.6618 0.1698
H29 H 0.9671 0.8015 0.3541
H30 H 0.8343 0.7214 0.3424
O5 O 0.3979(1) 0.8539(1) 0.2728(1)
O6 O 0.4842(1) 0.7764(1) 0.3319(1)
O7 O 0.5332(1) 0.8308(1) 0.1667(1)
O8 O 0.4097(1) 0.7707(1) 0.0786(1)
C17 C 0.4834(2) 0.9091(1) 0.2333(1)
C18 C 0.6216(2) 0.9680(1) 0.3161(1)
C19 C 0.6036(2) 1.0425(1) 0.4107(1)
C20 C 0.7256(2) 1.1347(2) 0.4702(1)
C21 C 0.7323(2) 1.2290(2) 0.4157(1)
C22 C 0.6094(2) 1.3057(2) 0.4025(1)
C23 C 0.5903(2) 1.3741(2) 0.3206(1)
C24 C 0.5405(2) 1.3014(2) 0.2113(1)
C25 C 0.3882(2) 1.2486(2) 0.1701(2)
C26 C 0.3571(2) 1.1452(2) 0.0805(1)
C27 C 0.4357(2) 1.0420(1) 0.1094(1)
C28 C 0.3830(2) 0.9885(1) 0.1786(1)
C29 C 0.3935(2) 0.6749(1) 0.3043(1)
C30 C 0.3443(2) 0.6157(2) 0.1918(1)
C31 C 0.4636(2) 0.5994(2) 0.1495(1)
C32 C 0.4421(2) 0.6546(1) 0.0601(1)
H31 H 0.6861 0.9094 0.3378
H32 H 0.6671 1.0158 0.2859
H33 H 0.5969 0.9937 0.4566
H34 H 0.5139 1.0790 0.3891
H35 H 0.7172 1.1694 0.5367
H36 H 0.8158 1.0983 0.4848
H37 H 0.7340 1.1940 0.3472
H38 H 0.8222 1.2769 0.4547
H39 H 0.5208 1.2578 0.3844
H40 H 0.6254 1.3591 0.4688
H41 H 0.5206 1.4302 0.3254
H42 H 0.6814 1.4167 0.3353
H43 H 0.5499 1.3491 0.1654
H44 H 0.6040 1.2397 0.2088
H45 H 0.3235 1.3069 0.1477
H46 H 0.3682 1.2255 0.2263
H47 H 0.3834 1.1670 0.0262
H48 H 0.2542 1.1231 0.0518
H49 H 0.4240 0.9842 0.0462
H50 H 0.5379 1.0657 0.1448
H51 H 0.3677 1.0499 0.2306
H52 H 0.2906 0.9453 0.1368
H53 H 0.3094 0.6939 0.3223
H54 H 0.4440 0.6214 0.3454
H55 H 0.2739 0.6607 0.1517
H56 H 0.2965 0.5405 0.1821
H57 H 0.5541 0.6318 0.2050
H58 H 0.4708 0.5170 0.1273
H59 H 0.5290 0.6508 0.0435
H60 H 0.3642 0.6105 -0.0004
loop_
_geom_bond_atom_site_label_1
_geom_bond_atom_site_label_2
_geom_bond_site_symmetry_1
_geom_bond_site_symmetry_2
O1 O2 1_555 1_555
O2 C13 1_555 1_555
O3 O4 1_555 1_555
O4 C1 1_555 1_555
C1 O1 1_555 1_555
C2 C1 1_555 1_555
C3 C2 1_555 1_555
C4 C3 1_555 1_555
C5 C4 1_555 1_555
C6 C5 1_555 1_555
C7 C6 1_555 1_555
C8 C7 1_555 1_555
C9 C8 1_555 1_555
C10 C9 1_555 1_555
C11 C10 1_555 1_555
C12 C1 1_555 1_555
C13 C14 1_555 1_555
C14 C15 1_555 1_555
C15 C16 1_555 1_555
C16 O3 1_555 1_555
O5 O6 1_555 1_555
O6 C29 1_555 1_555
O7 O8 1_555 1_555
O8 C32 1_555 1_555
C17 O5 1_555 1_555
C18 C17 1_555 1_555
C19 C18 1_555 1_555
C20 C19 1_555 1_555
C21 C20 1_555 1_555
C22 C21 1_555 1_555
C23 C22 1_555 1_555
C24 C23 1_555 1_555
C25 C24 1_555 1_555
C26 C25 1_555 1_555
C27 C26 1_555 1_555
C28 C17 1_555 1_555
C29 C30 1_555 1_555
C30 C31 1_555 1_555
C31 C32 1_555 1_555
C32 H59 1_555 1_555
H1 C2 1_555 1_555
H2 C2 1_555 1_555
H3 C3 1_555 1_555
H4 C3 1_555 1_555
H5 C4 1_555 1_555
H6 C4 1_555 1_555
H7 C5 1_555 1_555
H8 C5 1_555 1_555
H9 C6 1_555 1_555
H10 C6 1_555 1_555
H11 C7 1_555 1_555
H12 C7 1_555 1_555
H13 C8 1_555 1_555
H14 C8 1_555 1_555
H15 C9 1_555 1_555
H16 C9 1_555 1_555
H17 C10 1_555 1_555
H18 C10 1_555 1_555
H19 C11 1_555 1_555
H20 C11 1_555 1_555
H21 C12 1_555 1_555
H22 C12 1_555 1_555
H23 C13 1_555 1_555
H24 C13 1_555 1_555
H25 C14 1_555 1_555
H26 C14 1_555 1_555
H27 C15 1_555 1_555
H28 C15 1_555 1_555
H29 C16 1_555 1_555
H30 C16 1_555 1_555
H31 C18 1_555 1_555
H32 C18 1_555 1_555
H33 C19 1_555 1_555
H34 C19 1_555 1_555
H35 C20 1_555 1_555
H36 C20 1_555 1_555
H37 C21 1_555 1_555
H38 C21 1_555 1_555
H39 C22 1_555 1_555
H40 C22 1_555 1_555
H41 C23 1_555 1_555
H42 C23 1_555 1_555
H43 C24 1_555 1_555
H44 C24 1_555 1_555
H45 C25 1_555 1_555
H46 C25 1_555 1_555
H47 C26 1_555 1_555
H48 C26 1_555 1_555
H49 C27 1_555 1_555
H50 C27 1_555 1_555
H51 C28 1_555 1_555
H52 C28 1_555 1_555
H53 C29 1_555 1_555
H54 C29 1_555 1_555
H55 C30 1_555 1_555
H56 C30 1_555 1_555
H57 C31 1_555 1_555
H58 C31 1_555 1_555
H60 C32 1_555 1_555
C11 C12 1_555 1_555
O7 C17 1_555 1_555
C27 C28 1_555 1_555

#END
