
#######################################################################
#
#                 Cambridge Crystallographic Data Centre
#                                CCDC 
#
#######################################################################
#
# If this CIF has been generated from an entry in the Cambridge 
# Structural Database, then it will include bibliographic, chemical, 
# crystal, experimental, refinement or atomic coordinate data resulting 
# from the CCDC's data processing and validation procedures.
#
#######################################################################

data_LIPQIK
_chemical_formula_moiety         'C15 H28 O4'
_chemical_name_systematic        1,2,6,7-Tetraoxaspiro(7.11)nonadecane
_symmetry_cell_setting           triclinic
_symmetry_space_group_name_H-M   'P -1'
_symmetry_Int_Tables_number      2
_space_group_name_Hall           '-P 1'
loop_
_symmetry_equiv_pos_site_id
_symmetry_equiv_pos_as_xyz
1 x,y,z
2 -x,-y,-z
_cell_length_a                   8.2640(10)
_cell_length_b                   9.266(2)
_cell_length_c                   10.768(2)
_cell_angle_alpha                102.390(10)
_cell_angle_beta                 103.860(10)
_cell_angle_gamma                103.720(10)
_cell_volume                     744.814
_exptl_crystal_colour            colorless
_exptl_crystal_description       plate
_chemical_melting_point          '83-84 deg.C'
_cell_formula_units_Z            2
loop_
_atom_site_label
_atom_site_type_symbol
_atom_site_fract_x
_atom_site_fract_y
_atom_site_fract_z
O1 O 0.2630(2) 0.1675(2) 1.1306(2)
O2 O 0.3500(2) 0.0530(2) 1.0887(2)
O3 O 0.3023(2) 0.2806(2) 0.9600(2)
O4 O 0.1129(2) 0.2043(2) 0.8973(2)
C1 C 0.3340(3) 0.3068(3) 1.1005(2)
C2 C 0.2359(3) 0.4116(3) 1.1578(2)
C3 C 0.2651(3) 0.5682(3) 1.1268(2)
C4 C 0.2362(3) 0.6916(3) 1.2319(2)
C5 C 0.3744(3) 0.7438(3) 1.3693(2)
C6 C 0.5536(3) 0.8393(3) 1.3721(2)
C7 C 0.7037(4) 0.8588(3) 1.4962(2)
C8 C 0.7479(4) 0.7089(3) 1.5036(2)
C9 C 0.8233(3) 0.6431(3) 1.3951(2)
C10 C 0.7952(3) 0.4680(3) 1.3677(3)
C11 C 0.6048(3) 0.3691(3) 1.3002(2)
C12 C 0.5325(3) 0.3696(3) 1.1563(2)
C13 C 0.2230(3) -0.0662(3) 0.9757(2)
C14 C 0.2119(3) -0.0309(3) 0.8428(2)
C15 C 0.0912(3) 0.0623(3) 0.8013(2)
H1 H 0.2707 0.4311 1.2540
H2 H 0.1117 0.3561 1.1235
H3 H 0.3835 0.6037 1.1229
H4 H 0.1853 0.5546 1.0399
H5 H 0.2351 0.7815 1.1997
H6 H 0.1221 0.6508 1.2420
H7 H 0.3342 0.8048 1.4336
H8 H 0.3859 0.6527 1.3968
H9 H 0.5481 0.9413 1.3668
H10 H 0.5799 0.7903 1.2934
H11 H 0.8073 0.9354 1.4973
H12 H 0.6726 0.8986 1.5752
H13 H 0.6425 0.6309 1.4978
H14 H 0.8317 0.7282 1.5902
H15 H 0.9478 0.6964 1.4221
H16 H 0.7690 0.6636 1.3131
H17 H 0.8644 0.4380 1.3115
H18 H 0.8377 0.4463 1.4517
H19 H 0.5948 0.2631 1.3018
H20 H 0.5336 0.4066 1.3514
H21 H 0.5696 0.4751 1.1512
H22 H 0.5825 0.3078 1.1006
H23 H 0.1090 -0.0818 0.9893
H24 H 0.2517 -0.1625 0.9713
H25 H 0.3288 0.0247 0.8458
H26 H 0.1747 -0.1287 0.7734
H27 H 0.1073 0.0861 0.7208
H28 H -0.0286 -0.0028 0.7786
loop_
_geom_bond_atom_site_label_1
_geom_bond_atom_site_label_2
_geom_bond_site_symmetry_1
_geom_bond_site_symmetry_2
O1 O2 1_555 1_555
O2 C13 1_555 1_555
O3 O4 1_555 1_555
O4 C15 1_555 1_555
C1 O1 1_555 1_555
C2 C1 1_555 1_555
C3 C2 1_555 1_555
C4 C3 1_555 1_555
C5 C4 1_555 1_555
C6 C5 1_555 1_555
C7 C6 1_555 1_555
C8 C7 1_555 1_555
C9 C8 1_555 1_555
C10 C9 1_555 1_555
C11 C10 1_555 1_555
C12 C1 1_555 1_555
C13 C14 1_555 1_555
C14 C15 1_555 1_555
C15 H27 1_555 1_555
H1 C2 1_555 1_555
H2 C2 1_555 1_555
H3 C3 1_555 1_555
H4 C3 1_555 1_555
H5 C4 1_555 1_555
H6 C4 1_555 1_555
H7 C5 1_555 1_555
H8 C5 1_555 1_555
H9 C6 1_555 1_555
H10 C6 1_555 1_555
H11 C7 1_555 1_555
H12 C7 1_555 1_555
H13 C8 1_555 1_555
H14 C8 1_555 1_555
H15 C9 1_555 1_555
H16 C9 1_555 1_555
H17 C10 1_555 1_555
H18 C10 1_555 1_555
H19 C11 1_555 1_555
H20 C11 1_555 1_555
H21 C12 1_555 1_555
H22 C12 1_555 1_555
H23 C13 1_555 1_555
H24 C13 1_555 1_555
H25 C14 1_555 1_555
H26 C14 1_555 1_555
H28 C15 1_555 1_555
O3 C1 1_555 1_555
C11 C12 1_555 1_555

#END
