
#######################################################################
#
#                 Cambridge Crystallographic Data Centre
#                                CCDC 
#
#######################################################################
#
# If this CIF has been generated from an entry in the Cambridge 
# Structural Database, then it will include bibliographic, chemical, 
# crystal, experimental, refinement or atomic coordinate data resulting 
# from the CCDC's data processing and validation procedures.
#
#######################################################################

data_LIPRIN
_chemical_formula_moiety         'C29 H32 O10,C1 H4 O1,H2 O1'
_chemical_name_systematic        
'1,10-Dihydroxy-6,8,16,16-tetramethyl-5-(4-methyl-5-oxofuran-2(5H)-ylidene)-17,21,23,24-tetraoxaoctacyclo[11.9.1.1^2,10^.0^2,12^.0^4,8^.0^7,9^.0^15,22^.0^18,22^]tetracosane-11,20-dione methanol solvate monohydrate'
_symmetry_cell_setting           monoclinic
_symmetry_space_group_name_H-M   'P 21'
_symmetry_Int_Tables_number      4
_space_group_name_Hall           'P 2yb'
loop_
_symmetry_equiv_pos_site_id
_symmetry_equiv_pos_as_xyz
1 x,y,z
2 -x,1/2+y,-z
_cell_length_a                   11.7108(3)
_cell_length_b                   11.2360(3)
_cell_length_c                   22.3436(5)
_cell_angle_alpha                90
_cell_angle_beta                 103.5230(10)
_cell_angle_gamma                90
_cell_volume                     2858.52
_exptl_crystal_colour            colorless
_exptl_crystal_description       prism
_cell_formula_units_Z            4
loop_
_atom_site_label
_atom_site_type_symbol
_atom_site_fract_x
_atom_site_fract_y
_atom_site_fract_z
O1 O 0.2917(2) 0.6463(3) 0.43609(13)
O2 O 0.4793(3) 0.6799(4) 0.48088(16)
O3 O 0.4419(3) 0.7849(3) 0.29534(14)
O4 O 0.1334(2) 0.6743(2) 0.32486(12)
O5 O 0.0255(3) 0.8451(2) 0.31607(13)
H1 H -0.0337 0.8528 0.3310
O6 O -0.1667(3) 0.6782(3) 0.30856(13)
O7 O 0.0874(3) 0.3984(2) 0.39077(13)
O8 O 0.2780(2) 0.4195(2) 0.38510(13)
H2 H 0.2626 0.3588 0.3627
O9 O 0.1936(3) 0.5601(3) 0.54624(13)
C1 C 0.6406(4) 0.5683(5) 0.3935(2)
H3 H 0.6135 0.4918 0.4060
H4 H 0.6689 0.6182 0.4299
H5 H 0.7047 0.5548 0.3728
C2 C 0.5429(4) 0.6286(4) 0.3510(2)
C3 C 0.4380(4) 0.5871(4) 0.31765(19)
H6 H 0.4123 0.5069 0.3177
C4 C 0.3722(3) 0.6808(4) 0.28259(18)
C5 C 0.2665(4) 0.6896(4) 0.24392(19)
C6 C 0.1802(3) 0.5902(4) 0.22040(18)
H7 H 0.2113 0.5477 0.1882
C7 C 0.1619(4) 0.4946(3) 0.26616(18)
H8 H 0.2372 0.4530 0.2825
H9 H 0.1048 0.4352 0.2442
C8 C 0.1167(4) 0.5456(3) 0.32059(18)
C9 C 0.1759(4) 0.4817(3) 0.38374(18)
C10 C 0.1970(3) 0.5653(3) 0.43976(18)
C11 C 0.3924(4) 0.6192(5) 0.4778(2)
O10 O 0.6204(3) 0.8312(3) 0.35316(17)
C12 C 0.5454(4) 0.7553(4) 0.3356(2)
C13 C 0.0275(4) 0.7323(3) 0.29295(17)
C14 C -0.0687(4) 0.6483(3) 0.30648(18)
C15 C -0.0151(4) 0.5267(4) 0.31668(18)
H10 H -0.0498 0.4738 0.2811
C16 C -0.0200(4) 0.4651(4) 0.37747(19)
H11 H -0.0888 0.4100 0.3709
C17 C 0.3757(4) 0.5133(5) 0.5143(2)
H12 H 0.4088 0.5270 0.5588
H13 H 0.4135 0.4423 0.5012
C18 C 0.2433(4) 0.4979(4) 0.50102(19)
H14 H 0.2202 0.4120 0.4976
C19 C 0.1216(4) 0.6598(4) 0.51889(18)
C20 C 0.0180(4) 0.6653(4) 0.54951(19)
H15 H -0.0239 0.5891 0.5439
H16 H -0.0355 0.7291 0.5307
H17 H 0.0469 0.6811 0.5936
C21 C 0.0878(4) 0.6300(3) 0.44953(18)
H18 H 0.0735 0.7045 0.4243
C22 C -0.0187(3) 0.5456(4) 0.43219(19)
H19 H -0.0205 0.4952 0.4683
H20 H -0.0912 0.5942 0.4231
C23 C 0.1907(4) 0.7745(4) 0.5325(2)
H21 H 0.2098 0.7893 0.5770
H22 H 0.1436 0.8406 0.5112
H23 H 0.2634 0.7678 0.5183
C24 C 0.0091(4) 0.7332(3) 0.22391(17)
H24 H -0.0750 0.7482 0.2032
C25 C 0.0661(3) 0.6494(4) 0.18664(19)
C26 C 0.0908(3) 0.7812(4) 0.18620(18)
H25 H 0.0542 0.8260 0.1479
C27 C 0.2194(4) 0.8066(4) 0.2154(2)
H26 H 0.2266 0.8694 0.2477
C28 C 0.2833(4) 0.8457(5) 0.1653(2)
H27 H 0.3669 0.8577 0.1840
H28 H 0.2490 0.9203 0.1465
H29 H 0.2743 0.7839 0.1336
C29 C -0.0099(4) 0.5834(4) 0.13284(19)
H30 H -0.0757 0.6342 0.1127
H31 H -0.0402 0.5106 0.1477
H32 H 0.0371 0.5626 0.1033
O11 O 0.8735(4) 0.8766(5) 0.3869(3)
O12 O 0.2101(5) 0.2178(4) 0.3198(2)
O13 O 0.5719(3) 0.1684(3) -0.04621(13)
O14 O 0.6990(2) 0.1584(2) 0.04450(12)
O15 O 0.2996(3) 0.2172(3) -0.04960(13)
O16 O 0.3849(3) 0.2320(2) 0.05137(13)
O17 O 0.7073(2) 0.2042(2) 0.16196(12)
O18 O 0.7973(3) 0.3844(3) 0.19279(14)
H33 H 0.7596 0.4412 0.2033
O19 O 0.9549(3) 0.2518(3) 0.27937(16)
O20 O 0.8592(2) -0.0591(2) 0.15255(12)
O21 O 0.6699(3) -0.0637(2) 0.09542(13)
H34 H 0.6963 -0.1226 0.0798
O22 O 0.9375(3) 0.0743(3) 0.01256(14)
C30 C 0.6557(4) 0.1207(4) -0.01431(19)
C31 C 0.7992(4) 0.0898(3) 0.07556(17)
C32 C 0.7617(3) 0.0090(3) 0.12372(18)
C33 C 0.7306(4) 0.0813(3) 0.17901(18)
C34 C 0.6280(4) 0.0271(4) 0.20269(19)
H35 H 0.5884 -0.0339 0.1730
H36 H 0.6603 -0.0133 0.2424
C35 C 0.5367(4) 0.1195(4) 0.21169(18)
H37 H 0.4716 0.0744 0.2235
C36 C 0.4812(4) 0.1934(4) 0.15553(19)
C37 C 0.4345(4) 0.1513(4) 0.09862(18)
C38 C 0.4217(4) 0.0348(4) 0.07175(19)
H38 H 0.4441 -0.0373 0.0935
C39 C 0.3729(4) 0.0431(4) 0.0108(2)
C40 C 0.3525(5) -0.0499(4) -0.0375(2)
H39 H 0.4052 -0.0368 -0.0651
H40 H 0.2708 -0.0460 -0.0612
H41 H 0.3679 -0.1284 -0.0182
C41 C 0.3479(4) 0.1685(4) -0.0017(2)
C42 C 0.4811(4) 0.3245(4) 0.1721(2)
H42 H 0.5166 0.3738 0.1439
C43 C 0.5536(4) 0.3320(4) 0.23831(19)
H43 H 0.5266 0.3901 0.2660
C44 C 0.5825(4) 0.2085(4) 0.26317(19)
C45 C 0.7598(4) 0.2790(3) 0.2129(2)
C46 C 0.8686(4) 0.2080(4) 0.24519(18)
C47 C 0.8495(4) 0.0808(4) 0.22656(18)
H44 H 0.8439 0.0312 0.2629
C48 C 0.9348(4) 0.0236(4) 0.19274(19)
H45 H 0.9966 -0.0213 0.2227
C49 C 0.7312(4) 0.0215(4) -0.0288(2)
H46 H 0.7558 0.0383 -0.0674
H47 H 0.6878 -0.0549 -0.0334
C50 C 0.8364(4) 0.0162(4) 0.0250(2)
H48 H 0.8549 -0.0678 0.0387
C51 C 0.9590(4) 0.1869(4) 0.0438(2)
C52 C 1.0913(4) 0.2064(5) 0.0576(2)
H49 H 1.1316 0.1341 0.0759
H50 H 1.1126 0.2728 0.0866
H51 H 1.1149 0.2250 0.0194
C53 C 0.9064(4) 0.1687(4) 0.10150(19)
H52 H 0.8817 0.2465 0.1161
C54 C 0.9927(4) 0.1044(4) 0.1536(2)
H53 H 1.0467 0.0560 0.1354
H54 H 1.0404 0.1648 0.1806
C55 C 0.9006(4) 0.2872(4) 0.0018(2)
H55 H 0.9327 0.2899 -0.0350
H56 H 0.9158 0.3632 0.0238
H57 H 0.8157 0.2732 -0.0105
C56 C 0.6801(4) 0.2931(4) 0.2569(2)
H58 H 0.7220 0.3276 0.2974
C57 C 0.5725(5) 0.1721(5) 0.3265(2)
H59 H 0.5882 0.2409 0.3541
H60 H 0.6297 0.1092 0.3421
H61 H 0.4930 0.1423 0.3246
C58 C 0.3571(5) 0.3674(4) 0.1722(2)
H62 H 0.3065 0.3591 0.1307
H63 H 0.3600 0.4511 0.1846
H64 H 0.3254 0.3194 0.2011
O23 O 0.6848(4) 0.5946(3) 0.16637(18)
H65 H 0.6964 0.6291 0.1350
C59 C 0.6082(4) 0.6647(5) 0.1929(2)
H66 H 0.5961 0.6254 0.2301
H67 H 0.5326 0.6738 0.1632
H68 H 0.6433 0.7433 0.2037
O24 O 0.3191(6) -0.0562(8) 0.4046(4)
H69 H 0.3401 -0.0134 0.4361
C60 C 0.2213(7) -0.0076(6) 0.3663(7)
H70 H 0.1703 -0.0715 0.3453
H71 H 0.2452 0.0430 0.3357
H72 H 0.1785 0.0403 0.3905
loop_
_geom_bond_atom_site_label_1
_geom_bond_atom_site_label_2
_geom_bond_site_symmetry_1
_geom_bond_site_symmetry_2
O1 C10 1_555 1_555
O2 C11 1_555 1_555
O3 C4 1_555 1_555
O4 C8 1_555 1_555
O5 H1 1_555 1_555
O6 C14 1_555 1_555
O7 C9 1_555 1_555
O8 H2 1_555 1_555
O9 C18 1_555 1_555
C1 H3 1_555 1_555
H4 C1 1_555 1_555
H5 C1 1_555 1_555
C2 C1 1_555 1_555
C3 C2 1_555 1_555
H6 C3 1_555 1_555
C4 C3 1_555 1_555
C5 C4 1_555 1_555
C6 C5 1_555 1_555
H7 C6 1_555 1_555
C7 C6 1_555 1_555
H8 C7 1_555 1_555
H9 C7 1_555 1_555
C8 C7 1_555 1_555
C9 O8 1_555 1_555
C10 C9 1_555 1_555
C11 O1 1_555 1_555
O10 C12 1_555 1_555
C12 O3 1_555 1_555
C13 O4 1_555 1_555
C14 C13 1_555 1_555
C15 C8 1_555 1_555
H10 C15 1_555 1_555
C16 O7 1_555 1_555
H11 C16 1_555 1_555
C17 C11 1_555 1_555
H12 C17 1_555 1_555
H13 C17 1_555 1_555
C18 C10 1_555 1_555
H14 C18 1_555 1_555
C19 O9 1_555 1_555
C20 C19 1_555 1_555
H15 C20 1_555 1_555
H16 C20 1_555 1_555
H17 C20 1_555 1_555
C21 C10 1_555 1_555
H18 C21 1_555 1_555
C22 C16 1_555 1_555
H19 C22 1_555 1_555
H20 C22 1_555 1_555
C23 C19 1_555 1_555
H21 C23 1_555 1_555
H22 C23 1_555 1_555
H23 C23 1_555 1_555
C24 C13 1_555 1_555
H24 C24 1_555 1_555
C25 C6 1_555 1_555
C26 C24 1_555 1_555
H25 C26 1_555 1_555
C27 C5 1_555 1_555
H26 C27 1_555 1_555
C28 C27 1_555 1_555
H27 C28 1_555 1_555
H28 C28 1_555 1_555
H29 C28 1_555 1_555
C29 C25 1_555 1_555
H30 C29 1_555 1_555
H31 C29 1_555 1_555
H32 C29 1_555 1_555
O13 C30 1_555 1_555
O14 C30 1_555 1_555
O15 C41 1_555 1_555
O16 C37 1_555 1_555
O17 C33 1_555 1_555
O18 H33 1_555 1_555
O19 C46 1_555 1_555
O20 C32 1_555 1_555
O21 H34 1_555 1_555
O22 C50 1_555 1_555
C30 C49 1_555 1_555
C31 O14 1_555 1_555
C32 O21 1_555 1_555
C33 C32 1_555 1_555
C34 C33 1_555 1_555
H35 C34 1_555 1_555
H36 C34 1_555 1_555
C35 C34 1_555 1_555
H37 C35 1_555 1_555
C36 C35 1_555 1_555
C37 C36 1_555 1_555
C38 C37 1_555 1_555
H38 C38 1_555 1_555
C39 C38 1_555 1_555
C40 C39 1_555 1_555
H39 C40 1_555 1_555
H40 C40 1_555 1_555
H41 C40 1_555 1_555
C41 O16 1_555 1_555
C42 C36 1_555 1_555
H42 C42 1_555 1_555
C43 C42 1_555 1_555
H43 C43 1_555 1_555
C44 C35 1_555 1_555
C45 O17 1_555 1_555
C46 C45 1_555 1_555
C47 C33 1_555 1_555
H44 C47 1_555 1_555
C48 O20 1_555 1_555
H45 C48 1_555 1_555
C49 H46 1_555 1_555
H47 C49 1_555 1_555
C50 C31 1_555 1_555
H48 C50 1_555 1_555
C51 O22 1_555 1_555
C52 C51 1_555 1_555
H49 C52 1_555 1_555
H50 C52 1_555 1_555
H51 C52 1_555 1_555
C53 C31 1_555 1_555
H52 C53 1_555 1_555
C54 C48 1_555 1_555
H53 C54 1_555 1_555
H54 C54 1_555 1_555
C55 C51 1_555 1_555
H55 C55 1_555 1_555
H56 C55 1_555 1_555
H57 C55 1_555 1_555
C56 C43 1_555 1_555
H58 C56 1_555 1_555
C57 C44 1_555 1_555
H59 C57 1_555 1_555
H60 C57 1_555 1_555
H61 C57 1_555 1_555
C58 C42 1_555 1_555
H62 C58 1_555 1_555
H63 C58 1_555 1_555
H64 C58 1_555 1_555
O23 H65 1_555 1_555
C59 O23 1_555 1_555
H66 C59 1_555 1_555
H67 C59 1_555 1_555
H68 C59 1_555 1_555
O24 H69 1_555 1_555
C60 O24 1_555 1_555
H70 C60 1_555 1_555
H71 C60 1_555 1_555
H72 C60 1_555 1_555
O5 C13 1_555 1_555
C2 C12 1_555 1_555
C8 C9 1_555 1_555
C14 C15 1_555 1_555
C15 C16 1_555 1_555
C17 C18 1_555 1_555
C19 C21 1_555 1_555
C21 C22 1_555 1_555
C24 C25 1_555 1_555
C25 C26 1_555 1_555
C26 C27 1_555 1_555
O18 C45 1_555 1_555
C31 C32 1_555 1_555
C39 C41 1_555 1_555
C43 C44 1_555 1_555
C44 C56 1_555 1_555
C45 C56 1_555 1_555
C46 C47 1_555 1_555
C47 C48 1_555 1_555
C49 C50 1_555 1_555
C51 C53 1_555 1_555
C53 C54 1_555 1_555

#END
