
#######################################################################
#
#                 Cambridge Crystallographic Data Centre
#                                CCDC 
#
#######################################################################
#
# If this CIF has been generated from an entry in the Cambridge 
# Structural Database, then it will include bibliographic, chemical, 
# crystal, experimental, refinement or atomic coordinate data resulting 
# from the CCDC's data processing and validation procedures.
#
#######################################################################

data_LIPTAI
_chemical_compound_source        
'isolated from the stems and leaves of Hypericum perforatum'
_chemical_name_common            'hyperforatone A'
_chemical_formula_moiety         'C40 H62 O7'
_chemical_name_systematic        
9-{[4-(hydroxymethyl)-3,3,5,5-tetramethyloxolan-2-yl]methyl}-2-(2-hydroxypropan-2-yl)-6-methyl-5-(3-methylbut-2-en-1-yl)-6-(4-methylpent-3-en-1-yl)-7-(2-methylpropanoyl)-2,3,4,5,6,7-hexahydro-8H-3a,7-methanocycloocta[b]furan-8,10-dione
_symmetry_cell_setting           orthorhombic
_symmetry_space_group_name_H-M   'P 21 21 21'
_symmetry_Int_Tables_number      19
_space_group_name_Hall           'P 2ac 2ab'
loop_
_symmetry_equiv_pos_site_id
_symmetry_equiv_pos_as_xyz
1 x,y,z
2 1/2+x,1/2-y,-z
3 -x,1/2+y,1/2-z
4 1/2-x,-y,1/2+z
_cell_length_a                   10.9940(2)
_cell_length_b                   17.4175(4)
_cell_length_c                   19.4407(4)
_cell_angle_alpha                90
_cell_angle_beta                 90
_cell_angle_gamma                90
_cell_volume                     3722.66
_exptl_crystal_colour            colorless
_exptl_crystal_description       block
_cell_formula_units_Z            4
loop_
_atom_site_label
_atom_site_type_symbol
_atom_site_fract_x
_atom_site_fract_y
_atom_site_fract_z
C1 C 0.9534(3) 0.05085(18) 0.86529(15)
H1 H 0.9366 0.0707 0.8191
H2 H 0.9266 -0.0027 0.8683
H3 H 1.0410 0.0538 0.8744
O1 O 0.54593(13) 0.44871(9) 0.82446(8)
O2 O 0.82485(14) 0.61812(8) 0.87285(8)
O3 O 0.95239(13) 0.45181(9) 0.89753(7)
O4 O 0.86114(14) 0.40730(9) 0.68053(8)
O5 O 1.06207(15) 0.56939(9) 0.82038(9)
H4 H 0.9965 0.5787 0.8409
O6 O 0.53535(14) 0.38121(9) 0.66470(8)
C2 C 0.8864(2) 0.09785(13) 0.91720(12)
C3 C 0.8047(2) 0.15167(12) 0.90234(11)
H5 H 0.7693 0.1772 0.9406
C4 C 0.7616(2) 0.17714(12) 0.83275(11)
H6 H 0.6780 0.1577 0.8253
H7 H 0.8146 0.1542 0.7971
C5 C 0.76183(18) 0.26526(11) 0.82420(11)
H8 H 0.7327 0.2877 0.8686
C6 C 0.89262(18) 0.29258(12) 0.81369(11)
H9 H 0.9286 0.2639 0.7747
H10 H 0.9404 0.2800 0.8554
C7 C 0.90447(17) 0.37960(11) 0.79916(10)
C8 C 0.85980(18) 0.42933(11) 0.85724(10)
C9 C 0.74551(18) 0.45379(11) 0.86764(10)
C10 C 0.71150(19) 0.51272(12) 0.92142(10)
H11 H 0.7729 0.5126 0.9587
H12 H 0.6317 0.4994 0.9417
C11 C 0.70489(18) 0.59245(12) 0.88917(10)
H13 H 0.6579 0.5883 0.8453
C12 C 0.6504(2) 0.65826(13) 0.93144(11)
C13 C 0.6937(2) 0.72621(13) 0.88667(12)
H14 H 0.6342 0.7307 0.8480
C14 C 0.6965(2) 0.80430(15) 0.92199(16)
H15 H 0.6175 0.8134 0.9450
H16 H 0.7606 0.8043 0.9577
O7 O 0.71945(19) 0.86512(11) 0.87429(15)
H17 H 0.6533 0.8805 0.8576
C15 C 0.67225(18) 0.29235(12) 0.76693(10)
C16 C 0.68933(18) 0.38192(11) 0.75470(10)
C17 C 0.65267(18) 0.42963(11) 0.81899(10)
C18 C 0.8161(2) 0.69906(13) 0.85398(12)
C19 C 0.5121(2) 0.65297(14) 0.93412(14)
H18 H 0.4800 0.6470 0.8874
H19 H 0.4790 0.6999 0.9547
H20 H 0.4883 0.6086 0.9620
C20 C 0.7032(3) 0.66063(15) 1.00454(12)
H21 H 0.6813 0.7093 1.0265
H22 H 0.7920 0.6562 1.0023
H23 H 0.6701 0.6179 1.0315
C21 C 0.9303(2) 0.73764(14) 0.88127(16)
H24 H 0.9334 0.7322 0.9314
H25 H 0.9290 0.7923 0.8692
H26 H 1.0021 0.7134 0.8608
C22 C 0.8122(3) 0.70439(15) 0.77561(13)
H27 H 0.8876 0.6835 0.7564
H28 H 0.8036 0.7582 0.7618
H29 H 0.7427 0.6749 0.7583
C23 C 1.06852(19) 0.43928(12) 0.86253(11)
H30 H 1.1186 0.4014 0.8889
C24 C 1.03653(19) 0.40636(12) 0.79178(11)
H31 H 1.0905 0.3628 0.7800
H32 H 1.0438 0.4461 0.7556
C25 C 0.82322(18) 0.39377(11) 0.73770(10)
C26 C 1.1334(2) 0.51730(13) 0.86062(13)
C27 C 1.1488(2) 0.54874(17) 0.93375(15)
H33 H 1.1974 0.5959 0.9323
H34 H 1.1902 0.5104 0.9623
H35 H 1.0687 0.5600 0.9534
C28 C 1.2549(2) 0.50849(15) 0.82448(15)
H36 H 1.2414 0.4922 0.7768
H37 H 1.3039 0.4698 0.8484
H38 H 1.2979 0.5578 0.8248
C29 C 0.61067(19) 0.41753(12) 0.69656(10)
C30 C 0.6299(2) 0.50243(12) 0.68096(11)
H39 H 0.6937 0.5234 0.7124
C31 C 0.5116(2) 0.54738(14) 0.69112(13)
H40 H 0.4475 0.5249 0.6624
H41 H 0.5242 0.6011 0.6778
H42 H 0.4873 0.5449 0.7396
C32 C 0.6723(2) 0.51145(14) 0.60589(12)
H43 H 0.7500 0.4848 0.5996
H44 H 0.6826 0.5661 0.5953
H45 H 0.6113 0.4892 0.5750
C33 C 0.53879(19) 0.27350(12) 0.78808(11)
H46 H 0.4847 0.3104 0.7644
H47 H 0.5190 0.2218 0.7702
C34 C 0.5066(2) 0.27484(14) 0.86531(12)
H48 H 0.5514 0.2334 0.8893
H49 H 0.5322 0.3245 0.8854
C35 C 0.37264(19) 0.26413(13) 0.87598(11)
H50 H 0.3201 0.2870 0.8430
C36 C 0.31988(19) 0.22545(13) 0.92755(11)
C37 C 0.1841(2) 0.22032(16) 0.93318(13)
H51 H 0.1466 0.2500 0.8959
H52 H 0.1580 0.2412 0.9776
H53 H 0.1589 0.1665 0.9297
C38 C 0.3909(2) 0.18709(14) 0.98388(11)
H54 H 0.4636 0.1629 0.9644
H55 H 0.3402 0.1479 1.0060
H56 H 0.4153 0.2255 1.0181
C39 C 0.7012(2) 0.25047(12) 0.69885(11)
H57 H 0.6935 0.1949 0.7056
H58 H 0.7844 0.2627 0.6845
H59 H 0.6439 0.2672 0.6632
C40 C 0.9182(2) 0.07918(15) 0.99060(13)
H60 H 0.8681 0.1103 1.0216
H61 H 1.0044 0.0905 0.9987
H62 H 0.9029 0.0246 0.9993
loop_
_geom_bond_atom_site_label_1
_geom_bond_atom_site_label_2
_geom_bond_site_symmetry_1
_geom_bond_site_symmetry_2
C1 H1 1_555 1_555
H2 C1 1_555 1_555
H3 C1 1_555 1_555
O1 C17 1_555 1_555
O2 C11 1_555 1_555
O3 C8 1_555 1_555
O4 C25 1_555 1_555
O5 H4 1_555 1_555
O6 C29 1_555 1_555
C2 C1 1_555 1_555
C3 C2 1_555 1_555
H5 C3 1_555 1_555
C4 C3 1_555 1_555
H6 C4 1_555 1_555
H7 C4 1_555 1_555
C5 C4 1_555 1_555
H8 C5 1_555 1_555
C6 C5 1_555 1_555
H9 C6 1_555 1_555
H10 C6 1_555 1_555
C7 C6 1_555 1_555
C8 C7 1_555 1_555
C9 C8 1_555 1_555
C10 C9 1_555 1_555
H11 C10 1_555 1_555
H12 C10 1_555 1_555
C11 C10 1_555 1_555
H13 C11 1_555 1_555
C12 C11 1_555 1_555
C13 C12 1_555 1_555
H14 C13 1_555 1_555
C14 C13 1_555 1_555
H15 C14 1_555 1_555
H16 C14 1_555 1_555
O7 C14 1_555 1_555
H17 O7 1_555 1_555
C15 C5 1_555 1_555
C16 C15 1_555 1_555
C17 C9 1_555 1_555
C18 O2 1_555 1_555
C19 C12 1_555 1_555
H18 C19 1_555 1_555
H19 C19 1_555 1_555
H20 C19 1_555 1_555
C20 C12 1_555 1_555
H21 C20 1_555 1_555
H22 C20 1_555 1_555
H23 C20 1_555 1_555
C21 C18 1_555 1_555
H24 C21 1_555 1_555
H25 C21 1_555 1_555
H26 C21 1_555 1_555
C22 C18 1_555 1_555
H27 C22 1_555 1_555
H28 C22 1_555 1_555
H29 C22 1_555 1_555
C23 O3 1_555 1_555
H30 C23 1_555 1_555
C24 C7 1_555 1_555
H31 C24 1_555 1_555
H32 C24 1_555 1_555
C25 C7 1_555 1_555
C26 O5 1_555 1_555
C27 C26 1_555 1_555
H33 C27 1_555 1_555
H34 C27 1_555 1_555
H35 C27 1_555 1_555
C28 C26 1_555 1_555
H36 C28 1_555 1_555
H37 C28 1_555 1_555
H38 C28 1_555 1_555
C29 C16 1_555 1_555
C30 C29 1_555 1_555
H39 C30 1_555 1_555
C31 C30 1_555 1_555
H40 C31 1_555 1_555
H41 C31 1_555 1_555
H42 C31 1_555 1_555
C32 C30 1_555 1_555
H43 C32 1_555 1_555
H44 C32 1_555 1_555
H45 C32 1_555 1_555
C33 C15 1_555 1_555
H46 C33 1_555 1_555
H47 C33 1_555 1_555
C34 C33 1_555 1_555
H48 C34 1_555 1_555
H49 C34 1_555 1_555
C35 C34 1_555 1_555
H50 C35 1_555 1_555
C36 C35 1_555 1_555
C37 C36 1_555 1_555
H51 C37 1_555 1_555
H52 C37 1_555 1_555
H53 C37 1_555 1_555
C38 C36 1_555 1_555
H54 C38 1_555 1_555
H55 C38 1_555 1_555
H56 C38 1_555 1_555
C39 C15 1_555 1_555
H57 C39 1_555 1_555
H58 C39 1_555 1_555
H59 C39 1_555 1_555
C40 C2 1_555 1_555
H60 C40 1_555 1_555
H61 C40 1_555 1_555
H62 C40 1_555 1_555
C13 C18 1_555 1_555
C16 C17 1_555 1_555
C16 C25 1_555 1_555
C23 C24 1_555 1_555
C23 C26 1_555 1_555

#END
