
#######################################################################
#
#                 Cambridge Crystallographic Data Centre
#                                CCDC 
#
#######################################################################
#
# If this CIF has been generated from an entry in the Cambridge 
# Structural Database, then it will include bibliographic, chemical, 
# crystal, experimental, refinement or atomic coordinate data resulting 
# from the CCDC's data processing and validation procedures.
#
#######################################################################

data_LIQHEA
_chemical_compound_source        'Schisandra lancifolia'
_chemical_name_common            'Lancolide B pentahydrate'
_chemical_formula_moiety         'C29 H32 O11,5(H2 O1)'
_chemical_name_systematic        
'1,4,10-Trihydroxy-6,8,16,16-tetramethyl-5-(4-methyl-5-oxofuran-2(5H)-ylidene)-17,21,23,24-tetraoxaoctacyclo[11.9.1.1^2,10^.0^2,12^.0^4,8^.0^7,9^.0^15,22^.0^18,22^]tetracosane-11,20-dione pentahydrate'
_symmetry_cell_setting           tetragonal
_symmetry_space_group_name_H-M   'P 42'
_symmetry_Int_Tables_number      77
_space_group_name_Hall           'P 4c'
loop_
_symmetry_equiv_pos_site_id
_symmetry_equiv_pos_as_xyz
1 x,y,z
2 -y,x,1/2+z
3 y,-x,1/2+z
4 -x,-y,z
_cell_length_a                   19.0394(3)
_cell_length_b                   19.0394(3)
_cell_length_c                   8.2358(2)
_cell_angle_alpha                90
_cell_angle_beta                 90
_cell_angle_gamma                90
_cell_volume                     2985.47
_exptl_crystal_colour            colorless
_exptl_crystal_description       prism
_cell_formula_units_Z            4
loop_
_atom_site_label
_atom_site_type_symbol
_atom_site_fract_x
_atom_site_fract_y
_atom_site_fract_z
O1 O 0.33654(13) 0.88167(13) 0.4136(4)
O2 O 0.27382(10) 0.85358(10) 0.6323(3)
O3 O 0.44436(10) 0.74118(10) 0.5579(3)
O4 O 0.49067(11) 0.79561(11) 0.3420(3)
O5 O 0.34708(10) 0.91938(10) 0.8809(3)
H1 H 0.3677 0.9305 0.9674
O6 O 0.47005(9) 0.71664(10) 1.0702(3)
H2 H 0.4722 0.7406 1.1557
O7 O 0.19160(11) 0.67317(11) 0.8129(4)
H3 H 0.2147 0.6543 0.7378
O8 O 0.27739(9) 0.75594(9) 0.8590(3)
O9 O 0.13905(11) 0.71630(12) 1.1144(4)
O10 O 0.25121(10) 0.91913(10) 1.0458(3)
C1 C 0.30097(15) 0.90081(16) 0.5277(5)
C2 C 0.23847(14) 0.88794(14) 0.7657(4)
C3 C 0.28562(14) 0.88349(14) 0.9176(4)
C4 C 0.29423(14) 0.80626(14) 0.9844(4)
C5 C 0.36756(14) 0.79074(14) 1.0566(4)
H4 H 0.3999 0.8289 1.0241
H5 H 0.3639 0.7916 1.1765
C6 C 0.39998(13) 0.72006(14) 1.0049(4)
C7 C 0.40724(14) 0.70972(14) 0.8227(4)
C8 C 0.44033(14) 0.75461(14) 0.7262(4)
C9 C 0.48007(14) 0.79520(14) 0.4872(4)
C10 C 0.35836(13) 0.65570(13) 1.0668(4)
C11 C 0.37528(16) 0.62893(17) 1.2328(5)
H6 H 0.3451 0.5887 1.2580
H7 H 0.3673 0.6662 1.3127
H8 H 0.4246 0.6143 1.2367
C12 C 0.34425(14) 0.60885(14) 0.9204(5)
H9 H 0.3489 0.5570 0.9365
C13 C 0.37645(15) 0.63960(14) 0.7682(4)
H10 H 0.3393 0.6475 0.6844
C14 C 0.43280(17) 0.58944(15) 0.7019(5)
H11 H 0.4676 0.5800 0.7868
H12 H 0.4560 0.6111 0.6083
H13 H 0.4107 0.5453 0.6685
C15 C 0.50049(13) 0.84535(13) 0.6122(4)
C16 C 0.47686(14) 0.82049(14) 0.7528(4)
H14 H 0.4830 0.8426 0.8553
C17 C 0.54155(16) 0.91045(15) 0.5723(5)
H15 H 0.5498 0.9374 0.6719
H16 H 0.5150 0.9392 0.4950
H17 H 0.5867 0.8972 0.5242
C18 C 0.28338(14) 0.64531(14) 1.0052(4)
H18 H 0.2560 0.6124 1.0754
C19 C 0.23706(14) 0.70045(15) 0.9268(5)
C20 C 0.19437(14) 0.73644(15) 1.0601(5)
C21 C 0.23434(15) 0.80217(15) 1.1094(5)
H19 H 0.2538 0.7968 1.2215
C22 C 0.19570(15) 0.87270(15) 1.0930(5)
H20 H 0.1765 0.8873 1.2008
C23 C 0.13821(16) 0.87733(16) 0.9640(5)
H21 H 0.0997 0.8449 0.9938
H22 H 0.1189 0.9256 0.9635
C24 C 0.16349(15) 0.85927(16) 0.7931(5)
H23 H 0.1625 0.8073 0.7760
C25 C 0.12057(16) 0.89668(17) 0.6597(6)
O11 O 0.15599(12) 0.96288(13) 0.6375(5)
C26 C 0.22538(16) 0.96357(16) 0.7029(5)
H24 H 0.2303 0.9991 0.7917
C27 C 0.27993(16) 0.97374(16) 0.5732(5)
H25 H 0.2601 0.9990 0.4788
H26 H 0.3206 1.0005 0.6155
C28 C 0.1190(2) 0.8552(3) 0.5021(6)
H27 H 0.0958 0.8831 0.4178
H28 H 0.0932 0.8113 0.5187
H29 H 0.1672 0.8446 0.4682
C29 C 0.04478(18) 0.9140(2) 0.7068(7)
H30 H 0.0447 0.9456 0.8007
H31 H 0.0199 0.8706 0.7346
H32 H 0.0212 0.9370 0.6153
O12 O 0.96199(13) 0.59723(14) 0.6716(4)
O13 O 0.23338(14) 0.60977(13) 0.5289(4)
O14 O 0.53089(17) 0.90364(13) 0.1198(4)
O15 O 0.6527(4) 0.8895(4) 0.9136(13)
O16 O 0.0654(4) 0.7140(4) 0.6907(16)
loop_
_geom_bond_atom_site_label_1
_geom_bond_atom_site_label_2
_geom_bond_site_symmetry_1
_geom_bond_site_symmetry_2
O1 C1 1_555 1_555
O2 C1 1_555 1_555
O3 C8 1_555 1_555
O4 C9 1_555 1_555
O5 H1 1_555 1_555
O6 H2 1_555 1_555
O7 H3 1_555 1_555
O8 C4 1_555 1_555
O9 C20 1_555 1_555
O10 C3 1_555 1_555
C1 C27 1_555 1_555
C2 O2 1_555 1_555
C3 O5 1_555 1_555
C4 C3 1_555 1_555
C5 C4 1_555 1_555
H4 C5 1_555 1_555
H5 C5 1_555 1_555
C6 O6 1_555 1_555
C7 C6 1_555 1_555
C8 C7 1_555 1_555
C9 O3 1_555 1_555
C10 C6 1_555 1_555
C11 C10 1_555 1_555
H6 C11 1_555 1_555
H7 C11 1_555 1_555
H8 C11 1_555 1_555
C12 C10 1_555 1_555
H9 C12 1_555 1_555
C13 C7 1_555 1_555
H10 C13 1_555 1_555
C14 C13 1_555 1_555
H11 C14 1_555 1_555
H12 C14 1_555 1_555
H13 C14 1_555 1_555
C15 C9 1_555 1_555
C16 C8 1_555 1_555
H14 C16 1_555 1_555
C17 C15 1_555 1_555
H15 C17 1_555 1_555
H16 C17 1_555 1_555
H17 C17 1_555 1_555
C18 C10 1_555 1_555
H18 C18 1_555 1_555
C19 O7 1_555 1_555
C20 C19 1_555 1_555
C21 C4 1_555 1_555
H19 C21 1_555 1_555
C22 O10 1_555 1_555
H20 C22 1_555 1_555
C23 C22 1_555 1_555
H21 C23 1_555 1_555
H22 C23 1_555 1_555
C24 C2 1_555 1_555
H23 C24 1_555 1_555
C25 C24 1_555 1_555
O11 C25 1_555 1_555
C26 C2 1_555 1_555
H24 C26 1_555 1_555
C27 C26 1_555 1_555
H25 C27 1_555 1_555
H26 C27 1_555 1_555
C28 C25 1_555 1_555
H27 C28 1_555 1_555
H28 C28 1_555 1_555
H29 C28 1_555 1_555
C29 C25 1_555 1_555
H30 C29 1_555 1_555
H31 C29 1_555 1_555
H32 C29 1_555 1_555
O8 C19 1_555 1_555
C2 C3 1_555 1_555
C5 C6 1_555 1_555
C12 C13 1_555 1_555
C12 C18 1_555 1_555
C15 C16 1_555 1_555
C18 C19 1_555 1_555
C20 C21 1_555 1_555
C21 C22 1_555 1_555
C23 C24 1_555 1_555
O11 C26 1_555 1_555

#END
