
#######################################################################
#
#                 Cambridge Crystallographic Data Centre
#                                CCDC 
#
#######################################################################
#
# If this CIF has been generated from an entry in the Cambridge 
# Structural Database, then it will include bibliographic, chemical, 
# crystal, experimental, refinement or atomic coordinate data resulting 
# from the CCDC's data processing and validation procedures.
#
#######################################################################

data_LIQHAW
_chemical_compound_source        'Schisandra lancifolia'
_chemical_name_common            'Lancolide A'
_chemical_formula_moiety         'C29 H32 O11'
_chemical_name_systematic        
1,4,10-Trihydroxy-6,8,16,16-tetramethyl-5-(4-methyl-5-oxofuran-2(5H)-ylidene)-17,21,23,24-tetraoxaoctacyclo[11.9.1.1^2,10^.0^2,12^.0^4,8^.0^7,9^.0^15,22^.0^18,22^]tetracosane-11,20-dione
_symmetry_cell_setting           orthorhombic
_symmetry_space_group_name_H-M   'P 21 21 21'
_symmetry_Int_Tables_number      19
_space_group_name_Hall           'P 2ac 2ab'
loop_
_symmetry_equiv_pos_site_id
_symmetry_equiv_pos_as_xyz
1 x,y,z
2 1/2+x,1/2-y,-z
3 -x,1/2+y,1/2-z
4 1/2-x,-y,1/2+z
_cell_length_a                   8.0497(4)
_cell_length_b                   15.5432(8)
_cell_length_c                   21.3767(11)
_cell_angle_alpha                90
_cell_angle_beta                 90
_cell_angle_gamma                90
_cell_volume                     2674.61
_exptl_crystal_colour            colorless
_exptl_crystal_description       block
_cell_formula_units_Z            4
loop_
_atom_site_label
_atom_site_type_symbol
_atom_site_fract_x
_atom_site_fract_y
_atom_site_fract_z
O1 O 0.74364(15) 0.45144(8) 0.92129(6)
O2 O 0.93418(15) 0.57549(8) 0.98491(6)
H1 H 1.0105 0.5989 0.9642
O3 O 0.78741(14) 0.68436(8) 0.93908(6)
O4 O 0.53445(14) 0.52160(8) 1.00367(5)
O5 O 0.26452(15) 0.49064(8) 0.97819(6)
H2 H 0.2213 0.4552 1.0030
O6 O 0.69752(17) 0.57049(9) 1.18265(6)
H3 H 0.6729 0.5338 1.2100
O7 O 0.88666(16) 0.43134(8) 1.08377(6)
O8 O 0.24080(15) 0.66505(8) 0.95287(6)
O9 O 0.78387(15) 0.53005(9) 0.79192(6)
C1 C 0.5245(3) 0.57635(16) 0.74872(9)
H4 H 0.5761 0.6333 0.7460
H5 H 0.4054 0.5828 0.7569
H6 H 0.5405 0.5456 0.7092
C2 C 0.6048(2) 0.52546(13) 0.80188(8)
C3 C 0.5813(2) 0.56478(12) 0.86792(8)
H7 H 0.4837 0.5380 0.8893
C4 C 0.7431(2) 0.54041(12) 0.90170(8)
C5 C 0.7828(2) 0.59717(12) 0.95947(8)
C6 C 0.6382(2) 0.59679(11) 1.00959(8)
C7 C 0.7059(2) 0.60377(11) 1.07703(8)
H8 H 0.8232 0.5846 1.0772
H9 H 0.7043 0.6650 1.0897
C8 C 0.6102(2) 0.55143(12) 1.12588(8)
C9 C 0.6039(2) 0.45428(12) 1.11548(7)
C10 C 0.7266(2) 0.40182(12) 1.09834(8)
C11 C 0.7250(2) 0.30962(12) 1.08844(8)
H10 H 0.6324 0.2729 1.0952
C12 C 0.8753(2) 0.28418(12) 1.06816(8)
C13 C 0.9411(2) 0.19898(13) 1.04886(10)
H11 H 0.8783 0.1534 1.0699
H12 H 1.0586 0.1948 1.0605
H13 H 0.9299 0.1925 1.0035
O10 O 0.90274(19) 0.33452(10) 0.91337(7)
C14 C 0.8815(2) 0.40887(13) 0.90095(8)
C15 C 0.6163(2) 0.70636(11) 0.92773(8)
H14 H 0.6039 0.7702 0.9244
C16 C 0.5297(2) 0.67343(11) 0.98735(8)
H15 H 0.5273 0.7195 1.0200
C17 C 0.3639(2) 0.54621(11) 1.01082(8)
C18 C 0.3112(2) 0.56000(12) 1.07830(8)
H16 H 0.2075 0.5952 1.0809
C19 C 0.4258(2) 0.57838(12) 1.13313(8)
C20 C 0.3225(2) 0.49694(13) 1.13231(8)
H17 H 0.2256 0.4944 1.1615
C21 C 0.4326(2) 0.41802(12) 1.12907(8)
H18 H 0.3962 0.3799 1.0940
C22 C 0.9771(2) 0.36186(12) 1.06401(8)
O11 O 1.11887(16) 0.36948(9) 1.04658(7)
C23 C 0.4243(2) 0.36863(13) 1.19153(9)
H19 H 0.4497 0.4079 1.2261
H20 H 0.5055 0.3216 1.1911
H21 H 0.3125 0.3449 1.1972
C24 C 0.3875(3) 0.65510(13) 1.17401(8)
H22 H 0.2669 0.6610 1.1785
H23 H 0.4329 0.7072 1.1547
H24 H 0.4379 0.6468 1.2153
C25 C 0.3607(2) 0.63507(12) 0.97934(8)
C26 C 0.5635(2) 0.66377(12) 0.86665(8)
H25 H 0.6319 0.6870 0.8321
H26 H 0.4462 0.6787 0.8579
C27 C 0.8747(2) 0.54401(13) 0.84888(8)
H27 H 0.9363 0.5999 0.8485
C28 C 0.9879(2) 0.46857(13) 0.86196(8)
H28 H 1.0879 0.4870 0.8854
H29 H 1.0232 0.4404 0.8226
C29 C 0.5450(3) 0.43246(15) 0.79889(9)
H30 H 0.5745 0.4077 0.7582
H31 H 0.4241 0.4308 0.8042
H32 H 0.5980 0.3991 0.8323
loop_
_geom_bond_atom_site_label_1
_geom_bond_atom_site_label_2
_geom_bond_site_symmetry_1
_geom_bond_site_symmetry_2
O1 C4 1_555 1_555
O2 H1 1_555 1_555
O3 C5 1_555 1_555
O4 C6 1_555 1_555
O5 H2 1_555 1_555
O6 H3 1_555 1_555
O7 C10 1_555 1_555
O8 C25 1_555 1_555
O9 C2 1_555 1_555
C1 H4 1_555 1_555
H5 C1 1_555 1_555
H6 C1 1_555 1_555
C2 C1 1_555 1_555
C3 C2 1_555 1_555
H7 C3 1_555 1_555
C4 C3 1_555 1_555
C5 O2 1_555 1_555
C6 C5 1_555 1_555
C7 C6 1_555 1_555
H8 C7 1_555 1_555
H9 C7 1_555 1_555
C8 O6 1_555 1_555
C9 C8 1_555 1_555
C10 C9 1_555 1_555
C11 C10 1_555 1_555
H10 C11 1_555 1_555
C12 C11 1_555 1_555
C13 C12 1_555 1_555
H11 C13 1_555 1_555
H12 C13 1_555 1_555
H13 C13 1_555 1_555
O10 C14 1_555 1_555
C14 O1 1_555 1_555
C15 O3 1_555 1_555
H14 C15 1_555 1_555
C16 C6 1_555 1_555
H15 C16 1_555 1_555
C17 O4 1_555 1_555
C18 C17 1_555 1_555
H16 C18 1_555 1_555
C19 C8 1_555 1_555
C20 C18 1_555 1_555
H17 C20 1_555 1_555
C21 C9 1_555 1_555
H18 C21 1_555 1_555
C22 O7 1_555 1_555
O11 C22 1_555 1_555
C23 C21 1_555 1_555
H19 C23 1_555 1_555
H20 C23 1_555 1_555
H21 C23 1_555 1_555
C24 C19 1_555 1_555
H22 C24 1_555 1_555
H23 C24 1_555 1_555
H24 C24 1_555 1_555
C25 C16 1_555 1_555
C26 C3 1_555 1_555
H25 C26 1_555 1_555
H26 C26 1_555 1_555
C27 O9 1_555 1_555
H27 C27 1_555 1_555
C28 C14 1_555 1_555
H28 C28 1_555 1_555
H29 C28 1_555 1_555
C29 C2 1_555 1_555
H30 C29 1_555 1_555
H31 C29 1_555 1_555
H32 C29 1_555 1_555
O5 C17 1_555 1_555
C4 C5 1_555 1_555
C4 C27 1_555 1_555
C7 C8 1_555 1_555
C12 C22 1_555 1_555
C15 C16 1_555 1_555
C15 C26 1_555 1_555
C17 C25 1_555 1_555
C18 C19 1_555 1_555
C19 C20 1_555 1_555
C20 C21 1_555 1_555
C27 C28 1_555 1_555

#END
