
#######################################################################
#
#                 Cambridge Crystallographic Data Centre
#                                CCDC 
#
#######################################################################
#
# If this CIF has been generated from an entry in the Cambridge 
# Structural Database, then it will include bibliographic, chemical, 
# crystal, experimental, refinement or atomic coordinate data resulting 
# from the CCDC's data processing and validation procedures.
#
#######################################################################

data_LIQTIR
_chemical_formula_moiety         'C24 H22 S6 Si2'
_chemical_name_systematic        
(thieno[2',3':4,5]thieno[3,2-b]thieno[2'',3'':4',5']thieno[2',3':4,5]thieno[3,2-e][1]benzothiene-2,9-diyl)bis(trimethylsilane)
_symmetry_cell_setting           orthorhombic
_symmetry_space_group_name_H-M   'P 21 21 21'
_symmetry_Int_Tables_number      19
_space_group_name_Hall           'P 2ac 2ab'
loop_
_symmetry_equiv_pos_site_id
_symmetry_equiv_pos_as_xyz
1 x,y,z
2 1/2-x,-y,1/2+z
3 1/2+x,1/2-y,-z
4 -x,1/2+y,1/2-z
_cell_length_a                   6.08389(14)
_cell_length_b                   14.5798(3)
_cell_length_c                   29.7083(7)
_cell_angle_alpha                90
_cell_angle_beta                 90
_cell_angle_gamma                90
_cell_volume                     2635.18
_exptl_crystal_colour            colorless
_exptl_crystal_description       plate
_cell_formula_units_Z            4
loop_
_atom_site_label
_atom_site_type_symbol
_atom_site_fract_x
_atom_site_fract_y
_atom_site_fract_z
C1 C -0.2135(19) 0.6324(7) 0.6418(3)
C2 C -0.044(2) 0.5889(8) 0.6223(4)
H1 H 0.0676 0.5610 0.6387
C3 C -0.0502(19) 0.5892(7) 0.5752(3)
C4 C -0.2278(19) 0.6340(6) 0.5578(3)
C5 C -0.2278(19) 0.6325(6) 0.5102(3)
C6 C -0.0537(19) 0.5869(7) 0.4919(3)
C7 C -0.0516(19) 0.5849(6) 0.4437(3)
C8 C -0.2334(19) 0.6336(6) 0.4270(3)
C9 C -0.277(2) 0.6445(7) 0.3814(3)
H2 H -0.3991 0.6773 0.3718
C10 C -0.135(2) 0.6056(7) 0.3509(4)
H3 H -0.1600 0.6124 0.3202
C11 C 0.045(2) 0.5568(7) 0.3657(3)
C12 C 0.0912(19) 0.5432(6) 0.4118(3)
C13 C 0.2851(19) 0.4865(6) 0.4167(3)
C14 C 0.3789(19) 0.4595(6) 0.3765(3)
C15 C 0.558(2) 0.4014(7) 0.3820(4)
C16 C 0.6111(18) 0.3841(7) 0.4265(3)
C17 C 0.7839(18) 0.3226(7) 0.4331(4)
H4 H 0.8344 0.3046 0.4613
C18 C 0.871(2) 0.2914(7) 0.3932(4)
C19 C -0.576(2) 0.6453(12) 0.7113(4)
H5 H -0.6440 0.6782 0.6870
H6 H -0.6123 0.6743 0.7394
H7 H -0.6284 0.5832 0.7115
C20 C -0.158(2) 0.7553(9) 0.7250(4)
H8 H -0.0030 0.7568 0.7193
H9 H -0.1843 0.7600 0.7568
H10 H -0.2276 0.8058 0.7099
C21 C -0.157(3) 0.5447(9) 0.7330(4)
H11 H -0.2075 0.4896 0.7188
H12 H -0.2029 0.5451 0.7640
H13 H 0.0007 0.5473 0.7316
C22 C 1.218(2) 0.2093(9) 0.3304(4)
H14 H 1.1218 0.2025 0.3051
H15 H 1.3337 0.1645 0.3286
H16 H 1.2813 0.2697 0.3302
C23 C 0.888(3) 0.0894(8) 0.3756(5)
H17 H 0.7966 0.0973 0.3496
H18 H 0.7980 0.0806 0.4017
H19 H 0.9807 0.0366 0.3715
C24 C 1.243(3) 0.1774(10) 0.4333(5)
H20 H 1.3283 0.1226 0.4299
H21 H 1.1541 0.1727 0.4600
H22 H 1.3389 0.2293 0.4359
S1 S -0.3896(5) 0.6771(2) 0.60057(8)
S2 S 0.1219(5) 0.54523(19) 0.53331(9)
S3 S -0.4000(5) 0.68060(17) 0.46944(8)
S4 S 0.2364(6) 0.50270(19) 0.33051(8)
S5 S 0.4251(5) 0.44016(18) 0.46267(9)
S6 S 0.7394(5) 0.34219(19) 0.34785(8)
Si1 Si -0.2744(6) 0.6457(2) 0.70366(9)
Si2 Si 1.0609(6) 0.1922(2) 0.38332(12)
loop_
_geom_bond_atom_site_label_1
_geom_bond_atom_site_label_2
_geom_bond_site_symmetry_1
_geom_bond_site_symmetry_2
C1 C2 1_555 1_555
C2 H1 1_555 1_555
C3 C2 1_555 1_555
C4 C3 1_555 1_555
C5 C4 1_555 1_555
C6 C5 1_555 1_555
C7 C6 1_555 1_555
C8 C7 1_555 1_555
C9 C8 1_555 1_555
H2 C9 1_555 1_555
C10 C9 1_555 1_555
H3 C10 1_555 1_555
C11 C10 1_555 1_555
C12 C7 1_555 1_555
C13 C12 1_555 1_555
C14 C13 1_555 1_555
C15 C14 1_555 1_555
C16 C15 1_555 1_555
C17 C16 1_555 1_555
H4 C17 1_555 1_555
C18 C17 1_555 1_555
C19 H5 1_555 1_555
H6 C19 1_555 1_555
H7 C19 1_555 1_555
C20 H8 1_555 1_555
H9 C20 1_555 1_555
H10 C20 1_555 1_555
C21 H11 1_555 1_555
H12 C21 1_555 1_555
H13 C21 1_555 1_555
C22 H14 1_555 1_555
H15 C22 1_555 1_555
H16 C22 1_555 1_555
C23 H17 1_555 1_555
H18 C23 1_555 1_555
H19 C23 1_555 1_555
C24 H20 1_555 1_555
H21 C24 1_555 1_555
H22 C24 1_555 1_555
S1 C1 1_555 1_555
S2 C3 1_555 1_555
S3 C5 1_555 1_555
S4 C11 1_555 1_555
S5 C13 1_555 1_555
S6 C15 1_555 1_555
Si1 C1 1_555 1_555
Si2 C18 1_555 1_555
C4 S1 1_555 1_555
C6 S2 1_555 1_555
C8 S3 1_555 1_555
C11 C12 1_555 1_555
C14 S4 1_555 1_555
C16 S5 1_555 1_555
C18 S6 1_555 1_555
C19 Si1 1_555 1_555
C20 Si1 1_555 1_555
C21 Si1 1_555 1_555
C22 Si2 1_555 1_555
C23 Si2 1_555 1_555
C24 Si2 1_555 1_555

#END
