
#######################################################################
#
#                 Cambridge Crystallographic Data Centre
#                                CCDC 
#
#######################################################################
#
# If this CIF has been generated from an entry in the Cambridge 
# Structural Database, then it will include bibliographic, chemical, 
# crystal, experimental, refinement or atomic coordinate data resulting 
# from the CCDC's data processing and validation procedures.
#
#######################################################################

data_LIQTUD
_chemical_formula_moiety         'C12 H20 Se2 Si2'
_chemical_name_systematic        
(selenopheno[3,2-b]selenophene-2,5-diyl)bis(trimethylsilane)
_symmetry_cell_setting           monoclinic
_symmetry_space_group_name_H-M   'P 21/n'
_symmetry_Int_Tables_number      14
_space_group_name_Hall           '-P 2yn'
loop_
_symmetry_equiv_pos_site_id
_symmetry_equiv_pos_as_xyz
1 x,y,z
2 1/2-x,1/2+y,1/2-z
3 -x,-y,-z
4 1/2+x,1/2-y,1/2+z
_cell_length_a                   6.6546(12)
_cell_length_b                   12.875(2)
_cell_length_c                   10.2719(17)
_cell_angle_alpha                90
_cell_angle_beta                 97.251(3)
_cell_angle_gamma                90
_cell_volume                     873.037
_exptl_crystal_colour            yellow
_exptl_crystal_description       block
_cell_formula_units_Z            2
loop_
_atom_site_label
_atom_site_type_symbol
_atom_site_fract_x
_atom_site_fract_y
_atom_site_fract_z
Se1 Se 0.15914(7) 0.45511(4) 0.33402(4)
Si1 Si 0.17725(19) 0.70029(10) 0.82443(12)
C1 C 0.0942(5) 0.5151(3) 0.4892(3)
C2 C 0.2022(6) 0.5833(3) 0.5832(4)
H1 H 0.331917 0.607569 0.575801
C3 C 0.0981(6) 0.6097(3) 0.6847(4)
C4 C 0.4523(9) 0.7075(6) 0.8491(7)
H2 H 0.494871 0.754627 0.919642
H3 H 0.500065 0.731775 0.770198
H4 H 0.507235 0.639762 0.870636
C5 C 0.0705(12) 0.6569(7) 0.9714(6)
H5 H 0.114064 0.587166 0.992498
H6 H -0.074666 0.658957 0.955057
H7 H 0.116377 0.701958 1.043571
C6 C 0.0653(13) 0.8305(5) 0.7816(8)
H8 H -0.078890 0.824082 0.760807
H9 H 0.121516 0.857827 0.707084
H10 H 0.095688 0.876667 0.854835
Se1B Se -0.15914(7) 0.54489(4) 0.66598(4)
Si1B Si -0.17725(19) 0.29971(10) 0.17557(12)
C1B C -0.0942(5) 0.4849(3) 0.5108(3)
C2B C -0.2022(6) 0.4167(3) 0.4168(4)
H1B H -0.331917 0.392431 0.424199
C3B C -0.0981(6) 0.3903(3) 0.3153(4)
C4B C -0.4523(9) 0.2925(6) 0.1509(7)
H2B H -0.494871 0.245373 0.080358
H3B H -0.500065 0.268225 0.229802
H4B H -0.507235 0.360238 0.129364
C5B C -0.0705(12) 0.3431(7) 0.0286(6)
H5B H -0.114064 0.412834 0.007502
H6B H 0.074666 0.341043 0.044943
H7B H -0.116377 0.298042 -0.043571
C6B C -0.0653(13) 0.1695(5) 0.2184(8)
H8B H 0.078890 0.175918 0.239193
H9B H -0.121516 0.142173 0.292916
H10B H -0.095688 0.123333 0.145165
loop_
_geom_bond_atom_site_label_1
_geom_bond_atom_site_label_2
_geom_bond_site_symmetry_1
_geom_bond_site_symmetry_2
Se1 C1 1_555 1_555
Si1 C3 1_555 1_555
C1 C2 1_555 1_555
C2 H1 1_555 1_555
C3 C2 1_555 1_555
C4 Si1 1_555 1_555
H2 C4 1_555 1_555
H3 C4 1_555 1_555
H4 C4 1_555 1_555
C5 Si1 1_555 1_555
H5 C5 1_555 1_555
H6 C5 1_555 1_555
H7 C5 1_555 1_555
C6 Si1 1_555 1_555
H8 C6 1_555 1_555
H9 C6 1_555 1_555
H10 C6 1_555 1_555
Se1B C3 1_555 1_555
Si1B C3B 1_555 1_555
C1B C1 1_555 1_555
C2B C1B 1_555 1_555
H1B C2B 1_555 1_555
C3B Se1 1_555 1_555
C4B Si1B 1_555 1_555
H2B C4B 1_555 1_555
H3B C4B 1_555 1_555
H4B C4B 1_555 1_555
C5B Si1B 1_555 1_555
H5B C5B 1_555 1_555
H6B C5B 1_555 1_555
H7B C5B 1_555 1_555
C6B Si1B 1_555 1_555
H8B C6B 1_555 1_555
H9B C6B 1_555 1_555
H10B C6B 1_555 1_555
Se1B C1B 1_555 1_555
C2B C3B 1_555 1_555

#END
