
#######################################################################
#
#                 Cambridge Crystallographic Data Centre
#                                CCDC 
#
#######################################################################
#
# If this CIF has been generated from an entry in the Cambridge 
# Structural Database, then it will include bibliographic, chemical, 
# crystal, experimental, refinement or atomic coordinate data resulting 
# from the CCDC's data processing and validation procedures.
#
#######################################################################

data_LIQVAL
_chemical_formula_moiety         'C20 H22 Se4 Si2,0.25(C1 H2 Cl2)'
_chemical_name_systematic        
"(selenopheno[3,2-b]selenopheno[2',3':4,5]selenopheno[3,2-e][1]benzoselenophene-2,9-diyl)bis(trimethylsilane) dichloromethane solvate"
_symmetry_cell_setting           monoclinic
_symmetry_space_group_name_H-M   'P 21/c'
_symmetry_Int_Tables_number      14
_space_group_name_Hall           '-P 2ybc'
loop_
_symmetry_equiv_pos_site_id
_symmetry_equiv_pos_as_xyz
1 x,y,z
2 -x,1/2+y,1/2-z
3 -x,-y,-z
4 x,1/2-y,1/2+z
_cell_length_a                   10.7857(2)
_cell_length_b                   14.5659(3)
_cell_length_c                   32.0512(7)
_cell_angle_alpha                90
_cell_angle_beta                 93.670(2)
_cell_angle_gamma                90
_cell_volume                     5025.03
_exptl_crystal_colour            orange
_exptl_crystal_description       prism
_cell_formula_units_Z            8
loop_
_atom_site_label
_atom_site_type_symbol
_atom_site_fract_x
_atom_site_fract_y
_atom_site_fract_z
Se5 Se 0.95028(5) 0.43435(4) 0.71549(2)
Se6 Se 1.03413(6) 0.66482(4) 0.80245(2)
Se7 Se 0.63756(6) 0.38000(5) 0.87405(2)
Se8 Se 0.71550(5) 0.31856(4) 0.74340(2)
Si3 Si 1.14152(16) 0.48876(13) 0.64319(5)
Si4 Si 0.514(3) 0.150(3) 0.7301(6)
C21 C 1.0685(5) 0.5133(4) 0.69351(16)
C22 C 1.0923(5) 0.5842(4) 0.72012(16)
H23 H 1.148775 0.630324 0.714673
C23 C 1.0254(5) 0.5837(4) 0.75698(15)
C24 C 0.9438(4) 0.5129(3) 0.76174(14)
C25 C 0.8812(4) 0.5116(3) 0.80071(13)
C26 C 0.9182(5) 0.5860(3) 0.82602(15)
C27 C 0.8747(5) 0.6025(4) 0.86559(15)
H24 H 0.900878 0.653518 0.881194
C28 C 0.7925(5) 0.5413(4) 0.88053(15)
H25 H 0.763509 0.549132 0.907005
C29 C 0.7525(4) 0.4672(4) 0.85598(14)
C30 C 0.7920(4) 0.4504(3) 0.81575(13)
C31 C 0.7275(4) 0.3721(3) 0.79710(13)
C32 C 0.6455(5) 0.3273(4) 0.82085(15)
C33 C 0.5749(5) 0.2544(4) 0.80251(16)
H26 H 0.518749 0.220956 0.817261
C34 C 0.5947(5) 0.2363(4) 0.76175(17)
C35 C 0.606(2) 0.1109(18) 0.6870(7)
H27 H 0.656036 0.059424 0.696142
H28 H 0.658458 0.159913 0.678698
H29 H 0.550972 0.092935 0.663621
C36 C 0.4115(19) 0.0850(15) 0.7569(6)
H30 H 0.350472 0.058261 0.737401
H31 H 0.370877 0.123364 0.776181
H32 H 0.456226 0.037193 0.771919
C37 C 0.399(2) 0.2286(13) 0.6920(6)
H33 H 0.448028 0.265378 0.674338
H34 H 0.350699 0.267967 0.708609
H35 H 0.344877 0.189658 0.674987
C38 C 1.091(3) 0.3711(14) 0.6271(14)
H36 H 1.112528 0.328782 0.649376
H37 H 1.132351 0.353309 0.602646
H38 H 1.002982 0.370454 0.620933
C39 C 1.078(7) 0.560(9) 0.598(3)
H39 H 0.989469 0.564915 0.598842
H40 H 1.098552 0.532439 0.572338
H41 H 1.113865 0.620806 0.600112
C40 C 1.3096(18) 0.496(2) 0.6528(6)
H42 H 1.337177 0.556507 0.646707
H43 H 1.348611 0.452394 0.635168
H44 H 1.331717 0.481381 0.681565
Se1 Se 0.32547(5) 0.70501(4) 0.53349(2)
Se2 Se 0.21103(5) 0.42692(4) 0.49189(2)
Se3 Se 0.69073(5) 0.41917(4) 0.62495(2)
Se4 Se 0.58805(5) 0.70248(4) 0.58730(2)
Si1 Si 0.10841(16) 0.82164(12) 0.48010(6)
Si2 Si 0.8133(19) 0.8191(8) 0.6435(5)
C1 C 0.1801(5) 0.7106(4) 0.49695(16)
C2 C 0.1482(5) 0.6254(4) 0.48374(15)
H1 H 0.079342 0.614540 0.465445
C3 C 0.2264(4) 0.5534(3) 0.49953(14)
C4 C 0.3277(4) 0.5774(3) 0.52596(13)
C5 C 0.4027(4) 0.5022(3) 0.54309(13)
C6 C 0.3538(4) 0.4171(4) 0.52873(15)
C7 C 0.4038(5) 0.3326(4) 0.54141(17)
H2 H 0.368908 0.278225 0.531012
C8 C 0.5054(5) 0.3310(4) 0.56951(17)
H3 H 0.540137 0.275404 0.578433
C9 C 0.5557(5) 0.4135(4) 0.58448(15)
C10 C 0.5102(4) 0.5007(3) 0.57149(14)
C11 C 0.5827(4) 0.5740(3) 0.59202(14)
C12 C 0.6774(4) 0.5473(4) 0.62038(15)
C13 C 0.7527(5) 0.6169(4) 0.63899(16)
H4 H 0.817668 0.603475 0.658514
C14 C 0.7260(5) 0.7050(4) 0.62710(17)
C15 C 0.1659(7) 0.8496(6) 0.4278(2)
H5 H 0.254820 0.854734 0.430169
H6 H 0.130411 0.906666 0.418012
H7 H 0.142052 0.801621 0.408361
C16 C -0.0641(5) 0.8065(4) 0.4769(2)
H8 H -0.087227 0.760988 0.456149
H9 H -0.103440 0.863725 0.469320
H10 H -0.090171 0.786864 0.503552
C17 C 0.1552(8) 0.9119(5) 0.5186(3)
H11 H 0.108692 0.905043 0.542985
H12 H 0.138978 0.971280 0.506452
H13 H 0.242339 0.906289 0.526431
C18 C 0.7473(15) 0.9067(10) 0.6108(5)
H14 H 0.772342 0.898172 0.582808
H15 H 0.775493 0.965553 0.621001
H16 H 0.658368 0.903916 0.610693
C19 C 0.9750(12) 0.7959(10) 0.6344(6)
H17 H 1.011530 0.759599 0.656988
H18 H 1.019248 0.852864 0.632883
H19 H 0.979494 0.763056 0.608610
C20 C 0.7791(19) 0.8381(12) 0.6977(5)
H20 H 0.690852 0.843113 0.699608
H21 H 0.818399 0.893727 0.707700
H22 H 0.809920 0.787390 0.714508
C41? C 0.906(2) 0.8480(18) 0.5978(8)
H45? H 0.959084 0.800936 0.587935
H46? H 0.955764 0.898050 0.608918
H47? H 0.851582 0.869699 0.575015
C42? C 0.935(2) 0.7788(18) 0.6828(10)
H48? H 0.939476 0.714564 0.689493
H49? H 0.917408 0.812962 0.707395
H50? H 1.012350 0.798760 0.672915
C43? C 0.716(3) 0.903(2) 0.6512(11)
H51? H 0.735358 0.949608 0.631620
H52? H 0.735955 0.923864 0.679124
H53? H 0.628992 0.888355 0.647809
Si5? Si 0.808(3) 0.7983(15) 0.6413(10)
C44? C 0.559(2) 0.0343(13) 0.7357(6)
H54? H 0.539522 0.020623 0.763762
H55? H 0.647689 0.030340 0.733638
H56? H 0.518781 -0.009102 0.716825
C45? C 0.3410(18) 0.1722(16) 0.7319(7)
H57? H 0.290186 0.136205 0.712381
H58? H 0.317221 0.235579 0.729406
H59? H 0.329796 0.151297 0.759800
C46? C 0.543(3) 0.1783(19) 0.6717(7)
H60? H 0.630652 0.169519 0.670477
H61? H 0.521438 0.239984 0.663468
H62? H 0.499293 0.135874 0.653068
C47? C 1.036(7) 0.542(9) 0.600(3)
H63? H 0.955399 0.514804 0.600364
H64? H 1.070395 0.532255 0.573892
H65? H 1.029668 0.607076 0.605404
C48? C 1.147(3) 0.3641(13) 0.6332(14)
H66? H 1.203359 0.335537 0.653649
H67? H 1.175227 0.353503 0.605752
H68? H 1.065602 0.338416 0.634856
C49? C 1.2806(19) 0.565(2) 0.6439(7)
H69? H 1.254311 0.627659 0.640784
H70? H 1.330524 0.548604 0.621295
H71? H 1.328490 0.557727 0.669982
Si6? Si 0.502(3) 0.160(3) 0.7207(6)
Cl1? Cl 0.4750(5) 0.0595(4) 0.5325(2)
C50? C 0.462(2) 0.0627(14) 0.4813(5)
H72? H 0.512731 0.111077 0.470401
H73? H 0.376507 0.070790 0.470807
loop_
_geom_bond_atom_site_label_1
_geom_bond_atom_site_label_2
_geom_bond_site_symmetry_1
_geom_bond_site_symmetry_2
Se1 C1 1_555 1_555
Se2 C3 1_555 1_555
Se3 C9 1_555 1_555
Se4 C11 1_555 1_555
Si1 C1 1_555 1_555
Si2 C14 1_555 1_555
C1 C2 1_555 1_555
C2 H1 1_555 1_555
C3 C2 1_555 1_555
C4 Se1 1_555 1_555
C5 C4 1_555 1_555
C6 Se2 1_555 1_555
C7 C6 1_555 1_555
H2 C7 1_555 1_555
C8 C7 1_555 1_555
H3 C8 1_555 1_555
C9 C8 1_555 1_555
C10 C5 1_555 1_555
C11 C10 1_555 1_555
C12 Se3 1_555 1_555
C13 C12 1_555 1_555
H4 C13 1_555 1_555
C14 Se4 1_555 1_555
C15 Si1 1_555 1_555
H5 C15 1_555 1_555
H6 C15 1_555 1_555
H7 C15 1_555 1_555
C16 Si1 1_555 1_555
H8 C16 1_555 1_555
H9 C16 1_555 1_555
H10 C16 1_555 1_555
C17 Si1 1_555 1_555
H11 C17 1_555 1_555
H12 C17 1_555 1_555
H13 C17 1_555 1_555
C18 Si2 1_555 1_555
H14 C18 1_555 1_555
H15 C18 1_555 1_555
H16 C18 1_555 1_555
C19 Si2 1_555 1_555
H17 C19 1_555 1_555
H18 C19 1_555 1_555
H19 C19 1_555 1_555
C20 Si2 1_555 1_555
H20 C20 1_555 1_555
H21 C20 1_555 1_555
H22 C20 1_555 1_555
Se5 C21 1_555 1_555
Se6 C23 1_555 1_555
Se7 C29 1_555 1_555
Se8 C31 1_555 1_555
Si3 C21 1_555 1_555
Si4 C34 1_555 1_555
C21 C22 1_555 1_555
C22 H23 1_555 1_555
C23 C22 1_555 1_555
C24 Se5 1_555 1_555
C25 C24 1_555 1_555
C26 Se6 1_555 1_555
C27 C26 1_555 1_555
H24 C27 1_555 1_555
C28 C27 1_555 1_555
H25 C28 1_555 1_555
C29 C28 1_555 1_555
C30 C25 1_555 1_555
C31 C30 1_555 1_555
C32 Se7 1_555 1_555
C33 C32 1_555 1_555
H26 C33 1_555 1_555
C34 Se8 1_555 1_555
C35 Si4 1_555 1_555
H27 C35 1_555 1_555
H28 C35 1_555 1_555
H29 C35 1_555 1_555
C36 Si4 1_555 1_555
H30 C36 1_555 1_555
H31 C36 1_555 1_555
H32 C36 1_555 1_555
C37 Si4 1_555 1_555
H33 C37 1_555 1_555
H34 C37 1_555 1_555
H35 C37 1_555 1_555
C38 Si3 1_555 1_555
H36 C38 1_555 1_555
H37 C38 1_555 1_555
H38 C38 1_555 1_555
C39 Si3 1_555 1_555
H39 C39 1_555 1_555
H40 C39 1_555 1_555
H41 C39 1_555 1_555
C40 Si3 1_555 1_555
H42 C40 1_555 1_555
H43 C40 1_555 1_555
H44 C40 1_555 1_555
C3 C4 1_555 1_555
C5 C6 1_555 1_555
C9 C10 1_555 1_555
C11 C12 1_555 1_555
C13 C14 1_555 1_555
C23 C24 1_555 1_555
C25 C26 1_555 1_555
C29 C30 1_555 1_555
C31 C32 1_555 1_555
C33 C34 1_555 1_555

#END
