
#######################################################################
#
#                 Cambridge Crystallographic Data Centre
#                                CCDC 
#
#######################################################################
#
# If this CIF has been generated from an entry in the Cambridge 
# Structural Database, then it will include bibliographic, chemical, 
# crystal, experimental, refinement or atomic coordinate data resulting 
# from the CCDC's data processing and validation procedures.
#
#######################################################################

data_LIRGUQ
_chemical_formula_moiety         'C33 H16 N4 O1'
_chemical_name_systematic        
4,4',4'',4'''-(5-Oxocyclopenta-1,3-diene-1,2,3,4-tetrayl)tetrabenzonitrile
_symmetry_cell_setting           monoclinic
_symmetry_space_group_name_H-M   'P 21/c'
_symmetry_Int_Tables_number      14
_space_group_name_Hall           '-P 2ybc'
loop_
_symmetry_equiv_pos_site_id
_symmetry_equiv_pos_as_xyz
1 x,y,z
2 -x,1/2+y,1/2-z
3 -x,-y,-z
4 x,1/2-y,1/2+z
_cell_length_a                   9.3553(13)
_cell_length_b                   32.219(4)
_cell_length_c                   8.1329(9)
_cell_angle_alpha                90
_cell_angle_beta                 104.716(4)
_cell_angle_gamma                90
_cell_volume                     2370.99
_exptl_crystal_colour            brown
_exptl_crystal_description       needle
_cell_formula_units_Z            4
loop_
_atom_site_label
_atom_site_type_symbol
_atom_site_fract_x
_atom_site_fract_y
_atom_site_fract_z
O1 O 0.2015(2) 0.46012(7) 0.1004(3)
C1 C 0.4675(3) 0.40307(7) 0.1568(3)
C2 C 0.1800(3) 0.38698(7) 0.4041(3)
C3 C 0.1417(2) 0.36392(7) 0.5447(3)
N1 N 0.7377(2) 0.21973(7) 0.8088(3)
N2 N 0.9101(3) 0.40936(7) -0.1554(3)
C4 C 0.8180(3) 0.40741(7) -0.0858(3)
C5 C 0.6992(3) 0.40554(7) -0.0020(3)
C6 C 0.6719(3) 0.36930(7) 0.0774(3)
H1 H 0.7323 0.3455 0.0788
C7 C 0.5561(3) 0.36809(7) 0.1545(3)
H2 H 0.5363 0.3431 0.2068
C8 C 0.3461(3) 0.40206(7) 0.2400(3)
C9 C 0.2193(3) 0.43240(7) 0.2043(3)
C10 C 0.1185(2) 0.42087(7) 0.3155(3)
C11 C -0.0097(2) 0.44565(7) 0.3283(3)
C12 C -0.0280(3) 0.48604(7) 0.2628(3)
H3 H 0.0399 0.4966 0.2038
C13 C -0.1429(3) 0.51083(7) 0.2823(3)
H4 H -0.1534 0.5382 0.2378
C14 C -0.2432(3) 0.49552(7) 0.3674(3)
C15 C -0.3633(3) 0.52159(7) 0.3877(3)
N3 N -0.4581(2) 0.54248(6) 0.4013(3)
C16 C 0.4980(3) 0.43913(7) 0.0756(3)
H5 H 0.4388 0.4631 0.0744
C17 C 0.6128(3) 0.44037(7) -0.0024(3)
H6 H 0.6323 0.4651 -0.0565
C18 C 0.3201(3) 0.37557(7) 0.3578(3)
C19 C 0.2230(3) 0.37171(7) 0.7100(3)
H7 H 0.3000 0.3918 0.7305
C20 C 0.1927(3) 0.35049(7) 0.8445(3)
H8 H 0.2473 0.3563 0.9576
C21 C 0.0821(3) 0.32068(7) 0.8139(3)
C22 C 0.0041(3) 0.31139(7) 0.6496(3)
H9 H -0.0690 0.2902 0.6291
C23 C 0.0336(3) 0.33322(7) 0.5151(3)
H10 H -0.0203 0.3272 0.4020
C24 C 0.0475(3) 0.30138(8) 0.9589(3)
N4 N 0.0218(3) 0.28841(7) 1.0793(3)
C25 C -0.2279(3) 0.45542(7) 0.4323(3)
H11 H -0.2966 0.4449 0.4903
C26 C -0.1129(3) 0.43089(7) 0.4122(3)
H12 H -0.1035 0.4034 0.4562
C27 C 0.4125(2) 0.34140(7) 0.4504(3)
C28 C 0.3618(3) 0.30052(7) 0.4308(3)
H13 H 0.2697 0.2943 0.3535
C29 C 0.4455(3) 0.26916(7) 0.5236(3)
H14 H 0.4120 0.2412 0.5090
C30 C 0.5789(3) 0.27851(7) 0.6386(3)
C31 C 0.6675(3) 0.24591(8) 0.7339(3)
C32 C 0.6288(3) 0.31925(7) 0.6591(3)
H15 H 0.7199 0.3256 0.7381
C33 C 0.5458(3) 0.35051(7) 0.5647(3)
H16 H 0.5803 0.3783 0.5781
loop_
_geom_bond_atom_site_label_1
_geom_bond_atom_site_label_2
_geom_bond_site_symmetry_1
_geom_bond_site_symmetry_2
O1 C9 1_555 1_555
C1 C7 1_555 1_555
C2 C3 1_555 1_555
C3 C19 1_555 1_555
N1 C31 1_555 1_555
N2 C4 1_555 1_555
C4 C5 1_555 1_555
C5 C6 1_555 1_555
C6 H1 1_555 1_555
C7 C6 1_555 1_555
H2 C7 1_555 1_555
C8 C1 1_555 1_555
C9 C8 1_555 1_555
C10 C2 1_555 1_555
C11 C10 1_555 1_555
C12 C11 1_555 1_555
H3 C12 1_555 1_555
C13 C12 1_555 1_555
H4 C13 1_555 1_555
C14 C13 1_555 1_555
C15 C14 1_555 1_555
N3 C15 1_555 1_555
C16 C1 1_555 1_555
H5 C16 1_555 1_555
C17 C5 1_555 1_555
H6 C17 1_555 1_555
C18 C2 1_555 1_555
C19 H7 1_555 1_555
C20 C19 1_555 1_555
H8 C20 1_555 1_555
C21 C20 1_555 1_555
C22 C21 1_555 1_555
H9 C22 1_555 1_555
C23 C3 1_555 1_555
H10 C23 1_555 1_555
C24 C21 1_555 1_555
N4 C24 1_555 1_555
C25 C14 1_555 1_555
H11 C25 1_555 1_555
C26 C11 1_555 1_555
H12 C26 1_555 1_555
C27 C18 1_555 1_555
C28 C27 1_555 1_555
H13 C28 1_555 1_555
C29 C28 1_555 1_555
H14 C29 1_555 1_555
C30 C29 1_555 1_555
C31 C30 1_555 1_555
C32 C30 1_555 1_555
H15 C32 1_555 1_555
C33 C27 1_555 1_555
H16 C33 1_555 1_555
C8 C18 1_555 1_555
C9 C10 1_555 1_555
C16 C17 1_555 1_555
C22 C23 1_555 1_555
C25 C26 1_555 1_555
C32 C33 1_555 1_555

#END
