
#######################################################################
#
#                 Cambridge Crystallographic Data Centre
#                                CCDC 
#
#######################################################################
#
# If this CIF has been generated from an entry in the Cambridge 
# Structural Database, then it will include bibliographic, chemical, 
# crystal, experimental, refinement or atomic coordinate data resulting 
# from the CCDC's data processing and validation procedures.
#
#######################################################################

data_LIRHEB
_chemical_formula_moiety         'C30 H16 N2'
_chemical_name_systematic        8,10-Diphenylfluoranthene-7,9-dicarbonitrile
_symmetry_cell_setting           monoclinic
_symmetry_space_group_name_H-M   'P 21/c'
_symmetry_Int_Tables_number      14
_space_group_name_Hall           '-P 2ybc'
loop_
_symmetry_equiv_pos_site_id
_symmetry_equiv_pos_as_xyz
1 x,y,z
2 -x,1/2+y,1/2-z
3 -x,-y,-z
4 x,1/2-y,1/2+z
_cell_length_a                   16.2434(8)
_cell_length_b                   14.7232(7)
_cell_length_c                   8.4925(4)
_cell_angle_alpha                90
_cell_angle_beta                 96.043(2)
_cell_angle_gamma                90
_cell_volume                     2019.74
_exptl_crystal_colour            red
_exptl_crystal_description       rod
_cell_formula_units_Z            4
loop_
_atom_site_label
_atom_site_type_symbol
_atom_site_fract_x
_atom_site_fract_y
_atom_site_fract_z
N1 N 0.46280(7) 0.42815(7) 0.25165(13)
C1 C 0.40136(8) 0.42400(8) 0.17226(15)
C2 C 0.15277(8) 0.16115(8) -0.17518(14)
C3 C -0.01154(8) 0.38511(8) -0.42322(16)
C4 C 0.32478(8) 0.41313(8) 0.07329(14)
C5 C 0.20377(8) 0.47444(8) -0.07628(14)
C6 C 0.27663(8) 0.17307(8) 0.00239(14)
C7 C 0.20818(8) 0.21477(8) -0.08424(13)
C8 C 0.29519(8) 0.32614(8) 0.03889(14)
C9 C 0.17051(8) 0.38695(8) -0.10895(14)
C10 C 0.39947(8) 0.20592(9) 0.17442(16)
C11 C 0.21928(7) 0.31334(8) -0.05651(14)
C12 C 0.06611(8) 0.40276(8) -0.34593(15)
C13 C 0.16628(9) 0.06620(9) -0.17556(15)
C14 C 0.08665(8) 0.37382(8) -0.19131(14)
C15 C 0.33068(8) 0.23667(8) 0.08232(14)
C16 C 0.29037(8) 0.07957(8) 0.00651(15)
C17 C -0.05053(8) 0.31271(9) -0.19117(16)
C18 C 0.23188(9) 0.02609(9) -0.08678(15)
N2 N 0.12217(9) 0.61282(8) -0.19594(15)
C19 C 0.38879(8) 0.60732(8) -0.00458(15)
C20 C 0.31276(8) 0.58219(8) 0.04380(14)
C21 C 0.02679(8) 0.32938(8) -0.11383(16)
C22 C 0.15777(9) 0.55168(9) -0.14118(15)
C23 C -0.06963(9) 0.33990(8) -0.34662(16)
C24 C 0.37540(9) 0.75586(9) 0.10543(16)
C25 C 0.28005(8) 0.48914(8) 0.01220(14)
C26 C 0.36233(9) 0.04991(9) 0.10102(16)
C27 C 0.41958(9) 0.69390(9) 0.02561(16)
C28 C 0.29948(9) 0.73189(9) 0.15379(16)
C29 C 0.41411(9) 0.11137(9) 0.18206(17)
C30 C 0.26825(9) 0.64554(9) 0.12216(15)
H1 H 0.2125(9) 0.6265(9) 0.1546(15)
H2 H -0.0917(9) 0.2788(9) -0.1373(15)
H3 H 0.1086(8) 0.4337(8) -0.4007(14)
H4 H 0.2667(8) 0.7811(9) 0.2081(15)
H5 H 0.1251(8) 0.0282(9) -0.2405(15)
H6 H -0.1252(9) 0.3251(8) -0.4024(16)
H7 H 0.4216(8) 0.5633(8) -0.0634(14)
H8 H 0.3978(8) 0.8162(10) 0.1261(16)
H9 H 0.1034(8) 0.1869(8) -0.2388(14)
H10 H -0.0245(8) 0.4040(8) -0.5316(17)
H11 H 0.4390(8) 0.2469(9) 0.2342(15)
H12 H 0.3758(8) -0.0155(9) 0.1037(15)
H13 H 0.2402(8) -0.0411(10) -0.0875(15)
H14 H 0.0403(8) 0.3079(9) -0.0024(16)
H15 H 0.4636(10) 0.0897(9) 0.2430(17)
H16 H 0.4750(9) 0.7105(10) -0.0120(17)
loop_
_geom_bond_atom_site_label_1
_geom_bond_atom_site_label_2
_geom_bond_site_symmetry_1
_geom_bond_site_symmetry_2
N1 C1 1_555 1_555
C1 C4 1_555 1_555
C2 C7 1_555 1_555
C3 C12 1_555 1_555
C4 C8 1_555 1_555
C5 C9 1_555 1_555
C6 C7 1_555 1_555
C7 C11 1_555 1_555
C8 C11 1_555 1_555
C9 C11 1_555 1_555
C10 C15 1_555 1_555
C12 C14 1_555 1_555
C13 C2 1_555 1_555
C14 C9 1_555 1_555
C15 C6 1_555 1_555
C16 C6 1_555 1_555
C17 C21 1_555 1_555
C18 C13 1_555 1_555
N2 C22 1_555 1_555
C19 C20 1_555 1_555
C20 C25 1_555 1_555
C21 C14 1_555 1_555
C22 C5 1_555 1_555
C23 C3 1_555 1_555
C24 C27 1_555 1_555
C25 C4 1_555 1_555
C26 C16 1_555 1_555
C27 C19 1_555 1_555
C28 C24 1_555 1_555
C29 C10 1_555 1_555
C30 C20 1_555 1_555
H1 C30 1_555 1_555
H2 C17 1_555 1_555
H3 C12 1_555 1_555
H4 C28 1_555 1_555
H5 C13 1_555 1_555
H6 C23 1_555 1_555
H7 C19 1_555 1_555
H8 C24 1_555 1_555
H9 C2 1_555 1_555
H10 C3 1_555 1_555
H11 C10 1_555 1_555
H12 C26 1_555 1_555
H13 C18 1_555 1_555
H14 C21 1_555 1_555
H15 C29 1_555 1_555
H16 C27 1_555 1_555
C5 C25 1_555 1_555
C8 C15 1_555 1_555
C16 C18 1_555 1_555
C17 C23 1_555 1_555
C26 C29 1_555 1_555
C28 C30 1_555 1_555

#END
