
#######################################################################
#
#                 Cambridge Crystallographic Data Centre
#                                CCDC 
#
#######################################################################
#
# If this CIF has been generated from an entry in the Cambridge 
# Structural Database, then it will include bibliographic, chemical, 
# crystal, experimental, refinement or atomic coordinate data resulting 
# from the CCDC's data processing and validation procedures.
#
#######################################################################

data_LIRHIF
_chemical_formula_moiety         'C36 H28 N2,C1 H2 Cl2'
_chemical_name_systematic        
'2,4,5,6-tetrakis(p-tolyl)benzene-1,3-dicarbonitrile dichloromethane solvate'
_symmetry_cell_setting           triclinic
_symmetry_space_group_name_H-M   'P -1'
_symmetry_Int_Tables_number      2
_space_group_name_Hall           '-P 1'
loop_
_symmetry_equiv_pos_site_id
_symmetry_equiv_pos_as_xyz
1 x,y,z
2 -x,-y,-z
_cell_length_a                   10.5510(18)
_cell_length_b                   11.723(2)
_cell_length_c                   12.699(2)
_cell_angle_alpha                108.258(6)
_cell_angle_beta                 92.812(6)
_cell_angle_gamma                90.151(6)
_cell_volume                     1489.59
_exptl_crystal_colour            colorless
_exptl_crystal_description       needle
_cell_formula_units_Z            2
loop_
_atom_site_label
_atom_site_type_symbol
_atom_site_fract_x
_atom_site_fract_y
_atom_site_fract_z
N1 N 0.0842(4) 0.6663(4) 0.2406(4)
N2 N 0.3994(5) 0.1618(4) 0.2513(4)
C1 C 0.2347(5) 0.2392(6) -0.1826(5)
H1 H 0.3004 0.2771 -0.2132
H2 H 0.1513 0.2504 -0.2151
H3 H 0.2511 0.1531 -0.2004
C2 C 0.2370(4) 0.2958(5) -0.0589(4)
C3 C 0.3464(5) 0.3353(5) 0.0041(5)
H4 H 0.4235 0.3314 -0.0324
C4 C 0.3501(5) 0.3805(5) 0.1178(5)
H5 H 0.4286 0.4067 0.1582
C5 C 0.2403(5) 0.3880(4) 0.1733(4)
C6 C 0.2427(5) 0.4313(5) 0.2965(4)
C7 C 0.1889(4) 0.5406(4) 0.3565(4)
C8 C 0.1920(4) 0.5828(4) 0.4729(4)
C9 C 0.2513(5) 0.5135(5) 0.5327(4)
C10 C 0.2546(5) 0.5557(5) 0.6561(4)
C11 C 0.3227(5) 0.6592(5) 0.7163(5)
H6 H 0.3660 0.7042 0.6781
C12 C 0.3279(5) 0.6972(6) 0.8307(5)
H7 H 0.3771 0.7666 0.8707
C13 C 0.2606(6) 0.6337(6) 0.8896(4)
C14 C 0.2648(6) 0.6759(8) 1.0144(5)
H8 H 0.3451 0.7194 1.0432
H9 H 0.2584 0.6064 1.0413
H10 H 0.1938 0.7294 1.0401
C15 C 0.1289(4) 0.6113(4) 0.2929(5)
C16 C 0.3004(4) 0.3644(4) 0.3594(4)
C17 C 0.3561(5) 0.2507(5) 0.2984(4)
C18 C 0.3064(4) 0.4027(4) 0.4752(4)
C19 C 0.3716(4) 0.3286(4) 0.5368(4)
C20 C 0.3345(5) 0.2082(4) 0.5178(4)
H11 H 0.2643 0.1747 0.4677
C21 C 0.3988(5) 0.1388(5) 0.5711(5)
H12 H 0.3723 0.0575 0.5563
C22 C 0.5005(5) 0.1830(5) 0.6455(4)
C23 C 0.5660(5) 0.1087(5) 0.7072(5)
H13 H 0.5195 0.1122 0.7730
H14 H 0.6527 0.1399 0.7302
H15 H 0.5689 0.0252 0.6590
C24 C 0.5366(5) 0.3037(5) 0.6651(5)
H16 H 0.6054 0.3376 0.7167
C25 C 0.4739(4) 0.3738(5) 0.6109(5)
H17 H 0.5014 0.4547 0.6247
C26 C 0.1226(5) 0.3036(5) -0.0041(5)
H18 H 0.0445 0.2773 -0.0453
C27 C 0.1257(5) 0.3505(5) 0.1114(4)
H19 H 0.0489 0.3570 0.1487
C28 C 0.1304(4) 0.6979(4) 0.5309(4)
C29 C 0.1669(5) 0.8057(5) 0.5167(5)
H20 H 0.2322 0.8071 0.4682
C30 C 0.1083(5) 0.9118(5) 0.5732(5)
H21 H 0.1353 0.9850 0.5634
C31 C 0.0109(5) 0.9135(4) 0.6440(5)
C32 C -0.0539(6) 1.0278(5) 0.7044(7)
H22 H -0.0280 1.0515 0.7836
H23 H -0.1461 1.0147 0.6950
H24 H -0.0298 1.0915 0.6741
C33 C -0.0235(5) 0.8053(5) 0.6567(5)
H25 H -0.0887 0.8043 0.7054
C34 C 0.0322(5) 0.6992(5) 0.6023(4)
H26 H 0.0046 0.6265 0.6128
C35 C 0.1911(5) 0.4927(5) 0.7148(5)
H27 H 0.1454 0.4209 0.6756
C36 C 0.1940(5) 0.5338(6) 0.8292(5)
H28 H 0.1477 0.4904 0.8670
H29? H 0.2935 0.1152 0.0582
H30? H 0.3215 -0.0145 0.0698
Cl1? Cl 0.3440(18) -0.016(2) -0.1089(9)
Cl2? Cl 0.1138(5) -0.0034(16) 0.0136(16)
Cl3? Cl 0.4219(5) 0.0154(5) -0.0452(7)
Cl4? Cl 0.1492(4) -0.0426(4) -0.0669(6)
C37? C 0.2783(4) 0.0279(8) 0.0224(5)
H31? H 0.2884 -0.0081 0.0831
H32? H 0.2597 0.1141 0.0563
loop_
_geom_bond_atom_site_label_1
_geom_bond_atom_site_label_2
_geom_bond_site_symmetry_1
_geom_bond_site_symmetry_2
N1 C15 1_555 1_555
N2 C17 1_555 1_555
C1 H1 1_555 1_555
H2 C1 1_555 1_555
H3 C1 1_555 1_555
C2 C1 1_555 1_555
C3 C2 1_555 1_555
H4 C3 1_555 1_555
C4 C3 1_555 1_555
H5 C4 1_555 1_555
C5 C4 1_555 1_555
C6 C5 1_555 1_555
C7 C6 1_555 1_555
C8 C7 1_555 1_555
C9 C8 1_555 1_555
C10 C9 1_555 1_555
C11 C10 1_555 1_555
H6 C11 1_555 1_555
C12 C11 1_555 1_555
H7 C12 1_555 1_555
C13 C12 1_555 1_555
C14 C13 1_555 1_555
H8 C14 1_555 1_555
H9 C14 1_555 1_555
H10 C14 1_555 1_555
C15 C7 1_555 1_555
C16 C6 1_555 1_555
C17 C16 1_555 1_555
C18 C9 1_555 1_555
C19 C18 1_555 1_555
C20 C19 1_555 1_555
H11 C20 1_555 1_555
C21 C20 1_555 1_555
H12 C21 1_555 1_555
C22 C21 1_555 1_555
C23 C22 1_555 1_555
H13 C23 1_555 1_555
H14 C23 1_555 1_555
H15 C23 1_555 1_555
C24 C22 1_555 1_555
H16 C24 1_555 1_555
C25 C19 1_555 1_555
H17 C25 1_555 1_555
C26 C2 1_555 1_555
H18 C26 1_555 1_555
C27 C5 1_555 1_555
H19 C27 1_555 1_555
C28 C8 1_555 1_555
C29 C28 1_555 1_555
H20 C29 1_555 1_555
C30 C29 1_555 1_555
H21 C30 1_555 1_555
C31 C30 1_555 1_555
C32 C31 1_555 1_555
H22 C32 1_555 1_555
H23 C32 1_555 1_555
H24 C32 1_555 1_555
C33 C31 1_555 1_555
H25 C33 1_555 1_555
C34 C28 1_555 1_555
H26 C34 1_555 1_555
C35 C10 1_555 1_555
H27 C35 1_555 1_555
C36 C13 1_555 1_555
H28 C36 1_555 1_555
C16 C18 1_555 1_555
C24 C25 1_555 1_555
C26 C27 1_555 1_555
C33 C34 1_555 1_555
C35 C36 1_555 1_555

#END
