
#######################################################################
#
#                 Cambridge Crystallographic Data Centre
#                                CCDC 
#
#######################################################################
#
# If this CIF has been generated from an entry in the Cambridge 
# Structural Database, then it will include bibliographic, chemical, 
# crystal, experimental, refinement or atomic coordinate data resulting 
# from the CCDC's data processing and validation procedures.
#
#######################################################################

data_LIRHUQ01
_chemical_formula_moiety         'C17 H18 N2 O5'
_chemical_name_systematic        
(E)-N'-(2-Hydroxybenzylidene)-3,4,5-trimethoxybenzohydrazide
_symmetry_cell_setting           monoclinic
_symmetry_space_group_name_H-M   'P 21/c'
_symmetry_Int_Tables_number      14
_space_group_name_Hall           '-P 2ybc'
loop_
_symmetry_equiv_pos_site_id
_symmetry_equiv_pos_as_xyz
1 x,y,z
2 -x,1/2+y,1/2-z
3 -x,-y,-z
4 x,1/2-y,1/2+z
_cell_length_a                   15.348(12)
_cell_length_b                   13.330(11)
_cell_length_c                   8.299(7)
_cell_angle_alpha                90
_cell_angle_beta                 99.854(16)
_cell_angle_gamma                90
_cell_volume                     1672.83
_exptl_crystal_colour            colorless
_exptl_crystal_description       needle
_cell_formula_units_Z            4
_exptl_crystal_recrystallization_method THF
loop_
_atom_site_label
_atom_site_type_symbol
_atom_site_fract_x
_atom_site_fract_y
_atom_site_fract_z
O1 O 0.56784(18) 0.60473(18) 0.8299(3)
H1 H 0.6008 0.6424 0.7904
O2 O 0.72936(16) 0.85318(16) 0.7297(3)
O3 O 0.81393(18) 1.13644(15) 0.3448(4)
O4 O 0.92560(17) 1.04300(17) 0.1799(3)
O5 O 0.96337(16) 0.84707(17) 0.2246(3)
N1 N 0.67460(17) 0.66256(18) 0.6249(3)
N2 N 0.72254(17) 0.72742(18) 0.5423(3)
H2 H 0.7367 0.7084 0.4512
C1 C 0.5635(2) 0.5152(2) 0.7521(4)
C2 C 0.6102(2) 0.4977(2) 0.6245(4)
C3 C 0.6039(2) 0.4020(2) 0.5511(4)
H3 H 0.6344 0.3888 0.4658
C4 C 0.5525(3) 0.3270(3) 0.6047(5)
H4 H 0.5497 0.2636 0.5574
C5 C 0.5060(3) 0.3479(3) 0.7282(5)
H5 H 0.4708 0.2983 0.7629
C6 C 0.5108(3) 0.4403(3) 0.8012(4)
H6 H 0.4785 0.4530 0.8843
C7 C 0.6621(2) 0.5750(2) 0.5607(4)
H7 H 0.6874 0.5602 0.4693
C8 C 0.7475(2) 0.8195(2) 0.6011(4)
C9 C 0.7992(2) 0.8781(2) 0.4960(4)
C10 C 0.7841(2) 0.9807(2) 0.4799(4)
H8 H 0.7461 1.0123 0.5400
C11 C 0.8259(2) 1.0356(2) 0.3738(4)
C12 C 0.8839(2) 0.9881(2) 0.2853(4)
C13 C 0.9029(2) 0.8862(2) 0.3110(4)
C14 C 0.8592(2) 0.8308(2) 0.4139(4)
H9 H 0.8701 0.7624 0.4279
C15 C 0.7580(3) 1.1888(3) 0.4353(6)
H10 H 0.6995 1.1610 0.4119
H11 H 0.7560 1.2584 0.4053
H12 H 0.7806 1.1824 0.5501
C16 C 0.8877(3) 1.0316(3) 0.0131(6)
H13 H 0.8832 0.9615 -0.0138
H14 H 0.9243 1.0644 -0.0538
H15 H 0.8298 1.0611 -0.0062
C17 C 1.0023(3) 0.7532(3) 0.2783(5)
H16 H 1.0269 0.7572 0.3925
H17 H 1.0483 0.7375 0.2171
H18 H 0.9580 0.7017 0.2613
loop_
_geom_bond_atom_site_label_1
_geom_bond_atom_site_label_2
_geom_bond_site_symmetry_1
_geom_bond_site_symmetry_2
O1 H1 1_555 1_555
O2 C8 1_555 1_555
O3 C11 1_555 1_555
O4 C12 1_555 1_555
O5 C13 1_555 1_555
N1 N2 1_555 1_555
N2 H2 1_555 1_555
C1 O1 1_555 1_555
C2 C1 1_555 1_555
C3 C2 1_555 1_555
H3 C3 1_555 1_555
C4 C3 1_555 1_555
H4 C4 1_555 1_555
C5 C4 1_555 1_555
H5 C5 1_555 1_555
C6 C1 1_555 1_555
H6 C6 1_555 1_555
C7 N1 1_555 1_555
H7 C7 1_555 1_555
C8 N2 1_555 1_555
C9 C8 1_555 1_555
C10 C9 1_555 1_555
H8 C10 1_555 1_555
C11 C10 1_555 1_555
C12 C11 1_555 1_555
C13 C12 1_555 1_555
C14 C9 1_555 1_555
H9 C14 1_555 1_555
C15 O3 1_555 1_555
H10 C15 1_555 1_555
H11 C15 1_555 1_555
H12 C15 1_555 1_555
C16 O4 1_555 1_555
H13 C16 1_555 1_555
H14 C16 1_555 1_555
H15 C16 1_555 1_555
C17 O5 1_555 1_555
H16 C17 1_555 1_555
H17 C17 1_555 1_555
H18 C17 1_555 1_555
C2 C7 1_555 1_555
C5 C6 1_555 1_555
C13 C14 1_555 1_555

#END
