
#######################################################################
#
#                 Cambridge Crystallographic Data Centre
#                                CCDC 
#
#######################################################################
#
# If this CIF has been generated from an entry in the Cambridge 
# Structural Database, then it will include bibliographic, chemical, 
# crystal, experimental, refinement or atomic coordinate data resulting 
# from the CCDC's data processing and validation procedures.
#
#######################################################################

data_LIRLIK
_chemical_formula_moiety         'C38 H40 N2,0.38(C6 H14)'
_chemical_name_systematic        
"5,15-dihexyl-5,15-dihydrobenzo[1,2-b:5,6-c']dicarbazole hexane solvate"
_symmetry_cell_setting           monoclinic
_symmetry_space_group_name_H-M   'P 21/c'
_symmetry_Int_Tables_number      14
_space_group_name_Hall           '-P 2ybc'
loop_
_symmetry_equiv_pos_site_id
_symmetry_equiv_pos_as_xyz
1 x,y,z
2 -x,1/2+y,1/2-z
3 -x,-y,-z
4 x,1/2-y,1/2+z
_cell_length_a                   28.446(3)
_cell_length_b                   8.2572(8)
_cell_length_c                   32.262(3)
_cell_angle_alpha                90
_cell_angle_beta                 120.6020(10)
_cell_angle_gamma                90
_cell_volume                     6522.43
_exptl_crystal_colour            yellow
_exptl_crystal_description       block
_cell_formula_units_Z            8
loop_
_atom_site_label
_atom_site_type_symbol
_atom_site_fract_x
_atom_site_fract_y
_atom_site_fract_z
C1 C 0.5055(3) -0.1727(7) 0.4596(2)
H1 H 0.4803 -0.2569 0.4408
H2 H 0.5000 -0.1432 0.4856
H3 H 0.5423 -0.2109 0.4724
C2 C 0.4959(2) -0.0236(5) 0.42739(14)
H4 H 0.4600 0.0208 0.4166
H5 H 0.5228 0.0591 0.4458
C3 C 0.50037(13) -0.0704(3) 0.38431(10)
H6 H 0.4711 -0.1455 0.3647
H7 H 0.5347 -0.1270 0.3956
C4 C 0.49766(11) 0.0698(3) 0.35284(9)
H8 H 0.5258 0.1478 0.3725
H9 H 0.4626 0.1232 0.3398
C5 C 0.50520(9) 0.0164(3) 0.31151(8)
H10 H 0.5387 -0.0458 0.3243
H11 H 0.4751 -0.0535 0.2902
C6 C 0.50778(8) 0.1586(2) 0.28295(7)
H12 H 0.4756 0.2255 0.2725
H13 H 0.5395 0.2239 0.3039
C7 C 0.55750(8) 0.0626(2) 0.24130(8)
C8 C 0.61069(8) 0.0471(3) 0.28015(9)
H14 H 0.6194 0.0746 0.3112
C9 C 0.64987(9) -0.0107(3) 0.27071(10)
H15 H 0.6855 -0.0232 0.2961
C10 C 0.63758(9) -0.0504(3) 0.22469(10)
H16 H 0.6651 -0.0883 0.2197
C11 C 0.58477(9) -0.0347(3) 0.18565(9)
H17 H 0.5767 -0.0610 0.1547
C12 C 0.54424(8) 0.0217(2) 0.19433(8)
C13 C 0.48572(8) 0.0446(2) 0.16383(7)
C14 C 0.44926(8) 0.0319(2) 0.11526(8)
H18 H 0.4614 0.0008 0.0946
C15 C 0.39362(8) 0.0659(2) 0.09664(7)
C16 C 0.37415(7) 0.1044(2) 0.12878(7)
C17 C 0.41204(7) 0.1273(2) 0.17767(7)
H19 H 0.4006 0.1624 0.1985
C18 C 0.46662(7) 0.0973(2) 0.19462(7)
C19 C 0.35664(9) 0.0750(3) 0.04594(7)
H20 H 0.3686 0.0466 0.0250
C20 C 0.30472(9) 0.1239(3) 0.02798(7)
H21 H 0.2827 0.1402 -0.0050
C21 C 0.28244(8) 0.1517(2) 0.05844(7)
C22 C 0.31587(7) 0.1296(2) 0.10893(7)
C23 C 0.28983(7) 0.1388(2) 0.13680(6)
C24 C 0.23611(7) 0.2004(2) 0.11500(7)
C25 C 0.20447(8) 0.2310(2) 0.06546(7)
H22 H 0.1691 0.2708 0.0518
C26 C 0.22730(8) 0.2004(3) 0.03802(7)
H23 H 0.2060 0.2119 0.0048
C27 C 0.30340(7) 0.0900(2) 0.18498(7)
C28 C 0.34401(8) -0.0065(2) 0.22151(7)
H24 H 0.3724 -0.0470 0.2182
C29 C 0.34181(9) -0.0412(3) 0.26227(8)
H25 H 0.3687 -0.1056 0.2862
C30 C 0.29943(9) 0.0196(3) 0.26799(8)
H26 H 0.2996 -0.0011 0.2964
C31 C 0.25751(8) 0.1095(3) 0.23230(8)
H27 H 0.2292 0.1485 0.2360
C32 C 0.25913(7) 0.1399(2) 0.19054(7)
C33 C 0.16650(7) 0.2685(2) 0.13886(8)
H28 H 0.1561 0.3615 0.1176
H29 H 0.1701 0.3047 0.1690
C34 C 0.12106(7) 0.1430(2) 0.11627(7)
H30 H 0.1318 0.0475 0.1366
H31 H 0.1156 0.1111 0.0852
C35 C 0.06763(7) 0.2086(2) 0.10983(7)
H32 H 0.0736 0.2416 0.1410
H33 H 0.0571 0.3039 0.0895
C36 C 0.02106(7) 0.0868(2) 0.08768(7)
H34 H 0.0311 -0.0070 0.1086
H35 H 0.0159 0.0509 0.0570
C37 C -0.03285(8) 0.1544(2) 0.07970(8)
H36 H -0.0283 0.1853 0.1105
H37 H -0.0421 0.2513 0.0600
C38 C -0.07966(9) 0.0344(3) 0.05533(10)
H38 H -0.0840 0.0020 0.0250
H39 H -0.1127 0.0843 0.0501
H40 H -0.0718 -0.0590 0.0755
N1 N 0.51079(6) 0.1120(2) 0.24120(6)
N2 N 0.21950(6) 0.21004(19) 0.14828(6)
C39 C 0.22389(14) 0.6535(5) 0.43881(12)
H41 H 0.2012 0.7457 0.4230
H42 H 0.2614 0.6869 0.4567
H43 H 0.2137 0.6066 0.4604
C40 C 0.21638(12) 0.5258(4) 0.40046(10)
H44 H 0.2257 0.5748 0.3782
H45 H 0.2414 0.4365 0.4164
C41 C 0.15839(11) 0.4602(3) 0.37221(9)
H46 H 0.1570 0.3731 0.3514
H47 H 0.1484 0.4158 0.3945
C42 C 0.11780(9) 0.5895(3) 0.34200(8)
H48 H 0.1327 0.6510 0.3257
H49 H 0.1134 0.6632 0.3632
C43 C 0.06222(9) 0.5266(2) 0.30477(7)
H50 H 0.0462 0.4677 0.3206
H51 H 0.0659 0.4524 0.2833
C44 C 0.02502(8) 0.6659(2) 0.27591(7)
H52 H 0.0168 0.7292 0.2968
H53 H 0.0445 0.7357 0.2655
C45 C -0.07269(8) 0.5677(2) 0.23389(7)
C46 C -0.08072(10) 0.5500(3) 0.27296(8)
H54 H -0.0533 0.5754 0.3041
C47 C -0.13110(11) 0.4930(3) 0.26333(10)
H55 H -0.1374 0.4790 0.2887
C48 C -0.17247(10) 0.4561(3) 0.21676(10)
H56 H -0.2059 0.4187 0.2115
C49 C -0.16433(9) 0.4744(3) 0.17820(9)
H57 H -0.1923 0.4512 0.1470
C50 C -0.11368(8) 0.5282(2) 0.18673(7)
C51 C -0.09004(7) 0.5497(2) 0.15655(7)
C52 C -0.03523(7) 0.6019(2) 0.18752(7)
C53 C 0.00029(7) 0.6303(2) 0.17110(6)
H58 H 0.0356 0.6663 0.1921
C54 C -0.01778(7) 0.6039(2) 0.12215(6)
C55 C -0.07409(7) 0.5634(2) 0.09000(6)
C56 C -0.10903(7) 0.5346(2) 0.10810(7)
H59 H -0.1452 0.5051 0.0872
C57 C -0.09496(8) 0.5611(2) 0.03913(7)
H60 H -0.1307 0.5278 0.0183
C58 C -0.06321(8) 0.6069(2) 0.02131(7)
H61 H -0.0785 0.6138 -0.0119
C59 C -0.00647(8) 0.6452(2) 0.05207(7)
C60 C 0.01802(7) 0.6283(2) 0.10268(6)
C61 C 0.07614(7) 0.6429(2) 0.13074(7)
C62 C 0.10413(8) 0.7049(2) 0.10852(7)
C63 C 0.07852(8) 0.7353(2) 0.05893(7)
H62 H 0.0977 0.7790 0.0453
C64 C 0.02464(8) 0.6984(2) 0.03160(7)
H63 H 0.0076 0.7083 -0.0017
C65 C 0.11858(7) 0.5984(2) 0.17940(7)
C66 C 0.12071(8) 0.5037(2) 0.21644(7)
H64 H 0.0887 0.4631 0.2136
C67 C 0.17044(9) 0.4710(3) 0.25716(8)
H65 H 0.1717 0.4072 0.2814
C68 C 0.21895(9) 0.5324(3) 0.26237(8)
H66 H 0.2518 0.5132 0.2908
C69 C 0.21901(8) 0.6207(3) 0.22630(8)
H67 H 0.2514 0.6598 0.2296
C70 C 0.16890(8) 0.6498(2) 0.18457(7)
C71 C 0.20084(8) 0.7756(2) 0.13177(9)
H68 H 0.2322 0.8118 0.1617
H69 H 0.1865 0.8685 0.1105
C72 C 0.21961(8) 0.6503(2) 0.10887(8)
H70 H 0.1888 0.6162 0.0783
H71 H 0.2335 0.5560 0.1296
C73 C 0.26400(8) 0.7182(2) 0.10073(8)
H72 H 0.2498 0.8129 0.0802
H73 H 0.2944 0.7532 0.1315
C74 C 0.28513(9) 0.6000(3) 0.07802(9)
H74 H 0.2983 0.5037 0.0980
H75 H 0.2550 0.5678 0.0468
C75 C 0.33021(10) 0.6664(3) 0.07165(10)
H76 H 0.3613 0.6922 0.1031
H77 H 0.3179 0.7663 0.0533
C76 C 0.34851(14) 0.5503(4) 0.04613(14)
H78 H 0.3627 0.4534 0.0649
H79 H 0.3765 0.6006 0.0422
H80 H 0.3179 0.5235 0.0151
N3 N 0.15924(7) 0.71767(19) 0.14186(6)
N4 N -0.02603(7) 0.6163(2) 0.23392(6)
C77 C 0.3579(6) -0.4179(13) 0.4050(4)
H81 H 0.3763 -0.5048 0.4273
H82 H 0.3719 -0.4076 0.3837
H83 H 0.3194 -0.4406 0.3867
C78 C 0.3672(6) -0.2610(14) 0.4327(3)
H84 H 0.4058 -0.2344 0.4494
H85 H 0.3565 -0.2752 0.4566
C79 C 0.3347(5) -0.1224(12) 0.3992(3)
H86 H 0.3450 -0.1115 0.3749
H87 H 0.2962 -0.1502 0.3828
C80 C 0.3426(6) 0.0395(13) 0.4240(3)
H88 H 0.3254 0.0353 0.4433
H89 H 0.3814 0.0568 0.4457
C81 C 0.3199(5) 0.1814(13) 0.3904(4)
H90 H 0.2829 0.2014 0.3831
H91 H 0.3184 0.1543 0.3605
C82 C 0.3532(6) 0.3352(14) 0.4106(6)
H92 H 0.3367 0.4211 0.3876
H93 H 0.3897 0.3172 0.4173
H94 H 0.3541 0.3645 0.4399
loop_
_geom_bond_atom_site_label_1
_geom_bond_atom_site_label_2
_geom_bond_site_symmetry_1
_geom_bond_site_symmetry_2
C1 H1 1_555 1_555
H2 C1 1_555 1_555
H3 C1 1_555 1_555
C2 C1 1_555 1_555
H4 C2 1_555 1_555
H5 C2 1_555 1_555
C3 C2 1_555 1_555
H6 C3 1_555 1_555
H7 C3 1_555 1_555
C4 C3 1_555 1_555
H8 C4 1_555 1_555
H9 C4 1_555 1_555
C5 C4 1_555 1_555
H10 C5 1_555 1_555
H11 C5 1_555 1_555
C6 C5 1_555 1_555
H12 C6 1_555 1_555
H13 C6 1_555 1_555
C7 C8 1_555 1_555
C8 H14 1_555 1_555
C9 C8 1_555 1_555
H15 C9 1_555 1_555
C10 C9 1_555 1_555
H16 C10 1_555 1_555
C11 C10 1_555 1_555
H17 C11 1_555 1_555
C12 C7 1_555 1_555
C13 C12 1_555 1_555
C14 C13 1_555 1_555
H18 C14 1_555 1_555
C15 C14 1_555 1_555
C16 C15 1_555 1_555
C17 C16 1_555 1_555
H19 C17 1_555 1_555
C18 C13 1_555 1_555
C19 C15 1_555 1_555
H20 C19 1_555 1_555
C20 C19 1_555 1_555
H21 C20 1_555 1_555
C21 C20 1_555 1_555
C22 C16 1_555 1_555
C23 C22 1_555 1_555
C24 C23 1_555 1_555
C25 C24 1_555 1_555
H22 C25 1_555 1_555
C26 C21 1_555 1_555
H23 C26 1_555 1_555
C27 C23 1_555 1_555
C28 C27 1_555 1_555
H24 C28 1_555 1_555
C29 C28 1_555 1_555
H25 C29 1_555 1_555
C30 C29 1_555 1_555
H26 C30 1_555 1_555
C31 C30 1_555 1_555
H27 C31 1_555 1_555
C32 C27 1_555 1_555
C33 H28 1_555 1_555
H29 C33 1_555 1_555
C34 C33 1_555 1_555
H30 C34 1_555 1_555
H31 C34 1_555 1_555
C35 C34 1_555 1_555
H32 C35 1_555 1_555
H33 C35 1_555 1_555
C36 C35 1_555 1_555
H34 C36 1_555 1_555
H35 C36 1_555 1_555
C37 C36 1_555 1_555
H36 C37 1_555 1_555
H37 C37 1_555 1_555
C38 C37 1_555 1_555
H38 C38 1_555 1_555
H39 C38 1_555 1_555
H40 C38 1_555 1_555
N1 C6 1_555 1_555
N2 C24 1_555 1_555
C39 H41 1_555 1_555
H42 C39 1_555 1_555
H43 C39 1_555 1_555
C40 C39 1_555 1_555
H44 C40 1_555 1_555
H45 C40 1_555 1_555
C41 C40 1_555 1_555
H46 C41 1_555 1_555
H47 C41 1_555 1_555
C42 C41 1_555 1_555
H48 C42 1_555 1_555
H49 C42 1_555 1_555
C43 C42 1_555 1_555
H50 C43 1_555 1_555
H51 C43 1_555 1_555
C44 C43 1_555 1_555
H52 C44 1_555 1_555
H53 C44 1_555 1_555
C45 C46 1_555 1_555
C46 H54 1_555 1_555
C47 C46 1_555 1_555
H55 C47 1_555 1_555
C48 C47 1_555 1_555
H56 C48 1_555 1_555
C49 C48 1_555 1_555
H57 C49 1_555 1_555
C50 C45 1_555 1_555
C51 C50 1_555 1_555
C52 C51 1_555 1_555
C53 C52 1_555 1_555
H58 C53 1_555 1_555
C54 C53 1_555 1_555
C55 C54 1_555 1_555
C56 C51 1_555 1_555
H59 C56 1_555 1_555
C57 C55 1_555 1_555
H60 C57 1_555 1_555
C58 C57 1_555 1_555
H61 C58 1_555 1_555
C59 C58 1_555 1_555
C60 C54 1_555 1_555
C61 C60 1_555 1_555
C62 C61 1_555 1_555
C63 C62 1_555 1_555
H62 C63 1_555 1_555
C64 C59 1_555 1_555
H63 C64 1_555 1_555
C65 C61 1_555 1_555
C66 C65 1_555 1_555
H64 C66 1_555 1_555
C67 C66 1_555 1_555
H65 C67 1_555 1_555
C68 C67 1_555 1_555
H66 C68 1_555 1_555
C69 C68 1_555 1_555
H67 C69 1_555 1_555
C70 C65 1_555 1_555
C71 H68 1_555 1_555
H69 C71 1_555 1_555
C72 C71 1_555 1_555
H70 C72 1_555 1_555
H71 C72 1_555 1_555
C73 C72 1_555 1_555
H72 C73 1_555 1_555
H73 C73 1_555 1_555
C74 C73 1_555 1_555
H74 C74 1_555 1_555
H75 C74 1_555 1_555
C75 C74 1_555 1_555
H76 C75 1_555 1_555
H77 C75 1_555 1_555
C76 C75 1_555 1_555
H78 C76 1_555 1_555
H79 C76 1_555 1_555
H80 C76 1_555 1_555
N3 C62 1_555 1_555
N4 C44 1_555 1_555
C77 H81 1_555 1_555
H82 C77 1_555 1_555
H83 C77 1_555 1_555
C78 C77 1_555 1_555
H84 C78 1_555 1_555
H85 C78 1_555 1_555
C79 C78 1_555 1_555
H86 C79 1_555 1_555
H87 C79 1_555 1_555
C80 C79 1_555 1_555
H88 C80 1_555 1_555
H89 C80 1_555 1_555
C81 C80 1_555 1_555
H90 C81 1_555 1_555
H91 C81 1_555 1_555
C82 C81 1_555 1_555
H92 C82 1_555 1_555
H93 C82 1_555 1_555
H94 C82 1_555 1_555
C7 N1 1_555 1_555
C11 C12 1_555 1_555
C17 C18 1_555 1_555
C18 N1 1_555 1_555
C21 C22 1_555 1_555
C25 C26 1_555 1_555
C31 C32 1_555 1_555
C32 N2 1_555 1_555
C33 N2 1_555 1_555
C45 N4 1_555 1_555
C49 C50 1_555 1_555
C52 N4 1_555 1_555
C55 C56 1_555 1_555
C59 C60 1_555 1_555
C63 C64 1_555 1_555
C69 C70 1_555 1_555
C70 N3 1_555 1_555
C71 N3 1_555 1_555

#END
