
#######################################################################
#
#                 Cambridge Crystallographic Data Centre
#                                CCDC 
#
#######################################################################
#
# If this CIF has been generated from an entry in the Cambridge 
# Structural Database, then it will include bibliographic, chemical, 
# crystal, experimental, refinement or atomic coordinate data resulting 
# from the CCDC's data processing and validation procedures.
#
#######################################################################

data_LIRQUY
_chemical_name_common            'PDB Chemical Component code: IMP'
_chemical_formula_moiety         '2(C10 H13 N4 O8 P1),C5 H10 N2 O3,11(H2 O1)'
_chemical_name_systematic        
"bis(Inosine-5'-phosphato) L-glutamine undecahydrate"
_symmetry_cell_setting           monoclinic
_symmetry_space_group_name_H-M   'P 21'
_symmetry_Int_Tables_number      4
_space_group_name_Hall           'P 2yb'
loop_
_symmetry_equiv_pos_site_id
_symmetry_equiv_pos_as_xyz
1 x,y,z
2 -x,1/2+y,-z
_cell_length_a                   8.698(2)
_cell_length_b                   21.900(3)
_cell_length_c                   12.370(1)
_cell_angle_alpha                90
_cell_angle_beta                 110.59(3)
_cell_angle_gamma                90
_cell_volume                     2205.8
_exptl_crystal_colour            colorless
_exptl_crystal_description       needle
_cell_formula_units_Z            2
_chemical_properties_physical    'air- and moisture-sensitive'
loop_
_atom_site_label
_atom_site_type_symbol
_atom_site_fract_x
_atom_site_fract_y
_atom_site_fract_z
P1 P 0.2626(4) 0.0627 0.2520(3)
O1 O 0.3992(8) 0.0227(3) 0.3172(5)
O2 O 0.2093(7) 0.0452(3) 0.1223(5)
O3 O 0.1166(8) 0.0538(4) 0.2819(5)
O4 O 0.3080(8) 0.1283(3) 0.2582(6)
C1 C 0.3232(12) 0.0518(5) 0.0704(8)
H1 H 0.4249(12) 0.0330(5) 0.1195(8)
H2 H 0.3445(12) 0.0950(5) 0.0661(8)
C2 C 0.2759(11) 0.0237(6) -0.0548(9)
H3 H 0.3656(11) 0.0297(6) -0.0844(9)
O5 O 0.2444(9) -0.0411(4) -0.0473(6)
C3 C 0.0754(15) -0.0535(8) -0.1225(11)
H4 H 0.0792(15) -0.0672(8) -0.1970(11)
C4 C -0.0122(16) -0.0006(7) -0.1418(9)
H5 H -0.0462(16) 0.0076(7) -0.0756(9)
C5 C 0.1085(17) 0.0468(5) -0.1458(8)
H6 H 0.0785(17) 0.0883(5) -0.1310(8)
O6 O -0.1495(8) -0.0055(4) -0.2392(7)
O7 O 0.1273(8) 0.0408(4) -0.2431(6)
N1 N 0.0357(12) -0.1094(5) -0.0631(10)
C6 C 0.0568(13) -0.1127(6) 0.0491(10)
H7 H 0.1187(13) -0.0837(6) 0.1011(10)
N2 N -0.0123(12) -0.1579(5) 0.0834(8)
C7 C -0.0705(18) -0.1953(11) -0.0111(14)
C8 C -0.0441(15) -0.1541(7) -0.1181(11)
N3 N -0.0949(11) -0.1748(5) -0.2249(8)
C9 C -0.1709(15) -0.2261(8) -0.2493(17)
H8 H -0.2132(15) -0.2385(8) -0.3260(17)
N4 N -0.1922(11) -0.2638(5) -0.1659(9)
H9 H -0.2296(11) -0.2998(5) -0.1876(9)
C10 C -0.1615(15) -0.2502(6) -0.0579(13)
O8 O -0.1869(12) -0.2883(4) 0.0082(9)
P2 P -0.4914(4) 0.1167(2) -0.2529(2)
O9 O -0.4344(9) 0.0474(4) -0.2620(7)
O10 O -0.6824(7) 0.1237(3) -0.2903(5)
O11 O -0.4160(10) 0.1636(4) -0.3279(5)
O12 O -0.4137(9) 0.1381(4) -0.1153(6)
C11 C -0.2959(12) 0.2365(5) 0.1176(11)
H10 H -0.2185(12) 0.2507(5) 0.1919(11)
C12 C -0.3853(11) 0.1772(5) 0.1415(9)
H11 H -0.4843(11) 0.1683(5) 0.0749(9)
C13 C -0.1639(14) 0.1590(6) 0.0462(11)
H12 H -0.0448(14) 0.1531(6) 0.0707(11)
C14 C -0.2340(12) 0.1313(5) 0.1432(9)
H13 H -0.2712(12) 0.0889(5) 0.1262(9)
C15 C -0.2407(12) 0.1325(5) -0.0591(11)
H14 H -0.2157(12) 0.0892(5) -0.0507(11)
H15 H -0.1896(12) 0.1486(5) -0.1114(11)
O13 O -0.2028(10) 0.2231(4) 0.0440(6)
O14 O -0.4215(9) 0.1841(4) 0.2326(5)
O15 O -0.1301(8) 0.1378(4) 0.2506(5)
N5 N -0.4030(12) 0.2888(5) 0.0616(8)
C16 C -0.5055(17) 0.2954(6) -0.0401(10)
H16 H -0.5128(17) 0.2638(6) -0.0919(10)
N6 N -0.6008(12) 0.3419(6) -0.0783(9)
C17 C -0.5556(14) 0.3743(6) 0.0210(10)
C18 C -0.4512(13) 0.3400(6) 0.1029(9)
N7 N -0.3621(12) 0.3496(5) 0.2297(8)
C19 C -0.4075(17) 0.4144(6) 0.2407(10)
H17 H -0.3500(17) 0.4357(6) 0.3078(10)
N8 N -0.5144(15) 0.4398(4) 0.1668(9)
H18 H -0.5459(15) 0.4728(4) 0.1904(9)
C20 C -0.5929(16) 0.4290(7) 0.0606(16)
O16 O -0.6852(11) 0.4678(4) -0.0133(5)
O17 O -0.1746(8) 0.1550(4) 0.4266(5)
O18 O -0.0959(9) 0.0235(4) -0.4172(6)
O19 O 0.8818(9) 0.8348(4) 0.2521(6)
O20 O 0.1191(7) 0.4673(3) 0.7492(5)
O21 O 0.0741(8) 0.0829(4) 0.5027(5)
O22 O 0.4345(9) 0.1923(4) 0.4639(6)
O23 O 0.2788(7) 0.4108(4) 0.4175(5)
O24 O 0.4105(8) 0.4987(4) 0.4256(5)
O25 O -0.5005(8) -0.0965(4) 0.2696(5)
O26 O -0.2805(8) -0.1508(4) 0.3538(5)
O27 O 0.2677(9) 0.5377(4) 0.6174(6)
N9 N -1.3156(11) 0.2783(4) -0.2709(8)
C21 C -1.2382(16) 0.2974(7) -0.3518(11)
H19 H -1.2082(16) 0.3407(7) -0.3393(11)
C22 C -1.3495(19) 0.2880(7) -0.4762(13)
O28 O -1.4903(11) 0.2709(4) -0.4971(7)
O29 O -1.2987(10) 0.3008(4) -0.5431(7)
C23 C -1.0753(17) 0.2572(7) -0.3229(11)
H20 H -1.0075(17) 0.2649(7) -0.2431(11)
H21 H -1.1073(17) 0.2146(7) -0.3284(11)
C24 C -0.9696(26) 0.2664(10) -0.3960(15)
H22 H -0.9376(26) 0.3091(10) -0.3875(15)
H23 H -1.0422(26) 0.2614(10) -0.4755(15)
C25 C -0.8128(17) 0.2303(8) -0.3844(13)
O30 O -0.7322(9) 0.2389(4) -0.4493(6)
N10 N -0.7782(12) 0.1879(5) -0.3084(9)
loop_
_geom_bond_atom_site_label_1
_geom_bond_atom_site_label_2
_geom_bond_site_symmetry_1
_geom_bond_site_symmetry_2
P1 O1 1_555 1_555
O2 P1 1_555 1_555
O3 P1 1_555 1_555
O4 P1 1_555 1_555
C1 O2 1_555 1_555
H1 C1 1_555 1_555
H2 C1 1_555 1_555
C2 C1 1_555 1_555
H3 C2 1_555 1_555
O5 C2 1_555 1_555
C3 O5 1_555 1_555
H4 C3 1_555 1_555
C4 C3 1_555 1_555
H5 C4 1_555 1_555
C5 C2 1_555 1_555
H6 C5 1_555 1_555
O6 C4 1_555 1_555
O7 C5 1_555 1_555
N1 C3 1_555 1_555
C6 N1 1_555 1_555
H7 C6 1_555 1_555
N2 C6 1_555 1_555
C7 N2 1_555 1_555
C8 N1 1_555 1_555
N3 C8 1_555 1_555
C9 N3 1_555 1_555
H8 C9 1_555 1_555
N4 C9 1_555 1_555
H9 N4 1_555 1_555
C10 C7 1_555 1_555
O8 C10 1_555 1_555
P2 O9 1_555 1_555
O10 P2 1_555 1_555
O11 P2 1_555 1_555
O12 P2 1_555 1_555
C11 H10 1_555 1_555
C12 C11 1_555 1_555
H11 C12 1_555 1_555
C13 H12 1_555 1_555
C14 C12 1_555 1_555
H13 C14 1_555 1_555
C15 O12 1_555 1_555
H14 C15 1_555 1_555
H15 C15 1_555 1_555
O13 C11 1_555 1_555
O14 C12 1_555 1_555
O15 C14 1_555 1_555
N5 C11 1_555 1_555
C16 N5 1_555 1_555
H16 C16 1_555 1_555
N6 C16 1_555 1_555
C17 N6 1_555 1_555
C18 N5 1_555 1_555
N7 C18 1_555 1_555
C19 N7 1_555 1_555
H17 C19 1_555 1_555
N8 C19 1_555 1_555
H18 N8 1_555 1_555
C20 C17 1_555 1_555
O16 C20 1_555 1_555
N9 C21 1_555 1_555
C21 H19 1_555 1_555
C22 C21 1_555 1_555
O28 C22 1_555 1_555
O29 C22 1_555 1_555
C23 C21 1_555 1_555
H20 C23 1_555 1_555
H21 C23 1_555 1_555
C24 C23 1_555 1_555
H22 C24 1_555 1_555
H23 C24 1_555 1_555
C25 C24 1_555 1_555
O30 C25 1_555 1_555
N10 C25 1_555 1_555
C4 C5 1_555 1_555
C7 C8 1_555 1_555
N4 C10 1_555 1_555
C13 C14 1_555 1_555
C13 C15 1_555 1_555
C13 O13 1_555 1_555
C17 C18 1_555 1_555
N8 C20 1_555 1_555

#END
