
#######################################################################
#
#                 Cambridge Crystallographic Data Centre
#                                CCDC 
#
#######################################################################
#
# If this CIF has been generated from an entry in the Cambridge 
# Structural Database, then it will include bibliographic, chemical, 
# crystal, experimental, refinement or atomic coordinate data resulting 
# from the CCDC's data processing and validation procedures.
#
#######################################################################

data_LIRREJ
_chemical_formula_moiety         'C21 H18 O2 S2'
_chemical_name_systematic        
(3)-2-Thio(1,3)benzeno(0)(2,3)-5-(ethoxycarbonyl)-thiopheno(0)-(1,3)benzenophane
_symmetry_cell_setting           orthorhombic
_symmetry_space_group_name_H-M   'P b c a'
_symmetry_Int_Tables_number      61
_space_group_name_Hall           '-P 2ac 2ab'
loop_
_symmetry_equiv_pos_site_id
_symmetry_equiv_pos_as_xyz
1 x,y,z
2 1/2+x,y,1/2-z
3 x,1/2-y,1/2+z
4 1/2-x,1/2+y,z
5 -x,-y,-z
6 1/2-x,-y,1/2+z
7 -x,1/2+y,1/2-z
8 1/2+x,1/2-y,-z
_cell_length_a                   9.528(2)
_cell_length_b                   13.619(2)
_cell_length_c                   28.003(8)
_cell_angle_alpha                90
_cell_angle_beta                 90
_cell_angle_gamma                90
_cell_volume                     3633.72
_exptl_crystal_colour            colorless
_exptl_crystal_description       blocks
_cell_formula_units_Z            8
loop_
_atom_site_label
_atom_site_type_symbol
_atom_site_fract_x
_atom_site_fract_y
_atom_site_fract_z
C1 C 0.5322(7) 0.3160(4) 0.09053(18)
H1 H 0.5483 0.2527 0.0756
H2 H 0.6222 0.3400 0.1018
S1 S 0.4657(2) 0.40163(12) 0.04477(5)
C2 C 0.3920(8) 0.5085(5) 0.07610(18)
H3 H 0.3776 0.5606 0.0530
H4 H 0.3007 0.4905 0.0887
C3 C 0.4783(6) 0.5477(3) 0.11580(17)
C4 C 0.6034(8) 0.5962(4) 0.1093(2)
H5 H 0.6337 0.6099 0.0784
C5 C 0.6856(7) 0.6252(4) 0.1478(2)
H6 H 0.7671 0.6613 0.1428
C6 C 0.6456(7) 0.6000(4) 0.1933(2)
H7 H 0.7019 0.6182 0.2190
C7 C 0.5254(6) 0.5493(3) 0.20159(16)
C8 C 0.4333(6) 0.5309(3) 0.16239(17)
H8 H 0.3431 0.5075 0.1680
C9 C 0.4895(5) 0.5042(3) 0.24797(16)
C10 C 0.4306(5) 0.4118(3) 0.25459(15)
C11 C 0.3923(6) 0.3448(3) 0.21501(15)
C12 C 0.2596(6) 0.3035(3) 0.21153(17)
H9 H 0.1986 0.3047 0.2375
C13 C 0.2187(6) 0.2597(4) 0.1683(2)
H10 H 0.1318 0.2289 0.1660
C14 C 0.3072(7) 0.2623(4) 0.12945(18)
H11 H 0.2765 0.2369 0.1005
C15 C 0.4390(6) 0.3013(3) 0.13252(16)
C16 C 0.4827(6) 0.3371(3) 0.17624(15)
H12 H 0.5757 0.3567 0.1798
C17 C 0.4005(4) 0.3775(3) 0.30849(11)
H13 H 0.3594 0.3212 0.3211
C18 C 0.4645(6) 0.4717(4) 0.33285(17)
S2 S 0.5274(2) 0.56412(14) 0.29942(6)
C19 C 0.4689(7) 0.4814(5) 0.38449(18)
O1 O 0.5159(6) 0.5491(4) 0.40593(16)
O2 O 0.4137(7) 0.4024(4) 0.40573(14)
C20 C 0.425(3) 0.3990(16) 0.4585(4)
H14 H 0.4397 0.4652 0.4702
H15 H 0.3360 0.3761 0.4713
C21 C 0.520(2) 0.3458(14) 0.4739(5)
H16 H 0.5200 0.3481 0.5082
H17 H 0.6082 0.3685 0.4620
H18 H 0.5040 0.2795 0.4636
C22? C 0.383(6) 0.412(2) 0.4573(6)
H19? H 0.4528 0.4544 0.4716
H20? H 0.2923 0.4440 0.4609
C23? C 0.380(4) 0.3335(19) 0.4794(6)
H21? H 0.3604 0.3459 0.5124
H22? H 0.4699 0.3017 0.4766
H23? H 0.3088 0.2918 0.4662
loop_
_geom_bond_atom_site_label_1
_geom_bond_atom_site_label_2
_geom_bond_site_symmetry_1
_geom_bond_site_symmetry_2
C1 H1 1_555 1_555
H2 C1 1_555 1_555
S1 C1 1_555 1_555
C2 S1 1_555 1_555
H3 C2 1_555 1_555
H4 C2 1_555 1_555
C3 C2 1_555 1_555
C4 C3 1_555 1_555
H5 C4 1_555 1_555
C5 C4 1_555 1_555
H6 C5 1_555 1_555
C6 C5 1_555 1_555
H7 C6 1_555 1_555
C7 C6 1_555 1_555
C8 C3 1_555 1_555
H8 C8 1_555 1_555
C9 C7 1_555 1_555
C10 C9 1_555 1_555
C11 C10 1_555 1_555
C12 C11 1_555 1_555
H9 C12 1_555 1_555
C13 C12 1_555 1_555
H10 C13 1_555 1_555
C14 C13 1_555 1_555
H11 C14 1_555 1_555
C15 C1 1_555 1_555
C16 C11 1_555 1_555
H12 C16 1_555 1_555
C17 C10 1_555 1_555
H13 C17 1_555 1_555
C18 C17 1_555 1_555
S2 C9 1_555 1_555
C19 C18 1_555 1_555
O1 C19 1_555 1_555
O2 C19 1_555 1_555
C20 O2 1_555 1_555
H14 C20 1_555 1_555
H15 C20 1_555 1_555
C21 C20 1_555 1_555
H16 C21 1_555 1_555
H17 C21 1_555 1_555
H18 C21 1_555 1_555
C7 C8 1_555 1_555
C14 C15 1_555 1_555
C15 C16 1_555 1_555
C18 S2 1_555 1_555

#END
