
#######################################################################
#
#                 Cambridge Crystallographic Data Centre
#                                CCDC 
#
#######################################################################
#
# If this CIF has been generated from an entry in the Cambridge 
# Structural Database, then it will include bibliographic, chemical, 
# crystal, experimental, refinement or atomic coordinate data resulting 
# from the CCDC's data processing and validation procedures.
#
#######################################################################

data_LIRSIQ
_chemical_formula_moiety         'C15 H13 Br1 N2 O1'
_chemical_name_systematic        
2-Bromo-N-methyl-7,8-dihydrophenanthridine-6-carboxamide
_symmetry_cell_setting           monoclinic
_symmetry_space_group_name_H-M   'P 21/n'
_symmetry_Int_Tables_number      14
_space_group_name_Hall           '-P 2yn'
loop_
_symmetry_equiv_pos_site_id
_symmetry_equiv_pos_as_xyz
1 x,y,z
2 1/2-x,1/2+y,1/2-z
3 -x,-y,-z
4 1/2+x,1/2-y,1/2+z
_cell_length_a                   4.84198(13)
_cell_length_b                   24.6091(6)
_cell_length_c                   11.1667(3)
_cell_angle_alpha                90
_cell_angle_beta                 97.310(3)
_cell_angle_gamma                90
_cell_volume                     1319.77
_exptl_crystal_colour            'light colorless'
_exptl_crystal_description       block
_cell_formula_units_Z            4
loop_
_atom_site_label
_atom_site_type_symbol
_atom_site_fract_x
_atom_site_fract_y
_atom_site_fract_z
Br1 Br 1.23069(8) 0.186289(14) 0.10857(4)
O1 O 0.3061(4) 0.49382(11) 0.2875(2)
N1 N 0.8238(4) 0.39686(10) 0.30025(19)
N2 N 0.7628(5) 0.50476(10) 0.3498(2)
H1 H 0.9270 0.4912 0.3517
C1 C 0.9045(5) 0.34875(10) 0.2545(2)
C2 C 1.1330(6) 0.32110(11) 0.3199(2)
H2 H 1.2185 0.3356 0.3921
C3 C 1.2284(6) 0.27366(12) 0.2783(2)
H3 H 1.3805 0.2561 0.3207
C4 C 1.0939(6) 0.25156(11) 0.1703(2)
C5 C 0.8714(6) 0.27633(11) 0.1055(2)
H4 H 0.7845 0.2604 0.0351
C6 C 0.7734(5) 0.32630(11) 0.1460(2)
C7 C 0.5519(5) 0.35702(11) 0.0787(2)
C8 C 0.4096(6) 0.33777(15) -0.0347(3)
H5 H 0.4391 0.3024 -0.0594
C9 C 0.2362(7) 0.37004(17) -0.1045(3)
H6 H 0.1443 0.3568 -0.1768
C10 C 0.1903(12) 0.4246(2) -0.0694(4)
H7 H 0.2949 0.4481 -0.1167
H8 H -0.0053 0.4327 -0.0922
C11 C 0.2588(6) 0.43922(13) 0.0540(3)
H9 H 0.0915 0.4366 0.0930
H10 H 0.3169 0.4770 0.0575
C12 C 0.4782(5) 0.40666(11) 0.1240(2)
C13 C 0.6208(5) 0.42451(11) 0.2376(2)
C14 C 0.5482(5) 0.47743(12) 0.2941(3)
C15 C 0.7307(7) 0.55671(14) 0.4077(3)
H11 H 0.6726 0.5836 0.3474
H12 H 0.9052 0.5674 0.4520
H13 H 0.5929 0.5536 0.4620
loop_
_geom_bond_atom_site_label_1
_geom_bond_atom_site_label_2
_geom_bond_site_symmetry_1
_geom_bond_site_symmetry_2
Br1 C4 1_555 1_555
O1 C14 1_555 1_555
N1 C1 1_555 1_555
N2 H1 1_555 1_555
C1 C2 1_555 1_555
C2 H2 1_555 1_555
C3 C2 1_555 1_555
H3 C3 1_555 1_555
C4 C3 1_555 1_555
C5 C4 1_555 1_555
H4 C5 1_555 1_555
C6 C1 1_555 1_555
C7 C6 1_555 1_555
C8 C7 1_555 1_555
H5 C8 1_555 1_555
C9 C8 1_555 1_555
H6 C9 1_555 1_555
C10 C9 1_555 1_555
H7 C10 1_555 1_555
H8 C10 1_555 1_555
C11 C10 1_555 1_555
H9 C11 1_555 1_555
H10 C11 1_555 1_555
C12 C7 1_555 1_555
C13 N1 1_555 1_555
C14 N2 1_555 1_555
C15 N2 1_555 1_555
H11 C15 1_555 1_555
H12 C15 1_555 1_555
H13 C15 1_555 1_555
C5 C6 1_555 1_555
C11 C12 1_555 1_555
C12 C13 1_555 1_555
C13 C14 1_555 1_555

#END
