
#######################################################################
#
#                 Cambridge Crystallographic Data Centre
#                                CCDC 
#
#######################################################################
#
# If this CIF has been generated from an entry in the Cambridge 
# Structural Database, then it will include bibliographic, chemical, 
# crystal, experimental, refinement or atomic coordinate data resulting 
# from the CCDC's data processing and validation procedures.
#
#######################################################################

data_LIRTUB
_chemical_formula_moiety         
'C48 H48 N32 O16,2(C16 H18 N4 2+),2(Cl1 1-),O4 S1 2-,30(H2 O1)'
_chemical_name_systematic        
'Cucurbit(8)uril bis(2,6-bis(4,5-dihydro-1H-imidazol-2-yl)naphthalene) dichloride sulfate hydrate clathrate'
_symmetry_cell_setting           monoclinic
_symmetry_space_group_name_H-M   'P 21/c'
_symmetry_Int_Tables_number      14
_space_group_name_Hall           '-P 2ybc'
loop_
_symmetry_equiv_pos_site_id
_symmetry_equiv_pos_as_xyz
1 x,y,z
2 x,1/2-y,1/2+z
3 -x,-y,-z
4 -x,1/2+y,1/2-z
_cell_length_a                   13.8327(3)
_cell_length_b                   18.5925(2)
_cell_length_c                   22.4398(6)
_cell_angle_alpha                90
_cell_angle_beta                 98.9620(10)
_cell_angle_gamma                90
_cell_volume                     5700.71
_exptl_crystal_colour            colorless
_exptl_crystal_description       block
_cell_formula_units_Z            2
loop_
_atom_site_label
_atom_site_type_symbol
_atom_site_fract_x
_atom_site_fract_y
_atom_site_fract_z
O1 O 0.5758(2) 0.3385(2) 0.23505(15)
O2 O 0.5253(3) 0.5344(2) 0.2565(2)
O3 O 0.3550(3) 0.69230(19) 0.17208(16)
O4 O 0.1784(3) 0.7122(2) 0.02962(17)
O5 O 0.1008(3) 0.5701(2) -0.09444(16)
O6 O 0.8699(3) 0.6299(3) 0.1318(2)
O7 O 0.7008(3) 0.7733(2) 0.04335(17)
O8 O 0.5171(3) 0.7890(3) -0.10810(17)
N1 N 0.7093(3) 0.2954(2) 0.19565(17)
N2 N 0.7244(3) 0.3984(2) 0.24662(17)
N3 N 0.6923(3) 0.5251(2) 0.26035(17)
N4 N 0.6211(3) 0.6309(2) 0.23812(18)
N5 N 0.5188(3) 0.7242(2) 0.18502(17)
N6 N 0.4140(3) 0.7859(2) 0.11984(16)
N7 N 0.3020(3) 0.7944(2) 0.02495(17)
N8 N 0.2178(3) 0.7541(2) -0.06056(17)
N9 N 0.1617(3) 0.6681(2) -0.13959(17)
N10 N 0.8502(3) 0.4366(2) 0.18815(17)
N11 N 0.8261(3) 0.5622(2) 0.2093(2)
N12 N 0.7594(3) 0.6703(2) 0.19120(19)
N13 N 0.6576(3) 0.7629(2) 0.13824(19)
N14 N 0.5495(3) 0.8108(2) 0.06451(16)
N15 N 0.4376(3) 0.8217(2) -0.02904(17)
N16 N 0.3495(3) 0.7880(2) -0.11575(16)
C1 C 0.6610(3) 0.3437(3) 0.22648(19)
C2 C 0.7011(4) 0.4540(3) 0.2873(2)
H1 H 0.7523 0.4551 0.3227
H2 H 0.6393 0.4418 0.3010
C3 C 0.6046(4) 0.5612(3) 0.2522(2)
C4 C 0.5472(4) 0.6859(3) 0.2416(2)
H3 H 0.4891 0.6632 0.2534
H4 H 0.5726 0.7205 0.2731
C5 C 0.4218(4) 0.7302(3) 0.1596(2)
C6 C 0.3206(4) 0.8123(3) 0.0887(2)
H5 H 0.2680 0.7922 0.1082
H6 H 0.3189 0.8647 0.0930
C7 C 0.2278(3) 0.7501(3) 0.0009(2)
C8 C 0.1343(4) 0.7231(3) -0.0996(2)
H7 H 0.0895 0.7022 -0.0745
H8 H 0.0992 0.7616 -0.1238
C9 C 0.8121(3) 0.3138(3) 0.19789(19)
H9 H 0.8559 0.2766 0.2190
C10 C 0.8216(3) 0.3862(3) 0.2320(2)
H10 H 0.8713 0.3837 0.2688
C11 C 0.7735(3) 0.5732(3) 0.2596(2)
H11 H 0.8181 0.5731 0.2986
C12 C 0.7250(4) 0.6468(3) 0.2462(2)
H12 H 0.7441 0.6810 0.2797
C13 C 0.5767(4) 0.7836(3) 0.1684(2)
H13 H 0.5984 0.8156 0.2032
C14 C 0.5050(3) 0.8229(3) 0.11844(19)
H14 H 0.4997 0.8748 0.1273
C15 C 0.3377(3) 0.8371(3) -0.0200(2)
H15 H 0.3282 0.8891 -0.0132
C16 C 0.2754(4) 0.8112(3) -0.0801(2)
H16 H 0.2340 0.8502 -0.1003
C17 C 0.1333(3) 0.5975(3) -0.1367(2)
C18 C 0.8965(4) 0.5050(3) 0.2066(3)
H17 H 0.9364 0.4994 0.2464
H18 H 0.9402 0.5186 0.1781
C19 C 0.8232(4) 0.6220(3) 0.1738(3)
C20 C 0.7530(4) 0.7439(3) 0.1709(3)
H19 H 0.8023 0.7521 0.1447
H20 H 0.7682 0.7757 0.2059
C21 C 0.6419(4) 0.7814(3) 0.0789(2)
C22 C 0.5220(4) 0.8520(3) 0.0102(2)
H21 H 0.5776 0.8541 -0.0119
H22 H 0.5066 0.9013 0.0211
C23 C 0.4417(4) 0.7986(3) -0.0867(2)
C24 C 0.6726(4) 0.2244(3) 0.1801(2)
H23 H 0.6131 0.2167 0.1979
H24 H 0.7213 0.1891 0.1979
N9B N 0.8383(3) 0.3319(2) 0.13959(17)
C8B C 0.8657(4) 0.2769(3) 0.0996(2)
N8B N 0.7822(3) 0.2459(2) 0.06056(17)
C7B C 0.7722(3) 0.2499(3) -0.0009(2)
O4B O 0.8216(3) 0.2878(2) -0.02962(17)
N7B N 0.6980(3) 0.2056(2) -0.02495(17)
C6B C 0.6794(4) 0.1877(3) -0.0887(2)
N6B N 0.5860(3) 0.2141(2) -0.11984(16)
C5B C 0.5782(4) 0.2698(3) -0.1596(2)
O3B O 0.6450(3) 0.30770(19) -0.17208(16)
N5B N 0.4812(3) 0.2758(2) -0.18502(17)
C4B C 0.4528(4) 0.3141(3) -0.2416(2)
N4B N 0.3789(3) 0.3691(2) -0.23812(18)
C3B C 0.3954(4) 0.4388(3) -0.2522(2)
O2B O 0.4747(3) 0.4656(2) -0.2565(2)
N3B N 0.3077(3) 0.4749(2) -0.26035(17)
C2B C 0.2989(4) 0.5460(3) -0.2873(2)
N2B N 0.2756(3) 0.6016(2) -0.24662(17)
C1B C 0.3390(3) 0.6563(3) -0.22648(19)
O1B O 0.4242(2) 0.6615(2) -0.23505(15)
N1B N 0.2907(3) 0.7046(2) -0.19565(17)
C9B C 0.1879(3) 0.6862(3) -0.19789(19)
C17B C 0.8667(3) 0.4025(3) 0.1367(2)
O5B O 0.8992(3) 0.4299(2) 0.09444(16)
C24B C 0.3274(4) 0.7756(3) -0.1801(2)
H23B H 0.3869 0.7833 -0.1979
H24B H 0.2787 0.8109 -0.1979
N10B N 0.1498(3) 0.5634(2) -0.18815(17)
C10B C 0.1784(3) 0.6138(3) -0.2320(2)
H9B H 0.1441 0.7234 -0.2190
H10B H 0.1287 0.6163 -0.2688
C18B C 0.1035(4) 0.4950(3) -0.2066(3)
N11B N 0.1739(3) 0.4378(2) -0.2093(2)
C11B C 0.2265(3) 0.4268(3) -0.2596(2)
H11B H 0.1819 0.4269 -0.2986
C12B C 0.2750(4) 0.3532(3) -0.2462(2)
N12B N 0.2406(3) 0.3297(2) -0.19120(19)
C19B C 0.1768(4) 0.3780(3) -0.1738(3)
O6B O 0.1301(3) 0.3701(3) -0.1318(2)
C20B C 0.2470(4) 0.2561(3) -0.1709(3)
N13B N 0.3424(3) 0.2371(2) -0.13824(19)
C13B C 0.4233(4) 0.2164(3) -0.1684(2)
H13B H 0.4016 0.1844 -0.2032
C14B C 0.4950(3) 0.1771(3) -0.11844(19)
N14B N 0.4505(3) 0.1892(2) -0.06451(16)
C21B C 0.3581(4) 0.2186(3) -0.0789(2)
O7B O 0.2992(3) 0.2267(2) -0.04335(17)
C22B C 0.4780(4) 0.1480(3) -0.0102(2)
N15B N 0.5624(3) 0.1783(2) 0.02904(17)
C15B C 0.6623(3) 0.1629(3) 0.0200(2)
H15B H 0.6718 0.1109 0.0132
C16B C 0.7246(4) 0.1888(3) 0.0801(2)
N16B N 0.6505(3) 0.2120(2) 0.11575(16)
C23B C 0.5583(4) 0.2014(3) 0.0867(2)
O8B O 0.4829(3) 0.2110(3) 0.10810(17)
H16B H 0.7660 0.1498 0.1003
H21B H 0.4224 0.1459 0.0119
H22B H 0.4934 0.0987 -0.0211
H14B H 0.5003 0.1252 -0.1273
H19B H 0.1977 0.2479 -0.1447
H20B H 0.2318 0.2243 -0.2059
H12B H 0.2559 0.3190 -0.2797
H17B H 0.0636 0.5006 -0.2464
H18B H 0.0598 0.4814 -0.1781
H1B H 0.2477 0.5449 -0.3227
H2B H 0.3607 0.5582 -0.3010
H3B H 0.5109 0.3368 -0.2534
H4B H 0.4274 0.2795 -0.2731
H5B H 0.7320 0.2078 -0.1082
H6B H 0.6811 0.1353 -0.0930
H7B H 0.9105 0.2978 0.0745
H8B H 0.9008 0.2384 0.1238
N17 N 0.2289(9) 0.5434(7) 0.1331(6)
H25 H 0.2743 0.5474 0.1645
N18 N 0.1628(10) 0.5440(7) 0.0400(5)
H26 H 0.1604 0.5385 0.0013
N19 N 0.8450(11) 0.6402(17) 0.0111(9)
H27 H 0.8632 0.6261 0.0481
N20 N 0.7541(18) 0.6531(15) -0.0779(12)
H28 H 0.7010 0.6480 -0.1039
C25 C 0.4277(7) 0.5480(7) 0.0850(6)
H29 H 0.4341 0.5239 0.1222
C26 C 0.3361(10) 0.5647(17) 0.0536(9)
C27 C 0.3241(9) 0.5982(12) -0.0032(7)
H30 H 0.2613 0.6072 -0.0246
C28 C 0.4079(8) 0.6176(7) -0.0271(7)
H31 H 0.4007 0.6418 -0.0643
C29 C 0.5845(8) 0.6237(7) -0.0219(6)
H32 H 0.5768 0.6490 -0.0586
C30 C 0.6764(8) 0.6076(7) 0.0078(6)
C31 C 0.6860(8) 0.5666(7) 0.0609(5)
H33 H 0.7487 0.5516 0.0788
C32 C 0.6054(7) 0.5474(6) 0.0879(5)
H34 H 0.6139 0.5212 0.1242
C33 C 0.5113(7) 0.5679(8) 0.0600(6)
C34 C 0.5028(8) 0.6022(9) 0.0028(6)
C35 C 0.2434(17) 0.5527(15) 0.0800(11)
C36 C 0.1285(14) 0.5253(17) 0.1365(10)
H35 H 0.1033 0.5534 0.1677
H36 H 0.1213 0.4739 0.1447
C37 C 0.0765(13) 0.5454(14) 0.0731(6)
H37 H 0.0269 0.5098 0.0571
H38 H 0.0465 0.5932 0.0723
C38 C 0.7668(17) 0.6340(18) -0.0142(9)
C39 C 0.9096(14) 0.6737(12) -0.0248(11)
H39 H 0.9671 0.6434 -0.0263
H40 H 0.9315 0.7206 -0.0079
C40 C 0.8484(13) 0.6828(10) -0.0898(10)
H41 H 0.8427 0.7334 -0.1023
H57 H 0.9007 0.6378 -0.1087
Cl1 Cl 0.93994(18) 0.65257(19) -0.23301(15)
O9 O 0.8459(5) 0.2035(4) 0.3172(3)
O10 O 0.1036(5) 0.6140(3) 0.2767(3)
O11 O 0.6913(5) 0.6374(5) 0.3807(3)
O12 O -0.0603(5) 0.8129(5) -0.1921(4)
O13 O 0.6196(4) 0.6240(6) -0.1898(4)
O14 O 0.1323(6) 0.9113(5) -0.0047(7)
O15 O 0.9611(10) 0.8705(7) -0.0795(5)
O16 O 0.8945(14) 0.4333(18) 0.3975(9)
O18 O 0.9878(11) 0.3036(9) 0.3597(6)
O20 O 0.8804(8) 0.8268(8) 0.0315(6)
O22 O 0.3338(13) 0.5576(11) 0.2630(12)
O24 O 0.3807(14) 1.0030(6) 0.0775(7)
O26 O 0.4227(18) 0.9549(11) -0.1204(12)
O28 O 0.259(2) 0.4091(15) 0.2648(18)
O30 O 0.243(7) 1.028(2) 0.001(4)
S1 S 0.2802(10) 1.0182(5) -0.0938(5)
O32 O 0.3780(13) 0.9993(9) -0.0791(16)
O33 O 0.2832(16) 1.0796(8) -0.1277(12)
O34 O 0.214(4) 1.0223(15) -0.053(2)
O35 O 0.274(4) 0.9693(14) -0.1423(12)
H42? H 0.8759 0.6547 -0.1201
N21? N 0.1716(17) 0.5723(9) 0.0694(13)
H43? H 0.1610 0.6022 0.0392
N22? N 0.2487(13) 0.4989(12) 0.1327(9)
H44? H 0.2966 0.4722 0.1499
N23? N 0.752(3) 0.665(3) -0.0930(14)
H45? H 0.7108 0.6749 -0.1251
N24? N 0.8127(15) 0.6533(14) -0.0060(11)
H46? H 0.8075 0.6634 0.0313
C41? C 0.3620(11) 0.5894(11) 0.0192(9)
H47? H 0.3065 0.6031 -0.0081
C42? C 0.3518(15) 0.558(2) 0.0742(10)
C43? C 0.4345(10) 0.5384(12) 0.1154(7)
H48? H 0.4265 0.5171 0.1523
C44? C 0.5294(10) 0.5502(9) 0.1019(7)
H49? H 0.5845 0.5387 0.1303
C45? C 0.6313(10) 0.5958(7) 0.0280(6)
H50? H 0.6891 0.5848 0.0543
C46? C 0.6383(12) 0.6275(8) -0.0261(6)
C47? C 0.5549(9) 0.6474(7) -0.0653(8)
H51? H 0.5605 0.6712 -0.1016
C48? C 0.4636(10) 0.6322(7) -0.0507(7)
H52? H 0.4066 0.6432 -0.0778
C49? C 0.4574(10) 0.6003(9) 0.0048(7)
C50? C 0.5411(9) 0.5792(12) 0.0456(7)
C51? C 0.259(2) 0.540(2) 0.092(2)
C52? C 0.0975(19) 0.5463(13) 0.1065(15)
H53? H 0.0438 0.5212 0.0813
H54? H 0.0706 0.5866 0.1268
C53? C 0.152(2) 0.497(2) 0.1509(15)
H55? H 0.1542 0.5142 0.1923
H56? H 0.1245 0.4482 0.1474
C54? C 0.7371(15) 0.6394(14) -0.0394(12)
C55? C 0.875(3) 0.671(3) -0.081(3)
H58? H 0.8930 0.7196 -0.0909
C56? C 0.919(3) 0.655(3) -0.0230(18)
H59? H 0.9525 0.6086 -0.0188
H60? H 0.9600 0.6937 -0.0034
O17? O 0.9549(17) 0.4967(17) 0.3759(8)
O19? O 1.070(2) 0.382(2) 0.3496(16)
O21? O 0.8194(11) 0.8625(8) -0.0092(7)
O23? O 0.3354(17) 0.497(2) 0.2435(8)
O25? O 0.458(4) 1.0029(15) 0.1015(17)
O27? O 0.152(2) 1.0183(13) -0.1906(9)
O29? O 0.9739(19) 0.2603(18) 0.3970(15)
O31? O 0.385(9) 1.011(4) 0.068(4)
loop_
_geom_bond_atom_site_label_1
_geom_bond_atom_site_label_2
_geom_bond_site_symmetry_1
_geom_bond_site_symmetry_2
O1 C1 1_555 1_555
O2 C3 1_555 1_555
O3 C5 1_555 1_555
O4 C7 1_555 1_555
O5 C17 1_555 1_555
O6 C19 1_555 1_555
O7 C21 1_555 1_555
O8 C23 1_555 1_555
N1 C1 1_555 1_555
N2 C1 1_555 1_555
N3 C2 1_555 1_555
N4 C3 1_555 1_555
N5 C4 1_555 1_555
N6 C5 1_555 1_555
N7 C6 1_555 1_555
N8 C7 1_555 1_555
N9 C8 1_555 1_555
N10 C10 1_555 1_555
N11 C11 1_555 1_555
N12 C12 1_555 1_555
N13 C13 1_555 1_555
N14 C14 1_555 1_555
N15 C15 1_555 1_555
N16 C16 1_555 1_555
C2 N2 1_555 1_555
H1 C2 1_555 1_555
H2 C2 1_555 1_555
C3 N3 1_555 1_555
C4 N4 1_555 1_555
H3 C4 1_555 1_555
H4 C4 1_555 1_555
C5 N5 1_555 1_555
C6 N6 1_555 1_555
H5 C6 1_555 1_555
H6 C6 1_555 1_555
C7 N7 1_555 1_555
C8 N8 1_555 1_555
H7 C8 1_555 1_555
H8 C8 1_555 1_555
C9 N1 1_555 1_555
H9 C9 1_555 1_555
C10 N2 1_555 1_555
H10 C10 1_555 1_555
C11 N3 1_555 1_555
H11 C11 1_555 1_555
C12 N4 1_555 1_555
H12 C12 1_555 1_555
C13 N5 1_555 1_555
H13 C13 1_555 1_555
C14 N6 1_555 1_555
H14 C14 1_555 1_555
C15 N7 1_555 1_555
H15 C15 1_555 1_555
C16 N8 1_555 1_555
H16 C16 1_555 1_555
C17 N9 1_555 1_555
C18 N10 1_555 1_555
H17 C18 1_555 1_555
H18 C18 1_555 1_555
C19 N11 1_555 1_555
C20 N12 1_555 1_555
H19 C20 1_555 1_555
H20 C20 1_555 1_555
C21 N13 1_555 1_555
C22 N14 1_555 1_555
H21 C22 1_555 1_555
H22 C22 1_555 1_555
C23 N15 1_555 1_555
C24 N1 1_555 1_555
H23 C24 1_555 1_555
H24 C24 1_555 1_555
N17 H25 1_555 1_555
N18 H26 1_555 1_555
N19 H27 1_555 1_555
N20 H28 1_555 1_555
C25 H29 1_555 1_555
C26 C25 1_555 1_555
C27 C26 1_555 1_555
H30 C27 1_555 1_555
C28 C27 1_555 1_555
H31 C28 1_555 1_555
C29 H32 1_555 1_555
C30 C29 1_555 1_555
C31 C30 1_555 1_555
H33 C31 1_555 1_555
C32 C31 1_555 1_555
H34 C32 1_555 1_555
C33 C25 1_555 1_555
C34 C28 1_555 1_555
C35 N17 1_555 1_555
C36 N17 1_555 1_555
H35 C36 1_555 1_555
H36 C36 1_555 1_555
C37 N18 1_555 1_555
H37 C37 1_555 1_555
H38 C37 1_555 1_555
C38 N19 1_555 1_555
C39 N19 1_555 1_555
H39 C39 1_555 1_555
H40 C39 1_555 1_555
C40 N20 1_555 1_555
H41 C40 1_555 1_555
H57 C40 1_555 1_555
S1 O32 1_555 1_555
O33 S1 1_555 1_555
O34 S1 1_555 1_555
O35 S1 1_555 1_555
N9B C9 1_555 1_555
C8B N9B 1_555 1_555
N8B C8B 1_555 1_555
C7B N8B 1_555 1_555
O4B C7B 1_555 1_555
N7B C7B 1_555 1_555
C6B N7B 1_555 1_555
N6B C6B 1_555 1_555
C5B N6B 1_555 1_555
O3B C5B 1_555 1_555
N5B C5B 1_555 1_555
C4B N5B 1_555 1_555
N4B C4B 1_555 1_555
C3B N4B 1_555 1_555
O2B C3B 1_555 1_555
N3B C3B 1_555 1_555
C2B N3B 1_555 1_555
N2B C2B 1_555 1_555
C1B N2B 1_555 1_555
O1B C1B 1_555 1_555
N1B C1B 1_555 1_555
C9B N9 1_555 1_555
C17B N10 1_555 1_555
O5B C17B 1_555 1_555
C24B N16 1_555 1_555
H23B C24B 1_555 1_555
H24B C24B 1_555 1_555
N10B C17 1_555 1_555
C10B N2B 1_555 1_555
H9B C9B 1_555 1_555
H10B C10B 1_555 1_555
C18B N10B 1_555 1_555
N11B C18B 1_555 1_555
C11B N3B 1_555 1_555
H11B C11B 1_555 1_555
C12B N4B 1_555 1_555
N12B C12B 1_555 1_555
C19B N11B 1_555 1_555
O6B C19B 1_555 1_555
C20B N12B 1_555 1_555
N13B C20B 1_555 1_555
C13B N5B 1_555 1_555
H13B C13B 1_555 1_555
C14B N6B 1_555 1_555
N14B C14B 1_555 1_555
C21B N13B 1_555 1_555
O7B C21B 1_555 1_555
C22B N14B 1_555 1_555
N15B C22B 1_555 1_555
C15B N7B 1_555 1_555
H15B C15B 1_555 1_555
C16B N8B 1_555 1_555
N16B C24 1_555 1_555
C23B N15B 1_555 1_555
O8B C23B 1_555 1_555
H16B C16B 1_555 1_555
H21B C22B 1_555 1_555
H22B C22B 1_555 1_555
H14B C14B 1_555 1_555
H19B C20B 1_555 1_555
H20B C20B 1_555 1_555
H12B C12B 1_555 1_555
H17B C18B 1_555 1_555
H18B C18B 1_555 1_555
H1B C2B 1_555 1_555
H2B C2B 1_555 1_555
H3B C4B 1_555 1_555
H4B C4B 1_555 1_555
H5B C6B 1_555 1_555
H6B C6B 1_555 1_555
H7B C8B 1_555 1_555
H8B C8B 1_555 1_555
N11 C18 1_555 1_555
N12 C19 1_555 1_555
N13 C20 1_555 1_555
N14 C21 1_555 1_555
N15 C22 1_555 1_555
N16 C23 1_555 1_555
C9 C10 1_555 1_555
C11 C12 1_555 1_555
C13 C14 1_555 1_555
C15 C16 1_555 1_555
N18 C35 1_555 1_555
N20 C38 1_555 1_555
C26 C35 1_555 1_555
C29 C34 1_555 1_555
C30 C38 1_555 1_555
C32 C33 1_555 1_555
C33 C34 1_555 1_555
C36 C37 1_555 1_555
C39 C40 1_555 1_555
N9B C17B 1_555 1_555
N1B C9B 1_555 1_555
N1B C24B 1_555 1_555
C9B C10B 1_555 1_555
N10B C10B 1_555 1_555
N11B C11B 1_555 1_555
C11B C12B 1_555 1_555
N12B C19B 1_555 1_555
N13B C13B 1_555 1_555
C13B C14B 1_555 1_555
N14B C21B 1_555 1_555
N15B C15B 1_555 1_555
C15B C16B 1_555 1_555
C16B N16B 1_555 1_555
N16B C23B 1_555 1_555

#END
