
#######################################################################
#
#                 Cambridge Crystallographic Data Centre
#                                CCDC 
#
#######################################################################
#
# If this CIF has been generated from an entry in the Cambridge 
# Structural Database, then it will include bibliographic, chemical, 
# crystal, experimental, refinement or atomic coordinate data resulting 
# from the CCDC's data processing and validation procedures.
#
#######################################################################

data_LIRTEN
_chemical_formula_moiety         'C15 H24 O2,H2 O1'
_chemical_name_systematic        
'8a-Methyl-4-methylene-6-(prop-1-en-2-yl)decahydronaphthalene-1,2-diol monohydrate'
_symmetry_cell_setting           monoclinic
_symmetry_space_group_name_H-M   'P 21'
_symmetry_Int_Tables_number      4
_space_group_name_Hall           'P 2yb'
loop_
_symmetry_equiv_pos_site_id
_symmetry_equiv_pos_as_xyz
1 x,y,z
2 -x,1/2+y,-z
_cell_length_a                   5.7861(2)
_cell_length_b                   7.1863(3)
_cell_length_c                   16.9043(8)
_cell_angle_alpha                90
_cell_angle_beta                 96.340(4)
_cell_angle_gamma                90
_cell_volume                     698.593
_cell_formula_units_Z            2
loop_
_atom_site_label
_atom_site_type_symbol
_atom_site_fract_x
_atom_site_fract_y
_atom_site_fract_z
H1 H 0.071(5) 0.433(5) 0.9555(17)
H2 H 0.230(6) 0.915(6) 0.9595(19)
H3 H 0.036(4) 0.947(4) 0.8279(14)
H4 H -0.189(4) 0.982(4) 0.8729(15)
H5 H 0.052(4) 0.711(3) 0.7240(13)
H6 H -0.363(4) 0.505(4) 0.6672(13)
H7 H -0.260(4) 0.667(3) 0.6186(14)
H8 H 0.085(4) 0.503(4) 0.6075(15)
H9 H 0.132(4) 0.194(4) 0.6627(14)
H10 H -0.122(4) 0.191(3) 0.6974(13)
H11 H 0.200(3) 0.269(3) 0.7995(12)
H12 H 0.275(4) 0.430(3) 0.7525(13)
H13 H 0.041(7) 0.454(6) 0.477(2)
H14 H -0.189(5) 0.307(4) 0.4313(17)
H15 H -0.470(6) 0.169(5) 0.499(2)
H16 H -0.370(5) 0.126(5) 0.5939(19)
H17 H -0.524(8) 0.278(8) 0.583(3)
H18 H -0.337(4) 0.491(4) 0.8419(15)
H19 H -0.192(4) 0.301(4) 0.8719(15)
H20 H -0.316(4) 0.320(3) 0.7834(13)
H21 H -0.526(4) 0.959(4) 0.7720(15)
H22 H -0.526(4) 0.818(4) 0.6960(14)
C1 C 0.1234(3) 0.5922(3) 0.87166(11)
H23 H 0.2590 0.6506 0.8520
C2 C -0.0124(3) 0.7457(3) 0.90827(12)
H24 H -0.1500 0.6886 0.9272
C3 C -0.0971(4) 0.8919(3) 0.84576(12)
C4 C -0.2265(3) 0.8058(3) 0.77295(11)
C5 C -0.0934(3) 0.6519(3) 0.73675(11)
C6 C -0.2149(3) 0.5676(3) 0.66003(12)
C7 C -0.0655(4) 0.4220(3) 0.62340(11)
C8 C 0.0194(4) 0.2727(3) 0.68479(12)
C9 C 0.1381(3) 0.3592(3) 0.76118(11)
C10 C -0.0190(3) 0.4981(3) 0.79965(11)
C11 C -0.1924(4) 0.3407(3) 0.54807(13)
C12 C -0.1117(5) 0.3701(4) 0.47783(13)
C13 C -0.4040(5) 0.2295(5) 0.55469(17)
C14 C -0.2306(3) 0.3992(3) 0.82683(12)
C15 C -0.4371(4) 0.8642(3) 0.74511(13)
O1 O 0.2090(2) 0.46005(19) 0.93192(8)
O2 O 0.1207(3) 0.8293(2) 0.97535(8)
O3 O 0.4327(2) 1.0985(2) 0.94560(9)
loop_
_geom_bond_atom_site_label_1
_geom_bond_atom_site_label_2
_geom_bond_site_symmetry_1
_geom_bond_site_symmetry_2
H1 O1 1_555 1_555
H2 O2 1_555 1_555
H3 C3 1_555 1_555
H4 C3 1_555 1_555
H5 C5 1_555 1_555
H6 C6 1_555 1_555
H7 C6 1_555 1_555
H8 C7 1_555 1_555
H9 C8 1_555 1_555
H10 C8 1_555 1_555
H11 C9 1_555 1_555
H12 C9 1_555 1_555
H13 C12 1_555 1_555
H14 C12 1_555 1_555
H15 C13 1_555 1_555
H16 C13 1_555 1_555
H17 C13 1_555 1_555
H18 C14 1_555 1_555
H19 C14 1_555 1_555
H20 C14 1_555 1_555
H21 C15 1_555 1_555
H22 C15 1_555 1_555
C1 H23 1_555 1_555
C2 C1 1_555 1_555
H24 C2 1_555 1_555
C3 C2 1_555 1_555
C4 C3 1_555 1_555
C5 C4 1_555 1_555
C6 C5 1_555 1_555
C7 C6 1_555 1_555
C8 C7 1_555 1_555
C9 C8 1_555 1_555
C10 C1 1_555 1_555
C11 C7 1_555 1_555
C12 C11 1_555 1_555
C13 C11 1_555 1_555
C14 C10 1_555 1_555
C15 C4 1_555 1_555
O1 C1 1_555 1_555
O2 C2 1_555 1_555
C5 C10 1_555 1_555
C9 C10 1_555 1_555

#END
