
#######################################################################
#
#                 Cambridge Crystallographic Data Centre
#                                CCDC 
#
#######################################################################
#
# If this CIF has been generated from an entry in the Cambridge 
# Structural Database, then it will include bibliographic, chemical, 
# crystal, experimental, refinement or atomic coordinate data resulting 
# from the CCDC's data processing and validation procedures.
#
#######################################################################

data_LIRTOV
_chemical_formula_moiety         
'C48 H48 N32 O16,2(O4 S1 2-),4(H3 O1 1+),26(H2 O1)'
_chemical_name_systematic        
'Cucurbit(8)uril tetraoxonium disulfate hydrate clathrate'
_symmetry_cell_setting           tetragonal
_symmetry_space_group_name_H-M   'I 41/a'
_symmetry_Int_Tables_number      88
_space_group_name_Hall           '-I 4ad'
loop_
_symmetry_equiv_pos_site_id
_symmetry_equiv_pos_as_xyz
1 x,y,z
2 3/4-y,1/4+x,1/4+z
3 1/2+x,1/2+y,1/2+z
4 1/4-y,3/4+x,3/4+z
5 1/4+y,1/4-x,1/4+z
6 1/2-x,-y,1/2+z
7 3/4+y,3/4-x,3/4+z
8 -x,1/2-y,z
9 -x,-y,-z
10 1/4+y,3/4-x,3/4-z
11 1/2-x,1/2-y,1/2-z
12 3/4+y,1/4-x,1/4-z
13 3/4-y,3/4+x,3/4-z
14 1/2+x,y,1/2-z
15 1/4-y,1/4+x,1/4-z
16 x,1/2+y,-z
_cell_length_a                   28.3805(4)
_cell_length_b                   28.3805(4)
_cell_length_c                   22.0986(2)
_cell_angle_alpha                90
_cell_angle_beta                 90
_cell_angle_gamma                90
_cell_volume                     17799.4
_exptl_crystal_colour            colorless
_exptl_crystal_description       octahedron
_cell_formula_units_Z            8
loop_
_atom_site_label
_atom_site_type_symbol
_atom_site_fract_x
_atom_site_fract_y
_atom_site_fract_z
O1 O 0.93156(12) 0.70290(11) 0.12984(16)
O2 O 0.95066(14) 0.80849(13) 0.23715(17)
O3 O 0.89971(13) 0.84390(13) 0.38437(17)
O4 O 0.80664(11) 0.79215(11) 0.49326(15)
O5 O 0.72527(12) 0.68528(11) 0.49352(15)
O6 O 0.79972(11) 0.92488(12) 0.10286(15)
O7 O 0.74837(11) 0.95269(12) 0.25232(14)
O8 O 0.65356(11) 0.89997(12) 0.36111(16)
N1 N 0.88456(13) 0.70424(12) 0.04424(18)
N2 N 0.91737(13) 0.77081(13) 0.07574(18)
N3 N 0.92861(13) 0.83709(13) 0.14316(17)
N4 N 0.92187(14) 0.88377(13) 0.22345(16)
N5 N 0.88958(13) 0.90761(14) 0.32065(17)
N6 N 0.84273(13) 0.90062(13) 0.40079(16)
N7 N 0.78388(12) 0.86830(13) 0.46964(17)
N8 N 0.72993(13) 0.81891(12) 0.50324(17)
N9 N 0.67771(13) 0.75101(12) 0.50541(17)
N10 N 0.85493(13) 0.81571(12) 0.02601(16)
N11 N 0.86947(13) 0.88363(13) 0.09038(16)
N12 N 0.86171(13) 0.92972(13) 0.17091(16)
N13 N 0.82918(12) 0.95209(13) 0.26782(16)
N14 N 0.78158(12) 0.94379(13) 0.34724(16)
N15 N 0.72290(13) 0.91082(13) 0.41452(17)
N16 N 0.66800(13) 0.86293(13) 0.45236(18)
C1 C 0.91274(15) 0.72374(16) 0.0875(2)
C2 C 0.95070(16) 0.80037(17) 0.1073(2)
H1 H 0.9720 0.8152 0.0773
H2 H 0.9702 0.7804 0.1342
C3 C 0.93518(16) 0.84026(17) 0.2046(2)
C4 C 0.93171(16) 0.9013(2) 0.2844(2)
H3 H 0.9529 0.8789 0.3052
H4 H 0.9484 0.9319 0.2813
C5 C 0.87914(16) 0.88032(16) 0.3701(2)
C6 C 0.83137(15) 0.88808(16) 0.4628(2)
H5 H 0.8341 0.9165 0.4885
H6 H 0.8547 0.8648 0.4774
C7 C 0.77644(15) 0.82343(15) 0.48887(18)
C8 C 0.71196(17) 0.77922(15) 0.5383(2)
H7 H 0.7387 0.7588 0.5502
H8 H 0.6971 0.7913 0.5757
C9 C 0.87173(16) 0.73756(15) -0.00261(19)
H9 H 0.8841 0.7277 -0.0430
C10 C 0.89478(15) 0.78448(15) 0.0191(2)
H10 H 0.9181 0.7968 -0.0110
C11 C 0.91560(15) 0.88230(15) 0.1173(2)
H11 H 0.9403 0.8942 0.0888
C12 C 0.91050(15) 0.91467(15) 0.17367(19)
H12 H 0.9326 0.9421 0.1717
C13 C 0.86141(15) 0.95040(15) 0.31852(19)
H13 H 0.8813 0.9794 0.3212
C14 C 0.82846(15) 0.94503(15) 0.37404(19)
H14 H 0.8320 0.9718 0.4031
C15 C 0.74190(15) 0.89721(15) 0.47296(19)
H15 H 0.7464 0.9250 0.5001
C16 C 0.70477(16) 0.86298(15) 0.4979(2)
H16 H 0.6925 0.8737 0.5380
C17 C 0.68645(16) 0.70488(15) 0.49093(19)
C18 C 0.86018(17) 0.86666(15) 0.02963(19)
H17 H 0.8864 0.8765 0.0029
H18 H 0.8310 0.8817 0.0144
C19 C 0.83945(15) 0.91338(15) 0.1200(2)
C20 C 0.84231(15) 0.96724(15) 0.20792(19)
H19 H 0.8659 0.9928 0.2113
H20 H 0.8142 0.9804 0.1874
C21 C 0.78297(15) 0.94986(14) 0.2858(2)
C22 C 0.73916(15) 0.95212(15) 0.3822(2)
H21 H 0.7453 0.9777 0.4116
H22 H 0.7139 0.9629 0.3546
C23 C 0.67896(16) 0.89207(15) 0.4047(2)
C24 C 0.87949(16) 0.65363(15) 0.0365(2)
H23 H 0.9013 0.6374 0.0645
H24 H 0.8887 0.6451 -0.0053
N9J N 0.82229(13) 0.74899(12) -0.00541(17)
C8J C 0.78804(17) 0.72078(15) -0.0383(2)
N8J N 0.77007(13) 0.68109(12) -0.00324(17)
C7J C 0.72356(15) 0.67657(15) 0.01113(18)
O4J O 0.69336(11) 0.70785(11) 0.00674(15)
N7J N 0.71612(12) 0.63170(13) 0.03036(17)
C6J C 0.66863(15) 0.61192(16) 0.0372(2)
N6J N 0.65727(13) 0.59938(13) 0.09921(16)
C5J C 0.62086(16) 0.61968(16) 0.1299(2)
O3J O 0.60029(13) 0.65610(13) 0.11563(17)
N5J N 0.61042(13) 0.59239(14) 0.17935(17)
C4J C 0.56829(16) 0.5987(2) 0.2156(2)
N4J N 0.57813(14) 0.61623(13) 0.27655(16)
C3J C 0.56482(16) 0.65974(17) 0.2954(2)
O2J O 0.54934(14) 0.69151(13) 0.26285(17)
N3J N 0.57139(13) 0.66291(13) 0.35684(17)
C2J C 0.54930(16) 0.69963(17) 0.3927(2)
N2J N 0.58263(13) 0.72919(13) 0.42426(18)
C1J C 0.58726(15) 0.77626(16) 0.4125(2)
O1J O 0.56844(12) 0.79710(11) 0.37016(16)
N1J N 0.61544(13) 0.79576(12) 0.45576(18)
C9J C 0.62827(16) 0.76244(15) 0.50261(19)
C17J C 0.81355(16) 0.79512(15) 0.00907(19)
O5J O 0.77473(12) 0.81472(11) 0.00648(15)
C24J C 0.62051(16) 0.84637(15) 0.4635(2)
H23J H 0.5987 0.8626 0.4355
H24J H 0.6113 0.8549 0.5053
N10J N 0.64507(13) 0.68429(12) 0.47399(16)
C10J C 0.60522(15) 0.71552(15) 0.4809(2)
H9J H 0.6159 0.7723 0.5430
H10J H 0.5819 0.7032 0.5110
C18J C 0.63982(17) 0.63334(15) 0.47037(19)
N11J N 0.63053(13) 0.61637(13) 0.40962(16)
C11J C 0.58440(15) 0.61770(15) 0.3827(2)
H11J H 0.5597 0.6058 0.4112
C12J C 0.58950(15) 0.58533(15) 0.32633(19)
N12J N 0.63829(13) 0.57028(13) 0.32909(16)
C19J C 0.66055(15) 0.58662(15) 0.3800(2)
O6J O 0.70028(11) 0.57512(12) 0.39714(15)
C20J C 0.65769(15) 0.53276(15) 0.29208(19)
N13J N 0.67082(12) 0.54791(13) 0.23218(16)
C13J C 0.63859(15) 0.54960(15) 0.18148(19)
H13J H 0.6187 0.5206 0.1788
C14J C 0.67154(15) 0.55497(15) 0.12596(19)
N14J N 0.71842(12) 0.55621(13) 0.15276(16)
C21J C 0.71703(15) 0.55014(14) 0.2142(2)
O7J O 0.75163(11) 0.54731(12) 0.24768(14)
C22J C 0.76084(15) 0.54788(15) 0.1178(2)
N15J N 0.77710(13) 0.58918(13) 0.08548(17)
C15J C 0.75810(15) 0.60279(15) 0.02704(19)
H15J H 0.7536 0.5750 -0.0001
C16J C 0.79523(16) 0.63702(15) 0.0021(2)
N16J N 0.83200(13) 0.63707(13) 0.04764(18)
C23J C 0.82104(16) 0.60793(15) 0.0953(2)
O8J O 0.84644(11) 0.60003(12) 0.13889(16)
H16J H 0.8075 0.6263 -0.0380
H21J H 0.7547 0.5223 0.0884
H22J H 0.7861 0.5371 0.1454
H14J H 0.6680 0.5282 0.0969
H19J H 0.6341 0.5072 0.2887
H20J H 0.6858 0.5196 0.3126
H12J H 0.5674 0.5579 0.3283
H17J H 0.6136 0.6235 0.4971
H18J H 0.6690 0.6183 0.4856
H1J H 0.5280 0.6848 0.4227
H2J H 0.5298 0.7196 0.3658
H3J H 0.5471 0.6211 0.1948
H4J H 0.5516 0.5681 0.2187
H5J H 0.6659 0.5835 0.0115
H6J H 0.6453 0.6352 0.0226
H7J H 0.7613 0.7412 -0.0502
H8J H 0.8029 0.7087 -0.0757
S1 S 0.8712(2) 0.9838(2) -0.0642(3)
O9 O 0.8325(3) 0.9486(5) -0.0866(7)
O10 O 0.8908(3) 1.0072(3) -0.1231(4)
O11 O 0.9064(5) 0.9602(5) -0.0275(11)
O12 O 0.8499(7) 1.0251(5) -0.0305(6)
S2 S 1.0010(3) 0.8615(4) -0.0642(3)
O13 O 0.9958(7) 0.8720(8) -0.0057(5)
O14 O 0.9596(5) 0.8534(9) -0.0944(6)
O15 O 1.0289(5) 0.8923(7) -0.0964(8)
O16 O 1.0226(6) 0.8162(5) -0.0631(10)
O17 O 0.6557(6) 0.8159(3) 0.2883(4)
O18 O 0.7232(7) 0.8267(5) 0.1958(8)
O19 O 0.8058(9) 0.8255(7) 0.225(2)
O20 O 0.6886(9) 0.7362(11) 0.3439(10)
O21 O 0.97145(13) 0.61529(14) 0.15743(19)
O22 O 0.9617(5) 1.0483(3) -0.0808(5)
O23 O 0.8848(6) 0.8649(4) -0.1224(5)
O24 O 0.8356(12) 0.7683(6) 0.3480(13)
O25 O 0.8087(5) 1.0213(3) 0.0642(5)
O26 O 0.8141(8) 0.9898(16) 0.004(3)
O27 O 1.0000 0.7500 -0.0690(14)
O28 O 0.9575(7) 0.9980(7) 0.0800(9)
O29 O 0.9550(14) 0.7959(9) 0.4807(10)
O30 O 0.9763(10) 0.7889(9) 0.3675(11)
O31 O 1.0064(8) 0.8443(13) 0.4145(15)
O32 O 0.882(4) 1.0552(15) 0.090(5)
O33? O 0.7796(15) 0.7509(10) 0.3724(8)
O34? O 0.8489(5) 1.0071(3) 0.0168(5)
O35? O 0.850(2) 0.9387(13) -0.0947(12)
O36? O 1.0208(6) 0.7832(9) -0.0345(9)
O37? O 0.9938(4) 0.8952(5) -0.0501(6)
O38? O 0.9696(12) 0.906(2) -0.0368(13)
O39? O 0.934(2) 1.026(4) 0.077(2)
O40? O 0.970(2) 0.845(2) 0.4778(13)
O41? O 0.9569(19) 0.7666(14) 0.4317(17)
loop_
_geom_bond_atom_site_label_1
_geom_bond_atom_site_label_2
_geom_bond_site_symmetry_1
_geom_bond_site_symmetry_2
O1 C1 1_555 1_555
O2 C3 1_555 1_555
O3 C5 1_555 1_555
O4 C7 1_555 1_555
O5 C17 1_555 1_555
O6 C19 1_555 1_555
O7 C21 1_555 1_555
O8 C23 1_555 1_555
N1 C1 1_555 1_555
N2 C1 1_555 1_555
N3 C2 1_555 1_555
N4 C3 1_555 1_555
N5 C4 1_555 1_555
N6 C5 1_555 1_555
N7 C6 1_555 1_555
N8 C7 1_555 1_555
N9 C8 1_555 1_555
N10 C10 1_555 1_555
N11 C11 1_555 1_555
N12 C12 1_555 1_555
N13 C13 1_555 1_555
N14 C14 1_555 1_555
N15 C15 1_555 1_555
N16 C16 1_555 1_555
C2 N2 1_555 1_555
H1 C2 1_555 1_555
H2 C2 1_555 1_555
C3 N3 1_555 1_555
C4 N4 1_555 1_555
H3 C4 1_555 1_555
H4 C4 1_555 1_555
C5 N5 1_555 1_555
C6 N6 1_555 1_555
H5 C6 1_555 1_555
H6 C6 1_555 1_555
C7 N7 1_555 1_555
C8 N8 1_555 1_555
H7 C8 1_555 1_555
H8 C8 1_555 1_555
C9 N1 1_555 1_555
H9 C9 1_555 1_555
C10 N2 1_555 1_555
H10 C10 1_555 1_555
C11 N3 1_555 1_555
H11 C11 1_555 1_555
C12 N4 1_555 1_555
H12 C12 1_555 1_555
C13 N5 1_555 1_555
H13 C13 1_555 1_555
C14 N6 1_555 1_555
H14 C14 1_555 1_555
C15 N7 1_555 1_555
H15 C15 1_555 1_555
C16 N8 1_555 1_555
H16 C16 1_555 1_555
C17 N9 1_555 1_555
C18 N10 1_555 1_555
H17 C18 1_555 1_555
H18 C18 1_555 1_555
C19 N11 1_555 1_555
C20 N12 1_555 1_555
H19 C20 1_555 1_555
H20 C20 1_555 1_555
C21 N13 1_555 1_555
C22 N14 1_555 1_555
H21 C22 1_555 1_555
H22 C22 1_555 1_555
C23 N15 1_555 1_555
C24 N1 1_555 1_555
H23 C24 1_555 1_555
H24 C24 1_555 1_555
S1 O9 1_555 1_555
O10 S1 1_555 1_555
O11 S1 1_555 1_555
O12 S1 1_555 1_555
S2 O13 1_555 1_555
O14 S2 1_555 1_555
O15 S2 1_555 1_555
O16 S2 1_555 1_555
N9J C9 1_555 1_555
C8J N9J 1_555 1_555
N8J C8J 1_555 1_555
C7J N8J 1_555 1_555
O4J C7J 1_555 1_555
N7J C7J 1_555 1_555
C6J N7J 1_555 1_555
N6J C6J 1_555 1_555
C5J N6J 1_555 1_555
O3J C5J 1_555 1_555
N5J C5J 1_555 1_555
C4J N5J 1_555 1_555
N4J C4J 1_555 1_555
C3J N4J 1_555 1_555
O2J C3J 1_555 1_555
N3J C3J 1_555 1_555
C2J N3J 1_555 1_555
N2J C2J 1_555 1_555
C1J N2J 1_555 1_555
O1J C1J 1_555 1_555
N1J C1J 1_555 1_555
C9J N9 1_555 1_555
C17J N10 1_555 1_555
O5J C17J 1_555 1_555
C24J N16 1_555 1_555
H23J C24J 1_555 1_555
H24J C24J 1_555 1_555
N10J C17 1_555 1_555
C10J N2J 1_555 1_555
H9J C9J 1_555 1_555
H10J C10J 1_555 1_555
C18J N10J 1_555 1_555
N11J C18J 1_555 1_555
C11J N3J 1_555 1_555
H11J C11J 1_555 1_555
C12J N4J 1_555 1_555
N12J C12J 1_555 1_555
C19J N11J 1_555 1_555
O6J C19J 1_555 1_555
C20J N12J 1_555 1_555
N13J C20J 1_555 1_555
C13J N5J 1_555 1_555
H13J C13J 1_555 1_555
C14J N6J 1_555 1_555
N14J C14J 1_555 1_555
C21J N13J 1_555 1_555
O7J C21J 1_555 1_555
C22J N14J 1_555 1_555
N15J C22J 1_555 1_555
C15J N7J 1_555 1_555
H15J C15J 1_555 1_555
C16J N8J 1_555 1_555
N16J C24 1_555 1_555
C23J N15J 1_555 1_555
O8J C23J 1_555 1_555
H16J C16J 1_555 1_555
H21J C22J 1_555 1_555
H22J C22J 1_555 1_555
H14J C14J 1_555 1_555
H19J C20J 1_555 1_555
H20J C20J 1_555 1_555
H12J C12J 1_555 1_555
H17J C18J 1_555 1_555
H18J C18J 1_555 1_555
H1J C2J 1_555 1_555
H2J C2J 1_555 1_555
H3J C4J 1_555 1_555
H4J C4J 1_555 1_555
H5J C6J 1_555 1_555
H6J C6J 1_555 1_555
H7J C8J 1_555 1_555
H8J C8J 1_555 1_555
N11 C18 1_555 1_555
N12 C19 1_555 1_555
N13 C20 1_555 1_555
N14 C21 1_555 1_555
N15 C22 1_555 1_555
N16 C23 1_555 1_555
C9 C10 1_555 1_555
C11 C12 1_555 1_555
C13 C14 1_555 1_555
C15 C16 1_555 1_555
N9J C17J 1_555 1_555
N1J C9J 1_555 1_555
N1J C24J 1_555 1_555
C9J C10J 1_555 1_555
N10J C10J 1_555 1_555
N11J C11J 1_555 1_555
C11J C12J 1_555 1_555
N12J C19J 1_555 1_555
N13J C13J 1_555 1_555
C13J C14J 1_555 1_555
N14J C21J 1_555 1_555
N15J C15J 1_555 1_555
C15J C16J 1_555 1_555
C16J N16J 1_555 1_555
N16J C23J 1_555 1_555

#END
