
#######################################################################
#
#                 Cambridge Crystallographic Data Centre
#                                CCDC 
#
#######################################################################
#
# If this CIF has been generated from an entry in the Cambridge 
# Structural Database, then it will include bibliographic, chemical, 
# crystal, experimental, refinement or atomic coordinate data resulting 
# from the CCDC's data processing and validation procedures.
#
#######################################################################

data_LISBEX
_chemical_formula_moiety         'C13 H15 N1 O5'
_chemical_name_systematic        
'methyl 1-acetyl-3-hydroxy-5-methoxy-2,3-dihydro-1H-indole-2-carboxylate'
_symmetry_cell_setting           orthorhombic
_symmetry_space_group_name_H-M   'P 21 21 21'
_symmetry_Int_Tables_number      19
_space_group_name_Hall           'P 2ac 2ab'
loop_
_symmetry_equiv_pos_site_id
_symmetry_equiv_pos_as_xyz
1 x,y,z
2 1/2-x,-y,1/2+z
3 1/2+x,1/2-y,-z
4 -x,1/2+y,1/2-z
_cell_length_a                   5.12044(5)
_cell_length_b                   14.66642(14)
_cell_length_c                   16.34735(15)
_cell_angle_alpha                90
_cell_angle_beta                 90
_cell_angle_gamma                90
_cell_volume                     1227.66
_exptl_crystal_colour            colorless
_exptl_crystal_description       needle
_cell_formula_units_Z            4
loop_
_atom_site_label
_atom_site_type_symbol
_atom_site_fract_x
_atom_site_fract_y
_atom_site_fract_z
O1 O 0.89285(19) 0.31396(6) 0.42513(5)
O2 O 0.25272(18) 0.23962(6) 0.17900(5)
H1 H 0.1501 0.1963 0.1887
O3 O 0.12676(19) 0.35326(6) 0.03079(5)
C1 C 1.0727(3) 0.36370(9) 0.47534(8)
H2 H 1.1805 0.4033 0.4408
H3 H 1.1851 0.3208 0.5049
H4 H 0.9754 0.4010 0.5146
C2 C 0.7108(2) 0.45832(9) 0.37679(7)
H5 H 0.8232 0.4928 0.4112
C3 C 0.7227(2) 0.36318(9) 0.37811(7)
C4 C 0.3816(2) 0.35635(8) 0.27872(7)
C5 C 0.1048(2) 0.40052(8) 0.16764(7)
H6 H -0.0868 0.4024 0.1558
C6 C 0.5346(3) 0.50336(8) 0.32518(7)
H7 H 0.5279 0.5681 0.3234
C7 C 0.5559(2) 0.31138(8) 0.32843(7)
H8 H 0.5631 0.2467 0.3291
C8 C 0.2620(3) 0.39607(8) 0.08848(7)
C9 C 0.3709(2) 0.45130(8) 0.27689(7)
O4 O 0.47796(18) 0.42666(7) 0.08038(6)
C10 C 0.1736(2) 0.31715(8) 0.22347(7)
H9 H 0.0173 0.3011 0.2572
C11 C 0.2649(3) 0.33768(9) -0.04550(7)
H10 H 0.1547 0.3018 -0.0824
H11 H 0.4270 0.3044 -0.0345
H12 H 0.3063 0.3964 -0.0711
N1 N 0.1841(2) 0.47960(7) 0.21739(6)
O5 O 0.12906(19) 0.62304(6) 0.26373(5)
C12 C -0.1047(3) 0.58244(9) 0.14185(8)
H13 H -0.0350 0.5542 0.0921
H14 H -0.1202 0.6484 0.1337
H15 H -0.2772 0.5568 0.1539
C13 C 0.0774(2) 0.56375(8) 0.21249(7)
loop_
_geom_bond_atom_site_label_1
_geom_bond_atom_site_label_2
_geom_bond_site_symmetry_1
_geom_bond_site_symmetry_2
O1 C1 1_555 1_555
O2 H1 1_555 1_555
O3 C8 1_555 1_555
C1 H2 1_555 1_555
H3 C1 1_555 1_555
H4 C1 1_555 1_555
C2 H5 1_555 1_555
C3 O1 1_555 1_555
C4 C7 1_555 1_555
C5 H6 1_555 1_555
C6 C2 1_555 1_555
H7 C6 1_555 1_555
C7 C3 1_555 1_555
H8 C7 1_555 1_555
C8 C5 1_555 1_555
C9 C4 1_555 1_555
O4 C8 1_555 1_555
C10 O2 1_555 1_555
H9 C10 1_555 1_555
C11 O3 1_555 1_555
H10 C11 1_555 1_555
H11 C11 1_555 1_555
H12 C11 1_555 1_555
N1 C5 1_555 1_555
O5 C13 1_555 1_555
C12 H13 1_555 1_555
H14 C12 1_555 1_555
H15 C12 1_555 1_555
C13 N1 1_555 1_555
C2 C3 1_555 1_555
C4 C10 1_555 1_555
C5 C10 1_555 1_555
C6 C9 1_555 1_555
C9 N1 1_555 1_555
C12 C13 1_555 1_555

#END
