
#######################################################################
#
#                 Cambridge Crystallographic Data Centre
#                                CCDC 
#
#######################################################################
#
# If this CIF has been generated from an entry in the Cambridge 
# Structural Database, then it will include bibliographic, chemical, 
# crystal, experimental, refinement or atomic coordinate data resulting 
# from the CCDC's data processing and validation procedures.
#
#######################################################################

data_LISFUR
_chemical_formula_moiety         'C22 H17 F3 O4'
_chemical_name_systematic        
5-hydroxy-4',6-dimethyl-3-phenyl-3-(trifluoromethyl)-2'H,3H,5'H-spiro[1-benzofuran-2,1'-cyclohex[3]ene]-2',5'-dione
_symmetry_cell_setting           triclinic
_symmetry_space_group_name_H-M   'P -1'
_symmetry_Int_Tables_number      2
_space_group_name_Hall           '-P 1'
loop_
_symmetry_equiv_pos_site_id
_symmetry_equiv_pos_as_xyz
1 x,y,z
2 -x,-y,-z
_cell_length_a                   8.2303(5)
_cell_length_b                   10.3461(6)
_cell_length_c                   10.9705(6)
_cell_angle_alpha                100.474(5)
_cell_angle_beta                 92.451(5)
_cell_angle_gamma                102.069(5)
_cell_volume                     895.11
_exptl_crystal_colour            colorless
_exptl_crystal_description       block
_cell_formula_units_Z            2
loop_
_atom_site_label
_atom_site_type_symbol
_atom_site_fract_x
_atom_site_fract_y
_atom_site_fract_z
F1 F 0.35931(9) 0.65416(8) 0.36514(7)
F2 F 0.56635(10) 0.61304(8) 0.46464(7)
F3 F 0.53004(10) 0.81625(8) 0.48940(7)
O1 O 0.45333(12) 0.61351(9) 0.10900(9)
O2 O 0.42676(13) 1.14736(10) 0.22221(9)
H1 H 0.505(3) 1.192(2) 0.2776(19)
O3 O 0.74961(13) 0.68283(10) 0.01739(9)
O4 O 0.71218(12) 0.34364(10) 0.32826(10)
C1 C 0.62657(16) 0.73407(13) 0.29595(12)
C2 C 0.54124(16) 0.82478(13) 0.23232(12)
C3 C 0.53954(16) 0.96103(13) 0.26685(12)
H2 H 0.6061 1.0159 0.3379
C4 C 0.43779(16) 1.01445(13) 0.19451(12)
C5 C 0.33669(16) 0.93516(14) 0.09032(13)
C6 C 0.33945(17) 0.79898(14) 0.05833(12)
H3 H 0.2718 0.7427 -0.0115
C7 C 0.44249(17) 0.74752(13) 0.13023(12)
C8 C 0.59846(16) 0.60662(13) 0.18371(12)
C9 C 0.74927(17) 0.62517(13) 0.10410(12)
C10 C 0.89178(17) 0.56912(14) 0.13836(13)
H4 H 0.9957 0.6004 0.1072
C11 C 0.88384(17) 0.47697(14) 0.21053(13)
C12 C 0.72111(17) 0.42404(13) 0.25872(13)
C13 C 0.56703(17) 0.46477(13) 0.21276(13)
H5 H 0.4857 0.4590 0.2766
H6 H 0.5157 0.3993 0.1366
C14 C 0.52092(17) 0.70299(13) 0.40366(13)
C15 C 0.81062(16) 0.79311(13) 0.34264(12)
C16 C 0.90101(17) 0.89632(13) 0.29059(13)
H7 H 0.8467 0.9308 0.2296
C17 C 1.06915(17) 0.94945(14) 0.32644(13)
H8 H 1.1283 1.0205 0.2908
C18 C 1.15079(17) 0.89929(15) 0.41387(13)
H9 H 1.2660 0.9353 0.4380
C19 C 1.06326(18) 0.79615(15) 0.46594(13)
H10 H 1.1188 0.7612 0.5259
C20 C 0.89497(17) 0.74364(14) 0.43099(13)
H11 H 0.8363 0.6731 0.4676
C21 C 0.22867(18) 0.99736(14) 0.01547(13)
H12 H 0.1465 1.0305 0.0676
H13 H 0.1708 0.9296 -0.0559
H14 H 0.2981 1.0726 -0.0141
C22 C 1.02929(19) 0.42147(16) 0.24580(15)
H15 H 1.0572 0.4479 0.3359
H16 H 1.1254 0.4572 0.2026
H17 H 1.0005 0.3229 0.2220
loop_
_geom_bond_atom_site_label_1
_geom_bond_atom_site_label_2
_geom_bond_site_symmetry_1
_geom_bond_site_symmetry_2
F1 C14 1_555 1_555
F2 C14 1_555 1_555
F3 C14 1_555 1_555
O1 C7 1_555 1_555
O2 H1 1_555 1_555
O3 C9 1_555 1_555
O4 C12 1_555 1_555
C1 C2 1_555 1_555
C2 C3 1_555 1_555
C3 H2 1_555 1_555
C4 O2 1_555 1_555
C5 C4 1_555 1_555
C6 C5 1_555 1_555
H3 C6 1_555 1_555
C7 C2 1_555 1_555
C8 O1 1_555 1_555
C9 C8 1_555 1_555
C10 C9 1_555 1_555
H4 C10 1_555 1_555
C11 C10 1_555 1_555
C12 C11 1_555 1_555
C13 C8 1_555 1_555
H5 C13 1_555 1_555
H6 C13 1_555 1_555
C14 C1 1_555 1_555
C15 C1 1_555 1_555
C16 C15 1_555 1_555
H7 C16 1_555 1_555
C17 C16 1_555 1_555
H8 C17 1_555 1_555
C18 C17 1_555 1_555
H9 C18 1_555 1_555
C19 C18 1_555 1_555
H10 C19 1_555 1_555
C20 C15 1_555 1_555
H11 C20 1_555 1_555
C21 C5 1_555 1_555
H12 C21 1_555 1_555
H13 C21 1_555 1_555
H14 C21 1_555 1_555
C22 C11 1_555 1_555
H15 C22 1_555 1_555
H16 C22 1_555 1_555
H17 C22 1_555 1_555
C1 C8 1_555 1_555
C3 C4 1_555 1_555
C6 C7 1_555 1_555
C12 C13 1_555 1_555
C19 C20 1_555 1_555

#END
