
#######################################################################
#
#                 Cambridge Crystallographic Data Centre
#                                CCDC 
#
#######################################################################
#
# If this CIF has been generated from an entry in the Cambridge 
# Structural Database, then it will include bibliographic, chemical, 
# crystal, experimental, refinement or atomic coordinate data resulting 
# from the CCDC's data processing and validation procedures.
#
#######################################################################

data_LISFEB
_chemical_formula_moiety         'C22 H15 F3 O4'
_chemical_name_systematic        
2,2'-(2,2,2-trifluoro-1-phenylethane-1,1-diyl)bis(5-methylcyclohexa-2,5-diene-1,4-dione)
_symmetry_cell_setting           orthorhombic
_symmetry_space_group_name_H-M   'P c a 21'
_symmetry_Int_Tables_number      29
_space_group_name_Hall           'P 2c -2ac'
loop_
_symmetry_equiv_pos_site_id
_symmetry_equiv_pos_as_xyz
1 x,y,z
2 -x,-y,1/2+z
3 1/2+x,-y,z
4 1/2-x,y,1/2+z
_cell_length_a                   12.7639(2)
_cell_length_b                   11.20080(10)
_cell_length_c                   12.6510(2)
_cell_angle_alpha                90
_cell_angle_beta                 90
_cell_angle_gamma                90
_cell_volume                     1808.66
_exptl_crystal_colour            yellow
_exptl_crystal_description       Block
_cell_formula_units_Z            4
loop_
_atom_site_label
_atom_site_type_symbol
_atom_site_fract_x
_atom_site_fract_y
_atom_site_fract_z
F1 F 0.40384(10) 0.43842(11) 0.30034(9)
F2 F 0.39380(9) 0.24850(11) 0.31858(10)
F3 F 0.29204(9) 0.36357(11) 0.40817(10)
O1 O 0.61452(12) 0.47330(12) 0.32155(13)
O2 O 0.72987(11) 0.03546(12) 0.42225(13)
O3 O 0.65620(10) 0.44378(13) 0.56777(12)
O4 O 0.35670(12) 0.76367(13) 0.53248(14)
C1 C 0.47198(15) 0.35465(15) 0.46352(15)
C2 C 0.57335(14) 0.29866(16) 0.41876(15)
C3 C 0.63468(16) 0.36846(18) 0.33869(15)
C4 C 0.72213(16) 0.30962(19) 0.28354(16)
H1 H 0.7558 0.3512 0.2276
C5 C 0.75617(17) 0.20071(17) 0.30850(17)
C6 C 0.70186(15) 0.13526(17) 0.39514(16)
C7 C 0.60964(15) 0.19059(16) 0.44570(15)
H2 H 0.5744 0.1476 0.4998
C8 C 0.84674(19) 0.1395(2) 0.2569(2)
H3 H 0.8751 0.1906 0.2009
H4 H 0.8233 0.0637 0.2264
H5 H 0.9013 0.1241 0.3097
C9 C 0.48756(15) 0.48574(16) 0.49782(13)
C10 C 0.59110(14) 0.51954(16) 0.54508(14)
C11 C 0.61113(16) 0.64670(17) 0.56748(16)
H6 H 0.6799 0.6701 0.5872
C12 C 0.53679(16) 0.73058(16) 0.56132(16)
C13 C 0.42942(15) 0.69290(17) 0.53059(15)
C14 C 0.41185(15) 0.56816(17) 0.49706(16)
H7 H 0.3438 0.5456 0.4740
C15 C 0.5534(2) 0.86003(19) 0.5857(2)
H8 H 0.6274 0.8738 0.6024
H9 H 0.5101 0.8828 0.6465
H10 H 0.5336 0.9082 0.5243
C16 C 0.38987(16) 0.35170(18) 0.37172(16)
C17 C 0.42801(14) 0.28017(16) 0.55648(16)
C18 C 0.42823(15) 0.32567(17) 0.65872(16)
H11 H 0.4556 0.4032 0.6714
C19 C 0.38895(17) 0.25930(18) 0.74283(16)
H12 H 0.3896 0.2919 0.8122
C20 C 0.34893(17) 0.14576(18) 0.72590(19)
H13 H 0.3221 0.1003 0.7832
C21 C 0.34856(17) 0.09952(18) 0.62410(19)
H14 H 0.3216 0.0217 0.6119
C22 C 0.38697(15) 0.16542(17) 0.54019(17)
H15 H 0.3856 0.1327 0.4709
loop_
_geom_bond_atom_site_label_1
_geom_bond_atom_site_label_2
_geom_bond_site_symmetry_1
_geom_bond_site_symmetry_2
F1 C16 1_555 1_555
F2 C16 1_555 1_555
F3 C16 1_555 1_555
O1 C3 1_555 1_555
O2 C6 1_555 1_555
O3 C10 1_555 1_555
O4 C13 1_555 1_555
C1 C2 1_555 1_555
C2 C3 1_555 1_555
C3 C4 1_555 1_555
C4 H1 1_555 1_555
C5 C4 1_555 1_555
C6 C5 1_555 1_555
C7 C2 1_555 1_555
H2 C7 1_555 1_555
C8 C5 1_555 1_555
H3 C8 1_555 1_555
H4 C8 1_555 1_555
H5 C8 1_555 1_555
C9 C1 1_555 1_555
C10 C9 1_555 1_555
C11 C10 1_555 1_555
H6 C11 1_555 1_555
C12 C11 1_555 1_555
C13 C12 1_555 1_555
C14 C9 1_555 1_555
H7 C14 1_555 1_555
C15 C12 1_555 1_555
H8 C15 1_555 1_555
H9 C15 1_555 1_555
H10 C15 1_555 1_555
C16 C1 1_555 1_555
C17 C1 1_555 1_555
C18 C17 1_555 1_555
H11 C18 1_555 1_555
C19 C18 1_555 1_555
H12 C19 1_555 1_555
C20 C19 1_555 1_555
H13 C20 1_555 1_555
C21 C20 1_555 1_555
H14 C21 1_555 1_555
C22 C17 1_555 1_555
H15 C22 1_555 1_555
C6 C7 1_555 1_555
C13 C14 1_555 1_555
C21 C22 1_555 1_555

#END
