
#######################################################################
#
#                 Cambridge Crystallographic Data Centre
#                                CCDC 
#
#######################################################################
#
# If this CIF has been generated from an entry in the Cambridge 
# Structural Database, then it will include bibliographic, chemical, 
# crystal, experimental, refinement or atomic coordinate data resulting 
# from the CCDC's data processing and validation procedures.
#
#######################################################################

data_LISFAX
_chemical_formula_moiety         'C22 H17 F3 O3'
_chemical_name_systematic        
3,6-dimethyl-9-phenyl-9-(trifluoromethyl)-9H-xanthene-2,7-diol
_symmetry_cell_setting           monoclinic
_symmetry_space_group_name_H-M   'C 2/c'
_symmetry_Int_Tables_number      15
_space_group_name_Hall           '-C 2yn'
loop_
_symmetry_equiv_pos_site_id
_symmetry_equiv_pos_as_xyz
1 x,y,z
2 -x,y,1/2-z
3 1/2+x,1/2+y,z
4 1/2-x,1/2+y,1/2-z
5 -x,-y,-z
6 x,-y,1/2+z
7 1/2-x,1/2-y,-z
8 1/2+x,1/2-y,1/2+z
_cell_length_a                   13.6625(3)
_cell_length_b                   12.4613(3)
_cell_length_c                   21.1104(4)
_cell_angle_alpha                90
_cell_angle_beta                 91.463(2)
_cell_angle_gamma                90
_cell_volume                     3592.93
_exptl_crystal_colour            colorless
_exptl_crystal_description       Plate
_cell_formula_units_Z            8
loop_
_atom_site_label
_atom_site_type_symbol
_atom_site_fract_x
_atom_site_fract_y
_atom_site_fract_z
F1 F 0.15815(6) 0.66952(6) 0.71509(4)
F2 F 0.14006(6) 0.59434(7) 0.62412(4)
F3 F 0.12251(6) 0.50135(7) 0.70916(4)
O1 O 0.37914(7) 0.73299(7) 0.75395(4)
O2 O 0.38639(8) 0.75625(8) 0.49385(4)
H1 H 0.3590(15) 0.7031(17) 0.4717(9)
O3 O 0.30908(8) 0.36866(8) 0.89324(5)
H2 H 0.2716(16) 0.3247(18) 0.8742(10)
C1 C 0.37729(9) 0.73173(11) 0.68860(6)
C2 C 0.41687(10) 0.82176(10) 0.65984(6)
H3 H 0.4428 0.8783 0.6854
C3 C 0.41891(10) 0.83004(11) 0.59453(6)
C4 C 0.38168(10) 0.74417(11) 0.55820(6)
C5 C 0.34173(10) 0.65564(11) 0.58684(6)
H4 H 0.3166 0.5986 0.5614
C6 C 0.33758(9) 0.64825(11) 0.65308(6)
C7 C 0.28676(10) 0.55371(11) 0.68484(6)
C8 C 0.31856(9) 0.54921(11) 0.75478(6)
C9 C 0.30198(10) 0.45771(11) 0.79143(6)
H5 H 0.2743 0.3955 0.7721
C10 C 0.32549(10) 0.45716(11) 0.85534(6)
C11 C 0.36856(9) 0.54613(11) 0.88513(6)
C12 C 0.38693(10) 0.63515(11) 0.84842(6)
H6 H 0.4179 0.6960 0.8672
C13 C 0.36091(10) 0.63722(11) 0.78443(6)
C14 C 0.45691(11) 0.92783(12) 0.56220(7)
H7 H 0.4050 0.9587 0.5350
H8 H 0.5127 0.9081 0.5364
H9 H 0.4779 0.9807 0.5941
C15 C 0.39352(11) 0.54382(12) 0.95473(6)
H10 H 0.4299 0.6089 0.9665
H11 H 0.4339 0.4806 0.9645
H12 H 0.3331 0.5404 0.9787
C16 C 0.17677(10) 0.57889(11) 0.68306(6)
C17 C 0.31229(10) 0.44825(11) 0.65119(6)
C18 C 0.40933(11) 0.41415(12) 0.65648(7)
H13 H 0.4552 0.4552 0.6809
C19 C 0.43997(13) 0.32155(12) 0.62676(8)
H14 H 0.5063 0.2993 0.6309
C20 C 0.37390(14) 0.26125(13) 0.59098(8)
H15 H 0.3947 0.1977 0.5704
C21 C 0.27784(13) 0.29406(13) 0.58536(7)
H16 H 0.2324 0.2528 0.5608
C22 C 0.24658(12) 0.38685(12) 0.61527(7)
H17 H 0.1800 0.4084 0.6112
loop_
_geom_bond_atom_site_label_1
_geom_bond_atom_site_label_2
_geom_bond_site_symmetry_1
_geom_bond_site_symmetry_2
F1 C16 1_555 1_555
F2 C16 1_555 1_555
F3 C16 1_555 1_555
O1 C1 1_555 1_555
O2 H1 1_555 1_555
O3 H2 1_555 1_555
C1 C2 1_555 1_555
C2 H3 1_555 1_555
C3 C2 1_555 1_555
C4 O2 1_555 1_555
C5 C4 1_555 1_555
H4 C5 1_555 1_555
C6 C1 1_555 1_555
C7 C6 1_555 1_555
C8 C7 1_555 1_555
C9 C8 1_555 1_555
H5 C9 1_555 1_555
C10 O3 1_555 1_555
C11 C10 1_555 1_555
C12 C11 1_555 1_555
H6 C12 1_555 1_555
C13 O1 1_555 1_555
C14 C3 1_555 1_555
H7 C14 1_555 1_555
H8 C14 1_555 1_555
H9 C14 1_555 1_555
C15 C11 1_555 1_555
H10 C15 1_555 1_555
H11 C15 1_555 1_555
H12 C15 1_555 1_555
C16 C7 1_555 1_555
C17 C7 1_555 1_555
C18 C17 1_555 1_555
H13 C18 1_555 1_555
C19 C18 1_555 1_555
H14 C19 1_555 1_555
C20 C19 1_555 1_555
H15 C20 1_555 1_555
C21 C20 1_555 1_555
H16 C21 1_555 1_555
C22 C17 1_555 1_555
H17 C22 1_555 1_555
C3 C4 1_555 1_555
C5 C6 1_555 1_555
C8 C13 1_555 1_555
C9 C10 1_555 1_555
C12 C13 1_555 1_555
C21 C22 1_555 1_555

#END
