
#######################################################################
#
#                 Cambridge Crystallographic Data Centre
#                                CCDC 
#
#######################################################################
#
# If this CIF has been generated from an entry in the Cambridge 
# Structural Database, then it will include bibliographic, chemical, 
# crystal, experimental, refinement or atomic coordinate data resulting 
# from the CCDC's data processing and validation procedures.
#
#######################################################################

data_LISGAY
_chemical_formula_moiety         'C22 H17 F3 O4,C3 H6 O1'
_chemical_name_systematic        
"5-hydroxy-4',6-dimethyl-3-phenyl-3-(trifluoromethyl)-2'H,3H,5'H-spiro[1-benzofuran-2,1'-cyclohex[3]ene]-2',5'-dione acetone solvate"
_symmetry_cell_setting           orthorhombic
_symmetry_space_group_name_H-M   'P b c a'
_symmetry_Int_Tables_number      61
_space_group_name_Hall           '-P 2ac 2ab'
loop_
_symmetry_equiv_pos_site_id
_symmetry_equiv_pos_as_xyz
1 x,y,z
2 1/2-x,-y,1/2+z
3 -x,1/2+y,1/2-z
4 1/2+x,1/2-y,-z
5 -x,-y,-z
6 1/2+x,y,1/2-z
7 x,1/2-y,1/2+z
8 1/2-x,1/2+y,z
_cell_length_a                   9.5777(2)
_cell_length_b                   13.1173(4)
_cell_length_c                   34.6264(11)
_cell_angle_alpha                90
_cell_angle_beta                 90
_cell_angle_gamma                90
_cell_volume                     4350.24
_exptl_crystal_colour            colorless
_exptl_crystal_description       Plate
_cell_formula_units_Z            8
loop_
_atom_site_label
_atom_site_type_symbol
_atom_site_fract_x
_atom_site_fract_y
_atom_site_fract_z
F1 F 0.69057(9) 0.14717(7) 0.32859(3)
F2 F 0.62348(9) 0.04913(7) 0.37512(3)
F3 F 0.47566(9) 0.14810(7) 0.34742(3)
O1 O 0.42138(10) 0.28925(8) 0.41359(3)
O2 O 0.60619(12) 0.51162(9) 0.28906(3)
H1 H 0.687(2) 0.4839(17) 0.2804(6)
O3 O 0.38265(11) 0.08886(9) 0.42805(3)
O4 O 0.81888(11) 0.26694(8) 0.49617(3)
C1 C 0.79721(16) 0.05367(13) 0.50771(5)
H2 H 0.8899 0.0542 0.4957
H3 H 0.7644 -0.0168 0.5101
H4 H 0.8025 0.0848 0.5334
C2 C 0.35048(18) 0.57152(13) 0.31961(5)
H5 H 0.4033 0.6349 0.3230
H6 H 0.2603 0.5773 0.3328
H7 H 0.3350 0.5593 0.2920
C3 C 0.64389(15) 0.23030(11) 0.38815(4)
C4 C 0.59090(15) 0.32700(11) 0.36835(4)
C5 C 0.64242(16) 0.37957(12) 0.33668(4)
H8 H 0.7308 0.3627 0.3260
C6 C 0.56232(16) 0.45740(12) 0.32083(4)
C7 C 0.43182(16) 0.48397(12) 0.33657(5)
C8 C 0.38104(16) 0.42952(12) 0.36822(4)
H9 H 0.2928 0.4455 0.3792
C9 C 0.46197(15) 0.35180(12) 0.38325(4)
C10 C 0.54210(15) 0.23121(12) 0.42510(4)
C11 C 0.49332(16) 0.12542(12) 0.43842(4)
C12 C 0.58991(16) 0.07003(12) 0.46416(4)
H10 H 0.5750 -0.0010 0.4676
C13 C 0.69757(16) 0.11301(12) 0.48311(4)
C14 C 0.72016(16) 0.22558(12) 0.48030(4)
C15 C 0.60929(15) 0.28617(12) 0.45945(4)
H11 H 0.6514 0.3505 0.4501
H12 H 0.5351 0.3043 0.4781
C16 C 0.60816(16) 0.14371(12) 0.35992(4)
C17 C 0.79992(15) 0.23004(12) 0.39854(4)
C18 C 0.86915(16) 0.32310(12) 0.40233(4)
H13 H 0.8200 0.3845 0.3971
C19 C 1.00873(16) 0.32799(13) 0.41357(4)
H14 H 1.0536 0.3923 0.4160
C20 C 1.08219(16) 0.23905(13) 0.42125(5)
H15 H 1.1773 0.2418 0.4290
C21 C 1.01469(17) 0.14613(13) 0.41749(5)
H16 H 1.0643 0.0850 0.4228
C22 C 0.87573(16) 0.14071(12) 0.40605(4)
H17 H 0.8319 0.0762 0.4033
O5 O 0.82514(13) 0.39832(10) 0.25709(4)
C23 C 1.0227(2) 0.38174(16) 0.29807(6)
H18 H 0.9919 0.4479 0.3081
H19 H 1.1194 0.3871 0.2891
H20 H 1.0169 0.3305 0.3186
C24 C 0.93098(18) 0.35074(14) 0.26522(5)
C25 C 0.9707(2) 0.25689(15) 0.24327(6)
H21 H 0.9474 0.1964 0.2586
H22 H 1.0713 0.2578 0.2381
H23 H 0.9195 0.2550 0.2188
loop_
_geom_bond_atom_site_label_1
_geom_bond_atom_site_label_2
_geom_bond_site_symmetry_1
_geom_bond_site_symmetry_2
F1 C16 1_555 1_555
F2 C16 1_555 1_555
F3 C16 1_555 1_555
O1 C9 1_555 1_555
O2 H1 1_555 1_555
O3 C11 1_555 1_555
O4 C14 1_555 1_555
C1 H2 1_555 1_555
H3 C1 1_555 1_555
H4 C1 1_555 1_555
C2 H5 1_555 1_555
H6 C2 1_555 1_555
H7 C2 1_555 1_555
C3 C4 1_555 1_555
C4 C5 1_555 1_555
C5 H8 1_555 1_555
C6 O2 1_555 1_555
C7 C2 1_555 1_555
C8 C7 1_555 1_555
H9 C8 1_555 1_555
C9 C4 1_555 1_555
C10 O1 1_555 1_555
C11 C10 1_555 1_555
C12 C11 1_555 1_555
H10 C12 1_555 1_555
C13 C1 1_555 1_555
C14 C13 1_555 1_555
C15 C10 1_555 1_555
H11 C15 1_555 1_555
H12 C15 1_555 1_555
C16 C3 1_555 1_555
C17 C3 1_555 1_555
C18 C17 1_555 1_555
H13 C18 1_555 1_555
C19 C18 1_555 1_555
H14 C19 1_555 1_555
C20 C19 1_555 1_555
H15 C20 1_555 1_555
C21 C20 1_555 1_555
H16 C21 1_555 1_555
C22 C17 1_555 1_555
H17 C22 1_555 1_555
O5 C24 1_555 1_555
C23 H18 1_555 1_555
H19 C23 1_555 1_555
H20 C23 1_555 1_555
C24 C23 1_555 1_555
C25 C24 1_555 1_555
H21 C25 1_555 1_555
H22 C25 1_555 1_555
H23 C25 1_555 1_555
C3 C10 1_555 1_555
C5 C6 1_555 1_555
C6 C7 1_555 1_555
C8 C9 1_555 1_555
C12 C13 1_555 1_555
C14 C15 1_555 1_555
C21 C22 1_555 1_555

#END
