
#######################################################################
#
#                 Cambridge Crystallographic Data Centre
#                                CCDC 
#
#######################################################################
#
# If this CIF has been generated from an entry in the Cambridge 
# Structural Database, then it will include bibliographic, chemical, 
# crystal, experimental, refinement or atomic coordinate data resulting 
# from the CCDC's data processing and validation procedures.
#
#######################################################################

data_LISMEG
_chemical_formula_moiety         'C18 H39 B1 N2 O1'
_chemical_name_systematic        
(3,3-dimethylbut-1-en-2-olato)bis(di-isopropylamino)boron
_symmetry_cell_setting           monoclinic
_symmetry_space_group_name_H-M   'P 21/c'
_symmetry_Int_Tables_number      14
_space_group_name_Hall           '-P 2ybc'
loop_
_symmetry_equiv_pos_site_id
_symmetry_equiv_pos_as_xyz
1 x,y,z
2 -x,1/2+y,1/2-z
3 -x,-y,-z
4 x,1/2-y,1/2+z
_cell_length_a                   9.7178(18)
_cell_length_b                   18.126(3)
_cell_length_c                   12.198(2)
_cell_angle_alpha                90
_cell_angle_beta                 109.965(3)
_cell_angle_gamma                90
_cell_volume                     2019.49
_exptl_crystal_colour            colorless
_exptl_crystal_description       chunk
_cell_formula_units_Z            4
_chemical_properties_physical    air-sensitive
_exptl_crystal_recrystallization_method heptane
loop_
_atom_site_label
_atom_site_type_symbol
_atom_site_fract_x
_atom_site_fract_y
_atom_site_fract_z
O1 O 0.28670(13) 0.12098(6) 0.32837(11)
N1 N 0.20247(17) 0.00085(8) 0.25295(13)
N2 N 0.02221(16) 0.09002(8) 0.28714(13)
B1 B 0.1682(2) 0.07116(11) 0.28743(17)
C1 C 0.1973(2) 0.21288(11) 0.18396(18)
H1 H 0.1287 0.1799 0.1374
H2 H 0.2016 0.2609 0.1583
C2 C 0.2889(2) 0.19148(9) 0.28674(16)
C3 C 0.4164(2) 0.23678(10) 0.36439(17)
C4 C 0.5598(2) 0.20695(13) 0.3521(2)
H3 H 0.5704 0.1556 0.3726
H4 H 0.6417 0.2339 0.4032
H5 H 0.5562 0.2128 0.2730
C5 C 0.4307(2) 0.23053(12) 0.49373(18)
H6 H 0.3428 0.2484 0.5038
H7 H 0.5125 0.2594 0.5403
H8 H 0.4456 0.1798 0.5177
C6 C 0.4009(3) 0.31833(11) 0.3298(2)
H9 H 0.3117 0.3374 0.3359
H10 H 0.3988 0.3233 0.2509
H11 H 0.4826 0.3454 0.3810
C7 C 0.4750(2) -0.01633(11) 0.33512(19)
H12 H 0.4604 -0.0486 0.3926
H13 H 0.4943 0.0327 0.3662
H14 H 0.5567 -0.0334 0.3148
C8 C 0.3380(2) -0.01590(10) 0.22684(17)
H15 H 0.3265 -0.0662 0.1957
C9 C 0.3537(2) 0.03398(12) 0.13088(18)
H16 H 0.2654 0.0320 0.0642
H17 H 0.4346 0.0175 0.1091
H18 H 0.3708 0.0838 0.1590
C10 C 0.1867(2) -0.12349(11) 0.33701(19)
H19 H 0.2273 -0.1017 0.4130
H20 H 0.2638 -0.1448 0.3150
H21 H 0.1179 -0.1612 0.3385
C11 C 0.1089(2) -0.06436(10) 0.24900(17)
H22 H 0.0269 -0.0470 0.2717
C12 C 0.0414(2) -0.09699(11) 0.12576(19)
H23 H -0.0073 -0.0587 0.0722
H24 H -0.0279 -0.1346 0.1262
H25 H 0.1174 -0.1180 0.1019
C13 C -0.2250(2) 0.02581(11) 0.21142(19)
H26 H -0.1789 -0.0182 0.2509
H27 H -0.2996 0.0128 0.1392
H28 H -0.2683 0.0522 0.2597
C14 C -0.1093(2) 0.07512(10) 0.18647(16)
H29 H -0.0768 0.0483 0.1299
C15 C -0.1873(2) 0.14470(11) 0.12431(19)
H30 H -0.1177 0.1767 0.1085
H31 H -0.2314 0.1698 0.1732
H32 H -0.2617 0.1312 0.0523
C16 C 0.1089(2) 0.09241(10) 0.50320(16)
H33 H 0.1064 0.0395 0.5003
H34 H 0.0836 0.1090 0.5686
H35 H 0.2056 0.1093 0.5114
C17 C -0.0003(2) 0.12334(10) 0.39108(16)
H36 H -0.0976 0.1077 0.3893
C18 C 0.0000(2) 0.20763(10) 0.39313(18)
H37 H -0.0695 0.2259 0.3218
H38 H 0.0959 0.2254 0.4010
H39 H -0.0264 0.2245 0.4579
loop_
_geom_bond_atom_site_label_1
_geom_bond_atom_site_label_2
_geom_bond_site_symmetry_1
_geom_bond_site_symmetry_2
O1 B1 1_555 1_555
N1 B1 1_555 1_555
N2 B1 1_555 1_555
C1 H1 1_555 1_555
H2 C1 1_555 1_555
C2 O1 1_555 1_555
C3 C2 1_555 1_555
C4 C3 1_555 1_555
H3 C4 1_555 1_555
H4 C4 1_555 1_555
H5 C4 1_555 1_555
C5 C3 1_555 1_555
H6 C5 1_555 1_555
H7 C5 1_555 1_555
H8 C5 1_555 1_555
C6 C3 1_555 1_555
H9 C6 1_555 1_555
H10 C6 1_555 1_555
H11 C6 1_555 1_555
C7 H12 1_555 1_555
H13 C7 1_555 1_555
H14 C7 1_555 1_555
C8 N1 1_555 1_555
H15 C8 1_555 1_555
C9 C8 1_555 1_555
H16 C9 1_555 1_555
H17 C9 1_555 1_555
H18 C9 1_555 1_555
C10 H19 1_555 1_555
H20 C10 1_555 1_555
H21 C10 1_555 1_555
C11 N1 1_555 1_555
H22 C11 1_555 1_555
C12 C11 1_555 1_555
H23 C12 1_555 1_555
H24 C12 1_555 1_555
H25 C12 1_555 1_555
C13 H26 1_555 1_555
H27 C13 1_555 1_555
H28 C13 1_555 1_555
C14 N2 1_555 1_555
H29 C14 1_555 1_555
C15 C14 1_555 1_555
H30 C15 1_555 1_555
H31 C15 1_555 1_555
H32 C15 1_555 1_555
C16 H33 1_555 1_555
H34 C16 1_555 1_555
H35 C16 1_555 1_555
C17 N2 1_555 1_555
H36 C17 1_555 1_555
C18 C17 1_555 1_555
H37 C18 1_555 1_555
H38 C18 1_555 1_555
H39 C18 1_555 1_555
C1 C2 1_555 1_555
C7 C8 1_555 1_555
C10 C11 1_555 1_555
C13 C14 1_555 1_555
C16 C17 1_555 1_555

#END
