
#######################################################################
#
#                 Cambridge Crystallographic Data Centre
#                                CCDC 
#
#######################################################################
#
# If this CIF has been generated from an entry in the Cambridge 
# Structural Database, then it will include bibliographic, chemical, 
# crystal, experimental, refinement or atomic coordinate data resulting 
# from the CCDC's data processing and validation procedures.
#
#######################################################################

data_LISNUY
_chemical_formula_moiety         'C20 H16 O4'
_chemical_name_systematic        
'2-Hydroxy-1-(4-methoxyphenyl)-1,2-dihydro-3H-benzo[f]chromen-3-one unknown solvate'
_symmetry_cell_setting           rhombohedral
_symmetry_space_group_name_H-M   'R -3'
_symmetry_Int_Tables_number      148
_space_group_name_Hall           '-R 3'
loop_
_symmetry_equiv_pos_site_id
_symmetry_equiv_pos_as_xyz
1 x,y,z
2 -y,x-y,z
3 -x+y,-x,z
4 2/3+x,1/3+y,1/3+z
5 2/3-y,1/3+x-y,1/3+z
6 2/3-x+y,1/3-x,1/3+z
7 1/3+x,2/3+y,2/3+z
8 1/3-y,2/3+x-y,2/3+z
9 1/3-x+y,2/3-x,2/3+z
10 -x,-y,-z
11 y,-x+y,-z
12 x-y,x,-z
13 1/3-x,2/3-y,2/3-z
14 1/3+y,2/3-x+y,2/3-z
15 1/3+x-y,2/3+x,2/3-z
16 2/3-x,1/3-y,1/3-z
17 2/3+y,1/3-x+y,1/3-z
18 2/3+x-y,1/3+x,1/3-z
_cell_length_a                   29.322(19)
_cell_length_b                   29.322(19)
_cell_length_c                   10.437(9)
_cell_angle_alpha                90
_cell_angle_beta                 90
_cell_angle_gamma                120
_cell_volume                     7771.3
_exptl_crystal_colour            colorless
_exptl_crystal_description       block
_cell_formula_units_Z            18
loop_
_atom_site_label
_atom_site_type_symbol
_atom_site_fract_x
_atom_site_fract_y
_atom_site_fract_z
C1 C 0.22835(11) 0.20571(11) 0.5080(3)
C2 C 0.27714(12) 0.22321(11) 0.4435(3)
C3 C 0.28046(14) 0.20359(13) 0.3228(3)
H1 H 0.2500 0.1778 0.2830
C4 C 0.32770(16) 0.22202(16) 0.2644(3)
H2 H 0.3292 0.2090 0.1842
C5 C 0.37391(15) 0.25990(16) 0.3220(4)
H3 H 0.4060 0.2717 0.2809
C6 C 0.37226(14) 0.27934(15) 0.4366(4)
H4 H 0.4034 0.3050 0.4742
C7 C 0.32423(12) 0.26168(13) 0.5014(3)
C8 C 0.32171(15) 0.28228(14) 0.6214(4)
H5 H 0.3526 0.3080 0.6594
C9 C 0.27568(15) 0.26553(15) 0.6819(4)
H6 H 0.2747 0.2793 0.7615
C10 C 0.22939(12) 0.22729(13) 0.6241(3)
C11 C 0.13730(14) 0.16930(14) 0.6628(3)
C12 C 0.14132(11) 0.13393(12) 0.5664(3)
H7 H 0.1578 0.1159 0.6086
C13 C 0.17640(11) 0.16504(11) 0.4528(3)
H8 H 0.1829 0.1406 0.4027
C14 C 0.15201(11) 0.18734(11) 0.3636(3)
C15 C 0.15279(12) 0.23437(12) 0.3873(3)
H9 H 0.1689 0.2533 0.4613
C16 C 0.13019(12) 0.25345(13) 0.3037(3)
H10 H 0.1306 0.2847 0.3216
C17 C 0.10691(13) 0.22601(17) 0.1931(3)
C18 C 0.10563(14) 0.18005(16) 0.1680(3)
H11 H 0.0896 0.1613 0.0938
C19 C 0.12839(12) 0.16124(13) 0.2535(3)
H12 H 0.1275 0.1298 0.2353
C20 C 0.0584(2) 0.2185(3) 0.0050(5)
H13 H 0.0817 0.2126 -0.0482
H14 H 0.0453 0.2376 -0.0425
H15 H 0.0295 0.1853 0.0318
O1 O 0.09875(10) 0.16232(11) 0.7182(2)
O2 O 0.18349(9) 0.21351(10) 0.6932(2)
O3 O 0.09034(8) 0.09541(8) 0.5291(3)
H16 H 0.0906 0.0688 0.5064
O4 O 0.08607(11) 0.24797(12) 0.1136(3)
loop_
_geom_bond_atom_site_label_1
_geom_bond_atom_site_label_2
_geom_bond_site_symmetry_1
_geom_bond_site_symmetry_2
C1 C2 1_555 1_555
C2 C3 1_555 1_555
C3 H1 1_555 1_555
C4 C3 1_555 1_555
H2 C4 1_555 1_555
C5 C4 1_555 1_555
H3 C5 1_555 1_555
C6 C5 1_555 1_555
H4 C6 1_555 1_555
C7 C2 1_555 1_555
C8 C7 1_555 1_555
H5 C8 1_555 1_555
C9 C8 1_555 1_555
H6 C9 1_555 1_555
C10 C1 1_555 1_555
C11 C12 1_555 1_555
C12 H7 1_555 1_555
C13 C1 1_555 1_555
H8 C13 1_555 1_555
C14 C13 1_555 1_555
C15 C14 1_555 1_555
H9 C15 1_555 1_555
C16 C15 1_555 1_555
H10 C16 1_555 1_555
C17 C16 1_555 1_555
C18 C17 1_555 1_555
H11 C18 1_555 1_555
C19 C14 1_555 1_555
H12 C19 1_555 1_555
C20 H13 1_555 1_555
H14 C20 1_555 1_555
H15 C20 1_555 1_555
O1 C11 1_555 1_555
O2 C10 1_555 1_555
O3 C12 1_555 1_555
H16 O3 1_555 1_555
O4 C17 1_555 1_555
C6 C7 1_555 1_555
C9 C10 1_555 1_555
C11 O2 1_555 1_555
C12 C13 1_555 1_555
C18 C19 1_555 1_555
C20 O4 1_555 1_555

#END
