
#######################################################################
#
#                 Cambridge Crystallographic Data Centre
#                                CCDC 
#
#######################################################################
#
# If this CIF has been generated from an entry in the Cambridge 
# Structural Database, then it will include bibliographic, chemical, 
# crystal, experimental, refinement or atomic coordinate data resulting 
# from the CCDC's data processing and validation procedures.
#
#######################################################################

data_LISPOV
_chemical_formula_moiety         'C19 H23 N1'
_chemical_name_systematic        9-heptyl-9H-carbazole
_symmetry_cell_setting           orthorhombic
_symmetry_space_group_name_H-M   'P b c a'
_symmetry_Int_Tables_number      61
_space_group_name_Hall           '-P 2ac 2ab'
loop_
_symmetry_equiv_pos_site_id
_symmetry_equiv_pos_as_xyz
1 x,y,z
2 1/2-x,-y,1/2+z
3 -x,1/2+y,1/2-z
4 1/2+x,1/2-y,-z
5 -x,-y,-z
6 1/2+x,y,1/2-z
7 x,1/2-y,1/2+z
8 1/2-x,1/2+y,z
_cell_length_a                   18.8899(12)
_cell_length_b                   7.9448(6)
_cell_length_c                   41.322(5)
_cell_angle_alpha                90
_cell_angle_beta                 90
_cell_angle_gamma                90
_cell_volume                     6201.46
_exptl_crystal_colour            colorless
_exptl_crystal_description       prism
_cell_formula_units_Z            16
loop_
_atom_site_label
_atom_site_type_symbol
_atom_site_fract_x
_atom_site_fract_y
_atom_site_fract_z
N1 N 0.60157(8) -0.1558(2) 0.42503(4)
C1 C 0.67867(10) -0.3728(2) 0.41773(5)
C2 C 0.63234(10) -0.2594(2) 0.40201(5)
C3 C 0.54239(10) 0.2957(3) 0.40851(5)
H1 H 0.5013 0.2580 0.3964
H2 H 0.5653 0.3832 0.3959
C4 C 0.51734(10) 0.3715(3) 0.44037(4)
H3 H 0.4967 0.2831 0.4535
H4 H 0.5579 0.4159 0.4519
C5 C 0.44362(10) 0.6004(3) 0.46717(5)
H5 H 0.4854 0.6560 0.4757
H6 H 0.4285 0.5173 0.4829
C6 C 0.62865(10) -0.1971(3) 0.45520(5)
C7 C 0.59346(10) 0.1487(2) 0.41206(5)
H7 H 0.6211 0.1376 0.3924
H8 H 0.6259 0.1714 0.4297
C8 C 0.67661(10) -0.3329(3) 0.45172(5)
C9 C 0.46318(11) 0.5112(3) 0.43604(5)
H9 H 0.4819 0.5933 0.4209
H10 H 0.4206 0.4638 0.4266
C10 C 0.62364(10) -0.2609(3) 0.36861(5)
H11 H 0.5937 -0.1846 0.3584
C11 C 0.55473(10) -0.0154(3) 0.41858(5)
H12 H 0.5236 -0.0001 0.4370
H13 H 0.5255 -0.0424 0.4000
C12 C 0.61455(12) -0.1258(3) 0.48518(5)
H14 H 0.5826 -0.0375 0.4873
C13 C 0.71112(11) -0.3951(3) 0.47924(6)
H15 H 0.7429 -0.4841 0.4776
C14 C 0.66095(12) -0.3791(3) 0.35110(6)
H16 H 0.6558 -0.3828 0.3287
C15 C 0.71520(10) -0.4908(3) 0.39929(6)
H17 H 0.7454 -0.5673 0.4092
C16 C 0.38527(12) 0.7298(3) 0.46303(6)
H18 H 0.4012 0.8176 0.4489
H19 H 0.3734 0.7769 0.4837
H20 H 0.3442 0.6766 0.4539
C17 C 0.70637(12) -0.4937(3) 0.36632(7)
H21 H 0.7308 -0.5724 0.3540
C18 C 0.64923(13) -0.1897(4) 0.51169(6)
H22 H 0.6404 -0.1435 0.5320
C19 C 0.69721(13) -0.3218(4) 0.50891(6)
H23 H 0.7203 -0.3614 0.5273
N2 N 0.43396(9) 0.2811(2) 0.30879(4)
C20 C 0.49869(11) 0.1996(3) 0.30588(4)
C21 C 0.49287(11) 0.0716(3) 0.28248(4)
C22 C 0.36929(10) 0.8110(3) 0.34012(5)
H24 H 0.3558 0.8606 0.3196
H25 H 0.3361 0.7212 0.3449
C23 C 0.38632(11) 0.2058(3) 0.28771(5)
C24 C 0.42084(11) 0.0746(3) 0.27089(5)
C25 C 0.44343(10) 0.7376(3) 0.33725(5)
H26 H 0.4588 0.7013 0.3585
H27 H 0.4753 0.8259 0.3302
C26 C 0.36454(11) 0.9442(3) 0.36641(5)
H28 H 0.4009 1.0281 0.3626
H29 H 0.3744 0.8917 0.3871
C27 C 0.45015(11) 0.5895(3) 0.31400(5)
H30 H 0.4244 0.6144 0.2943
H31 H 0.4996 0.5738 0.3084
C28 C 0.42146(12) 0.4280(3) 0.32878(5)
H32 H 0.4435 0.4107 0.3497
H33 H 0.3709 0.4403 0.3322
C29 C 0.55119(12) -0.0292(3) 0.27560(5)
H34 H 0.5479 -0.1143 0.2602
C30 C 0.56210(11) 0.2288(3) 0.32211(5)
H35 H 0.5659 0.3142 0.3374
C31 C 0.29308(12) 1.0321(3) 0.36839(5)
H36 H 0.2882 1.1077 0.3501
H37 H 0.2558 0.9485 0.3670
C32 C 0.31504(12) 0.2421(3) 0.28214(5)
H38 H 0.2922 0.3283 0.2932
C33 C 0.38350(13) -0.0196(3) 0.24810(5)
H39 H 0.4058 -0.1057 0.2367
C34 C 0.61909(12) 0.1271(3) 0.31478(5)
H40 H 0.6619 0.1445 0.3253
C35 C 0.27960(12) 0.1453(3) 0.25955(6)
H41 H 0.2320 0.1668 0.2555
C36 C 0.61381(12) -0.0016(3) 0.29179(5)
H42 H 0.6529 -0.0690 0.2874
C37 C 0.31320(13) 0.0165(3) 0.24266(6)
H43 H 0.2879 -0.0458 0.2275
C38 C 0.28415(15) 1.1315(4) 0.39950(6)
H44 H 0.2389 1.1867 0.3994
H45 H 0.3211 1.2141 0.4011
H46 H 0.2868 1.0564 0.4177
loop_
_geom_bond_atom_site_label_1
_geom_bond_atom_site_label_2
_geom_bond_site_symmetry_1
_geom_bond_site_symmetry_2
N1 C2 1_555 1_555
C1 C2 1_555 1_555
C2 C10 1_555 1_555
C3 H1 1_555 1_555
H2 C3 1_555 1_555
C4 C3 1_555 1_555
H3 C4 1_555 1_555
H4 C4 1_555 1_555
C5 H5 1_555 1_555
H6 C5 1_555 1_555
C6 N1 1_555 1_555
C7 C3 1_555 1_555
H7 C7 1_555 1_555
H8 C7 1_555 1_555
C8 C1 1_555 1_555
C9 C4 1_555 1_555
H9 C9 1_555 1_555
H10 C9 1_555 1_555
C10 H11 1_555 1_555
C11 N1 1_555 1_555
H12 C11 1_555 1_555
H13 C11 1_555 1_555
C12 C6 1_555 1_555
H14 C12 1_555 1_555
C13 C8 1_555 1_555
H15 C13 1_555 1_555
C14 C10 1_555 1_555
H16 C14 1_555 1_555
C15 C1 1_555 1_555
H17 C15 1_555 1_555
C16 C5 1_555 1_555
H18 C16 1_555 1_555
H19 C16 1_555 1_555
H20 C16 1_555 1_555
C17 C14 1_555 1_555
H21 C17 1_555 1_555
C18 C12 1_555 1_555
H22 C18 1_555 1_555
C19 C13 1_555 1_555
H23 C19 1_555 1_555
N2 C20 1_555 1_555
C20 C21 1_555 1_555
C21 C24 1_555 1_555
C22 H24 1_555 1_555
H25 C22 1_555 1_555
C23 N2 1_555 1_555
C24 C23 1_555 1_555
C25 C22 1_555 1_555
H26 C25 1_555 1_555
H27 C25 1_555 1_555
C26 C22 1_555 1_555
H28 C26 1_555 1_555
H29 C26 1_555 1_555
C27 C25 1_555 1_555
H30 C27 1_555 1_555
H31 C27 1_555 1_555
C28 N2 1_555 1_555
H32 C28 1_555 1_555
H33 C28 1_555 1_555
C29 C21 1_555 1_555
H34 C29 1_555 1_555
C30 C20 1_555 1_555
H35 C30 1_555 1_555
C31 C26 1_555 1_555
H36 C31 1_555 1_555
H37 C31 1_555 1_555
C32 C23 1_555 1_555
H38 C32 1_555 1_555
C33 C24 1_555 1_555
H39 C33 1_555 1_555
C34 C30 1_555 1_555
H40 C34 1_555 1_555
C35 C32 1_555 1_555
H41 C35 1_555 1_555
C36 C29 1_555 1_555
H42 C36 1_555 1_555
C37 C33 1_555 1_555
H43 C37 1_555 1_555
C38 C31 1_555 1_555
H44 C38 1_555 1_555
H45 C38 1_555 1_555
H46 C38 1_555 1_555
C5 C9 1_555 1_555
C6 C8 1_555 1_555
C7 C11 1_555 1_555
C15 C17 1_555 1_555
C18 C19 1_555 1_555
C27 C28 1_555 1_555
C34 C36 1_555 1_555
C35 C37 1_555 1_555

#END
