
#######################################################################
#
#                 Cambridge Crystallographic Data Centre
#                                CCDC 
#
#######################################################################
#
# If this CIF has been generated from an entry in the Cambridge 
# Structural Database, then it will include bibliographic, chemical, 
# crystal, experimental, refinement or atomic coordinate data resulting 
# from the CCDC's data processing and validation procedures.
#
#######################################################################

data_LISPAG
_chemical_formula_moiety         'C21 H18 O4'
_chemical_name_systematic        
'cis-Methyl 1-(4-methoxyphenyl)-1,2-dihydronaphtho[2,1-b]furan-2-carboxylate'
_symmetry_cell_setting           monoclinic
_symmetry_space_group_name_H-M   'C 2/c'
_symmetry_Int_Tables_number      15
_space_group_name_Hall           '-C 2yn'
loop_
_symmetry_equiv_pos_site_id
_symmetry_equiv_pos_as_xyz
1 x,y,z
2 -x,y,1/2-z
3 1/2+x,1/2+y,z
4 1/2-x,1/2+y,1/2-z
5 -x,-y,-z
6 x,-y,1/2+z
7 1/2-x,1/2-y,-z
8 1/2+x,1/2-y,1/2+z
_cell_length_a                   17.957(10)
_cell_length_b                   7.886(4)
_cell_length_c                   24.314(13)
_cell_angle_alpha                90
_cell_angle_beta                 98.572(4)
_cell_angle_gamma                90
_cell_volume                     3404.62
_exptl_crystal_colour            colorless
_exptl_crystal_description       block
_cell_formula_units_Z            8
loop_
_atom_site_label
_atom_site_type_symbol
_atom_site_fract_x
_atom_site_fract_y
_atom_site_fract_z
C1 C 0.22910(11) 0.4698(2) 0.43074(9)
C2 C 0.28072(13) 0.6039(2) 0.43824(10)
H1 H 0.2648 0.7158 0.4399
C3 C 0.35529(12) 0.5640(3) 0.44295(10)
H2 H 0.3907 0.6509 0.4479
C4 C 0.38049(11) 0.3953(2) 0.44055(8)
C5 C 0.45762(12) 0.3538(3) 0.44448(9)
H3 H 0.4932 0.4404 0.4481
C6 C 0.48084(12) 0.1908(3) 0.44308(9)
H4 H 0.5319 0.1663 0.4457
C7 C 0.42811(12) 0.0593(3) 0.43776(9)
H5 H 0.4445 -0.0526 0.4376
C8 C 0.35309(11) 0.0931(2) 0.43289(8)
H6 H 0.3188 0.0040 0.4287
C9 C 0.32664(10) 0.2615(2) 0.43418(7)
C10 C 0.24988(10) 0.3051(2) 0.42893(7)
C11 C 0.18116(10) 0.1938(2) 0.42007(8)
H7 H 0.1815 0.1199 0.4525
C12 C 0.11743(11) 0.3316(2) 0.42016(8)
H8 H 0.0921 0.3135 0.4527
C13 C 0.05964(11) 0.3281(3) 0.36862(9)
C14 C -0.04385(16) 0.1693(4) 0.32489(11)
H9 H -0.0775 0.2637 0.3170
H10 H -0.0721 0.0700 0.3314
H11 H -0.0177 0.1498 0.2938
C15 C 0.17387(10) 0.0853(2) 0.36793(7)
C16 C 0.19859(11) 0.1421(3) 0.31975(8)
H12 H 0.2213 0.2480 0.3193
C17 C 0.18979(12) 0.0431(3) 0.27244(8)
H13 H 0.2071 0.0823 0.2405
C18 C 0.15561(11) -0.1135(3) 0.27208(8)
C19 C 0.13183(12) -0.1736(3) 0.31987(9)
H14 H 0.1098 -0.2802 0.3204
C20 C 0.14113(11) -0.0730(2) 0.36696(8)
H15 H 0.1248 -0.1135 0.3990
C21 C 0.10840(19) -0.3538(4) 0.21856(12)
H16 H 0.1323 -0.4316 0.2460
H17 H 0.1082 -0.4011 0.1822
H18 H 0.0575 -0.3340 0.2247
O1 O 0.15294(7) 0.49513(16) 0.42465(7)
O2 O 0.05854(10) 0.4168(2) 0.32914(7)
O3 O 0.00992(8) 0.20611(19) 0.37370(6)
O4 O 0.14841(9) -0.1987(2) 0.22267(6)
loop_
_geom_bond_atom_site_label_1
_geom_bond_atom_site_label_2
_geom_bond_site_symmetry_1
_geom_bond_site_symmetry_2
C1 C2 1_555 1_555
C2 H1 1_555 1_555
C3 C2 1_555 1_555
H2 C3 1_555 1_555
C4 C3 1_555 1_555
C5 C4 1_555 1_555
H3 C5 1_555 1_555
C6 C5 1_555 1_555
H4 C6 1_555 1_555
C7 C6 1_555 1_555
H5 C7 1_555 1_555
C8 C7 1_555 1_555
H6 C8 1_555 1_555
C9 C4 1_555 1_555
C10 C1 1_555 1_555
C11 C10 1_555 1_555
H7 C11 1_555 1_555
C12 C11 1_555 1_555
H8 C12 1_555 1_555
C13 C12 1_555 1_555
C14 H9 1_555 1_555
H10 C14 1_555 1_555
H11 C14 1_555 1_555
C15 C11 1_555 1_555
C16 C15 1_555 1_555
H12 C16 1_555 1_555
C17 C16 1_555 1_555
H13 C17 1_555 1_555
C18 C17 1_555 1_555
C19 C18 1_555 1_555
H14 C19 1_555 1_555
C20 C15 1_555 1_555
H15 C20 1_555 1_555
C21 H16 1_555 1_555
H17 C21 1_555 1_555
H18 C21 1_555 1_555
O1 C1 1_555 1_555
O2 C13 1_555 1_555
O3 C13 1_555 1_555
O4 C18 1_555 1_555
C8 C9 1_555 1_555
C9 C10 1_555 1_555
C12 O1 1_555 1_555
C14 O3 1_555 1_555
C19 C20 1_555 1_555
C21 O4 1_555 1_555

#END
