
#######################################################################
#
#                 Cambridge Crystallographic Data Centre
#                                CCDC 
#
#######################################################################
#
# If this CIF has been generated from an entry in the Cambridge 
# Structural Database, then it will include bibliographic, chemical, 
# crystal, experimental, refinement or atomic coordinate data resulting 
# from the CCDC's data processing and validation procedures.
#
#######################################################################

data_LISPIP
_chemical_formula_moiety         'C18 H21 N1'
_chemical_name_systematic        9-hexyl-9H-carbazole
_symmetry_cell_setting           trigonal
_symmetry_space_group_name_H-M   'P 3 1 c'
_symmetry_Int_Tables_number      159
_space_group_name_Hall           "P 3 -2'c"
loop_
_symmetry_equiv_pos_site_id
_symmetry_equiv_pos_as_xyz
1 x,y,z
2 -y,x-y,z
3 -x+y,-x,z
4 y,x,1/2+z
5 x-y,-y,1/2+z
6 -x,-x+y,1/2+z
_cell_length_a                   31.3221(5)
_cell_length_b                   31.3221(5)
_cell_length_c                   7.84518(11)
_cell_angle_alpha                90
_cell_angle_beta                 90
_cell_angle_gamma                120
_cell_volume                     6665.54
_exptl_crystal_colour            colorless
_exptl_crystal_description       needle
_cell_formula_units_Z            18
loop_
_atom_site_label
_atom_site_type_symbol
_atom_site_fract_x
_atom_site_fract_y
_atom_site_fract_z
N1 N 0.52591(11) 0.42324(11) 0.4444(4)
C1 C 0.47995(12) 0.39774(11) 0.5216(4)
C2 C 0.47721(11) 0.42720(11) 0.6524(4)
C3 C 0.52320(13) 0.47226(12) 0.6485(4)
C4 C 0.55226(12) 0.46893(12) 0.5213(4)
C5 C 0.43412(13) 0.40878(16) 0.7505(5)
H1 H 0.4319 0.4277 0.8377
C6 C 0.54279(17) 0.51525(14) 0.7503(5)
H2 H 0.5249 0.5181 0.8398
C7 C 0.44009(15) 0.35025(14) 0.4881(5)
H3 H 0.4417 0.3304 0.4033
C8 C 0.54126(13) 0.40544(15) 0.2987(4)
H4 H 0.5307 0.3709 0.3164
H5 H 0.5770 0.4234 0.2929
C9 C 0.39545(15) 0.36268(17) 0.7166(6)
H6 H 0.3669 0.3503 0.7817
C10 C 0.59951(16) 0.50716(18) 0.4861(6)
H7 H 0.6184 0.5046 0.3998
C11 C 0.61738(19) 0.54947(19) 0.5851(7)
H8 H 0.6488 0.5758 0.5641
C12 C 0.39826(16) 0.33462(17) 0.5882(6)
H9 H 0.3710 0.3038 0.5670
C13 C 0.5901(2) 0.55318(16) 0.7108(7)
H10 H 0.6033 0.5822 0.7736
C14 C 0.52089(18) 0.41088(19) 0.1301(6)
H11 H 0.5334 0.4456 0.1075
H12 H 0.4853 0.3948 0.1376
C15 C 0.5843(3) 0.4138(4) -0.0676(8)
H13 H 0.6044 0.4106 0.0198
H14 H 0.5951 0.4485 -0.0812
C16 C 0.53501(19) 0.38843(19) -0.0180(7)
H15 H 0.5266 0.3552 0.0136
H16 H 0.5150 0.3859 -0.1158
C17 C 0.5906(4) 0.3933(4) -0.2335(9)
H17 H 0.5587 0.3674 -0.2732
H18 H 0.6040 0.4191 -0.3189
C18 C 0.6208(3) 0.3751(3) -0.2130(9)
H19 H 0.6367 0.3850 -0.1039
H20 H 0.6453 0.3875 -0.3014
H21 H 0.6022 0.3398 -0.2190
N2 N 0.86640(10) 0.76833(9) 0.4434(4)
C19 C 0.87432(12) 0.72303(10) 0.6530(4)
C20 C 0.89970(12) 0.75805(10) 0.5234(4)
C21 C 0.82409(12) 0.71183(10) 0.6507(4)
C22 C 0.82035(11) 0.74107(10) 0.5173(4)
C23 C 0.90029(15) 0.70691(12) 0.7552(4)
H22 H 0.8845 0.6844 0.8428
C24 C 0.94924(13) 0.77625(13) 0.4922(5)
H23 H 0.9652 0.7986 0.4044
C25 C 0.94971(16) 0.72517(15) 0.7230(6)
H24 H 0.9672 0.7141 0.7873
C26 C 0.87663(14) 0.80062(11) 0.2984(4)
H25 H 0.9115 0.8250 0.2977
H26 H 0.8585 0.8180 0.3114
C27 C 0.97417(15) 0.76057(16) 0.5932(6)
H27 H 1.0078 0.7734 0.5766
C28 C 0.78250(15) 0.68120(12) 0.7459(4)
H28 H 0.7839 0.6618 0.8330
C29 C 0.77615(12) 0.73984(12) 0.4832(5)
H29 H 0.7740 0.7592 0.3976
C30 C 0.73750(16) 0.68017(15) 0.7070(6)
H30 H 0.7091 0.6596 0.7685
C31 C 0.87413(15) 0.80938(14) -0.0218(5)
H31 H 0.8572 0.7903 -0.1221
H32 H 0.8602 0.8301 0.0047
C32 C 0.73576(14) 0.70909(14) 0.5802(5)
H33 H 0.7060 0.7079 0.5585
C33 C 0.86301(15) 0.77356(12) 0.1273(5)
H34 H 0.8282 0.7491 0.1271
H35 H 0.8815 0.7565 0.1125
C34 C 0.9250(3) 0.8406(3) -0.0638(6)
H36 H 0.9398 0.8211 -0.0980
H37 H 0.9431 0.8608 0.0332
C35 C 0.9258(4) 0.8720(5) -0.2074(10)
H38 H 0.9109 0.8514 -0.3068
H39 H 0.9058 0.8866 -0.1769
C36 C 0.9728(3) 0.9094(3) -0.2497(8)
H40 H 0.9825 0.9367 -0.1735
H41 H 0.9728 0.9199 -0.3646
H42 H 0.9955 0.8974 -0.2402
N3 N 0.56406(10) 0.77779(11) 0.4432(4)
C37 C 0.59162(10) 0.82348(13) 0.5232(4)
C38 C 0.62037(10) 0.81826(13) 0.6509(4)
C39 C 0.60961(10) 0.76819(13) 0.6500(4)
C40 C 0.57439(12) 0.74436(14) 0.5170(5)
C41 C 0.59325(12) 0.86688(14) 0.4913(5)
H43 H 0.5741 0.8694 0.4056
C42 C 0.65090(12) 0.85917(14) 0.7482(4)
H44 H 0.6696 0.8566 0.8354
C43 C 0.60912(16) 0.69277(16) 0.7086(6)
H45 H 0.6207 0.6753 0.7702
C44 C 0.57444(18) 0.66943(18) 0.5808(6)
H46 H 0.5628 0.6362 0.5596
C45 C 0.53177(12) 0.7680(2) 0.2980(4)
H47 H 0.5140 0.7857 0.3130
H48 H 0.5077 0.7330 0.2953
C46 C 0.65364(16) 0.90395(17) 0.7157(6)
H49 H 0.6751 0.9318 0.7780
C47 C 0.62639(13) 0.74170(16) 0.7445(5)
H50 H 0.6492 0.7571 0.8315
C48 C 0.62413(16) 0.90708(17) 0.5898(6)
H51 H 0.6252 0.9370 0.5716
C49 C 0.55618(16) 0.69460(15) 0.4816(6)
H52 H 0.5330 0.6786 0.3961
C50 C 0.55864(14) 0.7826(2) 0.1283(6)
H53 H 0.5741 0.7629 0.1082
H54 H 0.5845 0.8169 0.1334
C51 C 0.52423(17) 0.7757(2) -0.0193(6)
H55 H 0.5047 0.7908 0.0107
H56 H 0.5440 0.7930 -0.1180
C52 C 0.4626(4) 0.7332(4) -0.2419(9)
H57 H 0.4622 0.7640 -0.2366
H58 H 0.4767 0.7309 -0.3490
C53 C 0.4908(3) 0.7243(4) -0.0664(8)
H59 H 0.4674 0.7063 0.0236
H60 H 0.5086 0.7074 -0.0966
C54 C 0.4182(3) 0.6937(4) -0.2111(9)
H61 H 0.4196 0.6642 -0.2327
H62 H 0.3941 0.6945 -0.2843
H63 H 0.4094 0.6941 -0.0942
loop_
_geom_bond_atom_site_label_1
_geom_bond_atom_site_label_2
_geom_bond_site_symmetry_1
_geom_bond_site_symmetry_2
N1 C1 1_555 1_555
C1 C2 1_555 1_555
C2 C3 1_555 1_555
C3 C4 1_555 1_555
C4 N1 1_555 1_555
C5 C2 1_555 1_555
H1 C5 1_555 1_555
C6 C3 1_555 1_555
H2 C6 1_555 1_555
C7 C1 1_555 1_555
H3 C7 1_555 1_555
C8 N1 1_555 1_555
H4 C8 1_555 1_555
H5 C8 1_555 1_555
C9 C5 1_555 1_555
H6 C9 1_555 1_555
C10 C4 1_555 1_555
H7 C10 1_555 1_555
C11 C10 1_555 1_555
H8 C11 1_555 1_555
C12 C7 1_555 1_555
H9 C12 1_555 1_555
C13 C6 1_555 1_555
H10 C13 1_555 1_555
C14 C8 1_555 1_555
H11 C14 1_555 1_555
H12 C14 1_555 1_555
C15 H13 1_555 1_555
H14 C15 1_555 1_555
C16 C14 1_555 1_555
H15 C16 1_555 1_555
H16 C16 1_555 1_555
C17 C15 1_555 1_555
H17 C17 1_555 1_555
H18 C17 1_555 1_555
C18 C17 1_555 1_555
H19 C18 1_555 1_555
H20 C18 1_555 1_555
H21 C18 1_555 1_555
N2 C20 1_555 1_555
C19 C20 1_555 1_555
C20 C24 1_555 1_555
C21 C19 1_555 1_555
C22 N2 1_555 1_555
C23 C19 1_555 1_555
H22 C23 1_555 1_555
C24 H23 1_555 1_555
C25 C23 1_555 1_555
H24 C25 1_555 1_555
C26 N2 1_555 1_555
H25 C26 1_555 1_555
H26 C26 1_555 1_555
C27 C24 1_555 1_555
H27 C27 1_555 1_555
C28 C21 1_555 1_555
H28 C28 1_555 1_555
C29 C22 1_555 1_555
H29 C29 1_555 1_555
C30 C28 1_555 1_555
H30 C30 1_555 1_555
C31 H31 1_555 1_555
H32 C31 1_555 1_555
C32 C29 1_555 1_555
H33 C32 1_555 1_555
C33 C26 1_555 1_555
H34 C33 1_555 1_555
H35 C33 1_555 1_555
C34 C31 1_555 1_555
H36 C34 1_555 1_555
H37 C34 1_555 1_555
C35 C34 1_555 1_555
H38 C35 1_555 1_555
H39 C35 1_555 1_555
C36 C35 1_555 1_555
H40 C36 1_555 1_555
H41 C36 1_555 1_555
H42 C36 1_555 1_555
N3 C37 1_555 1_555
C37 C38 1_555 1_555
C38 C39 1_555 1_555
C39 C40 1_555 1_555
C40 N3 1_555 1_555
C41 C37 1_555 1_555
H43 C41 1_555 1_555
C42 C38 1_555 1_555
H44 C42 1_555 1_555
C43 H45 1_555 1_555
C44 C43 1_555 1_555
H46 C44 1_555 1_555
C45 N3 1_555 1_555
H47 C45 1_555 1_555
H48 C45 1_555 1_555
C46 C42 1_555 1_555
H49 C46 1_555 1_555
C47 C39 1_555 1_555
H50 C47 1_555 1_555
C48 C41 1_555 1_555
H51 C48 1_555 1_555
C49 C40 1_555 1_555
H52 C49 1_555 1_555
C50 C45 1_555 1_555
H53 C50 1_555 1_555
H54 C50 1_555 1_555
C51 C50 1_555 1_555
H55 C51 1_555 1_555
H56 C51 1_555 1_555
C52 H57 1_555 1_555
H58 C52 1_555 1_555
C53 C51 1_555 1_555
H59 C53 1_555 1_555
H60 C53 1_555 1_555
C54 C52 1_555 1_555
H61 C54 1_555 1_555
H62 C54 1_555 1_555
H63 C54 1_555 1_555
C9 C12 1_555 1_555
C11 C13 1_555 1_555
C15 C16 1_555 1_555
C21 C22 1_555 1_555
C25 C27 1_555 1_555
C30 C32 1_555 1_555
C31 C33 1_555 1_555
C43 C47 1_555 1_555
C44 C49 1_555 1_555
C46 C48 1_555 1_555
C52 C53 1_555 1_555

#END
