
#######################################################################
#
#                 Cambridge Crystallographic Data Centre
#                                CCDC 
#
#######################################################################
#
# If this CIF has been generated from an entry in the Cambridge 
# Structural Database, then it will include bibliographic, chemical, 
# crystal, experimental, refinement or atomic coordinate data resulting 
# from the CCDC's data processing and validation procedures.
#
#######################################################################

data_LISRUD
_chemical_formula_moiety         'C13 H19 N1 O3'
_chemical_name_systematic        
R-(-)-2-(2,6-dimethylphenoxy)-N-(1-hydroxypropan-2-yl)acetamide
_symmetry_cell_setting           orthorhombic
_symmetry_space_group_name_H-M   'P 21 21 21'
_symmetry_Int_Tables_number      19
_space_group_name_Hall           'P 2ac 2ab'
loop_
_symmetry_equiv_pos_site_id
_symmetry_equiv_pos_as_xyz
1 x,y,z
2 1/2-x,-y,1/2+z
3 1/2+x,1/2-y,-z
4 -x,1/2+y,1/2-z
_cell_length_a                   7.3307(4)
_cell_length_b                   20.5418(9)
_cell_length_c                   8.5970(4)
_cell_angle_alpha                90
_cell_angle_beta                 90
_cell_angle_gamma                90
_cell_volume                     1294.59
_exptl_crystal_description       prism
_cell_formula_units_Z            4
loop_
_atom_site_label
_atom_site_type_symbol
_atom_site_fract_x
_atom_site_fract_y
_atom_site_fract_z
O1 O 0.5057(6) 0.02312(18) 0.7825(5)
O2 O 0.3010(6) 0.1702(2) 0.6546(7)
O3 O -0.1469(6) 0.0645(3) 0.8118(8)
C1 C 0.3327(7) 0.2372(3) 0.6639(6)
N1 N 0.2134(7) 0.0553(3) 0.7560(7)
C2 C 0.3595(8) 0.2690(3) 0.5248(7)
C3 C 0.3904(8) 0.0649(3) 0.7458(7)
C4 C 0.1219(8) -0.0026(3) 0.8134(7)
H1 H 0.2056 -0.0254 0.8873
C5 C 0.4542(8) 0.1302(3) 0.6876(10)
H2 H 0.5315 0.1514 0.7674
H3 H 0.5282 0.1245 0.5923
C6 C -0.0460(8) 0.0198(3) 0.9029(8)
H4 H -0.1232 -0.0182 0.9288
H5 H -0.0081 0.0409 1.0013
C7 C 0.3776(10) 0.3644(4) 0.7090(11)
H6 H 0.3952 0.4095 0.728
C8 C 0.3258(9) 0.2658(5) 0.8059(9)
C9 C 0.3490(11) 0.3275(5) 0.8254(15)
H7 H 0.3445 0.3456 0.9271
C10 C 0.0769(11) -0.0487(3) 0.6807(9)
H8 H 0.1897 -0.0613 0.6272
H9 H -0.0048 -0.0269 0.607
H10 H 0.017 -0.0876 0.7221
C11 C 0.3853(9) 0.3419(5) 0.5491(14)
H11 H 0.4052 0.3709 0.4647
C12 C 0.3606(11) 0.2363(7) 0.3752(9)
H12 H 0.3827 0.2682 0.2926
H13 H 0.2424 0.2152 0.358
H14 H 0.4574 0.2034 0.3739
C13 C 0.2860(14) 0.2239(8) 0.9508(9)
H15 H 0.2693 0.1784 0.9195
H16 H 0.1747 0.2397 1.0015
H17 H 0.3886 0.2271 1.0235
H18 H 0.143(12) 0.087(4) 0.747(10)
H19 H -0.259(17) 0.053(5) 0.781(16)
loop_
_geom_bond_atom_site_label_1
_geom_bond_atom_site_label_2
_geom_bond_site_symmetry_1
_geom_bond_site_symmetry_2
O1 C3 1_555 1_555
O2 C1 1_555 1_555
O3 C6 1_555 1_555
C1 C2 1_555 1_555
N1 C3 1_555 1_555
C2 C11 1_555 1_555
C3 C5 1_555 1_555
C4 N1 1_555 1_555
H1 C4 1_555 1_555
C5 O2 1_555 1_555
H2 C5 1_555 1_555
H3 C5 1_555 1_555
C6 C4 1_555 1_555
H4 C6 1_555 1_555
H5 C6 1_555 1_555
C7 H6 1_555 1_555
C8 C1 1_555 1_555
C9 C7 1_555 1_555
H7 C9 1_555 1_555
C10 C4 1_555 1_555
H8 C10 1_555 1_555
H9 C10 1_555 1_555
H10 C10 1_555 1_555
C11 C7 1_555 1_555
H11 C11 1_555 1_555
C12 C2 1_555 1_555
H12 C12 1_555 1_555
H13 C12 1_555 1_555
H14 C12 1_555 1_555
C13 C8 1_555 1_555
H15 C13 1_555 1_555
H16 C13 1_555 1_555
H17 C13 1_555 1_555
H18 N1 1_555 1_555
H19 O3 1_555 1_555
C8 C9 1_555 1_555

#END
