
#######################################################################
#
#                 Cambridge Crystallographic Data Centre
#                                CCDC 
#
#######################################################################
#
# If this CIF has been generated from an entry in the Cambridge 
# Structural Database, then it will include bibliographic, chemical, 
# crystal, experimental, refinement or atomic coordinate data resulting 
# from the CCDC's data processing and validation procedures.
#
#######################################################################

data_LISSUE
_chemical_formula_moiety         'C17 H22 N2 O2'
_chemical_name_systematic        
2-hydroxy-1-phenyl-4-{[(piperidin-1-yl)imino]methyl}pent-4-en-1-one
_symmetry_cell_setting           triclinic
_symmetry_space_group_name_H-M   'P 1'
_symmetry_Int_Tables_number      1
_space_group_name_Hall           'P 1'
loop_
_symmetry_equiv_pos_site_id
_symmetry_equiv_pos_as_xyz
1 x,y,z
_cell_length_a                   8.1154(11)
_cell_length_b                   9.9402(13)
_cell_length_c                   10.7840(14)
_cell_angle_alpha                78.245(5)
_cell_angle_beta                 87.577(6)
_cell_angle_gamma                69.347(5)
_cell_volume                     796.536
_exptl_crystal_colour            colorless
_exptl_crystal_description       block
_cell_formula_units_Z            2
loop_
_atom_site_label
_atom_site_type_symbol
_atom_site_fract_x
_atom_site_fract_y
_atom_site_fract_z
O1 O 0.4279(3) 0.55808(17) 0.65277(17)
O2 O 0.6028(2) 0.65562(18) 0.45361(17)
H1 H 0.5905(12) 0.579(4) 0.440(3)
N1 N 0.2312(3) 1.08737(19) 0.31504(18)
N2 N 0.2099(3) 1.23451(19) 0.29073(18)
C1 C 0.0624(4) 0.9755(3) 0.8457(3)
H2 H -0.007940 1.037015 0.896654
C2 C 0.1433(4) 0.8275(3) 0.8954(3)
H3 H 0.128122 0.789627 0.979531
C3 C 0.2464(3) 0.7363(3) 0.8196(2)
H4 H 0.299410 0.636420 0.852483
C4 C 0.3846(3) 0.6902(2) 0.6158(2)
C5 C 0.4395(3) 0.7514(2) 0.4862(2)
H5 H 0.451912 0.845236 0.489073
C6 C 0.2928(3) 0.7801(2) 0.3882(2)
H6 H 0.279942 0.687763 0.383633
H7 H 0.182169 0.843126 0.415431
C7 C 0.3310(4) 0.8510(3) 0.2591(2)
C8 C 0.2939(4) 1.0089(3) 0.2319(2)
H8 H 0.316449 1.053863 0.151922
C9 C 0.2119(4) 1.3074(3) 0.1595(2)
H9 H 0.112744 1.307054 0.112458
H10 H 0.319242 1.254116 0.121421
C10 C 0.2014(5) 1.4649(3) 0.1514(3)
H11 H 0.309844 1.464126 0.186518
H12 H 0.190583 1.513970 0.063012
C11 C 0.0485(4) 1.5499(3) 0.2210(3)
H13 H -0.061051 1.562953 0.179013
H14 H 0.053471 1.646197 0.219837
C12 C 0.0851(4) 1.0324(3) 0.7220(3)
H15 H 0.029166 1.131916 0.689089
C13 C 0.1902(3) 0.9426(2) 0.6463(2)
H16 H 0.207009 0.981952 0.562897
C14 C 0.0632(4) 1.3140(3) 0.3611(3)
H17 H 0.075867 1.262652 0.448853
H18 H -0.046116 1.315779 0.326411
C15 C 0.0538(4) 1.4695(3) 0.3557(3)
H19 H -0.050916 1.520888 0.397462
H20 H 0.155663 1.468130 0.400508
C16 C 0.2717(3) 0.7930(2) 0.6944(2)
C17 C 0.4012(5) 0.7743(3) 0.1715(3)
H21 H 0.426738 0.820967 0.093157
H22 H 0.425285 0.673568 0.188074
O3 O 0.5876(3) 0.40237(17) 0.36984(18)
O4 O 0.7059(2) 0.29848(18) 0.61557(19)
H23 H 0.622(5) 0.377(4) 0.615(3)
N3 N 0.6365(2) -0.10771(19) 0.69897(18)
N4 N 0.7032(2) -0.25890(18) 0.73712(17)
C18 C 0.7584(5) -0.0148(3) 0.1464(3)
H24 H 0.786590 -0.076225 0.088250
C19 C 0.7476(4) -0.0716(3) 0.2723(3)
H25 H 0.766490 -0.171068 0.299090
C20 C 0.7087(3) 0.0191(2) 0.3594(3)
H26 H 0.703567 -0.019863 0.444931
C21 C 0.6772(3) 0.1682(2) 0.3196(2)
C22 C 0.6361(3) 0.2699(2) 0.4093(2)
C23 C 0.6524(3) 0.2094(2) 0.5520(2)
H27 H 0.742005 0.110653 0.568188
C24 C 0.4746(3) 0.1980(2) 0.5966(2)
H28 H 0.384913 0.295241 0.579273
H29 H 0.442702 0.138144 0.548116
C25 C 0.4765(3) 0.1328(2) 0.7352(2)
C26 C 0.5578(3) -0.0261(2) 0.7766(2)
H30 H 0.552228 -0.068669 0.861087
C27 C 0.7138(4) -0.3217(3) 0.8720(2)
H31 H 0.598832 -0.284374 0.907832
H32 H 0.795274 -0.292790 0.914230
C28 C 0.7756(4) -0.4883(3) 0.8943(3)
H33 H 0.789158 -0.528286 0.984747
H34 H 0.687004 -0.517009 0.860530
C29 C 0.9480(4) -0.5515(3) 0.8327(3)
H35 H 0.980778 -0.657173 0.844915
H36 H 1.039719 -0.530826 0.871472
C30 C 0.4062(5) 0.2150(3) 0.8191(3)
H37 H 0.408614 0.171634 0.904370
H38 H 0.354271 0.316198 0.793085
C31 C 0.7276(5) 0.1336(3) 0.1056(3)
H39 H 0.734299 0.171935 0.020137
C32 C 0.6871(4) 0.2238(3) 0.1918(3)
H40 H 0.665942 0.323500 0.164176
C33 C 0.8656(3) -0.3185(2) 0.6698(2)
H41 H 0.956352 -0.287994 0.697920
H42 H 0.843832 -0.278748 0.579621
C34 C 0.9302(4) -0.4848(3) 0.6926(3)
H43 H 0.848077 -0.515078 0.652594
H44 H 1.043639 -0.520530 0.654294
loop_
_geom_bond_atom_site_label_1
_geom_bond_atom_site_label_2
_geom_bond_site_symmetry_1
_geom_bond_site_symmetry_2
O1 C4 1_555 1_555
O2 H1 1_555 1_555
N1 N2 1_555 1_555
N2 C9 1_555 1_555
C1 H2 1_555 1_555
C2 C1 1_555 1_555
H3 C2 1_555 1_555
C3 C2 1_555 1_555
H4 C3 1_555 1_555
C4 C5 1_555 1_555
C5 O2 1_555 1_555
H5 C5 1_555 1_555
C6 C5 1_555 1_555
H6 C6 1_555 1_555
H7 C6 1_555 1_555
C7 C6 1_555 1_555
C8 N1 1_555 1_555
H8 C8 1_555 1_555
C9 H9 1_555 1_555
H10 C9 1_555 1_555
C10 C9 1_555 1_555
H11 C10 1_555 1_555
H12 C10 1_555 1_555
C11 C10 1_555 1_555
H13 C11 1_555 1_555
H14 C11 1_555 1_555
C12 C1 1_555 1_555
H15 C12 1_555 1_555
C13 C12 1_555 1_555
H16 C13 1_555 1_555
C14 N2 1_555 1_555
H17 C14 1_555 1_555
H18 C14 1_555 1_555
C15 C11 1_555 1_555
H19 C15 1_555 1_555
H20 C15 1_555 1_555
C16 C3 1_555 1_555
C17 C7 1_555 1_555
H21 C17 1_555 1_555
H22 C17 1_555 1_555
O3 C22 1_555 1_555
O4 H23 1_555 1_555
N3 N4 1_555 1_555
N4 C27 1_555 1_555
C18 H24 1_555 1_555
C19 C18 1_555 1_555
H25 C19 1_555 1_555
C20 C19 1_555 1_555
H26 C20 1_555 1_555
C21 C20 1_555 1_555
C22 C21 1_555 1_555
C23 O4 1_555 1_555
H27 C23 1_555 1_555
C24 C23 1_555 1_555
H28 C24 1_555 1_555
H29 C24 1_555 1_555
C25 C24 1_555 1_555
C26 N3 1_555 1_555
H30 C26 1_555 1_555
C27 H31 1_555 1_555
H32 C27 1_555 1_555
C28 C27 1_555 1_555
H33 C28 1_555 1_555
H34 C28 1_555 1_555
C29 C28 1_555 1_555
H35 C29 1_555 1_555
H36 C29 1_555 1_555
C30 C25 1_555 1_555
H37 C30 1_555 1_555
H38 C30 1_555 1_555
C31 C18 1_555 1_555
H39 C31 1_555 1_555
C32 C21 1_555 1_555
H40 C32 1_555 1_555
C33 N4 1_555 1_555
H41 C33 1_555 1_555
H42 C33 1_555 1_555
C34 C29 1_555 1_555
H43 C34 1_555 1_555
H44 C34 1_555 1_555
C4 C16 1_555 1_555
C7 C8 1_555 1_555
C13 C16 1_555 1_555
C14 C15 1_555 1_555
C22 C23 1_555 1_555
C25 C26 1_555 1_555
C31 C32 1_555 1_555
C33 C34 1_555 1_555

#END
