
#######################################################################
#
#                 Cambridge Crystallographic Data Centre
#                                CCDC 
#
#######################################################################
#
# If this CIF has been generated from an entry in the Cambridge 
# Structural Database, then it will include bibliographic, chemical, 
# crystal, experimental, refinement or atomic coordinate data resulting 
# from the CCDC's data processing and validation procedures.
#
#######################################################################

data_LISSIS
_chemical_formula_moiety         'C18 H22 I1 N3 O2'
_chemical_name_systematic        
3-hydroxy-5-iodo-1-methyl-3-(2-{[(piperidin-1-yl)imino]methyl}prop-2-en-1-yl)-1,3-dihydro-2H-indol-2-one
_symmetry_cell_setting           orthorhombic
_symmetry_space_group_name_H-M   'P 21 21 21'
_symmetry_Int_Tables_number      19
_space_group_name_Hall           'P 2ac 2ab'
loop_
_symmetry_equiv_pos_site_id
_symmetry_equiv_pos_as_xyz
1 x,y,z
2 1/2-x,-y,1/2+z
3 -x,1/2+y,1/2-z
4 1/2+x,1/2-y,-z
_cell_length_a                   6.5952(3)
_cell_length_b                   8.1944(3)
_cell_length_c                   34.4405(11)
_cell_angle_alpha                90
_cell_angle_beta                 90
_cell_angle_gamma                90
_cell_volume                     1861.29
_exptl_crystal_colour            colorless
_exptl_crystal_description       plate
_cell_formula_units_Z            4
loop_
_atom_site_label
_atom_site_type_symbol
_atom_site_fract_x
_atom_site_fract_y
_atom_site_fract_z
I1 I 0.07342(15) 0.16458(12) 0.34061(2)
O1 O 0.2842(13) 0.5855(8) 0.4752(2)
H1 H 0.2440 0.6802 0.4753
O2 O 0.7126(15) 0.5994(9) 0.5028(2)
N1 N 0.4527(13) 0.7007(10) 0.3469(2)
N2 N 0.4181(13) 0.6730(11) 0.3084(2)
N3 N 0.7193(12) 0.3824(9) 0.4612(2)
C1 C 0.5017(16) 0.7351(10) 0.4297(3)
H2 H 0.3810 0.7687 0.4157
H3 H 0.5311 0.8181 0.4490
C2 C 0.5942(14) 0.3212(9) 0.4315(2)
C3 C 0.4356(14) 0.4270(9) 0.4244(2)
C4 C 0.6762(15) 0.7255(10) 0.4016(3)
C5 C 0.6123(18) 0.1725(11) 0.4117(3)
H4 H 0.7212 0.1031 0.4162
C6 C 0.3032(18) 0.2379(12) 0.3794(3)
C7 C 0.4575(14) 0.5727(10) 0.4507(2)
C8 C 0.6332(16) 0.6890(12) 0.3608(3)
H5 H 0.7386 0.6565 0.3447
C9 C 0.6446(16) 0.5218(11) 0.4750(3)
C10 C 0.2845(15) 0.3876(12) 0.3986(3)
H6 H 0.1754 0.4569 0.3941
C11 C 0.8940(18) 0.2979(14) 0.4771(4)
H7 H 0.8491 0.2087 0.4930
H8 H 0.9723 0.3723 0.4926
H9 H 0.9762 0.2569 0.4563
C12 C 0.465(2) 0.1328(12) 0.3855(3)
H10 H 0.4733 0.0354 0.3717
C13 C 0.498(2) 0.5466(18) 0.2451(4)
H11 H 0.5793 0.4613 0.2334
H12 H 0.5308 0.6489 0.2324
C14 C 0.548(2) 0.5588(16) 0.2878(3)
H13 H 0.5349 0.4517 0.2995
H14 H 0.6882 0.5930 0.2906
C15 C 0.866(2) 0.7498(15) 0.4129(4)
C16 C 0.2011(18) 0.6429(17) 0.3029(3)
H15 H 0.1246 0.7296 0.3153
H16 H 0.1649 0.5409 0.3154
C17 C 0.143(2) 0.634(2) 0.2601(4)
H17 H 0.0009 0.6060 0.2578
H18 H 0.1631 0.7404 0.2482
C18 C 0.271(2) 0.5081(19) 0.2394(4)
H19 H 0.2392 0.5085 0.2119
H20 H 0.2413 0.4005 0.2496
loop_
_geom_bond_atom_site_label_1
_geom_bond_atom_site_label_2
_geom_bond_site_symmetry_1
_geom_bond_site_symmetry_2
I1 C6 1_555 1_555
O1 H1 1_555 1_555
O2 C9 1_555 1_555
N1 N2 1_555 1_555
N2 C14 1_555 1_555
N3 C2 1_555 1_555
C1 H2 1_555 1_555
H3 C1 1_555 1_555
C2 C3 1_555 1_555
C3 C7 1_555 1_555
C4 C1 1_555 1_555
C5 C2 1_555 1_555
H4 C5 1_555 1_555
C6 C10 1_555 1_555
C7 O1 1_555 1_555
C8 N1 1_555 1_555
H5 C8 1_555 1_555
C9 N3 1_555 1_555
C10 C3 1_555 1_555
H6 C10 1_555 1_555
C11 N3 1_555 1_555
H7 C11 1_555 1_555
H8 C11 1_555 1_555
H9 C11 1_555 1_555
C12 C5 1_555 1_555
H10 C12 1_555 1_555
C13 H11 1_555 1_555
H12 C13 1_555 1_555
C14 C13 1_555 1_555
H13 C14 1_555 1_555
H14 C14 1_555 1_555
C15 C4 1_555 1_555
C16 N2 1_555 1_555
H15 C16 1_555 1_555
H16 C16 1_555 1_555
C17 C16 1_555 1_555
H17 C17 1_555 1_555
H18 C17 1_555 1_555
C18 C13 1_555 1_555
H19 C18 1_555 1_555
H20 C18 1_555 1_555
C1 C7 1_555 1_555
C4 C8 1_555 1_555
C6 C12 1_555 1_555
C7 C9 1_555 1_555
C17 C18 1_555 1_555

#END
