
#######################################################################
#
#                 Cambridge Crystallographic Data Centre
#                                CCDC 
#
#######################################################################
#
# If this CIF has been generated from an entry in the Cambridge 
# Structural Database, then it will include bibliographic, chemical, 
# crystal, experimental, refinement or atomic coordinate data resulting 
# from the CCDC's data processing and validation procedures.
#
#######################################################################

data_LISTOZ
_chemical_formula_moiety         'C24 H24 I1 N3 O3'
_chemical_name_systematic        
't-butyl [1-benzyl-3-(2-cyanoprop-2-en-1-yl)-7-iodo-2-oxo-2,3-dihydro-1H-indol-3-yl]carbamate'
_symmetry_cell_setting           triclinic
_symmetry_space_group_name_H-M   'P 1'
_symmetry_Int_Tables_number      1
_space_group_name_Hall           'P 1'
loop_
_symmetry_equiv_pos_site_id
_symmetry_equiv_pos_as_xyz
1 x,y,z
_cell_length_a                   12.050(6)
_cell_length_b                   12.052(7)
_cell_length_c                   16.964(16)
_cell_angle_alpha                90.01(3)
_cell_angle_beta                 90.05(2)
_cell_angle_gamma                90.012(11)
_cell_volume                     2463.62
_exptl_crystal_colour            colorless
_exptl_crystal_description       block
_cell_formula_units_Z            4
loop_
_atom_site_label
_atom_site_type_symbol
_atom_site_fract_x
_atom_site_fract_y
_atom_site_fract_z
I1 I 1.07724(8) 0.16473(9) 0.08065(10)
C1 C 0.9257(15) 0.633(2) 0.0690(13)
H1 H 0.988565 0.643408 0.038057
H2 H 0.924132 0.659360 0.120444
O1 O 0.6490(6) 0.3597(7) -0.0061(4)
O2 O 0.5993(8) 0.2574(7) 0.1639(5)
O3 O 0.4903(9) 0.3747(8) 0.2359(6)
N1 N 0.8149(7) 0.3039(7) 0.0454(5)
N2 N 0.6166(8) 0.4430(8) 0.1592(5)
H3 H 0.585103 0.505270 0.169803
C2 C 0.7202(8) 0.3632(8) 0.0438(5)
C3 C 0.7187(9) 0.4417(9) 0.1141(6)
C4 C 0.5029(17) 0.215(2) 0.3241(11)
H4 H 0.459475 0.170632 0.359570
H5 H 0.552829 0.260888 0.353878
H6 H 0.544790 0.167359 0.289889
C5 C 0.8541(15) 0.4343(16) 0.2333(8)
H7 H 0.816802 0.487170 0.263142
C6 C 0.7302(10) 0.0779(10) 0.0309(7)
H8 H 0.693176 0.127140 0.063872
C7 C 0.8154(10) 0.1157(10) -0.0167(6)
C8 C 0.8752(9) 0.3218(9) 0.1146(6)
C9 C 0.8433(10) 0.2369(10) -0.0236(7)
H9 H 0.922335 0.243941 -0.033304
H10 H 0.804836 0.266944 -0.069081
C10 C 0.8177(9) 0.4004(10) 0.1590(6)
C11 C 0.7003(14) -0.0321(11) 0.0295(8)
H11 H 0.642415 -0.055924 0.061581
C12 C 0.4271(12) 0.2872(14) 0.2756(9)
C13 C 0.8692(14) 0.0382(12) -0.0652(10)
H12 H 0.924627 0.061958 -0.099373
C14 C 0.5708(10) 0.3482(10) 0.1847(7)
N3 N 0.8502(17) 0.5130(16) -0.1018(8)
C15 C 0.7527(15) -0.1073(12) -0.0173(9)
H13 H 0.729661 -0.180971 -0.018765
C16 C 0.7347(10) 0.5625(9) 0.0835(7)
H14 H 0.673517 0.580614 0.048591
H15 H 0.731367 0.612870 0.128019
C17 C 0.8411(10) 0.5816(10) 0.0405(7)
C18 C 0.9725(10) 0.2757(12) 0.1427(9)
C19 C 0.9510(19) 0.383(2) 0.2590(11)
H16 H 0.977093 0.400147 0.309081
C20 C 0.8502(13) 0.5448(12) -0.0365(8)
C21 C 0.3633(15) 0.2187(16) 0.2159(12)
H17 H 0.345178 0.263956 0.171101
H18 H 0.296163 0.191547 0.239491
H19 H 0.407979 0.157100 0.199152
C22 C 1.0086(15) 0.3098(19) 0.2167(11)
H20 H 1.074384 0.281147 0.236950
C23 C 0.8416(17) -0.0713(14) -0.0628(12)
H21 H 0.882526 -0.122402 -0.091887
C24 C 0.350(2) 0.358(2) 0.3244(18)
H22 H 0.333438 0.424864 0.296413
H23 H 0.385480 0.375662 0.373582
H24 H 0.282897 0.317604 0.334391
C25 C 0.623(2) 0.0634(16) 0.8198(13)
H25 H 0.633475 -0.000235 0.789701
H26 H 0.650460 0.066319 0.871180
I2 I 0.15469(9) -0.08705(9) 0.83064(10)
O4 O 0.3507(7) 0.3410(7) 0.7438(4)
C26 C 0.345(2) 0.642(2) 1.0726(18)
H27 H 0.301104 0.705811 1.086233
H28 H 0.407804 0.665311 1.041937
H29 H 0.370296 0.606332 1.119850
O5 O 0.2473(7) 0.3906(8) 0.9139(5)
O6 O 0.3645(8) 0.4993(9) 0.9861(6)
N4 N 0.2940(7) 0.1757(7) 0.7955(5)
N5 N 0.4328(8) 0.3734(8) 0.9092(5)
H30 H 0.495018 0.405403 0.919470
C27 C 0.3531(8) 0.2705(8) 0.7939(5)
C28 C 0.4318(9) 0.2715(9) 0.8644(6)
C29 C 0.4249(16) 0.1364(15) 0.9838(8)
H31 H 0.477839 0.173056 1.014067
C30 C -0.0417(11) 0.2901(14) 0.7794(8)
H32 H -0.065058 0.348466 0.811232
C31 C 0.0676(10) 0.2595(11) 0.7808(7)
H33 H 0.116948 0.296106 0.814050
C32 C 0.2274(10) 0.1468(10) 0.7267(7)
H34 H 0.234415 0.067695 0.717351
H35 H 0.257569 0.184849 0.681158
C33 C 0.3119(10) 0.1147(9) 0.8643(6)
C34 C 0.3901(10) 0.1721(9) 0.9091(6)
C35 C 0.3375(10) 0.4191(10) 0.9352(7)
C36 C 0.205(2) 0.4880(18) 1.0733(12)
H36 H 0.164945 0.438950 1.038812
H37 H 0.152925 0.531396 1.103265
H38 H 0.250145 0.445293 1.108559
C37 C 0.5525(9) 0.2558(10) 0.8335(7)
H39 H 0.570298 0.317027 0.798647
H40 H 0.603084 0.259271 0.877973
C38 C -0.1178(11) 0.2371(15) 0.7325(10)
H41 H -0.191645 0.259609 0.731331
C39 C 0.0279(12) 0.1214(15) 0.6848(10)
H42 H 0.051861 0.065989 0.650654
C40 C 0.5716(10) 0.1486(10) 0.7901(7)
C41 C 0.1049(10) 0.1751(11) 0.7334(6)
C42 C 0.2091(16) 0.6263(14) 0.9658(12)
H43 H 0.254731 0.643540 0.921109
H44 H 0.182305 0.693889 0.988995
H45 H 0.147250 0.581836 0.949166
C43 C 0.5332(12) 0.1398(14) 0.7135(8)
C44 C 0.2764(14) 0.5632(13) 1.0257(9)
C45 C -0.0812(14) 0.1490(17) 0.6867(12)
H46 H -0.132006 0.108470 0.657039
C46 C 0.2672(12) 0.0182(11) 0.8927(9)
N6 N 0.5028(16) 0.1411(18) 0.6477(8)
C47 C 0.300(2) -0.0179(17) 0.9673(14)
H47 H 0.271031 -0.083382 0.987537
C48 C 0.370(3) 0.037(2) 1.0080(12)
H48 H 0.385830 0.010914 1.058139
I3 I -0.09708(8) 0.83548(9) 0.58048(10)
C49 C 0.0539(15) 0.367(2) 0.5690(13)
H49 H -0.009322 0.356501 0.538322
H50 H 0.055790 0.339787 0.620433
O7 O 0.3310(6) 0.6400(7) 0.4940(4)
C50 C 0.630(2) 0.642(2) 0.8251(18)
H51 H 0.698074 0.681893 0.834556
H52 H 0.646314 0.574609 0.797362
H53 H 0.595445 0.625081 0.874464
O8 O 0.4896(9) 0.6263(8) 0.7357(6)
C51 C 0.2497(11) 0.9224(10) 0.5304(7)
H54 H 0.286924 0.873068 0.563248
O9 O 0.3800(8) 0.7437(7) 0.6638(5)
C52 C 0.1375(10) 0.7629(10) 0.4762(7)
H55 H 0.058690 0.755243 0.466026
H56 H 0.176715 0.733080 0.431006
N7 N 0.1657(7) 0.6961(7) 0.5454(5)
N8 N 0.3638(8) 0.5574(8) 0.6593(5)
H57 H 0.395654 0.495211 0.669599
C53 C 0.2600(8) 0.6369(8) 0.5441(5)
C54 C 0.1045(9) 0.6784(10) 0.6142(6)
C55 C 0.2613(9) 0.5588(9) 0.6146(6)
C56 C 0.1645(10) 0.8847(10) 0.4832(7)
C57 C 0.1264(15) 0.5651(16) 0.7336(8)
H58 H 0.163370 0.511927 0.763351
C58 C 0.1620(9) 0.6000(10) 0.6593(6)
C59 C 0.2802(14) 1.0325(11) 0.5293(8)
H59 H 0.338357 1.056316 0.561165
C60 C 0.4095(10) 0.6528(10) 0.6847(7)
C61 C 0.4767(17) 0.786(2) 0.8248(11)
H60 H 0.436057 0.834939 0.790844
H61 H 0.520178 0.828747 0.861251
H62 H 0.425709 0.739942 0.853526
C62 C 0.1113(15) 0.9628(13) 0.4347(10)
H63 H 0.056053 0.938948 0.400308
C63 C 0.1393(10) 0.4179(10) 0.5402(7)
C64 C 0.2458(10) 0.4377(10) 0.5836(7)
H64 H 0.307225 0.419995 0.548908
H65 H 0.249282 0.387277 0.628118
C65 C 0.0077(10) 0.7238(12) 0.6427(9)
N9 N 0.1313(18) 0.4880(17) 0.3976(8)
C66 C 0.1308(14) 0.4557(12) 0.4631(8)
C67 C -0.0287(15) 0.690(2) 0.7169(11)
H66 H -0.094432 0.719375 0.737034
C68 C 0.2264(15) 1.1078(12) 0.4823(10)
H67 H 0.248994 1.181553 0.481013
C69 C 0.6167(15) 0.7808(16) 0.7158(12)
H68 H 0.638108 0.733896 0.672656
H69 H 0.681836 0.811368 0.740122
H70 H 0.570672 0.839906 0.696545
C70 C 0.5528(13) 0.7134(13) 0.7757(9)
C71 C 0.0282(19) 0.619(2) 0.7590(11)
H71 H 0.002211 0.602288 0.809236
C72 C 0.1381(17) 1.0722(14) 0.4367(12)
H72 H 0.097246 1.123095 0.407407
C73 C 0.357(2) 0.9373(16) 0.3202(13)
H73 H 0.347991 1.001340 0.290379
H74 H 0.330498 0.934278 0.371554
I4 I 0.82541(9) 1.08720(8) 0.33048(10)
O10 O 0.6161(8) 0.5002(9) 0.4860(6)
O11 O 0.7332(7) 0.6096(8) 0.4137(5)
O12 O 0.6294(7) 0.6591(6) 0.2437(4)
N10 N 0.6860(7) 0.8245(7) 0.2956(5)
N11 N 0.5471(8) 0.6265(8) 0.4095(5)
H75 H 0.484871 0.595200 0.420555
C74 C 0.6270(8) 0.7303(8) 0.2938(5)
C75 C 0.7535(10) 0.8529(10) 0.2264(7)
H76 H 0.746314 0.931870 0.216568
H77 H 0.723454 0.814307 0.180958
C76 C 0.6691(10) 0.8857(9) 0.3644(6)
C77 C 0.777(2) 0.5145(17) 0.5742(11)
H78 H 0.817740 0.471904 0.612361
H79 H 0.732286 0.568611 0.600765
H80 H 0.828182 0.551358 0.539583
C78 C 0.8747(10) 0.8253(10) 0.2332(6)
C79 C 0.5543(15) 0.8641(15) 0.4831(8)
H81 H 0.501375 0.827127 0.513129
C80 C 0.5893(10) 0.8279(9) 0.4087(6)
C81 C 0.9127(10) 0.7402(11) 0.2805(7)
H82 H 0.863226 0.703031 0.313190
C82 C 0.4279(9) 0.7440(10) 0.3334(7)
H83 H 0.410045 0.682784 0.298453
H84 H 0.377665 0.740297 0.377919
C83 C 0.6434(10) 0.5807(10) 0.4345(7)
C84 C 0.5487(9) 0.7286(9) 0.3639(6)
C85 C 0.9520(13) 0.8794(15) 0.1844(10)
H85 H 0.927804 0.934921 0.150426
C86 C 1.0983(11) 0.7634(15) 0.2327(9)
H86 H 1.172330 0.741534 0.231737
C87 C 1.0226(11) 0.7094(14) 0.2799(8)
H87 H 1.046141 0.651368 0.311896
C88 C 0.4462(12) 0.8600(13) 0.2135(8)
C89 C 0.4079(10) 0.8515(10) 0.2900(7)
N12 N 0.4776(16) 0.8594(18) 0.1473(9)
C90 C 0.608(2) 0.9630(19) 0.5081(11)
H88 H 0.590821 0.990098 0.557944
C91 C 0.681(2) 1.0195(15) 0.4658(12)
H89 H 0.710642 1.085063 0.485613
C92 C 0.7707(16) 0.3744(15) 0.4662(12)
H90 H 0.724323 0.355388 0.422165
H91 H 0.799386 0.307931 0.489729
H92 H 0.831150 0.419858 0.448426
C93 C 0.7031(14) 0.4378(13) 0.5266(9)
C94 C 0.7131(12) 0.9820(11) 0.3927(9)
C95 C 1.0611(14) 0.8520(17) 0.1861(12)
H93 H 1.111589 0.892171 0.156044
C96 C 0.631(2) 0.360(2) 0.5757(18)
H94 H 0.561304 0.349057 0.549924
H95 H 0.619316 0.392042 0.626841
H96 H 0.668355 0.289910 0.581459
loop_
_geom_bond_atom_site_label_1
_geom_bond_atom_site_label_2
_geom_bond_site_symmetry_1
_geom_bond_site_symmetry_2
I1 C18 1_555 1_555
C1 H1 1_555 1_555
H2 C1 1_555 1_555
O1 C2 1_555 1_555
O2 C14 1_555 1_555
O3 C12 1_555 1_555
N1 C2 1_555 1_555
N2 H3 1_555 1_555
C2 C3 1_555 1_555
C3 N2 1_555 1_555
C4 H4 1_555 1_555
H5 C4 1_555 1_555
H6 C4 1_555 1_555
C5 H7 1_555 1_555
C6 H8 1_555 1_555
C7 C6 1_555 1_555
C8 N1 1_555 1_555
C9 N1 1_555 1_555
H9 C9 1_555 1_555
H10 C9 1_555 1_555
C10 C3 1_555 1_555
C11 C6 1_555 1_555
H11 C11 1_555 1_555
C12 C4 1_555 1_555
C13 C7 1_555 1_555
H12 C13 1_555 1_555
C14 O3 1_555 1_555
N3 C20 1_555 1_555
C15 C11 1_555 1_555
H13 C15 1_555 1_555
C16 C3 1_555 1_555
H14 C16 1_555 1_555
H15 C16 1_555 1_555
C17 C1 1_555 1_555
C18 C8 1_555 1_555
C19 C5 1_555 1_555
H16 C19 1_555 1_555
C20 C17 1_555 1_555
C21 C12 1_555 1_555
H17 C21 1_555 1_555
H18 C21 1_555 1_555
H19 C21 1_555 1_555
C22 C18 1_555 1_555
H20 C22 1_555 1_555
C23 C13 1_555 1_555
H21 C23 1_555 1_555
C24 C12 1_555 1_555
H22 C24 1_555 1_555
H23 C24 1_555 1_555
H24 C24 1_555 1_555
C25 H25 1_555 1_555
H26 C25 1_555 1_555
I2 C46 1_555 1_555
O4 C27 1_555 1_555
C26 H27 1_555 1_555
H28 C26 1_555 1_555
H29 C26 1_555 1_555
O5 C35 1_555 1_555
O6 C35 1_555 1_555
N4 C27 1_555 1_555
N5 H30 1_555 1_555
C27 C28 1_555 1_555
C28 N5 1_555 1_555
C29 H31 1_555 1_555
C30 H32 1_555 1_555
C31 C30 1_555 1_555
H33 C31 1_555 1_555
C32 N4 1_555 1_555
H34 C32 1_555 1_555
H35 C32 1_555 1_555
C33 N4 1_555 1_555
C34 C28 1_555 1_555
C35 N5 1_555 1_555
C36 H36 1_555 1_555
H37 C36 1_555 1_555
H38 C36 1_555 1_555
C37 C28 1_555 1_555
H39 C37 1_555 1_555
H40 C37 1_555 1_555
C38 C30 1_555 1_555
H41 C38 1_555 1_555
C39 H42 1_555 1_555
C40 C25 1_555 1_555
C41 C31 1_555 1_555
C42 H43 1_555 1_555
H44 C42 1_555 1_555
H45 C42 1_555 1_555
C43 C40 1_555 1_555
C44 C26 1_555 1_555
C45 C38 1_555 1_555
H46 C45 1_555 1_555
C46 C33 1_555 1_555
N6 C43 1_555 1_555
C47 C46 1_555 1_555
H47 C47 1_555 1_555
C48 C29 1_555 1_555
H48 C48 1_555 1_555
I3 C65 1_555 1_555
C49 H49 1_555 1_555
H50 C49 1_555 1_555
O7 C53 1_555 1_555
C50 H51 1_555 1_555
H52 C50 1_555 1_555
H53 C50 1_555 1_555
O8 C60 1_555 1_555
C51 H54 1_555 1_555
O9 C60 1_555 1_555
C52 H55 1_555 1_555
H56 C52 1_555 1_555
N7 C52 1_555 1_555
N8 H57 1_555 1_555
C53 N7 1_555 1_555
C54 N7 1_555 1_555
C55 N8 1_555 1_555
C56 C51 1_555 1_555
C57 H58 1_555 1_555
C58 C54 1_555 1_555
C59 C51 1_555 1_555
H59 C59 1_555 1_555
C60 N8 1_555 1_555
C61 H60 1_555 1_555
H61 C61 1_555 1_555
H62 C61 1_555 1_555
C62 C56 1_555 1_555
H63 C62 1_555 1_555
C63 C49 1_555 1_555
C64 C55 1_555 1_555
H64 C64 1_555 1_555
H65 C64 1_555 1_555
C65 C54 1_555 1_555
N9 C66 1_555 1_555
C66 C63 1_555 1_555
C67 C65 1_555 1_555
H66 C67 1_555 1_555
C68 C59 1_555 1_555
H67 C68 1_555 1_555
C69 H68 1_555 1_555
H69 C69 1_555 1_555
H70 C69 1_555 1_555
C70 C50 1_555 1_555
C71 C57 1_555 1_555
H71 C71 1_555 1_555
C72 C62 1_555 1_555
H72 C72 1_555 1_555
C73 H73 1_555 1_555
H74 C73 1_555 1_555
I4 C94 1_555 1_555
O10 C83 1_555 1_555
O11 C83 1_555 1_555
O12 C74 1_555 1_555
N10 C74 1_555 1_555
N11 H75 1_555 1_555
C74 C84 1_555 1_555
C75 N10 1_555 1_555
H76 C75 1_555 1_555
H77 C75 1_555 1_555
C76 N10 1_555 1_555
C77 H78 1_555 1_555
H79 C77 1_555 1_555
H80 C77 1_555 1_555
C78 C75 1_555 1_555
C79 H81 1_555 1_555
C80 C76 1_555 1_555
C81 C78 1_555 1_555
H82 C81 1_555 1_555
C82 H83 1_555 1_555
H84 C82 1_555 1_555
C83 N11 1_555 1_555
C84 N11 1_555 1_555
C85 C78 1_555 1_555
H85 C85 1_555 1_555
C86 H86 1_555 1_555
C87 C81 1_555 1_555
H87 C87 1_555 1_555
C88 C89 1_555 1_555
C89 C73 1_555 1_555
N12 C88 1_555 1_555
C90 C79 1_555 1_555
H88 C90 1_555 1_555
C91 C90 1_555 1_555
H89 C91 1_555 1_555
C92 H90 1_555 1_555
H91 C92 1_555 1_555
H92 C92 1_555 1_555
C93 O10 1_555 1_555
C94 C76 1_555 1_555
C95 C85 1_555 1_555
H93 C95 1_555 1_555
C96 C93 1_555 1_555
H94 C96 1_555 1_555
H95 C96 1_555 1_555
H96 C96 1_555 1_555
N2 C14 1_555 1_555
C5 C10 1_555 1_555
C7 C9 1_555 1_555
C8 C10 1_555 1_555
C15 C23 1_555 1_555
C16 C17 1_555 1_555
C19 C22 1_555 1_555
O6 C44 1_555 1_555
C29 C34 1_555 1_555
C32 C41 1_555 1_555
C33 C34 1_555 1_555
C36 C44 1_555 1_555
C37 C40 1_555 1_555
C39 C41 1_555 1_555
C39 C45 1_555 1_555
C42 C44 1_555 1_555
C47 C48 1_555 1_555
O8 C70 1_555 1_555
C52 C56 1_555 1_555
C53 C55 1_555 1_555
C55 C58 1_555 1_555
C57 C58 1_555 1_555
C61 C70 1_555 1_555
C63 C64 1_555 1_555
C67 C71 1_555 1_555
C68 C72 1_555 1_555
C69 C70 1_555 1_555
C77 C93 1_555 1_555
C79 C80 1_555 1_555
C80 C84 1_555 1_555
C82 C84 1_555 1_555
C82 C89 1_555 1_555
C86 C87 1_555 1_555
C86 C95 1_555 1_555
C91 C94 1_555 1_555
C92 C93 1_555 1_555

#END
