
#######################################################################
#
#                 Cambridge Crystallographic Data Centre
#                                CCDC 
#
#######################################################################
#
# If this CIF has been generated from an entry in the Cambridge 
# Structural Database, then it will include bibliographic, chemical, 
# crystal, experimental, refinement or atomic coordinate data resulting 
# from the CCDC's data processing and validation procedures.
#
#######################################################################

data_LISVIV
_chemical_formula_moiety         'C37 H32 N3 1+,B1 F4 1-'
_chemical_name_systematic        
'3-methyl-1-(2-phenylethyl)-4-[4-(triphenylethenyl)phenyl]-1H-1,2,3-triazol-3-ium tetrafluoroborate'
_symmetry_cell_setting           monoclinic
_symmetry_space_group_name_H-M   'P 21/c'
_symmetry_Int_Tables_number      14
_space_group_name_Hall           '-P 2ybc'
loop_
_symmetry_equiv_pos_site_id
_symmetry_equiv_pos_as_xyz
1 x,y,z
2 -x,1/2+y,1/2-z
3 -x,-y,-z
4 x,1/2-y,1/2+z
_cell_length_a                   20.354(4)
_cell_length_b                   11.829(2)
_cell_length_c                   13.889(3)
_cell_angle_alpha                90
_cell_angle_beta                 103.45(3)
_cell_angle_gamma                90
_cell_volume                     3252.3
_exptl_crystal_colour            colorless
_exptl_crystal_description       prism
_cell_formula_units_Z            4
loop_
_atom_site_label
_atom_site_type_symbol
_atom_site_fract_x
_atom_site_fract_y
_atom_site_fract_z
N1 N 0.48446(10) -0.03368(17) 0.22891(15)
N2 N 0.42068(10) -0.0421(2) 0.23313(19)
C1 C 0.72548(13) 0.2790(3) 0.5283(2)
H1 H 0.7256 0.1999 0.5403
C2 C 0.67792(15) 0.3469(4) 0.5572(2)
H2 H 0.6454 0.3142 0.5879
C3 C 0.67791(18) 0.4620(4) 0.5413(3)
H3 H 0.6448 0.5083 0.5599
C4 C 0.72576(17) 0.5097(3) 0.4987(2)
H4 H 0.7262 0.5891 0.4889
C5 C 0.77349(14) 0.4417(2) 0.4700(2)
H5 H 0.8070 0.4754 0.4417
C6 C 0.77300(12) 0.3253(2) 0.48192(18)
C7 C 0.82146(12) 0.2530(2) 0.44307(18)
C8 C 0.89370(12) 0.2887(2) 0.47317(19)
C9 C 0.92178(13) 0.3148(2) 0.5720(2)
H6 H 0.8950 0.3082 0.6194
C10 C 0.98836(14) 0.3503(2) 0.6021(3)
H7 H 1.0069 0.3677 0.6698
C11 C 1.02760(15) 0.3602(3) 0.5345(3)
H8 H 1.0733 0.3838 0.5555
C12 C 1.00080(14) 0.3362(2) 0.4369(3)
H9 H 1.0279 0.3441 0.3900
C13 C 0.93410(12) 0.3001(2) 0.4057(2)
H10 H 0.9161 0.2832 0.3378
C14 C 0.80098(11) 0.1614(2) 0.38470(17)
C15 C 0.84803(11) 0.0801(2) 0.35340(17)
C16 C 0.89910(12) 0.0270(2) 0.42296(19)
H11 H 0.9072 0.0482 0.4907
C17 C 0.93803(14) -0.0565(2) 0.3941(2)
H12 H 0.9718 -0.0937 0.4425
C18 C 0.92835(15) -0.0861(2) 0.2959(2)
H13 H 0.9560 -0.1421 0.2762
C19 C 0.87787(15) -0.0334(3) 0.2263(2)
H14 H 0.8708 -0.0535 0.1584
C20 C 0.83781(13) 0.0479(2) 0.2548(2)
H15 H 0.8028 0.0825 0.2064
C21 C 0.72811(11) 0.1287(2) 0.35237(18)
C22 C 0.70948(13) 0.0180(2) 0.3671(2)
H16 H 0.7435 -0.0368 0.3910
C23 C 0.64199(13) -0.0135(2) 0.3474(2)
H17 H 0.6299 -0.0889 0.3593
C24 C 0.59223(12) 0.0659(2) 0.31020(18)
C25 C 0.61051(11) 0.1742(2) 0.28935(17)
H18 H 0.5767 0.2272 0.2602
C26 C 0.67780(11) 0.2055(2) 0.31067(17)
H19 H 0.6898 0.2804 0.2967
C27 C 0.52029(12) 0.0384(2) 0.29787(18)
C28 C 0.47501(14) 0.0764(3) 0.3483(3)
H20 H 0.4798(17) 0.128(2) 0.4019(18)
C29 C 0.50831(14) -0.0986(2) 0.1541(2)
H21 H 0.5565 -0.0836 0.1602
H22 H 0.5016 -0.1794 0.1640
H23 H 0.4828 -0.0763 0.0880
N3 N 0.4195(2) 0.0148(4) 0.3202(3)
C30 C 0.3557(2) 0.0220(4) 0.3517(3)
H24 H 0.3641 0.0561 0.4185
H25 H 0.3375 -0.0550 0.3556
C31 C 0.3041(2) 0.0928(5) 0.2800(4)
H26 H 0.3220 0.1702 0.2771
H27 H 0.2963 0.0594 0.2129
C32 C 0.23767(15) 0.0984(3) 0.3118(3)
C33 C 0.1881(2) 0.0172(3) 0.2791(3)
H28 H 0.1962 -0.0428 0.2379
C34 C 0.12688(18) 0.0238(5) 0.3068(5)
H29 H 0.0930 -0.0317 0.2845
C35 C 0.11513(19) 0.1117(6) 0.3671(5)
H30 H 0.0733 0.1162 0.3861
C36 C 0.1647(3) 0.1929(4) 0.3998(4)
H31 H 0.1566 0.2529 0.4410
C37 C 0.2259(2) 0.1863(3) 0.3721(3)
H32 H 0.2598 0.2418 0.3944
B1 B 0.45412(19) 0.2324(3) 0.0669(2)
F1 F 0.42886(15) 0.2299(2) 0.15018(17)
F2 F 0.48773(12) 0.13439(18) 0.06310(15)
F3 F 0.49761(16) 0.3209(2) 0.07483(19)
F4 F 0.40555(11) 0.2470(2) -0.01822(16)
N4? N 0.4105(3) 0.0432(7) 0.2832(6)
C38? C 0.3417(3) 0.0737(7) 0.2912(6)
H33? H 0.3100 0.0627 0.2261
H34? H 0.3408 0.1547 0.3088
C39? C 0.3184(3) 0.0042(6) 0.3677(5)
H35? H 0.3478 0.0181 0.4342
H36? H 0.3203 -0.0773 0.3524
C40? C 0.2457(2) 0.0395(5) 0.3654(4)
C41? C 0.1926(3) -0.0261(5) 0.3131(4)
H37? H 0.2017 -0.0925 0.2799
C42? C 0.1263(2) 0.0053(7) 0.3094(7)
H38? H 0.0900 -0.0396 0.2737
C43? C 0.1130(2) 0.1024(8) 0.3581(8)
H39? H 0.0677 0.1239 0.3556
C44? C 0.1661(4) 0.1680(6) 0.4103(6)
H40? H 0.1571 0.2344 0.4435
C45? C 0.2325(3) 0.1366(4) 0.4140(4)
H41? H 0.2687 0.1815 0.4497
loop_
_geom_bond_atom_site_label_1
_geom_bond_atom_site_label_2
_geom_bond_site_symmetry_1
_geom_bond_site_symmetry_2
N1 N2 1_555 1_555
N2 N3 1_555 1_555
C1 H1 1_555 1_555
C2 C1 1_555 1_555
H2 C2 1_555 1_555
C3 C2 1_555 1_555
H3 C3 1_555 1_555
C4 C3 1_555 1_555
H4 C4 1_555 1_555
C5 C4 1_555 1_555
H5 C5 1_555 1_555
C6 C1 1_555 1_555
C7 C6 1_555 1_555
C8 C7 1_555 1_555
C9 C8 1_555 1_555
H6 C9 1_555 1_555
C10 C9 1_555 1_555
H7 C10 1_555 1_555
C11 C10 1_555 1_555
H8 C11 1_555 1_555
C12 C11 1_555 1_555
H9 C12 1_555 1_555
C13 C8 1_555 1_555
H10 C13 1_555 1_555
C14 C7 1_555 1_555
C15 C14 1_555 1_555
C16 C15 1_555 1_555
H11 C16 1_555 1_555
C17 C16 1_555 1_555
H12 C17 1_555 1_555
C18 C17 1_555 1_555
H13 C18 1_555 1_555
C19 C18 1_555 1_555
H14 C19 1_555 1_555
C20 C15 1_555 1_555
H15 C20 1_555 1_555
C21 C14 1_555 1_555
C22 C21 1_555 1_555
H16 C22 1_555 1_555
C23 C22 1_555 1_555
H17 C23 1_555 1_555
C24 C23 1_555 1_555
C25 C24 1_555 1_555
H18 C25 1_555 1_555
C26 C21 1_555 1_555
H19 C26 1_555 1_555
C27 N1 1_555 1_555
C28 C27 1_555 1_555
H20 C28 1_555 1_555
C29 N1 1_555 1_555
H21 C29 1_555 1_555
H22 C29 1_555 1_555
H23 C29 1_555 1_555
N3 C28 1_555 1_555
C30 N3 1_555 1_555
H24 C30 1_555 1_555
H25 C30 1_555 1_555
C31 C30 1_555 1_555
H26 C31 1_555 1_555
H27 C31 1_555 1_555
C32 C31 1_555 1_555
C33 C32 1_555 1_555
H28 C33 1_555 1_555
C34 C33 1_555 1_555
H29 C34 1_555 1_555
C35 C34 1_555 1_555
H30 C35 1_555 1_555
C36 C35 1_555 1_555
H31 C36 1_555 1_555
C37 C32 1_555 1_555
H32 C37 1_555 1_555
B1 F1 1_555 1_555
F2 B1 1_555 1_555
F3 B1 1_555 1_555
F4 B1 1_555 1_555
C5 C6 1_555 1_555
C12 C13 1_555 1_555
C19 C20 1_555 1_555
C24 C27 1_555 1_555
C25 C26 1_555 1_555
C36 C37 1_555 1_555

#END
