
#######################################################################
#
#                 Cambridge Crystallographic Data Centre
#                                CCDC 
#
#######################################################################
#
# If this CIF has been generated from an entry in the Cambridge 
# Structural Database, then it will include bibliographic, chemical, 
# crystal, experimental, refinement or atomic coordinate data resulting 
# from the CCDC's data processing and validation procedures.
#
#######################################################################

data_LISVAL
_chemical_formula_moiety         'C10 H8 F3 N1 O1'
_chemical_name_systematic        N-(Trifluoroacetyl)indoline
_symmetry_cell_setting           triclinic
_symmetry_space_group_name_H-M   'P -1'
_symmetry_Int_Tables_number      2
_space_group_name_Hall           '-P 1'
loop_
_symmetry_equiv_pos_site_id
_symmetry_equiv_pos_as_xyz
1 x,y,z
2 -x,-y,-z
_cell_length_a                   6.5694(19)
_cell_length_b                   7.825(2)
_cell_length_c                   9.863(3)
_cell_angle_alpha                76.478(4)
_cell_angle_beta                 78.156(4)
_cell_angle_gamma                82.191(4)
_cell_volume                     480.402
_exptl_crystal_colour            colorless
_exptl_crystal_description       block
_chemical_melting_point          51-52deg.C
_cell_formula_units_Z            2
loop_
_atom_site_label
_atom_site_type_symbol
_atom_site_fract_x
_atom_site_fract_y
_atom_site_fract_z
F1 F 0.4670(4) 0.7097(4) 0.0242(2)
F2 F 0.2700(4) 0.9439(3) 0.0420(2)
F3 F 0.1400(4) 0.7090(3) 0.0453(2)
C1 C 0.0588(5) 0.7271(3) 0.4813(3)
C2 C 0.1905(5) 0.6416(4) 0.5733(3)
H1 H 0.3238 0.5943 0.5395
C3 C 0.1193(6) 0.6281(4) 0.7170(4)
H2 H 0.2056 0.5707 0.7808
C4 C -0.0781(7) 0.6988(5) 0.7666(4)
H3 H -0.1235 0.6894 0.8636
C5 C -0.2084(5) 0.7830(4) 0.6742(4)
H4 H -0.3419 0.8296 0.7083
C6 C -0.1405(5) 0.7978(4) 0.5313(3)
C7 C -0.2496(5) 0.8841(4) 0.4105(4)
H5 H -0.2748 1.0106 0.4042
H6 H -0.3821 0.8362 0.4216
C8 C -0.1016(5) 0.8430(4) 0.2805(3)
H7 H -0.1597 0.7635 0.2396
H8 H -0.0747 0.9503 0.2095
C9 C 0.2755(6) 0.7201(4) 0.2504(3)
C10 C 0.2853(7) 0.7697(5) 0.0892(4)
N1 N 0.0931(4) 0.7586(3) 0.3310(2)
O1 O 0.4337(4) 0.6515(3) 0.2930(3)
loop_
_geom_bond_atom_site_label_1
_geom_bond_atom_site_label_2
_geom_bond_site_symmetry_1
_geom_bond_site_symmetry_2
F1 C10 1_555 1_555
F2 C10 1_555 1_555
F3 C10 1_555 1_555
C1 C2 1_555 1_555
C2 H1 1_555 1_555
C3 C2 1_555 1_555
H2 C3 1_555 1_555
C4 C3 1_555 1_555
H3 C4 1_555 1_555
C5 C4 1_555 1_555
H4 C5 1_555 1_555
C6 C1 1_555 1_555
C7 C6 1_555 1_555
H5 C7 1_555 1_555
H6 C7 1_555 1_555
C8 C7 1_555 1_555
H7 C8 1_555 1_555
H8 C8 1_555 1_555
C9 C10 1_555 1_555
N1 C1 1_555 1_555
O1 C9 1_555 1_555
C5 C6 1_555 1_555
C8 N1 1_555 1_555
C9 N1 1_555 1_555

#END
