
#######################################################################
#
#                 Cambridge Crystallographic Data Centre
#                                CCDC 
#
#######################################################################
#
# If this CIF has been generated from an entry in the Cambridge 
# Structural Database, then it will include bibliographic, chemical, 
# crystal, experimental, refinement or atomic coordinate data resulting 
# from the CCDC's data processing and validation procedures.
#
#######################################################################

data_LISWAO
_chemical_formula_moiety         'C68 H50 N10 O8,2(C4 H8 O2),C1 H2 Cl2'
_chemical_name_systematic        
'6,34,42,70-tetrahydroxy-9,16,24,31,45,52,60,67,74,77-decaazaundecacyclo[67.3.1.1^3,7^.1^18,22^.1^33,37^.1^39,43^.1^54,58^.0^10,15^.0^25,30^.0^46,51^.0^61,66^]octaheptaconta-1(73),3(78),4,6,8,10,12,14,18(77),19,21,25,27,29,31,33(76),34,36,39(75),40,42,44,46,48,50,54(74),55,57,61,63,65,67,69,71-tetratriacontaene-17,23,53,59-tetrone dichloromethane ethyl acetate solvate'
_symmetry_cell_setting           triclinic
_symmetry_space_group_name_H-M   'P -1'
_symmetry_Int_Tables_number      2
_space_group_name_Hall           '-P 1'
loop_
_symmetry_equiv_pos_site_id
_symmetry_equiv_pos_as_xyz
1 x,y,z
2 -x,-y,-z
_cell_length_a                   13.861(5)
_cell_length_b                   15.962(6)
_cell_length_c                   17.258(6)
_cell_angle_alpha                69.871(6)
_cell_angle_beta                 75.157(6)
_cell_angle_gamma                81.221(7)
_cell_volume                     3456.72
_cell_formula_units_Z            2
loop_
_atom_site_label
_atom_site_type_symbol
_atom_site_fract_x
_atom_site_fract_y
_atom_site_fract_z
C1 C 0.6057(4) 0.7700(4) 0.1292(4)
C2 C 0.5650(5) 0.6920(4) 0.1385(4)
H1 H 0.5479 0.6841 0.0929
C3 C 0.5503(5) 0.6265(5) 0.2159(5)
H2 H 0.5263 0.5726 0.2225
C4 C 0.5714(5) 0.6411(4) 0.2840(4)
H3 H 0.5592 0.5988 0.3375
C5 C 0.6113(4) 0.7211(4) 0.2696(4)
C6 C 0.6366(4) 0.7359(4) 0.3439(4)
C7 C 0.7224(4) 0.8364(4) 0.3801(4)
C8 C 0.7529(4) 0.7749(4) 0.4506(4)
H4 H 0.7530 0.7139 0.4604
C9 C 0.7829(4) 0.8052(4) 0.5058(4)
H5 H 0.8025 0.7641 0.5533
C10 C 0.7845(5) 0.8962(4) 0.4915(4)
H6 H 0.8044 0.9160 0.5294
C11 C 0.7567(4) 0.9563(4) 0.4213(4)
H7 H 0.7574 1.0172 0.4120
C12 C 0.7270(4) 0.9284(4) 0.3631(4)
C13 C 0.7316(4) 1.0627(4) 0.2508(4)
H8 H 0.7839 1.0765 0.2679
C14 C 0.6976(4) 1.1264(4) 0.1797(4)
C15 C 0.7382(4) 1.2105(4) 0.1391(4)
H9 H 0.7869 1.2243 0.1602
C16 C 0.7090(4) 1.2732(4) 0.0696(4)
C17 C 0.6340(4) 1.2516(4) 0.0408(4)
H10 H 0.6122 1.2930 -0.0055
C18 C 0.5914(4) 1.1715(4) 0.0787(4)
H11 H 0.5409 1.1594 0.0583
C19 C 0.6227(5) 1.1083(4) 0.1469(4)
C20 C 0.7545(4) 1.3625(4) 0.0256(4)
H12 H 0.8027 1.3591 -0.0253
H13 H 0.7019 1.4075 0.0082
C21 C 0.8059(5) 1.3934(4) 0.0770(4)
C22 C 0.7501(4) 1.4284(4) 0.1389(4)
H14 H 0.6807 1.4309 0.1492
C23 C 0.7942(5) 1.4601(4) 0.1867(4)
H15 H 0.7551 1.4835 0.2280
C24 C 0.8984(5) 1.4559(4) 0.1709(4)
C25 C 0.9572(5) 1.4196(4) 0.1102(4)
C26 C 0.9083(5) 1.3893(3) 0.0634(4)
H16 H 0.9467 1.3658 0.0220
C27 C 1.0656(5) 1.4134(4) 0.0950(4)
H17 H 1.1031 1.3904 0.0529
C28 C 1.2156(5) 1.4326(4) 0.1248(4)
C29 C 1.2814(5) 1.3917(4) 0.0705(4)
H18 H 1.2562 1.3654 0.0400
C30 C 1.3843(5) 1.3898(5) 0.0612(4)
H19 H 1.4275 1.3596 0.0270
C31 C 1.4219(5) 1.4326(5) 0.1027(4)
H20 H 1.4908 1.4344 0.0937
C32 C 1.3591(5) 1.4724(4) 0.1572(4)
H21 H 1.3853 1.5001 0.1859
C33 C 1.2560(5) 1.4714(4) 0.1698(4)
C34 C 1.2042(5) 1.5801(4) 0.2476(4)
C35 C 1.1266(5) 1.6009(4) 0.3184(4)
C36 C 1.1432(6) 1.6617(4) 0.3528(4)
H22 H 1.2023 1.6908 0.3315
C37 C 1.0734(6) 1.6799(4) 0.4183(5)
H23 H 1.0848 1.7200 0.4428
C38 C 0.9854(5) 1.6369(4) 0.4470(4)
H24 H 0.9358 1.6483 0.4907
C39 C 0.9726(5) 1.5763(4) 0.4090(4)
C40 C 0.8754(5) 1.5306(4) 0.4425(4)
C41 C 0.7787(5) 1.4275(4) 0.4207(4)
C42 C 0.6826(5) 1.4570(4) 0.4547(4)
H25 H 0.6715 1.5127 0.4628
C43 C 0.6041(5) 1.4045(4) 0.4762(4)
H26 H 0.5408 1.4233 0.5015
C44 C 0.6185(5) 1.3237(4) 0.4606(4)
H27 H 0.5647 1.2892 0.4739
C45 C 0.7128(5) 1.2944(4) 0.4254(4)
H28 H 0.7224 1.2399 0.4150
C46 C 0.7944(5) 1.3459(4) 0.4051(4)
C47 C 0.9113(4) 1.2687(4) 0.3231(4)
H29 H 0.8580 1.2534 0.3083
C48 C 1.0116(4) 1.2375(4) 0.2903(3)
C49 C 1.0287(4) 1.1828(4) 0.2393(4)
H30 H 0.9736 1.1652 0.2288
C50 C 1.1219(5) 1.1538(4) 0.2042(4)
C51 C 1.2040(5) 1.1816(4) 0.2210(4)
H31 H 1.2684 1.1621 0.1986
C52 C 1.1913(5) 1.2377(4) 0.2704(4)
H32 H 1.2464 1.2558 0.2804
C53 C 1.0947(5) 1.2660(4) 0.3044(4)
C54 C 1.1440(4) 1.0966(4) 0.1465(4)
H33 H 1.1988 1.0530 0.1611
H34 H 1.1664 1.1346 0.0888
C55 C 1.0563(4) 1.0469(4) 0.1500(4)
C56 C 1.0354(5) 0.9650(4) 0.2129(4)
H35 H 1.0731 0.9424 0.2540
C57 C 0.9592(5) 0.9171(4) 0.2148(4)
H36 H 0.9455 0.8631 0.2577
C58 C 0.9034(5) 0.9489(4) 0.1533(4)
C59 C 0.9227(4) 1.0321(4) 0.0890(4)
C60 C 1.0005(4) 1.0785(4) 0.0888(4)
H37 H 1.0150 1.1324 0.0461
C61 C 0.8648(4) 1.0656(4) 0.0243(4)
H38 H 0.8795 1.1196 -0.0183
C62 C 0.7356(4) 1.0530(4) -0.0373(4)
C63 C 0.7451(4) 1.1319(4) -0.1044(4)
H39 H 0.7923 1.1704 -0.1102
C64 C 0.6861(5) 1.1546(4) -0.1630(4)
H40 H 0.6943 1.2076 -0.2080
C65 C 0.6143(5) 1.0980(4) -0.1546(4)
H41 H 0.5743 1.1127 -0.1939
C66 C 0.6033(4) 1.0195(4) -0.0870(4)
H42 H 0.5556 0.9813 -0.0808
C67 C 0.6627(4) 0.9975(4) -0.0285(4)
C68 C 0.6248(4) 0.8384(4) 0.0449(4)
N1 N 0.6275(3) 0.7846(3) 0.1945(3)
N2 N 0.6460(3) 0.9191(3) 0.0440(3)
H43 H 0.6498 0.9235 0.0913
N3 N 0.7944(4) 1.0231(3) 0.0241(3)
N4 N 0.8933(4) 1.3172(3) 0.3721(3)
N5 N 0.8612(4) 1.4793(3) 0.3989(3)
H44 H 0.9060 1.4781 0.3543
N6 N 1.0404(4) 1.5572(3) 0.3456(3)
N7 N 1.1904(3) 1.5074(3) 0.2298(3)
H45 H 1.1369 1.4804 0.2576
N8 N 1.1110(3) 1.4387(3) 0.1381(3)
N9 N 0.6929(3) 0.9869(3) 0.2919(3)
N10 N 0.6897(3) 0.8080(3) 0.3228(3)
H46 H 0.7048 0.8390 0.2701
O1 O 0.6105(3) 0.6844(3) 0.4159(3)
O2 O 0.6213(3) 0.8223(3) -0.0190(3)
O3 O 0.8307(3) 0.8991(2) 0.1563(2)
H47 H 0.8029 0.9249 0.1170
O4 O 1.0843(3) 1.3229(2) 0.3495(2)
H48 H 1.0247 1.3348 0.3666
O5 O 0.8168(3) 1.5410(3) 0.5057(3)
O6 O 1.2742(3) 1.6276(3) 0.2099(3)
O7 O 0.9410(3) 1.4880(2) 0.2162(2)
H49 H 1.0020 1.4812 0.2021
O8 O 0.5804(3) 1.0271(3) 0.1817(2)
H50 H 0.6052 0.9957 0.2214
C69 C 0.1052(4) 0.3021(4) 0.8336(4)
H51 H 0.1414 0.2569 0.8093
H52 H 0.1175 0.3603 0.7914
Cl1 Cl -0.02360(14) 0.28693(12) 0.86047(12)
Cl2 Cl 0.14911(14) 0.29497(14) 0.92201(13)
C70 C 0.3805(5) 0.4241(4) 0.3736(4)
H53 H 0.3277 0.3862 0.4083
H54 H 0.3533 0.4768 0.3361
H55 H 0.4121 0.4411 0.4089
C71 C 0.4570(6) 0.3742(5) 0.3224(4)
C72 C 0.4988(6) 0.2336(5) 0.2997(5)
H56 H 0.5651 0.2324 0.3092
H57 H 0.5023 0.2553 0.2393
C73 C 0.4617(6) 0.1438(5) 0.3371(6)
H58 H 0.5059 0.1037 0.3112
H59 H 0.3959 0.1460 0.3277
H60 H 0.4591 0.1230 0.3967
O9 O 0.5310(4) 0.4027(3) 0.2728(3)
O10 O 0.4292(4) 0.2907(3) 0.3405(3)
C74 C 0.9016(15) 0.0699(11) 0.5424(10)
H61 H 0.8981 0.0295 0.5130
H62 H 0.9545 0.0485 0.5726
H63 H 0.9147 0.1282 0.5024
C75 C 0.805(4) 0.0751(16) 0.6033(18)
C76 C 0.6051(17) 0.1115(9) 0.6197(11)
H64 H 0.5828 0.0749 0.6780
H65 H 0.5968 0.1746 0.6142
C77 C 0.5624(8) 0.0883(7) 0.5561(9)
H66 H 0.4910 0.1000 0.5675
H67 H 0.5786 0.0262 0.5616
H68 H 0.5909 0.1242 0.4997
O11 O 0.7918(7) 0.1284(6) 0.6311(6)
O12 O 0.7236(12) 0.0772(6) 0.5706(8)
loop_
_geom_bond_atom_site_label_1
_geom_bond_atom_site_label_2
_geom_bond_site_symmetry_1
_geom_bond_site_symmetry_2
C1 C2 1_555 1_555
C2 H1 1_555 1_555
C3 C2 1_555 1_555
H2 C3 1_555 1_555
C4 C3 1_555 1_555
H3 C4 1_555 1_555
C5 C4 1_555 1_555
C6 C5 1_555 1_555
C7 C8 1_555 1_555
C8 H4 1_555 1_555
C9 C8 1_555 1_555
H5 C9 1_555 1_555
C10 C9 1_555 1_555
H6 C10 1_555 1_555
C11 C10 1_555 1_555
H7 C11 1_555 1_555
C12 C7 1_555 1_555
C13 H8 1_555 1_555
C14 C13 1_555 1_555
C15 C14 1_555 1_555
H9 C15 1_555 1_555
C16 C15 1_555 1_555
C17 C16 1_555 1_555
H10 C17 1_555 1_555
C18 C17 1_555 1_555
H11 C18 1_555 1_555
C19 C14 1_555 1_555
C20 C16 1_555 1_555
H12 C20 1_555 1_555
H13 C20 1_555 1_555
C21 C20 1_555 1_555
C22 C21 1_555 1_555
H14 C22 1_555 1_555
C23 C22 1_555 1_555
H15 C23 1_555 1_555
C24 C23 1_555 1_555
C25 C24 1_555 1_555
C26 C21 1_555 1_555
H16 C26 1_555 1_555
C27 C25 1_555 1_555
H17 C27 1_555 1_555
C28 C29 1_555 1_555
C29 H18 1_555 1_555
C30 C29 1_555 1_555
H19 C30 1_555 1_555
C31 C30 1_555 1_555
H20 C31 1_555 1_555
C32 C31 1_555 1_555
H21 C32 1_555 1_555
C33 C28 1_555 1_555
C34 C35 1_555 1_555
C35 C36 1_555 1_555
C36 H22 1_555 1_555
C37 C36 1_555 1_555
H23 C37 1_555 1_555
C38 C37 1_555 1_555
H24 C38 1_555 1_555
C39 C38 1_555 1_555
C40 C39 1_555 1_555
C41 C42 1_555 1_555
C42 H25 1_555 1_555
C43 C42 1_555 1_555
H26 C43 1_555 1_555
C44 C43 1_555 1_555
H27 C44 1_555 1_555
C45 C44 1_555 1_555
H28 C45 1_555 1_555
C46 C41 1_555 1_555
C47 H29 1_555 1_555
C48 C47 1_555 1_555
C49 C48 1_555 1_555
H30 C49 1_555 1_555
C50 C49 1_555 1_555
C51 C50 1_555 1_555
H31 C51 1_555 1_555
C52 C51 1_555 1_555
H32 C52 1_555 1_555
C53 C48 1_555 1_555
C54 C50 1_555 1_555
H33 C54 1_555 1_555
H34 C54 1_555 1_555
C55 C54 1_555 1_555
C56 C55 1_555 1_555
H35 C56 1_555 1_555
C57 C56 1_555 1_555
H36 C57 1_555 1_555
C58 C57 1_555 1_555
C59 C58 1_555 1_555
C60 C55 1_555 1_555
H37 C60 1_555 1_555
C61 C59 1_555 1_555
H38 C61 1_555 1_555
C62 C63 1_555 1_555
C63 H39 1_555 1_555
C64 C63 1_555 1_555
H40 C64 1_555 1_555
C65 C64 1_555 1_555
H41 C65 1_555 1_555
C66 C65 1_555 1_555
H42 C66 1_555 1_555
C67 C62 1_555 1_555
C68 C1 1_555 1_555
N1 C1 1_555 1_555
N2 C67 1_555 1_555
H43 N2 1_555 1_555
N3 C61 1_555 1_555
N4 C46 1_555 1_555
N5 C40 1_555 1_555
H44 N5 1_555 1_555
N6 C35 1_555 1_555
N7 C33 1_555 1_555
H45 N7 1_555 1_555
N8 C27 1_555 1_555
N9 C12 1_555 1_555
N10 C6 1_555 1_555
H46 N10 1_555 1_555
O1 C6 1_555 1_555
O2 C68 1_555 1_555
O3 C58 1_555 1_555
H47 O3 1_555 1_555
O4 C53 1_555 1_555
H48 O4 1_555 1_555
O5 C40 1_555 1_555
O6 C34 1_555 1_555
O7 C24 1_555 1_555
H49 O7 1_555 1_555
O8 C19 1_555 1_555
H50 O8 1_555 1_555
C69 H51 1_555 1_555
H52 C69 1_555 1_555
Cl1 C69 1_555 1_555
Cl2 C69 1_555 1_555
C70 H53 1_555 1_555
H54 C70 1_555 1_555
H55 C70 1_555 1_555
C71 C70 1_555 1_555
C72 H56 1_555 1_555
H57 C72 1_555 1_555
C73 C72 1_555 1_555
H58 C73 1_555 1_555
H59 C73 1_555 1_555
H60 C73 1_555 1_555
O9 C71 1_555 1_555
O10 C71 1_555 1_555
C74 H61 1_555 1_555
H62 C74 1_555 1_555
H63 C74 1_555 1_555
C75 C74 1_555 1_555
C76 H64 1_555 1_555
H65 C76 1_555 1_555
C77 C76 1_555 1_555
H66 C77 1_555 1_555
H67 C77 1_555 1_555
H68 C77 1_555 1_555
O11 C75 1_555 1_555
O12 C75 1_555 1_555
C5 N1 1_555 1_555
C7 N10 1_555 1_555
C11 C12 1_555 1_555
C13 N9 1_555 1_555
C18 C19 1_555 1_555
C25 C26 1_555 1_555
C28 N8 1_555 1_555
C32 C33 1_555 1_555
C34 N7 1_555 1_555
C39 N6 1_555 1_555
C41 N5 1_555 1_555
C45 C46 1_555 1_555
C47 N4 1_555 1_555
C52 C53 1_555 1_555
C59 C60 1_555 1_555
C62 N3 1_555 1_555
C66 C67 1_555 1_555
C68 N2 1_555 1_555
C72 O10 1_555 1_555
C76 O12 1_555 1_555

#END
