
#######################################################################
#
#                 Cambridge Crystallographic Data Centre
#                                CCDC 
#
#######################################################################
#
# If this CIF has been generated from an entry in the Cambridge 
# Structural Database, then it will include bibliographic, chemical, 
# crystal, experimental, refinement or atomic coordinate data resulting 
# from the CCDC's data processing and validation procedures.
#
#######################################################################

data_LISYIY
_chemical_formula_moiety         'C94 H130 N8 S2 Si6'
_chemical_name_systematic        
2,5,9,12,15,19-hexakis{[triisopropylsilyl]ethynyl}[1,2,5]thiadiazolo[3,4-i][1,2,5]thiadiazolo[3'',4'':6',7']quinoxalino[2',3':9,10]phenanthro[4,5-abc]phenazine
_symmetry_cell_setting           triclinic
_symmetry_space_group_name_H-M   'P -1'
_symmetry_Int_Tables_number      2
_space_group_name_Hall           '-P 1'
loop_
_symmetry_equiv_pos_site_id
_symmetry_equiv_pos_as_xyz
1 x,y,z
2 -x,-y,-z
_cell_length_a                   12.8639(6)
_cell_length_b                   13.2075(7)
_cell_length_c                   15.3204(8)
_cell_angle_alpha                106.440(4)
_cell_angle_beta                 90.651(4)
_cell_angle_gamma                109.042(4)
_cell_volume                     2344.42
_exptl_crystal_colour            brown
_exptl_crystal_description       needle
_cell_formula_units_Z            1
loop_
_atom_site_label
_atom_site_type_symbol
_atom_site_fract_x
_atom_site_fract_y
_atom_site_fract_z
Si1 Si 0.24088(6) 0.93508(6) 0.39557(5)
Si2 Si -0.01936(6) 0.72011(6) 0.74233(6)
Si3 Si 0.48878(6) 0.22733(6) 0.96294(5)
C1 C 0.47149(18) 0.53633(19) 0.49125(15)
C2 C 0.50123(18) 0.58692(19) 0.42129(15)
C3 C 0.44736(19) 0.6568(2) 0.40385(16)
H1 H 0.467466 0.689810 0.356151
C4 C 0.36385(19) 0.6785(2) 0.45618(16)
C5 C 0.3328(2) 0.6267(2) 0.52445(16)
H2 H 0.275213 0.639774 0.559270
C6 C 0.38539(19) 0.55598(19) 0.54202(15)
C7 C 0.35317(18) 0.50373(19) 0.61467(15)
N1 N 0.27333(16) 0.52355(17) 0.66226(13)
C8 C 0.24864(19) 0.4782(2) 0.73260(16)
C9 C 0.16860(19) 0.5046(2) 0.78815(16)
C10 C 0.14613(19) 0.4579(2) 0.86142(16)
N2 N 0.07233(18) 0.47365(18) 0.92192(14)
S1 S 0.07821(5) 0.40213(6) 0.99033(4)
N3 N 0.17032(18) 0.34899(19) 0.95112(14)
C11 C 0.2033(2) 0.3869(2) 0.87861(16)
C12 C 0.28714(19) 0.3640(2) 0.82590(16)
C13 C 0.30748(19) 0.40924(19) 0.75202(15)
N4 N 0.38825(16) 0.38831(17) 0.70030(13)
C14 C 0.41122(18) 0.43385(19) 0.63374(15)
C15 C 0.3142(2) 0.7560(2) 0.43945(16)
C16 C 0.2782(2) 0.8239(2) 0.42494(17)
C17 C 0.2325(2) 1.0423(2) 0.5039(2)
H3 H 0.161068 1.007582 0.526741
C18 C 0.3237(3) 1.0745(3) 0.5819(2)
H4 H 0.324827 1.006648 0.595472
H5 H 0.309326 1.125831 0.636635
H6 H 0.395508 1.111709 0.563594
C19 C 0.2248(3) 1.1478(3) 0.4836(2)
H7 H 0.295140 1.187662 0.464740
H8 H 0.209401 1.197366 0.538871
H9 H 0.165083 1.125212 0.434283
C20 C 0.1020(2) 0.8711(3) 0.3244(2)
H10 H 0.087663 0.932870 0.306386
C21 C 0.0056(3) 0.8229(4) 0.3746(3)
H11 H -0.063956 0.796933 0.334729
H12 H 0.003974 0.881201 0.430328
H13 H 0.014720 0.759574 0.391109
C22 C 0.1010(3) 0.7809(4) 0.2356(3)
H14 H 0.032882 0.760858 0.195460
H15 H 0.104189 0.714137 0.249899
H16 H 0.165221 0.810034 0.204668
C23 C 0.3513(2) 0.9876(2) 0.32274(19)
H17 H 0.361466 0.919019 0.280776
C24 C 0.4635(3) 1.0580(4) 0.3781(3)
H18 H 0.520221 1.070795 0.336387
H19 H 0.481921 1.018126 0.417739
H20 H 0.460719 1.130392 0.415903
C25 C 0.3218(3) 1.0492(3) 0.2606(3)
H21 H 0.377059 1.060107 0.217502
H22 H 0.320729 1.122454 0.298069
H23 H 0.248562 1.004395 0.226444
C26 C 0.1127(2) 0.5767(2) 0.77360(17)
C27 C 0.0635(2) 0.6374(2) 0.76468(19)
C28 C -0.1683(4) 0.6434(5) 0.7598(6)
H24 H -0.175505 0.681205 0.824825
C29 C -0.2498(2) 0.6720(3) 0.7005(2)
H25 H -0.246127 0.638539 0.635319
H26 H -0.228225 0.753724 0.714568
H27 H -0.325579 0.641424 0.714930
C30 C -0.1972(3) 0.5300(4) 0.7534(4)
H28 H -0.273065 0.502293 0.768584
H29 H -0.146345 0.520896 0.796230
H30 H -0.192613 0.487102 0.690759
C31 C 0.0140(3) 0.7429(3) 0.6291(2)
H31 H -0.034236 0.782161 0.612383
C32 C -0.0083(5) 0.6315(3) 0.5531(3)
H32 H 0.015377 0.646743 0.496194
H33 H -0.087683 0.587880 0.543689
H34 H 0.033060 0.588590 0.570991
C33 C 0.1356(3) 0.8186(3) 0.6368(2)
H35 H 0.153958 0.825625 0.576373
H36 H 0.183861 0.785287 0.659516
H37 H 0.146495 0.893235 0.679436
C34 C 0.0278(2) 0.8575(2) 0.83521(19)
H38 H 0.109745 0.889889 0.834971
C35 C -0.0194(3) 0.9439(3) 0.8178(2)
H39 H -0.008299 0.948585 0.755644
H40 H 0.018639 1.017725 0.862325
H41 H -0.098766 0.920502 0.824184
C36 C 0.0101(3) 0.8464(3) 0.9315(2)
H42 H -0.069440 0.817140 0.936228
H43 H 0.043332 0.920334 0.977214
H44 H 0.044974 0.794681 0.942464
C37 C 0.3522(2) 0.3075(2) 0.85281(16)
C38 C 0.4081(2) 0.2688(2) 0.88767(17)
C39 C 0.6246(2) 0.2329(2) 0.91596(19)
H45 H 0.608407 0.170901 0.856806
C40 C 0.6790(3) 0.3440(3) 0.8951(2)
H46 H 0.749856 0.345561 0.871668
H47 H 0.691621 0.406784 0.951300
H48 H 0.630227 0.350618 0.849020
C41 C 0.7039(2) 0.2138(3) 0.9801(2)
H49 H 0.771979 0.214186 0.951918
H50 H 0.668497 0.141073 0.990685
H51 H 0.721846 0.273880 1.038640
C42 C 0.4002(2) 0.0816(2) 0.96133(18)
H52 H 0.438881 0.058495 1.005167
C43 C 0.3860(3) -0.0032(3) 0.8660(2)
H53 H 0.351440 0.019624 0.821046
H54 H 0.338760 -0.077978 0.866939
H55 H 0.458576 -0.005565 0.849075
C44 C 0.2865(2) 0.0787(2) 0.9932(2)
H56 H 0.246228 0.100043 0.950758
H57 H 0.296815 0.131682 1.054806
H58 H 0.243917 0.002662 0.994295
C45 C 0.5136(2) 0.3339(2) 1.08097(17)
H59 H 0.588068 0.391734 1.084872
C46 C 0.4313(2) 0.3970(3) 1.0983(2)
H60 H 0.435164 0.437788 1.053315
H61 H 0.449843 0.450440 1.160169
H62 H 0.356203 0.343184 1.092413
C47 C 0.5205(3) 0.2817(3) 1.15797(19)
H63 H 0.449214 0.223784 1.156753
H64 H 0.538369 0.340314 1.217339
H65 H 0.578421 0.247689 1.148803
Si1A Si 0.75912(6) 0.06492(6) 0.60443(5)
Si2A Si 1.01936(6) 0.27989(6) 0.25767(6)
Si3A Si 0.51122(6) 0.77267(6) 0.03706(5)
C1A C 0.52851(18) 0.46367(19) 0.50875(15)
C2A C 0.49877(18) 0.41308(19) 0.57871(15)
C3A C 0.55264(19) 0.3432(2) 0.59615(16)
H1A H 0.532534 0.310190 0.643849
C4A C 0.63615(19) 0.3215(2) 0.54382(16)
C5A C 0.6672(2) 0.3733(2) 0.47555(16)
H2A H 0.724787 0.360226 0.440730
C6A C 0.61461(19) 0.44402(19) 0.45798(15)
C7A C 0.64683(18) 0.49627(19) 0.38533(15)
N1A N 0.72667(16) 0.47645(17) 0.33774(13)
C8A C 0.75136(19) 0.5218(2) 0.26740(16)
C9A C 0.83140(19) 0.4954(2) 0.21185(16)
C10A C 0.85387(19) 0.5421(2) 0.13858(16)
N2A N 0.92767(18) 0.52635(18) 0.07808(14)
S1A S 0.92179(5) 0.59787(6) 0.00967(4)
N3A N 0.82968(18) 0.65101(19) 0.04888(14)
C11A C 0.7967(2) 0.6131(2) 0.12139(16)
C12A C 0.71286(19) 0.6360(2) 0.17410(16)
C13A C 0.69252(19) 0.59076(19) 0.24798(15)
N4A N 0.61175(16) 0.61169(17) 0.29970(13)
C14A C 0.58878(18) 0.56615(19) 0.36626(15)
C15A C 0.6858(2) 0.2440(2) 0.56055(16)
C16A C 0.7218(2) 0.1761(2) 0.57506(17)
C17A C 0.7675(2) -0.0423(2) 0.4961(2)
H3A H 0.838932 -0.007582 0.473259
C18A C 0.6763(3) -0.0745(3) 0.4181(2)
H4A H 0.675173 -0.006648 0.404528
H5A H 0.690674 -0.125831 0.363365
H6A H 0.604492 -0.111709 0.436406
C19A C 0.7752(3) -0.1478(3) 0.5164(2)
H7A H 0.704860 -0.187662 0.535260
H8A H 0.790599 -0.197366 0.461129
H9A H 0.834917 -0.125212 0.565717
C20A C 0.8980(2) 0.1289(3) 0.6756(2)
H10A H 0.912337 0.067130 0.693614
C21A C 0.9944(3) 0.1771(4) 0.6254(3)
H11A H 1.063956 0.203067 0.665271
H12A H 0.996026 0.118799 0.569672
H13A H 0.985280 0.240426 0.608891
C22A C 0.8990(3) 0.2191(4) 0.7644(3)
H14A H 0.967118 0.239142 0.804540
H15A H 0.895811 0.285863 0.750101
H16A H 0.834779 0.189966 0.795332
C23A C 0.6487(2) 0.0124(2) 0.67726(19)
H17A H 0.638534 0.080981 0.719224
C24A C 0.5365(3) -0.0580(4) 0.6219(3)
H18A H 0.479779 -0.070795 0.663613
H19A H 0.518079 -0.018126 0.582261
H20A H 0.539281 -0.130392 0.584097
C25A C 0.6782(3) -0.0492(3) 0.7394(3)
H21A H 0.622941 -0.060107 0.782498
H22A H 0.679271 -0.122454 0.701931
H23A H 0.751438 -0.004395 0.773556
C26A C 0.8873(2) 0.4233(2) 0.22640(17)
C27A C 0.9365(2) 0.3626(2) 0.23532(19)
C28A C 1.1683(4) 0.3566(5) 0.2402(6)
H24A H 1.175505 0.318795 0.175175
C29A C 1.2498(2) 0.3280(3) 0.2995(2)
H25A H 1.246127 0.361461 0.364681
H26A H 1.228225 0.246276 0.285432
H27A H 1.325579 0.358576 0.285070
C30A C 1.1972(3) 0.4700(4) 0.2466(4)
H28A H 1.273065 0.497707 0.231416
H29A H 1.146345 0.479104 0.203770
H30A H 1.192613 0.512898 0.309241
C31A C 0.9860(3) 0.2571(3) 0.3709(2)
H31A H 1.034236 0.217839 0.387617
C32A C 1.0083(5) 0.3685(3) 0.4469(3)
H32A H 0.984623 0.353257 0.503806
H33A H 1.087683 0.412120 0.456311
H34A H 0.966940 0.411410 0.429009
C33A C 0.8644(3) 0.1814(3) 0.3632(2)
H35A H 0.846042 0.174375 0.423627
H36A H 0.816139 0.214713 0.340484
H37A H 0.853505 0.106765 0.320564
C34A C 0.9722(2) 0.1425(2) 0.16479(19)
H38A H 0.890255 0.110111 0.165029
C35A C 1.0194(3) 0.0561(3) 0.1822(2)
H39A H 1.008299 0.051415 0.244356
H40A H 0.981361 -0.017725 0.137675
H41A H 1.098766 0.079498 0.175816
C36A C 0.9899(3) 0.1536(3) 0.0685(2)
H42A H 1.069440 0.182860 0.063772
H43A H 0.956668 0.079666 0.022786
H44A H 0.955026 0.205319 0.057536
C37A C 0.6478(2) 0.6925(2) 0.14719(16)
C38A C 0.5919(2) 0.7312(2) 0.11233(17)
C39A C 0.3754(2) 0.7671(2) 0.08404(19)
H45A H 0.391593 0.829099 0.143194
C40A C 0.3210(3) 0.6560(3) 0.1049(2)
H46A H 0.250144 0.654439 0.128332
H47A H 0.308379 0.593216 0.048700
H48A H 0.369773 0.649382 0.150980
C41A C 0.2961(2) 0.7862(3) 0.0199(2)
H49A H 0.228021 0.785814 0.048082
H50A H 0.331503 0.858927 0.009315
H51A H 0.278154 0.726120 -0.038640
C42A C 0.5998(2) 0.9184(2) 0.03867(18)
H52A H 0.561119 0.941505 -0.005167
C43A C 0.6140(3) 1.0032(3) 0.1340(2)
H53A H 0.648560 0.980376 0.178954
H54A H 0.661240 1.077978 0.133061
H55A H 0.541424 1.005565 0.150925
C44A C 0.7135(2) 0.9213(2) 0.0068(2)
H56A H 0.753772 0.899957 0.049242
H57A H 0.703185 0.868318 -0.054806
H58A H 0.756083 0.997338 0.005705
C45A C 0.4864(2) 0.6661(2) -0.08097(17)
H59A H 0.411932 0.608266 -0.084872
C46A C 0.5687(2) 0.6030(3) -0.0983(2)
H60A H 0.564836 0.562212 -0.053315
H61A H 0.550157 0.549560 -0.160169
H62A H 0.643797 0.656816 -0.092413
C47A C 0.4795(3) 0.7183(3) -0.15797(19)
H63A H 0.550786 0.776216 -0.156753
H64A H 0.461631 0.659686 -0.217339
H65A H 0.421579 0.752311 -0.148803
C48? C -0.1689(6) 0.6194(7) 0.7079(10)
H66? H -0.167944 0.576865 0.642688
H67? H -0.230135 0.713901 0.656069
H68? H -0.250901 0.723634 0.760452
H69? H -0.323170 0.614088 0.680104
H70? H -0.266075 0.470078 0.721867
H71? H -0.206988 0.561887 0.817462
H72? H -0.137302 0.499046 0.750838
loop_
_geom_bond_atom_site_label_1
_geom_bond_atom_site_label_2
_geom_bond_site_symmetry_1
_geom_bond_site_symmetry_2
Si1 C16 1_555 1_555
Si2 C27 1_555 1_555
Si3 C38 1_555 1_555
C1 C2 1_555 1_555
C2 C3 1_555 1_555
C3 H1 1_555 1_555
C4 C3 1_555 1_555
C5 C4 1_555 1_555
H2 C5 1_555 1_555
C6 C1 1_555 1_555
C7 C6 1_555 1_555
N1 C7 1_555 1_555
C8 N1 1_555 1_555
C9 C8 1_555 1_555
C10 C9 1_555 1_555
N2 C10 1_555 1_555
S1 N2 1_555 1_555
N3 S1 1_555 1_555
C11 C10 1_555 1_555
C12 C11 1_555 1_555
C13 C8 1_555 1_555
N4 C13 1_555 1_555
C14 C7 1_555 1_555
C15 C4 1_555 1_555
C16 C15 1_555 1_555
C17 Si1 1_555 1_555
H3 C17 1_555 1_555
C18 C17 1_555 1_555
H4 C18 1_555 1_555
H5 C18 1_555 1_555
H6 C18 1_555 1_555
C19 C17 1_555 1_555
H7 C19 1_555 1_555
H8 C19 1_555 1_555
H9 C19 1_555 1_555
C20 Si1 1_555 1_555
H10 C20 1_555 1_555
C21 C20 1_555 1_555
H11 C21 1_555 1_555
H12 C21 1_555 1_555
H13 C21 1_555 1_555
C22 C20 1_555 1_555
H14 C22 1_555 1_555
H15 C22 1_555 1_555
H16 C22 1_555 1_555
C23 Si1 1_555 1_555
H17 C23 1_555 1_555
C24 C23 1_555 1_555
H18 C24 1_555 1_555
H19 C24 1_555 1_555
H20 C24 1_555 1_555
C25 C23 1_555 1_555
H21 C25 1_555 1_555
H22 C25 1_555 1_555
H23 C25 1_555 1_555
C26 C9 1_555 1_555
C27 C26 1_555 1_555
C28 Si2 1_555 1_555
H24 C28 1_555 1_555
C29 C28 1_555 1_555
H25 C29 1_555 1_555
H26 C29 1_555 1_555
H27 C29 1_555 1_555
C30 C28 1_555 1_555
H28 C30 1_555 1_555
H29 C30 1_555 1_555
H30 C30 1_555 1_555
C31 Si2 1_555 1_555
H31 C31 1_555 1_555
C32 C31 1_555 1_555
H32 C32 1_555 1_555
H33 C32 1_555 1_555
H34 C32 1_555 1_555
C33 C31 1_555 1_555
H35 C33 1_555 1_555
H36 C33 1_555 1_555
H37 C33 1_555 1_555
C34 Si2 1_555 1_555
H38 C34 1_555 1_555
C35 C34 1_555 1_555
H39 C35 1_555 1_555
H40 C35 1_555 1_555
H41 C35 1_555 1_555
C36 C34 1_555 1_555
H42 C36 1_555 1_555
H43 C36 1_555 1_555
H44 C36 1_555 1_555
C37 C12 1_555 1_555
C38 C37 1_555 1_555
C39 Si3 1_555 1_555
H45 C39 1_555 1_555
C40 C39 1_555 1_555
H46 C40 1_555 1_555
H47 C40 1_555 1_555
H48 C40 1_555 1_555
C41 C39 1_555 1_555
H49 C41 1_555 1_555
H50 C41 1_555 1_555
H51 C41 1_555 1_555
C42 Si3 1_555 1_555
H52 C42 1_555 1_555
C43 C42 1_555 1_555
H53 C43 1_555 1_555
H54 C43 1_555 1_555
H55 C43 1_555 1_555
C44 C42 1_555 1_555
H56 C44 1_555 1_555
H57 C44 1_555 1_555
H58 C44 1_555 1_555
C45 Si3 1_555 1_555
H59 C45 1_555 1_555
C46 C45 1_555 1_555
H60 C46 1_555 1_555
H61 C46 1_555 1_555
H62 C46 1_555 1_555
C47 C45 1_555 1_555
H63 C47 1_555 1_555
H64 C47 1_555 1_555
H65 C47 1_555 1_555
Si1A C16A 1_555 1_555
Si2A C27A 1_555 1_555
Si3A C38A 1_555 1_555
C1A C1 1_555 1_555
C2A C14 1_555 1_555
C3A C2A 1_555 1_555
H1A C3A 1_555 1_555
C4A C3A 1_555 1_555
C5A C4A 1_555 1_555
H2A C5A 1_555 1_555
C6A C1A 1_555 1_555
C7A C6A 1_555 1_555
N1A C7A 1_555 1_555
C8A N1A 1_555 1_555
C9A C8A 1_555 1_555
C10A C9A 1_555 1_555
N2A C10A 1_555 1_555
S1A N2A 1_555 1_555
N3A S1A 1_555 1_555
C11A C10A 1_555 1_555
C12A C11A 1_555 1_555
C13A C8A 1_555 1_555
N4A C13A 1_555 1_555
C14A C2 1_555 1_555
C15A C4A 1_555 1_555
C16A C15A 1_555 1_555
C17A Si1A 1_555 1_555
H3A C17A 1_555 1_555
C18A C17A 1_555 1_555
H4A C18A 1_555 1_555
H5A C18A 1_555 1_555
H6A C18A 1_555 1_555
C19A C17A 1_555 1_555
H7A C19A 1_555 1_555
H8A C19A 1_555 1_555
H9A C19A 1_555 1_555
C20A Si1A 1_555 1_555
H10A C20A 1_555 1_555
C21A C20A 1_555 1_555
H11A C21A 1_555 1_555
H12A C21A 1_555 1_555
H13A C21A 1_555 1_555
C22A C20A 1_555 1_555
H14A C22A 1_555 1_555
H15A C22A 1_555 1_555
H16A C22A 1_555 1_555
C23A Si1A 1_555 1_555
H17A C23A 1_555 1_555
C24A C23A 1_555 1_555
H18A C24A 1_555 1_555
H19A C24A 1_555 1_555
H20A C24A 1_555 1_555
C25A C23A 1_555 1_555
H21A C25A 1_555 1_555
H22A C25A 1_555 1_555
H23A C25A 1_555 1_555
C26A C9A 1_555 1_555
C27A C26A 1_555 1_555
C28A Si2A 1_555 1_555
H24A C28A 1_555 1_555
C29A C28A 1_555 1_555
H25A C29A 1_555 1_555
H26A C29A 1_555 1_555
H27A C29A 1_555 1_555
C30A C28A 1_555 1_555
H28A C30A 1_555 1_555
H29A C30A 1_555 1_555
H30A C30A 1_555 1_555
C31A Si2A 1_555 1_555
H31A C31A 1_555 1_555
C32A C31A 1_555 1_555
H32A C32A 1_555 1_555
H33A C32A 1_555 1_555
H34A C32A 1_555 1_555
C33A C31A 1_555 1_555
H35A C33A 1_555 1_555
H36A C33A 1_555 1_555
H37A C33A 1_555 1_555
C34A Si2A 1_555 1_555
H38A C34A 1_555 1_555
C35A C34A 1_555 1_555
H39A C35A 1_555 1_555
H40A C35A 1_555 1_555
H41A C35A 1_555 1_555
C36A C34A 1_555 1_555
H42A C36A 1_555 1_555
H43A C36A 1_555 1_555
H44A C36A 1_555 1_555
C37A C12A 1_555 1_555
C38A C37A 1_555 1_555
C39A Si3A 1_555 1_555
H45A C39A 1_555 1_555
C40A C39A 1_555 1_555
H46A C40A 1_555 1_555
H47A C40A 1_555 1_555
H48A C40A 1_555 1_555
C41A C39A 1_555 1_555
H49A C41A 1_555 1_555
H50A C41A 1_555 1_555
H51A C41A 1_555 1_555
C42A Si3A 1_555 1_555
H52A C42A 1_555 1_555
C43A C42A 1_555 1_555
H53A C43A 1_555 1_555
H54A C43A 1_555 1_555
H55A C43A 1_555 1_555
C44A C42A 1_555 1_555
H56A C44A 1_555 1_555
H57A C44A 1_555 1_555
H58A C44A 1_555 1_555
C45A Si3A 1_555 1_555
H59A C45A 1_555 1_555
C46A C45A 1_555 1_555
H60A C46A 1_555 1_555
H61A C46A 1_555 1_555
H62A C46A 1_555 1_555
C47A C45A 1_555 1_555
H63A C47A 1_555 1_555
H64A C47A 1_555 1_555
H65A C47A 1_555 1_555
C5 C6 1_555 1_555
N3 C11 1_555 1_555
C12 C13 1_555 1_555
N4 C14 1_555 1_555
C1A C2A 1_555 1_555
C5A C6A 1_555 1_555
C7A C14A 1_555 1_555
N3A C11A 1_555 1_555
C12A C13A 1_555 1_555
N4A C14A 1_555 1_555

#END
