
#######################################################################
#
#                 Cambridge Crystallographic Data Centre
#                                CCDC 
#
#######################################################################
#
# If this CIF has been generated from an entry in the Cambridge 
# Structural Database, then it will include bibliographic, chemical, 
# crystal, experimental, refinement or atomic coordinate data resulting 
# from the CCDC's data processing and validation procedures.
#
#######################################################################

data_LITPUB
_chemical_formula_moiety         'C22 H33 N4 P1'
_chemical_name_systematic        
1,3-di-t-butyl-2-(1,2-diphenylhydrazinyl)-1,3,2-diazaphospholidine
_symmetry_cell_setting           monoclinic
_symmetry_space_group_name_H-M   'P 21/c'
_symmetry_Int_Tables_number      14
_space_group_name_Hall           '-P 2ybc'
loop_
_symmetry_equiv_pos_site_id
_symmetry_equiv_pos_as_xyz
1 x,y,z
2 -x,1/2+y,1/2-z
3 -x,-y,-z
4 x,1/2-y,1/2+z
_cell_length_a                   11.576(2)
_cell_length_b                   13.771(3)
_cell_length_c                   13.694(2)
_cell_angle_alpha                90
_cell_angle_beta                 92.037(3)
_cell_angle_gamma                90
_cell_volume                     2181.62
_exptl_crystal_colour            colorless
_exptl_crystal_description       block
_cell_formula_units_Z            4
_chemical_properties_physical    
'Air-sensitive, Moisture-sensitive, Oxygen-sensitive'
_exptl_crystal_recrystallization_method benzene
loop_
_atom_site_label
_atom_site_type_symbol
_atom_site_fract_x
_atom_site_fract_y
_atom_site_fract_z
C1 C 0.88405(15) 0.23602(13) 0.70902(13)
C2 C 0.96338(17) 0.28084(18) 0.78831(16)
H1 H 0.9535 0.3515 0.7882
H2 H 1.0439 0.2649 0.7754
H3 H 0.9436 0.2548 0.8522
C3 C 0.91247(17) 0.28005(15) 0.61006(15)
H4 H 0.8644 0.2493 0.5584
H5 H 0.9943 0.269 0.5975
H6 H 0.8969 0.35 0.6109
C4 C 0.90405(18) 0.12638(14) 0.70684(15)
H7 H 0.8924 0.0992 0.7719
H8 H 0.9833 0.1131 0.6876
H9 H 0.8493 0.0965 0.6596
C5 C 0.67279(15) 0.23574(13) 0.65369(12)
H10 H 0.6874 0.173 0.621
H11 H 0.6709 0.2881 0.6041
C6 C 0.56065(15) 0.23245(14) 0.70771(13)
H12 H 0.4938 0.2464 0.6628
H13 H 0.5496 0.1679 0.7377
C7 C 0.47843(15) 0.31752(12) 0.85377(12)
C8 C 0.36612(15) 0.34208(14) 0.79658(13)
H14 H 0.3775 0.4006 0.7574
H15 H 0.3044 0.3536 0.8424
H16 H 0.3446 0.2878 0.7534
C9 C 0.46426(16) 0.22420(14) 0.91259(13)
H17 H 0.444 0.1706 0.8681
H18 H 0.4027 0.233 0.9591
H19 H 0.537 0.2092 0.9483
C10 C 0.50598(16) 0.40208(14) 0.92302(13)
H20 H 0.577 0.3878 0.9615
H21 H 0.4419 0.4112 0.967
H22 H 0.5167 0.4615 0.885
C11 C 0.76262(14) 0.51755(12) 0.85900(12)
C12 C 0.83108(15) 0.49358(13) 0.94188(12)
H23 H 0.855 0.4283 0.9524
C13 C 0.86402(15) 0.56486(13) 1.00858(13)
H24 H 0.9095 0.5474 1.065
C14 C 0.83214(15) 0.66112(13) 0.99489(13)
H25 H 0.8551 0.7095 1.0411
C15 C 0.76619(15) 0.68492(13) 0.91227(13)
H26 H 0.7443 0.7506 0.9014
C16 C 0.73148(14) 0.61470(13) 0.84513(13)
H27 H 0.686 0.6328 0.789
C17 C 0.71694(15) 0.49848(12) 0.62025(12)
C18 C 0.65796(16) 0.47856(13) 0.53216(13)
H28 H 0.5835 0.4496 0.5322
C19 C 0.70786(19) 0.50096(14) 0.44428(14)
H29 H 0.6674 0.4869 0.3844
C20 C 0.8160(2) 0.54355(14) 0.44322(15)
H30 H 0.8498 0.559 0.3829
C21 C 0.87458(17) 0.56340(13) 0.53087(14)
H31 H 0.9489 0.5926 0.5305
C22 C 0.82608(15) 0.54111(13) 0.61921(13)
H32 H 0.8671 0.5549 0.6789
N1 N 0.76109(12) 0.25513(11) 0.73061(10)
N2 N 0.57312(12) 0.30803(10) 0.78319(10)
N3 N 0.73180(12) 0.44611(10) 0.78847(10)
N4 N 0.66161(13) 0.48074(11) 0.70830(10)
H33 H 0.6018(19) 0.4455(16) 0.7025(15)
P1 P 0.71483(4) 0.32308(3) 0.82306(3)
loop_
_geom_bond_atom_site_label_1
_geom_bond_atom_site_label_2
_geom_bond_site_symmetry_1
_geom_bond_site_symmetry_2
C1 C2 1_555 1_555
C2 H1 1_555 1_555
H2 C2 1_555 1_555
H3 C2 1_555 1_555
C3 C1 1_555 1_555
H4 C3 1_555 1_555
H5 C3 1_555 1_555
H6 C3 1_555 1_555
C4 C1 1_555 1_555
H7 C4 1_555 1_555
H8 C4 1_555 1_555
H9 C4 1_555 1_555
C5 H10 1_555 1_555
H11 C5 1_555 1_555
C6 C5 1_555 1_555
H12 C6 1_555 1_555
H13 C6 1_555 1_555
C7 C8 1_555 1_555
C8 H14 1_555 1_555
H15 C8 1_555 1_555
H16 C8 1_555 1_555
C9 C7 1_555 1_555
H17 C9 1_555 1_555
H18 C9 1_555 1_555
H19 C9 1_555 1_555
C10 C7 1_555 1_555
H20 C10 1_555 1_555
H21 C10 1_555 1_555
H22 C10 1_555 1_555
C11 C12 1_555 1_555
C12 H23 1_555 1_555
C13 C12 1_555 1_555
H24 C13 1_555 1_555
C14 C13 1_555 1_555
H25 C14 1_555 1_555
C15 C14 1_555 1_555
H26 C15 1_555 1_555
C16 C11 1_555 1_555
H27 C16 1_555 1_555
C17 C18 1_555 1_555
C18 H28 1_555 1_555
C19 C18 1_555 1_555
H29 C19 1_555 1_555
C20 C19 1_555 1_555
H30 C20 1_555 1_555
C21 C20 1_555 1_555
H31 C21 1_555 1_555
C22 C17 1_555 1_555
H32 C22 1_555 1_555
N1 C1 1_555 1_555
N2 C6 1_555 1_555
N3 C11 1_555 1_555
N4 C17 1_555 1_555
H33 N4 1_555 1_555
P1 N1 1_555 1_555
C5 N1 1_555 1_555
C7 N2 1_555 1_555
C15 C16 1_555 1_555
C21 C22 1_555 1_555
N2 P1 1_555 1_555
N3 N4 1_555 1_555
N3 P1 1_555 1_555

#END
