
#######################################################################
#
#                 Cambridge Crystallographic Data Centre
#                                CCDC 
#
#######################################################################
#
# If this CIF has been generated from an entry in the Cambridge 
# Structural Database, then it will include bibliographic, chemical, 
# crystal, experimental, refinement or atomic coordinate data resulting 
# from the CCDC's data processing and validation procedures.
#
#######################################################################

data_LITVOA
_chemical_formula_moiety         'C1 H6 N3 1+,C6 H4 Cl1 O3 S1 1-'
_chemical_name_systematic        'Guanidinium 2-chlorobenzenesulfonate'
_symmetry_cell_setting           triclinic
_symmetry_space_group_name_H-M   'P -1'
_symmetry_Int_Tables_number      2
_space_group_name_Hall           '-P 1'
loop_
_symmetry_equiv_pos_site_id
_symmetry_equiv_pos_as_xyz
1 x,y,z
2 -x,-y,-z
_cell_length_a                   7.121(5)
_cell_length_b                   7.347(5)
_cell_length_c                   11.661(5)
_cell_angle_alpha                80.198(5)
_cell_angle_beta                 83.673(5)
_cell_angle_gamma                63.966(5)
_cell_volume                     539.741
_exptl_crystal_colour            colorless
_exptl_crystal_description       plate
_cell_formula_units_Z            2
_exptl_crystal_recrystallization_method methanol
loop_
_atom_site_label
_atom_site_type_symbol
_atom_site_fract_x
_atom_site_fract_y
_atom_site_fract_z
Cl1 Cl 0.32826(7) 0.09841(6) 0.12677(4)
S1 S 0.20424(5) 0.43446(5) 0.30662(3)
O1 O 0.08015(17) 0.31887(17) 0.33569(10)
C1 C 0.2143(2) 0.4967(2) 0.15215(13)
O2 O 0.10680(17) 0.63117(17) 0.35099(10)
C2 C 0.2683(2) 0.3527(2) 0.07611(14)
O3 O 0.42126(17) 0.31655(17) 0.33931(10)
C3 C 0.2803(3) 0.4071(3) -0.04340(15)
H7 H 0.3132 0.3083 -0.0944
C4 C 0.2440(3) 0.6066(3) -0.08800(15)
H8 H 0.2533 0.6445 -0.1697
C5 C 0.1942(3) 0.7502(3) -0.01364(16)
H9 H 0.1720 0.8861 -0.0443
C6 C 0.1766(2) 0.6966(2) 0.10567(15)
H10 H 0.1384 0.7972 0.1561
N1 N 0.6316(2) 0.5644(2) 0.38378(12)
H1 H 0.7689 0.5008 0.3781
H2 H 0.5563 0.4951 0.3880
N2 N 0.6514(2) 0.8690(2) 0.37960(13)
H3 H 0.7888 0.8056 0.3739
H4 H 0.5892 1.0020 0.3811
N3 N 0.3306(2) 0.8593(2) 0.39627(13)
H5 H 0.2560 0.7891 0.4016
H6 H 0.2680 0.9922 0.3978
C7 C 0.5383(2) 0.7644(2) 0.38598(13)
loop_
_geom_bond_atom_site_label_1
_geom_bond_atom_site_label_2
_geom_bond_site_symmetry_1
_geom_bond_site_symmetry_2
Cl1 C2 1_555 1_555
S1 O1 1_555 1_555
N1 H1 1_555 1_555
H2 N1 1_555 1_555
C1 S1 1_555 1_555
O2 S1 1_555 1_555
N2 H3 1_555 1_555
H4 N2 1_555 1_555
C2 C1 1_555 1_555
O3 S1 1_555 1_555
N3 H5 1_555 1_555
H6 N3 1_555 1_555
C3 C2 1_555 1_555
H7 C3 1_555 1_555
C4 C3 1_555 1_555
H8 C4 1_555 1_555
C5 C4 1_555 1_555
H9 C5 1_555 1_555
C6 C1 1_555 1_555
H10 C6 1_555 1_555
C7 N1 1_555 1_555
N2 C7 1_555 1_555
N3 C7 1_555 1_555
C5 C6 1_555 1_555

#END
