
#######################################################################
#
#                 Cambridge Crystallographic Data Centre
#                                CCDC 
#
#######################################################################
#
# If this CIF has been generated from an entry in the Cambridge 
# Structural Database, then it will include bibliographic, chemical, 
# crystal, experimental, refinement or atomic coordinate data resulting 
# from the CCDC's data processing and validation procedures.
#
#######################################################################

data_LITWUH
_chemical_formula_moiety         'C1 H6 N3 1+,C6 H4 F1 O3 S1 1-'
_chemical_name_systematic        'Guanidinium 3-fluorobenzenesulfonate'
_symmetry_cell_setting           triclinic
_symmetry_space_group_name_H-M   'P -1'
_symmetry_Int_Tables_number      2
_space_group_name_Hall           '-P 1'
loop_
_symmetry_equiv_pos_site_id
_symmetry_equiv_pos_as_xyz
1 x,y,z
2 -x,-y,-z
_cell_length_a                   7.169(5)
_cell_length_b                   7.304(5)
_cell_length_c                   11.532(5)
_cell_angle_alpha                72.377(5)
_cell_angle_beta                 85.075(5)
_cell_angle_gamma                62.944(5)
_cell_volume                     511.565
_exptl_crystal_colour            colorless
_exptl_crystal_description       plate
_cell_formula_units_Z            2
_exptl_crystal_recrystallization_method methanol
loop_
_atom_site_label
_atom_site_type_symbol
_atom_site_fract_x
_atom_site_fract_y
_atom_site_fract_z
S1 S 0.16616(6) -0.00522(6) 0.80072(3)
F1 F -0.3134(2) 0.3647(2) 0.41583(12)
O1 O 0.06108(17) -0.14224(17) 0.83543(10)
C1 C 0.1153(2) 0.1183(2) 0.64121(14)
O2 O 0.07511(17) 0.17250(17) 0.85458(10)
C2 C -0.0834(3) 0.1880(3) 0.59050(15)
H5 H -0.1889 0.1634 0.6386
O3 O 0.39345(17) -0.12445(17) 0.82265(10)
C3 C -0.1208(3) 0.2944(3) 0.46729(17)
C4 C 0.0273(3) 0.3328(3) 0.39442(16)
H8 H -0.0044 0.4060 0.3097
C5 C 0.2226(3) 0.2630(3) 0.44672(17)
H9 H 0.3267 0.2888 0.3978
C6 C 0.2686(3) 0.1550(3) 0.57068(16)
H10 H 0.4036 0.1069 0.6066
N1 N 0.3119(2) 0.3891(2) 0.88862(13)
H1 H 0.2466 0.5230 0.8910
H2 H 0.2403 0.3169 0.8916
N2 N 0.6164(2) 0.0929(2) 0.87900(13)
H3 H 0.7536 0.0297 0.8750
H4 H 0.5443 0.0213 0.8820
N3 N 0.6265(2) 0.4046(2) 0.87592(13)
H6 H 0.7636 0.3420 0.8719
H7 H 0.5609 0.5393 0.8769
C7 C 0.5184(2) 0.2960(2) 0.88046(13)
loop_
_geom_bond_atom_site_label_1
_geom_bond_atom_site_label_2
_geom_bond_site_symmetry_1
_geom_bond_site_symmetry_2
S1 O1 1_555 1_555
F1 C3 1_555 1_555
N1 H1 1_555 1_555
H2 N1 1_555 1_555
C1 S1 1_555 1_555
O2 S1 1_555 1_555
N2 H3 1_555 1_555
H4 N2 1_555 1_555
C2 C1 1_555 1_555
H5 C2 1_555 1_555
O3 S1 1_555 1_555
N3 H6 1_555 1_555
H7 N3 1_555 1_555
C3 C2 1_555 1_555
C4 C3 1_555 1_555
H8 C4 1_555 1_555
C5 C4 1_555 1_555
H9 C5 1_555 1_555
C6 C1 1_555 1_555
H10 C6 1_555 1_555
C7 N1 1_555 1_555
N2 C7 1_555 1_555
N3 C7 1_555 1_555
C5 C6 1_555 1_555

#END
