
#######################################################################
#
#                 Cambridge Crystallographic Data Centre
#                                CCDC 
#
#######################################################################
#
# If this CIF has been generated from an entry in the Cambridge 
# Structural Database, then it will include bibliographic, chemical, 
# crystal, experimental, refinement or atomic coordinate data resulting 
# from the CCDC's data processing and validation procedures.
#
#######################################################################

data_LITWER
_chemical_formula_moiety         'C1 H6 N3 1+,C7 H7 O3 S1 1-'
_chemical_name_systematic        'Guanidinium 2-methylbenzenesulfonate'
_symmetry_cell_setting           orthorhombic
_symmetry_space_group_name_H-M   'P n m a'
_symmetry_Int_Tables_number      62
_space_group_name_Hall           '-P 2ac 2n'
loop_
_symmetry_equiv_pos_site_id
_symmetry_equiv_pos_as_xyz
1 x,y,z
2 1/2-x,-y,1/2+z
3 1/2+x,1/2-y,1/2-z
4 -x,1/2+y,-z
5 -x,-y,-z
6 1/2+x,y,1/2-z
7 1/2-x,1/2+y,1/2+z
8 x,1/2-y,z
_cell_length_a                   16.315(2)
_cell_length_b                   7.5145(10)
_cell_length_c                   9.2773(13)
_cell_angle_alpha                90
_cell_angle_beta                 90
_cell_angle_gamma                90
_cell_volume                     1137.39
_exptl_crystal_colour            colorless
_exptl_crystal_description       plate
_cell_formula_units_Z            4
_exptl_crystal_recrystallization_method methanol
loop_
_atom_site_label
_atom_site_type_symbol
_atom_site_fract_x
_atom_site_fract_y
_atom_site_fract_z
S1 S 0.13691(3) 0.2500 0.32014(6)
O1 O 0.12420(7) 0.08909(16) 0.40583(13)
C1 C 0.06287(14) 0.2500 0.1807(3)
O2 O 0.21724(10) 0.2500 0.2498(2)
C2 C -0.02133(15) 0.2500 0.2139(3)
C3 C -0.07523(17) 0.2500 0.0978(3)
H5 H -0.1326 0.2500 0.1158
C4 C -0.0477(2) 0.2500 -0.0427(4)
H6 H -0.0862 0.2500 -0.1196
C5 C 0.0347(2) 0.2500 -0.0724(3)
H7 H 0.0532 0.2500 -0.1695
C6 C 0.09043(17) 0.2500 0.0392(3)
H8 H 0.1475 0.2500 0.0193
C7 C -0.05384(16) 0.2500 0.3653(3)
O1G O 0.12420(7) 0.41091(16) 0.40583(13)
N1 N 0.21582(9) 0.0974(2) 0.67954(16)
H1 H 0.1785 0.0974 0.6110
H2 H 0.2345 -0.0040 0.7138
N2 N 0.29871(13) 0.2500 0.8369(2)
H3 H 0.3164 0.1486 0.8727
H4 H 0.3174 0.3514 0.8711
C8 C 0.24387(15) 0.2500 0.7311(3)
N1G N 0.21582(9) 0.4026(2) 0.67954(16)
H1G H 0.1785 0.4026 0.6110
H2G H 0.2345 0.5040 0.7138
H9? H -0.0264 0.1568 0.4212
H10? H -0.1130 0.2272 0.3637
H11? H -0.0434 0.3660 0.4099
loop_
_geom_bond_atom_site_label_1
_geom_bond_atom_site_label_2
_geom_bond_site_symmetry_1
_geom_bond_site_symmetry_2
S1 O1 1_555 1_555
N1 H1 1_555 1_555
H2 N1 1_555 1_555
C1 S1 1_555 1_555
O2 S1 1_555 1_555
N2 H3 1_555 1_555
H4 N2 1_555 1_555
C2 C1 1_555 1_555
C3 C2 1_555 1_555
H5 C3 1_555 1_555
C4 C3 1_555 1_555
H6 C4 1_555 1_555
C5 C4 1_555 1_555
H7 C5 1_555 1_555
C6 C1 1_555 1_555
H8 C6 1_555 1_555
C7 C2 1_555 1_555
C8 N1 1_555 1_555
O1G S1 1_555 1_555
N1G C8 1_555 1_555
H1G N1G 1_555 1_555
H2G N1G 1_555 1_555
N2 C8 1_555 1_555
C5 C6 1_555 1_555

#END
