
#######################################################################
#
#                 Cambridge Crystallographic Data Centre
#                                CCDC 
#
#######################################################################
#
# If this CIF has been generated from an entry in the Cambridge 
# Structural Database, then it will include bibliographic, chemical, 
# crystal, experimental, refinement or atomic coordinate data resulting 
# from the CCDC's data processing and validation procedures.
#
#######################################################################

data_LITWAN
_chemical_formula_moiety         'C1 H6 N3 1+,C7 H7 O3 S1 1-,0.5(C10 H14)'
_chemical_name_systematic        
'Guanidinium 2-methylbenzenesulfonate hemikis(1,2,3,4-tetramethylbenzene) clathrate'
_symmetry_cell_setting           monoclinic
_symmetry_space_group_name_H-M   'P 21/n'
_symmetry_Int_Tables_number      14
_space_group_name_Hall           '-P 2yn'
loop_
_symmetry_equiv_pos_site_id
_symmetry_equiv_pos_as_xyz
1 x,y,z
2 1/2-x,1/2+y,1/2-z
3 -x,-y,-z
4 1/2+x,1/2-y,1/2+z
_cell_length_a                   7.2620(8)
_cell_length_b                   18.062(2)
_cell_length_c                   12.1437(14)
_cell_angle_alpha                90
_cell_angle_beta                 90.069(2)
_cell_angle_gamma                90
_cell_volume                     1592.84
_exptl_crystal_colour            colorless
_exptl_crystal_description       plate
_cell_formula_units_Z            4
loop_
_atom_site_label
_atom_site_type_symbol
_atom_site_fract_x
_atom_site_fract_y
_atom_site_fract_z
N1 N 0.26027(18) 0.27634(9) 0.12181(12)
H1 H 0.1555 0.2870 0.0889
H2 H 0.3654 0.2848 0.0881
N2 N 0.41770(19) 0.23079(8) 0.27095(12)
H3 H 0.4177 0.2112 0.3373
H4 H 0.5226 0.2393 0.2370
N3 N 0.10169(19) 0.23496(9) 0.27278(12)
H5 H -0.0029 0.2457 0.2398
H6 H 0.1012 0.2159 0.3394
C8 C 0.2597(2) 0.24760(9) 0.22216(13)
C9 C 0.1467(9) -0.0598(3) 0.0411(4)
C10 C 0.1335(12) 0.0186(4) 0.0412(6)
C11 C 0.0204(9) -0.0507(3) 0.0140(3)
C12 C 0.1497(12) -0.0097(5) 0.0628(7)
C13 C 0.1387(9) 0.0675(4) 0.0623(4)
H14 H 0.2314 0.0964 0.0970
C14 C 0.0077(11) -0.1012(4) -0.0110(5)
H15 H 0.0152 -0.1537 -0.0107
C15 C 0.3053(10) -0.0992(3) 0.0930(5)
H16 H 0.2997 -0.0932 0.1732
H17 H 0.4210 -0.0784 0.0654
H18 H 0.2993 -0.1520 0.0746
C16 C 0.2755(9) 0.0644(3) 0.0969(4)
H19 H 0.3700 0.0321 0.1287
H20 H 0.2179 0.0936 0.1555
H21 H 0.3324 0.0978 0.0432
C17 C 0.0364(13) -0.1335(4) 0.0111(6)
H22 H 0.1405 -0.1491 0.0570
H23 H -0.0774 -0.1556 0.0393
H24 H 0.0564 -0.1498 -0.0649
C18 C 0.3181(9) -0.0437(5) 0.1237(5)
H25 H 0.3942 -0.0711 0.0710
H26 H 0.3913 -0.0040 0.1570
H27 H 0.2751 -0.0774 0.1814
C9B C -0.1467(9) 0.0598(3) -0.0411(4)
C10B C -0.1335(12) -0.0186(4) -0.0412(6)
C11B C -0.0204(9) 0.0507(3) -0.0140(3)
C12B C -0.1497(12) 0.0097(5) -0.0628(7)
C13B C -0.1387(9) -0.0675(4) -0.0623(4)
H14B H -0.2314 -0.0964 -0.0970
C14B C -0.0077(11) 0.1012(4) 0.0110(5)
H15B H -0.0152 0.1537 0.0107
C15B C -0.3053(10) 0.0992(3) -0.0930(5)
H16B H -0.2997 0.0932 -0.1732
H17B H -0.4210 0.0784 -0.0654
H18B H -0.2993 0.1520 -0.0746
C16B C -0.2755(9) -0.0644(3) -0.0969(4)
H19B H -0.3700 -0.0321 -0.1287
H20B H -0.2179 -0.0936 -0.1555
H21B H -0.3324 -0.0978 -0.0432
C17B C -0.0364(13) 0.1335(4) -0.0111(6)
H22B H -0.1405 0.1491 -0.0570
H23B H 0.0774 0.1556 -0.0393
H24B H -0.0564 0.1498 0.0649
C18B C -0.3181(9) 0.0437(5) -0.1237(5)
H25B H -0.3942 0.0711 -0.0710
H26B H -0.3913 0.0040 -0.1570
H27B H -0.2751 0.0774 -0.1814
S1 S 0.25762(5) 0.17359(2) 0.56696(3)
O1 O 0.42636(15) 0.18427(6) 0.50302(9)
C1 C 0.2486(2) 0.07874(9) 0.60427(13)
O2 O 0.26000(15) 0.21559(7) 0.66947(10)
C2 C 0.2481(2) 0.02330(10) 0.52392(16)
O3 O 0.09278(15) 0.18922(7) 0.50178(9)
C3 C 0.2408(3) -0.04988(12) 0.5609(2)
H7 H 0.2407 -0.0888 0.5083
C4 C 0.2339(3) -0.06743(14) 0.6703(3)
H8 H 0.2290 -0.1178 0.6925
C5 C 0.2340(3) -0.01218(15) 0.7484(2)
H9 H 0.2296 -0.0245 0.8244
C6 C 0.2406(2) 0.06164(12) 0.71606(15)
H10 H 0.2397 0.1000 0.7696
C7 C 0.2563(3) 0.03796(12) 0.40190(15)
H11 H 0.2374 -0.0085 0.3617
H12 H 0.3771 0.0585 0.3830
H13 H 0.1599 0.0734 0.3815
loop_
_geom_bond_atom_site_label_1
_geom_bond_atom_site_label_2
_geom_bond_site_symmetry_1
_geom_bond_site_symmetry_2
S1 O1 1_555 1_555
N1 H1 1_555 1_555
H2 N1 1_555 1_555
C1 S1 1_555 1_555
O2 S1 1_555 1_555
N2 H3 1_555 1_555
H4 N2 1_555 1_555
C2 C1 1_555 1_555
O3 S1 1_555 1_555
N3 H5 1_555 1_555
H6 N3 1_555 1_555
C3 C2 1_555 1_555
H7 C3 1_555 1_555
C4 C3 1_555 1_555
H8 C4 1_555 1_555
C5 C4 1_555 1_555
H9 C5 1_555 1_555
C6 C1 1_555 1_555
H10 C6 1_555 1_555
C7 C2 1_555 1_555
H11 C7 1_555 1_555
H12 C7 1_555 1_555
H13 C7 1_555 1_555
C8 N1 1_555 1_555
C9 C10 1_555 1_555
C10 C11 1_555 1_555
C11 C9 1_555 1_555
C12 C9 1_555 1_555
C13 C10 1_555 1_555
H14 C13 1_555 1_555
C14 C9 1_555 1_555
H15 C14 1_555 1_555
C15 C9 1_555 1_555
H16 C15 1_555 1_555
H17 C15 1_555 1_555
H18 C15 1_555 1_555
C16 C10 1_555 1_555
H19 C16 1_555 1_555
H20 H14 1_555 1_555
H21 C16 1_555 1_555
C17 C9 1_555 1_555
H22 C17 1_555 1_555
H23 C17 1_555 1_555
H24 C14 1_555 1_555
C18 C9 1_555 1_555
H25 C15 1_555 1_555
H26 H19 1_555 1_555
H27 C15 1_555 1_555
C9B C10B 1_555 1_555
C10B C11 1_555 1_555
C11B C10 1_555 1_555
C12B C9B 1_555 1_555
C13B C11 1_555 1_555
H14B C13B 1_555 1_555
C14B C13 1_555 1_555
H15B C14B 1_555 1_555
C15B C9B 1_555 1_555
H16B C15B 1_555 1_555
H17B C15B 1_555 1_555
H18B C15B 1_555 1_555
C16B C10B 1_555 1_555
H19B C16B 1_555 1_555
H20B H14B 1_555 1_555
H21B C16B 1_555 1_555
C17B C9B 1_555 1_555
H22B C17B 1_555 1_555
H23B C17B 1_555 1_555
H24B C14B 1_555 1_555
C18B C9B 1_555 1_555
H25B C15B 1_555 1_555
H26B H19B 1_555 1_555
H27B C15B 1_555 1_555
N2 C8 1_555 1_555
N3 C8 1_555 1_555
C5 C6 1_555 1_555
C10 C12 1_555 1_555
C11 C12 1_555 1_555
C11 C14 1_555 1_555
C11 C17 1_555 1_555
C12 C13 1_555 1_555
C12 C16 1_555 1_555
C12 C18 1_555 1_555
C13 C16 1_555 1_555
C13 C11B 1_555 1_555
H14 C16 1_555 1_555
C14 C17 1_555 1_555
C14 C13B 1_555 1_555
H15 C17 1_555 1_555
H15 H24 1_555 1_555
C15 C18 1_555 1_555
H16 C18 1_555 1_555
H16 H27 1_555 1_555
H17 C18 1_555 1_555
H17 H25 1_555 1_555
C16 H20 1_555 1_555
C17 H24 1_555 1_555
C18 H25 1_555 1_555
C18 H26 1_555 1_555
C18 H27 1_555 1_555
C9B C11B 1_555 1_555
C9B C14B 1_555 1_555
C10B C11B 1_555 1_555
C10B C12B 1_555 1_555
C10B C13B 1_555 1_555
C11B C12B 1_555 1_555
C11B C14B 1_555 1_555
C11B C17B 1_555 1_555
C12B C13B 1_555 1_555
C12B C16B 1_555 1_555
C12B C18B 1_555 1_555
C13B C16B 1_555 1_555
H14B C16B 1_555 1_555
C14B C17B 1_555 1_555
H15B C17B 1_555 1_555
H15B H24B 1_555 1_555
C15B C18B 1_555 1_555
H16B C18B 1_555 1_555
H16B H27B 1_555 1_555
H17B C18B 1_555 1_555
H17B H25B 1_555 1_555
C16B H20B 1_555 1_555
C17B H24B 1_555 1_555
C18B H25B 1_555 1_555
C18B H26B 1_555 1_555
C18B H27B 1_555 1_555

#END
