
#######################################################################
#
#                 Cambridge Crystallographic Data Centre
#                                CCDC 
#
#######################################################################
#
# If this CIF has been generated from an entry in the Cambridge 
# Structural Database, then it will include bibliographic, chemical, 
# crystal, experimental, refinement or atomic coordinate data resulting 
# from the CCDC's data processing and validation procedures.
#
#######################################################################

data_LITXES
_chemical_formula_moiety         'C1 H6 N3 1+,C7 H7 O4 S1 1-,C8 H10'
_chemical_name_systematic        
'Guanidinium 4-methoxybenzenesulfonate o-xylene clathrate'
_symmetry_cell_setting           monoclinic
_symmetry_space_group_name_H-M   'C c'
_symmetry_Int_Tables_number      9
_space_group_name_Hall           'C -2yc'
loop_
_symmetry_equiv_pos_site_id
_symmetry_equiv_pos_as_xyz
1 x,y,z
2 x,-y,1/2+z
3 1/2+x,1/2+y,z
4 1/2+x,1/2-y,1/2+z
_cell_length_a                   7.4409(14)
_cell_length_b                   20.364(4)
_cell_length_c                   12.248(2)
_cell_angle_alpha                90
_cell_angle_beta                 93.075(3)
_cell_angle_gamma                90
_cell_volume                     1853.22
_exptl_crystal_colour            colorless
_exptl_crystal_description       plate
_cell_formula_units_Z            4
loop_
_atom_site_label
_atom_site_type_symbol
_atom_site_fract_x
_atom_site_fract_y
_atom_site_fract_z
S1 S 0.93528(6) 0.69559(3) 0.34641(4)
O1 O 0.9360(2) 0.71206(8) 0.46213(12)
C1 C 0.9620(3) 0.60992(11) 0.33850(18)
O2 O 1.0889(2) 0.72505(8) 0.29412(11)
C2 C 1.0639(3) 0.57678(13) 0.42056(18)
H5 H 1.1148 0.6003 0.4817
O3 O 0.7656(2) 0.71157(8) 0.28699(11)
C3 C 1.0900(3) 0.51056(14) 0.41255(19)
H8 H 1.1580 0.4882 0.4689
O4 O 1.0548(3) 0.40973(9) 0.32336(14)
C4 C 1.0186(3) 0.47549(12) 0.32333(19)
C5 C 0.9200(3) 0.50822(11) 0.24016(17)
H9 H 0.8728 0.4849 0.1778
C6 C 0.8916(3) 0.57528(11) 0.24955(17)
H10 H 0.8226 0.5977 0.1937
C7 C 0.9919(5) 0.37212(14) 0.2313(2)
H11 H 0.8600 0.3721 0.2265
H12 H 1.0358 0.3269 0.2393
H13 H 1.0366 0.3914 0.1646
N1 N 1.4395(3) 0.72707(9) 0.40392(15)
H1 H 1.5402 0.7231 0.3700
H2 H 1.3353 0.7214 0.3677
N2 N 1.6017(3) 0.74996(9) 0.56381(16)
H3 H 1.6057 0.7589 0.6342
H4 H 1.7022 0.7466 0.5294
N3 N 1.2931(2) 0.74653(8) 0.56115(15)
H6 H 1.2966 0.7555 0.6315
H7 H 1.1889 0.7409 0.5249
C8 C 1.4449(3) 0.74153(10) 0.50972(17)
C9 C 1.5345(3) 0.45609(11) 0.51931(18)
C10 C 1.5968(3) 0.51534(12) 0.47957(19)
H14 H 1.6555 0.5155 0.4126
C11 C 1.5763(4) 0.57373(12) 0.5341(2)
H15 H 1.6203 0.6134 0.5048
C12 C 1.4923(4) 0.57435(13) 0.6304(2)
H16 H 1.4771 0.6146 0.6682
C13 C 1.4295(4) 0.51645(14) 0.6729(2)
H17 H 1.3714 0.5173 0.7401
C14 C 1.4496(3) 0.45668(12) 0.61913(19)
C15 C 1.3784(4) 0.39409(14) 0.6672(3)
H18 H 1.3301 0.4036 0.7384
H19 H 1.4762 0.3620 0.6765
H20 H 1.2827 0.3761 0.6179
C16 C 1.5559(5) 0.39432(14) 0.4556(3)
H21 H 1.6189 0.4040 0.3893
H22 H 1.4369 0.3760 0.4354
H23 H 1.6257 0.3625 0.5003
loop_
_geom_bond_atom_site_label_1
_geom_bond_atom_site_label_2
_geom_bond_site_symmetry_1
_geom_bond_site_symmetry_2
S1 O1 1_555 1_555
N1 H1 1_555 1_555
H2 N1 1_555 1_555
C1 S1 1_555 1_555
O2 S1 1_555 1_555
N2 H3 1_555 1_555
H4 N2 1_555 1_555
C2 C1 1_555 1_555
H5 C2 1_555 1_555
O3 S1 1_555 1_555
N3 H6 1_555 1_555
H7 N3 1_555 1_555
C3 C2 1_555 1_555
H8 C3 1_555 1_555
O4 C4 1_555 1_555
C4 C3 1_555 1_555
C5 C4 1_555 1_555
H9 C5 1_555 1_555
C6 C1 1_555 1_555
H10 C6 1_555 1_555
C7 O4 1_555 1_555
H11 C7 1_555 1_555
H12 C7 1_555 1_555
H13 C7 1_555 1_555
C8 N1 1_555 1_555
C9 C10 1_555 1_555
C10 H14 1_555 1_555
C11 C10 1_555 1_555
H15 C11 1_555 1_555
C12 C11 1_555 1_555
H16 C12 1_555 1_555
C13 C12 1_555 1_555
H17 C13 1_555 1_555
C14 C9 1_555 1_555
C15 C14 1_555 1_555
H18 C15 1_555 1_555
H19 C15 1_555 1_555
H20 C15 1_555 1_555
C16 C9 1_555 1_555
H21 C16 1_555 1_555
H22 C16 1_555 1_555
H23 C16 1_555 1_555
N2 C8 1_555 1_555
N3 C8 1_555 1_555
C5 C6 1_555 1_555
C13 C14 1_555 1_555

#END
