
#######################################################################
#
#                 Cambridge Crystallographic Data Centre
#                                CCDC 
#
#######################################################################
#
# If this CIF has been generated from an entry in the Cambridge 
# Structural Database, then it will include bibliographic, chemical, 
# crystal, experimental, refinement or atomic coordinate data resulting 
# from the CCDC's data processing and validation procedures.
#
#######################################################################

data_LITXOC
_chemical_formula_moiety         'C1 H6 N3 1+,C6 H4 Br1 O3 S1 1-,C7 H8 O1'
_chemical_name_systematic        
'Guanidinium 4-bromobenzenesulfonate methoxybenzene clathrate'
_symmetry_cell_setting           orthorhombic
_symmetry_space_group_name_H-M   'P 21 21 21'
_symmetry_Int_Tables_number      19
_space_group_name_Hall           'P 2ac 2ab'
loop_
_symmetry_equiv_pos_site_id
_symmetry_equiv_pos_as_xyz
1 x,y,z
2 1/2-x,-y,1/2+z
3 1/2+x,1/2-y,-z
4 -x,1/2+y,1/2-z
_cell_length_a                   7.7431(4)
_cell_length_b                   11.2471(6)
_cell_length_c                   19.8076(12)
_cell_angle_alpha                90
_cell_angle_beta                 90
_cell_angle_gamma                90
_cell_volume                     1724.99
_exptl_crystal_colour            colorless
_exptl_crystal_description       plate
_cell_formula_units_Z            4
loop_
_atom_site_label
_atom_site_type_symbol
_atom_site_fract_x
_atom_site_fract_y
_atom_site_fract_z
Br1 Br 0.74590(5) 0.97545(2) 0.863398(13)
S1 S 0.75665(12) 0.79586(5) 1.17123(3)
O1 O 0.5992(3) 0.7254(2) 1.18072(12)
C1 C 0.7561(5) 0.8423(2) 1.08587(12)
O2 O 0.9133(3) 0.7261(2) 1.18058(12)
C2 C 0.8448(4) 0.7796(3) 1.03646(16)
H5 H 0.9079 0.7103 1.0483
O3 O 0.7546(3) 0.90458(14) 1.21132(9)
C3 C 0.8417(4) 0.8174(3) 0.97013(16)
H8 H 0.9030 0.7747 0.9364
C4 C 0.7483(5) 0.9183(2) 0.95338(12)
C5 C 0.6558(4) 0.9805(3) 1.00177(16)
H9 H 0.5905 1.0486 0.9895
C6 C 0.6597(4) 0.9424(3) 1.06807(16)
H10 H 0.5966 0.9843 1.1016
N1 N 0.5957(3) 0.4938(3) 1.25059(14)
H1 H 0.4968 0.4605 1.2615
H2 H 0.5969 0.5615 1.2283
N2 N 0.8931(3) 0.4948(2) 1.25366(14)
H3 H 0.8944 0.5639 1.2329
H4 H 0.9908 0.4604 1.2651
N3 N 0.7419(4) 0.34004(17) 1.30153(11)
H6 H 0.6431 0.3065 1.3125
H7 H 0.8399 0.3060 1.3129
C7 C 0.7429(5) 0.4422(2) 1.26779(12)
O4 O 0.2753(4) 1.1947(2) 0.86832(11)
C8 C 0.2790(4) 1.1656(3) 0.93545(16)
C9 C 0.3543(4) 1.2347(3) 0.98530(17)
H11 H 0.4114 1.3066 0.9738
C10 C 0.3461(4) 1.1984(3) 1.05188(17)
H12 H 0.3967 1.2461 1.0862
C11 C 0.2656(6) 1.0943(3) 1.06881(17)
H13 H 0.2604 1.0699 1.1147
C12 C 0.1919(4) 1.0246(3) 1.0190(2)
H14 H 0.1365 0.9522 1.0310
C13 C 0.1977(4) 1.0591(3) 0.95184(19)
H15 H 0.1473 1.0110 0.9177
C14 C 0.3792(6) 1.2941(4) 0.84780(19)
H16 H 0.3418 1.3655 0.8721
H17 H 0.3661 1.3067 0.7991
H18 H 0.5007 1.2778 0.8582
loop_
_geom_bond_atom_site_label_1
_geom_bond_atom_site_label_2
_geom_bond_site_symmetry_1
_geom_bond_site_symmetry_2
Br1 C4 1_555 1_555
S1 O1 1_555 1_555
N1 H1 1_555 1_555
H2 N1 1_555 1_555
C1 S1 1_555 1_555
O2 S1 1_555 1_555
N2 H3 1_555 1_555
H4 N2 1_555 1_555
C2 C1 1_555 1_555
H5 C2 1_555 1_555
O3 S1 1_555 1_555
N3 H6 1_555 1_555
H7 N3 1_555 1_555
C3 C2 1_555 1_555
H8 C3 1_555 1_555
C4 C3 1_555 1_555
C5 C4 1_555 1_555
H9 C5 1_555 1_555
C6 C1 1_555 1_555
H10 C6 1_555 1_555
C7 N1 1_555 1_555
O4 C8 1_555 1_555
C8 C9 1_555 1_555
C9 H11 1_555 1_555
C10 C9 1_555 1_555
H12 C10 1_555 1_555
C11 C10 1_555 1_555
H13 C11 1_555 1_555
C12 C11 1_555 1_555
H14 C12 1_555 1_555
C13 C8 1_555 1_555
H15 C13 1_555 1_555
C14 O4 1_555 1_555
H16 C14 1_555 1_555
H17 C14 1_555 1_555
H18 C14 1_555 1_555
N2 C7 1_555 1_555
N3 C7 1_555 1_555
C5 C6 1_555 1_555
C12 C13 1_555 1_555

#END
