
#######################################################################
#
#                 Cambridge Crystallographic Data Centre
#                                CCDC 
#
#######################################################################
#
# If this CIF has been generated from an entry in the Cambridge 
# Structural Database, then it will include bibliographic, chemical, 
# crystal, experimental, refinement or atomic coordinate data resulting 
# from the CCDC's data processing and validation procedures.
#
#######################################################################

data_LITXIW
_chemical_formula_moiety         'C1 H6 N3 1+,C6 H4 Br1 O3 S1 1-,C9 H12 O1'
_chemical_name_systematic        
'Guanidinium 4-bromobenzenesulfonate 1-methoxy-3,4-dimethylbenzene clathrate'
_symmetry_cell_setting           orthorhombic
_symmetry_space_group_name_H-M   'P 21 21 21'
_symmetry_Int_Tables_number      19
_space_group_name_Hall           'P 2ac 2ab'
loop_
_symmetry_equiv_pos_site_id
_symmetry_equiv_pos_as_xyz
1 x,y,z
2 1/2-x,-y,1/2+z
3 1/2+x,1/2-y,-z
4 -x,1/2+y,1/2-z
_cell_length_a                   11.7808(17)
_cell_length_b                   22.579(3)
_cell_length_c                   7.5023(10)
_cell_angle_alpha                90
_cell_angle_beta                 90
_cell_angle_gamma                90
_cell_volume                     1995.6
_exptl_crystal_colour            colorless
_exptl_crystal_description       prism
_cell_formula_units_Z            4
loop_
_atom_site_label
_atom_site_type_symbol
_atom_site_fract_x
_atom_site_fract_y
_atom_site_fract_z
Br1 Br 0.39355(4) 0.910113(18) 0.14433(6)
S1 S 0.34305(6) 1.19072(4) 0.24630(11)
O1 O 0.40252(18) 1.20638(10) 0.4106(3)
O2 O 0.39899(18) 1.21623(9) 0.0897(3)
O3 O 0.22280(16) 1.20478(10) 0.2521(3)
C1 C 0.3547(2) 1.11313(14) 0.2234(4)
C2 C 0.4540(2) 1.08472(17) 0.2755(4)
H7 H 0.5138 1.1070 0.3275
C3 C 0.4666(3) 1.02456(16) 0.2526(6)
H8 H 0.5343 1.0051 0.2887
C4 C 0.3780(3) 0.99302(15) 0.1753(4)
C5 C 0.2795(3) 1.02033(16) 0.1227(5)
H9 H 0.2201 0.9981 0.0693
C6 C 0.2678(2) 1.08072(15) 0.1485(5)
H10 H 0.1994 1.0999 0.1144
O4 O -0.0188(3) 1.0955(2) 0.1920(5)
C8 C -0.0793(5) 1.0446(2) 0.1649(8)
C9 C -0.0324(4) 0.9917(3) 0.2311(7)
H11 H 0.0382 0.9932 0.2923
C10 C -0.0855(5) 0.9379(4) 0.2101(6)
C11 C -0.1894(8) 0.9360(3) 0.1203(9)
C12 C -0.2342(7) 0.9889(4) 0.0583(9)
H12 H -0.3053 0.9878 -0.0014
C13 C -0.1817(5) 1.0427(3) 0.0784(7)
H13 H -0.2155 1.0779 0.0334
C14 C -0.0337(6) 0.8829(3) 0.2876(8)
H14 H 0.0389 0.8928 0.3441
H15 H -0.0209 0.8539 0.1925
H16 H -0.0852 0.8661 0.3768
C15 C -0.2563(7) 0.8789(3) 0.0908(13)
H17 H -0.3262 0.8879 0.0252
H18 H -0.2755 0.8613 0.2063
H19 H -0.2102 0.8510 0.0219
C16 C -0.0669(7) 1.1490(2) 0.1300(12)
H20 H -0.0155 1.1819 0.1568
H21 H -0.1399 1.1556 0.1893
H22 H -0.0786 1.1465 0.0009
N1 N 0.28917(19) 1.21614(11) -0.2527(4)
H1 H 0.3221 1.2071 -0.3545
H2 H 0.3270 1.2127 -0.1522
N2 N 0.1338(2) 1.24856(12) -0.0967(3)
H3 H 0.1718 1.2452 0.0038
H4 H 0.0630 1.2610 -0.0953
N3 N 0.1263(2) 1.24001(12) -0.4019(3)
H5 H 0.1590 1.2310 -0.5038
H6 H 0.0555 1.2525 -0.4005
C7 C 0.1834(2) 1.23478(13) -0.2509(4)
O5? O -0.1723(7) 1.0969(4) 0.0479(11)
C17? C -0.1360(10) 1.0412(4) 0.1143(16)
C18? C -0.0379(9) 1.0251(4) 0.2053(14)
H23? H 0.0176 1.0542 0.2333
C19? C -0.0210(8) 0.9665(4) 0.2552(15)
H24? H 0.0460 0.9555 0.3174
C20? C -0.1022(8) 0.9239(4) 0.2142(15)
C21? C -0.2002(9) 0.9400(4) 0.123(2)
C22? C -0.2171(10) 0.9986(5) 0.073(2)
H25? H -0.2841 1.0096 0.0111
C23? C -0.0662(11) 0.8613(4) 0.266(2)
H26? H -0.1265 0.8333 0.2345
H27? H -0.0528 0.8597 0.3953
H28? H 0.0037 0.8508 0.2032
C24? C -0.2780(12) 0.8930(5) 0.075(3)
H29? H -0.2505 0.8553 0.1229
H30? H -0.2829 0.8903 -0.0555
H31? H -0.3534 0.9016 0.1236
C25? C -0.0932(17) 1.1448(4) 0.055(2)
H32? H -0.1285 1.1806 0.0054
H33? H -0.0258 1.1347 -0.0158
H34? H -0.0709 1.1521 0.1785
loop_
_geom_bond_atom_site_label_1
_geom_bond_atom_site_label_2
_geom_bond_site_symmetry_1
_geom_bond_site_symmetry_2
Br1 C4 1_555 1_555
S1 O1 1_555 1_555
O2 S1 1_555 1_555
O3 S1 1_555 1_555
O4 C8 1_555 1_555
N1 H1 1_555 1_555
H2 N1 1_555 1_555
N2 H3 1_555 1_555
H4 N2 1_555 1_555
N3 H5 1_555 1_555
H6 N3 1_555 1_555
C1 S1 1_555 1_555
C2 C1 1_555 1_555
H7 C2 1_555 1_555
C3 C2 1_555 1_555
H8 C3 1_555 1_555
C4 C3 1_555 1_555
C5 C4 1_555 1_555
H9 C5 1_555 1_555
C6 C1 1_555 1_555
H10 C6 1_555 1_555
C7 N1 1_555 1_555
C8 C9 1_555 1_555
C9 H11 1_555 1_555
C10 C9 1_555 1_555
C11 C10 1_555 1_555
C12 C11 1_555 1_555
H12 C12 1_555 1_555
C13 C8 1_555 1_555
H13 C13 1_555 1_555
C14 C10 1_555 1_555
H14 C14 1_555 1_555
H15 C14 1_555 1_555
H16 C14 1_555 1_555
C15 C11 1_555 1_555
H17 C15 1_555 1_555
H18 C15 1_555 1_555
H19 C15 1_555 1_555
C16 O4 1_555 1_555
H20 C16 1_555 1_555
H21 C16 1_555 1_555
H22 C16 1_555 1_555
N2 C7 1_555 1_555
N3 C7 1_555 1_555
C5 C6 1_555 1_555
C12 C13 1_555 1_555

#END
