
#######################################################################
#
#                 Cambridge Crystallographic Data Centre
#                                CCDC 
#
#######################################################################
#
# If this CIF has been generated from an entry in the Cambridge 
# Structural Database, then it will include bibliographic, chemical, 
# crystal, experimental, refinement or atomic coordinate data resulting 
# from the CCDC's data processing and validation procedures.
#
#######################################################################

data_LITXAO
_chemical_formula_moiety         'C1 H6 N3 1+,C7 H7 O3 S1 1-,C8 H10'
_chemical_name_systematic        
'Guanidinium 3-methylbenzenesulfonate p-xylene clathrate'
_symmetry_cell_setting           orthorhombic
_symmetry_space_group_name_H-M   'P 21 21 21'
_symmetry_Int_Tables_number      19
_space_group_name_Hall           'P 2ac 2ab'
loop_
_symmetry_equiv_pos_site_id
_symmetry_equiv_pos_as_xyz
1 x,y,z
2 1/2-x,-y,1/2+z
3 1/2+x,1/2-y,-z
4 -x,1/2+y,1/2-z
_cell_length_a                   7.4439(5)
_cell_length_b                   11.6454(7)
_cell_length_c                   21.0703(13)
_cell_angle_alpha                90
_cell_angle_beta                 90
_cell_angle_gamma                90
_cell_volume                     1826.53
_exptl_crystal_colour            colorless
_exptl_crystal_description       plate
_cell_formula_units_Z            4
loop_
_atom_site_label
_atom_site_type_symbol
_atom_site_fract_x
_atom_site_fract_y
_atom_site_fract_z
S1 S 0.75482(13) 0.12984(6) 0.17755(4)
O1 O 0.7431(4) 0.24898(19) 0.19875(11)
O2 O 0.5900(3) 0.0658(2) 0.18783(13)
O3 O 0.9093(3) 0.0700(2) 0.20433(14)
C2 C 0.7835(5) 0.2366(3) 0.06222(17)
H7 H 0.7597 0.3060 0.0844
C3 C 0.7916(5) 0.1339(3) 0.09484(18)
C4 C 0.8417(6) 0.1344(4) -0.0350(2)
H8 H 0.8578 0.1338 -0.0797
C5 C 0.8106(6) 0.2386(4) -0.0038(2)
C7 C 0.8493(7) 0.0321(4) -0.0017(2)
H9 H 0.8719 -0.0376 -0.0237
C8 C 0.8243(6) 0.0304(4) 0.0639(2)
H10 H 0.8293 -0.0397 0.0868
C11 C 0.8056(7) 0.3508(5) -0.0388(2)
H12 H 0.9285 0.3771 -0.0467
H13 H 0.7419 0.4080 -0.0131
H14 H 0.7430 0.3405 -0.0793
C1 C 0.7521(6) -0.2127(3) 0.26442(15)
N1 N 0.9065(5) -0.1630(3) 0.24993(17)
H1 H 1.0084 -0.1987 0.2576
H2 H 0.9074 -0.0941 0.2327
N2 N 0.7482(5) -0.3155(2) 0.29026(14)
H3 H 0.8493 -0.3521 0.2981
H4 H 0.6447 -0.3477 0.2997
N3 N 0.5991(4) -0.1561(3) 0.25287(16)
H5 H 0.4952 -0.1877 0.2626
H6 H 0.6023 -0.0874 0.2356
C6 C 1.2151(7) 0.8786(4) -0.1136(2)
C9 C 0.8958(7) 0.7475(4) -0.1077(2)
C10 C 1.2006(7) 0.7815(4) -0.0744(2)
H11 H 1.2999 0.7587 -0.0491
C12 C 0.7343(9) 0.6732(5) -0.1075(3)
H15 H 0.7623 0.6001 -0.1283
H16 H 0.6367 0.7115 -0.1304
H17 H 0.6970 0.6587 -0.0636
C13 C 0.9076(8) 0.8470(5) -0.1449(2)
H18 H 0.8065 0.8716 -0.1688
C14 C 1.0431(7) 0.7189(4) -0.0725(2)
H19 H 1.0370 0.6535 -0.0456
C15 C 1.0639(9) 0.9091(4) -0.1470(2)
H20 H 1.0679 0.9761 -0.1726
C16 C 1.3877(9) 0.9446(5) -0.1190(3)
H21 H 1.4748 0.8998 -0.1435
H22 H 1.4358 0.9593 -0.0765
H23 H 1.3651 1.0179 -0.1405
loop_
_geom_bond_atom_site_label_1
_geom_bond_atom_site_label_2
_geom_bond_site_symmetry_1
_geom_bond_site_symmetry_2
S1 O1 1_555 1_555
C1 N1 1_555 1_555
N1 H1 1_555 1_555
H2 N1 1_555 1_555
N2 C1 1_555 1_555
H3 N2 1_555 1_555
H4 N2 1_555 1_555
N3 C1 1_555 1_555
H5 N3 1_555 1_555
H6 N3 1_555 1_555
O2 S1 1_555 1_555
O3 S1 1_555 1_555
C2 H7 1_555 1_555
C3 S1 1_555 1_555
C4 H8 1_555 1_555
C5 C2 1_555 1_555
C6 C10 1_555 1_555
C7 C4 1_555 1_555
H9 C7 1_555 1_555
C8 C3 1_555 1_555
H10 C8 1_555 1_555
C9 C12 1_555 1_555
C10 H11 1_555 1_555
C11 C5 1_555 1_555
H12 C11 1_555 1_555
H13 C11 1_555 1_555
H14 C11 1_555 1_555
C12 H15 1_555 1_555
H16 C12 1_555 1_555
H17 C12 1_555 1_555
C13 C9 1_555 1_555
H18 C13 1_555 1_555
C14 C9 1_555 1_555
H19 C14 1_555 1_555
C15 C6 1_555 1_555
H20 C15 1_555 1_555
C16 C6 1_555 1_555
H21 C16 1_555 1_555
H22 C16 1_555 1_555
H23 C16 1_555 1_555
C2 C3 1_555 1_555
C4 C5 1_555 1_555
C7 C8 1_555 1_555
C10 C14 1_555 1_555
C13 C15 1_555 1_555

#END
