
#######################################################################
#
#                 Cambridge Crystallographic Data Centre
#                                CCDC 
#
#######################################################################
#
# If this CIF has been generated from an entry in the Cambridge 
# Structural Database, then it will include bibliographic, chemical, 
# crystal, experimental, refinement or atomic coordinate data resulting 
# from the CCDC's data processing and validation procedures.
#
#######################################################################

data_LITYIX
_chemical_formula_moiety         'C1 H6 N3 1+,C6 H4 Br1 O3 S1 1-,C7 H8'
_chemical_name_systematic        
'Guanidinium 4-bromobenzenesulfonate toluene clathrate'
_symmetry_cell_setting           orthorhombic
_symmetry_space_group_name_H-M   'P c a 21'
_symmetry_Int_Tables_number      29
_space_group_name_Hall           'P 2c -2ac'
loop_
_symmetry_equiv_pos_site_id
_symmetry_equiv_pos_as_xyz
1 x,y,z
2 -x,-y,1/2+z
3 1/2-x,y,1/2+z
4 1/2+x,-y,z
_cell_length_a                   19.786(3)
_cell_length_b                   7.5257(13)
_cell_length_c                   11.448(2)
_cell_angle_alpha                90
_cell_angle_beta                 90
_cell_angle_gamma                90
_cell_volume                     1704.65
_exptl_crystal_colour            colorless
_exptl_crystal_description       plate
_cell_formula_units_Z            4
loop_
_atom_site_label
_atom_site_type_symbol
_atom_site_fract_x
_atom_site_fract_y
_atom_site_fract_z
Br1 Br 0.61074(2) 0.56826(8) 0.88851(9)
S1 S 0.92534(6) 0.73321(15) 0.83762(10)
O1 O 0.94031(15) 0.8944(4) 0.9001(4)
O2 O 0.95605(15) 0.5786(4) 0.8922(4)
C1 C 0.8374(2) 0.6997(6) 0.8489(4)
C2 C 0.7028(2) 0.6271(7) 0.8705(5)
C3 C 0.7378(3) 0.5647(7) 0.7743(5)
H1 H 0.7153 0.4961 0.7165
C4 C 0.8026(3) 0.7659(7) 0.9442(4)
H2 H 0.8249 0.8368 1.0011
C5 C 0.8049(3) 0.6024(7) 0.7629(5)
H3 H 0.8292 0.5622 0.6965
C6 C 0.7343(3) 0.7263(7) 0.9547(5)
H4 H 0.7095 0.7679 1.0202
O3 O 0.94112(18) 0.7434(5) 0.7132(3)
C7 C 0.9723(2) 1.2362(6) 0.6728(5)
N1 N 0.9460(2) 1.2341(6) 0.7795(4)
H5 H 0.9406 1.3342 0.8182
H6 H 0.9339 1.1327 0.8116
N2 N 0.9788(2) 1.0884(6) 0.6120(4)
H7 H 0.9950 1.0921 0.5405
H8 H 0.9670 0.9860 0.6430
N3 N 0.9900(2) 1.3884(5) 0.6263(4)
H10 H 1.0061 1.3917 0.5548
H11 H 0.9856 1.4872 0.6667
C8 C 0.2694(3) 0.9146(7) 0.2094(6)
H9 H 0.2517 0.9793 0.2738
C9 C 0.3177(4) 0.7338(8) 0.0205(5)
H12 H 0.3355 0.6723 -0.0451
C10 C 0.3372(3) 0.8785(7) 0.2057(5)
C11 C 0.2507(4) 0.7692(8) 0.0264(6)
H13 H 0.2212 0.7327 -0.0344
C12 C 0.3600(3) 0.7861(7) 0.1088(6)
H14 H 0.4067 0.7579 0.1034
C13 C 0.2263(3) 0.8596(8) 0.1224(6)
H15 H 0.1793 0.8839 0.1285
C14 C 0.3848(3) 0.9362(9) 0.3012(7)
H16 H 0.4063 1.0487 0.2793
H17 H 0.4196 0.8451 0.3125
H18 H 0.3594 0.9522 0.3740
loop_
_geom_bond_atom_site_label_1
_geom_bond_atom_site_label_2
_geom_bond_site_symmetry_1
_geom_bond_site_symmetry_2
Br1 C2 1_555 1_555
S1 O1 1_555 1_555
O2 S1 1_555 1_555
C1 S1 1_555 1_555
C2 C3 1_555 1_555
C3 H1 1_555 1_555
C4 C1 1_555 1_555
H2 C4 1_555 1_555
C5 C1 1_555 1_555
H3 C5 1_555 1_555
C6 C2 1_555 1_555
H4 C6 1_555 1_555
C7 N1 1_555 1_555
N1 H5 1_555 1_555
H6 N1 1_555 1_555
N2 C7 1_555 1_555
H7 N2 1_555 1_555
H8 N2 1_555 1_555
O3 S1 1_555 1_555
C8 H9 1_555 1_555
N3 C7 1_555 1_555
H10 N3 1_555 1_555
H11 N3 1_555 1_555
C9 H12 1_555 1_555
C10 C8 1_555 1_555
C11 C9 1_555 1_555
H13 C11 1_555 1_555
C12 C9 1_555 1_555
H14 C12 1_555 1_555
C13 C8 1_555 1_555
H15 C13 1_555 1_555
C14 C10 1_555 1_555
H16 C14 1_555 1_555
H17 C14 1_555 1_555
H18 C14 1_555 1_555
C3 C5 1_555 1_555
C4 C6 1_555 1_555
C10 C12 1_555 1_555
C11 C13 1_555 1_555

#END
