
#######################################################################
#
#                 Cambridge Crystallographic Data Centre
#                                CCDC 
#
#######################################################################
#
# If this CIF has been generated from an entry in the Cambridge 
# Structural Database, then it will include bibliographic, chemical, 
# crystal, experimental, refinement or atomic coordinate data resulting 
# from the CCDC's data processing and validation procedures.
#
#######################################################################

data_LITZIY
_chemical_formula_moiety         'C1 H6 N3 1+,C6 H4 F1 O3 S1 1-,0.5(C9 H12)'
_chemical_name_systematic        
'Guanidinium 4-fluorobenzenesulfonate hemikis(isopropylbenzene) clathrate'
_symmetry_cell_setting           monoclinic
_symmetry_space_group_name_H-M   'P 21/n'
_symmetry_Int_Tables_number      14
_space_group_name_Hall           '-P 2yn'
loop_
_symmetry_equiv_pos_site_id
_symmetry_equiv_pos_as_xyz
1 x,y,z
2 1/2-x,1/2+y,1/2-z
3 -x,-y,-z
4 1/2+x,1/2-y,1/2+z
_cell_length_a                   7.4288(12)
_cell_length_b                   15.813(2)
_cell_length_c                   12.3793(19)
_cell_angle_alpha                90
_cell_angle_beta                 90.603(3)
_cell_angle_gamma                90
_cell_volume                     1454.14
_exptl_crystal_colour            colorless
_exptl_crystal_description       plate
_cell_formula_units_Z            4
loop_
_atom_site_label
_atom_site_type_symbol
_atom_site_fract_x
_atom_site_fract_y
_atom_site_fract_z
N1 N 0.4638(3) 0.25345(14) 1.36038(15)
H1 H 0.4643 0.2395 1.4292
H2 H 0.5661 0.2586 1.3257
N2 N 0.1547(3) 0.25921(15) 1.36014(15)
H3 H 0.1541 0.2453 1.4290
H4 H 0.0524 0.2681 1.3254
N3 N 0.3088(3) 0.28692(14) 1.20446(15)
H6 H 0.2063 0.2952 1.1699
H7 H 0.4113 0.2920 1.1700
C7 C 0.3090(3) 0.26671(14) 1.30888(17)
C8 C 0.4637(7) 0.5220(3) 0.4733(5)
C9 C 0.6191(9) 0.5708(3) 0.4776(5)
H11 H 0.6230 0.6237 0.4412
C10 C 0.7690(6) 0.5423(4) 0.5351(6)
H12 H 0.8752 0.5757 0.5380
C11 C 0.7634(7) 0.4650(4) 0.5883(5)
H13 H 0.8658 0.4455 0.6276
C12 C 0.3921(9) 0.5839(3) 0.4160(5)
H14 H 0.3960 0.6367 0.3796
C13 C 0.4580(7) 0.4446(4) 0.5265(6)
H15 H 0.6482 0.5888 0.4764
C14 C 0.3237(11) 0.5639(6) 0.4053(6)
H16 H 0.3888 0.6145 0.3771
C15 C 0.8238(11) 0.3961(5) 0.5254(5)
H17 H 0.9128 0.3684 0.5725
H18 H 0.7699 0.3542 0.4766
H19 H 0.8830 0.4402 0.4830
C16 C 0.7377(12) 0.4762(6) 0.6910(6)
H20 H 0.6341 0.4923 0.7348
H21 H 0.8146 0.4371 0.7320
H22 H 0.8068 0.5269 0.6725
C8B C 0.5363(7) 0.4780(3) 0.5267(5)
C9B C 0.3809(9) 0.4292(3) 0.5224(5)
H11B H 0.3770 0.3763 0.5588
C10B C 0.2310(6) 0.4577(4) 0.4649(6)
H12B H 0.1248 0.4243 0.4620
C11B C 0.2366(7) 0.5350(4) 0.4117(5)
H13B H 0.1342 0.5545 0.3724
C12B C 0.6079(9) 0.4161(3) 0.5840(5)
H14B H 0.6040 0.3633 0.6204
C13B C 0.5420(7) 0.5554(4) 0.4735(6)
H15B H 0.3518 0.4112 0.5236
C14B C 0.6763(11) 0.4361(6) 0.5947(6)
H16B H 0.6112 0.3855 0.6229
C15B C 0.1762(11) 0.6039(5) 0.4746(5)
H17B H 0.0872 0.6316 0.4275
H18B H 0.2301 0.6458 0.5234
H19B H 0.1170 0.5598 0.5170
C16B C 0.2623(12) 0.5238(6) 0.3090(6)
H20B H 0.3659 0.5077 0.2652
H21B H 0.1854 0.5629 0.2680
H22B H 0.1932 0.4731 0.3275
S1 S 0.19874(7) 0.68160(4) 0.85873(4)
F1 F 0.3104(2) 0.32232(9) 0.95432(13)
O1 O 0.0301(2) 0.70443(11) 0.91117(12)
C1 C 0.2323(3) 0.57257(15) 0.88514(17)
O2 O 0.3515(2) 0.72560(11) 0.90789(12)
C2 C 0.2365(4) 0.54536(17) 0.99221(19)
H5 H 0.2205 0.5848 1.0492
O3 O 0.1914(2) 0.69172(11) 0.74173(12)
C3 C 0.2639(4) 0.46096(17) 1.0153(2)
H8 H 0.2686 0.4417 1.0880
C4 C 0.2842(3) 0.40551(16) 0.9315(2)
C5 C 0.2804(5) 0.42998(19) 0.8257(2)
H9 H 0.2957 0.3898 0.7694
C6 C 0.2538(4) 0.51512(18) 0.8023(2)
H10 H 0.2503 0.5337 0.7293
loop_
_geom_bond_atom_site_label_1
_geom_bond_atom_site_label_2
_geom_bond_site_symmetry_1
_geom_bond_site_symmetry_2
S1 O1 1_555 1_555
F1 C4 1_555 1_555
N1 H1 1_555 1_555
H2 N1 1_555 1_555
C1 S1 1_555 1_555
O2 S1 1_555 1_555
N2 H3 1_555 1_555
H4 N2 1_555 1_555
C2 C1 1_555 1_555
H5 C2 1_555 1_555
O3 S1 1_555 1_555
N3 H6 1_555 1_555
H7 N3 1_555 1_555
C3 C2 1_555 1_555
H8 C3 1_555 1_555
C4 C3 1_555 1_555
C5 C4 1_555 1_555
H9 C5 1_555 1_555
C6 C1 1_555 1_555
H10 C6 1_555 1_555
C7 N1 1_555 1_555
C8 C9 1_555 1_555
C9 H11 1_555 1_555
H11 H15 1_555 1_555
C10 C9 1_555 1_555
H12 C10 1_555 1_555
C11 C10 1_555 1_555
H13 C11 1_555 1_555
C12 C8 1_555 1_555
H14 C12 1_555 1_555
C13 C8 1_555 1_555
H15 C9 1_555 1_555
C14 C8 1_555 1_555
H16 C12 1_555 1_555
C15 C11 1_555 1_555
H17 C15 1_555 1_555
H18 C15 1_555 1_555
H19 C15 1_555 1_555
C16 C11 1_555 1_555
H20 C16 1_555 1_555
H21 C16 1_555 1_555
H22 C16 1_555 1_555
C8B C8 1_555 1_555
C9B C8 1_555 1_555
H11B C13 1_555 1_555
C10B C9B 1_555 1_555
H12B C10B 1_555 1_555
C11B C12 1_555 1_555
H13B C11B 1_555 1_555
C12B C11 1_555 1_555
H14B C12B 1_555 1_555
C13B C8 1_555 1_555
H15B C13 1_555 1_555
C14B C11 1_555 1_555
H16B C12B 1_555 1_555
C15B C14 1_555 1_555
H17B C15B 1_555 1_555
H18B C15B 1_555 1_555
H19B C15B 1_555 1_555
C16B C14 1_555 1_555
H20B C16B 1_555 1_555
H21B C16B 1_555 1_555
H22B C16B 1_555 1_555
N2 C7 1_555 1_555
N3 C7 1_555 1_555
C5 C6 1_555 1_555
C9 C8B 1_555 1_555
C9 C13B 1_555 1_555
H11 C13B 1_555 1_555
C12 C14 1_555 1_555
C12 C13B 1_555 1_555
H14 H16 1_555 1_555
C13 C8B 1_555 1_555
C13 C9B 1_555 1_555
C13 C12B 1_555 1_555
H15 C13B 1_555 1_555
C14 H16 1_555 1_555
C14 C11B 1_555 1_555
C15 C14B 1_555 1_555
C16 C14B 1_555 1_555
C8B C9B 1_555 1_555
C8B C12B 1_555 1_555
C8B C13B 1_555 1_555
C8B C14B 1_555 1_555
C9B H11B 1_555 1_555
C9B H15B 1_555 1_555
H11B H15B 1_555 1_555
C10B C11B 1_555 1_555
C11B C15B 1_555 1_555
C11B C16B 1_555 1_555
C12B C14B 1_555 1_555
H14B H16B 1_555 1_555
C14B H16B 1_555 1_555

#END
