
#######################################################################
#
#                 Cambridge Crystallographic Data Centre
#                                CCDC 
#
#######################################################################
#
# If this CIF has been generated from an entry in the Cambridge 
# Structural Database, then it will include bibliographic, chemical, 
# crystal, experimental, refinement or atomic coordinate data resulting 
# from the CCDC's data processing and validation procedures.
#
#######################################################################

data_LITZEU
_chemical_formula_moiety         'C1 H6 N3 1+,C6 H4 F1 O3 S1 1-,0.5(C10 H14)'
_chemical_name_systematic        
'Guanidinium 4-fluorobenzenesulfonate hemikis(t-butylbenzene) clathrate'
_symmetry_cell_setting           orthorhombic
_symmetry_space_group_name_H-M   'P n a 21'
_symmetry_Int_Tables_number      33
_space_group_name_Hall           'P 2c -2n'
loop_
_symmetry_equiv_pos_site_id
_symmetry_equiv_pos_as_xyz
1 x,y,z
2 -x,-y,1/2+z
3 1/2-x,1/2+y,1/2+z
4 1/2+x,1/2-y,z
_cell_length_a                   32.565(14)
_cell_length_b                   7.455(3)
_cell_length_c                   12.308(5)
_cell_angle_alpha                90
_cell_angle_beta                 90
_cell_angle_gamma                90
_cell_volume                     2988.04
_exptl_crystal_colour            colorless
_exptl_crystal_description       plate
_cell_formula_units_Z            8
loop_
_atom_site_label
_atom_site_type_symbol
_atom_site_fract_x
_atom_site_fract_y
_atom_site_fract_z
O1 O 0.97198(18) 0.2481(8) 0.6276(3)
O2 O 0.98419(17) 0.4083(6) 0.7947(4)
O3 O 0.97775(18) 0.0856(7) 0.7992(4)
S1 S 0.96542(6) 0.2510(3) 0.74452(17)
C1 C 0.91205(17) 0.2694(10) 0.7657(4)
C2 C 0.8973(2) 0.2577(17) 0.8706(5)
H1 H 0.9156 0.2359 0.9292
C3 C 0.8557(2) 0.2779(16) 0.8901(6)
H2 H 0.8453 0.2804 0.9622
C4 C 0.8298(2) 0.2942(13) 0.8033(5)
C5 C 0.8431(2) 0.300(2) 0.6992(6)
H3 H 0.8242 0.3146 0.6409
C6 C 0.8852(2) 0.2856(19) 0.6794(5)
H4 H 0.8954 0.2866 0.6071
F1 F 0.78851(14) 0.3084(8) 0.8218(5)
O4 O 0.77795(18) 0.8029(8) 1.1251(3)
O5 O 0.76640(18) 0.6426(6) 0.9573(4)
O6 O 0.77219(18) 0.9658(7) 0.9541(4)
S2 S 0.78464(7) 0.7995(2) 1.00808(18)
C7 C 0.83810(17) 0.7841(10) 0.9868(5)
C8 C 0.8530(2) 0.7802(17) 0.8817(5)
H5 H 0.8345 0.7911 0.8222
C9 C 0.8946(2) 0.7604(16) 0.8627(6)
H6 H 0.9048 0.7498 0.7907
C10 C 0.9207(2) 0.7565(13) 0.9495(5)
C11 C 0.9074(2) 0.757(2) 1.0537(6)
H7 H 0.9262 0.7484 1.1123
C12 C 0.8652(2) 0.7711(19) 1.0728(5)
H8 H 0.8551 0.7716 1.1453
F2 F 0.96199(14) 0.7443(8) 0.9312(5)
C13 C 1.0067(3) 0.2505(9) 1.0777(5)
N1 N 1.0012(3) 0.0975(8) 1.0270(6)
H9 H 0.9926 0.0968 0.9592
H10 H 1.0060 -0.0043 1.0608
N2 N 0.9995(3) 0.4067(8) 1.0282(5)
H11 H 0.9910 0.4083 0.9604
H12 H 1.0034 0.5081 1.0634
N3 N 1.0189(2) 0.2511(10) 1.1816(5)
H13 H 1.0232 0.1490 1.2157
H14 H 1.0226 0.3535 1.2158
C14 C 0.7432(3) 0.8033(9) 0.6736(6)
N4 N 0.7488(3) 0.9556(8) 0.7252(6)
H15 H 0.7570 0.9552 0.7933
H16 H 0.7443 1.0580 0.6917
N5 N 0.7498(3) 0.6464(8) 0.7228(6)
H17 H 0.7580 0.6439 0.7909
H18 H 0.7459 0.5455 0.6872
N6 N 0.7313(3) 0.8031(9) 0.5695(5)
H19 H 0.7273 0.9052 0.5353
H20 H 0.7276 0.7008 0.5352
C15 C 0.8924(6) 0.661(4) 1.454(2)
H21 H 0.8985 0.6224 1.3801
H22 H 0.8855 0.5561 1.4988
H23 H 0.9165 0.7213 1.4853
C16 C 0.8484(7) 0.837(4) 1.5667(16)
H24 H 0.8260 0.9244 1.5682
H25 H 0.8730 0.8897 1.5995
H26 H 0.8403 0.7298 1.6077
C17 C 0.8197(5) 0.730(4) 1.3942(13)
H27 H 0.8271 0.6944 1.3201
H28 H 0.8003 0.8307 1.3914
H29 H 0.8070 0.6289 1.4320
C18 C 0.8572(6) 0.787(4) 1.4531(15)
C19 C 0.8711(5) 0.993(3) 1.387(2)
C20 C 0.8428(3) 1.131(3) 1.373(2)
H30 H 0.8152 1.1150 1.3954
C21 C 0.8550(5) 1.292(3) 1.326(2)
H31 H 0.8357 1.3857 1.3159
C22 C 0.8955(6) 1.315(3) 1.292(2)
H32 H 0.9039 1.4244 1.2602
C23 C 0.9238(4) 1.177(3) 1.3066(19)
H33 H 0.9514 1.1926 1.2840
C24 C 0.9116(4) 1.016(3) 1.354(2)
H34 H 0.9309 0.9219 1.3635
loop_
_geom_bond_atom_site_label_1
_geom_bond_atom_site_label_2
_geom_bond_site_symmetry_1
_geom_bond_site_symmetry_2
O1 S1 1_555 1_555
O2 S1 1_555 1_555
O3 S1 1_555 1_555
S1 C1 1_555 1_555
C1 C2 1_555 1_555
C2 H1 1_555 1_555
C3 C2 1_555 1_555
H2 C3 1_555 1_555
C4 C3 1_555 1_555
C5 C4 1_555 1_555
H3 C5 1_555 1_555
C6 C1 1_555 1_555
H4 C6 1_555 1_555
F1 C4 1_555 1_555
O4 S2 1_555 1_555
O5 S2 1_555 1_555
O6 S2 1_555 1_555
S2 C7 1_555 1_555
C7 C8 1_555 1_555
C8 H5 1_555 1_555
C9 C8 1_555 1_555
H6 C9 1_555 1_555
C10 C9 1_555 1_555
C11 C10 1_555 1_555
H7 C11 1_555 1_555
C12 C7 1_555 1_555
H8 C12 1_555 1_555
F2 C10 1_555 1_555
C13 N1 1_555 1_555
N1 H9 1_555 1_555
H10 N1 1_555 1_555
N2 C13 1_555 1_555
H11 N2 1_555 1_555
H12 N2 1_555 1_555
N3 C13 1_555 1_555
H13 N3 1_555 1_555
H14 N3 1_555 1_555
C14 N4 1_555 1_555
N4 H15 1_555 1_555
H16 N4 1_555 1_555
N5 C14 1_555 1_555
H17 N5 1_555 1_555
H18 N5 1_555 1_555
N6 C14 1_555 1_555
H19 N6 1_555 1_555
H20 N6 1_555 1_555
C15 H21 1_555 1_555
H22 C15 1_555 1_555
H23 C15 1_555 1_555
C16 H24 1_555 1_555
H25 C16 1_555 1_555
H26 C16 1_555 1_555
C17 H27 1_555 1_555
H28 C17 1_555 1_555
H29 C17 1_555 1_555
C18 C15 1_555 1_555
C19 C18 1_555 1_555
C20 C19 1_555 1_555
H30 C20 1_555 1_555
C21 C20 1_555 1_555
H31 C21 1_555 1_555
C22 C21 1_555 1_555
H32 C22 1_555 1_555
C23 C22 1_555 1_555
H33 C23 1_555 1_555
C24 C19 1_555 1_555
H34 C24 1_555 1_555
C5 C6 1_555 1_555
C11 C12 1_555 1_555
C16 C18 1_555 1_555
C17 C18 1_555 1_555
C23 C24 1_555 1_555

#END
