
#######################################################################
#
#                 Cambridge Crystallographic Data Centre
#                                CCDC 
#
#######################################################################
#
# If this CIF has been generated from an entry in the Cambridge 
# Structural Database, then it will include bibliographic, chemical, 
# crystal, experimental, refinement or atomic coordinate data resulting 
# from the CCDC's data processing and validation procedures.
#
#######################################################################

data_LITZOE
_chemical_formula_moiety         'C1 H6 N3 1+,C6 H4 F1 O3 S1 1-,C8 H11 N1'
_chemical_name_systematic        
'Guanidinium 4-fluorobenzenesulfonate N,N-dimethylaniline clathrate'
_symmetry_cell_setting           orthorhombic
_symmetry_space_group_name_H-M   'P 21 21 21'
_symmetry_Int_Tables_number      19
_space_group_name_Hall           'P 2ac 2ab'
loop_
_symmetry_equiv_pos_site_id
_symmetry_equiv_pos_as_xyz
1 x,y,z
2 1/2-x,-y,1/2+z
3 1/2+x,1/2-y,-z
4 -x,1/2+y,1/2-z
_cell_length_a                   7.5332(3)
_cell_length_b                   11.9412(5)
_cell_length_c                   20.2060(9)
_cell_angle_alpha                90
_cell_angle_beta                 90
_cell_angle_gamma                90
_cell_volume                     1817.64
_exptl_crystal_colour            colorless
_exptl_crystal_description       plate
_cell_formula_units_Z            4
loop_
_atom_site_label
_atom_site_type_symbol
_atom_site_fract_x
_atom_site_fract_y
_atom_site_fract_z
S1 S 0.26279(5) 0.64479(3) 0.188335(17)
F1 F 0.29529(19) 0.60977(12) -0.09980(5)
O1 O 0.10118(15) 0.58734(9) 0.20911(6)
C1 C 0.26975(19) 0.63521(11) 0.10124(7)
O2 O 0.42245(15) 0.58889(9) 0.21275(6)
C2 C 0.1839(2) 0.54752(14) 0.06922(9)
H5 H 0.1197 0.4934 0.0940
O3 O 0.26116(16) 0.76354(8) 0.20431(5)
C3 C 0.1927(3) 0.53954(16) 0.00082(9)
H8 H 0.1342 0.4805 -0.0220
C4 C 0.2873(2) 0.61851(16) -0.03303(8)
C5 C 0.3733(3) 0.70550(15) -0.00308(9)
H9 H 0.4377 0.7587 -0.0285
C6 C 0.3645(2) 0.71457(14) 0.06528(8)
H10 H 0.4227 0.7745 0.0873
N1 N 0.60846(18) 0.85736(14) 0.24327(7)
H1 H 0.6069 0.9272 0.2572
H2 H 0.5081 0.8217 0.2361
N2 N 0.76287(19) 0.70010(10) 0.21306(6)
H3 H 0.6622 0.6644 0.2065
H4 H 0.8645 0.6656 0.2063
N3 N 0.91328(17) 0.85931(14) 0.24399(7)
H6 H 0.9125 0.9291 0.2579
H7 H 1.0148 0.8247 0.2372
C7 C 0.7614(2) 0.80615(11) 0.23324(6)
N4 N 0.6973(2) 0.65557(13) 0.57766(7)
C8 C 0.6978(2) 0.62790(13) 0.51141(9)
C9 C 0.7835(3) 0.53033(13) 0.48864(9)
H11 H 0.8457 0.4841 0.5191
C10 C 0.7782(3) 0.50108(15) 0.42248(10)
H12 H 0.8367 0.4349 0.4082
C11 C 0.6899(3) 0.56602(19) 0.37692(10)
H13 H 0.6855 0.5446 0.3317
C12 C 0.6082(3) 0.66232(18) 0.39797(10)
H14 H 0.5483 0.7081 0.3667
C13 C 0.6112(2) 0.69435(15) 0.46401(9)
H15 H 0.5542 0.7617 0.4772
C14 C 0.6169(3) 0.75813(17) 0.60007(10)
H16 H 0.6674 0.8214 0.5756
H17 H 0.6400 0.7679 0.6475
H18 H 0.4885 0.7550 0.5925
C15 C 0.7864(3) 0.58509(16) 0.62524(9)
H19 H 0.7385 0.5089 0.6225
H20 H 0.7672 0.6148 0.6699
H21 H 0.9138 0.5837 0.6156
loop_
_geom_bond_atom_site_label_1
_geom_bond_atom_site_label_2
_geom_bond_site_symmetry_1
_geom_bond_site_symmetry_2
S1 O1 1_555 1_555
F1 C4 1_555 1_555
N1 H1 1_555 1_555
H2 N1 1_555 1_555
C1 S1 1_555 1_555
O2 S1 1_555 1_555
N2 H3 1_555 1_555
H4 N2 1_555 1_555
C2 C1 1_555 1_555
H5 C2 1_555 1_555
O3 S1 1_555 1_555
N3 H6 1_555 1_555
H7 N3 1_555 1_555
C3 C2 1_555 1_555
H8 C3 1_555 1_555
N4 C8 1_555 1_555
C4 C3 1_555 1_555
C5 C4 1_555 1_555
H9 C5 1_555 1_555
C6 C1 1_555 1_555
H10 C6 1_555 1_555
C7 N1 1_555 1_555
C8 C9 1_555 1_555
C9 H11 1_555 1_555
C10 C9 1_555 1_555
H12 C10 1_555 1_555
C11 C10 1_555 1_555
H13 C11 1_555 1_555
C12 C11 1_555 1_555
H14 C12 1_555 1_555
C13 C8 1_555 1_555
H15 C13 1_555 1_555
C14 N4 1_555 1_555
H16 C14 1_555 1_555
H17 C14 1_555 1_555
H18 C14 1_555 1_555
C15 N4 1_555 1_555
H19 C15 1_555 1_555
H20 C15 1_555 1_555
H21 C15 1_555 1_555
N2 C7 1_555 1_555
N3 C7 1_555 1_555
C5 C6 1_555 1_555
C12 C13 1_555 1_555

#END
