
#######################################################################
#
#                 Cambridge Crystallographic Data Centre
#                                CCDC 
#
#######################################################################
#
# If this CIF has been generated from an entry in the Cambridge 
# Structural Database, then it will include bibliographic, chemical, 
# crystal, experimental, refinement or atomic coordinate data resulting 
# from the CCDC's data processing and validation procedures.
#
#######################################################################

data_LIVCOJ
_chemical_formula_moiety         'C1 H6 N3 1+,C6 H4 N1 O5 S1 1-,0.5(C8 H10)'
_chemical_name_systematic        
'Guanidinium 4-nitrobenzenesulfonate hemikis(p-xylene) clathrate'
_symmetry_cell_setting           monoclinic
_symmetry_space_group_name_H-M   'P 21/c'
_symmetry_Int_Tables_number      14
_space_group_name_Hall           '-P 2ybc'
loop_
_symmetry_equiv_pos_site_id
_symmetry_equiv_pos_as_xyz
1 x,y,z
2 -x,1/2+y,1/2-z
3 -x,-y,-z
4 x,1/2-y,1/2+z
_cell_length_a                   22.9819(17)
_cell_length_b                   7.4270(6)
_cell_length_c                   19.0067(14)
_cell_angle_alpha                90
_cell_angle_beta                 114.4260(10)
_cell_angle_gamma                90
_cell_volume                     2953.82
_exptl_crystal_colour            off-white
_exptl_crystal_description       plate
_cell_formula_units_Z            8
loop_
_atom_site_label
_atom_site_type_symbol
_atom_site_fract_x
_atom_site_fract_y
_atom_site_fract_z
S1 S 0.35136(4) 0.75842(12) 0.17753(6)
O1 O 0.29910(14) 0.7682(3) 0.10101(17)
C1 C 0.4227(2) 0.7363(5) 0.1633(2)
O2 O 0.35763(13) 0.9212(3) 0.22337(16)
C2 C 0.4775(2) 0.8221(6) 0.2123(2)
H5 H 0.4770 0.8975 0.2524
O3 O 0.34788(14) 0.5972(3) 0.21992(16)
C3 C 0.5339(2) 0.7976(6) 0.2026(2)
H8 H 0.5722 0.8566 0.2355
O4 O 0.59160(15) 0.5516(4) 0.08459(19)
C4 C 0.5325(2) 0.6856(5) 0.1442(2)
O5 O 0.64019(14) 0.7432(4) 0.17698(17)
C5 C 0.4781(2) 0.5996(5) 0.0942(2)
H13 H 0.4786 0.5259 0.0537
C6 C 0.42205(19) 0.6239(5) 0.1047(2)
H16 H 0.3838 0.5641 0.0721
N8 N 0.59221(17) 0.6592(5) 0.1349(2)
N1 N 0.26791(18) 0.5883(5) 0.3041(2)
H1 H 0.2971 0.5859 0.2854
H2 H 0.2532 0.4868 0.3144
N2 N 0.20195(19) 0.7442(4) 0.3452(2)
H3 H 0.1869 0.8466 0.3541
H4 H 0.1878 0.6414 0.3551
N3 N 0.26731(18) 0.8978(5) 0.3017(2)
H6 H 0.2965 0.8975 0.2830
H7 H 0.2524 1.0006 0.3104
C7 C 0.24598(19) 0.7448(5) 0.3167(2)
S2 S 0.14891(5) 0.24422(12) 0.32610(6)
O6 O 0.20117(14) 0.2478(3) 0.30178(18)
O7 O 0.15059(13) 0.0847(3) 0.37165(15)
N7 N -0.09358(17) 0.1537(5) 0.0416(2)
O8 O 0.14339(13) 0.4082(3) 0.36481(15)
O9 O -0.09288(15) 0.0518(4) -0.00883(18)
C9 C 0.07729(19) 0.2255(5) 0.2410(2)
O10 O -0.14081(14) 0.2368(4) 0.03675(17)
C10 C 0.0766(2) 0.1153(6) 0.1814(2)
H17 H 0.1146 0.0556 0.1860
C11 C 0.0209(2) 0.0924(6) 0.1153(2)
H18 H 0.0202 0.0197 0.0739
C12 C -0.03383(19) 0.1783(5) 0.1114(2)
C13 C -0.0341(2) 0.2869(6) 0.1689(3)
H19 H -0.0723 0.3460 0.1640
C14 C 0.0222(2) 0.3102(6) 0.2349(2)
H20 H 0.0226 0.3846 0.2758
N4 N 0.23242(17) 0.1096(5) 0.0329(2)
H9 H 0.2036 0.1124 -0.0152
H10 H 0.2467 0.0056 0.0558
N5 N 0.29821(19) 0.2569(4) 0.1433(2)
H11 H 0.3132 0.3577 0.1686
H12 H 0.3124 0.1526 0.1659
N6 N 0.23316(18) 0.4177(4) 0.0373(2)
H14 H 0.2044 0.4210 -0.0108
H15 H 0.2478 0.5185 0.0627
C8 C 0.2543(2) 0.2620(5) 0.0711(2)
C15 C 0.0570(3) 0.5400(7) 0.0647(3)
C16 C -0.0020(3) 0.6078(7) 0.0567(3)
H21 H -0.0043 0.6809 0.0965
C17 C 0.0565(3) 0.4290(7) 0.0072(4)
H22 H 0.0955 0.3755 0.0119
C21 C 0.1175(3) 0.5830(9) 0.1342(4)
H25 H 0.1369 0.4712 0.1611
H26 H 0.1076 0.6617 0.1692
H27 H 0.1475 0.6442 0.1175
C15B C -0.0570(3) 0.4600(7) -0.0647(3)
C16B C 0.0020(3) 0.3922(7) -0.0567(3)
H21B H 0.0043 0.3191 -0.0965
C17B C -0.0565(3) 0.5710(7) -0.0072(4)
H22B H -0.0955 0.6245 -0.0119
C21B C -0.1175(3) 0.4170(9) -0.1342(4)
H25B H -0.1369 0.5288 -0.1611
H26B H -0.1076 0.3383 -0.1692
H27B H -0.1475 0.3558 -0.1175
C18 C 0.4966(3) 0.8867(7) -0.0582(3)
H23 H 0.4939 0.8094 -0.0993
C19 C 0.5550(2) 0.9554(7) -0.0089(3)
C20 C 0.4411(3) 0.9297(7) -0.0483(3)
H24 H 0.4012 0.8790 -0.0813
C22 C 0.6158(3) 0.9054(9) -0.0189(5)
H28 H 0.6418 1.0136 -0.0130
H29 H 0.6042 0.8540 -0.0704
H30 H 0.6402 0.8168 0.0205
C18B C 0.5034(3) 1.1133(7) 0.0582(3)
H23B H 0.5061 1.1906 0.0993
C19B C 0.4450(2) 1.0446(7) 0.0089(3)
C20B C 0.5589(3) 1.0703(7) 0.0483(3)
H24B H 0.5988 1.1210 0.0813
C22B C 0.3842(3) 1.0946(9) 0.0189(5)
H28B H 0.3582 0.9864 0.0130
H29B H 0.3958 1.1460 0.0704
H30B H 0.3598 1.1832 -0.0205
loop_
_geom_bond_atom_site_label_1
_geom_bond_atom_site_label_2
_geom_bond_site_symmetry_1
_geom_bond_site_symmetry_2
S1 O1 1_555 1_555
N1 H1 1_555 1_555
H2 N1 1_555 1_555
C1 S1 1_555 1_555
S2 O6 1_555 1_555
O2 S1 1_555 1_555
N2 H3 1_555 1_555
H4 N2 1_555 1_555
C2 C1 1_555 1_555
H5 C2 1_555 1_555
O3 S1 1_555 1_555
N3 H6 1_555 1_555
H7 N3 1_555 1_555
C3 C2 1_555 1_555
H8 C3 1_555 1_555
O4 N8 1_555 1_555
N4 H9 1_555 1_555
H10 N4 1_555 1_555
C4 C3 1_555 1_555
O5 N8 1_555 1_555
N5 H11 1_555 1_555
H12 N5 1_555 1_555
C5 C4 1_555 1_555
H13 C5 1_555 1_555
N6 H14 1_555 1_555
H15 N6 1_555 1_555
C6 C1 1_555 1_555
H16 C6 1_555 1_555
O7 S2 1_555 1_555
N7 O9 1_555 1_555
C7 N1 1_555 1_555
O8 S2 1_555 1_555
N8 C4 1_555 1_555
C8 N4 1_555 1_555
C9 S2 1_555 1_555
O10 N7 1_555 1_555
C10 C9 1_555 1_555
H17 C10 1_555 1_555
C11 C10 1_555 1_555
H18 C11 1_555 1_555
C12 N7 1_555 1_555
C13 C12 1_555 1_555
H19 C13 1_555 1_555
C14 C9 1_555 1_555
H20 C14 1_555 1_555
C15 C16 1_555 1_555
C16 H21 1_555 1_555
C17 C15 1_555 1_555
H22 C17 1_555 1_555
C18 H23 1_555 1_555
C19 C18 1_555 1_555
C20 C18 1_555 1_555
H24 C20 1_555 1_555
C21 C15 1_555 1_555
H25 C21 1_555 1_555
H26 C21 1_555 1_555
H27 C21 1_555 1_555
C22 C19 1_555 1_555
H28 C22 1_555 1_555
H29 C22 1_555 1_555
H30 C22 1_555 1_555
C15B C16B 1_555 1_555
C16B C17 1_555 1_555
H21B C16B 1_555 1_555
C17B C16 1_555 1_555
H22B C17B 1_555 1_555
C18B H23B 1_555 1_555
C19B C20 1_555 1_555
C20B C19 1_555 1_555
H24B C20B 1_555 1_555
C21B C15B 1_555 1_555
H25B C21B 1_555 1_555
H26B C21B 1_555 1_555
H27B C21B 1_555 1_555
C22B C19B 1_555 1_555
H28B C22B 1_555 1_555
H29B C22B 1_555 1_555
H30B C22B 1_555 1_555
N2 C7 1_555 1_555
N3 C7 1_555 1_555
N5 C8 1_555 1_555
C5 C6 1_555 1_555
N6 C8 1_555 1_555
C11 C12 1_555 1_555
C13 C14 1_555 1_555
C15B C17B 1_555 1_555
C18B C19B 1_555 1_555
C18B C20B 1_555 1_555

#END
