
#######################################################################
#
#                 Cambridge Crystallographic Data Centre
#                                CCDC 
#
#######################################################################
#
# If this CIF has been generated from an entry in the Cambridge 
# Structural Database, then it will include bibliographic, chemical, 
# crystal, experimental, refinement or atomic coordinate data resulting 
# from the CCDC's data processing and validation procedures.
#
#######################################################################

data_LIVDEA
_chemical_formula_moiety         'C1 H6 N3 1+,C10 H13 O3 S1 1-,0.4(H2 O1)'
_chemical_name_systematic        'Guanidinium 4-t-butylbenzenesulfonate hydrate'
_symmetry_cell_setting           orthorhombic
_symmetry_space_group_name_H-M   'P b c a'
_symmetry_Int_Tables_number      61
_space_group_name_Hall           '-P 2ac 2ab'
loop_
_symmetry_equiv_pos_site_id
_symmetry_equiv_pos_as_xyz
1 x,y,z
2 1/2-x,-y,1/2+z
3 1/2+x,1/2-y,-z
4 -x,1/2+y,1/2-z
5 -x,-y,-z
6 1/2+x,y,1/2-z
7 1/2-x,1/2+y,z
8 x,1/2-y,1/2+z
_cell_length_a                   12.3765(19)
_cell_length_b                   22.114(3)
_cell_length_c                   56.385(9)
_cell_angle_alpha                90
_cell_angle_beta                 90
_cell_angle_gamma                90
_cell_volume                     15432.2
_exptl_crystal_colour            colorless
_exptl_crystal_description       plate
_cell_formula_units_Z            40
_exptl_crystal_recrystallization_method methanol
loop_
_atom_site_label
_atom_site_type_symbol
_atom_site_fract_x
_atom_site_fract_y
_atom_site_fract_z
S1 S 0.72875(15) 0.01548(8) 0.04296(3)
O1 O 0.7928(4) 0.0124(2) 0.02107(8)
O2 O 0.6237(4) 0.0446(2) 0.03931(9)
O3 O 0.7894(4) 0.0429(2) 0.06226(8)
C1 C 0.7054(6) -0.0603(3) 0.05112(12)
C2 C 0.6169(6) -0.0909(3) 0.04181(14)
H1 H 0.5651 -0.0698 0.0325
C3 C 0.6046(7) -0.1515(4) 0.04614(14)
H2 H 0.5425 -0.1715 0.0401
C4 C 0.6794(6) -0.1850(3) 0.05909(13)
C5 C 0.7671(6) -0.1526(4) 0.06854(13)
H3 H 0.8189 -0.1734 0.0779
C6 C 0.7802(6) -0.0916(3) 0.06463(12)
H4 H 0.8405 -0.0710 0.0712
C7 C 0.6688(7) -0.2520(4) 0.06347(16)
C8 C 0.6457(11) -0.2642(5) 0.0894(2)
H5 H 0.7077 -0.2535 0.0988
H6 H 0.6303 -0.3064 0.0915
H7 H 0.5846 -0.2408 0.0945
C9 C 0.7738(9) -0.2849(4) 0.0561(2)
H8 H 0.7875 -0.2778 0.0395
H9 H 0.7654 -0.3275 0.0588
H10 H 0.8334 -0.2700 0.0653
C10 C 0.5754(10) -0.2795(5) 0.0490(2)
H11 H 0.5095 -0.2585 0.0526
H12 H 0.5678 -0.3215 0.0530
H13 H 0.5908 -0.2757 0.0324
S2 S 0.19725(15) 0.09594(9) 0.33074(3)
O4 O 0.2475(4) 0.0893(2) 0.35408(8)
O5 O 0.0794(4) 0.0897(2) 0.33152(9)
O6 O 0.2464(4) 0.0563(2) 0.31320(9)
C11 C 0.2238(6) 0.1704(3) 0.32185(12)
C12 C 0.2914(6) 0.2078(4) 0.33430(14)
H14 H 0.3237 0.1934 0.3485
C13 C 0.3136(7) 0.2653(4) 0.32680(15)
H15 H 0.3610 0.2898 0.3359
C14 C 0.2689(6) 0.2884(4) 0.30641(13)
C15 C 0.2018(7) 0.2507(4) 0.29360(15)
H16 H 0.1712 0.2646 0.2791
C16 C 0.1782(8) 0.1928(4) 0.30152(14)
H17 H 0.1297 0.1683 0.2927
C17 C 0.2944(7) 0.3517(4) 0.29686(14)
C18 C 0.3564(9) 0.3896(4) 0.31552(17)
H18 H 0.3626 0.4306 0.3101
H19 H 0.3181 0.3889 0.3303
H20 H 0.4273 0.3729 0.3177
C19 C 0.1916(7) 0.3862(4) 0.29046(17)
H21 H 0.1577 0.3670 0.2771
H22 H 0.1429 0.3860 0.3037
H23 H 0.2094 0.4272 0.2864
C20 C 0.3674(8) 0.3464(4) 0.27523(15)
H24 H 0.3298 0.3251 0.2629
H25 H 0.3867 0.3860 0.2697
H26 H 0.4316 0.3245 0.2795
S3 S 0.38925(14) 0.31981(8) 0.02850(3)
O7 O 0.2713(4) 0.3176(2) 0.02766(8)
O8 O 0.4331(4) 0.3750(2) 0.01798(8)
O9 O 0.4391(4) 0.2649(2) 0.01868(8)
C21 C 0.4236(5) 0.3210(3) 0.05869(12)
C22 C 0.4470(6) 0.2683(3) 0.07127(12)
H27 H 0.4477 0.2305 0.0633
C23 C 0.4689(6) 0.2707(3) 0.09511(12)
H28 H 0.4826 0.2339 0.1033
C24 C 0.4717(6) 0.3242(3) 0.10770(12)
C25 C 0.4470(6) 0.3770(3) 0.09503(12)
H29 H 0.4464 0.4146 0.1031
C26 C 0.4235(6) 0.3758(3) 0.07105(11)
H30 H 0.4072 0.4123 0.0630
C27 C 0.5021(7) 0.3269(4) 0.13372(13)
C28 C 0.6106(9) 0.3614(7) 0.1363(2)
H31 H 0.6054 0.3997 0.1285
H32 H 0.6679 0.3381 0.1294
H33 H 0.6256 0.3677 0.1529
C29 C 0.4217(11) 0.3658(6) 0.14781(17)
H34 H 0.3524 0.3463 0.1478
H35 H 0.4154 0.4050 0.1406
H36 H 0.4467 0.3702 0.1638
C30 C 0.5143(13) 0.2672(5) 0.14511(18)
H37 H 0.5398 0.2722 0.1611
H38 H 0.5653 0.2435 0.1363
H39 H 0.4457 0.2470 0.1453
S4 S 0.30819(15) 0.44758(8) 0.21232(3)
O10 O 0.2525(4) 0.4743(2) 0.19228(8)
O11 O 0.4255(4) 0.4571(2) 0.21189(8)
O12 O 0.2603(4) 0.4666(2) 0.23494(8)
C31 C 0.2888(6) 0.3686(3) 0.21028(13)
C32 C 0.3739(7) 0.3290(3) 0.21173(13)
H40 H 0.4455 0.3441 0.2132
C33 C 0.3559(8) 0.2681(4) 0.21113(15)
H41 H 0.4161 0.2416 0.2122
C34 C 0.2536(9) 0.2434(4) 0.20895(17)
C35 C 0.1706(9) 0.2837(5) 0.2073(3)
H42 H 0.0989 0.2688 0.2057
C36 C 0.1872(7) 0.3452(4) 0.2077(2)
H43 H 0.1273 0.3717 0.2062
C37 C 0.2386(10) 0.1741(5) 0.2079(2)
C38 C 0.1205(12) 0.1575(6) 0.2056(4)
H44 H 0.0876 0.1824 0.1937
H45 H 0.0850 0.1640 0.2205
H46 H 0.1140 0.1157 0.2011
C39 C 0.2877(14) 0.1462(5) 0.23092(18)
H47 H 0.2770 0.1032 0.2309
H48 H 0.2532 0.1634 0.2446
H49 H 0.3637 0.1549 0.2314
C40 C 0.2985(9) 0.1483(5) 0.18691(17)
H50 H 0.2877 0.1053 0.1862
H51 H 0.3742 0.1567 0.1886
H52 H 0.2721 0.1666 0.1726
S5 S 0.20376(15) 0.14315(9) 0.10211(3)
O13 O 0.0973(4) 0.1139(2) 0.09999(8)
O14 O 0.2679(4) 0.1347(2) 0.08069(8)
O15 O 0.2592(4) 0.1245(2) 0.12403(8)
C41 C 0.1770(6) 0.2209(3) 0.10505(13)
C42 C 0.1432(7) 0.2438(4) 0.12663(14)
H53 H 0.1391 0.2178 0.1400
C43 C 0.1155(8) 0.3034(4) 0.12904(15)
H54 H 0.0913 0.3180 0.1440
C44 C 0.1225(6) 0.3433(4) 0.10962(15)
C45 C 0.1568(6) 0.3197(4) 0.08850(14)
H55 H 0.1617 0.3455 0.0751
C46 C 0.1848(6) 0.2592(4) 0.08614(13)
H56 H 0.2096 0.2444 0.0713
C47 C 0.0883(7) 0.4106(4) 0.11276(16)
C48 C 0.1278(12) 0.4355(5) 0.1370(3)
H57 H 0.1147 0.4782 0.1376
H58 H 0.2039 0.4279 0.1386
H59 H 0.0896 0.4158 0.1496
C49 C -0.0348(8) 0.4128(5) 0.1126(2)
H60 H -0.0628 0.3835 0.1235
H61 H -0.0605 0.4038 0.0969
H62 H -0.0586 0.4524 0.1171
C50 C 0.1305(13) 0.4490(5) 0.0927(3)
H63 H 0.1214 0.4279 0.0779
H64 H 0.2059 0.4570 0.0952
H65 H 0.0914 0.4864 0.0922
N1 N 0.1531(5) 0.1149(3) -0.00180(10)
H66 H 0.0859 0.1178 -0.0068
H67 H 0.1860 0.0796 -0.0018
N2 N 0.1570(5) 0.2176(3) 0.00587(11)
H68 H 0.0898 0.2211 0.0010
H69 H 0.1924 0.2496 0.0109
N3 N 0.3052(5) 0.1587(3) 0.01417(11)
H70 H 0.3389 0.1906 0.0198
H71 H 0.3375 0.1232 0.0141
C51 C 0.2051(6) 0.1640(3) 0.00571(12)
N4 N 0.0320(5) -0.0004(3) 0.02823(11)
H72 H -0.0376 0.0021 0.0252
H73 H 0.0726 -0.0258 0.0202
N5 N 0.1823(5) 0.0296(3) 0.04937(11)
H74 H 0.2117 0.0522 0.0605
H75 H 0.2225 0.0041 0.0413
N6 N 0.0158(5) 0.0718(3) 0.05687(11)
H76 H -0.0539 0.0746 0.0539
H77 H 0.0453 0.0946 0.0679
C52 C 0.0756(6) 0.0339(3) 0.04480(13)
N7 N -0.0050(5) 0.0996(3) 0.42129(11)
H78 H -0.0731 0.1109 0.4220
H79 H 0.0304 0.0909 0.4344
N8 N 0.1481(5) 0.0795(3) 0.39918(11)
H80 H 0.1806 0.0776 0.3853
H81 H 0.1839 0.0708 0.4122
N9 N -0.0089(5) 0.1085(3) 0.38060(10)
H82 H -0.0770 0.1198 0.3813
H83 H 0.0240 0.1058 0.3668
C53 C 0.0443(6) 0.0955(3) 0.40040(13)
N10 N 0.5245(5) 0.5775(3) 0.13947(11)
H84 H 0.5946 0.5837 0.1405
H85 H 0.4873 0.5937 0.1278
N11 N 0.3673(5) 0.5357(3) 0.15331(11)
H86 H 0.3320 0.5136 0.1637
H87 H 0.3325 0.5525 0.1414
N12 N 0.5286(5) 0.5190(3) 0.17323(11)
H88 H 0.5987 0.5248 0.1745
H89 H 0.4944 0.4968 0.1838
C54 C 0.4749(6) 0.5437(3) 0.15557(13)
N13 N 0.5333(5) 0.5224(3) 0.29513(10)
H90 H 0.6015 0.5121 0.2970
H91 H 0.4977 0.5396 0.3068
N14 N 0.3802(5) 0.5272(3) 0.27184(10)
H92 H 0.3466 0.5203 0.2584
H93 H 0.3455 0.5444 0.2837
N15 N 0.5363(5) 0.4859(3) 0.25670(10)
H94 H 0.5032 0.4788 0.2432
H95 H 0.6046 0.4758 0.2585
C55 C 0.4835(6) 0.5117(3) 0.27433(12)
O16 O 0.2959(4) -0.0597(2) 0.02040(8)
H96 H 0.3116 -0.0816 0.0085
H97 H 0.3098 -0.0788 0.0331
O17 O 0.4186(4) 0.0461(2) 0.01913(11)
H98 H 0.4813 0.0458 0.0253
H99 H 0.3809 0.0126 0.0197
loop_
_geom_bond_atom_site_label_1
_geom_bond_atom_site_label_2
_geom_bond_site_symmetry_1
_geom_bond_site_symmetry_2
S1 O1 1_555 1_555
O2 S1 1_555 1_555
O3 S1 1_555 1_555
C1 S1 1_555 1_555
C2 C1 1_555 1_555
H1 C2 1_555 1_555
C3 C2 1_555 1_555
H2 C3 1_555 1_555
C4 C3 1_555 1_555
C5 C4 1_555 1_555
H3 C5 1_555 1_555
C6 C1 1_555 1_555
H4 C6 1_555 1_555
C7 C4 1_555 1_555
C8 C7 1_555 1_555
H5 C8 1_555 1_555
H6 C8 1_555 1_555
H7 C8 1_555 1_555
C9 C7 1_555 1_555
H8 C9 1_555 1_555
H9 C9 1_555 1_555
H10 C9 1_555 1_555
C10 C7 1_555 1_555
H11 C10 1_555 1_555
H12 C10 1_555 1_555
H13 C10 1_555 1_555
S2 O4 1_555 1_555
O5 S2 1_555 1_555
O6 S2 1_555 1_555
C11 S2 1_555 1_555
C12 C11 1_555 1_555
H14 C12 1_555 1_555
C13 C12 1_555 1_555
H15 C13 1_555 1_555
C14 C13 1_555 1_555
C15 C14 1_555 1_555
H16 C15 1_555 1_555
C16 C11 1_555 1_555
H17 C16 1_555 1_555
C17 C14 1_555 1_555
C18 C17 1_555 1_555
H18 C18 1_555 1_555
H19 C18 1_555 1_555
H20 C18 1_555 1_555
C19 C17 1_555 1_555
H21 C19 1_555 1_555
H22 C19 1_555 1_555
H23 C19 1_555 1_555
C20 C17 1_555 1_555
H24 C20 1_555 1_555
H25 C20 1_555 1_555
H26 C20 1_555 1_555
S3 O7 1_555 1_555
O8 S3 1_555 1_555
O9 S3 1_555 1_555
C21 S3 1_555 1_555
C22 C21 1_555 1_555
H27 C22 1_555 1_555
C23 C22 1_555 1_555
H28 C23 1_555 1_555
C24 C23 1_555 1_555
C25 C24 1_555 1_555
H29 C25 1_555 1_555
C26 C21 1_555 1_555
H30 C26 1_555 1_555
C27 C24 1_555 1_555
C28 C27 1_555 1_555
H31 C28 1_555 1_555
H32 C28 1_555 1_555
H33 C28 1_555 1_555
C29 C27 1_555 1_555
H34 C29 1_555 1_555
H35 C29 1_555 1_555
H36 C29 1_555 1_555
C30 C27 1_555 1_555
H37 C30 1_555 1_555
H38 C30 1_555 1_555
H39 C30 1_555 1_555
S4 O10 1_555 1_555
O11 S4 1_555 1_555
O12 S4 1_555 1_555
C31 S4 1_555 1_555
C32 C31 1_555 1_555
H40 C32 1_555 1_555
C33 C32 1_555 1_555
H41 C33 1_555 1_555
C34 C33 1_555 1_555
C35 C34 1_555 1_555
H42 C35 1_555 1_555
C36 C31 1_555 1_555
H43 C36 1_555 1_555
C37 C34 1_555 1_555
C38 C37 1_555 1_555
H44 C38 1_555 1_555
H45 C38 1_555 1_555
H46 C38 1_555 1_555
C39 C37 1_555 1_555
H47 C39 1_555 1_555
H48 C39 1_555 1_555
H49 C39 1_555 1_555
C40 C37 1_555 1_555
H50 C40 1_555 1_555
H51 C40 1_555 1_555
H52 C40 1_555 1_555
S5 O13 1_555 1_555
O14 S5 1_555 1_555
O15 S5 1_555 1_555
C41 S5 1_555 1_555
C42 C41 1_555 1_555
H53 C42 1_555 1_555
C43 C42 1_555 1_555
H54 C43 1_555 1_555
C44 C43 1_555 1_555
C45 C44 1_555 1_555
H55 C45 1_555 1_555
C46 C41 1_555 1_555
H56 C46 1_555 1_555
C47 C44 1_555 1_555
C48 C47 1_555 1_555
H57 C48 1_555 1_555
H58 C48 1_555 1_555
H59 C48 1_555 1_555
C49 C47 1_555 1_555
H60 C49 1_555 1_555
H61 C49 1_555 1_555
H62 C49 1_555 1_555
C50 C47 1_555 1_555
H63 C50 1_555 1_555
H64 C50 1_555 1_555
H65 C50 1_555 1_555
N1 H66 1_555 1_555
H67 N1 1_555 1_555
N2 H68 1_555 1_555
H69 N2 1_555 1_555
N3 H70 1_555 1_555
H71 N3 1_555 1_555
C51 N1 1_555 1_555
N4 H72 1_555 1_555
H73 N4 1_555 1_555
N5 H74 1_555 1_555
H75 N5 1_555 1_555
N6 H76 1_555 1_555
H77 N6 1_555 1_555
C52 N4 1_555 1_555
N7 H78 1_555 1_555
H79 N7 1_555 1_555
N8 H80 1_555 1_555
H81 N8 1_555 1_555
N9 H82 1_555 1_555
H83 N9 1_555 1_555
C53 N7 1_555 1_555
N10 H84 1_555 1_555
H85 N10 1_555 1_555
N11 H86 1_555 1_555
H87 N11 1_555 1_555
N12 H88 1_555 1_555
H89 N12 1_555 1_555
C54 N10 1_555 1_555
N13 H90 1_555 1_555
H91 N13 1_555 1_555
N14 H92 1_555 1_555
H93 N14 1_555 1_555
N15 H94 1_555 1_555
H95 N15 1_555 1_555
C55 N13 1_555 1_555
O16 H96 1_555 1_555
H97 O16 1_555 1_555
O17 H98 1_555 1_555
H99 O17 1_555 1_555
C5 C6 1_555 1_555
C15 C16 1_555 1_555
C25 C26 1_555 1_555
C35 C36 1_555 1_555
C45 C46 1_555 1_555
N2 C51 1_555 1_555
N3 C51 1_555 1_555
N5 C52 1_555 1_555
N6 C52 1_555 1_555
N8 C53 1_555 1_555
N9 C53 1_555 1_555
N11 C54 1_555 1_555
N12 C54 1_555 1_555
N14 C55 1_555 1_555
N15 C55 1_555 1_555

#END
