
#######################################################################
#
#                 Cambridge Crystallographic Data Centre
#                                CCDC 
#
#######################################################################
#
# If this CIF has been generated from an entry in the Cambridge 
# Structural Database, then it will include bibliographic, chemical, 
# crystal, experimental, refinement or atomic coordinate data resulting 
# from the CCDC's data processing and validation procedures.
#
#######################################################################

data_LIVDAW
_chemical_formula_moiety         'C1 H6 N3 1+,C10 H13 O3 S1 1-,0.25(C14 H22)'
_chemical_name_systematic        
'Guanidinium 4-t-butylbenzenesulfonate 1,4-di-t-butylbenzene clathrate'
_symmetry_cell_setting           monoclinic
_symmetry_space_group_name_H-M   'P 21/c'
_symmetry_Int_Tables_number      14
_space_group_name_Hall           '-P 2ybc'
loop_
_symmetry_equiv_pos_site_id
_symmetry_equiv_pos_as_xyz
1 x,y,z
2 -x,1/2+y,1/2-z
3 -x,-y,-z
4 x,1/2-y,1/2+z
_cell_length_a                   13.668(3)
_cell_length_b                   12.334(2)
_cell_length_c                   22.015(4)
_cell_angle_alpha                90
_cell_angle_beta                 91.030(3)
_cell_angle_gamma                90
_cell_volume                     3710.71
_exptl_crystal_colour            colorless
_exptl_crystal_description       plate
_cell_formula_units_Z            8
loop_
_atom_site_label
_atom_site_type_symbol
_atom_site_fract_x
_atom_site_fract_y
_atom_site_fract_z
O1 O 0.9859(3) 0.7834(4) 0.1986(2)
O2 O 0.8964(3) 0.9529(4) 0.2094(2)
O3 O 0.8097(3) 0.7813(4) 0.2067(2)
S1 S 0.89496(11) 0.84156(12) 0.18564(8)
C1 C 0.8807(5) 0.8514(5) 0.1055(3)
C2 C 0.8787(5) 0.7577(5) 0.0712(4)
H1 H 0.8899 0.6895 0.0901
C3 C 0.8603(6) 0.7626(6) 0.0091(4)
H2 H 0.8587 0.6976 -0.0141
C4 C 0.8440(6) 0.8631(6) -0.0203(4)
C5 C 0.8501(7) 0.9550(6) 0.0152(4)
H3 H 0.8425 1.0238 -0.0036
C6 C 0.8670(6) 0.9506(6) 0.0773(4)
H4 H 0.8692 1.0155 0.1005
C7 C 0.8210(8) 0.8671(7) -0.0882(4)
C8 C 0.8992(9) 0.8036(8) -0.1232(4)
H5 H 0.8823 0.8037 -0.1667
H6 H 0.9019 0.7287 -0.1084
H7 H 0.9632 0.8380 -0.1169
C9 C 0.8209(10) 0.9791(8) -0.1138(5)
H8 H 0.8088 0.9757 -0.1578
H9 H 0.8846 1.0131 -0.1057
H10 H 0.7694 1.0219 -0.0948
C10 C 0.7238(10) 0.8131(13) -0.0979(5)
H11 H 0.7264 0.7660 -0.1337
H12 H 0.6731 0.8684 -0.1043
H13 H 0.7082 0.7695 -0.0621
N1 N 0.4470(4) 0.9499(4) -0.2578(3)
H14 H 0.4558 0.8824 -0.2460
H15 H 0.4952 0.9857 -0.2747
N2 N 0.2892(4) 0.9449(4) -0.2253(3)
H16 H 0.2966 0.8774 -0.2132
H17 H 0.2327 0.9780 -0.2207
N3 N 0.3485(4) 1.0999(4) -0.2688(2)
H18 H 0.3963 1.1359 -0.2860
H19 H 0.2914 1.1312 -0.2637
C11 C 0.3628(5) 0.9967(5) -0.2504(3)
S2 S 0.40396(11) 0.68094(11) -0.16841(7)
O4 O 0.4793(3) 0.7318(3) -0.2051(2)
O5 O 0.4032(3) 0.5621(3) -0.1755(2)
O6 O 0.3075(3) 0.7286(3) -0.1794(2)
C12 C 0.4364(4) 0.7084(4) -0.0919(3)
C13 C 0.4978(4) 0.6395(5) -0.0598(3)
H24 H 0.5203 0.5751 -0.0787
C14 C 0.5271(4) 0.6624(5) -0.0010(3)
H25 H 0.5683 0.6129 0.0205
C15 C 0.4964(4) 0.7598(5) 0.0282(3)
C16 C 0.4331(5) 0.8260(5) -0.0053(3)
H26 H 0.4088 0.8900 0.0131
C17 C 0.4040(5) 0.8018(5) -0.0648(3)
H27 H 0.3619 0.8499 -0.0866
C18 C 0.5295(5) 0.7887(5) 0.0919(3)
C19 C 0.5894(10) 0.8945(8) 0.0888(5)
H28 H 0.6489 0.8817 0.0657
H29 H 0.6073 0.9180 0.1301
H30 H 0.5501 0.9509 0.0688
C20 C 0.5942(9) 0.7025(8) 0.1214(4)
H31 H 0.5573 0.6347 0.1247
H32 H 0.6150 0.7268 0.1620
H33 H 0.6519 0.6906 0.0965
C21 C 0.4383(10) 0.8028(13) 0.1313(5)
H34 H 0.3951 0.8576 0.1129
H35 H 0.4584 0.8262 0.1722
H36 H 0.4033 0.7336 0.1338
N4 N 0.0584(4) 0.4451(4) -0.2317(3)
H20 H 0.0557 0.3752 -0.2240
H21 H 0.0081 0.4780 -0.2491
N5 N 0.1413(4) 0.6072(4) -0.2290(3)
H22 H 0.0905 0.6395 -0.2462
H23 H 0.1941 0.6448 -0.2196
C22 C 0.1382(5) 0.5007(5) -0.2173(3)
N6 N 0.2143(4) 0.4516(4) -0.1911(3)
H37 H 0.2119 0.3817 -0.1833
H38 H 0.2673 0.4890 -0.1816
C23 C 1.178(2) 1.612(2) 0.1193(12)
H39 H 1.1793 1.5367 0.1331
H40 H 1.1190 1.6478 0.1342
H41 H 1.2361 1.6501 0.1352
C24 C 1.172(5) 1.735(3) 0.0272(17)
H42 H 1.1141 1.7692 0.0439
H43 H 1.1686 1.7369 -0.0173
H44 H 1.2310 1.7733 0.0414
C25 C 1.272(3) 1.562(5) 0.025(2)
H45 H 1.2711 1.4844 0.0341
H46 H 1.3292 1.5955 0.0450
H47 H 1.2758 1.5728 -0.0190
C26 C 1.178(2) 1.615(3) 0.0486(12)
C27 C 1.091(3) 1.554(4) 0.0221(15)
C28 C 1.079(3) 1.560(5) -0.0381(16)
H48 H 1.1234 1.5967 -0.0639
C29 C 1.009(3) 1.495(5) 0.0594(17)
H49 H 1.0233 1.4941 0.1018
C23B C 0.822(2) 1.388(2) -0.1193(12)
H39B H 0.8207 1.4633 -0.1331
H40B H 0.8810 1.3522 -0.1342
H41B H 0.7639 1.3499 -0.1352
C24B C 0.828(5) 1.265(3) -0.0272(17)
H42B H 0.8859 1.2308 -0.0439
H43B H 0.8314 1.2631 0.0173
H44B H 0.7690 1.2267 -0.0414
C25B C 0.728(3) 1.438(5) -0.025(2)
H45B H 0.7289 1.5156 -0.0341
H46B H 0.6708 1.4045 -0.0450
H47B H 0.7242 1.4272 0.0190
C26B C 0.822(2) 1.385(3) -0.0486(12)
C27B C 0.909(3) 1.446(4) -0.0221(15)
C28B C 0.921(3) 1.440(5) 0.0381(16)
H48B H 0.8766 1.4033 0.0639
C29B C 0.991(3) 1.505(5) -0.0594(17)
H49B H 0.9767 1.5059 -0.1018
C30? C 1.028(3) 1.502(4) 0.0593(17)
H50? H 1.0425 1.5016 0.1017
C31? C 0.940(3) 1.447(5) 0.0369(16)
H51? H 0.8954 1.4109 0.0627
C32? C 0.927(3) 1.453(4) -0.0230(15)
C33? C 0.837(2) 1.407(3) -0.0552(12)
C34? C 0.746(3) 1.452(5) -0.023(2)
H52? H 0.7411 1.5300 -0.0302
H53? H 0.7508 1.4371 0.0203
H54? H 0.6868 1.4162 -0.0402
C35? C 0.837(5) 1.281(3) -0.0507(17)
H55? H 0.8961 1.2525 -0.0688
H56? H 0.7790 1.2527 -0.0724
H57? H 0.8344 1.2599 -0.0079
C36? C 0.841(3) 1.449(2) -0.1219(13)
H58? H 0.8391 1.5286 -0.1219
H59? H 0.7857 1.4207 -0.1455
H60? H 0.9025 1.4250 -0.1403
loop_
_geom_bond_atom_site_label_1
_geom_bond_atom_site_label_2
_geom_bond_site_symmetry_1
_geom_bond_site_symmetry_2
O1 S1 1_555 1_555
O2 S1 1_555 1_555
O3 S1 1_555 1_555
S1 C1 1_555 1_555
C1 C2 1_555 1_555
C2 H1 1_555 1_555
C3 C2 1_555 1_555
H2 C3 1_555 1_555
C4 C3 1_555 1_555
C5 C4 1_555 1_555
H3 C5 1_555 1_555
C6 C1 1_555 1_555
H4 C6 1_555 1_555
C7 C4 1_555 1_555
C8 C7 1_555 1_555
H5 C8 1_555 1_555
H6 C8 1_555 1_555
H7 C8 1_555 1_555
C9 C7 1_555 1_555
H8 C9 1_555 1_555
H9 C9 1_555 1_555
H10 C9 1_555 1_555
C10 C7 1_555 1_555
H11 C10 1_555 1_555
H12 C10 1_555 1_555
H13 C10 1_555 1_555
N1 H14 1_555 1_555
H15 N1 1_555 1_555
S2 O4 1_555 1_555
N2 H16 1_555 1_555
H17 N2 1_555 1_555
N3 H18 1_555 1_555
H19 N3 1_555 1_555
O5 S2 1_555 1_555
N4 H20 1_555 1_555
H21 N4 1_555 1_555
O6 S2 1_555 1_555
N5 H22 1_555 1_555
H23 N5 1_555 1_555
C11 N1 1_555 1_555
C12 S2 1_555 1_555
C13 C12 1_555 1_555
H24 C13 1_555 1_555
C14 C13 1_555 1_555
H25 C14 1_555 1_555
C15 C14 1_555 1_555
C16 C15 1_555 1_555
H26 C16 1_555 1_555
C17 C12 1_555 1_555
H27 C17 1_555 1_555
C18 C15 1_555 1_555
C19 C18 1_555 1_555
H28 C19 1_555 1_555
H29 C19 1_555 1_555
H30 C19 1_555 1_555
C20 C18 1_555 1_555
H31 C20 1_555 1_555
H32 C20 1_555 1_555
H33 C20 1_555 1_555
C21 C18 1_555 1_555
H34 C21 1_555 1_555
H35 C21 1_555 1_555
H36 C21 1_555 1_555
C22 N4 1_555 1_555
N6 C22 1_555 1_555
H37 N6 1_555 1_555
H38 N6 1_555 1_555
C23 H39 1_555 1_555
H40 C23 1_555 1_555
H41 C23 1_555 1_555
C24 H42 1_555 1_555
H43 C24 1_555 1_555
H44 C24 1_555 1_555
C25 H45 1_555 1_555
H46 C25 1_555 1_555
H47 C25 1_555 1_555
C26 C23 1_555 1_555
C27 C26 1_555 1_555
C28 C27 1_555 1_555
H48 C28 1_555 1_555
C29 C27 1_555 1_555
H49 C29 1_555 1_555
C23B H39B 1_555 1_555
H40B C23B 1_555 1_555
H41B C23B 1_555 1_555
C24B H42B 1_555 1_555
H43B C24B 1_555 1_555
H44B C24B 1_555 1_555
C25B H45B 1_555 1_555
H46B C25B 1_555 1_555
H47B C25B 1_555 1_555
C26B C23B 1_555 1_555
C27B C26B 1_555 1_555
C28B C29 1_555 1_555
H48B C28B 1_555 1_555
C29B C28 1_555 1_555
H49B C29B 1_555 1_555
C5 C6 1_555 1_555
N2 C11 1_555 1_555
N3 C11 1_555 1_555
N5 C22 1_555 1_555
C16 C17 1_555 1_555
C24 C26 1_555 1_555
C25 C26 1_555 1_555
C24B C26B 1_555 1_555
C25B C26B 1_555 1_555
C27B C28B 1_555 1_555
C27B C29B 1_555 1_555

#END
