
#######################################################################
#
#                 Cambridge Crystallographic Data Centre
#                                CCDC 
#
#######################################################################
#
# If this CIF has been generated from an entry in the Cambridge 
# Structural Database, then it will include bibliographic, chemical, 
# crystal, experimental, refinement or atomic coordinate data resulting 
# from the CCDC's data processing and validation procedures.
#
#######################################################################

data_LIVJUX
_chemical_formula_moiety         'C102 H41 F30 N6 1+,C2 F3 O2 1-,2(C2 H1 F3 O2)'
_chemical_name_systematic        
'Hydrogen 2,3,12,13,22,23-hexaphenyl-5,10,15,20,25,30-hexakis(pentafluorophenyl)[28]hexaphyrin(1.1.1.1.1.1) trifluoroacetate trifluoroacetatic acid solvate'
_symmetry_cell_setting           rhombohedral
_symmetry_space_group_name_H-M   'R 3 m'
_symmetry_Int_Tables_number      160
_space_group_name_Hall           'R 3 -2"'
loop_
_symmetry_equiv_pos_site_id
_symmetry_equiv_pos_as_xyz
1 x,y,z
2 -y,x-y,z
3 -x+y,-x,z
4 -x+y,y,z
5 x,x-y,z
6 -y,-x,z
7 2/3+x,1/3+y,1/3+z
8 2/3-y,1/3+x-y,1/3+z
9 2/3-x+y,1/3-x,1/3+z
10 2/3-x+y,1/3+y,1/3+z
11 2/3+x,1/3+x-y,1/3+z
12 2/3-y,1/3-x,1/3+z
13 1/3+x,2/3+y,2/3+z
14 1/3-y,2/3+x-y,2/3+z
15 1/3-x+y,2/3-x,2/3+z
16 1/3-x+y,2/3+y,2/3+z
17 1/3+x,2/3+x-y,2/3+z
18 1/3-y,2/3-x,2/3+z
_cell_length_a                   31.7298(7)
_cell_length_b                   31.7298(7)
_cell_length_c                   11.1469(3)
_cell_angle_alpha                90
_cell_angle_beta                 90
_cell_angle_gamma                120
_cell_volume                     9718.95
_exptl_crystal_colour            green
_exptl_crystal_description       prism
_cell_formula_units_Z            3
loop_
_atom_site_label
_atom_site_type_symbol
_atom_site_fract_x
_atom_site_fract_y
_atom_site_fract_z
F6 F 0.8586(3) 0.6513(4) 1.1254(9)
F7 F 0.8118(3) 0.6237(6) 1.2748(13)
C18 C 0.8126(4) 0.6252(8) 1.150(2)
C19 C 0.7847(4) 0.5693(9) 1.1310(12)
O1 O 0.8097(7) 0.5525(10) 1.174(2)
F6C F 0.7927(5) 0.6513(4) 1.1254(9)
O1C O 0.7428(12) 0.5525(10) 1.174(2)
F1 F 0.83048(12) 0.56892(12) 0.6833(3)
F2 F 0.88544(14) 0.66050(12) 0.7645(4)
F3 F 0.93855(12) 0.67801(12) 0.9699(4)
F4 F 0.93532(15) 0.60338(15) 1.0908(4)
F5 F 0.87899(13) 0.51100(13) 1.0151(4)
N1 N 0.8093(2) 0.40465(11) 0.8011(7)
N2 N 0.74617(12) 0.4923(2) 0.8241(6)
H1 H 0.7589 0.5178 0.8720
C1 C 0.73814(19) 0.4311(2) 0.7015(7)
H2 H 0.7454 0.4099 0.6575
C2 C 0.77012(18) 0.4693(2) 0.7806(7)
C3 C 0.82033(19) 0.48628(19) 0.8048(6)
C4 C 0.8389(2) 0.4557(2) 0.7890(6)
C5 C 0.88797(16) 0.46623(18) 0.7762(5)
C6 C 0.92947(11) 0.51561(10) 0.7467(3)
C7 C 0.96950(13) 0.53736(12) 0.8228(3)
H3 H 0.9706 0.5207 0.8925
C8 C 1.00801(12) 0.58352(13) 0.7969(4)
H4 H 1.0354 0.5984 0.8489
C9 C 1.00647(14) 0.60794(10) 0.6949(4)
H5 H 1.0328 0.6395 0.6772
C10 C 0.96644(17) 0.58620(14) 0.6189(4)
H6 H 0.9654 0.6029 0.5492
C11 C 0.92793(13) 0.54003(14) 0.6448(3)
H7 H 0.9006 0.5252 0.5928
C12 C 0.85230(14) 0.53702(11) 0.8477(4)
C13 C 0.87965(16) 0.54571(14) 0.9516(4)
C14 C 0.90927(15) 0.59312(18) 0.9917(3)
C15 C 0.91155(15) 0.63184(12) 0.9279(5)
C16 C 0.88421(16) 0.62314(12) 0.8239(4)
C17 C 0.85458(14) 0.57573(15) 0.7838(3)
F1C F 0.73844(17) 0.56892(12) 0.6833(3)
F2C F 0.77506(18) 0.66050(12) 0.7645(4)
F3C F 0.73946(17) 0.67801(12) 0.9699(4)
F4C F 0.66806(21) 0.60338(15) 1.0908(4)
F5C F 0.63201(18) 0.51100(13) 1.0151(4)
N1A N 0.59535(11) 0.40465(23) 0.8011(7)
C1C C 0.69296(28) 0.4311(2) 0.7015(7)
H2C H 0.6645 0.4099 0.6575
C2C C 0.69918(27) 0.4693(2) 0.7806(7)
C3C C 0.66595(27) 0.48628(19) 0.8048(6)
C4C C 0.6168(3) 0.4557(2) 0.7890(6)
C5C C 0.57826(24) 0.46623(18) 0.7762(5)
C6C C 0.58614(15) 0.51561(10) 0.7467(3)
C7C C 0.56786(18) 0.53736(12) 0.8228(3)
H3C H 0.5501 0.5207 0.8925
C8C C 0.57551(18) 0.58352(13) 0.7969(4)
H4C H 0.5630 0.5984 0.8489
C9C C 0.60147(17) 0.60794(10) 0.6949(4)
H5C H 0.6067 0.6395 0.6772
C10C C 0.61976(22) 0.58620(14) 0.6189(4)
H6C H 0.6375 0.6029 0.5492
C11C C 0.61210(19) 0.54003(14) 0.6448(3)
H7C H 0.6246 0.5252 0.5928
C12C C 0.68472(18) 0.53702(11) 0.8477(4)
C13C C 0.66606(21) 0.54571(14) 0.9516(4)
C14C C 0.68385(23) 0.59312(18) 0.9917(3)
C15C C 0.72029(19) 0.63184(12) 0.9279(5)
C16C C 0.73893(20) 0.62314(12) 0.8239(4)
C17C C 0.72115(21) 0.57573(15) 0.7838(3)
F1D F 0.83048(12) 0.26156(17) 0.6833(3)
F2D F 0.88544(14) 0.22494(18) 0.7645(4)
F3D F 0.93855(12) 0.26054(17) 0.9699(4)
F4D F 0.93532(15) 0.33194(21) 1.0908(4)
F5D F 0.87899(13) 0.36799(18) 1.0151(4)
N2B N 0.74613(23) 0.25383(12) 0.8241(6)
H1B H 0.7589 0.2411 0.8720
C1D C 0.73814(19) 0.30704(28) 0.7015(7)
H2D H 0.7454 0.3355 0.6575
C2D C 0.77012(18) 0.30082(27) 0.7806(7)
C3D C 0.82033(19) 0.33405(27) 0.8048(6)
C4D C 0.8389(2) 0.3832(3) 0.7890(6)
C5D C 0.88797(16) 0.42174(24) 0.7762(5)
C6D C 0.92947(11) 0.41386(15) 0.7467(3)
C7D C 0.96950(13) 0.43214(18) 0.8228(3)
H3D H 0.9706 0.4499 0.8925
C8D C 1.00801(12) 0.42449(18) 0.7969(4)
H4D H 1.0354 0.4370 0.8489
C9D C 1.00647(14) 0.39853(17) 0.6949(4)
H5D H 1.0328 0.3933 0.6772
C10D C 0.96644(17) 0.38024(22) 0.6189(4)
H6D H 0.9654 0.3625 0.5492
C11D C 0.92793(13) 0.38790(19) 0.6448(3)
H7D H 0.9006 0.3754 0.5928
C12D C 0.85230(14) 0.31528(18) 0.8477(4)
C13D C 0.87965(16) 0.33394(21) 0.9516(4)
C14D C 0.90927(15) 0.31615(23) 0.9917(3)
C15D C 0.91155(15) 0.27971(19) 0.9279(5)
C16D C 0.88421(16) 0.26107(20) 0.8239(4)
C17D C 0.85458(14) 0.27885(21) 0.7838(3)
F1A F 0.43108(12) 0.26156(17) 0.6833(3)
F2A F 0.33950(12) 0.22494(18) 0.7645(4)
F3A F 0.32199(12) 0.26054(17) 0.9699(4)
F4A F 0.39662(15) 0.33194(21) 1.0908(4)
F5A F 0.48900(13) 0.36799(18) 1.0151(4)
N2A N 0.5077(2) 0.25387(23) 0.8241(6)
H1A H 0.4822 0.2411 0.8720
C1A C 0.5689(2) 0.30704(28) 0.7015(7)
H2A H 0.5901 0.3355 0.6575
C2A C 0.5307(2) 0.30082(27) 0.7806(7)
C3A C 0.51372(19) 0.33405(27) 0.8048(6)
C4A C 0.5443(2) 0.3832(3) 0.7890(6)
C5A C 0.53377(18) 0.42174(24) 0.7762(5)
C6A C 0.48439(10) 0.41386(15) 0.7467(3)
C7A C 0.46264(12) 0.43214(18) 0.8228(3)
H3A H 0.4793 0.4499 0.8925
C8A C 0.41648(13) 0.42449(18) 0.7969(4)
H4A H 0.4016 0.4370 0.8489
C9A C 0.39206(10) 0.39853(17) 0.6949(4)
H5A H 0.3605 0.3933 0.6772
C10A C 0.41380(14) 0.38024(22) 0.6189(4)
H6A H 0.3971 0.3625 0.5492
C11A C 0.45997(14) 0.38790(19) 0.6448(3)
H7A H 0.4748 0.3754 0.5928
C12A C 0.46298(11) 0.31528(18) 0.8477(4)
C13A C 0.45429(14) 0.33394(21) 0.9516(4)
C14A C 0.40688(18) 0.31615(23) 0.9917(3)
C15A C 0.36816(12) 0.27971(19) 0.9279(5)
C16A C 0.37686(12) 0.26107(20) 0.8239(4)
C17A C 0.42427(15) 0.27885(21) 0.7838(3)
F1B F 0.73844(17) 0.16952(12) 0.6833(3)
F2B F 0.77506(18) 0.11456(14) 0.7645(4)
F3B F 0.73946(17) 0.06145(12) 0.9699(4)
F4B F 0.66806(21) 0.06468(15) 1.0908(4)
F5B F 0.63201(18) 0.12101(13) 1.0151(4)
N1B N 0.59535(23) 0.1907(2) 0.8011(7)
C1B C 0.69296(28) 0.26186(19) 0.7015(7)
H2B H 0.6645 0.2546 0.6575
C2B C 0.69918(27) 0.22988(18) 0.7806(7)
C3B C 0.66595(27) 0.17967(19) 0.8048(6)
C4B C 0.6168(3) 0.1611(2) 0.7890(6)
C5B C 0.57826(24) 0.11203(16) 0.7762(5)
C6B C 0.58614(15) 0.07053(11) 0.7467(3)
C7B C 0.56786(18) 0.03050(13) 0.8228(3)
H3B H 0.5501 0.0294 0.8925
C8B C 0.57551(18) -0.00801(12) 0.7969(4)
H4B H 0.5630 -0.0354 0.8489
C9B C 0.60147(17) -0.00647(14) 0.6949(4)
H5B H 0.6067 -0.0328 0.6772
C10B C 0.61976(22) 0.03356(17) 0.6189(4)
H6B H 0.6375 0.0346 0.5492
C11B C 0.61210(19) 0.07207(13) 0.6448(3)
H7B H 0.6246 0.0994 0.5928
C12B C 0.68472(18) 0.14770(14) 0.8477(4)
C13B C 0.66606(21) 0.12035(16) 0.9516(4)
C14B C 0.68385(23) 0.09073(15) 0.9917(3)
C15B C 0.72029(19) 0.08845(15) 0.9279(5)
C16B C 0.73893(20) 0.11579(16) 0.8239(4)
C17B C 0.72115(21) 0.14542(14) 0.7838(3)
F1E F 0.43108(12) 0.16952(12) 0.6833(3)
F2E F 0.33950(12) 0.11456(14) 0.7645(4)
F3E F 0.32199(12) 0.06145(12) 0.9699(4)
F4E F 0.39662(15) 0.06468(15) 1.0908(4)
F5E F 0.48900(13) 0.12101(13) 1.0151(4)
C1E C 0.5689(2) 0.26186(19) 0.7015(7)
H2E H 0.5901 0.2546 0.6575
C2E C 0.5307(2) 0.22988(18) 0.7806(7)
C3E C 0.51372(19) 0.17967(19) 0.8048(6)
C4E C 0.5443(2) 0.1611(2) 0.7890(6)
C5E C 0.53377(18) 0.11203(16) 0.7762(5)
C6E C 0.48439(10) 0.07053(11) 0.7467(3)
C7E C 0.46264(12) 0.03050(13) 0.8228(3)
H3E H 0.4793 0.0294 0.8925
C8E C 0.41648(13) -0.00801(12) 0.7969(4)
H4E H 0.4016 -0.0354 0.8489
C9E C 0.39206(10) -0.00647(14) 0.6949(4)
H5E H 0.3605 -0.0328 0.6772
C10E C 0.41380(14) 0.03356(17) 0.6189(4)
H6E H 0.3971 0.0346 0.5492
C11E C 0.45997(14) 0.07207(13) 0.6448(3)
H7E H 0.4748 0.0994 0.5928
C12E C 0.46298(11) 0.14770(14) 0.8477(4)
C13E C 0.45429(14) 0.12035(16) 0.9516(4)
C14E C 0.40688(18) 0.09073(15) 0.9917(3)
C15E C 0.36816(12) 0.08845(15) 0.9279(5)
C16E C 0.37686(12) 0.11579(16) 0.8239(4)
C17E C 0.42427(15) 0.14542(14) 0.7838(3)
O2? O 0.78161(13) 0.5632(3) 1.0041(7)
H8? H 0.7777 0.3888 0.8139
loop_
_geom_bond_atom_site_label_1
_geom_bond_atom_site_label_2
_geom_bond_site_symmetry_1
_geom_bond_site_symmetry_2
F1 C17 1_555 1_555
F2 C16 1_555 1_555
F3 C15 1_555 1_555
F4 C14 1_555 1_555
F5 C13 1_555 1_555
N1 C4 1_555 1_555
N2 H1 1_555 1_555
C1 H2 1_555 1_555
C2 N2 1_555 1_555
C3 C2 1_555 1_555
C4 C3 1_555 1_555
C5 C4 1_555 1_555
C6 C5 1_555 1_555
C7 C6 1_555 1_555
H3 C7 1_555 1_555
C8 C7 1_555 1_555
H4 C8 1_555 1_555
C9 C8 1_555 1_555
H5 C9 1_555 1_555
C10 C9 1_555 1_555
H6 C10 1_555 1_555
C11 C6 1_555 1_555
H7 C11 1_555 1_555
C12 C3 1_555 1_555
C13 C12 1_555 1_555
C14 C13 1_555 1_555
C15 C14 1_555 1_555
C16 C15 1_555 1_555
C17 C12 1_555 1_555
F6 C18 1_555 1_555
F7 C18 1_555 1_555
C18 C19 1_555 1_555
C19 O1 1_555 1_555
F1C C17C 1_555 1_555
F2C C16C 1_555 1_555
F3C C15C 1_555 1_555
F4C C14C 1_555 1_555
F5C C13C 1_555 1_555
N1A C4C 1_555 1_555
C1C C1 1_555 1_555
H2C C1C 1_555 1_555
C2C N2 1_555 1_555
C3C C2C 1_555 1_555
C4C C3C 1_555 1_555
C5C C4C 1_555 1_555
C6C C5C 1_555 1_555
C7C C6C 1_555 1_555
H3C C7C 1_555 1_555
C8C C7C 1_555 1_555
H4C C8C 1_555 1_555
C9C C8C 1_555 1_555
H5C C9C 1_555 1_555
C10C C9C 1_555 1_555
H6C C10C 1_555 1_555
C11C C6C 1_555 1_555
H7C C11C 1_555 1_555
C12C C3C 1_555 1_555
C13C C12C 1_555 1_555
C14C C13C 1_555 1_555
C15C C14C 1_555 1_555
C16C C15C 1_555 1_555
C17C C12C 1_555 1_555
F1D C17D 1_555 1_555
F2D C16D 1_555 1_555
F3D C15D 1_555 1_555
F4D C14D 1_555 1_555
F5D C13D 1_555 1_555
N2B H1B 1_555 1_555
C1D H2D 1_555 1_555
C2D N2B 1_555 1_555
C3D C2D 1_555 1_555
C4D N1 1_555 1_555
C5D C5 1_555 1_555
C6D C5D 1_555 1_555
C7D C6D 1_555 1_555
H3D C7D 1_555 1_555
C8D C7D 1_555 1_555
H4D C8D 1_555 1_555
C9D C8D 1_555 1_555
H5D C9D 1_555 1_555
C10D C9D 1_555 1_555
H6D C10D 1_555 1_555
C11D C6D 1_555 1_555
H7D C11D 1_555 1_555
C12D C3D 1_555 1_555
C13D C12D 1_555 1_555
C14D C13D 1_555 1_555
C15D C14D 1_555 1_555
C16D C15D 1_555 1_555
C17D C12D 1_555 1_555
F1A C17A 1_555 1_555
F2A C16A 1_555 1_555
F3A C15A 1_555 1_555
F4A C14A 1_555 1_555
F5A C13A 1_555 1_555
N2A H1A 1_555 1_555
C1A H2A 1_555 1_555
C2A N2A 1_555 1_555
C3A C2A 1_555 1_555
C4A N1A 1_555 1_555
C5A C5C 1_555 1_555
C6A C5A 1_555 1_555
C7A C6A 1_555 1_555
H3A C7A 1_555 1_555
C8A C7A 1_555 1_555
H4A C8A 1_555 1_555
C9A C8A 1_555 1_555
H5A C9A 1_555 1_555
C10A C9A 1_555 1_555
H6A C10A 1_555 1_555
C11A C6A 1_555 1_555
H7A C11A 1_555 1_555
C12A C3A 1_555 1_555
C13A C12A 1_555 1_555
C14A C13A 1_555 1_555
C15A C14A 1_555 1_555
C16A C15A 1_555 1_555
C17A C12A 1_555 1_555
F1B C17B 1_555 1_555
F2B C16B 1_555 1_555
F3B C15B 1_555 1_555
F4B C14B 1_555 1_555
F5B C13B 1_555 1_555
N1B C4B 1_555 1_555
C1B C1D 1_555 1_555
H2B C1B 1_555 1_555
C2B N2B 1_555 1_555
C3B C2B 1_555 1_555
C4B C3B 1_555 1_555
C5B C4B 1_555 1_555
C6B C5B 1_555 1_555
C7B C6B 1_555 1_555
H3B C7B 1_555 1_555
C8B C7B 1_555 1_555
H4B C8B 1_555 1_555
C9B C8B 1_555 1_555
H5B C9B 1_555 1_555
C10B C9B 1_555 1_555
H6B C10B 1_555 1_555
C11B C6B 1_555 1_555
H7B C11B 1_555 1_555
C12B C3B 1_555 1_555
C13B C12B 1_555 1_555
C14B C13B 1_555 1_555
C15B C14B 1_555 1_555
C16B C15B 1_555 1_555
C17B C12B 1_555 1_555
F1E C17E 1_555 1_555
F2E C16E 1_555 1_555
F3E C15E 1_555 1_555
F4E C14E 1_555 1_555
F5E C13E 1_555 1_555
C1E C1A 1_555 1_555
H2E C1E 1_555 1_555
C2E N2A 1_555 1_555
C3E C2E 1_555 1_555
C4E N1B 1_555 1_555
C5E C5B 1_555 1_555
C6E C5E 1_555 1_555
C7E C6E 1_555 1_555
H3E C7E 1_555 1_555
C8E C7E 1_555 1_555
H4E C8E 1_555 1_555
C9E C8E 1_555 1_555
H5E C9E 1_555 1_555
C10E C9E 1_555 1_555
H6E C10E 1_555 1_555
C11E C6E 1_555 1_555
H7E C11E 1_555 1_555
C12E C3E 1_555 1_555
C13E C12E 1_555 1_555
C14E C13E 1_555 1_555
C15E C14E 1_555 1_555
C16E C15E 1_555 1_555
C17E C12E 1_555 1_555
F6C C18 1_555 1_555
O1C C19 1_555 1_555
C1 C2 1_555 1_555
C10 C11 1_555 1_555
C16 C17 1_555 1_555
C1C C2C 1_555 1_555
C10C C11C 1_555 1_555
C16C C17C 1_555 1_555
C1D C2D 1_555 1_555
C3D C4D 1_555 1_555
C4D C5D 1_555 1_555
C10D C11D 1_555 1_555
C16D C17D 1_555 1_555
C1A C2A 1_555 1_555
C3A C4A 1_555 1_555
C4A C5A 1_555 1_555
C10A C11A 1_555 1_555
C16A C17A 1_555 1_555
C1B C2B 1_555 1_555
C10B C11B 1_555 1_555
C16B C17B 1_555 1_555
C1E C2E 1_555 1_555
C3E C4E 1_555 1_555
C4E C5E 1_555 1_555
C10E C11E 1_555 1_555
C16E C17E 1_555 1_555

#END
