
#######################################################################
#
#                 Cambridge Crystallographic Data Centre
#                                CCDC 
#
#######################################################################
#
# If this CIF has been generated from an entry in the Cambridge 
# Structural Database, then it will include bibliographic, chemical, 
# crystal, experimental, refinement or atomic coordinate data resulting 
# from the CCDC's data processing and validation procedures.
#
#######################################################################

data_LIVJAD
_chemical_formula_moiety         'C66 H17 F30 N6 1+,C2 F3 O2 1-,3(C2 H1 F3 O2)'
_chemical_name_systematic        
'5,10,15,20,25,30-hexakis(Pentafluorophenyl)[28]hexaphyrinium(1.1.1.1.1.1) trifluoroacetate trifluoroacetic acid unknown solvate'
_symmetry_cell_setting           triclinic
_symmetry_space_group_name_H-M   'P -1'
_symmetry_Int_Tables_number      2
_space_group_name_Hall           '-P 1'
loop_
_symmetry_equiv_pos_site_id
_symmetry_equiv_pos_as_xyz
1 x,y,z
2 -x,-y,-z
_cell_length_a                   10.4662(2)
_cell_length_b                   15.1171(3)
_cell_length_c                   25.9819(5)
_cell_angle_alpha                91.8515(9)
_cell_angle_beta                 93.6444(9)
_cell_angle_gamma                92.1928(9)
_cell_volume                     4097.01
_exptl_crystal_colour            violet
_exptl_crystal_description       prism
_cell_formula_units_Z            2
loop_
_atom_site_label
_atom_site_type_symbol
_atom_site_fract_x
_atom_site_fract_y
_atom_site_fract_z
O1 O 0.4497(6) 0.8286(3) 0.68744(18)
O2 O 0.6507(7) 0.8243(4) 0.6565(3)
H1 H 0.6116 0.8191 0.6272
F1 F 0.7148(8) 0.7763(4) 0.7545(3)
F2 F 0.5601(10) 0.8352(7) 0.7838(3)
F3 F 0.7047(9) 0.9119(4) 0.7533(3)
C1 C 0.5668(13) 0.8297(5) 0.6923(4)
C2 C 0.6377(13) 0.8374(8) 0.7453(5)
O3 O 0.5435(6) 0.8047(4) 0.5685(2)
O4 O 0.7375(8) 0.7766(4) 0.5437(2)
F4 F 0.4431(6) 0.7859(4) 0.47286(19)
F5 F 0.5590(5) 0.6733(3) 0.47082(18)
F6 F 0.6329(6) 0.7992(4) 0.4453(2)
C3 C 0.5550(12) 0.7605(7) 0.4797(4)
C4 C 0.6206(13) 0.7822(5) 0.5356(4)
O5 O 0.8751(6) 0.3583(4) 0.3176(2)
O6 O 1.0802(6) 0.4120(3) 0.3278(2)
H2 H 1.1162 0.4622 0.3256
F7 F 0.8047(7) 0.5248(4) 0.3262(4)
F8 F 0.9963(5) 0.5767(3) 0.3259(2)
F9 F 0.9001(8) 0.5235(4) 0.2580(3)
C5 C 0.9161(12) 0.5103(6) 0.3083(5)
C6 C 0.9542(10) 0.4179(6) 0.3190(3)
O7 O 0.7136(11) 0.1192(7) 0.0268(4)
H3 H 0.6781 0.0969 -0.0008
O8 O 0.8349(7) 0.2412(4) 0.0482(2)
F10 F 0.6603(12) 0.1946(9) -0.0623(4)
F11 F 0.7871(11) 0.3041(8) -0.0437(3)
F12 F 0.8616(13) 0.1815(8) -0.0611(3)
C7 C 0.7712(11) 0.1928(9) 0.0175(4)
C8 C 0.7662(15) 0.2186(11) -0.0363(7)
F13 F 0.4870(4) 1.0709(2) 0.74061(15)
F14 F 0.7350(4) 1.0866(3) 0.71950(17)
F15 F 0.8034(5) 1.0575(3) 0.62255(19)
F16 F 0.6245(5) 1.0174(3) 0.54438(17)
F17 F 0.3737(4) 1.0084(3) 0.56409(14)
F18 F 0.1349(4) 0.8646(2) 0.47784(15)
F19 F -0.0370(5) 0.8258(3) 0.39798(16)
F20 F -0.1926(4) 0.6785(3) 0.39794(16)
F21 F -0.1744(5) 0.5691(3) 0.47922(16)
F22 F -0.0042(4) 0.6067(2) 0.55901(15)
F23 F 0.6977(4) 0.5873(2) 0.59525(14)
F24 F 0.8432(4) 0.4484(2) 0.57444(14)
F25 F 0.7786(4) 0.2851(2) 0.60710(15)
F26 F 0.5730(4) 0.2611(2) 0.66300(17)
F27 F 0.4300(4) 0.3988(2) 0.68684(17)
F28 F 0.5052(7) 0.7394(5) 0.8949(2)
F29 F 0.5335(7) 0.6730(6) 0.9903(3)
F30 F 0.3774(8) 0.5435(6) 1.0187(3)
F31 F 0.1866(10) 0.4832(6) 0.9530(3)
F32 F 0.1567(8) 0.5439(4) 0.8581(2)
F33 F -0.1474(4) 0.6970(2) 0.84736(15)
F34 F -0.2370(5) 0.6200(3) 0.93003(16)
F35 F -0.2222(5) 0.7078(3) 1.02331(16)
F36 F -0.1243(5) 0.8756(3) 1.03235(16)
F37 F -0.0318(4) 0.9543(3) 0.95018(14)
F38 F 0.0543(7) 1.2484(3) 0.88175(18)
F39 F -0.0377(9) 1.4089(4) 0.9082(2)
F40 F -0.1791(7) 1.5009(3) 0.8364(2)
F41 F -0.2215(7) 1.4311(4) 0.7402(2)
F42 F -0.1409(5) 1.2715(3) 0.71572(18)
N1 N 0.1276(6) 1.0853(3) 0.7227(2)
H4 H 0.0850 1.0342 0.7241
N2 N 0.2490(6) 0.8821(3) 0.6238(2)
H5 H 0.3267 0.8638 0.6309
N3 N 0.3386(5) 0.6864(3) 0.6190(2)
H6 H 0.3447 0.7253 0.6450
N4 N 0.3811(6) 0.6417(3) 0.7312(2)
H7 H 0.3168 0.6658 0.7141
N5 N 0.1363(6) 0.7652(3) 0.8427(2)
H8 H 0.1316 0.7440 0.8737
N6 N 0.0083(6) 1.0120(3) 0.8093(2)
C9 C 0.0976(7) 1.1604(4) 0.7478(3)
C10 C 0.1867(8) 1.2291(4) 0.7334(3)
H9 H 0.1865 1.2902 0.7432
C11 C 0.2721(8) 1.1891(4) 0.7027(3)
H10 H 0.3447 1.2175 0.6892
C12 C 0.2337(8) 1.0989(4) 0.6947(3)
C13 C 0.2818(7) 1.0326(4) 0.6637(3)
C14 C 0.2041(8) 0.9613(4) 0.6419(3)
C15 C 0.0764(8) 0.9616(4) 0.6249(3)
H11 H 0.0192 1.0060 0.6340
C16 C 0.0436(7) 0.8892(4) 0.5934(3)
H12 H -0.0371 0.8767 0.5753
C17 C 0.1539(7) 0.8352(4) 0.5927(3)
C18 C 0.1695(7) 0.7562(4) 0.5648(2)
C19 C 0.2577(7) 0.6928(4) 0.5737(3)
C20 C 0.2851(8) 0.6189(4) 0.5412(3)
H13 H 0.2463 0.6054 0.5077
C21 C 0.3761(7) 0.5706(4) 0.5662(3)
H14 H 0.4128 0.5193 0.5523
C22 C 0.4073(7) 0.6094(4) 0.6164(3)
C23 C 0.4811(7) 0.5730(4) 0.6563(3)
C24 C 0.4752(7) 0.5967(4) 0.7090(3)
C25 C 0.5614(8) 0.5722(4) 0.7497(3)
H15 H 0.6373 0.5408 0.7458
C26 C 0.5179(7) 0.6009(5) 0.7958(3)
H16 H 0.5582 0.5935 0.8291
C27 C 0.4011(8) 0.6438(4) 0.7846(3)
C28 C 0.3142(7) 0.6785(4) 0.8191(3)
C29 C 0.2238(7) 0.7390(4) 0.8074(2)
C30 C 0.1935(8) 0.7868(4) 0.7617(3)
H17 H 0.2348 0.7813 0.7303
C31 C 0.0981(8) 0.8401(5) 0.7705(3)
H18 H 0.0612 0.8796 0.7465
C32 C 0.0596(8) 0.8278(4) 0.8231(3)
C33 C -0.0331(7) 0.8702(4) 0.8508(2)
C34 C -0.0716(8) 0.9564(4) 0.8379(2)
C35 C -0.1759(7) 1.0024(4) 0.8526(2)
H19 H -0.2428 0.9797 0.8720
C36 C -0.1663(8) 1.0875(5) 0.8339(3)
H20 H -0.2247 1.1332 0.8384
C37 C -0.0534(7) 1.0929(4) 0.8073(3)
C38 C 0.0024(8) 1.1665(5) 0.7839(3)
C39 C 0.4190(7) 1.0391(4) 0.6534(3)
C40 C 0.4616(8) 1.0246(4) 0.6035(3)
C41 C 0.5925(8) 1.0294(5) 0.5924(3)
C42 C 0.6755(8) 1.0505(5) 0.6324(3)
C43 C 0.6437(9) 1.0659(4) 0.6803(3)
C44 C 0.5197(8) 1.0607(4) 0.6919(3)
C45 C 0.0687(7) 0.7351(4) 0.5204(2)
C46 C -0.0108(7) 0.6614(4) 0.5186(3)
C47 C -0.0950(8) 0.6424(4) 0.4786(3)
C48 C -0.1058(8) 0.6982(5) 0.4382(3)
C49 C -0.0288(7) 0.7721(4) 0.4380(3)
C50 C 0.0592(8) 0.7910(4) 0.4793(3)
C51 C 0.5606(7) 0.4996(4) 0.6432(3)
C52 C 0.6658(7) 0.5072(4) 0.6133(3)
C53 C 0.7376(7) 0.4367(5) 0.6027(3)
C54 C 0.7061(8) 0.3541(5) 0.6177(3)
C55 C 0.6031(7) 0.3422(4) 0.6479(3)
C56 C 0.5329(7) 0.4140(4) 0.6593(3)
C57 C 0.3339(7) 0.6442(4) 0.8742(2)
C58 C 0.4302(6) 0.6792(4) 0.9091(3)
C59 C 0.4463(7) 0.6449(6) 0.9580(3)
C60 C 0.3661(9) 0.5755(6) 0.9719(2)
C61 C 0.2697(9) 0.5405(5) 0.9370(3)
C62 C 0.2536(7) 0.5748(5) 0.8881(3)
C63 C -0.0861(7) 0.8282(4) 0.8952(3)
C64 C -0.0852(8) 0.8728(5) 0.9437(3)
C65 C -0.1290(9) 0.8314(5) 0.9860(3)
C66 C -0.1772(8) 0.7494(5) 0.9813(3)
C67 C -0.1823(9) 0.7032(5) 0.9348(3)
C68 C -0.1374(7) 0.7434(5) 0.8931(3)
C69 C -0.0412(7) 1.2550(4) 0.7974(3)
C70 C -0.0178(10) 1.2948(6) 0.8464(3)
C71 C -0.0572(12) 1.3760(6) 0.8607(4)
C72 C -0.1363(11) 1.4207(5) 0.8240(4)
C73 C -0.1552(9) 1.3855(5) 0.7775(4)
C74 C -0.1157(9) 1.3043(5) 0.7630(3)
loop_
_geom_bond_atom_site_label_1
_geom_bond_atom_site_label_2
_geom_bond_site_symmetry_1
_geom_bond_site_symmetry_2
O1 C1 1_555 1_555
O2 H1 1_555 1_555
F1 C2 1_555 1_555
F2 C2 1_555 1_555
F3 C2 1_555 1_555
C1 O2 1_555 1_555
C2 C1 1_555 1_555
O3 C4 1_555 1_555
O4 C4 1_555 1_555
F4 C3 1_555 1_555
F5 C3 1_555 1_555
F6 C3 1_555 1_555
C3 C4 1_555 1_555
O5 C6 1_555 1_555
O6 H2 1_555 1_555
F7 C5 1_555 1_555
F8 C5 1_555 1_555
F9 C5 1_555 1_555
C5 C6 1_555 1_555
C6 O6 1_555 1_555
O7 H3 1_555 1_555
O8 C7 1_555 1_555
F10 C8 1_555 1_555
F11 C8 1_555 1_555
F12 C8 1_555 1_555
C7 O7 1_555 1_555
C8 C7 1_555 1_555
F13 C44 1_555 1_555
F14 C43 1_555 1_555
F15 C42 1_555 1_555
F16 C41 1_555 1_555
F17 C40 1_555 1_555
F18 C50 1_555 1_555
F19 C49 1_555 1_555
F20 C48 1_555 1_555
F21 C47 1_555 1_555
F22 C46 1_555 1_555
F23 C52 1_555 1_555
F24 C53 1_555 1_555
F25 C54 1_555 1_555
F26 C55 1_555 1_555
F27 C56 1_555 1_555
F28 C58 1_555 1_555
F29 C59 1_555 1_555
F30 C60 1_555 1_555
F31 C61 1_555 1_555
F32 C62 1_555 1_555
F33 C68 1_555 1_555
F34 C67 1_555 1_555
F35 C66 1_555 1_555
F36 C65 1_555 1_555
F37 C64 1_555 1_555
F38 C70 1_555 1_555
F39 C71 1_555 1_555
F40 C72 1_555 1_555
F41 C73 1_555 1_555
F42 C74 1_555 1_555
N1 H4 1_555 1_555
N2 H5 1_555 1_555
N3 H6 1_555 1_555
N4 H7 1_555 1_555
N5 H8 1_555 1_555
N6 C34 1_555 1_555
C9 N1 1_555 1_555
C10 C9 1_555 1_555
H9 C10 1_555 1_555
C11 C10 1_555 1_555
H10 C11 1_555 1_555
C12 N1 1_555 1_555
C13 C12 1_555 1_555
C14 N2 1_555 1_555
C15 C14 1_555 1_555
H11 C15 1_555 1_555
C16 C15 1_555 1_555
H12 C16 1_555 1_555
C17 N2 1_555 1_555
C18 C17 1_555 1_555
C19 N3 1_555 1_555
C20 C19 1_555 1_555
H13 C20 1_555 1_555
C21 C20 1_555 1_555
H14 C21 1_555 1_555
C22 N3 1_555 1_555
C23 C22 1_555 1_555
C24 N4 1_555 1_555
C25 C24 1_555 1_555
H15 C25 1_555 1_555
C26 C25 1_555 1_555
H16 C26 1_555 1_555
C27 N4 1_555 1_555
C28 C27 1_555 1_555
C29 N5 1_555 1_555
C30 C29 1_555 1_555
H17 C30 1_555 1_555
C31 C30 1_555 1_555
H18 C31 1_555 1_555
C32 N5 1_555 1_555
C33 C32 1_555 1_555
C34 C33 1_555 1_555
C35 C34 1_555 1_555
H19 C35 1_555 1_555
C36 C35 1_555 1_555
H20 C36 1_555 1_555
C37 N6 1_555 1_555
C38 C9 1_555 1_555
C39 C13 1_555 1_555
C40 C39 1_555 1_555
C41 C40 1_555 1_555
C42 C41 1_555 1_555
C43 C42 1_555 1_555
C44 C39 1_555 1_555
C45 C18 1_555 1_555
C46 C45 1_555 1_555
C47 C46 1_555 1_555
C48 C47 1_555 1_555
C49 C48 1_555 1_555
C50 C45 1_555 1_555
C51 C23 1_555 1_555
C52 C51 1_555 1_555
C53 C52 1_555 1_555
C54 C53 1_555 1_555
C55 C54 1_555 1_555
C56 C51 1_555 1_555
C57 C28 1_555 1_555
C58 C57 1_555 1_555
C59 C58 1_555 1_555
C60 C59 1_555 1_555
C61 C60 1_555 1_555
C62 C57 1_555 1_555
C63 C33 1_555 1_555
C64 C63 1_555 1_555
C65 C64 1_555 1_555
C66 C65 1_555 1_555
C67 C66 1_555 1_555
C68 C63 1_555 1_555
C69 C38 1_555 1_555
C70 C69 1_555 1_555
C71 C70 1_555 1_555
C72 C71 1_555 1_555
C73 C72 1_555 1_555
C74 C69 1_555 1_555
C11 C12 1_555 1_555
C13 C14 1_555 1_555
C16 C17 1_555 1_555
C18 C19 1_555 1_555
C21 C22 1_555 1_555
C23 C24 1_555 1_555
C26 C27 1_555 1_555
C28 C29 1_555 1_555
C31 C32 1_555 1_555
C36 C37 1_555 1_555
C37 C38 1_555 1_555
C43 C44 1_555 1_555
C49 C50 1_555 1_555
C55 C56 1_555 1_555
C61 C62 1_555 1_555
C67 C68 1_555 1_555
C73 C74 1_555 1_555

#END
