
#######################################################################
#
#                 Cambridge Crystallographic Data Centre
#                                CCDC 
#
#######################################################################
#
# If this CIF has been generated from an entry in the Cambridge 
# Structural Database, then it will include bibliographic, chemical, 
# crystal, experimental, refinement or atomic coordinate data resulting 
# from the CCDC's data processing and validation procedures.
#
#######################################################################

data_LIVNOV02
_chemical_formula_moiety         'C7 H15 Cl1 N2 2+,2(Cl1 O4 1-)'
_chemical_name_systematic        
'1-(Chloromethyl)-1,4-diazoniabicyclo[2.2.2]octane diperchlorate'
_symmetry_cell_setting           orthorhombic
_symmetry_space_group_name_H-M   'P b c a'
_symmetry_Int_Tables_number      61
_space_group_name_Hall           '-P 2ac 2ab'
loop_
_symmetry_equiv_pos_site_id
_symmetry_equiv_pos_as_xyz
1 x,y,z
2 1/2-x,-y,1/2+z
3 -x,1/2+y,1/2-z
4 1/2+x,1/2-y,-z
5 -x,-y,-z
6 1/2+x,y,1/2-z
7 x,1/2-y,1/2+z
8 1/2-x,1/2+y,z
_cell_length_a                   13.3098(12)
_cell_length_b                   12.7949(12)
_cell_length_c                   16.0119(15)
_cell_angle_alpha                90
_cell_angle_beta                 90
_cell_angle_gamma                90
_cell_volume                     2726.79
_exptl_crystal_colour            colorless
_exptl_crystal_description       block
_cell_formula_units_Z            8
loop_
_atom_site_label
_atom_site_type_symbol
_atom_site_fract_x
_atom_site_fract_y
_atom_site_fract_z
Cl1 Cl 0.08976(7) 0.28856(7) 0.12603(5)
O1 O 0.1405(6) 0.3418(6) 0.1923(5)
O2 O -0.0171(6) 0.2934(7) 0.1224(5)
O3 O 0.1181(8) 0.1813(8) 0.1357(6)
O4 O 0.1282(6) 0.3302(6) 0.0498(5)
Cl2 Cl 0.25494(6) 0.44377(7) 0.35875(5)
O9 O 0.3064(2) 0.4903(2) 0.42757(17)
O10 O 0.3027(2) 0.4753(2) 0.28153(16)
O11 O 0.1521(2) 0.4804(2) 0.35628(17)
O12 O 0.2554(3) 0.3325(2) 0.3662(2)
Cl3 Cl 0.10680(10) 0.91198(10) 0.03542(9)
N1 N 0.1254(2) 0.5792(2) 0.19597(18)
H1 H 0.1500 0.5213 0.2245
N2 N 0.0595(2) 0.7359(2) 0.11895(18)
C1 C 0.1176(3) 0.7697(3) 0.1951(2)
H2 H 0.1739 0.8156 0.1781
H3 H 0.0732 0.8100 0.2328
C2 C 0.1580(3) 0.6759(3) 0.2403(2)
H4 H 0.2323 0.6790 0.2422
H5 H 0.1325 0.6750 0.2984
C3 C 0.1269(3) 0.6732(3) 0.0626(2)
H6 H 0.1837 0.7171 0.0435
H7 H 0.0888 0.6500 0.0128
C4 C 0.1666(3) 0.5789(3) 0.1092(2)
H8 H 0.1463 0.5141 0.0801
H9 H 0.2410 0.5813 0.1111
C5 C -0.0267(3) 0.6674(3) 0.1473(3)
H10 H -0.0658 0.6438 0.0982
H11 H -0.0720 0.7079 0.1841
C6 C 0.0137(3) 0.5736(3) 0.1940(3)
H12 H -0.0130 0.5730 0.2517
H13 H -0.0078 0.5085 0.1659
C7 C 0.0146(3) 0.8286(3) 0.0748(3)
H14 H -0.0286 0.8678 0.1142
H15 H -0.0282 0.8039 0.0282
O5? O 0.1119(6) 0.3432(7) 0.2034(5)
O6? O -0.0010(7) 0.3362(8) 0.1070(6)
O7? O 0.0816(7) 0.1797(7) 0.1459(6)
O8? O 0.1611(6) 0.2951(7) 0.0614(5)
loop_
_geom_bond_atom_site_label_1
_geom_bond_atom_site_label_2
_geom_bond_site_symmetry_1
_geom_bond_site_symmetry_2
Cl1 O1 1_555 1_555
O2 Cl1 1_555 1_555
O3 Cl1 1_555 1_555
O4 Cl1 1_555 1_555
Cl2 O9 1_555 1_555
O10 Cl2 1_555 1_555
O11 Cl2 1_555 1_555
O12 Cl2 1_555 1_555
Cl3 C7 1_555 1_555
N1 H1 1_555 1_555
N2 C1 1_555 1_555
C1 H2 1_555 1_555
H3 C1 1_555 1_555
C2 N1 1_555 1_555
H4 C2 1_555 1_555
H5 C2 1_555 1_555
C3 N2 1_555 1_555
H6 C3 1_555 1_555
H7 C3 1_555 1_555
C4 N1 1_555 1_555
H8 C4 1_555 1_555
H9 C4 1_555 1_555
C5 N2 1_555 1_555
H10 C5 1_555 1_555
H11 C5 1_555 1_555
C6 N1 1_555 1_555
H12 C6 1_555 1_555
H13 C6 1_555 1_555
C7 N2 1_555 1_555
H14 C7 1_555 1_555
H15 C7 1_555 1_555
C1 C2 1_555 1_555
C3 C4 1_555 1_555
C5 C6 1_555 1_555

#END
