
#######################################################################
#
#                 Cambridge Crystallographic Data Centre
#                                CCDC 
#
#######################################################################
#
# If this CIF has been generated from an entry in the Cambridge 
# Structural Database, then it will include bibliographic, chemical, 
# crystal, experimental, refinement or atomic coordinate data resulting 
# from the CCDC's data processing and validation procedures.
#
#######################################################################

data_LIVNOV01
_chemical_formula_moiety         'C7 H15 Cl1 N2 2+,2(Cl1 O4 1-)'
_chemical_name_systematic        
'1-(Chloromethyl)-1,4-diazoniabicyclo[2.2.2]octane diperchlorate'
_symmetry_cell_setting           monoclinic
_symmetry_space_group_name_H-M   'P 21/c'
_symmetry_Int_Tables_number      14
_space_group_name_Hall           '-P 2ybc'
loop_
_symmetry_equiv_pos_site_id
_symmetry_equiv_pos_as_xyz
1 x,y,z
2 -x,1/2+y,1/2-z
3 -x,-y,-z
4 x,1/2-y,1/2+z
_cell_length_a                   12.659(4)
_cell_length_b                   16.121(5)
_cell_length_c                   13.197(4)
_cell_angle_alpha                90
_cell_angle_beta                 91.231(4)
_cell_angle_gamma                90
_cell_volume                     2692.57
_exptl_crystal_colour            colorless
_exptl_crystal_description       block
_cell_formula_units_Z            8
loop_
_atom_site_label
_atom_site_type_symbol
_atom_site_fract_x
_atom_site_fract_y
_atom_site_fract_z
Cl1 Cl 0.94141(12) 0.14330(8) 0.25313(12)
O1 O 0.8282(4) 0.1367(3) 0.2508(4)
O2 O 0.9752(4) 0.2191(3) 0.3045(4)
O3 O 0.9788(4) 0.1471(3) 0.1507(4)
O4 O 0.9887(4) 0.0733(3) 0.3047(4)
Cl2 Cl 0.78549(12) 0.12425(9) 0.58768(12)
O5 O 0.8310(5) 0.0497(3) 0.6290(5)
O6 O 0.7911(5) 0.1224(3) 0.4807(4)
O7 O 0.6768(4) 0.1274(4) 0.6147(5)
O8 O 0.8393(4) 0.1960(3) 0.6288(4)
Cl3 Cl 0.28958(12) 0.12860(9) 0.91337(12)
O9 O 0.1815(5) 0.1466(4) 0.9304(6)
O10 O 0.3399(7) 0.1039(5) 1.0038(5)
O11 O 0.3420(4) 0.2024(3) 0.8768(4)
O12 O 0.2968(6) 0.0646(4) 0.8398(5)
Cl4 Cl 0.44597(12) 0.14090(9) 0.24739(12)
O13 O 0.3328(4) 0.1306(3) 0.2441(4)
O14 O 0.4831(4) 0.1455(3) 0.3509(4)
O15 O 0.4751(4) 0.2177(3) 0.1975(4)
O16 O 0.4956(4) 0.0722(3) 0.1971(4)
Cl5 Cl 0.41260(14) 0.03377(12) 0.60231(15)
N1 N 0.0775(4) 0.1937(3) 0.6284(4)
H1 H 0.0198 0.2214 0.6548
N2 N 0.2342(4) 0.1181(3) 0.5575(4)
C1 C 0.1637(5) 0.1516(4) 0.4726(5)
H2 H 0.1445 0.1063 0.4250
H3 H 0.2020 0.1947 0.4346
C2 C 0.0639(6) 0.1887(4) 0.5166(5)
H4 H 0.0513 0.2448 0.4882
H5 H 0.0021 0.1535 0.4988
C3 C 0.1693(5) 0.0597(4) 0.6192(5)
H6 H 0.2154 0.0306 0.6692
H7 H 0.1359 0.0175 0.5743
C4 C 0.0836(5) 0.1082(4) 0.6744(5)
H8 H 0.0146 0.0797 0.6665
H9 H 0.1016 0.1121 0.7476
C5 C 0.2713(5) 0.1909(4) 0.6234(5)
H10 H 0.3104 0.1699 0.6839
H11 H 0.3194 0.2267 0.5846
C6 C 0.1758(5) 0.2405(4) 0.6558(5)
H12 H 0.1795 0.2501 0.7299
H13 H 0.1750 0.2951 0.6215
C7 C 0.3257(5) 0.0764(4) 0.5106(5)
H14 H 0.3644 0.1171 0.4692
H15 H 0.2997 0.0318 0.4650
Cl6 Cl 0.91321(14) 0.02905(12) 0.88292(15)
N3 N 0.5803(4) 0.1950(3) 0.8765(4)
H16 H 0.5214 0.2246 0.8539
N4 N 0.7392(4) 0.1140(3) 0.9374(4)
C8 C 0.6773(5) 0.2355(4) 0.8372(5)
H17 H 0.6773 0.2954 0.8539
H18 H 0.6798 0.2294 0.7626
C9 C 0.7736(5) 0.1924(4) 0.8879(5)
H19 H 0.8270 0.1799 0.8364
H20 H 0.8062 0.2298 0.9393
C10 C 0.6758(5) 0.0634(4) 0.8607(5)
H21 H 0.7162 0.0571 0.7977
H22 H 0.6619 0.0075 0.8883
C11 C 0.5723(5) 0.1074(4) 0.8376(5)
H23 H 0.5578 0.1077 0.7636
H24 H 0.5137 0.0781 0.8709
C12 C 0.6696(6) 0.1345(5) 1.0260(5)
H25 H 0.7124 0.1602 1.0812
H26 H 0.6372 0.0832 1.0524
C13 C 0.5831(6) 0.1947(4) 0.9901(5)
H27 H 0.5138 0.1768 1.0159
H28 H 0.5983 0.2511 1.0160
C14 C 0.8326(5) 0.0659(4) 0.9800(5)
H29 H 0.8069 0.0184 1.0201
H30 H 0.8748 0.1022 1.0258
loop_
_geom_bond_atom_site_label_1
_geom_bond_atom_site_label_2
_geom_bond_site_symmetry_1
_geom_bond_site_symmetry_2
Cl1 O1 1_555 1_555
O2 Cl1 1_555 1_555
O3 Cl1 1_555 1_555
O4 Cl1 1_555 1_555
Cl2 O5 1_555 1_555
O6 Cl2 1_555 1_555
O7 Cl2 1_555 1_555
O8 Cl2 1_555 1_555
Cl3 O9 1_555 1_555
O10 Cl3 1_555 1_555
O11 Cl3 1_555 1_555
O12 Cl3 1_555 1_555
Cl4 O13 1_555 1_555
O14 Cl4 1_555 1_555
O15 Cl4 1_555 1_555
O16 Cl4 1_555 1_555
Cl5 C7 1_555 1_555
N1 H1 1_555 1_555
N2 C1 1_555 1_555
C1 H2 1_555 1_555
H3 C1 1_555 1_555
C2 N1 1_555 1_555
H4 C2 1_555 1_555
H5 C2 1_555 1_555
C3 N2 1_555 1_555
H6 C3 1_555 1_555
H7 C3 1_555 1_555
C4 N1 1_555 1_555
H8 C4 1_555 1_555
H9 C4 1_555 1_555
C5 N2 1_555 1_555
H10 C5 1_555 1_555
H11 C5 1_555 1_555
C6 N1 1_555 1_555
H12 C6 1_555 1_555
H13 C6 1_555 1_555
C7 N2 1_555 1_555
H14 C7 1_555 1_555
H15 C7 1_555 1_555
Cl6 C14 1_555 1_555
N3 H16 1_555 1_555
N4 C9 1_555 1_555
C8 N3 1_555 1_555
H17 C8 1_555 1_555
H18 C8 1_555 1_555
C9 C8 1_555 1_555
H19 C9 1_555 1_555
H20 C9 1_555 1_555
C10 N4 1_555 1_555
H21 C10 1_555 1_555
H22 C10 1_555 1_555
C11 N3 1_555 1_555
H23 C11 1_555 1_555
H24 C11 1_555 1_555
C12 N4 1_555 1_555
H25 C12 1_555 1_555
H26 C12 1_555 1_555
C13 N3 1_555 1_555
H27 C13 1_555 1_555
H28 C13 1_555 1_555
C14 N4 1_555 1_555
H29 C14 1_555 1_555
H30 C14 1_555 1_555
C1 C2 1_555 1_555
C3 C4 1_555 1_555
C5 C6 1_555 1_555
C10 C11 1_555 1_555
C12 C13 1_555 1_555

#END
