
#######################################################################
#
#                 Cambridge Crystallographic Data Centre
#                                CCDC 
#
#######################################################################
#
# If this CIF has been generated from an entry in the Cambridge 
# Structural Database, then it will include bibliographic, chemical, 
# crystal, experimental, refinement or atomic coordinate data resulting 
# from the CCDC's data processing and validation procedures.
#
#######################################################################

data_LIVNOT
_chemical_formula_moiety         'C26 H20 O3'
_chemical_name_systematic        
(M)-4-Oxahexacyclo(16.9.0.0^2,6^.0^7,17^.0^11,16^.0^19,24^)heptacosa-1(18),2(6),7(17),11,13,15,19,21,23-nonene-3,5-dione
_symmetry_cell_setting           orthorhombic
_symmetry_space_group_name_H-M   'P c c n'
_symmetry_Int_Tables_number      56
_space_group_name_Hall           '-P 2ab 2ac'
loop_
_symmetry_equiv_pos_site_id
_symmetry_equiv_pos_as_xyz
1 x,y,z
2 1/2-x,1/2-y,z
3 1/2+x,-y,1/2-z
4 -x,1/2+y,1/2-z
5 -x,-y,-z
6 1/2+x,1/2+y,-z
7 1/2-x,y,1/2+z
8 x,1/2-y,1/2+z
_cell_length_a                   35.753(2)
_cell_length_b                   14.2245(7)
_cell_length_c                   7.5267(4)
_cell_angle_alpha                90
_cell_angle_beta                 90
_cell_angle_gamma                90
_cell_volume                     3827.84
_cell_formula_units_Z            8
loop_
_atom_site_label
_atom_site_type_symbol
_atom_site_fract_x
_atom_site_fract_y
_atom_site_fract_z
O1 O 0.1115(1) 0.1252(1) 0.7846(2)
O2 O 0.1717(1) 0.1312(1) 0.7001(3)
O3 O 0.0530(1) 0.1619(1) 0.8662(2)
C1 C 0.1442(1) 0.1736(2) 0.7381(3)
C2 C 0.1360(1) 0.2749(2) 0.7508(3)
C3 C 0.1584(1) 0.3518(2) 0.7130(3)
C4 C 0.1982(1) 0.3443(2) 0.6469(3)
C5 C 0.2270(1) 0.3789(2) 0.7825(3)
C6 C 0.2172(1) 0.4736(2) 0.8657(3)
C7 C 0.1999(1) 0.5413(2) 0.7372(3)
C8 C 0.2191(1) 0.6196(2) 0.6732(4)
C9 C 0.2032(1) 0.6784(2) 0.5497(4)
C10 C 0.1680(1) 0.6609(2) 0.4855(4)
C11 C 0.1480(1) 0.5850(2) 0.5497(3)
C12 C 0.1634(1) 0.5252(2) 0.6762(3)
C13 C 0.1420(1) 0.4413(2) 0.7372(3)
C14 C 0.1055(1) 0.4504(1) 0.8083(2)
C15 C 0.0902(1) 0.5437(1) 0.8600(3)
C16 C 0.1091(1) 0.5995(2) 0.9828(3)
C17 C 0.0936(1) 0.6836(2) 1.0391(3)
C18 C 0.0599(1) 0.7130(2) 0.9718(3)
C19 C 0.0409(1) 0.6581(2) 0.8527(3)
C20 C 0.0552(1) 0.5727(2) 0.7964(3)
C21 C 0.0336(1) 0.5102(2) 0.6726(3)
C22 C 0.0173(1) 0.4243(2) 0.7662(3)
C23 C 0.0434(1) 0.3821(2) 0.9061(3)
C24 C 0.0829(1) 0.3707(2) 0.8393(3)
C25 C 0.0991(1) 0.2843(2) 0.8067(3)
C26 C 0.0833(1) 0.1891(2) 0.8265(3)
H1 H 0.2006(1) 0.3809(2) 0.5388(3)
H2 H 0.2034(1) 0.2792(2) 0.6179(3)
H3 H 0.2293(1) 0.3324(2) 0.8762(3)
H4 H 0.2511(1) 0.3840(2) 0.7244(3)
H5 H 0.2000(1) 0.4633(2) 0.9633(3)
H6 H 0.2398(1) 0.5014(2) 0.9142(3)
H7 H 0.2430(1) 0.6322(2) 0.7148(4)
H8 H 0.2164(1) 0.7305(2) 0.5093(4)
H9 H 0.1576(1) 0.6999(2) 0.3993(4)
H10 H 0.1239(1) 0.5738(2) 0.5079(3)
H11 H 0.1321(1) 0.5802(2) 1.0270(3)
H12 H 0.1060(1) 0.7202(2) 1.1227(3)
H13 H 0.0499(1) 0.7704(2) 1.0072(3)
H14 H 0.0180(1) 0.6786(2) 0.8089(3)
H15 H 0.0500(1) 0.4894(2) 0.5778(3)
H16 H 0.0134(1) 0.5461(2) 0.6194(3)
H17 H 0.0116(1) 0.3766(2) 0.6780(3)
H18 H -0.0061(1) 0.4420(2) 0.8229(3)
H19 H 0.0436(1) 0.4225(2) 1.0100(3)
H20 H 0.0338(1) 0.3212(2) 0.9420(3)
loop_
_geom_bond_atom_site_label_1
_geom_bond_atom_site_label_2
_geom_bond_site_symmetry_1
_geom_bond_site_symmetry_2
O1 C1 1_555 1_555
O2 C1 1_555 1_555
O3 C26 1_555 1_555
C1 C2 1_555 1_555
C2 C3 1_555 1_555
C3 C4 1_555 1_555
C4 C5 1_555 1_555
C5 C6 1_555 1_555
C6 C7 1_555 1_555
C7 C8 1_555 1_555
C8 C9 1_555 1_555
C9 C10 1_555 1_555
C10 C11 1_555 1_555
C11 C12 1_555 1_555
C12 C7 1_555 1_555
C13 C3 1_555 1_555
C14 C13 1_555 1_555
C15 C14 1_555 1_555
C16 C15 1_555 1_555
C17 C16 1_555 1_555
C18 C17 1_555 1_555
C19 C18 1_555 1_555
C20 C15 1_555 1_555
C21 C20 1_555 1_555
C22 C21 1_555 1_555
C23 C22 1_555 1_555
C24 C14 1_555 1_555
C25 C2 1_555 1_555
C26 O1 1_555 1_555
H1 C4 1_555 1_555
H2 C4 1_555 1_555
H3 C5 1_555 1_555
H4 C5 1_555 1_555
H5 C6 1_555 1_555
H6 C6 1_555 1_555
H7 C8 1_555 1_555
H8 C9 1_555 1_555
H9 C10 1_555 1_555
H10 C11 1_555 1_555
H11 C16 1_555 1_555
H12 C17 1_555 1_555
H13 C18 1_555 1_555
H14 C19 1_555 1_555
H15 C21 1_555 1_555
H16 C21 1_555 1_555
H17 C22 1_555 1_555
H18 C22 1_555 1_555
H19 C23 1_555 1_555
H20 C23 1_555 1_555
C12 C13 1_555 1_555
C19 C20 1_555 1_555
C23 C24 1_555 1_555
C24 C25 1_555 1_555
C25 C26 1_555 1_555

#END
