
#######################################################################
#
#                 Cambridge Crystallographic Data Centre
#                                CCDC 
#
#######################################################################
#
# If this CIF has been generated from an entry in the Cambridge 
# Structural Database, then it will include bibliographic, chemical, 
# crystal, experimental, refinement or atomic coordinate data resulting 
# from the CCDC's data processing and validation procedures.
#
#######################################################################

data_LIVQEO
_chemical_formula_moiety         'C24 H22 N4 O3'
_chemical_name_systematic        
5-((Methoxyimino)(2-((2-methylphenoxy)methyl)phenyl)methyl)-N-phenyl-1,3,4-oxadiazol-2-amine
_symmetry_cell_setting           triclinic
_symmetry_space_group_name_H-M   'P -1'
_symmetry_Int_Tables_number      2
_space_group_name_Hall           '-P 1'
loop_
_symmetry_equiv_pos_site_id
_symmetry_equiv_pos_as_xyz
1 x,y,z
2 -x,-y,-z
_cell_length_a                   7.0629(4)
_cell_length_b                   12.5553(9)
_cell_length_c                   13.3705(11)
_cell_angle_alpha                68.321(7)
_cell_angle_beta                 83.678(6)
_cell_angle_gamma                78.567(6)
_cell_volume                     1079.04
_exptl_crystal_colour            colorless
_exptl_crystal_description       block
_cell_formula_units_Z            2
_exptl_crystal_recrystallization_method methanol
loop_
_atom_site_label
_atom_site_type_symbol
_atom_site_fract_x
_atom_site_fract_y
_atom_site_fract_z
O1 O 0.59108(16) 0.51331(10) 0.15728(10)
O2 O 0.09810(18) 0.40040(11) 0.31402(11)
N1 N 0.2555(2) 0.44773(13) 0.25488(13)
O3 O 0.57360(17) 0.21849(12) 0.42203(11)
N2 N 0.7893(2) 0.43994(14) 0.04992(13)
C1 C 0.3357(2) 0.25405(15) 0.23721(14)
C2 C 0.4559(3) 0.15355(15) 0.29884(15)
C3 C 0.5374(2) 0.41397(15) 0.15669(15)
N3 N 0.6492(2) 0.36807(13) 0.09560(13)
C4 C 0.6318(3) 0.15775(16) 0.34995(16)
H1 H 0.6962 0.0794 0.3887
H2 H 0.7216 0.1971 0.2949
N4 N 0.8571(2) 0.60402(15) 0.07479(14)
C5 C 0.3681(2) 0.37311(15) 0.22091(14)
C6 C 0.7501(3) 0.52194(16) 0.09016(15)
C7 C 0.7125(3) 0.22372(16) 0.48381(16)
C8 C 0.9052(3) 0.17465(16) 0.47816(16)
H3 H 0.9485 0.1368 0.4297
C9 C 1.0330(3) 0.18281(17) 0.54587(18)
H4 H 1.1631 0.1512 0.5419
C10 C -0.0188(3) 0.48144(17) 0.35618(17)
H5 H 0.0509 0.4915 0.4089
H6 H -0.1353 0.4527 0.3893
H7 H -0.0510 0.5548 0.2988
C11 C 0.4104(3) 0.04676(16) 0.31252(17)
H8 H 0.4885 -0.0206 0.3542
C12 C 0.1759(3) 0.24319(18) 0.19236(16)
H9 H 0.0941 0.3098 0.1525
C13 C 0.6458(3) 0.28167(17) 0.55509(17)
C14 C 0.9692(3) 0.23681(19) 0.61822(18)
H10 H 1.0549 0.2403 0.6646
C15 C 0.7771(3) 0.28617(18) 0.62222(17)
H11 H 0.7349 0.3234 0.6713
C16 C 0.8052(3) 0.71032(17) 0.09168(16)
C17 C 0.1362(3) 0.1356(2) 0.20575(18)
H12 H 0.0302 0.1298 0.1737
C18 C 0.2533(3) 0.0375(2) 0.26631(19)
H13 H 0.2266 -0.0354 0.2762
C19 C 0.9531(4) 0.7683(2) 0.08959(18)
H14 H 1.0806 0.7354 0.0798
C20 C 0.7283(6) 0.9234(2) 0.1171(2)
H15 H 0.7021 0.9951 0.1258
C21 C 0.9130(5) 0.8743(2) 0.1019(2)
H16 H 1.0137 0.9130 0.0997
C22 C 0.6179(3) 0.7598(2) 0.1058(2)
H17 H 0.5165 0.7223 0.1062
C23 C 0.4381(3) 0.3382(2) 0.5583(2)
H18 H 0.4059 0.3956 0.4888
H19 H 0.4189 0.3748 0.6111
H20 H 0.3567 0.2802 0.5771
C24 C 0.5811(5) 0.8661(2) 0.1194(3)
H21 H 0.4543 0.8992 0.1304
H22 H 0.975(3) 0.5895(19) 0.039(2)
loop_
_geom_bond_atom_site_label_1
_geom_bond_atom_site_label_2
_geom_bond_site_symmetry_1
_geom_bond_site_symmetry_2
O1 C3 1_555 1_555
O2 N1 1_555 1_555
N1 C5 1_555 1_555
O3 C4 1_555 1_555
N2 N3 1_555 1_555
C1 C2 1_555 1_555
C2 C4 1_555 1_555
C3 N3 1_555 1_555
C4 H1 1_555 1_555
H2 C4 1_555 1_555
N4 C6 1_555 1_555
C5 C1 1_555 1_555
C6 O1 1_555 1_555
C7 O3 1_555 1_555
C8 C7 1_555 1_555
H3 C8 1_555 1_555
C9 C8 1_555 1_555
H4 C9 1_555 1_555
C10 O2 1_555 1_555
H5 C10 1_555 1_555
H6 C10 1_555 1_555
H7 C10 1_555 1_555
C11 C2 1_555 1_555
H8 C11 1_555 1_555
C12 C1 1_555 1_555
H9 C12 1_555 1_555
C13 C7 1_555 1_555
C14 C9 1_555 1_555
H10 C14 1_555 1_555
C15 C13 1_555 1_555
H11 C15 1_555 1_555
C16 N4 1_555 1_555
C17 C12 1_555 1_555
H12 C17 1_555 1_555
C18 C11 1_555 1_555
H13 C18 1_555 1_555
C19 C16 1_555 1_555
H14 C19 1_555 1_555
C20 H15 1_555 1_555
C21 C19 1_555 1_555
H16 C21 1_555 1_555
C22 C16 1_555 1_555
H17 C22 1_555 1_555
C23 C13 1_555 1_555
H18 C23 1_555 1_555
H19 C23 1_555 1_555
H20 C23 1_555 1_555
C24 C20 1_555 1_555
H21 C24 1_555 1_555
H22 N4 1_555 1_555
N2 C6 1_555 1_555
C3 C5 1_555 1_555
C14 C15 1_555 1_555
C17 C18 1_555 1_555
C20 C21 1_555 1_555
C22 C24 1_555 1_555

#END
