
#######################################################################
#
#                 Cambridge Crystallographic Data Centre
#                                CCDC 
#
#######################################################################
#
# If this CIF has been generated from an entry in the Cambridge 
# Structural Database, then it will include bibliographic, chemical, 
# crystal, experimental, refinement or atomic coordinate data resulting 
# from the CCDC's data processing and validation procedures.
#
#######################################################################

data_LIVTIU
_chemical_formula_moiety         'C24 H26 O2'
_chemical_name_systematic        1,4-bis(Benzyloxy)-2-t-butylbenzene
_symmetry_cell_setting           monoclinic
_symmetry_space_group_name_H-M   'P 21/c'
_symmetry_Int_Tables_number      14
_space_group_name_Hall           '-P 2ybc'
loop_
_symmetry_equiv_pos_site_id
_symmetry_equiv_pos_as_xyz
1 x,y,z
2 -x,1/2+y,1/2-z
3 -x,-y,-z
4 x,1/2-y,1/2+z
_cell_length_a                   6.5570(13)
_cell_length_b                   23.772(5)
_cell_length_c                   12.924(3)
_cell_angle_alpha                90
_cell_angle_beta                 93.21(3)
_cell_angle_gamma                90
_cell_volume                     2011.34
_exptl_crystal_colour            colorless
_exptl_crystal_description       block
_cell_formula_units_Z            4
_exptl_crystal_recrystallization_method acetone
loop_
_atom_site_label
_atom_site_type_symbol
_atom_site_fract_x
_atom_site_fract_y
_atom_site_fract_z
C1 C 1.0565(4) 0.27733(12) 0.5023(3)
H1 H 1.1645 0.2523 0.5133
C2 C 1.0574(4) 0.31573(15) 0.4212(3)
H2 H 1.1661 0.3164 0.3780
C3 C 0.8960(4) 0.35314(12) 0.4048(2)
H3 H 0.8966 0.3788 0.3505
C4 C 0.7335(4) 0.35215(11) 0.4694(2)
C5 C 0.7326(4) 0.31375(13) 0.55046(19)
H4 H 0.6239 0.3131 0.5937
C6 C 0.8941(5) 0.27634(11) 0.5669(2)
H5 H 0.8934 0.2506 0.6212
C7 C 0.5631(7) 0.3943(2) 0.4568(3)
H6 H 0.4514 0.3831 0.4984
H7 H 0.6112 0.4309 0.4806
C8 C 0.3396(3) 0.43592(8) 0.32489(12)
C9 C 0.2627(2) 0.43853(6) 0.22256(11)
C10 C 0.1057(2) 0.47575(8) 0.19454(11)
H8 H 0.0543 0.4775 0.1261
C11 C 0.0255(3) 0.51035(8) 0.26886(14)
C12 C 0.1024(3) 0.50774(8) 0.37119(13)
H9 H 0.0487 0.5309 0.4209
C13 C 0.2594(3) 0.47053(9) 0.39920(10)
H10 H 0.3108 0.4688 0.4677
C14 C 0.3591(3) 0.40301(9) 0.13571(14)
C15 C 0.2469(4) 0.41208(13) 0.02966(13)
H11 H 0.2507 0.4512 0.0118
H12 H 0.1074 0.4002 0.0326
H13 H 0.3123 0.3905 -0.0218
C16 C 0.3501(8) 0.34034(19) 0.1595(4)
H14 H 0.4201 0.3331 0.2254
H15 H 0.4145 0.3197 0.1065
H16 H 0.2101 0.3288 0.1616
C17 C 0.5827(6) 0.4212(2) 0.1272(4)
H17 H 0.6565 0.4156 0.1927
H18 H 0.5875 0.4602 0.1085
H19 H 0.6439 0.3990 0.0751
C18 C -0.2037(6) 0.58533(19) 0.3026(3)
H20 H -0.0948 0.6094 0.3307
H21 H -0.2610 0.5653 0.3596
C19 C -0.3651(2) 0.61998(7) 0.24720(11)
C20 C -0.3295(3) 0.67607(6) 0.2238(2)
H22 H -0.2036 0.6923 0.2422
C21 C -0.4821(3) 0.70793(7) 0.1730(2)
H23 H -0.4583 0.7455 0.1574
C22 C -0.6703(3) 0.68368(9) 0.14560(14)
H24 H -0.7724 0.7050 0.1116
C23 C -0.7060(2) 0.62759(9) 0.1690(2)
H25 H -0.8319 0.6114 0.1506
C24 C -0.5534(2) 0.59573(8) 0.21979(18)
H26 H -0.5772 0.5582 0.2354
O1 O 0.4937(3) 0.39766(9) 0.35168(17)
O2 O -0.1255(2) 0.54656(6) 0.23203(9)
loop_
_geom_bond_atom_site_label_1
_geom_bond_atom_site_label_2
_geom_bond_site_symmetry_1
_geom_bond_site_symmetry_2
C1 H1 1_555 1_555
C2 C1 1_555 1_555
H2 C2 1_555 1_555
C3 C2 1_555 1_555
H3 C3 1_555 1_555
C4 C3 1_555 1_555
C5 C4 1_555 1_555
H4 C5 1_555 1_555
C6 C1 1_555 1_555
H5 C6 1_555 1_555
C7 C4 1_555 1_555
H6 C7 1_555 1_555
H7 C7 1_555 1_555
C8 C9 1_555 1_555
C9 C10 1_555 1_555
C10 H8 1_555 1_555
C11 C10 1_555 1_555
C12 C11 1_555 1_555
H9 C12 1_555 1_555
C13 C8 1_555 1_555
H10 C13 1_555 1_555
C14 C9 1_555 1_555
C15 C14 1_555 1_555
H11 C15 1_555 1_555
H12 C15 1_555 1_555
H13 C15 1_555 1_555
C16 C14 1_555 1_555
H14 C16 1_555 1_555
H15 C16 1_555 1_555
H16 C16 1_555 1_555
C17 C14 1_555 1_555
H17 C17 1_555 1_555
H18 C17 1_555 1_555
H19 C17 1_555 1_555
C18 H20 1_555 1_555
H21 C18 1_555 1_555
C19 C18 1_555 1_555
C20 C19 1_555 1_555
H22 C20 1_555 1_555
C21 C20 1_555 1_555
H23 C21 1_555 1_555
C22 C21 1_555 1_555
H24 C22 1_555 1_555
C23 C22 1_555 1_555
H25 C23 1_555 1_555
C24 C19 1_555 1_555
H26 C24 1_555 1_555
O1 C7 1_555 1_555
O2 C11 1_555 1_555
C5 C6 1_555 1_555
C8 O1 1_555 1_555
C12 C13 1_555 1_555
C18 O2 1_555 1_555
C23 C24 1_555 1_555

#END
