
#######################################################################
#
#                 Cambridge Crystallographic Data Centre
#                                CCDC 
#
#######################################################################
#
# If this CIF has been generated from an entry in the Cambridge 
# Structural Database, then it will include bibliographic, chemical, 
# crystal, experimental, refinement or atomic coordinate data resulting 
# from the CCDC's data processing and validation procedures.
#
#######################################################################

data_LIVTEQ
_chemical_formula_moiety         'C28 H24 N2 O5'
_chemical_name_systematic        
'(1R,2R)-4-Benzoyl-2-benzoyloxy-1-phenylbutyl imidazole-1-carboxylate'
_symmetry_cell_setting           orthorhombic
_symmetry_space_group_name_H-M   'P 21 21 21'
_symmetry_Int_Tables_number      19
_space_group_name_Hall           'P 2ac 2ab'
loop_
_symmetry_equiv_pos_site_id
_symmetry_equiv_pos_as_xyz
1 x,y,z
2 1/2-x,-y,1/2+z
3 -x,1/2+y,1/2-z
4 1/2+x,1/2-y,-z
_cell_length_a                   5.9512(2)
_cell_length_b                   18.1330(7)
_cell_length_c                   22.4612(12)
_cell_angle_alpha                90
_cell_angle_beta                 90
_cell_angle_gamma                90
_cell_volume                     2423.86
_exptl_crystal_colour            colorless
_exptl_crystal_description       block
_cell_formula_units_Z            4
loop_
_atom_site_label
_atom_site_type_symbol
_atom_site_fract_x
_atom_site_fract_y
_atom_site_fract_z
O1 O 0.4514(6) -0.04408(18) 0.45568(15)
O2 O 0.2125(4) 0.04215(14) 0.29114(12)
O3 O 0.5837(5) 0.06215(19) 0.29436(15)
O4 O 0.1450(4) 0.17552(15) 0.33765(13)
O5 O -0.1887(6) 0.23422(17) 0.33492(17)
N1 N 0.1272(6) 0.28828(19) 0.29753(17)
N2 N 0.4070(6) 0.3576(2) 0.26476(18)
C1 C 0.4404(8) -0.0913(3) 0.4173(2)
C2 C 0.2591(7) -0.0889(2) 0.3705(2)
H1 H 0.1717 -0.1353 0.3723
H2 H 0.3303 -0.0861 0.3308
C3 C 0.0990(7) -0.0239(2) 0.3779(2)
H3 H -0.0419 -0.0347 0.3562
H4 H 0.0611 -0.0186 0.4206
C4 C 0.1935(7) 0.0484(2) 0.35549(18)
H5 H 0.3449 0.0574 0.3734
C5 C 0.0401(7) 0.1133(2) 0.3679(2)
H6 H -0.1116 0.1037 0.3503
C6 C 0.0092(8) 0.2308(3) 0.3247(2)
C7 C 0.3534(7) 0.2942(3) 0.2878(2)
H7 H 0.4588 0.2565 0.2968
C8 C 0.2059(8) 0.3948(3) 0.2583(2)
H8 H 0.1919 0.4429 0.2419
C9 C 0.0327(8) 0.3542(3) 0.2781(2)
H9 H -0.1215 0.3677 0.2787
C10 C 0.4159(8) 0.0525(2) 0.2659(2)
C11 C 0.4072(7) 0.0490(2) 0.20012(19)
C12 C 0.5986(8) 0.0679(3) 0.1689(2)
H10 H 0.7282 0.0843 0.1898
C13 C 0.6024(9) 0.0632(3) 0.1082(3)
H11 H 0.7352 0.0757 0.0870
C14 C 0.4156(10) 0.0405(3) 0.0778(2)
H12 H 0.4179 0.0385 0.0356
C15 C 0.2263(9) 0.0207(2) 0.1080(2)
H13 H 0.0979 0.0038 0.0869
C16 C 0.2217(7) 0.0254(2) 0.1696(2)
H14 H 0.0893 0.0121 0.1906
C17 C 0.6070(8) -0.1529(2) 0.41677(18)
C18 C 0.7758(8) -0.1535(3) 0.4594(2)
H15 H 0.7844 -0.1145 0.4875
C19 C 0.9307(8) -0.2095(3) 0.4615(3)
H16 H 1.0444 -0.2094 0.4912
C20 C 0.9211(10) -0.2657(3) 0.4207(3)
H17 H 1.0288 -0.3043 0.4220
C21 C 0.7573(10) -0.2660(3) 0.3785(2)
H18 H 0.7515 -0.3052 0.3504
C22 C 0.5981(8) -0.2100(2) 0.3758(2)
H19 H 0.4843 -0.2109 0.3462
C23 C 0.0174(7) 0.1293(2) 0.4332(2)
C24 C -0.1753(8) 0.1095(2) 0.4643(3)
H20 H -0.2968 0.0868 0.4439
C25 C -0.1905(11) 0.1227(3) 0.5249(3)
H21 H -0.3217 0.1085 0.5461
C26 C -0.0174(14) 0.1563(4) 0.5544(3)
H22 H -0.0293 0.1653 0.5959
C27 C 0.1732(11) 0.1770(3) 0.5245(3)
H23 H 0.2924 0.2006 0.5451
C28 C 0.1910(8) 0.1634(2) 0.4642(2)
H24 H 0.3237 0.1775 0.4436
loop_
_geom_bond_atom_site_label_1
_geom_bond_atom_site_label_2
_geom_bond_site_symmetry_1
_geom_bond_site_symmetry_2
O1 C1 1_555 1_555
O2 C4 1_555 1_555
O3 C10 1_555 1_555
O4 C5 1_555 1_555
O5 C6 1_555 1_555
N1 C6 1_555 1_555
N2 C7 1_555 1_555
C1 C2 1_555 1_555
C2 H1 1_555 1_555
H2 C2 1_555 1_555
C3 C2 1_555 1_555
H3 C3 1_555 1_555
H4 C3 1_555 1_555
C4 C3 1_555 1_555
H5 C4 1_555 1_555
C5 C4 1_555 1_555
H6 C5 1_555 1_555
C6 O4 1_555 1_555
C7 N1 1_555 1_555
H7 C7 1_555 1_555
C8 N2 1_555 1_555
H8 C8 1_555 1_555
C9 N1 1_555 1_555
H9 C9 1_555 1_555
C10 O2 1_555 1_555
C11 C10 1_555 1_555
C12 C11 1_555 1_555
H10 C12 1_555 1_555
C13 C12 1_555 1_555
H11 C13 1_555 1_555
C14 C13 1_555 1_555
H12 C14 1_555 1_555
C15 C14 1_555 1_555
H13 C15 1_555 1_555
C16 C11 1_555 1_555
H14 C16 1_555 1_555
C17 C1 1_555 1_555
C18 C17 1_555 1_555
H15 C18 1_555 1_555
C19 C18 1_555 1_555
H16 C19 1_555 1_555
C20 C19 1_555 1_555
H17 C20 1_555 1_555
C21 C20 1_555 1_555
H18 C21 1_555 1_555
C22 C17 1_555 1_555
H19 C22 1_555 1_555
C23 C5 1_555 1_555
C24 C23 1_555 1_555
H20 C24 1_555 1_555
C25 C24 1_555 1_555
H21 C25 1_555 1_555
C26 C25 1_555 1_555
H22 C26 1_555 1_555
C27 C26 1_555 1_555
H23 C27 1_555 1_555
C28 C23 1_555 1_555
H24 C28 1_555 1_555
C8 C9 1_555 1_555
C15 C16 1_555 1_555
C21 C22 1_555 1_555
C27 C28 1_555 1_555

#END
