
#######################################################################
#
#                 Cambridge Crystallographic Data Centre
#                                CCDC 
#
#######################################################################
#
# If this CIF has been generated from an entry in the Cambridge 
# Structural Database, then it will include bibliographic, chemical, 
# crystal, experimental, refinement or atomic coordinate data resulting 
# from the CCDC's data processing and validation procedures.
#
#######################################################################

data_LIVVOC01
_chemical_formula_moiety         'C25 H16 O1'
_chemical_name_systematic        1-phenyl-3-(pyren-1-yl)prop-2-en-1-one
_symmetry_cell_setting           monoclinic
_symmetry_space_group_name_H-M   'P 2/c'
_symmetry_Int_Tables_number      13
_space_group_name_Hall           '-P 2yc'
loop_
_symmetry_equiv_pos_site_id
_symmetry_equiv_pos_as_xyz
1 x,y,z
2 -x,y,1/2-z
3 -x,-y,-z
4 x,-y,1/2+z
_cell_length_a                   28.811(6)
_cell_length_b                   5.4880(11)
_cell_length_c                   21.784(4)
_cell_angle_alpha                90
_cell_angle_beta                 100.25(3)
_cell_angle_gamma                90
_cell_volume                     3389.4
_exptl_crystal_colour            red
_exptl_crystal_description       plate
_cell_formula_units_Z            8
_exptl_crystal_recrystallization_method 'ethyl acetate/ethanol'
_exptl_crystal_preparation       ', Luminescent'
loop_
_atom_site_label
_atom_site_type_symbol
_atom_site_fract_x
_atom_site_fract_y
_atom_site_fract_z
C1 C 0.45294(11) 0.5174(6) 0.06783(14)
O1 O 0.59852(8) 0.0372(5) 0.17417(13)
C2 C 0.45589(11) 0.3311(6) 0.02341(16)
H1 H 0.4815 0.2252 0.0304
C3 C 0.42280(12) 0.3015(7) -0.02876(16)
H2 H 0.4263 0.1783 -0.0569
C4 C 0.38248(12) 0.4584(7) -0.04087(15)
C5 C 0.37814(11) 0.6471(7) 0.00150(15)
C6 C 0.41331(11) 0.6779(6) 0.05595(14)
C7 C 0.34712(13) 0.4287(8) -0.09398(16)
H3 H 0.3495 0.3050 -0.1224
C8 C 0.30875(14) 0.5857(9) -0.10349(19)
H4 H 0.2853 0.5649 -0.1384
C9 C 0.30456(13) 0.7712(8) -0.06245(19)
H5 H 0.2786 0.8746 -0.0705
C10 C 0.33844(11) 0.8070(7) -0.00912(17)
C11 C 0.33542(12) 1.0008(7) 0.03334(18)
H6 H 0.3100 1.1076 0.0258
C12 C 0.36894(12) 1.0317(7) 0.08436(17)
H7 H 0.3661 1.1582 0.1119
C13 C 0.40893(11) 0.8721(7) 0.09682(15)
C14 C 0.44397(11) 0.9062(7) 0.14957(16)
H8 H 0.4417 1.0343 0.1768
C15 C 0.48168(11) 0.7498(6) 0.16082(15)
H9 H 0.5047 0.7758 0.1959
C16 C 0.48691(11) 0.5552(6) 0.12224(15)
C17 C 0.52678(11) 0.3871(7) 0.13906(15)
H10 H 0.5258 0.2441 0.1159
C18 C 0.56391(12) 0.4180(7) 0.18369(16)
H11 H 0.5666 0.5636 0.2059
C19 C 0.60078(12) 0.2357(7) 0.19981(17)
C20 C 0.64223(11) 0.2925(6) 0.25007(15)
C21 C 0.64458(12) 0.4957(7) 0.28748(16)
H12 H 0.6203 0.6093 0.2806
C22 C 0.68269(12) 0.5342(7) 0.33547(17)
H13 H 0.6834 0.6694 0.3614
C23 C 0.71919(12) 0.3710(7) 0.34414(16)
H14 H 0.7451 0.3980 0.3755
C24 C 0.71791(12) 0.1691(7) 0.30729(17)
H15 H 0.7428 0.0587 0.3136
C25 C 0.67933(11) 0.1295(7) 0.26038(16)
H16 H 0.6784 -0.0088 0.2355
O2 O -0.08728(9) 0.9944(5) 0.13777(14)
C26 C 0.05040(10) 0.4924(6) 0.08709(14)
C27 C 0.04495(11) 0.6769(7) 0.04004(15)
H17 H 0.0192 0.7815 0.0363
C28 C 0.07589(12) 0.7043(7) 0.00095(16)
H18 H 0.0711 0.8276 -0.0288
C29 C 0.11572(12) 0.5486(7) 0.00418(16)
C30 C 0.12214(11) 0.3597(7) 0.04961(16)
C31 C 0.08903(11) 0.3297(7) 0.09039(15)
C32 C 0.14864(14) 0.5772(8) -0.03523(17)
H19 H 0.1450 0.7029 -0.0643
C33 C 0.18657(15) 0.4197(10) -0.0313(2)
H20 H 0.2083 0.4399 -0.0578
C34 C 0.19230(13) 0.2331(9) 0.0117(2)
H21 H 0.2179 0.1283 0.0134
C35 C 0.16083(12) 0.1966(8) 0.05285(19)
C36 C 0.16580(12) 0.0055(8) 0.0985(2)
H22 H 0.1910 -0.1021 0.1012
C37 C 0.13519(12) -0.0208(7) 0.13684(17)
H23 H 0.1396 -0.1455 0.1662
C38 C 0.09561(11) 0.1376(7) 0.13404(16)
C39 C 0.06290(12) 0.1063(7) 0.17366(16)
H24 H 0.0666 -0.0207 0.2024
C40 C 0.02526(12) 0.2623(7) 0.17035(15)
H25 H 0.0034 0.2362 0.1964
C41 C 0.01882(11) 0.4588(6) 0.12904(15)
C42 C -0.02010(11) 0.6292(7) 0.13107(15)
H26 H -0.0185 0.7768 0.1106
C43 C -0.05713(11) 0.5990(7) 0.15844(16)
H27 H -0.0608 0.4521 0.1783
C44 C -0.09262(12) 0.7919(7) 0.15829(16)
C45 C -0.13574(11) 0.7387(6) 0.18543(15)
C46 C -0.14106(12) 0.5358(7) 0.22050(16)
H28 H -0.1169 0.4217 0.2281
C47 C -0.18169(12) 0.4981(7) 0.24477(17)
H29 H -0.1845 0.3614 0.2691
C48 C -0.21770(12) 0.6626(7) 0.23280(16)
H30 H -0.2453 0.6366 0.2485
C49 C -0.21342(12) 0.8669(7) 0.19758(16)
H31 H -0.2380 0.9786 0.1895
C50 C -0.17241(12) 0.9056(7) 0.17430(15)
H32 H -0.1694 1.0447 0.1510
loop_
_geom_bond_atom_site_label_1
_geom_bond_atom_site_label_2
_geom_bond_site_symmetry_1
_geom_bond_site_symmetry_2
C1 C2 1_555 1_555
O1 C19 1_555 1_555
C2 H1 1_555 1_555
C3 C2 1_555 1_555
H2 C3 1_555 1_555
C4 C3 1_555 1_555
C5 C4 1_555 1_555
C6 C1 1_555 1_555
C7 C4 1_555 1_555
H3 C7 1_555 1_555
C8 C7 1_555 1_555
H4 C8 1_555 1_555
C9 C8 1_555 1_555
H5 C9 1_555 1_555
C10 C5 1_555 1_555
C11 C10 1_555 1_555
H6 C11 1_555 1_555
C12 C11 1_555 1_555
H7 C12 1_555 1_555
C13 C6 1_555 1_555
C14 C13 1_555 1_555
H8 C14 1_555 1_555
C15 C14 1_555 1_555
H9 C15 1_555 1_555
C16 C1 1_555 1_555
C17 C16 1_555 1_555
H10 C17 1_555 1_555
C18 C17 1_555 1_555
H11 C18 1_555 1_555
C19 C18 1_555 1_555
C20 C19 1_555 1_555
C21 C20 1_555 1_555
H12 C21 1_555 1_555
C22 C21 1_555 1_555
H13 C22 1_555 1_555
C23 C22 1_555 1_555
H14 C23 1_555 1_555
C24 C23 1_555 1_555
H15 C24 1_555 1_555
C25 C20 1_555 1_555
H16 C25 1_555 1_555
O2 C44 1_555 1_555
C26 C27 1_555 1_555
C27 H17 1_555 1_555
C28 C27 1_555 1_555
H18 C28 1_555 1_555
C29 C28 1_555 1_555
C30 C29 1_555 1_555
C31 C26 1_555 1_555
C32 C29 1_555 1_555
H19 C32 1_555 1_555
C33 C32 1_555 1_555
H20 C33 1_555 1_555
C34 C33 1_555 1_555
H21 C34 1_555 1_555
C35 C30 1_555 1_555
C36 C35 1_555 1_555
H22 C36 1_555 1_555
C37 C36 1_555 1_555
H23 C37 1_555 1_555
C38 C31 1_555 1_555
C39 C38 1_555 1_555
H24 C39 1_555 1_555
C40 C39 1_555 1_555
H25 C40 1_555 1_555
C41 C26 1_555 1_555
C42 C41 1_555 1_555
H26 C42 1_555 1_555
C43 C42 1_555 1_555
H27 C43 1_555 1_555
C44 C43 1_555 1_555
C45 C44 1_555 1_555
C46 C45 1_555 1_555
H28 C46 1_555 1_555
C47 C46 1_555 1_555
H29 C47 1_555 1_555
C48 C47 1_555 1_555
H30 C48 1_555 1_555
C49 C48 1_555 1_555
H31 C49 1_555 1_555
C50 C45 1_555 1_555
H32 C50 1_555 1_555
C5 C6 1_555 1_555
C9 C10 1_555 1_555
C12 C13 1_555 1_555
C15 C16 1_555 1_555
C24 C25 1_555 1_555
C30 C31 1_555 1_555
C34 C35 1_555 1_555
C37 C38 1_555 1_555
C40 C41 1_555 1_555
C49 C50 1_555 1_555

#END
