
#######################################################################
#
#                 Cambridge Crystallographic Data Centre
#                                CCDC 
#
#######################################################################
#
# If this CIF has been generated from an entry in the Cambridge 
# Structural Database, then it will include bibliographic, chemical, 
# crystal, experimental, refinement or atomic coordinate data resulting 
# from the CCDC's data processing and validation procedures.
#
#######################################################################

data_LIVVOC02
_chemical_formula_moiety         'C25 H16 O1'
_chemical_name_systematic        1-phenyl-3-(pyren-1-yl)prop-2-en-1-one
_symmetry_cell_setting           monoclinic
_symmetry_space_group_name_H-M   'P 21'
_symmetry_Int_Tables_number      4
_space_group_name_Hall           'P 2yb'
loop_
_symmetry_equiv_pos_site_id
_symmetry_equiv_pos_as_xyz
1 x,y,z
2 -x,1/2+y,-z
_cell_length_a                   4.6720(9)
_cell_length_b                   22.405(5)
_cell_length_c                   8.2100(16)
_cell_angle_alpha                90
_cell_angle_beta                 106.02(3)
_cell_angle_gamma                90
_cell_volume                     826.017
_exptl_crystal_colour            orange
_exptl_crystal_description       needlelike
_cell_formula_units_Z            2
_exptl_crystal_recrystallization_method acetonitrile/chloroform
_exptl_crystal_preparation       ', Luminescent'
loop_
_atom_site_label
_atom_site_type_symbol
_atom_site_fract_x
_atom_site_fract_y
_atom_site_fract_z
O1 O 0.2888(11) -0.1548(2) 0.3843(6)
C1 C -0.1997(14) -0.1939(3) 0.1286(7)
H1 H -0.1828 -0.2077 0.2377
C2 C -0.4107(16) -0.2192(3) -0.0081(10)
H2 H -0.5374 -0.2489 0.0100
C3 C -0.4309(16) -0.1997(4) -0.1724(9)
H3 H -0.5662 -0.2169 -0.2653
C4 C -0.2547(17) -0.1565(3) -0.1927(8)
H4 H -0.2727 -0.1430 -0.3022
C5 C -0.0408(16) -0.1293(3) -0.0592(7)
H5 H 0.0817 -0.0990 -0.0787
C6 C -0.0195(13) -0.1497(3) 0.1042(7)
C7 C 0.2152(15) -0.1248(3) 0.2542(9)
C8 C 0.3456(15) -0.0672(3) 0.2433(7)
H6 H 0.2612 -0.0434 0.1495
C9 C 0.5799(13) -0.0465(3) 0.3602(7)
H7 H 0.6660 -0.0728 0.4476
C10 C 0.7211(13) 0.0119(3) 0.3704(7)
C11 C 0.5811(15) 0.0575(3) 0.2582(7)
H8 H 0.4037 0.0495 0.1762
C12 C 0.7014(14) 0.1128(3) 0.2683(8)
H9 H 0.6037 0.1415 0.1910
C13 C 0.9602(14) 0.1286(2) 0.3867(7)
C14 C 1.1031(12) 0.0839(3) 0.5059(7)
C15 C 1.0903(15) 0.1854(3) 0.4011(8)
H10 H 1.0008 0.2146 0.3230
C16 C 1.3371(15) 0.1996(3) 0.5219(8)
H11 H 1.4079 0.2385 0.5274
C17 C 1.4952(15) 0.1573(3) 0.6422(8)
C18 C 1.3685(13) 0.0995(3) 0.6330(7)
C19 C 1.7558(15) 0.1708(3) 0.7662(9)
H12 H 1.8374 0.2088 0.7719
C20 C 1.8934(17) 0.1277(4) 0.8808(9)
H13 H 2.0665 0.1376 0.9640
C21 C 1.7863(15) 0.0721(4) 0.8763(8)
H14 H 1.8864 0.0439 0.9548
C22 C 1.5225(13) 0.0561(3) 0.7529(7)
C23 C 1.3924(13) -0.0025(3) 0.7406(8)
H15 H 1.4840 -0.0314 0.8190
C24 C 1.1460(13) -0.0168(3) 0.6211(7)
H16 H 1.0754 -0.0558 0.6167
C25 C 0.9844(14) 0.0256(3) 0.4984(7)
loop_
_geom_bond_atom_site_label_1
_geom_bond_atom_site_label_2
_geom_bond_site_symmetry_1
_geom_bond_site_symmetry_2
O1 C7 1_555 1_555
C1 H1 1_555 1_555
C2 C1 1_555 1_555
H2 C2 1_555 1_555
C3 C2 1_555 1_555
H3 C3 1_555 1_555
C4 C3 1_555 1_555
H4 C4 1_555 1_555
C5 C4 1_555 1_555
H5 C5 1_555 1_555
C6 C1 1_555 1_555
C7 C6 1_555 1_555
C8 C7 1_555 1_555
H6 C8 1_555 1_555
C9 C8 1_555 1_555
H7 C9 1_555 1_555
C10 C9 1_555 1_555
C11 C10 1_555 1_555
H8 C11 1_555 1_555
C12 C11 1_555 1_555
H9 C12 1_555 1_555
C13 C12 1_555 1_555
C14 C13 1_555 1_555
C15 C13 1_555 1_555
H10 C15 1_555 1_555
C16 C15 1_555 1_555
H11 C16 1_555 1_555
C17 C16 1_555 1_555
C18 C14 1_555 1_555
C19 C17 1_555 1_555
H12 C19 1_555 1_555
C20 C19 1_555 1_555
H13 C20 1_555 1_555
C21 C20 1_555 1_555
H14 C21 1_555 1_555
C22 C18 1_555 1_555
C23 C22 1_555 1_555
H15 C23 1_555 1_555
C24 C23 1_555 1_555
H16 C24 1_555 1_555
C25 C10 1_555 1_555
C5 C6 1_555 1_555
C14 C25 1_555 1_555
C17 C18 1_555 1_555
C21 C22 1_555 1_555
C24 C25 1_555 1_555

#END
