
#######################################################################
#
#                 Cambridge Crystallographic Data Centre
#                                CCDC 
#
#######################################################################
#
# If this CIF has been generated from an entry in the Cambridge 
# Structural Database, then it will include bibliographic, chemical, 
# crystal, experimental, refinement or atomic coordinate data resulting 
# from the CCDC's data processing and validation procedures.
#
#######################################################################

data_LIVVOC
_chemical_formula_moiety         'C25 H16 O1'
_chemical_name_systematic        1-Phenyl-3-(pyren-1-yl)prop-2-en-1-one
_symmetry_cell_setting           monoclinic
_symmetry_space_group_name_H-M   'P 21'
_symmetry_Int_Tables_number      4
_space_group_name_Hall           'P 2yb'
loop_
_symmetry_equiv_pos_site_id
_symmetry_equiv_pos_as_xyz
1 x,y,z
2 -x,1/2+y,-z
_cell_length_a                   4.6739(15)
_cell_length_b                   22.535(7)
_cell_length_c                   8.250(3)
_cell_angle_alpha                90
_cell_angle_beta                 106.45(2)
_cell_angle_gamma                90
_cell_volume                     833.374
_exptl_crystal_colour            yellow
_exptl_crystal_description       block
_cell_formula_units_Z            2
_exptl_crystal_recrystallization_method ethanol/acetonitrile
loop_
_atom_site_label
_atom_site_type_symbol
_atom_site_fract_x
_atom_site_fract_y
_atom_site_fract_z
O1 O 1.0978(8) 0.06540(14) 0.3854(4)
C1 C 0.2634(8) 0.31864(18) 0.6348(5)
C2 C 0.4014(8) 0.30397(17) 0.5070(5)
C3 C 0.5149(8) 0.24553(17) 0.4986(5)
C4 C 0.4779(8) 0.20312(18) 0.6221(5)
H1 H 0.5470 0.1646 0.6191
C5 C 0.3463(9) 0.21795(19) 0.7411(5)
H2 H 0.3277 0.1892 0.8184
C6 C 0.2339(8) 0.27586(18) 0.7539(5)
C7 C 0.0951(9) 0.2918(2) 0.8760(6)
H3 H 0.0754 0.2637 0.9547
C8 C -0.0129(11) 0.3477(2) 0.8831(6)
H4 H -0.1058 0.3572 0.9656
C9 C 0.0158(9) 0.3905(2) 0.7673(6)
H5 H -0.0569 0.4286 0.7736
C10 C 0.1518(9) 0.37699(19) 0.6421(5)
C11 C 0.1810(9) 0.4196(2) 0.5191(6)
H6 H 0.1079 0.4578 0.5231
C12 C 0.3107(9) 0.40594(19) 0.3987(6)
H7 H 0.3263 0.4347 0.3208
C13 C 0.4260(8) 0.34749(15) 0.3881(5)
C14 C 0.5642(9) 0.33242(19) 0.2671(5)
H8 H 0.5841 0.3610 0.1897
C15 C 0.6733(9) 0.27656(17) 0.2572(5)
H9 H 0.7622 0.2680 0.1723
C16 C 0.6540(8) 0.23186(16) 0.3724(5)
C17 C 0.7838(9) 0.17355(17) 0.3629(5)
H10 H 0.7879 0.1477 0.4513
C18 C 0.8963(9) 0.15305(17) 0.2438(5)
H11 H 0.8827 0.1765 0.1491
C19 C 1.0416(9) 0.09496(19) 0.2545(6)
C20 C 1.1212(8) 0.07115(16) 0.1054(5)
C21 C 1.3317(9) 0.0265(2) 0.1272(5)
H12 H 1.4290 0.0135 0.2357
C22 C 1.3998(10) 0.00115(19) -0.0091(7)
H13 H 1.5397 -0.0293 0.0076
C23 C 1.2618(11) 0.0207(2) -0.1689(6)
H14 H 1.3094 0.0040 -0.2611
C24 C 1.0536(11) 0.0648(2) -0.1928(5)
H15 H 0.9581 0.0777 -0.3018
C25 C 0.9834(11) 0.09030(18) -0.0569(5)
H16 H 0.8426 0.1206 -0.0747
loop_
_geom_bond_atom_site_label_1
_geom_bond_atom_site_label_2
_geom_bond_site_symmetry_1
_geom_bond_site_symmetry_2
O1 C19 1_555 1_555
C1 C2 1_555 1_555
C2 C3 1_555 1_555
C3 C4 1_555 1_555
C4 H1 1_555 1_555
C5 C4 1_555 1_555
H2 C5 1_555 1_555
C6 C1 1_555 1_555
C7 C6 1_555 1_555
H3 C7 1_555 1_555
C8 C7 1_555 1_555
H4 C8 1_555 1_555
C9 C8 1_555 1_555
H5 C9 1_555 1_555
C10 C1 1_555 1_555
C11 C10 1_555 1_555
H6 C11 1_555 1_555
C12 C11 1_555 1_555
H7 C12 1_555 1_555
C13 C2 1_555 1_555
C14 C13 1_555 1_555
H8 C14 1_555 1_555
C15 C14 1_555 1_555
H9 C15 1_555 1_555
C16 C3 1_555 1_555
C17 C16 1_555 1_555
H10 C17 1_555 1_555
C18 C17 1_555 1_555
H11 C18 1_555 1_555
C19 C18 1_555 1_555
C20 C19 1_555 1_555
C21 C20 1_555 1_555
H12 C21 1_555 1_555
C22 C21 1_555 1_555
H13 C22 1_555 1_555
C23 C22 1_555 1_555
H14 C23 1_555 1_555
C24 C23 1_555 1_555
H15 C24 1_555 1_555
C25 C20 1_555 1_555
H16 C25 1_555 1_555
C5 C6 1_555 1_555
C9 C10 1_555 1_555
C12 C13 1_555 1_555
C15 C16 1_555 1_555
C24 C25 1_555 1_555

#END
