
#######################################################################
#
#                 Cambridge Crystallographic Data Centre
#                                CCDC 
#
#######################################################################
#
# If this CIF has been generated from an entry in the Cambridge 
# Structural Database, then it will include bibliographic, chemical, 
# crystal, experimental, refinement or atomic coordinate data resulting 
# from the CCDC's data processing and validation procedures.
#
#######################################################################

data_LIVXIY
_chemical_formula_moiety         'C9 H20 N1 O1 1+,C2 Cl3 O2 1-'
_chemical_name_systematic        
'4-Hydroxy-2,2,6,6-tetramethylpiperidinium trichloroacetate'
_symmetry_cell_setting           monoclinic
_symmetry_space_group_name_H-M   'P 21'
_symmetry_Int_Tables_number      4
_space_group_name_Hall           'P 2yb'
loop_
_symmetry_equiv_pos_site_id
_symmetry_equiv_pos_as_xyz
1 x,y,z
2 -x,1/2+y,-z
_cell_length_a                   6.3468(13)
_cell_length_b                   14.450(3)
_cell_length_c                   8.2175(16)
_cell_angle_alpha                90
_cell_angle_beta                 95.19(3)
_cell_angle_gamma                90
_cell_volume                     750.548
_exptl_crystal_colour            colorless
_exptl_crystal_description       block
_cell_formula_units_Z            2
loop_
_atom_site_label
_atom_site_type_symbol
_atom_site_fract_x
_atom_site_fract_y
_atom_site_fract_z
Cl1 Cl -0.04464(7) 0.51471(3) 0.10942(5)
Cl2 Cl 0.34863(6) 0.41431(3) 0.12885(6)
Cl3 Cl -0.00077(8) 0.35637(3) -0.09864(5)
O2 O 0.1032(2) 0.27147(9) 0.27469(18)
O3 O -0.20242(18) 0.34925(9) 0.25644(15)
C10 C 0.0700(3) 0.40324(12) 0.09850(19)
C11 C -0.0172(3) 0.33454(11) 0.2249(2)
O1 O 0.7973(2) 0.47566(9) 0.51619(17)
H1 H 0.798(4) 0.453(2) 0.415(4)
N1 N 0.4803(2) 0.71305(9) 0.64562(18)
C1 C 0.4608(3) 0.62855(12) 0.75507(19)
C2 C 0.6286(3) 0.55858(11) 0.7135(2)
H2 H 0.7701 0.5832 0.7515
H3 H 0.6080 0.5005 0.7739
C3 C 0.6235(3) 0.53661(11) 0.5324(2)
H4 H 0.4876 0.5051 0.4945
C4 C 0.6475(3) 0.62493(13) 0.4346(2)
H5 H 0.6371 0.6090 0.3170
H6 H 0.7905 0.6506 0.4638
C5 C 0.4836(3) 0.69993(12) 0.46158(19)
C6 C 0.2366(3) 0.58770(13) 0.7353(2)
H7 H 0.1327 0.6377 0.7379
H8 H 0.2191 0.5443 0.8248
H9 H 0.2149 0.5550 0.6306
C7 C 0.5076(3) 0.66393(13) 0.9293(2)
H10 H 0.6495 0.6912 0.9419
H11 H 0.5003 0.6124 1.0061
H12 H 0.4029 0.7110 0.9519
C8 C 0.2629(3) 0.67658(13) 0.3825(2)
H13 H 0.1595 0.7193 0.4228
H14 H 0.2266 0.6130 0.4104
H15 H 0.2609 0.6825 0.2636
C9 C 0.5521(3) 0.79290(13) 0.3950(2)
H16 H 0.4450 0.8399 0.4123
H17 H 0.5676 0.7871 0.2779
H18 H 0.6878 0.8113 0.4523
H19 H 0.373(4) 0.7546(18) 0.674(3)
H20 H 0.610(4) 0.7410(15) 0.683(3)
loop_
_geom_bond_atom_site_label_1
_geom_bond_atom_site_label_2
_geom_bond_site_symmetry_1
_geom_bond_site_symmetry_2
Cl1 C10 1_555 1_555
Cl2 C10 1_555 1_555
Cl3 C10 1_555 1_555
O1 H1 1_555 1_555
O2 C11 1_555 1_555
O3 C11 1_555 1_555
N1 C1 1_555 1_555
C1 C2 1_555 1_555
C2 H2 1_555 1_555
H3 C2 1_555 1_555
C3 O1 1_555 1_555
H4 C3 1_555 1_555
C4 C3 1_555 1_555
H5 C4 1_555 1_555
H6 C4 1_555 1_555
C5 N1 1_555 1_555
C6 C1 1_555 1_555
H7 C6 1_555 1_555
H8 C6 1_555 1_555
H9 C6 1_555 1_555
C7 C1 1_555 1_555
H10 C7 1_555 1_555
H11 C7 1_555 1_555
H12 C7 1_555 1_555
C8 C5 1_555 1_555
H13 C8 1_555 1_555
H14 C8 1_555 1_555
H15 C8 1_555 1_555
C9 C5 1_555 1_555
H16 C9 1_555 1_555
H17 C9 1_555 1_555
H18 C9 1_555 1_555
C10 C11 1_555 1_555
H19 N1 1_555 1_555
H20 N1 1_555 1_555
C2 C3 1_555 1_555
C4 C5 1_555 1_555

#END
