
#######################################################################
#
#                 Cambridge Crystallographic Data Centre
#                                CCDC 
#
#######################################################################
#
# If this CIF has been generated from an entry in the Cambridge 
# Structural Database, then it will include bibliographic, chemical, 
# crystal, experimental, refinement or atomic coordinate data resulting 
# from the CCDC's data processing and validation procedures.
#
#######################################################################

data_LIVZEX
_chemical_compound_source        
'fermentation broth of an endophytic fungus, Phoma sp. OUCMDZ-1847'
_chemical_name_common            'Phomazine A methanol solvate'
_chemical_formula_moiety         'C19 H18 N2 O3 S1,C1 H4 O1'
_chemical_name_systematic        
'3-Benzylidene-6-hydroxy-10a-(methylsulfanyl)-2,3,5a,6,10,10a-hexahydropyrazino[1,2-a]indole-1,4-dione methanol solvate'
_symmetry_cell_setting           orthorhombic
_symmetry_space_group_name_H-M   'P 21 21 21'
_symmetry_Int_Tables_number      19
_space_group_name_Hall           'P 2ac 2ab'
loop_
_symmetry_equiv_pos_site_id
_symmetry_equiv_pos_as_xyz
1 x,y,z
2 1/2-x,-y,1/2+z
3 -x,1/2+y,1/2-z
4 1/2+x,1/2-y,-z
_cell_length_a                   10.5264(11)
_cell_length_b                   10.5286(12)
_cell_length_c                   17.9956(18)
_cell_angle_alpha                90
_cell_angle_beta                 90
_cell_angle_gamma                90
_cell_volume                     1994.42
_exptl_crystal_colour            colorless
_exptl_crystal_description       block
_cell_formula_units_Z            4
loop_
_atom_site_label
_atom_site_type_symbol
_atom_site_fract_x
_atom_site_fract_y
_atom_site_fract_z
N1 N 0.7133(3) 0.5024(3) 0.63148(16)
H1 H 0.7459 0.5772 0.6316
N2 N 0.6122(3) 0.2628(2) 0.65236(15)
O1 O 0.8028(2) 0.1913(2) 0.69460(14)
O2 O 0.5136(2) 0.5845(2) 0.62566(14)
O3 O 0.6766(3) -0.0278(2) 0.68727(16)
H2 H 0.7295 0.0288 0.6919
S1 S 0.55377(11) 0.31819(10) 0.51171(6)
C1 C 0.5860(3) 0.4925(3) 0.62491(18)
C2 C 0.7964(3) 0.3974(3) 0.6382(2)
C3 C 0.7378(3) 0.2751(3) 0.6641(2)
C4 C 0.5644(4) 0.0227(3) 0.6524(2)
H3 H 0.5783 0.0266 0.5986
C5 C 0.4568(5) -0.0659(4) 0.6678(2)
H4 H 0.4738 -0.1509 0.6779
C6 C 0.3381(5) -0.0259(4) 0.6674(2)
H5 H 0.2723 -0.0828 0.6766
C7 C 0.3094(4) 0.1083(4) 0.6525(2)
H6 H 0.2275 0.1328 0.6394
C8 C 0.4019(3) 0.3351(3) 0.6403(2)
H7 H 0.3848 0.3853 0.6844
H8 H 0.3394 0.3554 0.6026
C9 C 0.9214(3) 0.4038(3) 0.62715(19)
H9 H 0.9672 0.3322 0.6412
C10 C 0.9973(3) 0.5083(3) 0.5959(2)
C11 C 0.9533(4) 0.5835(4) 0.5376(2)
H10 H 0.8727 0.5692 0.5181
C12 C 1.0286(4) 0.6794(4) 0.5084(2)
H11 H 0.9975 0.7297 0.4700
C13 C 1.1465(4) 0.7005(4) 0.5351(3)
H12 H 1.1963 0.7647 0.5149
C14 C 1.1937(4) 0.6270(4) 0.5926(3)
H13 H 1.2746 0.6423 0.6113
C15 C 1.1200(4) 0.5311(4) 0.6221(2)
H14 H 1.1527 0.4807 0.6600
C16 C 0.5330(3) 0.1561(3) 0.68081(19)
H15 H 0.5374 0.1558 0.7352
C17 C 0.4016(3) 0.1948(4) 0.6579(2)
C18 C 0.5363(3) 0.3576(3) 0.61196(19)
C19 C 0.465(4) 0.442(4) 0.4650(19)
H16 H 0.3787 0.4415 0.4819
H17 H 0.4673 0.4282 0.4123
H18 H 0.5026 0.5234 0.4761
O4 O 0.8048(3) 0.7492(2) 0.6625(2)
H22 H 0.7556 0.8096 0.6629
C21 C 0.9130(5) 0.7817(5) 0.6981(3)
H23 H 0.8940 0.8422 0.7364
H24 H 0.9714 0.8186 0.6632
H25 H 0.9504 0.7074 0.7198
C20? C 0.417(7) 0.416(7) 0.476(4)
H19? H 0.4115 0.4936 0.5030
H20? H 0.3394 0.3688 0.4812
H21? H 0.4304 0.4342 0.4239
loop_
_geom_bond_atom_site_label_1
_geom_bond_atom_site_label_2
_geom_bond_site_symmetry_1
_geom_bond_site_symmetry_2
N1 H1 1_555 1_555
N2 C3 1_555 1_555
O1 C3 1_555 1_555
O2 C1 1_555 1_555
O3 H2 1_555 1_555
S1 C18 1_555 1_555
C1 N1 1_555 1_555
C2 N1 1_555 1_555
C3 C2 1_555 1_555
C4 O3 1_555 1_555
H3 C4 1_555 1_555
C5 C4 1_555 1_555
H4 C5 1_555 1_555
C6 C5 1_555 1_555
H5 C6 1_555 1_555
C7 C6 1_555 1_555
H6 C7 1_555 1_555
C8 H7 1_555 1_555
H8 C8 1_555 1_555
C9 C2 1_555 1_555
H9 C9 1_555 1_555
C10 C9 1_555 1_555
C11 C10 1_555 1_555
H10 C11 1_555 1_555
C12 C11 1_555 1_555
H11 C12 1_555 1_555
C13 C12 1_555 1_555
H12 C13 1_555 1_555
C14 C13 1_555 1_555
H13 C14 1_555 1_555
C15 C10 1_555 1_555
H14 C15 1_555 1_555
C16 N2 1_555 1_555
H15 C16 1_555 1_555
C17 C7 1_555 1_555
C18 N2 1_555 1_555
C19 S1 1_555 1_555
H16 C19 1_555 1_555
H17 C19 1_555 1_555
H18 C19 1_555 1_555
O4 H22 1_555 1_555
C21 O4 1_555 1_555
H23 C21 1_555 1_555
H24 C21 1_555 1_555
H25 C21 1_555 1_555
C1 C18 1_555 1_555
C4 C16 1_555 1_555
C8 C17 1_555 1_555
C8 C18 1_555 1_555
C14 C15 1_555 1_555
C16 C17 1_555 1_555

#END
