
#######################################################################
#
#                 Cambridge Crystallographic Data Centre
#                                CCDC 
#
#######################################################################
#
# If this CIF has been generated from an entry in the Cambridge 
# Structural Database, then it will include bibliographic, chemical, 
# crystal, experimental, refinement or atomic coordinate data resulting 
# from the CCDC's data processing and validation procedures.
#
#######################################################################

data_LIWGAB
_chemical_formula_moiety         'C25 H18 O1'
_chemical_name_systematic        
3-Methyl-2-phenyl-2'H-spiro[indene-1,1'-naphthalen]-2'-one
_symmetry_cell_setting           monoclinic
_symmetry_space_group_name_H-M   'P 21/n'
_symmetry_Int_Tables_number      14
_space_group_name_Hall           '-P 2yn'
loop_
_symmetry_equiv_pos_site_id
_symmetry_equiv_pos_as_xyz
1 x,y,z
2 1/2-x,1/2+y,1/2-z
3 -x,-y,-z
4 1/2+x,1/2-y,1/2+z
_cell_length_a                   9.488(5)
_cell_length_b                   20.058(11)
_cell_length_c                   10.155(6)
_cell_angle_alpha                90
_cell_angle_beta                 113.570(9)
_cell_angle_gamma                90
_cell_volume                     1771.37
_cell_formula_units_Z            4
loop_
_atom_site_label
_atom_site_type_symbol
_atom_site_fract_x
_atom_site_fract_y
_atom_site_fract_z
O1 O 0.7127(3) 0.25357(10) 0.7288(3)
C1 C 0.7455(3) 0.29789(14) 0.8173(3)
C2 C 0.8835(4) 0.29640(15) 0.9469(4)
H1 H 0.9421 0.2576 0.9711
C3 C 0.9300(4) 0.34974(15) 1.0339(4)
H2 H 1.0221 0.3466 1.1145
C4 C 0.8456(3) 0.41130(14) 1.0094(3)
C5 C 0.9044(4) 0.46617(17) 1.0974(3)
H3 H 1.0004 0.4631 1.1732
C6 C 0.8257(4) 0.52392(17) 1.0756(4)
H4 H 0.8660 0.5601 1.1366
C7 C 0.6851(5) 0.52869(18) 0.9623(4)
H5 H 0.6302 0.5684 0.9473
C8 C 0.6242(4) 0.47624(16) 0.8709(4)
H6 H 0.5294 0.4808 0.7941
C9 C 0.7030(3) 0.41675(13) 0.8922(3)
C10 C 0.6331(3) 0.35685(14) 0.7961(4)
C11 C 0.4970(4) 0.33089(16) 0.8294(5)
C12 C 0.4991(5) 0.30400(17) 0.9528(5)
H7 H 0.5917 0.2988 1.0321
C13 C 0.3629(8) 0.2845(2) 0.9597(8)
H8 H 0.3633 0.2649 1.0429
C14 C 0.2258(7) 0.2942(2) 0.8427(9)
H9 H 0.1337 0.2822 0.8484
C15 C 0.2240(5) 0.3224(2) 0.7127(7)
H10 H 0.1330 0.3282 0.6320
C16 C 0.3639(4) 0.34048(16) 0.7133(5)
C17 C 0.3987(4) 0.36951(16) 0.5933(4)
C18 C 0.5500(3) 0.37512(14) 0.6400(4)
C19 C 0.6404(4) 0.39326(14) 0.5580(4)
C20 C 0.7903(4) 0.41811(18) 0.6230(4)
H11 H 0.8336 0.4249 0.7219
C21 C 0.8747(5) 0.4327(2) 0.5446(5)
H12 H 0.9732 0.4502 0.5903
C22 C 0.8177(5) 0.4221(2) 0.4047(5)
H13 H 0.8774 0.4311 0.3532
C23 C 0.6761(5) 0.3986(2) 0.3367(4)
H14 H 0.6378 0.3924 0.2378
C24 C 0.5852(4) 0.3833(2) 0.4083(4)
H15 H 0.4868 0.3664 0.3582
C25 C 0.2715(4) 0.3883(2) 0.4520(5)
H16 H 0.3080 0.4217 0.4056
H17 H 0.1858 0.4056 0.4688
H18 H 0.2396 0.3497 0.3915
loop_
_geom_bond_atom_site_label_1
_geom_bond_atom_site_label_2
_geom_bond_site_symmetry_1
_geom_bond_site_symmetry_2
O1 C1 1_555 1_555
C1 C2 1_555 1_555
C2 H1 1_555 1_555
C3 C2 1_555 1_555
H2 C3 1_555 1_555
C4 C3 1_555 1_555
C5 C4 1_555 1_555
H3 C5 1_555 1_555
C6 C5 1_555 1_555
H4 C6 1_555 1_555
C7 C6 1_555 1_555
H5 C7 1_555 1_555
C8 C7 1_555 1_555
H6 C8 1_555 1_555
C9 C4 1_555 1_555
C10 C1 1_555 1_555
C11 C10 1_555 1_555
C12 C11 1_555 1_555
H7 C12 1_555 1_555
C13 C12 1_555 1_555
H8 C13 1_555 1_555
C14 C13 1_555 1_555
H9 C14 1_555 1_555
C15 C14 1_555 1_555
H10 C15 1_555 1_555
C16 C11 1_555 1_555
C17 C16 1_555 1_555
C18 C10 1_555 1_555
C19 C18 1_555 1_555
C20 C19 1_555 1_555
H11 C20 1_555 1_555
C21 C20 1_555 1_555
H12 C21 1_555 1_555
C22 C21 1_555 1_555
H13 C22 1_555 1_555
C23 C22 1_555 1_555
H14 C23 1_555 1_555
C24 C19 1_555 1_555
H15 C24 1_555 1_555
C25 C17 1_555 1_555
H16 C25 1_555 1_555
H17 C25 1_555 1_555
H18 C25 1_555 1_555
C8 C9 1_555 1_555
C9 C10 1_555 1_555
C15 C16 1_555 1_555
C17 C18 1_555 1_555
C23 C24 1_555 1_555

#END
