
#######################################################################
#
#                 Cambridge Crystallographic Data Centre
#                                CCDC 
#
#######################################################################
#
# If this CIF has been generated from an entry in the Cambridge 
# Structural Database, then it will include bibliographic, chemical, 
# crystal, experimental, refinement or atomic coordinate data resulting 
# from the CCDC's data processing and validation procedures.
#
#######################################################################

data_LIWHAB
_chemical_formula_moiety         'C32 H46 N2 O10'
_chemical_name_systematic        
7,16-bis(2-Hydroxy-5-(ethoxycarbonyl)benzyl)-1,4,10,13-tetraoxa-7,16-diazacyclo-octadecane
_symmetry_cell_setting           monoclinic
_symmetry_space_group_name_H-M   'P 21/c'
_symmetry_Int_Tables_number      14
_space_group_name_Hall           '-P 2ybc'
loop_
_symmetry_equiv_pos_site_id
_symmetry_equiv_pos_as_xyz
1 x,y,z
2 -x,1/2+y,1/2-z
3 -x,-y,-z
4 x,1/2-y,1/2+z
_cell_length_a                   10.709(3)
_cell_length_b                   10.196(3)
_cell_length_c                   14.603(4)
_cell_angle_alpha                90
_cell_angle_beta                 91.804(5)
_cell_angle_gamma                90
_cell_volume                     1593.7
_exptl_crystal_colour            colorless
_chemical_melting_point          '147-149 deg.C'
_cell_formula_units_Z            2
_exptl_crystal_recrystallization_method toluene
loop_
_atom_site_label
_atom_site_type_symbol
_atom_site_fract_x
_atom_site_fract_y
_atom_site_fract_z
O1 O 0.63531(15) 0.24816(15) 0.10012(12)
O2 O 0.63464(14) -0.02801(15) 0.15947(10)
O3 O 0.19964(15) 0.16187(15) -0.00298(12)
H1 H 0.2634 0.1657 -0.0325
O4 O 0.00546(16) 0.67151(17) 0.19567(12)
O5 O 0.12303(15) 0.75775(16) 0.08706(11)
N1 N 0.39389(15) 0.27973(16) -0.08226(12)
C1 C 0.48914(19) 0.3170(2) -0.01306(16)
H2 H 0.4517 0.3736 0.0319
H3 H 0.5544 0.3664 -0.0422
C2 C 0.5460(2) 0.2004(2) 0.03461(18)
H4 H 0.4821 0.1502 0.0646
H5 H 0.5860 0.1439 -0.0092
C3 C 0.7385(2) 0.1664(2) 0.11805(18)
H6 H 0.8097 0.2208 0.1355
H7 H 0.7584 0.1213 0.0619
C4 C 0.7212(2) 0.0673(2) 0.19056(16)
H8 H 0.8006 0.0258 0.2062
H9 H 0.6910 0.1095 0.2451
C5 C 0.6288(2) -0.1381(2) 0.21759(16)
H10 H 0.5909 -0.1142 0.2747
H11 H 0.7121 -0.1715 0.2313
C6 C 0.4484(2) 0.2404(2) -0.16882(16)
H12 H 0.4554 0.3166 -0.2080
H13 H 0.5319 0.2063 -0.1566
C7 C 0.29902(18) 0.3828(2) -0.09620(14)
H14 H 0.2468 0.3617 -0.1497
H15 H 0.3400 0.4658 -0.1074
C8 C 0.21851(18) 0.3957(2) -0.01382(14)
C9 C 0.17026(19) 0.2838(2) 0.02738(16)
C10 C 0.0912(2) 0.2948(2) 0.09920(16)
H16 H 0.0591 0.2198 0.1260
C11 C 0.05947(19) 0.4164(3) 0.13160(15)
H17 H 0.0055 0.4229 0.1801
C12 C 0.10653(18) 0.5294(2) 0.09317(15)
C13 C 0.18580(18) 0.5168(2) 0.02044(14)
H18 H 0.2179 0.5920 -0.0061
C14 C 0.0719(2) 0.6573(2) 0.13151(17)
C15 C 0.0949(2) 0.8888(2) 0.11788(18)
H19 H 0.0175 0.8878 0.1506
H20 H 0.0837 0.9462 0.0653
C16 C 0.1971(2) 0.9397(3) 0.17877(19)
H21 H 0.2104 0.8810 0.2295
H22 H 0.1746 1.0248 0.2012
H23 H 0.2723 0.9465 0.1451
O1B O 0.36469(15) -0.24816(15) -0.10012(12)
O2B O 0.36536(14) 0.02801(15) -0.15947(10)
O3B O 0.80036(15) -0.16187(15) 0.00298(12)
H1B H 0.7366 -0.1657 0.0325
O4B O 0.99454(16) -0.67151(17) -0.19567(12)
O5B O 0.87697(15) -0.75775(16) -0.08706(11)
N1B N 0.60611(15) -0.27973(16) 0.08226(12)
C1B C 0.51086(19) -0.3170(2) 0.01306(16)
H2B H 0.5483 -0.3736 -0.0319
H3B H 0.4456 -0.3664 0.0422
C2B C 0.4540(2) -0.2004(2) -0.03461(18)
H4B H 0.5179 -0.1502 -0.0646
H5B H 0.4140 -0.1439 0.0092
C3B C 0.2615(2) -0.1664(2) -0.11805(18)
H6B H 0.1903 -0.2208 -0.1355
H7B H 0.2416 -0.1213 -0.0619
C4B C 0.2788(2) -0.0673(2) -0.19056(16)
H8B H 0.1994 -0.0258 -0.2062
H9B H 0.3090 -0.1095 -0.2451
C5B C 0.3712(2) 0.1381(2) -0.21759(16)
H10B H 0.4091 0.1142 -0.2747
H11B H 0.2879 0.1715 -0.2313
C6B C 0.5516(2) -0.2404(2) 0.16882(16)
H12B H 0.5446 -0.3166 0.2080
H13B H 0.4681 -0.2063 0.1566
C7B C 0.70098(18) -0.3828(2) 0.09620(14)
H14B H 0.7532 -0.3617 0.1497
H15B H 0.6600 -0.4658 0.1074
C8B C 0.78149(18) -0.3957(2) 0.01382(14)
C9B C 0.82974(19) -0.2838(2) -0.02738(16)
C10B C 0.9088(2) -0.2948(2) -0.09920(16)
H16B H 0.9409 -0.2198 -0.1260
C11B C 0.94053(19) -0.4164(3) -0.13160(15)
H17B H 0.9945 -0.4229 -0.1801
C12B C 0.89347(18) -0.5294(2) -0.09317(15)
C13B C 0.81420(18) -0.5168(2) -0.02044(14)
H18B H 0.7821 -0.5920 0.0061
C14B C 0.9281(2) -0.6573(2) -0.13151(17)
C15B C 0.9051(2) -0.8888(2) -0.11788(18)
H19B H 0.9825 -0.8878 -0.1506
H20B H 0.9163 -0.9462 -0.0653
C16B C 0.8029(2) -0.9397(3) -0.17877(19)
H21B H 0.7896 -0.8810 -0.2295
H22B H 0.8254 -1.0248 -0.2012
H23B H 0.7277 -0.9465 -0.1451
loop_
_geom_bond_atom_site_label_1
_geom_bond_atom_site_label_2
_geom_bond_site_symmetry_1
_geom_bond_site_symmetry_2
O1 C2 1_555 1_555
O2 C4 1_555 1_555
O3 H1 1_555 1_555
O4 C14 1_555 1_555
O5 C14 1_555 1_555
N1 C1 1_555 1_555
C1 H2 1_555 1_555
H3 C1 1_555 1_555
C2 C1 1_555 1_555
H4 C2 1_555 1_555
H5 C2 1_555 1_555
C3 O1 1_555 1_555
H6 C3 1_555 1_555
H7 C3 1_555 1_555
C4 C3 1_555 1_555
H8 C4 1_555 1_555
H9 C4 1_555 1_555
C5 O2 1_555 1_555
H10 C5 1_555 1_555
H11 C5 1_555 1_555
C6 N1 1_555 1_555
H12 C6 1_555 1_555
H13 C6 1_555 1_555
C7 N1 1_555 1_555
H14 C7 1_555 1_555
H15 C7 1_555 1_555
C8 C7 1_555 1_555
C9 O3 1_555 1_555
C10 C9 1_555 1_555
H16 C10 1_555 1_555
C11 C10 1_555 1_555
H17 C11 1_555 1_555
C12 C11 1_555 1_555
C13 C8 1_555 1_555
H18 C13 1_555 1_555
C14 C12 1_555 1_555
C15 O5 1_555 1_555
H19 C15 1_555 1_555
H20 C15 1_555 1_555
C16 C15 1_555 1_555
H21 C16 1_555 1_555
H22 C16 1_555 1_555
H23 C16 1_555 1_555
O1B C2B 1_555 1_555
O2B C4B 1_555 1_555
O3B H1B 1_555 1_555
O4B C14B 1_555 1_555
O5B C14B 1_555 1_555
N1B C1B 1_555 1_555
C1B H2B 1_555 1_555
H3B C1B 1_555 1_555
C2B C1B 1_555 1_555
H4B C2B 1_555 1_555
H5B C2B 1_555 1_555
C3B O1B 1_555 1_555
H6B C3B 1_555 1_555
H7B C3B 1_555 1_555
C4B C3B 1_555 1_555
H8B C4B 1_555 1_555
H9B C4B 1_555 1_555
C5B C6 1_555 1_555
H10B C5B 1_555 1_555
H11B C5B 1_555 1_555
C6B C5 1_555 1_555
H12B C6B 1_555 1_555
H13B C6B 1_555 1_555
C7B N1B 1_555 1_555
H14B C7B 1_555 1_555
H15B C7B 1_555 1_555
C8B C7B 1_555 1_555
C9B O3B 1_555 1_555
C10B C9B 1_555 1_555
H16B C10B 1_555 1_555
C11B C10B 1_555 1_555
H17B C11B 1_555 1_555
C12B C11B 1_555 1_555
C13B C8B 1_555 1_555
H18B C13B 1_555 1_555
C14B C12B 1_555 1_555
C15B O5B 1_555 1_555
H19B C15B 1_555 1_555
H20B C15B 1_555 1_555
C16B C15B 1_555 1_555
H21B C16B 1_555 1_555
H22B C16B 1_555 1_555
H23B C16B 1_555 1_555
C8 C9 1_555 1_555
C12 C13 1_555 1_555
O2B C5B 1_555 1_555
N1B C6B 1_555 1_555
C8B C9B 1_555 1_555
C12B C13B 1_555 1_555

#END
