
#######################################################################
#
#                 Cambridge Crystallographic Data Centre
#                                CCDC 
#
#######################################################################
#
# If this CIF has been generated from an entry in the Cambridge 
# Structural Database, then it will include bibliographic, chemical, 
# crystal, experimental, refinement or atomic coordinate data resulting 
# from the CCDC's data processing and validation procedures.
#
#######################################################################

data_LIWJAD
_chemical_formula_moiety         'C36 H42 N4 O4'
_chemical_name_systematic        
1,4-bis(5-(4-Heptyloxyphenyl)-1,3,4-oxadiazol-2-yl)benzene
_symmetry_cell_setting           monoclinic
_symmetry_space_group_name_H-M   'P 21'
_symmetry_Int_Tables_number      4
_space_group_name_Hall           'P 2yb'
loop_
_symmetry_equiv_pos_site_id
_symmetry_equiv_pos_as_xyz
1 x,y,z
2 -x,1/2+y,-z
_cell_length_a                   17.3282
_cell_length_b                   6.9157
_cell_length_c                   13.9239
_cell_angle_alpha                90
_cell_angle_beta                 114.0326
_cell_angle_gamma                90
_cell_volume                     1523.95
_exptl_crystal_colour            white
_chemical_melting_point          '246-247 deg.C'
_cell_formula_units_Z            2
loop_
_atom_site_label
_atom_site_type_symbol
_atom_site_fract_x
_atom_site_fract_y
_atom_site_fract_z
C1 C -0.04109 0.51415 -0.70323
C2 C 0.02398 0.53439 -0.59486
C3 C 0.06561 0.38164 -0.53033
C4 C 0.04175 0.19048 -0.57541
C5 C -0.02619 0.17349 -0.68843
C6 C -0.06526 0.33244 -0.74855
C7 C 0.07679 0.02174 -0.52227
N1 N 0.06489 -0.15380 -0.54707
N2 N 0.12299 -0.24203 -0.45339
C8 C 0.16026 -0.10450 -0.38766
O1 O 0.13955 0.08958 -0.41633
C9 C 0.22506 -0.09138 -0.27994
C10 C 0.26029 0.08307 -0.21651
C11 C 0.32427 0.07465 -0.11077
C12 C 0.35890 -0.10897 -0.05874
C13 C 0.32352 -0.28226 -0.12237
C14 C 0.25984 -0.27388 -0.22762
C15 C 0.62695 0.42632 0.40084
C16 C 0.56198 0.46365 0.29431
C17 C 0.51986 0.32192 0.22041
C18 C 0.54307 0.12457 0.25313
C19 C 0.61091 0.08973 0.36451
C20 C 0.65050 0.23833 0.43441
C21 C 0.50748 -0.03488 0.18955
N3 N 0.51879 -0.21348 0.20309
N4 N 0.46042 -0.28640 0.10428
C22 C 0.42362 -0.13912 0.04761
O2 O 0.44497 0.04943 0.08845
H2 H 0.11582 0.40889 -0.44636
H3 H -0.04625 0.03222 -0.72577
H4 H -0.11607 0.31269 -0.83328
H5 H 0.23662 0.22393 -0.25162
H6 H 0.34839 0.20923 -0.06690
H7 H 0.34868 -0.42136 -0.08473
H8 H 0.23423 -0.40631 -0.27390
H9 H 0.54416 0.61198 0.26909
H10 H 0.46976 0.36236 0.13860
H11 H 0.63049 -0.05675 0.39269
H12 H 0.70122 0.20523 0.51746
O3 O -0.07823 0.67893 -0.75996
O4 O 0.66462 0.58126 0.46775
C23 C -0.14484 0.66570 -0.87069
C24 C -0.17574 0.86471 -0.91611
C25 C -0.24742 0.87385 -1.03459
C26 C -0.27553 1.07719 -1.07524
C27 C -0.34741 1.08409 -1.19412
C28 C -0.37772 1.28441 -1.23852
C29 C -0.44933 1.28163 -1.35724
C30 C 0.73115 0.55053 0.57708
C31 C 0.76271 0.74132 0.63490
C32 C 0.83439 0.73161 0.75336
C33 C 0.86316 0.92748 0.80672
C34 C 0.93503 0.91547 0.92542
C35 C 0.96600 1.10773 0.98232
C36 C 1.03758 1.08613 1.10025
H13 H -0.20003 0.58132 -0.87364
H14 H -0.11846 0.59157 -0.92008
H15 H -0.11772 0.94489 -0.90781
H16 H -0.19859 0.93473 -0.86177
H17 H -0.30557 0.79398 -1.04286
H18 H -0.22450 0.80416 -1.08901
H19 H -0.21806 1.15858 -1.06799
H20 H -0.29908 1.14840 -1.02187
H21 H -0.40443 1.00164 -1.20073
H22 H -0.32346 1.01182 -1.24681
H23 H -0.32146 1.36811 -1.23319
H24 H -0.40248 1.35792 -1.18708
H25 H -0.42529 1.21222 -1.41035
H26 H -0.47098 1.42563 -1.38891
H27 H -0.50685 1.20197 -1.36393
H28 H 0.78608 0.47264 0.57487
H29 H 0.70450 0.46239 0.62131
H30 H 0.70494 0.81594 0.63152
H31 H 0.78581 0.82610 0.58548
H32 H 0.89228 0.65733 0.75673
H33 H 0.81121 0.64714 0.80288
H34 H 0.80595 1.00311 0.80446
H35 H 0.88697 1.01329 0.75833
H36 H 0.99179 0.83889 0.92697
H37 H 0.91083 0.82871 0.97306
H38 H 0.91001 1.18535 0.98213
H39 H 0.99102 1.19554 0.93600
H40 H 1.05969 1.22437 1.14091
H41 H 1.09484 1.01235 1.10206
H42 H 1.01329 1.00210 1.14849
H1? H 0.04229 0.67797 -0.56036
loop_
_geom_bond_atom_site_label_1
_geom_bond_atom_site_label_2
_geom_bond_site_symmetry_1
_geom_bond_site_symmetry_2
C1 C2 1_555 1_555
C2 C3 1_555 1_555
C3 C4 1_555 1_555
C4 C5 1_555 1_555
C5 C6 1_555 1_555
C6 C1 1_555 1_555
C7 C4 1_555 1_555
N1 C7 1_555 1_555
N2 N1 1_555 1_555
C8 N2 1_555 1_555
O1 C7 1_555 1_555
C9 C8 1_555 1_555
C10 C9 1_555 1_555
C11 C10 1_555 1_555
C12 C11 1_555 1_555
C13 C12 1_555 1_555
C14 C9 1_555 1_555
C15 C16 1_555 1_555
C16 C17 1_555 1_555
C17 C18 1_555 1_555
C18 C19 1_555 1_555
C19 C20 1_555 1_555
C20 C15 1_555 1_555
C21 C18 1_555 1_555
N3 C21 1_555 1_555
N4 N3 1_555 1_555
C22 C12 1_555 1_555
O2 C21 1_555 1_555
H2 C3 1_555 1_555
H3 C5 1_555 1_555
H4 C6 1_555 1_555
H5 C10 1_555 1_555
H6 C11 1_555 1_555
H7 C13 1_555 1_555
H8 C14 1_555 1_555
H9 C16 1_555 1_555
H10 C17 1_555 1_555
H11 C19 1_555 1_555
H12 C20 1_555 1_555
O3 C1 1_555 1_555
O4 C15 1_555 1_555
C23 O3 1_555 1_555
C24 C23 1_555 1_555
C25 C24 1_555 1_555
C26 C25 1_555 1_555
C27 C26 1_555 1_555
C28 C27 1_555 1_555
C29 C28 1_555 1_555
C30 O4 1_555 1_555
C31 C30 1_555 1_555
C32 C31 1_555 1_555
C33 C32 1_555 1_555
C34 C33 1_555 1_555
C35 C34 1_555 1_555
C36 C35 1_555 1_555
H13 C23 1_555 1_555
H14 C23 1_555 1_555
H15 C24 1_555 1_555
H16 C24 1_555 1_555
H17 C25 1_555 1_555
H18 C25 1_555 1_555
H19 C26 1_555 1_555
H20 C26 1_555 1_555
H21 C27 1_555 1_555
H22 C27 1_555 1_555
H23 C28 1_555 1_555
H24 C28 1_555 1_555
H25 C29 1_555 1_555
H26 C29 1_555 1_555
H27 C29 1_555 1_555
H28 C30 1_555 1_555
H29 C30 1_555 1_555
H30 C31 1_555 1_555
H31 C31 1_555 1_555
H32 C32 1_555 1_555
H33 C32 1_555 1_555
H34 C33 1_555 1_555
H35 C33 1_555 1_555
H36 C34 1_555 1_555
H37 C34 1_555 1_555
H38 C35 1_555 1_555
H39 C35 1_555 1_555
H40 C36 1_555 1_555
H41 C36 1_555 1_555
H42 C36 1_555 1_555
C8 O1 1_555 1_555
C13 C14 1_555 1_555
N4 C22 1_555 1_555
C22 O2 1_555 1_555

#END
