
#######################################################################
#
#                 Cambridge Crystallographic Data Centre
#                                CCDC 
#
#######################################################################
#
# If this CIF has been generated from an entry in the Cambridge 
# Structural Database, then it will include bibliographic, chemical, 
# crystal, experimental, refinement or atomic coordinate data resulting 
# from the CCDC's data processing and validation procedures.
#
#######################################################################

data_LIWNOU01
_chemical_name_common            1,1-Dicyano-2-(4-(dimethylamino)phenyl)ethene
_chemical_formula_moiety         'C12 H11 N3'
_chemical_name_systematic        
2-(4-(Dimethylamino)phenyl)ethylene-1,1-dinitrile
_symmetry_cell_setting           monoclinic
_symmetry_space_group_name_H-M   'P 21'
_symmetry_Int_Tables_number      4
_space_group_name_Hall           'P 2yb'
loop_
_symmetry_equiv_pos_site_id
_symmetry_equiv_pos_as_xyz
1 x,y,z
2 -x,1/2+y,-z
_cell_length_a                   3.9972(4)
_cell_length_b                   14.0618(17)
_cell_length_c                   9.5477(11)
_cell_angle_alpha                90
_cell_angle_beta                 100.600(7)
_cell_angle_gamma                90
_cell_volume                     527.498
_exptl_crystal_colour            orange
_exptl_crystal_description       block
_cell_formula_units_Z            2
loop_
_atom_site_label
_atom_site_type_symbol
_atom_site_fract_x
_atom_site_fract_y
_atom_site_fract_z
N1 N 0.2312(8) 1.14461(18) 0.1238(3)
N2 N -0.3504(6) 1.00734(18) -0.2481(2)
N3 N 1.0065(6) 0.74834(14) 0.5228(2)
C1 C 0.1540(7) 1.07409(19) 0.0677(3)
C2 C -0.1712(6) 0.9990(2) -0.1409(2)
C3 C 0.0522(6) 0.98748(18) -0.0064(2)
C4 C 0.1575(6) 0.89822(16) 0.0384(2)
H1 H 0.0698 0.8500 -0.0244
C5 C 0.3772(5) 0.86581(16) 0.1637(2)
C6 C 0.5169(6) 0.92172(16) 0.2819(2)
H2 H 0.4672 0.9864 0.2805
C7 C 0.7234(6) 0.88429(16) 0.3989(2)
H3 H 0.8101 0.9237 0.4752
C8 C 0.8072(6) 0.78659(17) 0.4056(2)
C9 C 0.6698(6) 0.72954(17) 0.2876(2)
H4 H 0.7215 0.6650 0.2884
C10 C 0.4616(6) 0.76806(16) 0.1721(2)
H5 H 0.3721 0.7286 0.0962
C11 C 1.1555(7) 0.8063(2) 0.6437(3)
H6 H 1.2570 0.8619 0.6107
H7 H 1.3267 0.7704 0.7052
H8 H 0.9815 0.8251 0.6952
C12 C 1.0824(8) 0.64759(18) 0.5319(3)
H9 H 0.8743 0.6122 0.5238
H10 H 1.2254 0.6339 0.6219
H11 H 1.1977 0.6298 0.4561
loop_
_geom_bond_atom_site_label_1
_geom_bond_atom_site_label_2
_geom_bond_site_symmetry_1
_geom_bond_site_symmetry_2
N1 C1 1_555 1_555
N2 C2 1_555 1_555
N3 C8 1_555 1_555
C1 C3 1_555 1_555
C2 C3 1_555 1_555
C3 C4 1_555 1_555
C4 H1 1_555 1_555
C5 C4 1_555 1_555
C6 C5 1_555 1_555
H2 C6 1_555 1_555
C7 C6 1_555 1_555
H3 C7 1_555 1_555
C8 C7 1_555 1_555
C9 C8 1_555 1_555
H4 C9 1_555 1_555
C10 C5 1_555 1_555
H5 C10 1_555 1_555
C11 N3 1_555 1_555
H6 C11 1_555 1_555
H7 C11 1_555 1_555
H8 C11 1_555 1_555
C12 N3 1_555 1_555
H9 C12 1_555 1_555
H10 C12 1_555 1_555
H11 C12 1_555 1_555
C9 C10 1_555 1_555

#END
