
#######################################################################
#
#                 Cambridge Crystallographic Data Centre
#                                CCDC 
#
#######################################################################
#
# If this CIF has been generated from an entry in the Cambridge 
# Structural Database, then it will include bibliographic, chemical, 
# crystal, experimental, refinement or atomic coordinate data resulting 
# from the CCDC's data processing and validation procedures.
#
#######################################################################

data_LIWTUH
_chemical_formula_moiety         'C23 H18 N2 O8'
_chemical_name_systematic        
'1-(5-Methyl-2-oxo-2,5-dihydrofuran-3-yl)-5-phenylpent-4-yn-2-yl 3,5-dinitrobenzoate'
_symmetry_cell_setting           monoclinic
_symmetry_space_group_name_H-M   'P 21'
_symmetry_Int_Tables_number      4
_space_group_name_Hall           'P 2yb'
loop_
_symmetry_equiv_pos_site_id
_symmetry_equiv_pos_as_xyz
1 x,y,z
2 -x,1/2+y,-z
_cell_length_a                   7.0524(4)
_cell_length_b                   7.0656(4)
_cell_length_c                   21.4196(14)
_cell_angle_alpha                90
_cell_angle_beta                 98.981(2)
_cell_angle_gamma                90
_cell_volume                     1054.24
_exptl_crystal_colour            colorless
_exptl_crystal_description       prism
_cell_formula_units_Z            2
loop_
_atom_site_label
_atom_site_type_symbol
_atom_site_fract_x
_atom_site_fract_y
_atom_site_fract_z
O1 O 1.1242(4) 0.7005(5) 0.37888(17)
O2 O 1.0793(4) 0.7522(6) 0.47483(18)
O3 O 0.4763(5) 1.0171(5) 0.51515(16)
O4 O 0.2703(5) 1.1160(5) 0.43562(14)
O5 O 0.5978(4) 0.8288(4) 0.20045(14)
O6 O 0.3122(3) 0.8786(4) 0.23095(12)
O7 O 0.2475(4) 0.4667(4) 0.08490(13)
O8 O -0.0392(4) 0.4356(5) 0.02384(13)
N1 N 1.0263(5) 0.7554(5) 0.4169(2)
N2 N 0.4204(5) 1.0371(5) 0.45793(19)
C1 C 0.8342(5) 0.8297(6) 0.39390(19)
C2 C 0.7236(6) 0.8973(5) 0.43739(19)
H1 H 0.7764 0.8989 0.4815
C3 C 0.5415(5) 0.9600(5) 0.41397(17)
C4 C 0.4665(5) 0.9525(5) 0.35088(18)
H2 H 0.3384 0.9966 0.3366
C5 C 0.5807(5) 0.8822(5) 0.30878(18)
C6 C 0.7673(5) 0.8226(5) 0.3307(2)
H3 H 0.8500 0.7751 0.3027
C7 C 0.5027(5) 0.8616(5) 0.24098(18)
C8 C 0.2079(5) 0.8483(6) 0.16744(18)
H4 H 0.2855 0.7950 0.1388
C9 C 0.0515(5) 0.7069(6) 0.17476(19)
H5 H 0.1051 0.6091 0.2033
H6 H -0.0477 0.7717 0.1922
C10 C -0.0374(5) 0.6180(5) 0.11259(17)
C11 C -0.2156(6) 0.6146(7) 0.08418(19)
H7 H -0.3120 0.6812 0.1025
C12 C -0.2326(6) 0.4967(8) 0.0257(2)
H8 H -0.2834 0.5735 -0.0100
C13 C -0.3595(6) 0.3288(9) 0.0247(3)
H9 H -0.4886 0.3710 0.0255
H10 H -0.3178 0.2520 0.0613
H11 H -0.3554 0.2558 -0.0128
C14 C 0.0776(6) 0.5033(5) 0.07505(19)
C15 C 0.1352(6) 1.0394(6) 0.1405(2)
H12 H 0.2431 1.1193 0.1369
H13 H 0.0594 1.0232 0.0995
C16 C 0.0152(6) 1.1363(6) 0.1807(2)
C17 C -0.0828(6) 1.2080(6) 0.2152(2)
C18 C -0.2076(5) 1.2844(5) 0.2565(2)
C19 C -0.1437(6) 1.3040(6) 0.3207(2)
H14 H -0.0110 1.2800 0.3367
C20 C -0.2675(6) 1.3637(6) 0.3599(2)
H15 H -0.2216 1.3772 0.4042
C21 C -0.4574(6) 1.4047(6) 0.3363(2)
H16 H -0.5442 1.4410 0.3646
C22 C -0.5205(6) 1.3894(6) 0.2735(2)
H17 H -0.6514 1.4192 0.2567
C23 C -0.3970(6) 1.3303(6) 0.2328(2)
H18 H -0.4380 1.3223 0.1880
loop_
_geom_bond_atom_site_label_1
_geom_bond_atom_site_label_2
_geom_bond_site_symmetry_1
_geom_bond_site_symmetry_2
O1 N1 1_555 1_555
O2 N1 1_555 1_555
O3 N2 1_555 1_555
O4 N2 1_555 1_555
O5 C7 1_555 1_555
O6 C7 1_555 1_555
O7 C14 1_555 1_555
O8 C12 1_555 1_555
N1 C1 1_555 1_555
N2 C3 1_555 1_555
C1 C2 1_555 1_555
C2 H1 1_555 1_555
C3 C2 1_555 1_555
C4 C3 1_555 1_555
H2 C4 1_555 1_555
C5 C4 1_555 1_555
C6 C1 1_555 1_555
H3 C6 1_555 1_555
C7 C5 1_555 1_555
C8 O6 1_555 1_555
H4 C8 1_555 1_555
C9 C8 1_555 1_555
H5 C9 1_555 1_555
H6 C9 1_555 1_555
C10 C9 1_555 1_555
C11 C10 1_555 1_555
H7 C11 1_555 1_555
C12 C11 1_555 1_555
H8 C12 1_555 1_555
C13 C12 1_555 1_555
H9 C13 1_555 1_555
H10 C13 1_555 1_555
H11 C13 1_555 1_555
C14 O8 1_555 1_555
C15 C8 1_555 1_555
H12 C15 1_555 1_555
H13 C15 1_555 1_555
C16 C15 1_555 1_555
C17 C16 1_555 1_555
C18 C17 1_555 1_555
C19 C18 1_555 1_555
H14 C19 1_555 1_555
C20 C19 1_555 1_555
H15 C20 1_555 1_555
C21 C20 1_555 1_555
H16 C21 1_555 1_555
C22 C21 1_555 1_555
H17 C22 1_555 1_555
C23 C18 1_555 1_555
H18 C23 1_555 1_555
C5 C6 1_555 1_555
C10 C14 1_555 1_555
C22 C23 1_555 1_555

#END
