
#######################################################################
#
#                 Cambridge Crystallographic Data Centre
#                                CCDC 
#
#######################################################################
#
# If this CIF has been generated from an entry in the Cambridge 
# Structural Database, then it will include bibliographic, chemical, 
# crystal, experimental, refinement or atomic coordinate data resulting 
# from the CCDC's data processing and validation procedures.
#
#######################################################################

data_LIWYIB
_chemical_formula_moiety         'C8 H6 N4 S1'
_chemical_name_systematic        2,2'-sulfanediyldipyrazine
_symmetry_cell_setting           monoclinic
_symmetry_space_group_name_H-M   'P 21/n'
_symmetry_Int_Tables_number      14
_space_group_name_Hall           '-P 2yn'
loop_
_symmetry_equiv_pos_site_id
_symmetry_equiv_pos_as_xyz
1 x,y,z
2 1/2-x,1/2+y,1/2-z
3 -x,-y,-z
4 1/2+x,1/2-y,1/2+z
_cell_length_a                   3.90610(10)
_cell_length_b                   20.4757(3)
_cell_length_c                   10.6097(2)
_cell_angle_alpha                90
_cell_angle_beta                 98.4360(10)
_cell_angle_gamma                90
_cell_volume                     839.384
_exptl_crystal_colour            colorless
_exptl_crystal_description       Block
_cell_formula_units_Z            4
loop_
_atom_site_label
_atom_site_type_symbol
_atom_site_fract_x
_atom_site_fract_y
_atom_site_fract_z
S1 S 0.12788(15) 0.20583(2) 0.40967(4)
C1 C 0.2076(5) 0.17153(9) 0.65777(17)
H1 H 0.0965 0.2111 0.6667
C2 C 0.5125(5) 0.05948(9) 0.62212(17)
H2 H 0.6201 0.0195 0.6135
N1 N 0.2105(4) 0.18638(7) 0.17284(15)
N2 N -0.0417(4) 0.05877(8) 0.15778(15)
C3 C 0.2610(4) 0.15162(8) 0.53676(15)
N3 N 0.4148(4) 0.09515(7) 0.51820(14)
C4 C 0.4609(5) 0.07915(10) 0.74088(18)
H3 H 0.5332 0.0522 0.8102
N4 N 0.3096(5) 0.13608(8) 0.76033(15)
C5 C 0.1059(4) 0.15675(8) 0.27222(15)
C6 C -0.0297(5) 0.09371(9) 0.26276(17)
H4 H -0.1143 0.0757 0.3326
C7 C 0.0712(5) 0.08822(10) 0.05933(18)
H5 H 0.0725 0.0650 -0.0160
C8 C 0.1848(6) 0.15141(10) 0.06598(17)
H6 H 0.2464 0.1707 -0.0068
loop_
_geom_bond_atom_site_label_1
_geom_bond_atom_site_label_2
_geom_bond_site_symmetry_1
_geom_bond_site_symmetry_2
S1 C3 1_555 1_555
C1 H1 1_555 1_555
C2 H2 1_555 1_555
N1 C5 1_555 1_555
N2 C6 1_555 1_555
C3 C1 1_555 1_555
N3 C2 1_555 1_555
C4 C2 1_555 1_555
H3 C4 1_555 1_555
N4 C1 1_555 1_555
C5 S1 1_555 1_555
C6 C5 1_555 1_555
H4 C6 1_555 1_555
C7 N2 1_555 1_555
H5 C7 1_555 1_555
C8 N1 1_555 1_555
H6 C8 1_555 1_555
C3 N3 1_555 1_555
C4 N4 1_555 1_555
C7 C8 1_555 1_555

#END
