
#######################################################################
#
#                 Cambridge Crystallographic Data Centre
#                                CCDC 
#
#######################################################################
#
# If this CIF has been generated from an entry in the Cambridge 
# Structural Database, then it will include bibliographic, chemical, 
# crystal, experimental, refinement or atomic coordinate data resulting 
# from the CCDC's data processing and validation procedures.
#
#######################################################################

data_LIXCOK
_chemical_formula_moiety         'C18 H16 Cl2 N2 O1'
_chemical_name_systematic        
(7R,9S)-1,1-Dichloro-4-formyl-3-methyl-1a-phenyl-1a,2,3,4-tetrahydro-1H-azirino(1,2-a)(1,5)benzodiazepine
_chemical_properties_biological  'pharmaceutical agent'
_symmetry_cell_setting           monoclinic
_symmetry_space_group_name_H-M   'P 21/n'
_symmetry_Int_Tables_number      14
_space_group_name_Hall           '-P 2yn'
loop_
_symmetry_equiv_pos_site_id
_symmetry_equiv_pos_as_xyz
1 x,y,z
2 1/2-x,1/2+y,1/2-z
3 -x,-y,-z
4 1/2+x,1/2-y,1/2+z
_cell_length_a                   9.6548(9)
_cell_length_b                   10.438(2)
_cell_length_c                   16.732(2)
_cell_angle_alpha                90
_cell_angle_beta                 99.24(1)
_cell_angle_gamma                90
_cell_volume                     1664.32
_exptl_crystal_colour            colorless
_exptl_crystal_description       prismatic
_cell_formula_units_Z            4
loop_
_atom_site_label
_atom_site_type_symbol
_atom_site_fract_x
_atom_site_fract_y
_atom_site_fract_z
Cl1 Cl 0.0483(1) 0.8425(1) 0.0765(1)
Cl2 Cl 0.2763(1) 1.0072(1) 0.0540(1)
O1 O 0.3793(3) 0.5406(3) -0.2223(1)
N1 N 0.4095(2) 0.6795(2) -0.1166(1)
N2 N 0.2669(2) 0.7491(2) 0.0123(1)
C1 C 0.4159(3) 0.7443(2) 0.0249(1)
C2 C 0.4925(3) 0.7700(3) 0.1007(2)
C3 C 0.6360(3) 0.7529(3) 0.1149(2)
C4 C 0.7039(3) 0.7073(3) 0.0544(2)
C5 C 0.6293(3) 0.6849(3) -0.0219(2)
C6 C 0.4852(3) 0.7039(2) -0.0373(1)
C7 C 0.3385(3) 0.7842(3) -0.1670(1)
C8 C 0.2747(3) 0.8805(3) -0.1149(2)
C9 C 0.1873(3) 0.8130(2) -0.0604(1)
C10 C 0.1910(3) 0.8634(2) 0.0243(2)
C11 C 0.0620(3) 0.7401(3) -0.1027(2)
C12 C -0.0352(3) 0.8021(3) -0.1603(2)
C13 C -0.1480(3) 0.7356(4) -0.2014(2)
C14 C -0.1646(3) 0.6076(4) -0.1861(2)
C15 C -0.0701(3) 0.5460(3) -0.1294(2)
C16 C 0.0433(3) 0.6118(3) -0.0868(2)
C17 C 0.4367(3) 0.8483(3) -0.2166(2)
C18 C 0.4237(3) 0.5649(3) -0.1521(2)
loop_
_geom_bond_atom_site_label_1
_geom_bond_atom_site_label_2
_geom_bond_site_symmetry_1
_geom_bond_site_symmetry_2
Cl1 C10 1_555 1_555
Cl2 C10 1_555 1_555
O1 C18 1_555 1_555
N1 C6 1_555 1_555
N2 C1 1_555 1_555
C1 C2 1_555 1_555
C2 C3 1_555 1_555
C3 C4 1_555 1_555
C4 C5 1_555 1_555
C5 C6 1_555 1_555
C6 C1 1_555 1_555
C7 N1 1_555 1_555
C8 C7 1_555 1_555
C9 N2 1_555 1_555
C10 N2 1_555 1_555
C11 C9 1_555 1_555
C12 C11 1_555 1_555
C13 C12 1_555 1_555
C14 C13 1_555 1_555
C15 C14 1_555 1_555
C16 C11 1_555 1_555
C17 C7 1_555 1_555
C18 N1 1_555 1_555
C8 C9 1_555 1_555
C9 C10 1_555 1_555
C15 C16 1_555 1_555

#END
