
#######################################################################
#
#                 Cambridge Crystallographic Data Centre
#                                CCDC 
#
#######################################################################
#
# If this CIF has been generated from an entry in the Cambridge 
# Structural Database, then it will include bibliographic, chemical, 
# crystal, experimental, refinement or atomic coordinate data resulting 
# from the CCDC's data processing and validation procedures.
#
#######################################################################

data_LIXCUQ
_chemical_formula_moiety         'C28 H28 N2 O3'
_chemical_name_systematic        
'Ethyl 4-benzoyl-1a,2,3,4-tetrahydro-3-methyl-1a-(4-methylphenyl)-1H-azirino(1,2-a)(1,5)benzodiazepine-1-carboxylate'
_chemical_properties_biological  'pharmaceutical agent'
_symmetry_cell_setting           orthorhombic
_symmetry_space_group_name_H-M   'P b c a'
_symmetry_Int_Tables_number      61
_space_group_name_Hall           '-P 2ac 2ab'
loop_
_symmetry_equiv_pos_site_id
_symmetry_equiv_pos_as_xyz
1 x,y,z
2 1/2-x,-y,1/2+z
3 1/2+x,1/2-y,-z
4 -x,1/2+y,1/2-z
5 -x,-y,-z
6 1/2+x,y,1/2-z
7 1/2-x,1/2+y,z
8 x,1/2-y,1/2+z
_cell_length_a                   16.407(5)
_cell_length_b                   16.462(4)
_cell_length_c                   18.372(9)
_cell_angle_alpha                90
_cell_angle_beta                 90
_cell_angle_gamma                90
_cell_volume                     4962.13
_exptl_crystal_colour            colorless
_exptl_crystal_description       prismatic
_cell_formula_units_Z            8
_exptl_crystal_recrystallization_method ethanol
loop_
_atom_site_label
_atom_site_type_symbol
_atom_site_fract_x
_atom_site_fract_y
_atom_site_fract_z
C1 C 0.5411(3) 0.2176(2) 0.0762(3)
C2 C 0.6089(3) 0.2586(3) 0.0492(3)
C3 C 0.5556(3) 0.2929(3) -0.0750(3)
C4 C 0.5293(3) 0.2039(3) -0.0791(3)
C5 C 0.4544(4) 0.1881(3) -0.0319(3)
C6 C 0.6844(3) 0.2456(4) 0.0810(3)
C7 C 0.6912(4) 0.1941(4) 0.1407(4)
C8 C 0.6240(4) 0.1542(4) 0.1678(3)
C9 C 0.5496(4) 0.1646(4) 0.1349(3)
C10 C 0.3949(3) 0.2514(4) 0.0762(3)
C11 C 0.4023(3) 0.2994(4) 0.1451(3)
C12 C 0.4604(4) 0.3609(4) 0.1549(4)
C13 C 0.4572(5) 0.4114(5) 0.2150(4)
C14 C 0.3971(4) 0.4002(4) 0.2663(4)
C15 C 0.3403(4) 0.3388(4) 0.2582(4)
C16 C 0.3421(4) 0.2893(4) 0.1985(4)
C17 C 0.6463(3) 0.3085(3) -0.0740(3)
C18 C 0.6825(3) 0.3833(4) -0.1078(3)
C19 C 0.7216(7) 0.5188(5) -0.0954(5)
C20 C 0.7723(8) 0.5530(6) -0.1581(9)
C21 C 0.4682(3) 0.4178(3) -0.0622(3)
C22 C 0.4097(3) 0.4704(4) -0.0892(3)
C23 C 0.3760(4) 0.4603(4) -0.1576(3)
C24 C 0.4040(4) 0.3965(4) -0.1996(3)
C25 C 0.4630(3) 0.3437(4) -0.1738(3)
C26 C 0.4957(3) 0.3531(3) -0.1043(3)
C27 C 0.3115(4) 0.5169(4) -0.1857(4)
C28 C 0.4362(6) 0.0977(4) -0.0233(4)
N1 N 0.4634(3) 0.2274(3) 0.0408(2)
N2 N 0.5982(3) 0.3173(3) -0.0074(2)
O1 O 0.6859(3) 0.4460(2) -0.0643(2)
O2 O 0.7085(3) 0.3821(3) -0.1692(2)
O3 O 0.3273(2) 0.2382(3) 0.0506(3)
loop_
_geom_bond_atom_site_label_1
_geom_bond_atom_site_label_2
_geom_bond_site_symmetry_1
_geom_bond_site_symmetry_2
C1 C2 1_555 1_555
C2 C6 1_555 1_555
C3 C4 1_555 1_555
C4 C5 1_555 1_555
C5 C28 1_555 1_555
C6 C7 1_555 1_555
C7 C8 1_555 1_555
C8 C9 1_555 1_555
C9 C1 1_555 1_555
C10 C11 1_555 1_555
C11 C12 1_555 1_555
C12 C13 1_555 1_555
C13 C14 1_555 1_555
C14 C15 1_555 1_555
C15 C16 1_555 1_555
C16 C11 1_555 1_555
C17 C3 1_555 1_555
C18 C17 1_555 1_555
C19 C20 1_555 1_555
C21 C22 1_555 1_555
C22 C23 1_555 1_555
C23 C24 1_555 1_555
C24 C25 1_555 1_555
C25 C26 1_555 1_555
C26 C3 1_555 1_555
C27 C23 1_555 1_555
N1 C1 1_555 1_555
N2 C2 1_555 1_555
O1 C18 1_555 1_555
O2 C18 1_555 1_555
O3 C10 1_555 1_555
C3 N2 1_555 1_555
C5 N1 1_555 1_555
C10 N1 1_555 1_555
C17 N2 1_555 1_555
C19 O1 1_555 1_555
C21 C26 1_555 1_555

#END
