
#######################################################################
#
#                 Cambridge Crystallographic Data Centre
#                                CCDC 
#
#######################################################################
#
# If this CIF has been generated from an entry in the Cambridge 
# Structural Database, then it will include bibliographic, chemical, 
# crystal, experimental, refinement or atomic coordinate data resulting 
# from the CCDC's data processing and validation procedures.
#
#######################################################################

data_LIXDIF
_chemical_formula_moiety         'C35 H37 F1 N2 O7'
_chemical_name_systematic        
'Triethyl 6-benzoyl-3a-(4-fluorophenyl)-2,3,3a,4,5,6-hexahydro-5-methyl-1H-pyrrolo(1,2,a)(1,5)benzodiazepine-1,2,3-tricarboxylate'
_symmetry_cell_setting           orthorhombic
_symmetry_space_group_name_H-M   'P c 21 b'
_symmetry_Int_Tables_number      29
_space_group_name_Hall           'P -2bc -2c'
loop_
_symmetry_equiv_pos_site_id
_symmetry_equiv_pos_as_xyz
1 x,y,z
2 x,1/2+y,1/2-z
3 -x,y,1/2+z
4 -x,1/2+y,-z
_cell_length_a                   10.048(2)
_cell_length_b                   15.117(7)
_cell_length_c                   21.424(5)
_cell_angle_alpha                90
_cell_angle_beta                 90
_cell_angle_gamma                90
_cell_volume                     3254.21
_exptl_crystal_colour            colorless
_exptl_crystal_description       prismatic
_cell_formula_units_Z            4
_exptl_crystal_recrystallization_method ethanol
loop_
_atom_site_label
_atom_site_type_symbol
_atom_site_fract_x
_atom_site_fract_y
_atom_site_fract_z
F1 F 0.2952(5) 0.8360(5) 0.2307(3)
N1 N 0.8933(6) 0.7812(4) 0.1382(3)
N2 N 0.7524(6) 0.6791(5) 0.0582(3)
O1 O 0.8590(7) 0.8247(5) 0.2386(3)
O2 O 0.5084(9) 0.6228(8) -0.1244(3)
O3 O 0.4289(6) 0.5725(5) -0.0368(3)
O4 O 0.7835(8) 0.7855(6) -0.0998(3)
O5 O 0.6178(8) 0.8825(5) -0.0772(3)
O6 O 0.7626(9) 0.4932(5) 0.0829(4)
O7 O 0.7351(7) 0.4763(5) -0.0230(4)
C1 C 0.8957(7) 0.6814(6) 0.0498(4)
C2 C 0.9265(10) 0.9376(6) 0.1141(5)
C3 C 0.6802(7) 0.7644(6) 0.0463(4)
C4 C 0.7731(8) 0.8445(5) 0.0497(4)
C5 C 0.8284(8) 0.8606(5) 0.1142(4)
C6 C 0.9657(8) 0.7293(6) 0.0948(4)
C7 C 1.1027(9) 0.7318(7) 0.0934(5)
C8 C 1.1691(9) 0.6837(8) 0.0501(5)
C9 C 1.1025(9) 0.6346(7) 0.0072(5)
C10 C 0.9640(9) 0.6345(6) 0.0055(5)
C11 C 0.6729(8) 0.6123(5) 0.0277(4)
C12 C 0.6365(8) 0.6497(6) -0.0364(4)
C13 C 0.6180(9) 0.7498(6) -0.0206(4)
C14 C 0.5690(7) 0.7759(6) 0.0949(4)
C15 C 0.4767(8) 0.8433(5) 0.0862(4)
C16 C 0.3866(8) 0.8637(6) 0.1320(4)
C17 C 0.3844(9) 0.8161(6) 0.1840(4)
C18 C 0.4721(8) 0.7464(6) 0.1954(4)
C19 C 0.5644(8) 0.7279(6) 0.1494(4)
C20 C 0.9043(9) 0.7719(6) 0.2009(4)
C21 C 0.9769(9) 0.6909(6) 0.2242(4)
C22 C 1.0700(9) 0.7003(7) 0.2715(4)
C23 C 1.1421(11) 0.6294(8) 0.2932(5)
C24 C 1.1203(10) 0.5490(8) 0.2689(5)
C25 C 1.0201(12) 0.5346(8) 0.2243(5)
C26 C 0.9487(10) 0.6067(7) 0.2020(5)
C27 C 0.5106(11) 0.6090(7) -0.0651(4)
C28 C 0.6850(11) 0.8060(8) -0.0717(4)
C29 C 0.7314(9) 0.5171(6) 0.0275(5)
C30 C 0.7930(19) 0.3921(17) 0.1004(12)
C31 C 0.9103(20) 0.3898(14) 0.0782(11)
C32 C 0.3960(15) 0.5623(11) -0.127(11)
C33 C 0.3387(17) 0.6285(12) -0.1632(7)
C34 C 0.6832(17) 0.9475(10) -0.1220(7)
C35 C 0.5987(18) 0.9935(12) -0.1476(8)
loop_
_geom_bond_atom_site_label_1
_geom_bond_atom_site_label_2
_geom_bond_site_symmetry_1
_geom_bond_site_symmetry_2
F1 C17 1_555 1_555
N1 C5 1_555 1_555
N2 C1 1_555 1_555
O1 C20 1_555 1_555
O2 C27 1_555 1_555
O3 C27 1_555 1_555
O4 C28 1_555 1_555
O5 C28 1_555 1_555
O6 C29 1_555 1_555
O7 C29 1_555 1_555
C1 C6 1_555 1_555
C2 C5 1_555 1_555
C3 N2 1_555 1_555
C4 C3 1_555 1_555
C5 C4 1_555 1_555
C6 N1 1_555 1_555
C7 C6 1_555 1_555
C8 C7 1_555 1_555
C9 C8 1_555 1_555
C10 C1 1_555 1_555
C11 N2 1_555 1_555
C12 C11 1_555 1_555
C13 C3 1_555 1_555
C14 C3 1_555 1_555
C15 C14 1_555 1_555
C16 C15 1_555 1_555
C17 C16 1_555 1_555
C18 C17 1_555 1_555
C19 C14 1_555 1_555
C20 N1 1_555 1_555
C21 C20 1_555 1_555
C22 C21 1_555 1_555
C23 C22 1_555 1_555
C24 C23 1_555 1_555
C25 C24 1_555 1_555
C26 C21 1_555 1_555
C27 C12 1_555 1_555
C28 C13 1_555 1_555
C29 C11 1_555 1_555
C30 O6 1_555 1_555
C31 C30 1_555 1_555
C32 O2 1_555 1_555
C33 C32 1_555 1_555
C34 O5 1_555 1_555
C35 C34 1_555 1_555
C9 C10 1_555 1_555
C12 C13 1_555 1_555
C18 C19 1_555 1_555
C25 C26 1_555 1_555

#END
