
#######################################################################
#
#                 Cambridge Crystallographic Data Centre
#                                CCDC 
#
#######################################################################
#
# If this CIF has been generated from an entry in the Cambridge 
# Structural Database, then it will include bibliographic, chemical, 
# crystal, experimental, refinement or atomic coordinate data resulting 
# from the CCDC's data processing and validation procedures.
#
#######################################################################

data_LIXKAE
_chemical_formula_moiety         'C16 H13 N1 O5'
_chemical_name_systematic        
'rac-trans-6-Oxospiro(4.4)nona-2,7-dien-1-yl p-nitrobenzoate'
_symmetry_cell_setting           triclinic
_symmetry_space_group_name_H-M   'P -1'
_symmetry_Int_Tables_number      2
_space_group_name_Hall           '-P 1'
loop_
_symmetry_equiv_pos_site_id
_symmetry_equiv_pos_as_xyz
1 x,y,z
2 -x,-y,-z
_cell_length_a                   7.080(1)
_cell_length_b                   8.239(1)
_cell_length_c                   12.998(1)
_cell_angle_alpha                105.08(2)
_cell_angle_beta                 92.84(2)
_cell_angle_gamma                109.01(2)
_cell_volume                     684.634
_exptl_crystal_colour            yellow
_chemical_melting_point          '148 deg.C'
_cell_formula_units_Z            2
loop_
_atom_site_label
_atom_site_type_symbol
_atom_site_fract_x
_atom_site_fract_y
_atom_site_fract_z
O1 O -0.0731(1) 0.7870(1) 0.2090(1)
O2 O 0.5362(1) 0.9625(1) 0.2788(1)
O3 O 0.3318(1) 1.0756(1) 0.3785(1)
O4 O 1.3524(1) 1.4656(1) 0.6705(1)
O5 O 1.1719(1) 1.6022(1) 0.7602(1)
N1 N 1.1926(1) 1.4904(1) 0.6830(1)
C1 C 0.0444(1) 0.9036(1) 0.1785(1)
C2 C 0.0258(2) 1.0739(1) 0.1740(1)
C3 C 0.1915(2) 1.1712(1) 0.1435(1)
C4 C 0.3451(1) 1.0812(1) 0.1232(1)
C5 C 0.2392(1) 0.8927(1) 0.1351(1)
C6 C 0.3600(1) 0.8261(1) 0.2071(1)
C7 C 0.4303(1) 0.6956(1) 0.1299(1)
C8 C 0.3316(1) 0.6483(1) 0.0309(1)
C9 C 0.1847(1) 0.7437(1) 0.0248(1)
C10 C 0.4983(1) 1.0698(1) 0.3657(1)
C11 C 0.6846(1) 1.1805(1) 0.4454(1)
C12 C 0.6741(1) 1.3221(1) 0.5290(1)
C13 C 0.8415(1) 1.4249(1) 0.6075(1)
C14 C 1.0152(1) 1.3814(1) 0.6002(1)
C15 C 1.0297(1) 1.2417(1) 0.5178(1)
C16 C 0.8617(1) 1.1404(1) 0.4394(1)
H1 H -0.0930(25) 1.1071(22) 0.1944(13)
H2 H 0.2203(26) 1.2904(23) 0.1361(14)
H3 H 0.4709(23) 1.1508(20) 0.1747(12)
H4 H 0.3849(22) 1.0728(19) 0.0501(12)
H5 H 0.2732(18) 0.7673(15) 0.2511(9)
H6 H 0.5358(24) 0.6523(22) 0.1565(13)
H7 H 0.3448(24) 0.5622(21) -0.0317(13)
H8 H 0.0437(24) 0.6565(22) 0.0166(13)
H9 H 0.1920(24) 0.7972(21) -0.0350(13)
H10 H 0.5548(22) 1.3503(19) 0.5326(11)
H11 H 0.8393(24) 1.5242(21) 0.6663(13)
H12 H 1.1516(21) 1.2169(19) 0.5133(12)
H13 H 0.8680(20) 1.0397(18) 0.3811(11)
loop_
_geom_bond_atom_site_label_1
_geom_bond_atom_site_label_2
_geom_bond_site_symmetry_1
_geom_bond_site_symmetry_2
O1 C1 1_555 1_555
O2 C6 1_555 1_555
O3 C10 1_555 1_555
O4 N1 1_555 1_555
O5 N1 1_555 1_555
N1 C14 1_555 1_555
C1 C2 1_555 1_555
C2 C3 1_555 1_555
C3 C4 1_555 1_555
C4 C5 1_555 1_555
C5 C1 1_555 1_555
C6 C5 1_555 1_555
C7 C6 1_555 1_555
C8 C7 1_555 1_555
C9 C5 1_555 1_555
C10 O2 1_555 1_555
C11 C10 1_555 1_555
C12 C11 1_555 1_555
C13 C12 1_555 1_555
C14 C13 1_555 1_555
C15 C14 1_555 1_555
C16 C11 1_555 1_555
H1 C2 1_555 1_555
H2 C3 1_555 1_555
H3 C4 1_555 1_555
H4 C4 1_555 1_555
H5 C6 1_555 1_555
H6 C7 1_555 1_555
H7 C8 1_555 1_555
H8 C9 1_555 1_555
H9 C9 1_555 1_555
H10 C12 1_555 1_555
H11 C13 1_555 1_555
H12 C15 1_555 1_555
H13 C16 1_555 1_555
C8 C9 1_555 1_555
C15 C16 1_555 1_555

#END
