
#######################################################################
#
#                 Cambridge Crystallographic Data Centre
#                                CCDC 
#
#######################################################################
#
# If this CIF has been generated from an entry in the Cambridge 
# Structural Database, then it will include bibliographic, chemical, 
# crystal, experimental, refinement or atomic coordinate data resulting 
# from the CCDC's data processing and validation procedures.
#
#######################################################################

data_LIXKEK
_chemical_formula_moiety         'C18 H13 Cl2 N1 O3'
_chemical_name_systematic        
'ethyl 5-(3,5-dichlorophenyl)-2-phenyl-1,3-oxazole-4-carboxylate'
_symmetry_cell_setting           triclinic
_symmetry_space_group_name_H-M   'P -1'
_symmetry_Int_Tables_number      2
_space_group_name_Hall           '-P 1'
loop_
_symmetry_equiv_pos_site_id
_symmetry_equiv_pos_as_xyz
1 x,y,z
2 -x,-y,-z
_cell_length_a                   7.4219(15)
_cell_length_b                   9.3714(19)
_cell_length_c                   13.520(3)
_cell_angle_alpha                109.06(3)
_cell_angle_beta                 94.10(3)
_cell_angle_gamma                108.60(3)
_cell_volume                     826.033
_cell_formula_units_Z            2
loop_
_atom_site_label
_atom_site_type_symbol
_atom_site_fract_x
_atom_site_fract_y
_atom_site_fract_z
Cl1 Cl 0.23649(7) -0.30034(6) 0.04073(3)
Cl2 Cl -0.27149(7) 0.00321(6) 0.11284(4)
O1 O 0.13543(17) -0.29579(12) 0.37915(8)
C1 C 0.2129(2) 0.04169(16) 0.42265(10)
C2 C -0.0087(2) 0.02313(16) 0.26942(10)
H1 H -0.0589 0.0911 0.3160
C3 C 0.32344(19) 0.22399(17) 0.58257(10)
C4 C 0.38826(19) 0.38621(16) 0.66472(10)
C5 C 0.4045(2) 0.52206(18) 0.63987(11)
H2 H 0.3680 0.5104 0.5696
C6 C 0.1400(2) -0.01703(16) 0.30737(10)
C7 C 0.2239(2) -0.19505(18) 0.47709(11)
C8 C -0.0801(2) -0.04040(18) 0.16071(11)
C9 C -0.0077(2) -0.14034(18) 0.08912(11)
H3 H -0.0585 -0.1828 0.0163
C10 C 0.4405(2) 0.4054(2) 0.77084(11)
H4 H 0.4279 0.3153 0.7887
C11 C 0.25437(19) -0.02528(16) 0.49215(10)
C12 C 0.2190(2) -0.11431(18) 0.23707(11)
H5 H 0.3216 -0.1379 0.2624
C13 C 0.1430(2) -0.17534(18) 0.12937(11)
O2 O 0.2715(3) -0.23512(17) 0.54608(11)
C14 C 0.5109(3) 0.5585(2) 0.84917(12)
H6 H 0.5468 0.5712 0.9198
C15 C 0.0972(2) -0.46689(18) 0.35360(14)
H7 H 0.0011 -0.5102 0.3916
H8 H 0.2150 -0.4833 0.3737
C16 C 0.5285(2) 0.6927(2) 0.82383(13)
H9 H 0.5766 0.7955 0.8771
C17 C 0.4748(2) 0.67445(19) 0.71955(13)
H10 H 0.4858 0.7650 0.7026
C18 C 0.0240(3) -0.5488(2) 0.23623(16)
H11 H -0.0036 -0.6629 0.2159
H12 H 0.1207 -0.5050 0.1997
H13 H -0.0921 -0.5313 0.2174
O3 O 0.25466(14) 0.20289(11) 0.48034(7)
N1 N 0.32676(17) 0.09334(14) 0.59377(9)
loop_
_geom_bond_atom_site_label_1
_geom_bond_atom_site_label_2
_geom_bond_site_symmetry_1
_geom_bond_site_symmetry_2
Cl1 C13 1_555 1_555
Cl2 C8 1_555 1_555
O1 C7 1_555 1_555
C1 C6 1_555 1_555
C2 H1 1_555 1_555
C3 C4 1_555 1_555
C4 C5 1_555 1_555
C5 H2 1_555 1_555
C6 C2 1_555 1_555
C7 C11 1_555 1_555
C8 C2 1_555 1_555
C9 C8 1_555 1_555
H3 C9 1_555 1_555
C10 C4 1_555 1_555
H4 C10 1_555 1_555
C11 C1 1_555 1_555
C12 C6 1_555 1_555
H5 C12 1_555 1_555
C13 C9 1_555 1_555
O2 C7 1_555 1_555
C14 C10 1_555 1_555
H6 C14 1_555 1_555
C15 O1 1_555 1_555
H7 C15 1_555 1_555
H8 C15 1_555 1_555
C16 C14 1_555 1_555
H9 C16 1_555 1_555
C17 C5 1_555 1_555
H10 C17 1_555 1_555
C18 C15 1_555 1_555
H11 C18 1_555 1_555
H12 C18 1_555 1_555
H13 C18 1_555 1_555
O3 C1 1_555 1_555
N1 C3 1_555 1_555
C3 O3 1_555 1_555
C11 N1 1_555 1_555
C12 C13 1_555 1_555
C16 C17 1_555 1_555

#END
