
#######################################################################
#
#                 Cambridge Crystallographic Data Centre
#                                CCDC 
#
#######################################################################
#
# If this CIF has been generated from an entry in the Cambridge 
# Structural Database, then it will include bibliographic, chemical, 
# crystal, experimental, refinement or atomic coordinate data resulting 
# from the CCDC's data processing and validation procedures.
#
#######################################################################

data_LIXKEI
_chemical_formula_moiety         'C18 H17 N1 O6'
_chemical_name_systematic        
'rac-cis,trans-Spiro(4.4)nona-6-acetoxy-2,7-diene-1-yl p-nitrobenzoate'
_symmetry_cell_setting           monoclinic
_symmetry_space_group_name_H-M   'P 21/c'
_symmetry_Int_Tables_number      14
_space_group_name_Hall           '-P 2ybc'
loop_
_symmetry_equiv_pos_site_id
_symmetry_equiv_pos_as_xyz
1 x,y,z
2 -x,1/2+y,1/2-z
3 -x,-y,-z
4 x,1/2-y,1/2+z
_cell_length_a                   13.152(1)
_cell_length_b                   9.250(1)
_cell_length_c                   14.077(1)
_cell_angle_alpha                90
_cell_angle_beta                 106.47(1)
_cell_angle_gamma                90
_cell_volume                     1642.28
_exptl_crystal_colour            white
_chemical_melting_point          '149 deg.C'
_cell_formula_units_Z            4
loop_
_atom_site_label
_atom_site_type_symbol
_atom_site_fract_x
_atom_site_fract_y
_atom_site_fract_z
O1 O 0.3765(1) 0.2243(1) 0.3622(1)
O2 O 0.2480(1) 0.4872(1) 0.3974(1)
O3 O 0.1995(1) 0.6854(1) 0.4675(1)
O4 O -0.0081(1) 0.2078(1) 0.7457(1)
O5 O -0.0333(1) 0.0528(1) 0.6267(1)
O6 O 0.4387(1) 0.1479(2) 0.5199(1)
N1 N 0.0000(1) 0.1685(1) 0.6649(1)
C1 C 0.4356(1) 0.3586(2) 0.3887(1)
C2 C 0.5479(1) 0.3474(2) 0.3839(1)
C3 C 0.5740(1) 0.4616(2) 0.3393(1)
C4 C 0.4843(1) 0.5666(2) 0.3055(1)
C5 C 0.3858(1) 0.4790(2) 0.3138(1)
C6 C 0.3082(1) 0.5783(2) 0.3458(1)
C7 C 0.2361(2) 0.6316(2) 0.2497(2)
C8 C 0.2443(1) 0.5498(2) 0.1750(1)
C9 C 0.3225(1) 0.4279(2) 0.2088(1)
C10 C 0.2005(1) 0.5559(2) 0.4570(1)
C11 C 0.1496(1) 0.4510(2) 0.5108(1)
C12 C 0.1265(1) 0.3093(2) 0.4774(1)
C13 C 0.0758(1) 0.2166(2) 0.5270(1)
C14 C 0.0529(1) 0.2671(2) 0.6113(1)
C15 C 0.0762(1) 0.4065(2) 0.6471(1)
C16 C 0.1238(1) 0.4996(2) 0.5950(1)
C17 C 0.3840(1) 0.1290(2) 0.4360(1)
C18 C 0.3180(2) -0.0030(2) 0.3996(2)
H1 H 0.4308(14) 0.3869(19) 0.4541(13)
H2 H 0.5928(19) 0.2657(26) 0.4152(18)
H3 H 0.6443(18) 0.4780(24) 0.3296(16)
H4 H 0.4764(17) 0.5981(25) 0.2366(17)
H5 H 0.4943(18) 0.6512(26) 0.3483(17)
H6 H 0.3442(15) 0.6523(21) 0.3935(14)
H7 H 0.1899(19) 0.7083(27) 0.2482(17)
H8 H 0.2065(19) 0.5619(27) 0.1077(19)
H9 H 0.3704(19) 0.4097(25) 0.1683(18)
H10 H 0.2829(19) 0.3343(27) 0.2101(18)
H11 H 0.1421(14) 0.2771(20) 0.4189(14)
H12 H 0.0583(15) 0.1222(22) 0.5052(14)
H13 H 0.0600(16) 0.4354(22) 0.7044(15)
H14 H 0.1390(15) 0.5977(22) 0.6178(14)
H15 H 0.2571(27) 0.0181(34) 0.3489(24)
H16 H 0.3078(25) -0.0558(36) 0.4510(25)
H17 H 0.3590(29) -0.0678(40) 0.3728(26)
loop_
_geom_bond_atom_site_label_1
_geom_bond_atom_site_label_2
_geom_bond_site_symmetry_1
_geom_bond_site_symmetry_2
O1 C1 1_555 1_555
O2 C6 1_555 1_555
O3 C10 1_555 1_555
O4 N1 1_555 1_555
O5 N1 1_555 1_555
O6 C17 1_555 1_555
N1 C14 1_555 1_555
C1 C2 1_555 1_555
C2 C3 1_555 1_555
C3 C4 1_555 1_555
C4 C5 1_555 1_555
C5 C1 1_555 1_555
C6 C5 1_555 1_555
C7 C6 1_555 1_555
C8 C7 1_555 1_555
C9 C5 1_555 1_555
C10 O2 1_555 1_555
C11 C10 1_555 1_555
C12 C11 1_555 1_555
C13 C12 1_555 1_555
C14 C13 1_555 1_555
C15 C14 1_555 1_555
C16 C11 1_555 1_555
C17 O1 1_555 1_555
C18 C17 1_555 1_555
H1 C1 1_555 1_555
H2 C2 1_555 1_555
H3 C3 1_555 1_555
H4 C4 1_555 1_555
H5 C4 1_555 1_555
H6 C6 1_555 1_555
H7 C7 1_555 1_555
H8 C8 1_555 1_555
H9 C9 1_555 1_555
H10 C9 1_555 1_555
H11 C12 1_555 1_555
H12 C13 1_555 1_555
H13 C15 1_555 1_555
H14 C16 1_555 1_555
H15 C18 1_555 1_555
H16 C18 1_555 1_555
H17 C18 1_555 1_555
C8 C9 1_555 1_555
C15 C16 1_555 1_555

#END
