
#######################################################################
#
#                 Cambridge Crystallographic Data Centre
#                                CCDC 
#
#######################################################################
#
# If this CIF has been generated from an entry in the Cambridge 
# Structural Database, then it will include bibliographic, chemical, 
# crystal, experimental, refinement or atomic coordinate data resulting 
# from the CCDC's data processing and validation procedures.
#
#######################################################################

data_LIXQUG
_chemical_formula_moiety         'C30 H48 O3,C4 H10 O1'
_chemical_name_systematic        
'3\b-Hydroxylup-20(29)-en-28-oic acid butan-2-ol solvate'
_symmetry_cell_setting           orthorhombic
_symmetry_space_group_name_H-M   'P 2 21 21'
_symmetry_Int_Tables_number      18
_space_group_name_Hall           'P 2bc 2'
loop_
_symmetry_equiv_pos_site_id
_symmetry_equiv_pos_as_xyz
1 x,y,z
2 -x,1/2-y,1/2+z
3 x,-y,-z
4 -x,1/2+y,1/2-z
_cell_length_a                   7.097(2)
_cell_length_b                   12.320(4)
_cell_length_c                   37.047(12)
_cell_angle_alpha                90
_cell_angle_beta                 90
_cell_angle_gamma                90
_cell_volume                     3239.21
_exptl_crystal_colour            colorless
_exptl_crystal_description       Prism
_cell_formula_units_Z            4
loop_
_atom_site_label
_atom_site_type_symbol
_atom_site_fract_x
_atom_site_fract_y
_atom_site_fract_z
O1 O 0.6859(3) 0.17228(19) 0.88073(5)
H1 H 0.588(5) 0.212(3) 0.8880(12)
O2 O 0.600(3) -0.1953(12) 0.5989(11)
O3 O 0.8599(14) -0.1019(14) 0.5889(7)
H2 H 0.911(14) -0.173(4) 0.587(3)
C1 C 0.8737(4) 0.1685(2) 0.78614(6)
H3 H 1.0023 0.1747 0.7775
H4 H 0.8036 0.2299 0.7768
C2 C 0.8741(4) 0.1743(2) 0.82735(7)
H5 H 0.9559 0.1182 0.8369
H6 H 0.9234 0.2441 0.8350
C3 C 0.6781(4) 0.1596(2) 0.84216(6)
H7 H 0.5993 0.2181 0.8325
C4 C 0.5869(3) 0.0512(2) 0.83162(6)
C5 C 0.5930(3) 0.04519(17) 0.78977(6)
H8 H 0.5168 0.1072 0.7819
C6 C 0.4930(4) -0.05304(19) 0.77353(6)
H9 H 0.5731 -0.1165 0.7757
H10 H 0.3775 -0.0669 0.7868
C7 C 0.4473(3) -0.03358(19) 0.73406(6)
H11 H 0.3578 0.0257 0.7324
H12 H 0.3870 -0.0980 0.7244
C8 C 0.6210(3) -0.00632(17) 0.71067(6)
C9 C 0.7425(3) 0.08214(18) 0.72992(6)
H13 H 0.6643 0.1477 0.7294
C10 C 0.7872(3) 0.06317(18) 0.77098(6)
C11 C 0.9162(4) 0.1109(3) 0.70685(6)
H14 H 0.9846 0.1695 0.7184
H15 H 0.9992 0.0484 0.7058
C12 C 0.8647(4) 0.1453(2) 0.66833(6)
H16 H 0.8022 0.2153 0.6691
H17 H 0.9792 0.1534 0.6543
C13 C 0.7358(4) 0.0633(2) 0.64965(6)
H18 H 0.8055 -0.0053 0.6487
C14 C 0.5550(3) 0.04134(19) 0.67275(6)
C15 C 0.4218(4) -0.0395(2) 0.65315(6)
H19 H 0.4743 -0.1119 0.6554
H20 H 0.3013 -0.0393 0.6655
C16 C 0.3871(4) -0.0169(2) 0.61318(7)
H21 H 0.3167 -0.0765 0.6027
H22 H 0.3124 0.0486 0.6107
C17 C 0.5728(4) -0.0032(2) 0.59303(6)
C18 C 0.6818(4) 0.0906(2) 0.61081(6)
H23 H 0.5920 0.1508 0.6125
C19 C 0.8326(5) 0.1276(2) 0.58332(7)
H24 H 0.9512 0.0885 0.5872
C20 C 0.7442(6) 0.0959(3) 0.54638(8)
H25 H 0.7211 0.1605 0.5321
H26 H 0.8294 0.0490 0.5331
C21 C 0.5593(5) 0.0369(3) 0.55379(7)
H27 H 0.5439 -0.0238 0.5374
H28 H 0.4532 0.0858 0.5509
C22 C 0.864(4) 0.2488(11) 0.5846(7)
C23 C 1.039(5) 0.282(2) 0.5848(8)
H29 H 1.0661 0.3548 0.5817
H30 H 1.1356 0.2317 0.5879
C24 C 0.705(5) 0.3258(17) 0.5797(7)
H31 H 0.7521 0.3987 0.5786
H32 H 0.6190 0.3192 0.5997
H33 H 0.6395 0.3091 0.5577
C25 C 0.3788(4) 0.0573(3) 0.84360(7)
H34 H 0.3726 0.0784 0.8685
H35 H 0.3209 -0.0125 0.8406
H36 H 0.3136 0.1098 0.8291
C26 C 0.6799(5) -0.0439(2) 0.85100(7)
H37 H 0.6558 -0.0386 0.8764
H38 H 0.8133 -0.0422 0.8468
H39 H 0.6290 -0.1108 0.8420
C27 C 0.9301(4) -0.0285(2) 0.77735(7)
H40 H 1.0236 -0.0272 0.7586
H41 H 0.8660 -0.0972 0.7770
H42 H 0.9899 -0.0185 0.8003
C28 C 0.7318(4) -0.1128(2) 0.70525(7)
H43 H 0.7267 -0.1551 0.7270
H44 H 0.8606 -0.0962 0.6996
H45 H 0.6769 -0.1533 0.6858
C29 C 0.4410(4) 0.1475(2) 0.67727(7)
H46 H 0.4035 0.1738 0.6540
H47 H 0.5177 0.2010 0.6890
H48 H 0.3310 0.1335 0.6916
C30 C 0.6774(4) -0.1109(2) 0.59227(6)
O6 O 1.007(2) -0.3015(10) 0.5788(3)
H55 H 1.126(9) -0.309(10) 0.590(3)
C34 C 0.810(3) -0.3790(18) 0.5343(5)
H56 H 0.7513 -0.4262 0.5516
H57 H 0.8142 -0.4142 0.5112
H58 H 0.7393 -0.3129 0.5325
C35 C 1.012(2) -0.3530(11) 0.5467(3)
H59 H 1.0613 -0.4247 0.5532
C36 C 1.132(4) -0.321(2) 0.5191(5)
H60 H 1.0582 -0.3222 0.4970
H61 H 1.2264 -0.3770 0.5168
C37 C 1.231(4) -0.220(2) 0.5190(5)
H62 H 1.2469 -0.1957 0.4946
H63 H 1.3516 -0.2296 0.5301
H64 H 1.1596 -0.1671 0.5323
O4? O 0.604(3) -0.1987(15) 0.5924(12)
O5? O 0.852(2) -0.1092(17) 0.5819(11)
H49? H 0.8927 -0.1715 0.5808
C31? C 0.917(4) 0.2403(14) 0.5844(12)
C32? C 1.096(3) 0.268(2) 0.5827(8)
H50? H 1.1313 0.3399 0.5857
H51? H 1.1872 0.2151 0.5785
C33? C 0.777(5) 0.327(2) 0.5911(13)
H52? H 0.8268 0.3950 0.5828
H53? H 0.7518 0.3312 0.6165
H54? H 0.6630 0.3106 0.5784
O7? O 1.052(4) -0.2693(19) 0.5713(6)
H65? H 1.11(3) -0.287(12) 0.594(2)
C38? C 0.889(4) -0.329(3) 0.5203(4)
H66? H 0.8004 -0.3780 0.5312
H67? H 0.9154 -0.3520 0.4961
H68? H 0.8368 -0.2571 0.5199
C39? C 1.060(3) -0.329(3) 0.5409(6)
H69? H 1.0684 -0.4035 0.5498
C40? C 1.249(4) -0.305(3) 0.5292(5)
H70? H 1.2445 -0.2559 0.5089
H71? H 1.3166 -0.2700 0.5487
C41? C 1.346(5) -0.401(4) 0.5190(14)
H72? H 1.4514 -0.3825 0.5039
H73? H 1.2627 -0.4483 0.5059
H74? H 1.3913 -0.4379 0.5402
loop_
_geom_bond_atom_site_label_1
_geom_bond_atom_site_label_2
_geom_bond_site_symmetry_1
_geom_bond_site_symmetry_2
O1 H1 1_555 1_555
O2 C30 1_555 1_555
O3 H2 1_555 1_555
C1 H3 1_555 1_555
H4 C1 1_555 1_555
C2 C1 1_555 1_555
H5 C2 1_555 1_555
H6 C2 1_555 1_555
C3 O1 1_555 1_555
H7 C3 1_555 1_555
C4 C3 1_555 1_555
C5 C4 1_555 1_555
H8 C5 1_555 1_555
C6 C5 1_555 1_555
H9 C6 1_555 1_555
H10 C6 1_555 1_555
C7 C6 1_555 1_555
H11 C7 1_555 1_555
H12 C7 1_555 1_555
C8 C7 1_555 1_555
C9 C8 1_555 1_555
H13 C9 1_555 1_555
C10 C1 1_555 1_555
C11 C9 1_555 1_555
H14 C11 1_555 1_555
H15 C11 1_555 1_555
C12 C11 1_555 1_555
H16 C12 1_555 1_555
H17 C12 1_555 1_555
C13 C12 1_555 1_555
H18 C13 1_555 1_555
C14 C8 1_555 1_555
C15 C14 1_555 1_555
H19 C15 1_555 1_555
H20 C15 1_555 1_555
C16 C15 1_555 1_555
H21 C16 1_555 1_555
H22 C16 1_555 1_555
C17 C16 1_555 1_555
C18 C13 1_555 1_555
H23 C18 1_555 1_555
C19 C18 1_555 1_555
H24 C19 1_555 1_555
C20 C19 1_555 1_555
H25 C20 1_555 1_555
H26 C20 1_555 1_555
C21 C17 1_555 1_555
H27 C21 1_555 1_555
H28 C21 1_555 1_555
C22 C19 1_555 1_555
C23 C22 1_555 1_555
H29 C23 1_555 1_555
H30 C23 1_555 1_555
C24 C22 1_555 1_555
H31 C24 1_555 1_555
H32 C24 1_555 1_555
H33 C24 1_555 1_555
C25 C4 1_555 1_555
H34 C25 1_555 1_555
H35 C25 1_555 1_555
H36 C25 1_555 1_555
C26 C4 1_555 1_555
H37 C26 1_555 1_555
H38 C26 1_555 1_555
H39 C26 1_555 1_555
C27 C10 1_555 1_555
H40 C27 1_555 1_555
H41 C27 1_555 1_555
H42 C27 1_555 1_555
C28 C8 1_555 1_555
H43 C28 1_555 1_555
H44 C28 1_555 1_555
H45 C28 1_555 1_555
C29 C14 1_555 1_555
H46 C29 1_555 1_555
H47 C29 1_555 1_555
H48 C29 1_555 1_555
C30 O3 1_555 1_555
O6 H55 1_555 1_555
C34 H56 1_555 1_555
H57 C34 1_555 1_555
H58 C34 1_555 1_555
C35 O6 1_555 1_555
H59 C35 1_555 1_555
C36 C35 1_555 1_555
H60 C36 1_555 1_555
H61 C36 1_555 1_555
C37 C36 1_555 1_555
H62 C37 1_555 1_555
H63 C37 1_555 1_555
H64 C37 1_555 1_555
C2 C3 1_555 1_555
C5 C10 1_555 1_555
C9 C10 1_555 1_555
C13 C14 1_555 1_555
C17 C18 1_555 1_555
C17 C30 1_555 1_555
C20 C21 1_555 1_555
C34 C35 1_555 1_555

#END
