
#######################################################################
#
#                 Cambridge Crystallographic Data Centre
#                                CCDC 
#
#######################################################################
#
# If this CIF has been generated from an entry in the Cambridge 
# Structural Database, then it will include bibliographic, chemical, 
# crystal, experimental, refinement or atomic coordinate data resulting 
# from the CCDC's data processing and validation procedures.
#
#######################################################################

data_LIXQEQ
_chemical_compound_source        'birch bark'
_chemical_formula_moiety         'C30 H48 O3,1.5(C1 H4 O1)'
_chemical_name_systematic        
'3\b-Hydroxylup-20(29)-en-28-oic acid methanol solvate'
_symmetry_cell_setting           triclinic
_symmetry_space_group_name_H-M   'P 1'
_symmetry_Int_Tables_number      1
_space_group_name_Hall           'P 1'
loop_
_symmetry_equiv_pos_site_id
_symmetry_equiv_pos_as_xyz
1 x,y,z
_cell_length_a                   7.123(5)
_cell_length_b                   12.370(7)
_cell_length_c                   17.286(8)
_cell_angle_alpha                78.286(14)
_cell_angle_beta                 87.28(5)
_cell_angle_gamma                89.28(4)
_cell_volume                     1489.69
_exptl_crystal_colour            colorless
_exptl_crystal_description       Prism
_cell_formula_units_Z            2
loop_
_atom_site_label
_atom_site_type_symbol
_atom_site_fract_x
_atom_site_fract_y
_atom_site_fract_z
O1 O -0.0389(4) 1.0969(2) 0.50364(13)
H1 H 0.069(8) 1.137(5) 0.488(3)
O2 O -0.0332(5) 0.5426(2) 1.1366(2)
O3 O -0.2965(4) 0.6296(2) 1.1482(2)
H2 H -0.359(6) 0.556(4) 1.148(4)
C1 C -0.2604(4) 1.0251(2) 0.70885(17)
H3 H -0.3918 1.0244 0.7265
H4 H -0.1975 1.0801 0.7311
C2 C -0.2460(5) 1.0591(2) 0.61848(18)
H5 H -0.3204 1.0092 0.5958
H6 H -0.2966 1.1330 0.6023
C3 C -0.0458(4) 1.0566(2) 0.58783(16)
H7 H 0.0254 1.1081 0.6113
C4 C 0.0486(4) 0.9420(2) 0.60986(16)
C5 C 0.0268(4) 0.90718(18) 0.70150(14)
H8 H 0.0970 0.9633 0.7207
C6 C 0.1257(4) 0.7982(2) 0.73609(16)
H9 H 0.0490 0.7364 0.7302
H10 H 0.2454 0.7936 0.7077
C7 C 0.1578(4) 0.7925(2) 0.82367(16)
H11 H 0.2434 0.8509 0.8284
H12 H 0.2176 0.7226 0.8450
C8 C -0.0244(4) 0.80349(18) 0.87392(15)
C9 C -0.1454(4) 0.90253(19) 0.83185(15)
H13 H -0.0719 0.9681 0.8342
C10 C -0.1736(4) 0.91083(19) 0.74101(15)
C11 C -0.3271(4) 0.9146(3) 0.88063(17)
H14 H -0.3961 0.9786 0.8543
H15 H -0.4050 0.8501 0.8831
C12 C -0.2901(4) 0.9273(2) 0.96494(17)
H16 H -0.4088 0.9262 0.9950
H17 H -0.2310 0.9981 0.9630
C13 C -0.1623(4) 0.8342(2) 1.00704(16)
H18 H -0.2288 0.7647 1.0095
C14 C 0.0248(4) 0.82730(19) 0.95803(15)
C15 C 0.1522(4) 0.7348(2) 1.00199(18)
H19 H 0.1007 0.6640 0.9980
H20 H 0.2756 0.7411 0.9752
C16 C 0.1758(5) 0.7353(3) 1.09005(19)
H21 H 0.2447 0.6700 1.1142
H22 H 0.2475 0.7996 1.0947
C17 C -0.0149(5) 0.7374(2) 1.13310(17)
C18 C -0.1224(4) 0.8404(2) 1.09182(16)
H23 H -0.0355 0.9023 1.0877
C19 C -0.2838(5) 0.8611(2) 1.15042(16)
H24 H -0.3932 0.8180 1.1425
C20 C -0.3455(6) 0.9783(3) 1.14693(18)
C21 C -0.2069(6) 0.8106(3) 1.2329(2)
H25 H -0.1933 0.8677 1.2633
H26 H -0.2928 0.7551 1.2621
C22 C -0.0160(6) 0.7585(3) 1.21867(19)
H27 H -0.0005 0.6897 1.2564
H28 H 0.0850 0.8080 1.2239
C23 C 0.2573(5) 0.9569(3) 0.58509(19)
H29 H 0.2703 0.9929 0.5304
H30 H 0.3176 0.8859 0.5923
H31 H 0.3150 1.0011 0.6170
C24 C -0.0324(5) 0.8609(3) 0.56442(19)
H32 H -0.0103 0.8880 0.5087
H33 H -0.1652 0.8535 0.5764
H34 H 0.0273 0.7903 0.5796
C25 C -0.3097(5) 0.8236(3) 0.72463(18)
H35 H -0.3654 0.8501 0.6748
H36 H -0.4066 0.8099 0.7659
H37 H -0.2422 0.7564 0.7230
C26 C -0.1299(5) 0.6920(2) 0.88429(18)
H38 H -0.1176 0.6652 0.8359
H39 H -0.2604 0.7028 0.8972
H40 H -0.0767 0.6392 0.9262
C27 C 0.1372(4) 0.9361(2) 0.94860(17)
H41 H 0.1651 0.9485 0.9999
H42 H 0.0638 0.9965 0.9216
H43 H 0.2524 0.9305 0.9184
C28 C -0.1128(5) 0.6275(2) 1.13776(17)
C29 C -0.2275(10) 1.0669(4) 1.1274(4)
H44 H -0.2725 1.1374 1.1289
H45 H -0.1023 1.0567 1.1127
C30 C -0.5357(8) 0.9966(4) 1.1691(4)
H46 H -0.5581 1.0744 1.1636
H47 H -0.5611 0.9603 1.2231
H48 H -0.6166 0.9673 1.1355
O4 O 0.2578(4) 0.4206(2) 1.08391(14)
H49 H 0.156(6) 0.450(5) 1.103(3)
O5 O 0.2621(4) 0.23574(19) 0.44889(19)
O6 O 0.5194(4) 0.33080(19) 0.43420(19)
H50 H 0.566(9) 0.259(3) 0.433(4)
C31 C 0.4719(5) 0.4762(2) 0.87606(18)
H51 H 0.6024 0.4874 0.8577
H52 H 0.4038 0.5434 0.8553
C32 C 0.4604(5) 0.4561(3) 0.96633(19)
H53 H 0.5399 0.3938 0.9874
H54 H 0.5069 0.5205 0.9832
C33 C 0.2619(5) 0.4330(2) 0.99905(17)
H55 H 0.1861 0.4981 0.9782
C34 C 0.1724(4) 0.3336(2) 0.97482(16)
C35 C 0.1927(4) 0.35299(19) 0.88271(15)
H56 H 0.1190 0.4201 0.8647
C36 C 0.0981(4) 0.2653(2) 0.84699(17)
H57 H 0.1775 0.2001 0.8521
H58 H -0.0209 0.2441 0.8754
C37 C 0.0648(4) 0.3105(2) 0.75995(16)
H59 H -0.0228 0.3719 0.7560
H60 H 0.0066 0.2534 0.7382
C38 C 0.2444(4) 0.34976(18) 0.70983(15)
C39 C 0.3602(4) 0.42532(18) 0.75200(15)
H61 H 0.2827 0.4917 0.7503
C40 C 0.3918(4) 0.3809(2) 0.84248(16)
C41 C 0.5395(4) 0.4660(3) 0.70280(17)
H62 H 0.6213 0.4033 0.7004
H63 H 0.6052 0.5157 0.7289
C42 C 0.4996(5) 0.5260(2) 0.61810(17)
H64 H 0.4367 0.5955 0.6199
H65 H 0.6176 0.5423 0.5878
C43 C 0.3775(4) 0.4568(2) 0.57696(15)
H66 H 0.4478 0.3888 0.5748
C44 C 0.1914(4) 0.42165(18) 0.62571(15)
C45 C 0.0688(4) 0.3527(2) 0.58183(17)
H67 H 0.1248 0.2800 0.5861
H68 H -0.0545 0.3433 0.6086
C46 C 0.0439(4) 0.4020(2) 0.49409(18)
H69 H -0.0214 0.3496 0.4703
H70 H -0.0323 0.4684 0.4892
C47 C 0.2325(4) 0.4297(2) 0.45062(16)
C48 C 0.3361(4) 0.5109(2) 0.49087(16)
H71 H 0.2460 0.5703 0.4947
C49 C 0.4928(5) 0.5640(2) 0.43236(17)
H72 H 0.6048 0.5169 0.4398
C50 C 0.5465(6) 0.6794(2) 0.43670(19)
C51 C 0.4133(6) 0.5601(3) 0.3499(2)
H73 H 0.3934 0.6344 0.3202
H74 H 0.5016 0.5228 0.3197
C52 C 0.2280(6) 0.4978(3) 0.36475(18)
H75 H 0.2169 0.4494 0.3275
H76 H 0.1227 0.5489 0.3594
C53 C -0.0362(5) 0.3343(3) 0.9999(2)
H77 H -0.0497 0.3436 1.0537
H78 H -0.0919 0.2656 0.9956
H79 H -0.0980 0.3940 0.9662
C54 C 0.2590(6) 0.2247(3) 1.01728(19)
H80 H 0.2150 0.2091 1.0718
H81 H 0.3935 0.2309 1.0142
H82 H 0.2227 0.1659 0.9924
C55 C 0.5334(5) 0.2844(3) 0.85782(18)
H83 H 0.5891 0.2820 0.9076
H84 H 0.6299 0.2950 0.8163
H85 H 0.4694 0.2162 0.8591
C56 C 0.3581(5) 0.2457(2) 0.69848(18)
H86 H 0.3588 0.1935 0.7478
H87 H 0.4848 0.2665 0.6809
H88 H 0.3009 0.2128 0.6597
C57 C 0.0739(4) 0.5243(2) 0.63519(17)
H89 H 0.0442 0.5656 0.5840
H90 H 0.1447 0.5698 0.6620
H91 H -0.0403 0.5013 0.6655
C58 C 0.3385(5) 0.3228(2) 0.44610(16)
C59 C 0.7274(8) 0.7060(4) 0.4388(3)
H92 H 0.7608 0.7788 0.4377
H93 H 0.8197 0.6518 0.4412
C60 C 0.3930(11) 0.7624(3) 0.4327(5)
H94 H 0.4445 0.8327 0.4357
H95 H 0.3036 0.7397 0.4762
H96 H 0.3316 0.7685 0.3838
O7 O 0.6929(4) 0.15903(19) 0.40295(16)
H97 H 0.792(7) 0.138(5) 0.434(3)
C61 C 0.6055(7) 0.0688(4) 0.3832(3)
H98 H 0.5428 0.0260 0.4296
H99 H 0.6982 0.0239 0.3625
H100 H 0.5153 0.0945 0.3440
O8 O 0.5367(6) 0.4416(2) 0.1752(2)
H101 H 0.442(10) 0.443(5) 0.137(4)
C62 C 0.6181(11) 0.3450(4) 0.2109(4)
H102 H 0.7423 0.3595 0.2254
H103 H 0.6254 0.2951 0.1749
H104 H 0.5439 0.3124 0.2574
O9 O 1.102(2) 0.038(2) 0.3154(10)
H105 H 1.2092 0.0193 0.3277
C63 C 1.095(3) 0.169(2) 0.2829(10)
H106 H 0.9838 0.1985 0.3043
H107 H 1.0933 0.1837 0.2263
H108 H 1.2040 0.2019 0.2988
loop_
_geom_bond_atom_site_label_1
_geom_bond_atom_site_label_2
_geom_bond_site_symmetry_1
_geom_bond_site_symmetry_2
O1 H1 1_555 1_555
O2 C28 1_555 1_555
O3 H2 1_555 1_555
C1 H3 1_555 1_555
H4 C1 1_555 1_555
C2 C1 1_555 1_555
H5 C2 1_555 1_555
H6 C2 1_555 1_555
C3 O1 1_555 1_555
H7 C3 1_555 1_555
C4 C3 1_555 1_555
C5 C4 1_555 1_555
H8 C5 1_555 1_555
C6 C5 1_555 1_555
H9 C6 1_555 1_555
H10 C6 1_555 1_555
C7 C6 1_555 1_555
H11 C7 1_555 1_555
H12 C7 1_555 1_555
C8 C7 1_555 1_555
C9 C8 1_555 1_555
H13 C9 1_555 1_555
C10 C1 1_555 1_555
C11 C9 1_555 1_555
H14 C11 1_555 1_555
H15 C11 1_555 1_555
C12 C11 1_555 1_555
H16 C12 1_555 1_555
H17 C12 1_555 1_555
C13 C12 1_555 1_555
H18 C13 1_555 1_555
C14 C8 1_555 1_555
C15 C14 1_555 1_555
H19 C15 1_555 1_555
H20 C15 1_555 1_555
C16 C15 1_555 1_555
H21 C16 1_555 1_555
H22 C16 1_555 1_555
C17 C16 1_555 1_555
C18 C13 1_555 1_555
H23 C18 1_555 1_555
C19 C18 1_555 1_555
H24 C19 1_555 1_555
C20 C19 1_555 1_555
C21 C19 1_555 1_555
H25 C21 1_555 1_555
H26 C21 1_555 1_555
C22 C17 1_555 1_555
H27 C22 1_555 1_555
H28 C22 1_555 1_555
C23 C4 1_555 1_555
H29 C23 1_555 1_555
H30 C23 1_555 1_555
H31 C23 1_555 1_555
C24 C4 1_555 1_555
H32 C24 1_555 1_555
H33 C24 1_555 1_555
H34 C24 1_555 1_555
C25 C10 1_555 1_555
H35 C25 1_555 1_555
H36 C25 1_555 1_555
H37 C25 1_555 1_555
C26 C8 1_555 1_555
H38 C26 1_555 1_555
H39 C26 1_555 1_555
H40 C26 1_555 1_555
C27 C14 1_555 1_555
H41 C27 1_555 1_555
H42 C27 1_555 1_555
H43 C27 1_555 1_555
C28 O3 1_555 1_555
C29 C20 1_555 1_555
H44 C29 1_555 1_555
H45 C29 1_555 1_555
C30 C20 1_555 1_555
H46 C30 1_555 1_555
H47 C30 1_555 1_555
H48 C30 1_555 1_555
O4 H49 1_555 1_555
O5 C58 1_555 1_555
O6 H50 1_555 1_555
C31 H51 1_555 1_555
H52 C31 1_555 1_555
C32 C31 1_555 1_555
H53 C32 1_555 1_555
H54 C32 1_555 1_555
C33 O4 1_555 1_555
H55 C33 1_555 1_555
C34 C33 1_555 1_555
C35 C34 1_555 1_555
H56 C35 1_555 1_555
C36 C35 1_555 1_555
H57 C36 1_555 1_555
H58 C36 1_555 1_555
C37 C36 1_555 1_555
H59 C37 1_555 1_555
H60 C37 1_555 1_555
C38 C37 1_555 1_555
C39 C38 1_555 1_555
H61 C39 1_555 1_555
C40 C31 1_555 1_555
C41 C39 1_555 1_555
H62 C41 1_555 1_555
H63 C41 1_555 1_555
C42 C41 1_555 1_555
H64 C42 1_555 1_555
H65 C42 1_555 1_555
C43 C42 1_555 1_555
H66 C43 1_555 1_555
C44 C38 1_555 1_555
C45 C44 1_555 1_555
H67 C45 1_555 1_555
H68 C45 1_555 1_555
C46 C45 1_555 1_555
H69 C46 1_555 1_555
H70 C46 1_555 1_555
C47 C46 1_555 1_555
C48 C43 1_555 1_555
H71 C48 1_555 1_555
C49 C48 1_555 1_555
H72 C49 1_555 1_555
C50 C49 1_555 1_555
C51 C49 1_555 1_555
H73 C51 1_555 1_555
H74 C51 1_555 1_555
C52 C47 1_555 1_555
H75 C52 1_555 1_555
H76 C52 1_555 1_555
C53 C34 1_555 1_555
H77 C53 1_555 1_555
H78 C53 1_555 1_555
H79 C53 1_555 1_555
C54 C34 1_555 1_555
H80 C54 1_555 1_555
H81 C54 1_555 1_555
H82 C54 1_555 1_555
C55 C40 1_555 1_555
H83 C55 1_555 1_555
H84 C55 1_555 1_555
H85 C55 1_555 1_555
C56 C38 1_555 1_555
H86 C56 1_555 1_555
H87 C56 1_555 1_555
H88 C56 1_555 1_555
C57 C44 1_555 1_555
H89 C57 1_555 1_555
H90 C57 1_555 1_555
H91 C57 1_555 1_555
C58 O6 1_555 1_555
C59 C50 1_555 1_555
H92 C59 1_555 1_555
H93 C59 1_555 1_555
C60 C50 1_555 1_555
H94 C60 1_555 1_555
H95 C60 1_555 1_555
H96 C60 1_555 1_555
O7 H97 1_555 1_555
C61 O7 1_555 1_555
H98 C61 1_555 1_555
H99 C61 1_555 1_555
H100 C61 1_555 1_555
O8 H101 1_555 1_555
C62 O8 1_555 1_555
H102 C62 1_555 1_555
H103 C62 1_555 1_555
H104 C62 1_555 1_555
O9 H105 1_555 1_555
C63 O9 1_555 1_555
H106 C63 1_555 1_555
H107 C63 1_555 1_555
H108 C63 1_555 1_555
C2 C3 1_555 1_555
C5 C10 1_555 1_555
C9 C10 1_555 1_555
C13 C14 1_555 1_555
C17 C18 1_555 1_555
C17 C28 1_555 1_555
C21 C22 1_555 1_555
C32 C33 1_555 1_555
C35 C40 1_555 1_555
C39 C40 1_555 1_555
C43 C44 1_555 1_555
C47 C48 1_555 1_555
C47 C58 1_555 1_555
C51 C52 1_555 1_555

#END
