
#######################################################################
#
#                 Cambridge Crystallographic Data Centre
#                                CCDC 
#
#######################################################################
#
# If this CIF has been generated from an entry in the Cambridge 
# Structural Database, then it will include bibliographic, chemical, 
# crystal, experimental, refinement or atomic coordinate data resulting 
# from the CCDC's data processing and validation procedures.
#
#######################################################################

data_LIXRIU
_chemical_formula_moiety         'C8 H9 F3 N6 O1'
_chemical_name_systematic        
2,2,2-Trifluoro-1,1-bis(1-methyl-1H-1,2,4-triazol-5-yl)ethanol
_symmetry_cell_setting           monoclinic
_symmetry_space_group_name_H-M   'P 21/n'
_symmetry_Int_Tables_number      14
_space_group_name_Hall           '-P 2yn'
loop_
_symmetry_equiv_pos_site_id
_symmetry_equiv_pos_as_xyz
1 x,y,z
2 1/2-x,1/2+y,1/2-z
3 -x,-y,-z
4 1/2+x,1/2-y,1/2+z
_cell_length_a                   9.6712(3)
_cell_length_b                   10.3909(3)
_cell_length_c                   11.4583(4)
_cell_angle_alpha                90
_cell_angle_beta                 100.099(3)
_cell_angle_gamma                90
_cell_volume                     1133.63
_exptl_crystal_colour            colorless
_exptl_crystal_description       block
_chemical_melting_point          '166-168 deg.C'
_cell_formula_units_Z            4
loop_
_atom_site_label
_atom_site_type_symbol
_atom_site_fract_x
_atom_site_fract_y
_atom_site_fract_z
F1 F 0.32596(13) 0.39463(13) 0.01515(11)
F2 F 0.18677(14) 0.23679(12) 0.02825(10)
F3 F 0.11796(12) 0.43130(12) 0.04779(10)
N1 N 0.19309(16) 0.29450(18) 0.39335(13)
N2 N 0.07288(17) 0.25400(19) 0.42774(16)
N3 N 0.04424(15) 0.26566(14) 0.22923(13)
N4 N 0.39538(15) 0.12999(13) 0.24411(14)
N5 N 0.62199(15) 0.17530(15) 0.24404(14)
N6 N 0.54323(14) 0.28401(13) 0.22587(13)
O1 O 0.33270(14) 0.47014(12) 0.24388(12)
H1 H 0.262(2) 0.514(2) 0.2517(17)
C1 C -0.0120(2) 0.23870(18) 0.32703(18)
H2 H -0.1043 0.2113 0.3225
C2 C 0.17359(17) 0.30034(16) 0.27479(15)
C3 C 0.28516(17) 0.34721(16) 0.20698(15)
C4 C 0.40821(17) 0.25513(15) 0.22613(15)
C5 C 0.52945(19) 0.08752(18) 0.25457(17)
H3 H 0.5535 0.0015 0.2683
C6 C 0.2264(2) 0.35126(19) 0.07286(17)
C7 C 0.3168(3) 0.3196(4) 0.4825(2)
H4 H 0.3652 0.3937 0.4597
H5 H 0.3782 0.2464 0.4890
H6 H 0.2889 0.3354 0.5575
C8 C 0.6130(2) 0.4047(2) 0.2074(2)
H7 H 0.6603 0.4373 0.2822
H8 H 0.5445 0.4663 0.1714
H9 H 0.6802 0.3902 0.1563
loop_
_geom_bond_atom_site_label_1
_geom_bond_atom_site_label_2
_geom_bond_site_symmetry_1
_geom_bond_site_symmetry_2
F1 C6 1_555 1_555
F2 C6 1_555 1_555
F3 C6 1_555 1_555
N1 N2 1_555 1_555
N2 C1 1_555 1_555
N3 C1 1_555 1_555
N4 C4 1_555 1_555
N5 N6 1_555 1_555
N6 C4 1_555 1_555
O1 H1 1_555 1_555
C1 H2 1_555 1_555
C2 N1 1_555 1_555
C3 O1 1_555 1_555
C4 C3 1_555 1_555
C5 N4 1_555 1_555
H3 C5 1_555 1_555
C6 C3 1_555 1_555
C7 N1 1_555 1_555
H4 C7 1_555 1_555
H5 C7 1_555 1_555
H6 C7 1_555 1_555
C8 N6 1_555 1_555
H7 C8 1_555 1_555
H8 C8 1_555 1_555
H9 C8 1_555 1_555
N3 C2 1_555 1_555
N5 C5 1_555 1_555
C2 C3 1_555 1_555

#END
