
#######################################################################
#
#                 Cambridge Crystallographic Data Centre
#                                CCDC 
#
#######################################################################
#
# If this CIF has been generated from an entry in the Cambridge 
# Structural Database, then it will include bibliographic, chemical, 
# crystal, experimental, refinement or atomic coordinate data resulting 
# from the CCDC's data processing and validation procedures.
#
#######################################################################

data_LIXSAN
_chemical_formula_moiety         'C27 H28 N2 O4'
_chemical_name_systematic        
3,5,5-Triphenyl-2-(t-butoxycarbonyl)-4-nitropyrrolidine
_symmetry_cell_setting           monoclinic
_symmetry_space_group_name_H-M   'P 21/n'
_symmetry_Int_Tables_number      14
_space_group_name_Hall           '-P 2yn'
loop_
_symmetry_equiv_pos_site_id
_symmetry_equiv_pos_as_xyz
1 x,y,z
2 1/2-x,1/2+y,1/2-z
3 -x,-y,-z
4 1/2+x,1/2-y,1/2+z
_cell_length_a                   13.033(2)
_cell_length_b                   11.501(2)
_cell_length_c                   16.485(2)
_cell_angle_alpha                90
_cell_angle_beta                 96.97(1)
_cell_angle_gamma                90
_cell_volume                     2452.72
_chemical_melting_point          '110-111 deg.C'
_cell_formula_units_Z            4
loop_
_atom_site_label
_atom_site_type_symbol
_atom_site_fract_x
_atom_site_fract_y
_atom_site_fract_z
O1 O 0.43880(9) 0.21265(10) 0.63293(7)
O2 O 0.49907(10) 0.38601(11) 0.63457(8)
O3 O 0.04495(9) 0.17890(11) 0.59185(7)
O4 O 0.18009(11) 0.05958(12) 0.60759(10)
N1 N 0.26762(10) 0.18076(11) 0.48823(8)
N2 N 0.43480(9) 0.31387(12) 0.61089(7)
C1 C 0.33676(10) 0.27578(12) 0.47143(8)
C2 C 0.34484(10) 0.35192(12) 0.55109(8)
H1 H 0.3508 0.4345 0.5378
C3 C 0.24427(10) 0.32893(12) 0.58929(8)
H2 H 0.2639 0.2923 0.6426
C4 C 0.18886(11) 0.23431(12) 0.53158(8)
H3 H 0.1365 0.2713 0.4922
C5 C 0.44037(11) 0.23262(12) 0.44940(8)
C6 C 0.45500(13) 0.11860(14) 0.42724(9)
H4 H 0.4008 0.0658 0.4261
C7 C 0.54974(15) 0.08211(17) 0.40666(11)
H5 H 0.5582 0.0053 0.3912
C8 C 0.63095(14) 0.15748(18) 0.40875(11)
H6 H 0.6947 0.1320 0.3959
C9 C 0.61742(13) 0.27104(17) 0.42994(11)
H7 H 0.6721 0.3232 0.4311
C10 C 0.52329(11) 0.30824(14) 0.44945(10)
H8 H 0.5150 0.3859 0.4630
C11 C 0.28342(10) 0.34723(13) 0.39888(8)
C12 C 0.30674(12) 0.46268(14) 0.38655(9)
H9 H 0.3553 0.5000 0.4236
C13 C 0.25930(15) 0.52356(18) 0.32032(11)
H10 H 0.2764 0.6010 0.3128
C14 C 0.18715(16) 0.4700(2) 0.26561(12)
H11 H 0.1538 0.5115 0.2217
C15 C 0.16423(14) 0.3553(2) 0.27573(11)
H12 H 0.1160 0.3184 0.2381
C16 C 0.21241(12) 0.29371(17) 0.34173(9)
H13 H 0.1969 0.2155 0.3477
C17 C 0.18512(11) 0.43819(14) 0.60393(9)
C18 C 0.14074(12) 0.50738(15) 0.54121(11)
H14 H 0.1433 0.4844 0.4874
C19 C 0.09240(14) 0.61058(17) 0.55693(16)
H15 H 0.0634 0.6568 0.5139
C20 C 0.08738(19) 0.6443(2) 0.6353(2)
H16 H 0.0545 0.7134 0.6460
C21 C 0.1304(2) 0.5769(3) 0.69792(18)
H17 H 0.1274 0.6005 0.7515
C22 C 0.17842(17) 0.47385(19) 0.68279(12)
H18 H 0.2066 0.4279 0.7263
C23 C 0.13798(12) 0.14540(14) 0.58074(9)
C24 C -0.01970(15) 0.11914(17) 0.64719(12)
C25 C 0.0262(8) 0.1413(8) 0.7330(3)
H19 H 0.0907 0.1004 0.7438
H20 H -0.0204 0.1145 0.7698
H21 H 0.0380 0.2231 0.7408
C26 C -0.0239(7) -0.0091(3) 0.6314(5)
H22 H -0.0427 -0.0228 0.5741
H23 H -0.0744 -0.0439 0.6616
H24 H 0.0427 -0.0427 0.6483
C27 C -0.1252(4) 0.1705(13) 0.6213(8)
H25 H -0.1246 0.2517 0.6348
H26 H -0.1757 0.1312 0.6492
H27 H -0.1425 0.1612 0.5633
H28 H 0.3025(13) 0.1288(14) 0.5192(10)
C28? C 0.0477(10) 0.0862(18) 0.7238(5)
H29? H 0.0924 0.0235 0.7125
H30? H 0.0053 0.0621 0.7645
H31? H 0.0887 0.1520 0.7437
C29? C -0.0725(12) 0.0181(13) 0.6032(11)
H32? H -0.1027 0.0422 0.5499
H33? H -0.1257 -0.0105 0.6335
H34? H -0.0231 -0.0425 0.5981
C30? C -0.0808(12) 0.2172(6) 0.6783(11)
H35? H -0.0345 0.2776 0.6998
H36? H -0.1188 0.1888 0.7206
H37? H -0.1282 0.2476 0.6342
loop_
_geom_bond_atom_site_label_1
_geom_bond_atom_site_label_2
_geom_bond_site_symmetry_1
_geom_bond_site_symmetry_2
O1 N2 1_555 1_555
O2 N2 1_555 1_555
O3 C23 1_555 1_555
O4 C23 1_555 1_555
N1 C1 1_555 1_555
N2 C2 1_555 1_555
C1 C2 1_555 1_555
C2 H1 1_555 1_555
C3 C2 1_555 1_555
H2 C3 1_555 1_555
C4 N1 1_555 1_555
H3 C4 1_555 1_555
C5 C1 1_555 1_555
C6 C5 1_555 1_555
H4 C6 1_555 1_555
C7 C6 1_555 1_555
H5 C7 1_555 1_555
C8 C7 1_555 1_555
H6 C8 1_555 1_555
C9 C8 1_555 1_555
H7 C9 1_555 1_555
C10 C5 1_555 1_555
H8 C10 1_555 1_555
C11 C1 1_555 1_555
C12 C11 1_555 1_555
H9 C12 1_555 1_555
C13 C12 1_555 1_555
H10 C13 1_555 1_555
C14 C13 1_555 1_555
H11 C14 1_555 1_555
C15 C14 1_555 1_555
H12 C15 1_555 1_555
C16 C11 1_555 1_555
H13 C16 1_555 1_555
C17 C3 1_555 1_555
C18 C17 1_555 1_555
H14 C18 1_555 1_555
C19 C18 1_555 1_555
H15 C19 1_555 1_555
C20 C19 1_555 1_555
H16 C20 1_555 1_555
C21 C20 1_555 1_555
H17 C21 1_555 1_555
C22 C17 1_555 1_555
H18 C22 1_555 1_555
C23 C4 1_555 1_555
C24 O3 1_555 1_555
C25 C24 1_555 1_555
H19 C25 1_555 1_555
H20 C25 1_555 1_555
H21 C25 1_555 1_555
C26 C24 1_555 1_555
H22 C26 1_555 1_555
H23 C26 1_555 1_555
H24 C26 1_555 1_555
C27 C24 1_555 1_555
H25 C27 1_555 1_555
H26 C27 1_555 1_555
H27 C27 1_555 1_555
H28 N1 1_555 1_555
C3 C4 1_555 1_555
C9 C10 1_555 1_555
C15 C16 1_555 1_555
C21 C22 1_555 1_555

#END
