
#######################################################################
#
#                 Cambridge Crystallographic Data Centre
#                                CCDC 
#
#######################################################################
#
# If this CIF has been generated from an entry in the Cambridge 
# Structural Database, then it will include bibliographic, chemical, 
# crystal, experimental, refinement or atomic coordinate data resulting 
# from the CCDC's data processing and validation procedures.
#
#######################################################################

data_LIYQIV
_chemical_formula_moiety         'C66 H76 N4 O16'
_chemical_name_systematic        
"octaethyl 2,2',2'',2'''-(7,7,23,23-tetramethyl-34,35,37,38-tetraazaheptacyclo[27.3.1.1^3,6^.1^8,11^.1^13,17^.1^19,22^.1^24,27^]octatriaconta-1(33),3,5,8,10,13(36),14,16,19,21,24,26,29,31-tetradecaene-2,18-diyl-12,28-diylidene)tetramalonate"
_symmetry_cell_setting           monoclinic
_symmetry_space_group_name_H-M   'P 21/n'
_symmetry_Int_Tables_number      14
_space_group_name_Hall           '-P 2yn'
loop_
_symmetry_equiv_pos_site_id
_symmetry_equiv_pos_as_xyz
1 x,y,z
2 1/2-x,1/2+y,1/2-z
3 -x,-y,-z
4 1/2+x,1/2-y,1/2+z
_cell_length_a                   12.3538(10)
_cell_length_b                   13.2468(11)
_cell_length_c                   19.3848(16)
_cell_angle_alpha                90
_cell_angle_beta                 93.400(2)
_cell_angle_gamma                90
_cell_volume                     3166.71
_exptl_crystal_colour            brown
_exptl_crystal_description       rod
_cell_formula_units_Z            2
_chemical_properties_physical    Photo-sensitive
_exptl_crystal_recrystallization_method 'methylene chloride/hexanes'
loop_
_atom_site_label
_atom_site_type_symbol
_atom_site_fract_x
_atom_site_fract_y
_atom_site_fract_z
C1 C 0.2296(3) 0.7175(3) -0.0916(3)
C2 C 0.2912(3) 0.8023(3) -0.1231(2)
C3 C 0.3436(3) 0.8076(3) -0.1831(2)
H1 H 0.3513 0.7554 -0.2145
C4 C 0.3839(3) 0.9066(3) -0.1890(2)
H2 H 0.4231 0.9305 -0.2251
C5 C 0.3565(3) 0.9613(3) -0.13363(19)
C6 C 0.3739(3) 1.0724(3) -0.11560(19)
C7 C 0.3427(3) 1.0945(2) -0.0441(2)
C8 C 0.4004(3) 1.1173(2) 0.0151(2)
H3 H 0.4751 1.1271 0.0195
C9 C 0.3287(3) 1.1239(2) 0.06964(19)
H4 H 0.3479 1.1375 0.1158
C10 C 0.2263(3) 1.1065(2) 0.04166(19)
C11 C 0.1191(2) 1.0909(2) 0.07317(16)
H5 H 0.0707 1.0585 0.0379
C12 C 0.0617(3) 1.1851(2) 0.09659(16)
C13 C 0.1153(3) 1.2600(3) 0.13494(16)
H6 H 0.1901 1.2559 0.1434
C14 C 0.0594(3) 1.3408(3) 0.16096(18)
H7 H 0.0962 1.3899 0.1874
C15 C -0.0520(3) 1.3482(3) 0.14724(19)
H8 H -0.0892 1.4028 0.1645
C16 C -0.1086(3) 1.2759(3) 0.1085(2)
C17 C -0.0489(3) 1.1955(3) 0.08363(17)
H9 H -0.0855 1.1465 0.0570
C18 C 0.2692(4) 0.6552(5) -0.0548(4)
C19 C 0.3879(5) 0.6438(5) -0.0329(5)
C20 C 0.5645(3) 0.6071(3) -0.0647(2)
H10 H 0.5789 0.5519 -0.0326
H11 H 0.5896 0.6691 -0.0424
C21 C 0.6226(4) 0.5904(4) -0.1274(3)
H12 H 0.6094 0.5228 -0.1438
H13 H 0.6989 0.5998 -0.1173
H14 H 0.5974 0.6376 -0.1624
C22 C 0.2103(5) 0.5636(6) -0.0261(4)
C23 C 0.1571(5) 0.3932(5) -0.0372(3)
H15 H 0.2102 0.3480 -0.0150
H16 H 0.1087 0.4146 -0.0024
C24 C 0.0993(5) 0.3414(5) -0.0861(3)
H17 H 0.0482 0.3858 -0.1099
H18 H 0.0610 0.2876 -0.0650
H19 H 0.1472 0.3138 -0.1184
C25 C 0.4948(3) 1.0992(3) -0.12235(19)
H20 H 0.5054 1.1701 -0.1144
H21 H 0.5153 1.0825 -0.1680
H22 H 0.5387 1.0615 -0.0889
C26 C 0.3052(3) 1.1370(3) -0.16813(19)
H23 H 0.2299 1.1212 -0.1649
H24 H 0.3262 1.1227 -0.2140
H25 H 0.3170 1.2073 -0.1581
C27 C 0.1344(2) 1.0151(2) 0.13441(16)
H26 H 0.1824 1.0453 0.1708
C28 C 0.1813(3) 0.9153(3) 0.1132(2)
C29 C 0.2446(4) 0.7579(3) 0.1581(3)
H27 H 0.2337 0.7409 0.1095
H28 H 0.3216 0.7533 0.1707
C30 C 0.1888(5) 0.6889(4) 0.1972(3)
H29 H 0.1941 0.7090 0.2449
H30 H 0.2201 0.6230 0.1928
H31 H 0.1140 0.6872 0.1808
C31 C 0.0250(3) 0.9960(3) 0.1623(2)
C32 C -0.0922(3) 1.0322(3) 0.25107(19)
H32 H -0.1489 1.0449 0.2154
H33 H -0.1029 0.9655 0.2701
C33 C -0.0945(4) 1.1081(3) 0.3050(2)
H34 H -0.0341 1.0982 0.3377
H35 H -0.1609 1.1022 0.3280
H36 H -0.0902 1.1741 0.2848
N1 N 0.2997(2) 0.8963(2) -0.09342(18)
N2 N 0.2346(3) 1.0895(2) -0.02755(16)
O1 O 0.4222(3) 0.6621(3) 0.0232(2)
O2 O 0.4510(3) 0.6137(2) -0.08191(18)
O3 O 0.1649(3) 0.5716(3) 0.0253(2)
O4 O 0.2136(3) 0.4820(4) -0.0617(2)
O5 O 0.19207(19) 0.88889(18) 0.05551(14)
O6 O 0.2082(2) 0.8612(2) 0.16880(14)
O7 O -0.0454(2) 0.94770(19) 0.13068(13)
O8 O 0.01506(18) 1.03942(17) 0.22246(12)
H37 H 0.279(2) 0.911(2) -0.0465(15)
H38 H 0.173(3) 1.067(2) -0.0585(16)
C1B C -0.2296(3) 1.2825(3) 0.0916(3)
C2B C -0.2912(3) 1.1977(3) 0.1231(2)
C3B C -0.3436(3) 1.1924(3) 0.1831(2)
H1B H -0.3513 1.2446 0.2145
C4B C -0.3839(3) 1.0934(3) 0.1890(2)
H2B H -0.4231 1.0695 0.2251
C5B C -0.3565(3) 1.0387(3) 0.13363(19)
C6B C -0.3739(3) 0.9276(3) 0.11560(19)
C7B C -0.3427(3) 0.9055(2) 0.0441(2)
C8B C -0.4004(3) 0.8827(2) -0.0151(2)
H3B H -0.4751 0.8729 -0.0195
C9B C -0.3287(3) 0.8761(2) -0.06964(19)
H4B H -0.3479 0.8625 -0.1158
C10B C -0.2263(3) 0.8935(2) -0.04166(19)
C11B C -0.1191(2) 0.9091(2) -0.07317(16)
H5B H -0.0707 0.9415 -0.0379
C12B C -0.0617(3) 0.8149(2) -0.09659(16)
C13B C -0.1153(3) 0.7400(3) -0.13494(16)
H6B H -0.1901 0.7441 -0.1434
C14B C -0.0594(3) 0.6592(3) -0.16096(18)
H7B H -0.0962 0.6101 -0.1874
C15B C 0.0520(3) 0.6518(3) -0.14724(19)
H8B H 0.0892 0.5972 -0.1645
C16B C 0.1086(3) 0.7241(3) -0.1085(2)
C17B C 0.0489(3) 0.8045(3) -0.08363(17)
H9B H 0.0855 0.8535 -0.0570
C18B C -0.2692(4) 1.3448(5) 0.0548(4)
C19B C -0.3879(5) 1.3562(5) 0.0329(5)
C20B C -0.5645(3) 1.3929(3) 0.0647(2)
H10B H -0.5789 1.4481 0.0326
H11B H -0.5896 1.3309 0.0424
C21B C -0.6226(4) 1.4096(4) 0.1274(3)
H12B H -0.6094 1.4772 0.1438
H13B H -0.6989 1.4002 0.1173
H14B H -0.5974 1.3624 0.1624
C22B C -0.2103(5) 1.4364(6) 0.0261(4)
C23B C -0.1571(5) 1.6068(5) 0.0372(3)
H15B H -0.2102 1.6520 0.0150
H16B H -0.1087 1.5854 0.0024
C24B C -0.0993(5) 1.6586(5) 0.0861(3)
H17B H -0.0482 1.6142 0.1099
H18B H -0.0610 1.7124 0.0650
H19B H -0.1472 1.6862 0.1184
C25B C -0.4948(3) 0.9008(3) 0.12235(19)
H20B H -0.5054 0.8299 0.1144
H21B H -0.5153 0.9175 0.1680
H22B H -0.5387 0.9385 0.0889
C26B C -0.3052(3) 0.8630(3) 0.16813(19)
H23B H -0.2299 0.8788 0.1649
H24B H -0.3262 0.8773 0.2140
H25B H -0.3170 0.7927 0.1581
C27B C -0.1344(2) 0.9849(2) -0.13441(16)
H26B H -0.1824 0.9547 -0.1708
C28B C -0.1813(3) 1.0847(3) -0.1132(2)
C29B C -0.2446(4) 1.2421(3) -0.1581(3)
H27B H -0.2337 1.2591 -0.1095
H28B H -0.3216 1.2467 -0.1707
C30B C -0.1888(5) 1.3111(4) -0.1972(3)
H29B H -0.1941 1.2910 -0.2449
H30B H -0.2201 1.3770 -0.1928
H31B H -0.1140 1.3128 -0.1808
C31B C -0.0250(3) 1.0040(3) -0.1623(2)
C32B C 0.0922(3) 0.9678(3) -0.25107(19)
H32B H 0.1489 0.9551 -0.2154
H33B H 0.1029 1.0345 -0.2701
C33B C 0.0945(4) 0.8919(3) -0.3050(2)
H34B H 0.0341 0.9018 -0.3377
H35B H 0.1609 0.8978 -0.3280
H36B H 0.0902 0.8259 -0.2848
N1B N -0.2997(2) 1.1037(2) 0.09342(18)
N2B N -0.2346(3) 0.9105(2) 0.02755(16)
O1B O -0.4222(3) 1.3379(3) -0.0232(2)
O2B O -0.4510(3) 1.3863(2) 0.08191(18)
O3B O -0.1649(3) 1.4284(3) -0.0253(2)
O4B O -0.2136(3) 1.5180(4) 0.0617(2)
O5B O -0.19207(19) 1.11111(18) -0.05551(14)
O6B O -0.2082(2) 1.1388(2) -0.16880(14)
O7B O 0.0454(2) 1.05230(19) -0.13068(13)
O8B O -0.01506(18) 0.96058(17) -0.22246(12)
H37B H -0.279(2) 1.089(2) 0.0465(15)
H38B H -0.173(3) 0.933(2) 0.0585(16)
loop_
_geom_bond_atom_site_label_1
_geom_bond_atom_site_label_2
_geom_bond_site_symmetry_1
_geom_bond_site_symmetry_2
C1 C2 1_555 1_555
C2 C3 1_555 1_555
C3 H1 1_555 1_555
C4 C3 1_555 1_555
H2 C4 1_555 1_555
C5 C4 1_555 1_555
C6 C5 1_555 1_555
C7 C6 1_555 1_555
C8 C7 1_555 1_555
H3 C8 1_555 1_555
C9 C8 1_555 1_555
H4 C9 1_555 1_555
C10 C9 1_555 1_555
C11 C10 1_555 1_555
H5 C11 1_555 1_555
C12 C11 1_555 1_555
C13 C12 1_555 1_555
H6 C13 1_555 1_555
C14 C13 1_555 1_555
H7 C14 1_555 1_555
C15 C14 1_555 1_555
H8 C15 1_555 1_555
C16 C15 1_555 1_555
C17 C12 1_555 1_555
H9 C17 1_555 1_555
C18 C1 1_555 1_555
C19 C18 1_555 1_555
C20 H10 1_555 1_555
H11 C20 1_555 1_555
C21 C20 1_555 1_555
H12 C21 1_555 1_555
H13 C21 1_555 1_555
H14 C21 1_555 1_555
C22 C18 1_555 1_555
C23 H15 1_555 1_555
H16 C23 1_555 1_555
C24 C23 1_555 1_555
H17 C24 1_555 1_555
H18 C24 1_555 1_555
H19 C24 1_555 1_555
C25 C6 1_555 1_555
H20 C25 1_555 1_555
H21 C25 1_555 1_555
H22 C25 1_555 1_555
C26 C6 1_555 1_555
H23 C26 1_555 1_555
H24 C26 1_555 1_555
H25 C26 1_555 1_555
C27 C11 1_555 1_555
H26 C27 1_555 1_555
C28 C27 1_555 1_555
C29 H27 1_555 1_555
H28 C29 1_555 1_555
C30 C29 1_555 1_555
H29 C30 1_555 1_555
H30 C30 1_555 1_555
H31 C30 1_555 1_555
C31 C27 1_555 1_555
C32 H32 1_555 1_555
H33 C32 1_555 1_555
C33 C32 1_555 1_555
H34 C33 1_555 1_555
H35 C33 1_555 1_555
H36 C33 1_555 1_555
N1 C2 1_555 1_555
N2 C7 1_555 1_555
O1 C19 1_555 1_555
O2 C19 1_555 1_555
O3 C22 1_555 1_555
O4 C22 1_555 1_555
O5 C28 1_555 1_555
O6 C28 1_555 1_555
O7 C31 1_555 1_555
O8 C31 1_555 1_555
H37 N1 1_555 1_555
H38 N2 1_555 1_555
C1B C16 1_555 1_555
C2B C1B 1_555 1_555
C3B C2B 1_555 1_555
H1B C3B 1_555 1_555
C4B C3B 1_555 1_555
H2B C4B 1_555 1_555
C5B C4B 1_555 1_555
C6B C5B 1_555 1_555
C7B C6B 1_555 1_555
C8B C7B 1_555 1_555
H3B C8B 1_555 1_555
C9B C8B 1_555 1_555
H4B C9B 1_555 1_555
C10B C9B 1_555 1_555
C11B C10B 1_555 1_555
H5B C11B 1_555 1_555
C12B C11B 1_555 1_555
C13B C12B 1_555 1_555
H6B C13B 1_555 1_555
C14B C13B 1_555 1_555
H7B C14B 1_555 1_555
C15B C14B 1_555 1_555
H8B C15B 1_555 1_555
C16B C1 1_555 1_555
C17B C12B 1_555 1_555
H9B C17B 1_555 1_555
C18B C1B 1_555 1_555
C19B C18B 1_555 1_555
C20B H10B 1_555 1_555
H11B C20B 1_555 1_555
C21B C20B 1_555 1_555
H12B C21B 1_555 1_555
H13B C21B 1_555 1_555
H14B C21B 1_555 1_555
C22B C18B 1_555 1_555
C23B H15B 1_555 1_555
H16B C23B 1_555 1_555
C24B C23B 1_555 1_555
H17B C24B 1_555 1_555
H18B C24B 1_555 1_555
H19B C24B 1_555 1_555
C25B C6B 1_555 1_555
H20B C25B 1_555 1_555
H21B C25B 1_555 1_555
H22B C25B 1_555 1_555
C26B C6B 1_555 1_555
H23B C26B 1_555 1_555
H24B C26B 1_555 1_555
H25B C26B 1_555 1_555
C27B C11B 1_555 1_555
H26B C27B 1_555 1_555
C28B C27B 1_555 1_555
C29B H27B 1_555 1_555
H28B C29B 1_555 1_555
C30B C29B 1_555 1_555
H29B C30B 1_555 1_555
H30B C30B 1_555 1_555
H31B C30B 1_555 1_555
C31B C27B 1_555 1_555
C32B H32B 1_555 1_555
H33B C32B 1_555 1_555
C33B C32B 1_555 1_555
H34B C33B 1_555 1_555
H35B C33B 1_555 1_555
H36B C33B 1_555 1_555
N1B C2B 1_555 1_555
N2B C7B 1_555 1_555
O1B C19B 1_555 1_555
O2B C19B 1_555 1_555
O3B C22B 1_555 1_555
O4B C22B 1_555 1_555
O5B C28B 1_555 1_555
O6B C28B 1_555 1_555
O7B C31B 1_555 1_555
O8B C31B 1_555 1_555
H37B N1B 1_555 1_555
H38B N2B 1_555 1_555
C5 N1 1_555 1_555
C10 N2 1_555 1_555
C16 C17 1_555 1_555
C20 O2 1_555 1_555
C23 O4 1_555 1_555
C29 O6 1_555 1_555
C32 O8 1_555 1_555
C5B N1B 1_555 1_555
C10B N2B 1_555 1_555
C15B C16B 1_555 1_555
C16B C17B 1_555 1_555
C20B O2B 1_555 1_555
C23B O4B 1_555 1_555
C29B O6B 1_555 1_555
C32B O8B 1_555 1_555

#END
