
#######################################################################
#
#                 Cambridge Crystallographic Data Centre
#                                CCDC 
#
#######################################################################
#
# If this CIF has been generated from an entry in the Cambridge 
# Structural Database, then it will include bibliographic, chemical, 
# crystal, experimental, refinement or atomic coordinate data resulting 
# from the CCDC's data processing and validation procedures.
#
#######################################################################

data_LIYQIT01
_chemical_formula_moiety         'C11 H8 N4 S1'
_chemical_name_systematic        
Pyridino(1,2-b)pyridino(1',2'-2,3)(1,2,4-thiadiazolo)(1,5-d)1,2,4-thiadiazole
_symmetry_cell_setting           monoclinic
_symmetry_space_group_name_H-M   'C 2/c'
_symmetry_Int_Tables_number      15
_space_group_name_Hall           '-C 2yn'
loop_
_symmetry_equiv_pos_site_id
_symmetry_equiv_pos_as_xyz
1 x,y,z
2 -x,y,1/2-z
3 1/2+x,1/2+y,z
4 1/2-x,1/2+y,1/2-z
5 -x,-y,-z
6 x,-y,1/2+z
7 1/2-x,1/2-y,-z
8 1/2+x,1/2-y,1/2+z
_cell_length_a                   11.062(2)
_cell_length_b                   9.0295(18)
_cell_length_c                   20.898(4)
_cell_angle_alpha                90
_cell_angle_beta                 102.98(2)
_cell_angle_gamma                90
_cell_volume                     2034.05
_exptl_crystal_colour            'light brown'
_exptl_crystal_description       prism
_cell_formula_units_Z            8
loop_
_atom_site_label
_atom_site_type_symbol
_atom_site_fract_x
_atom_site_fract_y
_atom_site_fract_z
S1 S 0.81046(6) 0.02440(8) 0.47782(3)
N1 N 0.8868(2) 0.1556(3) 0.55047(11)
N2 N 0.9630(2) 0.2488(3) 0.46531(11)
N3 N 0.7576(2) -0.0701(2) 0.39560(10)
N4 N 0.8876(2) 0.1077(2) 0.37072(11)
C1 C 0.8958(2) 0.1379(3) 0.43392(13)
C2 C 0.8102(2) -0.0066(3) 0.34988(13)
C3 C 0.9583(3) 0.2568(3) 0.52935(14)
C4 C 0.7778(3) -0.0595(4) 0.28512(15)
H1 H 0.815(2) -0.015(3) 0.2552(13)
C5 C 1.0206(3) 0.3642(4) 0.57360(17)
H2 H 1.067(3) 0.429(3) 0.5590(14)
C6 C 0.6942(3) -0.1711(4) 0.26968(16)
H3 H 0.664(3) -0.203(4) 0.2270(17)
C7 C 1.0056(3) 0.3629(4) 0.63644(17)
H4 H 1.042(3) 0.431(4) 0.6666(16)
C8 C 0.6409(3) -0.2334(4) 0.31807(16)
H5 H 0.575(3) -0.306(3) 0.3077(14)
C9 C 0.9293(3) 0.2585(4) 0.65677(17)
H6 H 0.923(3) 0.255(4) 0.7020(18)
C10 C 0.6740(3) -0.1823(3) 0.38051(15)
H7 H 0.641(3) -0.213(3) 0.4186(14)
C11 C 0.8723(3) 0.1577(4) 0.61266(15)
H8 H 0.818(3) 0.085(4) 0.6221(16)
loop_
_geom_bond_atom_site_label_1
_geom_bond_atom_site_label_2
_geom_bond_site_symmetry_1
_geom_bond_site_symmetry_2
S1 N1 1_555 1_555
N1 C3 1_555 1_555
N2 C1 1_555 1_555
N3 S1 1_555 1_555
N4 C1 1_555 1_555
C1 S1 1_555 1_555
C2 N3 1_555 1_555
C3 N2 1_555 1_555
C4 C2 1_555 1_555
H1 C4 1_555 1_555
C5 C3 1_555 1_555
H2 C5 1_555 1_555
C6 C4 1_555 1_555
H3 C6 1_555 1_555
C7 C5 1_555 1_555
H4 C7 1_555 1_555
C8 C6 1_555 1_555
H5 C8 1_555 1_555
C9 C7 1_555 1_555
H6 C9 1_555 1_555
C10 N3 1_555 1_555
H7 C10 1_555 1_555
C11 N1 1_555 1_555
H8 C11 1_555 1_555
N4 C2 1_555 1_555
C8 C10 1_555 1_555
C9 C11 1_555 1_555

#END
