
#######################################################################
#
#                 Cambridge Crystallographic Data Centre
#                                CCDC 
#
#######################################################################
#
# If this CIF has been generated from an entry in the Cambridge 
# Structural Database, then it will include bibliographic, chemical, 
# crystal, experimental, refinement or atomic coordinate data resulting 
# from the CCDC's data processing and validation procedures.
#
#######################################################################

data_LIYRAN
_chemical_formula_moiety         'C7 H11 O9 P1,1.5(H2 O1)'
_chemical_name_systematic        
'2-Phosphonobutane-1,2,4-tricarboxylic acid sesquihydrate'
_symmetry_cell_setting           monoclinic
_symmetry_space_group_name_H-M   'P 21/c'
_symmetry_Int_Tables_number      14
_space_group_name_Hall           '-P 2ybc'
loop_
_symmetry_equiv_pos_site_id
_symmetry_equiv_pos_as_xyz
1 x,y,z
2 -x,1/2+y,1/2-z
3 -x,-y,-z
4 x,1/2-y,1/2+z
_cell_length_a                   10.371(2)
_cell_length_b                   8.6370(17)
_cell_length_c                   13.713(3)
_cell_angle_alpha                90
_cell_angle_beta                 103.60(3)
_cell_angle_gamma                90
_cell_volume                     1193.89
_cell_formula_units_Z            4
loop_
_atom_site_label
_atom_site_type_symbol
_atom_site_fract_x
_atom_site_fract_y
_atom_site_fract_z
P1 P 0.75681(7) 0.41750(8) 0.28430(5)
O1 O 0.5111(3) 0.2655(4) -0.09110(19)
O2 O 0.3532(2) 0.3726(3) -0.03087(18)
H1 H 0.3217 0.3903 -0.0905
O3 O 0.7204(3) -0.1678(3) 0.29560(18)
H2 H 0.7362 -0.2520 0.2733
O4 O 0.7764(3) -0.0825(3) 0.1589(2)
O5 O 0.9573(2) 0.2600(3) 0.14671(19)
O6 O 0.9772(2) 0.1344(3) 0.29091(17)
H3 H 1.0510 0.1141 0.2825
O7 O 0.7742(2) 0.5532(2) 0.21824(16)
H4 H 0.7616 0.6374 0.2467
O8 O 0.8536(2) 0.4089(3) 0.38377(17)
O9 O 0.6105(2) 0.4335(3) 0.29716(18)
H5 H 0.5950 0.3641 0.3336
C1 C 0.7630(3) 0.2348(3) 0.2135(2)
C2 C 0.6836(3) 0.2499(4) 0.1030(2)
H6 H 0.6999 0.1589 0.0663
H7 H 0.7179 0.3386 0.0738
C3 C 0.5342(3) 0.2696(5) 0.0875(3)
H8 H 0.5165 0.3555 0.1280
H9 H 0.4972 0.1768 0.1100
C4 C 0.4677(3) 0.3004(4) -0.0207(2)
C5 C 0.7142(3) 0.1020(3) 0.2717(2)
H10 H 0.6197 0.1137 0.2659
H11 H 0.7585 0.1105 0.3421
C6 C 0.7410(3) -0.0567(4) 0.2347(2)
C7 C 0.9091(3) 0.2108(3) 0.2127(2)
O10 O 0.0000 0.0000 0.5000
H12 H 0.0064 0.0062 0.4394
H12B H -0.0064 -0.0062 0.5606
O11 O 0.0997(3) 0.3206(4) 0.4953(2)
H13 H 0.1770 0.3252 0.4608
H14 H 0.1241 0.4211 0.5412
loop_
_geom_bond_atom_site_label_1
_geom_bond_atom_site_label_2
_geom_bond_site_symmetry_1
_geom_bond_site_symmetry_2
P1 O7 1_555 1_555
O1 C4 1_555 1_555
O2 H1 1_555 1_555
O3 H2 1_555 1_555
O4 C6 1_555 1_555
O5 C7 1_555 1_555
O6 H3 1_555 1_555
O7 H4 1_555 1_555
O8 P1 1_555 1_555
O9 P1 1_555 1_555
H5 O9 1_555 1_555
C1 P1 1_555 1_555
C2 C1 1_555 1_555
H6 C2 1_555 1_555
H7 C2 1_555 1_555
C3 C2 1_555 1_555
H8 C3 1_555 1_555
H9 C3 1_555 1_555
C4 O2 1_555 1_555
C5 C1 1_555 1_555
H10 C5 1_555 1_555
H11 C5 1_555 1_555
C6 O3 1_555 1_555
C7 O6 1_555 1_555
O10 H12 1_555 1_555
O11 H13 1_555 1_555
H14 O11 1_555 1_555
H12B O10 1_555 1_555
C1 C7 1_555 1_555
C3 C4 1_555 1_555
C5 C6 1_555 1_555

#END
