
#######################################################################
#
#                 Cambridge Crystallographic Data Centre
#                                CCDC 
#
#######################################################################
#
# If this CIF has been generated from an entry in the Cambridge 
# Structural Database, then it will include bibliographic, chemical, 
# crystal, experimental, refinement or atomic coordinate data resulting 
# from the CCDC's data processing and validation procedures.
#
#######################################################################

data_LIYTES
_chemical_name_common            2-Pivaloylchloropterin
_chemical_formula_moiety         'C11 H12 Cl1 N5 O2'
_chemical_name_systematic        
N-(6-Chloro-4-oxo-3,4-dihydropteridin-2-yl)-2,2-dimethylpropanamide
_symmetry_cell_setting           monoclinic
_symmetry_space_group_name_H-M   'P 21/c'
_symmetry_Int_Tables_number      14
_space_group_name_Hall           '-P 2ybc'
loop_
_symmetry_equiv_pos_site_id
_symmetry_equiv_pos_as_xyz
1 x,y,z
2 x,1/2-y,1/2+z
3 -x,-y,-z
4 -x,1/2+y,1/2-z
_cell_length_a                   13.5984(5)
_cell_length_b                   9.6927(3)
_cell_length_c                   10.3211(4)
_cell_angle_alpha                90
_cell_angle_beta                 108.9810(10)
_cell_angle_gamma                90
_cell_volume                     1286.41
_exptl_crystal_colour            colorless
_exptl_crystal_description       slab
_cell_formula_units_Z            4
_exptl_crystal_recrystallization_method chloroform
loop_
_atom_site_label
_atom_site_type_symbol
_atom_site_fract_x
_atom_site_fract_y
_atom_site_fract_z
Cl1 Cl 0.48778(6) 0.16549(7) 0.56281(8)
O1 O 0.29682(17) 0.50635(19) 0.16373(17)
O2 O 0.12292(16) 0.8864(2) 0.15638(18)
N1 N 0.36239(19) 0.5055(2) 0.6463(2)
N2 N 0.39060(15) 0.37396(19) 0.41777(19)
N3 N 0.26010(15) 0.69070(19) 0.27530(19)
N4 N 0.28587(15) 0.69374(19) 0.51307(18)
N5 N 0.21390(16) 0.88258(19) 0.3825(2)
C1 C 0.4078(2) 0.3849(3) 0.6550(3)
C2 C 0.42308(18) 0.3219(2) 0.5411(2)
C3 C 0.34195(17) 0.4972(2) 0.4075(2)
C4 C 0.29945(18) 0.5599(2) 0.2714(2)
C5 C 0.25472(15) 0.7509(2) 0.3922(2)
C6 C 0.33019(17) 0.5659(2) 0.5208(2)
C7 C 0.14683(17) 0.9436(2) 0.2662(2)
C8 C 0.1032(2) 1.0845(3) 0.2850(3)
C9 C 0.0400(5) 1.0619(6) 0.3915(7)
H1 H -0.0154 0.9973 0.3537
H2 H 0.0117 1.1484 0.4077
H3 H 0.0863 1.0266 0.4763
C10 C 0.1867(5) 1.1842(5) 0.3492(8)
H4 H 0.2334 1.1455 0.4320
H5 H 0.1568 1.2675 0.3704
H6 H 0.2241 1.2047 0.2871
C11 C 0.0244(6) 1.1321(6) 0.1543(6)
H7 H -0.0267 1.0612 0.1197
H8 H 0.0584 1.1514 0.0880
H9 H -0.0089 1.2142 0.1713
H19 H 0.225(2) 0.918(3) 0.460(3)
H20 H 0.248(2) 0.732(4) 0.203(3)
H21 H 0.425(2) 0.341(3) 0.731(3)
C12? C -0.0100(7) 1.0752(11) 0.2354(15)
H10? H -0.0324 1.0313 0.1472
H11? H -0.0392 1.1662 0.2276
H12? H -0.0329 1.0220 0.2986
C13? C 0.1468(10) 1.1506(9) 0.4207(9)
H13? H 0.2212 1.1530 0.4463
H14? H 0.1268 1.0989 0.4874
H15? H 0.1205 1.2431 0.4164
C14? C 0.1384(12) 1.1816(9) 0.1780(12)
H16? H 0.2128 1.1894 0.2084
H17? H 0.1082 1.2716 0.1745
H18? H 0.1148 1.1408 0.0884
loop_
_geom_bond_atom_site_label_1
_geom_bond_atom_site_label_2
_geom_bond_site_symmetry_1
_geom_bond_site_symmetry_2
Cl1 C2 1_555 1_555
O1 C4 1_555 1_555
O2 C7 1_555 1_555
N1 C1 1_555 1_555
N2 C2 1_555 1_555
N3 C4 1_555 1_555
N4 C5 1_555 1_555
N5 C5 1_555 1_555
C1 C2 1_555 1_555
C3 N2 1_555 1_555
C4 C3 1_555 1_555
C5 N3 1_555 1_555
C6 N1 1_555 1_555
C7 N5 1_555 1_555
C8 C7 1_555 1_555
C9 C8 1_555 1_555
H1 C9 1_555 1_555
H2 C9 1_555 1_555
H3 C9 1_555 1_555
C10 C8 1_555 1_555
H4 C10 1_555 1_555
H5 C10 1_555 1_555
H6 C10 1_555 1_555
C11 C8 1_555 1_555
H7 C11 1_555 1_555
H8 C11 1_555 1_555
H9 C11 1_555 1_555
H19 N5 1_555 1_555
H20 N3 1_555 1_555
H21 C1 1_555 1_555
N4 C6 1_555 1_555
C3 C6 1_555 1_555

#END
