
#######################################################################
#
#                 Cambridge Crystallographic Data Centre
#                                CCDC 
#
#######################################################################
#
# If this CIF has been generated from an entry in the Cambridge 
# Structural Database, then it will include bibliographic, chemical, 
# crystal, experimental, refinement or atomic coordinate data resulting 
# from the CCDC's data processing and validation procedures.
#
#######################################################################

data_LIZCUS
_chemical_formula_moiety         'C12 H10 N4'
_chemical_name_systematic        'Pyridine-4-carbaldehyde azine'
_symmetry_cell_setting           monoclinic
_symmetry_space_group_name_H-M   'P 21/c'
_symmetry_Int_Tables_number      14
_space_group_name_Hall           '-P 2ybc'
loop_
_symmetry_equiv_pos_site_id
_symmetry_equiv_pos_as_xyz
1 x,y,z
2 x,1/2-y,1/2+z
3 -x,-y,-z
4 -x,1/2+y,1/2-z
_cell_length_a                   3.8515(3)
_cell_length_b                   11.0201(8)
_cell_length_c                   12.7303(9)
_cell_angle_alpha                90
_cell_angle_beta                 92.312(2)
_cell_angle_gamma                90
_cell_volume                     539.884
_exptl_crystal_colour            orange
_exptl_crystal_description       block
_cell_formula_units_Z            2
loop_
_atom_site_label
_atom_site_type_symbol
_atom_site_fract_x
_atom_site_fract_y
_atom_site_fract_z
N1 N 0.0922(6) 0.8462(2) 0.08500(15)
N2 N 0.4664(5) 1.00082(15) 0.44528(12)
C1 C 0.2637(5) 0.88327(16) 0.29857(14)
C2 C 0.3255(6) 0.97260(19) 0.22425(15)
C3 C 0.2348(6) 0.9499(2) 0.12006(17)
C4 C 0.0341(7) 0.7614(2) 0.15670(19)
C5 C 0.1144(6) 0.77541(19) 0.26308(17)
C6 C 0.3510(5) 0.90013(18) 0.41100(15)
H1 H 0.436(7) 1.049(3) 0.244(2)
H2 H 0.276(7) 1.011(3) 0.067(2)
H3 H -0.077(8) 0.687(3) 0.129(2)
H4 H 0.062(7) 0.708(3) 0.312(2)
H5 H 0.318(6) 0.833(2) 0.457(2)
N2B N 0.5336(5) 0.99918(15) 0.55472(12)
C6B C 0.6490(5) 1.09987(18) 0.58900(15)
C1B C 0.7363(5) 1.11673(16) 0.70143(14)
C2B C 0.6745(6) 1.02740(19) 0.77575(15)
C3B C 0.7652(6) 1.0501(2) 0.87994(17)
N1B N 0.9078(6) 1.1538(2) 0.91500(15)
C4B C 0.9659(7) 1.2386(2) 0.84330(19)
C5B C 0.8856(6) 1.22459(19) 0.73692(17)
H4B H 0.938(7) 1.292(3) 0.688(2)
H3B H 1.077(8) 1.313(3) 0.871(2)
H2B H 0.724(7) 0.989(3) 0.933(2)
H1B H 0.564(7) 0.951(3) 0.756(2)
H5B H 0.682(6) 1.167(2) 0.543(2)
loop_
_geom_bond_atom_site_label_1
_geom_bond_atom_site_label_2
_geom_bond_site_symmetry_1
_geom_bond_site_symmetry_2
N1 C3 1_555 1_555
N2 C6 1_555 1_555
C1 C2 1_555 1_555
C2 C3 1_555 1_555
C3 H2 1_555 1_555
C4 N1 1_555 1_555
C5 C1 1_555 1_555
C6 C1 1_555 1_555
H1 C2 1_555 1_555
H3 C4 1_555 1_555
H4 C5 1_555 1_555
H5 C6 1_555 1_555
N2B N2 1_555 1_555
C6B N2B 1_555 1_555
C1B C6B 1_555 1_555
C2B C1B 1_555 1_555
C3B C2B 1_555 1_555
N1B C3B 1_555 1_555
C4B N1B 1_555 1_555
C5B C1B 1_555 1_555
H4B C5B 1_555 1_555
H3B C4B 1_555 1_555
H2B C3B 1_555 1_555
H1B C2B 1_555 1_555
H5B C6B 1_555 1_555
C4 C5 1_555 1_555
C4B C5B 1_555 1_555

#END
