
#######################################################################
#
#                 Cambridge Crystallographic Data Centre
#                                CCDC 
#
#######################################################################
#
# If this CIF has been generated from an entry in the Cambridge 
# Structural Database, then it will include bibliographic, chemical, 
# crystal, experimental, refinement or atomic coordinate data resulting 
# from the CCDC's data processing and validation procedures.
#
#######################################################################

data_LIZDUU
_chemical_formula_moiety         'C21 H18 O3'
_chemical_name_systematic        
(Carbonyldicyclopropane-1,1-diyl)bis(phenylmethanone)
_symmetry_cell_setting           monoclinic
_symmetry_space_group_name_H-M   'C 2/c'
_symmetry_Int_Tables_number      15
_space_group_name_Hall           '-C 2yn'
loop_
_symmetry_equiv_pos_site_id
_symmetry_equiv_pos_as_xyz
1 x,y,z
2 1/2+x,1/2+y,z
3 -x,y,1/2-z
4 1/2-x,1/2+y,1/2-z
5 -x,-y,-z
6 1/2-x,1/2-y,-z
7 x,-y,1/2+z
8 1/2+x,1/2-y,1/2+z
_cell_length_a                   13.8213(10)
_cell_length_b                   12.9397(7)
_cell_length_c                   9.2278(7)
_cell_angle_alpha                90
_cell_angle_beta                 100.740(6)
_cell_angle_gamma                90
_cell_volume                     1621.42
_exptl_crystal_colour            colorless
_exptl_crystal_description       plate
_cell_formula_units_Z            4
loop_
_atom_site_label
_atom_site_type_symbol
_atom_site_fract_x
_atom_site_fract_y
_atom_site_fract_z
C1 C 0.5000 0.09248(11) 0.2500
C2 C 0.41208(7) 0.14995(8) 0.17026(11)
C3 C 0.38895(7) 0.25875(8) 0.20956(12)
C4 C 0.38741(7) 0.28287(8) 0.36691(12)
C5 C 0.38304(8) 0.20613(9) 0.47039(12)
H1 H 0.3813 0.1356 0.4416
C6 C 0.38115(9) 0.23180(10) 0.61530(13)
H2 H 0.3786 0.1790 0.6859
C7 C 0.38300(9) 0.33412(11) 0.65714(14)
H3 H 0.3822 0.3517 0.7569
C8 C 0.38595(10) 0.41116(10) 0.55470(15)
H4 H 0.3865 0.4816 0.5837
C9 C 0.38805(9) 0.38580(9) 0.41040(13)
H5 H 0.3900 0.4390 0.3400
C10 C 0.32103(9) 0.08434(10) 0.11458(13)
H6 H 0.3239 0.0101 0.1411
H7 H 0.2558 0.1170 0.1099
C11 C 0.38167(9) 0.11980(10) 0.00911(12)
H8 H 0.3542 0.1746 -0.0616
H9 H 0.4223 0.0677 -0.0305
O1 O 0.5000 -0.00164(8) 0.2500
O2 O 0.36699(6) 0.32400(7) 0.11459(9)
C2B C 0.58792(7) 0.14995(8) 0.32974(11)
C3B C 0.61105(7) 0.25875(8) 0.29044(12)
C4B C 0.61259(7) 0.28287(8) 0.13309(12)
C5B C 0.61696(8) 0.20613(9) 0.02961(12)
H1B H 0.6187 0.1356 0.0584
C6B C 0.61885(9) 0.23180(10) -0.11530(13)
H2B H 0.6214 0.1790 -0.1859
C7B C 0.61700(9) 0.33412(11) -0.15714(14)
H3B H 0.6178 0.3517 -0.2569
C8B C 0.61405(10) 0.41116(10) -0.05470(15)
H4B H 0.6135 0.4816 -0.0837
C9B C 0.61195(9) 0.38580(9) 0.08960(13)
H5B H 0.6100 0.4390 0.1600
C10B C 0.67897(9) 0.08434(10) 0.38542(13)
H6B H 0.6761 0.0101 0.3589
H7B H 0.7442 0.1170 0.3901
C11B C 0.61833(9) 0.11980(10) 0.49089(12)
H8B H 0.6458 0.1746 0.5616
H9B H 0.5777 0.0677 0.5305
O2B O 0.63301(6) 0.32400(7) 0.38541(9)
loop_
_geom_bond_atom_site_label_1
_geom_bond_atom_site_label_2
_geom_bond_site_symmetry_1
_geom_bond_site_symmetry_2
C1 C2 1_555 1_555
C2 C3 1_555 1_555
C3 C4 1_555 1_555
C4 C5 1_555 1_555
C5 H1 1_555 1_555
C6 C5 1_555 1_555
H2 C6 1_555 1_555
C7 C6 1_555 1_555
H3 C7 1_555 1_555
C8 C7 1_555 1_555
H4 C8 1_555 1_555
C9 C4 1_555 1_555
H5 C9 1_555 1_555
C10 C2 1_555 1_555
H6 C10 1_555 1_555
H7 C10 1_555 1_555
C11 C2 1_555 1_555
H8 C11 1_555 1_555
H9 C11 1_555 1_555
O1 C1 1_555 1_555
O2 C3 1_555 1_555
C2B C1 1_555 1_555
C3B C2B 1_555 1_555
C4B C3B 1_555 1_555
C5B C4B 1_555 1_555
H1B C5B 1_555 1_555
C6B C5B 1_555 1_555
H2B C6B 1_555 1_555
C7B C6B 1_555 1_555
H3B C7B 1_555 1_555
C8B C7B 1_555 1_555
H4B C8B 1_555 1_555
C9B C4B 1_555 1_555
H5B C9B 1_555 1_555
C10B C2B 1_555 1_555
H6B C10B 1_555 1_555
H7B C10B 1_555 1_555
C11B C2B 1_555 1_555
H8B C11B 1_555 1_555
H9B C11B 1_555 1_555
O2B C3B 1_555 1_555
C8 C9 1_555 1_555
C10 C11 1_555 1_555
C8B C9B 1_555 1_555
C10B C11B 1_555 1_555

#END
