
#######################################################################
#
#                 Cambridge Crystallographic Data Centre
#                                CCDC 
#
#######################################################################
#
# If this CIF has been generated from an entry in the Cambridge 
# Structural Database, then it will include bibliographic, chemical, 
# crystal, experimental, refinement or atomic coordinate data resulting 
# from the CCDC's data processing and validation procedures.
#
#######################################################################

data_LIZJUB
_chemical_formula_moiety         'C22 H26 Br1 N1 O7 S1'
_chemical_name_systematic        
"1-t-Butyl 2'-ethyl 4-bromo-4'-(2-methoxy-2-oxoethyl)-2-oxo-4',5'-dihydrospiro[indole-3,3'-thiophene]-1,2'(2H)-dicarboxylate"
_symmetry_cell_setting           triclinic
_symmetry_space_group_name_H-M   'P -1'
_symmetry_Int_Tables_number      2
_space_group_name_Hall           '-P 1'
loop_
_symmetry_equiv_pos_site_id
_symmetry_equiv_pos_as_xyz
1 x,y,z
2 -x,-y,-z
_cell_length_a                   8.9347(7)
_cell_length_b                   9.2684(7)
_cell_length_c                   15.3652(12)
_cell_angle_alpha                101.273(2)
_cell_angle_beta                 92.620(2)
_cell_angle_gamma                106.236(2)
_cell_volume                     1191.26
_exptl_crystal_colour            colorless
_exptl_crystal_description       prismatic
_cell_formula_units_Z            2
loop_
_atom_site_label
_atom_site_type_symbol
_atom_site_fract_x
_atom_site_fract_y
_atom_site_fract_z
Br1 Br 0.13969(2) 0.44703(3) 0.384886(16)
S1 S 0.62542(7) 0.46298(7) 0.39316(4)
N1 N 0.51127(17) 0.83783(18) 0.23532(11)
O1 O 0.72411(16) 0.74295(18) 0.25204(11)
O2 O 0.48873(18) 1.02294(19) 0.16153(11)
O3 O 0.71709(16) 0.96945(17) 0.17802(11)
O4 O 0.4241(3) 0.5701(2) 0.08705(12)
O5 O 0.1983(2) 0.3875(3) 0.03827(13)
O6 O 0.7825(3) 0.7705(3) 0.48750(18)
O7 O 0.6241(2) 0.89086(19) 0.43654(12)
C1 C 0.1837(2) 0.6124(2) 0.32563(14)
C2 C 0.0650(2) 0.6781(3) 0.31322(17)
H1 H -0.0328 0.6390 0.3320
C3 C 0.0933(3) 0.8011(3) 0.27301(18)
H2 H 0.0131 0.8444 0.2644
C4 C 0.2390(2) 0.8633(3) 0.24460(16)
H3 H 0.2576 0.9478 0.2181
C5 C 0.3539(2) 0.7947(2) 0.25745(13)
C6 C 0.3298(2) 0.6680(2) 0.29680(12)
C7 C 0.5903(2) 0.7380(2) 0.25979(13)
C8 C 0.4765(2) 0.6180(2) 0.30008(12)
C9 C 0.5449(2) 0.6227(2) 0.39663(13)
H4 H 0.4568 0.6060 0.4329
C10 C 0.4769(3) 0.3483(3) 0.30492(17)
H5 H 0.5060 0.2601 0.2740
H6 H 0.3774 0.3120 0.3282
C11 C 0.4660(2) 0.4545(2) 0.24256(14)
H7 H 0.5598 0.4672 0.2108
C12 C 0.5679(2) 0.9521(2) 0.18746(12)
C13 C 0.8039(2) 1.0782(2) 0.12604(15)
C14 C 0.9637(3) 1.0530(4) 0.1317(2)
H8 H 1.0084 1.0820 0.1928
H9 H 1.0307 1.1147 0.0972
H10 H 0.9535 0.9463 0.1086
C15 C 0.7304(3) 1.0359(5) 0.03178(19)
H11 H 0.7070 0.9268 0.0098
H12 H 0.8017 1.0889 -0.0045
H13 H 0.6354 1.0647 0.0294
C16 C 0.8152(4) 1.2405(3) 0.1724(2)
H14 H 0.7161 1.2593 0.1625
H15 H 0.8946 1.3115 0.1489
H16 H 0.8422 1.2540 0.2352
C17 C 0.3263(3) 0.3805(3) 0.17217(16)
H17 H 0.3242 0.2749 0.1484
H18 H 0.2313 0.3777 0.2007
C18 C 0.3249(3) 0.4593(3) 0.09615(16)
C19 C 0.1885(5) 0.4470(5) -0.0411(2)
H19 H 0.1994 0.5551 -0.0245
H20 H 0.0887 0.3943 -0.0752
H21 H 0.2708 0.4313 -0.0764
C20 C 0.6670(3) 0.7680(3) 0.44484(16)
C21 C 0.7270(5) 1.0400(3) 0.4829(2)
H22 H 0.6640 1.1031 0.5099
H23 H 0.7932 1.0261 0.5304
C22 C 0.8201(10) 1.1157(8) 0.4273(5)
H24 H 0.7553 1.1277 0.3793
H25 H 0.8878 1.0571 0.4035
H26 H 0.8823 1.2152 0.4603
H27? H 0.8297 1.0310 0.4939
H28? H 0.6887 1.0710 0.5386
C23? C 0.7302(13) 1.1527(9) 0.4322(6)
H29? H 0.7975 1.2505 0.4645
H30? H 0.6261 1.1598 0.4215
H31? H 0.7693 1.1241 0.3762
loop_
_geom_bond_atom_site_label_1
_geom_bond_atom_site_label_2
_geom_bond_site_symmetry_1
_geom_bond_site_symmetry_2
Br1 C1 1_555 1_555
S1 C9 1_555 1_555
N1 C5 1_555 1_555
O1 C7 1_555 1_555
O2 C12 1_555 1_555
O3 C12 1_555 1_555
O4 C18 1_555 1_555
O5 C18 1_555 1_555
O6 C20 1_555 1_555
O7 C20 1_555 1_555
C1 C2 1_555 1_555
C2 H1 1_555 1_555
C3 C2 1_555 1_555
H2 C3 1_555 1_555
C4 C3 1_555 1_555
H3 C4 1_555 1_555
C5 C4 1_555 1_555
C6 C1 1_555 1_555
C7 N1 1_555 1_555
C8 C6 1_555 1_555
C9 C8 1_555 1_555
H4 C9 1_555 1_555
C10 S1 1_555 1_555
H5 C10 1_555 1_555
H6 C10 1_555 1_555
C11 C8 1_555 1_555
H7 C11 1_555 1_555
C12 N1 1_555 1_555
C13 O3 1_555 1_555
C14 C13 1_555 1_555
H8 C14 1_555 1_555
H9 C14 1_555 1_555
H10 C14 1_555 1_555
C15 C13 1_555 1_555
H11 C15 1_555 1_555
H12 C15 1_555 1_555
H13 C15 1_555 1_555
C16 C13 1_555 1_555
H14 C16 1_555 1_555
H15 C16 1_555 1_555
H16 C16 1_555 1_555
C17 C11 1_555 1_555
H17 C17 1_555 1_555
H18 C17 1_555 1_555
C18 C17 1_555 1_555
C19 O5 1_555 1_555
H19 C19 1_555 1_555
H20 C19 1_555 1_555
H21 C19 1_555 1_555
C20 C9 1_555 1_555
C21 O7 1_555 1_555
H22 C21 1_555 1_555
H23 C21 1_555 1_555
C22 C21 1_555 1_555
H24 C22 1_555 1_555
H25 C22 1_555 1_555
H26 C22 1_555 1_555
C5 C6 1_555 1_555
C7 C8 1_555 1_555
C10 C11 1_555 1_555

#END
