
#######################################################################
#
#                 Cambridge Crystallographic Data Centre
#                                CCDC 
#
#######################################################################
#
# If this CIF has been generated from an entry in the Cambridge 
# Structural Database, then it will include bibliographic, chemical, 
# crystal, experimental, refinement or atomic coordinate data resulting 
# from the CCDC's data processing and validation procedures.
#
#######################################################################

data_LIZKAI
_chemical_formula_moiety         'C14 H16 N2 O8'
_chemical_name_systematic        
'Dimethyl 3-acetamido-1-acetyl-6-hydroxy-2-oxo-2,7-dihydro-1H-azepine-4,5-dicarboxylate'
_symmetry_cell_setting           triclinic
_symmetry_space_group_name_H-M   'P -1'
_symmetry_Int_Tables_number      2
_space_group_name_Hall           '-P 1'
loop_
_symmetry_equiv_pos_site_id
_symmetry_equiv_pos_as_xyz
1 x,y,z
2 -x,-y,-z
_cell_length_a                   8.3465(3)
_cell_length_b                   10.0290(5)
_cell_length_c                   18.6781(8)
_cell_angle_alpha                79.189(4)
_cell_angle_beta                 88.457(3)
_cell_angle_gamma                78.132(4)
_cell_volume                     1502.8
_exptl_crystal_colour            colorless
_exptl_crystal_description       block
_cell_formula_units_Z            4
loop_
_atom_site_label
_atom_site_type_symbol
_atom_site_fract_x
_atom_site_fract_y
_atom_site_fract_z
C1 C 0.97836(17) 0.57316(14) 0.34934(7)
C2 C 0.90932(17) 0.45510(15) 0.39437(7)
C3 C 0.94619(17) 0.32490(15) 0.38006(7)
C4 C 1.03089(17) 0.29517(15) 0.31212(7)
C5 C 0.98181(17) 0.38084(15) 0.24764(7)
C6 C 0.85634(17) 0.51245(15) 0.24515(7)
H1 H 0.8213 0.5529 0.1941
H2 H 0.7590 0.4929 0.2734
C7 C 0.95418(17) 0.73349(15) 0.22948(7)
C8 C 1.0001(2) 0.84488(15) 0.26311(8)
H3 H 1.1172 0.8206 0.2753
H4 H 0.9368 0.8539 0.3075
H5 H 0.9763 0.9331 0.2285
C9 C 0.72790(17) 0.62181(15) 0.45395(7)
C10 C 0.6343(2) 0.63978(16) 0.52249(8)
H6 H 0.6824 0.6991 0.5482
H7 H 0.6398 0.5490 0.5539
H8 H 0.5197 0.6830 0.5100
C11 C 0.88053(17) 0.21249(15) 0.42817(7)
C12 C 0.8146(2) -0.00653(17) 0.43813(9)
H9 H 0.8541 -0.0281 0.4888
H10 H 0.8437 -0.0898 0.4164
H11 H 0.6954 0.0250 0.4369
C13 C 1.16576(18) 0.17533(15) 0.31103(8)
C14 C 1.3526(2) -0.01258(16) 0.37822(9)
H12 H 1.3052 -0.0856 0.3640
H13 H 1.3992 -0.0445 0.4276
H14 H 1.4390 0.0088 0.3441
N1 N 0.92937(14) 0.61082(12) 0.27651(6)
N2 N 0.82071(15) 0.49145(13) 0.45442(6)
H15 H 0.811(3) 0.424(2) 0.4899(11)
O1 O 1.07683(12) 0.62191(11) 0.37701(5)
O2 O 0.72300(13) 0.71508(10) 0.40117(5)
O3 O 0.82329(14) 0.22036(11) 0.48803(5)
O4 O 0.88943(13) 0.10174(10) 0.39722(5)
O5 O 1.22171(14) 0.14038(11) 0.25471(6)
O6 O 1.22575(12) 0.11117(11) 0.37680(5)
O7 O 1.04573(13) 0.36610(11) 0.18259(5)
H16 H 1.1186 0.2934 0.1872
O8 O 0.93189(13) 0.74528(11) 0.16465(5)
C15 C 0.50188(17) 0.42547(15) 0.15032(7)
C16 C 0.37791(17) 0.54547(15) 0.10780(7)
C17 C 0.35790(17) 0.67439(15) 0.12299(7)
C18 C 0.43790(17) 0.70225(14) 0.18677(7)
C19 C 0.42956(16) 0.62186(15) 0.25317(7)
C20 C 0.36019(17) 0.49372(14) 0.25956(7)
H17 H 0.3460 0.4545 0.3115
H18 H 0.2519 0.5164 0.2349
C21 C 0.56588(18) 0.27538(15) 0.27257(8)
C22 C 0.6709(2) 0.16276(16) 0.24063(8)
H19 H 0.7101 0.0829 0.2794
H20 H 0.7648 0.1963 0.2166
H21 H 0.6071 0.1349 0.2048
C23 C 0.27613(17) 0.38718(15) 0.04475(7)
C24 C 0.19434(19) 0.37775(16) -0.02432(8)
H22 H 0.2707 0.3186 -0.0517
H23 H 0.1619 0.4707 -0.0540
H24 H 0.0971 0.3378 -0.0123
C25 C 0.24332(17) 0.79373(14) 0.07895(7)
C26 C 0.09444(19) 1.02132(15) 0.08038(8)
H25 H 0.1329 1.0533 0.0314
H26 H 0.0872 1.0945 0.1092
H27 H -0.0139 0.9993 0.0769
C27 C 0.52423(17) 0.81775(14) 0.17846(7)
C28 C 0.6113(2) 0.99434(16) 0.09259(8)
H28 H 0.5310 1.0720 0.1055
H29 H 0.6353 1.0146 0.0405
H30 H 0.7122 0.9809 0.1211
N3 N 0.47520(14) 0.39206(12) 0.22503(6)
N4 N 0.30579(15) 0.51578(13) 0.04800(6)
H31 H 0.269(3) 0.585(2) 0.0112(11)
O9 O 0.61955(13) 0.37169(11) 0.11929(5)
O10 O 0.31342(13) 0.28920(10) 0.09499(5)
O11 O 0.18802(13) 0.79575(10) 0.01942(5)
O12 O 0.20808(12) 0.89869(10) 0.11526(5)
O13 O 0.57550(12) 0.85806(11) 0.22962(5)
O14 O 0.54520(12) 0.86958(10) 0.10849(5)
O15 O 0.49219(12) 0.63873(11) 0.31538(5)
H32 H 0.5335 0.7097 0.3074
O16 O 0.54992(15) 0.26886(12) 0.33773(6)
loop_
_geom_bond_atom_site_label_1
_geom_bond_atom_site_label_2
_geom_bond_site_symmetry_1
_geom_bond_site_symmetry_2
C1 C2 1_555 1_555
C2 C3 1_555 1_555
C3 C4 1_555 1_555
C4 C5 1_555 1_555
C5 C6 1_555 1_555
C6 H1 1_555 1_555
H2 C6 1_555 1_555
C7 C8 1_555 1_555
C8 H3 1_555 1_555
H4 C8 1_555 1_555
H5 C8 1_555 1_555
C9 C10 1_555 1_555
C10 H6 1_555 1_555
H7 C10 1_555 1_555
H8 C10 1_555 1_555
C11 C3 1_555 1_555
C12 H9 1_555 1_555
H10 C12 1_555 1_555
H11 C12 1_555 1_555
C13 C4 1_555 1_555
C14 H12 1_555 1_555
H13 C14 1_555 1_555
H14 C14 1_555 1_555
N1 C1 1_555 1_555
N2 C2 1_555 1_555
H15 N2 1_555 1_555
O1 C1 1_555 1_555
O2 C9 1_555 1_555
O3 C11 1_555 1_555
O4 C11 1_555 1_555
O5 C13 1_555 1_555
O6 C13 1_555 1_555
O7 C5 1_555 1_555
H16 O7 1_555 1_555
O8 C7 1_555 1_555
C15 C16 1_555 1_555
C16 C17 1_555 1_555
C17 C18 1_555 1_555
C18 C19 1_555 1_555
C19 C20 1_555 1_555
C20 H17 1_555 1_555
H18 C20 1_555 1_555
C21 C22 1_555 1_555
C22 H19 1_555 1_555
H20 C22 1_555 1_555
H21 C22 1_555 1_555
C23 C24 1_555 1_555
C24 H22 1_555 1_555
H23 C24 1_555 1_555
H24 C24 1_555 1_555
C25 C17 1_555 1_555
C26 H25 1_555 1_555
H26 C26 1_555 1_555
H27 C26 1_555 1_555
C27 C18 1_555 1_555
C28 H28 1_555 1_555
H29 C28 1_555 1_555
H30 C28 1_555 1_555
N3 C15 1_555 1_555
N4 C16 1_555 1_555
H31 N4 1_555 1_555
O9 C15 1_555 1_555
O10 C23 1_555 1_555
O11 C25 1_555 1_555
O12 C25 1_555 1_555
O13 C27 1_555 1_555
O14 C27 1_555 1_555
O15 C19 1_555 1_555
H32 O15 1_555 1_555
O16 C21 1_555 1_555
C6 N1 1_555 1_555
C7 N1 1_555 1_555
C9 N2 1_555 1_555
C12 O4 1_555 1_555
C14 O6 1_555 1_555
C20 N3 1_555 1_555
C21 N3 1_555 1_555
C23 N4 1_555 1_555
C26 O12 1_555 1_555
C28 O14 1_555 1_555

#END
