
#######################################################################
#
#                 Cambridge Crystallographic Data Centre
#                                CCDC 
#
#######################################################################
#
# If this CIF has been generated from an entry in the Cambridge 
# Structural Database, then it will include bibliographic, chemical, 
# crystal, experimental, refinement or atomic coordinate data resulting 
# from the CCDC's data processing and validation procedures.
#
#######################################################################

data_LIZLOX
_chemical_formula_moiety         'C21 H23 N1 O5'
_chemical_name_systematic        
N,N-Diethyl-7-(4-methoxyphenyl)-6,7-dihydrofuro[2,3-f][1,3]benzodioxole-6-carboxamide
_symmetry_cell_setting           monoclinic
_symmetry_space_group_name_H-M   'P c'
_symmetry_Int_Tables_number      7
_space_group_name_Hall           'P -2yc'
loop_
_symmetry_equiv_pos_site_id
_symmetry_equiv_pos_as_xyz
1 x,y,z
2 x,-y,1/2+z
_cell_length_a                   20.4838(12)
_cell_length_b                   8.0969(5)
_cell_length_c                   18.0348(12)
_cell_angle_alpha                90
_cell_angle_beta                 107.542(2)
_cell_angle_gamma                90
_cell_volume                     2852.07
_exptl_crystal_colour            colorless
_exptl_crystal_description       prismatic
_cell_formula_units_Z            6
_chemical_properties_physical    air-sensitive
loop_
_atom_site_label
_atom_site_type_symbol
_atom_site_fract_x
_atom_site_fract_y
_atom_site_fract_z
N1 N 0.79855(14) 0.1593(4) -0.13869(16)
O1 O 0.96318(12) 0.2444(3) 0.34145(13)
O2 O 0.85207(11) 0.3398(3) 0.31157(13)
O3 O 0.80912(9) 0.1982(2) 0.03965(11)
O4 O 1.04167(12) -0.5395(3) 0.06944(15)
O5 O 0.88308(15) 0.3183(3) -0.07079(15)
C1 C 0.91702(17) 0.3369(4) 0.3711(2)
H1 H 0.9340 0.4485 0.3838
H2 H 0.9125 0.2852 0.4178
C2 C 0.93123(15) 0.2287(3) 0.26261(18)
C3 C 0.86511(14) 0.2855(3) 0.24538(17)
C4 C 0.81994(15) 0.2812(3) 0.17211(18)
H3 H 0.7753 0.3202 0.1603
C5 C 0.84695(14) 0.2128(3) 0.11660(16)
C6 C 0.91235(13) 0.1559(3) 0.13249(16)
C7 C 0.95669(14) 0.1632(3) 0.20780(17)
H4 H 1.0015 0.1251 0.2200
C8 C 0.92462(13) 0.0984(3) 0.05863(16)
H5 H 0.9532 0.1800 0.0428
C9 C 0.85099(13) 0.1066(3) 0.00129(16)
H6 H 0.8327 -0.0053 -0.0113
C10 C 0.84554(15) 0.2020(3) -0.07327(16)
C11 C 0.95761(13) -0.0702(3) 0.06231(14)
C12 C 0.93186(15) -0.2078(4) 0.09007(18)
H7 H 0.8941 -0.1957 0.1081
C13 C 0.96070(16) -0.3610(4) 0.09155(19)
H8 H 0.9417 -0.4513 0.1094
C14 C 1.01714(15) -0.3822(4) 0.06700(18)
C15 C 1.04429(15) -0.2485(4) 0.04063(19)
H9 H 1.0827 -0.2609 0.0238
C16 C 1.01460(14) -0.0949(4) 0.03892(17)
H10 H 1.0340 -0.0049 0.0213
C17 C 1.0978(2) -0.5641(5) 0.0392(3)
H11 H 1.0845 -0.5329 -0.0146
H12 H 1.1109 -0.6784 0.0441
H13 H 1.1359 -0.4975 0.0678
C18 C 0.7639(3) -0.0004(7) -0.1528(3)
H14 H 0.7903 -0.0826 -0.1171
H15 H 0.7584 -0.0369 -0.2055
C19 C 0.6939(3) 0.0229(10) -0.1401(4)
H16 H 0.7001 0.0565 -0.0874
H17 H 0.6691 -0.0794 -0.1501
H18 H 0.6687 0.1062 -0.1750
C20 C 0.78677(19) 0.2654(4) -0.2083(2)
H19 H 0.7399 0.2517 -0.2411
H20 H 0.7929 0.3801 -0.1922
C21 C 0.8339(2) 0.2249(6) -0.2533(3)
H21 H 0.8795 0.2582 -0.2246
H22 H 0.8198 0.2820 -0.3022
H23 H 0.8331 0.1080 -0.2624
N2 N 0.26686(14) 0.2295(3) 0.15640(16)
O6 O 0.01200(11) 0.6761(3) 0.33384(15)
O7 O 0.08699(12) 0.8879(3) 0.38391(17)
O8 O 0.17791(9) 0.4003(2) 0.23444(12)
O9 O 0.52838(10) 0.7151(2) 0.47438(12)
O10 O 0.28406(16) 0.4980(3) 0.13732(15)
C22 C 0.01868(19) 0.8360(5) 0.3660(3)
H24 H -0.0107 0.9120 0.3292
H25 H 0.0046 0.8356 0.4128
C23 C 0.07199(14) 0.6496(4) 0.31706(17)
C24 C 0.11730(16) 0.7755(4) 0.34657(19)
C25 C 0.18188(16) 0.7800(3) 0.33833(19)
H26 H 0.2122 0.8664 0.3577
C26 C 0.19880(14) 0.6471(3) 0.29927(16)
C27 C 0.15298(13) 0.5219(3) 0.27180(15)
C28 C 0.08798(14) 0.5164(4) 0.27935(18)
H27 H 0.0577 0.4297 0.2605
C29 C 0.26048(13) 0.6181(3) 0.27111(16)
H28 H 0.2545 0.6827 0.2236
C30 C 0.24990(13) 0.4350(3) 0.24864(16)
H29 H 0.2767 0.3672 0.2922
C31 C 0.26858(16) 0.3896(4) 0.17611(18)
C32 C 0.33098(13) 0.6524(3) 0.32562(15)
C33 C 0.37971(14) 0.7304(3) 0.29946(17)
H30 H 0.3676 0.7677 0.2483
C34 C 0.44593(14) 0.7550(3) 0.34662(18)
H31 H 0.4777 0.8087 0.3276
C35 C 0.46415(14) 0.6988(3) 0.42201(17)
C36 C 0.41649(15) 0.6198(3) 0.44999(17)
H32 H 0.4289 0.5808 0.5008
C37 C 0.35070(14) 0.5994(3) 0.40211(17)
H33 H 0.3186 0.5487 0.4216
C38 C 0.57977(16) 0.7825(4) 0.4456(2)
H34 H 0.5831 0.7181 0.4022
H35 H 0.6229 0.7809 0.4859
H36 H 0.5681 0.8943 0.4292
C39 C 0.24767(17) 0.0944(4) 0.1985(2)
H37 H 0.2493 0.1328 0.2500
H38 H 0.2810 0.0063 0.2048
C40 C 0.1772(2) 0.0258(5) 0.1589(2)
H39 H 0.1439 0.1123 0.1521
H40 H 0.1671 -0.0604 0.1904
H41 H 0.1758 -0.0183 0.1090
C41 C 0.2838(4) 0.1882(9) 0.0860(4)
H42 H 0.2632 0.2703 0.0467
H43 H 0.2630 0.0826 0.0671
C42 C 0.3575(3) 0.1786(9) 0.0941(4)
H44 H 0.3778 0.2858 0.1069
H45 H 0.3635 0.1417 0.0460
H46 H 0.3791 0.1020 0.1347
N3 N 0.54348(13) -0.2292(3) 0.72997(14)
O11 O 0.76024(10) 0.2561(3) 0.50802(15)
O12 O 0.67716(12) 0.4531(3) 0.46492(16)
O13 O 0.62146(9) -0.0434(2) 0.63896(11)
O14 O 0.25575(10) 0.1825(3) 0.41113(13)
O15 O 0.52527(14) 0.0380(3) 0.74948(13)
C43 C 0.74574(17) 0.4152(4) 0.4733(3)
H47 H 0.7755 0.4971 0.5059
H48 H 0.7536 0.4154 0.4229
C44 C 0.70569(13) 0.2209(3) 0.53463(18)
C45 C 0.65602(15) 0.3384(4) 0.51010(18)
C46 C 0.59553(14) 0.3321(3) 0.52715(18)
H49 H 0.5621 0.4130 0.5101
C47 C 0.58657(13) 0.1982(3) 0.57144(15)
C48 C 0.63797(13) 0.0813(3) 0.59560(15)
C49 C 0.69914(13) 0.0874(3) 0.57852(18)
H50 H 0.7331 0.0077 0.5954
C50 C 0.53026(13) 0.1566(3) 0.60592(15)
H51 H 0.5360 0.2245 0.6524
C51 C 0.54935(12) -0.0234(3) 0.63153(15)
H52 H 0.5225 -0.0982 0.5910
C52 C 0.53841(14) -0.0695(4) 0.70886(17)
C53 C 0.45739(13) 0.1734(3) 0.55421(16)
C54 C 0.40789(14) 0.2486(3) 0.58000(17)
H53 H 0.4202 0.2956 0.6293
C55 C 0.34025(14) 0.2557(3) 0.53413(18)
H54 H 0.3077 0.3078 0.5524
C56 C 0.32145(14) 0.1852(3) 0.46127(17)
C57 C 0.37037(14) 0.1110(3) 0.43411(17)
H55 H 0.3580 0.0643 0.3847
C58 C 0.43711(14) 0.1059(3) 0.47977(16)
H56 H 0.4697 0.0562 0.4606
C59 C 0.20261(17) 0.2487(5) 0.4377(3)
H57 H 0.2018 0.1925 0.4843
H58 H 0.1594 0.2342 0.3984
H59 H 0.2107 0.3643 0.4485
C60 C 0.56087(17) -0.3648(4) 0.68598(19)
H60 H 0.5553 -0.3278 0.6333
H61 H 0.5292 -0.4551 0.6833
C61 C 0.6329(2) -0.4272(5) 0.7208(3)
H62 H 0.6646 -0.3380 0.7246
H63 H 0.6420 -0.5125 0.6882
H64 H 0.6379 -0.4711 0.7717
C62 C 0.5317(2) -0.2722(4) 0.8044(2)
H65 H 0.5478 -0.1826 0.8411
H66 H 0.5579 -0.3701 0.8257
C63 C 0.4567(2) -0.3038(5) 0.7949(3)
H67 H 0.4312 -0.2037 0.7790
H68 H 0.4516 -0.3402 0.8435
H69 H 0.4398 -0.3874 0.7561
C64? C 0.7290(5) 0.0827(13) -0.1262(6)
H70? H 0.7341 0.0633 -0.0717
H71? H 0.6897 0.1534 -0.1483
C65? C 0.7242(7) -0.0631(16) -0.1669(7)
H72? H 0.7209 -0.0395 -0.2201
H73? H 0.6842 -0.1224 -0.1650
H74? H 0.7642 -0.1291 -0.1441
C66? C 0.3183(9) 0.175(3) 0.1093(10)
H75? H 0.3558 0.2521 0.1140
H76? H 0.3349 0.0629 0.1193
C67? C 0.2612(6) 0.1952(15) 0.0374(9)
H77? H 0.2427 0.3046 0.0354
H78? H 0.2774 0.1781 -0.0067
H79? H 0.2262 0.1158 0.0366
loop_
_geom_bond_atom_site_label_1
_geom_bond_atom_site_label_2
_geom_bond_site_symmetry_1
_geom_bond_site_symmetry_2
N1 C10 1_555 1_555
O1 C1 1_555 1_555
O2 C1 1_555 1_555
O3 C5 1_555 1_555
O4 C14 1_555 1_555
O5 C10 1_555 1_555
C1 H1 1_555 1_555
H2 C1 1_555 1_555
C2 O1 1_555 1_555
C3 O2 1_555 1_555
C4 C3 1_555 1_555
H3 C4 1_555 1_555
C5 C4 1_555 1_555
C6 C5 1_555 1_555
C7 C2 1_555 1_555
H4 C7 1_555 1_555
C8 C6 1_555 1_555
H5 C8 1_555 1_555
C9 O3 1_555 1_555
H6 C9 1_555 1_555
C10 C9 1_555 1_555
C11 C8 1_555 1_555
C12 C11 1_555 1_555
H7 C12 1_555 1_555
C13 C12 1_555 1_555
H8 C13 1_555 1_555
C14 C13 1_555 1_555
C15 C14 1_555 1_555
H9 C15 1_555 1_555
C16 C11 1_555 1_555
H10 C16 1_555 1_555
C17 O4 1_555 1_555
H11 C17 1_555 1_555
H12 C17 1_555 1_555
H13 C17 1_555 1_555
C18 N1 1_555 1_555
H14 C18 1_555 1_555
H15 C18 1_555 1_555
C19 C18 1_555 1_555
H16 C19 1_555 1_555
H17 C19 1_555 1_555
H18 C19 1_555 1_555
C20 N1 1_555 1_555
H19 C20 1_555 1_555
H20 C20 1_555 1_555
C21 C20 1_555 1_555
H21 C21 1_555 1_555
H22 C21 1_555 1_555
H23 C21 1_555 1_555
N2 C31 1_555 1_555
O6 C22 1_555 1_555
O7 C22 1_555 1_555
O8 C27 1_555 1_555
O9 C35 1_555 1_555
O10 C31 1_555 1_555
C22 H24 1_555 1_555
H25 C22 1_555 1_555
C23 O6 1_555 1_555
C24 O7 1_555 1_555
C25 C24 1_555 1_555
H26 C25 1_555 1_555
C26 C25 1_555 1_555
C27 C26 1_555 1_555
C28 C23 1_555 1_555
H27 C28 1_555 1_555
C29 C26 1_555 1_555
H28 C29 1_555 1_555
C30 O8 1_555 1_555
H29 C30 1_555 1_555
C31 C30 1_555 1_555
C32 C29 1_555 1_555
C33 C32 1_555 1_555
H30 C33 1_555 1_555
C34 C33 1_555 1_555
H31 C34 1_555 1_555
C35 C34 1_555 1_555
C36 C35 1_555 1_555
H32 C36 1_555 1_555
C37 C32 1_555 1_555
H33 C37 1_555 1_555
C38 O9 1_555 1_555
H34 C38 1_555 1_555
H35 C38 1_555 1_555
H36 C38 1_555 1_555
C39 N2 1_555 1_555
H37 C39 1_555 1_555
H38 C39 1_555 1_555
C40 C39 1_555 1_555
H39 C40 1_555 1_555
H40 C40 1_555 1_555
H41 C40 1_555 1_555
C41 N2 1_555 1_555
H42 C41 1_555 1_555
H43 C41 1_555 1_555
C42 C41 1_555 1_555
H44 C42 1_555 1_555
H45 C42 1_555 1_555
H46 C42 1_555 1_555
N3 C52 1_555 1_555
O11 C43 1_555 1_555
O12 C43 1_555 1_555
O13 C48 1_555 1_555
O14 C56 1_555 1_555
O15 C52 1_555 1_555
C43 H47 1_555 1_555
H48 C43 1_555 1_555
C44 O11 1_555 1_555
C45 O12 1_555 1_555
C46 C45 1_555 1_555
H49 C46 1_555 1_555
C47 C46 1_555 1_555
C48 C47 1_555 1_555
C49 C44 1_555 1_555
H50 C49 1_555 1_555
C50 C47 1_555 1_555
H51 C50 1_555 1_555
C51 O13 1_555 1_555
H52 C51 1_555 1_555
C52 C51 1_555 1_555
C53 C50 1_555 1_555
C54 C53 1_555 1_555
H53 C54 1_555 1_555
C55 C54 1_555 1_555
H54 C55 1_555 1_555
C56 C55 1_555 1_555
C57 C56 1_555 1_555
H55 C57 1_555 1_555
C58 C53 1_555 1_555
H56 C58 1_555 1_555
C59 O14 1_555 1_555
H57 C59 1_555 1_555
H58 C59 1_555 1_555
H59 C59 1_555 1_555
C60 N3 1_555 1_555
H60 C60 1_555 1_555
H61 C60 1_555 1_555
C61 C60 1_555 1_555
H62 C61 1_555 1_555
H63 C61 1_555 1_555
H64 C61 1_555 1_555
C62 N3 1_555 1_555
H65 C62 1_555 1_555
H66 C62 1_555 1_555
C63 C62 1_555 1_555
H67 C63 1_555 1_555
H68 C63 1_555 1_555
H69 C63 1_555 1_555
C2 C3 1_555 1_555
C6 C7 1_555 1_555
C8 C9 1_555 1_555
C15 C16 1_555 1_555
C23 C24 1_555 1_555
C27 C28 1_555 1_555
C29 C30 1_555 1_555
C36 C37 1_555 1_555
C44 C45 1_555 1_555
C48 C49 1_555 1_555
C50 C51 1_555 1_555
C57 C58 1_555 1_555

#END
