
#######################################################################
#
#                 Cambridge Crystallographic Data Centre
#                                CCDC 
#
#######################################################################
#
# If this CIF has been generated from an entry in the Cambridge 
# Structural Database, then it will include bibliographic, chemical, 
# crystal, experimental, refinement or atomic coordinate data resulting 
# from the CCDC's data processing and validation procedures.
#
#######################################################################

data_LIZMIR
_chemical_formula_moiety         'C11 H12 Br2 N2'
_chemical_name_systematic        
5,7-Dibromo-1,2,3,3a,4,9-hexahydropyrrolo[2,1-b]quinazoline
_symmetry_cell_setting           monoclinic
_symmetry_space_group_name_H-M   'C 2/c'
_symmetry_Int_Tables_number      15
_space_group_name_Hall           '-C 2yn'
loop_
_symmetry_equiv_pos_site_id
_symmetry_equiv_pos_as_xyz
1 x,y,z
2 1/2+x,1/2+y,z
3 -x,y,1/2-z
4 1/2-x,1/2+y,1/2-z
5 -x,-y,-z
6 1/2-x,1/2-y,-z
7 x,-y,1/2+z
8 1/2+x,1/2-y,1/2+z
_cell_length_a                   16.7608(7)
_cell_length_b                   8.7196(4)
_cell_length_c                   15.6479(6)
_cell_angle_alpha                90
_cell_angle_beta                 103.459(1)
_cell_angle_gamma                90
_cell_volume                     2224.1
_exptl_crystal_colour            colorless
_exptl_crystal_description       lath
_chemical_melting_point          122-124deg.C
_cell_formula_units_Z            8
loop_
_atom_site_label
_atom_site_type_symbol
_atom_site_fract_x
_atom_site_fract_y
_atom_site_fract_z
Br1 Br 0.927450(10) 0.739548(17) -0.158070(10)
Br2 Br 0.848772(11) 0.118331(18) -0.106710(11)
N1 N 0.91778(9) 0.76438(15) 0.03686(9)
H1 H 0.9347(16) 0.830(3) 0.0053(17)
N2 N 0.87960(8) 0.69589(16) 0.17110(9)
C1 C 0.90312(9) 0.61853(17) 0.00337(10)
C2 C 0.90345(9) 0.58180(17) -0.08382(10)
C3 C 0.88772(9) 0.43500(17) -0.11815(10)
H2 H 0.8898 0.4127 -0.1770
C4 C 0.86893(9) 0.32196(18) -0.06347(10)
C5 C 0.86561(10) 0.35384(18) 0.02236(10)
H3 H 0.8512 0.2754 0.0581
C6 C 0.88337(9) 0.50007(18) 0.05615(10)
C7 C 0.88576(10) 0.53347(18) 0.15157(10)
H4 H 0.8400 0.4782 0.1682
H5 H 0.9377 0.4929 0.1883
C8 C 0.93290(9) 0.79100(18) 0.13222(10)
H6 H 0.9919 0.7745 0.1617
C9 C 0.90515(10) 0.95227(19) 0.14859(11)
H7 H 0.9182 1.0257 0.1055
H8 H 0.9316 0.9874 0.2087
C10 C 0.81174(10) 0.9359(2) 0.13697(12)
H9 H 0.7822 0.9770 0.0793
H10 H 0.7932 0.9914 0.1840
C11 C 0.79657(10) 0.76207(19) 0.14260(12)
H11 H 0.7634 0.7399 0.1859
H12 H 0.7679 0.7207 0.0847
loop_
_geom_bond_atom_site_label_1
_geom_bond_atom_site_label_2
_geom_bond_site_symmetry_1
_geom_bond_site_symmetry_2
Br1 C2 1_555 1_555
Br2 C4 1_555 1_555
N1 H1 1_555 1_555
N2 C7 1_555 1_555
C1 N1 1_555 1_555
C2 C1 1_555 1_555
C3 C2 1_555 1_555
H2 C3 1_555 1_555
C4 C3 1_555 1_555
C5 C4 1_555 1_555
H3 C5 1_555 1_555
C6 C1 1_555 1_555
C7 C6 1_555 1_555
H4 C7 1_555 1_555
H5 C7 1_555 1_555
C8 N1 1_555 1_555
H6 C8 1_555 1_555
C9 C8 1_555 1_555
H7 C9 1_555 1_555
H8 C9 1_555 1_555
C10 C9 1_555 1_555
H9 C10 1_555 1_555
H10 C10 1_555 1_555
C11 N2 1_555 1_555
H11 C11 1_555 1_555
H12 C11 1_555 1_555
N2 C8 1_555 1_555
C5 C6 1_555 1_555
C10 C11 1_555 1_555

#END
