
#######################################################################
#
#                 Cambridge Crystallographic Data Centre
#                                CCDC 
#
#######################################################################
#
# If this CIF has been generated from an entry in the Cambridge 
# Structural Database, then it will include bibliographic, chemical, 
# crystal, experimental, refinement or atomic coordinate data resulting 
# from the CCDC's data processing and validation procedures.
#
#######################################################################

data_LIZMOY
_chemical_formula_moiety         'C22 H16 Cl2 N2 O2'
_chemical_name_systematic        
'Ethyl 2-amino-3-cyano-5-(2,5-dichlorobenzylidene)-4-phenylcyclopenta-1,3-diene-1-carboxylate'
_symmetry_cell_setting           triclinic
_symmetry_space_group_name_H-M   'P -1'
_symmetry_Int_Tables_number      2
_space_group_name_Hall           '-P 1'
loop_
_symmetry_equiv_pos_site_id
_symmetry_equiv_pos_as_xyz
1 x,y,z
2 -x,-y,-z
_cell_length_a                   9.6224(5)
_cell_length_b                   10.3070(5)
_cell_length_c                   11.4274(5)
_cell_angle_alpha                104.711(2)
_cell_angle_beta                 105.630(3)
_cell_angle_gamma                103.182(2)
_cell_volume                     1000.76
_cell_formula_units_Z            2
loop_
_atom_site_label
_atom_site_type_symbol
_atom_site_fract_x
_atom_site_fract_y
_atom_site_fract_z
Cl1 Cl 0.28739(4) 0.21299(4) 0.82695(4)
Cl2 Cl 0.94628(6) 0.53185(5) 1.21661(5)
C1 C 0.47144(17) 0.30475(15) 0.93542(15)
C2 C 0.73427(17) 0.41555(15) 0.97677(14)
H1 H 0.8139 0.4460 0.9485
O1 O 0.40844(13) 0.30939(13) 0.48629(10)
C3 C 0.62371(15) 0.23466(15) 0.67709(13)
O2 O 0.51737(15) 0.24512(14) 0.33964(11)
C4 C 0.76123(19) 0.44334(16) 1.10682(15)
C5 C 0.58800(16) 0.34188(14) 0.88754(13)
C6 C 0.78741(16) 0.11855(16) 0.62469(14)
C7 C 0.55544(16) 0.30542(16) 0.74718(14)
H2 H 0.4794 0.3346 0.7023
C8 C 0.73611(15) 0.16467(14) 0.72253(13)
C9 C 0.71246(17) 0.15332(16) 0.51256(14)
N1 N 0.74421(18) 0.12451(17) 0.40352(13)
H3 H 0.6969 0.1466 0.3400
H4 H 0.8119 0.0839 0.3970
N2 N 0.97763(18) -0.02077(17) 0.62665(14)
C10 C 0.78329(16) 0.14188(15) 0.84766(13)
C11 C 0.60869(16) 0.21727(16) 0.54137(13)
C12 C 0.51132(18) 0.25786(16) 0.44726(14)
C13 C 0.4998(2) 0.33280(17) 1.06623(16)
H5 H 0.4204 0.3052 1.0957
C14 C 0.6454(2) 0.40148(18) 1.15213(16)
H6 H 0.6658 0.4196 1.2401
C15 C 0.93629(18) 0.18776(18) 0.92342(15)
H7 H 1.0094 0.2309 0.8941
C16 C 0.67614(18) 0.07383(16) 0.89198(16)
H8 H 0.5734 0.0403 0.8415
C17 C 0.89349(18) 0.04111(17) 0.62701(15)
C18 C 0.7222(2) 0.05612(19) 1.01060(18)
H9 H 0.6501 0.0108 1.0397
C19 C 0.9805(2) 0.1697(2) 1.04214(17)
H10 H 1.0832 0.2014 1.0926
C20 C 0.2987(2) 0.3401(2) 0.39149(17)
H11 H 0.2411 0.2555 0.3170
H12 H 0.3504 0.4118 0.3630
C21 C 0.8738(2) 0.1050(2) 1.08608(18)
H13 H 0.9039 0.0943 1.1666
C22 C 0.1948(2) 0.3919(2) 0.4536(2)
H14 H 0.1213 0.4141 0.3930
H15 H 0.2529 0.4753 0.5274
H16 H 0.1432 0.3198 0.4803
loop_
_geom_bond_atom_site_label_1
_geom_bond_atom_site_label_2
_geom_bond_site_symmetry_1
_geom_bond_site_symmetry_2
Cl1 C1 1_555 1_555
Cl2 C4 1_555 1_555
C1 C5 1_555 1_555
C2 H1 1_555 1_555
O1 C12 1_555 1_555
C3 C7 1_555 1_555
O2 C12 1_555 1_555
C4 C2 1_555 1_555
C5 C2 1_555 1_555
C6 C8 1_555 1_555
C7 C5 1_555 1_555
H2 C7 1_555 1_555
C8 C3 1_555 1_555
C9 C6 1_555 1_555
N1 C9 1_555 1_555
H3 N1 1_555 1_555
H4 N1 1_555 1_555
N2 C17 1_555 1_555
C10 C8 1_555 1_555
C11 C3 1_555 1_555
C12 C11 1_555 1_555
C13 C1 1_555 1_555
H5 C13 1_555 1_555
C14 C4 1_555 1_555
H6 C14 1_555 1_555
C15 C10 1_555 1_555
H7 C15 1_555 1_555
C16 C10 1_555 1_555
H8 C16 1_555 1_555
C17 C6 1_555 1_555
C18 C16 1_555 1_555
H9 C18 1_555 1_555
C19 C15 1_555 1_555
H10 C19 1_555 1_555
C20 O1 1_555 1_555
H11 C20 1_555 1_555
H12 C20 1_555 1_555
C21 C18 1_555 1_555
H13 C21 1_555 1_555
C22 C20 1_555 1_555
H14 C22 1_555 1_555
H15 C22 1_555 1_555
H16 C22 1_555 1_555
C9 C11 1_555 1_555
C13 C14 1_555 1_555
C19 C21 1_555 1_555

#END
