
#######################################################################
#
#                 Cambridge Crystallographic Data Centre
#                                CCDC 
#
#######################################################################
#
# If this CIF has been generated from an entry in the Cambridge 
# Structural Database, then it will include bibliographic, chemical, 
# crystal, experimental, refinement or atomic coordinate data resulting 
# from the CCDC's data processing and validation procedures.
#
#######################################################################

data_LIZTUK
_chemical_formula_moiety         'C27 H25 N1 O3'
_chemical_name_systematic        
'Ethyl 1-oxo-2,4-diphenyl-2,3,3a,4,9,9a-hexahydro-1H-benzo[f]isoindole-6-carboxylate'
_symmetry_cell_setting           triclinic
_symmetry_space_group_name_H-M   'P -1'
_symmetry_Int_Tables_number      2
_space_group_name_Hall           '-P 1'
loop_
_symmetry_equiv_pos_site_id
_symmetry_equiv_pos_as_xyz
1 x,y,z
2 -x,-y,-z
_cell_length_a                   8.466(3)
_cell_length_b                   10.862(4)
_cell_length_c                   13.208(5)
_cell_angle_alpha                67.988(4)
_cell_angle_beta                 89.832(5)
_cell_angle_gamma                71.841(4)
_cell_volume                     1060.98
_exptl_crystal_colour            colorless
_chemical_melting_point          198-199deg.C
_cell_formula_units_Z            2
loop_
_atom_site_label
_atom_site_type_symbol
_atom_site_fract_x
_atom_site_fract_y
_atom_site_fract_z
C1 C 0.4994(2) 0.54951(18) 0.70333(15)
C2 C 0.5497(2) 0.78546(18) 0.64260(15)
C3 C 0.4221(2) 0.70754(18) 0.67227(15)
H1 H 0.3399 0.7454 0.6068
C4 C 0.5417(2) 0.89877(18) 0.67207(15)
C5 C 0.1722(2) 0.7014(2) 0.78931(16)
H2 H 0.1061 0.7162 0.7233
H3 H 0.2001 0.6040 0.8404
C6 C 0.2637(2) 0.89813(18) 0.73284(16)
H4 H 0.2049 0.9441 0.6576
C7 C 0.4060(2) 0.9530(2) 0.73502(17)
H5 H 0.4528 0.9231 0.8107
H6 H 0.3642 1.0552 0.7024
C8 C 0.3285(2) 0.74100(18) 0.76241(16)
H7 H 0.4075 0.6966 0.8302
C9 C 0.1356(3) 0.9146(2) 0.80982(17)
C10 C 0.6217(2) 0.4643(2) 0.79299(17)
H8 H 0.6606 0.5052 0.8337
C11 C -0.0518(2) 0.7804(2) 0.90114(16)
C12 C 0.6871(3) 0.3208(2) 0.82326(19)
H9 H 0.7685 0.2658 0.8841
C13 C 0.4481(2) 0.4851(2) 0.64431(17)
H10 H 0.3676 0.5393 0.5828
C14 C 0.6325(3) 0.2591(2) 0.7641(2)
H11 H 0.6758 0.1620 0.7845
C15 C 0.5141(3) 0.3411(2) 0.6748(2)
H12 H 0.4772 0.2996 0.6339
C16 C -0.1189(3) 0.6793(2) 0.90143(17)
H13 H -0.0769 0.6256 0.8605
C17 C -0.1181(3) 0.8599(2) 0.96187(17)
H14 H -0.0745 0.9281 0.9632
C18 C -0.2474(3) 0.6579(3) 0.96195(18)
H15 H -0.2898 0.5883 0.9626
C19 C -0.3144(3) 0.7373(3) 1.02150(19)
H16 H -0.4022 0.7230 1.0615
C20 C -0.2489(3) 0.8377(3) 1.02049(19)
H17 H -0.2935 0.8924 1.0602
C21 C 0.6757(2) 0.74580(19) 0.58192(15)
H18 H 0.6800 0.6727 0.5603
C22 C 0.7951(2) 0.81161(19) 0.55257(15)
C23 C 0.6622(3) 0.9641(2) 0.64135(17)
H19 H 0.6571 1.0392 0.6605
C24 C 0.7875(2) 0.92140(19) 0.58404(16)
H20 H 0.8675 0.9658 0.5662
N1 N 0.0830(2) 0.79910(17) 0.84006(13)
O1 O 0.0845(2) 1.01288(15) 0.83826(14)
C25 C 0.9289(2) 0.77018(19) 0.48743(17)
O2 O 0.89629(15) 0.69457(14) 0.43602(11)
O3 O 1.05422(18) 0.80229(15) 0.48067(13)
C26 C 1.0191(3) 0.6538(2) 0.36671(19)
H21 H 1.1227 0.5854 0.4118
H22 H 1.0433 0.7356 0.3165
C27 C 0.9459(3) 0.5917(3) 0.30412(18)
H23 H 0.9184 0.5133 0.3547
H24 H 1.0258 0.5600 0.2598
H25 H 0.8463 0.6616 0.2574
loop_
_geom_bond_atom_site_label_1
_geom_bond_atom_site_label_2
_geom_bond_site_symmetry_1
_geom_bond_site_symmetry_2
C1 C3 1_555 1_555
C2 C3 1_555 1_555
C3 H1 1_555 1_555
C4 C2 1_555 1_555
C5 H2 1_555 1_555
H3 C5 1_555 1_555
C6 H4 1_555 1_555
C7 C4 1_555 1_555
H5 C7 1_555 1_555
H6 C7 1_555 1_555
C8 C3 1_555 1_555
H7 C8 1_555 1_555
C9 C6 1_555 1_555
C10 C1 1_555 1_555
H8 C10 1_555 1_555
C11 C16 1_555 1_555
C12 C10 1_555 1_555
H9 C12 1_555 1_555
C13 C1 1_555 1_555
H10 C13 1_555 1_555
C14 C12 1_555 1_555
H11 C14 1_555 1_555
C15 C13 1_555 1_555
H12 C15 1_555 1_555
C16 H13 1_555 1_555
C17 C11 1_555 1_555
H14 C17 1_555 1_555
C18 C16 1_555 1_555
H15 C18 1_555 1_555
C19 C18 1_555 1_555
H16 C19 1_555 1_555
C20 C17 1_555 1_555
H17 C20 1_555 1_555
C21 C2 1_555 1_555
H18 C21 1_555 1_555
C22 C21 1_555 1_555
C23 C4 1_555 1_555
H19 C23 1_555 1_555
C24 C22 1_555 1_555
H20 C24 1_555 1_555
N1 C5 1_555 1_555
O1 C9 1_555 1_555
C25 C22 1_555 1_555
O2 C25 1_555 1_555
O3 C25 1_555 1_555
C26 O2 1_555 1_555
H21 C26 1_555 1_555
H22 C26 1_555 1_555
C27 C26 1_555 1_555
H23 C27 1_555 1_555
H24 C27 1_555 1_555
H25 C27 1_555 1_555
C5 C8 1_555 1_555
C6 C7 1_555 1_555
C6 C8 1_555 1_555
C9 N1 1_555 1_555
C11 N1 1_555 1_555
C14 C15 1_555 1_555
C19 C20 1_555 1_555
C23 C24 1_555 1_555

#END
