
#######################################################################
#
#                 Cambridge Crystallographic Data Centre
#                                CCDC 
#
#######################################################################
#
# If this CIF has been generated from an entry in the Cambridge 
# Structural Database, then it will include bibliographic, chemical, 
# crystal, experimental, refinement or atomic coordinate data resulting 
# from the CCDC's data processing and validation procedures.
#
#######################################################################

data_LIZXIB
_chemical_formula_moiety         'C30 H29 Br1 N2 O5 S1'
_chemical_name_systematic        
(1RS,3aSR,4RS,8aSR,8bRS)-2-((1,3-Benzodioxol-5-yl)methyl)-4-(4-bromophenyl)-1-(toluene-4-sulfonyl)perhydropyrrolo(3,4-a)pyrrolizin-3-one
_chemical_properties_biological  'potential thrombin inhibitory activity'
_symmetry_cell_setting           monoclinic
_symmetry_space_group_name_H-M   'P 21/c'
_symmetry_Int_Tables_number      14
_space_group_name_Hall           '-P 2ybc'
loop_
_symmetry_equiv_pos_site_id
_symmetry_equiv_pos_as_xyz
1 x,y,z
2 x,1/2-y,1/2+z
3 -x,-y,-z
4 -x,1/2+y,1/2-z
_cell_length_a                   16.507(8)
_cell_length_b                   10.123(5)
_cell_length_c                   16.842(10)
_cell_angle_alpha                90
_cell_angle_beta                 105.58(4)
_cell_angle_gamma                90
_cell_volume                     2710.9
_exptl_crystal_colour            colorless
_exptl_crystal_description       prism
_chemical_melting_point          199-201deg.C
_cell_formula_units_Z            4
_exptl_crystal_recrystallization_method 'ethyl acetate'
loop_
_atom_site_label
_atom_site_type_symbol
_atom_site_fract_x
_atom_site_fract_y
_atom_site_fract_z
Br1 Br 0.67443(3) 0.85671(5) 0.84380(3)
S1 S 0.08699(5) 0.80037(10) 0.42568(5)
O1 O 0.3272(2) 0.9218(3) 0.6350(2)
O2 O 0.0691(2) 0.7229(3) 0.35142(14)
O3 O 0.0321(2) 0.9083(3) 0.4308(2)
O4 O 0.2110(2) 1.4359(3) 0.2853(2)
O5 O 0.0807(2) 1.3835(3) 0.3010(2)
N1 N 0.2236(2) 0.9374(3) 0.5145(2)
N2 N 0.4067(2) 0.7931(3) 0.4544(2)
C1 C 0.1917(2) 0.8667(3) 0.4385(2)
H1 H 0.1902(2) 0.9259(3) 0.3937(2)
C2 C 0.2903(2) 0.8773(4) 0.5678(2)
C3 C 0.3081(2) 0.7481(3) 0.5296(2)
H2 H 0.2866(2) 0.6760(3) 0.5550(2)
C4 C 0.3978(2) 0.7197(3) 0.5272(2)
H3 H 0.4023(2) 0.6274(3) 0.5160(2)
C5 C 0.4605(3) 0.7266(5) 0.4093(3)
H4 H 0.4981(3) 0.6661(5) 0.4448(3)
H5 H 0.4928(3) 0.7898(5) 0.3883(3)
C6 C 0.4008(3) 0.6538(5) 0.3400(3)
H6 H 0.3862(3) 0.5694(5) 0.3582(3)
H7 H 0.4248(3) 0.6408(5) 0.2946(3)
C7 C 0.3253(3) 0.7424(5) 0.3160(2)
H8 H 0.2749(3) 0.6917(5) 0.2952(2)
H9 H 0.3306(3) 0.8046(5) 0.2747(2)
C8 C 0.0954(2) 0.6958(4) 0.5106(2)
C9 C 0.3239(2) 0.8112(4) 0.3958(2)
H10 H 0.3145(2) 0.9039(4) 0.3852(2)
C10 C 0.1061(2) 0.5617(4) 0.5029(2)
H11 H 0.1074(2) 0.5252(4) 0.4507(2)
C11 C 0.2583(2) 0.7616(3) 0.4390(2)
H12 H 0.2332(2) 0.6800(3) 0.4155(2)
C12 C 0.1139(2) 0.4807(4) 0.5709(2)
H13 H 0.1219(2) 0.3875(4) 0.5657(2)
C13 C 0.1115(2) 0.5321(4) 0.6461(2)
C14 C 0.1011(3) 0.6671(4) 0.6521(2)
H14 H 0.0989(3) 0.7026(4) 0.7043(2)
C15 C 0.0936(2) 0.7499(4) 0.5860(2)
H15 H 0.0872(2) 0.8436(4) 0.5905(2)
C16 C 0.1186(3) 0.4440(5) 0.7191(3)
H16 H 0.0878(17) 0.4818(16) 0.7544(10)
H17 H 0.1767(4) 0.4351(26) 0.7490(11)
H18 H 0.0959(19) 0.3586(11) 0.7006(3)
C17 C 0.1945(2) 1.0686(4) 0.5298(2)
H19 H 0.2265(2) 1.0991(4) 0.5830(2)
H20 H 0.1365(2) 1.0634(4) 0.5301(2)
C18 C 0.2026(2) 1.1675(3) 0.4651(2)
C19 C 0.1311(2) 1.2257(4) 0.4145(2)
H21 H 0.0762(2) 1.2052(4) 0.4203(2)
C20 C 0.1411(3) 1.3145(4) 0.3570(2)
C21 C 0.2196(3) 1.3443(4) 0.3485(2)
C22 C 0.2910(3) 1.2885(4) 0.3963(3)
H22 H 0.3456(3) 1.3115(4) 0.3906(3)
C23 C 0.2807(2) 1.1989(4) 0.4553(2)
H23 H 0.3291(2) 1.1547(4) 0.4894(2)
C24 C 0.1238(4) 1.4557(5) 0.2524(3)
H24 H 0.1060(4) 1.4272(5) 0.1960(3)
H25 H 0.1117(4) 1.5482(5) 0.2546(3)
C25 C 0.4669(2) 0.7525(3) 0.6041(2)
C26 C 0.4950(2) 0.6597(3) 0.6653(2)
H26 H 0.4693(2) 0.5739(3) 0.6581(2)
C27 C 0.5566(2) 0.6873(4) 0.7364(2)
H27 H 0.5766(2) 0.6213(4) 0.7780(2)
C28 C 0.5908(2) 0.8130(4) 0.7460(2)
C29 C 0.5650(2) 0.9073(4) 0.6861(2)
H28 H 0.5910(2) 0.9929(4) 0.6934(2)
C30 C 0.5038(2) 0.8765(4) 0.6152(2)
H29 H 0.4852(2) 0.9421(4) 0.5731(2)
loop_
_geom_bond_atom_site_label_1
_geom_bond_atom_site_label_2
_geom_bond_site_symmetry_1
_geom_bond_site_symmetry_2
Br1 C28 1_555 1_555
S1 O2 1_555 1_555
O1 C2 1_555 1_555
O3 S1 1_555 1_555
O4 C21 1_555 1_555
O5 C20 1_555 1_555
N1 C1 1_555 1_555
N2 C4 1_555 1_555
C1 S1 1_555 1_555
H1 C1 1_555 1_555
C2 N1 1_555 1_555
C3 C2 1_555 1_555
H2 C3 1_555 1_555
C4 C3 1_555 1_555
H3 C4 1_555 1_555
C5 N2 1_555 1_555
H4 C5 1_555 1_555
H5 C5 1_555 1_555
C6 C5 1_555 1_555
H6 C6 1_555 1_555
H7 C6 1_555 1_555
C7 C6 1_555 1_555
H8 C7 1_555 1_555
H9 C7 1_555 1_555
C8 S1 1_555 1_555
C9 N2 1_555 1_555
H10 C9 1_555 1_555
C10 C8 1_555 1_555
H11 C10 1_555 1_555
C11 C1 1_555 1_555
H12 C11 1_555 1_555
C12 C10 1_555 1_555
H13 C12 1_555 1_555
C13 C12 1_555 1_555
C14 C13 1_555 1_555
H14 C14 1_555 1_555
C15 C8 1_555 1_555
H15 C15 1_555 1_555
C16 C13 1_555 1_555
H16 C16 1_555 1_555
H17 C16 1_555 1_555
H18 C16 1_555 1_555
C17 N1 1_555 1_555
H19 C17 1_555 1_555
H20 C17 1_555 1_555
C18 C17 1_555 1_555
C19 C18 1_555 1_555
H21 C19 1_555 1_555
C20 C19 1_555 1_555
C21 C20 1_555 1_555
C22 C21 1_555 1_555
H22 C22 1_555 1_555
C23 C18 1_555 1_555
H23 C23 1_555 1_555
C24 O4 1_555 1_555
H24 C24 1_555 1_555
H25 C24 1_555 1_555
C25 C4 1_555 1_555
C26 C25 1_555 1_555
H26 C26 1_555 1_555
C27 C26 1_555 1_555
H27 C27 1_555 1_555
C28 C27 1_555 1_555
C29 C28 1_555 1_555
H28 C29 1_555 1_555
C30 C25 1_555 1_555
H29 C30 1_555 1_555
O5 C24 1_555 1_555
C3 C11 1_555 1_555
C7 C9 1_555 1_555
C9 C11 1_555 1_555
C14 C15 1_555 1_555
C22 C23 1_555 1_555
C29 C30 1_555 1_555

#END
