
#######################################################################
#
#                 Cambridge Crystallographic Data Centre
#                                CCDC 
#
#######################################################################
#
# If this CIF has been generated from an entry in the Cambridge 
# Structural Database, then it will include bibliographic, chemical, 
# crystal, experimental, refinement or atomic coordinate data resulting 
# from the CCDC's data processing and validation procedures.
#
#######################################################################

data_LIZXEX
_chemical_formula_moiety         'C27 H35 N4 O3 1+,Cl1 1-,H2 O1'
_chemical_name_systematic        
'(1RS,3aSR,4RS,6aSR)-4-(5-((1,3-Benzodioxol-5-yl)methyl)-4-isopropyl-2,3,3-trimethyl-6-oxoperhydropyrrolo(3,4-c)pyrrol-1-yl)benzamidinium chloride monohydrate'
_chemical_properties_biological  'potential thrombin inhibitory activity'
_symmetry_cell_setting           triclinic
_symmetry_space_group_name_H-M   'P -1'
_symmetry_Int_Tables_number      2
_space_group_name_Hall           '-P 1'
loop_
_symmetry_equiv_pos_site_id
_symmetry_equiv_pos_as_xyz
1 x,y,z
2 -x,-y,-z
_cell_length_a                   11.8540(10)
_cell_length_b                   15.464(2)
_cell_length_c                   15.881(2)
_cell_angle_alpha                79.260(10)
_cell_angle_beta                 76.750(10)
_cell_angle_gamma                73.140(10)
_cell_volume                     2689.3
_exptl_crystal_colour            colorless
_chemical_melting_point          'above 250deg.C.(dec.)'
_cell_formula_units_Z            4
_exptl_crystal_recrystallization_method water
loop_
_atom_site_label
_atom_site_type_symbol
_atom_site_fract_x
_atom_site_fract_y
_atom_site_fract_z
Cl1 Cl 0.44184(8) 0.90057(7) 0.09109(7)
Cl2 Cl 0.38496(8) 0.40973(6) 0.03751(6)
O1 O -0.3292(3) 0.7185(2) 1.0741(2)
O2 O -0.1167(3) 0.4805(2) 0.9080(2)
N1 N -0.2121(3) 0.9592(2) 0.8263(2)
H1 H -0.1477 0.9660 0.7853
H2 H -0.2782 1.0060 0.8328
N2 N -0.3020(3) 0.8703(2) 0.93702(19)
H3 H -0.2994 0.8168 0.9715
H4 H -0.3684 0.9168 0.9439
C1 C -0.2095(3) 0.8813(2) 0.8767(2)
C2 C -0.1001(3) 0.8047(2) 0.8654(2)
C3 C -0.0701(4) 0.7400(3) 0.9354(2)
H5 H -0.1221 0.7434 0.9915
C4 C 0.0344(4) 0.6699(3) 0.9242(3)
H6 H 0.0549 0.6252 0.9728
C5 C 0.1098(3) 0.6640(2) 0.8439(2)
C6 C 0.0780(3) 0.7284(2) 0.7733(2)
H7 H 0.1291 0.7244 0.7169
C7 C -0.0255(3) 0.7978(2) 0.7835(2)
H8 H -0.0463 0.8415 0.7343
C8 C 0.2231(3) 0.5869(2) 0.8313(2)
H9 H 0.2493 0.5658 0.8862
N3 N 0.3197(2) 0.61754(18) 0.76765(18)
C9 C 0.3656(3) 0.6783(3) 0.8022(3)
H10 H 0.3011 0.7292 0.8204
H11 H 0.4012 0.6457 0.8513
H12 H 0.4250 0.6998 0.7581
C10 C 0.4107(3) 0.5359(2) 0.7369(2)
C11 C 0.4936(3) 0.4859(2) 0.8022(2)
H13 H 0.5430 0.5234 0.8073
H14 H 0.4458 0.4726 0.8582
H15 H 0.5437 0.4300 0.7820
C12 C 0.4871(3) 0.5639(2) 0.6504(2)
H16 H 0.5324 0.6028 0.6591
H17 H 0.5412 0.5102 0.6281
H18 H 0.4360 0.5958 0.6094
C13 C 0.3318(3) 0.4732(2) 0.7311(2)
H19 H 0.3699 0.4116 0.7517
C14 C 0.2115(3) 0.5053(2) 0.7937(2)
H20 H 0.1979 0.4573 0.8396
C15 C 0.1180(3) 0.5278(2) 0.7363(3)
O3 O 0.0072(2) 0.55168(18) 0.76176(19)
N4 N 0.1699(2) 0.5188(2) 0.65420(19)
C16 C 0.2988(3) 0.4741(2) 0.6425(2)
H21 H 0.3417 0.5106 0.5986
C17 C 0.3267(3) 0.3784(3) 0.6155(3)
H22 H 0.3020 0.3857 0.5605
C18 C 0.2571(4) 0.3170(3) 0.6800(3)
H23 H 0.2764 0.2586 0.6600
H24 H 0.2794 0.3094 0.7358
H25 H 0.1724 0.3443 0.6851
C19 C 0.4617(4) 0.3345(3) 0.6018(3)
H26 H 0.4787 0.2749 0.5848
H27 H 0.5020 0.3719 0.5569
H28 H 0.4894 0.3296 0.6552
C20 C 0.0995(3) 0.5321(3) 0.5863(3)
H29 H 0.0194 0.5669 0.6065
H30 H 0.0948 0.4737 0.5772
C21 C 0.1486(3) 0.5798(3) 0.5007(3)
C22 C 0.1645(3) 0.6673(3) 0.4968(3)
H31 H 0.1467 0.6967 0.5483
C23 C 0.2075(3) 0.7082(2) 0.4164(3)
C24 C 0.2345(3) 0.6667(3) 0.3422(2)
C25 C 0.2172(3) 0.5826(3) 0.3442(3)
H32 H 0.2350 0.5542 0.2921
C26 C 0.1738(3) 0.5406(3) 0.4248(3)
H33 H 0.1598 0.4818 0.4282
O4 O 0.2333(3) 0.79199(18) 0.39575(18)
C27 C 0.2574(4) 0.8064(3) 0.3024(3)
H34 H 0.3251 0.8319 0.2820
H35 H 0.1894 0.8479 0.2809
O5 O 0.2836(2) 0.71996(18) 0.27227(17)
N5 N 0.7179(3) 0.3761(2) -0.0697(2)
H36 H 0.7875 0.3920 -0.0891
H37 H 0.6505 0.4179 -0.0509
N6 N 0.6154(3) 0.2675(2) -0.0403(2)
H38 H 0.6151 0.2092 -0.0395
H39 H 0.5471 0.3084 -0.0212
C28 C 0.7143(3) 0.2921(3) -0.0695(2)
C29 C 0.8259(3) 0.2230(2) -0.1007(2)
C30 C 0.8379(3) 0.1317(2) -0.0667(2)
H40 H 0.7725 0.1135 -0.0264
C31 C 0.9435(3) 0.0672(2) -0.0917(2)
H41 H 0.9522 0.0047 -0.0666
C32 C 1.0373(3) 0.0918(2) -0.1521(2)
C33 C 1.0224(3) 0.1821(2) -0.1894(2)
H42 H 1.0853 0.1992 -0.2335
C34 C 0.9177(3) 0.2481(2) -0.1628(2)
H43 H 0.9089 0.3106 -0.1877
C35 C 1.1558(3) 0.0205(2) -0.1711(2)
H44 H 1.1700 -0.0159 -0.1167
N7 N 1.2569(2) 0.06077(19) -0.20599(19)
C36 C 1.2804(3) 0.1066(3) -0.1419(3)
H45 H 1.2101 0.1534 -0.1234
H46 H 1.3009 0.0634 -0.0924
H47 H 1.3458 0.1334 -0.1681
C37 C 1.3600(3) -0.0140(2) -0.2394(2)
C38 C 1.4128(3) -0.0843(3) -0.1663(2)
H48 H 1.4514 -0.0565 -0.1358
H49 H 1.3490 -0.1050 -0.1263
H50 H 1.4701 -0.1352 -0.1913
C39 C 1.4593(3) 0.0265(3) -0.2961(3)
H51 H 1.4279 0.0704 -0.3419
H52 H 1.4891 0.0558 -0.2608
H53 H 1.5235 -0.0210 -0.3212
C40 C 1.2988(3) -0.0618(2) -0.2863(2)
H54 H 1.3366 -0.1260 -0.2803
C41 C 1.1671(3) -0.0450(2) -0.2371(2)
H55 H 1.1507 -0.1012 -0.2070
C42 C 1.0914(3) -0.0063(2) -0.3065(2)
O6 O 0.98066(19) 0.01177(16) -0.29457(15)
N8 N 1.1630(2) 0.00330(18) -0.38409(18)
C43 C 1.2923(3) -0.0281(2) -0.3835(2)
H56 H 1.3269 0.0229 -0.4022
C44 C 1.3549(3) -0.1012(2) -0.4445(2)
H57 H 1.3453 -0.0740 -0.5028
C45 C 1.2997(3) -0.1820(2) -0.4228(2)
H58 H 1.3416 -0.2258 -0.4624
H59 H 1.3063 -0.2096 -0.3642
H60 H 1.2167 -0.1616 -0.4278
C46 C 1.4897(3) -0.1330(3) -0.4441(2)
H61 H 1.5273 -0.1788 -0.4824
H62 H 1.5244 -0.0821 -0.4635
H63 H 1.5019 -0.1580 -0.3859
C47 C 1.1151(3) 0.0365(2) -0.4641(2)
H64 H 1.0290 0.0533 -0.4498
H65 H 1.1390 -0.0120 -0.4996
C48 C 1.1570(3) 0.1175(2) -0.5164(2)
C49 C 1.2043(3) 0.1171(2) -0.6051(2)
H66 H 1.2155 0.0649 -0.6336
C50 C 1.2342(3) 0.1944(2) -0.6500(2)
C51 C 1.2197(3) 0.2698(2) -0.6099(2)
C52 C 1.1751(4) 0.2709(3) -0.5227(3)
H67 H 1.1664 0.3230 -0.4948
C53 C 1.1433(3) 0.1933(2) -0.4765(2)
H68 H 1.1104 0.1923 -0.4153
O7 O 1.2858(2) 0.20930(17) -0.73676(16)
C54 C 1.2709(4) 0.3066(3) -0.7524(3)
H69 H 1.3385 0.3213 -0.7929
H70 H 1.1996 0.3364 -0.7759
O8 O 1.2612(3) 0.33551(18) -0.67002(18)
loop_
_geom_bond_atom_site_label_1
_geom_bond_atom_site_label_2
_geom_bond_site_symmetry_1
_geom_bond_site_symmetry_2
N1 H1 1_555 1_555
H2 N1 1_555 1_555
N2 H3 1_555 1_555
H4 N2 1_555 1_555
C1 N1 1_555 1_555
C2 C1 1_555 1_555
C3 C2 1_555 1_555
H5 C3 1_555 1_555
C4 C3 1_555 1_555
H6 C4 1_555 1_555
C5 C4 1_555 1_555
C6 C5 1_555 1_555
H7 C6 1_555 1_555
C7 C2 1_555 1_555
H8 C7 1_555 1_555
C8 C5 1_555 1_555
H9 C8 1_555 1_555
N3 C8 1_555 1_555
C9 N3 1_555 1_555
H10 C9 1_555 1_555
H11 C9 1_555 1_555
H12 C9 1_555 1_555
C10 N3 1_555 1_555
C11 C10 1_555 1_555
H13 C11 1_555 1_555
H14 C11 1_555 1_555
H15 C11 1_555 1_555
C12 C10 1_555 1_555
H16 C12 1_555 1_555
H17 C12 1_555 1_555
H18 C12 1_555 1_555
C13 C10 1_555 1_555
H19 C13 1_555 1_555
C14 C8 1_555 1_555
H20 C14 1_555 1_555
C15 C14 1_555 1_555
O3 C15 1_555 1_555
N4 C15 1_555 1_555
C16 C13 1_555 1_555
H21 C16 1_555 1_555
C17 C16 1_555 1_555
H22 C17 1_555 1_555
C18 C17 1_555 1_555
H23 C18 1_555 1_555
H24 C18 1_555 1_555
H25 C18 1_555 1_555
C19 C17 1_555 1_555
H26 C19 1_555 1_555
H27 C19 1_555 1_555
H28 C19 1_555 1_555
C20 N4 1_555 1_555
H29 C20 1_555 1_555
H30 C20 1_555 1_555
C21 C20 1_555 1_555
C22 C21 1_555 1_555
H31 C22 1_555 1_555
C23 C22 1_555 1_555
C24 C23 1_555 1_555
C25 C24 1_555 1_555
H32 C25 1_555 1_555
C26 C21 1_555 1_555
H33 C26 1_555 1_555
O4 C23 1_555 1_555
C27 O4 1_555 1_555
H34 C27 1_555 1_555
H35 C27 1_555 1_555
O5 C24 1_555 1_555
N5 H36 1_555 1_555
H37 N5 1_555 1_555
N6 H38 1_555 1_555
H39 N6 1_555 1_555
C28 N5 1_555 1_555
C29 C28 1_555 1_555
C30 C29 1_555 1_555
H40 C30 1_555 1_555
C31 C30 1_555 1_555
H41 C31 1_555 1_555
C32 C31 1_555 1_555
C33 C32 1_555 1_555
H42 C33 1_555 1_555
C34 C29 1_555 1_555
H43 C34 1_555 1_555
C35 C32 1_555 1_555
H44 C35 1_555 1_555
N7 C35 1_555 1_555
C36 N7 1_555 1_555
H45 C36 1_555 1_555
H46 C36 1_555 1_555
H47 C36 1_555 1_555
C37 N7 1_555 1_555
C38 C37 1_555 1_555
H48 C38 1_555 1_555
H49 C38 1_555 1_555
H50 C38 1_555 1_555
C39 C37 1_555 1_555
H51 C39 1_555 1_555
H52 C39 1_555 1_555
H53 C39 1_555 1_555
C40 C37 1_555 1_555
H54 C40 1_555 1_555
C41 C35 1_555 1_555
H55 C41 1_555 1_555
C42 C41 1_555 1_555
O6 C42 1_555 1_555
N8 C42 1_555 1_555
C43 C40 1_555 1_555
H56 C43 1_555 1_555
C44 C43 1_555 1_555
H57 C44 1_555 1_555
C45 C44 1_555 1_555
H58 C45 1_555 1_555
H59 C45 1_555 1_555
H60 C45 1_555 1_555
C46 C44 1_555 1_555
H61 C46 1_555 1_555
H62 C46 1_555 1_555
H63 C46 1_555 1_555
C47 N8 1_555 1_555
H64 C47 1_555 1_555
H65 C47 1_555 1_555
C48 C47 1_555 1_555
C49 C48 1_555 1_555
H66 C49 1_555 1_555
C50 C49 1_555 1_555
C51 C50 1_555 1_555
C52 C51 1_555 1_555
H67 C52 1_555 1_555
C53 C48 1_555 1_555
H68 C53 1_555 1_555
O7 C50 1_555 1_555
C54 O7 1_555 1_555
H69 C54 1_555 1_555
H70 C54 1_555 1_555
O8 C51 1_555 1_555
N2 C1 1_555 1_555
C6 C7 1_555 1_555
C13 C14 1_555 1_555
N4 C16 1_555 1_555
C25 C26 1_555 1_555
C27 O5 1_555 1_555
N6 C28 1_555 1_555
C33 C34 1_555 1_555
C40 C41 1_555 1_555
N8 C43 1_555 1_555
C52 C53 1_555 1_555
C54 O8 1_555 1_555

#END
