
#######################################################################
#
#                 Cambridge Crystallographic Data Centre
#                                CCDC 
#
#######################################################################
#
# If this CIF has been generated from an entry in the Cambridge 
# Structural Database, then it will include bibliographic, chemical, 
# crystal, experimental, refinement or atomic coordinate data resulting 
# from the CCDC's data processing and validation procedures.
#
#######################################################################

data_LOBBUB
_chemical_formula_moiety         'C37 H24 O3'
_chemical_name_systematic        
2',3',4',5'-Tetraphenyl-4H-spiro[chromene-3,1'-cyclopenta[2,4]diene]-2,4-dione
_symmetry_cell_setting           triclinic
_symmetry_space_group_name_H-M   'P -1'
_symmetry_Int_Tables_number      2
_space_group_name_Hall           '-P 1'
loop_
_symmetry_equiv_pos_site_id
_symmetry_equiv_pos_as_xyz
1 x,y,z
2 -x,-y,-z
_cell_length_a                   6.3266(6)
_cell_length_b                   11.3868(11)
_cell_length_c                   18.6894(19)
_cell_angle_alpha                94.305(2)
_cell_angle_beta                 99.144(2)
_cell_angle_gamma                100.166(2)
_cell_volume                     1301.01
_exptl_crystal_colour            colorless
_exptl_crystal_description       Block
_cell_formula_units_Z            2
loop_
_atom_site_label
_atom_site_type_symbol
_atom_site_fract_x
_atom_site_fract_y
_atom_site_fract_z
O1 O 0.20070(16) 0.52467(9) 0.36460(5)
O2 O -0.02250(16) 0.39041(9) 0.28499(6)
O3 O 0.65848(16) 0.31602(9) 0.37834(5)
C1 C 0.4063(2) 0.56961(12) 0.40437(7)
C2 C 0.4321(2) 0.68081(13) 0.44461(8)
H1 H 0.3136 0.7220 0.4428
C3 C 0.6317(3) 0.73057(13) 0.48715(8)
H2 H 0.6508 0.8064 0.5147
C4 C 0.8056(3) 0.66955(13) 0.48976(8)
H3 H 0.9431 0.7043 0.5187
C5 C 0.7776(2) 0.55857(13) 0.45031(8)
H4 H 0.8957 0.5170 0.4523
C6 C 0.5772(2) 0.50794(12) 0.40778(7)
C7 C 0.5439(2) 0.38882(12) 0.36568(7)
C8 C 0.3533(2) 0.36732(11) 0.30169(7)
C9 C 0.1591(2) 0.42438(12) 0.31606(7)
C10 C 0.2832(2) 0.23673(11) 0.27256(7)
C11 C 0.3271(2) 0.22159(11) 0.20477(7)
C12 C 0.4278(2) 0.33855(11) 0.18361(7)
C13 C 0.4399(2) 0.42609(12) 0.23730(7)
C14 C 0.2081(2) 0.14177(11) 0.31764(7)
C15 C 0.0164(2) 0.13591(13) 0.34641(7)
H5 H -0.0727 0.1939 0.3368
C16 C -0.0442(3) 0.04496(14) 0.38922(8)
H6 H -0.1748 0.0412 0.4087
C17 C 0.0840(3) -0.03975(13) 0.40357(9)
H7 H 0.0421 -0.1012 0.4330
C18 C 0.2742(3) -0.03483(14) 0.37486(9)
H8 H 0.3624 -0.0932 0.3845
C19 C 0.3357(3) 0.05515(13) 0.33207(8)
H9 H 0.4658 0.0579 0.3124
C20 C 0.2747(2) 0.10786(11) 0.15648(7)
C21 C 0.4287(2) 0.06661(12) 0.12051(8)
H10 H 0.5729 0.1119 0.1270
C22 C 0.3717(3) -0.04045(13) 0.07519(8)
H11 H 0.4780 -0.0690 0.0516
C23 C 0.1615(3) -0.10562(14) 0.06418(9)
H12 H 0.1227 -0.1781 0.0324
C24 C 0.0074(3) -0.06547(14) 0.09943(10)
H13 H -0.1372 -0.1105 0.0920
C25 C 0.0638(2) 0.04035(13) 0.14549(9)
H14 H -0.0425 0.0672 0.1699
C26 C 0.5045(2) 0.35390(11) 0.11350(7)
C27 C 0.3629(2) 0.32061(12) 0.04720(8)
H15 H 0.2135 0.2882 0.0465
C28 C 0.4393(3) 0.33468(13) -0.01791(8)
H16 H 0.3414 0.3132 -0.0630
C29 C 0.6573(3) 0.37988(13) -0.01744(8)
H17 H 0.7091 0.3893 -0.0621
C30 C 0.7996(3) 0.41133(14) 0.04808(9)
H18 H 0.9498 0.4415 0.0484
C31 C 0.7239(2) 0.39892(13) 0.11338(8)
H19 H 0.8224 0.4213 0.1583
C32 C 0.5026(2) 0.55810(11) 0.23694(7)
C33 C 0.3418(2) 0.62508(13) 0.21747(8)
H20 H 0.1937 0.5857 0.2039
C34 C 0.3963(3) 0.74895(13) 0.21768(8)
H21 H 0.2855 0.7938 0.2046
C35 C 0.6115(3) 0.80660(13) 0.23689(9)
H22 H 0.6490 0.8911 0.2367
C36 C 0.7722(3) 0.74143(14) 0.25644(9)
H23 H 0.9200 0.7813 0.2697
C37 C 0.7187(2) 0.61783(13) 0.25687(8)
H24 H 0.8301 0.5738 0.2708
loop_
_geom_bond_atom_site_label_1
_geom_bond_atom_site_label_2
_geom_bond_site_symmetry_1
_geom_bond_site_symmetry_2
O1 C1 1_555 1_555
O2 C9 1_555 1_555
O3 C7 1_555 1_555
C1 C2 1_555 1_555
C2 H1 1_555 1_555
C3 C2 1_555 1_555
H2 C3 1_555 1_555
C4 C3 1_555 1_555
H3 C4 1_555 1_555
C5 C4 1_555 1_555
H4 C5 1_555 1_555
C6 C1 1_555 1_555
C7 C6 1_555 1_555
C8 C7 1_555 1_555
C9 O1 1_555 1_555
C10 C8 1_555 1_555
C11 C10 1_555 1_555
C12 C11 1_555 1_555
C13 C8 1_555 1_555
C14 C10 1_555 1_555
C15 C14 1_555 1_555
H5 C15 1_555 1_555
C16 C15 1_555 1_555
H6 C16 1_555 1_555
C17 C16 1_555 1_555
H7 C17 1_555 1_555
C18 C17 1_555 1_555
H8 C18 1_555 1_555
C19 C14 1_555 1_555
H9 C19 1_555 1_555
C20 C11 1_555 1_555
C21 C20 1_555 1_555
H10 C21 1_555 1_555
C22 C21 1_555 1_555
H11 C22 1_555 1_555
C23 C22 1_555 1_555
H12 C23 1_555 1_555
C24 C23 1_555 1_555
H13 C24 1_555 1_555
C25 C20 1_555 1_555
H14 C25 1_555 1_555
C26 C12 1_555 1_555
C27 C26 1_555 1_555
H15 C27 1_555 1_555
C28 C27 1_555 1_555
H16 C28 1_555 1_555
C29 C28 1_555 1_555
H17 C29 1_555 1_555
C30 C29 1_555 1_555
H18 C30 1_555 1_555
C31 C26 1_555 1_555
H19 C31 1_555 1_555
C32 C13 1_555 1_555
C33 C32 1_555 1_555
H20 C33 1_555 1_555
C34 C33 1_555 1_555
H21 C34 1_555 1_555
C35 C34 1_555 1_555
H22 C35 1_555 1_555
C36 C35 1_555 1_555
H23 C36 1_555 1_555
C37 C32 1_555 1_555
H24 C37 1_555 1_555
C5 C6 1_555 1_555
C8 C9 1_555 1_555
C12 C13 1_555 1_555
C18 C19 1_555 1_555
C24 C25 1_555 1_555
C30 C31 1_555 1_555
C36 C37 1_555 1_555

#END
