
#######################################################################
#
#                 Cambridge Crystallographic Data Centre
#                                CCDC 
#
#######################################################################
#
# If this CIF has been generated from an entry in the Cambridge 
# Structural Database, then it will include bibliographic, chemical, 
# crystal, experimental, refinement or atomic coordinate data resulting 
# from the CCDC's data processing and validation procedures.
#
#######################################################################

data_LOBCOW
_chemical_formula_moiety         'C30 H27 N2 O3 P1'
_chemical_name_systematic        
4-((Diphenylphosphoryl)(4-methoxyphenyl)methyl)-3-methyl-1-phenyl-1H-pyrazol-5-ol
_symmetry_cell_setting           orthorhombic
_symmetry_space_group_name_H-M   'P b c a'
_symmetry_Int_Tables_number      61
_space_group_name_Hall           '-P 2ac 2ab'
loop_
_symmetry_equiv_pos_site_id
_symmetry_equiv_pos_as_xyz
1 x,y,z
2 1/2+x,1/2-y,-z
3 -x,1/2+y,1/2-z
4 1/2-x,-y,1/2+z
5 -x,-y,-z
6 1/2-x,1/2+y,z
7 x,1/2-y,1/2+z
8 1/2+x,y,1/2-z
_cell_length_a                   12.666(5)
_cell_length_b                   15.066(6)
_cell_length_c                   26.055(12)
_cell_angle_alpha                90
_cell_angle_beta                 90
_cell_angle_gamma                90
_cell_volume                     4971.97
_exptl_crystal_colour            colorless
_exptl_crystal_description       block
_cell_formula_units_Z            8
loop_
_atom_site_label
_atom_site_type_symbol
_atom_site_fract_x
_atom_site_fract_y
_atom_site_fract_z
P1 P 0.29905(10) 0.40963(8) 0.61724(4)
N1 N 0.1981(3) 0.3283(2) 0.45670(13)
N2 N 0.2695(3) 0.2593(2) 0.45108(13)
O1 O 0.2116(2) 0.47094(19) 0.60303(11)
O2 O 0.1277(3) 0.4206(2) 0.51954(11)
H1 H 0.1381 0.4344 0.5504
O3 O -0.0397(3) 0.1153(2) 0.70544(11)
C1 C 0.2768(4) 0.2979(3) 0.59239(15)
H2 H 0.3432 0.2633 0.5981
C2 C 0.2586(4) 0.3022(3) 0.53486(16)
C3 C 0.3049(3) 0.2450(3) 0.49820(17)
C4 C 0.3848(4) 0.1734(3) 0.50753(19)
H3 H 0.3999 0.1426 0.4752
H4 H 0.3568 0.1309 0.5326
H5 H 0.4499 0.1998 0.5209
C5 C 0.1910(4) 0.3548(3) 0.50666(16)
C6 C 0.1394(4) 0.3583(3) 0.41285(16)
C7 C 0.1396(4) 0.3032(3) 0.36967(16)
H6 H 0.1781 0.2491 0.3693
C8 C 0.0805(4) 0.3310(4) 0.32679(18)
H7 H 0.0790 0.2947 0.2970
C9 C 0.0251(4) 0.4091(4) 0.32697(19)
H8 H -0.0152 0.4263 0.2978
C10 C 0.0285(4) 0.4626(4) 0.37010(17)
H9 H -0.0081 0.5176 0.3700
C11 C 0.0836(4) 0.4374(3) 0.41283(18)
H10 H 0.0837 0.4741 0.4425
C12 C 0.1889(3) 0.2509(3) 0.62205(14)
C13 C 0.2149(4) 0.1893(3) 0.66066(16)
H11 H 0.2869 0.1768 0.6679
C14 C 0.1364(4) 0.1471(3) 0.68789(16)
H12 H 0.1549 0.1062 0.7142
C15 C 0.0306(4) 0.1635(3) 0.67746(16)
C16 C 0.0047(4) 0.2247(3) 0.63971(16)
H13 H -0.0673 0.2374 0.6325
C17 C 0.0832(4) 0.2668(3) 0.61277(15)
H14 H 0.0642 0.3083 0.5869
C18 C -0.1495(4) 0.1301(4) 0.6944(2)
H15 H -0.1668 0.1927 0.7002
H16 H -0.1929 0.0929 0.7169
H17 H -0.1638 0.1147 0.6585
C19 C 0.4241(4) 0.4452(3) 0.59169(15)
C20 C 0.4342(4) 0.5325(3) 0.57430(15)
H18 H 0.3757 0.5718 0.5760
C21 C 0.5286(4) 0.5613(3) 0.55480(17)
H19 H 0.5347 0.6204 0.5425
C22 C 0.6152(5) 0.5055(3) 0.55278(17)
H20 H 0.6810 0.5263 0.5401
C23 C 0.6046(4) 0.4180(3) 0.56972(19)
H21 H 0.6632 0.3788 0.5680
C24 C 0.5098(4) 0.3884(3) 0.58882(17)
H22 H 0.5031 0.3288 0.6001
C25 C 0.3097(4) 0.4012(3) 0.68601(16)
C26 C 0.4023(4) 0.3795(3) 0.71108(17)
H23 H 0.4650 0.3697 0.6919
C27 C 0.4044(5) 0.3718(4) 0.7638(2)
H24 H 0.4682 0.3564 0.7807
C28 C 0.3145(5) 0.3864(4) 0.79181(19)
H25 H 0.3166 0.3820 0.8282
C29 C 0.2211(5) 0.4074(3) 0.76759(19)
H26 H 0.1586 0.4168 0.7870
C30 C 0.2194(4) 0.4144(3) 0.71508(18)
H27 H 0.1550 0.4287 0.6983
loop_
_geom_bond_atom_site_label_1
_geom_bond_atom_site_label_2
_geom_bond_site_symmetry_1
_geom_bond_site_symmetry_2
P1 O1 1_555 1_555
N1 N2 1_555 1_555
N2 C3 1_555 1_555
O2 H1 1_555 1_555
O3 C15 1_555 1_555
C1 P1 1_555 1_555
H2 C1 1_555 1_555
C2 C1 1_555 1_555
C3 C2 1_555 1_555
C4 C3 1_555 1_555
H3 C4 1_555 1_555
H4 C4 1_555 1_555
H5 C4 1_555 1_555
C5 N1 1_555 1_555
C6 N1 1_555 1_555
C7 C6 1_555 1_555
H6 C7 1_555 1_555
C8 C7 1_555 1_555
H7 C8 1_555 1_555
C9 C8 1_555 1_555
H8 C9 1_555 1_555
C10 C9 1_555 1_555
H9 C10 1_555 1_555
C11 C6 1_555 1_555
H10 C11 1_555 1_555
C12 C1 1_555 1_555
C13 C12 1_555 1_555
H11 C13 1_555 1_555
C14 C13 1_555 1_555
H12 C14 1_555 1_555
C15 C14 1_555 1_555
C16 C15 1_555 1_555
H13 C16 1_555 1_555
C17 C12 1_555 1_555
H14 C17 1_555 1_555
C18 O3 1_555 1_555
H15 C18 1_555 1_555
H16 C18 1_555 1_555
H17 C18 1_555 1_555
C19 P1 1_555 1_555
C20 C19 1_555 1_555
H18 C20 1_555 1_555
C21 C20 1_555 1_555
H19 C21 1_555 1_555
C22 C21 1_555 1_555
H20 C22 1_555 1_555
C23 C22 1_555 1_555
H21 C23 1_555 1_555
C24 C19 1_555 1_555
H22 C24 1_555 1_555
C25 P1 1_555 1_555
C26 C25 1_555 1_555
H23 C26 1_555 1_555
C27 C26 1_555 1_555
H24 C27 1_555 1_555
C28 C27 1_555 1_555
H25 C28 1_555 1_555
C29 C28 1_555 1_555
H26 C29 1_555 1_555
C30 C25 1_555 1_555
H27 C30 1_555 1_555
O2 C5 1_555 1_555
C2 C5 1_555 1_555
C10 C11 1_555 1_555
C16 C17 1_555 1_555
C23 C24 1_555 1_555
C29 C30 1_555 1_555

#END
