
#######################################################################
#
#                 Cambridge Crystallographic Data Centre
#                                CCDC 
#
#######################################################################
#
# If this CIF has been generated from an entry in the Cambridge 
# Structural Database, then it will include bibliographic, chemical, 
# crystal, experimental, refinement or atomic coordinate data resulting 
# from the CCDC's data processing and validation procedures.
#
#######################################################################

data_LOBHOB
_chemical_formula_moiety         'C29 H26 Br1 I1 N2 O4 S1'
_chemical_name_systematic        
'Methyl 4-bromo-N-(2-iodophenyl)-\b-(((4-methylphenyl)sulfonyl)amino)-\a-phenylphenylalaninate'
_symmetry_cell_setting           monoclinic
_symmetry_space_group_name_H-M   'P 21/c'
_symmetry_Int_Tables_number      14
_space_group_name_Hall           '-P 2ybc'
loop_
_symmetry_equiv_pos_site_id
_symmetry_equiv_pos_as_xyz
1 x,y,z
2 -x,1/2+y,1/2-z
3 -x,-y,-z
4 x,1/2-y,1/2+z
_cell_length_a                   16.3929(8)
_cell_length_b                   11.8375(6)
_cell_length_c                   16.4663(8)
_cell_angle_alpha                90
_cell_angle_beta                 114.8960(10)
_cell_angle_gamma                90
_cell_volume                     2898.37
_exptl_crystal_colour            colorless
_exptl_crystal_description       block
_cell_formula_units_Z            4
loop_
_atom_site_label
_atom_site_type_symbol
_atom_site_fract_x
_atom_site_fract_y
_atom_site_fract_z
I1 I 0.013698(19) 0.14497(3) 0.41738(2)
Br1 Br 0.02772(5) 0.70486(6) 0.41039(4)
S1 S 0.47174(6) 0.39805(8) 0.60023(6)
N1 N 0.4021(2) 0.3702(3) 0.4972(2)
H1 H 0.4187 0.3786 0.4531
N2 N 0.1958(2) 0.1966(3) 0.3937(2)
H2 H 0.1698 0.2305 0.4242
O1 O 0.55152(18) 0.4391(2) 0.59377(19)
O2 O 0.47754(19) 0.3005(2) 0.65317(19)
O3 O 0.4035(2) 0.1130(3) 0.4072(2)
O4 O 0.3500(2) 0.0966(2) 0.5104(2)
C1 C 0.4042(3) 0.4927(4) 0.7107(3)
H3 H 0.4172 0.4229 0.7420
C2 C 0.3645(3) 0.5804(4) 0.7371(3)
H4 H 0.3517 0.5704 0.7878
C3 C 0.3433(3) 0.6815(4) 0.6916(3)
C4 C 0.3641(3) 0.6953(4) 0.6189(3)
H5 H 0.3499 0.7647 0.5870
C5 C 0.4050(3) 0.6108(4) 0.5916(3)
H6 H 0.4195 0.6220 0.5420
C6 C 0.4247(3) 0.5084(3) 0.6383(3)
C7 C 0.1716(3) 0.5968(4) 0.3880(3)
H7 H 0.1655 0.6567 0.3474
C8 C 0.2347(3) 0.5127(3) 0.4022(3)
H8 H 0.2723 0.5148 0.3714
C9 C 0.2434(2) 0.4249(3) 0.4616(2)
C10 C 0.1887(3) 0.4249(4) 0.5071(3)
H9 H 0.1949 0.3661 0.5485
C11 C 0.1256(3) 0.5085(4) 0.4934(3)
H10 H 0.0883 0.5078 0.5246
C12 C 0.1179(3) 0.5929(4) 0.4333(3)
C13 C 0.2763(3) 0.2904(3) 0.3147(3)
C14 C 0.3513(3) 0.3088(3) 0.2976(3)
H11 H 0.4091 0.2875 0.3410
C15 C 0.3426(3) 0.3582(4) 0.2176(3)
H12 H 0.3943 0.3691 0.2064
C16 C 0.2595(3) 0.3913(4) 0.1548(3)
H13 H 0.2536 0.4251 0.1003
C17 C 0.1844(3) 0.3748(4) 0.1717(3)
H14 H 0.1270 0.3985 0.1290
C18 C 0.1927(3) 0.3241(4) 0.2507(3)
H15 H 0.1406 0.3121 0.2611
C19 C 0.1518(3) 0.1059(3) 0.3401(3)
C20 C 0.1846(3) 0.0509(4) 0.2849(3)
H16 H 0.2396 0.0749 0.2842
C21 C 0.1377(4) -0.0384(4) 0.2314(3)
H17 H 0.1614 -0.0759 0.1950
C22 C 0.0565(4) -0.0739(5) 0.2301(4)
H18 H 0.0243 -0.1345 0.1924
C23 C 0.0230(4) -0.0205(5) 0.2839(4)
H19 H -0.0324 -0.0445 0.2836
C24 C 0.0701(3) 0.0680(4) 0.3384(3)
C25 C 0.3115(2) 0.3308(3) 0.4794(2)
H20 H 0.3160 0.2910 0.5347
C26 C 0.2823(2) 0.2394(3) 0.4026(3)
C27 C 0.3531(3) 0.1432(3) 0.4385(3)
C28 C 0.4135(3) 0.0026(5) 0.5508(3)
H21 H 0.4062 -0.0260 0.6032
H22 H 0.4752 0.0297 0.5693
H23 H 0.4012 -0.0582 0.5068
C29 C 0.2976(4) 0.7753(5) 0.7189(4)
H24 H 0.2882 0.7516 0.7714
H25 H 0.2394 0.7922 0.6694
H26 H 0.3355 0.8431 0.7337
loop_
_geom_bond_atom_site_label_1
_geom_bond_atom_site_label_2
_geom_bond_site_symmetry_1
_geom_bond_site_symmetry_2
I1 C24 1_555 1_555
Br1 C12 1_555 1_555
S1 N1 1_555 1_555
N1 H1 1_555 1_555
N2 H2 1_555 1_555
O1 S1 1_555 1_555
O2 S1 1_555 1_555
O3 C27 1_555 1_555
O4 C27 1_555 1_555
C1 H3 1_555 1_555
C2 C1 1_555 1_555
H4 C2 1_555 1_555
C3 C2 1_555 1_555
C4 C3 1_555 1_555
H5 C4 1_555 1_555
C5 C4 1_555 1_555
H6 C5 1_555 1_555
C6 S1 1_555 1_555
C7 H7 1_555 1_555
C8 C7 1_555 1_555
H8 C8 1_555 1_555
C9 C8 1_555 1_555
C10 C9 1_555 1_555
H9 C10 1_555 1_555
C11 C10 1_555 1_555
H10 C11 1_555 1_555
C12 C7 1_555 1_555
C13 C14 1_555 1_555
C14 H11 1_555 1_555
C15 C14 1_555 1_555
H12 C15 1_555 1_555
C16 C15 1_555 1_555
H13 C16 1_555 1_555
C17 C16 1_555 1_555
H14 C17 1_555 1_555
C18 C13 1_555 1_555
H15 C18 1_555 1_555
C19 N2 1_555 1_555
C20 C19 1_555 1_555
H16 C20 1_555 1_555
C21 C20 1_555 1_555
H17 C21 1_555 1_555
C22 C21 1_555 1_555
H18 C22 1_555 1_555
C23 C22 1_555 1_555
H19 C23 1_555 1_555
C24 C19 1_555 1_555
C25 N1 1_555 1_555
H20 C25 1_555 1_555
C26 N2 1_555 1_555
C27 C26 1_555 1_555
C28 O4 1_555 1_555
H21 C28 1_555 1_555
H22 C28 1_555 1_555
H23 C28 1_555 1_555
C29 C3 1_555 1_555
H24 C29 1_555 1_555
H25 C29 1_555 1_555
H26 C29 1_555 1_555
C1 C6 1_555 1_555
C5 C6 1_555 1_555
C9 C25 1_555 1_555
C11 C12 1_555 1_555
C13 C26 1_555 1_555
C17 C18 1_555 1_555
C23 C24 1_555 1_555
C25 C26 1_555 1_555

#END
