
#######################################################################
#
#                 Cambridge Crystallographic Data Centre
#                                CCDC 
#
#######################################################################
#
# If this CIF has been generated from an entry in the Cambridge 
# Structural Database, then it will include bibliographic, chemical, 
# crystal, experimental, refinement or atomic coordinate data resulting 
# from the CCDC's data processing and validation procedures.
#
#######################################################################

data_LOBHIV
_chemical_formula_moiety         'C14 H18 N6'
_chemical_name_systematic        
1,1'-Tricyclo[3.3.1.1^3,7^]decane-1,3-diylbis(1H-1,2,4-triazole)
_symmetry_cell_setting           monoclinic
_symmetry_space_group_name_H-M   'P 21/c'
_symmetry_Int_Tables_number      14
_space_group_name_Hall           '-P 2ybc'
loop_
_symmetry_equiv_pos_site_id
_symmetry_equiv_pos_as_xyz
1 x,y,z
2 -x,1/2+y,1/2-z
3 -x,-y,-z
4 x,1/2-y,1/2+z
_cell_length_a                   10.800(3)
_cell_length_b                   9.539(2)
_cell_length_c                   13.134(3)
_cell_angle_alpha                90
_cell_angle_beta                 108.589(3)
_cell_angle_gamma                90
_cell_volume                     1282.49
_exptl_crystal_colour            colorless
_exptl_crystal_description       Chunk
_chemical_melting_point          '447-449 K'
_cell_formula_units_Z            4
_exptl_crystal_recrystallization_method tetrahydrofuran
loop_
_atom_site_label
_atom_site_type_symbol
_atom_site_fract_x
_atom_site_fract_y
_atom_site_fract_z
N1 N 1.00132(8) 0.38959(9) 0.71961(7)
N2 N 0.98938(9) 0.40132(11) 0.61359(7)
N3 N 1.20289(9) 0.39645(10) 0.71426(8)
N4 N 0.53160(8) 0.30333(10) 0.61227(7)
N5 N 0.53620(9) 0.18522(12) 0.55504(9)
N6 N 0.34116(9) 0.29373(12) 0.48518(8)
C1 C 0.88655(9) 0.38821(10) 0.75791(8)
C2 C 0.76566(9) 0.34623(11) 0.66451(8)
H1 H 0.7787 0.2522 0.6377
H2 H 0.7516 0.4140 0.6048
C3 C 0.64587(9) 0.34459(10) 0.70394(8)
C4 C 0.66685(10) 0.23797(11) 0.79543(8)
H3 H 0.5897 0.2366 0.8206
H4 H 0.6783 0.1429 0.7695
C5 C 0.78883(10) 0.27961(12) 0.88802(8)
H5 H 0.8032 0.2104 0.9479
C6 C 0.90866(10) 0.28128(12) 0.84919(8)
H6 H 0.9875 0.3069 0.9093
H7 H 0.9224 0.1869 0.8233
C7 C 0.76948(12) 0.42608(13) 0.92867(9)
H8 H 0.8479 0.4532 0.9887
H9 H 0.6937 0.4254 0.9556
C8 C 0.86489(10) 0.53544(11) 0.79650(9)
H10 H 0.9434 0.5656 0.8552
H11 H 0.8496 0.6032 0.7367
C9 C 0.74611(11) 0.53241(12) 0.83680(9)
H12 H 0.7328 0.6277 0.8634
C10 C 0.62416(10) 0.49048(11) 0.74396(9)
H13 H 0.5468 0.4893 0.7689
H14 H 0.6083 0.5594 0.6848
C11 C 1.12875(10) 0.38768(12) 0.77726(9)
H15 H 1.1615 0.3809 0.8533
C12 C 1.11258(10) 0.40403(12) 0.61558(9)
H16 H 1.1361 0.4108 0.5519
C13 C 0.42035(11) 0.18569(15) 0.47975(9)
H17 H 0.3946 0.1154 0.4259
C14 C 0.41499(10) 0.36451(13) 0.56948(9)
H18 H 0.3886 0.4480 0.5962
loop_
_geom_bond_atom_site_label_1
_geom_bond_atom_site_label_2
_geom_bond_site_symmetry_1
_geom_bond_site_symmetry_2
N1 N2 1_555 1_555
N2 C12 1_555 1_555
N3 C11 1_555 1_555
N4 N5 1_555 1_555
N5 C13 1_555 1_555
N6 C13 1_555 1_555
C1 N1 1_555 1_555
C2 C1 1_555 1_555
H1 C2 1_555 1_555
H2 C2 1_555 1_555
C3 N4 1_555 1_555
C4 C3 1_555 1_555
H3 C4 1_555 1_555
H4 C4 1_555 1_555
C5 C4 1_555 1_555
H5 C5 1_555 1_555
C6 C1 1_555 1_555
H6 C6 1_555 1_555
H7 C6 1_555 1_555
C7 C5 1_555 1_555
H8 C7 1_555 1_555
H9 C7 1_555 1_555
C8 C1 1_555 1_555
H10 C8 1_555 1_555
H11 C8 1_555 1_555
C9 C7 1_555 1_555
H12 C9 1_555 1_555
C10 C3 1_555 1_555
H13 C10 1_555 1_555
H14 C10 1_555 1_555
C11 N1 1_555 1_555
H15 C11 1_555 1_555
C12 N3 1_555 1_555
H16 C12 1_555 1_555
C13 H17 1_555 1_555
C14 N4 1_555 1_555
H18 C14 1_555 1_555
N6 C14 1_555 1_555
C2 C3 1_555 1_555
C5 C6 1_555 1_555
C8 C9 1_555 1_555
C9 C10 1_555 1_555

#END
