
#######################################################################
#
#                 Cambridge Crystallographic Data Centre
#                                CCDC 
#
#######################################################################
#
# If this CIF has been generated from an entry in the Cambridge 
# Structural Database, then it will include bibliographic, chemical, 
# crystal, experimental, refinement or atomic coordinate data resulting 
# from the CCDC's data processing and validation procedures.
#
#######################################################################

data_LOBNAT
_chemical_formula_moiety         'C17 H11 N1'
_chemical_name_systematic        3-Phenyl-2-naphthonitrile
_symmetry_cell_setting           monoclinic
_symmetry_space_group_name_H-M   'C 2/c'
_symmetry_Int_Tables_number      15
_space_group_name_Hall           '-C 2yn'
loop_
_symmetry_equiv_pos_site_id
_symmetry_equiv_pos_as_xyz
1 x,y,z
2 -x,y,1/2-z
3 1/2+x,1/2+y,z
4 1/2-x,1/2+y,1/2-z
5 -x,-y,-z
6 x,-y,1/2+z
7 1/2-x,1/2-y,-z
8 1/2+x,1/2-y,1/2+z
_cell_length_a                   17.309(4)
_cell_length_b                   7.1684(17)
_cell_length_c                   20.343(5)
_cell_angle_alpha                90
_cell_angle_beta                 103.837(4)
_cell_angle_gamma                90
_cell_volume                     2450.87
_exptl_crystal_description       block
_cell_formula_units_Z            8
loop_
_atom_site_label
_atom_site_type_symbol
_atom_site_fract_x
_atom_site_fract_y
_atom_site_fract_z
C1 C 0.33902(8) -0.0828(2) 0.98835(7)
H1 H 0.3047 -0.1825 0.9742
C2 C 0.44260(8) 0.2131(2) 1.03082(7)
H2 H 0.4770 0.3130 1.0443
C3 C 0.37762(9) 0.3973(2) 0.93432(7)
N1 N 0.37664(9) 0.53382(19) 0.90501(7)
C4 C 0.25829(9) -0.0499(2) 0.83800(8)
H3 H 0.2929 -0.1512 0.8458
C5 C 0.20008(10) -0.0394(3) 0.77829(8)
H4 H 0.1963 -0.1323 0.7458
C6 C 0.51493(9) 0.0292(2) 1.12892(8)
H5 H 0.5505 0.1268 1.1428
C7 C 0.45274(8) 0.0487(2) 1.06959(7)
C8 C 0.39987(8) -0.1022(2) 1.04843(7)
C9 C 0.32872(7) 0.07683(19) 0.95027(6)
C10 C 0.26548(8) 0.0898(2) 0.88655(7)
C11 C 0.38236(8) 0.22790(18) 0.97315(7)
C12 C 0.52288(10) -0.1306(3) 1.16561(8)
H6 H 0.5638 -0.1420 1.2044
C13 C 0.21232(9) 0.2377(2) 0.87407(8)
H7 H 0.2162 0.3324 0.9060
C14 C 0.15341(9) 0.2456(3) 0.81436(9)
H8 H 0.1176 0.3444 0.8066
C15 C 0.14804(10) 0.1075(3) 0.76686(8)
H9 H 0.1089 0.1137 0.7267
C16 C 0.40946(10) -0.2668(2) 1.08802(8)
H10 H 0.3748 -0.3666 1.0751
C17 C 0.46970(11) -0.2789(3) 1.14529(9)
H11 H 0.4755 -0.3872 1.1712
loop_
_geom_bond_atom_site_label_1
_geom_bond_atom_site_label_2
_geom_bond_site_symmetry_1
_geom_bond_site_symmetry_2
C1 H1 1_555 1_555
C2 H2 1_555 1_555
C3 N1 1_555 1_555
C4 H3 1_555 1_555
C5 C4 1_555 1_555
H4 C5 1_555 1_555
C6 H5 1_555 1_555
C7 C2 1_555 1_555
C8 C1 1_555 1_555
C9 C1 1_555 1_555
C10 C4 1_555 1_555
C11 C2 1_555 1_555
C12 C6 1_555 1_555
H6 C12 1_555 1_555
C13 C10 1_555 1_555
H7 C13 1_555 1_555
C14 C13 1_555 1_555
H8 C14 1_555 1_555
C15 C5 1_555 1_555
H9 C15 1_555 1_555
C16 C8 1_555 1_555
H10 C16 1_555 1_555
C17 C12 1_555 1_555
H11 C17 1_555 1_555
C3 C11 1_555 1_555
C6 C7 1_555 1_555
C7 C8 1_555 1_555
C9 C10 1_555 1_555
C9 C11 1_555 1_555
C14 C15 1_555 1_555
C16 C17 1_555 1_555

#END
