
#######################################################################
#
#                 Cambridge Crystallographic Data Centre
#                                CCDC 
#
#######################################################################
#
# If this CIF has been generated from an entry in the Cambridge 
# Structural Database, then it will include bibliographic, chemical, 
# crystal, experimental, refinement or atomic coordinate data resulting 
# from the CCDC's data processing and validation procedures.
#
#######################################################################

data_LOBNIB
_chemical_formula_moiety         'C20 H19 Br2 O3 P1'
_chemical_name_systematic        
'Diethyl (5,8-dibromo-3-phenyl-2-naphthyl)phosphonate'
_symmetry_cell_setting           monoclinic
_symmetry_space_group_name_H-M   'P 21/n'
_symmetry_Int_Tables_number      14
_space_group_name_Hall           '-P 2yn'
loop_
_symmetry_equiv_pos_site_id
_symmetry_equiv_pos_as_xyz
1 x,y,z
2 1/2-x,1/2+y,1/2-z
3 -x,-y,-z
4 1/2+x,1/2-y,1/2+z
_cell_length_a                   7.0670(15)
_cell_length_b                   22.977(5)
_cell_length_c                   12.507(4)
_cell_angle_alpha                90
_cell_angle_beta                 93.267(3)
_cell_angle_gamma                90
_cell_volume                     2027.57
_cell_formula_units_Z            4
loop_
_atom_site_label
_atom_site_type_symbol
_atom_site_fract_x
_atom_site_fract_y
_atom_site_fract_z
Br1 Br 0.75578(7) 1.11354(2) 0.59188(5)
Br2 Br 0.75270(8) 0.90922(3) 0.22685(4)
C1 C 0.7483(6) 0.92033(17) 0.6620(4)
C2 C 0.7466(5) 0.97699(19) 0.6303(4)
H1 H 0.7426 1.0058 0.6824
C3 C 0.7504(5) 0.99386(16) 0.5226(4)
C4 C 0.7522(5) 1.05290(17) 0.4893(4)
C5 C 0.7512(6) 1.0672(2) 0.3846(4)
H2 H 0.7496 1.1062 0.3644
C6 C 0.7525(6) 1.0237(2) 0.3060(4)
H3 H 0.7542 1.0338 0.2340
C7 C 0.7513(6) 0.96663(19) 0.3356(4)
C8 C 0.7518(5) 0.94965(17) 0.4445(4)
C9 C 0.7516(6) 0.89119(17) 0.4803(4)
H4 H 0.7517 0.8620 0.4288
C10 C 0.7515(5) 0.87497(17) 0.5846(3)
C11 C 0.7572(7) 0.81240(19) 0.6109(4)
C12 C 0.6168(9) 0.7751(2) 0.5684(5)
H5 H 0.5175 0.7903 0.5251
C13 C 0.6220(13) 0.7167(3) 0.5891(6)
H6 H 0.5278 0.6923 0.5596
C14 C 0.7695(13) 0.6941(3) 0.6547(5)
H7 H 0.7736 0.6545 0.6693
C15 C 0.9070(12) 0.7294(3) 0.6975(5)
H8 H 1.0046 0.7137 0.7416
C16 C 0.9040(9) 0.7891(2) 0.6761(4)
H9 H 0.9996 0.8131 0.7053
C17 C 0.568(2) 0.8213(7) 0.8948(11)
H10 H 0.5367 0.8398 0.9611
H11 H 0.6925 0.8037 0.9048
C18 C 0.422(2) 0.7764(6) 0.8613(11)
H12 H 0.2992 0.7944 0.8545
H13 H 0.4215 0.7462 0.9143
H14 H 0.4518 0.7600 0.7937
C19 C 0.8034(18) 1.0079(8) 0.8944(16)
H15 H 0.8368 1.0338 0.8371
H16 H 0.9182 0.9892 0.9233
C20 C 0.717(2) 1.0416(7) 0.9793(14)
H17 H 0.6250 1.0682 0.9475
H18 H 0.8133 1.0631 1.0194
H19 H 0.6553 1.0156 1.0263
O1 O 0.6678(5) 0.96370(16) 0.8524(3)
O2 O 0.5635(5) 0.86446(15) 0.8053(3)
O3 O 0.9169(6) 0.88414(18) 0.8560(3)
P1 P 0.7406(2) 0.90507(6) 0.80392(11)
C21? C 0.772(3) 0.9875(6) 0.9428(13)
H20? H 0.9052 0.9778 0.9406
H21? H 0.7252 0.9722 1.0086
C22? C 0.745(3) 1.0513(8) 0.938(2)
H22? H 0.8059 1.0665 0.8767
H23? H 0.8006 1.0688 1.0018
H24? H 0.6124 1.0601 0.9310
C23? C 0.483(3) 0.8319(7) 0.8909(15)
H25? H 0.3457 0.8310 0.8796
H26? H 0.5137 0.8509 0.9589
C24? C 0.559(4) 0.7711(7) 0.8938(16)
H27? H 0.5220 0.7517 0.8279
H28? H 0.5084 0.7504 0.9525
H29? H 0.6944 0.7722 0.9029
loop_
_geom_bond_atom_site_label_1
_geom_bond_atom_site_label_2
_geom_bond_site_symmetry_1
_geom_bond_site_symmetry_2
Br1 C4 1_555 1_555
Br2 C7 1_555 1_555
C1 C2 1_555 1_555
C2 H1 1_555 1_555
C3 C2 1_555 1_555
C4 C3 1_555 1_555
C5 C4 1_555 1_555
H2 C5 1_555 1_555
C6 C5 1_555 1_555
H3 C6 1_555 1_555
C7 C6 1_555 1_555
C8 C3 1_555 1_555
C9 C8 1_555 1_555
H4 C9 1_555 1_555
C10 C1 1_555 1_555
C11 C10 1_555 1_555
C12 C11 1_555 1_555
H5 C12 1_555 1_555
C13 C12 1_555 1_555
H6 C13 1_555 1_555
C14 C13 1_555 1_555
H7 C14 1_555 1_555
C15 C14 1_555 1_555
H8 C15 1_555 1_555
C16 C11 1_555 1_555
H9 C16 1_555 1_555
C17 H10 1_555 1_555
H11 C17 1_555 1_555
C18 C17 1_555 1_555
H12 C18 1_555 1_555
H13 C18 1_555 1_555
H14 C18 1_555 1_555
C19 H15 1_555 1_555
H16 C19 1_555 1_555
C20 C19 1_555 1_555
H17 C20 1_555 1_555
H18 C20 1_555 1_555
H19 C20 1_555 1_555
O1 C19 1_555 1_555
O2 C17 1_555 1_555
O3 P1 1_555 1_555
P1 C1 1_555 1_555
C7 C8 1_555 1_555
C9 C10 1_555 1_555
C15 C16 1_555 1_555
O1 P1 1_555 1_555
O2 P1 1_555 1_555

#END
