
#######################################################################
#
#                 Cambridge Crystallographic Data Centre
#                                CCDC 
#
#######################################################################
#
# If this CIF has been generated from an entry in the Cambridge 
# Structural Database, then it will include bibliographic, chemical, 
# crystal, experimental, refinement or atomic coordinate data resulting 
# from the CCDC's data processing and validation procedures.
#
#######################################################################

data_LOBNEX
_chemical_formula_moiety         'C22 H14 Br2 O2 S1'
_chemical_name_systematic        
'5,8-Dibromo-3-phenyl-2-naphthyl phenyl sulfone'
_symmetry_cell_setting           monoclinic
_symmetry_space_group_name_H-M   'P 21/c'
_symmetry_Int_Tables_number      14
_space_group_name_Hall           '-P 2ybc'
loop_
_symmetry_equiv_pos_site_id
_symmetry_equiv_pos_as_xyz
1 x,y,z
2 -x,1/2+y,1/2-z
3 -x,-y,-z
4 x,1/2-y,1/2+z
_cell_length_a                   11.0681(11)
_cell_length_b                   14.1235(13)
_cell_length_c                   12.5383(12)
_cell_angle_alpha                90
_cell_angle_beta                 90.464(2)
_cell_angle_gamma                90
_cell_volume                     1959.93
_cell_formula_units_Z            4
loop_
_atom_site_label
_atom_site_type_symbol
_atom_site_fract_x
_atom_site_fract_y
_atom_site_fract_z
Br1 Br 0.68397(6) 1.01659(5) 0.28413(4)
Br2 Br 0.36610(5) 0.71561(4) 0.56376(5)
C1 C 0.5941(4) 0.9315(4) 0.3682(4)
C2 C 0.5056(5) 0.8793(4) 0.3207(4)
H1 H 0.4889 0.8872 0.2485
C3 C 0.4393(5) 0.8135(4) 0.3808(4)
H2 H 0.3798 0.7770 0.3479
C4 C 0.4620(5) 0.8033(4) 0.4871(4)
C5 C 0.5545(4) 0.8554(3) 0.5403(4)
C6 C 0.6212(4) 0.9220(3) 0.4791(3)
C7 C 0.7134(4) 0.9740(3) 0.5299(4)
H3 H 0.7575 1.0179 0.4910
C8 C 0.7391(4) 0.9611(3) 0.6360(4)
C9 C 0.6750(4) 0.8951(3) 0.6981(4)
C10 C 0.5844(4) 0.8451(3) 0.6493(4)
H4 H 0.5404 0.8023 0.6899
C11 C 0.7028(7) 0.8762(6) 0.8125(5)
C12 C 0.6618(7) 0.9379(6) 0.8923(5)
H5 H 0.6161 0.9908 0.8743
C13 C 0.6903(7) 0.9190(6) 0.9983(5)
H6 H 0.6637 0.9597 1.0515
C14 C 0.7545(7) 0.8439(5) 1.0238(5)
H7 H 0.7739 0.8338 1.0952
C15 C 0.7946(7) 0.7794(6) 0.9492(5)
H8 H 0.8391 0.7264 0.9695
C16 C 0.7660(7) 0.7967(6) 0.8417(5)
H9 H 0.7901 0.7538 0.7898
C17 C 0.9629(6) 0.9516(4) 0.7400(6)
C18 C 1.0043(5) 0.8820(4) 0.6723(6)
H10 H 0.9833 0.8814 0.6003
C19 C 1.0799(5) 0.8120(4) 0.7172(6)
H11 H 1.1071 0.7621 0.6754
C20 C 1.1131(6) 0.8176(4) 0.8223(6)
H12 H 1.1624 0.7708 0.8515
C21 C 1.0762(5) 0.8886(4) 0.8832(6)
H13 H 1.1036 0.8928 0.9534
C22 C 0.9977(5) 0.9564(4) 0.8441(6)
H14 H 0.9692 1.0044 0.8880
O1 O 0.8096(4) 1.0889(2) 0.7763(3)
O2 O 0.9092(4) 1.0845(3) 0.6019(3)
S1 S 0.85678(12) 1.03437(8) 0.68943(10)
loop_
_geom_bond_atom_site_label_1
_geom_bond_atom_site_label_2
_geom_bond_site_symmetry_1
_geom_bond_site_symmetry_2
Br1 C1 1_555 1_555
Br2 C4 1_555 1_555
C1 C2 1_555 1_555
C2 H1 1_555 1_555
C3 C2 1_555 1_555
H2 C3 1_555 1_555
C4 C3 1_555 1_555
C5 C4 1_555 1_555
C6 C1 1_555 1_555
C7 C6 1_555 1_555
H3 C7 1_555 1_555
C8 C7 1_555 1_555
C9 C8 1_555 1_555
C10 C5 1_555 1_555
H4 C10 1_555 1_555
C11 C9 1_555 1_555
C12 C11 1_555 1_555
H5 C12 1_555 1_555
C13 C12 1_555 1_555
H6 C13 1_555 1_555
C14 C13 1_555 1_555
H7 C14 1_555 1_555
C15 C14 1_555 1_555
H8 C15 1_555 1_555
C16 C11 1_555 1_555
H9 C16 1_555 1_555
C17 C18 1_555 1_555
C18 H10 1_555 1_555
C19 C18 1_555 1_555
H11 C19 1_555 1_555
C20 C19 1_555 1_555
H12 C20 1_555 1_555
C21 C20 1_555 1_555
H13 C21 1_555 1_555
C22 C17 1_555 1_555
H14 C22 1_555 1_555
O1 S1 1_555 1_555
O2 S1 1_555 1_555
S1 C8 1_555 1_555
C5 C6 1_555 1_555
C9 C10 1_555 1_555
C15 C16 1_555 1_555
C17 S1 1_555 1_555
C21 C22 1_555 1_555

#END
