
#######################################################################
#
#                 Cambridge Crystallographic Data Centre
#                                CCDC 
#
#######################################################################
#
# If this CIF has been generated from an entry in the Cambridge 
# Structural Database, then it will include bibliographic, chemical, 
# crystal, experimental, refinement or atomic coordinate data resulting 
# from the CCDC's data processing and validation procedures.
#
#######################################################################

data_LOBPOJ
_chemical_formula_moiety         'C20 H30 O4'
_chemical_name_systematic        
4a-Hydroperoxy-4,8a-dimethyl-6-(6-methyl-4-oxohept-5-en-2-yl)-4a,5,6,7,8,8a-hexahydronaphthalen-2(1H)-one
_symmetry_cell_setting           monoclinic
_symmetry_space_group_name_H-M   'P 21'
_symmetry_Int_Tables_number      4
_space_group_name_Hall           'P 2yb'
loop_
_symmetry_equiv_pos_site_id
_symmetry_equiv_pos_as_xyz
1 x,y,z
2 -x,1/2+y,-z
_cell_length_a                   6.5736(2)
_cell_length_b                   8.0346(2)
_cell_length_c                   16.9612(5)
_cell_angle_alpha                90
_cell_angle_beta                 94.6560(10)
_cell_angle_gamma                90
_cell_volume                     892.871
_exptl_crystal_colour            colorless
_exptl_crystal_description       block
_cell_formula_units_Z            2
loop_
_atom_site_label
_atom_site_type_symbol
_atom_site_fract_x
_atom_site_fract_y
_atom_site_fract_z
O1 O 0.6897(4) -0.3898(3) 0.06084(13)
O2 O 1.5022(3) 0.5285(3) 0.34519(14)
C1 C 0.6712(5) -0.2503(4) 0.08847(17)
C2 C 0.7333(4) -0.1017(4) 0.04723(18)
H1 H 0.7884 -0.1159 -0.0024
C3 C 0.7175(4) 0.0526(4) 0.07483(16)
C4 C 0.6239(4) 0.0897(4) 0.15303(16)
C5 C 0.7202(4) 0.2429(4) 0.19561(16)
H2 H 0.7203 0.3361 0.1574
H3 H 0.6338 0.2763 0.2381
C6 C 0.9393(4) 0.2155(4) 0.23198(17)
H4 H 1.0249 0.1781 0.1892
C7 C 1.0270(5) 0.3819(4) 0.26620(17)
H5 H 0.9182 0.4403 0.2935
C8 C 1.2123(5) 0.3535(4) 0.32632(17)
H6 H 1.1658 0.2930 0.3724
H7 H 1.3110 0.2811 0.3016
C9 C 1.3219(5) 0.5093(4) 0.35574(16)
C10 C 1.2008(5) 0.6305(4) 0.39762(19)
H8 H 1.0569 0.6258 0.3864
C11 C 1.2713(5) 0.7465(5) 0.44976(18)
C12 C 1.1264(6) 0.8587(5) 0.4881(2)
H9 H 1.1578 0.9749 0.4764
H10 H 1.1405 0.8414 0.5455
H11 H 0.9862 0.8334 0.4676
C13 C 1.4917(6) 0.7748(6) 0.4762(2)
H12 H 1.5769 0.7022 0.4461
H13 H 1.5154 0.7493 0.5327
H14 H 1.5271 0.8913 0.4670
C14 C 1.0910(5) 0.4934(4) 0.19905(18)
H15 H 1.1247 0.6047 0.2198
H16 H 0.9784 0.5014 0.1577
H17 H 1.2108 0.4452 0.1768
C15 C 0.9294(5) 0.0735(4) 0.29217(16)
H18 H 1.0677 0.0510 0.3175
H19 H 0.8407 0.1065 0.3340
C16 C 0.8445(5) -0.0837(4) 0.25063(17)
H20 H 0.8418 -0.1741 0.2902
H21 H 0.9385 -0.1181 0.2109
C17 C 0.6269(4) -0.0637(4) 0.20870(17)
C18 C 0.5747(5) -0.2273(4) 0.16490(18)
H22 H 0.6169 -0.3210 0.2005
H23 H 0.4247 -0.2337 0.1539
C19 C 0.4736(4) -0.0442(4) 0.27159(18)
H24 H 0.3365 -0.0273 0.2456
H25 H 0.5116 0.0521 0.3051
H26 H 0.4748 -0.1448 0.3043
C20 C 0.7844(5) 0.1993(4) 0.02855(18)
H27 H 0.9110 0.2450 0.0545
H28 H 0.6779 0.2849 0.0262
H29 H 0.8080 0.1638 -0.0252
O3 O 0.2880(3) 0.0260(3) 0.09433(12)
H30 H 0.3604 -0.0501 0.0773
O4 O 0.4194(3) 0.1535(3) 0.13270(11)
loop_
_geom_bond_atom_site_label_1
_geom_bond_atom_site_label_2
_geom_bond_site_symmetry_1
_geom_bond_site_symmetry_2
O1 C1 1_555 1_555
O2 C9 1_555 1_555
C1 C2 1_555 1_555
C2 H1 1_555 1_555
C3 C2 1_555 1_555
C4 C3 1_555 1_555
C5 C4 1_555 1_555
H2 C5 1_555 1_555
H3 C5 1_555 1_555
C6 C5 1_555 1_555
H4 C6 1_555 1_555
C7 C6 1_555 1_555
H5 C7 1_555 1_555
C8 C7 1_555 1_555
H6 C8 1_555 1_555
H7 C8 1_555 1_555
C9 C8 1_555 1_555
C10 C9 1_555 1_555
H8 C10 1_555 1_555
C11 C10 1_555 1_555
C12 C11 1_555 1_555
H9 C12 1_555 1_555
H10 C12 1_555 1_555
H11 C12 1_555 1_555
C13 C11 1_555 1_555
H12 C13 1_555 1_555
H13 C13 1_555 1_555
H14 C13 1_555 1_555
C14 C7 1_555 1_555
H15 C14 1_555 1_555
H16 C14 1_555 1_555
H17 C14 1_555 1_555
C15 C6 1_555 1_555
H18 C15 1_555 1_555
H19 C15 1_555 1_555
C16 C15 1_555 1_555
H20 C16 1_555 1_555
H21 C16 1_555 1_555
C17 C4 1_555 1_555
C18 C1 1_555 1_555
H22 C18 1_555 1_555
H23 C18 1_555 1_555
C19 C17 1_555 1_555
H24 C19 1_555 1_555
H25 C19 1_555 1_555
H26 C19 1_555 1_555
C20 C3 1_555 1_555
H27 C20 1_555 1_555
H28 C20 1_555 1_555
H29 C20 1_555 1_555
O3 H30 1_555 1_555
O4 C4 1_555 1_555
C16 C17 1_555 1_555
C17 C18 1_555 1_555
O3 O4 1_555 1_555

#END
