
#######################################################################
#
#                 Cambridge Crystallographic Data Centre
#                                CCDC 
#
#######################################################################
#
# If this CIF has been generated from an entry in the Cambridge 
# Structural Database, then it will include bibliographic, chemical, 
# crystal, experimental, refinement or atomic coordinate data resulting 
# from the CCDC's data processing and validation procedures.
#
#######################################################################

data_LOBPID
_chemical_formula_moiety         'C14 H20 O3'
_chemical_name_systematic        
6-Acetyl-4a-hydroxy-4,8a-dimethyl-4a,5,6,7,8,8a-hexahydronaphthalen-2(1H)-one
_symmetry_cell_setting           orthorhombic
_symmetry_space_group_name_H-M   'P 21 21 21'
_symmetry_Int_Tables_number      19
_space_group_name_Hall           'P 2ac 2ab'
loop_
_symmetry_equiv_pos_site_id
_symmetry_equiv_pos_as_xyz
1 x,y,z
2 1/2+x,1/2-y,-z
3 -x,1/2+y,1/2-z
4 1/2-x,-y,1/2+z
_cell_length_a                   7.33580(10)
_cell_length_b                   11.9749(2)
_cell_length_c                   14.1640(3)
_cell_angle_alpha                90
_cell_angle_beta                 90
_cell_angle_gamma                90
_cell_volume                     1244.24
_exptl_crystal_colour            colorless
_exptl_crystal_description       block
_cell_formula_units_Z            4
loop_
_atom_site_label
_atom_site_type_symbol
_atom_site_fract_x
_atom_site_fract_y
_atom_site_fract_z
O1 O 0.65602(18) 0.19304(10) 0.47869(8)
O2 O 0.58356(15) 0.15416(9) 1.05179(7)
C1 C 0.7059(3) 0.38652(14) 0.45376(12)
H1 H 0.6944 0.3662 0.3870
H2 H 0.8243 0.4223 0.4644
H3 H 0.6081 0.4385 0.4709
C2 C 0.6429(2) 0.17032(13) 0.97195(10)
C3 C 0.6287(2) 0.28239(12) 0.92418(10)
H4 H 0.7415 0.3256 0.9360
H5 H 0.5252 0.3245 0.9514
C4 C 0.7359(2) 0.08157(12) 0.92026(11)
H6 H 0.7612 0.0137 0.9525
C5 C 0.7244(2) 0.29664(12) 0.61861(10)
H7 H 0.8461 0.3330 0.6266
C6 C 0.6919(2) 0.28292(13) 0.51378(11)
O3 O 0.93044(15) 0.25870(8) 0.78143(7)
H8 H 0.9572 0.2692 0.8384
C7 C 0.7600(2) 0.19983(12) 0.77547(10)
C8 C 0.78751(19) 0.09067(12) 0.82972(11)
C9 C 0.7323(2) 0.18351(12) 0.66900(10)
H9 H 0.8340 0.1387 0.6430
H10 H 0.6175 0.1422 0.6578
C10 C 0.4139(2) 0.21281(13) 0.80205(11)
H11 H 0.3186 0.2573 0.8326
H12 H 0.4162 0.1379 0.8298
H13 H 0.3885 0.2072 0.7343
C11 C 0.5807(2) 0.37581(12) 0.66161(11)
H14 H 0.5940 0.4509 0.6333
H15 H 0.4572 0.3479 0.6462
C12 C 0.6003(2) 0.26952(12) 0.81698(11)
C13 C 0.6010(2) 0.38456(12) 0.76905(11)
H16 H 0.4996 0.4300 0.7947
H17 H 0.7166 0.4233 0.7841
C14 C 0.8895(2) -0.00199(12) 0.78198(11)
H18 H 1.0114 0.0242 0.7644
H19 H 0.8234 -0.0252 0.7251
H20 H 0.9004 -0.0655 0.8252
loop_
_geom_bond_atom_site_label_1
_geom_bond_atom_site_label_2
_geom_bond_site_symmetry_1
_geom_bond_site_symmetry_2
O1 C6 1_555 1_555
O2 C2 1_555 1_555
C1 H1 1_555 1_555
H2 C1 1_555 1_555
H3 C1 1_555 1_555
C2 C3 1_555 1_555
C3 H4 1_555 1_555
H5 C3 1_555 1_555
C4 C2 1_555 1_555
H6 C4 1_555 1_555
C5 H7 1_555 1_555
C6 C1 1_555 1_555
O3 H8 1_555 1_555
C7 O3 1_555 1_555
C8 C4 1_555 1_555
C9 C5 1_555 1_555
H9 C9 1_555 1_555
H10 C9 1_555 1_555
C10 H11 1_555 1_555
H12 C10 1_555 1_555
H13 C10 1_555 1_555
C11 C5 1_555 1_555
H14 C11 1_555 1_555
H15 C11 1_555 1_555
C12 C3 1_555 1_555
C13 C11 1_555 1_555
H16 C13 1_555 1_555
H17 C13 1_555 1_555
C14 C8 1_555 1_555
H18 C14 1_555 1_555
H19 C14 1_555 1_555
H20 C14 1_555 1_555
C5 C6 1_555 1_555
C7 C8 1_555 1_555
C7 C9 1_555 1_555
C7 C12 1_555 1_555
C10 C12 1_555 1_555
C12 C13 1_555 1_555

#END
