
#######################################################################
#
#                 Cambridge Crystallographic Data Centre
#                                CCDC 
#
#######################################################################
#
# If this CIF has been generated from an entry in the Cambridge 
# Structural Database, then it will include bibliographic, chemical, 
# crystal, experimental, refinement or atomic coordinate data resulting 
# from the CCDC's data processing and validation procedures.
#
#######################################################################

data_LOBRIF
_chemical_formula_moiety         'C14 H24 O2,0.25(H2 O1)'
_chemical_name_systematic        
'1,1,5a-Trimethyldecahydro-1H-cyclopropa[f]azulene-2,5-diol hydrate'
_symmetry_cell_setting           monoclinic
_symmetry_space_group_name_H-M   'P 21'
_symmetry_Int_Tables_number      4
_space_group_name_Hall           'P 2yb'
loop_
_symmetry_equiv_pos_site_id
_symmetry_equiv_pos_as_xyz
1 x,y,z
2 -x,1/2+y,-z
_cell_length_a                   11.9108(2)
_cell_length_b                   10.1057(2)
_cell_length_c                   23.2927(4)
_cell_angle_alpha                90
_cell_angle_beta                 102.2340(10)
_cell_angle_gamma                90
_cell_volume                     2740
_exptl_crystal_colour            colorless
_exptl_crystal_description       prismatic
_cell_formula_units_Z            8
loop_
_atom_site_label
_atom_site_type_symbol
_atom_site_fract_x
_atom_site_fract_y
_atom_site_fract_z
O1 O 1.12310(8) 0.77760(14) 0.20948(4)
H1 H 1.1862 0.7486 0.2284
O2 O 0.75710(7) 0.51013(11) 0.15491(4)
H2 H 0.7707 0.5681 0.1813
C1 C 0.89762(11) 0.73279(15) 0.10885(6)
H3 H 0.8380 0.7802 0.1247
H4 H 0.8659 0.7100 0.0672
C2 C 1.00717(12) 0.81880(18) 0.11452(6)
H5 H 1.0214 0.8404 0.0752
H6 H 0.9990 0.9024 0.1354
C3 C 1.10616(11) 0.73522(17) 0.14969(6)
H7 H 1.1777 0.7485 0.1344
C4 C 1.06473(10) 0.59047(16) 0.14078(5)
C5 C 1.08407(11) 0.54570(17) 0.08015(5)
H8 H 1.0502 0.6132 0.0508
H9 H 1.1678 0.5442 0.0818
C6 C 1.03476(11) 0.41078(17) 0.05819(6)
H10 H 1.0761 0.3770 0.0285
H11 H 1.0476 0.3477 0.0915
C7 C 0.90753(11) 0.41739(15) 0.03121(5)
H12 H 0.8894 0.4553 -0.0094
C8 C 0.82139(10) 0.45333(14) 0.06790(5)
H13 H 0.7570 0.5101 0.0467
C9 C 0.85955(10) 0.48672(14) 0.13234(5)
H14 H 0.9012 0.4089 0.1533
C10 C 0.93697(11) 0.60818(14) 0.14488(5)
H15 H 0.9386 0.6326 0.1866
C11 C 0.82201(11) 0.31549(15) 0.04233(5)
C12 C 0.72493(12) 0.28387(17) -0.00926(6)
H16 H 0.7039 0.3638 -0.0329
H17 H 0.6582 0.2523 0.0052
H18 H 0.7498 0.2150 -0.0335
C13 C 0.86054(14) 0.19640(16) 0.08110(7)
H19 H 0.8861 0.1263 0.0578
H20 H 0.7963 0.1639 0.0974
H21 H 0.9241 0.2219 0.1132
C14 C 1.12974(11) 0.49891(19) 0.18873(6)
H22 H 1.0990 0.4089 0.1822
H23 H 1.1204 0.5305 0.2272
H24 H 1.2115 0.4986 0.1875
O3 O 0.73667(7) 0.68269(13) 0.24741(4)
H25 H 0.7878(13) 0.7303(18) 0.2543(6)
O4 O 0.94421(8) -0.16952(11) 0.26522(4)
H26 H 0.9884 -0.1892 0.2428
O5 O 0.78082(7) 0.27816(11) 0.31056(4)
H27 H 0.7738 0.3587 0.3181
C15 C 0.87956(12) 0.00882(16) 0.36905(6)
H28 H 0.7954 -0.0025 0.3634
H29 H 0.9087 0.0516 0.4076
C16 C 0.93874(12) -0.12572(15) 0.36587(6)
H30 H 0.9897 -0.1472 0.4041
H31 H 0.8808 -0.1968 0.3557
C17 C 1.00915(11) -0.11242(15) 0.31785(6)
H32 H 1.0847 -0.1585 0.3301
C18 C 1.02757(11) 0.03885(14) 0.31175(6)
C19 C 1.13041(12) 0.07838(16) 0.36127(8)
H33 H 1.1172 0.0414 0.3987
H34 H 1.2002 0.0355 0.3532
C20 C 1.15501(11) 0.22726(17) 0.37027(8)
H35 H 1.2369 0.2400 0.3893
H36 H 1.1411 0.2717 0.3315
C21 C 1.08072(12) 0.29055(16) 0.40772(7)
H37 H 1.1044 0.2686 0.4504
C22 C 0.95134(11) 0.29563(14) 0.38509(5)
H38 H 0.9054 0.2759 0.4154
C23 C 0.90084(10) 0.24203(14) 0.32490(5)
H39 H 0.9405 0.2847 0.2959
C24 C 0.90937(10) 0.09197(14) 0.31925(5)
H40 H 0.8527 0.0668 0.2827
C25 C 1.02040(12) 0.42272(15) 0.39555(6)
C26 C 1.00731(15) 0.50337(19) 0.44855(7)
H41 H 1.0776 0.5543 0.4629
H42 H 0.9937 0.4439 0.4796
H43 H 0.9421 0.5640 0.4374
C27 C 1.03548(12) 0.50803(16) 0.34452(7)
H44 H 0.9659 0.5607 0.3308
H45 H 1.0492 0.4515 0.3125
H46 H 1.1012 0.5673 0.3572
C28 C 1.05201(15) 0.07621(17) 0.25196(7)
H47 H 1.0657 0.1717 0.2508
H48 H 0.9859 0.0524 0.2209
H49 H 1.1201 0.0284 0.2459
O6 O 0.52698(8) -0.17201(11) 0.23784(4)
H50 H 0.5858 -0.2150 0.2348
O7 O 0.70103(7) 0.27122(10) 0.19286(4)
H51 H 0.7094 0.3492 0.1820
C29 C 0.61260(12) -0.00087(15) 0.13643(6)
H52 H 0.6969 -0.0135 0.1467
H53 H 0.5918 0.0415 0.0973
C30 C 0.55007(12) -0.13439(15) 0.13643(6)
H54 H 0.5032 -0.1538 0.0969
H55 H 0.6061 -0.2070 0.1479
C31 C 0.47279(11) -0.12020(15) 0.18143(6)
H56 H 0.3980 -0.1665 0.1667
C32 C 0.45195(11) 0.03043(15) 0.18589(6)
C33 C 0.35429(12) 0.06785(17) 0.13325(8)
H57 H 0.3729 0.0299 0.0972
H58 H 0.2827 0.0249 0.1389
C34 C 0.33015(11) 0.21656(17) 0.12278(8)
H59 H 0.2496 0.2288 0.1015
H60 H 0.3399 0.2622 0.1611
C35 C 0.40947(12) 0.27803(16) 0.08769(6)
H61 H 0.3909 0.2541 0.0451
C36 C 0.53724(11) 0.28393(14) 0.11431(5)
H62 H 0.5877 0.2628 0.0863
C37 C 0.58149(10) 0.23421(14) 0.17586(5)
H63 H 0.5380 0.2788 0.2027
C38 C 0.57256(10) 0.08444(14) 0.18291(5)
H64 H 0.6242 0.0618 0.2214
C39 C 0.46851(11) 0.41085(15) 0.10055(6)
C40 C 0.48827(15) 0.48862(19) 0.04758(7)
H65 H 0.5509 0.5520 0.0602
H66 H 0.4179 0.5364 0.0297
H67 H 0.5087 0.4275 0.0187
C41 C 0.44713(12) 0.49948(16) 0.14911(7)
H68 H 0.4265 0.4454 0.1803
H69 H 0.3841 0.5605 0.1335
H70 H 0.5168 0.5502 0.1652
C42 C 0.41766(14) 0.06775(17) 0.24343(8)
H71 H 0.3998 0.1624 0.2432
H72 H 0.4813 0.0481 0.2765
H73 H 0.3499 0.0166 0.2475
O8 O 0.33897(8) 0.73445(13) 0.27784(4)
H74 H 0.4000 0.7567 0.2678
O9 O 0.73090(7) 0.52033(11) 0.34654(4)
H75 H 0.7141 0.5746 0.3187
C43 C 0.56901(12) 0.73336(15) 0.38355(6)
H76 H 0.6251 0.7847 0.3668
H77 H 0.6007 0.7193 0.4260
C44 C 0.45173(13) 0.80629(17) 0.37379(6)
H78 H 0.4328 0.8298 0.4119
H79 H 0.4538 0.8883 0.3508
C45 C 0.36245(11) 0.70873(17) 0.33975(6)
H80 H 0.2896 0.7159 0.3544
C46 C 0.41627(10) 0.57093(15) 0.35529(5)
C47 C 0.39789(11) 0.53586(17) 0.41745(6)
H81 H 0.4261 0.6107 0.4440
H82 H 0.3143 0.5277 0.4154
C48 C 0.45616(11) 0.40909(17) 0.44510(6)
H83 H 0.4170 0.3785 0.4762
H84 H 0.4474 0.3392 0.4147
C49 C 0.58264(11) 0.42834(15) 0.47143(5)
H85 H 0.5984 0.4713 0.5110
C50 C 0.66725(10) 0.46580(14) 0.43389(5)
H86 H 0.7283 0.5284 0.4537
C51 C 0.62903(10) 0.48970(14) 0.36867(5)
H87 H 0.5946 0.4062 0.3497
C52 C 0.54243(10) 0.60122(14) 0.35174(5)
H88 H 0.5405 0.6202 0.3094
C53 C 0.67403(11) 0.33076(15) 0.46281(5)
C54 C 0.77286(12) 0.30939(17) 0.51478(6)
H89 H 0.7895 0.3922 0.5368
H90 H 0.8411 0.2812 0.5007
H91 H 0.7520 0.2409 0.5404
C55 C 0.64171(13) 0.20579(16) 0.42706(6)
H92 H 0.6175 0.1377 0.4518
H93 H 0.7083 0.1739 0.4125
H94 H 0.5785 0.2250 0.3937
C56 C 0.36194(11) 0.46464(17) 0.31130(6)
H95 H 0.3988 0.3792 0.3228
H96 H 0.3725 0.4884 0.2720
H97 H 0.2797 0.4582 0.3109
loop_
_geom_bond_atom_site_label_1
_geom_bond_atom_site_label_2
_geom_bond_site_symmetry_1
_geom_bond_site_symmetry_2
O1 H1 1_555 1_555
O2 H2 1_555 1_555
C1 H3 1_555 1_555
H4 C1 1_555 1_555
C2 C1 1_555 1_555
H5 C2 1_555 1_555
H6 C2 1_555 1_555
C3 O1 1_555 1_555
H7 C3 1_555 1_555
C4 C3 1_555 1_555
C5 C4 1_555 1_555
H8 C5 1_555 1_555
H9 C5 1_555 1_555
C6 C5 1_555 1_555
H10 C6 1_555 1_555
H11 C6 1_555 1_555
C7 C6 1_555 1_555
H12 C7 1_555 1_555
C8 C7 1_555 1_555
H13 C8 1_555 1_555
C9 O2 1_555 1_555
H14 C9 1_555 1_555
C10 C1 1_555 1_555
H15 C10 1_555 1_555
C11 C7 1_555 1_555
C12 C11 1_555 1_555
H16 C12 1_555 1_555
H17 C12 1_555 1_555
H18 C12 1_555 1_555
C13 C11 1_555 1_555
H19 C13 1_555 1_555
H20 C13 1_555 1_555
H21 C13 1_555 1_555
C14 C4 1_555 1_555
H22 C14 1_555 1_555
H23 C14 1_555 1_555
H24 C14 1_555 1_555
O3 H25 1_555 1_555
O4 H26 1_555 1_555
O5 H27 1_555 1_555
C15 H28 1_555 1_555
H29 C15 1_555 1_555
C16 C15 1_555 1_555
H30 C16 1_555 1_555
H31 C16 1_555 1_555
C17 O4 1_555 1_555
H32 C17 1_555 1_555
C18 C17 1_555 1_555
C19 C18 1_555 1_555
H33 C19 1_555 1_555
H34 C19 1_555 1_555
C20 C19 1_555 1_555
H35 C20 1_555 1_555
H36 C20 1_555 1_555
C21 C20 1_555 1_555
H37 C21 1_555 1_555
C22 C21 1_555 1_555
H38 C22 1_555 1_555
C23 O5 1_555 1_555
H39 C23 1_555 1_555
C24 C15 1_555 1_555
H40 C24 1_555 1_555
C25 C21 1_555 1_555
C26 C25 1_555 1_555
H41 C26 1_555 1_555
H42 C26 1_555 1_555
H43 C26 1_555 1_555
C27 C25 1_555 1_555
H44 C27 1_555 1_555
H45 C27 1_555 1_555
H46 C27 1_555 1_555
C28 C18 1_555 1_555
H47 C28 1_555 1_555
H48 C28 1_555 1_555
H49 C28 1_555 1_555
O6 H50 1_555 1_555
O7 H51 1_555 1_555
C29 H52 1_555 1_555
H53 C29 1_555 1_555
C30 C29 1_555 1_555
H54 C30 1_555 1_555
H55 C30 1_555 1_555
C31 O6 1_555 1_555
H56 C31 1_555 1_555
C32 C31 1_555 1_555
C33 C32 1_555 1_555
H57 C33 1_555 1_555
H58 C33 1_555 1_555
C34 C33 1_555 1_555
H59 C34 1_555 1_555
H60 C34 1_555 1_555
C35 C34 1_555 1_555
H61 C35 1_555 1_555
C36 C35 1_555 1_555
H62 C36 1_555 1_555
C37 O7 1_555 1_555
H63 C37 1_555 1_555
C38 C29 1_555 1_555
H64 C38 1_555 1_555
C39 C35 1_555 1_555
C40 C39 1_555 1_555
H65 C40 1_555 1_555
H66 C40 1_555 1_555
H67 C40 1_555 1_555
C41 C39 1_555 1_555
H68 C41 1_555 1_555
H69 C41 1_555 1_555
H70 C41 1_555 1_555
C42 C32 1_555 1_555
H71 C42 1_555 1_555
H72 C42 1_555 1_555
H73 C42 1_555 1_555
O8 H74 1_555 1_555
O9 H75 1_555 1_555
C43 H76 1_555 1_555
H77 C43 1_555 1_555
C44 C43 1_555 1_555
H78 C44 1_555 1_555
H79 C44 1_555 1_555
C45 O8 1_555 1_555
H80 C45 1_555 1_555
C46 C45 1_555 1_555
C47 C46 1_555 1_555
H81 C47 1_555 1_555
H82 C47 1_555 1_555
C48 C47 1_555 1_555
H83 C48 1_555 1_555
H84 C48 1_555 1_555
C49 C48 1_555 1_555
H85 C49 1_555 1_555
C50 C49 1_555 1_555
H86 C50 1_555 1_555
C51 O9 1_555 1_555
H87 C51 1_555 1_555
C52 C43 1_555 1_555
H88 C52 1_555 1_555
C53 C49 1_555 1_555
C54 C53 1_555 1_555
H89 C54 1_555 1_555
H90 C54 1_555 1_555
H91 C54 1_555 1_555
C55 C53 1_555 1_555
H92 C55 1_555 1_555
H93 C55 1_555 1_555
H94 C55 1_555 1_555
C56 C46 1_555 1_555
H95 C56 1_555 1_555
H96 C56 1_555 1_555
H97 C56 1_555 1_555
C2 C3 1_555 1_555
C4 C10 1_555 1_555
C8 C9 1_555 1_555
C8 C11 1_555 1_555
C9 C10 1_555 1_555
C16 C17 1_555 1_555
C18 C24 1_555 1_555
C22 C23 1_555 1_555
C22 C25 1_555 1_555
C23 C24 1_555 1_555
C30 C31 1_555 1_555
C32 C38 1_555 1_555
C36 C37 1_555 1_555
C36 C39 1_555 1_555
C37 C38 1_555 1_555
C44 C45 1_555 1_555
C46 C52 1_555 1_555
C50 C51 1_555 1_555
C50 C53 1_555 1_555
C51 C52 1_555 1_555

#END
