
#######################################################################
#
#                 Cambridge Crystallographic Data Centre
#                                CCDC 
#
#######################################################################
#
# If this CIF has been generated from an entry in the Cambridge 
# Structural Database, then it will include bibliographic, chemical, 
# crystal, experimental, refinement or atomic coordinate data resulting 
# from the CCDC's data processing and validation procedures.
#
#######################################################################

data_LOBSIG
_chemical_formula_moiety         'C41 H43 N5'
_chemical_name_systematic        
2,4,6,8,10-Pentabenzyl-2,4,6,8,10-pentaazatricyclo[3.3.3.0^1,5^]undecane
_symmetry_cell_setting           triclinic
_symmetry_space_group_name_H-M   'P -1'
_symmetry_Int_Tables_number      2
_space_group_name_Hall           '-P 1'
loop_
_symmetry_equiv_pos_site_id
_symmetry_equiv_pos_as_xyz
1 x,y,z
2 -x,-y,-z
_cell_length_a                   10.7771(7)
_cell_length_b                   11.2963(9)
_cell_length_c                   16.2251(12)
_cell_angle_alpha                88.818(3)
_cell_angle_beta                 83.757(3)
_cell_angle_gamma                62.860(5)
_cell_volume                     1746.42
_exptl_crystal_colour            colorless
_exptl_crystal_description       block
_cell_formula_units_Z            2
loop_
_atom_site_label
_atom_site_type_symbol
_atom_site_fract_x
_atom_site_fract_y
_atom_site_fract_z
N1 N 0.3924(2) 0.5595(2) 0.19964(13)
C1 C 0.4222(3) 0.6344(3) 0.25902(17)
H1 H 0.3847 0.7274 0.2450
H2 H 0.5224 0.5983 0.2615
N2 N 0.3521(2) 0.6188(2) 0.33678(13)
C2 C 0.3687(2) 0.4818(3) 0.33596(15)
N3 N 0.2371(2) 0.4761(3) 0.36197(16)
C3 C 0.1701(3) 0.4940(4) 0.28646(18)
H3 H 0.0982 0.4643 0.2926
H4 H 0.1287 0.5863 0.2708
N4 N 0.2865(2) 0.4104(3) 0.22640(14)
C4 C 0.4000(3) 0.4401(3) 0.24189(15)
C5 C 0.5420(3) 0.3184(3) 0.23572(17)
H5 H 0.5506 0.2568 0.1922
H6 H 0.6173 0.3432 0.2249
N5 N 0.5443(2) 0.2604(2) 0.31729(14)
C6 C 0.4942(3) 0.3754(3) 0.37463(16)
H7 H 0.5660 0.4037 0.3780
H8 H 0.4657 0.3552 0.4297
C7 C 0.4766(3) 0.5380(3) 0.11939(17)
H9 H 0.4653 0.4741 0.0860
H10 H 0.5749 0.5014 0.1277
C8 C 0.4337(4) 0.6653(3) 0.07442(17)
C9 C 0.3004(5) 0.7351(4) 0.0542(2)
H11 H 0.2349 0.7043 0.0696
C10 C 0.2609(7) 0.8518(5) 0.0109(3)
H12 H 0.1694 0.8991 -0.0024
C11 C 0.3574(10) 0.8963(6) -0.0120(3)
H13 H 0.3321 0.9734 -0.0420
C12 C 0.4897(8) 0.8291(6) 0.0087(3)
H14 H 0.5543 0.8614 -0.0054
C13 C 0.5284(5) 0.7124(4) 0.0507(2)
H15 H 0.6204 0.6648 0.0631
C14 C 0.3857(3) 0.6681(3) 0.40880(17)
H16 H 0.4867 0.6322 0.4068
H17 H 0.3523 0.6379 0.4588
C15 C 0.3200(3) 0.8172(3) 0.41195(17)
C16 C 0.3930(3) 0.8837(4) 0.4260(2)
H18 H 0.4871 0.8353 0.4341
C17 C 0.3325(5) 1.0227(4) 0.4288(3)
H19 H 0.3860 1.0656 0.4379
C18 C 0.1963(5) 1.0934(4) 0.4183(3)
H20 H 0.1533 1.1859 0.4225
C19 C 0.1233(5) 1.0298(4) 0.4018(4)
H21 H 0.0298 1.0788 0.3924
C20 C 0.1845(4) 0.8916(4) 0.3983(3)
H22 H 0.1314 0.8496 0.3864
C21 C 0.2492(5) 0.4087(5) 0.1475(3)
H23 H 0.3340 0.3630 0.1096
H24 H 0.2008 0.4996 0.1299
C22 C 0.1538(6) 0.3403(8) 0.1402(4)
C23 C 0.1889(6) 0.2220(10) 0.1732(3)
H25 H 0.2671 0.1834 0.2023
C24 C 0.1114(11) 0.1575(7) 0.1647(5)
H26 H 0.1380 0.0735 0.1861
C25 C -0.0025(11) 0.2147(11) 0.1255(6)
H27 H -0.0559 0.1705 0.1201
C26 C -0.0408(7) 0.3323(11) 0.0945(4)
H28 H -0.1213 0.3722 0.0675
C27 C 0.0400(8) 0.3965(5) 0.1024(4)
H29 H 0.0136 0.4804 0.0807
C28 C 0.1438(3) 0.5563(4) 0.4291(2)
H30 H 0.0510 0.5668 0.4225
H31 H 0.1395 0.6439 0.4251
C29 C 0.1761(3) 0.5087(4) 0.5162(2)
C30 C 0.2179(3) 0.3789(4) 0.5369(3)
H32 H 0.2390 0.3143 0.4958
C31 C 0.2287(3) 0.3437(4) 0.6192(4)
H33 H 0.2557 0.2559 0.6335
C32 C 0.2000(4) 0.4374(6) 0.6781(2)
H34 H 0.2076 0.4138 0.7332
C33 C 0.1613(4) 0.5622(5) 0.6586(3)
H35 H 0.1420 0.6258 0.7000
C34 C 0.1494(3) 0.5990(3) 0.5781(3)
H36 H 0.1225 0.6874 0.5654
C35 C 0.6799(3) 0.1535(3) 0.33218(19)
H37 H 0.6757 0.1270 0.3892
H38 H 0.7500 0.1853 0.3241
C36 C 0.7233(4) 0.0335(3) 0.2743(2)
C37 C 0.8593(5) -0.0382(4) 0.2419(3)
H39 H 0.9263 -0.0137 0.2553
C38 C 0.8992(8) -0.1476(7) 0.1888(5)
H40 H 0.9925 -0.1969 0.1672
C39 C 0.8012(11) -0.1811(6) 0.1693(4)
H41 H 0.8279 -0.2534 0.1330
C40 C 0.6677(7) -0.1145(5) 0.2000(3)
H42 H 0.6018 -0.1402 0.1860
C41 C 0.6279(5) -0.0057(4) 0.2532(2)
H43 H 0.5344 0.0415 0.2750
C42? C 0.3052(10) 0.2860(9) 0.2131(6)
C43? C 0.2123(17) 0.4170(18) 0.4147(9)
loop_
_geom_bond_atom_site_label_1
_geom_bond_atom_site_label_2
_geom_bond_site_symmetry_1
_geom_bond_site_symmetry_2
N1 C1 1_555 1_555
C1 H1 1_555 1_555
H2 C1 1_555 1_555
N2 C1 1_555 1_555
C2 N2 1_555 1_555
N3 C2 1_555 1_555
C3 N3 1_555 1_555
H3 C3 1_555 1_555
H4 C3 1_555 1_555
N4 C3 1_555 1_555
C4 N1 1_555 1_555
C5 C4 1_555 1_555
H5 C5 1_555 1_555
H6 C5 1_555 1_555
N5 C5 1_555 1_555
C6 C2 1_555 1_555
H7 C6 1_555 1_555
H8 C6 1_555 1_555
C7 N1 1_555 1_555
H9 C7 1_555 1_555
H10 C7 1_555 1_555
C8 C7 1_555 1_555
C9 C8 1_555 1_555
H11 C9 1_555 1_555
C10 C9 1_555 1_555
H12 C10 1_555 1_555
C11 C10 1_555 1_555
H13 C11 1_555 1_555
C12 C11 1_555 1_555
H14 C12 1_555 1_555
C13 C8 1_555 1_555
H15 C13 1_555 1_555
C14 N2 1_555 1_555
H16 C14 1_555 1_555
H17 C14 1_555 1_555
C15 C14 1_555 1_555
C16 C15 1_555 1_555
H18 C16 1_555 1_555
C17 C16 1_555 1_555
H19 C17 1_555 1_555
C18 C17 1_555 1_555
H20 C18 1_555 1_555
C19 C18 1_555 1_555
H21 C19 1_555 1_555
C20 C15 1_555 1_555
H22 C20 1_555 1_555
C21 N4 1_555 1_555
H23 C21 1_555 1_555
H24 C21 1_555 1_555
C22 C21 1_555 1_555
C23 C22 1_555 1_555
H25 C23 1_555 1_555
C24 C23 1_555 1_555
H26 C24 1_555 1_555
C25 C24 1_555 1_555
H27 C25 1_555 1_555
C26 C25 1_555 1_555
H28 C26 1_555 1_555
C27 C22 1_555 1_555
H29 C27 1_555 1_555
C28 N3 1_555 1_555
H30 C28 1_555 1_555
H31 C28 1_555 1_555
C29 C28 1_555 1_555
C30 C29 1_555 1_555
H32 C30 1_555 1_555
C31 C30 1_555 1_555
H33 C31 1_555 1_555
C32 C31 1_555 1_555
H34 C32 1_555 1_555
C33 C32 1_555 1_555
H35 C33 1_555 1_555
C34 C29 1_555 1_555
H36 C34 1_555 1_555
C35 N5 1_555 1_555
H37 C35 1_555 1_555
H38 C35 1_555 1_555
C36 C35 1_555 1_555
C37 C36 1_555 1_555
H39 C37 1_555 1_555
C38 C37 1_555 1_555
H40 C38 1_555 1_555
C39 C38 1_555 1_555
H41 C39 1_555 1_555
C40 C39 1_555 1_555
H42 C40 1_555 1_555
C41 C36 1_555 1_555
H43 C41 1_555 1_555
C2 C4 1_555 1_555
N4 C4 1_555 1_555
N5 C6 1_555 1_555
C12 C13 1_555 1_555
C19 C20 1_555 1_555
C26 C27 1_555 1_555
C33 C34 1_555 1_555
C40 C41 1_555 1_555

#END
