
#######################################################################
#
#                 Cambridge Crystallographic Data Centre
#                                CCDC 
#
#######################################################################
#
# If this CIF has been generated from an entry in the Cambridge 
# Structural Database, then it will include bibliographic, chemical, 
# crystal, experimental, refinement or atomic coordinate data resulting 
# from the CCDC's data processing and validation procedures.
#
#######################################################################

data_LOBSEB
_chemical_formula_moiety         'C13 H12 N2 O1 S2'
_chemical_name_systematic        'Benzyl 3-((E)-furfurylidene)dithiocarbazate'
_symmetry_cell_setting           triclinic
_symmetry_space_group_name_H-M   'P -1'
_symmetry_Int_Tables_number      2
_space_group_name_Hall           '-P 1'
loop_
_symmetry_equiv_pos_site_id
_symmetry_equiv_pos_as_xyz
1 x,y,z
2 -x,-y,-z
_cell_length_a                   4.8331(11)
_cell_length_b                   12.040(3)
_cell_length_c                   12.549(3)
_cell_angle_alpha                108.203(7)
_cell_angle_beta                 99.704(9)
_cell_angle_gamma                97.910(8)
_cell_volume                     669.498
_exptl_crystal_colour            yellow
_exptl_crystal_description       prism
_cell_formula_units_Z            2
loop_
_atom_site_label
_atom_site_type_symbol
_atom_site_fract_x
_atom_site_fract_y
_atom_site_fract_z
S1 S 1.03544(13) -0.02756(5) 0.32307(4)
S2 S 0.84716(12) 0.18647(4) 0.27822(4)
O1 O 0.4143(3) 0.41877(12) 0.56065(11)
N1 N 0.6602(3) 0.22213(13) 0.48240(13)
N2 N 0.7837(3) 0.12309(13) 0.45371(13)
H1 H 0.7943 0.0807 0.4976
C1 C 0.4147(4) 0.33502(16) 0.61307(15)
C2 C 0.2854(5) 0.36601(19) 0.70185(17)
H2 H 0.2592 0.3242 0.7516
C3 C 0.1967(5) 0.47383(19) 0.70534(19)
H3 H 0.1011 0.5168 0.7574
C4 C 0.2776(5) 0.50159(19) 0.61914(19)
H4 H 0.2452 0.5687 0.6011
C5 C 0.5457(4) 0.23599(17) 0.56929(16)
H5 H 0.5479 0.1793 0.6054
C6 C 0.8870(4) 0.09223(16) 0.35868(15)
C7 C 1.0091(5) 0.11971(19) 0.15901(17)
H6 H 1.2107 0.1229 0.1872
H7 H 0.9145 0.0368 0.1189
C8 C 0.9740(4) 0.19026(17) 0.07913(16)
C9 C 0.7422(5) 0.1560(2) -0.01297(19)
H8 H 0.6064 0.0877 -0.0258
C10 C 0.7056(7) 0.2192(3) -0.0861(2)
H9 H 0.5469 0.1939 -0.1476
C11 C 0.9002(8) 0.3183(3) -0.0689(3)
H10 H 0.8750 0.3616 -0.1182
C12 C 1.1348(7) 0.3554(2) 0.0210(3)
H11 H 1.2695 0.4235 0.0325
C13 C 1.1712(5) 0.2906(2) 0.0954(2)
H12 H 1.3306 0.3159 0.1565
loop_
_geom_bond_atom_site_label_1
_geom_bond_atom_site_label_2
_geom_bond_site_symmetry_1
_geom_bond_site_symmetry_2
S1 C6 1_555 1_555
S2 C6 1_555 1_555
O1 C1 1_555 1_555
N1 N2 1_555 1_555
N2 H1 1_555 1_555
C1 C2 1_555 1_555
C2 H2 1_555 1_555
C3 C2 1_555 1_555
H3 C3 1_555 1_555
C4 O1 1_555 1_555
H4 C4 1_555 1_555
C5 N1 1_555 1_555
H5 C5 1_555 1_555
C6 N2 1_555 1_555
C7 S2 1_555 1_555
H6 C7 1_555 1_555
H7 C7 1_555 1_555
C8 C7 1_555 1_555
C9 C8 1_555 1_555
H8 C9 1_555 1_555
C10 C9 1_555 1_555
H9 C10 1_555 1_555
C11 C10 1_555 1_555
H10 C11 1_555 1_555
C12 C11 1_555 1_555
H11 C12 1_555 1_555
C13 C8 1_555 1_555
H12 C13 1_555 1_555
C1 C5 1_555 1_555
C3 C4 1_555 1_555
C12 C13 1_555 1_555

#END
