
#######################################################################
#
#                 Cambridge Crystallographic Data Centre
#                                CCDC 
#
#######################################################################
#
# If this CIF has been generated from an entry in the Cambridge 
# Structural Database, then it will include bibliographic, chemical, 
# crystal, experimental, refinement or atomic coordinate data resulting 
# from the CCDC's data processing and validation procedures.
#
#######################################################################

data_LOBTAZ
_chemical_compound_source        'leaves and stems of Schisandra chinensis'
_chemical_name_common            'Wuweizidilactone P hydrate'
_chemical_formula_moiety         'C28 H34 O10,2.75(H2 O1)'
_chemical_name_systematic        
"8a',16'-Dihydroxy-3',4,14',14'-tetramethyl-2',2a',3',4',8a',12',12a',14',14a',15',16',16a'-dodecahydro-1a'H,5H,9'H,11'H-spiro[furan-2,5'-furo[3''',2''':2'',3'']furo[3'',4'':4',5']cyclohepta[1',2':4,5]oxireno[3,3a]indeno[7a,1-b]pyran]-5,7',11'(8'H)-trione hydrate"
_symmetry_cell_setting           trigonal
_symmetry_space_group_name_H-M   'P 31'
_symmetry_Int_Tables_number      144
_space_group_name_Hall           'P 31'
loop_
_symmetry_equiv_pos_site_id
_symmetry_equiv_pos_as_xyz
1 x,y,z
2 -y,x-y,1/3+z
3 -x+y,-x,2/3+z
_cell_length_a                   16.9750(3)
_cell_length_b                   16.9750(3)
_cell_length_c                   37.8689(6)
_cell_angle_alpha                90
_cell_angle_beta                 90
_cell_angle_gamma                120
_cell_volume                     9450.02
_exptl_crystal_colour            colorless
_exptl_crystal_description       prism
_cell_formula_units_Z            12
loop_
_atom_site_label
_atom_site_type_symbol
_atom_site_fract_x
_atom_site_fract_y
_atom_site_fract_z
O1 O 0.5227(3) 0.1540(4) 0.05816(14)
O2 O 0.04578(14) 0.21953(16) 0.97181(6)
O3 O 0.40200(14) 0.22510(15) 0.90876(6)
O4 O 0.38413(14) 0.16074(15) 0.85295(6)
O5 O 0.21733(14) 0.22569(15) 1.01686(6)
H1 H 0.1841 0.1762 1.0064
O6 O 0.13629(14) 0.11671(15) 0.96108(6)
H2 H 0.0853 0.0873 0.9512
O7 O 0.21611(16) 0.00928(16) 0.90499(6)
O8 O -0.1042(2) 0.1545(3) 0.97396(12)
C1 C -0.0326(2) 0.2116(3) 0.96063(12)
C2 C 0.1250(2) 0.2934(2) 0.95350(9)
C3 C 0.1610(2) 0.2520(2) 0.92688(8)
H3 H 0.2106 0.3031 0.9137
H4 H 0.1115 0.2173 0.9097
C4 C 0.19761(19) 0.1892(2) 0.93844(8)
C5 C 0.2097(2) 0.1470(2) 0.90415(8)
H5 H 0.1494 0.1089 0.8930
H6 H 0.2479 0.1964 0.8874
C6 C 0.2527(2) 0.0899(2) 0.91054(8)
C7 C 0.3456(2) 0.1429(2) 0.92872(9)
C8 C 0.4499(2) 0.2170(2) 0.88018(9)
C9 C 0.5020(2) 0.3086(3) 0.86287(10)
H7 H 0.5492 0.3614 0.8739
C10 C 0.4731(2) 0.3058(2) 0.83006(9)
C11 C 0.5039(3) 0.3753(3) 0.80150(11)
H8 H 0.4528 0.3827 0.7938
H9 H 0.5262 0.3555 0.7815
H10 H 0.5529 0.4335 0.8104
O9 O 0.35142(18) 0.18199(17) 0.79791(7)
C12 C 0.3971(2) 0.2121(2) 0.82375(9)
C13 C -0.0171(3) 0.2766(3) 0.93184(12)
H11 H -0.0538 0.3065 0.9354
H12 H -0.0326 0.2457 0.9086
C14 C 0.0835(3) 0.3451(3) 0.93412(10)
H13 H 0.1115 0.3677 0.9104
O10 O 0.09896(16) 0.41737(17) 0.95743(7)
C15 C 0.1884(2) 0.4500(2) 0.97243(10)
C16 C 0.1879(2) 0.3608(2) 0.98186(9)
H14 H 0.1552 0.3395 1.0049
C17 C 0.2827(2) 0.3733(2) 0.98740(9)
H15 H 0.3201 0.4048 0.9665
H16 H 0.3108 0.4139 1.0080
C18 C 0.28732(19) 0.2867(2) 0.99349(8)
H17 H 0.3464 0.3058 1.0057
C19 C 0.28946(19) 0.2405(2) 0.95889(8)
H18 H 0.3322 0.2908 0.9429
C20 C 0.3291(2) 0.1791(2) 0.96321(8)
O11 O 0.29587(16) 0.11085(16) 0.99033(6)
C21 C 0.3923(2) 0.1785(2) 0.98940(9)
H19 H 0.4193 0.2270 1.0079
C22 C 0.4488(2) 0.1423(3) 0.97271(10)
H20 H 0.4553 0.1002 0.9889
H21 H 0.5101 0.1927 0.9664
C23 C 0.3951(2) 0.0922(2) 0.93954(10)
H22 H 0.3483 0.0290 0.9465
C24 C 0.4514(3) 0.0857(3) 0.90871(11)
H23 H 0.4073 0.0423 0.8910
C25 C 0.5064(3) 0.1746(3) 0.89059(11)
H24 H 0.5345 0.1656 0.8692
H25 H 0.5561 0.2167 0.9065
C26 C 0.5107(4) 0.0455(4) 0.92144(14)
H26 H 0.5375 0.0322 0.9010
H27 H 0.4728 -0.0108 0.9346
H28 H 0.5593 0.0895 0.9368
C27 C 0.2599(3) 0.5071(3) 0.94444(14)
H29 H 0.2545 0.4683 0.9243
H30 H 0.3208 0.5330 0.9547
H31 H 0.2499 0.5563 0.9364
C28 C 0.1950(3) 0.5056(3) 1.00422(12)
H32 H 0.1937 0.5602 0.9967
H33 H 0.2521 0.5235 1.0167
H34 H 0.1436 0.4695 1.0200
O12 O 0.1445(3) 0.9649(4) 0.02556(14)
O13 O 0.7725(4) 0.1061(4) 0.8748(2)
O14 O 0.9620(2) 0.0195(2) 0.93283(11)
O15 O 0.6867(2) 0.2953(2) 0.81745(11)
O16 O 0.9298(4) 0.0929(4) 0.87377(13)
O17 O 0.7595(4) 0.2641(4) 0.87637(14)
O18 O 0.06750(19) -0.30419(16) 0.85882(7)
O19 O 0.13193(15) -0.19380(14) 0.81886(6)
O20 O 0.13183(16) 0.16286(14) 0.75316(6)
O21 O 0.08797(19) 0.23394(17) 0.79511(6)
O22 O 0.1383(3) 0.3143(2) 0.84544(8)
O23 O 0.33451(18) -0.13063(18) 0.82945(8)
O24 O 0.11460(16) -0.15222(14) 0.74115(6)
H35 H 0.0797 -0.1692 0.7236
O25 O 0.03385(14) -0.10767(14) 0.79687(6)
H36 H 0.0405 -0.1507 0.7896
O26 O -0.04992(17) 0.02916(17) 0.80467(7)
C29 C 0.1295(2) -0.2319(2) 0.85055(9)
C30 C 0.2146(2) -0.1040(2) 0.81466(9)
C31 C 0.1906(2) -0.02921(19) 0.81895(8)
H37 H 0.2477 0.0295 0.8161
H38 H 0.1708 -0.0317 0.8437
C32 C 0.1191(2) -0.02502(19) 0.79559(8)
C33 C 0.1507(2) 0.00374(19) 0.75691(8)
H39 H 0.2053 0.0661 0.7579
C34 C 0.0775(2) 0.0121(2) 0.73744(8)
C35 C 0.0486(2) 0.0757(2) 0.75414(8)
C36 C 0.1215(3) 0.2395(2) 0.75955(10)
C37 C 0.1524(3) 0.3052(3) 0.81488(11)
C38 C 0.3134(4) 0.4424(3) 0.80656(15)
H40 H 0.3606 0.4671 0.7883
H41 H 0.3362 0.4258 0.8274
H42 H 0.2972 0.4884 0.8131
C39 C 0.2308(3) 0.3596(3) 0.79256(12)
C40 C 0.2142(3) 0.3222(2) 0.76069(11)
H43 H 0.2554 0.3447 0.7414
O27 O 0.00089(16) -0.06931(15) 0.72342(6)
C41 C 0.0561(3) 0.0084(2) 0.69983(9)
H44 H 0.0969 0.0043 0.6817
C42 C 0.0099(3) 0.0625(2) 0.69237(9)
H45 H -0.0420 0.0294 0.6760
H46 H 0.0530 0.1225 0.6820
C43 C -0.0231(2) 0.0733(2) 0.72946(9)
H47 H -0.0821 0.0168 0.7346
C44 C -0.0372(3) 0.1554(2) 0.73423(10)
H48 H -0.0653 0.1497 0.7580
C45 C -0.1029(3) 0.1553(3) 0.70647(12)
H49 H -0.1137 0.2060 0.7111
H50 H -0.1607 0.0978 0.7077
H51 H -0.0764 0.1622 0.6829
C46 C 0.0547(3) 0.2435(2) 0.73404(10)
H52 H 0.0805 0.2547 0.7099
H53 H 0.0457 0.2949 0.7405
C47 C 0.2137(3) -0.1702(2) 0.87164(9)
H54 H 0.1993 -0.1402 0.8910
H55 H 0.2411 -0.2047 0.8818
C48 C 0.2768(2) -0.1013(2) 0.84504(10)
H56 H 0.3125 -0.0391 0.8556
C49 C 0.3574(2) -0.0918(3) 0.79450(12)
C50 C 0.2644(2) -0.1060(2) 0.78091(10)
H57 H 0.2298 -0.1693 0.7713
C51 C 0.2717(2) -0.0422(2) 0.75114(9)
H58 H 0.3049 -0.0499 0.7312
H59 H 0.3081 0.0213 0.7596
C52 C 0.1803(2) -0.0575(2) 0.73771(8)
H60 H 0.1870 -0.0417 0.7120
C53 C 0.3912(3) -0.1443(3) 0.77349(14)
H61 H 0.4491 -0.1336 0.7833
H62 H 0.4001 -0.1240 0.7488
H63 H 0.3463 -0.2093 0.7746
C54 C 0.4308(3) 0.0094(3) 0.79717(13)
H64 H 0.4064 0.0424 0.8102
H65 H 0.4487 0.0350 0.7734
H66 H 0.4840 0.0150 0.8097
C55 C 0.0973(2) 0.0446(2) 0.81281(8)
H67 H 0.0773 0.0263 0.8375
H68 H 0.1529 0.1053 0.8132
C56 C 0.0237(2) 0.0495(2) 0.79252(8)
O28 O 0.47299(14) 0.46502(15) 0.93094(6)
O29 O 0.83008(14) 0.46521(16) 0.99673(6)
O30 O 0.9808(2) 0.4713(3) 0.90435(8)
O31 O 0.90067(16) 0.42105(19) 0.95471(6)
O32 O 0.55919(14) 0.36696(14) 0.95306(6)
H69 H 0.5200 0.3694 0.9658
O33 O 0.69554(17) 0.28298(17) 0.94532(7)
O34 O 0.51460(14) 0.44795(16) 1.00882(6)
H70 H 0.4980 0.4120 1.0260
O35 O 0.36254(16) 0.40055(19) 0.89110(7)
C57 C 0.4351(2) 0.4625(2) 0.89934(9)
C58 C 0.5628(2) 0.5476(2) 0.93508(9)
C59 C 0.6378(2) 0.5237(2) 0.93083(9)
H71 H 0.6965 0.5809 0.9338
H72 H 0.6356 0.5042 0.9060
C60 C 0.64150(19) 0.4519(2) 0.95425(8)
C61 C 0.67042(19) 0.4836(2) 0.99291(8)
H73 H 0.7328 0.5381 0.9918
C62 C 0.67888(19) 0.4105(2) 1.01244(8)
C63 C 0.7424(2) 0.3816(2) 0.99581(8)
C64 C 0.9063(2) 0.4548(3) 0.99044(9)
C65 C 0.9884(2) 0.5471(3) 0.98937(11)
H74 H 1.0108 0.5883 1.0087
C66 C 1.0263(3) 0.5637(3) 0.95717(12)
C67 C 1.1089(3) 0.6458(4) 0.94352(15)
H75 H 1.1296 0.6951 0.9609
H76 H 1.0943 0.6652 0.9213
H77 H 1.1572 0.6312 0.9394
C68 C 0.9718(3) 0.4857(3) 0.93496(11)
O36 O 0.59700(15) 0.33426(17) 1.02654(6)
C69 C 0.6749(2) 0.3891(3) 1.04991(9)
H78 H 0.6711 0.4302 1.0679
C70 C 0.7293(2) 0.3430(3) 1.05760(9)
H79 H 0.6962 0.2910 1.0739
H80 H 0.7892 0.3861 1.0679
C71 C 0.7399(2) 0.3101(2) 1.02051(9)
H81 H 0.6835 0.2511 1.0153
C72 C 0.8219(2) 0.2963(3) 1.01585(10)
H82 H 0.8162 0.2682 0.9921
C73 C 0.8216(3) 0.2303(3) 1.04318(12)
H83 H 0.8633 0.2093 1.0357
H84 H 0.7600 0.1780 1.0454
H85 H 0.8413 0.2611 1.0661
C74 C 0.9101(2) 0.3873(3) 1.01586(10)
H86 H 0.9610 0.3776 1.0091
H87 H 0.9222 0.4130 1.0400
C75 C 0.7115(2) 0.4304(2) 0.93715(8)
H88 H 0.6935 0.4104 0.9124
H89 H 0.7721 0.4860 0.9368
C76 C 0.71619(19) 0.3572(2) 0.95750(8)
C77 C 0.4970(2) 0.5470(3) 0.87812(10)
H90 H 0.5270 0.5327 0.8588
H91 H 0.4625 0.5745 0.8679
C78 C 0.5659(2) 0.6100(2) 0.90495(10)
H92 H 0.6282 0.6460 0.8945
O37 O 0.53582(17) 0.66754(18) 0.92056(8)
C79 C 0.5748(3) 0.6901(3) 0.95527(11)
C80 C 0.6762(3) 0.7639(3) 0.95244(13)
H93 H 0.7100 0.7384 0.9408
H94 H 0.7010 0.7850 0.9761
H95 H 0.6819 0.8153 0.9386
C81 C 0.5607(2) 0.5979(2) 0.96919(10)
H96 H 0.4975 0.5634 0.9788
C82 C 0.6245(2) 0.6051(2) 0.99874(9)
H97 H 0.6171 0.6385 1.0187
H98 H 0.6879 0.6414 0.9902
C83 C 0.6093(2) 0.5137(2) 1.01229(9)
H99 H 0.6251 0.5204 1.0380
C84 C 0.5225(3) 0.7241(3) 0.97619(14)
H100 H 0.5348 0.7829 0.9668
H101 H 0.5413 0.7312 1.0010
H102 H 0.4572 0.6803 0.9744
O38 O 0.26482(14) 0.15682(15) 0.17455(6)
O39 O 0.62116(15) 0.50723(16) 0.11124(6)
O40 O 0.7712(2) 0.5924(3) 0.10937(11)
O41 O 0.53025(14) 0.31376(15) 0.12215(6)
H103 H 0.5839 0.3546 0.1265
O42 O 0.45054(16) 0.12684(17) 0.17816(7)
O43 O 0.37058(16) 0.14848(16) 0.09294(6)
O44 O 0.28272(15) 0.11015(16) 0.23023(6)
O45 O 0.44975(14) 0.34164(15) 0.06632(6)
H104 H 0.4505 0.3707 0.0483
C85 C 0.1633(3) 0.2059(3) 0.28177(11)
H105 H 0.1075 0.2050 0.2744
H106 H 0.2110 0.2688 0.2863
H107 H 0.1514 0.1698 0.3034
C86 C 0.1937(2) 0.1664(3) 0.25323(9)
C87 C 0.1651(2) 0.1407(3) 0.22066(10)
H108 H 0.1180 0.1465 0.2097
C88 C 0.2169(2) 0.1009(2) 0.20318(9)
C89 C 0.3208(2) 0.1309(2) 0.15459(8)
C90 C 0.3374(2) 0.1834(2) 0.12027(8)
C91 C 0.37718(19) 0.2847(2) 0.12442(8)
H109 H 0.3347 0.2926 0.1404
C92 C 0.46918(19) 0.3250(2) 0.14469(8)
C93 C 0.5055(2) 0.4244(2) 0.15638(8)
H110 H 0.4558 0.4259 0.1695
H111 H 0.5549 0.4392 0.1736
C94 C 0.5416(2) 0.5017(2) 0.12992(9)
C95 C 0.6995(2) 0.5772(3) 0.12252(12)
C96 C 0.4791(2) 0.5065(2) 0.10126(9)
H112 H 0.5119 0.5180 0.0782
C97 C 0.4783(2) 0.5950(2) 0.11094(10)
O46 O 0.56777(17) 0.65186(16) 0.12576(7)
C98 C 0.5837(3) 0.5954(2) 0.14922(10)
H113 H 0.5561 0.5904 0.1730
C99 C 0.6841(3) 0.6273(3) 0.15132(12)
H114 H 0.7209 0.6939 0.1476
H115 H 0.6999 0.6123 0.1746
C100 C 0.4065(3) 0.5811(3) 0.13826(14)
H116 H 0.4091 0.5453 0.1580
H117 H 0.3461 0.5488 0.1274
H118 H 0.4182 0.6404 0.1469
C101 C 0.4710(3) 0.6438(3) 0.07894(13)
H119 H 0.4732 0.7001 0.0863
H120 H 0.4134 0.6046 0.0668
H121 H 0.5218 0.6583 0.0629
C102 C 0.3844(2) 0.4240(2) 0.09588(9)
H122 H 0.3471 0.4182 0.1169
H123 H 0.3560 0.4363 0.0754
C103 C 0.37943(19) 0.3328(2) 0.08981(8)
H124 H 0.3203 0.2929 0.0776
C104 C 0.4573(2) 0.2709(2) 0.17909(8)
H125 H 0.5176 0.2932 0.1902
H126 H 0.4192 0.2823 0.1958
C105 C 0.4141(2) 0.1707(2) 0.17279(8)
C106 C 0.2747(2) 0.1199(2) 0.09395(9)
H127 H 0.2478 0.1417 0.0755
C107 C 0.2173(3) 0.0267(2) 0.11067(10)
H128 H 0.2103 -0.0221 0.0945
H129 H 0.1563 0.0162 0.1171
C108 C 0.2719(3) 0.0308(2) 0.14372(10)
H130 H 0.3188 0.0146 0.1366
C109 C 0.2156(3) -0.0322(2) 0.17433(11)
H131 H 0.2596 -0.0319 0.1920
C110 C 0.1601(2) 0.0023(3) 0.19281(11)
H132 H 0.1104 -0.0050 0.1770
H133 H 0.1320 -0.0347 0.2142
C111 C 0.2693(2) 0.1488(2) 0.25958(9)
O47 O 0.31552(18) 0.1642(2) 0.28542(7)
C112 C 0.1555(4) -0.1317(3) 0.16167(15)
H134 H 0.1219 -0.1703 0.1818
H135 H 0.1941 -0.1535 0.1514
H136 H 0.1124 -0.1344 0.1438
O48 O 0.9954(6) 0.6311(5) 0.1601(3)
O49 O 0.1790(5) 0.7101(6) 0.2290(4)
O50 O 0.0318(5) 0.7026(5) 0.2563(3)
O51 O 0.0224(5) 0.8301(6) 0.3024(3)
O52 O 0.2880(7) 0.6694(9) 0.2067(5)
O53 O 0.1338(6) 0.6217(6) 0.1887(3)
O54 O 0.8594(6) 0.5034(7) 0.1129(4)
O55 O 0.5660(9) 0.0183(9) 0.0373(5)
loop_
_geom_bond_atom_site_label_1
_geom_bond_atom_site_label_2
_geom_bond_site_symmetry_1
_geom_bond_site_symmetry_2
O2 C1 1_555 1_555
O3 C7 1_555 1_555
O4 C8 1_555 1_555
O5 H1 1_555 1_555
O6 H2 1_555 1_555
O7 C6 1_555 1_555
O8 C1 1_555 1_555
C1 C13 1_555 1_555
C2 O2 1_555 1_555
C3 C2 1_555 1_555
H3 C3 1_555 1_555
H4 C3 1_555 1_555
C4 O6 1_555 1_555
C5 C4 1_555 1_555
H5 C5 1_555 1_555
H6 C5 1_555 1_555
C6 C5 1_555 1_555
C7 C6 1_555 1_555
C8 O3 1_555 1_555
C9 C8 1_555 1_555
H7 C9 1_555 1_555
C10 C9 1_555 1_555
C11 C10 1_555 1_555
H8 C11 1_555 1_555
H9 C11 1_555 1_555
H10 C11 1_555 1_555
O9 C12 1_555 1_555
C12 O4 1_555 1_555
C13 H11 1_555 1_555
H12 C13 1_555 1_555
C14 C2 1_555 1_555
H13 C14 1_555 1_555
O10 C14 1_555 1_555
C15 O10 1_555 1_555
C16 C2 1_555 1_555
H14 C16 1_555 1_555
C17 C16 1_555 1_555
H15 C17 1_555 1_555
H16 C17 1_555 1_555
C18 O5 1_555 1_555
H17 C18 1_555 1_555
C19 C4 1_555 1_555
H18 C19 1_555 1_555
C20 C7 1_555 1_555
O11 C20 1_555 1_555
C21 C20 1_555 1_555
H19 C21 1_555 1_555
C22 C21 1_555 1_555
H20 C22 1_555 1_555
H21 C22 1_555 1_555
C23 C7 1_555 1_555
H22 C23 1_555 1_555
C24 C23 1_555 1_555
H23 C24 1_555 1_555
C25 C8 1_555 1_555
H24 C25 1_555 1_555
H25 C25 1_555 1_555
C26 C24 1_555 1_555
H26 C26 1_555 1_555
H27 C26 1_555 1_555
H28 C26 1_555 1_555
C27 C15 1_555 1_555
H29 C27 1_555 1_555
H30 C27 1_555 1_555
H31 C27 1_555 1_555
C28 C15 1_555 1_555
H32 C28 1_555 1_555
H33 C28 1_555 1_555
H34 C28 1_555 1_555
O18 C29 1_555 1_555
O19 C29 1_555 1_555
O20 C35 1_555 1_555
O21 C36 1_555 1_555
O22 C37 1_555 1_555
O23 C48 1_555 1_555
O24 H35 1_555 1_555
O25 H36 1_555 1_555
O26 C56 1_555 1_555
C29 C47 1_555 1_555
C30 O19 1_555 1_555
C31 C30 1_555 1_555
H37 C31 1_555 1_555
H38 C31 1_555 1_555
C32 O25 1_555 1_555
C33 C32 1_555 1_555
H39 C33 1_555 1_555
C34 C33 1_555 1_555
C35 C34 1_555 1_555
C36 O20 1_555 1_555
C37 O21 1_555 1_555
C38 H40 1_555 1_555
H41 C38 1_555 1_555
H42 C38 1_555 1_555
C39 C37 1_555 1_555
C40 C36 1_555 1_555
H43 C40 1_555 1_555
O27 C34 1_555 1_555
C41 C34 1_555 1_555
H44 C41 1_555 1_555
C42 C41 1_555 1_555
H45 C42 1_555 1_555
H46 C42 1_555 1_555
C43 C35 1_555 1_555
H47 C43 1_555 1_555
C44 C43 1_555 1_555
H48 C44 1_555 1_555
C45 C44 1_555 1_555
H49 C45 1_555 1_555
H50 C45 1_555 1_555
H51 C45 1_555 1_555
C46 C36 1_555 1_555
H52 C46 1_555 1_555
H53 C46 1_555 1_555
C47 H54 1_555 1_555
H55 C47 1_555 1_555
C48 C30 1_555 1_555
H56 C48 1_555 1_555
C49 O23 1_555 1_555
C50 C30 1_555 1_555
H57 C50 1_555 1_555
C51 C50 1_555 1_555
H58 C51 1_555 1_555
H59 C51 1_555 1_555
C52 O24 1_555 1_555
H60 C52 1_555 1_555
C53 C49 1_555 1_555
H61 C53 1_555 1_555
H62 C53 1_555 1_555
H63 C53 1_555 1_555
C54 C49 1_555 1_555
H64 C54 1_555 1_555
H65 C54 1_555 1_555
H66 C54 1_555 1_555
C55 C32 1_555 1_555
H67 C55 1_555 1_555
H68 C55 1_555 1_555
C56 C35 1_555 1_555
O28 C57 1_555 1_555
O29 C63 1_555 1_555
O30 C68 1_555 1_555
O31 C64 1_555 1_555
O32 H69 1_555 1_555
O33 C76 1_555 1_555
O34 H70 1_555 1_555
O35 C57 1_555 1_555
C57 C77 1_555 1_555
C58 O28 1_555 1_555
C59 C58 1_555 1_555
H71 C59 1_555 1_555
H72 C59 1_555 1_555
C60 O32 1_555 1_555
C61 C60 1_555 1_555
H73 C61 1_555 1_555
C62 C61 1_555 1_555
C63 C62 1_555 1_555
C64 O29 1_555 1_555
C65 C64 1_555 1_555
H74 C65 1_555 1_555
C66 C65 1_555 1_555
C67 C66 1_555 1_555
H75 C67 1_555 1_555
H76 C67 1_555 1_555
H77 C67 1_555 1_555
C68 O31 1_555 1_555
O36 C62 1_555 1_555
C69 C62 1_555 1_555
H78 C69 1_555 1_555
C70 C69 1_555 1_555
H79 C70 1_555 1_555
H80 C70 1_555 1_555
C71 C63 1_555 1_555
H81 C71 1_555 1_555
C72 C71 1_555 1_555
H82 C72 1_555 1_555
C73 C72 1_555 1_555
H83 C73 1_555 1_555
H84 C73 1_555 1_555
H85 C73 1_555 1_555
C74 C64 1_555 1_555
H86 C74 1_555 1_555
H87 C74 1_555 1_555
C75 C60 1_555 1_555
H88 C75 1_555 1_555
H89 C75 1_555 1_555
C76 C63 1_555 1_555
C77 H90 1_555 1_555
H91 C77 1_555 1_555
C78 C58 1_555 1_555
H92 C78 1_555 1_555
O37 C78 1_555 1_555
C79 O37 1_555 1_555
C80 C79 1_555 1_555
H93 C80 1_555 1_555
H94 C80 1_555 1_555
H95 C80 1_555 1_555
C81 C58 1_555 1_555
H96 C81 1_555 1_555
C82 C81 1_555 1_555
H97 C82 1_555 1_555
H98 C82 1_555 1_555
C83 O34 1_555 1_555
H99 C83 1_555 1_555
C84 C79 1_555 1_555
H100 C84 1_555 1_555
H101 C84 1_555 1_555
H102 C84 1_555 1_555
O38 C88 1_555 1_555
O39 C94 1_555 1_555
O40 C95 1_555 1_555
O41 H103 1_555 1_555
O42 C105 1_555 1_555
O43 C90 1_555 1_555
O44 C88 1_555 1_555
O45 H104 1_555 1_555
C85 H105 1_555 1_555
H106 C85 1_555 1_555
H107 C85 1_555 1_555
C86 C85 1_555 1_555
C87 C86 1_555 1_555
H108 C87 1_555 1_555
C88 C87 1_555 1_555
C89 O38 1_555 1_555
C90 C89 1_555 1_555
C91 C90 1_555 1_555
H109 C91 1_555 1_555
C92 O41 1_555 1_555
C93 C92 1_555 1_555
H110 C93 1_555 1_555
H111 C93 1_555 1_555
C94 C93 1_555 1_555
C95 O39 1_555 1_555
C96 C94 1_555 1_555
H112 C96 1_555 1_555
C97 C96 1_555 1_555
O46 C97 1_555 1_555
C98 C94 1_555 1_555
H113 C98 1_555 1_555
C99 C95 1_555 1_555
H114 C99 1_555 1_555
H115 C99 1_555 1_555
C100 C97 1_555 1_555
H116 C100 1_555 1_555
H117 C100 1_555 1_555
H118 C100 1_555 1_555
C101 C97 1_555 1_555
H119 C101 1_555 1_555
H120 C101 1_555 1_555
H121 C101 1_555 1_555
C102 C96 1_555 1_555
H122 C102 1_555 1_555
H123 C102 1_555 1_555
C103 O45 1_555 1_555
H124 C103 1_555 1_555
C104 C92 1_555 1_555
H125 C104 1_555 1_555
H126 C104 1_555 1_555
C105 C89 1_555 1_555
C106 O43 1_555 1_555
H127 C106 1_555 1_555
C107 C106 1_555 1_555
H128 C107 1_555 1_555
H129 C107 1_555 1_555
C108 C89 1_555 1_555
H130 C108 1_555 1_555
C109 C108 1_555 1_555
H131 C109 1_555 1_555
C110 C88 1_555 1_555
H132 C110 1_555 1_555
H133 C110 1_555 1_555
C111 O44 1_555 1_555
O47 C111 1_555 1_555
C112 C109 1_555 1_555
H134 C112 1_555 1_555
H135 C112 1_555 1_555
H136 C112 1_555 1_555
C3 C4 1_555 1_555
C10 C12 1_555 1_555
C13 C14 1_555 1_555
C15 C16 1_555 1_555
C17 C18 1_555 1_555
C18 C19 1_555 1_555
C19 C20 1_555 1_555
O11 C21 1_555 1_555
C22 C23 1_555 1_555
C24 C25 1_555 1_555
C31 C32 1_555 1_555
C33 C52 1_555 1_555
C38 C39 1_555 1_555
C39 C40 1_555 1_555
O27 C41 1_555 1_555
C42 C43 1_555 1_555
C44 C46 1_555 1_555
C47 C48 1_555 1_555
C49 C50 1_555 1_555
C51 C52 1_555 1_555
C55 C56 1_555 1_555
C59 C60 1_555 1_555
C61 C83 1_555 1_555
C66 C68 1_555 1_555
O36 C69 1_555 1_555
C70 C71 1_555 1_555
C72 C74 1_555 1_555
C75 C76 1_555 1_555
C77 C78 1_555 1_555
C79 C81 1_555 1_555
C82 C83 1_555 1_555
C86 C111 1_555 1_555
C90 C106 1_555 1_555
C91 C92 1_555 1_555
C91 C103 1_555 1_555
O46 C98 1_555 1_555
C98 C99 1_555 1_555
C102 C103 1_555 1_555
C104 C105 1_555 1_555
C107 C108 1_555 1_555
C109 C110 1_555 1_555

#END
