
#######################################################################
#
#                 Cambridge Crystallographic Data Centre
#                                CCDC 
#
#######################################################################
#
# If this CIF has been generated from an entry in the Cambridge 
# Structural Database, then it will include bibliographic, chemical, 
# crystal, experimental, refinement or atomic coordinate data resulting 
# from the CCDC's data processing and validation procedures.
#
#######################################################################

data_LOBVUU
_chemical_formula_moiety         'C22 H19 F3 N2 O3'
_chemical_name_systematic        
'Methyl 3-(4-(6-methyl-4-(3-(trifluoromethyl)phenyl)pyridazin-3-yloxy)phenyl)propanoate'
_symmetry_cell_setting           triclinic
_symmetry_space_group_name_H-M   'P -1'
_symmetry_Int_Tables_number      2
_space_group_name_Hall           '-P 1'
loop_
_symmetry_equiv_pos_site_id
_symmetry_equiv_pos_as_xyz
1 x,y,z
2 -x,-y,-z
_cell_length_a                   9.4916(19)
_cell_length_b                   10.232(2)
_cell_length_c                   11.022(2)
_cell_angle_alpha                81.70(3)
_cell_angle_beta                 65.12(3)
_cell_angle_gamma                78.92(3)
_cell_volume                     950.56
_exptl_crystal_colour            colorless
_exptl_crystal_description       Plate
_cell_formula_units_Z            2
_exptl_crystal_recrystallization_method 'ethyl acetate/petroleum ether'
loop_
_atom_site_label
_atom_site_type_symbol
_atom_site_fract_x
_atom_site_fract_y
_atom_site_fract_z
F1 F 1.0340(5) 0.3434(7) 0.0132(7)
F2 F 0.8747(11) 0.3445(7) -0.0736(7)
F3 F 0.7991(6) 0.4176(6) 0.1223(8)
O1 O 0.39298(18) 0.1498(2) 0.2418(2)
O2 O -0.5057(2) 0.5985(2) 0.6250(2)
O3 O -0.4466(2) 0.7531(2) 0.4543(2)
N1 N 0.3114(2) -0.1545(3) 0.1899(3)
N2 N 0.2934(2) -0.0267(3) 0.2179(3)
C1 C 0.8892(3) 0.3235(3) 0.0444(3)
C2 C 0.8618(3) 0.1868(3) 0.1025(3)
C3 C 0.9650(3) 0.1072(3) 0.1502(3)
H1 H 1.0518 0.1399 0.1464
C4 C 0.9393(3) -0.0202(3) 0.2033(3)
H2 H 1.0083 -0.0738 0.2361
C5 C 0.8108(3) -0.0688(3) 0.2079(3)
H3 H 0.7947 -0.1555 0.2430
C6 C 0.7056(2) 0.0103(3) 0.1608(3)
C7 C 0.7313(3) 0.1389(3) 0.1080(3)
H4 H 0.6616 0.1931 0.0763
C8 C 0.5697(3) -0.0462(3) 0.1662(3)
C9 C 0.5840(3) -0.1748(3) 0.1379(3)
H5 H 0.6818 -0.2278 0.1092
C10 C 0.4511(3) -0.2271(3) 0.1519(3)
C11 C 0.4609(3) -0.3680(3) 0.1257(3)
H6 H 0.3575 -0.3868 0.1466
H7 H 0.5055 -0.4269 0.1806
H8 H 0.5259 -0.3811 0.0329
C12 C 0.4159(3) 0.0228(3) 0.2087(3)
C13 C 0.2387(3) 0.2146(3) 0.3058(3)
C14 C 0.1408(3) 0.1712(3) 0.4317(3)
H9 H 0.1721 0.0931 0.4743
C15 C -0.0044(3) 0.2448(3) 0.4941(3)
H10 H -0.0710 0.2150 0.5792
C16 C -0.0543(3) 0.3619(3) 0.4340(3)
C17 C 0.0473(3) 0.4015(3) 0.3070(3)
H11 H 0.0168 0.4794 0.2636
C18 C 0.1928(3) 0.3285(3) 0.2428(3)
H12 H 0.2593 0.3568 0.1570
C19 C -0.2110(3) 0.4412(3) 0.5096(3)
H13 H -0.2905 0.3833 0.5370
H14 H -0.2102 0.4673 0.5905
C20 C -0.2594(3) 0.5645(3) 0.4362(3)
H15 H -0.1815 0.6240 0.4094
H16 H -0.2615 0.5396 0.3554
C21 C -0.4164(3) 0.6373(3) 0.5179(3)
C22 C -0.5929(3) 0.8355(3) 0.5257(4)
H17 H -0.6786 0.7956 0.5298
H18 H -0.5942 0.9226 0.4798
H19 H -0.6034 0.8431 0.6150
F4? F 1.0297(11) 0.3418(14) -0.0418(14)
F5? F 0.7900(12) 0.3936(8) -0.0042(15)
F6? F 0.8553(19) 0.4059(12) 0.1421(11)
loop_
_geom_bond_atom_site_label_1
_geom_bond_atom_site_label_2
_geom_bond_site_symmetry_1
_geom_bond_site_symmetry_2
F1 C1 1_555 1_555
F2 C1 1_555 1_555
F3 C1 1_555 1_555
O1 C12 1_555 1_555
O2 C21 1_555 1_555
O3 C21 1_555 1_555
N1 N2 1_555 1_555
N2 C12 1_555 1_555
C1 C2 1_555 1_555
C2 C3 1_555 1_555
C3 H1 1_555 1_555
C4 C3 1_555 1_555
H2 C4 1_555 1_555
C5 C4 1_555 1_555
H3 C5 1_555 1_555
C6 C5 1_555 1_555
C7 C2 1_555 1_555
H4 C7 1_555 1_555
C8 C6 1_555 1_555
C9 C8 1_555 1_555
H5 C9 1_555 1_555
C10 N1 1_555 1_555
C11 C10 1_555 1_555
H6 C11 1_555 1_555
H7 C11 1_555 1_555
H8 C11 1_555 1_555
C12 C8 1_555 1_555
C13 O1 1_555 1_555
C14 C13 1_555 1_555
H9 C14 1_555 1_555
C15 C14 1_555 1_555
H10 C15 1_555 1_555
C16 C15 1_555 1_555
C17 C16 1_555 1_555
H11 C17 1_555 1_555
C18 C13 1_555 1_555
H12 C18 1_555 1_555
C19 C16 1_555 1_555
H13 C19 1_555 1_555
H14 C19 1_555 1_555
C20 C19 1_555 1_555
H15 C20 1_555 1_555
H16 C20 1_555 1_555
C21 C20 1_555 1_555
C22 O3 1_555 1_555
H17 C22 1_555 1_555
H18 C22 1_555 1_555
H19 C22 1_555 1_555
C6 C7 1_555 1_555
C9 C10 1_555 1_555
C17 C18 1_555 1_555

#END
