
#######################################################################
#
#                 Cambridge Crystallographic Data Centre
#                                CCDC 
#
#######################################################################
#
# If this CIF has been generated from an entry in the Cambridge 
# Structural Database, then it will include bibliographic, chemical, 
# crystal, experimental, refinement or atomic coordinate data resulting 
# from the CCDC's data processing and validation procedures.
#
#######################################################################

data_LOBXUX
_chemical_formula_moiety         'C30 H78 Ca2 N6 O2 Si4'
_chemical_name_systematic        
bis(\m~2~-1-((2-(Dimethylamino)ethyl)(methyl)amino)-2-methylpropan-2-olato)-bis(bis(trimethylsilyl)amide)-di-calcium
_symmetry_cell_setting           triclinic
_symmetry_space_group_name_H-M   'P -1'
_symmetry_Int_Tables_number      2
_space_group_name_Hall           '-P 1'
loop_
_symmetry_equiv_pos_site_id
_symmetry_equiv_pos_as_xyz
1 x,y,z
2 -x,-y,-z
_cell_length_a                   9.2259(2)
_cell_length_b                   10.5297(2)
_cell_length_c                   12.7006(2)
_cell_angle_alpha                97.493(1)
_cell_angle_beta                 91.241(1)
_cell_angle_gamma                113.172(1)
_cell_volume                     1120.98
_exptl_crystal_colour            silver
_exptl_crystal_description       Block
_cell_formula_units_Z            1
_chemical_properties_physical    
'Air-sensitive, Moisture-sensitive, Hygroscropic'
loop_
_atom_site_label
_atom_site_type_symbol
_atom_site_fract_x
_atom_site_fract_y
_atom_site_fract_z
Ca1 Ca 0.52522(3) 0.57895(3) 0.63788(2)
Si1 Si 0.64315(5) 0.89943(4) 0.82577(3)
Si2 Si 0.89130(5) 0.82577(5) 0.72656(4)
O1 O 0.45161(13) 0.60134(11) 0.47141(8)
N1 N 0.45414(16) 0.59943(14) 0.24872(10)
N2 N 0.73831(17) 0.52456(15) 0.25819(12)
N3 N 0.69837(16) 0.79288(14) 0.73980(10)
C1 C 0.42827(18) 0.71336(16) 0.43575(12)
C2 C 0.2873(2) 0.73229(18) 0.48745(14)
H1 H 0.3092 0.7530 0.5650
H2 H 0.1918 0.6462 0.4687
H3 H 0.2709 0.8097 0.4615
C3 C 0.5762(2) 0.84912(16) 0.46823(13)
H4 H 0.6006 0.8639 0.5455
H5 H 0.5564 0.9280 0.4482
H6 H 0.6658 0.8420 0.4318
C4 C 0.3804(2) 0.68104(16) 0.31377(12)
H7 H 0.2642 0.6295 0.3029
H8 H 0.4071 0.7709 0.2866
C5 C 0.3555(2) 0.53369(19) 0.14764(13)
H9 H 0.2488 0.4728 0.1627
H10 H 0.4025 0.4782 0.1041
H11 H 0.3498 0.6064 0.1089
C6 C 0.6150(2) 0.69118(17) 0.22555(13)
H12 H 0.6714 0.7543 0.2916
H13 H 0.6067 0.7498 0.1727
C7 C 0.7112(2) 0.60989(18) 0.18265(14)
H14 H 0.6554 0.5478 0.1160
H15 H 0.8148 0.6766 0.1648
C8 C 0.8124(2) 0.4373(2) 0.20171(18)
H16 H 0.8319 0.3795 0.2501
H17 H 0.9128 0.4975 0.1771
H18 H 0.7416 0.3769 0.1403
C9 C 0.8493(2) 0.6149(2) 0.34870(16)
H19 H 0.8659 0.5568 0.3981
H20 H 0.8052 0.6775 0.3858
H21 H 0.9505 0.6704 0.3224
C10 C 0.6013(2) 0.8349(2) 0.95813(14)
H22 H 0.6297 0.9149 1.0151
H23 H 0.6640 0.7809 0.9706
H24 H 0.4886 0.7754 0.9575
C11 C 0.4597(2) 0.9148(2) 0.77253(14)
H25 H 0.4529 0.9996 0.8098
H26 H 0.3663 0.8329 0.7840
H27 H 0.4644 0.9198 0.6961
C12 C 0.7889(2) 1.08761(18) 0.85861(16)
H28 H 0.7641 1.1307 0.9250
H29 H 0.7818 1.1385 0.8007
H30 H 0.8963 1.0912 0.8671
C13 C 1.0024(3) 0.9824(2) 0.6610(2)
H31 H 1.1047 1.0376 0.7013
H32 H 0.9408 1.0398 0.6596
H33 H 1.0195 0.9514 0.5880
C14 C 1.0111(2) 0.8489(2) 0.85535(16)
H34 H 1.1121 0.9296 0.8580
H35 H 1.0309 0.7647 0.8593
H36 H 0.9524 0.8643 0.9156
C15 C 0.9093(2) 0.6749(2) 0.63882(16)
H37 H 1.0214 0.6930 0.6336
H38 H 0.8589 0.6641 0.5676
H39 H 0.8570 0.5890 0.6696
Ca1A Ca 0.47478(3) 0.42105(3) 0.36212(2)
Si1A Si 0.35685(5) 0.10057(4) 0.17423(3)
Si2A Si 0.10870(5) 0.17423(5) 0.27344(4)
O1A O 0.54839(13) 0.39866(11) 0.52859(8)
N1A N 0.54586(16) 0.40057(14) 0.75128(10)
N2A N 0.26169(17) 0.47544(15) 0.74181(12)
N3A N 0.30163(16) 0.20712(14) 0.26020(10)
C1A C 0.57173(18) 0.28664(16) 0.56425(12)
C2A C 0.7127(2) 0.26771(18) 0.51255(14)
H1A H 0.6908 0.2470 0.4350
H2A H 0.8082 0.3538 0.5313
H3A H 0.7291 0.1903 0.5385
C3A C 0.4238(2) 0.15088(16) 0.53177(13)
H4A H 0.3994 0.1361 0.4545
H5A H 0.4436 0.0720 0.5518
H6A H 0.3342 0.1580 0.5682
C4A C 0.6196(2) 0.31896(16) 0.68623(12)
H7A H 0.7358 0.3705 0.6971
H8A H 0.5929 0.2291 0.7134
C5A C 0.6445(2) 0.46631(19) 0.85236(13)
H9A H 0.7512 0.5272 0.8373
H10A H 0.5975 0.5218 0.8959
H11A H 0.6502 0.3936 0.8911
C6A C 0.3850(2) 0.30882(17) 0.77445(13)
H12A H 0.3286 0.2457 0.7084
H13A H 0.3933 0.2502 0.8273
C7A C 0.2888(2) 0.39011(18) 0.81735(14)
H14A H 0.3446 0.4522 0.8840
H15A H 0.1852 0.3234 0.8352
C8A C 0.1876(2) 0.5627(2) 0.79829(18)
H16A H 0.1681 0.6205 0.7499
H17A H 0.0872 0.5025 0.8229
H18A H 0.2584 0.6231 0.8597
C9A C 0.1507(2) 0.3851(2) 0.65130(16)
H19A H 0.1341 0.4432 0.6019
H20A H 0.1948 0.3225 0.6142
H21A H 0.0495 0.3296 0.6776
C10A C 0.3987(2) 0.1651(2) 0.04187(14)
H22A H 0.3703 0.0851 -0.0151
H23A H 0.3360 0.2191 0.0294
H24A H 0.5114 0.2246 0.0425
C11A C 0.5403(2) 0.0852(2) 0.22747(14)
H25A H 0.5471 0.0004 0.1902
H26A H 0.6337 0.1671 0.2160
H27A H 0.5356 0.0802 0.3039
C12A C 0.2111(2) -0.08761(18) 0.14139(16)
H28A H 0.2359 -0.1307 0.0750
H29A H 0.2182 -0.1385 0.1993
H30A H 0.1037 -0.0912 0.1329
C13A C -0.0024(3) 0.0176(2) 0.3390(2)
H31A H -0.1047 -0.0376 0.2987
H32A H 0.0592 -0.0398 0.3404
H33A H -0.0195 0.0486 0.4120
C14A C -0.0111(2) 0.1511(2) 0.14465(16)
H34A H -0.1121 0.0704 0.1420
H35A H -0.0309 0.2353 0.1407
H36A H 0.0476 0.1357 0.0844
C15A C 0.0907(2) 0.3251(2) 0.36118(16)
H37A H -0.0214 0.3070 0.3664
H38A H 0.1411 0.3359 0.4324
H39A H 0.1430 0.4110 0.3304
loop_
_geom_bond_atom_site_label_1
_geom_bond_atom_site_label_2
_geom_bond_site_symmetry_1
_geom_bond_site_symmetry_2
Ca1 O1 1_555 1_555
Si1 N3 1_555 1_555
Si2 N3 1_555 1_555
O1 C1 1_555 1_555
N1 C4 1_555 1_555
N2 C7 1_555 1_555
N3 Ca1 1_555 1_555
C1 C2 1_555 1_555
C2 H1 1_555 1_555
H2 C2 1_555 1_555
H3 C2 1_555 1_555
C3 C1 1_555 1_555
H4 C3 1_555 1_555
H5 C3 1_555 1_555
H6 C3 1_555 1_555
C4 C1 1_555 1_555
H7 C4 1_555 1_555
H8 C4 1_555 1_555
C5 N1 1_555 1_555
H9 C5 1_555 1_555
H10 C5 1_555 1_555
H11 C5 1_555 1_555
C6 N1 1_555 1_555
H12 C6 1_555 1_555
H13 C6 1_555 1_555
C7 C6 1_555 1_555
H14 C7 1_555 1_555
H15 C7 1_555 1_555
C8 N2 1_555 1_555
H16 C8 1_555 1_555
H17 C8 1_555 1_555
H18 C8 1_555 1_555
C9 N2 1_555 1_555
H19 C9 1_555 1_555
H20 C9 1_555 1_555
H21 C9 1_555 1_555
C10 Si1 1_555 1_555
H22 C10 1_555 1_555
H23 C10 1_555 1_555
H24 C10 1_555 1_555
C11 Si1 1_555 1_555
H25 C11 1_555 1_555
H26 C11 1_555 1_555
H27 C11 1_555 1_555
C12 Si1 1_555 1_555
H28 C12 1_555 1_555
H29 C12 1_555 1_555
H30 C12 1_555 1_555
C13 Si2 1_555 1_555
H31 C13 1_555 1_555
H32 C13 1_555 1_555
H33 C13 1_555 1_555
C14 Si2 1_555 1_555
H34 C14 1_555 1_555
H35 C14 1_555 1_555
H36 C14 1_555 1_555
C15 Si2 1_555 1_555
H37 C15 1_555 1_555
H38 C15 1_555 1_555
H39 C15 1_555 1_555
Ca1A O1 1_555 1_555
Si1A N3A 1_555 1_555
Si2A N3A 1_555 1_555
O1A Ca1 1_555 1_555
N1A Ca1 1_555 1_555
N2A Ca1 1_555 1_555
N3A Ca1A 1_555 1_555
C1A O1A 1_555 1_555
C2A C1A 1_555 1_555
H1A C2A 1_555 1_555
H2A C2A 1_555 1_555
H3A C2A 1_555 1_555
C3A C1A 1_555 1_555
H4A C3A 1_555 1_555
H5A C3A 1_555 1_555
H6A C3A 1_555 1_555
C4A N1A 1_555 1_555
H7A C4A 1_555 1_555
H8A C4A 1_555 1_555
C5A N1A 1_555 1_555
H9A C5A 1_555 1_555
H10A C5A 1_555 1_555
H11A C5A 1_555 1_555
C6A N1A 1_555 1_555
H12A C6A 1_555 1_555
H13A C6A 1_555 1_555
C7A N2A 1_555 1_555
H14A C7A 1_555 1_555
H15A C7A 1_555 1_555
C8A N2A 1_555 1_555
H16A C8A 1_555 1_555
H17A C8A 1_555 1_555
H18A C8A 1_555 1_555
C9A N2A 1_555 1_555
H19A C9A 1_555 1_555
H20A C9A 1_555 1_555
H21A C9A 1_555 1_555
C10A Si1A 1_555 1_555
H22A C10A 1_555 1_555
H23A C10A 1_555 1_555
H24A C10A 1_555 1_555
C11A Si1A 1_555 1_555
H25A C11A 1_555 1_555
H26A C11A 1_555 1_555
H27A C11A 1_555 1_555
C12A Si1A 1_555 1_555
H28A C12A 1_555 1_555
H29A C12A 1_555 1_555
H30A C12A 1_555 1_555
C13A Si2A 1_555 1_555
H31A C13A 1_555 1_555
H32A C13A 1_555 1_555
H33A C13A 1_555 1_555
C14A Si2A 1_555 1_555
H34A C14A 1_555 1_555
H35A C14A 1_555 1_555
H36A C14A 1_555 1_555
C15A Si2A 1_555 1_555
H37A C15A 1_555 1_555
H38A C15A 1_555 1_555
H39A C15A 1_555 1_555
N1 Ca1A 1_555 1_555
N2 Ca1A 1_555 1_555
Ca1A O1A 1_555 1_555
C1A C4A 1_555 1_555
C6A C7A 1_555 1_555

#END
