
#######################################################################
#
#                 Cambridge Crystallographic Data Centre
#                                CCDC 
#
#######################################################################
#
# If this CIF has been generated from an entry in the Cambridge 
# Structural Database, then it will include bibliographic, chemical, 
# crystal, experimental, refinement or atomic coordinate data resulting 
# from the CCDC's data processing and validation procedures.
#
#######################################################################

data_LOBYAE
_chemical_formula_moiety         'C30 H78 N6 O2 Si4 Sr2'
_chemical_name_systematic        
bis(\m~2~-1-((2-(Dimethylamino)ethyl)(methyl)amino)-2-methylpropan-2-olato)-bis(bis(trimethylsilyl)amide)-di-strontium
_symmetry_cell_setting           triclinic
_symmetry_space_group_name_H-M   'P -1'
_symmetry_Int_Tables_number      2
_space_group_name_Hall           '-P 1'
loop_
_symmetry_equiv_pos_site_id
_symmetry_equiv_pos_as_xyz
1 x,y,z
2 -x,-y,-z
_cell_length_a                   9.2412(1)
_cell_length_b                   10.5555(1)
_cell_length_c                   12.8283(2)
_cell_angle_alpha                97.853(1)
_cell_angle_beta                 90.509(1)
_cell_angle_gamma                111.966(1)
_cell_volume                     1147.17
_exptl_crystal_colour            silver
_exptl_crystal_description       block
_cell_formula_units_Z            1
_chemical_properties_physical    
'Air-sensitive, Moisture-sensitive, Hygroscropic'
loop_
_atom_site_label
_atom_site_type_symbol
_atom_site_fract_x
_atom_site_fract_y
_atom_site_fract_z
Sr1 Sr 0.021417(18) 0.588723(16) 0.142543(12)
Si1 Si 0.14835(6) 0.90843(5) 0.32872(4)
Si2 Si 0.40214(6) 0.83175(6) 0.23047(4)
O1 O 0.05378(15) 0.39628(13) 0.03469(10)
N1 N 0.03718(19) 0.39619(16) 0.25655(12)
N2 N -0.2467(2) 0.47498(17) 0.25401(14)
N3 N 0.21316(18) 0.80700(16) 0.24513(12)
C1 C 0.0723(2) 0.28397(18) 0.07150(14)
C2 C 0.2127(2) 0.2591(2) 0.02223(16)
H1 H 0.1941 0.2383 -0.0547
H2 H 0.2256 0.1811 0.0490
H3 H 0.3077 0.3422 0.0411
C3 C -0.0743(2) 0.15260(19) 0.03856(15)
H4 H -0.0952 0.1383 -0.0381
H5 H -0.1640 0.1628 0.0736
H6 H -0.0573 0.0729 0.0592
C4 C 0.1152(2) 0.31589(19) 0.19244(14)
H7 H 0.0904 0.2270 0.2193
H8 H 0.2297 0.3672 0.2039
C5 C 0.1322(3) 0.4626(2) 0.35631(15)
H9 H 0.1367 0.3914 0.3965
H10 H 0.0849 0.5203 0.3978
H11 H 0.2383 0.5203 0.3410
C6 C -0.1213(2) 0.3060(2) 0.27916(15)
H12 H -0.1126 0.2458 0.3297
H13 H -0.1756 0.2457 0.2131
C7 C -0.2199(2) 0.3855(2) 0.32471(16)
H14 H -0.3224 0.3185 0.3407
H15 H -0.1673 0.4433 0.3920
C8 C -0.3234(3) 0.5593(2) 0.3130(2)
H16 H -0.4142 0.4992 0.3456
H17 H -0.3579 0.6083 0.2647
H18 H -0.2494 0.6264 0.3680
C9 C -0.3512(3) 0.3917(2) 0.16210(18)
H19 H -0.3669 0.4530 0.1161
H20 H -0.4522 0.3347 0.1858
H21 H -0.3042 0.3319 0.1230
C10 C 0.1052(3) 0.8440(2) 0.45920(16)
H22 H 0.1353 0.9229 0.5161
H23 H 0.1646 0.7865 0.4698
H24 H -0.0069 0.7892 0.4596
C11 C -0.0402(2) 0.9096(2) 0.27188(17)
H25 H -0.0562 0.9922 0.3052
H26 H -0.1276 0.8268 0.2852
H27 H -0.0347 0.9103 0.1957
C12 C 0.2823(3) 1.0961(2) 0.36030(18)
H28 H 0.2618 1.1349 0.4298
H29 H 0.2633 1.1471 0.3068
H30 H 0.3913 1.1038 0.3607
C13 C 0.5157(3) 0.9865(3) 0.1677(3)
H31 H 0.6172 1.0367 0.2069
H32 H 0.4573 1.0473 0.1688
H33 H 0.5320 0.9564 0.0946
C14 C 0.5152(3) 0.8463(3) 0.3577(2)
H34 H 0.6170 0.9227 0.3612
H35 H 0.5306 0.7599 0.3605
H36 H 0.4565 0.8639 0.4175
C15 C 0.4156(3) 0.6806(2) 0.13971(18)
H37 H 0.3590 0.5949 0.1678
H38 H 0.5256 0.6926 0.1346
H39 H 0.3693 0.6756 0.0695
Sr1A Sr -0.021417(18) 0.411277(16) -0.142543(12)
Si1A Si -0.14835(6) 0.09157(5) -0.32872(4)
Si2A Si -0.40214(6) 0.16825(6) -0.23047(4)
O1A O -0.05378(15) 0.60372(13) -0.03469(10)
N1A N -0.03718(19) 0.60381(16) -0.25655(12)
N2A N 0.2467(2) 0.52502(17) -0.25401(14)
N3A N -0.21316(18) 0.19300(16) -0.24513(12)
C1A C -0.0723(2) 0.71603(18) -0.07150(14)
C2A C -0.2127(2) 0.7409(2) -0.02223(16)
H1A H -0.1941 0.7617 0.0547
H2A H -0.2256 0.8189 -0.0490
H3A H -0.3077 0.6578 -0.0411
C3A C 0.0743(2) 0.84740(19) -0.03856(15)
H4A H 0.0952 0.8617 0.0381
H5A H 0.1640 0.8372 -0.0736
H6A H 0.0573 0.9271 -0.0592
C4A C -0.1152(2) 0.68411(19) -0.19244(14)
H7A H -0.0904 0.7730 -0.2193
H8A H -0.2297 0.6328 -0.2039
C5A C -0.1322(3) 0.5374(2) -0.35631(15)
H9A H -0.1367 0.6086 -0.3965
H10A H -0.0849 0.4797 -0.3978
H11A H -0.2383 0.4797 -0.3410
C6A C 0.1213(2) 0.6940(2) -0.27916(15)
H12A H 0.1126 0.7542 -0.3297
H13A H 0.1756 0.7543 -0.2131
C7A C 0.2199(2) 0.6145(2) -0.32471(16)
H14A H 0.3224 0.6815 -0.3407
H15A H 0.1673 0.5567 -0.3920
C8A C 0.3234(3) 0.4407(2) -0.3130(2)
H16A H 0.4142 0.5008 -0.3456
H17A H 0.3579 0.3917 -0.2647
H18A H 0.2494 0.3736 -0.3680
C9A C 0.3512(3) 0.6083(2) -0.16210(18)
H19A H 0.3669 0.5470 -0.1161
H20A H 0.4522 0.6653 -0.1858
H21A H 0.3042 0.6681 -0.1230
C10A C -0.1052(3) 0.1560(2) -0.45920(16)
H22A H -0.1353 0.0771 -0.5161
H23A H -0.1646 0.2135 -0.4698
H24A H 0.0069 0.2108 -0.4596
C11A C 0.0402(2) 0.0904(2) -0.27188(17)
H25A H 0.0562 0.0078 -0.3052
H26A H 0.1276 0.1732 -0.2852
H27A H 0.0347 0.0897 -0.1957
C12A C -0.2823(3) -0.0961(2) -0.36030(18)
H28A H -0.2618 -0.1349 -0.4298
H29A H -0.2633 -0.1471 -0.3068
H30A H -0.3913 -0.1038 -0.3607
C13A C -0.5157(3) 0.0135(3) -0.1677(3)
H31A H -0.6172 -0.0367 -0.2069
H32A H -0.4573 -0.0473 -0.1688
H33A H -0.5320 0.0436 -0.0946
C14A C -0.5152(3) 0.1537(3) -0.3577(2)
H34A H -0.6170 0.0773 -0.3612
H35A H -0.5306 0.2401 -0.3605
H36A H -0.4565 0.1361 -0.4175
C15A C -0.4156(3) 0.3194(2) -0.13971(18)
H37A H -0.3590 0.4051 -0.1678
H38A H -0.5256 0.3074 -0.1346
H39A H -0.3693 0.3244 -0.0695
loop_
_geom_bond_atom_site_label_1
_geom_bond_atom_site_label_2
_geom_bond_site_symmetry_1
_geom_bond_site_symmetry_2
Sr1 O1 1_555 1_555
Si1 N3 1_555 1_555
Si2 N3 1_555 1_555
O1 C1 1_555 1_555
N1 Sr1 1_555 1_555
N2 Sr1 1_555 1_555
N3 Sr1 1_555 1_555
C1 C2 1_555 1_555
C2 H1 1_555 1_555
H2 C2 1_555 1_555
H3 C2 1_555 1_555
C3 C1 1_555 1_555
H4 C3 1_555 1_555
H5 C3 1_555 1_555
H6 C3 1_555 1_555
C4 N1 1_555 1_555
H7 C4 1_555 1_555
H8 C4 1_555 1_555
C5 N1 1_555 1_555
H9 C5 1_555 1_555
H10 C5 1_555 1_555
H11 C5 1_555 1_555
C6 N1 1_555 1_555
H12 C6 1_555 1_555
H13 C6 1_555 1_555
C7 N2 1_555 1_555
H14 C7 1_555 1_555
H15 C7 1_555 1_555
C8 N2 1_555 1_555
H16 C8 1_555 1_555
H17 C8 1_555 1_555
H18 C8 1_555 1_555
C9 N2 1_555 1_555
H19 C9 1_555 1_555
H20 C9 1_555 1_555
H21 C9 1_555 1_555
C10 Si1 1_555 1_555
H22 C10 1_555 1_555
H23 C10 1_555 1_555
H24 C10 1_555 1_555
C11 Si1 1_555 1_555
H25 C11 1_555 1_555
H26 C11 1_555 1_555
H27 C11 1_555 1_555
C12 Si1 1_555 1_555
H28 C12 1_555 1_555
H29 C12 1_555 1_555
H30 C12 1_555 1_555
C13 Si2 1_555 1_555
H31 C13 1_555 1_555
H32 C13 1_555 1_555
H33 C13 1_555 1_555
C14 Si2 1_555 1_555
H34 C14 1_555 1_555
H35 C14 1_555 1_555
H36 C14 1_555 1_555
C15 Si2 1_555 1_555
H37 C15 1_555 1_555
H38 C15 1_555 1_555
H39 C15 1_555 1_555
Sr1A O1 1_555 1_555
Si1A N3A 1_555 1_555
Si2A N3A 1_555 1_555
O1A Sr1 1_555 1_555
N1A Sr1A 1_555 1_555
N2A Sr1A 1_555 1_555
N3A Sr1A 1_555 1_555
C1A O1A 1_555 1_555
C2A C1A 1_555 1_555
H1A C2A 1_555 1_555
H2A C2A 1_555 1_555
H3A C2A 1_555 1_555
C3A C1A 1_555 1_555
H4A C3A 1_555 1_555
H5A C3A 1_555 1_555
H6A C3A 1_555 1_555
C4A N1A 1_555 1_555
H7A C4A 1_555 1_555
H8A C4A 1_555 1_555
C5A N1A 1_555 1_555
H9A C5A 1_555 1_555
H10A C5A 1_555 1_555
H11A C5A 1_555 1_555
C6A N1A 1_555 1_555
H12A C6A 1_555 1_555
H13A C6A 1_555 1_555
C7A N2A 1_555 1_555
H14A C7A 1_555 1_555
H15A C7A 1_555 1_555
C8A N2A 1_555 1_555
H16A C8A 1_555 1_555
H17A C8A 1_555 1_555
H18A C8A 1_555 1_555
C9A N2A 1_555 1_555
H19A C9A 1_555 1_555
H20A C9A 1_555 1_555
H21A C9A 1_555 1_555
C10A Si1A 1_555 1_555
H22A C10A 1_555 1_555
H23A C10A 1_555 1_555
H24A C10A 1_555 1_555
C11A Si1A 1_555 1_555
H25A C11A 1_555 1_555
H26A C11A 1_555 1_555
H27A C11A 1_555 1_555
C12A Si1A 1_555 1_555
H28A C12A 1_555 1_555
H29A C12A 1_555 1_555
H30A C12A 1_555 1_555
C13A Si2A 1_555 1_555
H31A C13A 1_555 1_555
H32A C13A 1_555 1_555
H33A C13A 1_555 1_555
C14A Si2A 1_555 1_555
H34A C14A 1_555 1_555
H35A C14A 1_555 1_555
H36A C14A 1_555 1_555
C15A Si2A 1_555 1_555
H37A C15A 1_555 1_555
H38A C15A 1_555 1_555
H39A C15A 1_555 1_555
C1 C4 1_555 1_555
C6 C7 1_555 1_555
Sr1A O1A 1_555 1_555
C1A C4A 1_555 1_555
C6A C7A 1_555 1_555

#END
