
#######################################################################
#
#                 Cambridge Crystallographic Data Centre
#                                CCDC 
#
#######################################################################
#
# If this CIF has been generated from an entry in the Cambridge 
# Structural Database, then it will include bibliographic, chemical, 
# crystal, experimental, refinement or atomic coordinate data resulting 
# from the CCDC's data processing and validation procedures.
#
#######################################################################

data_LOBYEI
_chemical_formula_moiety         'C30 H78 Ba2 N6 O2 Si4'
_chemical_name_systematic        
bis(\m~2~-1-((2-(Dimethylamino)ethyl)(methyl)amino)-2-methylpropan-2-olato)-bis(bis(trimethylsilyl)amide)-di-barium
_symmetry_cell_setting           triclinic
_symmetry_space_group_name_H-M   'P -1'
_symmetry_Int_Tables_number      2
_space_group_name_Hall           '-P 1'
loop_
_symmetry_equiv_pos_site_id
_symmetry_equiv_pos_as_xyz
1 x,y,z
2 -x,-y,-z
_cell_length_a                   9.9496(1)
_cell_length_b                   11.1939(2)
_cell_length_c                   11.9741(2)
_cell_angle_alpha                72.337(1)
_cell_angle_beta                 74.846(1)
_cell_angle_gamma                66.185(1)
_cell_volume                     1147.69
_exptl_crystal_colour            silver
_exptl_crystal_description       block
_cell_formula_units_Z            1
_chemical_properties_physical    
'Air-sensitive, Moisture-sensitive, Hygroscropic'
loop_
_atom_site_label
_atom_site_type_symbol
_atom_site_fract_x
_atom_site_fract_y
_atom_site_fract_z
Ba1 Ba 1.029160(11) 0.129936(10) 0.338719(9)
Si1 Si 0.83943(7) 0.32103(6) 0.07040(5)
Si2 Si 0.68669(6) 0.42189(5) 0.29488(5)
O1 O 1.02008(15) 0.08825(13) 0.56292(12)
N1 N 1.23172(18) 0.21639(16) 0.41117(14)
N2 N 1.34148(18) 0.03339(17) 0.22873(15)
N3 N 0.81940(18) 0.31631(17) 0.21501(15)
C1 C 1.0793(2) 0.14939(18) 0.61417(17)
C2 C 0.9648(2) 0.2867(2) 0.6318(2)
H1 H 0.8725 0.2756 0.6796
H2 H 0.9443 0.3461 0.5543
H3 H 1.0046 0.3258 0.6727
C3 C 1.1170(3) 0.0632(2) 0.73721(18)
H4 H 1.0258 0.0552 0.7899
H5 H 1.1611 0.1057 0.7709
H6 H 1.1879 -0.0261 0.7291
C4 C 1.2300(2) 0.15481(19) 0.53932(17)
H7 H 1.2654 0.2047 0.5737
H8 H 1.3028 0.0620 0.5480
C5 C 1.1899(3) 0.3627(2) 0.3899(2)
H9 H 1.2624 0.3827 0.4162
H10 H 1.0908 0.4004 0.4344
H11 H 1.1888 0.4025 0.3049
C6 C 1.3841(2) 0.1619(2) 0.34648(19)
H12 H 1.4567 0.1530 0.3940
H13 H 1.3963 0.2265 0.2705
C7 C 1.4194(2) 0.0265(2) 0.32061(19)
H14 H 1.5280 -0.0129 0.2949
H15 H 1.3922 -0.0341 0.3948
C8 C 1.3983(3) 0.1030(2) 0.11204(19)
H16 H 1.5050 0.0547 0.0915
H17 H 1.3823 0.1944 0.1149
H18 H 1.3455 0.1064 0.0519
C9 C 1.3669(3) -0.1036(2) 0.2223(2)
H19 H 1.4701 -0.1449 0.1862
H20 H 1.2992 -0.1003 0.1740
H21 H 1.3483 -0.1569 0.3025
C10 C 0.8080(3) 0.4919(3) -0.0317(2)
H22 H 0.7515 0.5026 -0.0922
H23 H 0.9042 0.5011 -0.0703
H24 H 0.7519 0.5608 0.0144
C11 C 1.0354(3) 0.2142(3) 0.0181(2)
H25 H 1.0517 0.2279 -0.0685
H26 H 1.0502 0.1196 0.0546
H27 H 1.1062 0.2395 0.0410
C12 C 0.7140(3) 0.2543(3) 0.0334(2)
H28 H 0.6726 0.3137 -0.0380
H29 H 0.6327 0.2502 0.0999
H30 H 0.7714 0.1642 0.0191
C13 C 0.5023(2) 0.5112(2) 0.2403(2)
H31 H 0.4568 0.6007 0.2574
H32 H 0.4364 0.4600 0.2806
H33 H 0.5175 0.5194 0.1545
C14 C 0.7451(3) 0.5578(2) 0.3065(2)
H34 H 0.6621 0.6435 0.2963
H35 H 0.8302 0.5643 0.2446
H36 H 0.7734 0.5361 0.3848
C15 C 0.6489(2) 0.3244(2) 0.45143(19)
H37 H 0.5478 0.3706 0.4883
H38 H 0.7207 0.3177 0.4976
H39 H 0.6586 0.2343 0.4496
Ba1A Ba 0.970840(11) -0.129936(10) 0.661281(9)
Si1A Si 1.16057(7) -0.32103(6) 0.92960(5)
Si2A Si 1.31331(6) -0.42189(5) 0.70512(5)
O1A O 0.97992(15) -0.08825(13) 0.43708(12)
N1A N 0.76828(18) -0.21639(16) 0.58883(14)
N2A N 0.65852(18) -0.03339(17) 0.77127(15)
N3A N 1.18060(18) -0.31631(17) 0.78499(15)
C1A C 0.9207(2) -0.14939(18) 0.38583(17)
C2A C 1.0352(2) -0.2867(2) 0.3682(2)
H1A H 1.1275 -0.2756 0.3204
H2A H 1.0557 -0.3461 0.4457
H3A H 0.9954 -0.3258 0.3273
C3A C 0.8830(3) -0.0632(2) 0.26279(18)
H4A H 0.9742 -0.0552 0.2101
H5A H 0.8389 -0.1057 0.2291
H6A H 0.8121 0.0261 0.2709
C4A C 0.7700(2) -0.15481(19) 0.46068(17)
H7A H 0.7346 -0.2047 0.4263
H8A H 0.6972 -0.0620 0.4520
C5A C 0.8101(3) -0.3627(2) 0.6101(2)
H9A H 0.7376 -0.3827 0.5838
H10A H 0.9092 -0.4004 0.5656
H11A H 0.8112 -0.4025 0.6951
C6A C 0.6159(2) -0.1619(2) 0.65352(19)
H12A H 0.5433 -0.1530 0.6060
H13A H 0.6037 -0.2265 0.7295
C7A C 0.5806(2) -0.0265(2) 0.67939(19)
H14A H 0.4720 0.0129 0.7051
H15A H 0.6078 0.0341 0.6052
C8A C 0.6017(3) -0.1030(2) 0.88796(19)
H16A H 0.4950 -0.0547 0.9085
H17A H 0.6177 -0.1944 0.8851
H18A H 0.6545 -0.1064 0.9481
C9A C 0.6331(3) 0.1036(2) 0.7777(2)
H19A H 0.5299 0.1449 0.8138
H20A H 0.7008 0.1003 0.8260
H21A H 0.6517 0.1569 0.6975
C10A C 1.1920(3) -0.4919(3) 1.0317(2)
H22A H 1.2485 -0.5026 1.0922
H23A H 1.0958 -0.5011 1.0703
H24A H 1.2481 -0.5608 0.9856
C11A C 0.9646(3) -0.2142(3) 0.9819(2)
H25A H 0.9483 -0.2279 1.0685
H26A H 0.9498 -0.1196 0.9454
H27A H 0.8938 -0.2395 0.9590
C12A C 1.2860(3) -0.2543(3) 0.9666(2)
H28A H 1.3274 -0.3137 1.0380
H29A H 1.3673 -0.2502 0.9001
H30A H 1.2286 -0.1642 0.9809
C13A C 1.4977(2) -0.5112(2) 0.7597(2)
H31A H 1.5432 -0.6007 0.7426
H32A H 1.5636 -0.4600 0.7194
H33A H 1.4825 -0.5194 0.8455
C14A C 1.2549(3) -0.5578(2) 0.6935(2)
H34A H 1.3379 -0.6435 0.7037
H35A H 1.1698 -0.5643 0.7554
H36A H 1.2266 -0.5361 0.6152
C15A C 1.3511(2) -0.3244(2) 0.54857(19)
H37A H 1.4522 -0.3706 0.5117
H38A H 1.2793 -0.3177 0.5024
H39A H 1.3414 -0.2343 0.5504
loop_
_geom_bond_atom_site_label_1
_geom_bond_atom_site_label_2
_geom_bond_site_symmetry_1
_geom_bond_site_symmetry_2
Ba1 O1 1_555 1_555
Si1 N3 1_555 1_555
Si2 N3 1_555 1_555
O1 C1 1_555 1_555
N1 Ba1 1_555 1_555
N2 Ba1 1_555 1_555
N3 Ba1 1_555 1_555
C1 C2 1_555 1_555
C2 H1 1_555 1_555
H2 C2 1_555 1_555
H3 C2 1_555 1_555
C3 C1 1_555 1_555
H4 C3 1_555 1_555
H5 C3 1_555 1_555
H6 C3 1_555 1_555
C4 N1 1_555 1_555
H7 C4 1_555 1_555
H8 C4 1_555 1_555
C5 N1 1_555 1_555
H9 C5 1_555 1_555
H10 C5 1_555 1_555
H11 C5 1_555 1_555
C6 N1 1_555 1_555
H12 C6 1_555 1_555
H13 C6 1_555 1_555
C7 N2 1_555 1_555
H14 C7 1_555 1_555
H15 C7 1_555 1_555
C8 N2 1_555 1_555
H16 C8 1_555 1_555
H17 C8 1_555 1_555
H18 C8 1_555 1_555
C9 N2 1_555 1_555
H19 C9 1_555 1_555
H20 C9 1_555 1_555
H21 C9 1_555 1_555
C10 Si1 1_555 1_555
H22 C10 1_555 1_555
H23 C10 1_555 1_555
H24 C10 1_555 1_555
C11 Si1 1_555 1_555
H25 C11 1_555 1_555
H26 C11 1_555 1_555
H27 C11 1_555 1_555
C12 Si1 1_555 1_555
H28 C12 1_555 1_555
H29 C12 1_555 1_555
H30 C12 1_555 1_555
C13 Si2 1_555 1_555
H31 C13 1_555 1_555
H32 C13 1_555 1_555
H33 C13 1_555 1_555
C14 Si2 1_555 1_555
H34 C14 1_555 1_555
H35 C14 1_555 1_555
H36 C14 1_555 1_555
C15 Si2 1_555 1_555
H37 C15 1_555 1_555
H38 C15 1_555 1_555
H39 C15 1_555 1_555
Ba1A O1 1_555 1_555
Si1A N3A 1_555 1_555
Si2A N3A 1_555 1_555
O1A Ba1 1_555 1_555
N1A Ba1A 1_555 1_555
N2A Ba1A 1_555 1_555
N3A Ba1A 1_555 1_555
C1A O1A 1_555 1_555
C2A C1A 1_555 1_555
H1A C2A 1_555 1_555
H2A C2A 1_555 1_555
H3A C2A 1_555 1_555
C3A C1A 1_555 1_555
H4A C3A 1_555 1_555
H5A C3A 1_555 1_555
H6A C3A 1_555 1_555
C4A N1A 1_555 1_555
H7A C4A 1_555 1_555
H8A C4A 1_555 1_555
C5A N1A 1_555 1_555
H9A C5A 1_555 1_555
H10A C5A 1_555 1_555
H11A C5A 1_555 1_555
C6A N1A 1_555 1_555
H12A C6A 1_555 1_555
H13A C6A 1_555 1_555
C7A N2A 1_555 1_555
H14A C7A 1_555 1_555
H15A C7A 1_555 1_555
C8A N2A 1_555 1_555
H16A C8A 1_555 1_555
H17A C8A 1_555 1_555
H18A C8A 1_555 1_555
C9A N2A 1_555 1_555
H19A C9A 1_555 1_555
H20A C9A 1_555 1_555
H21A C9A 1_555 1_555
C10A Si1A 1_555 1_555
H22A C10A 1_555 1_555
H23A C10A 1_555 1_555
H24A C10A 1_555 1_555
C11A Si1A 1_555 1_555
H25A C11A 1_555 1_555
H26A C11A 1_555 1_555
H27A C11A 1_555 1_555
C12A Si1A 1_555 1_555
H28A C12A 1_555 1_555
H29A C12A 1_555 1_555
H30A C12A 1_555 1_555
C13A Si2A 1_555 1_555
H31A C13A 1_555 1_555
H32A C13A 1_555 1_555
H33A C13A 1_555 1_555
C14A Si2A 1_555 1_555
H34A C14A 1_555 1_555
H35A C14A 1_555 1_555
H36A C14A 1_555 1_555
C15A Si2A 1_555 1_555
H37A C15A 1_555 1_555
H38A C15A 1_555 1_555
H39A C15A 1_555 1_555
C1 C4 1_555 1_555
C6 C7 1_555 1_555
Ba1A O1A 1_555 1_555
C1A C4A 1_555 1_555
C6A C7A 1_555 1_555

#END
