
#######################################################################
#
#                 Cambridge Crystallographic Data Centre
#                                CCDC 
#
#######################################################################
#
# If this CIF has been generated from an entry in the Cambridge 
# Structural Database, then it will include bibliographic, chemical, 
# crystal, experimental, refinement or atomic coordinate data resulting 
# from the CCDC's data processing and validation procedures.
#
#######################################################################

data_LOCHEQ
_chemical_formula_moiety         'C10 H24 N4 2+,2(C6 N4 1-),C2 H3 N1'
_chemical_name_systematic        
'tetrakis(Dimethylamino)ethylene bis(tetracyanoethanide radical) acetonitrile solvate'
_symmetry_cell_setting           orthorhombic
_symmetry_space_group_name_H-M   'I 2 2 2'
_symmetry_Int_Tables_number      23
_space_group_name_Hall           'I 2 2'
loop_
_symmetry_equiv_pos_site_id
_symmetry_equiv_pos_as_xyz
1 x,y,z
2 1/2+x,1/2+y,1/2+z
3 x,-y,-z
4 1/2+x,1/2-y,1/2-z
5 -x,y,-z
6 1/2-x,1/2+y,1/2-z
7 -x,-y,z
8 1/2-x,1/2-y,1/2+z
_cell_length_a                   10.2332(15)
_cell_length_b                   13.341(6)
_cell_length_c                   19.907(8)
_cell_angle_alpha                90
_cell_angle_beta                 90
_cell_angle_gamma                90
_cell_volume                     2717.73
_exptl_crystal_colour            violet
_exptl_crystal_description       needle
_cell_formula_units_Z            4
loop_
_atom_site_label
_atom_site_type_symbol
_atom_site_fract_x
_atom_site_fract_y
_atom_site_fract_z
C4 C 0.0484(4) 0.4571(4) 0.19464(19)
C5 C 0.1793(5) 0.5566(5) 0.2742(2)
C6 C 0.2762(5) 0.4100(5) 0.2159(3)
C7 C -0.0816(5) 0.3730(5) 0.1100(3)
C8 C 0.0586(7) 0.2730(5) 0.1872(4)
N2 N 0.1598(3) 0.4732(3) 0.22601(16)
N3 N 0.0124(4) 0.3720(3) 0.16593(18)
H1 H 0.2661 0.5547 0.2910
H2 H 0.1648 0.6187 0.2519
H3 H 0.1194 0.5500 0.3103
H4 H 0.3457 0.4342 0.2431
H5 H 0.3015 0.4123 0.1700
H6 H 0.2566 0.3428 0.2281
H7 H -0.0968 0.3064 0.0953
H8 H -0.1614 0.4019 0.1247
H9 H -0.0470 0.4115 0.0740
H10 H 0.0201 0.2229 0.1596
H11 H 0.0345 0.2618 0.2327
H12 H 0.1510 0.2700 0.1831
C4F C -0.0484(4) 0.5429(4) 0.19464(19)
N2F N -0.1598(3) 0.5268(3) 0.22601(16)
C5F C -0.1793(5) 0.4434(5) 0.2742(2)
H1F H -0.2661 0.4453 0.2910
H2F H -0.1648 0.3813 0.2519
H3F H -0.1194 0.4500 0.3103
C6F C -0.2762(5) 0.5900(5) 0.2159(3)
H4F H -0.3457 0.5658 0.2431
H5F H -0.3015 0.5877 0.1700
H6F H -0.2566 0.6572 0.2281
N3F N -0.0124(4) 0.6280(3) 0.16593(18)
C7F C 0.0816(5) 0.6270(5) 0.1100(3)
H7F H 0.0968 0.6936 0.0953
H8F H 0.1614 0.5981 0.1247
H9F H 0.0470 0.5885 0.0740
C8F C -0.0586(7) 0.7270(5) 0.1872(4)
H10F H -0.0201 0.7771 0.1596
H11F H -0.0345 0.7382 0.2327
H12F H -0.1510 0.7300 0.1831
C9 C 0.5651(6) 0.1476(4) 0.0113(2)
C10 C 0.5946(7) 0.1409(5) 0.0806(3)
C11 C 0.6687(7) 0.1422(6) -0.0350(3)
N5 N 0.6181(9) 0.1368(7) 0.1371(3)
N6 N 0.7533(7) 0.1381(7) -0.0726(4)
C9D C 0.4349(6) 0.1476(4) -0.0113(2)
C10D C 0.4054(7) 0.1409(5) -0.0806(3)
N5D N 0.3819(9) 0.1368(7) -0.1371(3)
C11D C 0.3313(7) 0.1422(6) 0.0350(3)
N6D N 0.2467(7) 0.1381(7) 0.0726(4)
C1 C 0.0592(4) 0.1334(4) 0.4827(2)
C2 C 0.0657(4) 0.1293(4) 0.4118(2)
C3 C 0.1794(5) 0.1239(4) 0.5185(2)
N1 N 0.2756(5) 0.1139(5) 0.5476(2)
N4 N 0.0715(5) 0.1266(5) 0.3544(2)
C1D C -0.0592(4) 0.1334(4) 0.5173(2)
C2D C -0.0657(4) 0.1293(4) 0.5882(2)
N4D N -0.0715(5) 0.1266(5) 0.6456(2)
C3D C -0.1794(5) 0.1239(4) 0.4815(2)
N1D N -0.2756(5) 0.1139(5) 0.4524(2)
C12? C 1.0000 0.0000 0.1052(14)
C13? C 1.0000 0.0000 0.031(2)
N7? N 1.0000 0.0000 0.1593(12)
loop_
_geom_bond_atom_site_label_1
_geom_bond_atom_site_label_2
_geom_bond_site_symmetry_1
_geom_bond_site_symmetry_2
C1 C2 1_555 1_555
C2 N4 1_555 1_555
C3 C1 1_555 1_555
C4 N2 1_555 1_555
C5 N2 1_555 1_555
C6 N2 1_555 1_555
C7 N3 1_555 1_555
C8 N3 1_555 1_555
C9 C10 1_555 1_555
C10 N5 1_555 1_555
C11 C9 1_555 1_555
N1 C3 1_555 1_555
N3 C4 1_555 1_555
N6 C11 1_555 1_555
H1 C5 1_555 1_555
H2 C5 1_555 1_555
H3 C5 1_555 1_555
H4 C6 1_555 1_555
H5 C6 1_555 1_555
H6 C6 1_555 1_555
H7 C7 1_555 1_555
H8 C7 1_555 1_555
H9 C7 1_555 1_555
H10 C8 1_555 1_555
H11 C8 1_555 1_555
H12 C8 1_555 1_555
C1D C1 1_555 1_555
C2D C1D 1_555 1_555
N4D C2D 1_555 1_555
C3D C1D 1_555 1_555
N1D C3D 1_555 1_555
C4F C4 1_555 1_555
N2F C4F 1_555 1_555
C5F N2F 1_555 1_555
H1F C5F 1_555 1_555
H2F C5F 1_555 1_555
H3F C5F 1_555 1_555
C6F N2F 1_555 1_555
H4F C6F 1_555 1_555
H5F C6F 1_555 1_555
H6F C6F 1_555 1_555
N3F C4F 1_555 1_555
C7F N3F 1_555 1_555
H7F C7F 1_555 1_555
H8F C7F 1_555 1_555
H9F C7F 1_555 1_555
C8F N3F 1_555 1_555
H10F C8F 1_555 1_555
H11F C8F 1_555 1_555
H12F C8F 1_555 1_555
C9D C9 1_555 1_555
C10D C9D 1_555 1_555
N5D C10D 1_555 1_555
C11D C9D 1_555 1_555
N6D C11D 1_555 1_555

#END
