
#######################################################################
#
#                 Cambridge Crystallographic Data Centre
#                                CCDC 
#
#######################################################################
#
# If this CIF has been generated from an entry in the Cambridge 
# Structural Database, then it will include bibliographic, chemical, 
# crystal, experimental, refinement or atomic coordinate data resulting 
# from the CCDC's data processing and validation procedures.
#
#######################################################################

data_LOCNEX
_chemical_name_common            'milrinone hydrate'
_chemical_formula_moiety         'C12 H9 N3 O1,0.25(H2 O1)'
_chemical_name_systematic        
"5-Cyano-2-methyl-3,4'-bipyridin-6(1H)-one hydrate"
_symmetry_cell_setting           monoclinic
_symmetry_space_group_name_H-M   'P 21/c'
_symmetry_Int_Tables_number      14
_space_group_name_Hall           '-P 2ybc'
loop_
_symmetry_equiv_pos_site_id
_symmetry_equiv_pos_as_xyz
1 x,y,z
2 -x,1/2+y,1/2-z
3 -x,-y,-z
4 x,1/2-y,1/2+z
_cell_length_a                   7.051(2)
_cell_length_b                   9.977(3)
_cell_length_c                   15.661(5)
_cell_angle_alpha                90
_cell_angle_beta                 100.666(5)
_cell_angle_gamma                90
_cell_volume                     1082.68
_exptl_crystal_colour            yellow
_exptl_crystal_description       cube
_cell_formula_units_Z            4
_exptl_crystal_preparation       photoluminescent
loop_
_atom_site_label
_atom_site_type_symbol
_atom_site_fract_x
_atom_site_fract_y
_atom_site_fract_z
O1 O 0.1560(3) 0.63837(19) 0.49914(13)
N1 N 0.2205(3) 0.4386(2) 0.56798(15)
H1 H 0.1042 0.4138 0.5473
C1 C 0.2705(4) 0.5654(3) 0.54756(18)
C2 C 0.5838(4) 0.5113(3) 0.63515(18)
H2 H 0.7094 0.5370 0.6587
C3 C 0.6644(4) 0.2863(3) 0.7002(2)
C4 C 0.5241(4) 0.3809(3) 0.65029(18)
C5 C 0.4640(4) 0.6024(3) 0.58699(18)
C6 C 0.3348(4) 0.3479(3) 0.61744(19)
N2 N 0.9483(4) 0.1152(3) 0.79186(19)
C7 C 0.6861(4) 0.1565(3) 0.6737(2)
H3 H 0.6067 0.1237 0.6240
C8 C 0.2364(5) 0.2196(3) 0.6324(3)
H4 H 0.1054 0.2217 0.6016
H5 H 0.2376 0.2088 0.6934
H6 H 0.3030 0.1458 0.6118
C9 C 0.7883(4) 0.3273(3) 0.7746(2)
H7 H 0.7788 0.4135 0.7961
C10 C 0.9259(5) 0.2401(3) 0.8169(2)
H8 H 1.0084 0.2709 0.8663
C11 C 0.8253(5) 0.0755(3) 0.7206(2)
H9 H 0.8347 -0.0122 0.7018
C12 C 0.5288(4) 0.7350(3) 0.5733(2)
N3 N 0.5838(5) 0.8389(3) 0.5642(2)
O2 O 0.1287(18) 0.9558(11) 0.5023(8)
loop_
_geom_bond_atom_site_label_1
_geom_bond_atom_site_label_2
_geom_bond_site_symmetry_1
_geom_bond_site_symmetry_2
O1 C1 1_555 1_555
N1 H1 1_555 1_555
C1 N1 1_555 1_555
C2 H2 1_555 1_555
C3 C4 1_555 1_555
C4 C2 1_555 1_555
C5 C1 1_555 1_555
C6 N1 1_555 1_555
N2 C10 1_555 1_555
C7 C3 1_555 1_555
H3 C7 1_555 1_555
C8 C6 1_555 1_555
H4 C8 1_555 1_555
H5 C8 1_555 1_555
H6 C8 1_555 1_555
C9 C3 1_555 1_555
H7 C9 1_555 1_555
C10 C9 1_555 1_555
H8 C10 1_555 1_555
C11 N2 1_555 1_555
H9 C11 1_555 1_555
C12 C5 1_555 1_555
N3 C12 1_555 1_555
C2 C5 1_555 1_555
C4 C6 1_555 1_555
C7 C11 1_555 1_555

#END
