
#######################################################################
#
#                 Cambridge Crystallographic Data Centre
#                                CCDC 
#
#######################################################################
#
# If this CIF has been generated from an entry in the Cambridge 
# Structural Database, then it will include bibliographic, chemical, 
# crystal, experimental, refinement or atomic coordinate data resulting 
# from the CCDC's data processing and validation procedures.
#
#######################################################################

data_LOCQOK
_chemical_formula_moiety         'C11 H15 N2 O2 S1'
_chemical_name_systematic        
4,4,5,5-Tetramethyl-2-(2-thienyl)imidazoline-1-oxyl-3-oxide
_symmetry_cell_setting           monoclinic
_symmetry_space_group_name_H-M   'C 2/c'
_symmetry_Int_Tables_number      15
_space_group_name_Hall           '-C 2yn'
loop_
_symmetry_equiv_pos_site_id
_symmetry_equiv_pos_as_xyz
1 x,y,z
2 1/2+x,1/2+y,z
3 -x,y,1/2-z
4 1/2-x,1/2+y,1/2-z
5 -x,-y,-z
6 1/2-x,1/2-y,-z
7 x,-y,1/2+z
8 1/2+x,1/2-y,1/2+z
_cell_length_a                   23.778(5)
_cell_length_b                   8.4354(18)
_cell_length_c                   12.308(3)
_cell_angle_alpha                90
_cell_angle_beta                 103.446(4)
_cell_angle_gamma                90
_cell_volume                     2401.03
_cell_formula_units_Z            8
_exptl_crystal_preparation       'magnetic properties'
loop_
_atom_site_label
_atom_site_type_symbol
_atom_site_fract_x
_atom_site_fract_y
_atom_site_fract_z
S1 S 0.05746(8) 0.0620(2) 0.6064(2)
O1 O 0.21615(16) 0.3878(5) 0.6546(3)
O2 O 0.04080(15) 0.2676(4) 0.4169(3)
N1 N 0.17168(16) 0.3958(5) 0.5723(3)
N2 N 0.08898(16) 0.3366(4) 0.4591(3)
C1 C 0.0809(3) -0.0487(8) 0.7123(7)
H1 H 0.0575 -0.1246 0.7345
C2 C 0.1356(3) -0.0271(7) 0.7675(6)
H2 H 0.1523 -0.0900 0.8285
C3 C 0.17043(14) 0.1062(3) 0.7264(2)
H3 H 0.2080 0.1425 0.7535
C4 C 0.12028(19) 0.1613(5) 0.6219(4)
C5 C 0.12675(19) 0.2919(5) 0.5522(4)
C6 C 0.16727(19) 0.5158(6) 0.4825(4)
C7 C 0.1037(2) 0.4954(5) 0.4155(4)
C8 C 0.1804(3) 0.6785(6) 0.5355(5)
H4 H 0.1577 0.6948 0.5895
H5 H 0.1712 0.7585 0.4787
H6 H 0.2208 0.6848 0.5717
C9 C 0.2132(2) 0.4714(7) 0.4196(5)
H7 H 0.2493 0.4522 0.4720
H8 H 0.2178 0.5567 0.3708
H9 H 0.2014 0.3774 0.3764
C10 C 0.0610(3) 0.6121(7) 0.4449(6)
H10 H 0.0223 0.5781 0.4117
H11 H 0.0674 0.7152 0.4170
H12 H 0.0664 0.6169 0.5246
C11 C 0.0945(3) 0.4821(7) 0.2884(4)
H13 H 0.1278 0.4335 0.2708
H14 H 0.0891 0.5860 0.2558
H15 H 0.0609 0.4185 0.2591
loop_
_geom_bond_atom_site_label_1
_geom_bond_atom_site_label_2
_geom_bond_site_symmetry_1
_geom_bond_site_symmetry_2
S1 C1 1_555 1_555
O1 N1 1_555 1_555
O2 N2 1_555 1_555
N1 C5 1_555 1_555
N2 C5 1_555 1_555
C1 H1 1_555 1_555
C2 C1 1_555 1_555
H2 C2 1_555 1_555
C3 C2 1_555 1_555
H3 C3 1_555 1_555
C4 S1 1_555 1_555
C5 C4 1_555 1_555
C6 N1 1_555 1_555
C7 N2 1_555 1_555
C8 C6 1_555 1_555
H4 C8 1_555 1_555
H5 C8 1_555 1_555
H6 C8 1_555 1_555
C9 C6 1_555 1_555
H7 C9 1_555 1_555
H8 C9 1_555 1_555
H9 C9 1_555 1_555
C10 C7 1_555 1_555
H10 C10 1_555 1_555
H11 C10 1_555 1_555
H12 C10 1_555 1_555
C11 C7 1_555 1_555
H13 C11 1_555 1_555
H14 C11 1_555 1_555
H15 C11 1_555 1_555
C3 C4 1_555 1_555
C6 C7 1_555 1_555

#END
