
#######################################################################
#
#                 Cambridge Crystallographic Data Centre
#                                CCDC 
#
#######################################################################
#
# If this CIF has been generated from an entry in the Cambridge 
# Structural Database, then it will include bibliographic, chemical, 
# crystal, experimental, refinement or atomic coordinate data resulting 
# from the CCDC's data processing and validation procedures.
#
#######################################################################

data_LOCQAX
_chemical_formula_moiety         'C30 H19 N3'
_chemical_name_systematic        1,2-bis(quinolin-2-yl)pyrrolo[1,2-a]quinoline
_symmetry_cell_setting           monoclinic
_symmetry_space_group_name_H-M   'P 21/c'
_symmetry_Int_Tables_number      14
_space_group_name_Hall           '-P 2ybc'
loop_
_symmetry_equiv_pos_site_id
_symmetry_equiv_pos_as_xyz
1 x,y,z
2 -x,1/2+y,1/2-z
3 -x,-y,-z
4 x,1/2-y,1/2+z
_cell_length_a                   15.0399(13)
_cell_length_b                   6.2472(6)
_cell_length_c                   22.3520(19)
_cell_angle_alpha                90
_cell_angle_beta                 92.984(2)
_cell_angle_gamma                90
_cell_volume                     2097.29
_exptl_crystal_colour            'pale yellow'
_cell_formula_units_Z            4
loop_
_atom_site_label
_atom_site_type_symbol
_atom_site_fract_x
_atom_site_fract_y
_atom_site_fract_z
N1 N 0.79517(12) 0.9490(3) 0.13697(9)
N2 N 0.55128(13) 0.9736(3) 0.14462(9)
N3 N 0.76929(13) 1.0707(3) 0.26952(8)
C1 C 0.87605(17) 0.5746(4) -0.00495(11)
H1 H 0.8953 0.4920 -0.0375
C2 C 0.81832(15) 0.4880(4) 0.03338(11)
H2 H 0.7980 0.3452 0.0274
C3 C 0.78837(14) 0.6081(4) 0.08197(10)
C4 C 0.82021(15) 0.8195(4) 0.09052(10)
C5 C 0.73741(15) 0.8685(4) 0.17336(10)
C6 C 0.71168(15) 1.0122(4) 0.22257(10)
C7 C 0.63545(15) 1.1365(4) 0.22569(10)
C8 C 0.55836(15) 1.1360(4) 0.18182(11)
C9 C 0.48345(15) 0.9731(4) 0.10130(11)
C10 C 0.47695(17) 0.7974(4) 0.06155(12)
H3 H 0.5177 0.6816 0.0664
C11 C 0.41220(18) 0.7930(4) 0.01604(13)
H4 H 0.4082 0.6744 -0.0106
C12 C 0.35179(18) 0.9639(5) 0.00877(13)
H5 H 0.3084 0.9620 -0.0237
C13 C 0.88038(16) 0.9048(4) 0.05033(11)
H6 H 0.9024 1.0463 0.0559
C14 C 0.90721(16) 0.7843(4) 0.00331(11)
H7 H 0.9471 0.8434 -0.0238
C15 C 0.70110(16) 0.6582(4) 0.16720(11)
H8 H 0.6583 0.6093 0.1939
C16 C 0.72812(15) 0.5286(4) 0.12296(11)
H9 H 0.7067 0.3858 0.1196
C17 C 0.73187(16) 1.2389(4) 0.30173(10)
C18 C 0.78182(17) 1.3396(4) 0.34860(11)
H10 H 0.7564 1.4532 0.3702
C19 C 0.86509(17) 1.2758(4) 0.36276(11)
H11 H 0.9004 1.3538 0.3917
C20 C 0.90222(16) 1.0906(4) 0.33486(10)
C21 C 0.85279(15) 0.9792(4) 0.28977(10)
C22 C 0.88453(15) 0.7856(4) 0.26883(10)
H12 H 0.8498 0.7063 0.2398
C23 C 0.96589(16) 0.7084(4) 0.28984(11)
H13 H 0.9868 0.5756 0.2753
C24 C 1.01815(16) 0.8227(4) 0.33222(11)
H14 H 1.0753 0.7714 0.3454
C25 C 0.98596(15) 1.0098(4) 0.35452(10)
H15 H 1.0210 1.0867 0.3839
C26 C 0.64819(17) 1.2764(4) 0.27514(11)
H16 H 0.6064 1.3787 0.2879
C27 C 0.49657(16) 1.3057(4) 0.18069(12)
H17 H 0.5026 1.4174 0.2094
C28 C 0.42777(16) 1.3092(4) 0.13808(13)
H18 H 0.3857 1.4227 0.1371
C29 C 0.42010(15) 1.1399(4) 0.09506(12)
C30 C 0.35462(17) 1.1311(5) 0.04732(13)
H19 H 0.3123 1.2434 0.0423
loop_
_geom_bond_atom_site_label_1
_geom_bond_atom_site_label_2
_geom_bond_site_symmetry_1
_geom_bond_site_symmetry_2
N1 C4 1_555 1_555
N2 C8 1_555 1_555
N3 C6 1_555 1_555
C1 H1 1_555 1_555
C2 C1 1_555 1_555
H2 C2 1_555 1_555
C3 C2 1_555 1_555
C4 C3 1_555 1_555
C5 N1 1_555 1_555
C6 C5 1_555 1_555
C7 C6 1_555 1_555
C8 C7 1_555 1_555
C9 N2 1_555 1_555
C10 C9 1_555 1_555
H3 C10 1_555 1_555
C11 C10 1_555 1_555
H4 C11 1_555 1_555
C12 C11 1_555 1_555
H5 C12 1_555 1_555
C13 C4 1_555 1_555
H6 C13 1_555 1_555
C14 C1 1_555 1_555
H7 C14 1_555 1_555
C15 C5 1_555 1_555
H8 C15 1_555 1_555
C16 C3 1_555 1_555
H9 C16 1_555 1_555
C17 N3 1_555 1_555
C18 C17 1_555 1_555
H10 C18 1_555 1_555
C19 C18 1_555 1_555
H11 C19 1_555 1_555
C20 C19 1_555 1_555
C21 N3 1_555 1_555
C22 C21 1_555 1_555
H12 C22 1_555 1_555
C23 C22 1_555 1_555
H13 C23 1_555 1_555
C24 C23 1_555 1_555
H14 C24 1_555 1_555
C25 C20 1_555 1_555
H15 C25 1_555 1_555
C26 C7 1_555 1_555
H16 C26 1_555 1_555
C27 C8 1_555 1_555
H17 C27 1_555 1_555
C28 C27 1_555 1_555
H18 C28 1_555 1_555
C29 C9 1_555 1_555
C30 C12 1_555 1_555
H19 C30 1_555 1_555
C13 C14 1_555 1_555
C15 C16 1_555 1_555
C17 C26 1_555 1_555
C20 C21 1_555 1_555
C24 C25 1_555 1_555
C28 C29 1_555 1_555
C29 C30 1_555 1_555

#END
