
#######################################################################
#
#                 Cambridge Crystallographic Data Centre
#                                CCDC 
#
#######################################################################
#
# If this CIF has been generated from an entry in the Cambridge 
# Structural Database, then it will include bibliographic, chemical, 
# crystal, experimental, refinement or atomic coordinate data resulting 
# from the CCDC's data processing and validation procedures.
#
#######################################################################

data_LOCVOO
_chemical_formula_moiety         'C14 H14 N2,C14 H8 N4'
_chemical_name_systematic        
'5,10-Dihydro-5,10-dimethylphenazine 2,5-dimethyl-7,7,8,8-tetracyano-p-quinodimethane'
_symmetry_cell_setting           monoclinic
_symmetry_space_group_name_H-M   'P 21'
_symmetry_Int_Tables_number      4
_space_group_name_Hall           'P 2yb'
loop_
_symmetry_equiv_pos_site_id
_symmetry_equiv_pos_as_xyz
1 x,y,z
2 -x,1/2+y,-z
_cell_length_a                   6.913(4)
_cell_length_b                   8.898(6)
_cell_length_c                   17.661(4)
_cell_angle_alpha                90
_cell_angle_beta                 93.32(3)
_cell_angle_gamma                90
_cell_volume                     1084.54
_exptl_crystal_colour            black
_exptl_crystal_description       rod
_cell_formula_units_Z            2
_exptl_crystal_recrystallization_method acetonitrile
loop_
_atom_site_label
_atom_site_type_symbol
_atom_site_fract_x
_atom_site_fract_y
_atom_site_fract_z
C1 C 0.5295(8) 0.1855(7) 0.7962(3)
C2 C 0.582(1) 0.0578(8) 0.8371(4)
C3 C 0.6521(10) 0.0631(8) 0.9109(3)
C4 C 0.671(1) 0.2003(8) 0.9444(4)
C5 C 0.640(1) 0.3330(9) 0.9041(4)
C6 C 0.560(1) 0.3266(8) 0.8311(4)
N1 N 0.5170(8) 0.4570(7) 0.7886(3)
C7 C 0.5914(10) 0.6126(8) 0.8127(4)
C8 C 0.445(1) 0.4494(7) 0.7125(3)
C9 C 0.415(1) 0.5802(9) 0.6685(4)
C10 C 0.351(1) 0.5659(10) 0.5915(4)
C11 C 0.3201(9) 0.4288(7) 0.5569(4)
C12 C 0.3687(10) 0.2991(8) 0.5984(3)
C13 C 0.4230(8) 0.3072(6) 0.6767(3)
N2 N 0.4503(8) 0.1760(7) 0.7212(3)
C14 C 0.4686(10) 0.0287(8) 0.6767(4)
N3 N 1.0824(10) -0.1642(8) 0.8418(4)
C15 C 1.100(1) -0.0379(9) 0.8585(5)
N4 N 1.2216(8) 0.1707(8) 1.0092(3)
C16 C 1.1701(9) 0.1598(9) 0.9479(3)
C17 C 1.0946(9) 0.1226(7) 0.8730(3)
C18 C 1.0494(10) 0.2241(7) 0.8134(3)
C19 C 0.9774(9) 0.1696(9) 0.7404(3)
C20 C 0.9423(10) 0.2515(7) 0.6756(3)
C21 C 0.8717(10) 0.1776(9) 0.6027(4)
N5 N 0.8744(9) 0.8004(8) 0.6561(4)
C22 C 0.8966(8) 0.6751(7) 0.6469(3)
N6 N 0.773(1) 0.4645(10) 0.4925(4)
C23 C 0.827(1) 0.4866(9) 0.5539(3)
C24 C 0.8800(9) 0.5179(7) 0.6317(3)
C25 C 0.9441(9) 0.4140(7) 0.6873(3)
C26 C 0.9973(8) 0.4754(7) 0.7621(3)
C27 C 1.0576(10) 0.3854(7) 0.8206(3)
C28 C 1.1047(9) 0.4577(8) 0.8971(3)
loop_
_geom_bond_atom_site_label_1
_geom_bond_atom_site_label_2
_geom_bond_site_symmetry_1
_geom_bond_site_symmetry_2
C1 C2 1_555 1_555
C2 C3 1_555 1_555
C3 C4 1_555 1_555
C4 C5 1_555 1_555
C5 C6 1_555 1_555
C6 C1 1_555 1_555
N1 C6 1_555 1_555
C7 N1 1_555 1_555
C8 N1 1_555 1_555
C9 C8 1_555 1_555
C10 C9 1_555 1_555
C11 C10 1_555 1_555
C12 C11 1_555 1_555
C13 C8 1_555 1_555
N2 C1 1_555 1_555
C14 N2 1_555 1_555
N3 C15 1_555 1_555
C15 C17 1_555 1_555
N4 C16 1_555 1_555
C16 C17 1_555 1_555
C17 C18 1_555 1_555
C18 C19 1_555 1_555
C19 C20 1_555 1_555
C20 C21 1_555 1_555
N5 C22 1_555 1_555
C22 C24 1_555 1_555
N6 C23 1_555 1_555
C23 C24 1_555 1_555
C24 C25 1_555 1_555
C25 C20 1_555 1_555
C26 C25 1_555 1_555
C27 C18 1_555 1_555
C28 C27 1_555 1_555
C12 C13 1_555 1_555
C13 N2 1_555 1_555
C26 C27 1_555 1_555

#END
