
#######################################################################
#
#                 Cambridge Crystallographic Data Centre
#                                CCDC 
#
#######################################################################
#
# If this CIF has been generated from an entry in the Cambridge 
# Structural Database, then it will include bibliographic, chemical, 
# crystal, experimental, refinement or atomic coordinate data resulting 
# from the CCDC's data processing and validation procedures.
#
#######################################################################

data_LODDUF
_chemical_formula_moiety         'C29 H22 O2 S1'
_chemical_name_systematic        
'1,2-bis(1-naphthyl)vinyl 4-methylphenyl sulfone'
_symmetry_cell_setting           monoclinic
_symmetry_space_group_name_H-M   'P 21/n'
_symmetry_Int_Tables_number      14
_space_group_name_Hall           '-P 2yn'
loop_
_symmetry_equiv_pos_site_id
_symmetry_equiv_pos_as_xyz
1 x,y,z
2 1/2-x,1/2+y,1/2-z
3 -x,-y,-z
4 1/2+x,1/2-y,1/2+z
_cell_length_a                   13.4592(15)
_cell_length_b                   8.2686(9)
_cell_length_c                   19.771(2)
_cell_angle_alpha                90
_cell_angle_beta                 99.147(3)
_cell_angle_gamma                90
_cell_volume                     2172.31
_exptl_crystal_colour            colorless
_cell_formula_units_Z            4
loop_
_atom_site_label
_atom_site_type_symbol
_atom_site_fract_x
_atom_site_fract_y
_atom_site_fract_z
S1 S 0.30490(8) 0.77042(13) 0.18253(5)
O1 O 0.2262(2) 0.8190(4) 0.21930(14)
O2 O 0.2920(3) 0.6231(4) 0.14305(16)
C1 C 0.4195(3) 0.7592(6) 0.2420(2)
C2 C 0.4963(4) 0.6488(7) 0.2201(2)
C3 C 0.4929(5) 0.4810(7) 0.2225(3)
H1 H 0.4364 0.4342 0.2384
C4 C 0.5623(5) 0.3771(9) 0.2043(4)
H2 H 0.5552 0.2631 0.2072
C5 C 0.6488(6) 0.4515(10) 0.1798(3)
H3 H 0.6989 0.3849 0.1654
C6 C 0.6580(3) 0.6160(7) 0.1775(2)
C7 C 0.7378(5) 0.6983(8) 0.1564(3)
H4 H 0.7893 0.6338 0.1424
C8 C 0.7495(6) 0.8567(10) 0.1537(4)
H5 H 0.8083 0.9040 0.1412
C9 C 0.6751(5) 0.9456(11) 0.1693(4)
H6 H 0.6818 1.0592 0.1645
C10 C 0.5893(4) 0.8933(7) 0.1915(3)
H7 H 0.5399 0.9669 0.2022
C11 C 0.5775(4) 0.7166(9) 0.1981(2)
C12 C 0.4227(3) 0.8367(5) 0.30088(19)
H8 H 0.3630 0.8916 0.3076
C13 C 0.5088(3) 0.8472(5) 0.35728(18)
C14 C 0.5686(3) 0.7149(5) 0.3776(2)
H9 H 0.5585 0.6175 0.3519
C15 C 0.6443(3) 0.7213(6) 0.4357(2)
H10 H 0.6849 0.6289 0.4485
C16 C 0.6595(3) 0.8600(6) 0.47358(19)
H11 H 0.7094 0.8620 0.5134
C17 C 0.6022(3) 0.9999(5) 0.45430(19)
C18 C 0.6181(3) 1.1462(6) 0.4920(2)
H12 H 0.6670 1.1491 0.5324
C19 C 0.5645(3) 1.2830(6) 0.4717(2)
H13 H 0.5765 1.3797 0.4977
C20 C 0.4913(3) 1.2801(6) 0.4120(2)
H14 H 0.4547 1.3756 0.3976
C21 C 0.4727(3) 1.1402(5) 0.3747(2)
H15 H 0.4230 1.1403 0.3348
C22 C 0.5261(3) 0.9960(5) 0.39456(19)
C23 C 0.3271(3) 0.9312(5) 0.12840(19)
C24 C 0.3148(3) 1.0882(5) 0.1506(2)
H16 H 0.2892 1.1073 0.1920
C25 C 0.3401(3) 1.2158(6) 0.1121(2)
H17 H 0.3328 1.3232 0.1276
C26 C 0.3764(3) 1.1906(7) 0.0505(2)
C27 C 0.3846(3) 1.0312(7) 0.0285(2)
H18 H 0.4069 1.0114 -0.0140
C28 C 0.3612(3) 0.9022(6) 0.0671(2)
H19 H 0.3684 0.7945 0.0518
C29 C 0.4089(4) 1.3319(8) 0.0114(3)
H20 H 0.3523 1.4069 -0.0002
H21 H 0.4306 1.2932 -0.0308
H22 H 0.4648 1.3879 0.0396
loop_
_geom_bond_atom_site_label_1
_geom_bond_atom_site_label_2
_geom_bond_site_symmetry_1
_geom_bond_site_symmetry_2
S1 O1 1_555 1_555
O2 S1 1_555 1_555
C1 S1 1_555 1_555
C2 C1 1_555 1_555
C3 C2 1_555 1_555
H1 C3 1_555 1_555
C4 C3 1_555 1_555
H2 C4 1_555 1_555
C5 C4 1_555 1_555
H3 C5 1_555 1_555
C6 C5 1_555 1_555
C7 C6 1_555 1_555
H4 C7 1_555 1_555
C8 C7 1_555 1_555
H5 C8 1_555 1_555
C9 C8 1_555 1_555
H6 C9 1_555 1_555
C10 C9 1_555 1_555
H7 C10 1_555 1_555
C11 C2 1_555 1_555
C12 C1 1_555 1_555
H8 C12 1_555 1_555
C13 C12 1_555 1_555
C14 C13 1_555 1_555
H9 C14 1_555 1_555
C15 C14 1_555 1_555
H10 C15 1_555 1_555
C16 C15 1_555 1_555
H11 C16 1_555 1_555
C17 C16 1_555 1_555
C18 C17 1_555 1_555
H12 C18 1_555 1_555
C19 C18 1_555 1_555
H13 C19 1_555 1_555
C20 C19 1_555 1_555
H14 C20 1_555 1_555
C21 C20 1_555 1_555
H15 C21 1_555 1_555
C22 C13 1_555 1_555
C23 S1 1_555 1_555
C24 C23 1_555 1_555
H16 C24 1_555 1_555
C25 C24 1_555 1_555
H17 C25 1_555 1_555
C26 C25 1_555 1_555
C27 C26 1_555 1_555
H18 C27 1_555 1_555
C28 C23 1_555 1_555
H19 C28 1_555 1_555
C29 C26 1_555 1_555
H20 C29 1_555 1_555
H21 C29 1_555 1_555
H22 C29 1_555 1_555
C6 C11 1_555 1_555
C10 C11 1_555 1_555
C17 C22 1_555 1_555
C21 C22 1_555 1_555
C27 C28 1_555 1_555

#END
