
#######################################################################
#
#                 Cambridge Crystallographic Data Centre
#                                CCDC 
#
#######################################################################
#
# If this CIF has been generated from an entry in the Cambridge 
# Structural Database, then it will include bibliographic, chemical, 
# crystal, experimental, refinement or atomic coordinate data resulting 
# from the CCDC's data processing and validation procedures.
#
#######################################################################

data_LODFOA
_chemical_name_common            
'1-n-Butyl-5-(4-nitrophenyl)barbituric acid acetone solvate'
_chemical_formula_moiety         'C14 H15 N3 O5,C3 H6 O1'
_chemical_name_systematic        
'3-n-Butyl-6-hydroxy-5-(4-nitrophenyl)-2,4(1H,3H)-pyrimidinedione acetone solvate'
_symmetry_cell_setting           monoclinic
_symmetry_space_group_name_H-M   'P 21/c'
_symmetry_Int_Tables_number      14
_space_group_name_Hall           '-P 2ybc'
loop_
_symmetry_equiv_pos_site_id
_symmetry_equiv_pos_as_xyz
1 x,y,z
2 -x,1/2+y,1/2-z
3 -x,-y,-z
4 x,1/2-y,1/2+z
_cell_length_a                   11.3856(5)
_cell_length_b                   7.8718(4)
_cell_length_c                   19.8518(6)
_cell_angle_alpha                90
_cell_angle_beta                 91.1138(12)
_cell_angle_gamma                90
_cell_volume                     1778.88
_exptl_crystal_colour            colorless
_exptl_crystal_description       needle
_cell_formula_units_Z            4
_exptl_crystal_recrystallization_method acetone
loop_
_atom_site_label
_atom_site_type_symbol
_atom_site_fract_x
_atom_site_fract_y
_atom_site_fract_z
O1 O 0.62997(15) 0.6142(2) 0.01258(8)
O2 O 0.35487(14) 0.4705(2) 0.16165(7)
O3 O 0.68281(14) 0.81404(19) 0.22623(7)
O4 O 0.19752(18) 0.7102(3) 0.46304(10)
O5 O 0.36453(19) 0.6530(2) 0.51319(9)
N1 N 0.49203(16) 0.5525(2) 0.08998(8)
N2 N 0.65827(16) 0.7099(2) 0.12031(8)
N3 N 0.3033(2) 0.6836(3) 0.46268(10)
C1 C 0.5951(2) 0.6257(3) 0.07081(10)
C2 C 0.45333(19) 0.5581(3) 0.15467(10)
C3 C 0.51331(19) 0.6472(3) 0.20358(10)
C4 C 0.62122(19) 0.7291(3) 0.18691(10)
C5 C 0.4640(2) 0.6623(3) 0.27246(10)
C6 C 0.52484(19) 0.6050(3) 0.32913(10)
C7 C 0.4742(2) 0.6146(3) 0.39245(11)
C8 C 0.3630(2) 0.6812(3) 0.39589(10)
C9 C 0.2999(2) 0.7419(3) 0.34129(11)
C10 C 0.3520(2) 0.7347(3) 0.27884(11)
C11 C 0.77199(19) 0.7825(3) 0.10088(11)
C12 C 0.8704(2) 0.6541(3) 0.10561(12)
C13 C 0.9902(2) 0.7362(4) 0.08989(14)
C14 C 1.0927(3) 0.6171(5) 0.09778(19)
H1 H 0.4456 0.5026 0.0549
H2 H 0.3408 0.4131 0.2028
H3 H 0.6014 0.5591 0.3242
H4 H 0.5153 0.5778 0.4319
H5 H 0.2240 0.7895 0.3469
H6 H 0.3111 0.7753 0.2399
H7 H 0.7906 0.8748 0.1300
H8 H 0.7658 0.8223 0.0558
H9 H 0.8743 0.6091 0.1500
H10 H 0.8550 0.5649 0.0744
H11 H 1.0016 0.8309 0.1190
H12 H 0.9871 0.7741 0.0445
H13 H 1.1634 0.6745 0.0872
H14 H 1.0969 0.5791 0.1432
H15 H 1.0824 0.5223 0.0686
O6 O 0.8317(2) 0.4867(3) 0.28814(11)
C15 C 0.9644(3) 0.7158(5) 0.2966(2)
C16 C 0.8735(2) 0.6005(3) 0.32406(15)
C17 C 0.8322(3) 0.6297(4) 0.39514(16)
H16 H 0.9888 0.7972 0.3293
H17 H 1.0297 0.6485 0.2841
H18 H 0.9333 0.7726 0.2579
H19 H 0.8743 0.7220 0.4148
H20 H 0.8457 0.5301 0.4212
H21 H 0.7506 0.6551 0.3941
loop_
_geom_bond_atom_site_label_1
_geom_bond_atom_site_label_2
_geom_bond_site_symmetry_1
_geom_bond_site_symmetry_2
O1 C1 1_555 1_555
O2 C2 1_555 1_555
O3 C4 1_555 1_555
O4 N3 1_555 1_555
O5 N3 1_555 1_555
O6 C16 1_555 1_555
N1 C1 1_555 1_555
N2 C1 1_555 1_555
N3 C8 1_555 1_555
C2 N1 1_555 1_555
C3 C2 1_555 1_555
C4 N2 1_555 1_555
C5 C3 1_555 1_555
C6 C5 1_555 1_555
C7 C6 1_555 1_555
C8 C7 1_555 1_555
C9 C8 1_555 1_555
C10 C5 1_555 1_555
C11 N2 1_555 1_555
C12 C11 1_555 1_555
C13 C12 1_555 1_555
C14 C13 1_555 1_555
C15 C16 1_555 1_555
C16 C17 1_555 1_555
C17 H19 1_555 1_555
H1 N1 1_555 1_555
H2 O2 1_555 1_555
H3 C6 1_555 1_555
H4 C7 1_555 1_555
H5 C9 1_555 1_555
H6 C10 1_555 1_555
H7 C11 1_555 1_555
H8 C11 1_555 1_555
H9 C12 1_555 1_555
H10 C12 1_555 1_555
H11 C13 1_555 1_555
H12 C13 1_555 1_555
H13 C14 1_555 1_555
H14 C14 1_555 1_555
H15 C14 1_555 1_555
H16 C15 1_555 1_555
H17 C15 1_555 1_555
H18 C15 1_555 1_555
H20 C17 1_555 1_555
H21 C17 1_555 1_555
C3 C4 1_555 1_555
C9 C10 1_555 1_555

#END
