
#######################################################################
#
#                 Cambridge Crystallographic Data Centre
#                                CCDC 
#
#######################################################################
#
# If this CIF has been generated from an entry in the Cambridge 
# Structural Database, then it will include bibliographic, chemical, 
# crystal, experimental, refinement or atomic coordinate data resulting 
# from the CCDC's data processing and validation procedures.
#
#######################################################################

data_LODGIW
_chemical_formula_moiety         'C21 H30 O2 Si1'
_chemical_name_systematic        
5a-((t-Butyl(dimethyl)silyl)oxy)-2b-phenyloctahydro-2H-cyclopropa[cd]inden-2-one
_symmetry_cell_setting           orthorhombic
_symmetry_space_group_name_H-M   'P b c a'
_symmetry_Int_Tables_number      61
_space_group_name_Hall           '-P 2ac 2ab'
loop_
_symmetry_equiv_pos_site_id
_symmetry_equiv_pos_as_xyz
1 x,y,z
2 1/2+x,1/2-y,-z
3 -x,1/2+y,1/2-z
4 1/2-x,-y,1/2+z
5 -x,-y,-z
6 1/2-x,1/2+y,z
7 x,1/2-y,1/2+z
8 1/2+x,y,1/2-z
_cell_length_a                   10.4893(11)
_cell_length_b                   33.088(3)
_cell_length_c                   33.742(3)
_cell_angle_alpha                90
_cell_angle_beta                 90
_cell_angle_gamma                90
_cell_volume                     11710.8
_cell_formula_units_Z            24
loop_
_atom_site_label
_atom_site_type_symbol
_atom_site_fract_x
_atom_site_fract_y
_atom_site_fract_z
C1 C 1.09878(19) 0.45054(6) 0.96754(6)
C2 C 1.0736(2) 0.48635(6) 0.94081(6)
H1 H 1.1547 0.4973 0.9303
H2 H 1.0290 0.5080 0.9556
C3 C 0.98956(19) 0.47065(6) 0.90681(6)
C4 C 0.84933(19) 0.47804(6) 0.91613(6)
H3 H 0.7963 0.4679 0.8940
H4 H 0.8341 0.5074 0.9188
C5 C 0.8099(2) 0.45689(6) 0.95437(6)
H5 H 0.7199 0.4634 0.9604
H6 H 0.8631 0.4669 0.9765
C6 C 0.8256(2) 0.41096(6) 0.95051(6)
H7 H 0.8206 0.3988 0.9773
H8 H 0.7533 0.4002 0.9349
C7 C 0.94915(19) 0.39741(6) 0.93112(6)
C8 C 1.08114(19) 0.41275(5) 0.94372(6)
H9 H 1.1535 0.3931 0.9430
C9 C 1.02232(18) 0.42524(5) 0.90431(6)
H10 H 1.0591 0.4143 0.8792
C10 C 0.94607(19) 0.35323(6) 0.92000(6)
C11 C 0.9101(2) 0.34097(6) 0.88235(7)
H11 H 0.8910 0.3607 0.8628
C12 C 0.9015(2) 0.30021(6) 0.87284(7)
H12 H 0.8764 0.2924 0.8469
C13 C 0.9291(2) 0.27099(6) 0.90083(6)
H13 H 0.9231 0.2431 0.8943
C14 C 0.9655(2) 0.28276(6) 0.93819(7)
H14 H 0.9851 0.2629 0.9576
C15 C 0.9738(2) 0.32354(6) 0.94768(7)
H15 H 0.9989 0.3312 0.9737
C16 C 0.8865(2) 0.44132(6) 0.81373(7)
H16 H 0.9533 0.4206 0.8124
H17 H 0.8441 0.4435 0.7879
H18 H 0.8239 0.4338 0.8340
C17 C 0.8340(2) 0.53060(6) 0.82497(7)
H19 H 0.7592 0.5216 0.8400
H20 H 0.8096 0.5354 0.7973
H21 H 0.8670 0.5557 0.8365
C18 C 1.0934(2) 0.50302(6) 0.79170(6)
C19 C 1.1994(2) 0.47154(7) 0.79581(7)
H22 H 1.1660 0.4448 0.7889
H23 H 1.2304 0.4712 0.8232
H24 H 1.2698 0.4784 0.7779
C20 C 1.1485(3) 0.54509(7) 0.80074(7)
H25 H 1.2175 0.5511 0.7821
H26 H 1.1818 0.5455 0.8279
H27 H 1.0812 0.5655 0.7980
C21 C 1.0443(2) 0.50265(7) 0.74869(7)
H28 H 0.9790 0.5236 0.7454
H29 H 1.0073 0.4761 0.7427
H30 H 1.1152 0.5080 0.7305
O1 O 1.13560(14) 0.45217(4) 1.00163(4)
O2 O 1.02738(13) 0.49052(4) 0.87095(4)
Si1 Si 0.95935(6) 0.490908(16) 0.826902(17)
C22 C 0.38168(19) 0.37879(6) 0.03030(6)
C23 C 0.3952(2) 0.34315(6) 0.05820(6)
H31 H 0.4448 0.3213 0.0455
H32 H 0.3103 0.3325 0.0655
C24 C 0.46507(19) 0.35892(6) 0.09504(6)
C25 C 0.60758(19) 0.34988(6) 0.09183(6)
H33 H 0.6516 0.3600 0.1158
H34 H 0.6206 0.3203 0.0904
C26 C 0.6653(2) 0.36970(6) 0.05518(6)
H35 H 0.6208 0.3599 0.0312
H36 H 0.7564 0.3622 0.0530
C27 C 0.6530(2) 0.41575(6) 0.05798(6)
H37 H 0.7189 0.4259 0.0765
H38 H 0.6712 0.4274 0.0316
C28 C 0.52395(19) 0.43114(6) 0.07173(6)
C29 C 0.39598(19) 0.41691(6) 0.05371(6)
H39 H 0.3263 0.4374 0.0514
C30 C 0.43670(18) 0.40458(5) 0.09538(6)
H40 H 0.3907 0.4164 0.1186
C31 C 0.52579(19) 0.47560(6) 0.08166(6)
C32 C 0.5009(2) 0.48976(6) 0.11956(6)
H41 H 0.4810 0.4711 0.1401
C33 C 0.5047(2) 0.53092(6) 0.12797(7)
H42 H 0.4868 0.5401 0.1541
C34 C 0.5343(2) 0.55860(6) 0.09856(7)
H43 H 0.5353 0.5867 0.1042
C35 C 0.5623(2) 0.54471(6) 0.06092(7)
H44 H 0.5847 0.5634 0.0407
C36 C 0.5580(2) 0.50373(6) 0.05252(7)
H45 H 0.5773 0.4946 0.0265
C37 C 0.5364(2) 0.38821(6) 0.19085(6)
H46 H 0.6023 0.3959 0.1717
H47 H 0.5751 0.3851 0.2171
H48 H 0.4709 0.4093 0.1918
C38 C 0.5783(2) 0.29718(6) 0.18140(7)
H49 H 0.5447 0.2728 0.1686
H50 H 0.5916 0.2919 0.2097
H51 H 0.6595 0.3047 0.1691
C39 C 0.3169(2) 0.32948(6) 0.20645(6)
C40 C 0.3537(2) 0.33086(7) 0.25052(7)
H52 H 0.2783 0.3254 0.2668
H53 H 0.3874 0.3577 0.2570
H54 H 0.4190 0.3104 0.2559
C41 C 0.2610(3) 0.28782(7) 0.19683(8)
H55 H 0.1836 0.2835 0.2126
H56 H 0.3237 0.2668 0.2032
H57 H 0.2398 0.2865 0.1686
C42 C 0.2158(2) 0.36178(7) 0.19861(7)
H58 H 0.1948 0.3622 0.1703
H59 H 0.2488 0.3883 0.2065
H60 H 0.1389 0.3556 0.2140
O3 O 0.35254(14) 0.37666(4) -0.00445(4)
O4 O 0.40982(13) 0.34026(4) 0.12940(4)
Si2 Si 0.46220(5) 0.339298(16) 0.175452(17)
C43 C 1.1057(2) 0.21268(6) 0.04129(7)
C44 C 1.0600(2) 0.17722(6) 0.06592(6)
H61 H 1.1327 0.1635 0.0789
H62 H 1.0144 0.1574 0.0491
C45 C 0.96954(19) 0.19547(6) 0.09702(6)
C46 C 0.8326(2) 0.19487(6) 0.08168(6)
H63 H 0.8060 0.1666 0.0769
H64 H 0.7752 0.2066 0.1020
C47 C 0.8207(2) 0.21892(6) 0.04328(6)
H65 H 0.7323 0.2170 0.0332
H66 H 0.8783 0.2073 0.0230
C48 C 0.8548(2) 0.26338(6) 0.05014(6)
H67 H 0.8668 0.2765 0.0240
H68 H 0.7818 0.2768 0.0633
C49 C 0.97327(19) 0.27058(5) 0.07485(6)
C50 C 1.1007(2) 0.24958(6) 0.06704(6)
H69 H 1.1810 0.2653 0.0712
C51 C 1.02092(19) 0.23873(5) 0.10308(6)
H70 H 1.0512 0.2471 0.1300
C52 C 0.98439(19) 0.31416(6) 0.08723(6)
C53 C 0.92917(19) 0.32757(6) 0.12229(6)
H71 H 0.8924 0.3086 0.1400
C54 C 0.9271(2) 0.36846(6) 0.13164(7)
H72 H 0.8888 0.3772 0.1557
C55 C 0.9805(2) 0.39653(6) 0.10615(7)
H73 H 0.9778 0.4245 0.1125
C56 C 1.0381(2) 0.38363(6) 0.07129(7)
H74 H 1.0758 0.4027 0.0538
C57 C 1.0403(2) 0.34261(6) 0.06213(7)
H75 H 1.0805 0.3338 0.0384
C58 C 0.8340(2) 0.22463(6) 0.18611(7)
H76 H 0.9054 0.2435 0.1892
H77 H 0.7855 0.2233 0.2109
H78 H 0.7782 0.2340 0.1647
C59 C 0.7608(2) 0.13751(7) 0.16927(7)
H79 H 0.6960 0.1490 0.1516
H80 H 0.7235 0.1328 0.1955
H81 H 0.7913 0.1119 0.1583
C60 C 1.0125(2) 0.15692(6) 0.21305(6)
C61 C 1.0646(3) 0.11479(7) 0.20374(8)
H82 H 1.1063 0.1151 0.1777
H83 H 0.9943 0.0953 0.2034
H84 H 1.1266 0.1070 0.2241
C62 C 0.9503(2) 0.15619(7) 0.25417(7)
H85 H 1.0139 0.1484 0.2740
H86 H 0.8803 0.1366 0.2543
H87 H 0.9169 0.1831 0.2604
C63 C 1.1232(2) 0.18703(8) 0.21429(8)
H88 H 1.0902 0.2141 0.2200
H89 H 1.1667 0.1872 0.1886
H90 H 1.1835 0.1790 0.2350
O5 O 1.14377(15) 0.21154(4) 0.00742(5)
O6 O 0.98248(13) 0.17275(4) 0.13297(4)
Si3 Si 0.89661(5) 0.173408(16) 0.173814(17)
loop_
_geom_bond_atom_site_label_1
_geom_bond_atom_site_label_2
_geom_bond_site_symmetry_1
_geom_bond_site_symmetry_2
C1 C2 1_555 1_555
C2 H1 1_555 1_555
H2 C2 1_555 1_555
C3 C2 1_555 1_555
C4 C3 1_555 1_555
H3 C4 1_555 1_555
H4 C4 1_555 1_555
C5 C4 1_555 1_555
H5 C5 1_555 1_555
H6 C5 1_555 1_555
C6 C5 1_555 1_555
H7 C6 1_555 1_555
H8 C6 1_555 1_555
C7 C6 1_555 1_555
C8 C1 1_555 1_555
H9 C8 1_555 1_555
C9 C3 1_555 1_555
H10 C9 1_555 1_555
C10 C7 1_555 1_555
C11 C10 1_555 1_555
H11 C11 1_555 1_555
C12 C11 1_555 1_555
H12 C12 1_555 1_555
C13 C12 1_555 1_555
H13 C13 1_555 1_555
C14 C13 1_555 1_555
H14 C14 1_555 1_555
C15 C10 1_555 1_555
H15 C15 1_555 1_555
C16 H16 1_555 1_555
H17 C16 1_555 1_555
H18 C16 1_555 1_555
C17 H19 1_555 1_555
H20 C17 1_555 1_555
H21 C17 1_555 1_555
C18 C19 1_555 1_555
C19 H22 1_555 1_555
H23 C19 1_555 1_555
H24 C19 1_555 1_555
C20 C18 1_555 1_555
H25 C20 1_555 1_555
H26 C20 1_555 1_555
H27 C20 1_555 1_555
C21 C18 1_555 1_555
H28 C21 1_555 1_555
H29 C21 1_555 1_555
H30 C21 1_555 1_555
O1 C1 1_555 1_555
O2 C3 1_555 1_555
Si1 C16 1_555 1_555
C22 C23 1_555 1_555
C23 H31 1_555 1_555
H32 C23 1_555 1_555
C24 C23 1_555 1_555
C25 C24 1_555 1_555
H33 C25 1_555 1_555
H34 C25 1_555 1_555
C26 C25 1_555 1_555
H35 C26 1_555 1_555
H36 C26 1_555 1_555
C27 C26 1_555 1_555
H37 C27 1_555 1_555
H38 C27 1_555 1_555
C28 C27 1_555 1_555
C29 C22 1_555 1_555
H39 C29 1_555 1_555
C30 C24 1_555 1_555
H40 C30 1_555 1_555
C31 C28 1_555 1_555
C32 C31 1_555 1_555
H41 C32 1_555 1_555
C33 C32 1_555 1_555
H42 C33 1_555 1_555
C34 C33 1_555 1_555
H43 C34 1_555 1_555
C35 C34 1_555 1_555
H44 C35 1_555 1_555
C36 C31 1_555 1_555
H45 C36 1_555 1_555
C37 H46 1_555 1_555
H47 C37 1_555 1_555
H48 C37 1_555 1_555
C38 H49 1_555 1_555
H50 C38 1_555 1_555
H51 C38 1_555 1_555
C39 C40 1_555 1_555
C40 H52 1_555 1_555
H53 C40 1_555 1_555
H54 C40 1_555 1_555
C41 C39 1_555 1_555
H55 C41 1_555 1_555
H56 C41 1_555 1_555
H57 C41 1_555 1_555
C42 C39 1_555 1_555
H58 C42 1_555 1_555
H59 C42 1_555 1_555
H60 C42 1_555 1_555
O3 C22 1_555 1_555
O4 C24 1_555 1_555
Si2 C37 1_555 1_555
C43 C44 1_555 1_555
C44 H61 1_555 1_555
H62 C44 1_555 1_555
C45 C44 1_555 1_555
C46 C45 1_555 1_555
H63 C46 1_555 1_555
H64 C46 1_555 1_555
C47 C46 1_555 1_555
H65 C47 1_555 1_555
H66 C47 1_555 1_555
C48 C47 1_555 1_555
H67 C48 1_555 1_555
H68 C48 1_555 1_555
C49 C48 1_555 1_555
C50 C43 1_555 1_555
H69 C50 1_555 1_555
C51 C45 1_555 1_555
H70 C51 1_555 1_555
C52 C49 1_555 1_555
C53 C52 1_555 1_555
H71 C53 1_555 1_555
C54 C53 1_555 1_555
H72 C54 1_555 1_555
C55 C54 1_555 1_555
H73 C55 1_555 1_555
C56 C55 1_555 1_555
H74 C56 1_555 1_555
C57 C52 1_555 1_555
H75 C57 1_555 1_555
C58 H76 1_555 1_555
H77 C58 1_555 1_555
H78 C58 1_555 1_555
C59 H79 1_555 1_555
H80 C59 1_555 1_555
H81 C59 1_555 1_555
C60 C61 1_555 1_555
C61 H82 1_555 1_555
H83 C61 1_555 1_555
H84 C61 1_555 1_555
C62 C60 1_555 1_555
H85 C62 1_555 1_555
H86 C62 1_555 1_555
H87 C62 1_555 1_555
C63 C60 1_555 1_555
H88 C63 1_555 1_555
H89 C63 1_555 1_555
H90 C63 1_555 1_555
O5 C43 1_555 1_555
O6 C45 1_555 1_555
Si3 C58 1_555 1_555
C7 C8 1_555 1_555
C7 C9 1_555 1_555
C8 C9 1_555 1_555
C14 C15 1_555 1_555
C17 Si1 1_555 1_555
C18 Si1 1_555 1_555
O2 Si1 1_555 1_555
C28 C29 1_555 1_555
C28 C30 1_555 1_555
C29 C30 1_555 1_555
C35 C36 1_555 1_555
C38 Si2 1_555 1_555
C39 Si2 1_555 1_555
O4 Si2 1_555 1_555
C49 C50 1_555 1_555
C49 C51 1_555 1_555
C50 C51 1_555 1_555
C56 C57 1_555 1_555
C59 Si3 1_555 1_555
C60 Si3 1_555 1_555
O6 Si3 1_555 1_555

#END
