
#######################################################################
#
#                 Cambridge Crystallographic Data Centre
#                                CCDC 
#
#######################################################################
#
# If this CIF has been generated from an entry in the Cambridge 
# Structural Database, then it will include bibliographic, chemical, 
# crystal, experimental, refinement or atomic coordinate data resulting 
# from the CCDC's data processing and validation procedures.
#
#######################################################################

data_LODGAN
_chemical_name_common            '1-n-Butyl-5-(4-nitrophenyl)barbituric acid'
_chemical_formula_moiety         'C14 H15 N3 O5'
_chemical_name_systematic        
3-n-Butyl-6-hydroxy-5-(4-nitrophenyl)-2,4(1H,3H)-pyrimidinedione
_symmetry_cell_setting           monoclinic
_symmetry_space_group_name_H-M   'P 21/a'
_symmetry_Int_Tables_number      14
_space_group_name_Hall           '-P 2yab'
loop_
_symmetry_equiv_pos_site_id
_symmetry_equiv_pos_as_xyz
1 x,y,z
2 1/2-x,1/2+y,-z
3 -x,-y,-z
4 1/2+x,1/2-y,z
_cell_length_a                   19.5654(6)
_cell_length_b                   7.7672(4)
_cell_length_c                   19.9017(6)
_cell_angle_alpha                90
_cell_angle_beta                 92.6734(13)
_cell_angle_gamma                90
_cell_volume                     3021.14
_exptl_crystal_colour            colorless
_exptl_crystal_description       plate
_cell_formula_units_Z            8
loop_
_atom_site_label
_atom_site_type_symbol
_atom_site_fract_x
_atom_site_fract_y
_atom_site_fract_z
O1 O 0.32084(8) 0.80610(16) 0.24079(6)
O2 O 0.16280(7) 0.64691(15) 0.08156(5)
O3 O 0.35901(7) 0.97674(14) 0.02735(5)
O4 O 0.09994(10) 0.9144(2) -0.24152(8)
O5 O 0.19253(9) 0.79428(19) -0.27465(6)
N1 N 0.24259(9) 0.73688(16) 0.15809(6)
N2 N 0.34108(8) 0.88487(16) 0.13325(7)
N3 N 0.15669(10) 0.85109(17) -0.23045(7)
C1 C 0.30291(9) 0.81017(17) 0.18082(8)
C2 C 0.22111(10) 0.73339(19) 0.09068(7)
C3 C 0.25882(8) 0.81504(17) 0.04397(7)
C4 C 0.32039(9) 0.89788(19) 0.06506(8)
C5 C 0.23388(8) 0.82313(18) -0.02811(7)
C6 C 0.16930(10) 0.8899(2) -0.04434(8)
C7 C 0.14412(10) 0.9017(2) -0.11040(8)
C8 C 0.18456(9) 0.8424(2) -0.15947(8)
C9 C 0.24847(10) 0.77583(19) -0.14680(8)
C10 C 0.27200(9) 0.76668(19) -0.07920(7)
C11 C 0.40899(11) 0.95839(19) 0.15586(9)
C12 C 0.46460(10) 0.8271(2) 0.15533(9)
C29 C 0.4835(2) 0.7384(4) 0.09260(18)
C30 C 0.5339(2) 0.5759(5) 0.0989(2)
H1 H 0.1423 0.9283 -0.0088
H2 H 0.0999 0.9463 -0.1220
H3 H 0.2751 0.7366 -0.1825
H4 H 0.3160 0.7197 -0.0686
H5 H 0.4201 1.0468 0.1252
H6 H 0.4059 1.0059 0.1996
H7 H 0.4554 0.7416 0.1878
H26 H 0.5045 0.8225 0.0657
H27 H 0.4426 0.6988 0.0701
H28 H 0.5431 0.5303 0.0560
H29 H 0.5755 0.6132 0.1209
H30 H 0.5136 0.4895 0.1252
H31 H 0.2197 0.6797 0.1928
H32 H 0.1636 0.5888 0.0426
O6 O 0.17387(8) 0.56737(16) 0.26136(6)
O7 O 0.34143(7) 0.70113(15) 0.41450(6)
O8 O 0.14745(7) 0.37412(15) 0.47470(6)
O9 O 0.44047(9) 0.4377(2) 0.72134(7)
O10 O 0.34437(10) 0.5003(2) 0.76606(7)
N4 N 0.25811(8) 0.62285(16) 0.34067(7)
N5 N 0.16005(8) 0.46878(15) 0.36822(6)
N6 N 0.37978(10) 0.46944(17) 0.71683(7)
C13 C 0.19635(10) 0.55496(19) 0.31996(8)
C14 C 0.28378(9) 0.6138(2) 0.40542(8)
C15 C 0.25094(10) 0.52459(18) 0.45361(7)
C16 C 0.18409(10) 0.45242(19) 0.43571(8)
C17 C 0.28187(9) 0.50371(16) 0.52261(7)
C18 C 0.34775(9) 0.44736(19) 0.53162(8)
C19 C 0.38092(10) 0.43276(18) 0.59477(10)
C20 C 0.34405(10) 0.47724(18) 0.64924(7)
C21 C 0.27652(10) 0.5312(2) 0.64407(8)
C22 C 0.24550(10) 0.54482(19) 0.58033(8)
C23 C 0.09387(10) 0.39392(19) 0.34868(8)
C24 C 0.03425(11) 0.5149(2) 0.36126(11)
C25 C -0.03488(11) 0.4284(3) 0.34671(11)
C26 C -0.05206(13) 0.2952(3) 0.40067(13)
H8 H 0.3717 0.4164 0.4930
H9 H 0.4267 0.3928 0.6005
H10 H 0.2527 0.5580 0.6832
H11 H 0.1991 0.5804 0.5749
H12 H 0.0879 0.2927 0.3746
H13 H 0.0928 0.3648 0.3023
H14 H 0.0372 0.5498 0.4071
H15 H 0.0385 0.6129 0.3332
H16 H -0.0692 0.5150 0.3452
H17 H -0.0342 0.3727 0.3042
H18 H -0.0955 0.2454 0.3896
H19 H -0.0531 0.3500 0.4433
H20 H -0.0181 0.2077 0.4023
H33 H 0.2795 0.6859 0.3065
H34 H 0.3376 0.7473 0.4593
C27? C 0.5273(2) 0.9132(5) 0.1759(2)
C28? C 0.5489(3) 1.0891(7) 0.1431(3)
H21? H 0.5251 0.9374 0.2226
H22? H 0.5628 0.8322 0.1694
H23? H 0.5917 1.1237 0.1633
H24? H 0.5159 1.1765 0.1495
H25? H 0.5535 1.0712 0.0963
loop_
_geom_bond_atom_site_label_1
_geom_bond_atom_site_label_2
_geom_bond_site_symmetry_1
_geom_bond_site_symmetry_2
O1 C1 1_555 1_555
O2 C2 1_555 1_555
O3 C4 1_555 1_555
O4 N3 1_555 1_555
O5 N3 1_555 1_555
O6 C13 1_555 1_555
O7 C14 1_555 1_555
O8 C16 1_555 1_555
O9 N6 1_555 1_555
O10 N6 1_555 1_555
N1 C1 1_555 1_555
N2 C1 1_555 1_555
N3 C8 1_555 1_555
N4 C13 1_555 1_555
N5 C13 1_555 1_555
N6 C20 1_555 1_555
C2 N1 1_555 1_555
C3 C2 1_555 1_555
C4 N2 1_555 1_555
C5 C3 1_555 1_555
C6 C5 1_555 1_555
C7 C6 1_555 1_555
C8 C7 1_555 1_555
C9 C8 1_555 1_555
C10 C5 1_555 1_555
C11 N2 1_555 1_555
C12 C11 1_555 1_555
C14 N4 1_555 1_555
C15 C14 1_555 1_555
C16 N5 1_555 1_555
C17 C15 1_555 1_555
C18 C17 1_555 1_555
C19 C18 1_555 1_555
C20 C19 1_555 1_555
C21 C20 1_555 1_555
C22 C17 1_555 1_555
C23 N5 1_555 1_555
C24 C23 1_555 1_555
C25 C24 1_555 1_555
C26 C25 1_555 1_555
C29 C12 1_555 1_555
C30 C29 1_555 1_555
H1 C6 1_555 1_555
H2 C7 1_555 1_555
H3 C9 1_555 1_555
H4 C10 1_555 1_555
H5 C11 1_555 1_555
H6 C11 1_555 1_555
H7 C12 1_555 1_555
H8 C18 1_555 1_555
H9 C19 1_555 1_555
H10 C21 1_555 1_555
H11 C22 1_555 1_555
H12 C23 1_555 1_555
H13 C23 1_555 1_555
H14 C24 1_555 1_555
H15 C24 1_555 1_555
H16 C25 1_555 1_555
H17 C25 1_555 1_555
H18 C26 1_555 1_555
H19 C26 1_555 1_555
H20 C26 1_555 1_555
H26 C29 1_555 1_555
H27 C29 1_555 1_555
H28 C30 1_555 1_555
H29 C30 1_555 1_555
H30 C30 1_555 1_555
H31 N1 1_555 1_555
H32 O2 1_555 1_555
H33 N4 1_555 1_555
H34 O7 1_555 1_555
C3 C4 1_555 1_555
C9 C10 1_555 1_555
C15 C16 1_555 1_555
C21 C22 1_555 1_555

#END
