
#######################################################################
#
#                 Cambridge Crystallographic Data Centre
#                                CCDC 
#
#######################################################################
#
# If this CIF has been generated from an entry in the Cambridge 
# Structural Database, then it will include bibliographic, chemical, 
# crystal, experimental, refinement or atomic coordinate data resulting 
# from the CCDC's data processing and validation procedures.
#
#######################################################################

data_LODGUI
_chemical_formula_moiety         'C21 H16 F2 O2 S1'
_chemical_name_systematic        
'1,2-bis(2-fluorophenyl)vinyl 4-methylphenyl sulfone'
_symmetry_cell_setting           orthorhombic
_symmetry_space_group_name_H-M   'P c a 21'
_symmetry_Int_Tables_number      29
_space_group_name_Hall           'P 2c -2ac'
loop_
_symmetry_equiv_pos_site_id
_symmetry_equiv_pos_as_xyz
1 x,y,z
2 -x,-y,1/2+z
3 1/2-x,y,1/2+z
4 1/2+x,-y,z
_cell_length_a                   12.984(2)
_cell_length_b                   8.6056(13)
_cell_length_c                   15.989(3)
_cell_angle_alpha                90
_cell_angle_beta                 90
_cell_angle_gamma                90
_cell_volume                     1786.53
_exptl_crystal_colour            colorless
_cell_formula_units_Z            4
loop_
_atom_site_label
_atom_site_type_symbol
_atom_site_fract_x
_atom_site_fract_y
_atom_site_fract_z
C1 C 0.6048(3) 0.6091(4) 0.1641(2)
C2 C 0.5409(3) 0.5874(4) 0.1009(2)
H1 H 0.4956 0.5008 0.1038
C3 C 0.5344(3) 0.6873(4) 0.0263(2)
C4 C 0.4396(3) 0.7282(5) -0.0063(3)
C5 C 0.4287(4) 0.8204(5) -0.0765(3)
H2 H 0.3621 0.8468 -0.0965
C6 C 0.5153(3) 0.8737(5) -0.1171(3)
H3 H 0.5087 0.9373 -0.1654
C7 C 0.6126(3) 0.8341(5) -0.0871(3)
H4 H 0.6726 0.8699 -0.1151
C8 C 0.6212(3) 0.7424(5) -0.0166(2)
H5 H 0.6878 0.7159 0.0034
C9 C 0.6728(3) 0.7449(4) 0.1781(2)
C10 C 0.6304(3) 0.8876(4) 0.1994(2)
C11 C 0.6862(3) 1.0190(4) 0.2134(2)
H6 H 0.6532 1.1139 0.2277
C12 C 0.7923(3) 1.0105(4) 0.2064(2)
H7 H 0.8328 1.1010 0.2149
C13 C 0.8398(3) 0.8709(5) 0.1872(3)
H8 H 0.9127 0.8658 0.1831
C14 C 0.7804(3) 0.7373(4) 0.1739(2)
H9 H 0.8133 0.6413 0.1618
C15 C 0.5457(3) 0.5719(4) 0.3304(2)
C16 C 0.6085(3) 0.6433(4) 0.3893(2)
H10 H 0.6813 0.6349 0.3856
C17 C 0.5639(3) 0.7258(5) 0.4527(3)
H11 H 0.6064 0.7753 0.4930
C18 C 0.4570(3) 0.7387(4) 0.4592(3)
C19 C 0.3958(3) 0.6666(5) 0.4002(3)
H12 H 0.3230 0.6741 0.4044
C20 C 0.4392(3) 0.5832(4) 0.3346(2)
H13 H 0.3969 0.5351 0.2936
C21 C 0.4090(3) 0.8271(5) 0.5311(3)
H14 H 0.3397 0.8612 0.5154
H15 H 0.4515 0.9179 0.5443
H16 H 0.4048 0.7593 0.5803
F1 F 0.35539(19) 0.6716(4) 0.03097(19)
F2 F 0.52658(17) 0.8966(3) 0.20203(19)
O1 O 0.53231(18) 0.3470(3) 0.22148(16)
O2 O 0.70592(18) 0.4294(3) 0.26831(17)
S1 S 0.60154(5) 0.46923(9) 0.24624(6)
loop_
_geom_bond_atom_site_label_1
_geom_bond_atom_site_label_2
_geom_bond_site_symmetry_1
_geom_bond_site_symmetry_2
C1 C2 1_555 1_555
C2 H1 1_555 1_555
C3 C2 1_555 1_555
C4 C3 1_555 1_555
C5 C4 1_555 1_555
H2 C5 1_555 1_555
C6 C5 1_555 1_555
H3 C6 1_555 1_555
C7 C6 1_555 1_555
H4 C7 1_555 1_555
C8 C3 1_555 1_555
H5 C8 1_555 1_555
C9 C1 1_555 1_555
C10 C9 1_555 1_555
C11 C10 1_555 1_555
H6 C11 1_555 1_555
C12 C11 1_555 1_555
H7 C12 1_555 1_555
C13 C12 1_555 1_555
H8 C13 1_555 1_555
C14 C9 1_555 1_555
H9 C14 1_555 1_555
C15 C16 1_555 1_555
C16 H10 1_555 1_555
C17 C16 1_555 1_555
H11 C17 1_555 1_555
C18 C17 1_555 1_555
C19 C18 1_555 1_555
H12 C19 1_555 1_555
C20 C15 1_555 1_555
H13 C20 1_555 1_555
C21 C18 1_555 1_555
H14 C21 1_555 1_555
H15 C21 1_555 1_555
H16 C21 1_555 1_555
F1 C4 1_555 1_555
F2 C10 1_555 1_555
O1 S1 1_555 1_555
O2 S1 1_555 1_555
S1 C1 1_555 1_555
C7 C8 1_555 1_555
C13 C14 1_555 1_555
C15 S1 1_555 1_555
C19 C20 1_555 1_555

#END
