
#######################################################################
#
#                 Cambridge Crystallographic Data Centre
#                                CCDC 
#
#######################################################################
#
# If this CIF has been generated from an entry in the Cambridge 
# Structural Database, then it will include bibliographic, chemical, 
# crystal, experimental, refinement or atomic coordinate data resulting 
# from the CCDC's data processing and validation procedures.
#
#######################################################################

data_LODHOB
_chemical_formula_moiety         'C30 H18 N9 O6 P3,C1 H2 Cl2,C7 H8'
_chemical_name_systematic        
"2,4,6-tris(3,3'-Dihydroxo-2,2'-bipyridine)cyclotriphosphazene dichloromethane toluene solvate"
_symmetry_cell_setting           monoclinic
_symmetry_space_group_name_H-M   'C 2/c'
_symmetry_Int_Tables_number      15
_space_group_name_Hall           '-C 2yn'
loop_
_symmetry_equiv_pos_site_id
_symmetry_equiv_pos_as_xyz
1 x,y,z
2 1/2+x,1/2+y,z
3 x,-y,1/2+z
4 1/2+x,1/2-y,1/2+z
5 -x,-y,-z
6 1/2-x,1/2-y,-z
7 -x,y,1/2-z
8 1/2-x,1/2+y,1/2-z
_cell_length_a                   21.982(3)
_cell_length_b                   18.921(3)
_cell_length_c                   10.4381(15)
_cell_angle_alpha                90.00
_cell_angle_beta                 106.556(11)
_cell_angle_gamma                90.00
_cell_volume                     4161.44
_exptl_crystal_colour            colorless
_chemical_melting_point          290deg.C(dec.)
_cell_formula_units_Z            4
loop_
_atom_site_label
_atom_site_type_symbol
_atom_site_fract_x
_atom_site_fract_y
_atom_site_fract_z
C16 C 0.5000 0.0446(7) 0.2500
H10 H 0.4843 0.0277 0.3213
C17 C 0.5000 0.1245(7) 0.2500
C18 C 0.4769(5) 0.1630(5) 0.3398(9)
H13 H 0.4600 0.1376 0.3979
C19 C 0.4769(4) 0.2340(4) 0.3495(8)
H14 H 0.4632 0.2568 0.4151
C20 C 0.5000 0.2738(6) 0.2500
H15 H 0.5000 0.3229 0.2500
H10F H 0.5157 0.0277 0.1787
C19F C 0.5231(4) 0.2340(4) 0.1505(8)
C18F C 0.5231(5) 0.1630(5) 0.1602(9)
H13F H 0.5400 0.1376 0.1021
H14F H 0.5368 0.2568 0.0849
C21 C 0.2452(10) 0.2056(13) -0.021(2)
Cl1 Cl 0.3033(6) 0.2420(6) 0.0482(13)
Cl2 Cl 0.2391(8) 0.1354(10) -0.0250(15)
C21E C 0.2548(10) 0.2944(13) 0.021(2)
Cl1E Cl 0.1967(6) 0.2580(6) -0.0482(13)
Cl2E Cl 0.2609(8) 0.3646(10) 0.0250(15)
P1 P 0.0000 0.17306(8) 0.2500
P2 P -0.06512(5) 0.29894(6) 0.20848(12)
O1 O -0.00391(15) 0.12090(16) 0.1296(3)
O2 O -0.10179(15) 0.33026(17) 0.0670(3)
O3 O -0.10978(16) 0.32067(17) 0.2973(3)
N1 N -0.06344(17) 0.2156(2) 0.2087(4)
N2 N 0.0000 0.3395(3) 0.2500
N3 N 0.0597(3) -0.0555(2) 0.2229(5)
N4 N -0.2664(2) 0.3840(3) 0.0105(6)
N5 N -0.1989(3) 0.4833(3) 0.1935(6)
C1 C 0.0364(2) 0.0617(2) 0.1456(5)
C2 C 0.0252(2) 0.0041(2) 0.2153(5)
C3 C 0.1052(3) -0.0544(3) 0.1624(7)
H1 H 0.1298 -0.0950 0.1689
C4 C 0.1193(3) 0.0010(3) 0.0913(7)
H2 H 0.1521 -0.0018 0.0515
C5 C 0.0828(3) 0.0613(3) 0.0810(6)
H3 H 0.0895 0.1002 0.0321
C6 C -0.1678(2) 0.3309(2) 0.0138(5)
C7 C -0.2043(2) 0.3752(3) 0.0681(5)
C8 C -0.2917(3) 0.3473(4) -0.1028(8)
H4 H -0.3346 0.3535 -0.1454
C9 C -0.2587(3) 0.3015(4) -0.1597(7)
H5 H -0.2789 0.2768 -0.2371
C10 C -0.1946(3) 0.2931(3) -0.0990(6)
H6 H -0.1704 0.2625 -0.1342
C11 C -0.1299(2) 0.3908(3) 0.2977(6)
C12 C -0.1759(2) 0.4168(3) 0.1909(6)
C13 C -0.1751(5) 0.5208(4) 0.3010(9)
H7 H -0.1905 0.5664 0.3036
C14 C -0.1284(4) 0.4971(4) 0.4113(9)
H8 H -0.1132 0.5262 0.4853
C15 C -0.1049(3) 0.4305(4) 0.4102(7)
H9 H -0.0733 0.4129 0.4825
C2F C -0.0252(2) 0.0041(2) 0.2847(5)
N3F N -0.0597(3) -0.0555(2) 0.2771(5)
C3F C -0.1052(3) -0.0544(3) 0.3376(7)
H1F H -0.1298 -0.0950 0.3311
C4F C -0.1193(3) 0.0010(3) 0.4087(7)
H2F H -0.1521 -0.0018 0.4485
C5F C -0.0828(3) 0.0613(3) 0.4190(6)
C1F C -0.0364(2) 0.0617(2) 0.3544(5)
O1F O 0.00391(15) 0.12090(16) 0.3704(3)
P2F P 0.06512(5) 0.29894(6) 0.29152(12)
O2F O 0.10179(15) 0.33026(17) 0.4330(3)
C6F C 0.1678(2) 0.3309(2) 0.4862(5)
C7F C 0.2043(2) 0.3752(3) 0.4319(5)
N4F N 0.2664(2) 0.3840(3) 0.4895(6)
C8F C 0.2917(3) 0.3473(4) 0.6028(8)
H4F H 0.3346 0.3535 0.6454
C9F C 0.2587(3) 0.3015(4) 0.6597(7)
H5F H 0.2789 0.2768 0.7371
C10F C 0.1946(3) 0.2931(3) 0.5990(6)
H6F H 0.1704 0.2625 0.6342
C12F C 0.1759(2) 0.4168(3) 0.3091(6)
N5F N 0.1989(3) 0.4833(3) 0.3065(6)
C13F C 0.1751(5) 0.5208(4) 0.1990(9)
H7F H 0.1905 0.5664 0.1964
C14F C 0.1284(4) 0.4971(4) 0.0887(9)
H8F H 0.1132 0.5262 0.0147
C15F C 0.1049(3) 0.4305(4) 0.0898(7)
C11F C 0.1299(2) 0.3908(3) 0.2023(6)
O3F O 0.10978(16) 0.32067(17) 0.2027(3)
N1F N 0.06344(17) 0.2156(2) 0.2913(4)
H9F H 0.0733 0.4129 0.0175
H3F H -0.0895 0.1002 0.4679
H11? H 0.5425 0.0277 0.2625
H12? H 0.4732 0.0277 0.1661
loop_
_geom_bond_atom_site_label_1
_geom_bond_atom_site_label_2
_geom_bond_site_symmetry_1
_geom_bond_site_symmetry_2
P1 O1 1_555 1_555
P2 O2 1_555 1_555
O1 C1 1_555 1_555
O2 C6 1_555 1_555
O3 P2 1_555 1_555
N1 P1 1_555 1_555
N2 P2 1_555 1_555
N3 C2 1_555 1_555
N4 C7 1_555 1_555
N5 C12 1_555 1_555
C1 C2 1_555 1_555
C2 C2F 1_555 1_555
C3 N3 1_555 1_555
H1 C3 1_555 1_555
C4 C3 1_555 1_555
H2 C4 1_555 1_555
C5 C1 1_555 1_555
H3 C5 1_555 1_555
C6 C7 1_555 1_555
C7 C12 1_555 1_555
C8 N4 1_555 1_555
H4 C8 1_555 1_555
C9 C8 1_555 1_555
H5 C9 1_555 1_555
C10 C6 1_555 1_555
H6 C10 1_555 1_555
C11 O3 1_555 1_555
C12 C11 1_555 1_555
C13 N5 1_555 1_555
H7 C13 1_555 1_555
C14 C13 1_555 1_555
H8 C14 1_555 1_555
C15 C11 1_555 1_555
H9 C15 1_555 1_555
C16 H10 1_555 1_555
C17 C16 1_555 1_555
C18 C17 1_555 1_555
H13 C18 1_555 1_555
C19 C18 1_555 1_555
H14 C19 1_555 1_555
C20 C19 1_555 1_555
H15 C20 1_555 1_555
C21 Cl1 1_555 1_555
Cl1 C21E 1_555 1_555
Cl2 C21 1_555 1_555
C2F N3F 1_555 1_555
N3F C3F 1_555 1_555
C3F H1F 1_555 1_555
C4F C3F 1_555 1_555
H2F C4F 1_555 1_555
C5F C4F 1_555 1_555
C1F C2F 1_555 1_555
O1F P1 1_555 1_555
P2F N2 1_555 1_555
O2F P2F 1_555 1_555
C6F O2F 1_555 1_555
C7F C6F 1_555 1_555
N4F C7F 1_555 1_555
C8F N4F 1_555 1_555
H4F C8F 1_555 1_555
C9F C8F 1_555 1_555
H5F C9F 1_555 1_555
C10F C6F 1_555 1_555
H6F C10F 1_555 1_555
C12F C7F 1_555 1_555
N5F C12F 1_555 1_555
C13F N5F 1_555 1_555
H7F C13F 1_555 1_555
C14F C13F 1_555 1_555
H8F C14F 1_555 1_555
C15F C14F 1_555 1_555
C11F C12F 1_555 1_555
O3F P2F 1_555 1_555
N1F P1 1_555 1_555
H9F C15F 1_555 1_555
H3F C5F 1_555 1_555
H10F C16 1_555 1_555
C19F C20 1_555 1_555
C18F C17 1_555 1_555
H13F C18F 1_555 1_555
H14F C19F 1_555 1_555
C21E Cl1E 1_555 1_555
Cl1E C21 1_555 1_555
Cl2E C21E 1_555 1_555
P2 N1 1_555 1_555
C4 C5 1_555 1_555
C9 C10 1_555 1_555
C14 C15 1_555 1_555
C5F C1F 1_555 1_555
C1F O1F 1_555 1_555
P2F N1F 1_555 1_555
C9F C10F 1_555 1_555
C15F C11F 1_555 1_555
C11F O3F 1_555 1_555
C19F C18F 1_555 1_555

#END
