
#######################################################################
#
#                 Cambridge Crystallographic Data Centre
#                                CCDC 
#
#######################################################################
#
# If this CIF has been generated from an entry in the Cambridge 
# Structural Database, then it will include bibliographic, chemical, 
# crystal, experimental, refinement or atomic coordinate data resulting 
# from the CCDC's data processing and validation procedures.
#
#######################################################################

data_LODHAO
_chemical_formula_moiety         'C13 H20 N5 O2 1+,Cl1 O4 1-'
_chemical_name_systematic        
'3,9,12-Triaza-6-azonia-1(2,6)-pyridinacyclotridecaphane-2,13-dione perchlorate'
_symmetry_cell_setting           orthorhombic
_symmetry_space_group_name_H-M   'P n a 21'
_symmetry_Int_Tables_number      33
_space_group_name_Hall           'P 2c -2n'
loop_
_symmetry_equiv_pos_site_id
_symmetry_equiv_pos_as_xyz
1 x,y,z
2 -x,-y,1/2+z
3 1/2+x,1/2-y,z
4 1/2-x,1/2+y,1/2+z
_cell_length_a                   11.5718(16)
_cell_length_b                   15.192(2)
_cell_length_c                   9.5817(15)
_cell_angle_alpha                90
_cell_angle_beta                 90
_cell_angle_gamma                90
_cell_volume                     1684.45
_exptl_crystal_colour            orange
_exptl_crystal_description       needle
_cell_formula_units_Z            4
loop_
_atom_site_label
_atom_site_type_symbol
_atom_site_fract_x
_atom_site_fract_y
_atom_site_fract_z
O1 O 0.1860(11) 0.4583(7) 0.9368(11)
Cl1 Cl 0.2152(3) 0.4401(2) 0.7942(4)
O2 O 0.263(3) 0.3561(19) 0.800(4)
O3 O 0.1294(19) 0.4775(16) 0.712(3)
O4 O 0.317(2) 0.4941(16) 0.782(3)
C1 C 0.4957(9) 0.3610(6) 0.0388(11)
N1 N 0.4976(7) 0.5147(5) 0.0521(9)
H1 H 0.4692 0.5041 0.1333
N2 N 0.2252(8) 0.3774(6) 0.2837(13)
H2 H 0.2637 0.4182 0.2422
C2 C 0.4994(10) 0.2027(7) 0.0463(13)
H3 H 0.5324 0.1496 0.0190
C3 C 0.5284(9) 0.4456(7) -0.0194(14)
N3 N 0.1438(8) 0.5457(7) 0.2370(12)
H4 H 0.0785 0.5340 0.1897
C4 C 0.3636(9) 0.2879(7) 0.1741(12)
O8 O 0.2103(6) 0.2337(5) 0.3125(10)
N4 N 0.4054(7) 0.3613(5) 0.1263(10)
C5 C 0.4066(10) 0.2057(6) 0.1350(14)
H6 H 0.3731 0.1542 0.1684
C6 C 0.5402(9) 0.2802(7) 0.0007(13)
H7 H 0.6025 0.2795 -0.0605
C7 C 0.5046(9) 0.6082(6) 0.0135(15)
H8 H 0.5008 0.6138 -0.0872
H9 H 0.5780 0.6321 0.0443
C8 C 0.4079(12) 0.6593(6) 0.0785(14)
H10 H 0.4149 0.6560 0.1792
H11 H 0.4153 0.7207 0.0519
C9 C 0.2639(11) 0.2996(8) 0.2639(13)
C10 C 0.1257(10) 0.4089(8) 0.3657(17)
H12 H 0.1278 0.3842 0.4590
H13 H 0.0540 0.3914 0.3214
C11 C 0.1342(9) 0.5092(8) 0.3723(18)
H14 H 0.0660 0.5327 0.4179
H15 H 0.2011 0.5258 0.4273
N5 N 0.2930(7) 0.6277(5) 0.0375(12)
H16 H 0.2890 0.5699 0.0580
H17 H 0.2870 0.6328 -0.0558
C12 C 0.1641(16) 0.6412(9) 0.234(2)
H18 H 0.0958 0.6711 0.2681
H19 H 0.2276 0.6552 0.2958
O9 O 0.5815(6) 0.4529(4) -0.1322(9)
C13 C 0.1895(13) 0.6724(9) 0.1023(19)
H20 H 0.2042 0.7352 0.1080
H21 H 0.1229 0.6638 0.0424
O5? O 0.325(3) 0.3858(17) 0.775(3)
O6? O 0.262(2) 0.5169(18) 0.729(3)
O7? O 0.133(2) 0.3813(18) 0.727(3)
H5? H 0.2023 0.5188 0.1922
loop_
_geom_bond_atom_site_label_1
_geom_bond_atom_site_label_2
_geom_bond_site_symmetry_1
_geom_bond_site_symmetry_2
O1 Cl1 1_555 1_555
Cl1 O2 1_555 1_555
O3 Cl1 1_555 1_555
O4 Cl1 1_555 1_555
C1 C3 1_555 1_555
N1 H1 1_555 1_555
N2 H2 1_555 1_555
C2 H3 1_555 1_555
C3 N1 1_555 1_555
N3 H4 1_555 1_555
C4 N4 1_555 1_555
O8 C9 1_555 1_555
N4 C1 1_555 1_555
C5 C2 1_555 1_555
H6 C5 1_555 1_555
C6 C1 1_555 1_555
H7 C6 1_555 1_555
C7 N1 1_555 1_555
H8 C7 1_555 1_555
H9 C7 1_555 1_555
C8 C7 1_555 1_555
H10 C8 1_555 1_555
H11 C8 1_555 1_555
C9 N2 1_555 1_555
C10 N2 1_555 1_555
H12 C10 1_555 1_555
H13 C10 1_555 1_555
C11 N3 1_555 1_555
H14 C11 1_555 1_555
H15 C11 1_555 1_555
N5 C8 1_555 1_555
H16 N5 1_555 1_555
H17 N5 1_555 1_555
C12 N3 1_555 1_555
H18 C12 1_555 1_555
H19 C12 1_555 1_555
O9 C3 1_555 1_555
C13 N5 1_555 1_555
H20 C13 1_555 1_555
H21 C13 1_555 1_555
C2 C6 1_555 1_555
C4 C5 1_555 1_555
C4 C9 1_555 1_555
C10 C11 1_555 1_555
C12 C13 1_555 1_555

#END
