
#######################################################################
#
#                 Cambridge Crystallographic Data Centre
#                                CCDC 
#
#######################################################################
#
# If this CIF has been generated from an entry in the Cambridge 
# Structural Database, then it will include bibliographic, chemical, 
# crystal, experimental, refinement or atomic coordinate data resulting 
# from the CCDC's data processing and validation procedures.
#
#######################################################################

data_LODJEV
_chemical_formula_moiety         'C70,2(C28 H14),3(C6 H4 Cl2)'
_chemical_name_systematic        
'C70fullerene bis(acenaphtho[3,2,1,8-fghij]picene) 1,2-dichlorobenzene solvate'
_symmetry_cell_setting           triclinic
_symmetry_space_group_name_H-M   'P -1'
_symmetry_Int_Tables_number      2
_space_group_name_Hall           '-P 1'
loop_
_symmetry_equiv_pos_site_id
_symmetry_equiv_pos_as_xyz
1 x,y,z
2 -x,-y,-z
_cell_length_a                   15.8747(6)
_cell_length_b                   16.0091(6)
_cell_length_c                   18.2908(7)
_cell_angle_alpha                66.713(2)
_cell_angle_beta                 71.600(2)
_cell_angle_gamma                80.733(2)
_cell_volume                     4047.95
_exptl_crystal_colour            red
_exptl_crystal_description       needle
_cell_formula_units_Z            2
loop_
_atom_site_label
_atom_site_type_symbol
_atom_site_fract_x
_atom_site_fract_y
_atom_site_fract_z
C1 C 0.54063(10) 0.25285(9) 0.94858(8)
C2 C 0.60298(10) 0.19052(9) 0.98931(7)
C3 C 0.60213(9) 0.10433(8) 0.98310(7)
C4 C 0.53977(9) 0.11292(9) 0.93756(8)
C5 C 0.50315(9) 0.20339(10) 0.91597(9)
C6 C 0.56077(10) 0.34401(9) 0.90071(8)
C7 C 0.64492(10) 0.37751(8) 0.89331(7)
C8 C 0.70244(10) 0.31711(8) 0.93456(7)
C9 C 0.68066(10) 0.22229(9) 0.98282(7)
C10 C 0.76371(9) 0.16873(8) 0.96989(7)
C11 C 0.76353(9) 0.08496(8) 0.96327(6)
C12 C 0.68137(10) 0.05175(8) 0.96948(7)
C13 C 0.70020(9) 0.00811(7) 0.91224(7)
C14 C 0.64039(8) 0.01570(7) 0.86905(7)
C15 C 0.55787(8) 0.06906(8) 0.88061(8)
C16 C 0.54162(8) 0.11419(8) 0.80231(8)
C17 C 0.50573(8) 0.20298(9) 0.78055(9)
C18 C 0.48579(8) 0.24799(9) 0.83845(9)
C19 C 0.50697(8) 0.34189(9) 0.79186(9)
C20 C 0.54474(9) 0.38932(8) 0.82198(8)
C21 C 0.61404(9) 0.45030(7) 0.76504(7)
C22 C 0.67781(9) 0.44155(7) 0.81163(7)
C23 C 0.76855(9) 0.45159(7) 0.77078(7)
C24 C 0.83153(8) 0.38804(7) 0.81445(7)
C25 C 0.79648(9) 0.32274(8) 0.89246(7)
C26 C 0.83446(9) 0.22878(8) 0.91522(7)
C27 C 0.90609(8) 0.20501(9) 0.85852(8)
C28 C 0.90551(8) 0.11441(8) 0.85153(7)
C29 C 0.83255(8) 0.06152(8) 0.90204(7)
C30 C 0.79331(8) 0.01199(7) 0.86928(7)
C31 C 0.82801(8) 0.01806(7) 0.78728(7)
C32 C 0.76277(8) 0.02678(7) 0.74013(7)
C33 C 0.67240(8) 0.02780(7) 0.78234(7)
C34 C 0.61101(8) 0.09053(7) 0.74033(7)
C35 C 0.64000(8) 0.14875(7) 0.65855(7)
C36 C 0.60182(8) 0.24410(8) 0.63517(7)
C37 C 0.53895(8) 0.26694(9) 0.69820(8)
C38 C 0.53973(8) 0.35516(9) 0.70393(8)
C39 C 0.60443(8) 0.41684(8) 0.64759(7)
C40 C 0.64451(8) 0.46813(7) 0.68038(7)
C41 C 0.73155(9) 0.49459(7) 0.63799(7)
C42 C 0.79487(9) 0.48596(7) 0.68437(7)
C43 C 0.88030(9) 0.46845(7) 0.63537(8)
C44 C 0.93971(8) 0.40851(7) 0.67502(8)
C45 C 0.91306(8) 0.36734(8) 0.76517(7)
C46 C 0.95134(8) 0.27353(8) 0.78749(8)
C47 C 1.00003(8) 0.26181(9) 0.70990(10)
C48 C 0.99909(8) 0.17674(9) 0.70515(10)
C49 C 0.94994(8) 0.10626(8) 0.77478(9)
C50 C 0.90980(8) 0.05707(8) 0.74171(8)
C51 C 0.93639(9) 0.10013(8) 0.65374(8)
C52 C 0.87574(10) 0.10817(8) 0.61022(7)
C53 C 0.78920(9) 0.07307(7) 0.65460(7)
C54 C 0.72665(9) 0.13474(7) 0.61328(7)
C55 C 0.77640(10) 0.20636(8) 0.54446(7)
C56 C 0.73953(10) 0.29483(8) 0.52363(7)
C57 C 0.65420(9) 0.31250(8) 0.57220(7)
C58 C 0.65555(9) 0.40027(8) 0.57766(7)
C59 C 0.74355(10) 0.43367(8) 0.53247(7)
C60 C 0.78060(9) 0.48068(7) 0.56253(7)
C61 C 0.79504(11) 0.36984(9) 0.49830(7)
C62 C 0.86931(11) 0.18998(8) 0.54077(8)
C63 C 0.99206(9) 0.17475(9) 0.62933(9)
C64 C 0.99394(8) 0.34399(9) 0.64150(10)
C65 C 0.87383(10) 0.46417(8) 0.55996(8)
C66 C 0.88461(11) 0.35331(9) 0.49637(7)
C67 C 0.92246(11) 0.26218(9) 0.51767(8)
C68 C 0.98485(9) 0.25501(9) 0.56183(9)
C69 C 0.98632(10) 0.34135(9) 0.56812(9)
C70 C 0.92473(10) 0.40174(8) 0.52681(8)
C71 C 0.92626(7) 0.80483(6) 0.79383(5)
C72 C 0.91116(6) 0.79487(6) 0.87669(5)
C73 C 0.98583(6) 0.82911(6) 0.88235(5)
C74 C 1.04608(6) 0.85987(6) 0.80293(5)
C75 C 1.00987(6) 0.84396(6) 0.74770(5)
C76 C 0.85961(7) 0.81331(6) 0.75789(6)
C77 C 0.77210(7) 0.79898(6) 0.81628(6)
H1 H 0.7232 0.7967 0.7978
C78 C 0.75738(7) 0.78852(6) 0.89810(6)
H2 H 0.6988 0.7788 0.9342
C79 C 0.82861(6) 0.79200(6) 0.93042(5)
C80 C 0.82473(7) 0.80691(6) 1.00560(6)
C81 C 0.74628(7) 0.79262(6) 1.07119(5)
H3 H 0.6957 0.7720 1.0672
C82 C 0.74178(7) 0.80817(6) 1.14131(6)
H4 H 0.6886 0.7968 1.1856
C83 C 0.81420(7) 0.84025(6) 1.14776(6)
H5 H 0.8103 0.8509 1.1963
C84 C 0.89182(7) 0.85670(6) 1.08409(5)
H6 H 0.9406 0.8793 1.0892
C85 C 0.90019(6) 0.84082(6) 1.01219(5)
C86 C 0.98289(6) 0.86049(6) 0.94321(5)
C87 C 1.05256(6) 0.91801(6) 0.92324(6)
H7 H 1.0589 0.9362 0.9647
C88 C 1.11212(6) 0.94864(6) 0.84410(5)
H8 H 1.1581 0.9867 0.8335
C89 C 1.10602(6) 0.92449(6) 0.77884(6)
C90 C 1.14407(6) 0.96714(6) 0.68803(6)
C91 C 1.21347(7) 1.02739(6) 0.65403(6)
H9 H 1.2369 1.0404 0.6900
C92 C 1.24832(7) 1.06813(6) 0.56951(6)
H10 H 1.2955 1.1086 0.5479
C93 C 1.21502(7) 1.05043(6) 0.51586(6)
H11 H 1.2396 1.0782 0.4577
C94 C 1.14644(7) 0.99260(6) 0.54697(6)
H12 H 1.1238 0.9814 0.5095
C95 C 1.10880(7) 0.94953(6) 0.63230(6)
C96 C 1.03233(6) 0.89121(6) 0.66415(6)
C97 C 0.96864(7) 0.88745(6) 0.62414(6)
H13 H 0.9838 0.9107 0.5653
C98 C 0.88652(7) 0.85124(6) 0.66849(6)
H14 H 0.8464 0.8512 0.6394
C99 C 0.57192(6) 0.69344(6) 0.71122(5)
C100 C 0.48873(6) 0.65359(6) 0.75584(5)
C101 C 0.45370(6) 0.63887(6) 0.69931(5)
C102 C 0.51503(6) 0.67161(6) 0.61964(5)
C103 C 0.58858(7) 0.70533(6) 0.62736(5)
C104 C 0.63865(7) 0.68461(6) 0.74765(5)
C105 C 0.61067(7) 0.64503(6) 0.83740(6)
H15 H 0.6499 0.6445 0.8675
C106 C 0.52808(7) 0.60799(6) 0.88027(6)
H16 H 0.5121 0.5840 0.9391
C107 C 0.46589(7) 0.60434(6) 0.83961(5)
C108 C 0.39038(7) 0.54571(6) 0.86974(6)
C109 C 0.35243(7) 0.50009(6) 0.95491(6)
H17 H 0.3738 0.5098 0.9938
C110 C 0.28487(7) 0.44168(7) 0.98278(6)
H18 H 0.2606 0.4112 1.0407
C111 C 0.25176(7) 0.42662(6) 0.92828(6)
H19 H 0.2050 0.3860 0.9486
C112 C 0.28646(7) 0.47056(6) 0.84387(6)
H20 H 0.2630 0.4600 0.8067
C113 C 0.35577(7) 0.53056(6) 0.81233(6)
C114 C 0.39411(6) 0.57415(6) 0.72201(6)
C115 C 0.39089(7) 0.55048(6) 0.65542(5)
H21 H 0.3460 0.5118 0.6647
C116 C 0.45095(7) 0.58207(6) 0.57791(6)
H22 H 0.4461 0.5638 0.5360
C117 C 0.51993(6) 0.64097(6) 0.55831(5)
C118 C 0.60331(6) 0.66132(6) 0.49072(5)
C119 C 0.61329(7) 0.64423(6) 0.41918(5)
H23 H 0.5652 0.6209 0.4137
C120 C 0.69167(7) 0.66063(6) 0.35630(6)
H24 H 0.6968 0.6488 0.3081
C121 C 0.76301(7) 0.69417(6) 0.36294(6)
H25 H 0.8165 0.7060 0.3191
C122 C 0.75633(7) 0.71038(6) 0.43297(6)
H26 H 0.8061 0.7319 0.4375
C123 C 0.67691(7) 0.69576(6) 0.49835(5)
C124 C 0.67211(7) 0.71072(6) 0.57393(5)
C125 C 0.74174(7) 0.71342(6) 0.60774(6)
H27 H 0.8004 0.7246 0.5721
C126 C 0.72627(7) 0.70024(6) 0.69072(6)
H28 H 0.7746 0.7016 0.7103
Cl1 Cl 0.358970(17) 0.012611(17) 0.806637(15)
Cl2 Cl 0.513202(17) -0.137881(16) 0.806701(14)
C127 C 0.43729(6) 0.01598(6) 0.71509(5)
C128 C 0.43318(7) 0.08671(6) 0.64208(6)
H29 H 0.3883 0.1337 0.6426
C129 C 0.49436(7) 0.08926(7) 0.56798(6)
H30 H 0.4916 0.1379 0.5177
C130 C 0.56014(7) 0.02002(6) 0.56760(6)
H31 H 0.6018 0.0210 0.5169
C131 C 0.56456(7) -0.04980(6) 0.64092(6)
H32 H 0.6092 -0.0970 0.6405
C132 C 0.50441(6) -0.05152(6) 0.71500(5)
Cl3 Cl 0.131328(18) 0.473723(17) 0.703507(15)
Cl4 Cl -0.020026(18) 0.627895(17) 0.701126(15)
C133 C 0.05145(6) 0.47179(5) 0.79441(5)
C134 C 0.05455(7) 0.39995(6) 0.86780(6)
H33 H 0.0987 0.3522 0.8680
C135 C -0.00782(7) 0.39924(7) 0.94075(6)
H34 H -0.0064 0.3508 0.9915
C136 C -0.07210(8) 0.46866(7) 0.94008(6)
H35 H -0.1143 0.4680 0.9904
C137 C -0.07530(7) 0.53901(7) 0.86661(6)
H36 H -0.1197 0.5866 0.8665
C138 C -0.01437(6) 0.54040(6) 0.79348(5)
Cl5 Cl 0.126685(18) 0.643257(17) 0.814503(16)
Cl6 Cl 0.223299(19) 0.719000(18) 0.900077(15)
C139 C 0.21164(6) 0.71796(6) 0.75566(6)
C140 C 0.23643(7) 0.74533(7) 0.66973(6)
H37 H 0.2066 0.7233 0.6438
C141 C 0.30487(7) 0.80500(6) 0.62200(6)
H38 H 0.3224 0.8236 0.5634
C142 C 0.34738(7) 0.83718(7) 0.66064(6)
H39 H 0.3942 0.8779 0.6281
C143 C 0.32269(7) 0.81096(6) 0.74551(6)
H40 H 0.3518 0.8339 0.7714
C144 C 0.25482(7) 0.75073(6) 0.79292(6)
Cl7? Cl 0.27719(17) 0.78128(15) 0.59970(15)
Cl8? Cl 0.37167(18) 0.85695(18) 0.68621(17)
C145? C 0.24447(14) 0.74969(12) 0.70604(19)
C146? C 0.1765(3) 0.6911(3) 0.7533(2)
H41? H 0.1477 0.6687 0.7268
C147? C 0.1489(3) 0.6639(3) 0.8389(2)
H42? H 0.1020 0.6230 0.8704
C148? C 0.1895(3) 0.6961(3) 0.8778(3)
H43? H 0.1721 0.6773 0.9365
C149? C 0.2564(3) 0.7565(3) 0.8295(2)
H44? H 0.2833 0.7807 0.8561
C150? C 0.2858(3) 0.7832(3) 0.7449(2)
loop_
_geom_bond_atom_site_label_1
_geom_bond_atom_site_label_2
_geom_bond_site_symmetry_1
_geom_bond_site_symmetry_2
C1 C2 1_555 1_555
C2 C3 1_555 1_555
C3 C4 1_555 1_555
C4 C5 1_555 1_555
C5 C1 1_555 1_555
C6 C1 1_555 1_555
C7 C6 1_555 1_555
C8 C7 1_555 1_555
C9 C2 1_555 1_555
C10 C9 1_555 1_555
C11 C10 1_555 1_555
C12 C3 1_555 1_555
C13 C12 1_555 1_555
C14 C13 1_555 1_555
C15 C4 1_555 1_555
C16 C15 1_555 1_555
C17 C16 1_555 1_555
C18 C5 1_555 1_555
C19 C18 1_555 1_555
C20 C6 1_555 1_555
C21 C20 1_555 1_555
C22 C7 1_555 1_555
C23 C22 1_555 1_555
C24 C23 1_555 1_555
C25 C8 1_555 1_555
C26 C10 1_555 1_555
C27 C26 1_555 1_555
C28 C27 1_555 1_555
C29 C11 1_555 1_555
C30 C13 1_555 1_555
C31 C30 1_555 1_555
C32 C31 1_555 1_555
C33 C14 1_555 1_555
C34 C16 1_555 1_555
C35 C34 1_555 1_555
C36 C35 1_555 1_555
C37 C17 1_555 1_555
C38 C19 1_555 1_555
C39 C38 1_555 1_555
C40 C21 1_555 1_555
C41 C40 1_555 1_555
C42 C23 1_555 1_555
C43 C42 1_555 1_555
C44 C43 1_555 1_555
C45 C24 1_555 1_555
C46 C27 1_555 1_555
C47 C46 1_555 1_555
C48 C47 1_555 1_555
C49 C28 1_555 1_555
C50 C31 1_555 1_555
C51 C50 1_555 1_555
C52 C51 1_555 1_555
C53 C32 1_555 1_555
C54 C35 1_555 1_555
C55 C54 1_555 1_555
C56 C55 1_555 1_555
C57 C36 1_555 1_555
C58 C39 1_555 1_555
C59 C58 1_555 1_555
C60 C41 1_555 1_555
C61 C56 1_555 1_555
C62 C52 1_555 1_555
C63 C48 1_555 1_555
C64 C44 1_555 1_555
C65 C43 1_555 1_555
C66 C61 1_555 1_555
C67 C62 1_555 1_555
C68 C63 1_555 1_555
C69 C64 1_555 1_555
C70 C65 1_555 1_555
C71 C72 1_555 1_555
C72 C73 1_555 1_555
C73 C74 1_555 1_555
C74 C75 1_555 1_555
C75 C71 1_555 1_555
C76 C71 1_555 1_555
C77 C76 1_555 1_555
H1 C77 1_555 1_555
C78 C77 1_555 1_555
H2 C78 1_555 1_555
C79 C72 1_555 1_555
C80 C79 1_555 1_555
C81 C80 1_555 1_555
H3 C81 1_555 1_555
C82 C81 1_555 1_555
H4 C82 1_555 1_555
C83 C82 1_555 1_555
H5 C83 1_555 1_555
C84 C83 1_555 1_555
H6 C84 1_555 1_555
C85 C80 1_555 1_555
C86 C73 1_555 1_555
C87 C86 1_555 1_555
H7 C87 1_555 1_555
C88 C87 1_555 1_555
H8 C88 1_555 1_555
C89 C74 1_555 1_555
C90 C89 1_555 1_555
C91 C90 1_555 1_555
H9 C91 1_555 1_555
C92 C91 1_555 1_555
H10 C92 1_555 1_555
C93 C92 1_555 1_555
H11 C93 1_555 1_555
C94 C93 1_555 1_555
H12 C94 1_555 1_555
C95 C90 1_555 1_555
C96 C75 1_555 1_555
C97 C96 1_555 1_555
H13 C97 1_555 1_555
C98 C76 1_555 1_555
H14 C98 1_555 1_555
C99 C100 1_555 1_555
C100 C101 1_555 1_555
C101 C102 1_555 1_555
C102 C103 1_555 1_555
C103 C99 1_555 1_555
C104 C99 1_555 1_555
C105 C104 1_555 1_555
H15 C105 1_555 1_555
C106 C105 1_555 1_555
H16 C106 1_555 1_555
C107 C100 1_555 1_555
C108 C107 1_555 1_555
C109 C108 1_555 1_555
H17 C109 1_555 1_555
C110 C109 1_555 1_555
H18 C110 1_555 1_555
C111 C110 1_555 1_555
H19 C111 1_555 1_555
C112 C111 1_555 1_555
H20 C112 1_555 1_555
C113 C108 1_555 1_555
C114 C101 1_555 1_555
C115 C114 1_555 1_555
H21 C115 1_555 1_555
C116 C115 1_555 1_555
H22 C116 1_555 1_555
C117 C102 1_555 1_555
C118 C117 1_555 1_555
C119 C118 1_555 1_555
H23 C119 1_555 1_555
C120 C119 1_555 1_555
H24 C120 1_555 1_555
C121 C120 1_555 1_555
H25 C121 1_555 1_555
C122 C121 1_555 1_555
H26 C122 1_555 1_555
C123 C118 1_555 1_555
C124 C103 1_555 1_555
C125 C124 1_555 1_555
H27 C125 1_555 1_555
C126 C104 1_555 1_555
H28 C126 1_555 1_555
Cl1 C127 1_555 1_555
Cl2 C132 1_555 1_555
C127 C128 1_555 1_555
C128 H29 1_555 1_555
C129 C128 1_555 1_555
H30 C129 1_555 1_555
C130 C129 1_555 1_555
H31 C130 1_555 1_555
C131 C130 1_555 1_555
H32 C131 1_555 1_555
C132 C127 1_555 1_555
Cl3 C133 1_555 1_555
Cl4 C138 1_555 1_555
C133 C134 1_555 1_555
C134 H33 1_555 1_555
C135 C134 1_555 1_555
H34 C135 1_555 1_555
C136 C135 1_555 1_555
H35 C136 1_555 1_555
C137 C136 1_555 1_555
H36 C137 1_555 1_555
C138 C133 1_555 1_555
Cl5 C139 1_555 1_555
Cl6 C144 1_555 1_555
C139 C140 1_555 1_555
C140 H37 1_555 1_555
C141 C140 1_555 1_555
H38 C141 1_555 1_555
C142 C141 1_555 1_555
H39 C142 1_555 1_555
C143 C142 1_555 1_555
H40 C143 1_555 1_555
C144 C139 1_555 1_555
C8 C9 1_555 1_555
C11 C12 1_555 1_555
C14 C15 1_555 1_555
C17 C18 1_555 1_555
C19 C20 1_555 1_555
C21 C22 1_555 1_555
C24 C25 1_555 1_555
C25 C26 1_555 1_555
C28 C29 1_555 1_555
C29 C30 1_555 1_555
C32 C33 1_555 1_555
C33 C34 1_555 1_555
C36 C37 1_555 1_555
C37 C38 1_555 1_555
C39 C40 1_555 1_555
C41 C42 1_555 1_555
C44 C45 1_555 1_555
C45 C46 1_555 1_555
C47 C64 1_555 1_555
C48 C49 1_555 1_555
C49 C50 1_555 1_555
C51 C63 1_555 1_555
C52 C53 1_555 1_555
C53 C54 1_555 1_555
C55 C62 1_555 1_555
C56 C57 1_555 1_555
C57 C58 1_555 1_555
C59 C60 1_555 1_555
C59 C61 1_555 1_555
C60 C65 1_555 1_555
C66 C67 1_555 1_555
C66 C70 1_555 1_555
C67 C68 1_555 1_555
C68 C69 1_555 1_555
C69 C70 1_555 1_555
C78 C79 1_555 1_555
C84 C85 1_555 1_555
C85 C86 1_555 1_555
C88 C89 1_555 1_555
C94 C95 1_555 1_555
C95 C96 1_555 1_555
C97 C98 1_555 1_555
C106 C107 1_555 1_555
C112 C113 1_555 1_555
C113 C114 1_555 1_555
C116 C117 1_555 1_555
C122 C123 1_555 1_555
C123 C124 1_555 1_555
C125 C126 1_555 1_555
C131 C132 1_555 1_555
C137 C138 1_555 1_555
C143 C144 1_555 1_555

#END
