
#######################################################################
#
#                 Cambridge Crystallographic Data Centre
#                                CCDC 
#
#######################################################################
#
# If this CIF has been generated from an entry in the Cambridge 
# Structural Database, then it will include bibliographic, chemical, 
# crystal, experimental, refinement or atomic coordinate data resulting 
# from the CCDC's data processing and validation procedures.
#
#######################################################################

data_LODLIB
_chemical_formula_moiety         'C25 H20 N2 O1,C6 H6 O1'
_chemical_name_systematic        
'1-(5-(9-anthryl)-3-phenyl-4,5-dihydro-1H-pyrazol-1-yl)ethanone phenol solvate'
_symmetry_cell_setting           orthorhombic
_symmetry_space_group_name_H-M   'P c a 21'
_symmetry_Int_Tables_number      29
_space_group_name_Hall           'P 2c -2ac'
loop_
_symmetry_equiv_pos_site_id
_symmetry_equiv_pos_as_xyz
1 x,y,z
2 -x,-y,1/2+z
3 1/2+x,-y,z
4 1/2-x,y,1/2+z
_cell_length_a                   22.826(5)
_cell_length_b                   10.082(2)
_cell_length_c                   10.677(2)
_cell_angle_alpha                90
_cell_angle_beta                 90
_cell_angle_gamma                90
_cell_volume                     2457.12
_cell_formula_units_Z            4
loop_
_atom_site_label
_atom_site_type_symbol
_atom_site_fract_x
_atom_site_fract_y
_atom_site_fract_z
N1 N 0.5513(3) 0.3497(6) 0.5293(6)
C1 C 0.6848(4) 0.4224(8) 0.8509(10)
H1 H 0.6651 0.5021 0.8631
O1 O 0.4699(2) 0.3278(5) 0.4182(7)
N2 N 0.5998(2) 0.2919(6) 0.5907(6)
C2 C 0.7305(3) 0.3905(9) 0.9262(10)
H2 H 0.7415 0.4477 0.9904
C3 C 0.7618(4) 0.2706(9) 0.9077(11)
H3 H 0.7942 0.2491 0.9564
C4 C 0.7428(3) 0.1900(9) 0.8177(8)
H4 H 0.7619 0.1097 0.8053
C5 C 0.6964(3) 0.2209(8) 0.7432(8)
H5 H 0.6842 0.1614 0.6819
C6 C 0.6673(3) 0.3394(7) 0.7579(8)
C7 C 0.6168(3) 0.3735(6) 0.6835(8)
C8 C 0.5826(3) 0.4964(8) 0.6864(8)
H6 H 0.6071 0.5721 0.6665
H7 H 0.5653 0.5098 0.7684
C9 C 0.5362(3) 0.4786(6) 0.5899(7)
H8 H 0.4995 0.4638 0.6356
C10 C 0.5171(4) 0.2799(7) 0.4613(7)
C11 C 0.5353(4) 0.1393(6) 0.4199(10)
H9 H 0.5032 0.0974 0.3774
H10 H 0.5458 0.0878 0.4922
H11 H 0.5683 0.1450 0.3644
C12 C 0.5242(4) 0.5941(7) 0.4978(8)
C13 C 0.4747(3) 0.6750(7) 0.5161(8)
C14 C 0.4356(3) 0.6651(8) 0.6164(8)
H12 H 0.4426 0.5968 0.6729
C15 C 0.3891(4) 0.7427(9) 0.6408(11)
H13 H 0.3644 0.7308 0.7091
C16 C 0.3817(4) 0.8499(9) 0.5461(12)
H14 H 0.3515 0.9100 0.5599
C17 C 0.4143(4) 0.8685(8) 0.4425(9)
H15 H 0.4052 0.9326 0.3830
C18 C 0.4650(3) 0.7810(6) 0.4304(8)
C19 C 0.5036(3) 0.7952(8) 0.3272(9)
H16 H 0.4947 0.8584 0.2667
C20 C 0.5538(4) 0.7200(8) 0.3118(8)
C21 C 0.5907(5) 0.7425(8) 0.2081(8)
H17 H 0.5808 0.8055 0.1480
C22 C 0.6404(5) 0.6714(10) 0.1974(13)
H18 H 0.6661 0.6866 0.1314
C23 C 0.6522(4) 0.5769(9) 0.2850(10)
H19 H 0.6871 0.5305 0.2753
C24 C 0.6188(3) 0.5435(7) 0.3838(9)
H20 H 0.6296 0.4763 0.4389
C25 C 0.5647(3) 0.6188(7) 0.3995(7)
O2 O 0.6395(3) 0.7776(6) 0.8935(6)
H21 H 0.6062 0.7467 0.8958
C26 C 0.6524(4) 0.8187(7) 0.7703(7)
C27 C 0.6103(4) 0.8443(8) 0.6786(9)
H22 H 0.5710 0.8327 0.6981
C28 C 0.6241(5) 0.8825(8) 0.5704(10)
H23 H 0.5940 0.9055 0.5160
C29 C 0.6830(6) 0.8931(9) 0.5252(12)
H24 H 0.6923 0.9169 0.4435
C30 C 0.7248(4) 0.8641(10) 0.6161(11)
H25 H 0.7642 0.8695 0.5946
C31 C 0.7098(4) 0.8265(9) 0.7408(11)
H26 H 0.7387 0.8079 0.7999
loop_
_geom_bond_atom_site_label_1
_geom_bond_atom_site_label_2
_geom_bond_site_symmetry_1
_geom_bond_site_symmetry_2
N1 N2 1_555 1_555
C1 H1 1_555 1_555
O1 C10 1_555 1_555
N2 C7 1_555 1_555
C2 C1 1_555 1_555
H2 C2 1_555 1_555
C3 C2 1_555 1_555
H3 C3 1_555 1_555
C4 C3 1_555 1_555
H4 C4 1_555 1_555
C5 C4 1_555 1_555
H5 C5 1_555 1_555
C6 C1 1_555 1_555
C7 C6 1_555 1_555
C8 C7 1_555 1_555
H6 C8 1_555 1_555
H7 C8 1_555 1_555
C9 N1 1_555 1_555
H8 C9 1_555 1_555
C10 N1 1_555 1_555
C11 C10 1_555 1_555
H9 C11 1_555 1_555
H10 C11 1_555 1_555
H11 C11 1_555 1_555
C12 C9 1_555 1_555
C13 C12 1_555 1_555
C14 C13 1_555 1_555
H12 C14 1_555 1_555
C15 C14 1_555 1_555
H13 C15 1_555 1_555
C16 C15 1_555 1_555
H14 C16 1_555 1_555
C17 C16 1_555 1_555
H15 C17 1_555 1_555
C18 C13 1_555 1_555
C19 C18 1_555 1_555
H16 C19 1_555 1_555
C20 C19 1_555 1_555
C21 C20 1_555 1_555
H17 C21 1_555 1_555
C22 C21 1_555 1_555
H18 C22 1_555 1_555
C23 C22 1_555 1_555
H19 C23 1_555 1_555
C24 C23 1_555 1_555
H20 C24 1_555 1_555
C25 C12 1_555 1_555
O2 H21 1_555 1_555
C26 O2 1_555 1_555
C27 C26 1_555 1_555
H22 C27 1_555 1_555
C28 C27 1_555 1_555
H23 C28 1_555 1_555
C29 C28 1_555 1_555
H24 C29 1_555 1_555
C30 C29 1_555 1_555
H25 C30 1_555 1_555
C31 C26 1_555 1_555
H26 C31 1_555 1_555
C5 C6 1_555 1_555
C8 C9 1_555 1_555
C17 C18 1_555 1_555
C20 C25 1_555 1_555
C24 C25 1_555 1_555
C30 C31 1_555 1_555

#END
