
#######################################################################
#
#                 Cambridge Crystallographic Data Centre
#                                CCDC 
#
#######################################################################
#
# If this CIF has been generated from an entry in the Cambridge 
# Structural Database, then it will include bibliographic, chemical, 
# crystal, experimental, refinement or atomic coordinate data resulting 
# from the CCDC's data processing and validation procedures.
#
#######################################################################

data_LODLEX
_chemical_formula_moiety         'C25 H20 N2 O1,H2 O1'
_chemical_name_systematic        
'1-(5-(9-anthryl)-3-phenyl-4,5-dihydro-1H-pyrazol-1-yl)ethanone monohydrate'
_symmetry_cell_setting           monoclinic
_symmetry_space_group_name_H-M   'P 21/n'
_symmetry_Int_Tables_number      14
_space_group_name_Hall           '-P 2yn'
loop_
_symmetry_equiv_pos_site_id
_symmetry_equiv_pos_as_xyz
1 x,y,z
2 1/2-x,1/2+y,1/2-z
3 -x,-y,-z
4 1/2+x,1/2-y,1/2+z
_cell_length_a                   10.258(2)
_cell_length_b                   12.272(3)
_cell_length_c                   16.034(3)
_cell_angle_alpha                90
_cell_angle_beta                 105.53(3)
_cell_angle_gamma                90
_cell_volume                     1944.77
_cell_formula_units_Z            4
loop_
_atom_site_label
_atom_site_type_symbol
_atom_site_fract_x
_atom_site_fract_y
_atom_site_fract_z
O1 O 0.6650(2) 0.2937(2) 0.13784(15)
N1 N 0.5434(3) 0.2171(2) 0.31389(17)
C1 C 0.6891(3) 0.0110(3) 0.1678(2)
N2 N 0.6164(3) 0.2156(2) 0.25142(16)
C2 C 0.5576(4) -0.0058(3) 0.1791(2)
H1 H 0.5321 0.0322 0.2224
C3 C 0.4676(4) -0.0767(3) 0.1278(3)
H2 H 0.3835 -0.0881 0.1379
C4 C 0.5016(5) -0.1314(3) 0.0609(3)
H3 H 0.4379 -0.1757 0.0241
C5 C 0.6252(5) -0.1210(3) 0.0487(2)
H4 H 0.6462 -0.1604 0.0045
C6 C 0.7265(4) -0.0508(3) 0.1018(2)
C7 C 0.8555(4) -0.0434(3) 0.0919(2)
H5 H 0.8768 -0.0839 0.0483
C8 C 0.9547(4) 0.0214(3) 0.1440(2)
C9 C 1.0901(4) 0.0259(3) 0.1343(3)
H6 H 1.1118 -0.0144 0.0908
C10 C 1.1850(4) 0.0871(4) 0.1871(3)
H7 H 1.2714 0.0906 0.1790
C11 C 1.1550(4) 0.1459(3) 0.2544(3)
H8 H 1.2230 0.1854 0.2924
C12 C 1.0277(4) 0.1463(3) 0.2650(2)
H9 H 1.0106 0.1872 0.3098
C13 C 0.9201(3) 0.0861(3) 0.2098(2)
C14 C 0.7871(3) 0.0822(3) 0.21846(19)
C15 C 0.7477(3) 0.1612(3) 0.28247(19)
H10 H 0.8169 0.2183 0.2962
C16 C 0.7381(3) 0.1120(3) 0.36868(19)
H11 H 0.7317 0.0332 0.3655
H12 H 0.8153 0.1325 0.4158
C17 C 0.6105(3) 0.1618(3) 0.37888(19)
C18 C 0.5839(4) 0.2842(3) 0.1822(2)
C19 C 0.4491(4) 0.3384(3) 0.1635(2)
H13 H 0.4373 0.3845 0.1136
H14 H 0.4439 0.3816 0.2124
H15 H 0.3792 0.2841 0.1524
C20 C 0.5627(3) 0.1572(3) 0.4590(2)
C21 C 0.6308(4) 0.0925(3) 0.5270(2)
H16 H 0.7041 0.0502 0.5229
C22 C 0.5863(4) 0.0923(3) 0.6033(2)
H17 H 0.6329 0.0511 0.6506
C23 C 0.4793(4) 0.1499(3) 0.6083(3)
H18 H 0.4506 0.1468 0.6586
C24 C 0.4099(4) 0.2140(3) 0.5409(2)
H19 H 0.3359 0.2549 0.5457
C25 C 0.4517(3) 0.2168(3) 0.4659(2)
H20 H 0.4046 0.2592 0.4195
O2 O 0.5872(3) 0.4148(2) -0.01552(18)
H21 H 0.5579 0.3511 -0.0099
H22 H 0.6155 0.4413 0.0351
loop_
_geom_bond_atom_site_label_1
_geom_bond_atom_site_label_2
_geom_bond_site_symmetry_1
_geom_bond_site_symmetry_2
O1 C18 1_555 1_555
N1 N2 1_555 1_555
C1 C2 1_555 1_555
N2 C15 1_555 1_555
C2 H1 1_555 1_555
C3 C2 1_555 1_555
H2 C3 1_555 1_555
C4 C3 1_555 1_555
H3 C4 1_555 1_555
C5 C4 1_555 1_555
H4 C5 1_555 1_555
C6 C1 1_555 1_555
C7 C6 1_555 1_555
H5 C7 1_555 1_555
C8 C7 1_555 1_555
C9 C8 1_555 1_555
H6 C9 1_555 1_555
C10 C9 1_555 1_555
H7 C10 1_555 1_555
C11 C10 1_555 1_555
H8 C11 1_555 1_555
C12 C11 1_555 1_555
H9 C12 1_555 1_555
C13 C8 1_555 1_555
C14 C1 1_555 1_555
C15 C14 1_555 1_555
H10 C15 1_555 1_555
C16 C15 1_555 1_555
H11 C16 1_555 1_555
H12 C16 1_555 1_555
C17 N1 1_555 1_555
C18 N2 1_555 1_555
C19 C18 1_555 1_555
H13 C19 1_555 1_555
H14 C19 1_555 1_555
H15 C19 1_555 1_555
C20 C17 1_555 1_555
C21 C20 1_555 1_555
H16 C21 1_555 1_555
C22 C21 1_555 1_555
H17 C22 1_555 1_555
C23 C22 1_555 1_555
H18 C23 1_555 1_555
C24 C23 1_555 1_555
H19 C24 1_555 1_555
C25 C20 1_555 1_555
H20 C25 1_555 1_555
O2 H21 1_555 1_555
H22 O2 1_555 1_555
C5 C6 1_555 1_555
C12 C13 1_555 1_555
C13 C14 1_555 1_555
C16 C17 1_555 1_555
C24 C25 1_555 1_555

#END
