
#######################################################################
#
#                 Cambridge Crystallographic Data Centre
#                                CCDC 
#
#######################################################################
#
# If this CIF has been generated from an entry in the Cambridge 
# Structural Database, then it will include bibliographic, chemical, 
# crystal, experimental, refinement or atomic coordinate data resulting 
# from the CCDC's data processing and validation procedures.
#
#######################################################################

data_LODSAA
_chemical_formula_moiety         'C21 H16 F2 O2 S1'
_chemical_name_systematic        
'1,2-bis(4-fluorophenyl)vinyl 4-methylphenyl sulfone'
_symmetry_cell_setting           monoclinic
_symmetry_space_group_name_H-M   'P 21/n'
_symmetry_Int_Tables_number      14
_space_group_name_Hall           '-P 2yn'
loop_
_symmetry_equiv_pos_site_id
_symmetry_equiv_pos_as_xyz
1 x,y,z
2 1/2-x,1/2+y,1/2-z
3 -x,-y,-z
4 1/2+x,1/2-y,1/2+z
_cell_length_a                   12.3430(9)
_cell_length_b                   5.7877(4)
_cell_length_c                   25.3347(17)
_cell_angle_alpha                90
_cell_angle_beta                 102.433(2)
_cell_angle_gamma                90
_cell_volume                     1767.41
_exptl_crystal_colour            colorless
_cell_formula_units_Z            4
loop_
_atom_site_label
_atom_site_type_symbol
_atom_site_fract_x
_atom_site_fract_y
_atom_site_fract_z
S1 S 0.34545(4) 0.61344(10) 0.05780(2)
F1 F 0.83947(13) -0.2993(3) 0.18756(6)
F2 F 0.39394(16) 0.5390(3) 0.31801(5)
O1 O 0.35554(13) 0.8514(3) 0.07453(8)
O2 O 0.35733(13) 0.5566(3) 0.00408(6)
C1 C -0.0994(2) 0.2576(5) 0.08524(13)
H1 H -0.1104 0.2956 0.1206
H2 H -0.1006 0.0928 0.0809
H3 H -0.1575 0.3254 0.0584
C2 C 0.01176(17) 0.3508(4) 0.07874(9)
C3 C 0.0762(2) 0.2245(4) 0.05129(10)
H4 H 0.0504 0.0819 0.0369
C4 C 0.17815(19) 0.3026(4) 0.04437(9)
H5 H 0.2204 0.2144 0.0256
C5 C 0.21553(16) 0.5131(3) 0.06576(8)
C6 C 0.44149(16) 0.4466(3) 0.10486(8)
C7 C 0.50850(16) 0.3068(3) 0.08486(8)
H6 H 0.4982 0.3063 0.0474
C8 C 0.59646(15) 0.1534(3) 0.11376(8)
C9 C 0.65200(17) 0.1851(4) 0.16703(9)
H7 H 0.6335 0.3099 0.1865
C10 C 0.73433(19) 0.0346(4) 0.19171(9)
H8 H 0.7722 0.0582 0.2272
C11 C 0.75865(18) -0.1494(4) 0.16276(10)
C12 C 0.0523(2) 0.5578(4) 0.10026(10)
H9 H 0.0104 0.6455 0.1193
C13 C 0.15412(19) 0.6397(4) 0.09437(9)
H10 H 0.1808 0.7801 0.1097
C14 C 0.70659(18) -0.1892(4) 0.11048(10)
H11 H 0.7245 -0.3171 0.0918
C15 C 0.62704(17) -0.0353(4) 0.08616(9)
H12 H 0.5924 -0.0576 0.0501
C16 C 0.43148(16) 0.4726(3) 0.16201(8)
C17 C 0.37958(18) 0.3001(4) 0.18569(8)
H13 H 0.3528 0.1691 0.1659
C18 C 0.3674(2) 0.3219(4) 0.23846(9)
H14 H 0.3332 0.2066 0.2546
C19 C 0.4069(2) 0.5165(4) 0.26619(9)
C20 C 0.4587(2) 0.6895(4) 0.24485(9)
H15 H 0.4860 0.8186 0.2653
C21 C 0.46948(18) 0.6679(4) 0.19199(9)
H16 H 0.5027 0.7860 0.1763
loop_
_geom_bond_atom_site_label_1
_geom_bond_atom_site_label_2
_geom_bond_site_symmetry_1
_geom_bond_site_symmetry_2
S1 O1 1_555 1_555
F1 C11 1_555 1_555
F2 C19 1_555 1_555
O2 S1 1_555 1_555
C1 H1 1_555 1_555
H2 C1 1_555 1_555
H3 C1 1_555 1_555
C2 C1 1_555 1_555
C3 C2 1_555 1_555
H4 C3 1_555 1_555
C4 C3 1_555 1_555
H5 C4 1_555 1_555
C5 S1 1_555 1_555
C6 S1 1_555 1_555
C7 C6 1_555 1_555
H6 C7 1_555 1_555
C8 C7 1_555 1_555
C9 C8 1_555 1_555
H7 C9 1_555 1_555
C10 C9 1_555 1_555
H8 C10 1_555 1_555
C11 C10 1_555 1_555
C12 C2 1_555 1_555
H9 C12 1_555 1_555
C13 C5 1_555 1_555
H10 C13 1_555 1_555
C14 C11 1_555 1_555
H11 C14 1_555 1_555
C15 C8 1_555 1_555
H12 C15 1_555 1_555
C16 C6 1_555 1_555
C17 C16 1_555 1_555
H13 C17 1_555 1_555
C18 C17 1_555 1_555
H14 C18 1_555 1_555
C19 C18 1_555 1_555
C20 C19 1_555 1_555
H15 C20 1_555 1_555
C21 C16 1_555 1_555
H16 C21 1_555 1_555
C4 C5 1_555 1_555
C12 C13 1_555 1_555
C14 C15 1_555 1_555
C20 C21 1_555 1_555

#END
