
#######################################################################
#
#                 Cambridge Crystallographic Data Centre
#                                CCDC 
#
#######################################################################
#
# If this CIF has been generated from an entry in the Cambridge 
# Structural Database, then it will include bibliographic, chemical, 
# crystal, experimental, refinement or atomic coordinate data resulting 
# from the CCDC's data processing and validation procedures.
#
#######################################################################

data_LOFCUG
_chemical_formula_moiety         'C11 H12 Cl1 N2 O1 1+,Cl1 1-'
_chemical_name_systematic        
'7-chloro-4-[(2-hydroxyethyl)amino]quinolin-1-ium chloride'
_symmetry_cell_setting           monoclinic
_symmetry_space_group_name_H-M   'P 21/c'
_symmetry_Int_Tables_number      14
_space_group_name_Hall           '-P 2ybc'
loop_
_symmetry_equiv_pos_site_id
_symmetry_equiv_pos_as_xyz
1 x,y,z
2 -x,1/2+y,1/2-z
3 -x,-y,-z
4 x,1/2-y,1/2+z
_cell_length_a                   8.2438(13)
_cell_length_b                   16.405(2)
_cell_length_c                   8.8561(14)
_cell_angle_alpha                90
_cell_angle_beta                 110.705(2)
_cell_angle_gamma                90
_cell_volume                     1120.34
_exptl_crystal_colour            colorless
_exptl_crystal_description       prism
_cell_formula_units_Z            4
loop_
_atom_site_label
_atom_site_type_symbol
_atom_site_fract_x
_atom_site_fract_y
_atom_site_fract_z
Cl1 Cl 1.02274(5) 0.76756(2) 0.47284(4)
O1 O 0.53371(15) 0.30013(7) 0.03702(13)
H1 H 0.595(2) 0.3400(9) 0.033(2)
N1 N 0.90024(17) 0.49718(8) 0.69236(15)
H2 H 0.9879(17) 0.5083(11) 0.7812(14)
N2 N 0.50113(17) 0.43490(8) 0.27207(15)
H3 H 0.466(2) 0.4713(9) 0.1961(17)
C1 C 0.8212(2) 0.42491(10) 0.67877(18)
H4 H 0.8571 0.3886 0.7681
C2 C 0.6904(2) 0.40138(9) 0.54089(18)
H5 H 0.6387 0.3492 0.5354
C3 C 0.63187(19) 0.45441(9) 0.40638(17)
C4 C 0.72227(19) 0.53172(9) 0.41947(18)
C5 C 0.68800(19) 0.58698(9) 0.28956(17)
H6 H 0.5992 0.5747 0.1895
C6 C 0.7804(2) 0.65795(9) 0.30511(18)
H7 H 0.7581 0.6940 0.2160
C7 C 0.90831(19) 0.67665(9) 0.45450(18)
C8 C 0.94774(19) 0.62514(9) 0.58444(18)
H8 H 1.0349 0.6389 0.6845
C9 C 0.85580(19) 0.55131(9) 0.56571(17)
C10 C 0.4232(2) 0.35374(9) 0.24153(19)
H9 H 0.3101 0.3569 0.1517
H10 H 0.4014 0.3348 0.3388
C11 C 0.5388(2) 0.29206(10) 0.19883(18)
H11 H 0.6598 0.2992 0.2736
H12 H 0.5014 0.2363 0.2144
Cl2 Cl 0.75804(5) 0.45204(2) 0.02211(4)
loop_
_geom_bond_atom_site_label_1
_geom_bond_atom_site_label_2
_geom_bond_site_symmetry_1
_geom_bond_site_symmetry_2
Cl1 C7 1_555 1_555
O1 H1 1_555 1_555
N1 H2 1_555 1_555
N2 H3 1_555 1_555
C1 N1 1_555 1_555
H4 C1 1_555 1_555
C2 C1 1_555 1_555
H5 C2 1_555 1_555
C3 N2 1_555 1_555
C4 C3 1_555 1_555
C5 C4 1_555 1_555
H6 C5 1_555 1_555
C6 C5 1_555 1_555
H7 C6 1_555 1_555
C7 C6 1_555 1_555
C8 C7 1_555 1_555
H8 C8 1_555 1_555
C9 N1 1_555 1_555
C10 N2 1_555 1_555
H9 C10 1_555 1_555
H10 C10 1_555 1_555
C11 O1 1_555 1_555
H11 C11 1_555 1_555
H12 C11 1_555 1_555
C2 C3 1_555 1_555
C4 C9 1_555 1_555
C8 C9 1_555 1_555
C10 C11 1_555 1_555

#END
