
#######################################################################
#
#                 Cambridge Crystallographic Data Centre
#                                CCDC 
#
#######################################################################
#
# If this CIF has been generated from an entry in the Cambridge 
# Structural Database, then it will include bibliographic, chemical, 
# crystal, experimental, refinement or atomic coordinate data resulting 
# from the CCDC's data processing and validation procedures.
#
#######################################################################

data_LOFXIN
_chemical_formula_moiety         
'C63 H72 N4 O5 S1,C57 H44 N2 O3 S1,1.5(C1 H2 Cl2),C1 H4 O1'
_chemical_name_systematic        
"(2)(1-(4-(Triphenylmethyl)phenylaminosulfonyl)-3-(4-(triphenylmethyl)phenylaminocarbonyl)benzene)-(dispiro(cyclohexane-1,1'-(10'-t-butyl-4',16',22',34',38',40',43',45'-octamethyl-7',13',25',25',31'-pentaoxo-25'-thia-6',14',24',32'-tetra-azaheptacyclo(17.17.2^2,5^.2^15,18^.2^20,23^.2^33,36^.1^8,12^.1^26,30^)hexatetraconta-2,4,8,10,12(39),15,17,20,22,26,28,30(44),33,35,37,40,42,45-octadecaene)-19',1''-cyclohexane))-rotaxane dichloromethane methanol solvate"
_symmetry_cell_setting           monoclinic
_symmetry_space_group_name_H-M   'C 2/c'
_symmetry_Int_Tables_number      15
_space_group_name_Hall           '-C 2yn'
loop_
_symmetry_equiv_pos_site_id
_symmetry_equiv_pos_as_xyz
1 x,y,z
2 1/2+x,1/2+y,z
3 x,-y,1/2+z
4 1/2+x,1/2-y,1/2+z
5 -x,-y,-z
6 1/2-x,1/2-y,-z
7 -x,y,1/2-z
8 1/2-x,1/2+y,1/2-z
_cell_length_a                   34.6914(12)
_cell_length_b                   30.4423(10)
_cell_length_c                   24.6104(7)
_cell_angle_alpha                90
_cell_angle_beta                 116.559(2)
_cell_angle_gamma                90
_cell_volume                     23248
_exptl_crystal_colour            colorless
_exptl_crystal_description       blocks
_cell_formula_units_Z            8
loop_
_atom_site_label
_atom_site_type_symbol
_atom_site_fract_x
_atom_site_fract_y
_atom_site_fract_z
S1 S 0.74081(5) 0.72564(5) 0.76730(7)
O1 O 0.70765(13) 0.70546(13) 0.71569(18)
O2 O 0.73387(14) 0.76751(13) 0.78875(19)
N1 N 0.78256(14) 0.73211(14) 0.75497(19)
H1 H 0.7986 0.7556 0.7698
C1 C 0.79490(17) 0.70131(17) 0.7209(2)
C2 C 0.82684(18) 0.66972(17) 0.7516(2)
C3 C 0.84014(18) 0.64275(17) 0.7170(2)
H2 H 0.8618 0.6213 0.7372
C4 C 0.82261(18) 0.64627(17) 0.6539(2)
C5 C 0.79125(18) 0.67752(17) 0.6257(2)
H3 H 0.7786 0.6799 0.5827
C6 C 0.77716(18) 0.70600(17) 0.6581(2)
C7 C 0.83947(19) 0.61483(17) 0.6195(3)
C8 C 0.8244(2) 0.62822(18) 0.5529(3)
H4 H 0.8314 0.6042 0.5316
H5 H 0.7927 0.6317 0.5333
C9 C 0.8447(2) 0.6710(2) 0.5446(3)
H6 H 0.8355 0.6760 0.5008
H7 H 0.8344 0.6960 0.5604
C10 C 0.8930(2) 0.6689(2) 0.5775(3)
H8 H 0.9052 0.6976 0.5740
H9 H 0.9036 0.6463 0.5586
C11 C 0.9082(2) 0.6580(2) 0.6445(3)
H10 H 0.9401 0.6561 0.6653
H11 H 0.8992 0.6815 0.6642
C12 C 0.88899(19) 0.61454(18) 0.6504(3)
H12 H 0.8995 0.6075 0.6940
H13 H 0.8991 0.5911 0.6320
C13 C 0.82019(19) 0.56916(17) 0.6202(2)
C14 C 0.84553(19) 0.53190(17) 0.6443(2)
H14 H 0.8760 0.5349 0.6630
C15 C 0.82782(19) 0.49010(17) 0.6421(2)
C16 C 0.78288(18) 0.48680(17) 0.6143(2)
C17 C 0.75676(18) 0.52316(17) 0.5908(2)
C18 C 0.77611(18) 0.56418(17) 0.5947(2)
H15 H 0.7583 0.5893 0.5792
N2 N 0.76296(14) 0.44493(13) 0.60989(19)
H16 H 0.7532 0.4383 0.6363
C19 C 0.75850(18) 0.41517(17) 0.5665(2)
O3 O 0.77658(12) 0.42062(11) 0.53345(16)
C20 C 0.72949(18) 0.37713(16) 0.5590(2)
C21 C 0.71011(19) 0.35551(17) 0.5031(2)
H17 H 0.7180 0.3633 0.4721
C22 C 0.67947(18) 0.32285(16) 0.4918(2)
C23 C 0.66828(18) 0.31236(18) 0.5374(2)
H18 H 0.6470 0.2905 0.5302
C24 C 0.68752(18) 0.33309(17) 0.5937(2)
C25 C 0.71851(17) 0.36481(16) 0.6045(2)
H19 H 0.7324 0.3783 0.6434
C26 C 0.67316(17) 0.32246(18) 0.6416(2)
O4 O 0.65999(12) 0.28577(11) 0.64648(15)
N3 N 0.67662(15) 0.35643(14) 0.67816(19)
H20 H 0.6836 0.3820 0.6683
C27 C 0.67006(19) 0.35535(17) 0.7323(2)
C28 C 0.70677(19) 0.35391(17) 0.7880(2)
C29 C 0.70133(18) 0.35853(17) 0.8404(2)
H21 H 0.7258 0.3563 0.8788
C30 C 0.66075(19) 0.36641(16) 0.8381(2)
C31 C 0.62560(19) 0.36680(17) 0.7820(2)
H22 H 0.5978 0.3713 0.7797
C32 C 0.62933(18) 0.36077(17) 0.7278(2)
C33 C 0.65863(19) 0.38097(18) 0.8966(2)
C34 C 0.6119(2) 0.3800(2) 0.8907(3)
H23 H 0.6116 0.3953 0.9260
H24 H 0.5925 0.3960 0.8536
C35 C 0.5948(2) 0.3329(2) 0.8877(3)
H25 H 0.5659 0.3341 0.8865
H26 H 0.5918 0.3186 0.8499
C36 C 0.6251(3) 0.3055(3) 0.9427(3)
H27 H 0.6260 0.3181 0.9803
H28 H 0.6141 0.2750 0.9384
C37 C 0.6704(3) 0.3051(2) 0.9471(3)
H29 H 0.6899 0.2881 0.9832
H30 H 0.6698 0.2907 0.9107
C38 C 0.6874(2) 0.35157(19) 0.9518(3)
H31 H 0.7168 0.3504 0.9550
H32 H 0.6893 0.3652 0.9895
C39 C 0.67576(19) 0.42885(18) 0.9054(2)
C40 C 0.64832(19) 0.46517(19) 0.8813(2)
H33 H 0.6181 0.4606 0.8636
C41 C 0.66359(19) 0.50722(18) 0.8825(2)
C42 C 0.70803(19) 0.51380(17) 0.9075(2)
C43 C 0.73674(18) 0.47896(17) 0.9345(2)
C44 C 0.71981(18) 0.43771(17) 0.9329(2)
H34 H 0.7392 0.4141 0.9515
N4 N 0.72593(14) 0.55620(13) 0.90847(19)
H35 H 0.7399 0.5693 0.9439
C45 C 0.72285(17) 0.57751(17) 0.8587(2)
O5 O 0.70019(12) 0.56458(12) 0.80703(16)
C46 C 0.74762(17) 0.61904(17) 0.8692(2)
C47 C 0.78077(18) 0.63115(18) 0.9252(2)
H36 H 0.7901 0.6113 0.9584
C48 C 0.80048(19) 0.67230(19) 0.9329(3)
H37 H 0.8231 0.6801 0.9713
C49 C 0.78733(18) 0.70141(19) 0.8854(2)
H38 H 0.7995 0.7300 0.8911
C50 C 0.75599(18) 0.68830(18) 0.8290(2)
C51 C 0.73603(17) 0.64838(17) 0.8204(2)
H39 H 0.7143 0.6405 0.7814
C52 C 0.8474(2) 0.66369(19) 0.8191(2)
H40 H 0.8535 0.6925 0.8390
H41 H 0.8743 0.6472 0.8319
H42 H 0.8278 0.6474 0.8305
C53 C 0.7441(2) 0.74032(19) 0.6245(3)
H43 H 0.7164 0.7319 0.6231
H44 H 0.7409 0.7429 0.5830
H45 H 0.7533 0.7686 0.6454
C54 C 0.8556(2) 0.45084(19) 0.6675(3)
H46 H 0.8458 0.4345 0.6932
H47 H 0.8855 0.4602 0.6917
H48 H 0.8539 0.4320 0.6342
C55 C 0.70785(18) 0.51904(19) 0.5602(3)
H49 H 0.6991 0.4961 0.5290
H50 H 0.6950 0.5471 0.5413
H51 H 0.6980 0.5112 0.5906
C56 C 0.66016(18) 0.29940(16) 0.4319(2)
C57 C 0.6582(4) 0.25033(19) 0.4349(4)
H52 H 0.6450 0.2382 0.3937
H53 H 0.6410 0.2421 0.4558
H54 H 0.6875 0.2386 0.4574
C58 C 0.6745(3) 0.3132(3) 0.3853(4)
H55 H 0.6594 0.2956 0.3484
H56 H 0.7056 0.3086 0.4014
H57 H 0.6678 0.3443 0.3756
C59 C 0.6100(2) 0.3121(4) 0.3989(4)
H58 H 0.5961 0.2975 0.3593
H59 H 0.6070 0.3440 0.3931
H60 H 0.5963 0.3026 0.4241
C63 C 0.75117(19) 0.3504(2) 0.7923(3)
H70 H 0.7535 0.3231 0.7729
H71 H 0.7725 0.3502 0.8352
H72 H 0.7565 0.3755 0.7717
C64 C 0.59000(19) 0.3631(2) 0.6673(2)
H73 H 0.5884 0.3921 0.6492
H74 H 0.5641 0.3581 0.6730
H75 H 0.5919 0.3405 0.6402
C65 C 0.6324(2) 0.5444(2) 0.8582(3)
H76 H 0.6385 0.5662 0.8904
H77 H 0.6030 0.5333 0.8441
H78 H 0.6353 0.5582 0.8242
C66 C 0.78462(18) 0.48679(18) 0.9644(2)
H79 H 0.7934 0.4999 1.0046
H80 H 0.7920 0.5068 0.9392
H81 H 0.7997 0.4588 0.9687
N5 N 0.51875(15) 0.43803(16) 0.4890(2)
H82 H 0.4931 0.4503 0.4710
S2 S 0.56010(5) 0.46984(5) 0.50661(6)
O6 O 0.54190(12) 0.51219(13) 0.48484(17)
O7 O 0.58904(12) 0.45110(13) 0.48629(16)
C67 C 0.58698(18) 0.47368(18) 0.5865(2)
C68 C 0.5646(2) 0.4854(2) 0.6183(3)
H83 H 0.5342 0.4889 0.5980
C69 C 0.5875(2) 0.4921(2) 0.6818(3)
H84 H 0.5724 0.4999 0.7045
C70 C 0.63166(19) 0.4874(2) 0.7106(3)
H85 H 0.6472 0.4928 0.7530
C71 C 0.65367(17) 0.47458(17) 0.6773(2)
C72 C 0.63063(17) 0.46733(16) 0.6155(2)
H86 H 0.6453 0.4578 0.5930
C73 C 0.70094(17) 0.47070(17) 0.7052(2)
O8 O 0.71829(11) 0.44206(11) 0.68697(15)
N6 N 0.72364(14) 0.49920(15) 0.74862(19)
H87 H 0.7097 0.5196 0.7580
C74 C 0.76965(18) 0.49833(19) 0.7808(2)
C75 C 0.78905(18) 0.46848(18) 0.8277(2)
H88 H 0.7721 0.4480 0.8369
C76 C 0.83348(19) 0.46885(19) 0.8612(2)
H89 H 0.8467 0.4487 0.8937
C77 C 0.85934(18) 0.49809(18) 0.8483(2)
C78 C 0.83875(19) 0.52696(19) 0.8006(3)
H90 H 0.8556 0.5471 0.7908
C79 C 0.79408(19) 0.5275(2) 0.7665(3)
H91 H 0.7807 0.5476 0.7339
C80 C 0.90825(18) 0.49689(18) 0.8895(2)
C81 C 0.91323(18) 0.5014(2) 0.9552(2)
C82 C 0.9352(2) 0.4721(2) 1.0005(3)
H92 H 0.9499 0.4481 0.9933
C83 C 0.9361(2) 0.4773(3) 1.0583(3)
H93 H 0.9517 0.4570 1.0898
C84 C 0.9147(2) 0.5116(3) 1.0691(3)
H94 H 0.9159 0.5152 1.1082
C85 C 0.8917(2) 0.5402(2) 1.0236(3)
H95 H 0.8762 0.5635 1.0306
C86 C 0.8909(2) 0.5355(2) 0.9676(3)
H96 H 0.8748 0.5558 0.9363
C87 C 0.93144(17) 0.53434(19) 0.8731(2)
C88 C 0.9360(2) 0.5305(2) 0.8199(3)
H97 H 0.9249 0.5052 0.7951
C89 C 0.9565(2) 0.5630(2) 0.8025(3)
H98 H 0.9598 0.5593 0.7664
C90 C 0.9719(2) 0.5996(2) 0.8364(4)
H99 H 0.9851 0.6221 0.8238
C91 C 0.9682(2) 0.6038(2) 0.8892(4)
H100 H 0.9793 0.6294 0.9134
C92 C 0.9484(2) 0.5712(2) 0.9085(3)
H101 H 0.9466 0.5746 0.9457
C93 C 0.92797(19) 0.45360(19) 0.8808(2)
C94 C 0.9036(2) 0.4213(2) 0.8406(3)
H102 H 0.8732 0.4246 0.8187
C95 C 0.9232(2) 0.3841(2) 0.8322(4)
H103 H 0.9063 0.3626 0.8034
C96 C 0.9673(3) 0.3779(2) 0.8654(4)
H104 H 0.9806 0.3517 0.8611
C97 C 0.9913(2) 0.4100(2) 0.9042(3)
H105 H 1.0215 0.4063 0.9267
C98 C 0.9725(2) 0.4476(2) 0.9115(3)
H106 H 0.9901 0.4700 0.9378
C99 C 0.52036(19) 0.3916(2) 0.5004(2)
C100 C 0.5476(2) 0.3636(2) 0.4897(3)
H107 H 0.5687 0.3749 0.4788
C101 C 0.54366(19) 0.3187(2) 0.4953(3)
H108 H 0.5624 0.2995 0.4880
C102 C 0.51317(18) 0.30098(19) 0.5112(2)
C103 C 0.4890(2) 0.3300(2) 0.5258(3)
H109 H 0.4695 0.3188 0.5399
C104 C 0.49207(19) 0.3747(2) 0.5206(3)
H110 H 0.4748 0.3939 0.5308
C105 C 0.50733(18) 0.25083(19) 0.5159(3)
C106 C 0.53402(18) 0.22310(19) 0.4915(3)
C107 C 0.5619(2) 0.1907(2) 0.5248(3)
H111 H 0.5668 0.1858 0.5656
C108 C 0.5834(2) 0.1645(2) 0.4997(3)
H112 H 0.6025 0.1419 0.5232
C109 C 0.5765(2) 0.1719(2) 0.4412(3)
H113 H 0.5909 0.1545 0.4239
C110 C 0.5490(2) 0.2042(2) 0.4080(3)
H114 H 0.5448 0.2096 0.3677
C111 C 0.5268(2) 0.2294(2) 0.4320(3)
H115 H 0.5067 0.2510 0.4076
C112 C 0.52144(19) 0.24396(19) 0.5848(3)
C113 C 0.56458(19) 0.25056(19) 0.6259(3)
H116 H 0.5848 0.2568 0.6106
C114 C 0.5788(2) 0.2483(2) 0.6879(3)
H117 H 0.6084 0.2524 0.7150
C115 C 0.5490(2) 0.2400(2) 0.7097(3)
H118 H 0.5581 0.2384 0.7523
C116 C 0.5068(3) 0.2340(3) 0.6706(3)
H119 H 0.4865 0.2291 0.6860
C117 C 0.4928(2) 0.2351(2) 0.6075(3)
H120 H 0.4634 0.2297 0.5806
C118 C 0.45983(19) 0.2363(2) 0.4757(3)
C119 C 0.4486(2) 0.1933(2) 0.4780(3)
H121 H 0.4696 0.1738 0.5055
C120 C 0.4076(2) 0.1773(3) 0.4416(3)
H122 H 0.4009 0.1474 0.4443
C121 C 0.3771(2) 0.2047(3) 0.4021(3)
H123 H 0.3487 0.1943 0.3777
C122 C 0.3874(2) 0.2478(3) 0.3974(4)
H124 H 0.3663 0.2669 0.3690
C123 C 0.4289(2) 0.2636(3) 0.4346(3)
H125 H 0.4358 0.2934 0.4315
C124 C 0.6597(2) 0.6099(4) 0.6556(4)
H126 H 0.6552 0.6402 0.6661
H127 H 0.6598 0.5902 0.6877
Cl1 Cl 0.70732(12) 0.60704(13) 0.65525(16)
Cl2 Cl 0.61815(16) 0.59604(17) 0.5891(2)
O9 O 0.6451(8) 0.7909(7) 0.7747(10)
H130 H 0.6670 0.7798 0.7736
C126 C 0.6590(5) 0.8310(4) 0.8157(6)
H131 H 0.6826 0.8229 0.8551
H132 H 0.6346 0.8418 0.8217
H133 H 0.6688 0.8540 0.7969
O10 O 0.5821(4) 0.7751(4) 0.7510(5)
H134 H 0.5993 0.7623 0.7407
C127 C 0.5381(9) 0.7620(14) 0.730(2)
H135 H 0.5362 0.7410 0.7594
H136 H 0.5277 0.7480 0.6905
H137 H 0.5205 0.7878 0.7275
C60? C 0.6493(3) 0.3265(3) 0.3764(3)
H61? H 0.6372 0.3075 0.3404
H62? H 0.6755 0.3407 0.3792
H63? H 0.6282 0.3489 0.3732
C61? C 0.6281(3) 0.2642(3) 0.4229(4)
H64? H 0.6181 0.2516 0.3821
H65? H 0.6036 0.2766 0.4272
H66? H 0.6416 0.2411 0.4534
C62? C 0.6992(3) 0.2702(3) 0.4316(5)
H67? H 0.6889 0.2539 0.3933
H68? H 0.7094 0.2495 0.4657
H69? H 0.7229 0.2896 0.4357
C125? C 1.0000 0.4157(4) 0.7500
H128? H 0.9749 0.4065 0.7563
H129? H 0.9938 0.4065 0.7083
Cl3? Cl 1.0000 0.4690(3) 0.7500
Cl4? Cl 1.0398(3) 0.3866(3) 0.7950(5)
loop_
_geom_bond_atom_site_label_1
_geom_bond_atom_site_label_2
_geom_bond_site_symmetry_1
_geom_bond_site_symmetry_2
S1 O1 1_555 1_555
O2 S1 1_555 1_555
N1 S1 1_555 1_555
H1 N1 1_555 1_555
C1 N1 1_555 1_555
C2 C1 1_555 1_555
C3 C2 1_555 1_555
H2 C3 1_555 1_555
C4 C3 1_555 1_555
C5 C4 1_555 1_555
H3 C5 1_555 1_555
C6 C1 1_555 1_555
C7 C4 1_555 1_555
C8 C7 1_555 1_555
H4 C8 1_555 1_555
H5 C8 1_555 1_555
C9 C8 1_555 1_555
H6 C9 1_555 1_555
H7 C9 1_555 1_555
C10 C9 1_555 1_555
H8 C10 1_555 1_555
H9 C10 1_555 1_555
C11 C10 1_555 1_555
H10 C11 1_555 1_555
H11 C11 1_555 1_555
C12 C7 1_555 1_555
H12 C12 1_555 1_555
H13 C12 1_555 1_555
C13 C7 1_555 1_555
C14 C13 1_555 1_555
H14 C14 1_555 1_555
C15 C14 1_555 1_555
C16 C15 1_555 1_555
C17 C16 1_555 1_555
C18 C13 1_555 1_555
H15 C18 1_555 1_555
N2 C16 1_555 1_555
H16 N2 1_555 1_555
C19 N2 1_555 1_555
O3 C19 1_555 1_555
C20 C19 1_555 1_555
C21 C20 1_555 1_555
H17 C21 1_555 1_555
C22 C21 1_555 1_555
C23 C22 1_555 1_555
H18 C23 1_555 1_555
C24 C23 1_555 1_555
C25 C20 1_555 1_555
H19 C25 1_555 1_555
C26 C24 1_555 1_555
O4 C26 1_555 1_555
N3 C26 1_555 1_555
H20 N3 1_555 1_555
C27 N3 1_555 1_555
C28 C27 1_555 1_555
C29 C28 1_555 1_555
H21 C29 1_555 1_555
C30 C29 1_555 1_555
C31 C30 1_555 1_555
H22 C31 1_555 1_555
C32 C27 1_555 1_555
C33 C30 1_555 1_555
C34 C33 1_555 1_555
H23 C34 1_555 1_555
H24 C34 1_555 1_555
C35 C34 1_555 1_555
H25 C35 1_555 1_555
H26 C35 1_555 1_555
C36 C35 1_555 1_555
H27 C36 1_555 1_555
H28 C36 1_555 1_555
C37 C36 1_555 1_555
H29 C37 1_555 1_555
H30 C37 1_555 1_555
C38 C33 1_555 1_555
H31 C38 1_555 1_555
H32 C38 1_555 1_555
C39 C33 1_555 1_555
C40 C39 1_555 1_555
H33 C40 1_555 1_555
C41 C40 1_555 1_555
C42 C41 1_555 1_555
C43 C42 1_555 1_555
C44 C39 1_555 1_555
H34 C44 1_555 1_555
N4 C42 1_555 1_555
H35 N4 1_555 1_555
C45 N4 1_555 1_555
O5 C45 1_555 1_555
C46 C45 1_555 1_555
C47 C46 1_555 1_555
H36 C47 1_555 1_555
C48 C47 1_555 1_555
H37 C48 1_555 1_555
C49 C48 1_555 1_555
H38 C49 1_555 1_555
C50 S1 1_555 1_555
C51 C46 1_555 1_555
H39 C51 1_555 1_555
C52 C2 1_555 1_555
H40 C52 1_555 1_555
H41 C52 1_555 1_555
H42 C52 1_555 1_555
C53 C6 1_555 1_555
H43 C53 1_555 1_555
H44 C53 1_555 1_555
H45 C53 1_555 1_555
C54 C15 1_555 1_555
H46 C54 1_555 1_555
H47 C54 1_555 1_555
H48 C54 1_555 1_555
C55 C17 1_555 1_555
H49 C55 1_555 1_555
H50 C55 1_555 1_555
H51 C55 1_555 1_555
C56 C22 1_555 1_555
C57 C56 1_555 1_555
H52 C57 1_555 1_555
H53 C57 1_555 1_555
H54 C57 1_555 1_555
C58 C56 1_555 1_555
H55 C58 1_555 1_555
H56 C58 1_555 1_555
H57 C58 1_555 1_555
C59 C56 1_555 1_555
H58 C59 1_555 1_555
H59 C59 1_555 1_555
H60 C59 1_555 1_555
C63 C28 1_555 1_555
H70 C63 1_555 1_555
H71 C63 1_555 1_555
H72 C63 1_555 1_555
C64 C32 1_555 1_555
H73 C64 1_555 1_555
H74 C64 1_555 1_555
H75 C64 1_555 1_555
C65 C41 1_555 1_555
H76 C65 1_555 1_555
H77 C65 1_555 1_555
H78 C65 1_555 1_555
C66 C43 1_555 1_555
H79 C66 1_555 1_555
H80 C66 1_555 1_555
H81 C66 1_555 1_555
N5 H82 1_555 1_555
S2 N5 1_555 1_555
O6 S2 1_555 1_555
O7 S2 1_555 1_555
C67 S2 1_555 1_555
C68 C67 1_555 1_555
H83 C68 1_555 1_555
C69 C68 1_555 1_555
H84 C69 1_555 1_555
C70 C69 1_555 1_555
H85 C70 1_555 1_555
C71 C70 1_555 1_555
C72 C67 1_555 1_555
H86 C72 1_555 1_555
C73 C71 1_555 1_555
O8 C73 1_555 1_555
N6 C73 1_555 1_555
H87 N6 1_555 1_555
C74 N6 1_555 1_555
C75 C74 1_555 1_555
H88 C75 1_555 1_555
C76 C75 1_555 1_555
H89 C76 1_555 1_555
C77 C76 1_555 1_555
C78 C77 1_555 1_555
H90 C78 1_555 1_555
C79 C74 1_555 1_555
H91 C79 1_555 1_555
C80 C77 1_555 1_555
C81 C80 1_555 1_555
C82 C81 1_555 1_555
H92 C82 1_555 1_555
C83 C82 1_555 1_555
H93 C83 1_555 1_555
C84 C83 1_555 1_555
H94 C84 1_555 1_555
C85 C84 1_555 1_555
H95 C85 1_555 1_555
C86 C81 1_555 1_555
H96 C86 1_555 1_555
C87 C80 1_555 1_555
C88 C87 1_555 1_555
H97 C88 1_555 1_555
C89 C88 1_555 1_555
H98 C89 1_555 1_555
C90 C89 1_555 1_555
H99 C90 1_555 1_555
C91 C90 1_555 1_555
H100 C91 1_555 1_555
C92 C87 1_555 1_555
H101 C92 1_555 1_555
C93 C80 1_555 1_555
C94 C93 1_555 1_555
H102 C94 1_555 1_555
C95 C94 1_555 1_555
H103 C95 1_555 1_555
C96 C95 1_555 1_555
H104 C96 1_555 1_555
C97 C96 1_555 1_555
H105 C97 1_555 1_555
C98 C93 1_555 1_555
H106 C98 1_555 1_555
C99 N5 1_555 1_555
C100 C99 1_555 1_555
H107 C100 1_555 1_555
C101 C100 1_555 1_555
H108 C101 1_555 1_555
C102 C101 1_555 1_555
C103 C102 1_555 1_555
H109 C103 1_555 1_555
C104 C99 1_555 1_555
H110 C104 1_555 1_555
C105 C102 1_555 1_555
C106 C105 1_555 1_555
C107 C106 1_555 1_555
H111 C107 1_555 1_555
C108 C107 1_555 1_555
H112 C108 1_555 1_555
C109 C108 1_555 1_555
H113 C109 1_555 1_555
C110 C109 1_555 1_555
H114 C110 1_555 1_555
C111 C106 1_555 1_555
H115 C111 1_555 1_555
C112 C105 1_555 1_555
C113 C112 1_555 1_555
H116 C113 1_555 1_555
C114 C113 1_555 1_555
H117 C114 1_555 1_555
C115 C114 1_555 1_555
H118 C115 1_555 1_555
C116 C115 1_555 1_555
H119 C116 1_555 1_555
C117 C112 1_555 1_555
H120 C117 1_555 1_555
C118 C105 1_555 1_555
C119 C118 1_555 1_555
H121 C119 1_555 1_555
C120 C119 1_555 1_555
H122 C120 1_555 1_555
C121 C120 1_555 1_555
H123 C121 1_555 1_555
C122 C121 1_555 1_555
H124 C122 1_555 1_555
C123 C118 1_555 1_555
H125 C123 1_555 1_555
C124 H126 1_555 1_555
H127 C124 1_555 1_555
Cl1 C124 1_555 1_555
Cl2 C124 1_555 1_555
O9 H130 1_555 1_555
C126 O9 1_555 1_555
H131 C126 1_555 1_555
H132 C126 1_555 1_555
H133 C126 1_555 1_555
O10 H134 1_555 1_555
C127 O10 1_555 1_555
H135 C127 1_555 1_555
H136 C127 1_555 1_555
H137 C127 1_555 1_555
C5 C6 1_555 1_555
C11 C12 1_555 1_555
C17 C18 1_555 1_555
C24 C25 1_555 1_555
C31 C32 1_555 1_555
C37 C38 1_555 1_555
C43 C44 1_555 1_555
C49 C50 1_555 1_555
C50 C51 1_555 1_555
C71 C72 1_555 1_555
C78 C79 1_555 1_555
C85 C86 1_555 1_555
C91 C92 1_555 1_555
C97 C98 1_555 1_555
C103 C104 1_555 1_555
C110 C111 1_555 1_555
C116 C117 1_555 1_555
C122 C123 1_555 1_555

#END
