
#######################################################################
#
#                 Cambridge Crystallographic Data Centre
#                                CCDC 
#
#######################################################################
#
# If this CIF has been generated from an entry in the Cambridge 
# Structural Database, then it will include bibliographic, chemical, 
# crystal, experimental, refinement or atomic coordinate data resulting 
# from the CCDC's data processing and validation procedures.
#
#######################################################################

data_LOGHUL
_chemical_formula_moiety         'C17 H17 N9'
_chemical_name_systematic        
2,4-bis(N-Methyl-N'-(2-pyridylmethylene)hydrazino)-1,3,5-triazine
_symmetry_cell_setting           triclinic
_symmetry_space_group_name_H-M   'P -1'
_symmetry_Int_Tables_number      2
_space_group_name_Hall           '-P 1'
loop_
_symmetry_equiv_pos_site_id
_symmetry_equiv_pos_as_xyz
1 x,y,z
2 -x,-y,-z
_cell_length_a                   8.008(2)
_cell_length_b                   10.508(3)
_cell_length_c                   10.804(3)
_cell_angle_alpha                96.042(9)
_cell_angle_beta                 109.880(3)
_cell_angle_gamma                95.836(4)
_cell_volume                     840.972
_cell_formula_units_Z            2
_exptl_crystal_recrystallization_method acetonitrile/chloroform
loop_
_atom_site_label
_atom_site_type_symbol
_atom_site_fract_x
_atom_site_fract_y
_atom_site_fract_z
N1 N 0.63096(10) 0.17969(7) 0.35386(7)
N2 N 0.83833(10) 0.18476(7) 0.24847(7)
N3 N 0.85188(10) 0.36903(7) 0.39967(7)
N4 N 0.41817(10) 0.17812(7) 0.45761(7)
N5 N 0.63586(10) 0.36185(7) 0.51060(7)
C1 C 0.20997(13) -0.18282(9) 0.21568(9)
N6 N 0.00378(11) -0.20386(7) 0.33609(8)
C2 C 0.56690(11) 0.24187(8) 0.43927(8)
N7 N 1.26782(11) 0.18744(8) 0.04383(8)
N8 N 0.98646(10) 0.24888(7) 0.23218(7)
C3 C 0.13897(11) -0.13532(8) 0.31173(8)
N9 N 0.34811(10) 0.05878(7) 0.38220(7)
C4 C 0.00425(13) -0.38031(9) 0.17204(10)
C5 C -0.06012(13) -0.32424(9) 0.26652(10)
C6 C 0.21060(11) -0.00652(8) 0.39478(8)
C7 C 1.30017(12) 0.38000(8) 0.20097(8)
C8 C 1.21323(11) 0.25566(8) 0.13299(8)
C9 C 0.77144(11) 0.24774(8) 0.33786(8)
C10 C 1.05417(12) 0.18961(8) 0.15306(8)
C11 C 0.75110(13) 0.05668(8) 0.17306(9)
C12 C 1.50487(13) 0.36588(9) 0.08152(9)
C13 C 1.44757(13) 0.43540(9) 0.17403(9)
C14 C 0.77660(11) 0.41767(8) 0.48511(8)
C15 C 0.14089(14) -0.30723(10) 0.14529(10)
C16 C 1.41046(13) 0.24324(9) 0.01953(9)
C17 C 0.33909(13) 0.23484(9) 0.55066(10)
H1 H 0.718(2) 0.0616(14) 0.0798(15)
H2 H 0.832(2) 0.5017(14) 0.5354(14)
H3 H -0.152(2) -0.3747(17) 0.2877(18)
H4 H 0.147(2) 0.0188(16) 0.4537(16)
H5 H 0.344(2) 0.1791(17) 0.6163(18)
H6 H 1.011(2) 0.1000(15) 0.1021(15)
H7 H 0.826(2) -0.0077(15) 0.2002(15)
H8 H 1.519(2) 0.5223(16) 0.2208(17)
H9 H 1.611(2) 0.3990(16) 0.0589(16)
H10 H 0.217(2) 0.2442(15) 0.5008(15)
H11 H 1.444(2) 0.1906(15) -0.0470(16)
H12 H -0.043(2) -0.4713(17) 0.1290(18)
H13 H 0.306(2) -0.1274(15) 0.2015(15)
H14 H 0.648(2) 0.0362(17) 0.1901(17)
H15 H 0.406(2) 0.3168(17) 0.5898(17)
H16 H 1.262(2) 0.4263(16) 0.2717(16)
H17 H 0.193(2) -0.3386(18) 0.0806(19)
loop_
_geom_bond_atom_site_label_1
_geom_bond_atom_site_label_2
_geom_bond_site_symmetry_1
_geom_bond_site_symmetry_2
N1 C2 1_555 1_555
N2 N8 1_555 1_555
N3 C9 1_555 1_555
N4 C2 1_555 1_555
N5 C2 1_555 1_555
C1 C3 1_555 1_555
N6 C3 1_555 1_555
N7 C8 1_555 1_555
N8 C10 1_555 1_555
C3 C6 1_555 1_555
N9 N4 1_555 1_555
C4 C5 1_555 1_555
C5 N6 1_555 1_555
C6 N9 1_555 1_555
C7 C8 1_555 1_555
C8 C10 1_555 1_555
C9 N1 1_555 1_555
C10 H6 1_555 1_555
C11 N2 1_555 1_555
C12 C13 1_555 1_555
C13 C7 1_555 1_555
C14 N3 1_555 1_555
C15 C1 1_555 1_555
C16 N7 1_555 1_555
C17 N4 1_555 1_555
H1 C11 1_555 1_555
H2 C14 1_555 1_555
H3 C5 1_555 1_555
H4 C6 1_555 1_555
H5 C17 1_555 1_555
H7 C11 1_555 1_555
H8 C13 1_555 1_555
H9 C12 1_555 1_555
H10 C17 1_555 1_555
H11 C16 1_555 1_555
H12 C4 1_555 1_555
H13 C1 1_555 1_555
H14 C11 1_555 1_555
H15 C17 1_555 1_555
H16 C7 1_555 1_555
H17 C15 1_555 1_555
N2 C9 1_555 1_555
N5 C14 1_555 1_555
C4 C15 1_555 1_555
C12 C16 1_555 1_555

#END
