
#######################################################################
#
#                 Cambridge Crystallographic Data Centre
#                                CCDC 
#
#######################################################################
#
# If this CIF has been generated from an entry in the Cambridge 
# Structural Database, then it will include bibliographic, chemical, 
# crystal, experimental, refinement or atomic coordinate data resulting 
# from the CCDC's data processing and validation procedures.
#
#######################################################################

data_LOGHUM
_chemical_formula_moiety         'C96 H78 N2 O4,5(C7 H8),2(C2 H3 N1)'
_chemical_name_systematic        
"8,21-bis(4-t-butylphenyl)-2,15-bis(2,6-diisopropylphenyl)-3a,5a,7,13a,16a,16b,20a,20b,22d,24a,26a,26b-dodecahydrobenzo[1,12]benzo[13',14']isoquinolino[6'',5'',4'':8',9',10']pentapheno[2',3':3,4]tetrapheno[9,8,7-def]isoquinoline-1,3,14,16(2H,15H)-tetrone toluene acetonitrile solvate"
_symmetry_cell_setting           triclinic
_symmetry_space_group_name_H-M   'P -1'
_symmetry_Int_Tables_number      2
_space_group_name_Hall           '-P 1'
loop_
_symmetry_equiv_pos_site_id
_symmetry_equiv_pos_as_xyz
1 x,y,z
2 -x,-y,-z
_cell_length_a                   12.5070(8)
_cell_length_b                   14.1147(9)
_cell_length_c                   17.2805(11)
_cell_angle_alpha                69.673(4)
_cell_angle_beta                 70.349(4)
_cell_angle_gamma                74.173(4)
_cell_volume                     2651.67
_exptl_crystal_colour            purple
_exptl_crystal_description       Block
_cell_formula_units_Z            1
_chemical_properties_physical    Air-sensitive
loop_
_atom_site_label
_atom_site_type_symbol
_atom_site_fract_x
_atom_site_fract_y
_atom_site_fract_z
C1 C 0.5494(9) 0.6622(7) 0.5325(6)
C2 C 0.5646(10) 0.6647(8) 0.4484(7)
H1 H 0.6019 0.6051 0.4298
C3 C 0.5253(11) 0.7545(10) 0.3916(6)
H2 H 0.5357 0.7562 0.3341
C4 C 0.4707(10) 0.8417(8) 0.4189(7)
H3 H 0.4438 0.9030 0.3800
C5 C 0.4555(9) 0.8391(7) 0.5030(8)
H4 H 0.4182 0.8988 0.5217
C6 C 0.4948(10) 0.7494(9) 0.5598(6)
H5 H 0.4844 0.7477 0.6173
C7 C 0.5859(12) 0.5622(9) 0.5969(9)
H6 H 0.5355 0.5135 0.6090
H7 H 0.5797 0.5763 0.6501
H8 H 0.6659 0.5327 0.5729
N1 N 0.5265(5) 0.2808(5) 0.7772(6)
C8 C 0.4221(5) 0.4517(5) 0.8075(4)
H9 H 0.3617 0.4814 0.7772
H10 H 0.4768 0.4988 0.7875
H11 H 0.3870 0.4407 0.8692
C9 C 0.4803(5) 0.3575(5) 0.7912(4)
O1 O 1.2720(2) 0.5692(2) 0.66752(15)
O2 O 0.8877(2) 0.6283(2) 0.79442(15)
N2 N 1.0804(2) 0.6049(2) 0.73066(17)
C10 C 1.1028(3) 0.5580(3) 0.8144(2)
C11 C 1.1220(3) 0.6220(3) 0.8533(2)
C12 C 1.1451(3) 0.5760(3) 0.9319(2)
H12 H 1.1590 0.6168 0.9601
C13 C 1.1486(3) 0.4720(3) 0.9707(2)
H13 H 1.1644 0.4420 1.0250
C14 C 1.1292(4) 0.4121(3) 0.9305(2)
H14 H 1.1317 0.3407 0.9577
C15 C 1.1061(3) 0.4538(3) 0.8510(2)
C16 C 1.1186(4) 0.7363(3) 0.8103(2)
H15 H 1.0787 0.7562 0.7641
C17 C 1.0508(4) 0.8004(3) 0.8722(3)
H16 H 0.9735 0.7829 0.8998
H17 H 1.0443 0.8735 0.8407
H18 H 1.0910 0.7860 0.9160
C18 C 1.2407(4) 0.7591(4) 0.7680(3)
H19 H 1.2844 0.7340 0.8110
H20 H 1.2375 0.8333 0.7430
H21 H 1.2788 0.7245 0.7229
C19 C 1.0846(4) 0.3873(3) 0.8073(3)
H22 H 1.0664 0.4337 0.7529
C20 C 1.1898(5) 0.3111(5) 0.7832(5)
H23 H 1.2523 0.3474 0.7433
H24 H 1.1726 0.2689 0.7557
H25 H 1.2135 0.2670 0.8347
C21 C 0.9812(6) 0.3352(5) 0.8604(4)
H26 H 0.9997 0.2825 0.9109
H27 H 0.9620 0.3032 0.8258
H28 H 0.9151 0.3864 0.8786
C22 C 1.1756(3) 0.6082(3) 0.6586(2)
C23 C 1.1521(3) 0.6595(3) 0.5751(2)
C24 C 1.0381(3) 0.7001(2) 0.5687(2)
C25 C 0.9446(3) 0.6910(3) 0.6436(2)
C26 C 0.9648(3) 0.6404(3) 0.7280(2)
C27 C 1.2424(3) 0.6694(3) 0.5016(2)
H29 H 1.3192 0.6426 0.5059
C28 C 1.2226(3) 0.7176(3) 0.4220(2)
H30 H 1.2863 0.7236 0.3724
C29 C 1.1110(3) 0.7580(2) 0.4124(2)
C30 C 1.0168(3) 0.7495(2) 0.4870(2)
C31 C 0.9007(3) 0.7902(2) 0.4814(2)
C32 C 0.8116(3) 0.7796(3) 0.5572(2)
H31 H 0.7342 0.8064 0.5542
C33 C 0.8331(3) 0.7315(3) 0.6358(2)
H32 H 0.7704 0.7257 0.6860
C34 C 1.0893(3) 0.8068(2) 0.3287(2)
C35 C 1.1785(3) 0.8141(3) 0.2533(2)
H33 H 1.2555 0.7862 0.2568
C36 C 1.1581(3) 0.8606(3) 0.1743(2)
H34 H 1.2214 0.8637 0.1245
C37 C 1.0467(3) 0.9035(2) 0.1648(2)
C38 C 0.9531(3) 0.8956(2) 0.2400(2)
C39 C 0.9743(3) 0.8475(2) 0.3221(2)
C40 C 0.8794(3) 0.8394(2) 0.3979(2)
C41 C 0.7681(3) 0.8813(3) 0.3879(2)
H35 H 0.7045 0.8777 0.4375
C42 C 0.7481(3) 0.9275(3) 0.3086(2)
H36 H 0.6710 0.9552 0.3053
C43 C 0.8369(3) 0.9352(2) 0.2326(2)
C44 C 0.8144(3) 0.9794(2) 0.1508(2)
C45 C 0.9064(3) 0.9884(2) 0.0760(2)
C46 C 0.8882(3) 1.0325(2) -0.0065(2)
H37 H 0.8109 1.0539 -0.0105
C47 C 0.9756(3) 1.0465(2) -0.0813(2)
C48 C 0.6932(3) 1.0164(3) 0.1442(2)
C49 C 0.6176(3) 0.9480(3) 0.1709(2)
H38 H 0.6427 0.8772 0.1956
C50 C 0.5064(3) 0.9814(3) 0.1621(2)
H39 H 0.4567 0.9329 0.1809
C51 C 0.4658(3) 1.0837(3) 0.1266(2)
C52 C 0.5412(3) 1.1518(3) 0.1011(2)
H40 H 0.5157 1.2228 0.0773
C53 C 0.6525(3) 1.1188(3) 0.1095(2)
H41 H 0.7019 1.1674 0.0910
C54 C 0.3425(3) 1.1180(3) 0.1159(2)
C55 C 0.3112(4) 1.2333(3) 0.0819(3)
H42 H 0.3202 1.2663 0.1202
H43 H 0.2310 1.2516 0.0789
H44 H 0.3622 1.2566 0.0245
C56 C 0.3325(4) 1.0673(4) 0.0544(3)
H45 H 0.2526 1.0840 0.0508
H46 H 0.3547 0.9927 0.0755
H47 H 0.3836 1.0926 -0.0024
C57 C 0.2556(3) 1.0836(4) 0.2037(3)
H48 H 0.2598 1.1179 0.2429
H49 H 0.2746 1.0091 0.2275
H50 H 0.1774 1.1019 0.1966
O1A O 0.7280(2) 1.4308(2) -0.66752(15)
O2A O 1.1123(2) 1.3717(2) -0.79442(15)
N2A N 0.9196(2) 1.3951(2) -0.73066(17)
C10A C 0.8972(3) 1.4420(3) -0.8144(2)
C11A C 0.8780(3) 1.3780(3) -0.8533(2)
C12A C 0.8549(3) 1.4240(3) -0.9319(2)
H12A H 0.8410 1.3832 -0.9601
C13A C 0.8514(3) 1.5280(3) -0.9707(2)
H13A H 0.8356 1.5580 -1.0250
C14A C 0.8708(4) 1.5879(3) -0.9305(2)
H14A H 0.8683 1.6593 -0.9577
C15A C 0.8939(3) 1.5462(3) -0.8510(2)
C16A C 0.8814(4) 1.2637(3) -0.8103(2)
H15A H 0.9213 1.2438 -0.7641
C17A C 0.9492(4) 1.1996(3) -0.8722(3)
H16A H 1.0265 1.2171 -0.8998
H17A H 0.9557 1.1265 -0.8407
H18A H 0.9090 1.2140 -0.9160
C18A C 0.7593(4) 1.2409(4) -0.7680(3)
H19A H 0.7156 1.2660 -0.8110
H20A H 0.7625 1.1667 -0.7430
H21A H 0.7212 1.2755 -0.7229
C19A C 0.9154(4) 1.6127(3) -0.8073(3)
H22A H 0.9336 1.5663 -0.7529
C20A C 0.8102(5) 1.6889(5) -0.7832(5)
H23A H 0.7477 1.6526 -0.7433
H24A H 0.8274 1.7311 -0.7557
H25A H 0.7865 1.7330 -0.8347
C21A C 1.0188(6) 1.6648(5) -0.8604(4)
H26A H 1.0003 1.7175 -0.9109
H27A H 1.0380 1.6968 -0.8258
H28A H 1.0849 1.6136 -0.8786
C22A C 0.8244(3) 1.3918(3) -0.6586(2)
C23A C 0.8479(3) 1.3405(3) -0.5751(2)
C24A C 0.9619(3) 1.2999(2) -0.5687(2)
C25A C 1.0554(3) 1.3090(3) -0.6436(2)
C26A C 1.0352(3) 1.3596(3) -0.7280(2)
C27A C 0.7576(3) 1.3306(3) -0.5016(2)
H29A H 0.6808 1.3574 -0.5059
C28A C 0.7774(3) 1.2824(3) -0.4220(2)
H30A H 0.7137 1.2764 -0.3724
C29A C 0.8890(3) 1.2420(2) -0.4124(2)
C30A C 0.9832(3) 1.2505(2) -0.4870(2)
C31A C 1.0993(3) 1.2098(2) -0.4814(2)
C32A C 1.1884(3) 1.2204(3) -0.5572(2)
H31A H 1.2658 1.1936 -0.5542
C33A C 1.1669(3) 1.2685(3) -0.6358(2)
H32A H 1.2296 1.2743 -0.6860
C34A C 0.9107(3) 1.1932(2) -0.3287(2)
C35A C 0.8215(3) 1.1859(3) -0.2533(2)
H33A H 0.7445 1.2138 -0.2568
C36A C 0.8419(3) 1.1394(3) -0.1743(2)
H34A H 0.7786 1.1363 -0.1245
C37A C 0.9533(3) 1.0965(2) -0.1648(2)
C38A C 1.0469(3) 1.1044(2) -0.2400(2)
C39A C 1.0257(3) 1.1525(2) -0.3221(2)
C40A C 1.1206(3) 1.1606(2) -0.3979(2)
C41A C 1.2319(3) 1.1187(3) -0.3879(2)
H35A H 1.2955 1.1223 -0.4375
C42A C 1.2519(3) 1.0725(3) -0.3086(2)
H36A H 1.3290 1.0448 -0.3053
C43A C 1.1631(3) 1.0648(2) -0.2326(2)
C44A C 1.1856(3) 1.0206(2) -0.1508(2)
C45A C 1.0936(3) 1.0116(2) -0.0760(2)
C46A C 1.1118(3) 0.9675(2) 0.0065(2)
H37A H 1.1891 0.9461 0.0105
C47A C 1.0244(3) 0.9535(2) 0.0813(2)
C48A C 1.3068(3) 0.9836(3) -0.1442(2)
C49A C 1.3824(3) 1.0520(3) -0.1709(2)
H38A H 1.3573 1.1228 -0.1956
C50A C 1.4936(3) 1.0186(3) -0.1621(2)
H39A H 1.5433 1.0671 -0.1809
C51A C 1.5342(3) 0.9163(3) -0.1266(2)
C52A C 1.4588(3) 0.8482(3) -0.1011(2)
H40A H 1.4843 0.7772 -0.0773
C53A C 1.3475(3) 0.8812(3) -0.1095(2)
H41A H 1.2981 0.8326 -0.0910
C54A C 1.6575(3) 0.8820(3) -0.1159(2)
C55A C 1.6888(4) 0.7667(3) -0.0819(3)
H42A H 1.6798 0.7337 -0.1202
H43A H 1.7690 0.7484 -0.0789
H44A H 1.6378 0.7434 -0.0245
C56A C 1.6675(4) 0.9327(4) -0.0544(3)
H45A H 1.7474 0.9160 -0.0508
H46A H 1.6453 1.0073 -0.0755
H47A H 1.6164 0.9074 0.0024
C57A C 1.7444(3) 0.9164(4) -0.2037(3)
H48A H 1.7402 0.8821 -0.2429
H49A H 1.7254 0.9909 -0.2275
H50A H 1.8226 0.8981 -0.1966
C58? C 0.5270(10) 0.7123(7) 0.4838(7)
C59? C 0.5002(11) 0.7896(9) 0.4135(6)
H51? H 0.5083 0.7737 0.3625
C60? C 0.4615(11) 0.8903(8) 0.4179(8)
H52? H 0.4431 0.9431 0.3698
C61? C 0.4496(9) 0.9136(7) 0.4925(9)
H53? H 0.4231 0.9823 0.4955
C62? C 0.4764(10) 0.8362(10) 0.5627(8)
H54? H 0.4683 0.8521 0.6137
C63? C 0.5151(10) 0.7356(9) 0.5584(6)
H55? H 0.5335 0.6827 0.6064
C64? C 0.5727(13) 0.6014(9) 0.4786(10)
H56? H 0.6024 0.6014 0.4184
H57? H 0.5100 0.5617 0.5071
H58? H 0.6349 0.5705 0.5071
C65? C 0.5593(13) 0.4982(13) 0.9663(9)
C66? C 0.4586(14) 0.5706(12) 0.9648(9)
H59? H 0.4530 0.6244 0.9139
C67? C 0.3660(12) 0.5642(13) 1.0376(11)
H60? H 0.2972 0.6137 1.0366
C68? C 0.3742(14) 0.4855(14) 1.1121(9)
H61? H 0.3109 0.4811 1.1619
C69? C 0.4749(15) 0.4131(12) 1.1136(8)
H62? H 0.4805 0.3593 1.1644
C70? C 0.5674(13) 0.4195(12) 1.0407(9)
H63? H 0.6363 0.3700 1.0417
C71? C 0.6593(16) 0.5014(18) 0.8845(11)
H64? H 0.6292 0.5352 0.8342
H65? H 0.6982 0.4313 0.8835
H66? H 0.7144 0.5399 0.8836
C72? C 0.9504(6) 0.0263(6) 0.4770(5)
C73? C 1.0624(7) 0.0093(5) 0.4259(3)
H67? H 1.0773 0.0315 0.3653
C74? C 1.1527(5) -0.0402(6) 0.4635(6)
H68? H 1.2292 -0.0518 0.4286
C75? C 1.1309(7) -0.0727(6) 0.5522(6)
H69? H 1.1925 -0.1065 0.5779
C76? C 1.0188(8) -0.0557(5) 0.6032(4)
H70? H 1.0039 -0.0779 0.6639
C77? C 0.9286(6) -0.0062(5) 0.5656(4)
H71? H 0.8520 0.0054 0.6005
C78? C 0.8480(13) 0.0788(13) 0.4373(11)
H72? H 0.8767 0.0995 0.3747
H73? H 0.8073 0.1396 0.4572
H74? H 0.7949 0.0307 0.4549
C79? C 0.2166(14) 0.5182(11) 0.3406(9)
H75? H 0.2643 0.5588 0.3464
H76? H 0.1962 0.5506 0.2861
H77? H 0.2598 0.4486 0.3419
C80? C 0.106(2) 0.513(3) 0.4148(15)
C81? C 0.118(2) 0.459(3) 0.4965(15)
H78? H 0.1923 0.4260 0.5046
C82? C 0.021(2) 0.452(3) 0.5664(15)
H79? H 0.0294 0.4148 0.6223
C83? C -0.087(2) 0.500(3) 0.5546(15)
H80? H -0.1534 0.4951 0.6024
C84? C -0.099(2) 0.554(3) 0.4728(15)
H81? H -0.1733 0.5866 0.4647
C85? C -0.002(2) 0.561(3) 0.4029(15)
H82? H -0.0105 0.5979 0.3471
loop_
_geom_bond_atom_site_label_1
_geom_bond_atom_site_label_2
_geom_bond_site_symmetry_1
_geom_bond_site_symmetry_2
C1 C2 1_555 1_555
C2 H1 1_555 1_555
C3 C2 1_555 1_555
H2 C3 1_555 1_555
C4 C3 1_555 1_555
H3 C4 1_555 1_555
C5 C4 1_555 1_555
H4 C5 1_555 1_555
C6 C1 1_555 1_555
H5 C6 1_555 1_555
C7 C1 1_555 1_555
H6 C7 1_555 1_555
H7 C7 1_555 1_555
H8 C7 1_555 1_555
N1 C9 1_555 1_555
C8 H9 1_555 1_555
H10 C8 1_555 1_555
H11 C8 1_555 1_555
C9 C8 1_555 1_555
O1 C22 1_555 1_555
O2 C26 1_555 1_555
N2 C10 1_555 1_555
C10 C11 1_555 1_555
C11 C12 1_555 1_555
C12 H12 1_555 1_555
C13 C12 1_555 1_555
H13 C13 1_555 1_555
C14 C13 1_555 1_555
H14 C14 1_555 1_555
C15 C10 1_555 1_555
C16 C11 1_555 1_555
H15 C16 1_555 1_555
C17 C16 1_555 1_555
H16 C17 1_555 1_555
H17 C17 1_555 1_555
H18 C17 1_555 1_555
C18 C16 1_555 1_555
H19 C18 1_555 1_555
H20 C18 1_555 1_555
H21 C18 1_555 1_555
C19 C15 1_555 1_555
H22 C19 1_555 1_555
C20 C19 1_555 1_555
H23 C20 1_555 1_555
H24 C20 1_555 1_555
H25 C20 1_555 1_555
C21 C19 1_555 1_555
H26 C21 1_555 1_555
H27 C21 1_555 1_555
H28 C21 1_555 1_555
C22 N2 1_555 1_555
C23 C22 1_555 1_555
C24 C23 1_555 1_555
C25 C24 1_555 1_555
C26 N2 1_555 1_555
C27 C23 1_555 1_555
H29 C27 1_555 1_555
C28 C27 1_555 1_555
H30 C28 1_555 1_555
C29 C28 1_555 1_555
C30 C24 1_555 1_555
C31 C30 1_555 1_555
C32 C31 1_555 1_555
H31 C32 1_555 1_555
C33 C25 1_555 1_555
H32 C33 1_555 1_555
C34 C29 1_555 1_555
C35 C34 1_555 1_555
H33 C35 1_555 1_555
C36 C35 1_555 1_555
H34 C36 1_555 1_555
C37 C36 1_555 1_555
C38 C37 1_555 1_555
C39 C34 1_555 1_555
C40 C31 1_555 1_555
C41 C40 1_555 1_555
H35 C41 1_555 1_555
C42 C41 1_555 1_555
H36 C42 1_555 1_555
C43 C38 1_555 1_555
C44 C43 1_555 1_555
C45 C44 1_555 1_555
C46 C45 1_555 1_555
H37 C46 1_555 1_555
C47 C46 1_555 1_555
C48 C44 1_555 1_555
C49 C48 1_555 1_555
H38 C49 1_555 1_555
C50 C49 1_555 1_555
H39 C50 1_555 1_555
C51 C50 1_555 1_555
C52 C51 1_555 1_555
H40 C52 1_555 1_555
C53 C48 1_555 1_555
H41 C53 1_555 1_555
C54 C51 1_555 1_555
C55 C54 1_555 1_555
H42 C55 1_555 1_555
H43 C55 1_555 1_555
H44 C55 1_555 1_555
C56 C54 1_555 1_555
H45 C56 1_555 1_555
H46 C56 1_555 1_555
H47 C56 1_555 1_555
C57 C54 1_555 1_555
H48 C57 1_555 1_555
H49 C57 1_555 1_555
H50 C57 1_555 1_555
O1A C22A 1_555 1_555
O2A C26A 1_555 1_555
N2A C10A 1_555 1_555
C10A C11A 1_555 1_555
C11A C12A 1_555 1_555
C12A H12A 1_555 1_555
C13A C12A 1_555 1_555
H13A C13A 1_555 1_555
C14A C13A 1_555 1_555
H14A C14A 1_555 1_555
C15A C10A 1_555 1_555
C16A C11A 1_555 1_555
H15A C16A 1_555 1_555
C17A C16A 1_555 1_555
H16A C17A 1_555 1_555
H17A C17A 1_555 1_555
H18A C17A 1_555 1_555
C18A C16A 1_555 1_555
H19A C18A 1_555 1_555
H20A C18A 1_555 1_555
H21A C18A 1_555 1_555
C19A C15A 1_555 1_555
H22A C19A 1_555 1_555
C20A C19A 1_555 1_555
H23A C20A 1_555 1_555
H24A C20A 1_555 1_555
H25A C20A 1_555 1_555
C21A C19A 1_555 1_555
H26A C21A 1_555 1_555
H27A C21A 1_555 1_555
H28A C21A 1_555 1_555
C22A N2A 1_555 1_555
C23A C22A 1_555 1_555
C24A C23A 1_555 1_555
C25A C24A 1_555 1_555
C26A N2A 1_555 1_555
C27A C23A 1_555 1_555
H29A C27A 1_555 1_555
C28A C27A 1_555 1_555
H30A C28A 1_555 1_555
C29A C28A 1_555 1_555
C30A C24A 1_555 1_555
C31A C30A 1_555 1_555
C32A C31A 1_555 1_555
H31A C32A 1_555 1_555
C33A C25A 1_555 1_555
H32A C33A 1_555 1_555
C34A C29A 1_555 1_555
C35A C34A 1_555 1_555
H33A C35A 1_555 1_555
C36A C35A 1_555 1_555
H34A C36A 1_555 1_555
C37A C47 1_555 1_555
C38A C37A 1_555 1_555
C39A C34A 1_555 1_555
C40A C31A 1_555 1_555
C41A C40A 1_555 1_555
H35A C41A 1_555 1_555
C42A C41A 1_555 1_555
H36A C42A 1_555 1_555
C43A C38A 1_555 1_555
C44A C43A 1_555 1_555
C45A C47 1_555 1_555
C46A C45A 1_555 1_555
H37A C46A 1_555 1_555
C47A C37 1_555 1_555
C48A C44A 1_555 1_555
C49A C48A 1_555 1_555
H38A C49A 1_555 1_555
C50A C49A 1_555 1_555
H39A C50A 1_555 1_555
C51A C50A 1_555 1_555
C52A C51A 1_555 1_555
H40A C52A 1_555 1_555
C53A C48A 1_555 1_555
H41A C53A 1_555 1_555
C54A C51A 1_555 1_555
C55A C54A 1_555 1_555
H42A C55A 1_555 1_555
H43A C55A 1_555 1_555
H44A C55A 1_555 1_555
C56A C54A 1_555 1_555
H45A C56A 1_555 1_555
H46A C56A 1_555 1_555
H47A C56A 1_555 1_555
C57A C54A 1_555 1_555
H48A C57A 1_555 1_555
H49A C57A 1_555 1_555
H50A C57A 1_555 1_555
C5 C6 1_555 1_555
C14 C15 1_555 1_555
C25 C26 1_555 1_555
C29 C30 1_555 1_555
C32 C33 1_555 1_555
C38 C39 1_555 1_555
C39 C40 1_555 1_555
C42 C43 1_555 1_555
C45 C47A 1_555 1_555
C52 C53 1_555 1_555
C14A C15A 1_555 1_555
C25A C26A 1_555 1_555
C29A C30A 1_555 1_555
C32A C33A 1_555 1_555
C36A C37A 1_555 1_555
C38A C39A 1_555 1_555
C39A C40A 1_555 1_555
C42A C43A 1_555 1_555
C44A C45A 1_555 1_555
C46A C47A 1_555 1_555
C52A C53A 1_555 1_555

#END
