
#######################################################################
#
#                 Cambridge Crystallographic Data Centre
#                                CCDC 
#
#######################################################################
#
# If this CIF has been generated from an entry in the Cambridge 
# Structural Database, then it will include bibliographic, chemical, 
# crystal, experimental, refinement or atomic coordinate data resulting 
# from the CCDC's data processing and validation procedures.
#
#######################################################################

data_LOGJUO
_chemical_formula_moiety         'C25 H27 N1'
_chemical_name_systematic        9-benzyl-4-methyl-3-pentyl-9H-carbazole
_symmetry_cell_setting           triclinic
_symmetry_space_group_name_H-M   'P -1'
_symmetry_Int_Tables_number      2
_space_group_name_Hall           '-P 1'
loop_
_symmetry_equiv_pos_site_id
_symmetry_equiv_pos_as_xyz
1 x,y,z
2 -x,-y,-z
_cell_length_a                   5.8176(5)
_cell_length_b                   11.7814(11)
_cell_length_c                   15.1647(14)
_cell_angle_alpha                107.077(8)
_cell_angle_beta                 96.708(7)
_cell_angle_gamma                93.760(7)
_cell_volume                     981.278
_exptl_crystal_colour            colorless
_exptl_crystal_description       block
_cell_formula_units_Z            2
loop_
_atom_site_label
_atom_site_type_symbol
_atom_site_fract_x
_atom_site_fract_y
_atom_site_fract_z
N1 N 1.2534(3) -0.14757(17) 0.18819(12)
C1 C 1.1424(4) -0.2580(2) 0.18149(16)
C2 C 1.1828(5) -0.3694(2) 0.12480(18)
H1 H 1.2976 -0.3774 0.0862
C3 C 1.0439(6) -0.4680(3) 0.1286(2)
H2 H 1.0666 -0.5439 0.0921
C4 C 0.8733(6) -0.4552(3) 0.1856(2)
H3 H 0.7815 -0.5227 0.1859
C5 C 0.8350(5) -0.3452(2) 0.24188(19)
H4 H 0.7199 -0.3384 0.2803
C6 C 0.9718(4) -0.2437(2) 0.24060(16)
C7 C 0.9824(4) -0.11628(19) 0.28839(14)
C8 C 0.8612(4) -0.04718(19) 0.35512(14)
C9 C 0.9159(4) 0.0770(2) 0.38650(14)
C10 C 1.0921(4) 0.1277(2) 0.34964(15)
H5 H 1.1276 0.2102 0.3705
C11 C 1.2150(4) 0.0612(2) 0.28396(15)
H6 H 1.3316 0.0974 0.2612
C12 C 1.1594(3) -0.0609(2) 0.25324(14)
C13 C 0.6761(4) -0.1055(2) 0.39442(17)
H7 H 0.6674 -0.0575 0.4569
H8 H 0.7147 -0.1834 0.3948
H9 H 0.5284 -0.1128 0.3565
C14 C 0.7874(4) 0.1537(2) 0.45926(16)
H10 H 0.6223 0.1370 0.4360
H11 H 0.8126 0.1280 0.5145
C15 C 0.8478(4) 0.2870(2) 0.48862(17)
H12 H 0.8247 0.3143 0.4341
H13 H 1.0110 0.3057 0.5148
C16 C 0.7025(4) 0.3532(2) 0.55978(17)
H14 H 0.5397 0.3353 0.5329
H15 H 0.7227 0.3239 0.6134
C17 C 0.7620(5) 0.4871(2) 0.5926(2)
H16 H 0.9245 0.5054 0.6197
H17 H 0.7417 0.5167 0.5391
C18 C 0.6161(6) 0.5513(3) 0.6630(2)
H18 H 0.4545 0.5317 0.6374
H19 H 0.6558 0.6359 0.6784
H20 H 0.6446 0.5273 0.7182
C19 C 1.4535(4) -0.1295(2) 0.14349(16)
H21 H 1.5695 -0.1797 0.1573
H22 H 1.5205 -0.0471 0.1704
C20 C 1.4019(4) -0.15636(19) 0.03930(15)
C21 C 1.2084(5) -0.1242(3) -0.00238(18)
H23 H 1.1013 -0.0860 0.0339
C22 C 1.1680(6) -0.1475(3) -0.0980(2)
H24 H 1.0339 -0.1254 -0.1255
C23 C 1.3224(7) -0.2022(3) -0.1517(2)
H25 H 1.2956 -0.2172 -0.2159
C24 C 1.5146(6) -0.2346(3) -0.1117(2)
H26 H 1.6218 -0.2721 -0.1483
C25 C 1.5533(5) -0.2124(2) -0.01670(19)
H27 H 1.6863 -0.2364 0.0100
loop_
_geom_bond_atom_site_label_1
_geom_bond_atom_site_label_2
_geom_bond_site_symmetry_1
_geom_bond_site_symmetry_2
N1 C1 1_555 1_555
C1 C2 1_555 1_555
C2 H1 1_555 1_555
C3 C2 1_555 1_555
H2 C3 1_555 1_555
C4 C3 1_555 1_555
H3 C4 1_555 1_555
C5 C4 1_555 1_555
H4 C5 1_555 1_555
C6 C1 1_555 1_555
C7 C6 1_555 1_555
C8 C7 1_555 1_555
C9 C8 1_555 1_555
C10 C9 1_555 1_555
H5 C10 1_555 1_555
C11 C10 1_555 1_555
H6 C11 1_555 1_555
C12 N1 1_555 1_555
C13 C8 1_555 1_555
H7 C13 1_555 1_555
H8 C13 1_555 1_555
H9 C13 1_555 1_555
C14 C9 1_555 1_555
H10 C14 1_555 1_555
H11 C14 1_555 1_555
C15 C14 1_555 1_555
H12 C15 1_555 1_555
H13 C15 1_555 1_555
C16 C15 1_555 1_555
H14 C16 1_555 1_555
H15 C16 1_555 1_555
C17 C16 1_555 1_555
H16 C17 1_555 1_555
H17 C17 1_555 1_555
C18 C17 1_555 1_555
H18 C18 1_555 1_555
H19 C18 1_555 1_555
H20 C18 1_555 1_555
C19 N1 1_555 1_555
H21 C19 1_555 1_555
H22 C19 1_555 1_555
C20 C19 1_555 1_555
C21 C20 1_555 1_555
H23 C21 1_555 1_555
C22 C21 1_555 1_555
H24 C22 1_555 1_555
C23 C22 1_555 1_555
H25 C23 1_555 1_555
C24 C23 1_555 1_555
H26 C24 1_555 1_555
C25 C20 1_555 1_555
H27 C25 1_555 1_555
C5 C6 1_555 1_555
C7 C12 1_555 1_555
C11 C12 1_555 1_555
C24 C25 1_555 1_555

#END
