
#######################################################################
#
#                 Cambridge Crystallographic Data Centre
#                                CCDC 
#
#######################################################################
#
# If this CIF has been generated from an entry in the Cambridge 
# Structural Database, then it will include bibliographic, chemical, 
# crystal, experimental, refinement or atomic coordinate data resulting 
# from the CCDC's data processing and validation procedures.
#
#######################################################################

data_LOGKAV
_chemical_formula_moiety         'C19 H21 N1'
_chemical_name_systematic        
3-cyclopropyl-9-ethyl-1,4-dimethyl-9H-carbazole
_symmetry_cell_setting           monoclinic
_symmetry_space_group_name_H-M   'P 21/c'
_symmetry_Int_Tables_number      14
_space_group_name_Hall           '-P 2ybc'
loop_
_symmetry_equiv_pos_site_id
_symmetry_equiv_pos_as_xyz
1 x,y,z
2 -x,1/2+y,1/2-z
3 -x,-y,-z
4 x,1/2-y,1/2+z
_cell_length_a                   4.9183(3)
_cell_length_b                   21.9564(18)
_cell_length_c                   14.1548(11)
_cell_angle_alpha                90
_cell_angle_beta                 98.836(7)
_cell_angle_gamma                90
_cell_volume                     1510.41
_exptl_crystal_colour            colorless
_exptl_crystal_description       needle
_cell_formula_units_Z            4
loop_
_atom_site_label
_atom_site_type_symbol
_atom_site_fract_x
_atom_site_fract_y
_atom_site_fract_z
N1 N 0.4624(3) 0.67011(9) 0.77811(13)
C1 C 0.3465(4) 0.64015(11) 0.84838(16)
C2 C 0.3737(5) 0.57930(12) 0.8764(2)
H1 H 0.4827 0.5525 0.8477
C3 C 0.2330(5) 0.56022(14) 0.9482(2)
H2 H 0.2477 0.5198 0.9681
C4 C 0.0712(6) 0.59961(15) 0.9910(2)
H3 H -0.0225 0.5853 1.0388
C5 C 0.0462(4) 0.65968(13) 0.96424(16)
H4 H -0.0628 0.6859 0.9940
C6 C 0.1855(4) 0.68119(10) 0.89209(15)
C7 C 0.2044(3) 0.73933(10) 0.84569(14)
C8 C 0.0911(3) 0.79665(10) 0.86045(14)
C9 C 0.1461(4) 0.84434(10) 0.80173(16)
C10 C 0.3098(4) 0.83353(11) 0.73090(15)
H5 H 0.3413 0.8661 0.6919
C11 C 0.4281(4) 0.77827(11) 0.71443(14)
C12 C 0.3739(3) 0.73050(10) 0.77441(14)
C13 C -0.0848(4) 0.80527(12) 0.93754(16)
H6 H -0.2546 0.7835 0.9208
H7 H -0.1229 0.8478 0.9440
H8 H 0.0108 0.7900 0.9970
C14 C 0.0233(5) 0.90603(12) 0.8102(2)
H9 H -0.1783 0.9062 0.7985
C15 C 0.1435(8) 0.95111(15) 0.8813(3)
H10 H 0.0184 0.9751 0.9128
H11 H 0.3163 0.9409 0.9209
C16 C 0.1475(7) 0.96241(13) 0.7804(3)
H12 H 0.3228 0.9592 0.7573
H13 H 0.0250 0.9935 0.7492
C17 C 0.5981(4) 0.77402(13) 0.63478(16)
H14 H 0.7864 0.7661 0.6612
H15 H 0.5864 0.8117 0.6001
H16 H 0.5297 0.7415 0.5923
C18 C 0.6389(4) 0.63948(12) 0.71949(17)
H17 H 0.7494 0.6094 0.7582
H18 H 0.7634 0.6691 0.6985
C19 C 0.4804(6) 0.60837(14) 0.6327(2)
H19 H 0.3845 0.6384 0.5909
H20 H 0.3503 0.5804 0.6526
H21 H 0.6060 0.5866 0.5994
loop_
_geom_bond_atom_site_label_1
_geom_bond_atom_site_label_2
_geom_bond_site_symmetry_1
_geom_bond_site_symmetry_2
N1 C1 1_555 1_555
C1 C2 1_555 1_555
C2 H1 1_555 1_555
C3 C2 1_555 1_555
H2 C3 1_555 1_555
C4 C3 1_555 1_555
H3 C4 1_555 1_555
C5 C4 1_555 1_555
H4 C5 1_555 1_555
C6 C1 1_555 1_555
C7 C6 1_555 1_555
C8 C7 1_555 1_555
C9 C8 1_555 1_555
C10 C9 1_555 1_555
H5 C10 1_555 1_555
C11 C10 1_555 1_555
C12 N1 1_555 1_555
C13 C8 1_555 1_555
H6 C13 1_555 1_555
H7 C13 1_555 1_555
H8 C13 1_555 1_555
C14 C9 1_555 1_555
H9 C14 1_555 1_555
C15 C14 1_555 1_555
H10 C15 1_555 1_555
H11 C15 1_555 1_555
C16 C14 1_555 1_555
H12 C16 1_555 1_555
H13 C16 1_555 1_555
C17 C11 1_555 1_555
H14 C17 1_555 1_555
H15 C17 1_555 1_555
H16 C17 1_555 1_555
C18 N1 1_555 1_555
H17 C18 1_555 1_555
H18 C18 1_555 1_555
C19 C18 1_555 1_555
H19 C19 1_555 1_555
H20 C19 1_555 1_555
H21 C19 1_555 1_555
C5 C6 1_555 1_555
C7 C12 1_555 1_555
C11 C12 1_555 1_555
C15 C16 1_555 1_555

#END
