
#######################################################################
#
#                 Cambridge Crystallographic Data Centre
#                                CCDC 
#
#######################################################################
#
# If this CIF has been generated from an entry in the Cambridge 
# Structural Database, then it will include bibliographic, chemical, 
# crystal, experimental, refinement or atomic coordinate data resulting 
# from the CCDC's data processing and validation procedures.
#
#######################################################################

data_LOGMEB
_chemical_formula_moiety         'C57 H52 N2 O10'
_chemical_name_systematic        
'4,9,14,19,34,36,38,40-Octamethoxy-26,31-diphenyl-25,30-dioxa-27,32-diazaoctacyclo[21.5.5.2^3,6^.2^8,11^.2^13,16^.2^18,21^.0^24,28^.0^29,33^]hentetraconta-1(28),3,5,8,10,13,15,18,20,23,26,29(33),31,34,36,38,40-heptadecaene unknown solvate'
_symmetry_cell_setting           triclinic
_symmetry_space_group_name_H-M   'P -1'
_symmetry_Int_Tables_number      2
_space_group_name_Hall           '-P 1'
loop_
_symmetry_equiv_pos_site_id
_symmetry_equiv_pos_as_xyz
1 x,y,z
2 -x,-y,-z
_cell_length_a                   11.774(16)
_cell_length_b                   13.147(19)
_cell_length_c                   19.45(3)
_cell_angle_alpha                89.34(14)
_cell_angle_beta                 77.56(8)
_cell_angle_gamma                83.02(10)
_cell_volume                     2917.91
_exptl_crystal_colour            colorless
_exptl_crystal_description       block
_cell_formula_units_Z            2
loop_
_atom_site_label
_atom_site_type_symbol
_atom_site_fract_x
_atom_site_fract_y
_atom_site_fract_z
C1 C 0.69581(16) 1.10374(14) 0.83471(10)
C2 C 0.63356(16) 1.02292(14) 0.86317(10)
H1 H 0.6348 1.0016 0.9099
C3 C 0.57031(16) 0.97382(14) 0.82398(11)
C4 C 0.56768(16) 1.00388(14) 0.75540(10)
C5 C 0.62775(17) 1.08549(14) 0.72791(10)
H2 H 0.6263 1.1072 0.6813
C6 C 0.68947(16) 1.13534(14) 0.76737(10)
C7 C 0.50167(17) 0.94840(15) 0.71123(11)
H3 H 0.4263 0.9336 0.7411
H4 H 0.4840 0.9937 0.6729
C8 C 0.57038(17) 0.84949(15) 0.67971(11)
C9 C 0.55392(17) 0.75681(16) 0.71206(11)
H5 H 0.4973 0.7554 0.7549
C10 C 0.61863(18) 0.66451(15) 0.68324(11)
C11 C 0.70073(17) 0.66572(15) 0.62017(10)
C12 C 0.71725(18) 0.75879(15) 0.58697(10)
H6 H 0.7736 0.7601 0.5440
C13 C 1.20981(16) 0.61425(14) 0.74807(10)
C14 C 0.65263(18) 0.84996(15) 0.61560(10)
C15 C 0.77739(18) 0.56792(14) 0.59058(10)
H7 H 0.7342 0.5083 0.6047
H8 H 0.7961 0.5703 0.5385
C16 C 0.89022(18) 0.55514(14) 0.61731(10)
C17 C 0.89416(17) 0.50713(13) 0.68090(10)
H9 H 0.8267 0.4797 0.7064
C18 C 0.99512(17) 0.49840(14) 0.70809(10)
C19 C 0.76886(16) 1.15132(14) 0.87829(10)
H10 H 0.7899 1.2173 0.8573
H11 H 0.7216 1.1658 0.9266
C20 C 1.09575(16) 0.53670(13) 0.67069(10)
C21 C 0.98988(18) 0.59515(15) 0.58073(10)
C22 C 1.20735(16) 0.52667(14) 0.69871(10)
H12 H 1.2143 0.4612 0.7240
H13 H 1.2756 0.5247 0.6586
O1 O 0.66466(15) 0.94409(11) 0.58504(8)
C23 C 1.18245(17) 0.60180(14) 0.82028(10)
H14 H 1.1633 0.5373 0.8386
C24 C 1.18234(17) 0.68192(15) 0.86701(10)
C25 C 1.20970(15) 0.77713(14) 0.84082(10)
C26 C 1.23910(16) 0.70891(15) 0.72159(10)
C27 C 1.20468(16) 0.86791(14) 0.88879(10)
H15 H 1.2755 0.9028 0.8730
H16 H 1.2030 0.8441 0.9374
C28 C 1.0754(2) 0.69500(18) 0.48451(12)
H17 H 1.0893 0.7472 0.5163
H18 H 1.0569 0.7278 0.4421
H19 H 1.1457 0.6453 0.4714
C29 C 1.09180(16) 1.02271(14) 0.84047(10)
C30 C 0.98798(17) 1.08647(14) 0.83866(10)
C31 C 0.87976(17) 1.08208(14) 0.88213(10)
C32 C 0.88220(16) 1.00133(14) 0.92919(10)
C33 C 0.98749(16) 0.93695(13) 0.93089(9)
C34 C 1.13261(17) 1.12834(14) 0.75787(10)
C35 C 1.18760(18) 1.18792(14) 0.69893(10)
C36 C 1.12125(18) 1.25132(14) 0.66063(10)
H20 H 1.0381 1.2562 0.6724
C37 C 1.1766(2) 1.30723(14) 0.60531(10)
H21 H 1.1312 1.3500 0.5790
C38 C 1.2980(2) 1.30140(17) 0.58795(11)
H22 H 1.3355 1.3400 0.5500
C39 C 1.3643(2) 1.23865(18) 0.62650(12)
H23 H 1.4474 1.2345 0.6148
C40 C 1.31017(18) 1.18230(15) 0.68182(11)
H24 H 1.3559 1.1399 0.7082
C41 C 0.84142(16) 0.88943(14) 1.00808(10)
C42 C 0.78675(17) 0.82337(13) 1.06259(10)
C43 C 0.66580(18) 0.83587(16) 1.08685(11)
H25 H 0.6186 0.8880 1.0680
C44 C 0.6146(2) 0.77295(18) 1.13796(12)
H26 H 0.5318 0.7811 1.1536
C45 C 0.68230(19) 0.69729(16) 1.16720(11)
H27 H 0.6460 0.6539 1.2025
C46 C 0.80293(18) 0.68583(15) 1.14438(11)
H28 H 0.8498 0.6357 1.1651
C47 C 0.85600(17) 0.74715(14) 1.09138(10)
H29 H 0.9386 0.7375 1.0747
C48 C 0.7257(3) 1.2627(2) 0.67948(13)
H30 H 0.7567 1.2145 0.6399
H31 H 0.7633 1.3255 0.6706
H32 H 0.6409 1.2792 0.6845
C49 C 1.2958(2) 0.81229(17) 0.62144(12)
H33 H 1.2296 0.8653 0.6378
H34 H 1.3128 0.8077 0.5699
H35 H 1.3649 0.8300 0.6370
C50 C 0.7399(3) 0.94450(18) 0.51760(13)
H36 H 0.8197 0.9169 0.5208
H37 H 0.7395 1.0149 0.5004
H38 H 0.7126 0.9020 0.4849
C51 C 0.90452(18) 0.40555(17) 0.80686(11)
H39 H 0.8371 0.4580 0.8214
H40 H 0.9230 0.3703 0.8485
H41 H 0.8856 0.3558 0.7752
C52 C 1.1110(3) 0.58134(19) 0.96595(13)
H42 H 1.0381 0.5755 0.9506
H43 H 1.0954 0.5838 1.0175
H44 H 1.1683 0.5219 0.9485
C53 C 0.5241(2) 0.56799(19) 0.77863(14)
H45 H 0.5485 0.6072 0.8143
H46 H 0.5210 0.4967 0.7935
H47 H 0.4464 0.5980 0.7730
C54 C 0.5069(2) 0.86296(17) 0.91926(12)
H48 H 0.5871 0.8371 0.9228
H49 H 0.4566 0.8084 0.9313
H50 H 0.4773 0.9211 0.9519
C55 C 1.09624(16) 0.94233(14) 0.88770(10)
C56 C 1.23794(15) 0.78931(14) 0.76845(10)
H51 H 1.2570 0.8539 0.7502
C57 C 1.09168(18) 0.58402(14) 0.60692(10)
H52 H 1.1599 0.6094 0.5806
N1 N 0.79176(14) 0.96844(12) 0.98023(8)
N2 N 1.18192(14) 1.05139(12) 0.78709(8)
O2 O 1.15642(15) 0.67223(11) 0.93881(8)
O3 O 0.95959(11) 0.86498(9) 0.98151(7)
O4 O 1.01542(12) 1.15585(10) 0.78510(7)
O5 O 1.00307(13) 0.45272(10) 0.77124(7)
O6 O 1.26697(14) 0.71661(11) 0.64989(7)
O7 O 0.60532(13) 0.57090(11) 0.71392(9)
O8 O 0.98020(14) 0.64407(12) 0.51895(8)
O9 O 0.50657(13) 0.89507(11) 0.84947(8)
O10 O 0.74923(14) 1.21768(11) 0.74195(8)
loop_
_geom_bond_atom_site_label_1
_geom_bond_atom_site_label_2
_geom_bond_site_symmetry_1
_geom_bond_site_symmetry_2
C1 C2 1_555 1_555
C2 H1 1_555 1_555
C3 C2 1_555 1_555
C4 C3 1_555 1_555
C5 C4 1_555 1_555
H2 C5 1_555 1_555
C6 C1 1_555 1_555
C7 C4 1_555 1_555
H3 C7 1_555 1_555
H4 C7 1_555 1_555
C8 C7 1_555 1_555
C9 C8 1_555 1_555
H5 C9 1_555 1_555
C10 C9 1_555 1_555
C11 C10 1_555 1_555
C12 C11 1_555 1_555
H6 C12 1_555 1_555
C13 C22 1_555 1_555
C14 C8 1_555 1_555
C15 C11 1_555 1_555
H7 C15 1_555 1_555
H8 C15 1_555 1_555
C16 C15 1_555 1_555
C17 C16 1_555 1_555
H9 C17 1_555 1_555
C18 C17 1_555 1_555
C19 C1 1_555 1_555
H10 C19 1_555 1_555
H11 C19 1_555 1_555
C20 C18 1_555 1_555
C21 C16 1_555 1_555
C22 C20 1_555 1_555
H12 C22 1_555 1_555
H13 C22 1_555 1_555
O1 C14 1_555 1_555
C23 C13 1_555 1_555
H14 C23 1_555 1_555
C24 C23 1_555 1_555
C25 C24 1_555 1_555
C26 C13 1_555 1_555
C27 C25 1_555 1_555
H15 C27 1_555 1_555
H16 C27 1_555 1_555
C28 H17 1_555 1_555
H18 C28 1_555 1_555
H19 C28 1_555 1_555
C29 C30 1_555 1_555
C30 C31 1_555 1_555
C31 C19 1_555 1_555
C32 C31 1_555 1_555
C33 C32 1_555 1_555
C34 C35 1_555 1_555
C35 C36 1_555 1_555
C36 H20 1_555 1_555
C37 C36 1_555 1_555
H21 C37 1_555 1_555
C38 C37 1_555 1_555
H22 C38 1_555 1_555
C39 C38 1_555 1_555
H23 C39 1_555 1_555
C40 C35 1_555 1_555
H24 C40 1_555 1_555
C41 C42 1_555 1_555
C42 C43 1_555 1_555
C43 H25 1_555 1_555
C44 C43 1_555 1_555
H26 C44 1_555 1_555
C45 C44 1_555 1_555
H27 C45 1_555 1_555
C46 C45 1_555 1_555
H28 C46 1_555 1_555
C47 C42 1_555 1_555
H29 C47 1_555 1_555
C48 H30 1_555 1_555
H31 C48 1_555 1_555
H32 C48 1_555 1_555
C49 H33 1_555 1_555
H34 C49 1_555 1_555
H35 C49 1_555 1_555
C50 O1 1_555 1_555
H36 C50 1_555 1_555
H37 C50 1_555 1_555
H38 C50 1_555 1_555
C51 H39 1_555 1_555
H40 C51 1_555 1_555
H41 C51 1_555 1_555
C52 H42 1_555 1_555
H43 C52 1_555 1_555
H44 C52 1_555 1_555
C53 H45 1_555 1_555
H46 C53 1_555 1_555
H47 C53 1_555 1_555
C54 H48 1_555 1_555
H49 C54 1_555 1_555
H50 C54 1_555 1_555
C55 C27 1_555 1_555
C56 C25 1_555 1_555
H51 C56 1_555 1_555
C57 C20 1_555 1_555
H52 C57 1_555 1_555
N1 C32 1_555 1_555
N2 C29 1_555 1_555
O2 C24 1_555 1_555
O3 C33 1_555 1_555
O4 C30 1_555 1_555
O5 C18 1_555 1_555
O6 C26 1_555 1_555
O7 C10 1_555 1_555
O8 C21 1_555 1_555
O9 C3 1_555 1_555
O10 C6 1_555 1_555
C5 C6 1_555 1_555
C12 C14 1_555 1_555
C21 C57 1_555 1_555
C26 C56 1_555 1_555
C28 O8 1_555 1_555
C29 C55 1_555 1_555
C33 C55 1_555 1_555
C34 N2 1_555 1_555
C34 O4 1_555 1_555
C39 C40 1_555 1_555
C41 N1 1_555 1_555
C41 O3 1_555 1_555
C46 C47 1_555 1_555
C48 O10 1_555 1_555
C49 O6 1_555 1_555
C51 O5 1_555 1_555
C52 O2 1_555 1_555
C53 O7 1_555 1_555
C54 O9 1_555 1_555

#END
