
#######################################################################
#
#                 Cambridge Crystallographic Data Centre
#                                CCDC 
#
#######################################################################
#
# If this CIF has been generated from an entry in the Cambridge 
# Structural Database, then it will include bibliographic, chemical, 
# crystal, experimental, refinement or atomic coordinate data resulting 
# from the CCDC's data processing and validation procedures.
#
#######################################################################

data_LOGQUV
_chemical_formula_moiety         'C25 H17 F7 N2 S1'
_chemical_name_systematic        
3-(3,3,4,4,5,5-Hexafluoro-2-(5-(4-fluorophenyl)-2-methyl-3-thienyl)cyclopent-1-en-1-yl)-1,2-dimethyl-1H-pyrrolo[2,3-b]pyridine
_symmetry_cell_setting           triclinic
_symmetry_space_group_name_H-M   'P -1'
_symmetry_Int_Tables_number      2
_space_group_name_Hall           '-P 1'
loop_
_symmetry_equiv_pos_site_id
_symmetry_equiv_pos_as_xyz
1 x,y,z
2 -x,-y,-z
_cell_length_a                   9.3690(14)
_cell_length_b                   11.4314(15)
_cell_length_c                   11.7947(16)
_cell_angle_alpha                85.061(8)
_cell_angle_beta                 70.229(8)
_cell_angle_gamma                73.707(8)
_cell_volume                     1140.96
_exptl_crystal_colour            colorless
_exptl_crystal_description       block
_cell_formula_units_Z            2
loop_
_atom_site_label
_atom_site_type_symbol
_atom_site_fract_x
_atom_site_fract_y
_atom_site_fract_z
S1 S 0.32607(12) 0.42986(9) 1.01181(8)
N1 N 0.4031(4) 0.0691(3) 0.6528(3)
C1 C 0.5128(5) -0.0214(3) 0.6852(3)
C2 C 0.6358(4) 0.0261(3) 0.6856(3)
C3 C 0.5934(4) 0.1519(3) 0.6527(3)
C4 C 0.6868(4) 0.2401(3) 0.6331(3)
N2 N 0.5012(5) -0.1353(3) 0.7112(3)
C5 C 0.2901(4) 0.5431(3) 0.9098(3)
C6 C 0.5126(4) 0.3982(3) 0.7961(3)
C7 C 0.4875(4) 0.3409(3) 0.9051(3)
C8 C 0.1538(4) 0.6506(3) 0.9464(3)
F1 F 0.8433(4) 0.1821(3) 0.4311(3)
F2 F 0.9554(3) 0.1327(2) 0.5637(3)
C9 C 0.7709(5) 0.4141(3) 0.6337(4)
C10 C 0.6484(4) 0.3478(3) 0.6891(3)
C11 C 0.4515(4) 0.1743(3) 0.6332(3)
C12 C 0.4020(4) 0.5135(3) 0.7996(3)
H1 H 0.4057 0.5639 0.7330
F3 F 0.7152(4) 0.5292(2) 0.6091(3)
C13 C 0.7577(5) -0.0529(3) 0.7177(4)
H2 H 0.8424 -0.0272 0.7202
F4 F -0.2317(4) 0.9491(3) 1.0355(3)
F5 F 0.8517(4) 0.4181(4) 0.7086(3)
C14 C 0.8425(5) 0.2205(3) 0.5352(4)
C15 C 0.5782(6) 0.2213(4) 0.9384(4)
H3 H 0.5231 0.1609 0.9429
H4 H 0.5892 0.2288 1.0153
H5 H 0.6805 0.1972 0.8785
F6 F 1.0305(4) 0.3344(3) 0.4988(4)
F7 F 0.8500(6) 0.3994(3) 0.4249(3)
C16 C 0.1559(5) 0.7588(4) 0.8826(4)
H6 H 0.2450 0.7636 0.8182
C17 C 0.6225(7) -0.2079(4) 0.7400(4)
H7 H 0.6219 -0.2887 0.7575
C18 C 0.0180(5) 0.6464(4) 1.0415(4)
H8 H 0.0140 0.5751 1.0854
C19 C 0.8844(5) 0.3415(4) 0.5221(4)
C20 C 0.7491(6) -0.1721(4) 0.7459(4)
H9 H 0.8282 -0.2275 0.7686
C21 C -0.1037(5) 0.8511(4) 1.0068(5)
C22 C 0.2605(5) 0.0539(5) 0.6401(4)
H10 H 0.2623 -0.0307 0.6475
H11 H 0.2543 0.0824 0.5625
H12 H 0.1705 0.1000 0.7019
C23 C 0.3604(5) 0.2875(4) 0.5920(4)
H13 H 0.4158 0.3491 0.5792
H14 H 0.2589 0.3153 0.6522
H15 H 0.3475 0.2716 0.5180
C24 C -0.1110(5) 0.7474(5) 1.0713(4)
H16 H -0.2016 0.7442 1.1347
C25 C 0.0263(6) 0.8594(4) 0.9143(4)
H17 H 0.0286 0.9319 0.8723
loop_
_geom_bond_atom_site_label_1
_geom_bond_atom_site_label_2
_geom_bond_site_symmetry_1
_geom_bond_site_symmetry_2
S1 C5 1_555 1_555
N1 C1 1_555 1_555
C1 C2 1_555 1_555
C2 C3 1_555 1_555
C3 C4 1_555 1_555
C4 C10 1_555 1_555
N2 C1 1_555 1_555
C5 C8 1_555 1_555
C6 C7 1_555 1_555
C7 S1 1_555 1_555
C8 C16 1_555 1_555
F1 C14 1_555 1_555
F2 C14 1_555 1_555
C9 C10 1_555 1_555
C10 C6 1_555 1_555
C11 N1 1_555 1_555
C12 C5 1_555 1_555
H1 C12 1_555 1_555
F3 C9 1_555 1_555
C13 C2 1_555 1_555
H2 C13 1_555 1_555
F4 C21 1_555 1_555
F5 C9 1_555 1_555
C14 C4 1_555 1_555
C15 C7 1_555 1_555
H3 C15 1_555 1_555
H4 C15 1_555 1_555
H5 C15 1_555 1_555
F6 C19 1_555 1_555
F7 C19 1_555 1_555
C16 H6 1_555 1_555
C17 N2 1_555 1_555
H7 C17 1_555 1_555
C18 C8 1_555 1_555
H8 C18 1_555 1_555
C19 C9 1_555 1_555
C20 C13 1_555 1_555
H9 C20 1_555 1_555
C21 C24 1_555 1_555
C22 N1 1_555 1_555
H10 C22 1_555 1_555
H11 C22 1_555 1_555
H12 C22 1_555 1_555
C23 C11 1_555 1_555
H13 C23 1_555 1_555
H14 C23 1_555 1_555
H15 C23 1_555 1_555
C24 C18 1_555 1_555
H16 C24 1_555 1_555
C25 C16 1_555 1_555
H17 C25 1_555 1_555
C3 C11 1_555 1_555
C6 C12 1_555 1_555
C14 C19 1_555 1_555
C17 C20 1_555 1_555
C21 C25 1_555 1_555

#END
