
#######################################################################
#
#                 Cambridge Crystallographic Data Centre
#                                CCDC 
#
#######################################################################
#
# If this CIF has been generated from an entry in the Cambridge 
# Structural Database, then it will include bibliographic, chemical, 
# crystal, experimental, refinement or atomic coordinate data resulting 
# from the CCDC's data processing and validation procedures.
#
#######################################################################

data_LOGRAC
_chemical_formula_moiety         'C26 H17 F9 N2 S1'
_chemical_name_systematic        
3-(3,3,4,4,5,5-Hexafluoro-2-(2-methyl-5-(4-(trifluoromethyl)phenyl)-3-thienyl)cyclopent-1-en-1-yl)-1,2-dimethyl-1H-pyrrolo[2,3-b]pyridine
_symmetry_cell_setting           triclinic
_symmetry_space_group_name_H-M   'P -1'
_symmetry_Int_Tables_number      2
_space_group_name_Hall           '-P 1'
loop_
_symmetry_equiv_pos_site_id
_symmetry_equiv_pos_as_xyz
1 x,y,z
2 -x,-y,-z
_cell_length_a                   9.4766(3)
_cell_length_b                   11.9330(3)
_cell_length_c                   11.9791(3)
_cell_angle_alpha                68.5330(10)
_cell_angle_beta                 83.125(2)
_cell_angle_gamma                76.820(2)
_cell_volume                     1226.48
_cell_formula_units_Z            2
loop_
_atom_site_label
_atom_site_type_symbol
_atom_site_fract_x
_atom_site_fract_y
_atom_site_fract_z
S1 S 0.47092(8) 0.74193(6) 0.50253(6)
C1 C 0.6081(3) 0.6138(2) 0.1484(2)
C2 C 0.4248(3) 0.8924(2) 0.4067(2)
C3 C 0.3168(3) 0.9850(2) 0.4426(2)
C4 C 0.5896(3) 0.7966(2) 0.2923(2)
C5 C 0.5864(3) 0.6987(2) 0.3969(2)
C6 C 0.6762(3) 0.7907(2) 0.1841(2)
N1 N 0.4153(3) 0.5273(2) 0.1686(2)
C7 C 0.5356(4) 0.4402(3) 0.1638(2)
C8 C 0.4585(3) 0.6322(3) 0.1587(2)
C9 C 0.6597(3) 0.4899(2) 0.1511(2)
C10 C 0.6911(3) 0.7084(2) 0.1291(2)
C11 C 0.4986(3) 0.9067(2) 0.3000(2)
H1 H 0.4906 0.9819 0.2372
N2 N 0.5292(4) 0.3279(3) 0.1706(2)
C12 C 0.1064(3) 1.1604(3) 0.5028(3)
C13 C 0.6704(3) 0.5694(2) 0.4282(3)
H2 H 0.6192 0.5223 0.4034
H3 H 0.6816 0.5336 0.5134
H4 H 0.7643 0.5695 0.3879
C14 C 0.7633(4) 0.8873(3) 0.1185(3)
C15 C 0.8052(4) 0.7318(3) 0.0294(3)
C16 C 0.8468(4) 0.8495(3) 0.0189(3)
C17 C 0.7934(2) 0.41251(17) 0.15032(18)
H5 H 0.8804 0.4380 0.1453
F1 F -0.1049(2) 1.20888(17) 0.61446(18)
C18 C 0.2271(2) 0.95168(17) 0.54406(18)
H6 H 0.2368 0.8695 0.5930
C19 C 0.1225(3) 1.0398(2) 0.5731(2)
H7 H 0.0626 1.0162 0.6415
C20 C 0.6568(3) 0.2582(2) 0.1661(2)
H8 H 0.6589 0.1791 0.1684
C21 C 0.7886(6) 0.2941(3) 0.1576(4)
H9 H 0.8747 0.2383 0.1566
C22 C 0.3498(3) 0.7443(3) 0.1551(3)
H10 H 0.2742 0.7561 0.1028
H11 H 0.3957 0.8141 0.1256
H12 H 0.3090 0.7354 0.2344
C23 C 0.3012(4) 1.1061(3) 0.3761(4)
H13 H 0.3623 1.1315 0.3089
C24 C 0.1960(5) 1.1924(3) 0.4065(4)
H14 H 0.1873 1.2749 0.3588
F2 F 0.0381(3) 1.3252(4) 0.5676(5)
F3 F 0.7931(8) 0.7071(6) -0.0615(5)
F4 F 0.9408(5) 0.6418(5) 0.0823(6)
F5 F 0.8779(12) 0.9260(6) -0.0776(6)
F6 F 0.9848(5) 0.7967(7) 0.0772(8)
F7 F 0.6539(7) 0.9943(5) 0.0505(7)
F8 F 0.8170(7) 0.9309(6) 0.1813(6)
F9 F -0.0944(4) 1.3156(3) 0.4447(4)
C25 C 0.2653(4) 0.5112(4) 0.1789(4)
H15 H 0.2641 0.4312 0.1783
H16 H 0.2129 0.5728 0.1124
H17 H 0.2205 0.5189 0.2526
C26 C -0.0058(4) 1.2560(4) 0.5306(5)
F10? F 0.8921(11) 0.6497(7) 0.0085(10)
F11? F 0.7607(9) 0.9316(4) -0.0837(4)
F12? F 0.7153(9) 0.7866(8) -0.0844(5)
F13? F 0.9763(8) 0.8671(8) -0.0157(10)
F14? F 0.7158(10) 0.9973(6) 0.0984(8)
F15? F 0.8923(7) 0.8628(8) 0.1929(6)
loop_
_geom_bond_atom_site_label_1
_geom_bond_atom_site_label_2
_geom_bond_site_symmetry_1
_geom_bond_site_symmetry_2
S1 C2 1_555 1_555
C1 C8 1_555 1_555
C2 C3 1_555 1_555
C3 C18 1_555 1_555
C4 C5 1_555 1_555
C5 S1 1_555 1_555
C6 C4 1_555 1_555
N1 C7 1_555 1_555
C7 C9 1_555 1_555
C8 N1 1_555 1_555
C9 C1 1_555 1_555
C10 C1 1_555 1_555
C11 C2 1_555 1_555
H1 C11 1_555 1_555
N2 C7 1_555 1_555
C12 C19 1_555 1_555
C13 C5 1_555 1_555
H2 C13 1_555 1_555
H3 C13 1_555 1_555
H4 C13 1_555 1_555
C14 C6 1_555 1_555
C15 C10 1_555 1_555
C16 C14 1_555 1_555
C17 C9 1_555 1_555
H5 C17 1_555 1_555
F1 C26 1_555 1_555
C18 H6 1_555 1_555
C19 C18 1_555 1_555
H7 C19 1_555 1_555
C20 N2 1_555 1_555
H8 C20 1_555 1_555
C21 C17 1_555 1_555
H9 C21 1_555 1_555
C22 C8 1_555 1_555
H10 C22 1_555 1_555
H11 C22 1_555 1_555
H12 C22 1_555 1_555
C23 C3 1_555 1_555
H13 C23 1_555 1_555
C24 C12 1_555 1_555
H14 C24 1_555 1_555
F2 C26 1_555 1_555
F3 C15 1_555 1_555
F4 C15 1_555 1_555
F5 C16 1_555 1_555
F6 C16 1_555 1_555
F7 C14 1_555 1_555
F8 C14 1_555 1_555
F9 C26 1_555 1_555
C25 N1 1_555 1_555
H15 C25 1_555 1_555
H16 C25 1_555 1_555
H17 C25 1_555 1_555
C26 C12 1_555 1_555
C4 C11 1_555 1_555
C6 C10 1_555 1_555
C15 C16 1_555 1_555
C20 C21 1_555 1_555
C23 C24 1_555 1_555

#END
