
#######################################################################
#
#                 Cambridge Crystallographic Data Centre
#                                CCDC 
#
#######################################################################
#
# If this CIF has been generated from an entry in the Cambridge 
# Structural Database, then it will include bibliographic, chemical, 
# crystal, experimental, refinement or atomic coordinate data resulting 
# from the CCDC's data processing and validation procedures.
#
#######################################################################

data_LOGWAH
_chemical_formula_moiety         'C42 H31 N3'
_chemical_name_systematic        
N,N-Diphenyl-4-(2-(4-(6-phenyl-2,2'-bipyridin-4-yl)phenyl)vinyl)aniline
_symmetry_cell_setting           triclinic
_symmetry_space_group_name_H-M   'P -1'
_symmetry_Int_Tables_number      2
_space_group_name_Hall           '-P 1'
loop_
_symmetry_equiv_pos_site_id
_symmetry_equiv_pos_as_xyz
1 x,y,z
2 -x,-y,-z
_cell_length_a                   9.827(5)
_cell_length_b                   13.661(5)
_cell_length_c                   13.985(5)
_cell_angle_alpha                117.364(5)
_cell_angle_beta                 106.499(5)
_cell_angle_gamma                91.151(5)
_cell_volume                     1573.5
_exptl_crystal_colour            yellow
_exptl_crystal_description       rod
_cell_formula_units_Z            2
loop_
_atom_site_label
_atom_site_type_symbol
_atom_site_fract_x
_atom_site_fract_y
_atom_site_fract_z
N1 N 0.8229(2) 1.22219(14) 1.23014(13)
N2 N 0.10823(18) 0.55729(14) -0.05164(14)
C1 C 0.7671(2) 1.15702(17) 1.10883(16)
C2 C 0.2667(2) 0.42354(17) -0.06184(17)
C3 C 0.2249(2) 0.68256(17) 0.18664(16)
C4 C -0.0632(2) 0.67866(17) -0.06090(17)
C5 C 0.5667(2) 1.07237(18) 0.93438(17)
H1 H 0.4677 1.0581 0.8978
C6 C 0.0582(2) 0.64927(17) 0.00719(17)
C7 C 0.4081(2) 0.87403(17) 0.55371(17)
C8 C 0.2878(2) 0.74844(17) 0.31285(17)
C9 C 0.8588(2) 1.11446(17) 1.04595(17)
H2 H 0.9576 1.1275 1.0829
C10 C 0.6015(2) 0.96553(18) 0.74481(17)
H3 H 0.6697 0.9407 0.7086
C11 C 0.2734(2) 0.58596(18) 0.12509(17)
H4 H 0.3455 0.5610 0.1632
C12 C 0.7609(2) 1.31698(17) 1.28485(17)
C13 C 0.6562(2) 1.03059(16) 0.86957(17)
C14 C 0.2146(2) 0.52602(17) 0.00640(17)
C15 C 0.9169(2) 1.18077(18) 1.29425(17)
C16 C 0.8031(2) 1.05269(17) 0.92827(17)
H5 H 0.8659 1.0251 0.8872
C17 C 0.2046(2) 0.80504(19) 0.37962(18)
H6 H 0.1076 0.8019 0.3445
C18 C 0.1163(2) 0.71441(17) 0.12519(17)
H7 H 0.0819 0.7795 0.1628
N3 N -0.1252(2) 0.76517(16) -0.00325(16)
C19 C 0.4655(2) 0.93837(18) 0.67817(18)
H8 H 0.3979 0.9633 0.7151
C20 C 0.2630(2) 0.86550(19) 0.49658(18)
H9 H 0.2040 0.9017 0.5387
C21 C 0.4318(3) 0.7547(2) 0.36969(19)
H10 H 0.4899 0.7165 0.3276
C22 C 0.9096(2) 1.06673(19) 1.25509(18)
H11 H 0.8422 1.0163 1.1851
C23 C 0.7392(3) 1.39348(19) 1.24482(19)
H12 H 0.7679 1.3837 1.1836
C24 C 0.6208(2) 1.13487(19) 1.05220(18)
H13 H 0.5581 1.1621 1.0934
C25 C 0.7180(3) 1.33409(19) 1.37653(19)
H14 H 0.7318 1.2838 1.4046
C26 C 0.4905(3) 0.8159(2) 0.48656(19)
H15 H 0.5873 0.8185 0.5215
C27 C 0.1885(3) 0.35317(19) -0.17533(19)
H16 H 0.1031 0.3699 -0.2096
C28 C -0.2351(3) 0.7918(2) -0.0641(2)
H17 H -0.2778 0.8507 -0.0246
C29 C 1.0195(3) 1.2542(2) 1.39916(19)
H18 H 1.0276 1.3310 1.4267
C30 C 1.0014(3) 1.0274(2) 1.3190(2)
H19 H 0.9961 0.9506 1.2911
C31 C 0.3939(3) 0.39673(19) -0.0132(2)
H20 H 0.4469 0.4427 0.0634
C32 C -0.1118(3) 0.6195(2) -0.17927(19)
H21 H -0.0693 0.5601 -0.2181
C33 C 0.6750(3) 1.4840(2) 1.2956(2)
H22 H 0.6602 1.5343 1.2677
C34 C 1.1002(3) 1.0999(3) 1.4230(2)
H23 H 1.1605 1.0730 1.4666
C35 C 1.1088(3) 1.2135(2) 1.4620(2)
H24 H 1.1763 1.2633 1.5322
C36 C 0.6549(3) 1.4251(2) 1.4266(2)
H25 H 0.6267 1.4358 1.4884
C37 C -0.2879(3) 0.7375(2) -0.1805(2)
H26 H -0.3643 0.7588 -0.2192
C38 C 0.2380(4) 0.2570(2) -0.2382(2)
H27 H 0.1846 0.2088 -0.3142
C39 C -0.2252(3) 0.6508(3) -0.2387(2)
H28 H -0.2584 0.6128 -0.3181
C40 C 0.4417(3) 0.3041(2) -0.0765(3)
H29 H 0.5285 0.2883 -0.0433
C41 C 0.6330(3) 1.5004(2) 1.3861(2)
H30 H 0.5902 1.5617 1.4200
C42 C 0.3638(4) 0.2332(2) -0.1890(3)
H31 H 0.3970 0.1692 -0.2313
loop_
_geom_bond_atom_site_label_1
_geom_bond_atom_site_label_2
_geom_bond_site_symmetry_1
_geom_bond_site_symmetry_2
N1 C1 1_555 1_555
N2 C6 1_555 1_555
C1 C9 1_555 1_555
C2 C14 1_555 1_555
C3 C8 1_555 1_555
C4 C6 1_555 1_555
C5 H1 1_555 1_555
C6 C18 1_555 1_555
C7 C19 1_555 1_555
C8 C17 1_555 1_555
C9 H2 1_555 1_555
C10 H3 1_555 1_555
C11 C3 1_555 1_555
H4 C11 1_555 1_555
C12 N1 1_555 1_555
C13 C5 1_555 1_555
C14 N2 1_555 1_555
C15 N1 1_555 1_555
C16 C9 1_555 1_555
H5 C16 1_555 1_555
C17 H6 1_555 1_555
C18 C3 1_555 1_555
H7 C18 1_555 1_555
N3 C4 1_555 1_555
C19 C10 1_555 1_555
H8 C19 1_555 1_555
C20 C7 1_555 1_555
H9 C20 1_555 1_555
C21 C8 1_555 1_555
H10 C21 1_555 1_555
C22 C15 1_555 1_555
H11 C22 1_555 1_555
C23 C12 1_555 1_555
H12 C23 1_555 1_555
C24 C1 1_555 1_555
H13 C24 1_555 1_555
C25 C12 1_555 1_555
H14 C25 1_555 1_555
C26 C7 1_555 1_555
H15 C26 1_555 1_555
C27 C2 1_555 1_555
H16 C27 1_555 1_555
C28 N3 1_555 1_555
H17 C28 1_555 1_555
C29 C15 1_555 1_555
H18 C29 1_555 1_555
C30 C22 1_555 1_555
H19 C30 1_555 1_555
C31 C2 1_555 1_555
H20 C31 1_555 1_555
C32 C4 1_555 1_555
H21 C32 1_555 1_555
C33 C23 1_555 1_555
H22 C33 1_555 1_555
C34 C30 1_555 1_555
H23 C34 1_555 1_555
C35 C29 1_555 1_555
H24 C35 1_555 1_555
C36 C25 1_555 1_555
H25 C36 1_555 1_555
C37 C28 1_555 1_555
H26 C37 1_555 1_555
C38 C27 1_555 1_555
H27 C38 1_555 1_555
C39 C32 1_555 1_555
H28 C39 1_555 1_555
C40 C31 1_555 1_555
H29 C40 1_555 1_555
C41 C33 1_555 1_555
H30 C41 1_555 1_555
C42 C38 1_555 1_555
H31 C42 1_555 1_555
C5 C24 1_555 1_555
C10 C13 1_555 1_555
C11 C14 1_555 1_555
C13 C16 1_555 1_555
C17 C20 1_555 1_555
C21 C26 1_555 1_555
C34 C35 1_555 1_555
C36 C41 1_555 1_555
C37 C39 1_555 1_555
C40 C42 1_555 1_555

#END
