
#######################################################################
#
#                 Cambridge Crystallographic Data Centre
#                                CCDC 
#
#######################################################################
#
# If this CIF has been generated from an entry in the Cambridge 
# Structural Database, then it will include bibliographic, chemical, 
# crystal, experimental, refinement or atomic coordinate data resulting 
# from the CCDC's data processing and validation procedures.
#
#######################################################################

data_LOGZEN
_chemical_formula_moiety         'C25 H34 N2 O2'
_chemical_name_systematic        
(3S,5S)-4-Dibenzylamino-1-cyclohexyl-3,5-dihydroxypiperidine
_symmetry_cell_setting           monoclinic
_symmetry_space_group_name_H-M   'P 21'
_symmetry_Int_Tables_number      4
_space_group_name_Hall           'P 2yb'
loop_
_symmetry_equiv_pos_site_id
_symmetry_equiv_pos_as_xyz
1 x,y,z
2 -x,1/2+y,-z
_cell_length_a                   6.4774(2)
_cell_length_b                   19.6666(6)
_cell_length_c                   9.2831(2)
_cell_angle_alpha                90
_cell_angle_beta                 104.001(2)
_cell_angle_gamma                90
_cell_volume                     1147.43
_exptl_crystal_colour            colorless
_exptl_crystal_description       prismatic
_chemical_melting_point          '65 deg.C'
_cell_formula_units_Z            2
loop_
_atom_site_label
_atom_site_type_symbol
_atom_site_fract_x
_atom_site_fract_y
_atom_site_fract_z
O1 O 0.79730(19) 0.51977(7) 0.45368(17)
O2 O 1.3953(2) 0.57383(10) 0.3710(2)
N1 N 1.1718(2) 0.48904(7) 0.65744(16)
N2 N 0.9784(2) 0.63883(7) 0.31666(16)
C1 C 1.3359(3) 0.51323(12) 0.5866(2)
C2 C 1.2377(3) 0.54468(11) 0.4347(2)
C3 C 1.0834(3) 0.60100(9) 0.4511(2)
C4 C 0.9256(3) 0.57345(9) 0.5332(2)
C5 C 1.0438(3) 0.54662(10) 0.6842(2)
C6 C 0.9139(3) 0.59855(11) 0.1795(2)
C7 C 1.0938(3) 0.70073(10) 0.2949(2)
C8 C 0.7503(3) 0.63629(10) 0.06260(19)
C9 C 0.5614(3) 0.65772(12) 0.0918(2)
H1 H 0.5356 0.6494 0.1845
C10 C 0.4107(3) 0.69131(14) -0.0148(3)
H2 H 0.2845 0.7053 0.0071
C11 C 0.4437(4) 0.70429(14) -0.1517(3)
H3 H 0.3407 0.7267 -0.2231
C12 C 0.6266(5) 0.68436(15) -0.1826(2)
H4 H 0.6496 0.6932 -0.2759
C13 C 0.7835(4) 0.65039(12) -0.0763(2)
H5 H 0.9100 0.6373 -0.0991
C14 C 1.0942(3) 0.75354(9) 0.4109(2)
C15 C 1.2707(4) 0.79510(11) 0.4621(3)
H6 H 1.3922 0.7889 0.4270
C16 C 1.2660(4) 0.84610(12) 0.5660(3)
H7 H 1.3835 0.8744 0.5974
C17 C 1.0939(5) 0.85500(12) 0.6217(3)
H8 H 1.0937 0.8887 0.6918
C18 C 0.9187(5) 0.81394(14) 0.5741(3)
H9 H 0.7997 0.8197 0.6124
C19 C 0.9201(4) 0.76412(11) 0.4693(3)
H10 H 0.8002 0.7369 0.4372
C20 C 1.2544(3) 0.44435(10) 0.7874(2)
H11 H 1.3397 0.4091 0.7546
C21 C 1.0765(4) 0.40816(12) 0.8357(3)
H12 H 0.9877 0.3847 0.7512
H13 H 0.9889 0.4414 0.8702
C22 C 1.1618(6) 0.35678(15) 0.9598(3)
C23 C 1.3112(9) 0.3906(2) 1.0888(4)
C24 C 1.4850(6) 0.42826(19) 1.0440(4)
H14 H 1.5771 0.3960 1.0108
H15 H 1.5697 0.4522 1.1295
C25 C 1.3997(5) 0.47926(15) 0.9201(3)
H16 H 0.857(6) 0.474(2) 0.479(4)
H17 H 1.501(6) 0.5456(18) 0.384(4)
H18 H 1.426(4) 0.4749(17) 0.570(3)
H19 H 1.433(5) 0.5438(16) 0.642(3)
H20 H 1.159(3) 0.5039(12) 0.366(2)
H21 H 1.175(4) 0.6348(12) 0.511(2)
H22 H 0.812(3) 0.6128(11) 0.542(2)
H23 H 1.138(3) 0.5869(12) 0.738(2)
H24 H 0.935(4) 0.5313(13) 0.738(3)
H25 H 1.043(5) 0.5847(14) 0.144(3)
H26 H 0.857(4) 0.5540(14) 0.213(3)
H27 H 1.237(4) 0.6922(11) 0.300(2)
H28 H 1.017(4) 0.7217(15) 0.195(3)
H29 H 1.040(7) 0.332(2) 0.997(5)
H30 H 1.259(7) 0.327(2) 0.916(4)
H31 H 1.366(8) 0.357(3) 1.168(6)
H32 H 1.227(6) 0.428(2) 1.128(4)
H33 H 1.523(5) 0.4958(16) 0.881(3)
H34 H 1.295(5) 0.5176(18) 0.944(3)
loop_
_geom_bond_atom_site_label_1
_geom_bond_atom_site_label_2
_geom_bond_site_symmetry_1
_geom_bond_site_symmetry_2
O1 C4 1_555 1_555
O2 C2 1_555 1_555
N1 C1 1_555 1_555
N2 C3 1_555 1_555
C1 C2 1_555 1_555
C2 C3 1_555 1_555
C3 C4 1_555 1_555
C4 C5 1_555 1_555
C5 N1 1_555 1_555
C6 N2 1_555 1_555
C7 N2 1_555 1_555
C8 C6 1_555 1_555
C9 C8 1_555 1_555
H1 C9 1_555 1_555
C10 C9 1_555 1_555
H2 C10 1_555 1_555
C11 C10 1_555 1_555
H3 C11 1_555 1_555
C12 C11 1_555 1_555
H4 C12 1_555 1_555
C13 C8 1_555 1_555
H5 C13 1_555 1_555
C14 C7 1_555 1_555
C15 C14 1_555 1_555
H6 C15 1_555 1_555
C16 C15 1_555 1_555
H7 C16 1_555 1_555
C17 C16 1_555 1_555
H8 C17 1_555 1_555
C18 C17 1_555 1_555
H9 C18 1_555 1_555
C19 C14 1_555 1_555
H10 C19 1_555 1_555
C20 N1 1_555 1_555
H11 C20 1_555 1_555
C21 C20 1_555 1_555
H12 C21 1_555 1_555
H13 C21 1_555 1_555
C22 C21 1_555 1_555
C23 C22 1_555 1_555
C24 C23 1_555 1_555
H14 C24 1_555 1_555
H15 C24 1_555 1_555
C25 C20 1_555 1_555
H16 O1 1_555 1_555
H17 O2 1_555 1_555
H18 C1 1_555 1_555
H19 C1 1_555 1_555
H20 C2 1_555 1_555
H21 C3 1_555 1_555
H22 C4 1_555 1_555
H23 C5 1_555 1_555
H24 C5 1_555 1_555
H25 C6 1_555 1_555
H26 C6 1_555 1_555
H27 C7 1_555 1_555
H28 C7 1_555 1_555
H29 C22 1_555 1_555
H30 C22 1_555 1_555
H31 C23 1_555 1_555
H32 C23 1_555 1_555
H33 C25 1_555 1_555
H34 C25 1_555 1_555
C12 C13 1_555 1_555
C18 C19 1_555 1_555
C24 C25 1_555 1_555

#END
