
#######################################################################
#
#                 Cambridge Crystallographic Data Centre
#                                CCDC 
#
#######################################################################
#
# If this CIF has been generated from an entry in the Cambridge 
# Structural Database, then it will include bibliographic, chemical, 
# crystal, experimental, refinement or atomic coordinate data resulting 
# from the CCDC's data processing and validation procedures.
#
#######################################################################

data_LOHQAC
_chemical_formula_moiety         'C18 H19 N1 O3'
_chemical_name_systematic        
1-(4-Ethoxyphenyl)-N-hydroxy-3-(2-methoxyphenyl)prop-2-en-1-imine
_symmetry_cell_setting           triclinic
_symmetry_space_group_name_H-M   'P -1'
_symmetry_Int_Tables_number      2
_space_group_name_Hall           '-P 1'
loop_
_symmetry_equiv_pos_site_id
_symmetry_equiv_pos_as_xyz
1 x,y,z
2 -x,-y,-z
_cell_length_a                   5.8593(8)
_cell_length_b                   9.5104(12)
_cell_length_c                   14.924(2)
_cell_angle_alpha                71.852(4)
_cell_angle_beta                 81.981(4)
_cell_angle_gamma                89.066(4)
_cell_volume                     782.207
_cell_formula_units_Z            2
loop_
_atom_site_label
_atom_site_type_symbol
_atom_site_fract_x
_atom_site_fract_y
_atom_site_fract_z
O1 O -0.1896(5) 0.4253(3) 0.4288(2)
C1 C -0.1923(6) 0.8248(4) 0.2139(3)
N1 N -0.3390(6) 0.9808(4) 0.0732(2)
C2 C -0.2020(7) 0.9678(5) 0.1350(3)
O2 O 0.4128(6) 1.1010(4) 0.3000(3)
C3 C -0.3758(7) 0.6385(4) 0.3554(3)
H1 H -0.5027 0.6053 0.4022
C4 C -0.3822(7) 0.7727(4) 0.2834(3)
H2 H -0.5147 0.8281 0.2818
C5 C -0.1799(7) 0.5548(4) 0.3571(3)
C6 C 0.0859(7) 1.1073(4) 0.1840(3)
H3 H 0.1026 1.0239 0.2352
C7 C 0.2237(7) 1.2411(4) 0.1740(3)
C8 C 0.0014(7) 0.7412(5) 0.2174(3)
H4 H 0.1294 0.7751 0.1714
C9 C 0.3917(7) 1.2346(5) 0.2328(3)
C10 C -0.0588(8) 1.0961(5) 0.1264(3)
H5 H -0.0708 1.1795 0.0745
C11 C 0.1932(9) 1.3758(5) 0.1064(4)
H6 H 0.0800 1.3840 0.0672
C12 C 0.0093(7) 0.6076(5) 0.2881(3)
H7 H 0.1424 0.5528 0.2895
O3 O -0.4614(9) 0.8493(5) 0.0807(3)
H8 H -0.5433 0.8662 0.0385
C13 C 0.0100(8) 0.3363(5) 0.4363(3)
H9 H 0.1398 0.3916 0.4438
H10 H 0.0498 0.3081 0.3791
C14 C 0.5289(9) 1.3585(5) 0.2231(4)
H11 H 0.6402 1.3528 0.2628
C15 C 0.4967(10) 1.4904(5) 0.1534(4)
H12 H 0.5892 1.5730 0.1457
C16 C 0.3336(10) 1.5005(5) 0.0969(4)
H13 H 0.3130 1.5901 0.0511
C17 C -0.0433(10) 0.2012(5) 0.5210(4)
H14 H -0.0780 0.2300 0.5775
H15 H 0.0876 0.1386 0.5264
H16 H -0.1738 0.1483 0.5135
C18 C 0.5673(9) 1.0899(7) 0.3656(4)
H17 H 0.7226 1.1014 0.3331
H18 H 0.5471 0.9947 0.4135
H19 H 0.5379 1.1661 0.3951
loop_
_geom_bond_atom_site_label_1
_geom_bond_atom_site_label_2
_geom_bond_site_symmetry_1
_geom_bond_site_symmetry_2
O1 C5 1_555 1_555
C1 C2 1_555 1_555
N1 C2 1_555 1_555
C2 C10 1_555 1_555
O2 C9 1_555 1_555
C3 H1 1_555 1_555
C4 C1 1_555 1_555
H2 C4 1_555 1_555
C5 C3 1_555 1_555
C6 H3 1_555 1_555
C7 C6 1_555 1_555
C8 C1 1_555 1_555
H4 C8 1_555 1_555
C9 C7 1_555 1_555
C10 C6 1_555 1_555
H5 C10 1_555 1_555
C11 C7 1_555 1_555
H6 C11 1_555 1_555
C12 C5 1_555 1_555
H7 C12 1_555 1_555
O3 N1 1_555 1_555
H8 O3 1_555 1_555
C13 O1 1_555 1_555
H9 C13 1_555 1_555
H10 C13 1_555 1_555
C14 C9 1_555 1_555
H11 C14 1_555 1_555
C15 C14 1_555 1_555
H12 C15 1_555 1_555
C16 C11 1_555 1_555
H13 C16 1_555 1_555
C17 C13 1_555 1_555
H14 C17 1_555 1_555
H15 C17 1_555 1_555
H16 C17 1_555 1_555
C18 O2 1_555 1_555
H17 C18 1_555 1_555
H18 C18 1_555 1_555
H19 C18 1_555 1_555
C3 C4 1_555 1_555
C8 C12 1_555 1_555
C15 C16 1_555 1_555

#END
