
#######################################################################
#
#                 Cambridge Crystallographic Data Centre
#                                CCDC 
#
#######################################################################
#
# If this CIF has been generated from an entry in the Cambridge 
# Structural Database, then it will include bibliographic, chemical, 
# crystal, experimental, refinement or atomic coordinate data resulting 
# from the CCDC's data processing and validation procedures.
#
#######################################################################

data_LOHROQ
_chemical_formula_moiety         'C14 H17 Cl1 N2 S1'
_chemical_name_systematic        2-Amino-4-t-butyl-5-(4-chlorobenzyl)thiazole
_symmetry_cell_setting           monoclinic
_symmetry_space_group_name_H-M   'C 2/c'
_symmetry_Int_Tables_number      15
_space_group_name_Hall           '-C 2yn'
loop_
_symmetry_equiv_pos_site_id
_symmetry_equiv_pos_as_xyz
1 x,y,z
2 1/2+x,1/2+y,z
3 -x,y,1/2-z
4 1/2-x,1/2+y,1/2-z
5 -x,-y,-z
6 1/2-x,1/2-y,-z
7 x,-y,1/2+z
8 1/2+x,1/2-y,1/2+z
_cell_length_a                   21.1775(13)
_cell_length_b                   5.8544(4)
_cell_length_c                   22.8193(14)
_cell_angle_alpha                90
_cell_angle_beta                 98.548(1)
_cell_angle_gamma                90
_cell_volume                     2797.74
_exptl_crystal_colour            colorless
_exptl_crystal_description       block
_chemical_melting_point          '390 K'
_cell_formula_units_Z            8
_exptl_crystal_recrystallization_method ethanol
loop_
_atom_site_label
_atom_site_type_symbol
_atom_site_fract_x
_atom_site_fract_y
_atom_site_fract_z
Cl1 Cl 0.13949(3) 0.57508(12) 0.24064(3)
S1 S 0.33404(2) 0.74487(9) -0.00369(2)
C1 C 0.40616(9) 0.8911(4) 0.00413(9)
C2 C 0.42658(10) 0.6258(3) 0.07470(8)
C3 C 0.36579(10) 0.5622(3) 0.05422(9)
C4 C 0.32309(10) 0.3710(4) 0.06838(9)
H1 H 0.3504 0.2416 0.0845
H2 H 0.2975 0.3188 0.0309
C5 C 0.27747(9) 0.4274(3) 0.11205(9)
C6 C 0.27927(11) 0.6335(4) 0.14241(9)
H3 H 0.3101 0.7454 0.1361
C7 C 0.23707(11) 0.6786(4) 0.18159(10)
H4 H 0.2389 0.8202 0.2021
C8 C 0.19240(10) 0.5176(4) 0.19071(9)
C9 C 0.18919(10) 0.3095(4) 0.16165(9)
H5 H 0.1587 0.1978 0.1687
C10 C 0.23148(10) 0.2676(4) 0.12204(9)
H6 H 0.2291 0.1266 0.1012
C11 C 0.47436(10) 0.5254(4) 0.12457(9)
C12 C 0.50271(12) 0.7208(4) 0.16519(10)
H7 H 0.4687 0.7939 0.1833
H8 H 0.5224 0.8336 0.1418
H9 H 0.5351 0.6594 0.1964
C13 C 0.52788(11) 0.4074(4) 0.09748(10)
H10 H 0.5609 0.3542 0.1292
H11 H 0.5467 0.5160 0.0723
H12 H 0.5103 0.2768 0.0736
C14 C 0.44542(13) 0.3499(5) 0.16253(11)
H13 H 0.4077 0.4155 0.1763
H14 H 0.4770 0.3087 0.1968
H15 H 0.4330 0.2131 0.1388
N1 N 0.44938(8) 0.8119(3) 0.04551(7)
N2 N 0.41428(9) 1.0743(3) -0.03037(8)
H16 H 0.4509 1.1483 -0.0254
H17 H 0.3830 1.1191 -0.0577
loop_
_geom_bond_atom_site_label_1
_geom_bond_atom_site_label_2
_geom_bond_site_symmetry_1
_geom_bond_site_symmetry_2
Cl1 C8 1_555 1_555
S1 C1 1_555 1_555
C1 N1 1_555 1_555
C2 C3 1_555 1_555
C3 S1 1_555 1_555
C4 C3 1_555 1_555
H1 C4 1_555 1_555
H2 C4 1_555 1_555
C5 C4 1_555 1_555
C6 C5 1_555 1_555
H3 C6 1_555 1_555
C7 C6 1_555 1_555
H4 C7 1_555 1_555
C8 C7 1_555 1_555
C9 C8 1_555 1_555
H5 C9 1_555 1_555
C10 C5 1_555 1_555
H6 C10 1_555 1_555
C11 C2 1_555 1_555
C12 C11 1_555 1_555
H7 C12 1_555 1_555
H8 C12 1_555 1_555
H9 C12 1_555 1_555
C13 C11 1_555 1_555
H10 C13 1_555 1_555
H11 C13 1_555 1_555
H12 C13 1_555 1_555
C14 C11 1_555 1_555
H13 C14 1_555 1_555
H14 C14 1_555 1_555
H15 C14 1_555 1_555
N1 C2 1_555 1_555
N2 C1 1_555 1_555
H16 N2 1_555 1_555
H17 N2 1_555 1_555
C9 C10 1_555 1_555

#END
