
#######################################################################
#
#                 Cambridge Crystallographic Data Centre
#                                CCDC 
#
#######################################################################
#
# If this CIF has been generated from an entry in the Cambridge 
# Structural Database, then it will include bibliographic, chemical, 
# crystal, experimental, refinement or atomic coordinate data resulting 
# from the CCDC's data processing and validation procedures.
#
#######################################################################

data_LOHRAC
_chemical_formula_moiety         'C17 H13 N3 O2 S1'
_chemical_name_systematic        
'3-((4-(4-Pyridyl)pyrimidin-2-yl)sulfanylmethyl)benzoic acid'
_symmetry_cell_setting           triclinic
_symmetry_space_group_name_H-M   'P -1'
_symmetry_Int_Tables_number      2
_space_group_name_Hall           '-P 1'
loop_
_symmetry_equiv_pos_site_id
_symmetry_equiv_pos_as_xyz
1 x,y,z
2 -x,-y,-z
_cell_length_a                   4.4130(9)
_cell_length_b                   10.458(2)
_cell_length_c                   16.432(3)
_cell_angle_alpha                87.79(3)
_cell_angle_beta                 89.90(3)
_cell_angle_gamma                80.48(3)
_cell_volume                     747.347
_exptl_crystal_colour            colorless
_exptl_crystal_description       prism
_cell_formula_units_Z            2
_exptl_crystal_recrystallization_method dimethylformamide
loop_
_atom_site_label
_atom_site_type_symbol
_atom_site_fract_x
_atom_site_fract_y
_atom_site_fract_z
S1 S 0.1838(3) 0.34695(12) 0.92472(7)
O1 O 0.6060(10) 0.6024(3) 0.5857(2)
O2 O 0.6987(9) 0.7953(3) 0.61531(19)
H1 H 0.7614 0.7948 0.5683
N1 N 1.0847(10) 0.1910(4) 0.5353(2)
N2 N 0.5470(7) 0.2426(3) 0.80536(18)
N3 N 0.5608(9) 0.1325(4) 0.9366(2)
C1 C 1.1506(13) 0.0803(5) 0.5789(3)
H2 H 1.2665 0.0098 0.5544
C2 C 0.9037(14) 0.2874(5) 0.5702(3)
H3 H 0.8459 0.3649 0.5403
C3 C 0.7973(11) 0.2779(4) 0.6488(3)
H4 H 0.6757 0.3490 0.6713
C4 C 0.8710(10) 0.1634(4) 0.6942(2)
C5 C 1.0591(12) 0.0636(5) 0.6570(3)
H5 H 1.1230 -0.0148 0.6854
C6 C 0.7669(10) 0.1494(4) 0.7790(2)
C7 C 0.4682(9) 0.2307(4) 0.8824(2)
C8 C 0.7742(11) 0.0419(4) 0.9077(2)
H6 H 0.8544 -0.0276 0.9425
C9 C 0.8839(10) 0.0436(4) 0.8303(3)
H7 H 1.0315 -0.0232 0.8123
C10 C 0.0460(9) 0.4535(4) 0.8386(3)
H8 H 0.0430 0.4012 0.7912
H9 H -0.1644 0.4929 0.8493
C11 C 0.2261(8) 0.5595(4) 0.8179(2)
C12 C 0.3212(9) 0.5779(4) 0.7389(2)
H10 H 0.2784 0.5227 0.6991
C13 C 0.4809(10) 0.6787(4) 0.7186(2)
C14 C 0.5392(10) 0.7623(4) 0.7761(2)
H11 H 0.6428 0.8305 0.7619
C15 C 0.4440(10) 0.7455(4) 0.8553(3)
H12 H 0.4859 0.8015 0.8948
C16 C 0.2852(10) 0.6446(4) 0.8758(3)
H13 H 0.2182 0.6343 0.9290
C17 C 0.5941(11) 0.6869(4) 0.6328(3)
loop_
_geom_bond_atom_site_label_1
_geom_bond_atom_site_label_2
_geom_bond_site_symmetry_1
_geom_bond_site_symmetry_2
S1 C7 1_555 1_555
O1 C17 1_555 1_555
O2 H1 1_555 1_555
N1 C1 1_555 1_555
N2 C6 1_555 1_555
N3 C7 1_555 1_555
C1 H2 1_555 1_555
C2 N1 1_555 1_555
H3 C2 1_555 1_555
C3 C2 1_555 1_555
H4 C3 1_555 1_555
C4 C3 1_555 1_555
C5 C1 1_555 1_555
H5 C5 1_555 1_555
C6 C4 1_555 1_555
C7 N2 1_555 1_555
C8 N3 1_555 1_555
H6 C8 1_555 1_555
C9 C6 1_555 1_555
H7 C9 1_555 1_555
C10 S1 1_555 1_555
H8 C10 1_555 1_555
H9 C10 1_555 1_555
C11 C10 1_555 1_555
C12 C11 1_555 1_555
H10 C12 1_555 1_555
C13 C12 1_555 1_555
C14 C13 1_555 1_555
H11 C14 1_555 1_555
C15 C14 1_555 1_555
H12 C15 1_555 1_555
C16 C11 1_555 1_555
H13 C16 1_555 1_555
C17 O2 1_555 1_555
C4 C5 1_555 1_555
C8 C9 1_555 1_555
C13 C17 1_555 1_555
C15 C16 1_555 1_555

#END
