
#######################################################################
#
#                 Cambridge Crystallographic Data Centre
#                                CCDC 
#
#######################################################################
#
# If this CIF has been generated from an entry in the Cambridge 
# Structural Database, then it will include bibliographic, chemical, 
# crystal, experimental, refinement or atomic coordinate data resulting 
# from the CCDC's data processing and validation procedures.
#
#######################################################################

data_LOHRAD
_chemical_formula_moiety         'C17 H16 N2 O1'
_chemical_name_systematic        
4-(2-(1,3-benzoxazol-2-yl)vinyl)-N,N-dimethylaniline
_symmetry_cell_setting           orthorhombic
_symmetry_space_group_name_H-M   'P b c a'
_symmetry_Int_Tables_number      61
_space_group_name_Hall           '-P 2ac 2ab'
loop_
_symmetry_equiv_pos_site_id
_symmetry_equiv_pos_as_xyz
1 x,y,z
2 1/2-x,-y,1/2+z
3 -x,1/2+y,1/2-z
4 1/2+x,1/2-y,-z
5 -x,-y,-z
6 1/2+x,y,1/2-z
7 x,1/2-y,1/2+z
8 1/2-x,1/2+y,z
_cell_length_a                   10.802(2)
_cell_length_b                   8.0122(16)
_cell_length_c                   31.156(6)
_cell_angle_alpha                90
_cell_angle_beta                 90
_cell_angle_gamma                90
_cell_volume                     2696.48
_exptl_crystal_colour            yellow
_exptl_crystal_description       block
_cell_formula_units_Z            8
_exptl_crystal_preparation       Luminescent
loop_
_atom_site_label
_atom_site_type_symbol
_atom_site_fract_x
_atom_site_fract_y
_atom_site_fract_z
O1 O 0.32389(9) 0.05232(14) 0.62578(3)
N1 N 0.50277(11) -0.04930(17) 0.65297(4)
N2 N 0.40991(13) -0.3476(2) 0.37572(4)
C1 C 0.31377(16) -0.3115(3) 0.34457(5)
H1 H 0.2357 -0.3513 0.3551
H2 H 0.3328 -0.3661 0.3180
H3 H 0.3092 -0.1932 0.3400
C2 C 0.39314(16) 0.1806(2) 0.75011(5)
H4 H 0.4123 0.2080 0.7783
C3 C 0.50680(17) -0.4616(2) 0.36323(5)
H5 H 0.5857 -0.4157 0.3711
H6 H 0.5040 -0.4784 0.3327
H7 H 0.4952 -0.5664 0.3776
C4 C 0.44269(13) 0.04444(19) 0.68454(5)
C5 C 0.47468(15) 0.0823(2) 0.72680(5)
H8 H 0.5479 0.0432 0.7389
C6 C 0.28281(16) 0.2394(2) 0.73220(5)
H9 H 0.2308 0.3059 0.7487
C7 C 0.30743(13) -0.1737(2) 0.42845(5)
H10 H 0.2497 -0.1401 0.4081
C8 C 0.37212(14) -0.0907(2) 0.54491(5)
H11 H 0.3033 -0.0238 0.5500
C9 C 0.44965(14) -0.1128(2) 0.57803(5)
H12 H 0.5193 -0.1791 0.5739
C10 C 0.24906(15) 0.2008(2) 0.69034(5)
H13 H 0.1750 0.2372 0.6784
C11 C 0.48617(14) -0.3349(2) 0.44904(5)
H14 H 0.5492 -0.4098 0.4425
C12 C 0.40125(13) -0.2873(2) 0.41675(5)
C13 C 0.47712(13) -0.2723(2) 0.49005(5)
H15 H 0.5347 -0.3057 0.5105
C14 C 0.33242(13) 0.1052(2) 0.66773(5)
C15 C 0.43090(13) -0.03959(19) 0.61962(5)
C16 C 0.30017(13) -0.1119(2) 0.46969(5)
H16 H 0.2379 -0.0361 0.4764
C17 C 0.38393(13) -0.1598(2) 0.50192(5)
loop_
_geom_bond_atom_site_label_1
_geom_bond_atom_site_label_2
_geom_bond_site_symmetry_1
_geom_bond_site_symmetry_2
O1 C14 1_555 1_555
N1 C4 1_555 1_555
N2 C1 1_555 1_555
C1 H1 1_555 1_555
H2 C1 1_555 1_555
H3 C1 1_555 1_555
C2 H4 1_555 1_555
C3 N2 1_555 1_555
H5 C3 1_555 1_555
H6 C3 1_555 1_555
H7 C3 1_555 1_555
C4 C5 1_555 1_555
C5 C2 1_555 1_555
H8 C5 1_555 1_555
C6 C2 1_555 1_555
H9 C6 1_555 1_555
C7 H10 1_555 1_555
C8 H11 1_555 1_555
C9 C8 1_555 1_555
H12 C9 1_555 1_555
C10 C6 1_555 1_555
H13 C10 1_555 1_555
C11 H14 1_555 1_555
C12 N2 1_555 1_555
C13 C11 1_555 1_555
H15 C13 1_555 1_555
C14 C4 1_555 1_555
C15 O1 1_555 1_555
C16 C7 1_555 1_555
H16 C16 1_555 1_555
C17 C8 1_555 1_555
N1 C15 1_555 1_555
C7 C12 1_555 1_555
C9 C15 1_555 1_555
C10 C14 1_555 1_555
C11 C12 1_555 1_555
C13 C17 1_555 1_555
C16 C17 1_555 1_555

#END
