
#######################################################################
#
#                 Cambridge Crystallographic Data Centre
#                                CCDC 
#
#######################################################################
#
# If this CIF has been generated from an entry in the Cambridge 
# Structural Database, then it will include bibliographic, chemical, 
# crystal, experimental, refinement or atomic coordinate data resulting 
# from the CCDC's data processing and validation procedures.
#
#######################################################################

data_LOHYEN
_chemical_formula_moiety         'C20 H19 Br2 N1 O1'
_chemical_name_systematic        
2,4-bis(2-Bromophenyl)-3-azabicyclo(3.3.1)nonan-9-one
_symmetry_cell_setting           triclinic
_symmetry_space_group_name_H-M   'P -1'
_symmetry_Int_Tables_number      2
_space_group_name_Hall           '-P 1'
loop_
_symmetry_equiv_pos_site_id
_symmetry_equiv_pos_as_xyz
1 x,y,z
2 -x,-y,-z
_cell_length_a                   7.8389(3)
_cell_length_b                   10.5770(3)
_cell_length_c                   11.0274(3)
_cell_angle_alpha                101.099(2)
_cell_angle_beta                 93.725(2)
_cell_angle_gamma                97.3990(10)
_cell_volume                     885.94
_exptl_crystal_colour            colorless
_exptl_crystal_description       Block
_cell_formula_units_Z            2
_exptl_crystal_recrystallization_method acetone
loop_
_atom_site_label
_atom_site_type_symbol
_atom_site_fract_x
_atom_site_fract_y
_atom_site_fract_z
Br1 Br -0.00438(3) 0.47719(2) 0.77681(2)
Br2 Br 0.16949(3) 1.23193(3) 1.01448(2)
C1 C 0.2124(2) 0.74756(18) 0.75331(18)
H1 H 0.1437 0.7370 0.8228
C2 C 0.0889(2) 0.76537(19) 0.64395(19)
H2 H -0.0049 0.6918 0.6254
C3 C 0.1735(3) 0.7773(2) 0.5238(2)
H3 H 0.2294 0.7011 0.4980
H4 H 0.0839 0.7778 0.4591
C4 C 0.3064(3) 0.8987(2) 0.5360(2)
H5 H 0.4119 0.8865 0.5806
H6 H 0.3333 0.9102 0.4539
C5 C 0.2434(3) 1.0214(2) 0.60396(19)
H7 H 0.1647 1.0500 0.5468
H8 H 0.3418 1.0895 0.6280
C6 C 0.1515(2) 1.00528(19) 0.72040(18)
H9 H 0.0967 1.0828 0.7479
C7 C 0.2692(2) 0.98341(18) 0.83118(17)
H10 H 0.1987 0.9747 0.9001
C8 C 0.0132(2) 0.8886(2) 0.68529(18)
C9 C 0.3014(2) 0.62834(18) 0.72007(17)
C10 C 0.4692(3) 0.6383(2) 0.6847(2)
H11 H 0.5265 0.7194 0.6796
C11 C 0.5525(3) 0.5302(2) 0.6570(2)
H12 H 0.6641 0.5392 0.6328
C12 C 0.4711(3) 0.4095(2) 0.6651(2)
H13 H 0.5280 0.3371 0.6472
C13 C 0.3055(3) 0.3958(2) 0.6995(2)
H14 H 0.2496 0.3142 0.7047
C14 C 0.2228(3) 0.50413(19) 0.72632(19)
C15 C 0.4125(2) 1.09742(18) 0.87430(17)
C16 C 0.3860(3) 1.21258(19) 0.95107(18)
C17 C 0.5159(3) 1.3181(2) 0.9863(2)
H15 H 0.4946 1.3938 1.0380
C18 C 0.6757(3) 1.3104(2) 0.9446(2)
H16 H 0.7629 1.3812 0.9670
C19 C 0.7071(3) 1.1976(2) 0.8696(2)
H17 H 0.8161 1.1920 0.8421
C20 C 0.5772(3) 1.0923(2) 0.8347(2)
H18 H 0.6003 1.0166 0.7839
N1 N 0.3422(2) 0.86343(15) 0.79409(16)
O1 O -0.13950(19) 0.89419(17) 0.68681(16)
H19 H 0.407(3) 0.851(2) 0.850(2)
loop_
_geom_bond_atom_site_label_1
_geom_bond_atom_site_label_2
_geom_bond_site_symmetry_1
_geom_bond_site_symmetry_2
Br1 C14 1_555 1_555
Br2 C16 1_555 1_555
C1 H1 1_555 1_555
C2 C1 1_555 1_555
H2 C2 1_555 1_555
C3 C2 1_555 1_555
H3 C3 1_555 1_555
H4 C3 1_555 1_555
C4 C3 1_555 1_555
H5 C4 1_555 1_555
H6 C4 1_555 1_555
C5 C4 1_555 1_555
H7 C5 1_555 1_555
H8 C5 1_555 1_555
C6 C5 1_555 1_555
H9 C6 1_555 1_555
C7 C6 1_555 1_555
H10 C7 1_555 1_555
C8 C2 1_555 1_555
C9 C1 1_555 1_555
C10 C9 1_555 1_555
H11 C10 1_555 1_555
C11 C10 1_555 1_555
H12 C11 1_555 1_555
C12 C11 1_555 1_555
H13 C12 1_555 1_555
C13 C12 1_555 1_555
H14 C13 1_555 1_555
C14 C9 1_555 1_555
C15 C7 1_555 1_555
C16 C15 1_555 1_555
C17 C16 1_555 1_555
H15 C17 1_555 1_555
C18 C17 1_555 1_555
H16 C18 1_555 1_555
C19 C18 1_555 1_555
H17 C19 1_555 1_555
C20 C15 1_555 1_555
H18 C20 1_555 1_555
N1 C1 1_555 1_555
O1 C8 1_555 1_555
H19 N1 1_555 1_555
C6 C8 1_555 1_555
C7 N1 1_555 1_555
C13 C14 1_555 1_555
C19 C20 1_555 1_555

#END
