
#######################################################################
#
#                 Cambridge Crystallographic Data Centre
#                                CCDC 
#
#######################################################################
#
# If this CIF has been generated from an entry in the Cambridge 
# Structural Database, then it will include bibliographic, chemical, 
# crystal, experimental, refinement or atomic coordinate data resulting 
# from the CCDC's data processing and validation procedures.
#
#######################################################################

data_LOJCET
_chemical_formula_moiety         'C20 H12 O2 S2'
_chemical_name_systematic        Naphthalene-2,3-diylbis((2-thienyl)methanone)
_symmetry_cell_setting           monoclinic
_symmetry_space_group_name_H-M   'P 21'
_symmetry_Int_Tables_number      4
_space_group_name_Hall           'P 2yb'
loop_
_symmetry_equiv_pos_site_id
_symmetry_equiv_pos_as_xyz
1 x,y,z
2 -x,1/2+y,-z
_cell_length_a                   9.7638(3)
_cell_length_b                   11.1418(4)
_cell_length_c                   15.4496(6)
_cell_angle_alpha                90
_cell_angle_beta                 90.2660(10)
_cell_angle_gamma                90
_cell_volume                     1680.69
_exptl_crystal_colour            colorless
_exptl_crystal_description       block
_cell_formula_units_Z            4
_exptl_crystal_recrystallization_method chloroform
loop_
_atom_site_label
_atom_site_type_symbol
_atom_site_fract_x
_atom_site_fract_y
_atom_site_fract_z
S1 S 0.06339(8) -0.02637(6) 0.45118(6)
S2 S 0.33739(8) 0.44467(8) 0.69777(5)
O1 O 0.0949(2) 0.24092(19) 0.44816(17)
O2 O 0.3446(3) 0.24071(18) 0.57466(14)
C1 C 0.4852(3) 0.3351(2) 0.18008(17)
H1 H 0.4468 0.2785 0.1429
C2 C 0.5757(3) 0.4164(3) 0.14849(18)
H2 H 0.5984 0.4148 0.0901
C3 C 0.6350(3) 0.5021(3) 0.20256(18)
H3 H 0.6966 0.5574 0.1800
C4 C 0.6032(2) 0.5053(2) 0.28836(17)
H4 H 0.6430 0.5631 0.3239
C5 C 0.5102(2) 0.42129(19) 0.32380(15)
C6 C 0.4485(2) 0.3350(2) 0.26773(16)
C7 C 0.3516(2) 0.2545(2) 0.30259(16)
H5 H 0.3127 0.1966 0.2668
C8 C 0.3135(2) 0.25942(19) 0.38716(16)
C9 C 0.3768(2) 0.3442(2) 0.44373(16)
C10 C 0.4727(2) 0.4227(2) 0.41136(15)
H6 H 0.5137 0.4779 0.4484
C11 C 0.1943(3) 0.1879(2) 0.42024(19)
C12 C 0.2010(2) 0.0578(2) 0.41656(16)
C13 C 0.3071(2) -0.0134(2) 0.39437(17)
H7 H 0.3903 0.0156 0.3741
C14 C 0.2781(3) -0.1368(2) 0.4053(2)
H8 H 0.3397 -0.1980 0.3929
C15 C 0.1515(3) -0.1553(3) 0.4355(2)
H9 H 0.1158 -0.2310 0.4467
C16 C 0.3484(3) 0.3376(2) 0.53847(17)
C17 C 0.3315(2) 0.4492(2) 0.58672(15)
C18 C 0.3095(3) 0.5646(2) 0.55646(19)
H10 H 0.3026 0.5854 0.4983
C19 C 0.2991(3) 0.6466(3) 0.6262(2)
H11 H 0.2841 0.7284 0.6186
C20 C 0.3127(3) 0.5957(3) 0.7037(2)
H12 H 0.3091 0.6381 0.7555
S3 S 0.36488(7) 0.50071(8) 0.93775(5)
S4 S 1.03585(9) 0.72925(8) 0.94344(7)
O3 O 0.6344(2) 0.55500(17) 0.87437(16)
O4 O 0.8753(3) 0.5098(2) 0.99329(14)
C21 C 0.7926(3) 0.0907(2) 0.7211(2)
H13 H 0.7053 0.0575 0.7197
C22 C 0.8959(4) 0.0362(2) 0.6773(2)
H14 H 0.8777 -0.0319 0.6445
C23 C 1.0280(3) 0.0812(2) 0.6812(2)
H15 H 1.0981 0.0421 0.6521
C24 C 1.0559(3) 0.1833(2) 0.7278(2)
H16 H 1.1449 0.2130 0.7300
C25 C 0.9510(3) 0.2433(2) 0.77216(17)
C26 C 0.8160(3) 0.1970(2) 0.76870(18)
C27 C 0.7096(3) 0.2617(2) 0.80915(18)
H17 H 0.6207 0.2320 0.8061
C28 C 0.7328(2) 0.3666(2) 0.85265(17)
C29 C 0.8698(2) 0.40998(19) 0.85839(16)
C30 C 0.9736(3) 0.3506(2) 0.81877(18)
H18 H 1.0620 0.3814 0.8224
C31 C 0.6203(3) 0.4464(2) 0.88117(17)
C32 C 0.4927(3) 0.3989(2) 0.91630(17)
C33 C 0.4546(3) 0.2823(3) 0.93971(18)
H19 H 0.5098 0.2148 0.9340
C34 C 0.3192(3) 0.2820(3) 0.9735(2)
H20 H 0.2752 0.2126 0.9921
C35 C 0.2605(3) 0.3915(3) 0.9763(2)
H21 H 0.1727 0.4056 0.9970
C36 C 0.9038(3) 0.5142(2) 0.91669(18)
C37 C 0.9723(2) 0.6167(2) 0.87875(19)
C38 C 0.9843(3) 0.6463(2) 0.7926(2)
H22 H 0.9581 0.5964 0.7472
C39 C 1.0413(4) 0.7619(3) 0.7816(3)
H23 H 1.0548 0.7975 0.7278
C40 C 1.0736(4) 0.8144(3) 0.8562(3)
H24 H 1.1130 0.8902 0.8600
loop_
_geom_bond_atom_site_label_1
_geom_bond_atom_site_label_2
_geom_bond_site_symmetry_1
_geom_bond_site_symmetry_2
S1 C12 1_555 1_555
S2 C17 1_555 1_555
O1 C11 1_555 1_555
O2 C16 1_555 1_555
C1 H1 1_555 1_555
C2 C1 1_555 1_555
H2 C2 1_555 1_555
C3 C2 1_555 1_555
H3 C3 1_555 1_555
C4 C3 1_555 1_555
H4 C4 1_555 1_555
C5 C4 1_555 1_555
C6 C1 1_555 1_555
C7 C6 1_555 1_555
H5 C7 1_555 1_555
C8 C7 1_555 1_555
C9 C8 1_555 1_555
C10 C5 1_555 1_555
H6 C10 1_555 1_555
C11 C8 1_555 1_555
C12 C11 1_555 1_555
C13 C12 1_555 1_555
H7 C13 1_555 1_555
C14 C13 1_555 1_555
H8 C14 1_555 1_555
C15 S1 1_555 1_555
H9 C15 1_555 1_555
C16 C9 1_555 1_555
C17 C16 1_555 1_555
C18 C17 1_555 1_555
H10 C18 1_555 1_555
C19 C18 1_555 1_555
H11 C19 1_555 1_555
C20 S2 1_555 1_555
H12 C20 1_555 1_555
S3 C32 1_555 1_555
S4 C37 1_555 1_555
O3 C31 1_555 1_555
O4 C36 1_555 1_555
C21 H13 1_555 1_555
C22 C21 1_555 1_555
H14 C22 1_555 1_555
C23 C22 1_555 1_555
H15 C23 1_555 1_555
C24 C23 1_555 1_555
H16 C24 1_555 1_555
C25 C24 1_555 1_555
C26 C21 1_555 1_555
C27 C26 1_555 1_555
H17 C27 1_555 1_555
C28 C27 1_555 1_555
C29 C28 1_555 1_555
C30 C25 1_555 1_555
H18 C30 1_555 1_555
C31 C28 1_555 1_555
C32 C31 1_555 1_555
C33 C32 1_555 1_555
H19 C33 1_555 1_555
C34 C33 1_555 1_555
H20 C34 1_555 1_555
C35 S3 1_555 1_555
H21 C35 1_555 1_555
C36 C29 1_555 1_555
C37 C36 1_555 1_555
C38 C37 1_555 1_555
H22 C38 1_555 1_555
C39 C38 1_555 1_555
H23 C39 1_555 1_555
C40 S4 1_555 1_555
H24 C40 1_555 1_555
C5 C6 1_555 1_555
C9 C10 1_555 1_555
C14 C15 1_555 1_555
C19 C20 1_555 1_555
C25 C26 1_555 1_555
C29 C30 1_555 1_555
C34 C35 1_555 1_555
C39 C40 1_555 1_555

#END
