
#######################################################################
#
#                 Cambridge Crystallographic Data Centre
#                                CCDC 
#
#######################################################################
#
# If this CIF has been generated from an entry in the Cambridge 
# Structural Database, then it will include bibliographic, chemical, 
# crystal, experimental, refinement or atomic coordinate data resulting 
# from the CCDC's data processing and validation procedures.
#
#######################################################################

data_LOJCIX02
_chemical_formula_moiety         'C12 H13 N1'
_chemical_name_systematic        2,3,4,9-tetrahydro-1H-carbazole
_symmetry_cell_setting           orthorhombic
_symmetry_space_group_name_H-M   'P 21 21 21'
_symmetry_Int_Tables_number      19
_space_group_name_Hall           'P 2ac 2ab'
loop_
_symmetry_equiv_pos_site_id
_symmetry_equiv_pos_as_xyz
1 x,y,z
2 1/2-x,-y,1/2+z
3 1/2+x,1/2-y,-z
4 -x,1/2+y,1/2-z
_cell_length_a                   6.1147(4)
_cell_length_b                   7.9668(5)
_cell_length_c                   19.4856(13)
_cell_angle_alpha                90
_cell_angle_beta                 90
_cell_angle_gamma                90
_cell_volume                     949.233
_exptl_crystal_colour            colorless
_exptl_crystal_description       plate
_cell_formula_units_Z            4
loop_
_atom_site_label
_atom_site_type_symbol
_atom_site_fract_x
_atom_site_fract_y
_atom_site_fract_z
N1 N 1.2444(3) -0.0992(3) 0.45684(10)
H1 H 1.3645 -0.1524 0.4494
C1 C 1.1441(4) -0.0809(3) 0.51964(11)
C2 C 1.2033(4) -0.1409(3) 0.58395(13)
H2 H 1.3298 -0.2040 0.5900
C3 C 1.0691(5) -0.1038(3) 0.63809(12)
H3 H 1.1044 -0.1431 0.6816
C4 C 0.8810(5) -0.0084(3) 0.62901(13)
H4 H 0.7934 0.0154 0.6668
C5 C 0.8215(4) 0.0514(3) 0.56573(12)
H5 H 0.6953 0.1153 0.5605
C6 C 0.9546(3) 0.0145(3) 0.50914(11)
C7 C 0.9435(3) 0.0538(3) 0.43771(11)
C8 C 1.1207(3) -0.0180(3) 0.40760(11)
C9 C 1.1717(4) -0.0162(4) 0.33303(12)
H6 H 1.2155 -0.1273 0.3181
H7 H 1.2911 0.0609 0.3239
C10 C 1.0303(8) 0.1081(9) 0.2959(3)
H8 H 1.0340 0.0836 0.2472
H9 H 1.0898 0.2198 0.3025
C11 C 0.7930(8) 0.1059(9) 0.3204(2)
H10 H 0.7311 -0.0045 0.3124
H11 H 0.7089 0.1866 0.2941
C12 C 0.7762(4) 0.1491(3) 0.39788(13)
H12 H 0.6430 0.0834 0.3949
H13 H 0.7424 0.2529 0.4216
C13? C 0.9700(14) 0.0387(12) 0.2948(4)
H14? H 0.8687 -0.0548 0.2924
H15? H 1.0104 0.0685 0.2483
C14? C 0.8553(14) 0.1876(12) 0.3282(4)
H16? H 0.9560 0.2815 0.3304
H17? H 0.7323 0.2209 0.2998
loop_
_geom_bond_atom_site_label_1
_geom_bond_atom_site_label_2
_geom_bond_site_symmetry_1
_geom_bond_site_symmetry_2
N1 H1 1_555 1_555
C1 N1 1_555 1_555
C2 C1 1_555 1_555
H2 C2 1_555 1_555
C3 C2 1_555 1_555
H3 C3 1_555 1_555
C4 C3 1_555 1_555
H4 C4 1_555 1_555
C5 C4 1_555 1_555
H5 C5 1_555 1_555
C6 C1 1_555 1_555
C7 C6 1_555 1_555
C8 N1 1_555 1_555
C9 C8 1_555 1_555
H6 C9 1_555 1_555
H7 C9 1_555 1_555
C10 C9 1_555 1_555
H8 C10 1_555 1_555
H9 C10 1_555 1_555
C11 C10 1_555 1_555
H10 C11 1_555 1_555
H11 C11 1_555 1_555
C12 C7 1_555 1_555
H12 C12 1_555 1_555
H13 C12 1_555 1_555
C5 C6 1_555 1_555
C7 C8 1_555 1_555
C11 C12 1_555 1_555

#END
