
#######################################################################
#
#                 Cambridge Crystallographic Data Centre
#                                CCDC 
#
#######################################################################
#
# If this CIF has been generated from an entry in the Cambridge 
# Structural Database, then it will include bibliographic, chemical, 
# crystal, experimental, refinement or atomic coordinate data resulting 
# from the CCDC's data processing and validation procedures.
#
#######################################################################

data_LOJCOD
_chemical_formula_moiety         'C9 H10 O4 S1'
_chemical_name_systematic        '(4-(Methylsulfonyl)phenyl)acetic acid'
_symmetry_cell_setting           monoclinic
_symmetry_space_group_name_H-M   'P 21/c'
_symmetry_Int_Tables_number      14
_space_group_name_Hall           '-P 2ybc'
loop_
_symmetry_equiv_pos_site_id
_symmetry_equiv_pos_as_xyz
1 x,y,z
2 -x,1/2+y,1/2-z
3 -x,-y,-z
4 x,1/2-y,1/2+z
_cell_length_a                   19.086(7)
_cell_length_b                   4.9711(18)
_cell_length_c                   10.724(4)
_cell_angle_alpha                90
_cell_angle_beta                 106.102(6)
_cell_angle_gamma                90
_cell_volume                     977.56
_exptl_crystal_colour            colorless
_exptl_crystal_description       block
_cell_formula_units_Z            4
_exptl_crystal_recrystallization_method ethanol/water
loop_
_atom_site_label
_atom_site_type_symbol
_atom_site_fract_x
_atom_site_fract_y
_atom_site_fract_z
S1 S 0.38734(3) 0.64558(12) 1.01463(5)
O1 O 0.41630(11) 0.5716(4) 0.90951(18)
O2 O 0.36962(11) 0.4358(4) 1.09321(19)
O3 O 0.07977(10) 0.9489(5) 0.6087(2)
O4 O 0.00360(10) 1.2830(5) 0.6090(2)
H1 H -0.0197 1.2097 0.5418
C1 C 0.44823(14) 0.8670(5) 1.1176(3)
H2 H 0.4947 0.7807 1.1501
H3 H 0.4296 0.9159 1.1889
H4 H 0.4537 1.0256 1.0701
C2 C 0.30708(12) 0.8358(4) 0.9483(2)
C3 C 0.30404(13) 1.0060(5) 0.8448(2)
H5 H 0.3440 1.0226 0.8117
C4 C 0.24133(14) 1.1507(5) 0.7913(2)
H6 H 0.2393 1.2662 0.7221
C5 C 0.18090(13) 1.1260(5) 0.8396(2)
C6 C 0.18554(13) 0.9570(6) 0.9437(3)
H7 H 0.1458 0.9413 0.9775
C7 C 0.24791(13) 0.8111(5) 0.9986(2)
H8 H 0.2502 0.6975 1.0685
C8 C 0.11162(14) 1.2792(6) 0.7781(3)
H9 H 0.0838 1.2955 0.8410
H10 H 0.1244 1.4594 0.7574
C9 C 0.06426(13) 1.1525(5) 0.6574(3)
loop_
_geom_bond_atom_site_label_1
_geom_bond_atom_site_label_2
_geom_bond_site_symmetry_1
_geom_bond_site_symmetry_2
S1 O1 1_555 1_555
O2 S1 1_555 1_555
O3 C9 1_555 1_555
O4 H1 1_555 1_555
C1 S1 1_555 1_555
H2 C1 1_555 1_555
H3 C1 1_555 1_555
H4 C1 1_555 1_555
C2 S1 1_555 1_555
C3 C2 1_555 1_555
H5 C3 1_555 1_555
C4 C3 1_555 1_555
H6 C4 1_555 1_555
C5 C4 1_555 1_555
C6 C5 1_555 1_555
H7 C6 1_555 1_555
C7 C2 1_555 1_555
H8 C7 1_555 1_555
C8 C5 1_555 1_555
H9 C8 1_555 1_555
H10 C8 1_555 1_555
C9 O4 1_555 1_555
C6 C7 1_555 1_555
C8 C9 1_555 1_555

#END
