
#######################################################################
#
#                 Cambridge Crystallographic Data Centre
#                                CCDC 
#
#######################################################################
#
# If this CIF has been generated from an entry in the Cambridge 
# Structural Database, then it will include bibliographic, chemical, 
# crystal, experimental, refinement or atomic coordinate data resulting 
# from the CCDC's data processing and validation procedures.
#
#######################################################################

data_LOJDEV
_chemical_formula_moiety         'C18 H17 Cl2 N1 O4'
_chemical_name_systematic        
1-(3,4-Dichlorophenyl)-N-hydroxy-3-(2,4,5-trimethoxyphenyl)prop-2-en-1-imine
_symmetry_cell_setting           triclinic
_symmetry_space_group_name_H-M   'P -1'
_symmetry_Int_Tables_number      2
_space_group_name_Hall           '-P 1'
loop_
_symmetry_equiv_pos_site_id
_symmetry_equiv_pos_as_xyz
1 x,y,z
2 -x,-y,-z
_cell_length_a                   5.7733(9)
_cell_length_b                   12.2808(19)
_cell_length_c                   12.979(2)
_cell_angle_alpha                90.460(4)
_cell_angle_beta                 94.633(4)
_cell_angle_gamma                102.396(4)
_cell_volume                     895.527
_cell_formula_units_Z            2
loop_
_atom_site_label
_atom_site_type_symbol
_atom_site_fract_x
_atom_site_fract_y
_atom_site_fract_z
Cl1 Cl 0.2130(2) 0.06388(10) 0.58828(9)
Cl2 Cl 0.6843(2) 0.22778(13) 0.53944(10)
O1 O -0.0245(5) 0.5915(2) 0.6208(2)
N1 N 0.7859(6) 0.4848(3) 0.9217(2)
C1 C 0.1830(7) 0.6653(3) 0.7773(3)
O2 O -0.1778(6) 0.9244(2) 0.7803(2)
O3 O 0.8861(5) 0.3905(2) 0.9292(2)
H1 H 0.9995 0.4024 0.9731
C2 C -0.1076(7) 0.7594(3) 0.6947(3)
H2 H -0.2180 0.7638 0.6395
O4 O 0.1305(7) 0.9128(3) 0.9320(3)
C3 C 0.6041(7) 0.4728(3) 0.8543(3)
C4 C 0.3052(7) 0.5736(3) 0.7818(3)
H3 H 0.2473 0.5143 0.7351
C5 C 0.2221(8) 0.7477(4) 0.8561(3)
H4 H 0.3342 0.7444 0.9110
C6 C 0.4912(8) 0.5660(3) 0.8460(3)
H5 H 0.5547 0.6270 0.8901
C7 C -0.0658(8) 0.8383(4) 0.7738(3)
C8 C 0.0125(7) 0.6739(3) 0.6968(3)
C9 C 0.1033(8) 0.8320(4) 0.8559(3)
C10 C 0.5384(8) 0.2512(4) 0.6452(3)
C11 C 0.3353(8) 0.1795(3) 0.6672(3)
C12 C 0.6297(7) 0.3460(3) 0.7069(3)
H6 H 0.7699 0.3942 0.6918
C13 C 0.5134(7) 0.3687(3) 0.7899(3)
C14 C -0.3650(8) 0.9322(4) 0.7041(3)
H7 H -0.3012 0.9472 0.6384
H8 H -0.4387 0.9916 0.7232
H9 H -0.4812 0.8632 0.6994
C15 C -0.2132(8) 0.5897(4) 0.5431(3)
H10 H -0.3587 0.5868 0.5749
H11 H -0.2300 0.5252 0.4985
H12 H -0.1786 0.6559 0.5032
C16 C 0.2202(8) 0.2001(4) 0.7512(4)
H13 H 0.0822 0.1508 0.7671
C17 C 0.3116(9) 0.2951(4) 0.8125(4)
H14 H 0.2342 0.3090 0.8697
C18 C 0.2450(12) 0.8963(4) 1.0266(4)
H15 H 0.1746 0.8242 1.0512
H16 H 0.2294 0.9529 1.0753
H17 H 0.4105 0.9003 1.0188
loop_
_geom_bond_atom_site_label_1
_geom_bond_atom_site_label_2
_geom_bond_site_symmetry_1
_geom_bond_site_symmetry_2
Cl1 C11 1_555 1_555
Cl2 C10 1_555 1_555
O1 C8 1_555 1_555
N1 O3 1_555 1_555
C1 C4 1_555 1_555
O2 C7 1_555 1_555
O3 H1 1_555 1_555
C2 H2 1_555 1_555
O4 C9 1_555 1_555
C3 N1 1_555 1_555
C4 H3 1_555 1_555
C5 C1 1_555 1_555
H4 C5 1_555 1_555
C6 C3 1_555 1_555
H5 C6 1_555 1_555
C7 C2 1_555 1_555
C8 C1 1_555 1_555
C9 C5 1_555 1_555
C10 C11 1_555 1_555
C11 C16 1_555 1_555
C12 C10 1_555 1_555
H6 C12 1_555 1_555
C13 C3 1_555 1_555
C14 O2 1_555 1_555
H7 C14 1_555 1_555
H8 C14 1_555 1_555
H9 C14 1_555 1_555
C15 O1 1_555 1_555
H10 C15 1_555 1_555
H11 C15 1_555 1_555
H12 C15 1_555 1_555
C16 H13 1_555 1_555
C17 C13 1_555 1_555
H14 C17 1_555 1_555
C18 O4 1_555 1_555
H15 C18 1_555 1_555
H16 C18 1_555 1_555
H17 C18 1_555 1_555
C2 C8 1_555 1_555
C4 C6 1_555 1_555
C7 C9 1_555 1_555
C12 C13 1_555 1_555
C16 C17 1_555 1_555

#END
