
#######################################################################
#
#                 Cambridge Crystallographic Data Centre
#                                CCDC 
#
#######################################################################
#
# If this CIF has been generated from an entry in the Cambridge 
# Structural Database, then it will include bibliographic, chemical, 
# crystal, experimental, refinement or atomic coordinate data resulting 
# from the CCDC's data processing and validation procedures.
#
#######################################################################

data_LOJDIZ
_chemical_formula_moiety         'C18 H19 N1 O3'
_chemical_name_systematic        
1-(4-Ethoxyphenyl)-N-hydroxy-3-(4-methoxyphenyl)prop-2-en-1-imine
_symmetry_cell_setting           triclinic
_symmetry_space_group_name_H-M   'P -1'
_symmetry_Int_Tables_number      2
_space_group_name_Hall           '-P 1'
loop_
_symmetry_equiv_pos_site_id
_symmetry_equiv_pos_as_xyz
1 x,y,z
2 -x,-y,-z
_cell_length_a                   10.2117(11)
_cell_length_b                   12.3644(11)
_cell_length_c                   12.8781(11)
_cell_angle_alpha                93.100(3)
_cell_angle_beta                 96.848(3)
_cell_angle_gamma                90.294(3)
_cell_volume                     1611.94
_cell_formula_units_Z            4
loop_
_atom_site_label
_atom_site_type_symbol
_atom_site_fract_x
_atom_site_fract_y
_atom_site_fract_z
O1 O 0.23846(19) -0.12425(13) 0.18482(14)
N1 N 0.6664(2) 0.49236(16) 0.09566(15)
O2 O 0.6952(2) 0.42385(15) 0.01074(15)
H1 H 0.6271 0.4095 -0.0282
O3 O 0.5013(2) 0.69347(16) 0.51983(14)
C1 C 0.3985(2) 0.18590(18) 0.18609(18)
C2 C 0.3893(3) 0.11878(19) 0.09576(19)
H2 H 0.4196 0.1441 0.0361
C3 C 0.5617(2) 0.51537(18) 0.24733(18)
C4 C 0.5138(3) 0.63561(19) 0.42765(18)
C5 C 0.2905(2) -0.02371(18) 0.17941(19)
C6 C 0.5866(2) 0.44901(18) 0.15196(18)
C7 C 0.6629(3) 0.5430(2) 0.32524(19)
H3 H 0.7483 0.5211 0.3174
C8 C 0.4370(3) 0.54941(19) 0.26217(19)
H4 H 0.3673 0.5310 0.2109
C9 C 0.4581(2) 0.29370(18) 0.19708(18)
H5 H 0.4475 0.3337 0.2587
C10 C 0.2961(3) 0.0424(2) 0.2692(2)
H6 H 0.2640 0.0172 0.3282
C11 C 0.3364(3) 0.01530(19) 0.09176(19)
H7 H 0.3318 -0.0281 0.0301
C12 C 0.5260(3) 0.34275(19) 0.13059(19)
H8 H 0.5350 0.3066 0.0666
C13 C 0.6394(3) 0.6023(2) 0.4144(2)
H9 H 0.7088 0.6201 0.4661
C14 C 0.3483(3) 0.14489(19) 0.27285(19)
H10 H 0.3505 0.1883 0.3343
C15 C 0.4118(3) 0.6100(2) 0.35081(19)
H11 H 0.3267 0.6332 0.3583
C16 C 0.2310(3) -0.1971(2) 0.0960(2)
H12 H 0.1798 -0.1657 0.0380
H13 H 0.1899 -0.2635 0.1110
H14 H 0.3183 -0.2115 0.0786
C17 C 0.3753(3) 0.7362(3) 0.5362(2)
H15 H 0.3719 0.7500 0.6107
H16 H 0.3074 0.6830 0.5105
C18 C 0.3481(4) 0.8381(3) 0.4821(3)
H17 H 0.4175 0.8898 0.5048
H18 H 0.2656 0.8669 0.4988
H19 H 0.3438 0.8236 0.4078
O4 O -0.00891(19) 0.30967(15) 0.56013(14)
N2 N -0.1760(2) 0.59479(16) 0.94019(15)
O5 O -0.19574(19) 0.67337(14) 1.01916(13)
H20 H -0.2438 0.7208 0.9944
C19 C -0.1064(2) 0.62817(19) 0.87064(18)
O6 O 0.2852(2) 1.17280(14) 0.81059(16)
C20 C -0.1044(3) 0.5598(2) 0.68374(19)
H21 H -0.1372 0.6261 0.6621
C21 C -0.0823(3) 0.4804(2) 0.60997(19)
H22 H -0.1021 0.4926 0.5392
C22 C -0.0791(2) 0.54389(19) 0.79019(18)
C23 C -0.0311(2) 0.3824(2) 0.63972(19)
C24 C -0.0299(3) 0.4443(2) 0.81836(19)
H23 H -0.0129 0.4310 0.8891
C25 C 0.1075(2) 0.87034(19) 0.81899(19)
C26 C 0.0478(3) 0.7641(2) 0.8220(2)
H24 H 0.0868 0.7075 0.7869
C27 C -0.0566(3) 0.7382(2) 0.86928(19)
H25 H -0.0996 0.7935 0.9030
C28 C 0.0533(3) 0.9656(2) 0.8557(2)
H26 H -0.0262 0.9626 0.8839
C29 C -0.0054(3) 0.3643(2) 0.7451(2)
H27 H 0.0284 0.2983 0.7663
C30 C 0.2327(3) 1.0710(2) 0.8108(2)
C31 C 0.1144(3) 1.0637(2) 0.8514(2)
H28 H 0.0755 1.1263 0.8763
C32 C 0.2268(3) 0.8798(2) 0.7789(2)
H29 H 0.2664 0.8175 0.7545
C33 C 0.2893(3) 0.9788(2) 0.7740(2)
H30 H 0.3690 0.9825 0.7460
C34 C 0.4083(3) 1.1843(2) 0.7722(3)
H31 H 0.4740 1.1452 0.8141
H32 H 0.4328 1.2596 0.7756
H33 H 0.4016 1.1561 0.7008
C35 C 0.0487(3) 0.2085(2) 0.5863(2)
H34 H -0.0110 0.1665 0.6219
H35 H 0.1303 0.2204 0.6325
C36 C 0.0753(4) 0.1492(3) 0.4867(3)
H36 H -0.0051 0.1418 0.4399
H37 H 0.1089 0.0787 0.5019
H38 H 0.1391 0.1890 0.4546
loop_
_geom_bond_atom_site_label_1
_geom_bond_atom_site_label_2
_geom_bond_site_symmetry_1
_geom_bond_site_symmetry_2
O1 C5 1_555 1_555
N1 O2 1_555 1_555
O2 H1 1_555 1_555
O3 C4 1_555 1_555
C1 C2 1_555 1_555
C2 H2 1_555 1_555
C3 C6 1_555 1_555
C4 C13 1_555 1_555
C5 C10 1_555 1_555
C6 N1 1_555 1_555
C7 C3 1_555 1_555
H3 C7 1_555 1_555
C8 C3 1_555 1_555
H4 C8 1_555 1_555
C9 C1 1_555 1_555
H5 C9 1_555 1_555
C10 H6 1_555 1_555
C11 C2 1_555 1_555
H7 C11 1_555 1_555
C12 C6 1_555 1_555
H8 C12 1_555 1_555
C13 C7 1_555 1_555
H9 C13 1_555 1_555
C14 C1 1_555 1_555
H10 C14 1_555 1_555
C15 C4 1_555 1_555
H11 C15 1_555 1_555
C16 O1 1_555 1_555
H12 C16 1_555 1_555
H13 C16 1_555 1_555
H14 C16 1_555 1_555
C17 O3 1_555 1_555
H15 C17 1_555 1_555
H16 C17 1_555 1_555
C18 C17 1_555 1_555
H17 C18 1_555 1_555
H18 C18 1_555 1_555
H19 C18 1_555 1_555
O4 C23 1_555 1_555
N2 O5 1_555 1_555
O5 H20 1_555 1_555
C19 N2 1_555 1_555
O6 C30 1_555 1_555
C20 H21 1_555 1_555
C21 C20 1_555 1_555
H22 C21 1_555 1_555
C22 C19 1_555 1_555
C23 C21 1_555 1_555
C24 C22 1_555 1_555
H23 C24 1_555 1_555
C25 C26 1_555 1_555
C26 H24 1_555 1_555
C27 C19 1_555 1_555
H25 C27 1_555 1_555
C28 C25 1_555 1_555
H26 C28 1_555 1_555
C29 C23 1_555 1_555
H27 C29 1_555 1_555
C30 C31 1_555 1_555
C31 C28 1_555 1_555
H28 C31 1_555 1_555
C32 C25 1_555 1_555
H29 C32 1_555 1_555
C33 C30 1_555 1_555
H30 C33 1_555 1_555
C34 O6 1_555 1_555
H31 C34 1_555 1_555
H32 C34 1_555 1_555
H33 C34 1_555 1_555
C35 O4 1_555 1_555
H34 C35 1_555 1_555
H35 C35 1_555 1_555
C36 C35 1_555 1_555
H36 C36 1_555 1_555
H37 C36 1_555 1_555
H38 C36 1_555 1_555
C5 C11 1_555 1_555
C8 C15 1_555 1_555
C9 C12 1_555 1_555
C10 C14 1_555 1_555
C20 C22 1_555 1_555
C24 C29 1_555 1_555
C26 C27 1_555 1_555
C32 C33 1_555 1_555

#END
