
#######################################################################
#
#                 Cambridge Crystallographic Data Centre
#                                CCDC 
#
#######################################################################
#
# If this CIF has been generated from an entry in the Cambridge 
# Structural Database, then it will include bibliographic, chemical, 
# crystal, experimental, refinement or atomic coordinate data resulting 
# from the CCDC's data processing and validation procedures.
#
#######################################################################

data_LOJFIZ
_chemical_formula_moiety         
'C194 H316 Cs1 N52 O50 Si10 1+,C24 H20 B1 1-,16(C2 H3 N1),H2 O1'
_chemical_name_systematic        
"decakis(5'-t-Butyl-dimethylsilyl-2',3'-di-O-isopropylidene isoguanosine)-bis(acetonitrile)-cesium tetraphenylborate acetonitrile solvate monohydrate"
_symmetry_cell_setting           monoclinic
_symmetry_space_group_name_H-M   'P 21'
_symmetry_Int_Tables_number      4
_space_group_name_Hall           'P 2yb'
loop_
_symmetry_equiv_pos_site_id
_symmetry_equiv_pos_as_xyz
1 x,y,z
2 -x,1/2+y,-z
_cell_length_a                   23.948(5)
_cell_length_b                   24.594(5)
_cell_length_c                   52.090(10)
_cell_angle_alpha                90
_cell_angle_beta                 90.015(3)
_cell_angle_gamma                90
_cell_volume                     30679.8
_exptl_crystal_colour            colorless
_exptl_crystal_description       block
_chemical_melting_point          'decomposes above 150 deg.C'
_cell_formula_units_Z            4
loop_
_atom_site_label
_atom_site_type_symbol
_atom_site_fract_x
_atom_site_fract_y
_atom_site_fract_z
N1 N 0.7479(7) 0.1463(7) 0.4976(4)
C1 C 0.7536(5) 0.2025(5) 0.5054(2)
C2 C 0.7546(5) 0.2536(6) 0.5104(3)
O1 O 0.7497(9) -0.2986(9) 0.5018(4)
Cs1 Cs 0.75234(2) -0.13713(2) 0.000839(8)
Si1 Si 0.7738(2) 0.0499(2) 0.21248(9)
Si2 Si 1.08621(10) 0.09576(9) 0.04489(5)
Si3 Si 1.01151(13) 0.03762(13) -0.17247(5)
Si4 Si 0.49393(12) 0.03376(13) -0.18633(5)
Si5 Si 0.37304(12) 0.08894(11) 0.06402(6)
Si6 Si 0.7553(2) -0.2893(3) 0.22981(14)
Si7 Si 1.12680(10) -0.36546(10) 0.06567(5)
Si8 Si 1.02284(16) -0.30173(15) -0.18437(6)
Si9 Si 0.50434(13) -0.31259(12) -0.17327(6)
Si10 Si 0.41309(10) -0.37152(9) 0.04187(5)
C3 C 0.7781(3) -0.0721(3) 0.07732(17)
N2 N 0.7215(3) -0.0715(3) 0.07856(13)
O2 O 0.7997(2) -0.0744(2) 0.05391(9)
C4 C 0.7804(3) -0.0720(3) 0.11839(12)
N3 N 0.8112(3) -0.0739(3) 0.09703(11)
O3 O 0.8599(3) -0.0990(3) 0.17857(13)
C5 C 0.7228(3) -0.0692(3) 0.12226(13)
N4 N 0.6357(3) -0.0696(3) 0.09985(15)
O4 O 0.9480(3) -0.0504(3) 0.13738(12)
C6 C 0.6918(3) -0.0690(3) 0.10036(17)
N5 N 0.7075(3) -0.0691(3) 0.14899(13)
O5 O 0.9648(5) 0.0012(5) 0.1730(2)
C7 C 0.7550(4) -0.0746(4) 0.16009(14)
N6 N 0.8001(3) -0.0723(3) 0.14509(12)
O6 O 0.8110(4) -0.0034(4) 0.20180(17)
C8 C 0.8594(3) -0.0841(4) 0.15193(16)
C9 C 0.8987(5) -0.0387(5) 0.1476(2)
C10 C 0.9124(5) -0.0156(5) 0.1725(2)
C11 C 0.9890(5) -0.0234(5) 0.1500(2)
C12 C 1.0001(8) 0.0292(7) 0.1368(4)
C13 C 1.0411(8) -0.0617(8) 0.1489(4)
C14 C 0.8917(5) -0.0570(5) 0.1938(2)
C15 C 0.8515(8) -0.0368(8) 0.2139(4)
C16 C 0.7628(8) 0.0851(8) 0.1855(3)
C17 C 0.8153(6) 0.0889(6) 0.2355(3)
C18 C 0.7083(6) 0.0237(6) 0.2286(3)
C19 C 0.7252(16) -0.0209(15) 0.2526(7)
C20 C 0.6853(10) 0.0795(9) 0.2398(4)
C21 C 0.6618(12) 0.0077(12) 0.2118(5)
C22 C 0.9228(3) -0.0741(3) 0.01510(14)
N7 N 0.9085(2) -0.0750(2) 0.04151(11)
O7 O 0.88382(18) -0.0744(2) 0.00027(10)
C23 C 1.0151(3) -0.0712(2) 0.02821(14)
N8 N 0.9783(2) -0.0716(2) 0.00843(12)
O8 O 1.1644(2) -0.0618(2) 0.01167(11)
C24 C 1.0030(3) -0.0721(3) 0.05388(13)
N9 N 0.9285(3) -0.0761(3) 0.08552(12)
O9 O 1.0953(3) -0.0627(3) -0.04067(13)
C25 C 0.9449(3) -0.0736(3) 0.06105(13)
N10 N 1.0511(3) -0.0702(2) 0.06849(13)
O10 O 1.1776(3) -0.0183(3) -0.03999(13)
O11 O 1.1155(3) 0.0420(2) 0.02980(11)
C26 C 1.0892(4) -0.0690(3) 0.05295(15)
N11 N 1.0704(3) -0.0692(3) 0.02610(12)
C27 C 1.1084(3) -0.0721(3) 0.00469(15)
C28 C 1.0943(4) -0.0346(4) -0.01773(16)
C29 C 1.1444(4) 0.0064(4) -0.01958(18)
C30 C 1.1382(4) -0.0424(3) -0.05790(16)
C31 C 1.1121(5) -0.0064(5) -0.0778(2)
C32 C 1.1712(7) -0.0898(7) -0.0624(3)
C33 C 1.1798(3) -0.0083(3) 0.00420(14)
C34 C 1.1737(4) 0.0338(4) 0.02533(17)
C35 C 1.0924(5) 0.1573(4) 0.0237(2)
C36 C 1.0125(4) 0.0754(4) 0.04814(17)
C37 C 1.1206(4) 0.1087(3) 0.07771(17)
C38 C 1.1733(4) 0.1397(4) 0.0754(2)
C39 C 1.1308(5) 0.0563(5) 0.0920(2)
C40 C 1.0784(4) 0.1443(4) 0.09361(19)
C41 C 0.8360(3) -0.0736(3) -0.06652(16)
N12 N 0.8861(2) -0.0749(2) -0.05252(10)
O12 O 0.7942(2) -0.0707(2) -0.05305(10)
C42 C 0.8896(3) -0.0773(3) -0.10268(14)
N13 N 0.8379(3) -0.0736(3) -0.09169(12)
O13 O 0.8957(2) -0.1059(2) -0.17045(11)
C43 C 0.9405(3) -0.0781(3) -0.08963(15)
N14 N 0.9811(3) -0.0792(3) -0.04736(11)
O14 O 0.7747(3) -0.0546(3) -0.15970(14)
C44 C 0.9377(3) -0.0769(3) -0.06250(14)
N15 N 0.9861(3) -0.0832(3) -0.10551(13)
O15 O 0.8000(3) -0.0349(3) -0.19920(15)
C45 C 0.9614(3) -0.0847(4) -0.12844(17)
N16 N 0.9032(3) -0.0806(3) -0.12837(13)
O16 O 0.9680(3) -0.0116(3) -0.17437(12)
C46 C 0.8644(3) -0.0885(3) -0.14956(16)
C47 C 0.8331(4) -0.0404(4) -0.15651(19)
C48 C 0.8517(4) -0.0248(4) -0.1839(2)
C49 C 0.7545(4) -0.0333(4) -0.18286(18)
C50 C 0.7345(8) 0.0249(7) -0.1779(3)
C51 C 0.7061(6) -0.0681(6) -0.1946(3)
C52 C 0.8934(4) -0.0676(4) -0.19132(17)
C53 C 0.9504(4) -0.0439(4) -0.19620(18)
C54 C 0.9931(5) 0.0667(5) -0.1392(2)
C55 C 1.0011(7) 0.0854(6) -0.2002(3)
C56 C 1.0851(5) 0.0149(5) -0.1738(2)
C57 C 1.0986(9) -0.0299(9) -0.1919(4)
C58 C 1.1219(9) 0.0621(9) -0.1755(4)
C59 C 1.0981(8) -0.0158(8) -0.1479(4)
C60 C 0.6416(3) -0.0670(3) -0.05417(13)
N17 N 0.6852(3) -0.0672(3) -0.06994(13)
O17 O 0.6512(2) -0.0720(2) -0.03035(10)
C61 C 0.5849(3) -0.0590(3) -0.08963(13)
N18 N 0.5873(2) -0.0637(2) -0.06261(11)
O18 O 0.4442(2) -0.0566(2) -0.11692(10)
C62 C 0.6272(3) -0.0586(3) -0.10558(14)
N19 N 0.7278(3) -0.0605(3) -0.11089(14)
O19 O 0.4184(2) -0.0473(2) -0.05981(10)
C63 C 0.6815(3) -0.0628(3) -0.09585(15)
N20 N 0.6082(3) -0.0539(3) -0.13159(14)
O20 O 0.3740(3) 0.0233(3) -0.07754(13)
C64 C 0.5558(4) -0.0522(3) -0.12952(16)
N21 N 0.5373(2) -0.0570(3) -0.10327(13)
O21 O 0.4623(3) 0.0095(2) -0.16111(12)
C65 C 0.4787(3) -0.0627(3) -0.09563(15)
C66 C 0.4604(3) -0.0195(3) -0.07567(15)
C67 C 0.4291(3) 0.0202(3) -0.08917(15)
C68 C 0.3741(4) -0.0099(3) -0.05540(16)
C69 C 0.3195(5) -0.0338(5) -0.0521(2)
C70 C 0.3873(5) 0.0285(5) -0.0318(2)
C71 C 0.4248(4) 0.0025(4) -0.11810(17)
C72 C 0.4570(4) 0.0355(4) -0.13664(18)
C73 C 0.4535(6) 0.0927(6) -0.1984(3)
C74 C 0.5636(7) 0.0563(8) -0.1768(3)
C75 C 0.4994(4) -0.0250(4) -0.20944(19)
C76 C 0.4419(6) -0.0419(6) -0.2179(3)
C77 C 0.5326(6) -0.0711(6) -0.1987(3)
C78 C 0.5297(7) -0.0054(7) -0.2345(3)
C79 C 0.6005(3) -0.0679(3) 0.03391(15)
N22 N 0.5759(3) -0.0689(3) 0.00883(12)
O22 O 0.6526(2) -0.0666(3) 0.03497(10)
C80 C 0.5112(3) -0.0659(3) 0.04772(14)
N23 N 0.5679(2) -0.0659(3) 0.05426(14)
O23 O 0.4159(3) -0.0738(3) 0.10434(12)
C81 C 0.4871(3) -0.0667(3) 0.02458(17)
N24 N 0.5051(3) -0.0704(3) -0.02031(14)
O24 O 0.5388(3) -0.0547(3) 0.12731(12)
C82 C 0.5228(3) -0.0681(3) 0.00298(13)
N25 N 0.4294(2) -0.0679(3) 0.02591(15)
O25 O 0.4738(3) -0.0140(3) 0.15095(14)
C83 C 0.4175(4) -0.0675(3) 0.0494(2)
N26 N 0.4672(3) -0.0630(3) 0.06583(12)
O26 O 0.4011(3) 0.0421(3) 0.08317(11)
C84 C 0.4695(4) -0.0723(4) 0.09453(17)
C85 C 0.5033(4) -0.0290(3) 0.10958(16)
C86 C 0.4617(4) 0.0015(4) 0.12557(18)
C87 C 0.5333(4) -0.0277(4) 0.1526(2)
C88 C 0.5446(5) -0.0679(5) 0.1736(2)
C89 C 0.5739(6) 0.0183(6) 0.1529(3)
C90 C 0.4031(4) -0.0222(4) 0.11808(19)
C91 C 0.3688(4) 0.0172(4) 0.10268(18)
C92 C 0.3330(6) 0.1398(5) 0.0815(3)
C93 C 0.3262(5) 0.0512(5) 0.0412(2)
C94 C 0.4302(4) 0.1206(4) 0.04579(18)
C95 C 0.4691(5) 0.1535(5) 0.0648(2)
C96 C 0.4684(5) 0.0764(5) 0.0344(2)
C97 C 0.4093(6) 0.1595(5) 0.0248(2)
C98 C 0.7239(3) -0.2025(3) 0.07515(13)
N27 N 0.7822(2) -0.2028(3) 0.07638(13)
O27 O 0.7055(2) -0.1985(3) 0.05284(10)
C99 C 0.7202(3) -0.2053(3) 0.11989(17)
N28 N 0.6930(3) -0.2037(2) 0.09675(11)
O28 O 0.6409(2) -0.1984(2) 0.17806(11)
C100 C 0.7771(3) -0.2066(4) 0.12112(13)
N29 N 0.8664(2) -0.2074(3) 0.09946(12)
O29 O 0.5497(3) -0.2111(3) 0.13677(12)
C101 C 0.8102(3) -0.2049(3) 0.09944(14)
N30 N 0.7948(3) -0.2073(3) 0.14634(12)
O30 O 0.5319(3) -0.2653(3) 0.16968(13)
C102 C 0.7479(4) -0.2050(3) 0.15946(15)
N31 N 0.7003(3) -0.2038(3) 0.14218(11)
O31 O 0.7078(4) -0.2615(4) 0.21085(18)
C103 C 0.6417(3) -0.1958(4) 0.15119(16)
C104 C 0.6023(3) -0.2399(3) 0.14217(15)
C105 C 0.5909(4) -0.2768(4) 0.16452(19)
C106 C 0.5062(4) -0.2427(4) 0.14787(19)
C107 C 0.4611(6) -0.2044(6) 0.1557(3)
C108 C 0.4839(5) -0.2848(5) 0.1300(2)
C109 C 0.6240(4) -0.2534(4) 0.1860(2)
C110 C 0.6767(5) -0.2926(5) 0.1903(2)
C111 C 0.7573(15) -0.3583(14) 0.2302(6)
C112 C 0.8238(9) -0.3052(9) 0.2017(4)
C113 C 0.7901(5) -0.2453(9) 0.2447(3)
C114 C 0.7448(15) -0.247(4) 0.2646(8)
C115 C 0.7910(8) -0.1827(8) 0.2399(4)
C116 C 0.8396(9) -0.2503(9) 0.2633(4)
C117 C 0.9055(3) -0.2073(3) 0.03457(12)
N32 N 0.9272(2) -0.2049(3) 0.00997(11)
O32 O 0.8536(2) -0.2041(2) 0.03569(9)
C118 C 0.9920(3) -0.2081(3) 0.05111(12)
N33 N 0.9380(3) -0.2077(3) 0.05554(12)
O33 O 1.0884(2) -0.2031(2) 0.10617(9)
C119 C 1.0194(3) -0.2097(3) 0.02695(13)
N34 N 1.0021(2) -0.2036(3) -0.02046(11)
O34 O 0.9652(2) -0.2121(2) 0.12860(10)
C120 C 0.9851(3) -0.2067(3) 0.00503(15)
N35 N 1.0762(2) -0.2083(2) 0.02881(11)
O35 O 1.0273(3) -0.2617(3) 0.15266(12)
C121 C 1.0852(3) -0.2081(2) 0.05344(13)
N36 N 1.0375(2) -0.2103(2) 0.06725(12)
O36 O 1.0995(2) -0.3189(2) 0.08467(10)
C122 C 1.0332(3) -0.2009(3) 0.09633(13)
C123 C 0.9996(3) -0.2425(3) 0.11066(15)
C124 C 1.0412(4) -0.2760(4) 0.12610(18)
C125 C 0.9715(4) -0.2410(3) 0.15338(16)
C126 C 0.9330(5) -0.2847(5) 0.1550(3)
C127 C 0.9671(5) -0.1987(5) 0.1730(2)
C128 C 1.0954(3) -0.2571(3) 0.11943(17)
C129 C 1.1332(4) -0.2924(4) 0.10403(16)
C130 C 1.1616(5) -0.4195(4) 0.0862(2)
C131 C 1.1776(5) -0.3336(4) 0.0436(2)
C132 C 1.0685(4) -0.3951(4) 0.04763(17)
C133 C 1.0312(4) -0.3506(4) 0.0352(2)
C134 C 1.0876(4) -0.4345(4) 0.02582(19)
C135 C 1.0319(5) -0.4324(5) 0.0668(2)
C136 C 0.8680(3) -0.2058(3) -0.05195(15)
N37 N 0.8228(2) -0.2064(2) -0.06893(10)
O37 O 0.85359(19) -0.2016(2) -0.02883(9)
C137 C 0.9256(3) -0.2109(3) -0.08597(13)
N38 N 0.9199(2) -0.2080(2) -0.06028(10)
O38 O 1.0679(2) -0.2154(2) -0.11195(9)
C138 C 0.8823(3) -0.2131(3) -0.10461(13)
N39 N 0.7822(3) -0.2084(3) -0.10986(12)
O39 O 1.0893(2) -0.2313(2) -0.05501(9)
C139 C 0.8278(3) -0.2093(3) -0.09511(15)
N40 N 0.9028(2) -0.2150(3) -0.12874(12)
O40 O 1.1301(3) -0.3030(2) -0.07472(12)
C140 C 0.9570(3) -0.2144(4) -0.12632(14)
N41 N 0.9730(2) -0.2162(3) -0.10043(11)
O41 O 1.0514(3) -0.2756(3) -0.15741(12)
C141 C 1.0313(3) -0.2087(3) -0.09167(13)
C142 C 1.0474(3) -0.2534(3) -0.07115(13)
C143 C 1.0801(3) -0.2959(3) -0.08780(16)
C144 C 1.1295(4) -0.2750(4) -0.05141(17)
C145 C 1.1869(4) -0.2449(4) -0.0476(2)
C146 C 1.1142(4) -0.3071(4) -0.02912(18)
C147 C 1.0855(3) -0.2706(3) -0.11426(14)
C148 C 1.0519(3) -0.3032(3) -0.13441(15)
C149 C 0.9511(6) -0.3287(6) -0.1754(3)
C150 C 1.0630(6) -0.3566(6) -0.1944(3)
C151 C 1.0202(5) -0.2435(5) -0.2064(2)
C152 C 1.0812(14) -0.2215(14) -0.2083(6)
C153 C 0.9992(9) -0.2612(8) -0.2333(4)
C154 C 0.9907(9) -0.1930(9) -0.1959(4)
C155 C 0.6717(3) -0.2004(3) -0.06688(16)
N42 N 0.6213(2) -0.1996(3) -0.05318(11)
O42 O 0.71473(19) -0.2034(3) -0.05380(9)
C156 C 0.6186(3) -0.1974(4) -0.10253(13)
N43 N 0.6713(2) -0.1987(2) -0.09322(11)
O43 O 0.6214(3) -0.1732(2) -0.17326(12)
C157 C 0.5685(3) -0.1967(3) -0.09138(12)
N44 N 0.5242(3) -0.1945(3) -0.05025(12)
O44 O 0.7428(3) -0.2167(2) -0.15807(12)
C158 C 0.5686(3) -0.1972(3) -0.06529(14)
N45 N 0.5250(3) -0.1907(3) -0.10851(12)
O45 O 0.7202(4) -0.2586(4) -0.19558(18)
C159 C 0.5509(3) -0.1874(4) -0.13128(19)
N46 N 0.6079(3) -0.1926(3) -0.12992(11)
O46 O 0.5506(3) -0.2636(2) -0.17567(12)
C160 C 0.6487(4) -0.1829(4) -0.14980(17)
C161 C 0.6862(5) -0.2361(5) -0.1564(2)
C162 C 0.6678(5) -0.2537(5) -0.1832(2)
C163 C 0.7630(6) -0.2501(5) -0.1786(2)
C164 C 0.8094(7) -0.2148(7) -0.1906(3)
C165 C 0.7842(8) -0.3015(7) -0.1672(3)
C166 C 0.6289(5) -0.2169(5) -0.1910(2)
C167 C 0.5696(5) -0.2389(5) -0.1984(2)
C168 C 0.5262(5) -0.3673(5) -0.1945(2)
C169 C 0.5114(6) -0.3306(6) -0.1394(2)
C170 C 0.4358(4) -0.2886(4) -0.18244(18)
C171 C 0.3896(8) -0.3371(8) -0.1746(4)
C172 C 0.4222(6) -0.2312(6) -0.1683(3)
C173 C 0.4271(9) -0.2753(9) -0.2126(4)
C174 C 0.5801(3) -0.2030(3) 0.01414(16)
N47 N 0.5936(3) -0.1996(2) 0.04010(11)
O47 O 0.62105(18) -0.2003(2) -0.00162(9)
C175 C 0.4899(3) -0.2046(3) 0.02486(14)
N48 N 0.5269(2) -0.2050(2) 0.00592(10)
O48 O 0.3414(2) -0.2146(2) 0.00675(11)
C176 C 0.5014(3) -0.2020(3) 0.05178(16)
N49 N 0.5745(2) -0.1973(3) 0.08389(12)
O49 O 0.4100(3) -0.2063(3) -0.04423(13)
C177 C 0.5548(3) -0.1991(3) 0.05882(16)
N50 N 0.4515(3) -0.2026(3) 0.06714(13)
O50 O 0.3336(3) -0.2677(3) -0.04629(15)
O51 O 0.3866(3) -0.3187(3) 0.02681(12)
C178 C 0.4127(3) -0.2076(3) 0.04658(15)
N51 N 0.4322(2) -0.2076(3) 0.02354(12)
C179 C 0.3970(3) -0.2049(3) -0.00102(16)
C180 C 0.4112(4) -0.2423(4) -0.02109(18)
C181 C 0.3623(4) -0.2832(4) -0.02165(18)
C182 C 0.3684(4) -0.2369(4) -0.0599(2)
C183 C 0.3893(7) -0.2610(6) -0.0850(3)
C184 C 0.3403(6) -0.1870(5) -0.0764(3)
C185 C 0.3272(4) -0.2708(3) -0.00101(18)
C186 C 0.3294(4) -0.3083(4) 0.02051(16)
C187 C 0.4868(4) -0.3533(4) 0.0444(2)
C188 C 0.4057(5) -0.4322(4) 0.0218(2)
C189 C 0.3811(4) -0.3829(4) 0.0744(2)
C190 C 0.4170(5) -0.4176(5) 0.0896(2)
C191 C 0.3690(5) -0.3263(5) 0.0870(2)
C192 C 0.3256(5) -0.4171(5) 0.0708(2)
N52 N 0.7486(3) -0.2786(3) 0.00152(17)
C193 C 0.7479(4) -0.3419(4) 0.00842(17)
C194 C 0.7493(5) -0.3822(3) 0.0130(2)
N53 N 0.7608(6) 0.0071(4) -0.0005(3)
C195 C 0.7574(4) 0.0645(4) 0.0087(2)
C196 C 0.7555(5) 0.1082(4) 0.01587(17)
B1 B 0.2544(5) -0.0707(4) 0.7175(2)
C197 C 0.2615(5) -0.1186(4) 0.6968(2)
C198 C 0.3114(5) -0.1340(5) 0.6870(2)
C199 C 0.3153(5) -0.1777(5) 0.6696(2)
C200 C 0.2687(5) -0.2043(5) 0.6614(2)
C201 C 0.2195(6) -0.1911(6) 0.6698(3)
C202 C 0.2141(7) -0.1453(7) 0.6886(3)
C203 C 0.2616(3) -0.0996(2) 0.74569(10)
C204 C 0.2143(2) -0.1176(3) 0.75863(13)
C205 C 0.2199(3) -0.1475(3) 0.78112(13)
C206 C 0.2727(3) -0.1594(3) 0.79067(12)
C207 C 0.3199(3) -0.1414(3) 0.77773(13)
C208 C 0.3144(2) -0.1114(3) 0.75524(12)
C209 C 0.3054(3) -0.0207(3) 0.71253(13)
C210 C 0.3260(3) 0.0086(3) 0.73329(11)
C211 C 0.3652(4) 0.0495(3) 0.72936(15)
C212 C 0.3838(3) 0.0610(3) 0.70468(18)
C213 C 0.3632(4) 0.0317(4) 0.68392(13)
C214 C 0.3240(3) -0.0092(3) 0.68785(12)
C215 C 0.1986(4) -0.0364(4) 0.71349(19)
C216 C 0.1741(4) -0.0037(4) 0.7334(2)
C217 C 0.1285(5) 0.0282(5) 0.7298(2)
C218 C 0.1015(5) 0.0300(5) 0.7085(2)
C219 C 0.1228(5) 0.0016(5) 0.6869(2)
C220 C 0.1721(5) -0.0307(4) 0.6891(2)
B2 B 0.7374(6) -0.5630(6) -0.2645(3)
C221 C 0.7569(4) -0.5101(3) -0.27767(17)
C222 C 0.7176(3) -0.4831(4) -0.2926(2)
C223 C 0.7314(5) -0.4343(4) -0.3044(2)
C224 C 0.7845(5) -0.4125(4) -0.3014(2)
C225 C 0.8239(4) -0.4395(4) -0.2865(2)
C226 C 0.8100(4) -0.4883(4) -0.27460(18)
C227 C 0.7888(4) -0.5905(4) -0.2441(2)
C228 C 0.8182(5) -0.6385(4) -0.24792(19)
C229 C 0.8597(5) -0.6538(4) -0.2307(2)
C230 C 0.8718(5) -0.6210(6) -0.2097(2)
C231 C 0.8423(6) -0.5729(5) -0.2059(2)
C232 C 0.8008(5) -0.5577(4) -0.2231(2)
C233 C 0.6819(5) -0.5610(5) -0.2462(2)
C234 C 0.6675(5) -0.6065(4) -0.2318(2)
C235 C 0.6255(6) -0.6031(6) -0.2135(2)
C236 C 0.5978(6) -0.5541(7) -0.2095(3)
C237 C 0.6122(7) -0.5086(6) -0.2239(3)
C238 C 0.6542(7) -0.5120(5) -0.2422(3)
C239 C 0.7267(5) -0.6124(4) -0.29013(18)
C240 C 0.6761(4) -0.6388(5) -0.2940(2)
C241 C 0.6706(4) -0.6762(5) -0.3139(3)
C242 C 0.7158(6) -0.6872(5) -0.3298(2)
C243 C 0.7664(5) -0.6607(5) -0.32591(19)
C244 C 0.7718(4) -0.6233(4) -0.30607(19)
N54 N 0.2455(5) 0.0679(5) 0.5583(2)
C245 C 0.2379(6) 0.0336(6) 0.5430(3)
C246 C 0.2249(5) -0.0164(5) 0.5257(2)
N55 N 0.2417(14) 0.0794(13) -0.1208(6)
C247 C 0.2484(9) 0.1273(9) -0.1038(4)
C248 C 0.2408(9) 0.1677(8) -0.0944(4)
N56 N 0.2287(7) -0.0558(6) 0.3869(3)
C249 C 0.1970(8) -0.0339(7) 0.3693(4)
C250 C 0.1695(9) -0.0102(9) 0.3524(4)
N57 N 0.5406(5) -0.1716(5) -0.2573(2)
C251 C 0.4970(6) -0.1756(6) -0.2649(3)
C252 C 0.4368(10) -0.1737(10) -0.2751(5)
N58 N 0.7505(7) 0.3070(6) 0.6030(3)
C253 C 0.7991(10) 0.2815(10) 0.6137(5)
C254 C 0.8409(7) 0.2510(7) 0.6227(3)
N59 N 0.4401(11) -0.0601(10) 0.3269(5)
C255 C 0.3982(8) -0.0487(8) 0.3398(4)
C256 C 0.3393(9) -0.0489(9) 0.3512(4)
N60 N 1.2706(9) 0.0628(8) 0.6274(4)
C257 C 1.2192(9) 0.0627(9) 0.6247(4)
C258 C 1.1633(5) 0.0587(5) 0.6134(2)
N61 N 0.3222(8) 0.0702(8) -0.1680(4)
C259 C 0.3032(7) 0.0350(7) -0.1798(3)
C260 C 0.2813(10) -0.0170(10) -0.1913(5)
N62 N 0.4004(5) 0.1512(5) -0.1020(2)
C261 C 0.3788(5) 0.1581(5) -0.0836(3)
C262 C 0.3549(5) 0.1701(5) -0.0572(2)
N63 N 1.2598(5) -0.0768(4) 0.5814(2)
C263 C 1.2899(6) -0.0693(6) 0.5990(3)
C264 C 1.3286(7) -0.0613(7) 0.6173(3)
N64 N 0.9671(6) -0.1057(6) -0.2563(3)
C265 C 1.0093(5) -0.1135(4) -0.2651(2)
C266 C 1.0634(5) -0.1190(5) -0.2777(2)
N65 N 0.5961(7) 0.0897(7) 0.0978(3)
C267 C 0.6141(6) 0.0778(6) 0.0784(3)
C268 C 0.6404(6) 0.0688(6) 0.0567(3)
N66 N 1.2661(7) -0.0559(7) -0.1271(3)
C269 C 1.2989(8) -0.0873(8) -0.1334(4)
C270 C 1.3516(8) -0.1203(8) -0.1447(4)
N67 N 0.9175(6) -0.2103(6) -0.4005(3)
C271 C 0.8944(6) -0.2049(6) -0.4199(3)
C272 C 0.8693(6) -0.1964(6) -0.4425(3)
N68 N 1.1459(6) -0.4452(6) -0.0655(3)
C273 C 1.1243(6) -0.4312(6) -0.0895(3)
C274 C 1.1277(8) -0.4150(8) -0.1148(3)
N69 N 0.3885(9) -0.2743(9) 0.4045(4)
C275 C 0.3782(8) -0.2930(8) 0.4228(4)
C276 C 0.3622(8) -0.3039(7) 0.4490(3)
N70 N 1.0297(9) -0.4466(9) -0.2532(4)
C277 C 0.9935(8) -0.4636(8) -0.2383(4)
C278 C 0.9480(7) -0.4760(7) -0.2233(3)
N71 N 0.3412(7) 0.1020(7) 0.1614(3)
C279 C 0.3003(9) 0.0627(9) 0.1709(4)
C280 C 0.2870(10) 0.0186(9) 0.1852(4)
N72 N 0.7494(12) 0.1914(11) 0.5759(5)
C281 C 0.8070(11) 0.1884(10) 0.5649(5)
C282 C 0.8631(7) 0.1987(7) 0.5622(3)
N73 N 1.2446(11) -0.2253(10) -0.1354(5)
C283 C 1.2033(10) -0.1837(9) -0.1337(4)
C284 C 1.1634(6) -0.1525(6) -0.1434(3)
Cs2? Cs 0.74424(2) -0.00002(2) 0.502192(10)
Si11? Si 0.41633(11) -0.23974(12) 0.54665(5)
C285? C 0.5795(3) -0.0714(3) 0.51908(15)
O52? O 0.6195(2) -0.0712(3) 0.50329(10)
N74? N 0.5938(3) -0.0699(3) 0.54539(12)
C286? C 0.4886(3) -0.0754(3) 0.53188(15)
O53? O 0.33846(19) -0.0812(2) 0.51563(12)
N75? N 0.5258(2) -0.0748(3) 0.51175(12)
C287? C 0.5019(3) -0.0734(3) 0.55853(14)
O54? O 0.4066(3) -0.0790(3) 0.46177(14)
N76? N 0.5768(3) -0.0666(3) 0.58866(12)
N77? N 0.4519(2) -0.0724(3) 0.57354(13)
O55? O 0.3263(3) -0.1296(3) 0.46108(14)
C288? C 0.5559(4) -0.0683(4) 0.56549(15)
N78? N 0.4314(2) -0.0768(3) 0.53059(11)
O56? O 0.3883(3) -0.1852(2) 0.53324(12)
C289? C 0.4108(3) -0.0761(4) 0.55523(16)
C290? C 0.3949(3) -0.0712(3) 0.50754(14)
C291? C 0.4060(4) -0.1100(4) 0.48494(18)
C292? C 0.3548(4) -0.1446(4) 0.48385(18)
C293? C 0.3629(4) -0.0979(4) 0.44631(17)
Si12? Si 0.37046(11) 0.22218(12) 0.56047(5)
C294? C 0.3844(7) -0.1341(7) 0.4265(3)
C295? C 0.3339(7) -0.0502(6) 0.4314(3)
C296? C 0.3220(4) -0.1361(4) 0.50831(17)
C297? C 0.3306(4) -0.1745(4) 0.52978(17)
Si13? Si 1.08530(11) 0.24095(11) 0.54249(6)
C298? C 0.4089(6) -0.2987(5) 0.5244(2)
C299? C 0.4917(5) -0.2220(5) 0.5509(2)
Si14? Si 0.98174(13) 0.19102(15) 0.33137(6)
C300? C 0.3852(5) -0.2561(5) 0.5788(2)
C301? C 0.3736(7) -0.2012(6) 0.5956(3)
Si15? Si 0.47209(15) 0.16330(18) 0.32442(7)
C302? C 0.3274(6) -0.2890(6) 0.5729(3)
C303? C 0.4262(8) -0.2965(7) 0.5938(3)
Si16? Si 0.72545(12) -0.19278(15) 0.71013(5)
N79? N 0.7820(2) -0.0647(3) 0.58125(12)
C304? C 0.7232(3) -0.0642(4) 0.57905(15)
O57? O 0.7052(2) -0.0655(3) 0.55800(11)
C305? C 0.7217(3) -0.0637(4) 0.62500(14)
N80? N 0.6928(2) -0.0656(3) 0.60207(11)
O58? O 0.6422(3) -0.0378(2) 0.68150(12)
C306? C 0.7804(3) -0.0613(4) 0.62617(16)
N81? N 0.8681(3) -0.0588(4) 0.60196(15)
O59? O 0.5530(3) -0.0779(3) 0.64189(15)
O60? O 0.5293(3) -0.1068(3) 0.67875(14)
C307? C 0.8117(3) -0.0623(4) 0.60348(14)
N82? N 0.7965(3) -0.0581(3) 0.65163(13)
C308? C 0.7491(4) -0.0590(4) 0.66473(15)
N83? N 0.7017(3) -0.0602(3) 0.64845(12)
O61? O 0.6949(3) -0.1356(3) 0.70168(14)
C309? C 0.6434(4) -0.0527(4) 0.65571(17)
C310? C 0.6064(4) -0.0998(4) 0.65199(17)
C311? C 0.5878(4) -0.1142(4) 0.68084(19)
C312? C 0.5084(3) -0.1050(3) 0.65377(16)
C313? C 0.4610(8) -0.0677(8) 0.6544(4)
C314? C 0.4935(9) -0.1592(8) 0.6449(4)
C315? C 0.6161(5) -0.0732(5) 0.6968(2)
C316? C 0.6561(4) -0.1021(4) 0.71609(19)
C317? C 0.6779(5) -0.2342(5) 0.7328(2)
C318? C 0.7370(6) -0.2294(5) 0.6792(2)
C319? C 0.7926(4) -0.1783(4) 0.72603(18)
C320? C 0.8341(4) -0.1567(4) 0.7062(2)
C321? C 0.8187(6) -0.2338(5) 0.7353(3)
C322? C 0.7860(4) -0.1392(4) 0.7480(2)
Si17? Si 1.12871(10) -0.21870(11) 0.56675(5)
N84? N 0.9269(3) -0.0608(3) 0.51262(12)
C323? C 0.9044(3) -0.0640(4) 0.53751(15)
O62? O 0.85358(19) -0.0631(3) 0.53922(10)
N85? N 0.9409(2) -0.0649(3) 0.55822(11)
C324? C 0.9945(3) -0.0634(3) 0.55270(13)
O63? O 1.0936(2) -0.0580(2) 0.60622(11)
C325? C 1.0176(3) -0.0612(3) 0.52804(14)
N86? N 0.9963(3) -0.0580(3) 0.48216(12)
O64? O 0.9674(2) -0.0635(2) 0.62926(10)
C326? C 0.9824(3) -0.0591(3) 0.50699(14)
N87? N 1.0768(2) -0.0607(3) 0.52879(11)
O65? O 1.0313(3) -0.1022(3) 0.65468(13)
N88? N 1.0383(3) -0.0640(3) 0.56882(12)
C327? C 1.0853(3) -0.0619(3) 0.55323(16)
O66? O 1.0994(3) -0.1739(2) 0.58690(12)
C328? C 1.0360(4) -0.0535(4) 0.59660(16)
C329? C 1.0031(4) -0.0937(3) 0.61168(16)
C330? C 1.0422(4) -0.1254(4) 0.62922(17)
C331? C 0.9762(3) -0.0874(3) 0.65440(16)
C332? C 0.9677(5) -0.0432(5) 0.6726(2)
C333? C 0.9374(6) -0.1356(6) 0.6590(3)
C334? C 1.1007(4) -0.1064(4) 0.62130(18)
C335? C 1.1336(5) -0.1470(4) 0.6070(2)
C336? C 1.1787(5) -0.1799(5) 0.5470(2)
C337? C 1.1645(6) -0.2728(6) 0.5877(3)
C338? C 1.0678(4) -0.2491(4) 0.54833(18)
C339? C 1.0338(5) -0.2847(5) 0.5660(2)
C340? C 1.0329(5) -0.2079(5) 0.5366(2)
C341? C 1.0919(5) -0.2847(5) 0.5263(2)
Si18? Si 1.02216(14) -0.15293(14) 0.31641(5)
C342? C 0.8641(3) -0.0632(3) 0.45004(16)
N89? N 0.8182(2) -0.0657(3) 0.43237(12)
O67? O 0.8508(2) -0.0600(3) 0.47386(10)
C343? C 0.9213(3) -0.0673(3) 0.41589(16)
N90? N 0.9178(2) -0.0627(3) 0.44170(11)
O68? O 1.0648(2) -0.0674(2) 0.38893(11)
C344? C 0.8778(4) -0.0692(4) 0.39771(15)
N91? N 0.7784(3) -0.0678(3) 0.39277(12)
O69? O 1.0850(2) -0.0830(2) 0.44576(10)
C345? C 0.8228(3) -0.0684(3) 0.40587(14)
N92? N 0.8973(3) -0.0711(3) 0.37256(12)
O70? O 1.1312(3) -0.1496(3) 0.42530(13)
C346? C 0.9525(3) -0.0707(4) 0.37489(11)
N93? N 0.9697(3) -0.0694(3) 0.40118(12)
O71? O 1.0494(3) -0.1270(3) 0.34314(12)
C347? C 1.0280(3) -0.0629(3) 0.41034(14)
C348? C 1.0458(3) -0.1070(3) 0.42826(15)
C349? C 1.0798(4) -0.1472(4) 0.41304(16)
C350? C 1.1277(4) -0.1218(4) 0.44935(18)
C351? C 1.1814(4) -0.0901(4) 0.4549(2)
C352? C 1.1124(5) -0.1606(4) 0.4708(2)
C353? C 1.0832(4) -0.1221(4) 0.38555(17)
C354? C 1.0494(4) -0.1569(4) 0.36650(16)
C355? C 0.9531(7) -0.1923(7) 0.3253(3)
C356? C 1.0737(6) -0.2027(6) 0.3030(3)
C357? C 1.0100(5) -0.0941(5) 0.2938(2)
C358? C 0.9848(9) -0.1153(8) 0.2687(4)
C359? C 1.0646(6) -0.0657(6) 0.2884(3)
C360? C 0.9713(6) -0.0531(6) 0.3065(3)
N94? N 0.6189(2) -0.0731(3) 0.45173(12)
C361? C 0.6681(3) -0.0700(4) 0.43750(14)
O72? O 0.7133(2) -0.0698(3) 0.45054(10)
N95? N 0.6689(3) -0.0718(3) 0.41250(13)
O73? O 0.6158(3) -0.0507(3) 0.33119(16)
C362? C 0.6164(4) -0.0728(4) 0.40212(14)
C363? C 0.5650(4) -0.0754(4) 0.41498(17)
N96? N 0.5217(3) -0.0727(3) 0.45586(14)
O74? O 0.7365(4) -0.0857(4) 0.34379(17)
N97? N 0.5213(3) -0.0722(4) 0.39748(14)
C364? C 0.5664(3) -0.0729(3) 0.44066(14)
O75? O 0.7131(5) -0.1232(5) 0.3067(2)
N98? N 0.6036(3) -0.0733(4) 0.37624(12)
C365? C 0.5472(4) -0.0687(5) 0.3738(3)
C366? C 0.6448(4) -0.0638(4) 0.35514(19)
C367? C 0.6818(4) -0.1083(4) 0.3500(2)
C368? C 0.6647(6) -0.1355(6) 0.3229(3)
C369? C 0.7595(6) -0.1235(5) 0.3242(3)
C370? C 0.7776(12) -0.1742(12) 0.3325(5)
C371? C 0.7935(8) -0.0903(8) 0.3081(4)
C372? C 0.6222(6) -0.0962(6) 0.3129(3)
C373? C 0.5586(11) -0.1170(11) 0.3096(5)
Si19? Si 0.5401(4) -0.1629(4) 0.26419(18)
O76? O 0.5707(6) -0.1644(6) 0.2922(3)
C374? C 0.5023(13) -0.2174(12) 0.2620(6)
C375? C 0.4918(19) -0.0922(17) 0.2658(9)
C376? C 0.5945(14) -0.1709(12) 0.2440(6)
C377? C 0.581(2) -0.158(2) 0.2143(5)
C378? C 0.6264(16) -0.2280(11) 0.2438(10)
C379? C 0.6364(14) -0.1284(12) 0.2353(8)
C380? C 0.5864(3) 0.0597(3) 0.53456(18)
N99? N 0.5629(2) 0.0587(3) 0.50944(11)
O77? O 0.6389(2) 0.0605(3) 0.53460(10)
C381? C 0.4965(3) 0.0642(4) 0.54829(14)
N100? N 0.5547(2) 0.0625(3) 0.55489(12)
O78? O 0.4038(3) 0.0601(3) 0.60386(12)
C382? C 0.4740(3) 0.0608(3) 0.52584(14)
N101? N 0.4905(3) 0.0584(3) 0.48062(12)
O79? O 0.5277(3) 0.0793(3) 0.62684(13)
C383? C 0.5084(3) 0.0594(3) 0.50385(17)
N102? N 0.4143(3) 0.0614(3) 0.52674(12)
O80? O 0.4609(3) 0.1216(3) 0.64991(13)
C384? C 0.4073(3) 0.0609(5) 0.55177(17)
N103? N 0.4547(3) 0.0636(3) 0.56715(13)
O81? O 0.3926(2) 0.1728(2) 0.57946(11)
C385? C 0.4574(4) 0.0582(4) 0.59388(16)
C386? C 0.4930(4) 0.1019(4) 0.60822(17)
C387? C 0.4497(4) 0.1373(4) 0.62457(18)
C388? C 0.5194(4) 0.1102(4) 0.65031(18)
C389? C 0.5312(5) 0.0708(4) 0.6742(2)
C390? C 0.5594(5) 0.1541(5) 0.6513(2)
C391? C 0.3917(4) 0.1116(4) 0.61647(17)
C392? C 0.3569(5) 0.1489(5) 0.5990(2)
C393? C 0.3184(5) 0.1870(5) 0.5384(2)
C394? C 0.3323(5) 0.2740(5) 0.5790(2)
C395? C 0.4344(5) 0.2496(4) 0.5427(2)
C396? C 0.4109(7) 0.2896(6) 0.5216(3)
C397? C 0.4655(5) 0.2020(4) 0.5313(2)
C398? C 0.4743(5) 0.2795(5) 0.5618(2)
C399? C 0.7676(3) 0.0663(4) 0.57534(16)
N104? N 0.7087(2) 0.0653(3) 0.57733(11)
O82? O 0.7894(2) 0.0634(3) 0.55337(11)
C400? C 0.7692(3) 0.0730(3) 0.61772(13)
N105? N 0.8003(3) 0.0698(3) 0.59644(12)
O83? O 0.8507(3) 0.0775(3) 0.67897(13)
N106? N 0.6249(3) 0.0648(4) 0.59799(13)
C401? C 0.7120(3) 0.0734(3) 0.62102(17)
O84? O 0.9391(2) 0.0992(2) 0.63449(11)
C402? C 0.6793(3) 0.0716(4) 0.59896(15)
N107? N 0.6967(3) 0.0751(4) 0.64736(13)
O85? O 0.9524(3) 0.1588(3) 0.66751(13)
C403? C 0.7443(3) 0.0771(4) 0.65883(15)
N108? N 0.7901(3) 0.0777(3) 0.64379(13)
O86? O 0.7818(4) 0.1373(4) 0.71044(17)
C404? C 0.8500(3) 0.0734(3) 0.65126(15)
C405? C 0.8842(4) 0.1205(4) 0.64120(19)
C406? C 0.8931(4) 0.1586(4) 0.66308(19)
C407? C 0.9774(4) 0.1384(4) 0.64520(18)
C408? C 1.0270(7) 0.1046(7) 0.6514(3)
C409? C 0.9860(7) 0.1837(6) 0.6246(3)
C410? C 0.8631(5) 0.1340(4) 0.6850(2)
C411? C 0.8120(5) 0.1623(5) 0.6942(2)
Si20? Si 0.7264(3) 0.1607(3) 0.72830(15)
C412? C 0.7415(10) 0.2307(9) 0.7406(4)
C413? C 0.7713(9) 0.1155(9) 0.7692(4)
C414? C 0.6856(13) 0.1031(13) 0.7385(6)
C415? C 0.6875(10) 0.0526(10) 0.7345(4)
C416? C 0.6460(10) 0.1321(10) 0.7631(5)
C417? C 0.6474(14) 0.1451(14) 0.7126(6)
C418? C 0.9116(3) 0.0699(3) 0.51402(13)
N109? N 0.8982(2) 0.0681(3) 0.54008(13)
O87? O 0.87101(19) 0.0694(3) 0.49941(11)
C419? C 1.0021(3) 0.0748(3) 0.52569(15)
N110? N 0.9649(2) 0.0734(3) 0.50602(13)
O88? O 1.1516(2) 0.0817(2) 0.50809(11)
C420? C 0.9921(3) 0.0744(3) 0.55271(15)
N111? N 0.9178(3) 0.0671(3) 0.58315(12)
O89? O 1.0788(3) 0.0885(3) 0.45499(13)
C421? C 0.9362(3) 0.0709(3) 0.56025(15)
N112? N 1.0406(3) 0.0752(3) 0.56530(12)
O90? O 1.1569(4) 0.1397(4) 0.45352(17)
C422? C 1.0783(4) 0.0770(4) 0.54994(15)
N113? N 1.0595(2) 0.0783(3) 0.52361(12)
O91? O 1.1101(3) 0.1863(2) 0.52772(11)
C423? C 1.0953(3) 0.0739(3) 0.50117(16)
C424? C 1.0822(4) 0.1145(4) 0.47906(17)
C425? C 1.1334(4) 0.1505(4) 0.47706(18)
C426? C 1.1246(4) 0.1028(4) 0.43786(17)
C427? C 1.1607(7) 0.0559(7) 0.4366(3)
C428? C 1.1022(6) 0.1347(6) 0.4166(3)
C429? C 1.1701(4) 0.1348(3) 0.50000(17)
C430? C 1.1663(4) 0.1779(4) 0.52249(18)
C431? C 1.0902(6) 0.3010(5) 0.5213(2)
C432? C 1.0118(4) 0.2238(4) 0.5475(2)
C433? C 1.1217(4) 0.2536(4) 0.57424(17)
C434? C 1.1323(4) 0.1996(4) 0.5880(2)
C435? C 1.0796(5) 0.2857(5) 0.5913(2)
C436? C 1.1769(5) 0.2809(5) 0.5710(2)
C437? C 0.8214(3) 0.0685(4) 0.43358(15)
N114? N 0.8725(3) 0.0682(3) 0.44666(14)
O92? O 0.7782(2) 0.0663(3) 0.44659(11)
C438? C 0.8716(3) 0.0656(3) 0.39669(16)
N115? N 0.8216(3) 0.0681(3) 0.40824(14)
O93? O 0.8774(3) 0.0381(3) 0.32777(14)
O94? O 0.7589(3) 0.0973(3) 0.34290(14)
C439? C 0.9230(4) 0.0680(4) 0.40938(18)
N116? N 0.9675(3) 0.0671(3) 0.45128(13)
C440? C 0.9231(3) 0.0678(4) 0.43682(14)
N117? N 0.9680(3) 0.0624(3) 0.39223(13)
O95? O 0.7779(3) 0.0912(3) 0.30132(12)
C441? C 0.9440(4) 0.0612(4) 0.36976(18)
N118? N 0.8863(3) 0.0638(3) 0.37149(12)
O96? O 0.9370(3) 0.1411(3) 0.32689(15)
C442? C 0.8464(3) 0.0556(3) 0.34863(15)
C443? C 0.8159(5) 0.1021(5) 0.3423(2)
C444? C 0.8276(5) 0.1116(5) 0.3127(2)
C445? C 0.7315(3) 0.0982(3) 0.31823(15)
C446? C 0.6881(6) 0.0537(6) 0.3147(3)
C447? C 0.7133(6) 0.1518(6) 0.3131(3)
C448? C 0.8771(4) 0.0758(4) 0.3073(2)
C449? C 0.9275(5) 0.1093(5) 0.3049(2)
C450? C 0.9619(7) 0.2550(6) 0.3116(3)
C451? C 0.9727(6) 0.2073(6) 0.3650(3)
C452? C 1.0505(5) 0.1703(5) 0.3246(2)
C453? C 1.0973(5) 0.2114(5) 0.3353(3)
C454? C 1.0703(6) 0.1128(5) 0.3371(3)
C455? C 1.0674(6) 0.1623(5) 0.2932(2)
C456? C 0.6272(4) 0.0601(3) 0.44692(16)
N119? N 0.6702(3) 0.0593(3) 0.42976(11)
O97? O 0.6385(2) 0.0566(3) 0.47067(9)
C457? C 0.5685(4) 0.0595(4) 0.41269(16)
N120? N 0.5714(3) 0.0597(3) 0.43820(13)
O98? O 0.4248(3) 0.0467(3) 0.38774(15)
C458? C 0.6098(3) 0.0619(4) 0.39512(17)
N121? N 0.7089(3) 0.0646(4) 0.39032(15)
O99? O 0.4042(2) 0.0828(2) 0.44204(11)
C459? C 0.6649(3) 0.0639(4) 0.40421(15)
N122? N 0.5900(3) 0.0598(4) 0.36983(13)
O100? O 0.3643(3) 0.1556(3) 0.42097(14)
C460? C 0.5365(4) 0.0603(6) 0.3733(2)
N123? N 0.5192(3) 0.0607(4) 0.39869(13)
C461? C 0.4626(4) 0.0515(4) 0.40876(17)
C462? C 0.4440(4) 0.1008(4) 0.42474(17)
C463? C 0.4136(4) 0.1398(4) 0.40554(19)
C464? C 0.3648(4) 0.1257(4) 0.44514(17)
C465? C 0.3067(5) 0.1010(5) 0.4475(3)
C466? C 0.3798(5) 0.1622(5) 0.4671(2)
C467? C 0.3937(6) 0.0955(6) 0.3851(3)
C468? C 0.3929(7) 0.1100(7) 0.3568(3)
C469? C 0.4289(11) 0.2233(11) 0.3144(5)
O101? O 0.4460(4) 0.1296(4) 0.34982(18)
C470? C 0.5389(11) 0.1850(12) 0.3305(5)
C471? C 0.4807(7) 0.1196(7) 0.2957(3)
C472? C 0.5242(8) 0.0713(7) 0.3019(4)
C473? C 0.5121(10) 0.1487(10) 0.2738(5)
C474? C 0.4253(7) 0.0932(7) 0.2845(3)
N124? N 0.7460(5) -0.1470(4) 0.5042(3)
C475? C 0.7459(4) -0.2009(5) 0.51493(17)
C476? C 0.7476(5) -0.2443(5) 0.5213(2)
O102? O 0.7486(10) 0.1577(10) 0.0060(4)
N125? N 0.8568(6) 0.1276(6) 0.8330(3)
C477? C 0.8715(6) 0.1583(6) 0.8216(3)
C478? C 0.8863(7) 0.2045(7) 0.8042(3)
N126? N 1.1561(16) 0.1755(17) 0.6779(7)
C479? C 1.1844(8) 0.1384(8) 0.6855(4)
C480? C 1.2355(6) 0.1053(6) 0.6915(3)
N127? N 0.9949(8) 0.2282(8) 0.7623(3)
C481? C 1.0098(8) 0.1955(8) 0.7461(4)
C482? C 1.0231(8) 0.1611(8) 0.7274(3)
N128? N 1.0849(5) 0.1429(5) 0.9038(2)
C483? C 1.1104(5) 0.1493(5) 0.9232(2)
C484? C 1.1330(7) 0.1598(7) 0.9464(3)
N129? N 0.6076(8) -0.2243(8) -0.3891(4)
C485? C 0.6334(10) -0.2137(9) -0.4021(4)
C486? C 0.6418(6) -0.1972(6) -0.4301(3)
N130? N 0.7278(9) 0.3201(9) 0.8086(4)
C487? C 0.7629(10) 0.2955(9) 0.8314(4)
C488? C 0.7788(12) 0.2681(12) 0.8505(5)
N131? N 0.8236(7) 0.3982(6) 0.8882(3)
C489? C 0.7812(11) 0.4277(11) 0.9070(5)
C490? C 0.7457(16) 0.4278(15) 0.9397(7)
N132? N 0.9487(13) 0.0549(13) 0.7341(6)
C491? C 0.9043(10) 0.0279(9) 0.7353(4)
C492? C 0.8611(9) -0.0094(8) 0.7326(4)
N133? N 0.6538(8) 0.1962(8) 0.8283(4)
C493? C 0.6886(9) 0.1726(8) 0.8409(4)
C494? C 0.7372(13) 0.1557(13) 0.8560(6)
N134? N 0.7348(14) 0.4337(13) 0.8694(6)
C495? C 0.6987(15) 0.3952(15) 0.8642(7)
C496? C 0.6741(12) 0.3575(12) 0.8713(5)
N135? N 0.7433(9) 0.2795(8) 0.9220(4)
C497? C 0.7094(11) 0.2944(11) 0.9054(5)
C498? C 0.6635(8) 0.3169(8) 0.8891(4)
N136? N 0.7786(7) 0.3338(7) 0.9743(3)
C499? C 0.7455(12) 0.3713(11) 0.9614(5)
C500? C 0.7363(11) 0.4150(11) 0.9538(5)
N137? N 1.2677(7) -0.2488(7) -0.2644(3)
C501? C 1.2104(8) -0.2628(8) -0.2676(4)
C502? C 1.1562(7) -0.2741(8) -0.2701(3)
N138? N 0.7494(12) -0.4150(10) -0.3730(5)
C503? C 0.7596(14) -0.3565(13) -0.3773(6)
C504? C 0.7527(11) -0.2923(10) -0.3853(4)
C505? C 0.7627(8) -0.2389(8) -0.3891(4)
N139? N 0.7629(9) -0.1959(9) -0.4002(4)
N140? N 0.8300(14) -0.3758(14) 0.7738(6)
C506? C 0.7419(10) -0.3746(10) 0.7635(4)
C507? C 0.6840(17) -0.3702(18) 0.7693(8)
Si21? Si 0.4779(8) -0.1649(8) 0.3264(3)
O103? O 0.5212(9) -0.1153(8) 0.3272(4)
C508? C 0.506(4) -0.221(2) 0.3108(17)
C509? C 0.437(3) -0.127(3) 0.2990(14)
C510? C 0.4565(9) -0.1857(9) 0.3636(5)
C511? C 0.4150(13) -0.2303(16) 0.3595(8)
C512? C 0.5147(9) -0.2073(11) 0.3702(5)
C513? C 0.4445(17) -0.1316(13) 0.3761(6)
N141? N 1.2432(14) -0.4451(13) -0.0758(6)
C514? C 1.2527(19) -0.4025(12) -0.1008(8)
C515? C 1.2509(12) -0.3454(9) -0.1126(5)
loop_
_geom_bond_atom_site_label_1
_geom_bond_atom_site_label_2
_geom_bond_site_symmetry_1
_geom_bond_site_symmetry_2
N1 C1 1_555 1_555
C1 C2 1_555 1_555
Cs1 O2 1_555 1_555
Si1 O6 1_555 1_555
Si2 O11 1_555 1_555
Si3 O16 1_555 1_555
Si4 O21 1_555 1_555
Si5 O26 1_555 1_555
Si6 O31 1_555 1_555
Si7 O36 1_555 1_555
Si8 O41 1_555 1_555
Si9 O46 1_555 1_555
Si10 O51 1_555 1_555
C3 N2 1_555 1_555
N2 C6 1_555 1_555
O2 C3 1_555 1_555
C4 N3 1_555 1_555
N3 C3 1_555 1_555
O3 C8 1_555 1_555
C5 C4 1_555 1_555
N4 C6 1_555 1_555
O4 C9 1_555 1_555
C6 C5 1_555 1_555
N5 C5 1_555 1_555
O5 C10 1_555 1_555
C7 N5 1_555 1_555
N6 C4 1_555 1_555
O6 C15 1_555 1_555
C8 N6 1_555 1_555
C9 C8 1_555 1_555
C10 C9 1_555 1_555
C11 O4 1_555 1_555
C12 C11 1_555 1_555
C13 C11 1_555 1_555
C14 O3 1_555 1_555
C15 C14 1_555 1_555
C16 Si1 1_555 1_555
C17 Si1 1_555 1_555
C18 Si1 1_555 1_555
C19 C18 1_555 1_555
C20 C18 1_555 1_555
C21 C18 1_555 1_555
C22 N7 1_555 1_555
N7 C25 1_555 1_555
O7 Cs1 1_555 1_555
C23 N8 1_555 1_555
N8 C22 1_555 1_555
O8 C27 1_555 1_555
C24 C23 1_555 1_555
N9 C25 1_555 1_555
O9 C28 1_555 1_555
C25 C24 1_555 1_555
N10 C24 1_555 1_555
O10 C29 1_555 1_555
O11 C34 1_555 1_555
C26 N10 1_555 1_555
N11 C23 1_555 1_555
C27 N11 1_555 1_555
C28 C27 1_555 1_555
C29 C28 1_555 1_555
C30 O9 1_555 1_555
C31 C30 1_555 1_555
C32 C30 1_555 1_555
C33 O8 1_555 1_555
C34 C33 1_555 1_555
C35 Si2 1_555 1_555
C36 Si2 1_555 1_555
C37 Si2 1_555 1_555
C38 C37 1_555 1_555
C39 C37 1_555 1_555
C40 C37 1_555 1_555
C41 N12 1_555 1_555
N12 C44 1_555 1_555
O12 Cs1 1_555 1_555
C42 N13 1_555 1_555
N13 C41 1_555 1_555
O13 C46 1_555 1_555
C43 C42 1_555 1_555
N14 C44 1_555 1_555
O14 C47 1_555 1_555
C44 C43 1_555 1_555
N15 C43 1_555 1_555
O15 C48 1_555 1_555
C45 N15 1_555 1_555
N16 C42 1_555 1_555
O16 C53 1_555 1_555
C46 N16 1_555 1_555
C47 C46 1_555 1_555
C48 C47 1_555 1_555
C49 O14 1_555 1_555
C50 C49 1_555 1_555
C51 C49 1_555 1_555
C52 O13 1_555 1_555
C53 C52 1_555 1_555
C54 Si3 1_555 1_555
C55 Si3 1_555 1_555
C56 Si3 1_555 1_555
C57 C56 1_555 1_555
C58 C56 1_555 1_555
C59 C56 1_555 1_555
C60 N17 1_555 1_555
N17 C63 1_555 1_555
O17 Cs1 1_555 1_555
C61 N18 1_555 1_555
N18 C60 1_555 1_555
O18 C65 1_555 1_555
C62 C61 1_555 1_555
N19 C63 1_555 1_555
O19 C66 1_555 1_555
C63 C62 1_555 1_555
N20 C62 1_555 1_555
O20 C67 1_555 1_555
C64 N20 1_555 1_555
N21 C61 1_555 1_555
O21 C72 1_555 1_555
C65 N21 1_555 1_555
C66 C65 1_555 1_555
C67 C66 1_555 1_555
C68 O19 1_555 1_555
C69 C68 1_555 1_555
C70 C68 1_555 1_555
C71 O18 1_555 1_555
C72 C71 1_555 1_555
C73 Si4 1_555 1_555
C74 Si4 1_555 1_555
C75 Si4 1_555 1_555
C76 C75 1_555 1_555
C77 C75 1_555 1_555
C78 C75 1_555 1_555
C79 N22 1_555 1_555
N22 C82 1_555 1_555
O22 Cs1 1_555 1_555
C80 N23 1_555 1_555
N23 C79 1_555 1_555
O23 C84 1_555 1_555
C81 C80 1_555 1_555
N24 C82 1_555 1_555
O24 C85 1_555 1_555
C82 C81 1_555 1_555
N25 C81 1_555 1_555
O25 C86 1_555 1_555
C83 N25 1_555 1_555
N26 C80 1_555 1_555
O26 C91 1_555 1_555
C84 N26 1_555 1_555
C85 C84 1_555 1_555
C86 C85 1_555 1_555
C87 O24 1_555 1_555
C88 C87 1_555 1_555
C89 C87 1_555 1_555
C90 O23 1_555 1_555
C91 C90 1_555 1_555
C92 Si5 1_555 1_555
C93 Si5 1_555 1_555
C94 Si5 1_555 1_555
C95 C94 1_555 1_555
C96 C94 1_555 1_555
C97 C94 1_555 1_555
C98 N27 1_555 1_555
N27 C101 1_555 1_555
O27 Cs1 1_555 1_555
C99 N28 1_555 1_555
N28 C98 1_555 1_555
O28 C103 1_555 1_555
C100 C99 1_555 1_555
N29 C101 1_555 1_555
O29 C104 1_555 1_555
C101 C100 1_555 1_555
N30 C100 1_555 1_555
O30 C105 1_555 1_555
C102 N30 1_555 1_555
N31 C99 1_555 1_555
O31 C110 1_555 1_555
C103 N31 1_555 1_555
C104 C103 1_555 1_555
C105 C104 1_555 1_555
C106 O29 1_555 1_555
C107 C106 1_555 1_555
C108 C106 1_555 1_555
C109 O28 1_555 1_555
C110 C109 1_555 1_555
C111 Si6 1_555 1_555
C112 Si6 1_555 1_555
C113 Si6 1_555 1_555
C114 C113 1_555 1_555
C115 C113 1_555 1_555
C116 C113 1_555 1_555
C117 N32 1_555 1_555
N32 C120 1_555 1_555
O32 Cs1 1_555 1_555
C118 N33 1_555 1_555
N33 C117 1_555 1_555
O33 C122 1_555 1_555
C119 C118 1_555 1_555
N34 C120 1_555 1_555
O34 C123 1_555 1_555
C120 C119 1_555 1_555
N35 C119 1_555 1_555
O35 C124 1_555 1_555
C121 N35 1_555 1_555
N36 C118 1_555 1_555
O36 C129 1_555 1_555
C122 N36 1_555 1_555
C123 C122 1_555 1_555
C124 C123 1_555 1_555
C125 O34 1_555 1_555
C126 C125 1_555 1_555
C127 C125 1_555 1_555
C128 O33 1_555 1_555
C129 C128 1_555 1_555
C130 Si7 1_555 1_555
C131 Si7 1_555 1_555
C132 Si7 1_555 1_555
C133 C132 1_555 1_555
C134 C132 1_555 1_555
C135 C132 1_555 1_555
C136 N37 1_555 1_555
N37 C139 1_555 1_555
O37 Cs1 1_555 1_555
C137 N38 1_555 1_555
N38 C136 1_555 1_555
O38 C141 1_555 1_555
C138 C137 1_555 1_555
N39 C139 1_555 1_555
O39 C142 1_555 1_555
C139 C138 1_555 1_555
N40 C138 1_555 1_555
O40 C143 1_555 1_555
C140 N40 1_555 1_555
N41 C137 1_555 1_555
O41 C148 1_555 1_555
C141 N41 1_555 1_555
C142 C141 1_555 1_555
C143 C142 1_555 1_555
C144 O39 1_555 1_555
C145 C144 1_555 1_555
C146 C144 1_555 1_555
C147 O38 1_555 1_555
C148 C147 1_555 1_555
C149 Si8 1_555 1_555
C150 Si8 1_555 1_555
C151 Si8 1_555 1_555
C152 C151 1_555 1_555
C153 C151 1_555 1_555
C154 C151 1_555 1_555
C155 N42 1_555 1_555
N42 C158 1_555 1_555
O42 Cs1 1_555 1_555
C156 N43 1_555 1_555
N43 C155 1_555 1_555
O43 C160 1_555 1_555
C157 C156 1_555 1_555
N44 C158 1_555 1_555
O44 C161 1_555 1_555
C158 C157 1_555 1_555
N45 C157 1_555 1_555
O45 C162 1_555 1_555
C159 N45 1_555 1_555
N46 C156 1_555 1_555
O46 C167 1_555 1_555
C160 N46 1_555 1_555
C161 C160 1_555 1_555
C162 C161 1_555 1_555
C163 O44 1_555 1_555
C164 C163 1_555 1_555
C165 C163 1_555 1_555
C166 O43 1_555 1_555
C167 C166 1_555 1_555
C168 Si9 1_555 1_555
C169 Si9 1_555 1_555
C170 Si9 1_555 1_555
C171 C170 1_555 1_555
C172 C170 1_555 1_555
C173 C170 1_555 1_555
C174 N47 1_555 1_555
N47 C177 1_555 1_555
O47 Cs1 1_555 1_555
C175 N48 1_555 1_555
N48 C174 1_555 1_555
O48 C179 1_555 1_555
C176 C175 1_555 1_555
N49 C177 1_555 1_555
O49 C180 1_555 1_555
C177 C176 1_555 1_555
N50 C176 1_555 1_555
O50 C181 1_555 1_555
O51 C186 1_555 1_555
C178 N50 1_555 1_555
N51 C175 1_555 1_555
C179 N51 1_555 1_555
C180 C179 1_555 1_555
C181 C180 1_555 1_555
C182 O49 1_555 1_555
C183 C182 1_555 1_555
C184 C182 1_555 1_555
C185 O48 1_555 1_555
C186 C185 1_555 1_555
C187 Si10 1_555 1_555
C188 Si10 1_555 1_555
C189 Si10 1_555 1_555
C190 C189 1_555 1_555
C191 C189 1_555 1_555
C192 C189 1_555 1_555
N52 Cs1 1_555 1_555
C193 N52 1_555 1_555
C194 C193 1_555 1_555
N53 Cs1 1_555 1_555
C195 N53 1_555 1_555
C196 C195 1_555 1_555
B1 C197 1_555 1_555
C197 C198 1_555 1_555
C198 C199 1_555 1_555
C199 C200 1_555 1_555
C200 C201 1_555 1_555
C201 C202 1_555 1_555
C202 C197 1_555 1_555
C203 B1 1_555 1_555
C204 C203 1_555 1_555
C205 C204 1_555 1_555
C206 C205 1_555 1_555
C207 C206 1_555 1_555
C208 C203 1_555 1_555
C209 B1 1_555 1_555
C210 C209 1_555 1_555
C211 C210 1_555 1_555
C212 C211 1_555 1_555
C213 C212 1_555 1_555
C214 C209 1_555 1_555
C215 B1 1_555 1_555
C216 C215 1_555 1_555
C217 C216 1_555 1_555
C218 C217 1_555 1_555
C219 C218 1_555 1_555
C220 C215 1_555 1_555
B2 C221 1_555 1_555
C221 C222 1_555 1_555
C222 C223 1_555 1_555
C223 C224 1_555 1_555
C224 C225 1_555 1_555
C225 C226 1_555 1_555
C226 C221 1_555 1_555
C227 B2 1_555 1_555
C228 C227 1_555 1_555
C229 C228 1_555 1_555
C230 C229 1_555 1_555
C231 C230 1_555 1_555
C232 C227 1_555 1_555
C233 B2 1_555 1_555
C234 C233 1_555 1_555
C235 C234 1_555 1_555
C236 C235 1_555 1_555
C237 C236 1_555 1_555
C238 C233 1_555 1_555
C239 B2 1_555 1_555
C240 C239 1_555 1_555
C241 C240 1_555 1_555
C242 C241 1_555 1_555
C243 C242 1_555 1_555
C244 C239 1_555 1_555
N54 C245 1_555 1_555
C245 C246 1_555 1_555
N55 C247 1_555 1_555
C247 C248 1_555 1_555
N56 C249 1_555 1_555
C249 C250 1_555 1_555
N57 C251 1_555 1_555
C251 C252 1_555 1_555
N58 C253 1_555 1_555
C253 C254 1_555 1_555
N59 C255 1_555 1_555
C255 C256 1_555 1_555
N60 C257 1_555 1_555
C257 C258 1_555 1_555
N61 C259 1_555 1_555
C259 C260 1_555 1_555
N62 C261 1_555 1_555
C261 C262 1_555 1_555
N63 C263 1_555 1_555
C263 C264 1_555 1_555
N64 C265 1_555 1_555
C265 C266 1_555 1_555
N65 C267 1_555 1_555
C267 C268 1_555 1_555
N66 C269 1_555 1_555
C269 C270 1_555 1_555
N67 C271 1_555 1_555
C271 C272 1_555 1_555
N68 C273 1_555 1_555
C273 C274 1_555 1_555
N69 C275 1_555 1_555
C275 C276 1_555 1_555
N70 C277 1_555 1_555
C277 C278 1_555 1_555
N71 C279 1_555 1_555
C279 C280 1_555 1_555
N72 C281 1_555 1_555
C281 C282 1_555 1_555
N73 C283 1_555 1_555
C283 C284 1_555 1_555
O5 C11 1_555 1_555
C7 N6 1_555 1_555
C10 C14 1_555 1_555
C22 O7 1_555 1_555
O10 C30 1_555 1_555
C26 N11 1_555 1_555
C29 C33 1_555 1_555
C41 O12 1_555 1_555
O15 C49 1_555 1_555
C45 N16 1_555 1_555
C48 C52 1_555 1_555
C60 O17 1_555 1_555
O20 C68 1_555 1_555
C64 N21 1_555 1_555
C67 C71 1_555 1_555
C79 O22 1_555 1_555
O25 C87 1_555 1_555
C83 N26 1_555 1_555
C86 C90 1_555 1_555
C98 O27 1_555 1_555
O30 C106 1_555 1_555
C102 N31 1_555 1_555
C105 C109 1_555 1_555
C117 O32 1_555 1_555
O35 C125 1_555 1_555
C121 N36 1_555 1_555
C124 C128 1_555 1_555
C136 O37 1_555 1_555
O40 C144 1_555 1_555
C140 N41 1_555 1_555
C143 C147 1_555 1_555
C155 O42 1_555 1_555
O45 C163 1_555 1_555
C159 N46 1_555 1_555
C162 C166 1_555 1_555
C174 O47 1_555 1_555
O50 C182 1_555 1_555
C178 N51 1_555 1_555
C181 C185 1_555 1_555
C207 C208 1_555 1_555
C213 C214 1_555 1_555
C219 C220 1_555 1_555
C231 C232 1_555 1_555
C237 C238 1_555 1_555
C243 C244 1_555 1_555

#END
