
#######################################################################
#
#                 Cambridge Crystallographic Data Centre
#                                CCDC 
#
#######################################################################
#
# If this CIF has been generated from an entry in the Cambridge 
# Structural Database, then it will include bibliographic, chemical, 
# crystal, experimental, refinement or atomic coordinate data resulting 
# from the CCDC's data processing and validation procedures.
#
#######################################################################

data_LOJGUN
_chemical_formula_moiety         'C17 H18 N2 O2'
_chemical_name_systematic        "bis(acetophenone oxime) O,O'-methylene ether"
_symmetry_cell_setting           monoclinic
_symmetry_space_group_name_H-M   'P 21/n'
_symmetry_Int_Tables_number      14
_space_group_name_Hall           '-P 2yn'
loop_
_symmetry_equiv_pos_site_id
_symmetry_equiv_pos_as_xyz
1 x,y,z
2 1/2-x,1/2+y,1/2-z
3 -x,-y,-z
4 1/2+x,1/2-y,1/2+z
_cell_length_a                   9.875(2)
_cell_length_b                   8.8409(18)
_cell_length_c                   17.290(4)
_cell_angle_alpha                90
_cell_angle_beta                 101.13(3)
_cell_angle_gamma                90
_cell_volume                     1481.09
_exptl_crystal_colour            colorless
_exptl_crystal_description       prism
_cell_formula_units_Z            4
_exptl_crystal_recrystallization_method water
loop_
_atom_site_label
_atom_site_type_symbol
_atom_site_fract_x
_atom_site_fract_y
_atom_site_fract_z
O1 O 0.36208(10) 0.65077(13) 0.02442(6)
O2 O 0.14145(11) 0.61984(13) 0.05282(6)
N1 N 0.39081(13) 0.79925(17) 0.05526(7)
N2 N 0.15155(13) 0.46386(16) 0.07470(8)
C1 C 0.55638(16) 0.9740(2) 0.11238(8)
C2 C 0.45724(17) 1.0888(2) 0.10304(9)
H1 H 0.3675 1.0676 0.0774
C3 C 0.48996(17) 1.2324(2) 0.13110(9)
H2 H 0.4223 1.3070 0.1246
C4 C 0.62333(18) 1.2665(2) 0.16904(9)
H3 H 0.6457 1.3636 0.1879
C5 C 0.72255(18) 1.1545(2) 0.17853(10)
H4 H 0.8121 1.1765 0.2041
C6 C 0.69013(17) 1.0102(2) 0.15045(9)
H5 H 0.7583 0.9362 0.1570
C7 C 0.52021(16) 0.8199(2) 0.08160(9)
C8 C 0.62975(17) 0.7028(2) 0.08213(10)
H6 H 0.5891 0.6128 0.0565
H7 H 0.6721 0.6797 0.1356
H8 H 0.6983 0.7408 0.0546
C9 C 0.21947(16) 0.6427(2) -0.00642(9)
H9 H 0.2020 0.5603 -0.0441
H10 H 0.1899 0.7358 -0.0343
C10 C 0.09103(15) 0.4381(2) 0.13271(9)
C11 C 0.02188(17) 0.5564(2) 0.17390(10)
H11 H 0.0883 0.6006 0.2157
H12 H -0.0509 0.5107 0.1954
H13 H -0.0159 0.6337 0.1369
C12 C 0.09387(15) 0.2791(2) 0.15882(9)
C13 C 0.09137(16) 0.1598(2) 0.10568(9)
H14 H 0.0876 0.1804 0.0526
C14 C 0.09444(16) 0.0116(2) 0.13108(10)
H15 H 0.0931 -0.0670 0.0952
C15 C 0.09958(16) -0.0200(2) 0.20996(10)
H16 H 0.1010 -0.1199 0.2269
C16 C 0.10255(16) 0.0964(2) 0.26369(10)
H17 H 0.1065 0.0751 0.3167
C17 C 0.09954(15) 0.2444(2) 0.23818(9)
H18 H 0.1013 0.3224 0.2744
loop_
_geom_bond_atom_site_label_1
_geom_bond_atom_site_label_2
_geom_bond_site_symmetry_1
_geom_bond_site_symmetry_2
O1 N1 1_555 1_555
O2 N2 1_555 1_555
N1 C7 1_555 1_555
N2 C10 1_555 1_555
C1 C2 1_555 1_555
C2 H1 1_555 1_555
C3 C2 1_555 1_555
H2 C3 1_555 1_555
C4 C3 1_555 1_555
H3 C4 1_555 1_555
C5 C4 1_555 1_555
H4 C5 1_555 1_555
C6 C1 1_555 1_555
H5 C6 1_555 1_555
C7 C1 1_555 1_555
C8 C7 1_555 1_555
H6 C8 1_555 1_555
H7 C8 1_555 1_555
H8 C8 1_555 1_555
C9 O1 1_555 1_555
H9 C9 1_555 1_555
H10 C9 1_555 1_555
C10 C11 1_555 1_555
C11 H11 1_555 1_555
H12 C11 1_555 1_555
H13 C11 1_555 1_555
C12 C10 1_555 1_555
C13 C12 1_555 1_555
H14 C13 1_555 1_555
C14 C13 1_555 1_555
H15 C14 1_555 1_555
C15 C14 1_555 1_555
H16 C15 1_555 1_555
C16 C15 1_555 1_555
H17 C16 1_555 1_555
C17 C12 1_555 1_555
H18 C17 1_555 1_555
O2 C9 1_555 1_555
C5 C6 1_555 1_555
C16 C17 1_555 1_555

#END
