
#######################################################################
#
#                 Cambridge Crystallographic Data Centre
#                                CCDC 
#
#######################################################################
#
# If this CIF has been generated from an entry in the Cambridge 
# Structural Database, then it will include bibliographic, chemical, 
# crystal, experimental, refinement or atomic coordinate data resulting 
# from the CCDC's data processing and validation procedures.
#
#######################################################################

data_LOJGOH
_chemical_formula_moiety         'C9 H8 N4 O3 S1'
_chemical_name_systematic        
'(1-(4-Hydroxyphenyl)-1H-tetrazol-5-ylsulfanyl)acetic acid'
_symmetry_cell_setting           orthorhombic
_symmetry_space_group_name_H-M   'P b c a'
_symmetry_Int_Tables_number      61
_space_group_name_Hall           '-P 2ac 2ab'
loop_
_symmetry_equiv_pos_site_id
_symmetry_equiv_pos_as_xyz
1 x,y,z
2 1/2-x,-y,1/2+z
3 -x,1/2+y,1/2-z
4 1/2+x,1/2-y,-z
5 -x,-y,-z
6 1/2+x,y,1/2-z
7 x,1/2-y,1/2+z
8 1/2-x,1/2+y,z
_cell_length_a                   14.407(3)
_cell_length_b                   7.3365(16)
_cell_length_c                   21.107(5)
_cell_angle_alpha                90
_cell_angle_beta                 90
_cell_angle_gamma                90
_cell_volume                     2230.95
_exptl_crystal_colour            colorless
_exptl_crystal_description       block
_cell_formula_units_Z            8
_exptl_crystal_recrystallization_method ethanol
loop_
_atom_site_label
_atom_site_type_symbol
_atom_site_fract_x
_atom_site_fract_y
_atom_site_fract_z
S1 S 0.51454(4) 0.15070(9) 0.09961(3)
O1 O 0.15861(13) 0.3256(3) 0.28120(9)
H1 H 0.177(2) 0.270(4) 0.3133(11)
O2 O 0.75012(12) 0.0102(3) 0.01914(8)
H2 H 0.8048(13) 0.010(4) 0.0322(13)
O3 O 0.72494(12) 0.1471(3) 0.11139(8)
N1 N 0.45507(13) 0.4915(3) 0.12461(10)
N2 N 0.47350(16) 0.6679(3) 0.10961(12)
N3 N 0.54403(16) 0.6653(3) 0.07237(12)
N4 N 0.57366(13) 0.4912(3) 0.06208(10)
C1 C 0.23393(16) 0.3617(3) 0.24421(11)
C2 C 0.21686(16) 0.4284(3) 0.18436(12)
H3 H 0.1561 0.4457 0.1708
C3 C 0.28941(16) 0.4695(3) 0.14462(12)
H4 H 0.2783 0.5152 0.1042
C4 C 0.37920(15) 0.4418(3) 0.16560(11)
C5 C 0.39734(17) 0.3749(4) 0.22511(12)
H5 H 0.4582 0.3576 0.2386
C6 C 0.32408(17) 0.3336(4) 0.26463(12)
H6 H 0.3352 0.2870 0.3049
C7 C 0.51693(14) 0.3855(3) 0.09473(11)
C8 C 0.59818(15) 0.0925(3) 0.03998(12)
H7 H 0.5826 -0.0265 0.0231
H8 H 0.5931 0.1797 0.0056
C9 C 0.69718(16) 0.0887(3) 0.06206(11)
loop_
_geom_bond_atom_site_label_1
_geom_bond_atom_site_label_2
_geom_bond_site_symmetry_1
_geom_bond_site_symmetry_2
S1 C7 1_555 1_555
O1 H1 1_555 1_555
O2 H2 1_555 1_555
O3 C9 1_555 1_555
N1 N2 1_555 1_555
N2 N3 1_555 1_555
N3 N4 1_555 1_555
N4 C7 1_555 1_555
C1 O1 1_555 1_555
C2 C1 1_555 1_555
H3 C2 1_555 1_555
C3 C2 1_555 1_555
H4 C3 1_555 1_555
C4 N1 1_555 1_555
C5 C4 1_555 1_555
H5 C5 1_555 1_555
C6 C1 1_555 1_555
H6 C6 1_555 1_555
C7 N1 1_555 1_555
C8 S1 1_555 1_555
H7 C8 1_555 1_555
H8 C8 1_555 1_555
C9 O2 1_555 1_555
C3 C4 1_555 1_555
C5 C6 1_555 1_555
C8 C9 1_555 1_555

#END
