
#######################################################################
#
#                 Cambridge Crystallographic Data Centre
#                                CCDC 
#
#######################################################################
#
# If this CIF has been generated from an entry in the Cambridge 
# Structural Database, then it will include bibliographic, chemical, 
# crystal, experimental, refinement or atomic coordinate data resulting 
# from the CCDC's data processing and validation procedures.
#
#######################################################################

data_LOJHUO
_chemical_formula_moiety         'C19 H21 N1 O1 S1'
_chemical_name_systematic        n-10-Hexyl-10H-phenothiazine-3-carbaldehyde
_symmetry_cell_setting           triclinic
_symmetry_space_group_name_H-M   'P -1'
_symmetry_Int_Tables_number      2
_space_group_name_Hall           '-P 1'
loop_
_symmetry_equiv_pos_site_id
_symmetry_equiv_pos_as_xyz
1 x,y,z
2 -x,-y,-z
_cell_length_a                   8.4073(9)
_cell_length_b                   13.7719(15)
_cell_length_c                   14.6485(15)
_cell_angle_alpha                93.957(2)
_cell_angle_beta                 98.781(2)
_cell_angle_gamma                90.983(2)
_cell_volume                     1671.53
_exptl_crystal_colour            yellow
_exptl_crystal_description       block
_cell_formula_units_Z            4
_exptl_crystal_recrystallization_method chloroform
loop_
_atom_site_label
_atom_site_type_symbol
_atom_site_fract_x
_atom_site_fract_y
_atom_site_fract_z
C1 C 0.8046(4) -0.0018(3) 1.0692(3)
C2 C 0.7545(5) -0.0942(3) 1.0280(3)
H1 H 0.7849 -0.1490 1.0594
C3 C 0.6625(5) -0.1058(3) 0.9428(3)
H2 H 0.6285 -0.1681 0.9183
C4 C 0.6185(5) -0.0276(3) 0.8922(3)
C5 C 0.6693(5) 0.0642(3) 0.9305(3)
H3 H 0.6431 0.1179 0.8965
C6 C 0.7571(5) 0.0781(3) 1.0172(3)
C7 C 0.5184(5) -0.0421(3) 0.8011(3)
H4 H 0.4809 -0.1052 0.7820
C8 C 0.9599(5) 0.1833(3) 1.1502(3)
C9 C 1.0577(5) 0.2649(3) 1.1820(3)
H5 H 1.0396 0.3227 1.1532
C10 C 1.1795(6) 0.2617(3) 1.2545(3)
H6 H 1.2427 0.3170 1.2764
C11 C 1.2069(5) 0.1751(4) 1.2945(3)
H7 H 1.2896 0.1721 1.3442
C12 C 1.1154(5) 0.0931(3) 1.2629(3)
H8 H 1.1386 0.0352 1.2907
C13 C 0.9881(5) 0.0945(3) 1.1901(3)
C14 C 0.8990(5) -0.0712(3) 1.2169(3)
H9 H 0.7963 -0.1065 1.2038
H10 H 0.9123 -0.0455 1.2810
C15 C 1.0314(5) -0.1438(3) 1.2071(3)
H11 H 1.0262 -0.1668 1.1426
H12 H 1.1359 -0.1123 1.2279
C16 C 1.0099(5) -0.2288(3) 1.2645(3)
H13 H 1.0017 -0.2033 1.3270
H14 H 0.9084 -0.2621 1.2394
C17 C 1.1389(5) -0.3018(3) 1.2700(4)
H15 H 1.2404 -0.2697 1.2971
H16 H 1.1493 -0.3269 1.2077
C18 C 1.1080(7) -0.3864(4) 1.3264(5)
H17 H 1.0881 -0.3594 1.3864
H18 H 1.0090 -0.4194 1.2963
C19 C 1.2236(9) -0.4567(5) 1.3419(6)
H19 H 1.2557 -0.4793 1.2842
H20 H 1.1795 -0.5104 1.3693
H21 H 1.3155 -0.4291 1.3831
N1 N 0.8901(4) 0.0114(2) 1.1586(2)
O1 O 0.4801(4) 0.0199(2) 0.7486(2)
S1 S 0.79048(15) 0.19795(7) 1.06651(8)
C20 C 0.7245(5) 0.5290(3) 0.9780(3)
C21 C 0.6665(5) 0.4380(3) 0.9407(3)
H22 H 0.7115 0.3831 0.9666
C22 C 0.5447(4) 0.4260(3) 0.8668(3)
C23 C 0.4783(4) 0.5078(3) 0.8231(3)
C24 C 0.5365(5) 0.5994(3) 0.8624(3)
H23 H 0.4936 0.6550 0.8368
C25 C 0.6555(5) 0.6090(3) 0.9380(3)
H24 H 0.6906 0.6710 0.9629
C26 C 0.8506(6) 0.5412(3) 1.0586(3)
H25 H 0.8861 0.6044 1.0792
C27 C 0.3997(4) 0.3210(3) 0.7143(3)
C28 C 0.3913(5) 0.2390(3) 0.6537(3)
H26 H 0.4292 0.1805 0.6754
C29 C 0.3283(6) 0.2428(4) 0.5627(3)
H27 H 0.3215 0.1872 0.5225
C30 C 0.2749(6) 0.3302(4) 0.5313(3)
H28 H 0.2294 0.3329 0.4695
C31 C 0.2877(5) 0.4140(3) 0.5896(3)
H29 H 0.2549 0.4728 0.5664
C32 C 0.3497(4) 0.4110(3) 0.6834(3)
C33 C 0.2671(5) 0.5804(3) 0.7159(3)
H30 H 0.2457 0.6174 0.7713
H31 H 0.1641 0.5570 0.6817
C34 C 0.3427(5) 0.6498(3) 0.6567(3)
H32 H 0.4403 0.6796 0.6921
H33 H 0.3716 0.6135 0.6028
C35 C 0.2280(5) 0.7279(3) 0.6258(3)
H34 H 0.1947 0.7608 0.6802
H35 H 0.1327 0.6972 0.5886
C36 C 0.2949(5) 0.8034(3) 0.5705(3)
H36 H 0.3906 0.8338 0.6074
H37 H 0.3271 0.7707 0.5157
C37 C 0.1802(7) 0.8810(4) 0.5411(4)
H38 H 0.0859 0.8509 0.5024
H39 H 0.1453 0.9125 0.5957
C38 C 0.2490(8) 0.9569(4) 0.4890(5)
H40 H 0.3414 0.9881 0.5271
H41 H 0.1694 1.0045 0.4730
H42 H 0.2804 0.9269 0.4336
N2 N 0.3601(4) 0.4957(2) 0.7446(2)
O2 O 0.9125(4) 0.4760(2) 1.1007(2)
S2 S 0.45941(13) 0.30926(7) 0.83359(7)
loop_
_geom_bond_atom_site_label_1
_geom_bond_atom_site_label_2
_geom_bond_site_symmetry_1
_geom_bond_site_symmetry_2
C1 C2 1_555 1_555
C2 H1 1_555 1_555
C3 C2 1_555 1_555
H2 C3 1_555 1_555
C4 C3 1_555 1_555
C5 C4 1_555 1_555
H3 C5 1_555 1_555
C6 C1 1_555 1_555
C7 C4 1_555 1_555
H4 C7 1_555 1_555
C8 C9 1_555 1_555
C9 H5 1_555 1_555
C10 C9 1_555 1_555
H6 C10 1_555 1_555
C11 C10 1_555 1_555
H7 C11 1_555 1_555
C12 C11 1_555 1_555
H8 C12 1_555 1_555
C13 C8 1_555 1_555
C14 H9 1_555 1_555
H10 C14 1_555 1_555
C15 C14 1_555 1_555
H11 C15 1_555 1_555
H12 C15 1_555 1_555
C16 C15 1_555 1_555
H13 C16 1_555 1_555
H14 C16 1_555 1_555
C17 C16 1_555 1_555
H15 C17 1_555 1_555
H16 C17 1_555 1_555
C18 C17 1_555 1_555
H17 C18 1_555 1_555
H18 C18 1_555 1_555
C19 C18 1_555 1_555
H19 C19 1_555 1_555
H20 C19 1_555 1_555
H21 C19 1_555 1_555
C20 C21 1_555 1_555
C21 H22 1_555 1_555
C22 C21 1_555 1_555
C23 C22 1_555 1_555
C24 C23 1_555 1_555
H23 C24 1_555 1_555
C25 C20 1_555 1_555
H24 C25 1_555 1_555
C26 C20 1_555 1_555
H25 C26 1_555 1_555
C27 C28 1_555 1_555
C28 H26 1_555 1_555
C29 C28 1_555 1_555
H27 C29 1_555 1_555
C30 C29 1_555 1_555
H28 C30 1_555 1_555
C31 C30 1_555 1_555
H29 C31 1_555 1_555
C32 C27 1_555 1_555
C33 H30 1_555 1_555
H31 C33 1_555 1_555
C34 C33 1_555 1_555
H32 C34 1_555 1_555
H33 C34 1_555 1_555
C35 C34 1_555 1_555
H34 C35 1_555 1_555
H35 C35 1_555 1_555
C36 C35 1_555 1_555
H36 C36 1_555 1_555
H37 C36 1_555 1_555
C37 C36 1_555 1_555
H38 C37 1_555 1_555
H39 C37 1_555 1_555
C38 C37 1_555 1_555
H40 C38 1_555 1_555
H41 C38 1_555 1_555
H42 C38 1_555 1_555
N1 C1 1_555 1_555
N2 C23 1_555 1_555
O1 C7 1_555 1_555
O2 C26 1_555 1_555
S1 C6 1_555 1_555
S2 C22 1_555 1_555
C5 C6 1_555 1_555
C8 S1 1_555 1_555
C12 C13 1_555 1_555
C13 N1 1_555 1_555
C14 N1 1_555 1_555
C24 C25 1_555 1_555
C27 S2 1_555 1_555
C31 C32 1_555 1_555
C32 N2 1_555 1_555
C33 N2 1_555 1_555

#END
