
#######################################################################
#
#                 Cambridge Crystallographic Data Centre
#                                CCDC 
#
#######################################################################
#
# If this CIF has been generated from an entry in the Cambridge 
# Structural Database, then it will include bibliographic, chemical, 
# crystal, experimental, refinement or atomic coordinate data resulting 
# from the CCDC's data processing and validation procedures.
#
#######################################################################

data_LOJHEY
_chemical_formula_moiety         'C21 H16 Cl2 O2 S1'
_chemical_name_systematic        
1,5-bis(4-chlorophenyl)-3-(2-thienyl)pentane-1,5-dione
_symmetry_cell_setting           orthorhombic
_symmetry_space_group_name_H-M   'P n a 21'
_symmetry_Int_Tables_number      33
_space_group_name_Hall           'P 2c -2n'
loop_
_symmetry_equiv_pos_site_id
_symmetry_equiv_pos_as_xyz
1 x,y,z
2 -x,-y,1/2+z
3 1/2+x,1/2-y,z
4 1/2-x,1/2+y,1/2+z
_cell_length_a                   7.148(3)
_cell_length_b                   14.128(6)
_cell_length_c                   19.371(8)
_cell_angle_alpha                90
_cell_angle_beta                 90
_cell_angle_gamma                90
_cell_volume                     1956.22
_exptl_crystal_colour            colorless
_exptl_crystal_description       block
_cell_formula_units_Z            4
_exptl_crystal_recrystallization_method ethanol
loop_
_atom_site_label
_atom_site_type_symbol
_atom_site_fract_x
_atom_site_fract_y
_atom_site_fract_z
Cl1 Cl 0.2204(5) 0.35740(19) 0.37574(14)
Cl2 Cl -0.1208(5) 0.1215(2) 1.10502(16)
O1 O 0.4870(9) 0.2902(4) 0.7007(3)
O2 O 0.5943(10) 0.1389(5) 0.8854(4)
S1 S 0.4882(12) -0.0928(5) 0.7244(4)
C1 C 0.670(3) -0.1622(13) 0.7454(11)
H1 H 0.6698 -0.2277 0.7403
C2 C 0.818(3) -0.1125(15) 0.7705(12)
H2 H 0.9278 -0.1396 0.7869
C3 C 0.782(3) -0.0134(17) 0.7684(14)
H3 H 0.8728 0.0324 0.7770
C7 C 0.5961(12) 0.0071(5) 0.7518(4)
C8 C 0.5207(13) 0.1047(6) 0.7477(4)
H7 H 0.6228 0.1486 0.7585
C9 C 0.4526(13) 0.1269(6) 0.6752(4)
H8 H 0.5338 0.0954 0.6424
H9 H 0.3279 0.1009 0.6696
C10 C 0.4467(13) 0.2307(6) 0.6581(5)
C11 C 0.3898(11) 0.2589(6) 0.5866(4)
C12 C 0.3827(13) 0.3539(6) 0.5708(4)
H10 H 0.4142 0.3983 0.6043
C13 C 0.3292(14) 0.3844(7) 0.5056(5)
H11 H 0.3216 0.4486 0.4957
C14 C 0.2880(14) 0.3186(7) 0.4564(4)
C15 C 0.2986(13) 0.2235(6) 0.4700(5)
H12 H 0.2735 0.1796 0.4354
C16 C 0.3468(12) 0.1938(6) 0.5352(5)
H13 H 0.3506 0.1294 0.5451
C17 C 0.3630(13) 0.1219(6) 0.7999(4)
H14 H 0.2971 0.1793 0.7872
H15 H 0.2748 0.0699 0.7972
C18 C 0.4286(14) 0.1311(6) 0.8727(5)
C19 C 0.2903(16) 0.1309(5) 0.9295(4)
C20 C 0.1016(14) 0.1270(6) 0.9166(5)
H16 H 0.0591 0.1252 0.8713
C21 C -0.0272(14) 0.1257(7) 0.9706(5)
H17 H -0.1550 0.1233 0.9616
C22 C 0.0376(16) 0.1278(6) 1.0372(5)
C23 C 0.2218(17) 0.1315(7) 1.0516(5)
H18 H 0.2633 0.1324 1.0971
C24 C 0.3488(14) 0.1341(7) 0.9974(4)
H19 H 0.4760 0.1379 1.0070
S2? S 0.7978(12) -0.0198(6) 0.7932(5)
C4? C 0.772(3) -0.1384(11) 0.7777(13)
H4? H 0.8553 -0.1848 0.7920
C5? C 0.609(4) -0.1556(14) 0.7408(15)
H5? H 0.5705 -0.2157 0.7273
C6? C 0.510(4) -0.0733(15) 0.7263(16)
H6? H 0.3984 -0.0724 0.7018
loop_
_geom_bond_atom_site_label_1
_geom_bond_atom_site_label_2
_geom_bond_site_symmetry_1
_geom_bond_site_symmetry_2
Cl1 C14 1_555 1_555
Cl2 C22 1_555 1_555
O1 C10 1_555 1_555
O2 C18 1_555 1_555
S1 C1 1_555 1_555
C1 H1 1_555 1_555
C2 C1 1_555 1_555
H2 C2 1_555 1_555
C3 C2 1_555 1_555
H3 C3 1_555 1_555
C7 S1 1_555 1_555
C8 C7 1_555 1_555
H7 C8 1_555 1_555
C9 C8 1_555 1_555
H8 C9 1_555 1_555
H9 C9 1_555 1_555
C10 C9 1_555 1_555
C11 C10 1_555 1_555
C12 C11 1_555 1_555
H10 C12 1_555 1_555
C13 C12 1_555 1_555
H11 C13 1_555 1_555
C14 C13 1_555 1_555
C15 C14 1_555 1_555
H12 C15 1_555 1_555
C16 C11 1_555 1_555
H13 C16 1_555 1_555
C17 C8 1_555 1_555
H14 C17 1_555 1_555
H15 C17 1_555 1_555
C18 C17 1_555 1_555
C19 C18 1_555 1_555
C20 C19 1_555 1_555
H16 C20 1_555 1_555
C21 C20 1_555 1_555
H17 C21 1_555 1_555
C22 C21 1_555 1_555
C23 C22 1_555 1_555
H18 C23 1_555 1_555
C24 C19 1_555 1_555
H19 C24 1_555 1_555
C3 C7 1_555 1_555
C15 C16 1_555 1_555
C23 C24 1_555 1_555

#END
