
#######################################################################
#
#                 Cambridge Crystallographic Data Centre
#                                CCDC 
#
#######################################################################
#
# If this CIF has been generated from an entry in the Cambridge 
# Structural Database, then it will include bibliographic, chemical, 
# crystal, experimental, refinement or atomic coordinate data resulting 
# from the CCDC's data processing and validation procedures.
#
#######################################################################

data_LOJKOL
_chemical_formula_moiety         'C19 H19 Cl1 O5'
_chemical_name_systematic        
'Ethyl 2-(4-chlorophenyl)-3-(3,5-dimethoxyphenoxy)acrylate'
_symmetry_cell_setting           triclinic
_symmetry_space_group_name_H-M   'P -1'
_symmetry_Int_Tables_number      2
_space_group_name_Hall           '-P 1'
loop_
_symmetry_equiv_pos_site_id
_symmetry_equiv_pos_as_xyz
1 x,y,z
2 -x,-y,-z
_cell_length_a                   9.601(2)
_cell_length_b                   9.607(3)
_cell_length_c                   10.368(2)
_cell_angle_alpha                77.84(2)
_cell_angle_beta                 75.42(3)
_cell_angle_gamma                87.40(3)
_cell_volume                     904.72
_exptl_crystal_colour            colorless
_exptl_crystal_description       block
_cell_formula_units_Z            2
loop_
_atom_site_label
_atom_site_type_symbol
_atom_site_fract_x
_atom_site_fract_y
_atom_site_fract_z
C1 C 0.9387(3) 0.1311(3) 0.7046(3)
C2 C 1.0552(3) 0.1122(3) 0.5995(3)
H1 H 1.0797 0.1812 0.5197
C3 C 1.1345(3) -0.0115(3) 0.6159(3)
C4 C 1.0993(3) -0.1153(3) 0.7352(3)
H2 H 1.1517 -0.1990 0.7447
C5 C 0.9853(3) -0.0911(3) 0.8389(3)
C6 C 0.9046(3) 0.0313(3) 0.8241(3)
H3 H 0.8276 0.0461 0.8947
C7 C 0.6961(3) 0.5299(3) 0.6619(3)
C8 C 0.5498(3) 0.5569(3) 0.6821(3)
H4 H 0.5004 0.5304 0.6245
C9 C 0.4755(3) 0.6225(3) 0.7858(3)
H5 H 0.3773 0.6391 0.7982
C10 C 0.5490(3) 0.6624(3) 0.8697(3)
C11 C 0.6936(3) 0.6343(3) 0.8557(3)
H6 H 0.7414 0.6591 0.9154
C12 C 0.7665(3) 0.5688(3) 0.7519(3)
H7 H 0.8642 0.5503 0.7417
C13 C 0.8483(3) 0.3402(3) 0.5672(3)
H8 H 0.8987 0.3089 0.4896
C14 C 0.7768(3) 0.4626(3) 0.5486(3)
C15 C 0.7837(3) 0.5296(3) 0.4060(3)
C16 C 0.7084(4) 0.7295(3) 0.2597(3)
H9 H 0.6915 0.6667 0.2031
H10 H 0.8017 0.7750 0.2182
C17 C 0.5928(4) 0.8392(4) 0.2728(4)
H11 H 0.5009 0.7929 0.3116
H12 H 0.5941 0.8959 0.1844
H13 H 0.6095 0.8993 0.3307
C18 C 1.0305(4) -0.3072(3) 0.9843(3)
H14 H 1.0336 -0.3627 0.9167
H15 H 0.9906 -0.3639 1.0731
H16 H 1.1262 -0.2773 0.9788
C19 C 1.2980(4) 0.0648(3) 0.3998(3)
H17 H 1.2229 0.0832 0.3525
H18 H 1.3822 0.0325 0.3418
H19 H 1.3206 0.1506 0.4242
Cl1 Cl 0.45938(11) 0.75361(11) 0.99503(10)
O1 O 0.8538(3) 0.2570(3) 0.6900(3)
O2 O 0.8506(2) 0.4862(2) 0.3068(2)
O3 O 0.7048(2) 0.6494(2) 0.39530(19)
O4 O 0.9429(2) -0.1850(2) 0.9607(2)
O5 O 1.2510(2) -0.0425(2) 0.5203(2)
loop_
_geom_bond_atom_site_label_1
_geom_bond_atom_site_label_2
_geom_bond_site_symmetry_1
_geom_bond_site_symmetry_2
C1 C2 1_555 1_555
C2 H1 1_555 1_555
C3 C2 1_555 1_555
C4 C3 1_555 1_555
H2 C4 1_555 1_555
C5 C4 1_555 1_555
C6 C1 1_555 1_555
H3 C6 1_555 1_555
C7 C8 1_555 1_555
C8 H4 1_555 1_555
C9 C8 1_555 1_555
H5 C9 1_555 1_555
C10 C9 1_555 1_555
C11 C10 1_555 1_555
H6 C11 1_555 1_555
C12 C7 1_555 1_555
H7 C12 1_555 1_555
C13 H8 1_555 1_555
C14 C7 1_555 1_555
C15 C14 1_555 1_555
C16 H9 1_555 1_555
H10 C16 1_555 1_555
C17 C16 1_555 1_555
H11 C17 1_555 1_555
H12 C17 1_555 1_555
H13 C17 1_555 1_555
C18 H14 1_555 1_555
H15 C18 1_555 1_555
H16 C18 1_555 1_555
C19 H17 1_555 1_555
H18 C19 1_555 1_555
H19 C19 1_555 1_555
Cl1 C10 1_555 1_555
O1 C1 1_555 1_555
O2 C15 1_555 1_555
O3 C15 1_555 1_555
O4 C5 1_555 1_555
O5 C3 1_555 1_555
C5 C6 1_555 1_555
C11 C12 1_555 1_555
C13 C14 1_555 1_555
C13 O1 1_555 1_555
C16 O3 1_555 1_555
C18 O4 1_555 1_555
C19 O5 1_555 1_555

#END
