
#######################################################################
#
#                 Cambridge Crystallographic Data Centre
#                                CCDC 
#
#######################################################################
#
# If this CIF has been generated from an entry in the Cambridge 
# Structural Database, then it will include bibliographic, chemical, 
# crystal, experimental, refinement or atomic coordinate data resulting 
# from the CCDC's data processing and validation procedures.
#
#######################################################################

data_LOJKEB
_chemical_formula_moiety         'C20 H13 F3 N4 O4'
_chemical_name_systematic        
'Ethyl 4-(4-nitrophenyl)-2-(trifluoromethyl)pyrimido(1,2-a)benzimidazole-3-carboxylate'
_symmetry_cell_setting           monoclinic
_symmetry_space_group_name_H-M   'P 21/c'
_symmetry_Int_Tables_number      14
_space_group_name_Hall           '-P 2ybc'
loop_
_symmetry_equiv_pos_site_id
_symmetry_equiv_pos_as_xyz
1 x,y,z
2 -x,1/2+y,1/2-z
3 -x,-y,-z
4 x,1/2-y,1/2+z
_cell_length_a                   8.4075(5)
_cell_length_b                   26.6904(14)
_cell_length_c                   9.0559(5)
_cell_angle_alpha                90
_cell_angle_beta                 111.027(2)
_cell_angle_gamma                90
_cell_volume                     1896.82
_exptl_crystal_colour            orange
_exptl_crystal_description       block
_cell_formula_units_Z            4
_exptl_crystal_recrystallization_method ethanol
loop_
_atom_site_label
_atom_site_type_symbol
_atom_site_fract_x
_atom_site_fract_y
_atom_site_fract_z
F1 F 0.84705(13) 0.60521(4) 0.95949(11)
F2 F 0.69893(13) 0.67273(4) 0.89880(11)
F3 F 0.89019(12) 0.65773(4) 0.79846(11)
O1 O 0.62940(15) 0.71967(4) 0.55129(14)
O2 O 0.75651(13) 0.66746(4) 0.43224(12)
O3 O 0.21549(16) 0.71512(4) -0.24329(13)
O4 O 0.26759(14) 0.64080(4) -0.30905(12)
N1 N 0.57725(14) 0.56861(4) 0.74106(13)
N2 N 0.37814(14) 0.56650(4) 0.47093(13)
N3 N 0.37200(15) 0.50437(4) 0.64198(13)
N4 N 0.26160(15) 0.67171(4) -0.21060(14)
C1 C 0.44825(17) 0.54571(5) 0.62568(15)
C2 C 0.45006(17) 0.60793(5) 0.43043(15)
C3 C 0.57796(17) 0.63165(5) 0.54926(16)
C4 C 0.63487(17) 0.61029(5) 0.70372(15)
C5 C 0.24130(17) 0.53536(5) 0.38824(16)
C6 C 0.24395(18) 0.49711(5) 0.49625(17)
C7 C 0.12231(19) 0.45881(5) 0.45180(18)
H1 H 0.1244 0.4322 0.5222
C8 C -0.00046(19) 0.46102(6) 0.30259(18)
H2 H -0.0837 0.4353 0.2694
C9 C -0.0057(2) 0.50043(6) 0.19808(18)
H3 H -0.0946 0.5011 0.0973
C10 C 0.11445(18) 0.53821(6) 0.23755(16)
H4 H 0.1112 0.5647 0.1664
C11 C 0.39418(17) 0.62415(5) 0.26248(15)
C12 C 0.41635(18) 0.59172(5) 0.15022(16)
H5 H 0.4605 0.5590 0.1804
C13 C 0.37390(18) 0.60735(5) -0.00523(16)
H6 H 0.3883 0.5857 -0.0828
C14 C 0.30986(17) 0.65537(5) -0.04460(15)
C15 C 0.28857(18) 0.68848(5) 0.06432(16)
H7 H 0.2457 0.7213 0.0337
C16 C 0.33160(18) 0.67247(5) 0.21975(16)
H8 H 0.3184 0.6945 0.2970
C17 C 0.65622(18) 0.67848(5) 0.51235(16)
C18 C 0.8334(2) 0.71015(6) 0.3818(2)
H9 H 0.8954 0.7317 0.4735
H10 H 0.7445 0.7305 0.3032
C19 C 0.9537(2) 0.68897(7) 0.3101(2)
H11 H 1.0469 0.6716 0.3918
H12 H 1.0003 0.7162 0.2652
H13 H 0.8928 0.6653 0.2263
C20 C 0.76917(19) 0.63640(6) 0.84092(17)
loop_
_geom_bond_atom_site_label_1
_geom_bond_atom_site_label_2
_geom_bond_site_symmetry_1
_geom_bond_site_symmetry_2
F1 C20 1_555 1_555
F2 C20 1_555 1_555
F3 C20 1_555 1_555
O1 C17 1_555 1_555
O2 C17 1_555 1_555
O3 N4 1_555 1_555
O4 N4 1_555 1_555
N1 C1 1_555 1_555
N2 C1 1_555 1_555
N3 C1 1_555 1_555
N4 C14 1_555 1_555
C2 N2 1_555 1_555
C3 C2 1_555 1_555
C4 N1 1_555 1_555
C5 N2 1_555 1_555
C6 N3 1_555 1_555
C7 C6 1_555 1_555
H1 C7 1_555 1_555
C8 C7 1_555 1_555
H2 C8 1_555 1_555
C9 C8 1_555 1_555
H3 C9 1_555 1_555
C10 C5 1_555 1_555
H4 C10 1_555 1_555
C11 C2 1_555 1_555
C12 C11 1_555 1_555
H5 C12 1_555 1_555
C13 C12 1_555 1_555
H6 C13 1_555 1_555
C14 C13 1_555 1_555
C15 C14 1_555 1_555
H7 C15 1_555 1_555
C16 C11 1_555 1_555
H8 C16 1_555 1_555
C17 C3 1_555 1_555
C18 O2 1_555 1_555
H9 C18 1_555 1_555
H10 C18 1_555 1_555
C19 C18 1_555 1_555
H11 C19 1_555 1_555
H12 C19 1_555 1_555
H13 C19 1_555 1_555
C20 C4 1_555 1_555
C3 C4 1_555 1_555
C5 C6 1_555 1_555
C9 C10 1_555 1_555
C15 C16 1_555 1_555

#END
