
#######################################################################
#
#                 Cambridge Crystallographic Data Centre
#                                CCDC 
#
#######################################################################
#
# If this CIF has been generated from an entry in the Cambridge 
# Structural Database, then it will include bibliographic, chemical, 
# crystal, experimental, refinement or atomic coordinate data resulting 
# from the CCDC's data processing and validation procedures.
#
#######################################################################

data_LOJLOM
_chemical_formula_moiety         'C15 H12 Cl1 N1'
_chemical_name_systematic        4-Chloro-N-(3-phenylallylidene)aniline
_symmetry_cell_setting           orthorhombic
_symmetry_space_group_name_H-M   'P n a 21'
_symmetry_Int_Tables_number      33
_space_group_name_Hall           'P 2c -2n'
loop_
_symmetry_equiv_pos_site_id
_symmetry_equiv_pos_as_xyz
1 x,y,z
2 -x,-y,1/2+z
3 1/2+x,1/2-y,z
4 1/2-x,1/2+y,1/2+z
_cell_length_a                   7.7333(7)
_cell_length_b                   5.5957(5)
_cell_length_c                   29.383(3)
_cell_angle_alpha                90
_cell_angle_beta                 90
_cell_angle_gamma                90
_cell_volume                     1271.5
_exptl_crystal_colour            yellow
_exptl_crystal_description       block
_cell_formula_units_Z            4
_exptl_crystal_recrystallization_method tetrahydrofuran
loop_
_atom_site_label
_atom_site_type_symbol
_atom_site_fract_x
_atom_site_fract_y
_atom_site_fract_z
Cl1 Cl 0.65759(7) 0.44278(11) 0.969692(18)
N1 N 0.87735(18) 0.5317(3) 0.77774(5)
C1 C 0.7249(2) 0.4739(3) 0.91350(6)
C2 C 0.8238(2) 0.6663(3) 0.90138(5)
H1 H 0.8555 0.7795 0.9230
C3 C 0.8761(2) 0.6907(3) 0.85660(5)
H2 H 0.9443 0.8203 0.8483
C4 C 0.82813(19) 0.5241(3) 0.82396(6)
C5 C 0.7294(2) 0.3300(3) 0.83740(6)
H3 H 0.6984 0.2152 0.8160
C6 C 0.6762(2) 0.3037(3) 0.88200(6)
H4 H 0.6088 0.1737 0.8906
C7 C 0.9240(2) 0.7278(3) 0.75959(6)
H5 H 0.9253 0.8657 0.7773
C8 C 0.9747(2) 0.7431(3) 0.71272(5)
H6 H 0.9650 0.6067 0.6948
C9 C 1.0343(2) 0.9406(3) 0.69352(5)
H7 H 1.0425 1.0744 0.7122
C10 C 1.0884(2) 0.9711(3) 0.64651(5)
C11 C 1.1805(2) 1.1742(3) 0.63356(5)
H8 H 1.2065 1.2901 0.6552
C12 C 1.2339(2) 1.2059(3) 0.58897(6)
H9 H 1.2960 1.3419 0.5810
C13 C 1.1957(2) 1.0385(3) 0.55664(6)
H10 H 1.2307 1.0608 0.5267
C14 C 1.1043(2) 0.8352(3) 0.56881(5)
H11 H 1.0791 0.7201 0.5470
C15 C 1.0509(2) 0.8028(3) 0.61284(5)
H12 H 0.9886 0.6664 0.6204
loop_
_geom_bond_atom_site_label_1
_geom_bond_atom_site_label_2
_geom_bond_site_symmetry_1
_geom_bond_site_symmetry_2
Cl1 C1 1_555 1_555
N1 C4 1_555 1_555
C1 C2 1_555 1_555
C2 H1 1_555 1_555
C3 C2 1_555 1_555
H2 C3 1_555 1_555
C4 C3 1_555 1_555
C5 C4 1_555 1_555
H3 C5 1_555 1_555
C6 C1 1_555 1_555
H4 C6 1_555 1_555
C7 N1 1_555 1_555
H5 C7 1_555 1_555
C8 C7 1_555 1_555
H6 C8 1_555 1_555
C9 C8 1_555 1_555
H7 C9 1_555 1_555
C10 C9 1_555 1_555
C11 C10 1_555 1_555
H8 C11 1_555 1_555
C12 C11 1_555 1_555
H9 C12 1_555 1_555
C13 C12 1_555 1_555
H10 C13 1_555 1_555
C14 C13 1_555 1_555
H11 C14 1_555 1_555
C15 C10 1_555 1_555
H12 C15 1_555 1_555
C5 C6 1_555 1_555
C14 C15 1_555 1_555

#END
