
#######################################################################
#
#                 Cambridge Crystallographic Data Centre
#                                CCDC 
#
#######################################################################
#
# If this CIF has been generated from an entry in the Cambridge 
# Structural Database, then it will include bibliographic, chemical, 
# crystal, experimental, refinement or atomic coordinate data resulting 
# from the CCDC's data processing and validation procedures.
#
#######################################################################

data_LOJWOX
_chemical_formula_moiety         'C19 H16 F3 N1 O6 S1'
_chemical_name_systematic        
'1-(2-(4-nitrophenyl)-5-phenyldihydro-3(2H)-furanylidene)ethyl trifluoromethanesulfonate'
_symmetry_cell_setting           monoclinic
_symmetry_space_group_name_H-M   'P 21/c'
_symmetry_Int_Tables_number      14
_space_group_name_Hall           '-P 2ybc'
loop_
_symmetry_equiv_pos_site_id
_symmetry_equiv_pos_as_xyz
1 x,y,z
2 -x,1/2+y,1/2-z
3 -x,-y,-z
4 x,1/2-y,1/2+z
_cell_length_a                   13.1270(10)
_cell_length_b                   7.4740(6)
_cell_length_c                   20.597(2)
_cell_angle_alpha                90
_cell_angle_beta                 94.557(5)
_cell_angle_gamma                90
_cell_volume                     2014.41
_exptl_crystal_colour            colorless
_exptl_crystal_description       block
_cell_formula_units_Z            4
loop_
_atom_site_label
_atom_site_type_symbol
_atom_site_fract_x
_atom_site_fract_y
_atom_site_fract_z
S1 S 0.90035(5) -0.27660(10) 0.18480(3)
F1 F 0.82340(10) -0.4529(3) 0.08465(9)
F2 F 0.9103(2) -0.6080(3) 0.15090(10)
F3 F 0.98310(10) -0.4321(4) 0.09160(10)
O1 O 0.3569(2) 0.2979(3) -0.00090(10)
O2 O 0.5092(2) 0.3145(3) -0.03110(10)
O3 O 0.63470(10) 0.1488(2) 0.29648(7)
O4 O 0.87590(10) -0.1156(3) 0.15170(10)
O5 O 0.98950(10) -0.2999(3) 0.22620(9)
O6 O 0.80950(10) -0.3423(2) 0.22307(7)
N1 N 0.4488(2) 0.2758(3) 0.00840(10)
C1 C 0.7120(2) 0.0841(3) 0.34470(10)
C2 C 0.60540(10) -0.0006(3) 0.25500(10)
C3 C 0.7123(2) -0.2504(3) 0.21680(10)
C4 C 0.56350(10) 0.0710(3) 0.18990(10)
C5 C 0.4229(2) 0.1187(3) 0.11000(10)
C6 C 0.6277(2) 0.1557(3) 0.14970(10)
C7 C 0.70210(10) -0.1124(3) 0.25500(10)
C8 C 0.4613(2) 0.0521(3) 0.16930(10)
C9 C 0.7653(2) 0.2360(3) 0.38020(10)
C10 C 0.8141(2) 0.3675(3) 0.34750(10)
C11 C 0.4884(2) 0.2023(3) 0.07140(10)
C12 C 0.7780(2) -0.0342(3) 0.30480(10)
C13 C 0.5907(2) 0.2211(4) 0.09000(10)
C14 C 0.6374(2) -0.3396(4) 0.17030(10)
C15 C 0.7701(2) 0.2434(4) 0.44750(10)
C16 C 0.8673(2) 0.5027(4) 0.38140(10)
C17 C 0.9028(2) -0.4532(6) 0.1244(2)
C18 C 0.8222(2) 0.3791(5) 0.48070(10)
C19 C 0.8709(2) 0.5079(4) 0.4481(2)
H1 H 0.3526 0.1067 0.0958
H2 H 0.6980 0.1675 0.1637
H3 H 0.4177 -0.0079 0.1968
H4 H 0.8111 0.3637 0.3013
H5 H 0.6344 0.2782 0.0617
H6 H 0.7373 0.1533 0.4708
H7 H 0.9012 0.5912 0.3580
H8 H 0.8241 0.3848 0.5269
H9 H 0.9076 0.6010 0.4710
H10 H 0.6807 0.0111 0.3752
H11 H 0.5539 -0.0678 0.2739
H12 H 0.8269 0.0367 0.2848
H13 H 0.8123 -0.1249 0.3304
H14 H 0.6434 -0.2927 0.1279
H15 H 0.5703 -0.3185 0.1828
H16 H 0.6503 -0.4647 0.1702
loop_
_geom_bond_atom_site_label_1
_geom_bond_atom_site_label_2
_geom_bond_site_symmetry_1
_geom_bond_site_symmetry_2
S1 O4 1_555 1_555
F1 C17 1_555 1_555
F2 C17 1_555 1_555
F3 C17 1_555 1_555
O1 N1 1_555 1_555
O2 N1 1_555 1_555
O3 C1 1_555 1_555
O5 S1 1_555 1_555
O6 S1 1_555 1_555
N1 C11 1_555 1_555
C1 C9 1_555 1_555
C2 O3 1_555 1_555
C3 O6 1_555 1_555
C4 C2 1_555 1_555
C5 C8 1_555 1_555
C6 C4 1_555 1_555
C7 C2 1_555 1_555
C8 C4 1_555 1_555
C9 C10 1_555 1_555
C10 C16 1_555 1_555
C11 C5 1_555 1_555
C12 C1 1_555 1_555
C13 C6 1_555 1_555
C14 C3 1_555 1_555
C15 C9 1_555 1_555
C16 C19 1_555 1_555
C17 S1 1_555 1_555
C18 C15 1_555 1_555
C19 C18 1_555 1_555
H1 C5 1_555 1_555
H2 C6 1_555 1_555
H3 C8 1_555 1_555
H4 C10 1_555 1_555
H5 C13 1_555 1_555
H6 C15 1_555 1_555
H7 C16 1_555 1_555
H8 C18 1_555 1_555
H9 C19 1_555 1_555
H10 C1 1_555 1_555
H11 C2 1_555 1_555
H12 C12 1_555 1_555
H13 C12 1_555 1_555
H14 C14 1_555 1_555
H15 C14 1_555 1_555
H16 C14 1_555 1_555
C3 C7 1_555 1_555
C7 C12 1_555 1_555
C11 C13 1_555 1_555

#END
