
#######################################################################
#
#                 Cambridge Crystallographic Data Centre
#                                CCDC 
#
#######################################################################
#
# If this CIF has been generated from an entry in the Cambridge 
# Structural Database, then it will include bibliographic, chemical, 
# crystal, experimental, refinement or atomic coordinate data resulting 
# from the CCDC's data processing and validation procedures.
#
#######################################################################

data_LOKBOE
_chemical_formula_moiety         'C31 H44 N2 O1 Si2'
_chemical_name_systematic        
'4-(t-Butyl(dimethyl)silyl)-5-((t-butyl(dimethyl)silyl)ethynyl)-1-(4-methoxyphenyl)-2-phenyl-1H-pyrrol-3-amine unknown solvate'
_symmetry_cell_setting           monoclinic
_symmetry_space_group_name_H-M   'P 21/c'
_symmetry_Int_Tables_number      14
_space_group_name_Hall           '-P 2ybc'
loop_
_symmetry_equiv_pos_site_id
_symmetry_equiv_pos_as_xyz
1 x,y,z
2 -x,1/2+y,1/2-z
3 -x,-y,-z
4 x,1/2-y,1/2+z
_cell_length_a                   12.3200(9)
_cell_length_b                   12.6141(10)
_cell_length_c                   21.9831(17)
_cell_angle_alpha                90
_cell_angle_beta                 93.771(2)
_cell_angle_gamma                90
_cell_volume                     3408.9
_exptl_crystal_colour            colorless
_exptl_crystal_description       prismatic
_cell_formula_units_Z            4
loop_
_atom_site_label
_atom_site_type_symbol
_atom_site_fract_x
_atom_site_fract_y
_atom_site_fract_z
Si1 Si 0.64206(5) -0.16193(5) 0.21720(3)
Si2 Si 0.19475(5) -0.07004(5) 0.12326(3)
N1 N 0.44699(12) 0.11450(11) 0.07514(7)
N2 N 0.16369(14) 0.16300(14) 0.03956(9)
H1 H 0.1575 0.2194 0.0176
H2 H 0.1065 0.1291 0.0488
O1 O 0.89360(11) 0.18414(13) 0.08227(8)
C1 C 0.40195(15) 0.03046(14) 0.10483(8)
C2 C 0.28899(15) 0.03348(15) 0.09626(8)
C3 C 0.26732(15) 0.12628(15) 0.06032(9)
C4 C 0.36336(15) 0.17498(14) 0.04792(8)
C5 C 0.38152(16) 0.26837(15) 0.00957(8)
C6 C 0.31909(19) 0.35900(16) 0.01465(10)
H3 H 0.2659 0.3613 0.0427
C7 C 0.3357(2) 0.44640(19) -0.02204(13)
H4 H 0.2938 0.5071 -0.0181
C8 C 0.4125(2) 0.4440(2) -0.06359(13)
H5 H 0.4228 0.5027 -0.0881
C9 C 0.4747(2) 0.3550(2) -0.06942(11)
H6 H 0.5276 0.3536 -0.0977
C10 C 0.45927(17) 0.26796(17) -0.03354(9)
H7 H 0.5015 0.2077 -0.0381
C11 C 0.56095(15) 0.13626(14) 0.07658(8)
C12 C 0.60258(17) 0.22961(16) 0.10045(9)
H8 H 0.5558 0.2800 0.1151
C13 C 0.71347(17) 0.24949(16) 0.10291(10)
H9 H 0.7410 0.3133 0.1185
C14 C 0.78277(16) 0.17315(17) 0.08190(9)
C15 C 0.74065(16) 0.07964(17) 0.05821(9)
H10 H 0.7871 0.0282 0.0443
C16 C 0.63108(16) 0.06193(16) 0.05504(9)
H11 H 0.6034 -0.0009 0.0382
C17 C 0.9407(2) 0.2736(2) 0.11094(15)
H12 H 0.9150 0.3363 0.0899
H13 H 1.0184 0.2696 0.1102
H14 H 0.9211 0.2763 0.1524
C18 C 0.47200(16) -0.03796(15) 0.14101(9)
C19 C 0.53678(17) -0.09077(16) 0.17089(10)
C20 C 0.7472(2) -0.2076(2) 0.16654(12)
H15 H 0.7166 -0.2605 0.1391
H16 H 0.8074 -0.2373 0.1907
H17 H 0.7719 -0.1486 0.1436
C21 C 0.5751(2) -0.2743(2) 0.25414(13)
H18 H 0.5105 -0.2495 0.2718
H19 H 0.6241 -0.3036 0.2855
H20 H 0.5561 -0.3278 0.2243
C22 C 0.70283(19) -0.06558(18) 0.27499(10)
C23 C 0.6151(3) -0.0287(2) 0.31680(13)
H21 H 0.6442 0.0262 0.3434
H22 H 0.5926 -0.0874 0.3407
H23 H 0.5537 -0.0018 0.2924
C24 C 0.7952(2) -0.1194(2) 0.31389(12)
H24 H 0.8509 -0.1417 0.2881
H25 H 0.7670 -0.1800 0.3341
H26 H 0.8253 -0.0702 0.3437
C25 C 0.7481(3) 0.0305(2) 0.24270(14)
H27 H 0.6895 0.0680 0.2213
H28 H 0.7989 0.0072 0.2142
H29 H 0.7843 0.0766 0.2723
C26 C 0.2594(2) -0.20281(18) 0.11694(13)
H30 H 0.2733 -0.2162 0.0752
H31 H 0.2116 -0.2563 0.1309
H32 H 0.3268 -0.2043 0.1415
C27 C 0.06432(18) -0.07311(19) 0.07454(10)
H33 H 0.0245 -0.0088 0.0803
H34 H 0.0216 -0.1327 0.0858
H35 H 0.0800 -0.0793 0.0325
C28 C 0.1605(2) -0.0429(2) 0.20398(11)
C29 C 0.1107(3) 0.0677(3) 0.20787(14)
H36 H 0.0904 0.0803 0.2487
H37 H 0.0474 0.0724 0.1801
H38 H 0.1630 0.1198 0.1973
C30 C 0.0758(3) -0.1239(3) 0.22363(14)
H39 H 0.1065 -0.1939 0.2234
H40 H 0.0125 -0.1212 0.1957
H41 H 0.0556 -0.1071 0.2640
C31 C 0.2610(2) -0.0496(3) 0.24842(12)
H42 H 0.2412 -0.0323 0.2888
H43 H 0.3149 -0.0004 0.2363
H44 H 0.2900 -0.1202 0.2481
loop_
_geom_bond_atom_site_label_1
_geom_bond_atom_site_label_2
_geom_bond_site_symmetry_1
_geom_bond_site_symmetry_2
Si1 C19 1_555 1_555
Si2 C2 1_555 1_555
N1 C1 1_555 1_555
N2 H1 1_555 1_555
H2 N2 1_555 1_555
O1 C14 1_555 1_555
C1 C2 1_555 1_555
C2 C3 1_555 1_555
C3 N2 1_555 1_555
C4 N1 1_555 1_555
C5 C4 1_555 1_555
C6 C5 1_555 1_555
H3 C6 1_555 1_555
C7 C6 1_555 1_555
H4 C7 1_555 1_555
C8 C7 1_555 1_555
H5 C8 1_555 1_555
C9 C8 1_555 1_555
H6 C9 1_555 1_555
C10 C5 1_555 1_555
H7 C10 1_555 1_555
C11 N1 1_555 1_555
C12 C11 1_555 1_555
H8 C12 1_555 1_555
C13 C12 1_555 1_555
H9 C13 1_555 1_555
C14 C13 1_555 1_555
C15 C14 1_555 1_555
H10 C15 1_555 1_555
C16 C11 1_555 1_555
H11 C16 1_555 1_555
C17 O1 1_555 1_555
H12 C17 1_555 1_555
H13 C17 1_555 1_555
H14 C17 1_555 1_555
C18 C1 1_555 1_555
C19 C18 1_555 1_555
C20 Si1 1_555 1_555
H15 C20 1_555 1_555
H16 C20 1_555 1_555
H17 C20 1_555 1_555
C21 Si1 1_555 1_555
H18 C21 1_555 1_555
H19 C21 1_555 1_555
H20 C21 1_555 1_555
C22 Si1 1_555 1_555
C23 C22 1_555 1_555
H21 C23 1_555 1_555
H22 C23 1_555 1_555
H23 C23 1_555 1_555
C24 C22 1_555 1_555
H24 C24 1_555 1_555
H25 C24 1_555 1_555
H26 C24 1_555 1_555
C25 C22 1_555 1_555
H27 C25 1_555 1_555
H28 C25 1_555 1_555
H29 C25 1_555 1_555
C26 Si2 1_555 1_555
H30 C26 1_555 1_555
H31 C26 1_555 1_555
H32 C26 1_555 1_555
C27 Si2 1_555 1_555
H33 C27 1_555 1_555
H34 C27 1_555 1_555
H35 C27 1_555 1_555
C28 Si2 1_555 1_555
C29 C28 1_555 1_555
H36 C29 1_555 1_555
H37 C29 1_555 1_555
H38 C29 1_555 1_555
C30 C28 1_555 1_555
H39 C30 1_555 1_555
H40 C30 1_555 1_555
H41 C30 1_555 1_555
C31 C28 1_555 1_555
H42 C31 1_555 1_555
H43 C31 1_555 1_555
H44 C31 1_555 1_555
C3 C4 1_555 1_555
C9 C10 1_555 1_555
C15 C16 1_555 1_555

#END
