
#######################################################################
#
#                 Cambridge Crystallographic Data Centre
#                                CCDC 
#
#######################################################################
#
# If this CIF has been generated from an entry in the Cambridge 
# Structural Database, then it will include bibliographic, chemical, 
# crystal, experimental, refinement or atomic coordinate data resulting 
# from the CCDC's data processing and validation procedures.
#
#######################################################################

data_LOKBIY
_chemical_formula_moiety         'C37 H27 Br1 N2 O2 S1'
_chemical_name_systematic        
N-(1-(4-Bromophenyl)-2,4-diphenyl-5-(phenylethynyl)-1H-pyrrol-3-yl)-4-methylbenzenesulfonamide
_symmetry_cell_setting           triclinic
_symmetry_space_group_name_H-M   'P -1'
_symmetry_Int_Tables_number      2
_space_group_name_Hall           '-P 1'
loop_
_symmetry_equiv_pos_site_id
_symmetry_equiv_pos_as_xyz
1 x,y,z
2 -x,-y,-z
_cell_length_a                   10.3013(15)
_cell_length_b                   13.0206(18)
_cell_length_c                   13.9427(18)
_cell_angle_alpha                117.359(3)
_cell_angle_beta                 105.117(3)
_cell_angle_gamma                95.850(3)
_cell_volume                     1548.9
_exptl_crystal_colour            colorless
_exptl_crystal_description       prismatic
_cell_formula_units_Z            2
loop_
_atom_site_label
_atom_site_type_symbol
_atom_site_fract_x
_atom_site_fract_y
_atom_site_fract_z
Br1 Br 1.02279(6) 1.05852(5) 1.19611(5)
S1 S 0.18494(9) 0.45654(8) 0.44675(7)
N1 N 0.5365(3) 0.6428(2) 0.8123(2)
N2 N 0.2044(3) 0.5100(2) 0.5812(2)
O1 O 0.2863(3) 0.3914(2) 0.4237(2)
O2 O 0.0397(2) 0.3966(2) 0.3862(2)
C1 C 0.4322(3) 0.6486(3) 0.7309(3)
C2 C 0.3325(3) 0.5412(3) 0.6704(3)
C3 C 0.3742(4) 0.4669(3) 0.7154(3)
C4 C 0.5005(4) 0.5311(3) 0.8023(3)
C5 C 0.5863(4) 0.4961(3) 0.8732(3)
C6 C 0.6506(4) 0.4556(3) 0.9242(3)
C7 C 0.7162(19) 0.3967(18) 0.985(2)
C8 C 0.8394(11) 0.4504(10) 1.0758(8)
H1 H 0.8853 0.5292 1.1040
C9 C 0.8948(12) 0.3873(9) 1.1247(8)
H2 H 0.9810 0.4225 1.1838
C10 C 0.8282(12) 0.2776(9) 1.0894(9)
H3 H 0.8652 0.2397 1.1286
C11 C 0.7055(10) 0.2167(9) 0.9965(8)
H4 H 0.6632 0.1377 0.9710
C12 C 0.6461(11) 0.2753(8) 0.9416(7)
H5 H 0.5636 0.2369 0.8786
C13 C 0.2999(3) 0.3445(3) 0.6803(3)
C14 C 0.2915(4) 0.3164(3) 0.7635(3)
H6 H 0.3291 0.3752 0.8410
C15 C 0.2278(5) 0.2014(4) 0.7319(4)
H7 H 0.2257 0.1827 0.7884
C16 C 0.1676(5) 0.1146(4) 0.6179(4)
H8 H 0.1232 0.0377 0.5968
C17 C 0.1735(5) 0.1423(4) 0.5362(4)
H9 H 0.1323 0.0837 0.4588
C18 C 0.2395(4) 0.2559(3) 0.5656(3)
H10 H 0.2433 0.2728 0.5083
C19 C 0.4367(4) 0.7544(3) 0.7164(3)
C20 C 0.3202(4) 0.7974(3) 0.7032(3)
H11 H 0.2397 0.7606 0.7055
C21 C 0.3212(5) 0.8941(4) 0.6867(4)
H12 H 0.2415 0.9215 0.6769
C22 C 0.4393(5) 0.9493(4) 0.6849(4)
H13 H 0.4409 1.0154 0.6751
C23 C 0.5558(5) 0.9077(4) 0.6974(4)
H14 H 0.6359 0.9452 0.6953
C24 C 0.5553(4) 0.8105(3) 0.7131(3)
H15 H 0.6348 0.7828 0.7214
C25 C 0.6521(4) 0.7396(3) 0.9022(3)
C26 C 0.6298(4) 0.8488(3) 0.9701(3)
H16 H 0.5400 0.8587 0.9580
C27 C 0.7417(5) 0.9431(4) 1.0562(3)
H17 H 0.7275 1.0173 1.1006
C28 C 0.8719(4) 0.9272(4) 1.0756(3)
C29 C 0.8957(5) 0.8196(4) 1.0106(4)
H18 H 0.9855 0.8095 1.0251
C30 C 0.7847(4) 0.7260(4) 0.9230(4)
H19 H 0.8002 0.6527 0.8775
C31 C 0.2165(4) 0.5746(3) 0.4196(3)
C32 C 0.1140(4) 0.6326(4) 0.4065(4)
H20 H 0.0306 0.6122 0.4156
C33 C 0.1362(5) 0.7205(4) 0.3799(4)
H21 H 0.0668 0.7589 0.3702
C34 C 0.2575(6) 0.7524(4) 0.3674(4)
C35 C 0.3610(6) 0.6968(4) 0.3837(4)
H22 H 0.4454 0.7195 0.3771
C36 C 0.3399(4) 0.6069(4) 0.4098(4)
H23 H 0.4097 0.5691 0.4204
C37 C 0.2836(8) 0.8511(5) 0.3386(6)
H24 H 0.1984 0.8484 0.2876
H25 H 0.3521 0.8392 0.3019
H26 H 0.3167 0.9277 0.4082
H27 H 0.143(3) 0.542(3) 0.597(3)
C38? C 0.728(3) 0.408(3) 0.984(3)
C39? C 0.8670(18) 0.4690(16) 1.0510(12)
H28? H 0.9087 0.5351 1.0500
C40? C 0.9419(17) 0.4293(14) 1.1188(12)
H29? H 1.0361 0.4651 1.1617
C41? C 0.8732(17) 0.3367(17) 1.1204(14)
H30? H 0.9198 0.3195 1.1759
C42? C 0.7476(17) 0.2684(14) 1.0521(12)
H31? H 0.7148 0.1962 1.0471
C43? C 0.6647(18) 0.3092(16) 0.9864(10)
H32? H 0.5705 0.2714 0.9456
loop_
_geom_bond_atom_site_label_1
_geom_bond_atom_site_label_2
_geom_bond_site_symmetry_1
_geom_bond_site_symmetry_2
Br1 C28 1_555 1_555
S1 N2 1_555 1_555
N1 C1 1_555 1_555
N2 C2 1_555 1_555
O1 S1 1_555 1_555
O2 S1 1_555 1_555
C1 C2 1_555 1_555
C2 C3 1_555 1_555
C3 C4 1_555 1_555
C4 N1 1_555 1_555
C5 C4 1_555 1_555
C6 C5 1_555 1_555
C7 C6 1_555 1_555
C8 C7 1_555 1_555
H1 C8 1_555 1_555
C9 C8 1_555 1_555
H2 C9 1_555 1_555
C10 C9 1_555 1_555
H3 C10 1_555 1_555
C11 C10 1_555 1_555
H4 C11 1_555 1_555
C12 C7 1_555 1_555
H5 C12 1_555 1_555
C13 C3 1_555 1_555
C14 C13 1_555 1_555
H6 C14 1_555 1_555
C15 C14 1_555 1_555
H7 C15 1_555 1_555
C16 C15 1_555 1_555
H8 C16 1_555 1_555
C17 C16 1_555 1_555
H9 C17 1_555 1_555
C18 C13 1_555 1_555
H10 C18 1_555 1_555
C19 C1 1_555 1_555
C20 C19 1_555 1_555
H11 C20 1_555 1_555
C21 C20 1_555 1_555
H12 C21 1_555 1_555
C22 C21 1_555 1_555
H13 C22 1_555 1_555
C23 C22 1_555 1_555
H14 C23 1_555 1_555
C24 C19 1_555 1_555
H15 C24 1_555 1_555
C25 N1 1_555 1_555
C26 C25 1_555 1_555
H16 C26 1_555 1_555
C27 C26 1_555 1_555
H17 C27 1_555 1_555
C28 C27 1_555 1_555
C29 C28 1_555 1_555
H18 C29 1_555 1_555
C30 C25 1_555 1_555
H19 C30 1_555 1_555
C31 S1 1_555 1_555
C32 C31 1_555 1_555
H20 C32 1_555 1_555
C33 C32 1_555 1_555
H21 C33 1_555 1_555
C34 C33 1_555 1_555
C35 C34 1_555 1_555
H22 C35 1_555 1_555
C36 C31 1_555 1_555
H23 C36 1_555 1_555
C37 C34 1_555 1_555
H24 C37 1_555 1_555
H25 C37 1_555 1_555
H26 C37 1_555 1_555
H27 N2 1_555 1_555
C11 C12 1_555 1_555
C17 C18 1_555 1_555
C23 C24 1_555 1_555
C29 C30 1_555 1_555
C35 C36 1_555 1_555

#END
