
#######################################################################
#
#                 Cambridge Crystallographic Data Centre
#                                CCDC 
#
#######################################################################
#
# If this CIF has been generated from an entry in the Cambridge 
# Structural Database, then it will include bibliographic, chemical, 
# crystal, experimental, refinement or atomic coordinate data resulting 
# from the CCDC's data processing and validation procedures.
#
#######################################################################

data_LOKCAR
_chemical_formula_moiety         'C33 H47 Br1 N2 O3 Si2'
_chemical_name_systematic        
N^1^-(4-Bromophenyl)-3,6-bis(tert-butyl(dimethyl)silyl)-1-(3,4,5-trimethoxyphenyl)hex-3-en-5-yne-1,2-diimine
_symmetry_cell_setting           triclinic
_symmetry_space_group_name_H-M   'P -1'
_symmetry_Int_Tables_number      2
_space_group_name_Hall           '-P 1'
loop_
_symmetry_equiv_pos_site_id
_symmetry_equiv_pos_as_xyz
1 x,y,z
2 -x,-y,-z
_cell_length_a                   12.938(4)
_cell_length_b                   17.204(5)
_cell_length_c                   18.135(6)
_cell_angle_alpha                82.713(5)
_cell_angle_beta                 85.701(4)
_cell_angle_gamma                70.712(4)
_cell_volume                     3776.88
_exptl_crystal_colour            green
_exptl_crystal_description       prismatic
_cell_formula_units_Z            4
loop_
_atom_site_label
_atom_site_type_symbol
_atom_site_fract_x
_atom_site_fract_y
_atom_site_fract_z
Br1 Br 0.54014(17) 0.84508(17) 1.03652(9)
Si1 Si 0.7140(2) 1.03757(19) 0.77397(16)
Si2 Si 1.1784(2) 0.9394(3) 0.83987(19)
N1 N 0.6420(6) 0.9414(5) 0.6646(4)
H1 H 0.5816 0.9719 0.6446
N2 N 0.7701(6) 0.7497(5) 0.7419(5)
O1 O 0.8906(5) 0.8569(4) 0.4258(3)
O2 O 0.9259(5) 0.6957(4) 0.4084(3)
O3 O 0.9056(4) 0.5884(4) 0.5199(3)
C1 C 0.7743(6) 0.8045(6) 0.6885(6)
C2 C 0.7306(7) 0.8967(6) 0.6939(5)
C3 C 0.7921(7) 0.9357(5) 0.7376(4)
C4 C 0.9007(7) 0.8939(6) 0.7435(5)
H2 H 0.9265 0.8439 0.7230
C5 C 0.9789(7) 0.9173(7) 0.7769(6)
C6 C 1.0536(9) 0.9296(8) 0.8013(6)
C7 C 0.8187(6) 0.7771(6) 0.6156(5)
C8 C 0.8364(6) 0.8326(6) 0.5578(5)
H3 H 0.8234 0.8874 0.5660
C9 C 0.8739(6) 0.8074(6) 0.4868(6)
C10 C 0.8943(6) 0.7237(6) 0.4763(5)
C11 C 0.8796(6) 0.6684(6) 0.5355(5)
C12 C 0.8414(6) 0.6953(5) 0.6044(5)
H4 H 0.8310 0.6578 0.6434
C13 C 0.7165(10) 0.7754(6) 0.8100(6)
C14 C 0.6073(10) 0.8065(8) 0.8184(7)
H5 H 0.5645 0.8163 0.7771
C15 C 0.5571(12) 0.8242(9) 0.8868(9)
H6 H 0.4809 0.8425 0.8902
C16 C 0.6089(14) 0.8169(11) 0.9455(8)
C17 C 0.7198(15) 0.7851(11) 0.9412(7)
H7 H 0.7589 0.7791 0.9837
C18 C 0.7803(12) 0.7599(10) 0.8713(8)
H8 H 0.8561 0.7354 0.8687
C19 C 0.8793(8) 0.9400(6) 0.4352(6)
H9 H 0.8040 0.9695 0.4470
H10 H 0.9021 0.9663 0.3900
H11 H 0.9240 0.9406 0.4749
C20 C 1.0268(9) 0.7045(7) 0.3724(5)
H12 H 1.0095 0.7533 0.3372
H13 H 1.0642 0.6567 0.3470
H14 H 1.0732 0.7094 0.4093
C21 C 0.8946(7) 0.5288(6) 0.5803(5)
H15 H 0.9331 0.5329 0.6221
H16 H 0.9249 0.4740 0.5650
H17 H 0.8185 0.5395 0.5941
C22 C 0.5707(7) 1.0428(7) 0.8014(6)
H18 H 0.5340 1.0933 0.8232
H19 H 0.5711 0.9964 0.8370
H20 H 0.5328 1.0416 0.7583
C23 C 0.7765(9) 1.0435(8) 0.8614(6)
H21 H 0.8522 1.0387 0.8516
H22 H 0.7712 0.9992 0.8979
H23 H 0.7383 1.0957 0.8800
C24 C 0.7185(11) 1.1248(7) 0.7035(8)
C25 C 0.6366(18) 1.2084(10) 0.7357(13)
H24 H 0.6649 1.2165 0.7805
H25 H 0.5653 1.2029 0.7462
H26 H 0.6311 1.2552 0.6993
C26 C 0.8282(13) 1.1303(12) 0.6877(12)
H27 H 0.8759 1.0790 0.6716
H28 H 0.8556 1.1408 0.7318
H29 H 0.8253 1.1746 0.6491
C27 C 0.6651(13) 1.1254(10) 0.6311(8)
H30 H 0.6509 1.1787 0.6029
H31 H 0.5974 1.1141 0.6423
H32 H 0.7134 1.0836 0.6027
C28 C 1.2140(11) 0.8616(10) 0.9208(8)
H33 H 1.2745 0.8671 0.9448
H34 H 1.2342 0.8072 0.9049
H35 H 1.1521 0.8696 0.9551
C29 C 1.2845(9) 0.9171(9) 0.7633(7)
H36 H 1.2605 0.9572 0.7210
H37 H 1.2959 0.8626 0.7497
H38 H 1.3520 0.9199 0.7796
C30 C 1.1521(10) 1.0455(10) 0.8657(8)
C31 C 1.0684(10) 1.0639(11) 0.9278(7)
H39 H 1.0767 1.0145 0.9612
H40 H 0.9965 1.0832 0.9080
H41 H 1.0783 1.1059 0.9541
C32 C 1.2603(11) 1.0543(11) 0.8857(9)
H42 H 1.2471 1.1089 0.8996
H43 H 1.3106 1.0457 0.8435
H44 H 1.2910 1.0139 0.9266
C33 C 1.1064(13) 1.1089(11) 0.7968(9)
H45 H 1.0352 1.1078 0.7866
H46 H 1.1549 1.0942 0.7544
H47 H 1.1011 1.1635 0.8070
Br2 Br 0.85023(10) 0.14933(7) 0.41134(8)
N3 N 0.8285(6) 0.5692(4) 0.3537(4)
H48 H 0.8914 0.5759 0.3447
N4 N 0.6758(5) 0.5038(5) 0.4882(4)
O4 O 0.6156(5) 0.8671(4) 0.4121(4)
O5 O 0.5412(4) 0.8783(4) 0.5522(3)
O6 O 0.5209(5) 0.7494(4) 0.6393(4)
C34 C 0.6810(6) 0.5659(6) 0.4436(5)
C35 C 0.7368(7) 0.5595(5) 0.3669(5)
C36 C 0.6776(8) 0.5430(6) 0.3052(5)
C37 C 0.5736(8) 0.5491(6) 0.3164(5)
H49 H 0.5443 0.5604 0.3638
C38 C 0.4988(8) 0.5405(7) 0.2652(6)
C39 C 0.4308(9) 0.5379(7) 0.2234(6)
C40 C 0.6433(6) 0.6491(5) 0.4706(5)
C41 C 0.6467(6) 0.7184(5) 0.4237(5)
H50 H 0.6714 0.7141 0.3744
C42 C 0.6117(6) 0.7957(6) 0.4528(6)
C43 C 0.5693(6) 0.8031(6) 0.5248(6)
C44 C 0.5636(7) 0.7340(7) 0.5706(5)
C45 C 0.5998(6) 0.6577(5) 0.5444(5)
H51 H 0.5959 0.6112 0.5753
C46 C 0.7187(7) 0.4215(5) 0.4687(4)
C47 C 0.6518(7) 0.3718(6) 0.4781(5)
H52 H 0.5796 0.3934 0.4953
C48 C 0.6919(8) 0.2910(6) 0.4620(5)
H53 H 0.6469 0.2581 0.4687
C49 C 0.7960(8) 0.2596(6) 0.4365(5)
C50 C 0.8659(7) 0.3043(5) 0.4286(5)
H54 H 0.9387 0.2810 0.4133
C51 C 0.8246(7) 0.3869(5) 0.4444(5)
H55 H 0.8706 0.4190 0.4381
C52 C 0.6633(8) 0.8610(6) 0.3397(6)
H56 H 0.7377 0.8246 0.3422
H57 H 0.6621 0.9148 0.3172
H58 H 0.6226 0.8392 0.3104
C53 C 0.4285(7) 0.9285(6) 0.5446(6)
H59 H 0.4109 0.9381 0.4930
H60 H 0.4167 0.9806 0.5634
H61 H 0.3825 0.9004 0.5722
C54 C 0.5089(11) 0.6822(8) 0.6880(6)
H62 H 0.4696 0.6543 0.6642
H63 H 0.4690 0.7021 0.7324
H64 H 0.5800 0.6442 0.7008
Si3 Si 0.7715(8) 0.4929(6) 0.2254(5)
Si4 Si 0.3274(7) 0.5195(5) 0.1694(4)
C55 C 0.709(2) 0.426(2) 0.1777(17)
H65 H 0.7655 0.3770 0.1656
H66 H 0.6750 0.4573 0.1330
H67 H 0.6549 0.4120 0.2106
C56 C 0.906(2) 0.439(3) 0.245(2)
H68 H 0.9197 0.4459 0.2946
H69 H 0.9531 0.4601 0.2103
H70 H 0.9208 0.3814 0.2404
C57 C 0.779(2) 0.579(2) 0.1522(16)
C58 C 0.851(3) 0.554(2) 0.0825(15)
H71 H 0.8317 0.5128 0.0615
H72 H 0.9267 0.5327 0.0957
H73 H 0.8406 0.6022 0.0467
C59 C 0.669(3) 0.623(2) 0.119(2)
H74 H 0.6278 0.6669 0.1482
H75 H 0.6290 0.5847 0.1189
H76 H 0.6785 0.6460 0.0690
C60 C 0.842(3) 0.627(2) 0.184(2)
H77 H 0.8860 0.6455 0.1447
H78 H 0.8892 0.5920 0.2217
H79 H 0.7917 0.6743 0.2047
C61 C 0.231(2) 0.472(2) 0.2192(18)
H80 H 0.2709 0.4198 0.2451
H81 H 0.1844 0.4638 0.1843
H82 H 0.1871 0.5080 0.2543
C62 C 0.429(3) 0.456(2) 0.0892(19)
H83 H 0.4913 0.4755 0.0802
H84 H 0.3903 0.4660 0.0442
H85 H 0.4537 0.3982 0.1058
C63 C 0.2612(19) 0.6261(15) 0.1159(13)
C64 C 0.334(3) 0.668(2) 0.0804(18)
H86 H 0.3378 0.6642 0.0279
H87 H 0.4052 0.6429 0.1003
H88 H 0.3062 0.7253 0.0893
C65 C 0.195(3) 0.616(2) 0.0558(17)
H89 H 0.2265 0.6296 0.0082
H90 H 0.1212 0.6532 0.0604
H91 H 0.1948 0.5603 0.0601
C66 C 0.186(6) 0.692(4) 0.167(4)
H92 H 0.1632 0.6642 0.2111
H93 H 0.1227 0.7267 0.1403
H94 H 0.2264 0.7258 0.1804
Si5? Si 0.7500(10) 0.5453(9) 0.2051(6)
Si6? Si 0.3618(9) 0.5394(8) 0.1361(5)
C67? C 0.651(3) 0.572(2) 0.128(2)
H95? H 0.6105 0.5339 0.1332
H96? H 0.6923 0.5684 0.0821
H97? H 0.6009 0.6276 0.1298
C68? C 0.775(3) 0.656(3) 0.179(2)
H98? H 0.7592 0.6750 0.1274
H99? H 0.8501 0.6492 0.1866
H100? H 0.7279 0.6952 0.2096
C69? C 0.857(2) 0.436(2) 0.1988(13)
C70? C 0.771(3) 0.3890(14) 0.2132(16)
H101? H 0.7966 0.3392 0.1890
H102? H 0.7024 0.4238 0.1938
H103? H 0.7626 0.3751 0.2657
C71? C 0.893(2) 0.455(2) 0.1145(13)
H104? H 0.9355 0.4040 0.0952
H105? H 0.9366 0.4910 0.1119
H106? H 0.8292 0.4813 0.0857
C72? C 0.956(2) 0.408(3) 0.252(2)
H107? H 0.9414 0.3725 0.2941
H108? H 0.9659 0.4554 0.2685
H109? H 1.0213 0.3776 0.2256
C73? C 0.388(3) 0.615(2) 0.0557(17)
H110? H 0.3355 0.6247 0.0181
H111? H 0.4606 0.5925 0.0349
H112? H 0.3807 0.6670 0.0740
C74? C 0.400(2) 0.4307(17) 0.1160(17)
H113? H 0.3753 0.3989 0.1564
H114? H 0.4785 0.4082 0.1099
H115? H 0.3669 0.4285 0.0710
C75? C 0.217(3) 0.576(2) 0.1597(16)
C76? C 0.194(3) 0.519(2) 0.227(2)
H116? H 0.1634 0.5500 0.2677
H117? H 0.2604 0.4756 0.2408
H118? H 0.1420 0.4940 0.2129
C77? C 0.180(3) 0.666(2) 0.181(2)
H119? H 0.1036 0.6914 0.1731
H120? H 0.2209 0.6966 0.1514
H121? H 0.1938 0.6643 0.2329
C78? C 0.162(2) 0.561(2) 0.0927(17)
H122? H 0.1473 0.5095 0.1035
H123? H 0.2101 0.5586 0.0494
H124? H 0.0946 0.6053 0.0836
loop_
_geom_bond_atom_site_label_1
_geom_bond_atom_site_label_2
_geom_bond_site_symmetry_1
_geom_bond_site_symmetry_2
Br1 C16 1_555 1_555
Si1 C3 1_555 1_555
Si2 C6 1_555 1_555
N1 H1 1_555 1_555
N2 C1 1_555 1_555
O1 C9 1_555 1_555
O2 C10 1_555 1_555
O3 C11 1_555 1_555
C1 C2 1_555 1_555
C2 N1 1_555 1_555
C3 C2 1_555 1_555
C4 C3 1_555 1_555
H2 C4 1_555 1_555
C5 C4 1_555 1_555
C6 C5 1_555 1_555
C7 C1 1_555 1_555
C8 C7 1_555 1_555
H3 C8 1_555 1_555
C9 C8 1_555 1_555
C10 C9 1_555 1_555
C11 C10 1_555 1_555
C12 C7 1_555 1_555
H4 C12 1_555 1_555
C13 N2 1_555 1_555
C14 C13 1_555 1_555
H5 C14 1_555 1_555
C15 C14 1_555 1_555
H6 C15 1_555 1_555
C16 C15 1_555 1_555
C17 C16 1_555 1_555
H7 C17 1_555 1_555
C18 C13 1_555 1_555
H8 C18 1_555 1_555
C19 O1 1_555 1_555
H9 C19 1_555 1_555
H10 C19 1_555 1_555
H11 C19 1_555 1_555
C20 O2 1_555 1_555
H12 C20 1_555 1_555
H13 C20 1_555 1_555
H14 C20 1_555 1_555
C21 O3 1_555 1_555
H15 C21 1_555 1_555
H16 C21 1_555 1_555
H17 C21 1_555 1_555
C22 Si1 1_555 1_555
H18 C22 1_555 1_555
H19 C22 1_555 1_555
H20 C22 1_555 1_555
C23 Si1 1_555 1_555
H21 C23 1_555 1_555
H22 C23 1_555 1_555
H23 C23 1_555 1_555
C24 Si1 1_555 1_555
C25 C24 1_555 1_555
H24 C25 1_555 1_555
H25 C25 1_555 1_555
H26 C25 1_555 1_555
C26 C24 1_555 1_555
H27 C26 1_555 1_555
H28 C26 1_555 1_555
H29 C26 1_555 1_555
C27 C24 1_555 1_555
H30 C27 1_555 1_555
H31 C27 1_555 1_555
H32 C27 1_555 1_555
C28 Si2 1_555 1_555
H33 C28 1_555 1_555
H34 C28 1_555 1_555
H35 C28 1_555 1_555
C29 Si2 1_555 1_555
H36 C29 1_555 1_555
H37 C29 1_555 1_555
H38 C29 1_555 1_555
C30 Si2 1_555 1_555
C31 C30 1_555 1_555
H39 C31 1_555 1_555
H40 C31 1_555 1_555
H41 C31 1_555 1_555
C32 C30 1_555 1_555
H42 C32 1_555 1_555
H43 C32 1_555 1_555
H44 C32 1_555 1_555
C33 C30 1_555 1_555
H45 C33 1_555 1_555
H46 C33 1_555 1_555
H47 C33 1_555 1_555
Br2 C49 1_555 1_555
N3 H48 1_555 1_555
N4 C34 1_555 1_555
O4 C42 1_555 1_555
O5 C43 1_555 1_555
O6 C44 1_555 1_555
C34 C35 1_555 1_555
C35 N3 1_555 1_555
C36 C35 1_555 1_555
C37 C36 1_555 1_555
H49 C37 1_555 1_555
C38 C37 1_555 1_555
C39 C38 1_555 1_555
C40 C34 1_555 1_555
C41 C40 1_555 1_555
H50 C41 1_555 1_555
C42 C41 1_555 1_555
C43 C42 1_555 1_555
C44 C43 1_555 1_555
C45 C40 1_555 1_555
H51 C45 1_555 1_555
C46 N4 1_555 1_555
C47 C46 1_555 1_555
H52 C47 1_555 1_555
C48 C47 1_555 1_555
H53 C48 1_555 1_555
C49 C48 1_555 1_555
C50 C49 1_555 1_555
H54 C50 1_555 1_555
C51 C46 1_555 1_555
H55 C51 1_555 1_555
C52 O4 1_555 1_555
H56 C52 1_555 1_555
H57 C52 1_555 1_555
H58 C52 1_555 1_555
C53 O5 1_555 1_555
H59 C53 1_555 1_555
H60 C53 1_555 1_555
H61 C53 1_555 1_555
C54 O6 1_555 1_555
H62 C54 1_555 1_555
H63 C54 1_555 1_555
H64 C54 1_555 1_555
Si3 C36 1_555 1_555
Si4 C39 1_555 1_555
C55 Si3 1_555 1_555
H65 C55 1_555 1_555
H66 C55 1_555 1_555
H67 C55 1_555 1_555
C56 Si3 1_555 1_555
H68 C56 1_555 1_555
H69 C56 1_555 1_555
H70 C56 1_555 1_555
C57 Si3 1_555 1_555
C58 C57 1_555 1_555
H71 C58 1_555 1_555
H72 C58 1_555 1_555
H73 C58 1_555 1_555
C59 C57 1_555 1_555
H74 C59 1_555 1_555
H75 C59 1_555 1_555
H76 C59 1_555 1_555
C60 C57 1_555 1_555
H77 C60 1_555 1_555
H78 C60 1_555 1_555
H79 C60 1_555 1_555
C61 Si4 1_555 1_555
H80 C61 1_555 1_555
H81 C61 1_555 1_555
H82 C61 1_555 1_555
C62 Si4 1_555 1_555
H83 C62 1_555 1_555
H84 C62 1_555 1_555
H85 C62 1_555 1_555
C63 Si4 1_555 1_555
C64 C63 1_555 1_555
H86 C64 1_555 1_555
H87 C64 1_555 1_555
H88 C64 1_555 1_555
C65 C63 1_555 1_555
H89 C65 1_555 1_555
H90 C65 1_555 1_555
H91 C65 1_555 1_555
C66 C63 1_555 1_555
H92 C66 1_555 1_555
H93 C66 1_555 1_555
H94 C66 1_555 1_555
C11 C12 1_555 1_555
C17 C18 1_555 1_555
C44 C45 1_555 1_555
C50 C51 1_555 1_555

#END
