
#######################################################################
#
#                 Cambridge Crystallographic Data Centre
#                                CCDC 
#
#######################################################################
#
# If this CIF has been generated from an entry in the Cambridge 
# Structural Database, then it will include bibliographic, chemical, 
# crystal, experimental, refinement or atomic coordinate data resulting 
# from the CCDC's data processing and validation procedures.
#
#######################################################################

data_LOKFAU
_chemical_formula_moiety         'C11 H11 Br1 N4 O1 S1'
_chemical_name_systematic        
4-((5-bromo-2-hydroxybenzylidene)amino)-5-ethyl-2,4-dihydro-3H-1,2,4-triazole-3-thione
_symmetry_cell_setting           monoclinic
_symmetry_space_group_name_H-M   'P 21'
_symmetry_Int_Tables_number      4
_space_group_name_Hall           'P 2yb'
loop_
_symmetry_equiv_pos_site_id
_symmetry_equiv_pos_as_xyz
1 x,y,z
2 -x,1/2+y,-z
_cell_length_a                   6.323(4)
_cell_length_b                   16.459(11)
_cell_length_c                   12.461(8)
_cell_angle_alpha                90
_cell_angle_beta                 90.330(9)
_cell_angle_gamma                90
_cell_volume                     1296.8
_exptl_crystal_colour            yellow
_exptl_crystal_description       block
_cell_formula_units_Z            4
loop_
_atom_site_label
_atom_site_type_symbol
_atom_site_fract_x
_atom_site_fract_y
_atom_site_fract_z
Br1 Br 0.19835(6) 0.61341(2) -0.42475(3)
S1 S 0.10279(14) 0.43885(6) 0.11498(7)
O1 O 0.8327(4) 0.49113(17) -0.10062(19)
H1 H 0.8001 0.5035 -0.0391
N1 N 0.2852(5) 0.50342(19) 0.2940(2)
H2 H 0.1906 0.4848 0.3368
N2 N 0.4568(5) 0.5484(2) 0.3291(2)
N3 N 0.4567(4) 0.53213(17) 0.1540(2)
N4 N 0.5457(4) 0.53192(18) 0.0511(2)
C1 C 0.2787(5) 0.4913(2) 0.1880(3)
C2 C 0.5590(5) 0.5653(2) 0.2428(3)
C3 C 0.7562(6) 0.6128(3) 0.2360(3)
H3 H 0.7331 0.6594 0.1898
H4 H 0.8655 0.5795 0.2039
C4 C 0.8317(7) 0.6420(2) 0.3461(3)
H5 H 0.7232 0.6744 0.3786
H6 H 0.9574 0.6741 0.3380
H7 H 0.8619 0.5960 0.3909
C5 C 0.4165(6) 0.5478(2) -0.0249(3)
H8 H 0.2777 0.5616 -0.0087
C6 C 0.4824(5) 0.5449(2) -0.1370(3)
C7 C 0.6786(5) 0.5157(2) -0.1695(3)
C8 C 0.7249(6) 0.5113(2) -0.2784(3)
H9 H 0.8531 0.4893 -0.3004
C9 C 0.5816(6) 0.5393(2) -0.3542(3)
H10 H 0.6142 0.5370 -0.4268
C10 C 0.3887(6) 0.5707(2) -0.3211(3)
C11 C 0.3376(6) 0.5723(2) -0.2137(3)
H11 H 0.2063 0.5917 -0.1923
Br2 Br 0.85545(7) 0.24611(3) 0.99904(3)
S2 S 0.93822(14) 0.42617(6) 0.46355(7)
O2 O 0.2087(4) 0.36500(17) 0.6796(2)
H12 H 0.2556 0.3672 0.6184
N5 N 0.7520(5) 0.36383(19) 0.2834(2)
H13 H 0.8466 0.3827 0.2409
N6 N 0.5811(5) 0.3204(2) 0.2478(2)
N7 N 0.5821(4) 0.33383(18) 0.4232(2)
N8 N 0.4955(4) 0.33164(19) 0.5266(2)
C12 C 0.7603(5) 0.3746(2) 0.3909(3)
C13 C 0.4769(5) 0.3032(2) 0.3348(3)
C14 C 0.2795(5) 0.2556(2) 0.3413(3)
H14 H 0.1713 0.2884 0.3750
H15 H 0.3037 0.2083 0.3863
C15 C 0.1996(6) 0.2275(2) 0.2317(3)
H16 H 0.1887 0.2735 0.1845
H17 H 0.0630 0.2028 0.2393
H18 H 0.2967 0.1887 0.2023
C16 C 0.6252(6) 0.3124(2) 0.6007(3)
H19 H 0.7633 0.2985 0.5832
C17 C 0.5601(6) 0.3117(2) 0.7123(3)
C18 C 0.3609(6) 0.3392(2) 0.7470(3)
C19 C 0.3173(6) 0.3417(2) 0.8567(3)
H20 H 0.1881 0.3620 0.8797
C20 C 0.4612(6) 0.3147(2) 0.9307(3)
H21 H 0.4296 0.3165 1.0034
C21 C 0.6543(6) 0.2846(2) 0.8971(3)
C22 C 0.7078(6) 0.2850(2) 0.7897(3)
H22 H 0.8411 0.2675 0.7685
loop_
_geom_bond_atom_site_label_1
_geom_bond_atom_site_label_2
_geom_bond_site_symmetry_1
_geom_bond_site_symmetry_2
Br1 C10 1_555 1_555
S1 C1 1_555 1_555
O1 H1 1_555 1_555
N1 H2 1_555 1_555
N2 N1 1_555 1_555
N3 N4 1_555 1_555
N4 C5 1_555 1_555
C1 N1 1_555 1_555
C2 N2 1_555 1_555
C3 C2 1_555 1_555
H3 C3 1_555 1_555
H4 C3 1_555 1_555
C4 C3 1_555 1_555
H5 C4 1_555 1_555
H6 C4 1_555 1_555
H7 C4 1_555 1_555
C5 H8 1_555 1_555
C6 C5 1_555 1_555
C7 O1 1_555 1_555
C8 C7 1_555 1_555
H9 C8 1_555 1_555
C9 C8 1_555 1_555
H10 C9 1_555 1_555
C10 C9 1_555 1_555
C11 C6 1_555 1_555
H11 C11 1_555 1_555
Br2 C21 1_555 1_555
S2 C12 1_555 1_555
O2 H12 1_555 1_555
N5 H13 1_555 1_555
N6 N5 1_555 1_555
N7 N8 1_555 1_555
N8 C16 1_555 1_555
C12 N5 1_555 1_555
C13 N6 1_555 1_555
C14 C13 1_555 1_555
H14 C14 1_555 1_555
H15 C14 1_555 1_555
C15 C14 1_555 1_555
H16 C15 1_555 1_555
H17 C15 1_555 1_555
H18 C15 1_555 1_555
C16 H19 1_555 1_555
C17 C16 1_555 1_555
C18 O2 1_555 1_555
C19 C18 1_555 1_555
H20 C19 1_555 1_555
C20 C19 1_555 1_555
H21 C20 1_555 1_555
C21 C20 1_555 1_555
C22 C17 1_555 1_555
H22 C22 1_555 1_555
N3 C1 1_555 1_555
N3 C2 1_555 1_555
C6 C7 1_555 1_555
C10 C11 1_555 1_555
N7 C12 1_555 1_555
N7 C13 1_555 1_555
C17 C18 1_555 1_555
C21 C22 1_555 1_555

#END
