
#######################################################################
#
#                 Cambridge Crystallographic Data Centre
#                                CCDC 
#
#######################################################################
#
# If this CIF has been generated from an entry in the Cambridge 
# Structural Database, then it will include bibliographic, chemical, 
# crystal, experimental, refinement or atomic coordinate data resulting 
# from the CCDC's data processing and validation procedures.
#
#######################################################################

data_LOKGEZ
_chemical_formula_moiety         'C25 H24 N4 O2'
_chemical_name_systematic        
2,2'-((4-(2,2':6',2''-Terpyridin-4'-yl)phenyl)imino)diethanol
_symmetry_cell_setting           tetragonal
_symmetry_space_group_name_H-M   'I 41 c d'
_symmetry_Int_Tables_number      110
_space_group_name_Hall           'I 4bw -2c'
loop_
_symmetry_equiv_pos_site_id
_symmetry_equiv_pos_as_xyz
1 x,y,z
2 1/2-x,1/2-y,1/2+z
3 -y,1/2+x,1/4+z
4 1/2+y,-x,3/4+z
5 x,-y,1/2+z
6 1/2-x,1/2+y,z
7 -y,1/2-x,3/4+z
8 1/2+y,x,1/4+z
9 1/2+x,1/2+y,1/2+z
10 -x,-y,z
11 1/2-y,x,3/4+z
12 y,1/2-x,1/4+z
13 1/2+x,1/2-y,z
14 -x,y,1/2+z
15 1/2-y,-x,1/4+z
16 y,1/2+x,3/4+z
_cell_length_a                   11.9604(9)
_cell_length_b                   11.9604(9)
_cell_length_c                   29.871(4)
_cell_angle_alpha                90
_cell_angle_beta                 90
_cell_angle_gamma                90
_cell_volume                     4273.08
_exptl_crystal_colour            yellow
_exptl_crystal_description       block
_cell_formula_units_Z            8
loop_
_atom_site_label
_atom_site_type_symbol
_atom_site_fract_x
_atom_site_fract_y
_atom_site_fract_z
N1 N 0.5000 0.0000 0.20072(18)
N2 N 0.2669(3) 0.1831(3) 0.21870(15)
N3 N 0.5000 0.0000 0.4860(2)
O1 O 0.320(3) 0.206(3) 0.5412(9)
H1 H 0.2821 0.2325 0.5208
C1 C 0.1890(4) 0.2386(5) 0.1943(2)
H2 H 0.1398 0.2862 0.2091
C2 C 0.1799(5) 0.2274(5) 0.1488(2)
H3 H 0.1254 0.2669 0.1332
C3 C 0.2501(5) 0.1591(6) 0.1269(2)
H4 H 0.2459 0.1515 0.0960
C4 C 0.3278(4) 0.1010(4) 0.15091(18)
H5 H 0.3764 0.0524 0.1364
C5 C 0.3345(4) 0.1143(4) 0.19668(16)
C6 C 0.4221(3) 0.0551(3) 0.22375(14)
C7 C 0.4186(3) 0.0552(3) 0.27029(14)
H6 H 0.3612 0.0926 0.2850
C8 C 0.5000 0.0000 0.2948(2)
C9 C 0.5000 0.0000 0.3445(2)
C10 C 0.4313(4) 0.0692(4) 0.36912(15)
H7 H 0.3841 0.1181 0.3540
C11 C 0.4298(4) 0.0690(4) 0.41481(16)
H8 H 0.3806 0.1161 0.4298
C12 C 0.5000 0.0000 0.4393(2)
C13 C 0.3891(13) 0.0354(13) 0.5084(6)
H9 H 0.3274 0.0341 0.4873
H10 H 0.3713 -0.0120 0.5338
C14 C 0.4164(18) 0.1527(15) 0.5229(5)
H11 H 0.4752 0.1509 0.5453
H12 H 0.4433 0.1952 0.4975
N2I N 0.7331(3) -0.1831(3) 0.21870(15)
O1I O 0.680(3) -0.206(3) 0.5412(9)
H1I H 0.7179 -0.2325 0.5208
C1I C 0.8110(4) -0.2386(5) 0.1943(2)
H2I H 0.8602 -0.2862 0.2091
C2I C 0.8201(5) -0.2274(5) 0.1488(2)
H3I H 0.8746 -0.2669 0.1332
C3I C 0.7499(5) -0.1591(6) 0.1269(2)
H4I H 0.7541 -0.1515 0.0960
C4I C 0.6722(4) -0.1010(4) 0.15091(18)
H5I H 0.6236 -0.0524 0.1364
C5I C 0.6655(4) -0.1143(4) 0.19668(16)
C6I C 0.5779(3) -0.0551(3) 0.22375(14)
C7I C 0.5814(3) -0.0552(3) 0.27029(14)
H6I H 0.6388 -0.0926 0.2850
C10I C 0.5687(4) -0.0692(4) 0.36912(15)
H7I H 0.6159 -0.1181 0.3540
C11I C 0.5702(4) -0.0690(4) 0.41481(16)
H8I H 0.6194 -0.1161 0.4298
C13I C 0.6109(13) -0.0354(13) 0.5084(6)
H9I H 0.6726 -0.0341 0.4873
H10I H 0.6287 0.0120 0.5338
C14I C 0.5836(18) -0.1527(15) 0.5229(5)
H11I H 0.5248 -0.1509 0.5453
H12I H 0.5567 -0.1952 0.4975
O2? O 0.314(5) 0.163(4) 0.5514(13)
H13? H 0.2724 0.1979 0.5348
C15? C 0.473(2) 0.1090(19) 0.5091(7)
H14? H 0.4658 0.1708 0.4883
H15? H 0.5265 0.1276 0.5323
C16? C 0.3613(19) 0.072(3) 0.5279(10)
H16? H 0.3119 0.0488 0.5038
H17? H 0.3716 0.0086 0.5479
loop_
_geom_bond_atom_site_label_1
_geom_bond_atom_site_label_2
_geom_bond_site_symmetry_1
_geom_bond_site_symmetry_2
N1 C6 1_555 1_555
N2 C1 1_555 1_555
N3 C12 1_555 1_555
O1 H1 1_555 1_555
C1 H2 1_555 1_555
C2 C1 1_555 1_555
H3 C2 1_555 1_555
C3 C2 1_555 1_555
H4 C3 1_555 1_555
C4 C3 1_555 1_555
H5 C4 1_555 1_555
C5 N2 1_555 1_555
C6 C5 1_555 1_555
C7 C6 1_555 1_555
H6 C7 1_555 1_555
C8 C7 1_555 1_555
C9 C8 1_555 1_555
C10 C9 1_555 1_555
H7 C10 1_555 1_555
C11 C10 1_555 1_555
H8 C11 1_555 1_555
C12 C11 1_555 1_555
C13 N3 1_555 1_555
H9 C13 1_555 1_555
H10 C13 1_555 1_555
C14 O1 1_555 1_555
H11 C14 1_555 1_555
H12 C14 1_555 1_555
N2I C1I 1_555 1_555
O1I H1I 1_555 1_555
C1I H2I 1_555 1_555
C2I C1I 1_555 1_555
H3I C2I 1_555 1_555
C3I C2I 1_555 1_555
H4I C3I 1_555 1_555
C4I C3I 1_555 1_555
H5I C4I 1_555 1_555
C5I N2I 1_555 1_555
C6I N1 1_555 1_555
C7I C8 1_555 1_555
H6I C7I 1_555 1_555
C10I C9 1_555 1_555
H7I C10I 1_555 1_555
C11I C12 1_555 1_555
H8I C11I 1_555 1_555
C13I N3 1_555 1_555
H9I C13I 1_555 1_555
H10I C13I 1_555 1_555
C14I O1I 1_555 1_555
H11I C14I 1_555 1_555
H12I C14I 1_555 1_555
C4 C5 1_555 1_555
C13 C14 1_555 1_555
C4I C5I 1_555 1_555
C5I C6I 1_555 1_555
C6I C7I 1_555 1_555
C10I C11I 1_555 1_555
C13I C14I 1_555 1_555

#END
