
#######################################################################
#
#                 Cambridge Crystallographic Data Centre
#                                CCDC 
#
#######################################################################
#
# If this CIF has been generated from an entry in the Cambridge 
# Structural Database, then it will include bibliographic, chemical, 
# crystal, experimental, refinement or atomic coordinate data resulting 
# from the CCDC's data processing and validation procedures.
#
#######################################################################

data_LOKGAV
_chemical_compound_source        'whole plants, Inula wissmanniana'
_chemical_name_common            
'(1R,5S,7R,10R)-1-Hydroxy-2-oxoeudesma-3,11(13)-dien-12-oic acid'
_chemical_formula_moiety         'C15 H20 O4'
_chemical_name_systematic        
'2-(5-Hydroxy-4a,8-dimethyl-6-oxo-1,2,3,4,4a,5,6,8a-octahydronaphthalen-2-yl)acrylic acid'
_chemical_properties_biological  
'tested for NO inhibition in RAW264.7 macrophages and cytotoxicity in HepG2, PC-3, and MGC-803 tumor cells'
_symmetry_cell_setting           monoclinic
_symmetry_space_group_name_H-M   'P 21'
_symmetry_Int_Tables_number      4
_space_group_name_Hall           'P 2yb'
loop_
_symmetry_equiv_pos_site_id
_symmetry_equiv_pos_as_xyz
1 x,y,z
2 -x,1/2+y,-z
_cell_length_a                   8.02090(10)
_cell_length_b                   9.41510(10)
_cell_length_c                   8.86240(10)
_cell_angle_alpha                90
_cell_angle_beta                 93.2050(10)
_cell_angle_gamma                90
_cell_volume                     668.22
_exptl_crystal_colour            colorless
_exptl_crystal_description       block
_cell_formula_units_Z            2
_exptl_crystal_recrystallization_method dichloromethane
loop_
_atom_site_label
_atom_site_type_symbol
_atom_site_fract_x
_atom_site_fract_y
_atom_site_fract_z
O1 O 0.34462(14) 0.72901(13) 0.20307(14)
H1 H 0.3205 0.8028 0.2504
O2 O 0.51017(12) 0.69115(12) 0.41017(12)
O3 O 1.27506(13) -0.00239(12) 0.27135(14)
O4 O 1.16073(13) 0.24484(12) 0.46430(13)
H2 H 1.2564 0.2202 0.4980
C1 C 0.66939(17) 0.28925(16) 0.24563(17)
H3 H 0.6557 0.2728 0.1353
H4 H 0.5749 0.2430 0.2936
C2 C 0.66636(17) 0.44923(15) 0.27734(16)
H5 H 0.6693 0.4627 0.3894
C3 C 0.82109(18) 0.52416(15) 0.21772(17)
H6 H 0.8133 0.5227 0.1059
H7 H 0.8221 0.6247 0.2506
C4 C 0.98435(16) 0.45278(15) 0.27482(17)
H8 H 0.9992 0.4653 0.3857
H9 H 1.0792 0.4999 0.2283
C5 C 0.98683(17) 0.29286(15) 0.23728(16)
C6 C 1.14630(17) 0.22277(16) 0.30466(17)
H10 H 1.2458 0.2638 0.2572
C7 C 1.14277(18) 0.06205(16) 0.28263(17)
C8 C 0.98282(18) -0.00932(15) 0.28523(17)
H11 H 0.9798 -0.1100 0.2794
C9 C 0.83846(17) 0.06199(15) 0.29555(16)
C10 C 0.83485(16) 0.22254(15) 0.30737(15)
H12 H 0.8447 0.2452 0.4177
C11 C 0.67851(18) -0.01727(16) 0.30448(19)
H13 H 0.6993 -0.1192 0.2936
H14 H 0.5993 0.0144 0.2232
H15 H 0.6317 0.0008 0.4025
C12 C 0.98634(18) 0.27107(16) 0.06477(17)
H16 H 1.0878 0.3126 0.0265
H17 H 0.8880 0.3175 0.0162
H18 H 0.9829 0.1692 0.0419
C13 C 0.50938(17) 0.52054(15) 0.20994(16)
C14 C 0.45683(16) 0.65383(15) 0.28560(17)
C15 C 0.42057(18) 0.47403(17) 0.08921(18)
H19 H 0.3249 0.5253 0.0519
H20 H 0.4526 0.3895 0.0400
loop_
_geom_bond_atom_site_label_1
_geom_bond_atom_site_label_2
_geom_bond_site_symmetry_1
_geom_bond_site_symmetry_2
O1 H1 1_555 1_555
O2 C14 1_555 1_555
O3 C7 1_555 1_555
O4 H2 1_555 1_555
C1 H3 1_555 1_555
H4 C1 1_555 1_555
C2 C1 1_555 1_555
H5 C2 1_555 1_555
C3 C2 1_555 1_555
H6 C3 1_555 1_555
H7 C3 1_555 1_555
C4 C3 1_555 1_555
H8 C4 1_555 1_555
H9 C4 1_555 1_555
C5 C4 1_555 1_555
C6 O4 1_555 1_555
H10 C6 1_555 1_555
C7 C6 1_555 1_555
C8 C7 1_555 1_555
H11 C8 1_555 1_555
C9 C8 1_555 1_555
C10 C1 1_555 1_555
H12 C10 1_555 1_555
C11 C9 1_555 1_555
H13 C11 1_555 1_555
H14 C11 1_555 1_555
H15 C11 1_555 1_555
C12 C5 1_555 1_555
H16 C12 1_555 1_555
H17 C12 1_555 1_555
H18 C12 1_555 1_555
C13 C2 1_555 1_555
C14 O1 1_555 1_555
C15 C13 1_555 1_555
H19 C15 1_555 1_555
H20 C15 1_555 1_555
C5 C6 1_555 1_555
C5 C10 1_555 1_555
C9 C10 1_555 1_555
C13 C14 1_555 1_555

#END
