
#######################################################################
#
#                 Cambridge Crystallographic Data Centre
#                                CCDC 
#
#######################################################################
#
# If this CIF has been generated from an entry in the Cambridge 
# Structural Database, then it will include bibliographic, chemical, 
# crystal, experimental, refinement or atomic coordinate data resulting 
# from the CCDC's data processing and validation procedures.
#
#######################################################################

data_LOKGID
_chemical_formula_moiety         'C37 H25 N3'
_chemical_name_systematic        
4'-(4-(2-(9-Anthryl)vinyl)phenyl)-2,2':6',2''-terpyridine
_symmetry_cell_setting           monoclinic
_symmetry_space_group_name_H-M   'P 21/c'
_symmetry_Int_Tables_number      14
_space_group_name_Hall           '-P 2ybc'
loop_
_symmetry_equiv_pos_site_id
_symmetry_equiv_pos_as_xyz
1 x,y,z
2 -x,1/2+y,1/2-z
3 -x,-y,-z
4 x,1/2-y,1/2+z
_cell_length_a                   16.830(4)
_cell_length_b                   19.243(5)
_cell_length_c                   8.1832(19)
_cell_angle_alpha                90
_cell_angle_beta                 90.00
_cell_angle_gamma                90
_cell_volume                     2650.21
_exptl_crystal_colour            yellow
_exptl_crystal_description       block
_cell_formula_units_Z            4
loop_
_atom_site_label
_atom_site_type_symbol
_atom_site_fract_x
_atom_site_fract_y
_atom_site_fract_z
C1 C 0.4120(3) 0.3813(2) 0.8544(5)
C2 C 0.8697(3) -0.0774(2) 0.3134(6)
C3 C 0.5186(3) 0.3261(2) 0.6952(5)
C4 C 0.4485(3) 0.3207(2) 0.7886(5)
N1 N 0.9258(2) -0.10025(16) 0.4147(5)
C5 C 0.9343(2) -0.0681(2) 0.5590(6)
C6 C 0.5162(3) 0.4531(3) 0.7290(5)
C7 C 0.8604(3) -0.1125(2) 0.1535(5)
C8 C 0.8278(2) 0.0113(2) 0.5040(6)
C9 C 0.5515(3) 0.3917(3) 0.6611(5)
N2 N 0.8071(2) -0.08638(18) 0.0515(5)
C10 C 0.7748(2) 0.0699(2) 0.5521(5)
C11 C 0.8855(2) -0.0136(2) 0.6084(5)
H1 H 0.8919 0.0060 0.7115
C12 C 0.4481(2) 0.4454(2) 0.8247(5)
H2 H 0.4257 0.4850 0.8710
C13 C 0.8197(2) -0.0216(2) 0.3554(5)
H3 H 0.7809 -0.0068 0.2823
C14 C 0.4106(3) 0.2560(2) 0.8241(5)
H4 H 0.4329 0.2153 0.7835
C15 C 0.9962(3) -0.0939(3) 0.6705(7)
C16 C 0.3425(3) 0.3739(2) 0.9531(5)
H5 H 0.3197 0.4132 0.9996
C17 C 0.6782(2) 0.1836(2) 0.6417(5)
N3 N 1.0062(2) -0.05835(19) 0.8090(6)
C18 C 0.7524(3) 0.1744(2) 0.7081(5)
H6 H 0.7710 0.2063 0.7843
C19 C 0.9077(3) -0.1702(2) 0.1184(6)
H7 H 0.9462 -0.1857 0.1912
C20 C 0.5591(2) 0.2617(2) 0.6424(5)
H8 H 0.5322 0.2317 0.5726
C21 C 0.8399(3) -0.1775(3) -0.1359(6)
H9 H 0.8313 -0.1989 -0.2363
C22 C 0.6995(2) 0.07838(19) 0.4880(4)
H10 H 0.6807 0.0463 0.4123
C23 C 0.6139(3) 0.5266(2) 0.6032(6)
H11 H 0.6359 0.5703 0.5857
C24 C 0.6511(2) 0.1334(2) 0.5337(5)
H12 H 0.6000 0.1367 0.4913
C25 C 0.6303(2) 0.2451(2) 0.6888(5)
H13 H 0.6545 0.2757 0.7611
C26 C 0.6182(3) 0.4020(2) 0.5585(5)
H14 H 0.6421 0.3636 0.5097
C27 C 0.6484(3) 0.4666(3) 0.5294(5)
H15 H 0.6920 0.4716 0.4605
C28 C 0.8002(2) 0.1188(2) 0.6645(5)
H16 H 0.8502 0.1143 0.7116
C29 C 0.7979(2) -0.1194(3) -0.0907(6)
H17 H 0.7606 -0.1020 -0.1639
C30 C 0.5503(3) 0.5194(2) 0.6971(5)
H18 H 0.5273 0.5587 0.7433
C31 C 1.0426(3) -0.1499(3) 0.6279(6)
H19 H 1.0351 -0.1732 0.5295
C32 C 0.3097(3) 0.3121(3) 0.9799(6)
H20 H 0.2638 0.3087 1.0428
C33 C 1.0635(3) -0.0789(3) 0.9116(6)
H21 H 1.0710 -0.0544 1.0084
C34 C 0.3442(3) 0.2516(3) 0.9133(6)
H22 H 0.3208 0.2085 0.9316
C35 C 0.8949(3) -0.2029(2) -0.0277(7)
H23 H 0.9238 -0.2426 -0.0537
C36 C 1.1117(3) -0.1352(3) 0.8783(7)
H24 H 1.1509 -0.1487 0.9518
C37 C 1.1009(3) -0.1703(3) 0.7374(8)
H25 H 1.1329 -0.2084 0.7135
loop_
_geom_bond_atom_site_label_1
_geom_bond_atom_site_label_2
_geom_bond_site_symmetry_1
_geom_bond_site_symmetry_2
C1 C4 1_555 1_555
C2 N1 1_555 1_555
C3 C4 1_555 1_555
C4 C14 1_555 1_555
N1 C5 1_555 1_555
C5 C11 1_555 1_555
C6 C9 1_555 1_555
C7 C2 1_555 1_555
C8 C10 1_555 1_555
C9 C3 1_555 1_555
N2 C7 1_555 1_555
C10 C22 1_555 1_555
C11 C8 1_555 1_555
H1 C11 1_555 1_555
C12 C1 1_555 1_555
H2 C12 1_555 1_555
C13 C2 1_555 1_555
H3 C13 1_555 1_555
C14 H4 1_555 1_555
C15 C5 1_555 1_555
C16 C1 1_555 1_555
H5 C16 1_555 1_555
C17 C18 1_555 1_555
N3 C15 1_555 1_555
C18 H6 1_555 1_555
C19 C7 1_555 1_555
H7 C19 1_555 1_555
C20 C3 1_555 1_555
H8 C20 1_555 1_555
C21 H9 1_555 1_555
C22 H10 1_555 1_555
C23 H11 1_555 1_555
C24 C17 1_555 1_555
H12 C24 1_555 1_555
C25 C17 1_555 1_555
H13 C25 1_555 1_555
C26 C9 1_555 1_555
H14 C26 1_555 1_555
C27 C23 1_555 1_555
H15 C27 1_555 1_555
C28 C10 1_555 1_555
H16 C28 1_555 1_555
C29 N2 1_555 1_555
H17 C29 1_555 1_555
C30 C6 1_555 1_555
H18 C30 1_555 1_555
C31 C15 1_555 1_555
H19 C31 1_555 1_555
C32 C16 1_555 1_555
H20 C32 1_555 1_555
C33 N3 1_555 1_555
H21 C33 1_555 1_555
C34 C14 1_555 1_555
H22 C34 1_555 1_555
C35 C19 1_555 1_555
H23 C35 1_555 1_555
C36 C33 1_555 1_555
H24 C36 1_555 1_555
C37 C31 1_555 1_555
H25 C37 1_555 1_555
C6 C12 1_555 1_555
C8 C13 1_555 1_555
C18 C28 1_555 1_555
C20 C25 1_555 1_555
C21 C29 1_555 1_555
C21 C35 1_555 1_555
C22 C24 1_555 1_555
C23 C30 1_555 1_555
C26 C27 1_555 1_555
C32 C34 1_555 1_555
C36 C37 1_555 1_555

#END
