
#######################################################################
#
#                 Cambridge Crystallographic Data Centre
#                                CCDC 
#
#######################################################################
#
# If this CIF has been generated from an entry in the Cambridge 
# Structural Database, then it will include bibliographic, chemical, 
# crystal, experimental, refinement or atomic coordinate data resulting 
# from the CCDC's data processing and validation procedures.
#
#######################################################################

data_LOKHOK01
_chemical_formula_moiety         'C12 H24 O6,C7 H10 N1 O1 1+,Cl1 O4 1-'
_chemical_name_systematic        
'2-Methoxyanilinium perchlorate 1,4,7,10,13,16-hexaoxacyclo-octadecane'
_symmetry_cell_setting           triclinic
_symmetry_space_group_name_H-M   'P -1'
_symmetry_Int_Tables_number      2
_space_group_name_Hall           '-P 1'
loop_
_symmetry_equiv_pos_site_id
_symmetry_equiv_pos_as_xyz
1 x,y,z
2 -x,-y,-z
_cell_length_a                   9.745(4)
_cell_length_b                   10.574(4)
_cell_length_c                   12.913(4)
_cell_angle_alpha                68.075(2)
_cell_angle_beta                 73.351(2)
_cell_angle_gamma                89.407(4)
_cell_volume                     1175.61
_exptl_crystal_colour            colorless
_exptl_crystal_description       block
_cell_formula_units_Z            2
loop_
_atom_site_label
_atom_site_type_symbol
_atom_site_fract_x
_atom_site_fract_y
_atom_site_fract_z
Cl1 Cl 0.87760(3) 0.64530(3) 0.29865(3)
O1 O 0.90773(12) 0.58862(11) 0.20996(9)
O2 O 0.94100(11) 0.56949(10) 0.38781(9)
O3 O 0.72427(11) 0.63501(11) 0.34992(10)
O4 O 0.93525(12) 0.78673(10) 0.24685(11)
O5 O 0.29460(9) 0.09803(9) 0.01232(8)
O6 O 0.64382(10) 0.33095(9) 0.10982(8)
O7 O 0.07367(10) 0.18096(9) 0.16548(8)
O8 O 0.44174(10) 0.30406(9) 0.33310(8)
O9 O 0.54952(9) 0.27353(9) -0.05861(8)
O10 O 0.17168(10) 0.31478(9) 0.28845(8)
C1 C 0.00152(14) 0.28464(14) 0.19691(12)
H1 H -0.1026 0.2705 0.2071
H2 H 0.0409 0.3759 0.1342
C2 C 0.02279(14) 0.27800(14) 0.30911(12)
H3 H -0.0364 0.3419 0.3376
H4 H -0.0077 0.1840 0.3697
C3 C 0.64547(15) 0.43005(13) 0.16036(12)
H5 H 0.5843 0.5025 0.1323
H6 H 0.7450 0.4736 0.1367
C4 C 0.58927(15) 0.35942(14) 0.29186(12)
H7 H 0.6485 0.2844 0.3183
H8 H 0.5998 0.4259 0.3272
C5 C 0.36910(15) 0.17979(14) -0.10772(11)
H9 H 0.3334 0.2711 -0.1306
H10 H 0.3517 0.1352 -0.1586
C6 C 0.52589(15) 0.19497(14) -0.12238(11)
H11 H 0.5597 0.1035 -0.0924
H12 H 0.5805 0.2420 -0.2064
C7 C 0.69703(14) 0.28663(15) -0.06475(12)
H13 H 0.7586 0.3191 -0.1474
H14 H 0.7247 0.1966 -0.0208
C8 C 0.14362(14) 0.07110(14) 0.03214(12)
H15 H 0.1067 -0.0182 0.0984
H16 H 0.1288 0.0642 -0.0384
C9 C 0.05965(15) 0.18043(15) 0.05898(12)
H17 H 0.0974 0.2709 -0.0054
H18 H -0.0431 0.1615 0.0673
C10 C 0.71752(15) 0.38719(14) -0.01286(12)
H19 H 0.8215 0.4079 -0.0263
H20 H 0.6793 0.4737 -0.0509
C11 C 0.34529(15) 0.40293(14) 0.34933(12)
H21 H 0.3651 0.4850 0.2755
H22 H 0.3589 0.4316 0.4108
C12 C 0.19450(16) 0.33923(15) 0.38489(12)
H23 H 0.1783 0.2516 0.4537
H24 H 0.1257 0.4012 0.4069
O11 O 0.57739(10) 1.03220(9) 0.30089(9)
N1 N 0.37082(11) 1.14581(10) 0.20390(9)
H25 H 0.3064 1.1966 0.2326
H26 H 0.3599 1.1477 0.1357
H27 H 0.4619 1.1813 0.1903
C13 C 0.45389(14) 0.94761(13) 0.33736(11)
C14 C 0.34535(13) 1.00355(12) 0.28965(10)
C15 C 0.19462(14) 0.79010(14) 0.39588(11)
H28 H 0.1065 0.7362 0.4158
C16 C 0.21647(14) 0.92618(13) 0.31857(11)
H29 H 0.1432 0.9660 0.2856
C17 C 0.43095(14) 0.81114(13) 0.41574(11)
H30 H 0.5034 0.7715 0.4499
C18 C 0.30167(15) 0.73333(13) 0.44372(11)
H31 H 0.2868 0.6400 0.4964
C19 C 0.68571(15) 0.97948(15) 0.35658(14)
H32 H 0.7684 1.0494 0.3245
H33 H 0.7169 0.8976 0.3421
H34 H 0.6457 0.9555 0.4412
loop_
_geom_bond_atom_site_label_1
_geom_bond_atom_site_label_2
_geom_bond_site_symmetry_1
_geom_bond_site_symmetry_2
Cl1 O1 1_555 1_555
O2 Cl1 1_555 1_555
O3 Cl1 1_555 1_555
O4 Cl1 1_555 1_555
O5 C5 1_555 1_555
O6 C3 1_555 1_555
O7 C1 1_555 1_555
O8 C4 1_555 1_555
O9 C6 1_555 1_555
O10 C2 1_555 1_555
C1 H1 1_555 1_555
H2 C1 1_555 1_555
C2 C1 1_555 1_555
H3 C2 1_555 1_555
H4 C2 1_555 1_555
C3 H5 1_555 1_555
H6 C3 1_555 1_555
C4 C3 1_555 1_555
H7 C4 1_555 1_555
H8 C4 1_555 1_555
C5 H9 1_555 1_555
H10 C5 1_555 1_555
C6 C5 1_555 1_555
H11 C6 1_555 1_555
H12 C6 1_555 1_555
C7 O9 1_555 1_555
H13 C7 1_555 1_555
H14 C7 1_555 1_555
C8 O5 1_555 1_555
H15 C8 1_555 1_555
H16 C8 1_555 1_555
C9 O7 1_555 1_555
H17 C9 1_555 1_555
H18 C9 1_555 1_555
C10 O6 1_555 1_555
H19 C10 1_555 1_555
H20 C10 1_555 1_555
C11 O8 1_555 1_555
H21 C11 1_555 1_555
H22 C11 1_555 1_555
C12 O10 1_555 1_555
H23 C12 1_555 1_555
H24 C12 1_555 1_555
O11 C13 1_555 1_555
N1 H25 1_555 1_555
H26 N1 1_555 1_555
H27 N1 1_555 1_555
C13 C14 1_555 1_555
C14 N1 1_555 1_555
C15 H28 1_555 1_555
C16 C14 1_555 1_555
H29 C16 1_555 1_555
C17 C13 1_555 1_555
H30 C17 1_555 1_555
C18 C15 1_555 1_555
H31 C18 1_555 1_555
C19 O11 1_555 1_555
H32 C19 1_555 1_555
H33 C19 1_555 1_555
H34 C19 1_555 1_555
C7 C10 1_555 1_555
C8 C9 1_555 1_555
C11 C12 1_555 1_555
C15 C16 1_555 1_555
C17 C18 1_555 1_555

#END
