
#######################################################################
#
#                 Cambridge Crystallographic Data Centre
#                                CCDC 
#
#######################################################################
#
# If this CIF has been generated from an entry in the Cambridge 
# Structural Database, then it will include bibliographic, chemical, 
# crystal, experimental, refinement or atomic coordinate data resulting 
# from the CCDC's data processing and validation procedures.
#
#######################################################################

data_LOKJUS
_chemical_formula_moiety         'C12 H24 N1 O3 1+,2(H2 O1),Cl1 1-'
_chemical_name_systematic        
'6-(Cyclohexyloxy)-3-hydroxy-2-methyltetrahydro-2H-pyran-4-aminium chloride dihydrate'
_symmetry_cell_setting           monoclinic
_symmetry_space_group_name_H-M   'P 21'
_symmetry_Int_Tables_number      4
_space_group_name_Hall           'P 2yb'
loop_
_symmetry_equiv_pos_site_id
_symmetry_equiv_pos_as_xyz
1 x,y,z
2 -x,1/2+y,-z
_cell_length_a                   7.2898(10)
_cell_length_b                   7.9357(14)
_cell_length_c                   13.839(2)
_cell_angle_alpha                90
_cell_angle_beta                 93.239(9)
_cell_angle_gamma                90
_cell_volume                     799.303
_cell_formula_units_Z            2
loop_
_atom_site_label
_atom_site_type_symbol
_atom_site_fract_x
_atom_site_fract_y
_atom_site_fract_z
C1 C 0.1400(7) 1.1148(8) 0.7258(4)
C2 C 0.1947(7) 1.2143(8) 0.8154(4)
C3 C 0.3991(7) 1.2017(8) 0.8448(4)
C4 C 0.5128(7) 1.2317(8) 0.7567(4)
C5 C 0.4480(7) 1.1251(8) 0.6711(4)
C6 C 0.5458(7) 1.1652(9) 0.5802(4)
C7 C 0.0566(8) 0.8371(7) 0.6755(4)
C8 C -0.1230(7) 0.7765(8) 0.7149(4)
C9 C -0.2283(8) 0.6680(9) 0.6409(5)
C10 C -0.1125(7) 0.5211(8) 0.6084(5)
C11 C 0.0728(8) 0.5779(9) 0.5736(5)
C12 C 0.1769(7) 0.6897(8) 0.6492(4)
N1 N 0.4467(6) 1.0314(6) 0.8870(3)
O1 O 0.2560(5) 1.1566(5) 0.6492(3)
O2 O 0.1560(4) 0.9404(5) 0.7475(2)
O3 O 0.7009(4) 1.1939(5) 0.7791(3)
H1 H 0.0096 1.1413 0.7050
H2 H 0.1233 1.1734 0.8695
H3 H 0.1626 1.3342 0.8041
H4 H 0.4310 1.2900 0.8944
H5 H 0.5022 1.3531 0.7379
H6 H 0.4662 1.0034 0.6876
H7 H 0.4963 1.0941 0.5270
H8 H 0.6776 1.1433 0.5915
H9 H 0.5267 1.2840 0.5633
H10 H 0.0280 0.9066 0.6163
H11 H -0.0964 0.7106 0.7749
H12 H -0.1989 0.8748 0.7312
H13 H -0.2669 0.7377 0.5840
H14 H -0.3404 0.6239 0.6692
H15 H -0.1809 0.4605 0.5552
H16 H -0.0914 0.4416 0.6630
H17 H 0.0529 0.6416 0.5124
H18 H 0.1482 0.4776 0.5605
H19 H 0.2107 0.6226 0.7078
H20 H 0.2914 0.7322 0.6226
H21 H 0.4205 0.9503 0.8418
H22 H 0.3797 1.0128 0.9395
H23 H 0.5685 1.0282 0.9052
H24 H 0.7476 1.2694 0.8153
Cl1 Cl 0.1805(2) 0.9545(2) 0.0578(1)
O4 O 0.4896(6) 0.6847(7) 0.8480(3)
H25 H 0.3920(60) 0.6310(80) 0.8690(50)
H26 H 0.513(10) 0.6210(80) 0.7970(30)
O5 O 0.2315(6) 0.5831(6) 0.9830(3)
H27 H 0.2360(90) 0.4880(50) 1.0160(40)
H28 H 0.1140(40) 0.5520(90) 0.9760(50)
loop_
_geom_bond_atom_site_label_1
_geom_bond_atom_site_label_2
_geom_bond_site_symmetry_1
_geom_bond_site_symmetry_2
C1 C2 1_555 1_555
C2 C3 1_555 1_555
C3 C4 1_555 1_555
C4 C5 1_555 1_555
C5 C6 1_555 1_555
C6 H7 1_555 1_555
C7 C8 1_555 1_555
C8 C9 1_555 1_555
C9 C10 1_555 1_555
C10 C11 1_555 1_555
C11 C12 1_555 1_555
C12 C7 1_555 1_555
N1 C3 1_555 1_555
O1 C1 1_555 1_555
O2 C1 1_555 1_555
O3 C4 1_555 1_555
H1 C1 1_555 1_555
H2 C2 1_555 1_555
H3 C2 1_555 1_555
H4 C3 1_555 1_555
H5 C4 1_555 1_555
H6 C5 1_555 1_555
H8 C6 1_555 1_555
H9 C6 1_555 1_555
H10 C7 1_555 1_555
H11 C8 1_555 1_555
H12 C8 1_555 1_555
H13 C9 1_555 1_555
H14 C9 1_555 1_555
H15 C10 1_555 1_555
H16 C10 1_555 1_555
H17 C11 1_555 1_555
H18 C11 1_555 1_555
H19 C12 1_555 1_555
H20 C12 1_555 1_555
H21 N1 1_555 1_555
H22 N1 1_555 1_555
H23 N1 1_555 1_555
H24 O3 1_555 1_555
O4 H25 1_555 1_555
H26 O4 1_555 1_555
O5 H27 1_555 1_555
H28 O5 1_555 1_555
C5 O1 1_555 1_555
C7 O2 1_555 1_555

#END
