
#######################################################################
#
#                 Cambridge Crystallographic Data Centre
#                                CCDC 
#
#######################################################################
#
# If this CIF has been generated from an entry in the Cambridge 
# Structural Database, then it will include bibliographic, chemical, 
# crystal, experimental, refinement or atomic coordinate data resulting 
# from the CCDC's data processing and validation procedures.
#
#######################################################################

data_LOKKIH
_chemical_formula_moiety         'C22 H19 Cl1 N3 O1 S2'
_chemical_name_systematic        
4-(1,3-Benzothiazol-2-yl)-1-t-butyl-3-(4-chlorophenyl)-5-hydroxy-2-thioxo-3,4-dihydro-2H-1\l^5^-pyrrole-4-carbonitrile
_symmetry_cell_setting           monoclinic
_symmetry_space_group_name_H-M   'P 21/n'
_symmetry_Int_Tables_number      14
_space_group_name_Hall           '-P 2yn'
loop_
_symmetry_equiv_pos_site_id
_symmetry_equiv_pos_as_xyz
1 x,y,z
2 1/2-x,1/2+y,1/2-z
3 -x,-y,-z
4 1/2+x,1/2-y,1/2+z
_cell_length_a                   6.0953(13)
_cell_length_b                   21.525(5)
_cell_length_c                   16.283(3)
_cell_angle_alpha                90
_cell_angle_beta                 95.938(5)
_cell_angle_gamma                90
_cell_volume                     2124.89
_exptl_crystal_colour            yellow
_exptl_crystal_description       block
_cell_formula_units_Z            4
loop_
_atom_site_label
_atom_site_type_symbol
_atom_site_fract_x
_atom_site_fract_y
_atom_site_fract_z
Cl1 Cl 0.84244(17) 0.75675(4) 0.08970(5)
S1 S 0.24353(11) 0.48470(3) 0.08562(4)
S2 S 0.73550(10) 0.45286(3) 0.45658(3)
O1 O 0.9389(3) 0.41120(11) 0.23553(13)
H1 H 1.0223 0.4266 0.2728
N1 N 0.5713(3) 0.42102(9) 0.17628(11)
N2 N 0.3965(3) 0.42678(9) 0.35237(12)
N3 N 1.0127(4) 0.55605(12) 0.34186(16)
C1 C 0.4351(4) 0.47116(11) 0.16127(14)
C2 C 0.7523(3) 0.43623(10) 0.23382(13)
C3 C 0.6736(4) 0.48860(10) 0.28799(13)
C4 C 0.4951(4) 0.52096(10) 0.22723(13)
H2 H 0.3655 0.5304 0.2560
C5 C 0.5568(4) 0.35930(11) 0.13021(15)
C6 C 0.6663(6) 0.30892(13) 0.1864(2)
H3 H 0.8233 0.3147 0.1919
H4 H 0.6312 0.2688 0.1629
H5 H 0.6134 0.3116 0.2398
C7 C 0.3163(4) 0.34031(14) 0.1111(2)
H6 H 0.2433 0.3428 0.1605
H7 H 0.3088 0.2985 0.0906
H8 H 0.2451 0.3677 0.0701
C8 C 0.6704(5) 0.36706(15) 0.05244(17)
H9 H 0.5984 0.3993 0.0190
H10 H 0.6626 0.3287 0.0221
H11 H 0.8221 0.3780 0.0670
C9 C 0.5803(4) 0.45718(10) 0.36071(13)
C10 C 0.5365(4) 0.40415(10) 0.48899(14)
C11 C 0.5301(5) 0.37546(13) 0.56577(16)
H12 H 0.6423 0.3814 0.6083
C12 C 0.3523(5) 0.33814(14) 0.57615(17)
H13 H 0.3439 0.3186 0.6267
C13 C 0.1854(5) 0.32903(13) 0.51313(17)
H14 H 0.0675 0.3034 0.5220
C14 C 0.1903(4) 0.35713(11) 0.43763(16)
H15 H 0.0774 0.3506 0.3956
C15 C 0.3676(4) 0.39554(10) 0.42540(13)
C16 C 0.8612(4) 0.52823(11) 0.31811(15)
C17 C 0.5764(4) 0.58004(11) 0.18953(14)
C18 C 0.7614(4) 0.57883(12) 0.14639(16)
H16 H 0.8303 0.5412 0.1378
C19 C 0.8438(4) 0.63301(13) 0.11618(16)
H17 H 0.9694 0.6322 0.0883
C20 C 0.7375(5) 0.68856(12) 0.12791(16)
C21 C 0.5525(5) 0.69062(12) 0.16875(17)
H18 H 0.4813 0.7282 0.1756
C22 C 0.4722(4) 0.63618(11) 0.19989(15)
H19 H 0.3470 0.6374 0.2280
loop_
_geom_bond_atom_site_label_1
_geom_bond_atom_site_label_2
_geom_bond_site_symmetry_1
_geom_bond_site_symmetry_2
Cl1 C20 1_555 1_555
S1 C1 1_555 1_555
S2 C9 1_555 1_555
O1 H1 1_555 1_555
N1 C1 1_555 1_555
N2 C9 1_555 1_555
N3 C16 1_555 1_555
C1 C4 1_555 1_555
C2 O1 1_555 1_555
C3 C2 1_555 1_555
C4 C3 1_555 1_555
H2 C4 1_555 1_555
C5 N1 1_555 1_555
C6 C5 1_555 1_555
H3 C6 1_555 1_555
H4 C6 1_555 1_555
H5 C6 1_555 1_555
C7 C5 1_555 1_555
H6 C7 1_555 1_555
H7 C7 1_555 1_555
H8 C7 1_555 1_555
C8 C5 1_555 1_555
H9 C8 1_555 1_555
H10 C8 1_555 1_555
H11 C8 1_555 1_555
C9 C3 1_555 1_555
C10 S2 1_555 1_555
C11 C10 1_555 1_555
H12 C11 1_555 1_555
C12 C11 1_555 1_555
H13 C12 1_555 1_555
C13 C12 1_555 1_555
H14 C13 1_555 1_555
C14 C13 1_555 1_555
H15 C14 1_555 1_555
C15 N2 1_555 1_555
C16 C3 1_555 1_555
C17 C4 1_555 1_555
C18 C17 1_555 1_555
H16 C18 1_555 1_555
C19 C18 1_555 1_555
H17 C19 1_555 1_555
C20 C19 1_555 1_555
C21 C20 1_555 1_555
H18 C21 1_555 1_555
C22 C17 1_555 1_555
H19 C22 1_555 1_555
N1 C2 1_555 1_555
C10 C15 1_555 1_555
C14 C15 1_555 1_555
C21 C22 1_555 1_555

#END
