
#######################################################################
#
#                 Cambridge Crystallographic Data Centre
#                                CCDC 
#
#######################################################################
#
# If this CIF has been generated from an entry in the Cambridge 
# Structural Database, then it will include bibliographic, chemical, 
# crystal, experimental, refinement or atomic coordinate data resulting 
# from the CCDC's data processing and validation procedures.
#
#######################################################################

data_LOKKON
_chemical_formula_moiety         'C27 H20 N2,C2 H6 O1 S1'
_chemical_name_systematic        
"3,3'-(1-Naphthylmethylene)bis-1H-indole dimethylsulfoxide solvate"
_symmetry_cell_setting           monoclinic
_symmetry_space_group_name_H-M   'P 21/c'
_symmetry_Int_Tables_number      14
_space_group_name_Hall           '-P 2ybc'
loop_
_symmetry_equiv_pos_site_id
_symmetry_equiv_pos_as_xyz
1 x,y,z
2 -x,1/2+y,1/2-z
3 -x,-y,-z
4 x,1/2-y,1/2+z
_cell_length_a                   10.733(6)
_cell_length_b                   15.124(8)
_cell_length_c                   15.355(8)
_cell_angle_alpha                90
_cell_angle_beta                 105.159(11)
_cell_angle_gamma                90
_cell_volume                     2405.78
_exptl_crystal_colour            white
_exptl_crystal_description       Prism
_cell_formula_units_Z            4
loop_
_atom_site_label
_atom_site_type_symbol
_atom_site_fract_x
_atom_site_fract_y
_atom_site_fract_z
C1 C 0.6831(2) 0.26974(14) 0.05077(15)
C2 C 0.6901(3) 0.18699(16) 0.01232(17)
H1 H 0.7536 0.1743 -0.0171
C3 C 0.6006(3) 0.12529(16) 0.01940(19)
H2 H 0.6031 0.0697 -0.0059
C4 C 0.5053(3) 0.14368(16) 0.06377(19)
H3 H 0.4451 0.1004 0.0668
C5 C 0.4991(2) 0.22470(15) 0.10295(16)
H4 H 0.4364 0.2359 0.1334
C6 C 0.5887(2) 0.29025(13) 0.09635(14)
C7 C 0.60946(18) 0.38028(13) 0.12676(13)
C8 C 0.7122(2) 0.40978(15) 0.09810(15)
H5 H 0.7466 0.4665 0.1080
C9 C 0.53725(19) 0.43066(13) 0.18359(13)
H6 H 0.5591 0.4023 0.2430
C10 C 0.39253(19) 0.42556(14) 0.14863(14)
C11 C 0.3196(2) 0.40863(16) 0.06381(16)
H7 H 0.3522 0.3980 0.0143
C12 C 0.1794(2) 0.42612(16) 0.14779(19)
C13 C 0.3041(2) 0.43713(14) 0.20334(16)
C14 C 0.3209(3) 0.4536(2) 0.2953(2)
H8 H 0.4029 0.4612 0.3338
C15 C 0.2122(4) 0.4582(3) 0.3275(3)
H9 H 0.2213 0.4685 0.3885
C16 C 0.0894(4) 0.4476(3) 0.2699(3)
H10 H 0.0179 0.4515 0.2933
C17 C 0.0711(3) 0.4317(2) 0.1800(3)
H11 H -0.0113 0.4249 0.1419
C18 C 0.58566(19) 0.52606(13) 0.19872(13)
C19 C 0.68675(19) 0.55008(13) 0.27577(13)
C20 C 0.7477(2) 0.48981(16) 0.34556(15)
H12 H 0.7246 0.4304 0.3398
C21 C 0.8385(3) 0.51712(19) 0.42013(18)
H13 H 0.8755 0.4765 0.4649
C22 C 0.8771(3) 0.6060(2) 0.43036(19)
H14 H 0.9379 0.6242 0.4823
C23 C 0.8262(3) 0.66497(17) 0.36512(18)
H15 H 0.8545 0.7233 0.3717
C24 C 0.7294(2) 0.63958(14) 0.28594(15)
C25 C 0.6743(2) 0.70181(16) 0.21881(17)
H16 H 0.7031 0.7600 0.2247
C26 C 0.5800(2) 0.67756(15) 0.14595(16)
H17 H 0.5445 0.7191 0.1018
C27 C 0.5352(2) 0.59004(15) 0.13643(15)
H18 H 0.4690 0.5750 0.0862
N1 N 0.75783(18) 0.34416(13) 0.05262(14)
H19 H 0.8222 0.3488 0.0293
N2 N 0.19008(19) 0.40938(14) 0.06126(15)
H20 H 0.1271 0.4009 0.0142
S2 S 0.90635(10) 0.22962(7) 0.37097(7)
O2 O 0.9509(10) 0.1749(12) 0.4523(10)
C30 C 1.0020(8) 0.2101(6) 0.3007(5)
H27 H 1.0863 0.2342 0.3265
H28 H 0.9650 0.2376 0.2434
H29 H 1.0086 0.1475 0.2924
C31 C 0.7623(4) 0.1779(4) 0.3050(3)
H30 H 0.6948 0.1842 0.3350
H31 H 0.7785 0.1163 0.2978
H32 H 0.7365 0.2056 0.2467
S1? S 0.9311(4) 0.1570(2) 0.3444(2)
O1? O 0.951(3) 0.157(3) 0.442(3)
C28? C 1.0020(8) 0.2101(6) 0.3007(5)
H21? H 1.0923 0.1979 0.3242
H22? H 0.9857 0.2712 0.3106
H23? H 0.9768 0.1978 0.2371
C29? C 0.7623(4) 0.1779(4) 0.3050(3)
H24? H 0.7373 0.1770 0.2402
H25? H 0.7431 0.2348 0.3259
H26? H 0.7155 0.1331 0.3275
loop_
_geom_bond_atom_site_label_1
_geom_bond_atom_site_label_2
_geom_bond_site_symmetry_1
_geom_bond_site_symmetry_2
C1 C2 1_555 1_555
C2 H1 1_555 1_555
C3 C2 1_555 1_555
H2 C3 1_555 1_555
C4 C3 1_555 1_555
H3 C4 1_555 1_555
C5 C4 1_555 1_555
H4 C5 1_555 1_555
C6 C1 1_555 1_555
C7 C6 1_555 1_555
C8 C7 1_555 1_555
H5 C8 1_555 1_555
C9 C7 1_555 1_555
H6 C9 1_555 1_555
C10 C9 1_555 1_555
C11 C10 1_555 1_555
H7 C11 1_555 1_555
C12 C13 1_555 1_555
C13 C10 1_555 1_555
C14 C13 1_555 1_555
H8 C14 1_555 1_555
C15 C14 1_555 1_555
H9 C15 1_555 1_555
C16 C15 1_555 1_555
H10 C16 1_555 1_555
C17 C12 1_555 1_555
H11 C17 1_555 1_555
C18 C9 1_555 1_555
C19 C18 1_555 1_555
C20 C19 1_555 1_555
H12 C20 1_555 1_555
C21 C20 1_555 1_555
H13 C21 1_555 1_555
C22 C21 1_555 1_555
H14 C22 1_555 1_555
C23 C22 1_555 1_555
H15 C23 1_555 1_555
C24 C19 1_555 1_555
C25 C24 1_555 1_555
H16 C25 1_555 1_555
C26 C25 1_555 1_555
H17 C26 1_555 1_555
C27 C18 1_555 1_555
H18 C27 1_555 1_555
N1 C1 1_555 1_555
H19 N1 1_555 1_555
N2 C11 1_555 1_555
H20 N2 1_555 1_555
S2 O2 1_555 1_555
C30 S2 1_555 1_555
H27 C30 1_555 1_555
H28 C30 1_555 1_555
H29 C30 1_555 1_555
C31 S2 1_555 1_555
H30 C31 1_555 1_555
H31 C31 1_555 1_555
H32 C31 1_555 1_555
C5 C6 1_555 1_555
C8 N1 1_555 1_555
C12 N2 1_555 1_555
C16 C17 1_555 1_555
C23 C24 1_555 1_555
C26 C27 1_555 1_555

#END
