
#######################################################################
#
#                 Cambridge Crystallographic Data Centre
#                                CCDC 
#
#######################################################################
#
# If this CIF has been generated from an entry in the Cambridge 
# Structural Database, then it will include bibliographic, chemical, 
# crystal, experimental, refinement or atomic coordinate data resulting 
# from the CCDC's data processing and validation procedures.
#
#######################################################################

data_LOKKOL
_chemical_formula_moiety         'C30 H30 N2 O3 S1'
_chemical_name_systematic        
13-(1-(Ethoxycarbonyl)propen-2-amino)-3-phenyl-1-(p-tolyl)-4-thia-11-azatricyclo(9.2.0.0^5,10^)trideca-5,7,9-trien-12-one
_symmetry_cell_setting           triclinic
_symmetry_space_group_name_H-M   'P -1'
_symmetry_Int_Tables_number      2
_space_group_name_Hall           '-P 1'
loop_
_symmetry_equiv_pos_site_id
_symmetry_equiv_pos_as_xyz
1 x,y,z
2 -x,-y,-z
_cell_length_a                   10.880(2)
_cell_length_b                   13.955(3)
_cell_length_c                   9.537(2)
_cell_angle_alpha                99.34(3)
_cell_angle_beta                 110.43(3)
_cell_angle_gamma                88.56(3)
_cell_volume                     1338.16
_exptl_crystal_colour            colorless
_cell_formula_units_Z            2
loop_
_atom_site_label
_atom_site_type_symbol
_atom_site_fract_x
_atom_site_fract_y
_atom_site_fract_z
S1 S 0.5994(1) 0.5997(1) 0.4793(1)
O1 O 1.0919(2) 0.5519(1) 0.7093(2)
O2 O 1.3121(2) 0.8663(2) 0.7060(2)
O3 O 1.4886(2) 0.8756(2) 0.6379(4)
N1 N 0.9017(2) 0.6424(1) 0.6320(2)
N2 N 1.1319(2) 0.7213(2) 0.5288(2)
C1 C 0.6936(2) 0.6297(2) 0.6740(2)
C2 C 0.6272(3) 0.6310(2) 0.7757(3)
C3 C 0.6954(3) 0.6359(2) 0.9279(3)
C4 C 0.8294(3) 0.6406(2) 0.9814(3)
C5 C 0.8978(3) 0.6433(2) 0.8842(3)
C6 C 0.8303(2) 0.6386(2) 0.7306(2)
C7 C 0.8914(2) 0.7086(2) 0.5197(2)
C8 C 0.7736(2) 0.6836(2) 0.3736(2)
C9 C 0.6399(2) 0.6962(2) 0.3924(2)
C10 C 0.5315(2) 0.6954(2) 0.2395(2)
C11 C 0.4962(3) 0.7819(2) 0.1875(3)
C12 C 0.4045(4) 0.7839(3) 0.0452(4)
C13 C 0.3433(3) 0.7004(3) -0.0442(3)
C14 C 0.3750(3) 0.6149(2) 0.0065(3)
C15 C 0.4700(2) 0.6116(2) 0.1472(3)
C16 C 0.9094(2) 0.8149(2) 0.5912(2)
C17 C 0.8554(3) 0.8890(2) 0.5099(3)
C18 C 0.8797(3) 0.9855(2) 0.5763(3)
C19 C 0.9575(3) 1.0128(2) 0.7254(3)
C20 C 1.0122(3) 0.9396(2) 0.8067(3)
C21 C 0.9888(2) 0.8428(2) 0.7423(3)
C22 C 0.9841(4) 1.1188(2) 0.7967(4)
C23 C 1.0210(2) 0.6605(2) 0.5065(2)
C24 C 1.0200(2) 0.6063(2) 0.6344(2)
C25 C 1.2164(2) 0.7062(2) 0.4525(3)
C26 C 1.1851(3) 0.6251(3) 0.3215(4)
C27 C 1.3266(3) 0.7632(2) 0.4925(4)
C28 C 1.3701(3) 0.8377(2) 0.6198(4)
C29 C 1.5487(4) 0.9483(3) 0.7696(8)
C30 C 1.6620(7) 0.9225(6) 0.8633(11)
loop_
_geom_bond_atom_site_label_1
_geom_bond_atom_site_label_2
_geom_bond_site_symmetry_1
_geom_bond_site_symmetry_2
S1 C1 1_555 1_555
O1 C24 1_555 1_555
O2 C28 1_555 1_555
O3 C28 1_555 1_555
N1 C6 1_555 1_555
N2 C23 1_555 1_555
C1 C2 1_555 1_555
C2 C3 1_555 1_555
C3 C4 1_555 1_555
C4 C5 1_555 1_555
C5 C6 1_555 1_555
C6 C1 1_555 1_555
C7 N1 1_555 1_555
C8 C7 1_555 1_555
C9 S1 1_555 1_555
C10 C9 1_555 1_555
C11 C10 1_555 1_555
C12 C11 1_555 1_555
C13 C12 1_555 1_555
C14 C13 1_555 1_555
C15 C10 1_555 1_555
C16 C7 1_555 1_555
C17 C16 1_555 1_555
C18 C17 1_555 1_555
C19 C18 1_555 1_555
C20 C19 1_555 1_555
C21 C16 1_555 1_555
C22 C19 1_555 1_555
C23 C7 1_555 1_555
C24 N1 1_555 1_555
C25 N2 1_555 1_555
C26 C25 1_555 1_555
C27 C25 1_555 1_555
C28 C27 1_555 1_555
C29 O3 1_555 1_555
C30 C29 1_555 1_555
C8 C9 1_555 1_555
C14 C15 1_555 1_555
C20 C21 1_555 1_555
C23 C24 1_555 1_555

#END
