
#######################################################################
#
#                 Cambridge Crystallographic Data Centre
#                                CCDC 
#
#######################################################################
#
# If this CIF has been generated from an entry in the Cambridge 
# Structural Database, then it will include bibliographic, chemical, 
# crystal, experimental, refinement or atomic coordinate data resulting 
# from the CCDC's data processing and validation procedures.
#
#######################################################################

data_LOKQAF
_chemical_formula_moiety         'C18 H19 N1 O4'
_chemical_name_systematic        
"ethyl 1',4-dimethyl-2',6-dioxo-1',2'-dihydrospiro[cyclohex-4-ene-1,3'-indole]-2-carboxylate"
_symmetry_cell_setting           monoclinic
_symmetry_space_group_name_H-M   'C 2/c'
_symmetry_Int_Tables_number      15
_space_group_name_Hall           '-C 2yn'
loop_
_symmetry_equiv_pos_site_id
_symmetry_equiv_pos_as_xyz
1 x,y,z
2 -x,y,1/2-z
3 1/2+x,1/2+y,z
4 1/2-x,1/2+y,1/2-z
5 -x,-y,-z
6 x,-y,1/2+z
7 1/2-x,1/2-y,-z
8 1/2+x,1/2-y,1/2+z
_cell_length_a                   26.4067(19)
_cell_length_b                   8.6803(6)
_cell_length_c                   13.9116(10)
_cell_angle_alpha                90
_cell_angle_beta                 97.632(3)
_cell_angle_gamma                90
_cell_volume                     3160.54
_exptl_crystal_colour            yellow
_cell_formula_units_Z            8
loop_
_atom_site_label
_atom_site_type_symbol
_atom_site_fract_x
_atom_site_fract_y
_atom_site_fract_z
C1 C 0.57367(9) -0.3316(2) 0.69967(16)
H1 H 0.5956 -0.4196 0.6982
H2 H 0.5399 -0.3572 0.6692
H3 H 0.5723 -0.3020 0.7658
C2 C 0.59423(7) -0.20092(19) 0.64648(12)
C3 C 0.63689(8) -0.2131(2) 0.60585(13)
H4 H 0.6537 -0.3076 0.6098
C4 C 0.65882(6) -0.08827(19) 0.55587(12)
C5 C 0.63268(6) 0.07025(17) 0.55578(10)
C6 C 0.57507(6) 0.05178(18) 0.56026(11)
H5 H 0.5610 0.0005 0.4998
C7 C 0.56392(6) -0.05501(19) 0.64202(13)
H6 H 0.5715 -0.0012 0.7033
H7 H 0.5278 -0.0803 0.6331
C8 C 0.54849(6) 0.20617(19) 0.55970(13)
C9 C 0.47383(7) 0.3357(2) 0.59342(16)
H8 H 0.4613 0.3655 0.5273
H9 H 0.4943 0.4194 0.6240
C10 C 0.43033(8) 0.3026(3) 0.64784(16)
H10 H 0.4093 0.3928 0.6484
H11 H 0.4432 0.2742 0.7132
H12 H 0.4104 0.2195 0.6170
C11 C 0.64159(6) 0.1539(2) 0.46233(11)
C12 C 0.68865(7) 0.3834(2) 0.41698(15)
H13 H 0.6758 0.3506 0.3525
H14 H 0.7252 0.3907 0.4234
H15 H 0.6746 0.4824 0.4292
C13 C 0.68667(6) 0.28538(18) 0.58724(11)
C14 C 0.71855(6) 0.3912(2) 0.63881(14)
H16 H 0.7341 0.4695 0.6077
C15 C 0.72638(7) 0.3761(2) 0.73880(14)
H17 H 0.7476 0.4459 0.7754
C16 C 0.70358(6) 0.2608(2) 0.78551(13)
H18 H 0.7097 0.2536 0.8527
C17 C 0.67144(6) 0.15491(19) 0.73291(11)
H19 H 0.6562 0.0763 0.7643
C18 C 0.66271(5) 0.16886(17) 0.63330(11)
N1 N 0.67419(5) 0.27281(16) 0.48623(10)
O1 O 0.56437(6) 0.32333(17) 0.53082(15)
O2 O 0.69752(5) -0.10289(16) 0.51830(10)
O3 O 0.62275(5) 0.11778(16) 0.38095(8)
O4 O 0.50422(4) 0.19619(14) 0.59402(10)
loop_
_geom_bond_atom_site_label_1
_geom_bond_atom_site_label_2
_geom_bond_site_symmetry_1
_geom_bond_site_symmetry_2
C1 H1 1_555 1_555
H2 C1 1_555 1_555
H3 C1 1_555 1_555
C2 C1 1_555 1_555
C3 C2 1_555 1_555
H4 C3 1_555 1_555
C4 C3 1_555 1_555
C5 C4 1_555 1_555
C6 C5 1_555 1_555
H5 C6 1_555 1_555
C7 C2 1_555 1_555
H6 C7 1_555 1_555
H7 C7 1_555 1_555
C8 C6 1_555 1_555
C9 H8 1_555 1_555
H9 C9 1_555 1_555
C10 C9 1_555 1_555
H10 C10 1_555 1_555
H11 C10 1_555 1_555
H12 C10 1_555 1_555
C11 C5 1_555 1_555
C12 H13 1_555 1_555
H14 C12 1_555 1_555
H15 C12 1_555 1_555
C13 C14 1_555 1_555
C14 H16 1_555 1_555
C15 C14 1_555 1_555
H17 C15 1_555 1_555
C16 C15 1_555 1_555
H18 C16 1_555 1_555
C17 C16 1_555 1_555
H19 C17 1_555 1_555
C18 C5 1_555 1_555
N1 C11 1_555 1_555
O1 C8 1_555 1_555
O2 C4 1_555 1_555
O3 C11 1_555 1_555
O4 C8 1_555 1_555
C6 C7 1_555 1_555
C9 O4 1_555 1_555
C12 N1 1_555 1_555
C13 C18 1_555 1_555
C13 N1 1_555 1_555
C17 C18 1_555 1_555

#END
