
#######################################################################
#
#                 Cambridge Crystallographic Data Centre
#                                CCDC 
#
#######################################################################
#
# If this CIF has been generated from an entry in the Cambridge 
# Structural Database, then it will include bibliographic, chemical, 
# crystal, experimental, refinement or atomic coordinate data resulting 
# from the CCDC's data processing and validation procedures.
#
#######################################################################

data_LOKSAH
_chemical_formula_moiety         'C31 H22 N4 S1'
_chemical_name_systematic        
N,N-Diphenyl-5-(2,2':6',2''-terpyridin-4'-yl)thiophen-2-amine
_symmetry_cell_setting           monoclinic
_symmetry_space_group_name_H-M   'P 21/c'
_symmetry_Int_Tables_number      14
_space_group_name_Hall           '-P 2ybc'
loop_
_symmetry_equiv_pos_site_id
_symmetry_equiv_pos_as_xyz
1 x,y,z
2 -x,1/2+y,1/2-z
3 -x,-y,-z
4 x,1/2-y,1/2+z
_cell_length_a                   13.288(5)
_cell_length_b                   40.706(5)
_cell_length_c                   9.100(5)
_cell_angle_alpha                90
_cell_angle_beta                 95.255(5)
_cell_angle_gamma                90
_cell_volume                     4901.51
_exptl_crystal_colour            brown
_exptl_crystal_description       block
_chemical_melting_point          '471 K'
_cell_formula_units_Z            8
_exptl_crystal_recrystallization_method acetonitrile
loop_
_atom_site_label
_atom_site_type_symbol
_atom_site_fract_x
_atom_site_fract_y
_atom_site_fract_z
C1 C 0.4380(5) 0.39649(13) 0.4334(6)
H1 H 0.4524 0.3842 0.5188
C2 C 0.3449(4) 0.39461(13) 0.3588(6)
H2 H 0.2965 0.3805 0.3910
C3 C 0.3227(3) 0.41350(12) 0.2365(6)
H3 H 0.2584 0.4125 0.1868
C4 C 0.3946(3) 0.43421(10) 0.1852(5)
H4 H 0.3788 0.4472 0.1021
C5 C 0.5114(4) 0.41657(11) 0.3833(5)
H5 H 0.5754 0.4174 0.4338
C6 C 0.5662(3) 0.42695(10) -0.0284(5)
H6 H 0.5313 0.4096 0.0097
C7 C 0.5936(4) 0.42526(11) -0.1724(5)
H7 H 0.5767 0.4068 -0.2299
C8 C 0.6448(4) 0.45035(11) -0.2289(5)
H8 H 0.6637 0.4491 -0.3247
C9 C 0.6687(3) 0.47753(11) -0.1445(5)
H9 H 0.7034 0.4948 -0.1838
C10 C 0.6420(3) 0.47962(10) -0.0025(5)
H10 H 0.6587 0.4983 0.0536
C11 C 0.5902(3) 0.45404(9) 0.0577(4)
C12 C 0.4899(3) 0.43527(9) 0.2592(4)
C13 C 0.6262(3) 0.47511(10) 0.3081(4)
C14 C 0.6021(3) 0.50285(10) 0.3786(4)
H11 H 0.5402 0.5135 0.3616
C15 C 0.6817(3) 0.51396(10) 0.4816(4)
H12 H 0.6771 0.5327 0.5392
C16 C 0.7653(3) 0.49456(9) 0.4876(4)
C17 C 0.8592(3) 0.49723(9) 0.5867(4)
C18 C 0.8818(3) 0.52552(9) 0.6704(4)
H13 H 0.8387 0.5436 0.6621
C19 C 0.9696(3) 0.52638(9) 0.7666(4)
C20 C 0.9283(3) 0.47187(9) 0.6001(4)
H14 H 0.9168 0.4529 0.5441
C21 C 1.0145(3) 0.47453(9) 0.6963(4)
C22 C 1.1402(4) 0.39795(11) 0.6244(6)
H15 H 1.1273 0.3800 0.5621
C23 C 1.2283(4) 0.39805(12) 0.7136(5)
H16 H 1.2738 0.3807 0.7129
C24 C 1.2471(4) 0.42426(13) 0.8032(6)
H17 H 1.3068 0.4252 0.8649
C25 C 1.1780(3) 0.44962(11) 0.8036(5)
H18 H 1.1900 0.4676 0.8656
C26 C 1.0906(3) 0.44752(9) 0.7093(4)
C27 C 0.9963(3) 0.55597(10) 0.8582(4)
C28 C 1.0840(3) 0.55686(11) 0.9536(5)
H19 H 1.1279 0.5390 0.9607
C29 C 1.1049(4) 0.58448(13) 1.0371(6)
H20 H 1.1630 0.5855 1.1022
C30 C 1.0402(4) 0.61033(12) 1.0241(6)
H21 H 1.0525 0.6292 1.0806
C31 C 0.9571(4) 0.60795(12) 0.9267(6)
H22 H 0.9136 0.6259 0.9174
N1 N 0.5645(2) 0.45649(8) 0.2051(3)
N2 N 1.0358(2) 0.50126(8) 0.7797(3)
N3 N 1.0713(3) 0.42182(9) 0.6205(4)
N4 N 0.9335(3) 0.58155(9) 0.8429(4)
S1 S 0.74796(7) 0.46219(3) 0.36689(12)
C32 C 0.0897(3) 0.26980(11) 1.0441(5)
H23 H 0.1157 0.2578 1.1258
C33 C -0.0004(4) 0.26061(13) 0.9660(6)
H24 H -0.0358 0.2427 0.9980
C34 C -0.0381(3) 0.27725(14) 0.8439(5)
H25 H -0.0978 0.2704 0.7916
C35 C 0.0119(3) 0.30417(13) 0.7983(5)
H26 H -0.0141 0.3157 0.7150
C36 C 0.1018(3) 0.31454(11) 0.8758(4)
H27 H 0.1353 0.3330 0.8451
C37 C 0.1404(3) 0.29715(10) 0.9983(4)
C38 C 0.1626(3) 0.31319(10) 1.3142(5)
H28 H 0.0983 0.3156 1.2657
C39 C 0.1754(4) 0.31383(11) 1.4662(5)
H29 H 0.1193 0.3161 1.5194
C40 C 0.2696(4) 0.31112(11) 1.5400(5)
H30 H 0.2777 0.3117 1.6426
C41 C 0.3514(4) 0.30765(11) 1.4608(5)
H31 H 0.4156 0.3060 1.5103
C42 C 0.3404(3) 0.30647(10) 1.3084(5)
H32 H 0.3969 0.3040 1.2562
C43 C 0.2451(3) 0.30903(9) 1.2335(4)
C44 C 0.3163(3) 0.31366(9) 0.9978(4)
C45 C 0.3630(3) 0.34242(10) 0.9764(4)
H33 H 0.3418 0.3625 1.0115
C46 C 0.4479(3) 0.33869(10) 0.8946(4)
H34 H 0.4880 0.3562 0.8699
C47 C 0.4656(3) 0.30707(9) 0.8554(4)
C48 C 0.5470(3) 0.29458(10) 0.7718(4)
C49 C 0.5624(3) 0.26136(9) 0.7532(4)
H35 H 0.5200 0.2462 0.7929
C50 C 0.6411(3) 0.25064(9) 0.6754(4)
C51 C 0.6130(3) 0.31602(10) 0.7102(4)
H36 H 0.6055 0.3386 0.7201
C52 C 0.6898(3) 0.30357(10) 0.6341(4)
C53 C 0.6182(3) 0.16227(11) 0.7067(6)
H37 H 0.5787 0.1475 0.7540
C54 C 0.6905(4) 0.14989(12) 0.6227(6)
H38 H 0.7004 0.1273 0.6157
C55 C 0.7469(4) 0.17110(12) 0.5508(6)
H39 H 0.7949 0.1633 0.4911
C56 C 0.7324(3) 0.20424(11) 0.5670(5)
H40 H 0.7712 0.2192 0.5196
C57 C 0.6598(3) 0.21504(10) 0.6540(4)
C58 C 0.8305(4) 0.37717(13) 0.5613(6)
H41 H 0.8352 0.3986 0.5966
C59 C 0.7619(3) 0.32609(10) 0.5680(4)
C60 C 0.8201(3) 0.31532(11) 0.4601(5)
H42 H 0.8162 0.2936 0.4279
C61 C 0.8841(3) 0.33717(13) 0.4010(5)
H43 H 0.9227 0.3306 0.3261
C62 C 0.8906(4) 0.36840(14) 0.4525(6)
H44 H 0.9344 0.3835 0.4153
N5 N 0.2327(2) 0.30820(8) 1.0778(3)
N6 N 0.6016(3) 0.19438(8) 0.7241(4)
N7 N 0.7043(2) 0.27132(8) 0.6151(3)
N8 N 0.7661(3) 0.35699(10) 0.6195(4)
S2 S 0.37752(8) 0.28129(2) 0.92107(12)
loop_
_geom_bond_atom_site_label_1
_geom_bond_atom_site_label_2
_geom_bond_site_symmetry_1
_geom_bond_site_symmetry_2
C1 H1 1_555 1_555
C2 C1 1_555 1_555
H2 C2 1_555 1_555
C3 C2 1_555 1_555
H3 C3 1_555 1_555
C4 C3 1_555 1_555
H4 C4 1_555 1_555
C5 C1 1_555 1_555
H5 C5 1_555 1_555
C6 H6 1_555 1_555
C7 C6 1_555 1_555
H7 C7 1_555 1_555
C8 C7 1_555 1_555
H8 C8 1_555 1_555
C9 C8 1_555 1_555
H9 C9 1_555 1_555
C10 C9 1_555 1_555
H10 C10 1_555 1_555
C11 C6 1_555 1_555
C12 C4 1_555 1_555
C13 C14 1_555 1_555
C14 H11 1_555 1_555
C15 C14 1_555 1_555
H12 C15 1_555 1_555
C16 C15 1_555 1_555
C17 C16 1_555 1_555
C18 C17 1_555 1_555
H13 C18 1_555 1_555
C19 C18 1_555 1_555
C20 C17 1_555 1_555
H14 C20 1_555 1_555
C21 C20 1_555 1_555
C22 H15 1_555 1_555
C23 C22 1_555 1_555
H16 C23 1_555 1_555
C24 C23 1_555 1_555
H17 C24 1_555 1_555
C25 C24 1_555 1_555
H18 C25 1_555 1_555
C26 C21 1_555 1_555
C27 C19 1_555 1_555
C28 C27 1_555 1_555
H19 C28 1_555 1_555
C29 C28 1_555 1_555
H20 C29 1_555 1_555
C30 C29 1_555 1_555
H21 C30 1_555 1_555
C31 C30 1_555 1_555
H22 C31 1_555 1_555
N1 C11 1_555 1_555
N2 C19 1_555 1_555
N3 C22 1_555 1_555
N4 C27 1_555 1_555
S1 C13 1_555 1_555
C32 H23 1_555 1_555
C33 C32 1_555 1_555
H24 C33 1_555 1_555
C34 C33 1_555 1_555
H25 C34 1_555 1_555
C35 C34 1_555 1_555
H26 C35 1_555 1_555
C36 C35 1_555 1_555
H27 C36 1_555 1_555
C37 C32 1_555 1_555
C38 H28 1_555 1_555
C39 C38 1_555 1_555
H29 C39 1_555 1_555
C40 C39 1_555 1_555
H30 C40 1_555 1_555
C41 C40 1_555 1_555
H31 C41 1_555 1_555
C42 C41 1_555 1_555
H32 C42 1_555 1_555
C43 C38 1_555 1_555
C44 C45 1_555 1_555
C45 H33 1_555 1_555
C46 C45 1_555 1_555
H34 C46 1_555 1_555
C47 C46 1_555 1_555
C48 C47 1_555 1_555
C49 C48 1_555 1_555
H35 C49 1_555 1_555
C50 C49 1_555 1_555
C51 C48 1_555 1_555
H36 C51 1_555 1_555
C52 C51 1_555 1_555
C53 H37 1_555 1_555
C54 C53 1_555 1_555
H38 C54 1_555 1_555
C55 C54 1_555 1_555
H39 C55 1_555 1_555
C56 C55 1_555 1_555
H40 C56 1_555 1_555
C57 C50 1_555 1_555
C58 H41 1_555 1_555
C59 C52 1_555 1_555
C60 C59 1_555 1_555
H42 C60 1_555 1_555
C61 C60 1_555 1_555
H43 C61 1_555 1_555
C62 C58 1_555 1_555
H44 C62 1_555 1_555
N5 C37 1_555 1_555
N6 C53 1_555 1_555
N7 C50 1_555 1_555
N8 C58 1_555 1_555
S2 C44 1_555 1_555
C5 C12 1_555 1_555
C10 C11 1_555 1_555
C12 N1 1_555 1_555
C13 N1 1_555 1_555
C16 S1 1_555 1_555
C21 N2 1_555 1_555
C25 C26 1_555 1_555
C26 N3 1_555 1_555
C31 N4 1_555 1_555
C36 C37 1_555 1_555
C42 C43 1_555 1_555
C43 N5 1_555 1_555
C44 N5 1_555 1_555
C47 S2 1_555 1_555
C52 N7 1_555 1_555
C56 C57 1_555 1_555
C57 N6 1_555 1_555
C59 N8 1_555 1_555
C61 C62 1_555 1_555

#END
