
#######################################################################
#
#                 Cambridge Crystallographic Data Centre
#                                CCDC 
#
#######################################################################
#
# If this CIF has been generated from an entry in the Cambridge 
# Structural Database, then it will include bibliographic, chemical, 
# crystal, experimental, refinement or atomic coordinate data resulting 
# from the CCDC's data processing and validation procedures.
#
#######################################################################

data_LOKXEP
_chemical_formula_moiety         
'C77 H40 Cl14 N7 1+,C7 Cl2 N1 O3 1-,4(C2 H4 Cl2)'
_chemical_name_systematic        
'5,10,15,20,25,30,35-heptakis(2,6-Dichlorophenyl)-36,38,39,40,42-pentahydro[32]heptaphyrin-39-ium(1.1.1.1.1.1.1) 4,5-dichloro-2-cyano-3,6-dioxocyclohexa-1,4-dien-1-olate 1,2-dichloroethane solvate'
_symmetry_cell_setting           triclinic
_symmetry_space_group_name_H-M   'P -1'
_symmetry_Int_Tables_number      2
_space_group_name_Hall           '-P 1'
loop_
_symmetry_equiv_pos_site_id
_symmetry_equiv_pos_as_xyz
1 x,y,z
2 -x,-y,-z
_cell_length_a                   15.566(5)
_cell_length_b                   16.788(4)
_cell_length_c                   20.492(7)
_cell_angle_alpha                104.352(12)
_cell_angle_beta                 96.684(13)
_cell_angle_gamma                110.502(10)
_cell_volume                     4735.87
_exptl_crystal_colour            blue
_exptl_crystal_description       prism
_cell_formula_units_Z            2
loop_
_atom_site_label
_atom_site_type_symbol
_atom_site_fract_x
_atom_site_fract_y
_atom_site_fract_z
N1 N 1.1156(3) 0.4333(2) 0.3385(2)
N2 N 1.0361(2) 0.2690(2) 0.34991(19)
H1 H 1.0327 0.2999 0.3215
N3 N 0.8978(3) -0.0185(2) 0.27503(19)
H2 H 0.9530 -0.0020 0.3024
N4 N 1.0052(3) -0.0965(2) 0.33226(19)
N5 N 1.2041(3) 0.0389(2) 0.34285(19)
H3 H 1.1500 0.0237 0.3144
N6 N 1.2615(3) 0.1965(2) 0.19749(19)
H4 H 1.3063 0.1966 0.1749
N7 N 1.1308(3) 0.3778(2) 0.2038(2)
H5 H 1.1330 0.3607 0.2410
C1 C 1.1211(3) 0.5097(3) 0.3231(2)
C2 C 1.1513(4) 0.5840(3) 0.3861(3)
H6 H 1.1575 0.6434 0.3898
C3 C 1.1690(3) 0.5528(3) 0.4387(3)
H7 H 1.1928 0.5866 0.4862
C4 C 1.1447(3) 0.4577(3) 0.4085(2)
C5 C 1.1455(3) 0.3954(3) 0.4444(2)
C6 C 1.0944(3) 0.3046(3) 0.4138(2)
C7 C 1.0813(3) 0.2312(3) 0.4411(2)
H8 H 1.1134 0.2344 0.4846
C8 C 1.0145(3) 0.1560(3) 0.3932(2)
H9 H 0.9923 0.0976 0.3977
C9 C 0.9835(3) 0.1800(3) 0.3350(2)
C10 C 0.9106(3) 0.1320(3) 0.2755(2)
C11 C 0.8648(3) 0.0387(3) 0.2537(2)
C12 C 0.7736(3) -0.0151(3) 0.2096(2)
H10 H 0.7337 0.0058 0.1864
C13 C 0.7539(3) -0.1022(3) 0.2068(2)
H11 H 0.6975 -0.1521 0.1818
C14 C 0.8325(3) -0.1053(3) 0.2476(2)
C15 C 0.8430(3) -0.1776(3) 0.2630(2)
C16 C 0.9221(3) -0.1697(3) 0.3091(2)
C17 C 0.9230(4) -0.2357(3) 0.3438(3)
H12 H 0.8754 -0.2936 0.3346
C18 C 1.0050(3) -0.1981(3) 0.3913(3)
H13 H 1.0248 -0.2226 0.4244
C19 C 1.0569(3) -0.1126(3) 0.3819(2)
C20 C 1.1503(3) -0.0574(3) 0.4176(2)
C21 C 1.2155(3) 0.0106(3) 0.4001(2)
C22 C 1.3125(3) 0.0554(3) 0.4333(2)
H14 H 1.3409 0.0522 0.4756
C23 C 1.3580(3) 0.1038(3) 0.3939(3)
H15 H 1.4237 0.1379 0.4030
C24 C 1.2899(3) 0.0940(3) 0.3372(2)
C25 C 1.3093(3) 0.1355(3) 0.2854(2)
C26 C 1.2467(3) 0.1614(3) 0.2507(2)
C27 C 1.1650(3) 0.1708(3) 0.2703(2)
H16 H 1.1367 0.1506 0.3050
C28 C 1.1346(3) 0.2137(3) 0.2306(2)
H17 H 1.0817 0.2292 0.2330
C29 C 1.1961(3) 0.2315(3) 0.1846(2)
C30 C 1.1929(3) 0.2768(3) 0.1364(2)
C31 C 1.1496(3) 0.3378(3) 0.1431(2)
C32 C 1.1297(3) 0.3812(3) 0.0951(2)
H18 H 1.1336 0.3664 0.0480
C33 C 1.1040(4) 0.4476(3) 0.1282(3)
H19 H 1.0866 0.4866 0.1082
C34 C 1.1080(3) 0.4479(3) 0.1983(3)
C35 C 1.1091(3) 0.5146(3) 0.2556(3)
C36 C 1.2002(3) 0.4273(3) 0.5164(2)
C37 C 1.1665(3) 0.4576(3) 0.5731(3)
C38 C 1.2185(4) 0.4860(3) 0.6408(3)
H20 H 1.1932 0.5066 0.6785
C39 C 1.3061(4) 0.4841(4) 0.6527(3)
H21 H 1.3426 0.5047 0.6985
C40 C 1.3409(4) 0.4521(4) 0.5979(3)
H22 H 1.4012 0.4497 0.6060
C41 C 1.2888(4) 0.4235(4) 0.5308(3)
Cl1 Cl 1.05524(11) 0.45863(11) 0.56061(8)
Cl2 Cl 1.33356(11) 0.38012(15) 0.46343(9)
C42 C 0.8812(3) 0.1835(3) 0.2346(2)
C43 C 0.8854(3) 0.1704(3) 0.1647(2)
C44 C 0.8645(4) 0.2222(4) 0.1275(3)
H23 H 0.8688 0.2118 0.0805
C45 C 0.8373(4) 0.2890(4) 0.1594(3)
H24 H 0.8232 0.3250 0.1342
C46 C 0.8302(4) 0.3042(3) 0.2269(3)
H25 H 0.8108 0.3499 0.2485
C47 C 0.8519(3) 0.2517(3) 0.2636(2)
Cl3 Cl 0.92020(9) 0.08797(8) 0.12167(6)
Cl4 Cl 0.83762(9) 0.27186(8) 0.34836(6)
C48 C 0.7640(3) -0.2669(3) 0.2296(3)
C49 C 0.6902(4) -0.3014(4) 0.2611(3)
C50 C 0.6160(4) -0.3829(4) 0.2289(4)
H26 H 0.5668 -0.4044 0.2514
C51 C 0.6139(4) -0.4326(4) 0.1637(4)
H27 H 0.5634 -0.4890 0.1416
C52 C 0.6851(4) -0.4008(4) 0.1301(3)
H28 H 0.6833 -0.4345 0.0849
C53 C 0.7587(4) -0.3191(3) 0.1638(3)
Cl5 Cl 0.69222(12) -0.24119(12) 0.34337(9)
Cl6 Cl 0.84706(10) -0.28079(9) 0.12078(7)
C54 C 1.1903(3) -0.0756(3) 0.4793(3)
C55 C 1.1864(4) -0.0305(4) 0.5448(3)
C56 C 1.2312(4) -0.0370(5) 0.6042(3)
H29 H 1.2284 -0.0042 0.6484
C57 C 1.2799(5) -0.0917(6) 0.5985(4)
H30 H 1.3104 -0.0972 0.6391
C58 C 1.2851(4) -0.1384(5) 0.5351(5)
H31 H 1.3180 -0.1768 0.5316
C59 C 1.2419(4) -0.1291(4) 0.4759(3)
Cl7 Cl 1.12417(10) 0.03788(10) 0.55264(7)
Cl8 Cl 1.25129(12) -0.18351(9) 0.39534(10)
C60 C 1.4064(3) 0.1564(3) 0.2740(2)
C61 C 1.4743(3) 0.2432(3) 0.2931(2)
C62 C 1.5662(3) 0.2620(4) 0.2856(3)
H32 H 1.6111 0.3219 0.2993
C63 C 1.5906(4) 0.1914(4) 0.2579(3)
H33 H 1.6534 0.2033 0.2528
C64 C 1.5267(4) 0.1048(4) 0.2374(3)
H34 H 1.5444 0.0570 0.2175
C65 C 1.4357(3) 0.0877(3) 0.2461(2)
Cl9 Cl 1.44403(9) 0.33245(8) 0.32771(7)
Cl10 Cl 1.35470(10) -0.02278(8) 0.22022(7)
C66 C 1.2466(3) 0.2704(3) 0.0810(2)
C67 C 1.2197(3) 0.1931(3) 0.0253(2)
C68 C 1.2698(4) 0.1856(4) -0.0260(3)
H35 H 1.2497 0.1317 -0.0632
C69 C 1.3496(4) 0.2586(4) -0.0217(3)
H36 H 1.3854 0.2545 -0.0560
C70 C 1.3782(4) 0.3372(4) 0.0318(3)
H37 H 1.4325 0.3875 0.0338
C71 C 1.3270(4) 0.3423(3) 0.0826(3)
Cl11 Cl 1.11846(10) 0.10196(8) 0.01908(7)
Cl12 Cl 1.36714(10) 0.44016(10) 0.15149(8)
C72 C 1.1159(4) 0.6003(3) 0.2431(3)
C73 C 1.2021(4) 0.6600(3) 0.2382(3)
C74 C 1.2134(5) 0.7396(4) 0.2250(4)
H38 H 1.2728 0.7783 0.2213
C75 C 1.1359(6) 0.7611(4) 0.2174(4)
H39 H 1.1426 0.8163 0.2099
C76 C 1.0499(5) 0.7047(4) 0.2205(4)
H40 H 0.9969 0.7201 0.2145
C77 C 1.0402(4) 0.6236(4) 0.2326(3)
Cl13 Cl 1.30114(11) 0.63486(11) 0.24964(11)
Cl14 Cl 0.92933(12) 0.55083(12) 0.23218(10)
C78 C 1.1120(7) -0.0418(5) 0.1144(4)
H41 H 1.0697 -0.0277 0.0835
H42 H 1.1697 0.0133 0.1359
C79 C 1.1377(6) -0.1077(7) 0.0730(5)
H43 H 1.1906 -0.1120 0.1018
H44 H 1.1615 -0.0863 0.0352
Cl15 Cl 1.05645(11) -0.06885(10) 0.18027(9)
Cl16 Cl 1.04973(19) -0.21514(15) 0.03643(12)
C80 C 1.3967(3) 0.1138(3) 0.0622(3)
C81 C 1.4248(4) 0.0750(3) -0.0007(3)
C82 C 1.5094(4) 0.1169(4) -0.0118(3)
C83 C 1.5808(4) 0.2045(3) 0.0390(3)
C84 C 1.5517(3) 0.2456(3) 0.0961(2)
C85 C 1.4606(3) 0.2091(3) 0.1082(2)
O1 O 1.3248(3) 0.0730(3) 0.0782(2)
Cl17 Cl 1.34362(10) -0.02511(10) -0.05589(8)
Cl18 Cl 1.54602(12) 0.07616(11) -0.08290(7)
O2 O 1.6597(3) 0.2355(3) 0.0273(2)
C86 C 1.6169(4) 0.3288(4) 0.1426(3)
N8 N 1.6729(3) 0.3959(3) 0.1808(3)
O3 O 1.4282(2) 0.2457(2) 0.15329(18)
C89 C 0.5192(15) 0.8598(16) 0.3254(13)
H49 H 0.4848 0.8006 0.3306
H50 H 0.5865 0.8804 0.3476
C90 C 0.4790(11) 0.9273(17) 0.3602(10)
H51 H 0.4107 0.9028 0.3396
H52 H 0.5085 0.9834 0.3490
Cl21 Cl 0.5064(6) 0.8512(7) 0.2342(9)
Cl22 Cl 0.4951(3) 0.9542(5) 0.4525(4)
C91 C 1.2246(8) 0.5614(9) -0.0161(6)
H53 H 1.2138 0.4973 -0.0276
H54 H 1.2462 0.5830 -0.0545
C92 C 1.2988(7) 0.6149(8) 0.0510(6)
H55 H 1.2775 0.5927 0.0892
H56 H 1.3088 0.6788 0.0628
Cl23 Cl 1.1210(2) 0.5751(4) -0.0052(2)
Cl24 Cl 1.40642(16) 0.60238(17) 0.03959(14)
C93 C 0.5937(11) 0.4261(10) 0.5703(10)
H57 H 0.5458 0.4332 0.5386
H58 H 0.6567 0.4605 0.5642
C94 C 0.5772(13) 0.3279(10) 0.5545(9)
H59 H 0.5138 0.2922 0.5592
H60 H 0.6250 0.3197 0.5854
Cl25 Cl 0.5856(11) 0.4668(7) 0.6592(7)
Cl26 Cl 0.5879(10) 0.2982(8) 0.4687(6)
C87? C 0.5332(19) 0.840(3) 0.2690(17)
H45? H 0.5928 0.8927 0.2796
H46? H 0.5519 0.7912 0.2758
C88? C 0.4871(14) 0.8621(14) 0.3307(10)
H47? H 0.4188 0.8263 0.3127
H48? H 0.4957 0.9253 0.3388
Cl19? Cl 0.5015(9) 0.8146(12) 0.1957(7)
Cl20? Cl 0.5118(5) 0.8522(7) 0.4102(3)
C95? C 0.6121(14) 0.3941(14) 0.6017(7)
C96? C 0.5549(18) 0.3673(16) 0.5291(7)
Cl27? Cl 0.5742(12) 0.4537(11) 0.6644(8)
Cl28? Cl 0.5929(8) 0.3013(9) 0.4651(6)
H61? H 0.6784 0.4305 0.6033
H62? H 0.6105 0.3393 0.6124
H63? H 0.5588 0.4221 0.5174
H64? H 0.4881 0.3329 0.5278
loop_
_geom_bond_atom_site_label_1
_geom_bond_atom_site_label_2
_geom_bond_site_symmetry_1
_geom_bond_site_symmetry_2
N1 C1 1_555 1_555
N2 H1 1_555 1_555
N3 H2 1_555 1_555
N4 C16 1_555 1_555
N5 H3 1_555 1_555
N6 H4 1_555 1_555
N7 H5 1_555 1_555
C1 C2 1_555 1_555
C2 H6 1_555 1_555
C3 C2 1_555 1_555
H7 C3 1_555 1_555
C4 N1 1_555 1_555
C5 C4 1_555 1_555
C6 N2 1_555 1_555
C7 C6 1_555 1_555
H8 C7 1_555 1_555
C8 C7 1_555 1_555
H9 C8 1_555 1_555
C9 N2 1_555 1_555
C10 C9 1_555 1_555
C11 N3 1_555 1_555
C12 C11 1_555 1_555
H10 C12 1_555 1_555
C13 C12 1_555 1_555
H11 C13 1_555 1_555
C14 N3 1_555 1_555
C15 C14 1_555 1_555
C16 C15 1_555 1_555
C17 C16 1_555 1_555
H12 C17 1_555 1_555
C18 C17 1_555 1_555
H13 C18 1_555 1_555
C19 N4 1_555 1_555
C20 C19 1_555 1_555
C21 N5 1_555 1_555
C22 C21 1_555 1_555
H14 C22 1_555 1_555
C23 C22 1_555 1_555
H15 C23 1_555 1_555
C24 N5 1_555 1_555
C25 C24 1_555 1_555
C26 N6 1_555 1_555
C27 C26 1_555 1_555
H16 C27 1_555 1_555
C28 C27 1_555 1_555
H17 C28 1_555 1_555
C29 N6 1_555 1_555
C30 C29 1_555 1_555
C31 N7 1_555 1_555
C32 C31 1_555 1_555
H18 C32 1_555 1_555
C33 C32 1_555 1_555
H19 C33 1_555 1_555
C34 N7 1_555 1_555
C35 C1 1_555 1_555
C36 C5 1_555 1_555
C37 C36 1_555 1_555
C38 C37 1_555 1_555
H20 C38 1_555 1_555
C39 C38 1_555 1_555
H21 C39 1_555 1_555
C40 C39 1_555 1_555
H22 C40 1_555 1_555
C41 C36 1_555 1_555
Cl1 C37 1_555 1_555
Cl2 C41 1_555 1_555
C42 C10 1_555 1_555
C43 C42 1_555 1_555
C44 C43 1_555 1_555
H23 C44 1_555 1_555
C45 C44 1_555 1_555
H24 C45 1_555 1_555
C46 C45 1_555 1_555
H25 C46 1_555 1_555
C47 C42 1_555 1_555
Cl3 C43 1_555 1_555
Cl4 C47 1_555 1_555
C48 C15 1_555 1_555
C49 C48 1_555 1_555
C50 C49 1_555 1_555
H26 C50 1_555 1_555
C51 C50 1_555 1_555
H27 C51 1_555 1_555
C52 C51 1_555 1_555
H28 C52 1_555 1_555
C53 C48 1_555 1_555
Cl5 C49 1_555 1_555
Cl6 C53 1_555 1_555
C54 C20 1_555 1_555
C55 C54 1_555 1_555
C56 C55 1_555 1_555
H29 C56 1_555 1_555
C57 C56 1_555 1_555
H30 C57 1_555 1_555
C58 C57 1_555 1_555
H31 C58 1_555 1_555
C59 C54 1_555 1_555
Cl7 C55 1_555 1_555
Cl8 C59 1_555 1_555
C60 C25 1_555 1_555
C61 C60 1_555 1_555
C62 C61 1_555 1_555
H32 C62 1_555 1_555
C63 C62 1_555 1_555
H33 C63 1_555 1_555
C64 C63 1_555 1_555
H34 C64 1_555 1_555
C65 C60 1_555 1_555
Cl9 C61 1_555 1_555
Cl10 C65 1_555 1_555
C66 C30 1_555 1_555
C67 C66 1_555 1_555
C68 C67 1_555 1_555
H35 C68 1_555 1_555
C69 C68 1_555 1_555
H36 C69 1_555 1_555
C70 C69 1_555 1_555
H37 C70 1_555 1_555
C71 C66 1_555 1_555
Cl11 C67 1_555 1_555
Cl12 C71 1_555 1_555
C72 C35 1_555 1_555
C73 C72 1_555 1_555
C74 C73 1_555 1_555
H38 C74 1_555 1_555
C75 C74 1_555 1_555
H39 C75 1_555 1_555
C76 C75 1_555 1_555
H40 C76 1_555 1_555
C77 C72 1_555 1_555
Cl13 C73 1_555 1_555
Cl14 C77 1_555 1_555
C78 H41 1_555 1_555
H42 C78 1_555 1_555
C79 C78 1_555 1_555
H43 C79 1_555 1_555
H44 C79 1_555 1_555
Cl15 C78 1_555 1_555
Cl16 C79 1_555 1_555
C80 C81 1_555 1_555
C81 C82 1_555 1_555
C82 C83 1_555 1_555
C83 C84 1_555 1_555
C84 C85 1_555 1_555
C85 C80 1_555 1_555
O1 C80 1_555 1_555
Cl17 C81 1_555 1_555
Cl18 C82 1_555 1_555
O2 C83 1_555 1_555
C86 C84 1_555 1_555
N8 C86 1_555 1_555
O3 C85 1_555 1_555
C89 H49 1_555 1_555
H50 C89 1_555 1_555
C90 C89 1_555 1_555
H51 C90 1_555 1_555
H52 C90 1_555 1_555
Cl21 C89 1_555 1_555
Cl22 C90 1_555 1_555
C91 H53 1_555 1_555
H54 C91 1_555 1_555
C92 C91 1_555 1_555
H55 C92 1_555 1_555
H56 C92 1_555 1_555
Cl23 C91 1_555 1_555
Cl24 C92 1_555 1_555
C93 H57 1_555 1_555
H58 C93 1_555 1_555
C94 C93 1_555 1_555
H59 C94 1_555 1_555
H60 C94 1_555 1_555
Cl25 C93 1_555 1_555
Cl26 C94 1_555 1_555
C3 C4 1_555 1_555
C5 C6 1_555 1_555
C8 C9 1_555 1_555
C10 C11 1_555 1_555
C13 C14 1_555 1_555
C18 C19 1_555 1_555
C20 C21 1_555 1_555
C23 C24 1_555 1_555
C25 C26 1_555 1_555
C28 C29 1_555 1_555
C30 C31 1_555 1_555
C33 C34 1_555 1_555
C34 C35 1_555 1_555
C40 C41 1_555 1_555
C46 C47 1_555 1_555
C52 C53 1_555 1_555
C58 C59 1_555 1_555
C64 C65 1_555 1_555
C70 C71 1_555 1_555
C76 C77 1_555 1_555

#END
