
#######################################################################
#
#                 Cambridge Crystallographic Data Centre
#                                CCDC 
#
#######################################################################
#
# If this CIF has been generated from an entry in the Cambridge 
# Structural Database, then it will include bibliographic, chemical, 
# crystal, experimental, refinement or atomic coordinate data resulting 
# from the CCDC's data processing and validation procedures.
#
#######################################################################

data_LOKXAL
_chemical_formula_moiety         'C77 H19 F35 N7 1+,C2 F3 O2 1-,4(C2 H1 F3 O2)'
_chemical_name_systematic        
'5,10,15,20,25,30,35-heptakis(Pentafluorophenyl)-36,38,39,40,42-pentahydro[32]heptaphyrin-39-ium(1.1.1.1.1.1.1) trifluoroacetate trifluoroacetic acid unknown solvate'
_symmetry_cell_setting           triclinic
_symmetry_space_group_name_H-M   'P -1'
_symmetry_Int_Tables_number      2
_space_group_name_Hall           '-P 1'
loop_
_symmetry_equiv_pos_site_id
_symmetry_equiv_pos_as_xyz
1 x,y,z
2 -x,-y,-z
_cell_length_a                   14.531(5)
_cell_length_b                   18.338(5)
_cell_length_c                   21.833(6)
_cell_angle_alpha                101.389(10)
_cell_angle_beta                 107.408(11)
_cell_angle_gamma                106.575(10)
_cell_volume                     5059.89
_exptl_crystal_colour            blue
_exptl_crystal_description       prism
_cell_formula_units_Z            2
_exptl_crystal_recrystallization_method pentane
loop_
_atom_site_label
_atom_site_type_symbol
_atom_site_fract_x
_atom_site_fract_y
_atom_site_fract_z
C1 C 0.5032(5) 0.2711(3) 0.5245(4)
C2 C 0.4928(5) 0.3179(4) 0.5785(4)
H1 H 0.5452 0.3446 0.6224
C3 C 0.3953(5) 0.3192(4) 0.5583(4)
H2 H 0.3691 0.3478 0.5856
C4 C 0.3391(5) 0.2711(3) 0.4898(4)
C5 C 0.2411(5) 0.2605(3) 0.4473(4)
C6 C 0.1889(5) 0.2089(3) 0.3804(3)
C7 C 0.2039(6) 0.1411(4) 0.3481(4)
H3 H 0.2555 0.1213 0.3675
C8 C 0.1301(5) 0.1090(4) 0.2835(4)
H4 H 0.1203 0.0615 0.2512
C9 C 0.0702(5) 0.1588(3) 0.2728(3)
C10 C 0.0012(5) 0.1602(4) 0.2151(3)
C11 C -0.0544(5) 0.0913(3) 0.1595(3)
C12 C -0.0968(6) 0.0893(4) 0.0930(4)
H5 H -0.0906 0.1347 0.0776
C13 C -0.1478(6) 0.0131(4) 0.0540(4)
H6 H -0.1826 -0.0053 0.0063
C14 C -0.1403(5) -0.0356(4) 0.0975(4)
C15 C -0.1891(5) -0.1189(4) 0.0755(3)
C16 C -0.1986(5) -0.1740(3) 0.1120(3)
C17 C -0.2589(5) -0.2570(4) 0.0846(3)
H7 H -0.2948 -0.2852 0.0378
C18 C -0.2580(5) -0.2897(4) 0.1340(3)
H8 H -0.2954 -0.3437 0.1291
C19 C -0.1903(5) -0.2283(4) 0.1954(4)
C20 C -0.1597(4) -0.2332(3) 0.2618(3)
C21 C -0.0668(5) -0.1870(3) 0.3149(3)
C22 C -0.0434(4) -0.1768(3) 0.3852(3)
H9 H -0.0898 -0.2038 0.4033
C23 C 0.0514(5) -0.1246(3) 0.4213(3)
H10 H 0.0849 -0.1062 0.4691
C24 C 0.0949(5) -0.1008(3) 0.3724(3)
C25 C 0.1959(4) -0.0488(3) 0.3895(3)
C26 C 0.2473(5) -0.0508(3) 0.3453(3)
C27 C 0.2270(5) -0.1094(4) 0.2845(3)
H11 H 0.1688 -0.1582 0.2629
C28 C 0.3068(5) -0.0831(4) 0.2618(3)
H12 H 0.3134 -0.1106 0.2226
C29 C 0.3746(5) -0.0093(4) 0.3074(3)
C30 C 0.4717(5) 0.0430(4) 0.3105(4)
C31 C 0.5352(5) 0.1134(4) 0.3656(4)
C32 C 0.6429(6) 0.1522(4) 0.3846(4)
H13 H 0.6828 0.1408 0.3591
C33 C 0.6799(5) 0.2089(4) 0.4458(4)
H14 H 0.7500 0.2433 0.4719
C34 C 0.5900(5) 0.2057(4) 0.4629(4)
C35 C 0.5911(5) 0.2593(3) 0.5186(4)
N1 N 0.4075(4) 0.2407(3) 0.4720(3)
H15 H 0.3922 0.2066 0.4326
N2 N 0.1098(4) 0.2194(3) 0.3342(3)
H16 H 0.0873 0.2587 0.3421
N3 N -0.0809(4) 0.0168(3) 0.1598(3)
H17 H -0.0620 0.0025 0.1964
N4 N -0.1542(4) -0.1580(3) 0.1817(3)
N5 N 0.0219(3) -0.1388(3) 0.3114(2)
H18 H 0.0292 -0.1338 0.2737
N6 N 0.3386(4) 0.0084(3) 0.3562(3)
H19 H 0.3696 0.0525 0.3908
N7 N 0.5037(4) 0.1449(3) 0.4146(3)
C36 C 0.1870(5) 0.3083(3) 0.4750(3)
C37 C 0.0943(5) 0.2721(4) 0.4809(3)
C38 C 0.0413(5) 0.3137(4) 0.5057(3)
C39 C 0.0816(5) 0.3947(4) 0.5251(3)
C40 C 0.1723(6) 0.4330(4) 0.5203(4)
C41 C 0.2226(5) 0.3901(4) 0.4948(4)
F1 F 0.0493(3) 0.19213(19) 0.46059(19)
F2 F -0.0487(3) 0.2751(2) 0.5096(2)
F3 F 0.0338(3) 0.4369(2) 0.5517(2)
F4 F 0.2143(3) 0.5140(2) 0.5411(2)
F5 F 0.3142(3) 0.4309(2) 0.4918(2)
C42 C -0.0382(4) 0.2292(4) 0.20597(16)
C43 C -0.1386(6) 0.2232(5) 0.18663(16)
C44 C -0.1680(7) 0.2867(5) 0.18051(19)
C45 C -0.0919(7) 0.3616(5) 0.1950(3)
C46 C 0.0101(7) 0.3700(4) 0.2140(3)
C47 C 0.0348(7) 0.3036(5) 0.2197(3)
F6 F -0.2142(5) 0.1545(3) 0.1725(3)
F7 F -0.2670(6) 0.2788(4) 0.1613(3)
F8 F -0.1232(6) 0.4222(4) 0.1881(3)
F9 F 0.0845(6) 0.4398(4) 0.2280(3)
F10 F 0.1348(5) 0.3141(3) 0.2387(3)
C48 C -0.2433(6) -0.15452(19) -0.0002(5)
C49 C -0.1895(7) -0.1604(2) -0.0408(4)
C50 C -0.2338(7) -0.1905(2) -0.1086(5)
C51 C -0.3385(8) -0.2163(4) -0.1390(5)
C52 C -0.3968(8) -0.2122(4) -0.1019(5)
C53 C -0.3472(8) -0.1815(4) -0.0332(5)
F11 F -0.0843(6) -0.1357(3) -0.0139(4)
F12 F -0.1804(6) -0.1968(4) -0.1493(4)
F13 F -0.3884(7) -0.2480(4) -0.2077(4)
F14 F -0.5029(7) -0.2396(4) -0.1321(5)
F15 F -0.4095(7) -0.1783(4) 0.0028(5)
C54 C -0.2367(3) -0.30006(19) 0.2724(2)
C55 C -0.3378(3) -0.3025(3) 0.2566(2)
C56 C -0.4114(3) -0.3640(3) 0.2642(3)
C57 C -0.3839(4) -0.4230(3) 0.2875(3)
C58 C -0.2828(5) -0.4205(2) 0.3033(3)
C59 C -0.2092(3) -0.3591(2) 0.2957(2)
F16 F -0.3657(3) -0.2464(3) 0.2372(2)
F17 F -0.5066(4) -0.3634(4) 0.2528(3)
F18 F -0.4527(4) -0.4819(3) 0.2944(3)
F19 F -0.2579(5) -0.4772(3) 0.3239(2)
F20 F -0.1140(4) -0.3578(2) 0.3125(2)
C60 C 0.2534(4) 0.0099(3) 0.4595(3)
C61 C 0.2161(5) 0.0642(3) 0.4857(3)
C62 C 0.2692(5) 0.1210(4) 0.5463(3)
C63 C 0.3657(5) 0.1269(3) 0.5844(3)
C64 C 0.4091(5) 0.0743(4) 0.5619(3)
C65 C 0.3508(5) 0.0156(3) 0.5007(3)
F21 F 0.1213(3) 0.0617(2) 0.44829(19)
F22 F 0.2276(3) 0.1725(2) 0.56896(19)
F23 F 0.4203(3) 0.1844(2) 0.64501(19)
F24 F 0.5025(3) 0.0793(2) 0.59884(18)
F25 F 0.3925(2) -0.03682(19) 0.48080(18)
C66 C 0.5893(5) -0.0495(4) 0.1987(3)
C67 C 0.5439(4) -0.0377(3) 0.2445(3)
F26 F 0.6210(3) -0.1106(3) 0.1888(2)
C68 C 0.5035(5) 0.0206(5) 0.2491(6)
C69 C 0.4999(5) 0.0638(5) 0.2053(5)
C70 C 0.5376(5) 0.0506(5) 0.1563(4)
C71 C 0.5789(7) -0.0077(6) 0.1531(5)
F27 F 0.4577(6) 0.1206(5) 0.2095(5)
F28 F 0.5332(7) 0.0946(5) 0.1132(4)
F29 F 0.6168(6) -0.0191(6) 0.1029(4)
F30 F 0.5500(8) -0.0793(5) 0.2895(5)
C72 C 0.6916(5) 0.3100(4) 0.5683(4)
C73 C 0.7340(6) 0.3928(4) 0.5786(4)
C74 C 0.8349(5) 0.4404(4) 0.6212(4)
C75 C 0.8953(6) 0.4093(4) 0.6561(4)
C76 C 0.8568(6) 0.3273(4) 0.6490(4)
C77 C 0.7578(6) 0.2818(4) 0.6098(4)
F31 F 0.6738(3) 0.4245(2) 0.5423(3)
F32 F 0.8695(4) 0.5180(2) 0.6247(3)
F33 F 0.9924(3) 0.4541(2) 0.6952(3)
F34 F 0.9181(3) 0.2964(2) 0.6862(3)
F35 F 0.7247(3) 0.2035(2) 0.6034(3)
C78 C 0.0893(5) 0.9055(4) 0.1488(3)
C79 C 0.1439(6) 0.9702(5) 0.1261(4)
O1 O 0.0599(3) 0.9224(2) 0.1946(2)
O2 O 0.0714(4) 0.8352(3) 0.1126(2)
H20 H 0.0406 0.8012 0.1276
F36 F 0.0905(4) 1.0062(3) 0.0983(3)
F37 F 0.2212(4) 1.0277(3) 0.1803(3)
F38 F 0.1893(5) 0.9476(3) 0.0868(3)
C80 C 0.8810(5) 0.0310(4) 0.3075(3)
C81 C 0.8399(5) 0.0062(4) 0.3592(4)
O3 O 0.8753(4) 0.0913(3) 0.2955(2)
O4 O 0.9173(3) -0.0158(2) 0.2820(2)
F39 F 0.7993(4) 0.0536(3) 0.3850(2)
F40 F 0.7658(4) -0.0661(3) 0.3325(2)
F41 F 0.9097(3) 0.0021(3) 0.4113(2)
C82 C 0.8829(6) 0.2765(4) 0.3401(4)
C83 C 0.8312(8) 0.3368(5) 0.3476(6)
O5 O 0.8155(4) 0.2039(3) 0.3223(3)
H21 H 0.8450 0.1710 0.3182
O6 O 0.9723(4) 0.2982(3) 0.3499(2)
F42 F 0.8396(6) 0.3594(3) 0.4129(4)
F43 F 0.7329(4) 0.3112(3) 0.3154(4)
F44 F 0.8777(4) 0.4026(3) 0.3381(3)
O7 O 0.8665(10) 0.5759(8) 0.9047(6)
C84 C 0.6990(6) 0.5912(5) 0.8856(5)
F45 F 0.6580(8) 0.5108(5) 0.8601(6)
O8 O 0.8645(9) 0.6909(7) 0.9355(6)
C85 C 0.8139(6) 0.6171(9) 0.9093(7)
F46 F 0.6608(9) 0.6151(7) 0.8331(5)
F47 F 0.6650(8) 0.6139(7) 0.9305(6)
O9 O 0.9853(5) 0.7202(4) 0.1540(3)
F48 F 0.8749(5) 0.5960(4) 0.1776(3)
C86 C 0.9681(9) 0.6614(5) 0.1209(5)
F49 F 0.8880(10) 0.5229(5) 0.0910(6)
O10 O 0.9652(14) 0.6443(10) 0.0608(9)
H22 H 0.9400 0.5944 0.0431
C87 C 0.9290(7) 0.5890(5) 0.1406(5)
F50 F 1.0074(8) 0.5702(6) 0.1738(6)
C88? C 0.0233(4) 0.2434(10) 0.2124(2)
C89? C -0.0618(6) 0.2603(7) 0.1870(2)
C90? C -0.0532(7) 0.3344(7) 0.1824(3)
C91? C 0.0370(9) 0.3945(9) 0.2016(4)
C92? C 0.1228(10) 0.3795(8) 0.2272(4)
C93? C 0.1139(10) 0.3054(8) 0.2317(4)
C94? C -0.2578(8) -0.1536(3) 0.0009(4)
C95? C -0.2155(6) -0.1647(4) -0.0480(5)
C96? C -0.2803(9) -0.2023(4) -0.1155(5)
C97? C -0.3873(8) -0.2287(3) -0.1342(4)
C98? C -0.4296(6) -0.2176(4) -0.0854(5)
C99? C -0.3648(8) -0.1800(3) -0.0178(5)
C100? C 0.5169(4) 0.0262(5) 0.2635(4)
C101? C 0.5460(5) 0.0814(5) 0.2321(4)
C102? C 0.5954(5) 0.0745(5) 0.1887(4)
C103? C 0.6215(8) 0.0102(6) 0.1738(5)
F51? F 0.2066(9) 0.2973(6) 0.2584(4)
F52? F -0.1177(10) -0.1403(5) -0.0297(8)
F53? F -0.2347(11) -0.2098(6) -0.1564(7)
F54? F -0.4512(12) -0.2635(5) -0.1948(6)
F55? F -0.5280(8) -0.2420(5) -0.1024(7)
F56? F -0.4045(10) -0.1695(5) 0.0278(6)
F57? F 0.5259(6) 0.1498(4) 0.2443(4)
F58? F 0.6198(7) 0.1306(5) 0.1587(4)
F59? F 0.6705(7) 0.0010(6) 0.1301(4)
F60? F 0.5212(7) -0.0983(5) 0.2723(4)
F61? F -0.1543(10) 0.2019(9) 0.1669(5)
F62? F -0.1452(11) 0.3422(10) 0.1560(5)
F63? F 0.0437(14) 0.4673(9) 0.1967(6)
F64? F 0.2157(12) 0.4395(8) 0.2475(5)
loop_
_geom_bond_atom_site_label_1
_geom_bond_atom_site_label_2
_geom_bond_site_symmetry_1
_geom_bond_site_symmetry_2
C1 C2 1_555 1_555
C2 H1 1_555 1_555
C3 C2 1_555 1_555
H2 C3 1_555 1_555
C4 C3 1_555 1_555
C5 C4 1_555 1_555
C6 C5 1_555 1_555
C7 C6 1_555 1_555
H3 C7 1_555 1_555
C8 C7 1_555 1_555
H4 C8 1_555 1_555
C9 C8 1_555 1_555
C10 C9 1_555 1_555
C11 C10 1_555 1_555
C12 C11 1_555 1_555
H5 C12 1_555 1_555
C13 C12 1_555 1_555
H6 C13 1_555 1_555
C14 C13 1_555 1_555
C15 C14 1_555 1_555
C16 C15 1_555 1_555
C17 C16 1_555 1_555
H7 C17 1_555 1_555
C18 C17 1_555 1_555
H8 C18 1_555 1_555
C19 C18 1_555 1_555
C20 C19 1_555 1_555
C21 C20 1_555 1_555
C22 C21 1_555 1_555
H9 C22 1_555 1_555
C23 C22 1_555 1_555
H10 C23 1_555 1_555
C24 C23 1_555 1_555
C25 C24 1_555 1_555
C26 C25 1_555 1_555
C27 C26 1_555 1_555
H11 C27 1_555 1_555
C28 C27 1_555 1_555
H12 C28 1_555 1_555
C29 C28 1_555 1_555
C30 C29 1_555 1_555
C31 C30 1_555 1_555
C32 C31 1_555 1_555
H13 C32 1_555 1_555
C33 C32 1_555 1_555
H14 C33 1_555 1_555
C34 C33 1_555 1_555
C35 C1 1_555 1_555
N1 C1 1_555 1_555
H15 N1 1_555 1_555
N2 C6 1_555 1_555
H16 N2 1_555 1_555
N3 C11 1_555 1_555
H17 N3 1_555 1_555
N4 C16 1_555 1_555
N5 C21 1_555 1_555
H18 N5 1_555 1_555
N6 C26 1_555 1_555
H19 N6 1_555 1_555
N7 C31 1_555 1_555
C36 C5 1_555 1_555
C37 C36 1_555 1_555
C38 C37 1_555 1_555
C39 C38 1_555 1_555
C40 C39 1_555 1_555
C41 C36 1_555 1_555
F1 C37 1_555 1_555
F2 C38 1_555 1_555
F3 C39 1_555 1_555
F4 C40 1_555 1_555
F5 C41 1_555 1_555
C42 C10 1_555 1_555
C43 C42 1_555 1_555
C44 C43 1_555 1_555
C45 C44 1_555 1_555
C46 C45 1_555 1_555
C47 C42 1_555 1_555
F6 C43 1_555 1_555
F7 C44 1_555 1_555
F8 C45 1_555 1_555
F9 C46 1_555 1_555
F10 C47 1_555 1_555
C48 C15 1_555 1_555
C49 C48 1_555 1_555
C50 C49 1_555 1_555
C51 C50 1_555 1_555
C52 C51 1_555 1_555
C53 C48 1_555 1_555
F11 C49 1_555 1_555
F12 C50 1_555 1_555
F13 C51 1_555 1_555
F14 C52 1_555 1_555
F15 C53 1_555 1_555
C54 C20 1_555 1_555
C55 C54 1_555 1_555
C56 C55 1_555 1_555
C57 C56 1_555 1_555
C58 C57 1_555 1_555
C59 C54 1_555 1_555
F16 C55 1_555 1_555
F17 C56 1_555 1_555
F18 C57 1_555 1_555
F19 C58 1_555 1_555
F20 C59 1_555 1_555
C60 C25 1_555 1_555
C61 C60 1_555 1_555
C62 C61 1_555 1_555
C63 C62 1_555 1_555
C64 C63 1_555 1_555
C65 C60 1_555 1_555
F21 C61 1_555 1_555
F22 C62 1_555 1_555
F23 C63 1_555 1_555
F24 C64 1_555 1_555
F25 C65 1_555 1_555
C66 C67 1_555 1_555
C67 C68 1_555 1_555
F26 C66 1_555 1_555
C68 C30 1_555 1_555
C69 C68 1_555 1_555
C70 C69 1_555 1_555
C71 C66 1_555 1_555
F27 C69 1_555 1_555
F28 C70 1_555 1_555
F29 C71 1_555 1_555
F30 C67 1_555 1_555
C72 C35 1_555 1_555
C73 C72 1_555 1_555
C74 C73 1_555 1_555
C75 C74 1_555 1_555
C76 C75 1_555 1_555
C77 C72 1_555 1_555
F31 C73 1_555 1_555
F32 C74 1_555 1_555
F33 C75 1_555 1_555
F34 C76 1_555 1_555
F35 C77 1_555 1_555
C78 C79 1_555 1_555
C79 F36 1_555 1_555
O1 C78 1_555 1_555
O2 C78 1_555 1_555
H20 O2 1_555 1_555
F37 C79 1_555 1_555
F38 C79 1_555 1_555
C80 C81 1_555 1_555
C81 F39 1_555 1_555
O3 C80 1_555 1_555
O4 C80 1_555 1_555
F40 C81 1_555 1_555
F41 C81 1_555 1_555
C82 C83 1_555 1_555
C83 F42 1_555 1_555
O5 C82 1_555 1_555
H21 O5 1_555 1_555
O6 C82 1_555 1_555
F43 C83 1_555 1_555
F44 C83 1_555 1_555
O7 C85 1_555 1_555
C84 F45 1_555 1_555
O8 C85 1_555 1_555
C85 C84 1_555 1_555
F46 C84 1_555 1_555
F47 C84 1_555 1_555
O9 C86 1_555 1_555
F48 C87 1_555 1_555
C86 O10 1_555 1_555
F49 C87 1_555 1_555
O10 H22 1_555 1_555
C87 C86 1_555 1_555
F50 C87 1_555 1_555
C4 N1 1_555 1_555
C9 N2 1_555 1_555
C14 N3 1_555 1_555
C19 N4 1_555 1_555
C24 N5 1_555 1_555
C29 N6 1_555 1_555
C34 C35 1_555 1_555
C34 N7 1_555 1_555
C40 C41 1_555 1_555
C46 C47 1_555 1_555
C52 C53 1_555 1_555
C58 C59 1_555 1_555
C64 C65 1_555 1_555
C70 C71 1_555 1_555
C76 C77 1_555 1_555

#END
