
#######################################################################
#
#                 Cambridge Crystallographic Data Centre
#                                CCDC 
#
#######################################################################
#
# If this CIF has been generated from an entry in the Cambridge 
# Structural Database, then it will include bibliographic, chemical, 
# crystal, experimental, refinement or atomic coordinate data resulting 
# from the CCDC's data processing and validation procedures.
#
#######################################################################

data_LOKZUI
_chemical_formula_moiety         'C26 H23 F3 N2 O2'
_chemical_name_systematic        
7,7-Dimethyl-4-(4-methylphenyl)-1-phenyl-3-(trifluoromethyl)-4,6,7,8-tetrahydrochromeno[2,3-c]pyrazol-5(1H)-one
_symmetry_cell_setting           monoclinic
_symmetry_space_group_name_H-M   'P 21/c'
_symmetry_Int_Tables_number      14
_space_group_name_Hall           '-P 2ybc'
loop_
_symmetry_equiv_pos_site_id
_symmetry_equiv_pos_as_xyz
1 x,y,z
2 -x,1/2+y,1/2-z
3 -x,-y,-z
4 x,1/2-y,1/2+z
_cell_length_a                   6.1723(5)
_cell_length_b                   16.5629(14)
_cell_length_c                   21.7398(18)
_cell_angle_alpha                90
_cell_angle_beta                 94.564(3)
_cell_angle_gamma                90
_cell_volume                     2215.44
_exptl_crystal_colour            colorless
_exptl_crystal_description       block
_cell_formula_units_Z            4
loop_
_atom_site_label
_atom_site_type_symbol
_atom_site_fract_x
_atom_site_fract_y
_atom_site_fract_z
F1 F 0.3731(5) 0.9018(2) -0.02775(10)
F2 F 0.4250(4) 0.77987(16) -0.00419(10)
F3 F 0.6883(4) 0.86028(16) 0.00613(9)
O1 O 1.1300(3) 0.74196(12) 0.20972(9)
O2 O 0.4668(3) 0.87448(11) 0.23786(8)
N1 N 0.2600(4) 0.91972(15) 0.08685(10)
N2 N 0.2613(4) 0.92439(13) 0.14961(10)
C1 C 0.5385(4) 0.66116(17) 0.14014(13)
H1 H 0.4321 0.6840 0.1642
C2 C 0.5167(5) 0.58217(18) 0.12024(13)
H2 H 0.3944 0.5518 0.1308
C3 C 0.6671(5) 0.54604(17) 0.08548(12)
C4 C 0.8415(5) 0.59282(18) 0.07026(13)
H3 H 0.9467 0.5699 0.0459
C5 C 0.8659(5) 0.67228(18) 0.08975(12)
H4 H 0.9871 0.7028 0.0786
C6 C 0.7146(4) 0.70745(17) 0.12536(12)
C7 C 0.6437(6) 0.45907(18) 0.06570(15)
H5 H 0.5115 0.4364 0.0810
H6 H 0.7703 0.4283 0.0827
H7 H 0.6341 0.4559 0.0205
C8 C 0.0977(4) 0.97099(16) 0.17654(12)
C9 C 0.1286(4) 0.99650(17) 0.23716(13)
H8 H 0.2590 0.9838 0.2614
C10 C -0.0344(5) 1.04099(18) 0.26206(14)
H9 H -0.0157 1.0587 0.3037
C11 C -0.2233(5) 1.05962(18) 0.22650(13)
H10 H -0.3352 1.0893 0.2439
C12 C -0.2492(4) 1.03522(17) 0.16595(13)
H11 H -0.3785 1.0487 0.1415
C13 C -0.0883(4) 0.99104(16) 0.14029(13)
H12 H -0.1058 0.9748 0.0983
C14 C 0.9958(4) 0.76685(17) 0.24377(13)
C15 C 1.0449(4) 0.76942(18) 0.31235(13)
H13 H 1.1304 0.8188 0.3229
H14 H 1.1373 0.7224 0.3248
C16 C 0.8461(4) 0.76875(17) 0.35003(12)
C17 C 0.6956(4) 0.83640(17) 0.32440(12)
H15 H 0.5546 0.8321 0.3429
H16 H 0.7608 0.8892 0.3367
C18 C 0.6569(4) 0.83365(16) 0.25644(12)
C19 C 0.7864(4) 0.79900(16) 0.21705(12)
C20 C 0.7397(4) 0.79424(16) 0.14742(12)
H17 H 0.8643 0.8191 0.1276
C21 C 0.5413(4) 0.84486(16) 0.13209(12)
C22 C 0.4271(4) 0.87952(16) 0.17608(11)
C23 C 0.4285(5) 0.87265(18) 0.07713(12)
C24 C 0.4771(6) 0.8556(2) 0.01286(14)
C25 C 0.9111(5) 0.78479(19) 0.41800(13)
H18 H 1.0071 0.7415 0.4346
H19 H 0.7806 0.7866 0.4409
H20 H 0.9876 0.8366 0.4223
C26 C 0.7293(5) 0.68735(17) 0.34341(14)
H21 H 0.8267 0.6445 0.3599
H22 H 0.6873 0.6769 0.2997
H23 H 0.5990 0.6886 0.3664
loop_
_geom_bond_atom_site_label_1
_geom_bond_atom_site_label_2
_geom_bond_site_symmetry_1
_geom_bond_site_symmetry_2
F1 C24 1_555 1_555
F2 C24 1_555 1_555
F3 C24 1_555 1_555
O1 C14 1_555 1_555
O2 C18 1_555 1_555
N1 N2 1_555 1_555
N2 C8 1_555 1_555
C1 H1 1_555 1_555
C2 C1 1_555 1_555
H2 C2 1_555 1_555
C3 C2 1_555 1_555
C4 C3 1_555 1_555
H3 C4 1_555 1_555
C5 C4 1_555 1_555
H4 C5 1_555 1_555
C6 C1 1_555 1_555
C7 C3 1_555 1_555
H5 C7 1_555 1_555
H6 C7 1_555 1_555
H7 C7 1_555 1_555
C8 C9 1_555 1_555
C9 H8 1_555 1_555
C10 C9 1_555 1_555
H9 C10 1_555 1_555
C11 C10 1_555 1_555
H10 C11 1_555 1_555
C12 C11 1_555 1_555
H11 C12 1_555 1_555
C13 C8 1_555 1_555
H12 C13 1_555 1_555
C14 C15 1_555 1_555
C15 H13 1_555 1_555
H14 C15 1_555 1_555
C16 C15 1_555 1_555
C17 C16 1_555 1_555
H15 C17 1_555 1_555
H16 C17 1_555 1_555
C18 C17 1_555 1_555
C19 C14 1_555 1_555
C20 C6 1_555 1_555
H17 C20 1_555 1_555
C21 C20 1_555 1_555
C22 O2 1_555 1_555
C23 N1 1_555 1_555
C24 C23 1_555 1_555
C25 C16 1_555 1_555
H18 C25 1_555 1_555
H19 C25 1_555 1_555
H20 C25 1_555 1_555
C26 C16 1_555 1_555
H21 C26 1_555 1_555
H22 C26 1_555 1_555
H23 C26 1_555 1_555
N2 C22 1_555 1_555
C5 C6 1_555 1_555
C12 C13 1_555 1_555
C18 C19 1_555 1_555
C19 C20 1_555 1_555
C21 C22 1_555 1_555
C21 C23 1_555 1_555

#END
