
#######################################################################
#
#                 Cambridge Crystallographic Data Centre
#                                CCDC 
#
#######################################################################
#
# If this CIF has been generated from an entry in the Cambridge 
# Structural Database, then it will include bibliographic, chemical, 
# crystal, experimental, refinement or atomic coordinate data resulting 
# from the CCDC's data processing and validation procedures.
#
#######################################################################

data_LOLGUO
_chemical_formula_moiety         'C28 H28 O2 S4 2+,2(C12 H4 N4 1-),2(C2 H3 N1)'
_chemical_name_systematic        
'2,6-Dibutoxy-9,10-bis(1,3-dithiolium-2-yl)-9,10-anthracene bis(tetracyanoquinodimethanide) acetonitrile solvate'
_symmetry_cell_setting           triclinic
_symmetry_space_group_name_H-M   'P -1'
_symmetry_Int_Tables_number      2
_space_group_name_Hall           '-P 1'
loop_
_symmetry_equiv_pos_site_id
_symmetry_equiv_pos_as_xyz
1 x,y,z
2 -x,-y,-z
_cell_length_a                   7.105(1)
_cell_length_b                   9.884(1)
_cell_length_c                   17.937(5)
_cell_angle_alpha                92.46(3)
_cell_angle_beta                 93.75(3)
_cell_angle_gamma                91.40(2)
_cell_volume                     1255.32
_exptl_crystal_colour            black
_exptl_crystal_description       block
_cell_formula_units_Z            1
loop_
_atom_site_label
_atom_site_type_symbol
_atom_site_fract_x
_atom_site_fract_y
_atom_site_fract_z
S1 S 0.25596(6) 0.64555(4) 0.32284(2)
S2 S 0.07564(7) 0.38888(4) 0.28657(2)
O1 O -0.5696(2) 0.80127(15) 0.49572(7)
C1 C -0.3251(2) 0.64866(17) 0.53869(9)
H1 H -0.374(3) 0.643(2) 0.5850(12)
C2 C -0.4125(2) 0.72848(18) 0.48667(10)
C3 C -0.3422(3) 0.73853(18) 0.41426(10)
H2 H -0.409(3) 0.799(2) 0.3820(12)
C4 C -0.1912(2) 0.66719(17) 0.39454(9)
H3 H -0.151(3) 0.672(2) 0.3445(12)
C5 C -0.0939(2) 0.58249(17) 0.44673(9)
C6 C 0.1616(2) 0.42496(16) 0.47958(9)
C7 C 0.0646(2) 0.50786(16) 0.42826(9)
C8 C 0.1287(2) 0.51437(16) 0.35122(9)
C9 C 0.2750(3) 0.58193(18) 0.23350(9)
H4 H 0.339(3) 0.632(2) 0.2039(13)
C10 C 0.1907(3) 0.46000(18) 0.21665(9)
H5 H 0.190(3) 0.412(2) 0.1710(13)
C11 C -0.6394(3) 0.8114(2) 0.56935(11)
H6 H -0.666(4) 0.713(3) 0.5859(14)
H7 H -0.532(3) 0.855(2) 0.6063(13)
C12 C -0.8165(3) 0.8941(2) 0.56427(11)
H8 H -0.793(4) 0.979(3) 0.5375(14)
H9 H -0.911(3) 0.844(2) 0.5352(13)
C13 C -0.8827(3) 0.9319(2) 0.64160(11)
H10 H -0.783(4) 1.002(3) 0.6694(14)
H11 H -0.877(4) 0.850(3) 0.6721(15)
C14 C -1.0764(3) 0.9923(3) 0.63878(13)
H12 H -1.177(5) 0.930(4) 0.6129(19)
H13 H -1.120(4) 1.024(3) 0.6902(18)
H14 H -1.080(4) 1.070(3) 0.6086(15)
C6A C -0.1616(2) 0.57504(16) 0.52042(9)
C7A C -0.0646(2) 0.49214(16) 0.57174(9)
C5A C 0.0939(2) 0.41751(17) 0.55327(9)
C4A C 0.1912(2) 0.33281(17) 0.60546(9)
C3A C 0.3422(3) 0.26147(18) 0.58574(10)
C2A C 0.4125(2) 0.27152(18) 0.51333(10)
O1A O 0.5696(2) 0.19873(15) 0.50428(7)
C11A C 0.6394(3) 0.1886(2) 0.43065(11)
H6A H 0.666(4) 0.287(3) 0.4141(14)
H7A H 0.532(3) 0.145(2) 0.3937(13)
C12A C 0.8165(3) 0.1059(2) 0.43573(11)
H8A H 0.793(4) 0.021(3) 0.4625(14)
H9A H 0.911(3) 0.156(2) 0.4648(13)
C13A C 0.8827(3) 0.0681(2) 0.35840(11)
H10A H 0.783(4) -0.002(3) 0.3306(14)
H11A H 0.877(4) 0.150(3) 0.3279(15)
C14A C 1.0764(3) 0.0077(3) 0.36122(13)
H12A H 1.177(5) 0.070(4) 0.3871(19)
H13A H 1.120(4) -0.024(3) 0.3098(18)
H14A H 1.080(4) -0.070(3) 0.3914(15)
C1A C 0.3251(2) 0.35134(17) 0.46131(9)
H1A H 0.374(3) 0.357(2) 0.4150(12)
H2A H 0.409(3) 0.201(2) 0.6180(12)
H3A H 0.151(3) 0.328(2) 0.6555(12)
C8A C -0.1287(2) 0.48563(16) 0.64878(9)
S1A S -0.25596(6) 0.35445(4) 0.67716(2)
C9A C -0.2750(3) 0.41807(18) 0.76650(9)
H4A H -0.339(3) 0.368(2) 0.7961(13)
C10A C -0.1907(3) 0.54000(18) 0.78335(9)
S2A S -0.07564(7) 0.61112(4) 0.71343(2)
H5A H -0.190(3) 0.588(2) 0.8290(13)
N1 N -0.4533(2) 0.12772(17) -0.25537(9)
N2 N -0.5881(3) -0.30837(17) -0.24649(9)
N3 N -0.0066(2) 0.17726(16) 0.17414(9)
N4 N -0.1260(3) -0.25843(17) 0.20662(9)
C15 C -0.3890(2) -0.07973(16) -0.10245(9)
C16 C -0.3740(2) -0.19679(17) -0.05900(9)
H15 H -0.414(3) -0.281(2) -0.0822(12)
C17 C -0.2993(2) -0.18865(17) 0.01371(9)
H16 H -0.290(3) -0.272(2) 0.0425(12)
C18 C -0.2318(2) -0.06281(16) 0.04851(9)
C19 C -0.2424(2) 0.05341(17) 0.00429(9)
H17 H -0.199(3) 0.140(2) 0.0260(12)
C20 C -0.3185(2) 0.04551(17) -0.06782(9)
H18 H -0.327(3) 0.127(2) -0.0963(12)
C21 C -0.4664(2) -0.08565(17) -0.17772(9)
C22 C -0.4616(2) 0.03163(18) -0.22116(9)
C23 C -0.5337(3) -0.20848(18) -0.21549(9)
C24 C -0.1539(2) -0.05185(17) 0.12379(9)
C25 C -0.0730(2) 0.07355(18) 0.15358(9)
C26 C -0.1383(3) -0.16573(18) 0.16967(9)
N5 N 0.7058(3) 0.4307(2) -0.05251(10)
C27 C 0.7400(3) 0.44232(19) 0.01048(12)
C28 C 0.7796(4) 0.4596(2) 0.09129(13)
H19 H 0.666(4) 0.494(3) 0.1163(14)
H20 H 0.886(4) 0.527(3) 0.1011(16)
H21 H 0.811(4) 0.375(3) 0.1128(14)
loop_
_geom_bond_atom_site_label_1
_geom_bond_atom_site_label_2
_geom_bond_site_symmetry_1
_geom_bond_site_symmetry_2
S1 C8 1_555 1_555
S2 C8 1_555 1_555
O1 C2 1_555 1_555
C1 H1 1_555 1_555
C2 C1 1_555 1_555
C3 C2 1_555 1_555
H2 C3 1_555 1_555
C4 C3 1_555 1_555
H3 C4 1_555 1_555
C5 C4 1_555 1_555
C6 C7 1_555 1_555
C7 C5 1_555 1_555
C8 C7 1_555 1_555
C9 S1 1_555 1_555
H4 C9 1_555 1_555
C10 S2 1_555 1_555
H5 C10 1_555 1_555
C11 O1 1_555 1_555
H6 C11 1_555 1_555
H7 C11 1_555 1_555
C12 C11 1_555 1_555
H8 C12 1_555 1_555
H9 C12 1_555 1_555
C13 C12 1_555 1_555
H10 C13 1_555 1_555
H11 C13 1_555 1_555
C14 C13 1_555 1_555
H12 C14 1_555 1_555
H13 C14 1_555 1_555
H14 C14 1_555 1_555
N1 C22 1_555 1_555
N2 C23 1_555 1_555
N3 C25 1_555 1_555
N4 C26 1_555 1_555
C15 C16 1_555 1_555
C16 H15 1_555 1_555
C17 C16 1_555 1_555
H16 C17 1_555 1_555
C18 C17 1_555 1_555
C19 C18 1_555 1_555
H17 C19 1_555 1_555
C20 C15 1_555 1_555
H18 C20 1_555 1_555
C21 C15 1_555 1_555
C22 C21 1_555 1_555
C23 C21 1_555 1_555
C24 C18 1_555 1_555
C25 C24 1_555 1_555
C26 C24 1_555 1_555
N5 C27 1_555 1_555
C27 C28 1_555 1_555
C28 H19 1_555 1_555
H20 C28 1_555 1_555
H21 C28 1_555 1_555
C6A C1 1_555 1_555
C7A C6A 1_555 1_555
C5A C6 1_555 1_555
C4A C5A 1_555 1_555
C3A C4A 1_555 1_555
C2A C3A 1_555 1_555
O1A C2A 1_555 1_555
C11A O1A 1_555 1_555
H6A C11A 1_555 1_555
H7A C11A 1_555 1_555
C12A C11A 1_555 1_555
H8A C12A 1_555 1_555
H9A C12A 1_555 1_555
C13A C12A 1_555 1_555
H10A C13A 1_555 1_555
H11A C13A 1_555 1_555
C14A C13A 1_555 1_555
H12A C14A 1_555 1_555
H13A C14A 1_555 1_555
H14A C14A 1_555 1_555
C1A C6 1_555 1_555
H1A C1A 1_555 1_555
H2A C3A 1_555 1_555
H3A C4A 1_555 1_555
C8A C7A 1_555 1_555
S1A C8A 1_555 1_555
C9A S1A 1_555 1_555
H4A C9A 1_555 1_555
C10A C9A 1_555 1_555
S2A C8A 1_555 1_555
H5A C10A 1_555 1_555
C5 C6A 1_555 1_555
C9 C10 1_555 1_555
C19 C20 1_555 1_555
C7A C5A 1_555 1_555
C2A C1A 1_555 1_555
C10A S2A 1_555 1_555

#END
