
#######################################################################
#
#                 Cambridge Crystallographic Data Centre
#                                CCDC 
#
#######################################################################
#
# If this CIF has been generated from an entry in the Cambridge 
# Structural Database, then it will include bibliographic, chemical, 
# crystal, experimental, refinement or atomic coordinate data resulting 
# from the CCDC's data processing and validation procedures.
#
#######################################################################

data_LOLHAV
_chemical_formula_moiety         'C36 H44 O2 S4'
_chemical_name_systematic        
2,6-Dihexyloxy-9,10-bis(1,3-dithiol-2-ylidene-4,5-dimethyl)-9,10-dihydroanthracene
_symmetry_cell_setting           triclinic
_symmetry_space_group_name_H-M   'P -1'
_symmetry_Int_Tables_number      2
_space_group_name_Hall           '-P 1'
loop_
_symmetry_equiv_pos_site_id
_symmetry_equiv_pos_as_xyz
1 x,y,z
2 -x,-y,-z
_cell_length_a                   10.414(1)
_cell_length_b                   11.447(1)
_cell_length_c                   15.159(5)
_cell_angle_alpha                92.09(1)
_cell_angle_beta                 103.87(1)
_cell_angle_gamma                112.43(1)
_cell_volume                     1605.11
_exptl_crystal_colour            amber
_exptl_crystal_description       prism
_chemical_melting_point          '123-125 deg.C'
_cell_formula_units_Z            2
loop_
_atom_site_label
_atom_site_type_symbol
_atom_site_fract_x
_atom_site_fract_y
_atom_site_fract_z
S1 S 0.34216(6) 0.42233(5) 0.25632(4)
S2 S 0.54508(6) 0.55930(5) 0.15381(4)
S3 S 0.84379(6) 0.24575(5) 0.50551(4)
S4 S 1.04084(6) 0.36148(5) 0.39472(4)
O1 O 0.15269(15) -0.01793(14) 0.30360(10)
O2 O 0.99145(16) 0.31260(15) 0.07995(10)
C1 C 0.3413(2) 0.1573(2) 0.26229(15)
H1 H 0.273(2) 0.183(2) 0.2258(15)
C2 C 0.2952(2) 0.0517(2) 0.30750(14)
C3 C 0.3960(2) 0.0107(2) 0.35890(15)
H2 H 0.363(2) -0.063(2) 0.3875(13)
C4 C 0.5415(2) 0.0760(2) 0.36485(15)
H3 H 0.612(2) 0.0450(19) 0.4002(14)
C5 C 0.5907(2) 0.18285(19) 0.32003(14)
C6 C 0.4873(2) 0.22371(19) 0.26776(14)
C7 C 0.5384(2) 0.33306(19) 0.21702(14)
C8 C 0.4816(2) 0.4229(2) 0.20845(14)
C9 C 0.3487(2) 0.5739(2) 0.23202(14)
C10 C 0.4423(2) 0.6370(2) 0.18657(14)
C11 C 0.2425(2) 0.6131(2) 0.26314(16)
H4 H 0.2575(11) 0.7011(13) 0.2500(9)
H5 H 0.2572(11) 0.6109(13) 0.3302(9)
H6 H 0.1426(13) 0.5532(11) 0.2297(9)
C12 C 0.4713(2) 0.7678(2) 0.15873(15)
H7 H 0.4095(13) 0.8023(7) 0.1794(9)
H8 H 0.4507(14) 0.7614(3) 0.0921(9)
H9 H 0.5723(14) 0.8242(8) 0.1866(8)
C13 C 0.0532(2) 0.0405(2) 0.26899(17)
H10 H 0.047(2) 0.0472(19) 0.2038(14)
H11 H 0.086(2) 0.125(2) 0.3022(16)
C14 C -0.0946(2) -0.0456(2) 0.27791(16)
H12 H -0.164(2) -0.012(2) 0.2450(14)
H13 H -0.125(2) -0.129(2) 0.2429(15)
C15 C -0.1046(2) -0.0578(2) 0.37579(15)
H14 H -0.082(3) 0.029(2) 0.4087(16)
H15 H -0.034(2) -0.091(2) 0.4102(14)
C16 C -0.2563(2) -0.1466(2) 0.37876(16)
H16 H -0.331(2) -0.119(2) 0.3418(15)
H17 H -0.283(2) -0.232(2) 0.3449(14)
C17 C -0.2765(2) -0.1615(2) 0.47431(16)
H18 H -0.253(2) -0.078(2) 0.5047(14)
H19 H -0.211(2) -0.198(2) 0.5084(15)
C18 C -0.4327(2) -0.2461(2) 0.47147(16)
H20 H -0.4961(9) -0.2041(8) 0.4441(9)
H21 H -0.4394(4) -0.2593(11) 0.5342(8)
H22 H -0.4628(7) -0.3290(12) 0.4343(9)
C19 C 0.8684(2) 0.2853(2) 0.19288(15)
H23 H 0.937(2) 0.2504(19) 0.2240(14)
C20 C 0.8800(2) 0.3235(2) 0.10777(15)
C21 C 0.7818(2) 0.3682(2) 0.05800(15)
H24 H 0.784(2) 0.394(2) -0.0020(16)
C22 C 0.6729(2) 0.3735(2) 0.09407(15)
H25 H 0.601(2) 0.397(2) 0.0549(14)
C23 C 0.6585(2) 0.33599(19) 0.17896(14)
C24 C 0.7605(2) 0.29165(19) 0.22987(14)
C25 C 0.8584(2) 0.27832(19) 0.39446(14)
C26 C 0.7434(2) 0.25071(19) 0.31934(14)
C27 C 1.0247(2) 0.3442(2) 0.56571(15)
C28 C 1.1144(2) 0.3969(2) 0.51474(15)
C29 C 1.0594(2) 0.3582(2) 0.66865(15)
H26 H 1.1598(13) 0.3787(13) 0.6938(4)
H27 H 1.0043(13) 0.2801(11) 0.6870(3)
H28 H 1.0363(14) 0.4248(13) 0.6904(3)
C30 C 1.2732(2) 0.4819(2) 0.54708(16)
H29 H 1.2870(3) 0.5697(12) 0.5402(9)
H30 H 1.3244(7) 0.4546(9) 0.5105(8)
H31 H 1.3105(6) 0.4763(10) 0.6113(9)
C31 C 0.9920(3) 0.3218(2) -0.01430(17)
H32 H 0.992(2) 0.406(2) -0.0342(15)
H33 H 0.899(3) 0.257(2) -0.0556(16)
C32 C 1.1265(3) 0.3070(2) -0.02481(18)
H34 H 1.211(2) 0.373(2) 0.0204(16)
H35 H 1.126(3) 0.320(2) -0.0854(18)
C33 C 1.1263(3) 0.1759(2) -0.01086(18)
H36 H 1.118(3) 0.160(2) 0.0492(17)
H37 H 1.041(2) 0.112(2) -0.0553(16)
C34 C 1.2608(3) 0.1629(3) -0.0224(2)
H38 H 1.338(3) 0.217(3) 0.0223(19)
H39 H 1.274(3) 0.187(3) -0.083(2)
C35 C 1.2624(5) 0.0325(5) -0.0364(4)
H40 H 1.3346 0.0350 -0.0694
H41 H 1.1663 -0.0301 -0.0730
C36 C 1.3021(5) -0.0044(5) 0.0579(3)
H42 H 1.3035 -0.0893 0.0518
H43 H 1.2303 -0.0057 0.0900
H44 H 1.3977 0.0579 0.0931
C37? C 1.2527(5) 0.0250(5) 0.0044(4)
H45? H 1.2408 0.0179 0.0671
H46? H 1.1675 -0.0434 -0.0386
C38? C 1.3883(5) 0.0074(5) 0.0005(4)
H47? H 1.3810 -0.0764 0.0171
H48? H 1.4726 0.0744 0.0437
H49? H 1.3991 0.0127 -0.0619
loop_
_geom_bond_atom_site_label_1
_geom_bond_atom_site_label_2
_geom_bond_site_symmetry_1
_geom_bond_site_symmetry_2
S1 C8 1_555 1_555
S2 C8 1_555 1_555
S3 C25 1_555 1_555
S4 C25 1_555 1_555
O1 C2 1_555 1_555
O2 C20 1_555 1_555
C1 H1 1_555 1_555
C2 C1 1_555 1_555
C3 C2 1_555 1_555
H2 C3 1_555 1_555
C4 C3 1_555 1_555
H3 C4 1_555 1_555
C5 C4 1_555 1_555
C6 C1 1_555 1_555
C7 C6 1_555 1_555
C8 C7 1_555 1_555
C9 S1 1_555 1_555
C10 S2 1_555 1_555
C11 C9 1_555 1_555
H4 C11 1_555 1_555
H5 C11 1_555 1_555
H6 C11 1_555 1_555
C12 C10 1_555 1_555
H7 C12 1_555 1_555
H8 C12 1_555 1_555
H9 C12 1_555 1_555
C13 O1 1_555 1_555
H10 C13 1_555 1_555
H11 C13 1_555 1_555
C14 C13 1_555 1_555
H12 C14 1_555 1_555
H13 C14 1_555 1_555
C15 C14 1_555 1_555
H14 C15 1_555 1_555
H15 C15 1_555 1_555
C16 C15 1_555 1_555
H16 C16 1_555 1_555
H17 C16 1_555 1_555
C17 C16 1_555 1_555
H18 C17 1_555 1_555
H19 C17 1_555 1_555
C18 C17 1_555 1_555
H20 C18 1_555 1_555
H21 C18 1_555 1_555
H22 C18 1_555 1_555
C19 H23 1_555 1_555
C20 C19 1_555 1_555
C21 C20 1_555 1_555
H24 C21 1_555 1_555
C22 C21 1_555 1_555
H25 C22 1_555 1_555
C23 C7 1_555 1_555
C24 C19 1_555 1_555
C25 C26 1_555 1_555
C26 C5 1_555 1_555
C27 S3 1_555 1_555
C28 S4 1_555 1_555
C29 C27 1_555 1_555
H26 C29 1_555 1_555
H27 C29 1_555 1_555
H28 C29 1_555 1_555
C30 C28 1_555 1_555
H29 C30 1_555 1_555
H30 C30 1_555 1_555
H31 C30 1_555 1_555
C31 O2 1_555 1_555
H32 C31 1_555 1_555
H33 C31 1_555 1_555
C32 C31 1_555 1_555
H34 C32 1_555 1_555
H35 C32 1_555 1_555
C33 C32 1_555 1_555
H36 C33 1_555 1_555
H37 C33 1_555 1_555
C34 C33 1_555 1_555
H38 C34 1_555 1_555
H39 C34 1_555 1_555
C35 C34 1_555 1_555
H40 C35 1_555 1_555
H41 C35 1_555 1_555
C36 C35 1_555 1_555
H42 C36 1_555 1_555
H43 C36 1_555 1_555
H44 C36 1_555 1_555
C5 C6 1_555 1_555
C9 C10 1_555 1_555
C22 C23 1_555 1_555
C23 C24 1_555 1_555
C24 C26 1_555 1_555
C27 C28 1_555 1_555

#END
