
#######################################################################
#
#                 Cambridge Crystallographic Data Centre
#                                CCDC 
#
#######################################################################
#
# If this CIF has been generated from an entry in the Cambridge 
# Structural Database, then it will include bibliographic, chemical, 
# crystal, experimental, refinement or atomic coordinate data resulting 
# from the CCDC's data processing and validation procedures.
#
#######################################################################

data_LOLHAX
_chemical_formula_moiety         'C61 H51 N7 O6'
_chemical_name_systematic        
4,4''-bis((5'-(4-methoxy-2,6-dimethylphenyl)-2,2'-bipyridin-5-yl)ethynyl)-5,5''-bis(methoxymethoxy)-2,2':6',2''-terpyridine
_symmetry_cell_setting           triclinic
_symmetry_space_group_name_H-M   'P -1'
_symmetry_Int_Tables_number      2
_space_group_name_Hall           '-P 1'
loop_
_symmetry_equiv_pos_site_id
_symmetry_equiv_pos_as_xyz
1 x,y,z
2 -x,-y,-z
_cell_length_a                   9.6372(2)
_cell_length_b                   13.2613(2)
_cell_length_c                   20.4245(4)
_cell_angle_alpha                79.8271(15)
_cell_angle_beta                 76.8586(16)
_cell_angle_gamma                86.4640(16)
_cell_volume                     2501.34
_exptl_crystal_colour            colorless
_exptl_crystal_description       needle
_cell_formula_units_Z            2
loop_
_atom_site_label
_atom_site_type_symbol
_atom_site_fract_x
_atom_site_fract_y
_atom_site_fract_z
O1 O -0.17523(14) 0.21830(8) 0.31132(6)
O2 O -0.31614(12) 0.07441(8) 0.35796(6)
O3 O -0.12590(16) 1.13999(10) -0.36169(7)
O4 O 0.82924(12) 0.62460(8) 0.39627(6)
O5 O 1.05132(12) 0.55854(8) 0.41416(6)
O6 O 0.5637(2) 1.54664(12) -0.23075(8)
N1 N 0.33705(14) 0.30552(9) 0.43870(6)
N2 N 0.04702(16) 0.14734(10) 0.43671(7)
N3 N 0.66672(14) 0.37614(10) 0.47191(7)
N4 N 0.03107(18) 0.58489(11) 0.05751(8)
N5 N -0.13673(18) 0.82990(12) 0.00328(8)
N6 N 0.61272(19) 0.99575(11) 0.21363(8)
N7 N 0.47826(19) 1.08137(12) 0.06272(9)
C1 C 0.24493(17) 0.22788(11) 0.45820(8)
C2 C 0.2571(2) 0.14682(12) 0.51068(9)
H1 H 0.1895 0.0937 0.5243
C3 C 0.3692(2) 0.14571(13) 0.54225(10)
H2 H 0.3801 0.0914 0.5780
C4 C 0.4654(2) 0.22349(13) 0.52181(9)
H3 H 0.5440 0.2231 0.5427
C5 C 0.44588(17) 0.30302(11) 0.46991(8)
C6 C 0.12844(17) 0.23043(11) 0.42139(8)
C7 C -0.05427(19) 0.14421(12) 0.40245(9)
H4 H -0.1125 0.0857 0.4138
C8 C -0.07952(17) 0.22222(11) 0.35081(8)
C9 C 0.00079(17) 0.31091(11) 0.33687(8)
C10 C 0.10624(17) 0.31415(11) 0.37283(8)
H5 H 0.1629 0.3732 0.3643
C11 C -0.21238(19) 0.11869(13) 0.30404(9)
H6 H -0.2467 0.1241 0.2614
H7 H -0.1261 0.0737 0.3001
C12 C -0.4531(2) 0.12144(16) 0.35848(12)
H8 H -0.4790 0.1196 0.3150
H9 H -0.4511 0.1928 0.3649
H10 H -0.5237 0.0843 0.3959
C13 C -0.02146(17) 0.39255(11) 0.28381(8)
C14 C -0.03885(17) 0.45741(11) 0.23756(8)
C15 C -0.05046(17) 0.53029(11) 0.17802(8)
C16 C 0.0353(2) 0.51842(12) 0.11535(9)
H11 H 0.0997 0.4613 0.1130
C17 C -0.06152(17) 0.66649(11) 0.06201(8)
C18 C -0.15026(17) 0.68222(11) 0.12201(8)
H12 H -0.2142 0.7396 0.1234
C19 C -0.14515(19) 0.61384(13) 0.17976(9)
H13 H -0.2070 0.6234 0.2217
C20 C -0.06335(18) 0.74027(12) -0.00151(9)
C21 C -0.1452(2) 0.89465(14) -0.05515(9)
H14 H -0.1954 0.9582 -0.0520
C22 C -0.08369(19) 0.87178(12) -0.11916(9)
C23 C -0.00616(19) 0.78004(13) -0.12140(10)
H15 H 0.0403 0.7623 -0.1642
C24 C 0.00396(18) 0.71493(11) -0.06261(9)
H16 H 0.0576 0.6526 -0.0645
C25 C -0.09957(18) 0.94195(12) -0.18277(8)
C26 C -0.03450(19) 1.03826(12) -0.19975(9)
C27 C -0.0460(2) 1.10131(12) -0.26032(9)
H17 H -0.0011 1.1658 -0.2725
C28 C -0.1224(2) 1.07124(13) -0.30331(9)
C29 C -0.18798(18) 0.97731(13) -0.28619(8)
H18 H -0.2409 0.9573 -0.3156
C30 C -0.17675(18) 0.91158(12) -0.22588(8)
C31 C 0.0499(2) 1.07256(14) -0.15403(11)
H19 H -0.0149 1.0850 -0.1116
H20 H 0.0990 1.1359 -0.1772
H21 H 0.1202 1.0191 -0.1436
C32 C -0.2077(2) 1.11483(17) -0.40628(10)
H22 H -0.2043 1.1711 -0.4448
H23 H -0.3067 1.1040 -0.3814
H24 H -0.1682 1.0521 -0.4233
C33 C -0.2499(2) 0.80978(13) -0.20912(9)
H25 H -0.1784 0.7546 -0.2157
H26 H -0.3158 0.8094 -0.2392
H27 H -0.3031 0.7994 -0.1616
C34 C 0.54798(16) 0.38851(11) 0.44716(8)
C35 C 0.75940(17) 0.45182(12) 0.45461(9)
H28 H 0.8443 0.4422 0.4714
C36 C 0.73867(16) 0.54454(11) 0.41317(8)
C37 C 0.61579(16) 0.55700(11) 0.38620(8)
C38 C 0.51990(16) 0.47687(11) 0.40368(8)
H29 H 0.4361 0.4826 0.3860
C39 C 0.93683(17) 0.62296(12) 0.43452(9)
H30 H 0.9715 0.6933 0.4292
H31 H 0.8944 0.6003 0.4835
C40 C 1.1387(2) 0.59858(14) 0.34987(10)
H32 H 1.0814 0.6100 0.3151
H33 H 1.2166 0.5497 0.3375
H34 H 1.1782 0.6637 0.3526
C41 C 0.58999(16) 0.65044(11) 0.34259(8)
C42 C 0.57130(17) 0.72806(11) 0.30591(8)
C43 C 0.55502(17) 0.81938(11) 0.25831(8)
C44 C 0.6151(2) 0.91079(13) 0.25977(10)
H35 H 0.6611 0.9134 0.2959
C45 C 0.54775(16) 0.99248(11) 0.16338(8)
C46 C 0.4780(3) 0.90709(15) 0.16029(12)
H36 H 0.4279 0.9077 0.1252
C47 C 0.4809(3) 0.82016(15) 0.20840(12)
H37 H 0.4317 0.7610 0.2069
C48 C 0.55524(17) 1.08399(11) 0.10870(8)
C49 C 0.4835(2) 1.16125(14) 0.01220(10)
H38 H 0.4287 1.1582 -0.0206
C50 C 0.56181(17) 1.24737(11) 0.00405(8)
C51 C 0.6409(2) 1.24918(12) 0.05244(10)
H39 H 0.6976 1.3066 0.0495
C52 C 0.6374(2) 1.16699(12) 0.10527(9)
H40 H 0.6911 1.1680 0.1388
C53 C 0.56084(17) 1.33123(11) -0.05558(8)
C54 C 0.45116(18) 1.40495(12) -0.05420(9)
C55 C 0.4489(2) 1.47844(12) -0.11333(10)
H41 H 0.3731 1.5277 -0.1134
C56 C 0.5561(2) 1.47877(14) -0.17070(10)
C57 C 0.6667(2) 1.40811(14) -0.17092(10)
H42 H 0.7421 1.4108 -0.2102
C58 C 0.66978(19) 1.33289(13) -0.11448(9)
C59 C 0.3381(2) 1.40899(14) 0.00876(10)
H43 H 0.3045 1.3397 0.0287
H44 H 0.2583 1.4526 -0.0028
H45 H 0.3772 1.4374 0.0417
C60 C 0.4484(4) 1.61587(18) -0.23568(14)
H46 H 0.4642 1.6561 -0.2817
H47 H 0.4406 1.6620 -0.2024
H48 H 0.3602 1.5778 -0.2264
C61 C 0.7870(2) 1.25281(15) -0.11930(11)
H49 H 0.8235 1.2417 -0.0775
H50 H 0.8644 1.2759 -0.1585
H51 H 0.7499 1.1886 -0.1251
C62? C 0.03107(18) 0.58489(11) 0.05751(8)
H52? H 0.0907 0.5750 0.0151
C63? C -0.13673(18) 0.82990(12) 0.00328(8)
H53? H -0.1812 0.8471 0.0465
N8? N -0.15026(17) 0.68222(11) 0.12201(8)
N9? N 0.00396(18) 0.71493(11) -0.06261(9)
loop_
_geom_bond_atom_site_label_1
_geom_bond_atom_site_label_2
_geom_bond_site_symmetry_1
_geom_bond_site_symmetry_2
O1 C8 1_555 1_555
O2 C11 1_555 1_555
O3 C28 1_555 1_555
O4 C36 1_555 1_555
O5 C39 1_555 1_555
O6 C56 1_555 1_555
N1 C1 1_555 1_555
N2 C6 1_555 1_555
N3 C34 1_555 1_555
N4 C16 1_555 1_555
N5 C20 1_555 1_555
N6 C44 1_555 1_555
N7 C48 1_555 1_555
C1 C2 1_555 1_555
C2 H1 1_555 1_555
C3 C2 1_555 1_555
H2 C3 1_555 1_555
C4 C3 1_555 1_555
H3 C4 1_555 1_555
C5 N1 1_555 1_555
C6 C1 1_555 1_555
C7 N2 1_555 1_555
H4 C7 1_555 1_555
C8 C7 1_555 1_555
C9 C8 1_555 1_555
C10 C6 1_555 1_555
H5 C10 1_555 1_555
C11 O1 1_555 1_555
H6 C11 1_555 1_555
H7 C11 1_555 1_555
C12 O2 1_555 1_555
H8 C12 1_555 1_555
H9 C12 1_555 1_555
H10 C12 1_555 1_555
C13 C9 1_555 1_555
C14 C13 1_555 1_555
C15 C14 1_555 1_555
C16 C15 1_555 1_555
H11 C16 1_555 1_555
C17 N4 1_555 1_555
C18 C17 1_555 1_555
H12 C18 1_555 1_555
C19 C15 1_555 1_555
H13 C19 1_555 1_555
C20 C17 1_555 1_555
C21 N5 1_555 1_555
H14 C21 1_555 1_555
C22 C21 1_555 1_555
C23 C22 1_555 1_555
H15 C23 1_555 1_555
C24 C20 1_555 1_555
H16 C24 1_555 1_555
C25 C22 1_555 1_555
C26 C25 1_555 1_555
C27 C26 1_555 1_555
H17 C27 1_555 1_555
C28 C27 1_555 1_555
C29 C28 1_555 1_555
H18 C29 1_555 1_555
C30 C25 1_555 1_555
C31 C26 1_555 1_555
H19 C31 1_555 1_555
H20 C31 1_555 1_555
H21 C31 1_555 1_555
C32 O3 1_555 1_555
H22 C32 1_555 1_555
H23 C32 1_555 1_555
H24 C32 1_555 1_555
C33 C30 1_555 1_555
H25 C33 1_555 1_555
H26 C33 1_555 1_555
H27 C33 1_555 1_555
C34 C5 1_555 1_555
C35 N3 1_555 1_555
H28 C35 1_555 1_555
C36 C35 1_555 1_555
C37 C36 1_555 1_555
C38 C34 1_555 1_555
H29 C38 1_555 1_555
C39 O4 1_555 1_555
H30 C39 1_555 1_555
H31 C39 1_555 1_555
C40 O5 1_555 1_555
H32 C40 1_555 1_555
H33 C40 1_555 1_555
H34 C40 1_555 1_555
C41 C37 1_555 1_555
C42 C41 1_555 1_555
C43 C42 1_555 1_555
C44 C43 1_555 1_555
H35 C44 1_555 1_555
C45 N6 1_555 1_555
C46 C45 1_555 1_555
H36 C46 1_555 1_555
C47 C43 1_555 1_555
H37 C47 1_555 1_555
C48 C45 1_555 1_555
C49 N7 1_555 1_555
H38 C49 1_555 1_555
C50 C49 1_555 1_555
C51 C50 1_555 1_555
H39 C51 1_555 1_555
C52 C48 1_555 1_555
H40 C52 1_555 1_555
C53 C50 1_555 1_555
C54 C53 1_555 1_555
C55 C54 1_555 1_555
H41 C55 1_555 1_555
C56 C55 1_555 1_555
C57 C56 1_555 1_555
H42 C57 1_555 1_555
C58 C53 1_555 1_555
C59 C54 1_555 1_555
H43 C59 1_555 1_555
H44 C59 1_555 1_555
H45 C59 1_555 1_555
C60 O6 1_555 1_555
H46 C60 1_555 1_555
H47 C60 1_555 1_555
H48 C60 1_555 1_555
C61 C58 1_555 1_555
H49 C61 1_555 1_555
H50 C61 1_555 1_555
H51 C61 1_555 1_555
C4 C5 1_555 1_555
C9 C10 1_555 1_555
C18 C19 1_555 1_555
C23 C24 1_555 1_555
C29 C30 1_555 1_555
C37 C38 1_555 1_555
C46 C47 1_555 1_555
C51 C52 1_555 1_555
C57 C58 1_555 1_555

#END
