
#######################################################################
#
#                 Cambridge Crystallographic Data Centre
#                                CCDC 
#
#######################################################################
#
# If this CIF has been generated from an entry in the Cambridge 
# Structural Database, then it will include bibliographic, chemical, 
# crystal, experimental, refinement or atomic coordinate data resulting 
# from the CCDC's data processing and validation procedures.
#
#######################################################################

data_LOLMUW
_chemical_formula_moiety         'C18 H19 Cl1 N2 O5 S1'
_chemical_name_systematic        
"Diethyl 5-chloro-1-methyl-2-oxo-2'-thioxo-1,2-dihydrospiro[indole-3,3'-pyrrolidine]-4',5'-dicarboxylate"
_symmetry_cell_setting           triclinic
_symmetry_space_group_name_H-M   'P -1'
_symmetry_Int_Tables_number      2
_space_group_name_Hall           '-P 1'
loop_
_symmetry_equiv_pos_site_id
_symmetry_equiv_pos_as_xyz
1 x,y,z
2 -x,-y,-z
_cell_length_a                   6.712(3)
_cell_length_b                   11.442(5)
_cell_length_c                   13.092(6)
_cell_angle_alpha                90.454(10)
_cell_angle_beta                 99.008(10)
_cell_angle_gamma                103.693(10)
_cell_volume                     963.763
_exptl_crystal_colour            colorless
_exptl_crystal_description       block
_cell_formula_units_Z            2
loop_
_atom_site_label
_atom_site_type_symbol
_atom_site_fract_x
_atom_site_fract_y
_atom_site_fract_z
S1 S 1.23089(17) 0.24324(11) 0.41818(10)
Cl1 Cl 0.7941(4) 0.51385(15) 0.10483(13)
O1 O 0.7508(5) 0.1187(3) 0.5579(2)
O2 O 0.5189(5) -0.1717(3) 0.2297(2)
O3 O 0.6487(6) 0.0769(3) 0.1523(3)
O4 O 0.3587(6) 0.0873(4) 0.2102(3)
O5 O 0.8518(6) -0.1544(4) 0.2192(4)
N1 N 0.7513(5) 0.3101(3) 0.5092(3)
N2 N 0.9713(5) 0.0325(3) 0.3657(3)
H1 H 1.0723 -0.0014 0.3639
C1 C 0.7814(6) 0.2976(3) 0.3388(3)
C2 C 0.6315(6) 0.0617(3) 0.3323(3)
H2 H 0.5149 0.0426 0.3709
C3 C 0.7577(7) -0.0370(4) 0.3461(3)
H3 H 0.7271 -0.0806 0.4081
C4 C 0.7615(6) 0.1942(4) 0.4947(3)
C5 C 0.7589(6) 0.3720(4) 0.4174(3)
C6 C 0.7936(6) 0.1770(3) 0.3810(3)
C7 C 1.0059(6) 0.1473(4) 0.3860(3)
C8 C 0.7994(7) 0.3418(4) 0.2424(3)
H4 H 0.8212 0.2943 0.1892
C9 C 0.7198(8) -0.1267(4) 0.2566(4)
C10 C 0.5540(7) 0.0764(4) 0.2197(3)
C11 C 0.7128(8) 0.3563(5) 0.6058(4)
H5 H 0.5699 0.3600 0.5989
H6 H 0.8009 0.4355 0.6224
H7 H 0.7419 0.3039 0.6601
C12 C 0.7495(7) 0.4894(4) 0.4027(4)
H8 H 0.7371 0.5389 0.4569
C13 C 0.7842(9) 0.4586(4) 0.2269(4)
C14 C 0.7590(8) 0.5308(4) 0.3059(4)
H9 H 0.7482 0.6091 0.2930
C15 C 0.4469(10) -0.2568(6) 0.1411(5)
H10 H 0.5521 -0.2470 0.0967
H11 H 0.4212 -0.3385 0.1643
C16 C 0.2329(16) 0.2225(10) 0.0978(7)
H12 H 0.1635 0.2433 0.1515
H13 H 0.1532 0.2294 0.0315
H14 H 0.3683 0.2761 0.1034
C17 C 0.2526(15) 0.1058(9) 0.1077(6)
H15 H 0.3299 0.0867 0.0558
H16 H 0.1156 0.0513 0.0952
C18 C 0.2607(12) -0.2353(8) 0.0853(6)
H17 H 0.1725 -0.2220 0.1330
H18 H 0.1902 -0.3039 0.0399
H19 H 0.2938 -0.1655 0.0452
loop_
_geom_bond_atom_site_label_1
_geom_bond_atom_site_label_2
_geom_bond_site_symmetry_1
_geom_bond_site_symmetry_2
S1 C7 1_555 1_555
Cl1 C13 1_555 1_555
O1 C4 1_555 1_555
O2 C9 1_555 1_555
O3 C10 1_555 1_555
O4 C10 1_555 1_555
O5 C9 1_555 1_555
N1 C4 1_555 1_555
N2 H1 1_555 1_555
C1 C5 1_555 1_555
C2 H2 1_555 1_555
C3 N2 1_555 1_555
H3 C3 1_555 1_555
C4 C6 1_555 1_555
C5 N1 1_555 1_555
C6 C1 1_555 1_555
C7 N2 1_555 1_555
C8 C1 1_555 1_555
H4 C8 1_555 1_555
C9 C3 1_555 1_555
C10 C2 1_555 1_555
C11 N1 1_555 1_555
H5 C11 1_555 1_555
H6 C11 1_555 1_555
H7 C11 1_555 1_555
C12 C5 1_555 1_555
H8 C12 1_555 1_555
C13 C8 1_555 1_555
C14 C12 1_555 1_555
H9 C14 1_555 1_555
C15 O2 1_555 1_555
H10 C15 1_555 1_555
H11 C15 1_555 1_555
C16 H12 1_555 1_555
H13 C16 1_555 1_555
H14 C16 1_555 1_555
C17 O4 1_555 1_555
H15 C17 1_555 1_555
H16 C17 1_555 1_555
C18 C15 1_555 1_555
H17 C18 1_555 1_555
H18 C18 1_555 1_555
H19 C18 1_555 1_555
C2 C3 1_555 1_555
C2 C6 1_555 1_555
C6 C7 1_555 1_555
C13 C14 1_555 1_555
C16 C17 1_555 1_555

#END
