
#######################################################################
#
#                 Cambridge Crystallographic Data Centre
#                                CCDC 
#
#######################################################################
#
# If this CIF has been generated from an entry in the Cambridge 
# Structural Database, then it will include bibliographic, chemical, 
# crystal, experimental, refinement or atomic coordinate data resulting 
# from the CCDC's data processing and validation procedures.
#
#######################################################################

data_LOLMOQ
_chemical_compound_source        
'ascocarps and insect-body portions of fungus Cordyceps cicadae'
_chemical_name_common            'Cordycecin A'
_chemical_formula_moiety         'C33 H57 N3 O9'
_chemical_name_systematic        
'3,9,15-Tri-isobutyl-6,12,18-triisopropyl-1,7,13-trioxa-4,10,16-triazacyclooctadecane-2,5,8,11,14,17-hexone depsipeptide'
_chemical_properties_biological  'cytotoxic activity'
_symmetry_cell_setting           monoclinic
_symmetry_space_group_name_H-M   'P 21'
_symmetry_Int_Tables_number      4
_space_group_name_Hall           'P 2yb'
loop_
_symmetry_equiv_pos_site_id
_symmetry_equiv_pos_as_xyz
1 x,y,z
2 -x,1/2+y,-z
_cell_length_a                   10.8820(3)
_cell_length_b                   15.8124(4)
_cell_length_c                   11.2092(3)
_cell_angle_alpha                90
_cell_angle_beta                 108.311(3)
_cell_angle_gamma                90
_cell_volume                     1831.11
_exptl_crystal_colour            colorless
_exptl_crystal_description       blocks
_cell_formula_units_Z            2
loop_
_atom_site_label
_atom_site_type_symbol
_atom_site_fract_x
_atom_site_fract_y
_atom_site_fract_z
O1 O 0.56952(15) 0.95926(9) 0.01572(14)
O2 O 0.50308(13) 0.73692(8) 0.01228(12)
O3 O 0.32411(14) 0.78223(9) 0.05145(15)
O4 O 0.65868(13) 0.68958(8) 0.27853(12)
O5 O 0.85482(12) 0.58599(8) 0.35022(12)
O6 O 0.80185(17) 0.56661(11) 0.52659(14)
O7 O 1.15183(13) 0.78632(10) 0.51750(13)
O8 O 0.87470(12) 0.86616(8) 0.27879(12)
O9 O 0.86665(14) 0.96295(11) 0.42242(15)
N1 N 0.62108(15) 0.85992(10) 0.16886(14)
H1 H 0.6272 0.8065 0.1843
N2 N 0.52103(15) 0.59470(10) 0.15445(14)
H2 H 0.5164 0.5471 0.1162
N3 N 0.94567(15) 0.73878(10) 0.44276(15)
H3 H 0.8689 0.7478 0.3925
C1 C 0.57007(18) 0.88522(12) 0.04961(18)
C2 C 0.5067(2) 0.81819(13) -0.04805(19)
H4 H 0.4170 0.8358 -0.0895
C3 C 0.5717(2) 0.80862(16) -0.1491(2)
H5 H 0.5668 0.8638 -0.1901
C4 C 0.7122(3) 0.78656(19) -0.0963(3)
H6 H 0.7551 0.8276 -0.0340
H7 H 0.7506 0.7864 -0.1626
H8 H 0.7210 0.7315 -0.0584
C5 C 0.4975(3) 0.7465(2) -0.2493(3)
H9 H 0.5377 0.7430 -0.3141
H10 H 0.4098 0.7655 -0.2849
H11 H 0.4981 0.6917 -0.2121
C6 C 0.40556(18) 0.72890(12) 0.06113(17)
C7 C 0.40430(18) 0.64554(12) 0.12804(19)
H12 H 0.3349 0.6117 0.0712
C8 C 0.3633(2) 0.66205(14) 0.2452(2)
H13 H 0.4293 0.6966 0.3030
H14 H 0.2840 0.6949 0.2200
C9 C 0.3412(2) 0.58438(16) 0.3158(2)
H15 H 0.4238 0.5544 0.3484
C10 C 0.2434(3) 0.5236(2) 0.2316(3)
H16 H 0.1638 0.5530 0.1923
H17 H 0.2278 0.4778 0.2813
H18 H 0.2769 0.5017 0.1682
C11 C 0.3009(3) 0.6134(2) 0.4269(3)
H19 H 0.3695 0.6460 0.4829
H20 H 0.2832 0.5650 0.4706
H21 H 0.2245 0.6477 0.3977
C12 C 0.63563(18) 0.61784(12) 0.23514(17)
C13 C 0.73645(17) 0.54679(11) 0.27618(17)
H22 H 0.7083 0.5072 0.3296
C14 C 0.76324(19) 0.49690(12) 0.16970(18)
H23 H 0.6813 0.4714 0.1194
C15 C 0.8092(2) 0.55351(15) 0.0830(2)
H24 H 0.8919 0.5772 0.1284
H25 H 0.7478 0.5983 0.0521
H26 H 0.8171 0.5209 0.0135
C16 C 0.8577(2) 0.42495(15) 0.2231(2)
H27 H 0.8671 0.3910 0.1555
H28 H 0.8252 0.3906 0.2772
H29 H 0.9403 0.4479 0.2704
C17 C 0.86563(19) 0.60070(13) 0.47168(18)
C18 C 0.97001(19) 0.66642(12) 0.52746(18)
H30 H 1.0537 0.6419 0.5305
C19 C 0.9763(2) 0.69044(14) 0.66105(19)
H31 H 0.8888 0.6952 0.6651
H32 H 1.0170 0.7455 0.6807
C20 C 1.0512(2) 0.62687(15) 0.7602(2)
H33 H 1.0217 0.5698 0.7304
C21 C 1.0229(4) 0.6418(2) 0.8823(2)
H34 H 1.0665 0.5999 0.9427
H35 H 0.9313 0.6380 0.8679
H36 H 1.0528 0.6971 0.9139
C22 C 1.1955(3) 0.63207(19) 0.7803(2)
H37 H 1.2263 0.6875 0.8100
H38 H 1.2118 0.6213 0.7024
H39 H 1.2398 0.5907 0.8414
C23 C 1.04245(17) 0.79155(12) 0.44280(18)
C24 C 1.01400(17) 0.85748(13) 0.33904(18)
H40 H 1.0499 0.9120 0.3750
C25 C 1.07370(19) 0.83200(13) 0.2383(2)
H41 H 1.1662 0.8224 0.2802
C26 C 1.0172(2) 0.75012(15) 0.1749(2)
H42 H 1.0326 0.7059 0.2365
H43 H 1.0574 0.7357 0.1126
H44 H 0.9257 0.7568 0.1353
C27 C 1.0618(3) 0.90318(18) 0.1431(2)
H45 H 0.9722 0.9119 0.0966
H46 H 1.1082 0.8881 0.0862
H47 H 1.0974 0.9543 0.1865
C28 C 0.81291(18) 0.91948(12) 0.33328(18)
C29 C 0.66669(18) 0.91843(12) 0.27363(18)
H48 H 0.6394 0.9754 0.2420
C30 C 0.60474(19) 0.89849(13) 0.37530(19)
H49 H 0.6477 0.9322 0.4489
H50 H 0.6212 0.8395 0.3988
C31 C 0.4591(2) 0.91409(16) 0.3402(2)
H51 H 0.4150 0.8753 0.2720
C32 C 0.4223(3) 1.00385(19) 0.2954(3)
H52 H 0.3317 1.0124 0.2826
H53 H 0.4401 1.0130 0.2178
H54 H 0.4718 1.0430 0.3575
C33 C 0.4159(3) 0.8936(2) 0.4533(3)
H55 H 0.4336 0.8352 0.4756
H56 H 0.3247 0.9039 0.4330
H57 H 0.4621 0.9287 0.5229
loop_
_geom_bond_atom_site_label_1
_geom_bond_atom_site_label_2
_geom_bond_site_symmetry_1
_geom_bond_site_symmetry_2
O1 C1 1_555 1_555
O2 C2 1_555 1_555
O3 C6 1_555 1_555
O4 C12 1_555 1_555
O5 C13 1_555 1_555
O6 C17 1_555 1_555
O7 C23 1_555 1_555
O8 C24 1_555 1_555
O9 C28 1_555 1_555
N1 H1 1_555 1_555
N2 H2 1_555 1_555
N3 H3 1_555 1_555
C1 N1 1_555 1_555
C2 C1 1_555 1_555
H4 C2 1_555 1_555
C3 C2 1_555 1_555
H5 C3 1_555 1_555
C4 C3 1_555 1_555
H6 C4 1_555 1_555
H7 C4 1_555 1_555
H8 C4 1_555 1_555
C5 C3 1_555 1_555
H9 C5 1_555 1_555
H10 C5 1_555 1_555
H11 C5 1_555 1_555
C6 O2 1_555 1_555
C7 N2 1_555 1_555
H12 C7 1_555 1_555
C8 C7 1_555 1_555
H13 C8 1_555 1_555
H14 C8 1_555 1_555
C9 C8 1_555 1_555
H15 C9 1_555 1_555
C10 C9 1_555 1_555
H16 C10 1_555 1_555
H17 C10 1_555 1_555
H18 C10 1_555 1_555
C11 C9 1_555 1_555
H19 C11 1_555 1_555
H20 C11 1_555 1_555
H21 C11 1_555 1_555
C12 N2 1_555 1_555
C13 C12 1_555 1_555
H22 C13 1_555 1_555
C14 C13 1_555 1_555
H23 C14 1_555 1_555
C15 C14 1_555 1_555
H24 C15 1_555 1_555
H25 C15 1_555 1_555
H26 C15 1_555 1_555
C16 C14 1_555 1_555
H27 C16 1_555 1_555
H28 C16 1_555 1_555
H29 C16 1_555 1_555
C17 O5 1_555 1_555
C18 N3 1_555 1_555
H30 C18 1_555 1_555
C19 C18 1_555 1_555
H31 C19 1_555 1_555
H32 C19 1_555 1_555
C20 C19 1_555 1_555
H33 C20 1_555 1_555
C21 C20 1_555 1_555
H34 C21 1_555 1_555
H35 C21 1_555 1_555
H36 C21 1_555 1_555
C22 C20 1_555 1_555
H37 C22 1_555 1_555
H38 C22 1_555 1_555
H39 C22 1_555 1_555
C23 N3 1_555 1_555
C24 C23 1_555 1_555
H40 C24 1_555 1_555
C25 C24 1_555 1_555
H41 C25 1_555 1_555
C26 C25 1_555 1_555
H42 C26 1_555 1_555
H43 C26 1_555 1_555
H44 C26 1_555 1_555
C27 C25 1_555 1_555
H45 C27 1_555 1_555
H46 C27 1_555 1_555
H47 C27 1_555 1_555
C28 O8 1_555 1_555
C29 N1 1_555 1_555
H48 C29 1_555 1_555
C30 C29 1_555 1_555
H49 C30 1_555 1_555
H50 C30 1_555 1_555
C31 C30 1_555 1_555
H51 C31 1_555 1_555
C32 C31 1_555 1_555
H52 C32 1_555 1_555
H53 C32 1_555 1_555
H54 C32 1_555 1_555
C33 C31 1_555 1_555
H55 C33 1_555 1_555
H56 C33 1_555 1_555
H57 C33 1_555 1_555
C6 C7 1_555 1_555
C17 C18 1_555 1_555
C28 C29 1_555 1_555

#END
