
#######################################################################
#
#                 Cambridge Crystallographic Data Centre
#                                CCDC 
#
#######################################################################
#
# If this CIF has been generated from an entry in the Cambridge 
# Structural Database, then it will include bibliographic, chemical, 
# crystal, experimental, refinement or atomic coordinate data resulting 
# from the CCDC's data processing and validation procedures.
#
#######################################################################

data_LOLQOU
_chemical_compound_source        
'cultures of basidiomycete Trichaptum pargamenum'
_chemical_name_common            '3a-Hydroxyartemisinic acid'
_chemical_formula_moiety         'C15 H22 O3'
_chemical_name_systematic        
'2-(6-Hydroxy-4,7-dimethyl-1,2,4a,5,6,8a-hexahydronaphthalen-1-yl)propanoic acid'
_chemical_properties_biological  
'evaluated for cytotoxicity against five human cancer cell lines, SK-BR-3, SMMC-7721, HL-60, PANC-1, and A-549'
_symmetry_cell_setting           monoclinic
_symmetry_space_group_name_H-M   'P 21'
_symmetry_Int_Tables_number      4
_space_group_name_Hall           'P 2yb'
loop_
_symmetry_equiv_pos_site_id
_symmetry_equiv_pos_as_xyz
1 x,y,z
2 -x,1/2+y,-z
_cell_length_a                   6.0112(2)
_cell_length_b                   12.9540(4)
_cell_length_c                   18.1285(6)
_cell_angle_alpha                90
_cell_angle_beta                 99.478(2)
_cell_angle_gamma                90
_cell_volume                     1392.38
_exptl_crystal_colour            colorless
_exptl_crystal_description       prism
_cell_formula_units_Z            4
loop_
_atom_site_label
_atom_site_type_symbol
_atom_site_fract_x
_atom_site_fract_y
_atom_site_fract_z
O1 O 0.2232(6) 0.9173(3) 0.6397(2)
H1 H 0.2671 0.9063 0.5987
O2 O 0.4413(6) 0.8524(3) 1.0269(2)
H2 H 0.3084 0.8442 1.0346
O3 O -0.1255(6) 0.9018(3) 0.5779(2)
C1 C 0.0139(8) 0.8889(4) 0.6348(3)
C2 C -0.0344(8) 0.8367(4) 0.7042(3)
H3 H 0.0886 0.7848 0.7182
C3 C -0.0137(8) 0.9151(4) 0.7708(3)
H4 H 0.1326 0.9525 0.7726
C4 C -0.0068(7) 0.8610(4) 0.8462(3)
H5 H -0.1600 0.8315 0.8473
C5 C 0.0434(8) 0.9379(4) 0.9107(3)
H6 H 0.0093 0.9029 0.9567
C6 C 0.2943(8) 0.9669(4) 0.9250(3)
H7 H 0.3365 0.9966 0.8789
H8 H 0.3217 1.0200 0.9647
C7 C 0.4393(8) 0.8728(4) 0.9485(3)
H9 H 0.5971 0.8883 0.9411
C8 C -0.2031(8) 0.9968(4) 0.7593(3)
H10 H -0.1764 1.0451 0.7194
H11 H -0.3493 0.9620 0.7425
C9 C -0.2166(8) 1.0566(4) 0.8289(3)
H12 H -0.3113 1.1157 0.8243
C10 C -0.1058(8) 1.0336(4) 0.8977(3)
C11 C 0.1604(8) 0.7730(4) 0.8584(3)
H13 H 0.1212 0.7106 0.8319
C12 C 0.3598(8) 0.7768(4) 0.9038(3)
C13 C 0.5192(9) 0.6858(4) 0.9155(3)
H14 H 0.4402 0.6235 0.8947
H15 H 0.5722 0.6761 0.9691
H16 H 0.6484 0.6989 0.8901
C14 C -0.1313(9) 1.0962(4) 0.9652(3)
H17 H -0.2387 1.1524 0.9506
H18 H 0.0153 1.1251 0.9872
H19 H -0.1873 1.0520 1.0020
C15 C -0.2561(8) 0.7756(4) 0.6918(3)
H20 H -0.3832 0.8234 0.6797
H21 H -0.2708 0.7374 0.7374
H22 H -0.2560 0.7269 0.6504
O4 O 0.4313(6) 0.9344(3) 0.5248(2)
H23 H 0.5630 0.9248 0.5477
O5 O 0.2288(6) 0.8529(3) 0.1414(2)
H24 H 0.2702 0.8357 0.1010
O6 O -0.1181(6) 0.8216(3) 0.0825(2)
C16 C 0.4270(8) 0.9208(4) 0.4451(3)
H25 H 0.5826 0.9327 0.4340
C17 C 0.3575(8) 0.8126(4) 0.4223(3)
C18 C 0.1613(8) 0.7920(4) 0.3793(3)
H26 H 0.1288 0.7218 0.3668
C19 C -0.0139(8) 0.8711(4) 0.3488(3)
H27 H -0.1648 0.8429 0.3548
C20 C -0.0204(8) 0.8945(4) 0.2647(3)
H28 H 0.1226 0.9316 0.2602
C21 C -0.0264(8) 0.7958(4) 0.2169(3)
H29 H 0.1022 0.7516 0.2407
C22 C 0.0221(8) 0.8250(4) 0.1401(3)
C23 C 0.2717(7) 1.0029(4) 0.4046(3)
H30 H 0.3132 1.0158 0.3548
H31 H 0.2923 1.0682 0.4333
C24 C 0.0244(8) 0.9705(4) 0.3951(3)
H32 H -0.0099 0.9546 0.4460
C25 C 0.5249(8) 0.7297(4) 0.4518(3)
H33 H 0.4725 0.6630 0.4300
H34 H 0.5390 0.7261 0.5063
H35 H 0.6720 0.7461 0.4381
C26 C -0.2389(9) 0.7313(4) 0.2136(3)
H36 H -0.3687 0.7703 0.1881
H37 H -0.2622 0.7146 0.2646
H38 H -0.2230 0.6672 0.1862
C27 C -0.2159(8) 0.9688(4) 0.2368(3)
H39 H -0.1915 0.9997 0.1888
H40 H -0.3586 0.9292 0.2273
C28 C -0.2380(8) 1.0538(4) 0.2915(3)
H41 H -0.3343 1.1100 0.2743
C29 C -0.1319(8) 1.0566(4) 0.3631(3)
C30 C -0.1658(9) 1.1424(4) 0.4158(3)
H42 H -0.2704 1.1934 0.3895
H43 H -0.0207 1.1755 0.4341
H44 H -0.2286 1.1143 0.4581
loop_
_geom_bond_atom_site_label_1
_geom_bond_atom_site_label_2
_geom_bond_site_symmetry_1
_geom_bond_site_symmetry_2
O1 H1 1_555 1_555
O2 H2 1_555 1_555
O3 C1 1_555 1_555
C1 O1 1_555 1_555
C2 C1 1_555 1_555
H3 C2 1_555 1_555
C3 C2 1_555 1_555
H4 C3 1_555 1_555
C4 C3 1_555 1_555
H5 C4 1_555 1_555
C5 C4 1_555 1_555
H6 C5 1_555 1_555
C6 C5 1_555 1_555
H7 C6 1_555 1_555
H8 C6 1_555 1_555
C7 O2 1_555 1_555
H9 C7 1_555 1_555
C8 C3 1_555 1_555
H10 C8 1_555 1_555
H11 C8 1_555 1_555
C9 C8 1_555 1_555
H12 C9 1_555 1_555
C10 C5 1_555 1_555
C11 C4 1_555 1_555
H13 C11 1_555 1_555
C12 C7 1_555 1_555
C13 C12 1_555 1_555
H14 C13 1_555 1_555
H15 C13 1_555 1_555
H16 C13 1_555 1_555
C14 C10 1_555 1_555
H17 C14 1_555 1_555
H18 C14 1_555 1_555
H19 C14 1_555 1_555
C15 C2 1_555 1_555
H20 C15 1_555 1_555
H21 C15 1_555 1_555
H22 C15 1_555 1_555
O4 H23 1_555 1_555
O5 H24 1_555 1_555
O6 C22 1_555 1_555
C16 O4 1_555 1_555
H25 C16 1_555 1_555
C17 C16 1_555 1_555
C18 C17 1_555 1_555
H26 C18 1_555 1_555
C19 C18 1_555 1_555
H27 C19 1_555 1_555
C20 C19 1_555 1_555
H28 C20 1_555 1_555
C21 C20 1_555 1_555
H29 C21 1_555 1_555
C22 O5 1_555 1_555
C23 C16 1_555 1_555
H30 C23 1_555 1_555
H31 C23 1_555 1_555
C24 C19 1_555 1_555
H32 C24 1_555 1_555
C25 C17 1_555 1_555
H33 C25 1_555 1_555
H34 C25 1_555 1_555
H35 C25 1_555 1_555
C26 C21 1_555 1_555
H36 C26 1_555 1_555
H37 C26 1_555 1_555
H38 C26 1_555 1_555
C27 C20 1_555 1_555
H39 C27 1_555 1_555
H40 C27 1_555 1_555
C28 C27 1_555 1_555
H41 C28 1_555 1_555
C29 C24 1_555 1_555
C30 C29 1_555 1_555
H42 C30 1_555 1_555
H43 C30 1_555 1_555
H44 C30 1_555 1_555
C6 C7 1_555 1_555
C9 C10 1_555 1_555
C11 C12 1_555 1_555
C21 C22 1_555 1_555
C23 C24 1_555 1_555
C28 C29 1_555 1_555

#END
