
#######################################################################
#
#                 Cambridge Crystallographic Data Centre
#                                CCDC 
#
#######################################################################
#
# If this CIF has been generated from an entry in the Cambridge 
# Structural Database, then it will include bibliographic, chemical, 
# crystal, experimental, refinement or atomic coordinate data resulting 
# from the CCDC's data processing and validation procedures.
#
#######################################################################

data_LOMHUQ
_chemical_formula_moiety         'C18 H12 O2'
_chemical_name_systematic        
trans-9,10-Diethynyl-9,10-dihydroxy-9,10-dihydroanthracene
_symmetry_cell_setting           triclinic
_symmetry_space_group_name_H-M   'P -1'
_symmetry_Int_Tables_number      2
_space_group_name_Hall           '-P 1'
loop_
_symmetry_equiv_pos_site_id
_symmetry_equiv_pos_as_xyz
1 x,y,z
2 -x,-y,-z
_cell_length_a                   8.7684(18)
_cell_length_b                   8.9558(18)
_cell_length_c                   10.315(2)
_cell_angle_alpha                113.78(3)
_cell_angle_beta                 102.06(3)
_cell_angle_gamma                102.59(3)
_cell_volume                     682.299
_exptl_crystal_colour            colorless
_exptl_crystal_description       plate
_chemical_melting_point          479-480K
_cell_formula_units_Z            2
loop_
_atom_site_label
_atom_site_type_symbol
_atom_site_fract_x
_atom_site_fract_y
_atom_site_fract_z
C1 C 0.2626(3) -0.2681(3) 0.0455(3)
H1 H 0.290(3) -0.363(3) 0.046(3)
C2 C 0.3852(3) -0.1105(3) 0.0951(2)
H2 H 0.500(3) -0.100(3) 0.127(3)
C3 C 0.3410(2) 0.0283(3) 0.0941(2)
H3 H 0.427(3) 0.140(3) 0.130(3)
C4 C 0.1736(2) 0.0129(2) 0.04628(19)
C5 C 0.1330(2) 0.1706(2) 0.0485(2)
O1 O 0.21482(17) 0.31803(17) 0.19720(15)
H4 H 0.194(4) 0.276(4) 0.269(4)
C6 C 0.2069(2) 0.2237(2) -0.0505(2)
C7 C 0.2679(3) 0.2669(3) -0.1283(3)
H5 H 0.317(3) 0.304(3) -0.195(3)
C8 C 0.0513(2) -0.1439(2) -0.0007(2)
C9 C 0.0974(3) -0.2856(3) -0.0023(2)
H6 H 0.006(3) -0.396(3) -0.043(3)
C8A C -0.0513(2) 0.1439(2) 0.0007(2)
C4A C -0.1736(2) -0.0129(2) -0.04628(19)
C3A C -0.3410(2) -0.0283(3) -0.0941(2)
C2A C -0.3852(3) 0.1105(3) -0.0951(2)
C1A C -0.2626(3) 0.2681(3) -0.0455(3)
H1A H -0.290(3) 0.363(3) -0.046(3)
C9A C -0.0974(3) 0.2856(3) 0.0023(2)
H6A H -0.006(3) 0.396(3) 0.043(3)
H2A H -0.500(3) 0.100(3) -0.127(3)
H3A H -0.427(3) -0.140(3) -0.130(3)
C5A C -0.1330(2) -0.1706(2) -0.0485(2)
O1A O -0.21482(17) -0.31803(17) -0.19720(15)
H4A H -0.194(4) -0.276(4) -0.269(4)
C6A C -0.2069(2) -0.2237(2) 0.0505(2)
C7A C -0.2679(3) -0.2669(3) 0.1283(3)
H5A H -0.317(3) -0.304(3) 0.195(3)
C10 C 0.8055(3) 0.2958(3) 0.3612(3)
H7 H 0.889(3) 0.274(3) 0.314(3)
C11 C 0.7475(3) 0.4286(3) 0.3655(2)
H8 H 0.791(3) 0.500(3) 0.320(3)
C12 C 0.6262(2) 0.4628(2) 0.4319(2)
C13 C 0.5697(2) 0.6133(2) 0.4337(2)
O2 O 0.51293(18) 0.59111(18) 0.28344(15)
H9 H 0.418(4) 0.502(4) 0.234(3)
C14 C 0.7171(2) 0.7758(2) 0.5189(2)
C15 C 0.8354(3) 0.9037(3) 0.5925(2)
H10 H 0.931(3) 1.003(3) 0.652(3)
C16 C 0.5641(2) 0.3607(2) 0.4938(2)
C17 C 0.6262(3) 0.2279(3) 0.4908(2)
H11 H 0.584(3) 0.160(3) 0.538(3)
C18 C 0.7460(3) 0.1960(3) 0.4261(3)
H12 H 0.790(3) 0.104(3) 0.425(3)
C16A C 0.4359(2) 0.6393(2) 0.5062(2)
C12A C 0.3738(2) 0.5372(2) 0.5681(2)
C11A C 0.2525(3) 0.5714(3) 0.6345(2)
C10A C 0.1945(3) 0.7042(3) 0.6388(3)
H7A H 0.111(3) 0.726(3) 0.686(3)
C18A C 0.2540(3) 0.8040(3) 0.5739(3)
C17A C 0.3738(3) 0.7721(3) 0.5092(2)
H11A H 0.416(3) 0.840(3) 0.462(3)
H12A H 0.210(3) 0.896(3) 0.575(3)
H8A H 0.209(3) 0.500(3) 0.680(3)
C13A C 0.4303(2) 0.3867(2) 0.5663(2)
O2A O 0.48707(18) 0.40889(18) 0.71656(15)
H9A H 0.582(4) 0.498(4) 0.766(3)
C14A C 0.2829(2) 0.2242(2) 0.4811(2)
C15A C 0.1646(3) 0.0963(3) 0.4075(2)
H10A H 0.069(3) -0.003(3) 0.348(3)
loop_
_geom_bond_atom_site_label_1
_geom_bond_atom_site_label_2
_geom_bond_site_symmetry_1
_geom_bond_site_symmetry_2
C1 H1 1_555 1_555
C2 C1 1_555 1_555
H2 C2 1_555 1_555
C3 C2 1_555 1_555
H3 C3 1_555 1_555
C4 C3 1_555 1_555
C5 C4 1_555 1_555
O1 C5 1_555 1_555
H4 O1 1_555 1_555
C6 C5 1_555 1_555
C7 C6 1_555 1_555
H5 C7 1_555 1_555
C8 C4 1_555 1_555
C9 C1 1_555 1_555
H6 C9 1_555 1_555
C10 H7 1_555 1_555
C11 C10 1_555 1_555
H8 C11 1_555 1_555
C12 C11 1_555 1_555
C13 C12 1_555 1_555
O2 C13 1_555 1_555
H9 O2 1_555 1_555
C14 C13 1_555 1_555
C15 C14 1_555 1_555
H10 C15 1_555 1_555
C16 C12 1_555 1_555
C17 C16 1_555 1_555
H11 C17 1_555 1_555
C18 C10 1_555 1_555
H12 C18 1_555 1_555
C8A C5 1_555 1_555
C4A C8A 1_555 1_555
C3A C4A 1_555 1_555
C2A C3A 1_555 1_555
C1A C2A 1_555 1_555
H1A C1A 1_555 1_555
C9A C8A 1_555 1_555
H6A C9A 1_555 1_555
H2A C2A 1_555 1_555
H3A C3A 1_555 1_555
C5A C8 1_555 1_555
O1A C5A 1_555 1_555
H4A O1A 1_555 1_555
C6A C5A 1_555 1_555
C7A C6A 1_555 1_555
H5A C7A 1_555 1_555
C16A C13 1_555 1_555
C12A C16A 1_555 1_555
C11A C12A 1_555 1_555
C10A C11A 1_555 1_555
H7A C10A 1_555 1_555
C18A C10A 1_555 1_555
C17A C16A 1_555 1_555
H11A C17A 1_555 1_555
H12A C18A 1_555 1_555
H8A C11A 1_555 1_555
C13A C16 1_555 1_555
O2A C13A 1_555 1_555
H9A O2A 1_555 1_555
C14A C13A 1_555 1_555
C15A C14A 1_555 1_555
H10A C15A 1_555 1_555
C8 C9 1_555 1_555
C17 C18 1_555 1_555
C4A C5A 1_555 1_555
C1A C9A 1_555 1_555
C12A C13A 1_555 1_555
C18A C17A 1_555 1_555

#END
