
#######################################################################
#
#                 Cambridge Crystallographic Data Centre
#                                CCDC 
#
#######################################################################
#
# If this CIF has been generated from an entry in the Cambridge 
# Structural Database, then it will include bibliographic, chemical, 
# crystal, experimental, refinement or atomic coordinate data resulting 
# from the CCDC's data processing and validation procedures.
#
#######################################################################

data_LOMKOO
_chemical_formula_moiety         'C10 H12 N4 O1 S1'
_chemical_name_systematic        
4-Amino-3-(4-ethoxyphenyl)-1H-1,2,4-triazole-5(4H)-thione
_symmetry_cell_setting           orthorhombic
_symmetry_space_group_name_H-M   'P c c n'
_symmetry_Int_Tables_number      56
_space_group_name_Hall           '-P 2ab 2ac'
loop_
_symmetry_equiv_pos_site_id
_symmetry_equiv_pos_as_xyz
1 x,y,z
2 1/2-x,1/2-y,z
3 -x,1/2+y,1/2-z
4 1/2+x,-y,1/2-z
5 -x,-y,-z
6 1/2+x,1/2+y,-z
7 x,1/2-y,1/2+z
8 1/2-x,y,1/2+z
_cell_length_a                   11.7903(10)
_cell_length_b                   29.269(3)
_cell_length_c                   6.7927(6)
_cell_angle_alpha                90
_cell_angle_beta                 90
_cell_angle_gamma                90
_cell_volume                     2344.09
_exptl_crystal_colour            colorless
_exptl_crystal_description       block
_cell_formula_units_Z            8
loop_
_atom_site_label
_atom_site_type_symbol
_atom_site_fract_x
_atom_site_fract_y
_atom_site_fract_z
S1 S -0.08350(6) 0.29801(2) 0.24714(10)
O1 O 0.10648(19) -0.00813(6) 0.2357(3)
N1 N -0.13126(18) 0.18931(8) 0.2530(4)
N2 N -0.02153(16) 0.20781(6) 0.2363(3)
N3 N 0.11476(17) 0.25319(8) 0.1878(3)
N4 N 0.16078(17) 0.20989(7) 0.1806(3)
C1 C 0.00343(19) 0.25333(8) 0.2234(3)
C2 C 0.07466(19) 0.18262(8) 0.2085(3)
C3 C 0.08241(19) 0.13280(8) 0.2120(4)
C4 C 0.0259(2) 0.10726(9) 0.3538(4)
H1 H -0.0190 0.1219 0.4470
C5 C 0.0361(2) 0.06052(9) 0.3570(4)
H2 H -0.0019 0.0437 0.4524
C6 C 0.1027(2) 0.03839(9) 0.2192(4)
C7 C 0.1604(2) 0.06340(9) 0.0800(4)
H3 H 0.2063 0.0488 -0.0117
C8 C 0.1497(2) 0.11051(9) 0.0773(4)
H4 H 0.1886 0.1274 -0.0171
C9 C 0.1672(3) -0.03360(10) 0.0909(5)
H5 H 0.2470 -0.0255 0.0935
H6 H 0.1376 -0.0271 -0.0394
C10 C 0.1522(3) -0.08326(10) 0.1395(6)
H7 H 0.1842 -0.0894 0.2667
H8 H 0.1898 -0.1015 0.0421
H9 H 0.0728 -0.0906 0.1409
H10 H -0.156(3) 0.1978(12) 0.364(6)
H11 H -0.170(3) 0.2024(12) 0.161(6)
H12 H 0.162(3) 0.2774(13) 0.180(6)
loop_
_geom_bond_atom_site_label_1
_geom_bond_atom_site_label_2
_geom_bond_site_symmetry_1
_geom_bond_site_symmetry_2
S1 C1 1_555 1_555
O1 C6 1_555 1_555
N1 N2 1_555 1_555
N2 C1 1_555 1_555
N3 N4 1_555 1_555
N4 C2 1_555 1_555
C1 N3 1_555 1_555
C2 N2 1_555 1_555
C3 C2 1_555 1_555
C4 C3 1_555 1_555
H1 C4 1_555 1_555
C5 C4 1_555 1_555
H2 C5 1_555 1_555
C6 C5 1_555 1_555
C7 C6 1_555 1_555
H3 C7 1_555 1_555
C8 C3 1_555 1_555
H4 C8 1_555 1_555
C9 O1 1_555 1_555
H5 C9 1_555 1_555
H6 C9 1_555 1_555
C10 C9 1_555 1_555
H7 C10 1_555 1_555
H8 C10 1_555 1_555
H9 C10 1_555 1_555
H10 N1 1_555 1_555
H11 N1 1_555 1_555
H12 N3 1_555 1_555
C7 C8 1_555 1_555

#END
