
#######################################################################
#
#                 Cambridge Crystallographic Data Centre
#                                CCDC 
#
#######################################################################
#
# If this CIF has been generated from an entry in the Cambridge 
# Structural Database, then it will include bibliographic, chemical, 
# crystal, experimental, refinement or atomic coordinate data resulting 
# from the CCDC's data processing and validation procedures.
#
#######################################################################

data_LOMLEG
_chemical_formula_moiety         'C30 H29 Cl1 N2 O7 S1'
_chemical_name_systematic        
'diethyl 3-(2-chlorophenyl)-5-((4-methylphenyl)sulfonyl)-4-oxo-1,3,3a,4,5,9b-hexahydro-2H-pyrrolo[3,2-c]quinoline-2,2-dicarboxylate'
_symmetry_cell_setting           monoclinic
_symmetry_space_group_name_H-M   'P 21'
_symmetry_Int_Tables_number      4
_space_group_name_Hall           'P 2yb'
loop_
_symmetry_equiv_pos_site_id
_symmetry_equiv_pos_as_xyz
1 x,y,z
2 -x,1/2+y,-z
_cell_length_a                   11.9525(6)
_cell_length_b                   7.8235(5)
_cell_length_c                   16.0480(10)
_cell_angle_alpha                90
_cell_angle_beta                 108.111(7)
_cell_angle_gamma                90
_cell_volume                     1426.31
_exptl_crystal_colour            'light colorless'
_exptl_crystal_description       plate
_cell_formula_units_Z            2
loop_
_atom_site_label
_atom_site_type_symbol
_atom_site_fract_x
_atom_site_fract_y
_atom_site_fract_z
S1 S 0.54545(8) 0.89296(16) 0.21287(7)
Cl1 Cl 1.11030(9) 1.19708(18) 0.41713(8)
O1 O 0.4416(2) 0.8651(5) 0.1407(2)
O2 O 1.0829(2) 1.3890(5) 0.21262(18)
C1 C 0.5093(3) 0.8733(6) 0.3106(3)
O3 O 0.9495(2) 1.1021(4) 0.09015(18)
O4 O 0.6487(3) 0.7951(5) 0.2196(2)
N1 N 0.5811(2) 1.1037(5) 0.2086(2)
C2 C 0.8912(3) 1.2823(6) 0.1852(2)
C3 C 0.6984(3) 1.3913(6) 0.1651(2)
H1 H 0.7178 1.5128 0.1642
C4 C 0.6875(3) 1.1543(6) 0.2712(2)
O5 O 0.9362(3) 1.5449(5) 0.1229(2)
C5 C 0.9415(3) 1.1080(6) 0.1716(3)
C6 C 0.5119(3) 1.2238(6) 0.1445(2)
N2 N 0.7706(3) 1.2884(5) 0.1239(2)
C7 C 0.9711(3) 1.4232(6) 0.1689(3)
C8 C 1.1168(4) 1.5303(7) 0.4578(3)
H2 H 1.1859 1.5025 0.5018
O6 O 0.7337(2) 1.0640(5) 0.33277(18)
C9 C 0.8767(3) 1.2994(6) 0.2789(2)
H3 H 0.8989 1.1901 0.3094
C10 C 0.5042(4) 1.4788(7) 0.0601(3)
H4 H 0.5419 1.5728 0.0455
C11 C 0.5688(3) 1.3634(6) 0.1210(2)
C12 C 0.9481(3) 1.4394(6) 0.3367(2)
C13 C 0.5576(4) 0.7846(8) 0.4600(3)
H5 H 0.6117 0.7392 0.5099
C14 C 0.7404(3) 1.3230(6) 0.2582(2)
H6 H 0.7251 1.4081 0.2981
C15 C 1.0775(4) 1.6948(8) 0.4477(3)
H7 H 1.1201 1.7793 0.4849
C16 C 0.3988(3) 0.9220(7) 0.3126(3)
H8 H 0.3451 0.9695 0.2631
C17 C 0.9745(4) 1.7371(7) 0.3823(3)
H9 H 0.9477 1.8494 0.3754
O7 O 0.9652(3) 0.9944(5) 0.2222(2)
C18 C 1.0531(3) 1.4045(6) 0.4021(3)
C19 C 0.3908(3) 1.2084(7) 0.1078(3)
H10 H 0.3510 1.1207 0.1256
C20 C 0.3686(4) 0.9003(8) 0.3877(3)
H11 H 0.2937 0.9318 0.3881
C21 C 0.3295(4) 1.3230(8) 0.0449(3)
H12 H 0.2490 1.3083 0.0188
C22 C 0.3846(4) 1.4578(8) 0.0203(3)
H13 H 0.3425 1.5340 -0.0225
C23 C 0.5883(3) 0.8030(7) 0.3847(3)
H14 H 0.6622 0.7681 0.3837
C24 C 0.4138(5) 0.8093(10) 0.5455(4)
H15 H 0.4111 0.6894 0.5577
H16 H 0.3380 0.8593 0.5382
H17 H 0.4716 0.8639 0.5935
C25 C 0.9930(3) 0.9424(6) 0.0646(3)
H18 H 0.9611 0.9277 0.0016
H19 H 0.9669 0.8470 0.0925
C26 C 0.4464(4) 0.8330(7) 0.4624(3)
C27 C 1.2845(4) 1.4616(9) 0.2744(4)
H20 H 1.3049 1.3547 0.2535
H21 H 1.2786 1.4466 0.3323
H22 H 1.3441 1.5448 0.2760
C28 C 1.1692(4) 1.5217(8) 0.2144(3)
H23 H 1.1466 1.6283 0.2355
H24 H 1.1745 1.5403 0.1560
C29 C 1.1238(4) 0.9435(9) 0.0909(4)
H25 H 1.1507 0.8422 0.0694
H26 H 1.1553 0.9467 0.1537
H27 H 1.1497 1.0425 0.0667
C30 C 0.9128(4) 1.6104(6) 0.3278(3)
H28 H 0.8448 1.6398 0.2831
H29 H 0.777(4) 1.329(7) 0.078(3)
loop_
_geom_bond_atom_site_label_1
_geom_bond_atom_site_label_2
_geom_bond_site_symmetry_1
_geom_bond_site_symmetry_2
S1 O1 1_555 1_555
Cl1 C18 1_555 1_555
O2 C7 1_555 1_555
C1 S1 1_555 1_555
O3 C5 1_555 1_555
O4 S1 1_555 1_555
N1 S1 1_555 1_555
C2 C5 1_555 1_555
C3 H1 1_555 1_555
C4 N1 1_555 1_555
O5 C7 1_555 1_555
C5 O7 1_555 1_555
C6 N1 1_555 1_555
N2 C2 1_555 1_555
C7 C2 1_555 1_555
C8 H2 1_555 1_555
O6 C4 1_555 1_555
C9 C2 1_555 1_555
H3 C9 1_555 1_555
C10 H4 1_555 1_555
C11 C3 1_555 1_555
C12 C9 1_555 1_555
C13 H5 1_555 1_555
C14 C3 1_555 1_555
H6 C14 1_555 1_555
C15 C8 1_555 1_555
H7 C15 1_555 1_555
C16 C1 1_555 1_555
H8 C16 1_555 1_555
C17 C15 1_555 1_555
H9 C17 1_555 1_555
C18 C8 1_555 1_555
C19 C6 1_555 1_555
H10 C19 1_555 1_555
C20 C16 1_555 1_555
H11 C20 1_555 1_555
C21 C19 1_555 1_555
H12 C21 1_555 1_555
C22 C10 1_555 1_555
H13 C22 1_555 1_555
C23 C1 1_555 1_555
H14 C23 1_555 1_555
C24 H15 1_555 1_555
H16 C24 1_555 1_555
H17 C24 1_555 1_555
C25 O3 1_555 1_555
H18 C25 1_555 1_555
H19 C25 1_555 1_555
C26 C13 1_555 1_555
C27 H20 1_555 1_555
H21 C27 1_555 1_555
H22 C27 1_555 1_555
C28 O2 1_555 1_555
H23 C28 1_555 1_555
H24 C28 1_555 1_555
C29 C25 1_555 1_555
H25 C29 1_555 1_555
H26 C29 1_555 1_555
H27 C29 1_555 1_555
C30 C12 1_555 1_555
H28 C30 1_555 1_555
H29 N2 1_555 1_555
C3 N2 1_555 1_555
C4 C14 1_555 1_555
C6 C11 1_555 1_555
C9 C14 1_555 1_555
C10 C11 1_555 1_555
C12 C18 1_555 1_555
C13 C23 1_555 1_555
C17 C30 1_555 1_555
C20 C26 1_555 1_555
C21 C22 1_555 1_555
C24 C26 1_555 1_555
C27 C28 1_555 1_555

#END
