
#######################################################################
#
#                 Cambridge Crystallographic Data Centre
#                                CCDC 
#
#######################################################################
#
# If this CIF has been generated from an entry in the Cambridge 
# Structural Database, then it will include bibliographic, chemical, 
# crystal, experimental, refinement or atomic coordinate data resulting 
# from the CCDC's data processing and validation procedures.
#
#######################################################################

data_LOMNUY
_chemical_compound_source        
'secondary metabolite of the endophytic fungus Botryosphaeria dothidea KJ-1, collected from the stems of white cedar (Melia azedarach L)'
_chemical_formula_moiety         'C7 H9 N1 O3'
_chemical_name_systematic        4-Hydroxy-3-methoxy-6-methylpyridin-2(1H)-one
_symmetry_cell_setting           monoclinic
_symmetry_space_group_name_H-M   'P 21/n'
_symmetry_Int_Tables_number      14
_space_group_name_Hall           '-P 2yn'
loop_
_symmetry_equiv_pos_site_id
_symmetry_equiv_pos_as_xyz
1 x,y,z
2 1/2-x,1/2+y,1/2-z
3 -x,-y,-z
4 1/2+x,1/2-y,1/2+z
_cell_length_a                   9.2687(10)
_cell_length_b                   7.9129(12)
_cell_length_c                   9.8381(10)
_cell_angle_alpha                90
_cell_angle_beta                 91.266(9)
_cell_angle_gamma                90
_cell_volume                     721.373
_exptl_crystal_colour            'light orange'
_exptl_crystal_description       block
_cell_formula_units_Z            4
_chemical_properties_physical    air-sensitive
loop_
_atom_site_label
_atom_site_type_symbol
_atom_site_fract_x
_atom_site_fract_y
_atom_site_fract_z
O1 O 0.54354(10) 0.08504(12) 0.84353(9)
O2 O 0.74414(10) 0.29160(12) 0.71257(9)
O3 O 0.99403(10) 0.37540(13) 0.86387(10)
H1 H 0.9614 0.4242 0.7964
N1 N 0.68991(12) 0.07425(14) 1.03233(11)
H2 H 0.6254 0.0143 1.0713
C1 C 0.66142(14) 0.12777(16) 0.90233(13)
C2 C 0.76829(14) 0.23083(17) 0.84240(13)
C3 C 0.89206(14) 0.27451(17) 0.91506(14)
C4 C 0.91557(15) 0.21020(17) 1.04813(14)
H3 H 0.9999 0.2366 1.0966
C5 C 0.81416(14) 0.10970(17) 1.10451(13)
C6 C 0.82996(15) 0.03093(19) 1.24275(13)
H4 H 0.7427 0.0474 1.2919
H5 H 0.9091 0.0828 1.2915
H6 H 0.8481 -0.0879 1.2333
C7 C 0.80657(17) 0.18814(19) 0.60964(14)
H7 H 0.7674 0.2199 0.5222
H8 H 0.7848 0.0716 0.6269
H9 H 0.9093 0.2037 0.6109
loop_
_geom_bond_atom_site_label_1
_geom_bond_atom_site_label_2
_geom_bond_site_symmetry_1
_geom_bond_site_symmetry_2
O1 C1 1_555 1_555
O2 C2 1_555 1_555
O3 H1 1_555 1_555
N1 H2 1_555 1_555
C1 N1 1_555 1_555
C2 C1 1_555 1_555
C3 O3 1_555 1_555
C4 C3 1_555 1_555
H3 C4 1_555 1_555
C5 N1 1_555 1_555
C6 C5 1_555 1_555
H4 C6 1_555 1_555
H5 C6 1_555 1_555
H6 C6 1_555 1_555
C7 O2 1_555 1_555
H7 C7 1_555 1_555
H8 C7 1_555 1_555
H9 C7 1_555 1_555
C2 C3 1_555 1_555
C4 C5 1_555 1_555

#END
