
#######################################################################
#
#                 Cambridge Crystallographic Data Centre
#                                CCDC 
#
#######################################################################
#
# If this CIF has been generated from an entry in the Cambridge 
# Structural Database, then it will include bibliographic, chemical, 
# crystal, experimental, refinement or atomic coordinate data resulting 
# from the CCDC's data processing and validation procedures.
#
#######################################################################

data_LOMWEQ
_chemical_formula_moiety         'C16 H19 Cl1 N2 O3'
_chemical_name_systematic        
6-Methyl-5-(t-butoxycarbonyl)-4-(2-chlorophenyl)-3,4-dihydropyrimidin-2(1H)-one
_symmetry_cell_setting           monoclinic
_symmetry_space_group_name_H-M   'P 21/c'
_symmetry_Int_Tables_number      14
_space_group_name_Hall           '-P 2ybc'
loop_
_symmetry_equiv_pos_site_id
_symmetry_equiv_pos_as_xyz
1 x,y,z
2 -x,1/2+y,1/2-z
3 -x,-y,-z
4 x,1/2-y,1/2+z
_cell_length_a                   12.234(8)
_cell_length_b                   7.001(5)
_cell_length_c                   19.847(13)
_cell_angle_alpha                90
_cell_angle_beta                 107.717(11)
_cell_angle_gamma                90
_cell_volume                     1619.28
_cell_formula_units_Z            4
loop_
_atom_site_label
_atom_site_type_symbol
_atom_site_fract_x
_atom_site_fract_y
_atom_site_fract_z
Cl1 Cl 0.20087(7) 1.36463(10) 0.21633(4)
O1 O 0.22189(18) 1.0695(3) 0.42920(10)
O2 O 0.26926(15) 0.7752(3) 0.46953(8)
O3 O 0.50253(13) 0.8633(2) 0.23796(8)
N1 N 0.38094(15) 1.0252(3) 0.28195(10)
N2 N 0.40410(15) 0.7057(3) 0.30028(10)
C1 C 0.1295(2) 1.1483(4) 0.20285(13)
C2 C 0.0305(2) 1.1328(4) 0.14754(14)
H1 H 0.0028 1.2370 0.1183
C3 C -0.0266(2) 0.9652(5) 0.13582(14)
H2 H -0.0929 0.9533 0.0977
C4 C 0.0123(2) 0.8120(5) 0.17979(14)
H3 H -0.0273 0.6967 0.1715
C5 C 0.1104(2) 0.8307(4) 0.23614(13)
H4 H 0.1356 0.7280 0.2666
C6 C 0.17186(18) 0.9982(3) 0.24830(11)
C7 C 0.28252(18) 1.0205(3) 0.30883(11)
H5 H 0.2793 1.1432 0.3318
C8 C 0.43182(19) 0.8670(3) 0.27126(11)
C9 C 0.35792(19) 0.7116(3) 0.35595(11)
C10 C 0.30148(19) 0.8679(3) 0.36383(11)
C11 C 0.3809(2) 0.5349(4) 0.39986(13)
H6 H 0.3472 0.5469 0.4375
H7 H 0.4622 0.5169 0.4195
H8 H 0.3480 0.4270 0.3709
C12 C 0.2602(2) 0.9158(4) 0.42340(13)
C13 C 0.2541(2) 0.8073(5) 0.53920(13)
C14 C 0.1342(2) 0.8753(5) 0.53212(16)
H9 H 0.1242 1.0024 0.5131
H10 H 0.1225 0.8753 0.5778
H11 H 0.0796 0.7914 0.5010
C15 C 0.3448(3) 0.9432(6) 0.57943(16)
H12 H 0.3297 1.0678 0.5585
H13 H 0.4185 0.8998 0.5780
H14 H 0.3445 0.9493 0.6277
C16 C 0.2730(3) 0.6093(5) 0.5710(2)
H15 H 0.3494 0.5676 0.5748
H16 H 0.2185 0.5227 0.5413
H17 H 0.2632 0.6120 0.6172
H18 H 0.4055(13) 1.1382(14) 0.2705(10)
H19 H 0.4396(12) 0.6004(16) 0.2919(11)
loop_
_geom_bond_atom_site_label_1
_geom_bond_atom_site_label_2
_geom_bond_site_symmetry_1
_geom_bond_site_symmetry_2
Cl1 C1 1_555 1_555
O1 C12 1_555 1_555
O2 C12 1_555 1_555
O3 C8 1_555 1_555
N1 C7 1_555 1_555
N2 C8 1_555 1_555
C1 C2 1_555 1_555
C2 H1 1_555 1_555
C3 C2 1_555 1_555
H2 C3 1_555 1_555
C4 C3 1_555 1_555
H3 C4 1_555 1_555
C5 C4 1_555 1_555
H4 C5 1_555 1_555
C6 C1 1_555 1_555
C7 C6 1_555 1_555
H5 C7 1_555 1_555
C8 N1 1_555 1_555
C9 N2 1_555 1_555
C10 C7 1_555 1_555
C11 C9 1_555 1_555
H6 C11 1_555 1_555
H7 C11 1_555 1_555
H8 C11 1_555 1_555
C12 C10 1_555 1_555
C13 O2 1_555 1_555
C14 C13 1_555 1_555
H9 C14 1_555 1_555
H10 C14 1_555 1_555
H11 C14 1_555 1_555
C15 C13 1_555 1_555
H12 C15 1_555 1_555
H13 C15 1_555 1_555
H14 C15 1_555 1_555
C16 C13 1_555 1_555
H15 C16 1_555 1_555
H16 C16 1_555 1_555
H17 C16 1_555 1_555
H18 N1 1_555 1_555
H19 N2 1_555 1_555
C5 C6 1_555 1_555
C9 C10 1_555 1_555

#END
