
#######################################################################
#
#                 Cambridge Crystallographic Data Centre
#                                CCDC 
#
#######################################################################
#
# If this CIF has been generated from an entry in the Cambridge 
# Structural Database, then it will include bibliographic, chemical, 
# crystal, experimental, refinement or atomic coordinate data resulting 
# from the CCDC's data processing and validation procedures.
#
#######################################################################

data_LOMWIT
_chemical_formula_moiety         'C14 H11 N1 O6 S3'
_chemical_name_systematic        
'5-(Benzoyloxymethyl)thieno(2,3-b)thiophene-2-sulfonamide 6,6-dioxide'
_symmetry_cell_setting           monoclinic
_symmetry_space_group_name_H-M   'P 21/c'
_symmetry_Int_Tables_number      14
_space_group_name_Hall           '-P 2ybc'
loop_
_symmetry_equiv_pos_site_id
_symmetry_equiv_pos_as_xyz
1 x,y,z
2 -x,1/2+y,1/2-z
3 -x,-y,-z
4 x,1/2-y,1/2+z
_cell_length_a                   15.374(1)
_cell_length_b                   12.054(1)
_cell_length_c                   8.5200(6)
_cell_angle_alpha                90
_cell_angle_beta                 95.388(6)
_cell_angle_gamma                90
_cell_volume                     1571.93
_exptl_crystal_colour            colorless
_exptl_crystal_description       plates
_chemical_melting_point          '212-214 deg.C'
_cell_formula_units_Z            4
_exptl_crystal_recrystallization_method methanol/dichloromethane
loop_
_atom_site_label
_atom_site_type_symbol
_atom_site_fract_x
_atom_site_fract_y
_atom_site_fract_z
S1 S 0.36089(4) 0.17199(5) 0.01037(7)
C1 C 0.33583(14) 0.3120(2) 0.0091(3)
C2 C 0.3977(2) 0.3779(2) -0.0464(3)
C3 C 0.4693(2) 0.3143(2) -0.0864(3)
C4 C 0.5549(2) 0.3417(2) -0.1393(3)
C5 C 0.6063(2) 0.2546(2) -0.1537(3)
S2 S 0.55010(4) 0.12922(4) -0.11155(7)
C6 C 0.45715(14) 0.2033(2) -0.0641(3)
S3 S 0.23628(4) 0.36010(5) 0.06892(7)
O1 O 0.20210(12) 0.2710(2) 0.1553(2)
O2 O 0.25278(12) 0.4658(2) 0.1394(2)
N1 N 0.17007(14) 0.3780(2) -0.0869(3)
C7 C 0.6944(2) 0.2526(2) -0.2126(3)
O3 O 0.75901(11) 0.21259(14) -0.0902(2)
C8 C 0.7889(2) 0.1092(2) -0.1052(3)
O4 O 0.7641(2) 0.0502(2) -0.2142(2)
C9 C 0.8534(2) 0.0765(2) 0.0275(3)
C10 C 0.8879(2) 0.1524(2) 0.1394(3)
C11 C 0.9481(2) 0.1162(3) 0.2605(4)
C12 C 0.9739(2) 0.0071(3) 0.2692(4)
C13 C 0.9397(2) -0.0683(3) 0.1578(4)
C14 C 0.8794(2) -0.0338(2) 0.0364(3)
O5 O 0.53276(11) 0.06741(14) -0.2547(2)
O6 O 0.59216(11) 0.07239(14) 0.0231(2)
H1 H 0.392(2) 0.453(2) -0.054(3)
H2 H 0.571(2) 0.416(2) -0.165(3)
H3 H 0.184(2) 0.434(3) -0.142(3)
H4 H 0.165(2) 0.316(3) -0.136(4)
H5 H 0.712(2) 0.324(2) -0.236(3)
H6 H 0.693(2) 0.203(2) -0.300(3)
H7 H 0.871(2) 0.229(2) 0.129(3)
H8 H 0.968(2) 0.170(3) 0.332(4)
H9 H 1.015(2) -0.018(3) 0.358(4)
H10 H 0.960(2) -0.148(3) 0.161(4)
H11 H 0.853(2) -0.084(3) -0.040(4)
loop_
_geom_bond_atom_site_label_1
_geom_bond_atom_site_label_2
_geom_bond_site_symmetry_1
_geom_bond_site_symmetry_2
S1 C1 1_555 1_555
C1 C2 1_555 1_555
C2 C3 1_555 1_555
C3 C4 1_555 1_555
C4 C5 1_555 1_555
C5 S2 1_555 1_555
S2 C6 1_555 1_555
C6 S1 1_555 1_555
S3 C1 1_555 1_555
O1 S3 1_555 1_555
O2 S3 1_555 1_555
N1 S3 1_555 1_555
C7 C5 1_555 1_555
O3 C7 1_555 1_555
C8 O3 1_555 1_555
O4 C8 1_555 1_555
C9 C8 1_555 1_555
C10 C9 1_555 1_555
C11 C10 1_555 1_555
C12 C11 1_555 1_555
C13 C12 1_555 1_555
C14 C9 1_555 1_555
O5 S2 1_555 1_555
O6 S2 1_555 1_555
H1 C2 1_555 1_555
H2 C4 1_555 1_555
H3 N1 1_555 1_555
H4 N1 1_555 1_555
H5 C7 1_555 1_555
H6 C7 1_555 1_555
H7 C10 1_555 1_555
H8 C11 1_555 1_555
H9 C12 1_555 1_555
H10 C13 1_555 1_555
H11 C14 1_555 1_555
C3 C6 1_555 1_555
C13 C14 1_555 1_555

#END
