
#######################################################################
#
#                 Cambridge Crystallographic Data Centre
#                                CCDC 
#
#######################################################################
#
# If this CIF has been generated from an entry in the Cambridge 
# Structural Database, then it will include bibliographic, chemical, 
# crystal, experimental, refinement or atomic coordinate data resulting 
# from the CCDC's data processing and validation procedures.
#
#######################################################################

data_LOMWAM
_chemical_formula_moiety         'C17 H22 N2 O3'
_chemical_name_systematic        
6-Methyl-5-(t-butoxycarbonyl)-4-(p-tolyl)-3,4-dihydropyrimidin-2(1H)-one
_symmetry_cell_setting           triclinic
_symmetry_space_group_name_H-M   'P -1'
_symmetry_Int_Tables_number      2
_space_group_name_Hall           '-P 1'
loop_
_symmetry_equiv_pos_site_id
_symmetry_equiv_pos_as_xyz
1 x,y,z
2 -x,-y,-z
_cell_length_a                   7.5144(12)
_cell_length_b                   8.7770(14)
_cell_length_c                   12.9121(18)
_cell_angle_alpha                104.372(6)
_cell_angle_beta                 100.528(3)
_cell_angle_gamma                101.950(4)
_cell_volume                     782.062
_exptl_crystal_colour            colorless
_exptl_crystal_description       prism
_chemical_melting_point          '207-210 deg.C'
_cell_formula_units_Z            2
loop_
_atom_site_label
_atom_site_type_symbol
_atom_site_fract_x
_atom_site_fract_y
_atom_site_fract_z
O1 O 0.26903(13) 1.36515(12) 0.44593(8)
O2 O 0.83549(13) 0.94004(12) 0.34491(8)
O3 O 0.55118(13) 0.75801(11) 0.30133(8)
N1 N 0.26531(16) 1.09801(13) 0.38488(9)
N2 N 0.54461(15) 1.29876(14) 0.44665(10)
C1 C 0.35212(18) 1.25784(16) 0.42520(11)
C2 C 0.34958(18) 0.97169(16) 0.33190(11)
H1 H 0.3039 0.8712 0.3531
C3 C 0.56155(17) 1.02858(16) 0.37374(10)
C4 C 0.64901(18) 1.18693(16) 0.42799(11)
C5 C 0.28631(18) 0.93012(16) 0.20677(11)
C6 C 0.3599(2) 1.03748(18) 0.15263(12)
H2 H 0.4553 1.1343 0.1938
C7 C 0.2965(2) 1.00556(19) 0.03971(12)
H3 H 0.3481 1.0814 0.0048
C8 C 0.1589(2) 0.86452(19) -0.02327(12)
C9 C 0.0871(2) 0.75645(19) 0.03002(13)
H4 H -0.0060 0.6584 -0.0116
C10 C 0.1491(2) 0.78895(18) 0.14414(12)
H5 H 0.0967 0.7135 0.1791
C11 C 0.0876(2) 0.8337(2) -0.14608(13)
H6 H 0.0137 0.9101 -0.1587
H7 H 0.0087 0.7216 -0.1795
H8 H 0.1944 0.8495 -0.1796
C12 C 0.66818(19) 0.90985(16) 0.34131(11)
C13 C 0.5999(2) 0.62412(17) 0.22745(12)
C14 C 0.4224(2) 0.48640(18) 0.19695(14)
H9 H 0.4005 0.4591 0.2635
H10 H 0.4363 0.3904 0.1443
H11 H 0.3156 0.5207 0.1633
C15 C 0.6348(2) 0.67366(19) 0.12666(12)
H12 H 0.5248 0.7029 0.0918
H13 H 0.6572 0.5823 0.0740
H14 H 0.7449 0.7677 0.1492
C16 C 0.7663(2) 0.57893(19) 0.28664(13)
H15 H 0.8811 0.6656 0.3001
H16 H 0.7787 0.4764 0.2408
H17 H 0.7463 0.5657 0.3572
C17 C 0.85628(18) 1.26097(17) 0.47152(12)
H18 H 0.9135 1.1857 0.5020
H19 H 0.8797 1.3640 0.5296
H20 H 0.9113 1.2816 0.4115
H21 H 0.600(3) 1.403(2) 0.4813(14)
H22 H 0.140(3) 1.074(2) 0.3705(14)
loop_
_geom_bond_atom_site_label_1
_geom_bond_atom_site_label_2
_geom_bond_site_symmetry_1
_geom_bond_site_symmetry_2
O1 C1 1_555 1_555
O2 C12 1_555 1_555
O3 C12 1_555 1_555
N1 C1 1_555 1_555
N2 C1 1_555 1_555
C2 N1 1_555 1_555
H1 C2 1_555 1_555
C3 C2 1_555 1_555
C4 N2 1_555 1_555
C5 C2 1_555 1_555
C6 C5 1_555 1_555
H2 C6 1_555 1_555
C7 C6 1_555 1_555
H3 C7 1_555 1_555
C8 C7 1_555 1_555
C9 C8 1_555 1_555
H4 C9 1_555 1_555
C10 C5 1_555 1_555
H5 C10 1_555 1_555
C11 C8 1_555 1_555
H6 C11 1_555 1_555
H7 C11 1_555 1_555
H8 C11 1_555 1_555
C12 C3 1_555 1_555
C13 O3 1_555 1_555
C14 C13 1_555 1_555
H9 C14 1_555 1_555
H10 C14 1_555 1_555
H11 C14 1_555 1_555
C15 C13 1_555 1_555
H12 C15 1_555 1_555
H13 C15 1_555 1_555
H14 C15 1_555 1_555
C16 C13 1_555 1_555
H15 C16 1_555 1_555
H16 C16 1_555 1_555
H17 C16 1_555 1_555
C17 C4 1_555 1_555
H18 C17 1_555 1_555
H19 C17 1_555 1_555
H20 C17 1_555 1_555
H21 N2 1_555 1_555
H22 N1 1_555 1_555
C3 C4 1_555 1_555
C9 C10 1_555 1_555

#END
