
#######################################################################
#
#                 Cambridge Crystallographic Data Centre
#                                CCDC 
#
#######################################################################
#
# If this CIF has been generated from an entry in the Cambridge 
# Structural Database, then it will include bibliographic, chemical, 
# crystal, experimental, refinement or atomic coordinate data resulting 
# from the CCDC's data processing and validation procedures.
#
#######################################################################

data_LONBAT
_chemical_formula_moiety         'C16 H14'
_chemical_name_systematic        1,6-dimethylphenanthrene
_symmetry_cell_setting           monoclinic
_symmetry_space_group_name_H-M   'P c'
_symmetry_Int_Tables_number      7
_space_group_name_Hall           'P -2yc'
loop_
_symmetry_equiv_pos_site_id
_symmetry_equiv_pos_as_xyz
1 x,y,z
2 x,-y,1/2+z
_cell_length_a                   6.4268(5)
_cell_length_b                   8.3339(5)
_cell_length_c                   20.8508(13)
_cell_angle_alpha                90
_cell_angle_beta                 92.517(5)
_cell_angle_gamma                90
_cell_volume                     1115.7
_exptl_crystal_colour            colorless
_exptl_crystal_description       plate
_cell_formula_units_Z            4
loop_
_atom_site_label
_atom_site_type_symbol
_atom_site_fract_x
_atom_site_fract_y
_atom_site_fract_z
C1 C 0.0626(8) 0.9352(5) 0.1920(2)
C2 C -0.0959(8) 0.8584(5) 0.2226(2)
H1 H -0.0945 0.8566 0.2681
C3 C -0.2592(8) 0.7829(5) 0.1870(2)
H2 H -0.3656 0.7291 0.2088
C4 C -0.2658(8) 0.7863(5) 0.1220(2)
H3 H -0.3786 0.7361 0.0989
C5 C -0.2800(7) 0.8095(5) -0.0212(2)
H4 H -0.3922 0.7573 -0.0016
C6 C -0.2850(8) 0.8232(5) -0.0864(2)
C7 C -0.1161(8) 0.8958(5) -0.1166(2)
H5 H -0.1171 0.9039 -0.1621
C8 C 0.0495(8) 0.9545(5) -0.0798(2)
H6 H 0.1625 1.0033 -0.1003
C9 C 0.2236(8) 1.0099(5) 0.0256(2)
H7 H 0.3370 1.0573 0.0048
C10 C 0.2268(8) 1.0073(5) 0.0901(2)
H8 H 0.3419 1.0530 0.1137
C11 C -0.1092(7) 0.8629(5) 0.0877(2)
C12 C -0.1126(8) 0.8706(5) 0.0183(2)
C13 C 0.0550(8) 0.9438(5) -0.0126(2)
C14 C 0.0593(8) 0.9366(5) 0.1242(2)
C15 C 0.2351(9) 1.0185(6) 0.2306(2)
H9 H 0.2110 1.0072 0.2765
H10 H 0.2370 1.1326 0.2192
H11 H 0.3691 0.9697 0.2212
C16 C -0.4659(8) 0.7605(6) -0.1279(2)
H12 H -0.5923 0.7605 -0.1032
H13 H -0.4358 0.6508 -0.1417
H14 H -0.4869 0.8295 -0.1657
C17 C 0.5462(8) 0.3662(5) 0.1374(2)
C18 C 0.3913(9) 0.4454(5) 0.1675(2)
H15 H 0.3963 0.4520 0.2130
C19 C 0.2249(9) 0.5173(5) 0.1321(2)
H16 H 0.1206 0.5737 0.1538
C20 C 0.2123(8) 0.5065(5) 0.0666(2)
H17 H 0.0990 0.5561 0.0435
C21 C 0.1796(8) 0.4578(5) -0.0750(2)
H18 H 0.0709 0.5143 -0.0553
C22 C 0.1652(8) 0.4340(5) -0.1402(2)
C23 C 0.3197(8) 0.3429(5) -0.1692(2)
H19 H 0.3076 0.3203 -0.2139
C24 C 0.4876(8) 0.2867(5) -0.1330(2)
H20 H 0.5927 0.2274 -0.1532
C25 C 0.6845(8) 0.2599(5) -0.0290(2)
H21 H 0.7954 0.2097 -0.0500
C26 C 0.6984(8) 0.2774(5) 0.0358(2)
H22 H 0.8165 0.2362 0.0593
C27 C 0.3632(8) 0.4236(5) 0.0326(2)
C28 C 0.3483(7) 0.4021(5) -0.0361(2)
C29 C 0.5068(8) 0.3153(5) -0.0666(2)
C30 C 0.5376(8) 0.3570(5) 0.0694(2)
C31 C 0.7217(9) 0.2888(6) 0.1762(2)
H23 H 0.8541 0.3372 0.1650
H24 H 0.7243 0.1736 0.1670
H25 H 0.7009 0.3053 0.2220
C32 C -0.0101(8) 0.5033(6) -0.1813(2)
H26 H -0.1376 0.5039 -0.1572
H27 H -0.0318 0.4379 -0.2201
H28 H 0.0247 0.6134 -0.1934
loop_
_geom_bond_atom_site_label_1
_geom_bond_atom_site_label_2
_geom_bond_site_symmetry_1
_geom_bond_site_symmetry_2
C1 C2 1_555 1_555
C2 H1 1_555 1_555
C3 C2 1_555 1_555
H2 C3 1_555 1_555
C4 C3 1_555 1_555
H3 C4 1_555 1_555
C5 H4 1_555 1_555
C6 C5 1_555 1_555
C7 C6 1_555 1_555
H5 C7 1_555 1_555
C8 C7 1_555 1_555
H6 C8 1_555 1_555
C9 H7 1_555 1_555
C10 C9 1_555 1_555
H8 C10 1_555 1_555
C11 C4 1_555 1_555
C12 C5 1_555 1_555
C13 C8 1_555 1_555
C14 C1 1_555 1_555
C15 C1 1_555 1_555
H9 C15 1_555 1_555
H10 C15 1_555 1_555
H11 C15 1_555 1_555
C16 C6 1_555 1_555
H12 C16 1_555 1_555
H13 C16 1_555 1_555
H14 C16 1_555 1_555
C17 C18 1_555 1_555
C18 H15 1_555 1_555
C19 C18 1_555 1_555
H16 C19 1_555 1_555
C20 C19 1_555 1_555
H17 C20 1_555 1_555
C21 H18 1_555 1_555
C22 C21 1_555 1_555
C23 C22 1_555 1_555
H19 C23 1_555 1_555
C24 C23 1_555 1_555
H20 C24 1_555 1_555
C25 H21 1_555 1_555
C26 C25 1_555 1_555
H22 C26 1_555 1_555
C27 C20 1_555 1_555
C28 C21 1_555 1_555
C29 C24 1_555 1_555
C30 C17 1_555 1_555
C31 C17 1_555 1_555
H23 C31 1_555 1_555
H24 C31 1_555 1_555
H25 C31 1_555 1_555
C32 C22 1_555 1_555
H26 C32 1_555 1_555
H27 C32 1_555 1_555
H28 C32 1_555 1_555
C9 C13 1_555 1_555
C10 C14 1_555 1_555
C11 C12 1_555 1_555
C11 C14 1_555 1_555
C12 C13 1_555 1_555
C25 C29 1_555 1_555
C26 C30 1_555 1_555
C27 C28 1_555 1_555
C27 C30 1_555 1_555
C28 C29 1_555 1_555

#END
