
#######################################################################
#
#                 Cambridge Crystallographic Data Centre
#                                CCDC 
#
#######################################################################
#
# If this CIF has been generated from an entry in the Cambridge 
# Structural Database, then it will include bibliographic, chemical, 
# crystal, experimental, refinement or atomic coordinate data resulting 
# from the CCDC's data processing and validation procedures.
#
#######################################################################

data_LONBEX
_chemical_formula_moiety         'C16 H14'
_chemical_name_systematic        1,8-dimethylphenanthrene
_symmetry_cell_setting           monoclinic
_symmetry_space_group_name_H-M   'P 21/c'
_symmetry_Int_Tables_number      14
_space_group_name_Hall           '-P 2ybc'
loop_
_symmetry_equiv_pos_site_id
_symmetry_equiv_pos_as_xyz
1 x,y,z
2 -x,1/2+y,1/2-z
3 -x,-y,-z
4 x,1/2-y,1/2+z
_cell_length_a                   8.6543(9)
_cell_length_b                   6.0367(6)
_cell_length_c                   20.9744(18)
_cell_angle_alpha                90
_cell_angle_beta                 100.672(7)
_cell_angle_gamma                90
_cell_volume                     1076.82
_exptl_crystal_colour            colorless
_exptl_crystal_description       plate
_cell_formula_units_Z            4
loop_
_atom_site_label
_atom_site_type_symbol
_atom_site_fract_x
_atom_site_fract_y
_atom_site_fract_z
C1 C 0.34221(19) 0.4668(3) 0.36188(7)
C2 C 0.2788(2) 0.3027(3) 0.39478(7)
H1 H 0.3006 0.3018 0.4409
C3 C 0.1829(2) 0.1378(3) 0.36153(8)
H2 H 0.1395 0.0273 0.3852
C4 C 0.15079(19) 0.1337(3) 0.29492(8)
H3 H 0.0865 0.0195 0.2729
C5 C 0.0827(2) 0.1368(3) 0.15175(8)
H4 H 0.0396 0.0211 0.1737
C6 C 0.0512(2) 0.1446(3) 0.08508(8)
H5 H -0.0155 0.0361 0.0614
C7 C 0.1166(2) 0.3113(3) 0.05182(7)
H6 H 0.0950 0.3128 0.0057
C8 C 0.2111(2) 0.4722(3) 0.08466(7)
C9 C 0.3391(2) 0.6359(3) 0.19042(8)
H7 H 0.3823 0.7501 0.1679
C10 C 0.3704(2) 0.6354(3) 0.25612(8)
H8 H 0.4351 0.7483 0.2786
C11 C 0.21285(19) 0.2984(3) 0.25879(7)
C12 C 0.17879(19) 0.2992(3) 0.18782(7)
C13 C 0.30761(19) 0.4673(3) 0.29248(7)
C14 C 0.24310(19) 0.4702(3) 0.15385(7)
C15 C 0.4479(2) 0.6402(3) 0.39861(8)
H9 H 0.4550 0.6173 0.4453
H10 H 0.4045 0.7876 0.3867
H11 H 0.5529 0.6287 0.3877
C16 C 0.2843(2) 0.6455(3) 0.04748(8)
H12 H 0.2508 0.6204 0.0008
H13 H 0.3991 0.6354 0.0589
H14 H 0.2504 0.7931 0.0587
loop_
_geom_bond_atom_site_label_1
_geom_bond_atom_site_label_2
_geom_bond_site_symmetry_1
_geom_bond_site_symmetry_2
C1 C2 1_555 1_555
C2 H1 1_555 1_555
C3 C2 1_555 1_555
H2 C3 1_555 1_555
C4 C3 1_555 1_555
H3 C4 1_555 1_555
C5 H4 1_555 1_555
C6 C5 1_555 1_555
H5 C6 1_555 1_555
C7 C6 1_555 1_555
H6 C7 1_555 1_555
C8 C7 1_555 1_555
C9 H7 1_555 1_555
C10 C9 1_555 1_555
H8 C10 1_555 1_555
C11 C4 1_555 1_555
C12 C5 1_555 1_555
C13 C1 1_555 1_555
C14 C8 1_555 1_555
C15 C1 1_555 1_555
H9 C15 1_555 1_555
H10 C15 1_555 1_555
H11 C15 1_555 1_555
C16 C8 1_555 1_555
H12 C16 1_555 1_555
H13 C16 1_555 1_555
H14 C16 1_555 1_555
C9 C14 1_555 1_555
C10 C13 1_555 1_555
C11 C12 1_555 1_555
C11 C13 1_555 1_555
C12 C14 1_555 1_555

#END
