
#######################################################################
#
#                 Cambridge Crystallographic Data Centre
#                                CCDC 
#
#######################################################################
#
# If this CIF has been generated from an entry in the Cambridge 
# Structural Database, then it will include bibliographic, chemical, 
# crystal, experimental, refinement or atomic coordinate data resulting 
# from the CCDC's data processing and validation procedures.
#
#######################################################################

data_LONDAT
_chemical_name_common            
1$2!-Amino-1$5!-methyl-1(1,3)benzenacyclotetradecaphane-2,14-dione
_chemical_formula_moiety         'C20 H29 N1 O2'
_chemical_name_systematic        
18-Amino-16-methyl-(13)metacyclophane-2,13-dione
_symmetry_cell_setting           monoclinic
_symmetry_space_group_name_H-M   'P 21/n'
_symmetry_Int_Tables_number      14
_space_group_name_Hall           '-P 2yn'
loop_
_symmetry_equiv_pos_site_id
_symmetry_equiv_pos_as_xyz
1 x,y,z
2 1/2+x,1/2-y,1/2+z
3 -x,-y,-z
4 1/2-x,1/2+y,1/2-z
_cell_length_a                   10.496(3)
_cell_length_b                   8.523(2)
_cell_length_c                   20.899(2)
_cell_angle_alpha                90
_cell_angle_beta                 103.48(1)
_cell_angle_gamma                90
_cell_volume                     1818.07
_exptl_crystal_colour            'pale yellow'
_exptl_crystal_description       prism
_cell_formula_units_Z            4
_exptl_crystal_recrystallization_method cyclohexane
loop_
_atom_site_label
_atom_site_type_symbol
_atom_site_fract_x
_atom_site_fract_y
_atom_site_fract_z
O1 O 0.6040(1) 0.4877(2) 0.28066(6)
O2 O 0.2799(1) 0.3638(2) 0.05095(7)
N1 N 0.4418(2) 0.4012(2) 0.16787(9)
C1 C 0.6281(2) 0.6081(2) 0.25266(9)
C2 C 0.6927(2) 0.7457(3) 0.2937(1)
C3 C 0.6060(2) 0.8934(2) 0.2849(1)
C4 C 0.4699(2) 0.8655(2) 0.2969(1)
C5 C 0.3806(2) 1.0092(3) 0.2811(1)
C6 C 0.3244(2) 1.0400(2) 0.2079(1)
C7 C 0.2278(2) 0.9162(2) 0.1733(1)
C8 C 0.1459(2) 0.9678(2) 0.1065(1)
C9 C 0.0455(2) 0.8465(3) 0.0727(1)
C10 C 0.1033(2) 0.6982(3) 0.0500(1)
C11 C 0.1757(2) 0.7260(3) -0.00460(9)
C12 C 0.2370(2) 0.5752(3) -0.02500(9)
C13 C 0.3185(2) 0.4906(2) 0.03457(9)
C14 C 0.4367(2) 0.5699(2) 0.07417(8)
C15 C 0.4950(2) 0.6934(2) 0.04724(9)
C16 C 0.6005(2) 0.7794(2) 0.08271(8)
C17 C 0.6424(2) 0.7449(2) 0.14923(9)
C18 C 0.5875(2) 0.6258(2) 0.18013(8)
C19 C 0.4884(2) 0.5274(2) 0.14146(8)
C20 C 0.6645(2) 0.9074(3) 0.0513(1)
H1 H 0.461(1) 0.719(2) 0.0014(8)
H2 H 0.713(2) 0.808(2) 0.1767(8)
H3 H 0.778(2) 0.770(2) 0.2836(8)
H4 H 0.711(2) 0.709(2) 0.3392(9)
H5 H 0.652(2) 0.976(2) 0.3170(9)
H6 H 0.598(2) 0.939(2) 0.2396(9)
H7 H 0.428(2) 0.779(2) 0.2698(8)
H8 H 0.483(2) 0.834(2) 0.3449(9)
H9 H 0.430(2) 1.106(2) 0.3020(9)
H10 H 0.303(2) 0.997(2) 0.3013(8)
H11 H 0.396(2) 1.053(2) 0.1842(8)
H12 H 0.277(2) 1.143(2) 0.2027(9)
H13 H 0.165(2) 0.888(2) 0.2028(9)
H14 H 0.273(2) 0.816(2) 0.1686(9)
H15 H 0.208(2) 0.999(2) 0.0777(9)
H16 H 0.099(2) 1.067(2) 0.114(1)
H17 H -0.016(2) 0.895(2) 0.0335(9)
H18 H -0.013(2) 0.818(2) 0.104(1)
H19 H 0.035(2) 0.621(2) 0.035(1)
H20 H 0.165(2) 0.646(2) 0.0888(9)
H21 H 0.244(2) 0.809(2) 0.0106(8)
H22 H 0.111(2) 0.766(2) -0.0453(9)
H23 H 0.167(2) 0.497(2) -0.0479(8)
H24 H 0.287(2) 0.598(2) -0.0576(9)
H25 H 0.378(2) 0.345(2) 0.141(1)
H26 H 0.473(2) 0.381(3) 0.213(1)
H27 H 0.746(2) 0.939(3) 0.076(1)
H28 H 0.652(3) 0.899(3) 0.008(1)
H29 H 0.621(3) 1.011(4) 0.056(1)
loop_
_geom_bond_atom_site_label_1
_geom_bond_atom_site_label_2
_geom_bond_site_symmetry_1
_geom_bond_site_symmetry_2
O1 C1 1_555 1_555
O2 C13 1_555 1_555
N1 C19 1_555 1_555
C1 C2 1_555 1_555
C2 C3 1_555 1_555
C3 C4 1_555 1_555
C4 C5 1_555 1_555
C5 C6 1_555 1_555
C6 C7 1_555 1_555
C7 C8 1_555 1_555
C8 C9 1_555 1_555
C9 C10 1_555 1_555
C10 C11 1_555 1_555
C11 C12 1_555 1_555
C12 C13 1_555 1_555
C13 C14 1_555 1_555
C14 C15 1_555 1_555
C15 C16 1_555 1_555
C16 C17 1_555 1_555
C17 C18 1_555 1_555
C18 C1 1_555 1_555
C19 C14 1_555 1_555
C20 C16 1_555 1_555
H1 C15 1_555 1_555
H2 C17 1_555 1_555
H3 C2 1_555 1_555
H4 C2 1_555 1_555
H5 C3 1_555 1_555
H6 C3 1_555 1_555
H7 C4 1_555 1_555
H8 C4 1_555 1_555
H9 C5 1_555 1_555
H10 C5 1_555 1_555
H11 C6 1_555 1_555
H12 C6 1_555 1_555
H13 C7 1_555 1_555
H14 C7 1_555 1_555
H15 C8 1_555 1_555
H16 C8 1_555 1_555
H17 C9 1_555 1_555
H18 C9 1_555 1_555
H19 C10 1_555 1_555
H20 C10 1_555 1_555
H21 C11 1_555 1_555
H22 C11 1_555 1_555
H23 C12 1_555 1_555
H24 C12 1_555 1_555
H25 N1 1_555 1_555
H26 N1 1_555 1_555
H27 C20 1_555 1_555
H28 C20 1_555 1_555
H29 C20 1_555 1_555
C18 C19 1_555 1_555

#END
