
#######################################################################
#
#                 Cambridge Crystallographic Data Centre
#                                CCDC 
#
#######################################################################
#
# If this CIF has been generated from an entry in the Cambridge 
# Structural Database, then it will include bibliographic, chemical, 
# crystal, experimental, refinement or atomic coordinate data resulting 
# from the CCDC's data processing and validation procedures.
#
#######################################################################

data_LONFEZ
_chemical_formula_moiety         'C72 H76 O4 Si2'
_chemical_name_systematic        
(E)-1,6-bis((R)-2,2'-Dimethoxy-1,1'-binaphthalen-3-yl)-3,4-bis((tri-isopropylsilyl)ethynyl)hex-3-en-1,5-diyne
_symmetry_cell_setting           monoclinic
_symmetry_space_group_name_H-M   'P 21'
_symmetry_Int_Tables_number      4
_space_group_name_Hall           'P 2yb'
loop_
_symmetry_equiv_pos_site_id
_symmetry_equiv_pos_as_xyz
1 x,y,z
2 -x,1/2+y,-z
_cell_length_a                   8.922(10)
_cell_length_b                   25.944(37)
_cell_length_c                   13.557(17)
_cell_angle_alpha                90
_cell_angle_beta                 95.20(9)
_cell_angle_gamma                90
_cell_volume                     3125.16
_exptl_crystal_colour            colorless
_exptl_crystal_description       prism
_chemical_melting_point          261deg.C
_cell_formula_units_Z            2
_exptl_crystal_recrystallization_method 'ethyl acetate'
loop_
_atom_site_label
_atom_site_type_symbol
_atom_site_fract_x
_atom_site_fract_y
_atom_site_fract_z
O1 O 0.6925(5) 0.7152(2) -0.3333(3)
O2 O 0.6125(5) 0.7450(2) -0.5728(4)
O3 O 0.7919(5) 0.9219(2) 0.3296(3)
O4 O 1.0416(7) 1.0165(2) 0.4133(4)
Si1 Si 1.1250(2) 0.67596(9) 0.02720(15)
Si2 Si 0.3299(2) 0.93585(8) 0.01841(15)
C1 C 0.7428(7) 0.7874(3) -0.0217(4)
C2 C 0.6447(8) 0.7799(3) -0.1103(6)
C3 C 0.5669(8) 0.7697(2) -0.1853(5)
C4 C 0.4780(7) 0.7551(2) -0.2709(4)
C5 C 0.3273(8) 0.7674(3) -0.2863(5)
H1 H 0.2843(8) 0.7899(3) -0.2402(5)
C6 C 0.2354(6) 0.7489(3) -0.3653(4)
C7 C 0.0773(8) 0.7597(3) -0.3768(6)
H2 H 0.0342(8) 0.7809(3) -0.3287(6)
C8 C -0.0102(8) 0.7405(4) -0.4531(6)
H3 H -0.1157(8) 0.7484(4) -0.4606(6)
C9 C 0.0514(8) 0.7085(4) -0.5227(6)
H4 H -0.0135(8) 0.6945(4) -0.5765(6)
C10 C 0.2009(7) 0.6974(3) -0.5157(5)
H5 H 0.2417(7) 0.6758(3) -0.5642(5)
C11 C 0.2978(7) 0.7173(3) -0.4363(4)
C12 C 0.4544(7) 0.7050(2) -0.4241(4)
C13 C 0.5404(7) 0.7239(3) -0.3432(4)
C14 C 0.5237(7) 0.6716(3) -0.4979(5)
C15 C 0.5993(8) 0.6916(3) -0.5727(5)
C16 C 0.6615(9) 0.6603(4) -0.6428(6)
H6 H 0.7161(9) 0.6755(4) -0.6931(6)
C17 C 0.6421(10) 0.6077(5) -0.6380(6)
H7 H 0.6804(10) 0.5862(5) -0.6876(6)
C18 C 0.5665(10) 0.5848(3) -0.5616(6)
C19 C 0.5537(14) 0.5306(4) -0.5542(9)
H8 H 0.5941(14) 0.5085(4) -0.6020(9)
C20 C 0.4846(16) 0.5101(5) -0.4826(11)
H9 H 0.4788(16) 0.4733(5) -0.4777(11)
C21 C 0.4193(13) 0.5402(4) -0.4122(9)
H10 H 0.3668(13) 0.5240(4) -0.3617(9)
C22 C 0.4321(10) 0.5933(3) -0.4158(6)
H11 H 0.3884(10) 0.6144(3) -0.3677(6)
C23 C 0.5088(8) 0.6168(3) -0.4920(5)
C24 C 0.6794(10) 0.7701(4) -0.6510(7)
H12 H 0.6717(71) 0.8068(4) -0.6432(30)
H13 H 0.6283(53) 0.7601(21) -0.7134(7)
H14 H 0.7836(23) 0.7606(22) -0.6492(33)
C25 C 0.7369(11) 0.6734(4) -0.2689(8)
H15 H 0.8448(11) 0.6720(20) -0.2592(49)
H16 H 0.6991(79) 0.6417(6) -0.2979(29)
H17 H 0.6968(78) 0.6785(17) -0.2063(22)
C26 C 0.7154(7) 0.8254(3) 0.0449(5)
C27 C 0.8119(8) 0.8327(3) 0.1304(5)
C28 C 0.8881(8) 0.8438(3) 0.2060(6)
C29 C 0.9769(7) 0.8582(3) 0.2967(4)
C30 C 1.1141(8) 0.8345(3) 0.3221(5)
H18 H 1.1483(8) 0.8076(3) 0.2810(5)
C31 C 1.2041(7) 0.8499(3) 0.4085(5)
C32 C 1.3453(8) 0.8280(3) 0.4327(5)
H19 H 1.3798(8) 0.8012(3) 0.3914(5)
C33 C 1.4335(9) 0.8438(3) 0.5155(6)
H20 H 1.5318(9) 0.8294(3) 0.5317(6)
C34 C 1.3766(10) 0.8820(3) 0.5754(6)
H21 H 1.4375(10) 0.8929(3) 0.6337(6)
C35 C 1.2436(8) 0.9036(3) 0.5545(5)
H22 H 1.2101(8) 0.9295(3) 0.5982(5)
C36 C 1.1486(7) 0.8893(3) 0.4689(4)
C37 C 1.0099(8) 0.9127(2) 0.4431(5)
C38 C 0.9268(7) 0.8985(3) 0.3565(4)
C39 C 0.9500(7) 0.9517(3) 0.5096(5)
C40 C 0.9708(9) 1.0036(3) 0.4950(6)
C41 C 0.9239(12) 1.0403(3) 0.5639(7)
H23 H 0.9388(12) 1.0764(3) 0.5531(7)
C42 C 0.8570(12) 1.0240(4) 0.6414(8)
H24 H 0.8264(12) 1.0495(4) 0.6869(8)
C43 C 0.8317(9) 0.9718(4) 0.6622(5)
C44 C 0.7597(11) 0.9546(5) 0.7453(6)
H25 H 0.7257(11) 0.9796(5) 0.7906(6)
C45 C 0.7393(10) 0.9033(5) 0.7599(7)
H26 H 0.6963(10) 0.8927(5) 0.8191(7)
C46 C 0.7827(9) 0.8671(4) 0.6930(7)
H27 H 0.7627(9) 0.8313(4) 0.7036(7)
C47 C 0.8511(8) 0.8828(3) 0.6118(5)
H28 H 0.8813(8) 0.8577(3) 0.5656(5)
C48 C 0.8781(7) 0.9349(3) 0.5932(5)
C49 C 1.0674(14) 1.0689(4) 0.3957(8)
H29 H 1.1272(76) 1.0723(4) 0.3407(38)
H30 H 1.1198(79) 1.0840(8) 0.4535(22)
H31 H 0.9729(14) 1.0861(7) 0.3809(58)
C50 C 0.7952(12) 0.9560(4) 0.2465(8)
H32 H 0.6964(22) 0.9698(24) 0.2296(38)
H33 H 0.8271(87) 0.9373(8) 0.1909(19)
H34 H 0.8643(68) 0.9836(17) 0.2633(21)
C51 C 0.8683(8) 0.7540(3) -0.0052(5)
C52 C 0.9736(9) 0.7238(3) 0.0060(5)
C53 C 1.0784(14) 0.6336(5) 0.1334(8)
H35 H 1.1538(14) 0.6072(5) 0.1436(8)
C54 C 0.9280(20) 0.6098(9) 0.1209(15)
H36 H 0.9332(51) 0.5754(31) 0.147(15)
H37 H 0.893(11) 0.6088(79) 0.0518(19)
H38 H 0.8593(59) 0.6298(48) 0.156(14)
C55 C 1.0774(20) 0.6623(6) 0.2282(9)
H39 H 1.037(17) 0.6408(23) 0.2767(35)
H40 H 1.017(15) 0.6927(33) 0.2179(27)
H41 H 1.1784(28) 0.6720(53) 0.2512(61)
C56 C 1.3067(11) 0.7106(4) 0.0430(8)
H42 H 1.3157(11) 0.7274(4) -0.0192(8)
C57 C 1.3105(12) 0.7559(5) 0.1218(8)
H43 H 1.4038(43) 0.7743(21) 0.1216(45)
H44 H 1.3019(95) 0.7418(5) 0.1865(12)
H45 H 1.2281(58) 0.7790(18) 0.1050(36)
C58 C 1.4455(14) 0.6773(7) 0.0578(15)
H46 H 1.5323(26) 0.6987(8) 0.073(13)
H47 H 1.457(11) 0.6580(52) -0.0015(46)
H48 H 1.4359(86) 0.6540(46) 0.1118(85)
C59 C 1.1132(13) 0.6332(4) -0.0877(8)
H49 H 1.0087(13) 0.6249(4) -0.1020(8)
C60 C 1.1968(20) 0.5825(6) -0.0775(12)
H50 H 1.180(14) 0.5634(26) -0.1382(40)
H51 H 1.161(12) 0.5628(25) -0.0245(74)
H52 H 1.3025(27) 0.5889(6) -0.063(11)
C61 C 1.1592(13) 0.6618(5) -0.1742(7)
H53 H 1.1680(93) 0.6384(7) -0.2281(21)
H54 H 1.2546(48) 0.6782(28) -0.1570(20)
H55 H 1.0850(50) 0.6876(22) -0.1936(40)
C62 C 0.5902(8) 0.8596(3) 0.0278(4)
C63 C 0.4864(9) 0.8894(3) 0.0205(5)
C64 C 0.3530(13) 0.9695(5) 0.1426(8)
H56 H 0.4542(13) 0.9825(5) 0.1491(8)
C65 C 0.3446(17) 0.9331(7) 0.2250(8)
H57 H 0.342(15) 0.9519(7) 0.2859(15)
H58 H 0.4311(73) 0.9110(32) 0.2292(59)
H59 H 0.2549(74) 0.9127(35) 0.2138(47)
C66 C 0.2589(21) 1.0172(8) 0.1516(13)
H60 H 0.288(15) 1.0338(41) 0.2137(62)
H61 H 0.1545(27) 1.0078(11) 0.149(14)
H62 H 0.275(16) 1.0404(32) 0.0983(80)
C67 C 0.1471(10) 0.8974(4) 0.0031(8)
H63 H 0.1389(10) 0.8795(4) 0.0643(8)
C68 C 0.0101(11) 0.9339(6) -0.0136(12)
H64 H -0.0810(12) 0.9141(7) -0.0174(87)
H65 H 0.0157(69) 0.9526(33) -0.0742(44)
H66 H 0.0107(72) 0.9578(29) 0.0406(43)
C69 C 0.1438(13) 0.8570(4) -0.0775(8)
H67 H 0.0570(54) 0.8354(21) -0.0741(41)
H68 H 0.2333(48) 0.8363(22) -0.0684(39)
H69 H 0.139(10) 0.8735(4) -0.1410(9)
C70 C 0.3486(12) 0.9835(4) -0.0809(9)
H70 H 0.2716(12) 1.0089(4) -0.0754(9)
C71 C 0.3270(18) 0.9588(7) -0.1839(8)
H71 H 0.270(15) 0.9817(28) -0.2287(29)
H72 H 0.274(16) 0.9269(31) -0.1801(23)
H73 H 0.4236(18) 0.9524(56) -0.2075(51)
C72 C 0.4999(16) 1.0117(5) -0.0626(11)
H74 H 0.5087(57) 1.0367(31) -0.1140(47)
H75 H 0.5806(16) 0.9872(8) -0.0628(84)
H76 H 0.5049(55) 1.0288(36) 0.0004(39)
loop_
_geom_bond_atom_site_label_1
_geom_bond_atom_site_label_2
_geom_bond_site_symmetry_1
_geom_bond_site_symmetry_2
O1 C13 1_555 1_555
O2 C15 1_555 1_555
O3 C38 1_555 1_555
O4 C40 1_555 1_555
Si1 C52 1_555 1_555
Si2 C63 1_555 1_555
C1 C2 1_555 1_555
C2 C3 1_555 1_555
C3 C4 1_555 1_555
C4 C5 1_555 1_555
C5 H1 1_555 1_555
C6 C5 1_555 1_555
C7 C6 1_555 1_555
H2 C7 1_555 1_555
C8 C7 1_555 1_555
H3 C8 1_555 1_555
C9 C8 1_555 1_555
H4 C9 1_555 1_555
C10 C9 1_555 1_555
H5 C10 1_555 1_555
C11 C6 1_555 1_555
C12 C11 1_555 1_555
C13 C4 1_555 1_555
C14 C12 1_555 1_555
C15 C14 1_555 1_555
C16 C15 1_555 1_555
H6 C16 1_555 1_555
C17 C16 1_555 1_555
H7 C17 1_555 1_555
C18 C17 1_555 1_555
C19 C18 1_555 1_555
H8 C19 1_555 1_555
C20 C19 1_555 1_555
H9 C20 1_555 1_555
C21 C20 1_555 1_555
H10 C21 1_555 1_555
C22 C21 1_555 1_555
H11 C22 1_555 1_555
C23 C14 1_555 1_555
C24 O2 1_555 1_555
H12 C24 1_555 1_555
H13 C24 1_555 1_555
H14 C24 1_555 1_555
C25 O1 1_555 1_555
H15 C25 1_555 1_555
H16 C25 1_555 1_555
H17 C25 1_555 1_555
C26 C1 1_555 1_555
C27 C26 1_555 1_555
C28 C27 1_555 1_555
C29 C28 1_555 1_555
C30 C29 1_555 1_555
H18 C30 1_555 1_555
C31 C30 1_555 1_555
C32 C31 1_555 1_555
H19 C32 1_555 1_555
C33 C32 1_555 1_555
H20 C33 1_555 1_555
C34 C33 1_555 1_555
H21 C34 1_555 1_555
C35 C34 1_555 1_555
H22 C35 1_555 1_555
C36 C31 1_555 1_555
C37 C36 1_555 1_555
C38 C29 1_555 1_555
C39 C37 1_555 1_555
C40 C39 1_555 1_555
C41 C40 1_555 1_555
H23 C41 1_555 1_555
C42 C41 1_555 1_555
H24 C42 1_555 1_555
C43 C42 1_555 1_555
C44 C43 1_555 1_555
H25 C44 1_555 1_555
C45 C44 1_555 1_555
H26 C45 1_555 1_555
C46 C45 1_555 1_555
H27 C46 1_555 1_555
C47 C46 1_555 1_555
H28 C47 1_555 1_555
C48 C39 1_555 1_555
C49 O4 1_555 1_555
H29 C49 1_555 1_555
H30 C49 1_555 1_555
H31 C49 1_555 1_555
C50 O3 1_555 1_555
H32 C50 1_555 1_555
H33 C50 1_555 1_555
H34 C50 1_555 1_555
C51 C1 1_555 1_555
C52 C51 1_555 1_555
C53 Si1 1_555 1_555
H35 C53 1_555 1_555
C54 C53 1_555 1_555
H36 C54 1_555 1_555
H37 C54 1_555 1_555
H38 C54 1_555 1_555
C55 C53 1_555 1_555
H39 C55 1_555 1_555
H40 C55 1_555 1_555
H41 C55 1_555 1_555
C56 Si1 1_555 1_555
H42 C56 1_555 1_555
C57 C56 1_555 1_555
H43 C57 1_555 1_555
H44 C57 1_555 1_555
H45 C57 1_555 1_555
C58 C56 1_555 1_555
H46 C58 1_555 1_555
H47 C58 1_555 1_555
H48 C58 1_555 1_555
C59 Si1 1_555 1_555
H49 C59 1_555 1_555
C60 C59 1_555 1_555
H50 C60 1_555 1_555
H51 C60 1_555 1_555
H52 C60 1_555 1_555
C61 C59 1_555 1_555
H53 C61 1_555 1_555
H54 C61 1_555 1_555
H55 C61 1_555 1_555
C62 C26 1_555 1_555
C63 C62 1_555 1_555
C64 Si2 1_555 1_555
H56 C64 1_555 1_555
C65 C64 1_555 1_555
H57 C65 1_555 1_555
H58 C65 1_555 1_555
H59 C65 1_555 1_555
C66 C64 1_555 1_555
H60 C66 1_555 1_555
H61 C66 1_555 1_555
H62 C66 1_555 1_555
C67 Si2 1_555 1_555
H63 C67 1_555 1_555
C68 C67 1_555 1_555
H64 C68 1_555 1_555
H65 C68 1_555 1_555
H66 C68 1_555 1_555
C69 C67 1_555 1_555
H67 C69 1_555 1_555
H68 C69 1_555 1_555
H69 C69 1_555 1_555
C70 Si2 1_555 1_555
H70 C70 1_555 1_555
C71 C70 1_555 1_555
H71 C71 1_555 1_555
H72 C71 1_555 1_555
H73 C71 1_555 1_555
C72 C70 1_555 1_555
H74 C72 1_555 1_555
H75 C72 1_555 1_555
H76 C72 1_555 1_555
C10 C11 1_555 1_555
C12 C13 1_555 1_555
C18 C23 1_555 1_555
C22 C23 1_555 1_555
C35 C36 1_555 1_555
C37 C38 1_555 1_555
C43 C48 1_555 1_555
C47 C48 1_555 1_555

#END
