
#######################################################################
#
#                 Cambridge Crystallographic Data Centre
#                                CCDC 
#
#######################################################################
#
# If this CIF has been generated from an entry in the Cambridge 
# Structural Database, then it will include bibliographic, chemical, 
# crystal, experimental, refinement or atomic coordinate data resulting 
# from the CCDC's data processing and validation procedures.
#
#######################################################################

data_LONYEU
_chemical_compound_source        'marine-derived Streptomyces sp. SCSIO 03032'
_chemical_name_common            'Indimicin A'
_chemical_formula_moiety         'C23 H19 Cl2 N3'
_chemical_name_systematic        
3,9-dichloro-4b,6,13-trimethyl-6,12,12b,13-tetrahydro-4bH-indolo[2,3-a]pyrrolo[3,4-c]carbazole
_symmetry_cell_setting           monoclinic
_symmetry_space_group_name_H-M   'P 21'
_symmetry_Int_Tables_number      4
_space_group_name_Hall           'P 2yb'
loop_
_symmetry_equiv_pos_site_id
_symmetry_equiv_pos_as_xyz
1 x,y,z
2 -x,1/2+y,-z
_cell_length_a                   9.5701(4)
_cell_length_b                   7.9131(3)
_cell_length_c                   13.6352(6)
_cell_angle_alpha                90
_cell_angle_beta                 108.404(5)
_cell_angle_gamma                90
_cell_volume                     979.77
_exptl_crystal_colour            colorless
_exptl_crystal_description       plate
_chemical_melting_point          '254 deg.C'
_cell_formula_units_Z            2
_chemical_properties_physical    air-sensitive
_exptl_crystal_recrystallization_method chloroform/methanol
loop_
_atom_site_label
_atom_site_type_symbol
_atom_site_fract_x
_atom_site_fract_y
_atom_site_fract_z
Cl1 Cl -0.14521(7) 0.81295(11) -0.04242(5)
Cl2 Cl 1.16157(6) 1.10485(9) 0.67894(5)
N1 N 0.5717(2) 1.1578(2) 0.17427(15)
C1 C 0.6574(2) 1.1382(3) 0.27521(17)
H1 H 0.7428 1.2021 0.3099
C2 C 0.5980(2) 1.0095(3) 0.31768(17)
C3 C 0.4705(2) 0.9492(3) 0.23873(17)
C4 C 0.4587(2) 1.0439(3) 0.15259(17)
H2 H 0.3838 1.0323 0.0878
C5 C 0.5968(3) 1.2798(3) 0.10198(19)
H3 H 0.6439 1.3809 0.1397
H4 H 0.5025 1.3110 0.0512
H5 H 0.6611 1.2299 0.0663
N2 N 0.27074(19) 0.9271(2) 0.37271(14)
C6 C 0.3820(2) 0.7989(3) 0.36987(16)
H6 H 0.3497 0.6852 0.3864
C7 C 0.3772(2) 0.8031(3) 0.25471(16)
C8 C 0.2141(2) 0.8372(3) 0.20446(17)
C9 C 0.1223(2) 0.8079(3) 0.10554(17)
H7 H 0.1585 0.7581 0.0550
C10 C -0.0254(3) 0.8534(3) 0.08181(19)
C11 C -0.0811(3) 0.9255(3) 0.1541(2)
H8 H -0.1822 0.9557 0.1354
C12 C 0.0113(2) 0.9537(3) 0.25421(19)
H9 H -0.0258 1.0014 0.3049
C13 C 0.1585(2) 0.9108(3) 0.27841(18)
C14 C 0.2327(3) 0.9462(3) 0.46746(18)
H10 H 0.1763 1.0506 0.4640
H11 H 0.3230 0.9514 0.5267
H12 H 0.1732 0.8494 0.4754
C15 C 0.4293(3) 0.6358(3) 0.22178(19)
H13 H 0.4216 0.6414 0.1485
H14 H 0.3676 0.5434 0.2326
H15 H 0.5320 0.6154 0.2632
N3 N 0.5821(2) 0.7866(2) 0.54515(14)
H16 H 0.542(3) 0.710(3) 0.576(2)
C16 C 0.5314(2) 0.8386(3) 0.44369(16)
C17 C 0.6349(2) 0.9378(3) 0.42122(16)
C18 C 0.7600(2) 0.9457(3) 0.51383(16)
C19 C 0.8987(2) 1.0237(3) 0.54100(18)
H17 H 0.9288 1.0862 0.4917
C20 C 0.9902(3) 1.0068(3) 0.64177(19)
C21 C 0.9499(3) 0.9135(3) 0.71624(19)
H18 H 1.0156 0.9059 0.7849
C22 C 0.8160(3) 0.8331(3) 0.69024(18)
H19 H 0.7885 0.7681 0.7397
C23 C 0.7219(3) 0.8495(3) 0.58967(17)
loop_
_geom_bond_atom_site_label_1
_geom_bond_atom_site_label_2
_geom_bond_site_symmetry_1
_geom_bond_site_symmetry_2
Cl1 C10 1_555 1_555
Cl2 C20 1_555 1_555
N1 C1 1_555 1_555
C1 H1 1_555 1_555
C2 C1 1_555 1_555
C3 C2 1_555 1_555
C4 N1 1_555 1_555
H2 C4 1_555 1_555
C5 N1 1_555 1_555
H3 C5 1_555 1_555
H4 C5 1_555 1_555
H5 C5 1_555 1_555
N2 C6 1_555 1_555
C6 H6 1_555 1_555
C7 C3 1_555 1_555
C8 C7 1_555 1_555
C9 C8 1_555 1_555
H7 C9 1_555 1_555
C10 C9 1_555 1_555
C11 C10 1_555 1_555
H8 C11 1_555 1_555
C12 C11 1_555 1_555
H9 C12 1_555 1_555
C13 N2 1_555 1_555
C14 N2 1_555 1_555
H10 C14 1_555 1_555
H11 C14 1_555 1_555
H12 C14 1_555 1_555
C15 C7 1_555 1_555
H13 C15 1_555 1_555
H14 C15 1_555 1_555
H15 C15 1_555 1_555
N3 H16 1_555 1_555
C16 C6 1_555 1_555
C17 C2 1_555 1_555
C18 C17 1_555 1_555
C19 C18 1_555 1_555
H17 C19 1_555 1_555
C20 C19 1_555 1_555
C21 C20 1_555 1_555
H18 C21 1_555 1_555
C22 C21 1_555 1_555
H19 C22 1_555 1_555
C23 N3 1_555 1_555
C3 C4 1_555 1_555
C6 C7 1_555 1_555
C8 C13 1_555 1_555
C12 C13 1_555 1_555
N3 C16 1_555 1_555
C16 C17 1_555 1_555
C18 C23 1_555 1_555
C22 C23 1_555 1_555

#END
