
#######################################################################
#
#                 Cambridge Crystallographic Data Centre
#                                CCDC 
#
#######################################################################
#
# If this CIF has been generated from an entry in the Cambridge 
# Structural Database, then it will include bibliographic, chemical, 
# crystal, experimental, refinement or atomic coordinate data resulting 
# from the CCDC's data processing and validation procedures.
#
#######################################################################

data_LOPHEF
_chemical_formula_moiety         'C48 H34 N4'
_chemical_name_systematic        
4,4'-Phenazine-1,4-diylbis(N,N-diphenylaniline)
_symmetry_cell_setting           triclinic
_symmetry_space_group_name_H-M   'P -1'
_symmetry_Int_Tables_number      2
_space_group_name_Hall           '-P 1'
loop_
_symmetry_equiv_pos_site_id
_symmetry_equiv_pos_as_xyz
1 x,y,z
2 -x,-y,-z
_cell_length_a                   9.841(5)
_cell_length_b                   10.425(5)
_cell_length_c                   19.350(10)
_cell_angle_alpha                78.097(7)
_cell_angle_beta                 89.125(7)
_cell_angle_gamma                73.819(7)
_cell_volume                     1863.65
_exptl_crystal_colour            yellow
_exptl_crystal_description       block
_cell_formula_units_Z            2
loop_
_atom_site_label
_atom_site_type_symbol
_atom_site_fract_x
_atom_site_fract_y
_atom_site_fract_z
N1 N 0.2203(2) 0.4214(2) 0.01154(10)
N2 N 0.2143(2) 0.2152(2) 0.12879(10)
N3 N 0.0954(2) 0.7160(2) -0.31584(10)
C1 C 0.0826(3) 0.4399(3) -0.12393(12)
C2 C -0.0242(3) 0.4776(3) -0.17624(12)
H1 H -0.1007 0.4413 -0.1687
C3 C 0.0735(3) 0.3420(3) -0.05747(12)
C4 C 0.1389(3) 0.2319(3) 0.06943(12)
C5 C 0.1467(2) 0.3341(3) 0.00820(12)
C6 C 0.0905(2) 0.6240(3) -0.25229(12)
C7 C 0.0443(3) 0.1505(3) 0.06816(12)
C8 C 0.2283(2) 0.7237(3) -0.34353(11)
C9 C -0.0208(2) 0.5672(3) -0.23904(12)
H2 H -0.0943 0.5896 -0.2729
C10 C -0.0296(2) 0.8046(3) -0.35268(12)
N4 N -0.0828(2) -0.2136(2) 0.30681(11)
C11 C 0.1986(3) 0.5871(3) -0.20128(13)
H3 H 0.2749 0.6236 -0.2092
C12 C -0.0086(3) 0.2573(3) -0.05552(13)
H4 H -0.0559 0.2591 -0.0971
C13 C 0.2929(3) 0.3003(3) 0.13061(13)
C14 C 0.2626(3) 0.8463(3) -0.35742(14)
H5 H 0.1977 0.9247 -0.3488
C15 C 0.3245(3) 0.6084(3) -0.35647(13)
H6 H 0.3028 0.5254 -0.3476
C16 C 0.1060(3) -0.2286(3) 0.39122(13)
H7 H 0.0959 -0.1358 0.3756
C17 C 0.1949(3) 0.4963(3) -0.13845(13)
H8 H 0.2696 0.4725 -0.1051
C18 C -0.2206(3) -0.2310(3) 0.31176(13)
C19 C 0.1210(3) -0.0535(3) 0.16987(13)
H9 H 0.2144 -0.0671 0.1568
C20 C -0.1446(3) 0.8635(3) -0.31701(13)
H10 H -0.1400 0.8476 -0.2679
C21 C 0.0175(3) 0.0567(3) 0.13224(13)
C22 C -0.1578(3) 0.9180(3) -0.46203(14)
H11 H -0.1611 0.9383 -0.5112
C23 C 0.2912(3) 0.4083(3) 0.07250(13)
C24 C 0.0211(3) -0.2906(3) 0.36156(12)
C25 C -0.0482(3) -0.1232(3) 0.24885(13)
C26 C 0.0347(3) -0.4273(3) 0.38669(14)
H12 H -0.0232 -0.4691 0.3675
C27 C 0.2054(3) -0.3051(3) 0.44389(13)
H13 H 0.2637 -0.2641 0.4634
C28 C -0.1186(3) 0.0742(3) 0.15470(14)
H14 H -0.1908 0.1466 0.1300
C29 C -0.0263(3) 0.1665(3) 0.00628(14)
H15 H -0.0893 0.1151 0.0045
C30 C 0.2188(3) -0.4411(3) 0.46775(14)
H16 H 0.2866 -0.4922 0.5032
C31 C 0.4543(3) 0.6168(3) -0.38286(14)
H17 H 0.5200 0.5389 -0.3914
C32 C -0.0379(3) 0.8335(3) -0.42575(13)
H18 H 0.0393 0.7948 -0.4504
C33 C 0.0894(3) -0.1437(3) 0.22632(13)
H19 H 0.1608 -0.2187 0.2495
C34 C 0.1330(3) -0.5022(3) 0.43982(15)
H20 H 0.1413 -0.5944 0.4568
C35 C -0.2736(3) 0.9733(3) -0.42665(16)
H21 H -0.3564 1.0288 -0.4515
C36 C -0.2660(3) 0.9459(3) -0.35428(16)
H22 H -0.3443 0.9836 -0.3300
C37 C 0.4860(3) 0.7380(3) -0.39622(15)
H23 H 0.5732 0.7428 -0.4140
C38 C 0.3898(3) 0.8536(3) -0.38357(15)
H24 H 0.4117 0.9365 -0.3929
C39 C -0.2854(3) -0.2357(3) 0.37564(15)
H25 H -0.2378 -0.2299 0.4155
C40 C -0.2925(3) -0.2421(3) 0.25353(15)
H26 H -0.2490 -0.2432 0.2106
C41 C -0.1512(3) -0.0120(3) 0.21263(14)
H27 H -0.2438 0.0051 0.2274
C42 C 0.3713(3) 0.2906(4) 0.19293(15)
H28 H 0.3763 0.2187 0.2312
C43 C -0.4206(3) -0.2489(3) 0.38023(18)
H29 H -0.4631 -0.2538 0.4236
C44 C -0.4929(3) -0.2550(3) 0.3224(2)
H30 H -0.5852 -0.2614 0.3255
C45 C 0.3649(3) 0.5035(4) 0.07874(15)
H31 H 0.3650 0.5739 0.0404
C46 C -0.4278(3) -0.2515(3) 0.25960(19)
H32 H -0.4770 -0.2555 0.2198
C47 C 0.4390(4) 0.3851(5) 0.19735(17)
H33 H 0.4887 0.3784 0.2390
C48 C 0.4353(4) 0.4937(4) 0.13963(17)
H34 H 0.4814 0.5587 0.1436
loop_
_geom_bond_atom_site_label_1
_geom_bond_atom_site_label_2
_geom_bond_site_symmetry_1
_geom_bond_site_symmetry_2
N1 C5 1_555 1_555
N2 C4 1_555 1_555
N3 C6 1_555 1_555
C1 C2 1_555 1_555
C2 H1 1_555 1_555
C3 C1 1_555 1_555
C4 C5 1_555 1_555
C5 C3 1_555 1_555
C6 C9 1_555 1_555
C7 C4 1_555 1_555
C8 N3 1_555 1_555
C9 C2 1_555 1_555
H2 C9 1_555 1_555
C10 N3 1_555 1_555
N4 C18 1_555 1_555
C11 C6 1_555 1_555
H3 C11 1_555 1_555
C12 C3 1_555 1_555
H4 C12 1_555 1_555
C13 N2 1_555 1_555
C14 C8 1_555 1_555
H5 C14 1_555 1_555
C15 C8 1_555 1_555
H6 C15 1_555 1_555
C16 H7 1_555 1_555
C17 C1 1_555 1_555
H8 C17 1_555 1_555
C18 C39 1_555 1_555
C19 H9 1_555 1_555
C20 C10 1_555 1_555
H10 C20 1_555 1_555
C21 C7 1_555 1_555
C22 H11 1_555 1_555
C23 N1 1_555 1_555
C24 N4 1_555 1_555
C25 N4 1_555 1_555
C26 C24 1_555 1_555
H12 C26 1_555 1_555
C27 C16 1_555 1_555
H13 C27 1_555 1_555
C28 C21 1_555 1_555
H14 C28 1_555 1_555
C29 C7 1_555 1_555
H15 C29 1_555 1_555
C30 C27 1_555 1_555
H16 C30 1_555 1_555
C31 C15 1_555 1_555
H17 C31 1_555 1_555
C32 C10 1_555 1_555
H18 C32 1_555 1_555
C33 C19 1_555 1_555
H19 C33 1_555 1_555
C34 C26 1_555 1_555
H20 C34 1_555 1_555
C35 C22 1_555 1_555
H21 C35 1_555 1_555
C36 C20 1_555 1_555
H22 C36 1_555 1_555
C37 C31 1_555 1_555
H23 C37 1_555 1_555
C38 C14 1_555 1_555
H24 C38 1_555 1_555
C39 H25 1_555 1_555
C40 C18 1_555 1_555
H26 C40 1_555 1_555
C41 C25 1_555 1_555
H27 C41 1_555 1_555
C42 C13 1_555 1_555
H28 C42 1_555 1_555
C43 C39 1_555 1_555
H29 C43 1_555 1_555
C44 C43 1_555 1_555
H30 C44 1_555 1_555
C45 C23 1_555 1_555
H31 C45 1_555 1_555
C46 C40 1_555 1_555
H32 C46 1_555 1_555
C47 C42 1_555 1_555
H33 C47 1_555 1_555
C48 C45 1_555 1_555
H34 C48 1_555 1_555
C11 C17 1_555 1_555
C12 C29 1_555 1_555
C13 C23 1_555 1_555
C16 C24 1_555 1_555
C19 C21 1_555 1_555
C22 C32 1_555 1_555
C25 C33 1_555 1_555
C28 C41 1_555 1_555
C30 C34 1_555 1_555
C35 C36 1_555 1_555
C37 C38 1_555 1_555
C44 C46 1_555 1_555
C47 C48 1_555 1_555

#END
