
#######################################################################
#
#                 Cambridge Crystallographic Data Centre
#                                CCDC 
#
#######################################################################
#
# If this CIF has been generated from an entry in the Cambridge 
# Structural Database, then it will include bibliographic, chemical, 
# crystal, experimental, refinement or atomic coordinate data resulting 
# from the CCDC's data processing and validation procedures.
#
#######################################################################

data_LOPKUY
_chemical_formula_moiety         'C11 H16 O3'
_chemical_name_systematic        
10-methoxy-7-methyl-3-oxatricyclo[5.2.1.0^2,6^]decan-4-one
_symmetry_cell_setting           monoclinic
_symmetry_space_group_name_H-M   'P 21/c'
_symmetry_Int_Tables_number      14
_space_group_name_Hall           '-P 2ybc'
loop_
_symmetry_equiv_pos_site_id
_symmetry_equiv_pos_as_xyz
1 x,y,z
2 -x,1/2+y,1/2-z
3 -x,-y,-z
4 x,1/2-y,1/2+z
_cell_length_a                   6.282(15)
_cell_length_b                   25.09(6)
_cell_length_c                   6.268(15)
_cell_angle_alpha                90
_cell_angle_beta                 94.09(3)
_cell_angle_gamma                90
_cell_volume                     985.417
_exptl_crystal_colour            colorless
_exptl_crystal_description       prism
_cell_formula_units_Z            4
loop_
_atom_site_label
_atom_site_type_symbol
_atom_site_fract_x
_atom_site_fract_y
_atom_site_fract_z
O1 O 0.2387(3) 0.50052(8) 1.1372(4)
O2 O 0.1123(3) 0.57825(6) 1.0415(2)
O3 O 0.5700(2) 0.68349(6) 0.8096(2)
C1 C 0.2038(4) 0.53236(9) 1.0007(4)
C2 C 0.2490(4) 0.52869(9) 0.7740(4)
H1 H 0.1700 0.4994 0.7051
H2 H 0.4001 0.5228 0.7608
C3 C 0.1807(3) 0.58071(8) 0.6733(3)
H3 H 0.0770 0.5749 0.5513
C4 C 0.3549(3) 0.61897(8) 0.6140(3)
C5 C 0.2424(4) 0.66589(9) 0.5044(3)
H4 H 0.1388 0.6539 0.3924
H5 H 0.3439 0.6894 0.4425
C6 C 0.1324(4) 0.69396(9) 0.6816(4)
H6 H 0.1818 0.7304 0.6991
H7 H -0.0213 0.6939 0.6527
C7 C 0.1977(3) 0.66095(8) 0.8759(3)
H8 H 0.1887 0.6793 1.0130
C8 C 0.0764(3) 0.60992(8) 0.8542(3)
H9 H -0.0761 0.6161 0.8189
C9 C 0.4205(3) 0.64282(7) 0.8292(3)
H10 H 0.4745 0.6155 0.9309
C10 C 0.6454(4) 0.70488(10) 1.0045(4)
H11 H 0.7466 0.7325 0.9811
H12 H 0.7133 0.6774 1.0916
H13 H 0.5283 0.7195 1.0758
C11 C 0.5319(4) 0.59554(10) 0.4929(3)
H14 H 0.5932 0.5656 0.5704
H15 H 0.6398 0.6221 0.4770
H16 H 0.4751 0.5840 0.3542
loop_
_geom_bond_atom_site_label_1
_geom_bond_atom_site_label_2
_geom_bond_site_symmetry_1
_geom_bond_site_symmetry_2
O1 C1 1_555 1_555
O2 C1 1_555 1_555
O3 C9 1_555 1_555
C1 C2 1_555 1_555
C2 H1 1_555 1_555
H2 C2 1_555 1_555
C3 C2 1_555 1_555
H3 C3 1_555 1_555
C4 C3 1_555 1_555
C5 C4 1_555 1_555
H4 C5 1_555 1_555
H5 C5 1_555 1_555
C6 C5 1_555 1_555
H6 C6 1_555 1_555
H7 C6 1_555 1_555
C7 C6 1_555 1_555
H8 C7 1_555 1_555
C8 O2 1_555 1_555
H9 C8 1_555 1_555
C9 C4 1_555 1_555
H10 C9 1_555 1_555
C10 O3 1_555 1_555
H11 C10 1_555 1_555
H12 C10 1_555 1_555
H13 C10 1_555 1_555
C11 C4 1_555 1_555
H14 C11 1_555 1_555
H15 C11 1_555 1_555
H16 C11 1_555 1_555
C3 C8 1_555 1_555
C7 C8 1_555 1_555
C7 C9 1_555 1_555

#END
