
#######################################################################
#
#                 Cambridge Crystallographic Data Centre
#                                CCDC 
#
#######################################################################
#
# If this CIF has been generated from an entry in the Cambridge 
# Structural Database, then it will include bibliographic, chemical, 
# crystal, experimental, refinement or atomic coordinate data resulting 
# from the CCDC's data processing and validation procedures.
#
#######################################################################

data_LOPLAF
_chemical_formula_moiety         'C17 H21 N1 O4'
_chemical_name_systematic        
'1,3,4-trimethylbicyclo[2.2.1]hept-2-yl 4-nitrobenzoate'
_symmetry_cell_setting           triclinic
_symmetry_space_group_name_H-M   'P -1'
_symmetry_Int_Tables_number      2
_space_group_name_Hall           '-P 1'
loop_
_symmetry_equiv_pos_site_id
_symmetry_equiv_pos_as_xyz
1 x,y,z
2 -x,-y,-z
_cell_length_a                   6.082(3)
_cell_length_b                   11.612(5)
_cell_length_c                   12.591(5)
_cell_angle_alpha                66.576(4)
_cell_angle_beta                 79.752(4)
_cell_angle_gamma                88.139(4)
_cell_volume                     802.209
_exptl_crystal_colour            colorless
_exptl_crystal_description       block
_cell_formula_units_Z            2
loop_
_atom_site_label
_atom_site_type_symbol
_atom_site_fract_x
_atom_site_fract_y
_atom_site_fract_z
N1 N 0.6977(3) 0.86618(15) -0.03252(14)
O1 O -0.0570(2) 0.72422(16) 0.43234(13)
O2 O 0.24065(18) 0.77568(11) 0.48992(9)
O3 O 0.6199(3) 0.84637(19) -0.10623(13)
O4 O 0.8900(3) 0.90250(19) -0.04670(15)
C1 C 0.1239(2) 0.73124(15) 0.61115(13)
H1 H -0.0365 0.7441 0.6126
C2 C 0.1604(3) 0.59154(16) 0.68376(16)
H2 H 0.0126 0.5488 0.7174
C3 C 0.2611(3) 0.59737(18) 0.78592(15)
C4 C 0.4998(3) 0.6556(2) 0.7380(2)
H3 H 0.5747 0.6500 0.8017
H4 H 0.5868 0.6136 0.6926
C5 C 0.4681(3) 0.7924(2) 0.66008(16)
H5 H 0.5346 0.8114 0.5787
H6 H 0.5345 0.8490 0.6862
C6 C 0.2134(3) 0.80296(15) 0.67435(14)
C7 C 0.1393(3) 0.70830(16) 0.80143(14)
H7 H 0.1935 0.7325 0.8579
H8 H -0.0217 0.6932 0.8225
C8 C 0.2935(4) 0.5216(2) 0.6149(2)
H9 H 0.4279 0.5698 0.5687
H10 H 0.2048 0.5096 0.5639
H11 H 0.3315 0.4413 0.6689
C9 C 0.2385(5) 0.4737(2) 0.8935(2)
H12 H 0.2848 0.4868 0.9570
H13 H 0.3311 0.4134 0.8749
H14 H 0.0854 0.4431 0.9164
C10 C 0.1315(4) 0.93526(17) 0.64298(18)
H15 H 0.1901 0.9858 0.5619
H16 H 0.1815 0.9710 0.6919
H17 H -0.0290 0.9327 0.6553
C11 C 0.1350(3) 0.76032(16) 0.41212(15)
C12 C 0.2855(3) 0.79178(15) 0.29601(14)
C13 C 0.4991(3) 0.84340(17) 0.27183(15)
H18 H 0.5528 0.8603 0.3290
C14 C 0.6337(3) 0.87013(18) 0.16388(16)
H19 H 0.7768 0.9062 0.1471
C15 C 0.5514(3) 0.84227(16) 0.08149(14)
C16 C 0.3394(3) 0.7900(2) 0.10338(17)
H20 H 0.2872 0.7717 0.0465
C17 C 0.2070(3) 0.7655(2) 0.21092(17)
H21 H 0.0630 0.7309 0.2269
loop_
_geom_bond_atom_site_label_1
_geom_bond_atom_site_label_2
_geom_bond_site_symmetry_1
_geom_bond_site_symmetry_2
N1 O3 1_555 1_555
O1 C11 1_555 1_555
O2 C1 1_555 1_555
O4 N1 1_555 1_555
C1 H1 1_555 1_555
C2 C1 1_555 1_555
H2 C2 1_555 1_555
C3 C2 1_555 1_555
C4 C3 1_555 1_555
H3 C4 1_555 1_555
H4 C4 1_555 1_555
C5 C4 1_555 1_555
H5 C5 1_555 1_555
H6 C5 1_555 1_555
C6 C1 1_555 1_555
C7 C3 1_555 1_555
H7 C7 1_555 1_555
H8 C7 1_555 1_555
C8 C2 1_555 1_555
H9 C8 1_555 1_555
H10 C8 1_555 1_555
H11 C8 1_555 1_555
C9 C3 1_555 1_555
H12 C9 1_555 1_555
H13 C9 1_555 1_555
H14 C9 1_555 1_555
C10 C6 1_555 1_555
H15 C10 1_555 1_555
H16 C10 1_555 1_555
H17 C10 1_555 1_555
C11 O2 1_555 1_555
C12 C11 1_555 1_555
C13 C12 1_555 1_555
H18 C13 1_555 1_555
C14 C13 1_555 1_555
H19 C14 1_555 1_555
C15 N1 1_555 1_555
C16 C15 1_555 1_555
H20 C16 1_555 1_555
C17 C12 1_555 1_555
H21 C17 1_555 1_555
C5 C6 1_555 1_555
C6 C7 1_555 1_555
C14 C15 1_555 1_555
C16 C17 1_555 1_555

#END
