
#######################################################################
#
#                 Cambridge Crystallographic Data Centre
#                                CCDC 
#
#######################################################################
#
# If this CIF has been generated from an entry in the Cambridge 
# Structural Database, then it will include bibliographic, chemical, 
# crystal, experimental, refinement or atomic coordinate data resulting 
# from the CCDC's data processing and validation procedures.
#
#######################################################################

data_LOPMEK
_chemical_formula_moiety         'C22 H21 N1 O5'
_chemical_name_systematic        
'diethyl 3-(2-methylbenzoyl)indolizine-1,2-dicarboxylate'
_symmetry_cell_setting           monoclinic
_symmetry_space_group_name_H-M   'P 21/n'
_symmetry_Int_Tables_number      14
_space_group_name_Hall           '-P 2yn'
loop_
_symmetry_equiv_pos_site_id
_symmetry_equiv_pos_as_xyz
1 x,y,z
2 1/2-x,1/2+y,1/2-z
3 -x,-y,-z
4 1/2+x,1/2-y,1/2+z
_cell_length_a                   9.7885(10)
_cell_length_b                   7.6195(8)
_cell_length_c                   26.413(3)
_cell_angle_alpha                90
_cell_angle_beta                 99.543(3)
_cell_angle_gamma                90
_cell_volume                     1942.71
_cell_formula_units_Z            4
loop_
_atom_site_label
_atom_site_type_symbol
_atom_site_fract_x
_atom_site_fract_y
_atom_site_fract_z
N1 N 0.32486(16) 0.5811(2) 0.03651(6)
O1 O 0.56085(17) 0.2715(2) 0.16465(6)
O2 O 0.73492(16) 0.7502(2) 0.07911(7)
C1 C 0.4553(2) 0.6581(3) 0.04082(8)
O3 O 0.08053(16) 0.4260(3) 0.06555(8)
C2 C 0.5327(2) 0.6012(3) 0.08757(8)
C3 C 0.3202(2) 0.4739(3) 0.07906(8)
C4 C 0.4819(2) 0.7679(3) 0.00107(9)
H1 H 0.5677 0.8222 0.0031
O4 O 0.73022(19) 0.6050(3) 0.15223(7)
C5 C 0.4482(2) 0.4878(3) 0.11039(8)
C6 C 0.3820(2) 0.7948(3) -0.04042(9)
H2 H 0.3996 0.8679 -0.0668
O5 O 0.4404(2) 0.4741(3) 0.19866(7)
C7 C 0.2249(2) 0.6085(3) -0.00580(9)
H3 H 0.1386 0.5550 -0.0081
C8 C 0.6742(2) 0.6503(3) 0.11059(9)
C9 C 0.2109(2) 0.2274(3) 0.12233(8)
C10 C 0.4828(2) 0.4123(3) 0.16309(9)
C11 C 0.1956(2) 0.3822(3) 0.08749(9)
C12 C 0.2527(2) 0.7130(3) -0.04372(9)
H4 H 0.1854 0.7313 -0.0725
C13 C 0.2875(3) 0.0864(3) 0.11022(10)
H5 H 0.3350 0.0949 0.0826
C14 C 0.1414(3) 0.2188(4) 0.16418(10)
C15 C 0.9358(3) 0.8670(4) 0.05268(13)
H6 H 0.9391 0.7734 0.0286
H7 H 1.0277 0.9105 0.0642
H8 H 0.8785 0.9601 0.0364
C16 C 0.8779(3) 0.8014(5) 0.09665(13)
H9 H 0.9310 0.7014 0.1117
H10 H 0.8820 0.8922 0.1226
C17 C 0.2953(3) -0.0663(4) 0.13813(13)
H11 H 0.3461 -0.1612 0.1293
C18 C 0.5919(4) 0.1863(4) 0.21438(12)
H12 H 0.6316 0.2704 0.2403
H13 H 0.5076 0.1398 0.2240
C19 C 0.1521(3) 0.0635(5) 0.19202(11)
H14 H 0.1070 0.0541 0.2203
C20 C 0.0630(3) 0.3716(5) 0.18029(12)
H15 H 0.1152 0.4773 0.1782
H16 H 0.0483 0.3548 0.2150
H17 H -0.0248 0.3810 0.1581
C21 C 0.2272(4) -0.0762(4) 0.17905(14)
H18 H 0.2317 -0.1788 0.1983
C22 C 0.6878(5) 0.0473(6) 0.21120(18)
H19 H 0.6500 -0.0316 0.1841
H20 H 0.7044 -0.0151 0.2432
H21 H 0.7733 0.0952 0.2041
loop_
_geom_bond_atom_site_label_1
_geom_bond_atom_site_label_2
_geom_bond_site_symmetry_1
_geom_bond_site_symmetry_2
N1 C1 1_555 1_555
O1 C10 1_555 1_555
O2 C8 1_555 1_555
C1 C2 1_555 1_555
O3 C11 1_555 1_555
C2 C5 1_555 1_555
C3 N1 1_555 1_555
C4 C1 1_555 1_555
H1 C4 1_555 1_555
O4 C8 1_555 1_555
C5 C3 1_555 1_555
C6 C4 1_555 1_555
H2 C6 1_555 1_555
O5 C10 1_555 1_555
C7 N1 1_555 1_555
H3 C7 1_555 1_555
C8 C2 1_555 1_555
C9 C11 1_555 1_555
C10 C5 1_555 1_555
C11 C3 1_555 1_555
C12 C6 1_555 1_555
H4 C12 1_555 1_555
C13 C9 1_555 1_555
H5 C13 1_555 1_555
C14 C9 1_555 1_555
C15 H6 1_555 1_555
H7 C15 1_555 1_555
H8 C15 1_555 1_555
C16 O2 1_555 1_555
H9 C16 1_555 1_555
H10 C16 1_555 1_555
C17 C13 1_555 1_555
H11 C17 1_555 1_555
C18 O1 1_555 1_555
H12 C18 1_555 1_555
H13 C18 1_555 1_555
C19 C14 1_555 1_555
H14 C19 1_555 1_555
C20 C14 1_555 1_555
H15 C20 1_555 1_555
H16 C20 1_555 1_555
H17 C20 1_555 1_555
C21 C17 1_555 1_555
H18 C21 1_555 1_555
C22 C18 1_555 1_555
H19 C22 1_555 1_555
H20 C22 1_555 1_555
H21 C22 1_555 1_555
C7 C12 1_555 1_555
C15 C16 1_555 1_555
C19 C21 1_555 1_555

#END
