
#######################################################################
#
#                 Cambridge Crystallographic Data Centre
#                                CCDC 
#
#######################################################################
#
# If this CIF has been generated from an entry in the Cambridge 
# Structural Database, then it will include bibliographic, chemical, 
# crystal, experimental, refinement or atomic coordinate data resulting 
# from the CCDC's data processing and validation procedures.
#
#######################################################################

data_LOPMAG
_chemical_formula_moiety         'C26 H23 N1 O5'
_chemical_name_systematic        
'diethyl 3-(2-methylbenzoyl)pyrrolo[2,1-a]isoquinoline-1,2-dicarboxylate'
_symmetry_cell_setting           monoclinic
_symmetry_space_group_name_H-M   'C 2/c'
_symmetry_Int_Tables_number      15
_space_group_name_Hall           '-C 2yn'
loop_
_symmetry_equiv_pos_site_id
_symmetry_equiv_pos_as_xyz
1 x,y,z
2 -x,y,1/2-z
3 1/2+x,1/2+y,z
4 1/2-x,1/2+y,1/2-z
5 -x,-y,-z
6 x,-y,1/2+z
7 1/2-x,1/2-y,-z
8 1/2+x,1/2-y,1/2+z
_cell_length_a                   21.659(2)
_cell_length_b                   7.3417(8)
_cell_length_c                   27.062(3)
_cell_angle_alpha                90
_cell_angle_beta                 90.420(3)
_cell_angle_gamma                90
_cell_volume                     4303.12
_cell_formula_units_Z            8
loop_
_atom_site_label
_atom_site_type_symbol
_atom_site_fract_x
_atom_site_fract_y
_atom_site_fract_z
N1 N 0.14633(7) 0.9201(2) 0.48018(6)
O1 O 0.10734(6) 0.6469(2) 0.34285(5)
O2 O 0.25108(6) 0.7693(2) 0.34598(5)
O3 O 0.12896(7) 0.9258(2) 0.31461(5)
C1 C 0.14543(9) 0.8603(3) 0.39948(7)
C2 C 0.20633(9) 0.9468(3) 0.46420(7)
O4 O 0.02032(7) 0.7826(3) 0.48591(6)
C3 C 0.25219(10) 1.0045(3) 0.49969(8)
C4 C 0.12632(9) 0.8176(3) 0.34787(7)
C5 C 0.10804(9) 0.8691(3) 0.44083(7)
C6 C 0.04298(9) 0.8248(3) 0.44617(8)
C7 C 0.20604(9) 0.9065(3) 0.41344(7)
C8 C 0.23332(11) 1.0374(3) 0.54854(8)
C9 C 0.00292(9) 0.8363(3) 0.40055(8)
C10 C 0.25772(10) 0.9048(3) 0.37837(8)
O5 O 0.30033(8) 1.0089(3) 0.37702(7)
C11 C 0.29693(10) 0.7550(4) 0.30815(8)
H1 H 0.3362 0.7177 0.3224
H2 H 0.3025 0.8717 0.2920
C12 C -0.03423(10) 0.6912(3) 0.38540(8)
C13 C 0.12904(11) 0.9509(3) 0.52860(8)
H3 H 0.0884 0.9320 0.5381
C14 C 0.17061(12) 1.0075(3) 0.56148(8)
H4 H 0.1584 1.0282 0.5939
C15 C 0.00117(10) 1.0000(3) 0.37498(9)
H5 H 0.0259 1.0964 0.3854
C16 C 0.31412(10) 1.0332(3) 0.48777(9)
H6 H 0.3276 1.0106 0.4558
C17 C -0.07162(10) 0.7169(4) 0.34398(9)
H7 H -0.0964 0.6214 0.3330
C18 C 0.08831(12) 0.5946(4) 0.29342(8)
H8 H 0.1197 0.6288 0.2698
H9 H 0.0501 0.6559 0.2845
C19 C 0.27724(13) 1.1003(3) 0.58341(9)
H10 H 0.2650 1.1229 0.6157
C20 C 0.33677(13) 1.1284(3) 0.57076(10)
H11 H 0.3650 1.1703 0.5942
C21 C 0.35558(11) 1.0949(3) 0.52303(10)
H12 H 0.3966 1.1139 0.5145
C22 C -0.03681(11) 1.0218(4) 0.33424(9)
H13 H -0.0379 1.1320 0.3173
C23 C -0.07298(11) 0.8785(4) 0.31899(10)
H14 H -0.0986 0.8916 0.2915
C24 C -0.03203(12) 0.5104(4) 0.41089(10)
H15 H 0.0095 0.4650 0.4108
H16 H -0.0586 0.4262 0.3939
H17 H -0.0456 0.5241 0.4444
C25 C 0.27498(14) 0.6176(5) 0.27221(10)
H18 H 0.2680 0.5041 0.2889
H19 H 0.3055 0.6009 0.2471
H20 H 0.2371 0.6585 0.2573
C26 C 0.07929(18) 0.3968(4) 0.29284(11)
H21 H 0.1175 0.3374 0.3010
H22 H 0.0659 0.3593 0.2605
H23 H 0.0485 0.3642 0.3166
loop_
_geom_bond_atom_site_label_1
_geom_bond_atom_site_label_2
_geom_bond_site_symmetry_1
_geom_bond_site_symmetry_2
N1 C2 1_555 1_555
O1 C4 1_555 1_555
O2 C10 1_555 1_555
O3 C4 1_555 1_555
C1 C4 1_555 1_555
C2 C3 1_555 1_555
O4 C6 1_555 1_555
C3 C8 1_555 1_555
C5 N1 1_555 1_555
C6 C5 1_555 1_555
C7 C1 1_555 1_555
C8 C14 1_555 1_555
C9 C6 1_555 1_555
C10 C7 1_555 1_555
O5 C10 1_555 1_555
C11 O2 1_555 1_555
H1 C11 1_555 1_555
H2 C11 1_555 1_555
C12 C9 1_555 1_555
C13 N1 1_555 1_555
H3 C13 1_555 1_555
C14 C13 1_555 1_555
H4 C14 1_555 1_555
C15 C9 1_555 1_555
H5 C15 1_555 1_555
C16 C3 1_555 1_555
H6 C16 1_555 1_555
C17 C12 1_555 1_555
H7 C17 1_555 1_555
C18 O1 1_555 1_555
H8 C18 1_555 1_555
H9 C18 1_555 1_555
C19 C8 1_555 1_555
H10 C19 1_555 1_555
C20 C19 1_555 1_555
H11 C20 1_555 1_555
C21 C16 1_555 1_555
H12 C21 1_555 1_555
C22 C15 1_555 1_555
H13 C22 1_555 1_555
C23 C17 1_555 1_555
H14 C23 1_555 1_555
C24 C12 1_555 1_555
H15 C24 1_555 1_555
H16 C24 1_555 1_555
H17 C24 1_555 1_555
C25 C11 1_555 1_555
H18 C25 1_555 1_555
H19 C25 1_555 1_555
H20 C25 1_555 1_555
C26 C18 1_555 1_555
H21 C26 1_555 1_555
H22 C26 1_555 1_555
H23 C26 1_555 1_555
C1 C5 1_555 1_555
C2 C7 1_555 1_555
C20 C21 1_555 1_555
C22 C23 1_555 1_555

#END
