
#######################################################################
#
#                 Cambridge Crystallographic Data Centre
#                                CCDC 
#
#######################################################################
#
# If this CIF has been generated from an entry in the Cambridge 
# Structural Database, then it will include bibliographic, chemical, 
# crystal, experimental, refinement or atomic coordinate data resulting 
# from the CCDC's data processing and validation procedures.
#
#######################################################################

data_LOPYUM
_chemical_formula_moiety         'C52 H54 N4 O6'
_chemical_name_systematic        
1,4-bis(4-t-Butylphenyl)-2,3-bis(3,4,5-trimethoxyphenyl)-5,6-bis(pyrimidin-5-yl)benzene
_symmetry_cell_setting           monoclinic
_symmetry_space_group_name_H-M   'P 21/n'
_symmetry_Int_Tables_number      14
_space_group_name_Hall           '-P 2yn'
loop_
_symmetry_equiv_pos_site_id
_symmetry_equiv_pos_as_xyz
1 x,y,z
2 1/2-x,1/2+y,1/2-z
3 -x,-y,-z
4 1/2+x,1/2-y,1/2+z
_cell_length_a                   13.586(12)
_cell_length_b                   11.951(11)
_cell_length_c                   31.96(3)
_cell_angle_alpha                90
_cell_angle_beta                 94.14(2)
_cell_angle_gamma                90
_cell_volume                     5175.69
_exptl_crystal_colour            colorless
_exptl_crystal_description       block
_cell_formula_units_Z            4
loop_
_atom_site_label
_atom_site_type_symbol
_atom_site_fract_x
_atom_site_fract_y
_atom_site_fract_z
N1 N 0.8016(3) 0.5340(5) 0.10575(15)
N2 N 0.7116(4) 0.3704(4) 0.11629(16)
N3 N 0.8300(3) 0.4511(3) 0.26216(11)
N4 N 0.6976(3) 0.3277(3) 0.27111(11)
O1 O 0.1923(3) 0.8933(3) 0.09001(13)
O2 O 0.2457(3) 1.1011(3) 0.10962(9)
O3 O 0.4098(3) 1.1407(2) 0.16169(10)
O4 O 0.1318(2) 0.8240(2) 0.24543(9)
O5 O 0.1955(2) 0.9836(2) 0.29954(9)
O6 O 0.3849(3) 0.9988(2) 0.32640(10)
C1 C 0.5963(2) 0.6044(3) 0.17253(10)
C2 C 0.5333(2) 0.6845(3) 0.15416(10)
C3 C 0.4707(2) 0.7431(3) 0.17924(10)
C4 C 0.4703(3) 0.7186(3) 0.22221(10)
C5 C 0.5358(3) 0.6404(3) 0.24062(10)
C6 C 0.5977(2) 0.5826(3) 0.21563(10)
C7 C 0.5336(2) 0.7096(3) 0.10871(10)
C8 C 0.4949(3) 0.6358(3) 0.07852(11)
H1 H 0.4663 0.5680 0.0873
C9 C 0.4962(3) 0.6569(3) 0.03633(12)
H2 H 0.4670 0.6045 0.0168
C10 C 0.5387(3) 0.7517(3) 0.02194(11)
C11 C 0.5761(3) 0.8257(3) 0.05202(12)
H3 H 0.6042 0.8938 0.0432
C12 C 0.5746(3) 0.8053(3) 0.09416(11)
H4 H 0.6025 0.8586 0.1136
C13 C 0.5385(5) 0.7757(4) -0.02510(14)
C14 C 0.6003(9) 0.8766(7) -0.0333(3)
H5 H 0.6701 0.8588 -0.0268
H6 H 0.5813 0.9387 -0.0156
H7 H 0.5897 0.8980 -0.0629
C15 C 0.4285(6) 0.8097(10) -0.0403(2)
H8 H 0.4017 0.8593 -0.0196
H9 H 0.3877 0.7422 -0.0435
H10 H 0.4283 0.8486 -0.0674
C16 C 0.5656(9) 0.6754(6) -0.0494(2)
H11 H 0.6291 0.6460 -0.0377
H12 H 0.5711 0.6964 -0.0788
H13 H 0.5147 0.6179 -0.0478
C17 C 0.4099(3) 0.8369(3) 0.16058(11)
C18 C 0.4378(3) 0.9440(3) 0.17143(11)
H14 H 0.4935 0.9570 0.1905
C19 C 0.3283(3) 0.8189(3) 0.13283(11)
H15 H 0.3092 0.7449 0.1251
C20 C 0.2758(3) 0.9080(4) 0.11677(13)
C21 C 0.2997(4) 1.0151(4) 0.12795(13)
C22 C 0.3834(4) 1.0330(3) 0.15408(14)
C23 C 0.1794(14) 0.790(2) 0.0663(6)
H16 H 0.1165 0.7925 0.0493
H17 H 0.1793 0.7267 0.0857
H18 H 0.2337 0.7816 0.0480
C24 C 0.2047(3) 1.1802(4) 0.13550(16)
H19 H 0.1688 1.2366 0.1182
H20 H 0.2575 1.2166 0.1531
H21 H 0.1592 1.1429 0.1534
C25 C 0.4999(5) 1.1619(4) 0.1841(2)
H22 H 0.5091 1.2428 0.1873
H23 H 0.5537 1.1306 0.1689
H24 H 0.5001 1.1270 0.2119
C26 C 0.3980(3) 0.7797(3) 0.24716(10)
C27 C 0.4300(3) 0.8561(3) 0.27764(11)
H25 H 0.4984 0.8642 0.2856
C28 C 0.3615(4) 0.9203(3) 0.29633(12)
C29 C 0.2625(3) 0.9103(3) 0.28437(12)
C30 C 0.2316(3) 0.8311(3) 0.25514(12)
C31 C 0.2987(3) 0.7652(3) 0.23653(11)
H26 H 0.2769 0.7102 0.2165
C32 C 0.4849(5) 1.0047(5) 0.34251(17)
H27 H 0.4923 1.0643 0.3636
H28 H 0.5269 1.0208 0.3196
H29 H 0.5044 0.9330 0.3555
C33 C 0.1576(4) 0.9533(4) 0.33725(16)
H30 H 0.1107 1.0104 0.3453
H31 H 0.2116 0.9470 0.3592
H32 H 0.1237 0.8811 0.3338
C34 C 0.0984(3) 0.7480(5) 0.21296(18)
H33 H 0.0262 0.7506 0.2091
H34 H 0.1195 0.6720 0.2207
H35 H 0.1265 0.7694 0.1867
C35 C 0.5452(3) 0.6190(3) 0.28661(10)
C36 C 0.6236(3) 0.6600(3) 0.31130(12)
H36 H 0.6676 0.7103 0.2992
C37 C 0.6414(3) 0.6313(3) 0.35301(12)
H37 H 0.6960 0.6634 0.3690
C38 C 0.5817(3) 0.5577(4) 0.37134(12)
C39 C 0.5001(3) 0.5194(4) 0.34735(12)
H38 H 0.4552 0.4710 0.3598
C40 C 0.4817(3) 0.5493(3) 0.30544(11)
H39 H 0.4248 0.5212 0.2898
C41 C 0.6007(4) 0.5224(5) 0.41744(15)
C42 C 0.5213(6) 0.5732(8) 0.44295(17)
H40 H 0.5331 0.5511 0.4724
H41 H 0.4563 0.5463 0.4321
H42 H 0.5235 0.6550 0.4408
C43 C 0.5918(9) 0.3946(6) 0.4198(3)
H43 H 0.6038 0.3704 0.4491
H44 H 0.6405 0.3600 0.4028
H45 H 0.5253 0.3718 0.4093
C44 C 0.7027(5) 0.5609(9) 0.4362(2)
H46 H 0.7119 0.5369 0.4655
H47 H 0.7069 0.6427 0.4347
H48 H 0.7542 0.5277 0.4202
C45 C 0.6677(3) 0.5006(3) 0.23590(10)
C46 C 0.6372(3) 0.4005(3) 0.25149(11)
H49 H 0.5690 0.3825 0.2480
C47 C 0.7910(4) 0.3590(4) 0.27577(13)
H50 H 0.8350 0.3088 0.2907
C48 C 0.7661(3) 0.5205(3) 0.24223(12)
H51 H 0.7910 0.5885 0.2317
C49 C 0.6638(3) 0.5411(3) 0.14661(10)
C50 C 0.6536(3) 0.4300(4) 0.13887(14)
H52 H 0.6006 0.3923 0.1507
C51 C 0.7830(6) 0.4270(8) 0.1014(2)
H53 H 0.8269 0.3857 0.0854
C52 C 0.7410(3) 0.5905(4) 0.12895(14)
H54 H 0.7521 0.6683 0.1334
C53? C 0.5353(17) 0.8925(12) -0.0422(9)
H55? H 0.6022 0.9237 -0.0407
H56? H 0.4932 0.9390 -0.0256
H57? H 0.5084 0.8913 -0.0715
C54? C 0.4747(19) 0.6985(17) -0.0537(6)
H58? H 0.5005 0.6220 -0.0513
H59? H 0.4758 0.7241 -0.0828
H60? H 0.4067 0.6998 -0.0453
C55? C 0.6488(11) 0.734(2) -0.0297(6)
H61? H 0.6861 0.7366 -0.0023
H62? H 0.6805 0.7821 -0.0495
H63? H 0.6476 0.6565 -0.0402
C56? C 0.2082(13) 0.890(4) 0.0517(7)
H64? H 0.2262 0.9642 0.0422
H65? H 0.1485 0.8641 0.0354
H66? H 0.2623 0.8373 0.0477
C57? C 0.619(3) 0.6292(18) 0.4449(9)
H67? H 0.6308 0.6075 0.4744
H68? H 0.5613 0.6782 0.4416
H69? H 0.6771 0.6690 0.4359
C58? C 0.6975(18) 0.454(3) 0.4178(11)
H70? H 0.7166 0.4293 0.4465
H71? H 0.7499 0.5010 0.4076
H72? H 0.6873 0.3887 0.3995
C59? C 0.519(2) 0.451(3) 0.4355(10)
H73? H 0.5377 0.4344 0.4650
H74? H 0.5110 0.3815 0.4196
H75? H 0.4570 0.4933 0.4333
loop_
_geom_bond_atom_site_label_1
_geom_bond_atom_site_label_2
_geom_bond_site_symmetry_1
_geom_bond_site_symmetry_2
N1 C51 1_555 1_555
N2 C50 1_555 1_555
N3 C47 1_555 1_555
N4 C46 1_555 1_555
O1 C20 1_555 1_555
O2 C21 1_555 1_555
O3 C22 1_555 1_555
O4 C30 1_555 1_555
O5 C29 1_555 1_555
O6 C28 1_555 1_555
C1 C2 1_555 1_555
C2 C3 1_555 1_555
C3 C4 1_555 1_555
C4 C5 1_555 1_555
C5 C6 1_555 1_555
C6 C1 1_555 1_555
C7 C2 1_555 1_555
C8 C7 1_555 1_555
H1 C8 1_555 1_555
C9 C8 1_555 1_555
H2 C9 1_555 1_555
C10 C9 1_555 1_555
C11 C10 1_555 1_555
H3 C11 1_555 1_555
C12 C7 1_555 1_555
H4 C12 1_555 1_555
C13 C10 1_555 1_555
C14 C13 1_555 1_555
H5 C14 1_555 1_555
H6 C14 1_555 1_555
H7 C14 1_555 1_555
C15 C13 1_555 1_555
H8 C15 1_555 1_555
H9 C15 1_555 1_555
H10 C15 1_555 1_555
C16 C13 1_555 1_555
H11 C16 1_555 1_555
H12 C16 1_555 1_555
H13 C16 1_555 1_555
C17 C3 1_555 1_555
C18 C17 1_555 1_555
H14 C18 1_555 1_555
C19 C17 1_555 1_555
H15 C19 1_555 1_555
C20 C19 1_555 1_555
C21 C20 1_555 1_555
C22 C18 1_555 1_555
C23 O1 1_555 1_555
H16 C23 1_555 1_555
H17 C23 1_555 1_555
H18 C23 1_555 1_555
C24 O2 1_555 1_555
H19 C24 1_555 1_555
H20 C24 1_555 1_555
H21 C24 1_555 1_555
C25 O3 1_555 1_555
H22 C25 1_555 1_555
H23 C25 1_555 1_555
H24 C25 1_555 1_555
C26 C4 1_555 1_555
C27 C26 1_555 1_555
H25 C27 1_555 1_555
C28 C27 1_555 1_555
C29 C28 1_555 1_555
C30 C29 1_555 1_555
C31 C26 1_555 1_555
H26 C31 1_555 1_555
C32 O6 1_555 1_555
H27 C32 1_555 1_555
H28 C32 1_555 1_555
H29 C32 1_555 1_555
C33 O5 1_555 1_555
H30 C33 1_555 1_555
H31 C33 1_555 1_555
H32 C33 1_555 1_555
C34 O4 1_555 1_555
H33 C34 1_555 1_555
H34 C34 1_555 1_555
H35 C34 1_555 1_555
C35 C5 1_555 1_555
C36 C35 1_555 1_555
H36 C36 1_555 1_555
C37 C36 1_555 1_555
H37 C37 1_555 1_555
C38 C37 1_555 1_555
C39 C38 1_555 1_555
H38 C39 1_555 1_555
C40 C35 1_555 1_555
H39 C40 1_555 1_555
C41 C38 1_555 1_555
C42 C41 1_555 1_555
H40 C42 1_555 1_555
H41 C42 1_555 1_555
H42 C42 1_555 1_555
C43 C41 1_555 1_555
H43 C43 1_555 1_555
H44 C43 1_555 1_555
H45 C43 1_555 1_555
C44 C41 1_555 1_555
H46 C44 1_555 1_555
H47 C44 1_555 1_555
H48 C44 1_555 1_555
C45 C6 1_555 1_555
C46 C45 1_555 1_555
H49 C46 1_555 1_555
C47 N4 1_555 1_555
H50 C47 1_555 1_555
C48 N3 1_555 1_555
H51 C48 1_555 1_555
C49 C1 1_555 1_555
C50 C49 1_555 1_555
H52 C50 1_555 1_555
C51 N2 1_555 1_555
H53 C51 1_555 1_555
C52 N1 1_555 1_555
H54 C52 1_555 1_555
C11 C12 1_555 1_555
C21 C22 1_555 1_555
C30 C31 1_555 1_555
C39 C40 1_555 1_555
C45 C48 1_555 1_555
C49 C52 1_555 1_555

#END
