
#######################################################################
#
#                 Cambridge Crystallographic Data Centre
#                                CCDC 
#
#######################################################################
#
# If this CIF has been generated from an entry in the Cambridge 
# Structural Database, then it will include bibliographic, chemical, 
# crystal, experimental, refinement or atomic coordinate data resulting 
# from the CCDC's data processing and validation procedures.
#
#######################################################################

data_LOQGAB
_chemical_formula_moiety         'C19 H18 Br1 Cl1 N3 O2 1+,H2 O1,Cl1 1-'
_chemical_name_systematic        
'2-((3-bromophenyl)amino)-6-(4-chlorophenyl)-5-(methoxycarbonyl)-4-methyl-3,6-dihydropyrimidin-1-ium chloride monohydrate'
_symmetry_cell_setting           monoclinic
_symmetry_space_group_name_H-M   'P 21/c'
_symmetry_Int_Tables_number      14
_space_group_name_Hall           '-P 2ybc'
loop_
_symmetry_equiv_pos_site_id
_symmetry_equiv_pos_as_xyz
1 x,y,z
2 -x,1/2+y,1/2-z
3 -x,-y,-z
4 x,1/2-y,1/2+z
_cell_length_a                   14.8702(11)
_cell_length_b                   8.0910(5)
_cell_length_c                   17.7304(13)
_cell_angle_alpha                90
_cell_angle_beta                 92.203(2)
_cell_angle_gamma                90
_cell_volume                     2131.65
_exptl_crystal_colour            colorless
_exptl_crystal_description       block
_cell_formula_units_Z            4
loop_
_atom_site_label
_atom_site_type_symbol
_atom_site_fract_x
_atom_site_fract_y
_atom_site_fract_z
Br1 Br 0.773951(16) 0.63297(3) 0.147297(16)
Cl1 Cl 0.06227(5) 0.19129(10) -0.00064(5)
O1 O 0.09635(11) 0.8498(2) 0.22248(10)
O2 O 0.07413(11) 0.7885(2) 0.34379(11)
N1 N 0.34522(12) 0.6485(2) 0.21693(11)
H1 H 0.3761(16) 0.678(3) 0.1830(14)
N2 N 0.33261(13) 0.5433(2) 0.33589(11)
H2 H 0.3577(17) 0.487(3) 0.3710(15)
N3 N 0.46614(13) 0.5114(2) 0.27450(11)
H3 H 0.4917(16) 0.489(3) 0.3157(11)
C1 C 0.01085(18) 0.9361(4) 0.22017(19)
H4 H -0.0368 0.8588 0.2281
H5 H 0.0014 0.9880 0.1718
H6 H 0.0113 1.0188 0.2590
C2 C 0.12018(15) 0.7798(3) 0.28921(15)
C3 C 0.20736(14) 0.6928(3) 0.28405(13)
C4 C 0.24858(15) 0.6200(3) 0.34420(13)
C5 C 0.21731(17) 0.6084(3) 0.42329(14)
H7 H 0.1580 0.6547 0.4255
H8 H 0.2579 0.6685 0.4566
H9 H 0.2160 0.4946 0.4385
C6 C 0.24859(14) 0.6864(3) 0.20716(13)
H10 H 0.2426 0.7962 0.1842
C7 C 0.20316(14) 0.5618(3) 0.15361(13)
C8 C 0.20346(16) 0.3944(3) 0.17155(15)
H11 H 0.2322 0.3586 0.2161
C9 C 0.16120(17) 0.2801(3) 0.12362(16)
H12 H 0.1616 0.1683 0.1358
C10 C 0.11888(16) 0.3347(3) 0.05803(15)
C11 C 0.11840(16) 0.5000(3) 0.03763(14)
H13 H 0.0907 0.5348 -0.0075
C12 C 0.16061(16) 0.6124(3) 0.08669(13)
H14 H 0.1602 0.7241 0.0743
C13 C 0.38142(14) 0.5682(3) 0.27474(12)
C14 C 0.51794(15) 0.4971(3) 0.20867(13)
C15 C 0.60471(14) 0.5620(3) 0.21006(13)
H15 H 0.6279 0.6167 0.2526
C16 C 0.65579(15) 0.5436(3) 0.14707(13)
C17 C 0.62269(17) 0.4628(3) 0.08294(14)
H16 H 0.6575 0.4530 0.0407
C18 C 0.53701(18) 0.3972(3) 0.08290(14)
H17 H 0.5144 0.3408 0.0406
C19 C 0.48427(16) 0.4141(3) 0.14507(14)
H18 H 0.4265 0.3701 0.1443
Cl2 Cl 0.40260(5) 0.88638(9) 0.09162(4)
O3 O 0.39984(16) 0.3636(2) 0.45714(12)
H19 H 0.399(2) 0.420(4) 0.4933(19)
H20 H 0.462(3) 0.357(4) 0.444(2)
loop_
_geom_bond_atom_site_label_1
_geom_bond_atom_site_label_2
_geom_bond_site_symmetry_1
_geom_bond_site_symmetry_2
Br1 C16 1_555 1_555
Cl1 C10 1_555 1_555
O1 C1 1_555 1_555
O2 C2 1_555 1_555
N1 H1 1_555 1_555
N2 H2 1_555 1_555
N3 H3 1_555 1_555
C1 H4 1_555 1_555
H5 C1 1_555 1_555
H6 C1 1_555 1_555
C2 O1 1_555 1_555
C3 C2 1_555 1_555
C4 N2 1_555 1_555
C5 C4 1_555 1_555
H7 C5 1_555 1_555
H8 C5 1_555 1_555
H9 C5 1_555 1_555
C6 N1 1_555 1_555
H10 C6 1_555 1_555
C7 C6 1_555 1_555
C8 C7 1_555 1_555
H11 C8 1_555 1_555
C9 C8 1_555 1_555
H12 C9 1_555 1_555
C10 C9 1_555 1_555
C11 C10 1_555 1_555
H13 C11 1_555 1_555
C12 C7 1_555 1_555
H14 C12 1_555 1_555
C13 N1 1_555 1_555
C14 N3 1_555 1_555
C15 C14 1_555 1_555
H15 C15 1_555 1_555
C16 C15 1_555 1_555
C17 C16 1_555 1_555
H16 C17 1_555 1_555
C18 C17 1_555 1_555
H17 C18 1_555 1_555
C19 C14 1_555 1_555
H18 C19 1_555 1_555
O3 H19 1_555 1_555
H20 O3 1_555 1_555
N2 C13 1_555 1_555
N3 C13 1_555 1_555
C3 C4 1_555 1_555
C3 C6 1_555 1_555
C11 C12 1_555 1_555
C18 C19 1_555 1_555

#END
