
#######################################################################
#
#                 Cambridge Crystallographic Data Centre
#                                CCDC 
#
#######################################################################
#
# If this CIF has been generated from an entry in the Cambridge 
# Structural Database, then it will include bibliographic, chemical, 
# crystal, experimental, refinement or atomic coordinate data resulting 
# from the CCDC's data processing and validation procedures.
#
#######################################################################

data_LOQQEN
_chemical_formula_moiety         'C7 H7 B1 O2'
_chemical_name_systematic        1-Hydroxy-3(1H)-1,2-benzoboroxole
_symmetry_cell_setting           triclinic
_symmetry_space_group_name_H-M   'P -1'
_symmetry_Int_Tables_number      2
_space_group_name_Hall           '-P 1'
loop_
_symmetry_equiv_pos_site_id
_symmetry_equiv_pos_as_xyz
1 x,y,z
2 -x,-y,-z
_cell_length_a                   4.5250(6)
_cell_length_b                   6.1615(7)
_cell_length_c                   24.640(3)
_cell_angle_alpha                96.226(2)
_cell_angle_beta                 90.799(2)
_cell_angle_gamma                102.652(2)
_cell_volume                     665.845
_exptl_crystal_colour            colorless
_exptl_crystal_description       needles
_chemical_melting_point          '87-89 deg.C'
_cell_formula_units_Z            4
_exptl_crystal_recrystallization_method dichloromethane/hexane
loop_
_atom_site_label
_atom_site_type_symbol
_atom_site_fract_x
_atom_site_fract_y
_atom_site_fract_z
B1 B 0.7365(17) 1.0611(11) 0.0663(3)
O1 O 0.7236(10) 0.8519(6) 0.0360(2)
O2 O 0.9326(10) 1.2451(6) 0.0508(2)
C1 C 0.5286(14) 1.0365(9) 0.1130(3)
C2 C 0.4413(15) 1.1746(10) 0.1556(3)
C3 C 0.2347(14) 1.0879(11) 0.1915(3)
C4 C 0.1025(15) 0.8616(11) 0.1874(3)
C5 C 0.1807(15) 0.7187(10) 0.1455(2)
C6 C 0.3895(13) 0.8076(9) 0.1090(2)
C7 C 0.5024(14) 0.6832(9) 0.0599(3)
H1 H 1.056(15) 1.212(11) 0.0176(27)
H2 H 0.5272(15) 1.3309(10) 0.1596(3)
H3 H 0.1795(14) 1.1855(11) 0.2202(3)
H4 H -0.0405(15) 0.8049(11) 0.2131(3)
H5 H 0.0925(15) 0.5628(10) 0.1419(2)
H6 H 0.5980(14) 0.5646(9) 0.0713(3)
H7 H 0.3330(14) 0.6137(9) 0.0334(3)
B2 B 1.2170(18) 1.0040(12) 0.4345(3)
O3 O 1.2053(10) 0.8179(6) 0.4638(2)
O4 O 1.4121(10) 1.2017(6) 0.4497(2)
C8 C 0.9790(14) 0.9342(9) 0.3868(2)
C9 C 0.8840(16) 1.0422(10) 0.3453(3)
C10 C 0.6587(16) 0.9249(11) 0.3076(3)
C11 C 0.5279(17) 0.7005(12) 0.3117(3)
C12 C 0.6208(15) 0.5919(10) 0.3534(3)
C13 C 0.8433(14) 0.7083(9) 0.3907(2)
C14 C 0.9781(15) 0.6288(9) 0.4388(3)
H8 H 1.554(16) 1.203(11) 0.4767(27)
H9 H 0.9727(16) 1.1953(10) 0.3428(3)
H10 H 0.5937(16) 0.9974(11) 0.2790(3)
H11 H 0.3738(17) 0.6210(12) 0.2859(3)
H12 H 0.5313(15) 0.4390(10) 0.3560(3)
H13 H 0.8202(15) 0.5797(9) 0.4650(3)
H14 H 1.0717(15) 0.5016(9) 0.4267(3)
loop_
_geom_bond_atom_site_label_1
_geom_bond_atom_site_label_2
_geom_bond_site_symmetry_1
_geom_bond_site_symmetry_2
B1 O1 1_555 1_555
O1 C7 1_555 1_555
O2 B1 1_555 1_555
C1 B1 1_555 1_555
C2 C1 1_555 1_555
C3 C2 1_555 1_555
C4 C3 1_555 1_555
C5 C4 1_555 1_555
C6 C1 1_555 1_555
C7 C6 1_555 1_555
B2 O3 1_555 1_555
O3 C14 1_555 1_555
O4 B2 1_555 1_555
C8 B2 1_555 1_555
C9 C8 1_555 1_555
C10 C9 1_555 1_555
C11 C10 1_555 1_555
C12 C11 1_555 1_555
C13 C8 1_555 1_555
C14 C13 1_555 1_555
H1 O2 1_555 1_555
H2 C2 1_555 1_555
H3 C3 1_555 1_555
H4 C4 1_555 1_555
H5 C5 1_555 1_555
H6 C7 1_555 1_555
H7 C7 1_555 1_555
H8 O4 1_555 1_555
H9 C9 1_555 1_555
H10 C10 1_555 1_555
H11 C11 1_555 1_555
H12 C12 1_555 1_555
H13 C14 1_555 1_555
H14 C14 1_555 1_555
C5 C6 1_555 1_555
C12 C13 1_555 1_555

#END
