
#######################################################################
#
#                 Cambridge Crystallographic Data Centre
#                                CCDC 
#
#######################################################################
#
# If this CIF has been generated from an entry in the Cambridge 
# Structural Database, then it will include bibliographic, chemical, 
# crystal, experimental, refinement or atomic coordinate data resulting 
# from the CCDC's data processing and validation procedures.
#
#######################################################################

data_LOQQAL
_chemical_formula_moiety         'C19 H13 F1 O2'
_chemical_name_systematic        
3-(6-fluoro-4-hydroxy-2-phenyl-1-naphthyl)acrylaldehyde
_symmetry_cell_setting           orthorhombic
_symmetry_space_group_name_H-M   'P 21 21 21'
_symmetry_Int_Tables_number      19
_space_group_name_Hall           'P 2ac 2ab'
loop_
_symmetry_equiv_pos_site_id
_symmetry_equiv_pos_as_xyz
1 x,y,z
2 1/2+x,1/2-y,-z
3 -x,1/2+y,1/2-z
4 1/2-x,-y,1/2+z
_cell_length_a                   7.831(3)
_cell_length_b                   10.553(4)
_cell_length_c                   16.936(6)
_cell_angle_alpha                90
_cell_angle_beta                 90
_cell_angle_gamma                90
_cell_volume                     1399.6
_exptl_crystal_colour            yellow
_exptl_crystal_description       plate
_cell_formula_units_Z            4
loop_
_atom_site_label
_atom_site_type_symbol
_atom_site_fract_x
_atom_site_fract_y
_atom_site_fract_z
F1 F 0.8871(7) 0.7854(4) 0.1673(3)
O1 O 0.9664(7) 1.0373(4) 0.4063(3)
H1 H 0.9295 1.0938 0.4368
O2 O 0.9158(11) 0.2135(4) 0.5165(3)
C1 C 0.9310(10) 0.9219(6) 0.4367(4)
C2 C 0.9174(11) 0.8955(6) 0.5149(4)
H2 H 0.9258 0.9629 0.5519
C3 C 0.8911(10) 0.7712(6) 0.5430(5)
C4 C 0.8721(9) 0.6717(6) 0.4894(4)
C5 C 0.8736(9) 0.7021(7) 0.4048(4)
C6 C 0.8266(10) 0.6115(6) 0.3474(4)
H3 H 0.7940 0.5291 0.3642
C7 C 0.8267(10) 0.6381(6) 0.2704(4)
H4 H 0.7898 0.5764 0.2333
C8 C 0.8806(10) 0.7559(7) 0.2451(4)
C9 C 0.9190(9) 0.8508(6) 0.2977(4)
H5 H 0.9486 0.9332 0.2797
C10 C 0.9136(9) 0.8234(6) 0.3773(4)
C11 C 0.8867(9) 0.7516(6) 0.6291(4)
C12 C 0.9766(10) 0.6529(7) 0.6685(4)
H6 H 1.0449 0.5954 0.6391
C13 C 0.9646(11) 0.6409(7) 0.7490(4)
H7 H 1.0185 0.5716 0.7746
C14 C 0.8766(10) 0.7269(7) 0.7922(4)
H8 H 0.8726 0.7189 0.8480
C15 C 0.7941(11) 0.8243(7) 0.7563(5)
H9 H 0.7333 0.8843 0.7873
C16 C 0.7978(10) 0.8367(6) 0.6771(5)
H10 H 0.7382 0.9051 0.6533
C17 C 0.8470(11) 0.5447(6) 0.5174(4)
H11 H 0.7760 0.5392 0.5627
C18 C 0.9041(12) 0.4334(6) 0.4919(5)
H12 H 0.9696 0.4297 0.4448
C19 C 0.8690(16) 0.3198(7) 0.5339(5)
H13 H 0.8020 0.3277 0.5804
loop_
_geom_bond_atom_site_label_1
_geom_bond_atom_site_label_2
_geom_bond_site_symmetry_1
_geom_bond_site_symmetry_2
F1 C8 1_555 1_555
O1 H1 1_555 1_555
O2 C19 1_555 1_555
C1 O1 1_555 1_555
C2 C1 1_555 1_555
H2 C2 1_555 1_555
C3 C2 1_555 1_555
C4 C3 1_555 1_555
C5 C4 1_555 1_555
C6 C5 1_555 1_555
H3 C6 1_555 1_555
C7 C6 1_555 1_555
H4 C7 1_555 1_555
C8 C7 1_555 1_555
C9 C8 1_555 1_555
H5 C9 1_555 1_555
C10 C1 1_555 1_555
C11 C3 1_555 1_555
C12 C11 1_555 1_555
H6 C12 1_555 1_555
C13 C12 1_555 1_555
H7 C13 1_555 1_555
C14 C13 1_555 1_555
H8 C14 1_555 1_555
C15 C14 1_555 1_555
H9 C15 1_555 1_555
C16 C11 1_555 1_555
H10 C16 1_555 1_555
C17 C4 1_555 1_555
H11 C17 1_555 1_555
C18 C17 1_555 1_555
H12 C18 1_555 1_555
C19 C18 1_555 1_555
H13 C19 1_555 1_555
C5 C10 1_555 1_555
C9 C10 1_555 1_555
C15 C16 1_555 1_555

#END
