
#######################################################################
#
#                 Cambridge Crystallographic Data Centre
#                                CCDC 
#
#######################################################################
#
# If this CIF has been generated from an entry in the Cambridge 
# Structural Database, then it will include bibliographic, chemical, 
# crystal, experimental, refinement or atomic coordinate data resulting 
# from the CCDC's data processing and validation procedures.
#
#######################################################################

data_LOQQEP
_chemical_formula_moiety         'C20 H15 Cl1 O2'
_chemical_name_systematic        
'3-(2-(4-chlorophenyl)-4-hydroxy-3-methyl-1-naphthyl)acrylaldehyde unknown solvate'
_symmetry_cell_setting           rhombohedral
_symmetry_space_group_name_H-M   'R -3'
_symmetry_Int_Tables_number      148
_space_group_name_Hall           '-R 3'
loop_
_symmetry_equiv_pos_site_id
_symmetry_equiv_pos_as_xyz
1 x,y,z
2 -y,x-y,z
3 -x+y,-x,z
4 2/3+x,1/3+y,1/3+z
5 2/3-y,1/3+x-y,1/3+z
6 2/3-x+y,1/3-x,1/3+z
7 1/3+x,2/3+y,2/3+z
8 1/3-y,2/3+x-y,2/3+z
9 1/3-x+y,2/3-x,2/3+z
10 -x,-y,-z
11 y,-x+y,-z
12 x-y,x,-z
13 1/3-x,2/3-y,2/3-z
14 1/3+y,2/3-x+y,2/3-z
15 1/3+x-y,2/3+x,2/3-z
16 2/3-x,1/3-y,1/3-z
17 2/3+y,1/3-x+y,1/3-z
18 2/3+x-y,1/3+x,1/3-z
_cell_length_a                   32.7041(17)
_cell_length_b                   32.7041(17)
_cell_length_c                   8.4455(6)
_cell_angle_alpha                90
_cell_angle_beta                 90
_cell_angle_gamma                120
_cell_volume                     7822.77
_exptl_crystal_colour            green
_exptl_crystal_description       prismatic
_cell_formula_units_Z            18
loop_
_atom_site_label
_atom_site_type_symbol
_atom_site_fract_x
_atom_site_fract_y
_atom_site_fract_z
Cl1 Cl 0.99201(2) 0.10767(2) 0.96668(10)
O1 O 0.71925(4) 0.04601(5) 1.06608(17)
O2 O 0.91294(5) 0.32598(5) 0.66250(17)
C1 C 0.76042(6) 0.07670(6) 1.0562(2)
H1 H 0.7829 0.0699 1.0958
C2 C 0.77719(6) 0.12228(6) 0.9891(2)
H2 H 0.7558 0.1304 0.9486
C3 C 0.82329(6) 0.15335(6) 0.98372(19)
H3 H 0.8426 0.1435 1.0307
C4 C 0.84775(5) 0.20039(6) 0.91518(18)
C5 C 0.89194(5) 0.21609(5) 0.84894(17)
C6 C 0.91554(6) 0.25846(6) 0.76073(18)
C7 C 0.89437(6) 0.28564(6) 0.74849(19)
C8 C 0.85147(6) 0.27368(6) 0.8260(2)
C9 C 0.82762(6) 0.23054(6) 0.91100(19)
C10 C 0.78670(7) 0.22178(7) 0.9964(2)
H4 H 0.7709 0.1945 1.0570
C11 C 0.77004(8) 0.25231(8) 0.9918(3)
H5 H 0.7430 0.2455 1.0485
C12 C 0.79286(9) 0.29364(8) 0.9035(3)
H6 H 0.7808 0.3140 0.8997
C13 C 0.83274(7) 0.30421(7) 0.8230(3)
H7 H 0.8480 0.3320 0.7648
C14 C 0.91654(6) 0.18833(6) 0.87223(19)
C15 C 0.90250(7) 0.14588(7) 0.7978(2)
H8 H 0.8771 0.1338 0.7283
C16 C 0.92583(8) 0.12096(8) 0.8253(3)
H9 H 0.9163 0.0924 0.7743
C17 C 0.96303(7) 0.13890(7) 0.9283(3)
C18 C 0.97784(7) 0.18113(7) 1.0024(3)
H10 H 1.0034 0.1931 1.0716
C19 C 0.95481(6) 0.20559(6) 0.9738(2)
H11 H 0.9651 0.2345 1.0237
C20 C 0.96117(6) 0.27270(7) 0.6775(2)
H12 H 0.9615 0.2867 0.5772
H13 H 0.9643 0.2454 0.6608
H14 H 0.9870 0.2952 0.7411
H15 H 0.9402(6) 0.3373(8) 0.641(3)
loop_
_geom_bond_atom_site_label_1
_geom_bond_atom_site_label_2
_geom_bond_site_symmetry_1
_geom_bond_site_symmetry_2
Cl1 C17 1_555 1_555
O1 C1 1_555 1_555
O2 C7 1_555 1_555
C1 H1 1_555 1_555
C2 C1 1_555 1_555
H2 C2 1_555 1_555
C3 C2 1_555 1_555
H3 C3 1_555 1_555
C4 C3 1_555 1_555
C5 C4 1_555 1_555
C6 C5 1_555 1_555
C7 C6 1_555 1_555
C8 C7 1_555 1_555
C9 C4 1_555 1_555
C10 C9 1_555 1_555
H4 C10 1_555 1_555
C11 C10 1_555 1_555
H5 C11 1_555 1_555
C12 C11 1_555 1_555
H6 C12 1_555 1_555
C13 C8 1_555 1_555
H7 C13 1_555 1_555
C14 C5 1_555 1_555
C15 C14 1_555 1_555
H8 C15 1_555 1_555
C16 C15 1_555 1_555
H9 C16 1_555 1_555
C17 C16 1_555 1_555
C18 C17 1_555 1_555
H10 C18 1_555 1_555
C19 C14 1_555 1_555
H11 C19 1_555 1_555
C20 C6 1_555 1_555
H12 C20 1_555 1_555
H13 C20 1_555 1_555
H14 C20 1_555 1_555
H15 O2 1_555 1_555
C8 C9 1_555 1_555
C12 C13 1_555 1_555
C18 C19 1_555 1_555

#END
