
#######################################################################
#
#                 Cambridge Crystallographic Data Centre
#                                CCDC 
#
#######################################################################
#
# If this CIF has been generated from an entry in the Cambridge 
# Structural Database, then it will include bibliographic, chemical, 
# crystal, experimental, refinement or atomic coordinate data resulting 
# from the CCDC's data processing and validation procedures.
#
#######################################################################

data_LOQQIT
_chemical_formula_moiety         'C19 H18 O2'
_chemical_name_systematic        
(5-hydroxy-8,9,10,11-tetrahydro-7H-benzo[a]fluoren-11-yl)acetaldehyde
_symmetry_cell_setting           monoclinic
_symmetry_space_group_name_H-M   'C 2/c'
_symmetry_Int_Tables_number      15
_space_group_name_Hall           '-C 2yn'
loop_
_symmetry_equiv_pos_site_id
_symmetry_equiv_pos_as_xyz
1 x,y,z
2 -x,y,1/2-z
3 1/2+x,1/2+y,z
4 1/2-x,1/2+y,1/2-z
5 -x,-y,-z
6 x,-y,1/2+z
7 1/2-x,1/2-y,-z
8 1/2+x,1/2-y,1/2+z
_cell_length_a                   16.2911(17)
_cell_length_b                   9.4572(10)
_cell_length_c                   18.7276(19)
_cell_angle_alpha                90
_cell_angle_beta                 100.856(2)
_cell_angle_gamma                90
_cell_volume                     2833.69
_exptl_crystal_colour            colorless
_exptl_crystal_description       prismatic
_cell_formula_units_Z            8
loop_
_atom_site_label
_atom_site_type_symbol
_atom_site_fract_x
_atom_site_fract_y
_atom_site_fract_z
O1 O 0.20885(9) 0.57724(14) 0.10914(6)
H1 H 0.2127 0.6633 0.1054
O2 O 0.27889(8) 0.35490(14) 0.43201(7)
C1 C 0.15961(9) 0.39998(18) 0.17903(8)
C2 C 0.17003(11) 0.2974(2) 0.12687(9)
H2 H 0.1921 0.3241 0.0865
C3 C 0.14846(12) 0.1605(2) 0.13450(10)
H3 H 0.1543 0.0950 0.0988
C4 C 0.11753(12) 0.1174(2) 0.19561(10)
H4 H 0.1036 0.0230 0.2006
C5 C 0.10757(11) 0.21217(18) 0.24787(9)
H5 H 0.0876 0.1813 0.2886
C6 C 0.12707(9) 0.35733(17) 0.24154(8)
C7 C 0.17663(10) 0.54598(18) 0.16969(8)
C8 C 0.16022(10) 0.64608(18) 0.21735(8)
H6 H 0.1712 0.7410 0.2101
C9 C 0.12636(9) 0.60364(17) 0.27793(8)
C10 C 0.11213(9) 0.46244(17) 0.29072(8)
C11 C 0.07573(10) 0.44967(18) 0.35932(8)
H7 H 0.0198 0.4078 0.3473
C12 C 0.06847(10) 0.60266(19) 0.38029(8)
C13 C 0.09857(10) 0.68920(18) 0.33434(8)
C14 C 0.10009(12) 0.84643(18) 0.34119(9)
H8 H 0.0566 0.8869 0.3043
H9 H 0.1535 0.8821 0.3334
C15 C 0.08651(15) 0.8908(2) 0.41601(11)
H10 H 0.1372 0.8735 0.4513
H11 H 0.0750 0.9915 0.4158
C16 C 0.01460(14) 0.8111(2) 0.43845(12)
H12 H 0.0070 0.8445 0.4858
H13 H -0.0364 0.8307 0.4039
C17 C 0.02978(12) 0.6531(2) 0.44193(9)
H14 H 0.0663 0.6298 0.4875
H15 H -0.0229 0.6045 0.4406
C18 C 0.13058(11) 0.36123(18) 0.41994(9)
H16 H 0.1060 0.3628 0.4633
H17 H 0.1321 0.2638 0.4041
C19 C 0.21633(11) 0.41738(19) 0.43737(9)
H18 H 0.2225 0.5101 0.4541
loop_
_geom_bond_atom_site_label_1
_geom_bond_atom_site_label_2
_geom_bond_site_symmetry_1
_geom_bond_site_symmetry_2
O1 H1 1_555 1_555
O2 C19 1_555 1_555
C1 C2 1_555 1_555
C2 H2 1_555 1_555
C3 C2 1_555 1_555
H3 C3 1_555 1_555
C4 C3 1_555 1_555
H4 C4 1_555 1_555
C5 C4 1_555 1_555
H5 C5 1_555 1_555
C6 C1 1_555 1_555
C7 O1 1_555 1_555
C8 C7 1_555 1_555
H6 C8 1_555 1_555
C9 C8 1_555 1_555
C10 C6 1_555 1_555
C11 C10 1_555 1_555
H7 C11 1_555 1_555
C12 C11 1_555 1_555
C13 C9 1_555 1_555
C14 C13 1_555 1_555
H8 C14 1_555 1_555
H9 C14 1_555 1_555
C15 C14 1_555 1_555
H10 C15 1_555 1_555
H11 C15 1_555 1_555
C16 C15 1_555 1_555
H12 C16 1_555 1_555
H13 C16 1_555 1_555
C17 C12 1_555 1_555
H14 C17 1_555 1_555
H15 C17 1_555 1_555
C18 C11 1_555 1_555
H16 C18 1_555 1_555
H17 C18 1_555 1_555
C19 C18 1_555 1_555
H18 C19 1_555 1_555
C1 C7 1_555 1_555
C5 C6 1_555 1_555
C9 C10 1_555 1_555
C12 C13 1_555 1_555
C16 C17 1_555 1_555

#END
