
#######################################################################
#
#                 Cambridge Crystallographic Data Centre
#                                CCDC 
#
#######################################################################
#
# If this CIF has been generated from an entry in the Cambridge 
# Structural Database, then it will include bibliographic, chemical, 
# crystal, experimental, refinement or atomic coordinate data resulting 
# from the CCDC's data processing and validation procedures.
#
#######################################################################

data_LORMOV
_chemical_formula_moiety         'C9 H10 N2 O4 S1'
_chemical_name_systematic        
(4S,5S)-2-(2-Thienyl)-1,3-dioxolane-4,5-dicarboxamide
_symmetry_cell_setting           monoclinic
_symmetry_space_group_name_H-M   'P 21'
_symmetry_Int_Tables_number      4
_space_group_name_Hall           'P 2yb'
loop_
_symmetry_equiv_pos_site_id
_symmetry_equiv_pos_as_xyz
1 x,y,z
2 -x,1/2+y,-z
_cell_length_a                   8.9250(18)
_cell_length_b                   4.796(1)
_cell_length_c                   12.109(2)
_cell_angle_alpha                90
_cell_angle_beta                 90.60(3)
_cell_angle_gamma                90
_cell_volume                     518.289
_exptl_crystal_colour            colorless
_exptl_crystal_description       block
_cell_formula_units_Z            2
_exptl_crystal_recrystallization_method ethanol
loop_
_atom_site_label
_atom_site_type_symbol
_atom_site_fract_x
_atom_site_fract_y
_atom_site_fract_z
S1 S 0.14355(10) 0.3977(2) 0.03359(7)
O1 O 0.1962(2) 0.0273(4) 0.23675(15)
O2 O 0.4057(2) 0.2850(4) 0.21945(16)
O3 O 0.1404(2) 0.2632(5) 0.51056(16)
O4 O 0.5298(2) -0.1909(4) 0.3765(2)
N1 N 0.0403(3) 0.4070(7) 0.3492(2)
H1 H -0.0214 0.5180 0.3811
H2 H 0.0405 0.3944 0.2784
N2 N 0.6553(2) 0.2124(5) 0.39050(18)
H3 H 0.7383 0.1315 0.4079
H4 H 0.6516 0.3912 0.3856
C1 C 0.1625(4) 0.3760(10) -0.1056(3)
H5 H 0.1063 0.4803 -0.1558
C2 C 0.2684(4) 0.1899(10) -0.1349(3)
H6 H 0.2952 0.1552 -0.2076
C3 C 0.3340(4) 0.0537(9) -0.0427(2)
H7 H 0.4071 -0.0837 -0.0480
C4 C 0.2777(3) 0.1472(6) 0.0543(2)
C5 C 0.3239(3) 0.0656(6) 0.1672(2)
H8 H 0.3843 -0.1049 0.1653
C6 C 0.3965(3) 0.2327(6) 0.3351(2)
H9 H 0.3940 0.4094 0.3757
C7 C 0.2451(3) 0.0773(6) 0.3475(2)
H10 H 0.2605 -0.0999 0.3863
C8 C 0.1346(3) 0.2558(6) 0.4091(2)
C9 C 0.5335(3) 0.0618(6) 0.3713(2)
loop_
_geom_bond_atom_site_label_1
_geom_bond_atom_site_label_2
_geom_bond_site_symmetry_1
_geom_bond_site_symmetry_2
S1 C1 1_555 1_555
O1 C5 1_555 1_555
O2 C5 1_555 1_555
O3 C8 1_555 1_555
O4 C9 1_555 1_555
N1 H1 1_555 1_555
H2 N1 1_555 1_555
N2 H3 1_555 1_555
H4 N2 1_555 1_555
C1 H5 1_555 1_555
C2 C1 1_555 1_555
H6 C2 1_555 1_555
C3 C2 1_555 1_555
H7 C3 1_555 1_555
C4 S1 1_555 1_555
C5 C4 1_555 1_555
H8 C5 1_555 1_555
C6 O2 1_555 1_555
H9 C6 1_555 1_555
C7 O1 1_555 1_555
H10 C7 1_555 1_555
C8 N1 1_555 1_555
C9 N2 1_555 1_555
C3 C4 1_555 1_555
C6 C7 1_555 1_555
C6 C9 1_555 1_555
C7 C8 1_555 1_555

#END
