
#######################################################################
#
#                 Cambridge Crystallographic Data Centre
#                                CCDC 
#
#######################################################################
#
# If this CIF has been generated from an entry in the Cambridge 
# Structural Database, then it will include bibliographic, chemical, 
# crystal, experimental, refinement or atomic coordinate data resulting 
# from the CCDC's data processing and validation procedures.
#
#######################################################################

data_LORPAK
_chemical_name_common            
'Ethyl 3-amino-1-phenyl-1H-naphtho[2,1-b]pyran-2-carboxylate'
_chemical_formula_moiety         'C22 H19 N1 O3'
_chemical_name_systematic        
'Ethyl 3-amino-1-phenyl-1H-benzo[f]chromene-2-carboxylate'
_symmetry_cell_setting           monoclinic
_symmetry_space_group_name_H-M   'C c'
_symmetry_Int_Tables_number      9
_space_group_name_Hall           'C -2yc'
loop_
_symmetry_equiv_pos_site_id
_symmetry_equiv_pos_as_xyz
1 x,y,z
2 x,-y,1/2+z
3 1/2+x,1/2+y,z
4 1/2+x,1/2-y,1/2+z
_cell_length_a                   13.7835(5)
_cell_length_b                   14.6460(4)
_cell_length_c                   8.8713(2)
_cell_angle_alpha                90
_cell_angle_beta                 99.551(1)
_cell_angle_gamma                90
_cell_volume                     1766.05
_exptl_crystal_colour            yellow
_exptl_crystal_description       block
_chemical_melting_point          '436-437 K'
_cell_formula_units_Z            4
_exptl_crystal_recrystallization_method dichloromethane/methanol
loop_
_atom_site_label
_atom_site_type_symbol
_atom_site_fract_x
_atom_site_fract_y
_atom_site_fract_z
O1 O 0.50000(10) 0.89966(8) 0.50000(13)
O2 O 0.57192(9) 0.73346(8) 0.07916(12)
O3 O 0.57203(10) 0.88667(8) 0.05998(13)
N1 N 0.54563(13) 0.98073(10) 0.31277(17)
H1 H 0.5480(18) 1.0271(12) 0.376(2)
H2 H 0.5641(18) 0.9858(18) 0.2234(17)
C1 C 0.53026(11) 0.72524(11) 0.36834(17)
H3 H 0.4968 0.6810 0.2908
C2 C 0.63064(12) 0.68559(10) 0.43558(18)
C3 C 0.66322(13) 0.60409(11) 0.3813(2)
H4 H 0.6228 0.5728 0.3004
C4 C 0.75447(14) 0.56763(13) 0.4441(3)
H5 H 0.7759 0.5118 0.4060
C5 C 0.81378(14) 0.61264(14) 0.5619(3)
H6 H 0.8756 0.5874 0.6056
C6 C 0.78287(14) 0.69460(15) 0.6159(2)
H7 H 0.8239 0.7260 0.6959
C7 C 0.69180(13) 0.73093(13) 0.5532(2)
H8 H 0.6711 0.7871 0.5908
C8 C 0.46549(12) 0.73777(11) 0.48933(17)
C9 C 0.41664(12) 0.66266(12) 0.54835(17)
C10 C 0.43046(13) 0.57101(12) 0.50594(18)
H9 H 0.4732 0.5580 0.4349
C11 C 0.38294(15) 0.50035(13) 0.5660(2)
H10 H 0.3941 0.4392 0.5378
C12 C 0.31800(14) 0.51858(14) 0.6691(2)
H11 H 0.2840 0.4698 0.7079
C13 C 0.30372(14) 0.60584(14) 0.7134(2)
H12 H 0.2601 0.6172 0.7837
C14 C 0.35287(12) 0.68005(13) 0.65636(19)
C15 C 0.34044(13) 0.77096(13) 0.7054(2)
H13 H 0.2974 0.7827 0.7764
C16 C 0.38932(14) 0.84127(13) 0.65223(19)
H14 H 0.3816 0.9018 0.6867
C17 C 0.45205(12) 0.82298(12) 0.54462(18)
C18 C 0.53012(12) 0.89655(11) 0.36102(17)
C19 C 0.53928(12) 0.81562(10) 0.28807(18)
C20 C 0.56246(12) 0.81763(10) 0.13523(18)
C21 C 0.59893(13) 0.72831(11) -0.07209(18)
H15 H 0.6644 0.7561 -0.0717
H16 H 0.5502 0.7611 -0.1475
C22 C 0.60081(17) 0.62865(13) -0.1116(2)
H17 H 0.5345 0.6031 -0.1183
H18 H 0.6459 0.5964 -0.0321
H19 H 0.6232 0.6214 -0.2101
loop_
_geom_bond_atom_site_label_1
_geom_bond_atom_site_label_2
_geom_bond_site_symmetry_1
_geom_bond_site_symmetry_2
O1 C17 1_555 1_555
O2 C20 1_555 1_555
O3 C20 1_555 1_555
N1 H1 1_555 1_555
H2 N1 1_555 1_555
C1 H3 1_555 1_555
C2 C1 1_555 1_555
C3 C2 1_555 1_555
H4 C3 1_555 1_555
C4 C3 1_555 1_555
H5 C4 1_555 1_555
C5 C4 1_555 1_555
H6 C5 1_555 1_555
C6 C5 1_555 1_555
H7 C6 1_555 1_555
C7 C2 1_555 1_555
H8 C7 1_555 1_555
C8 C1 1_555 1_555
C9 C8 1_555 1_555
C10 C9 1_555 1_555
H9 C10 1_555 1_555
C11 C10 1_555 1_555
H10 C11 1_555 1_555
C12 C11 1_555 1_555
H11 C12 1_555 1_555
C13 C12 1_555 1_555
H12 C13 1_555 1_555
C14 C9 1_555 1_555
C15 C14 1_555 1_555
H13 C15 1_555 1_555
C16 C15 1_555 1_555
H14 C16 1_555 1_555
C17 C8 1_555 1_555
C18 O1 1_555 1_555
C19 C1 1_555 1_555
C20 C19 1_555 1_555
C21 O2 1_555 1_555
H15 C21 1_555 1_555
H16 C21 1_555 1_555
C22 C21 1_555 1_555
H17 C22 1_555 1_555
H18 C22 1_555 1_555
H19 C22 1_555 1_555
N1 C18 1_555 1_555
C6 C7 1_555 1_555
C13 C14 1_555 1_555
C16 C17 1_555 1_555
C18 C19 1_555 1_555

#END
