
#######################################################################
#
#                 Cambridge Crystallographic Data Centre
#                                CCDC 
#
#######################################################################
#
# If this CIF has been generated from an entry in the Cambridge 
# Structural Database, then it will include bibliographic, chemical, 
# crystal, experimental, refinement or atomic coordinate data resulting 
# from the CCDC's data processing and validation procedures.
#
#######################################################################

data_LORRAN
_chemical_formula_moiety         'C25 H20 N2 O4 S1'
_chemical_name_systematic        
9a-methyl-9-phenyl-4-(phenylsulfonyl)-3a,4,9,9a-tetrahydro[1,3]oxazolo[4',5':4,5]cyclopenta[1,2-b]indol-2(1H)-one
_symmetry_cell_setting           orthorhombic
_symmetry_space_group_name_H-M   'P 21 21 21'
_symmetry_Int_Tables_number      19
_space_group_name_Hall           'P 2ac 2ab'
loop_
_symmetry_equiv_pos_site_id
_symmetry_equiv_pos_as_xyz
1 x,y,z
2 1/2-x,-y,1/2+z
3 1/2+x,1/2-y,-z
4 -x,1/2+y,1/2-z
_cell_length_a                   8.356(2)
_cell_length_b                   8.723(2)
_cell_length_c                   29.093(8)
_cell_angle_alpha                90
_cell_angle_beta                 90
_cell_angle_gamma                90
_cell_volume                     2120.57
_exptl_crystal_colour            colorless
_exptl_crystal_description       block
_cell_formula_units_Z            4
loop_
_atom_site_label
_atom_site_type_symbol
_atom_site_fract_x
_atom_site_fract_y
_atom_site_fract_z
S1 S 0.34045(9) 0.76408(8) 0.06645(3)
O1 O 0.1005(4) 0.6001(4) 0.24659(9)
O2 O 0.1248(3) 0.6184(3) 0.16975(9)
O3 O 0.3683(3) 0.8061(3) 0.02002(9)
O4 O 0.2063(3) 0.8244(3) 0.09137(9)
N1 N 0.0554(4) 0.3928(4) 0.19906(10)
H1 H 0.0363 0.3250 0.2198
N2 N 0.3129(3) 0.5738(3) 0.06591(9)
C1 C 0.4121(4) 0.3280(3) 0.06878(10)
C2 C 0.5119(4) 0.2064(4) 0.05603(12)
H2 H 0.5018 0.1109 0.0699
C3 C 0.6261(4) 0.2312(4) 0.02225(13)
H3 H 0.6938 0.1518 0.0135
C4 C 0.6400(5) 0.3752(4) 0.00118(12)
H4 H 0.7170 0.3889 -0.0215
C5 C 0.5433(4) 0.4975(4) 0.01297(11)
H5 H 0.5538 0.5925 -0.0012
C6 C 0.4293(4) 0.4723(4) 0.04711(11)
C7 C 0.2313(4) 0.4901(4) 0.10070(10)
C8 C 0.2824(4) 0.3438(4) 0.10147(10)
C9 C 0.1882(4) 0.2440(4) 0.13297(10)
H6 H 0.1384 0.1629 0.1146
C10 C 0.0503(4) 0.3577(4) 0.15006(11)
C11 C 0.0928(4) 0.5398(5) 0.20939(12)
C12 C 0.0891(4) 0.5200(4) 0.13010(11)
H7 H -0.0005 0.5603 0.1121
C13 C -0.1147(5) 0.3026(5) 0.13487(16)
H8 H -0.1378 0.2059 0.1491
H9 H -0.1162 0.2909 0.1021
H10 H -0.1939 0.3765 0.1439
C14 C 0.2861(4) 0.1686(4) 0.17079(11)
C15 C 0.2177(5) 0.0499(4) 0.19671(12)
H11 H 0.1145 0.0167 0.1900
C16 C 0.3020(5) -0.0182(5) 0.23214(14)
H12 H 0.2536 -0.0939 0.2499
C17 C 0.4588(6) 0.0258(5) 0.24141(13)
H13 H 0.5162 -0.0209 0.2649
C18 C 0.5283(5) 0.1405(4) 0.21503(13)
H14 H 0.6336 0.1697 0.2206
C19 C 0.4415(4) 0.2124(4) 0.18023(12)
H15 H 0.4887 0.2905 0.1632
C20 C 0.5190(4) 0.7886(3) 0.09795(11)
C21 C 0.5146(4) 0.7727(4) 0.14521(12)
H16 H 0.4194 0.7512 0.1604
C22 C 0.6589(5) 0.7902(4) 0.16951(13)
H17 H 0.6602 0.7787 0.2013
C23 C 0.7998(4) 0.8247(4) 0.14621(14)
H18 H 0.8945 0.8365 0.1626
C24 C 0.8004(4) 0.8415(4) 0.09938(14)
H19 H 0.8954 0.8652 0.0843
C25 C 0.6601(4) 0.8234(4) 0.07410(11)
H20 H 0.6601 0.8341 0.0423
loop_
_geom_bond_atom_site_label_1
_geom_bond_atom_site_label_2
_geom_bond_site_symmetry_1
_geom_bond_site_symmetry_2
S1 O3 1_555 1_555
O1 C11 1_555 1_555
O2 C11 1_555 1_555
O4 S1 1_555 1_555
N1 H1 1_555 1_555
N2 S1 1_555 1_555
C1 C2 1_555 1_555
C2 H2 1_555 1_555
C3 C2 1_555 1_555
H3 C3 1_555 1_555
C4 C3 1_555 1_555
H4 C4 1_555 1_555
C5 C4 1_555 1_555
H5 C5 1_555 1_555
C6 N2 1_555 1_555
C7 N2 1_555 1_555
C8 C1 1_555 1_555
C9 C8 1_555 1_555
H6 C9 1_555 1_555
C10 N1 1_555 1_555
C11 N1 1_555 1_555
C12 O2 1_555 1_555
H7 C12 1_555 1_555
C13 C10 1_555 1_555
H8 C13 1_555 1_555
H9 C13 1_555 1_555
H10 C13 1_555 1_555
C14 C9 1_555 1_555
C15 C14 1_555 1_555
H11 C15 1_555 1_555
C16 C15 1_555 1_555
H12 C16 1_555 1_555
C17 C16 1_555 1_555
H13 C17 1_555 1_555
C18 C17 1_555 1_555
H14 C18 1_555 1_555
C19 C14 1_555 1_555
H15 C19 1_555 1_555
C20 S1 1_555 1_555
C21 C20 1_555 1_555
H16 C21 1_555 1_555
C22 C21 1_555 1_555
H17 C22 1_555 1_555
C23 C22 1_555 1_555
H18 C23 1_555 1_555
C24 C23 1_555 1_555
H19 C24 1_555 1_555
C25 C20 1_555 1_555
H20 C25 1_555 1_555
C1 C6 1_555 1_555
C5 C6 1_555 1_555
C7 C8 1_555 1_555
C7 C12 1_555 1_555
C9 C10 1_555 1_555
C10 C12 1_555 1_555
C18 C19 1_555 1_555
C24 C25 1_555 1_555

#END
