
#######################################################################
#
#                 Cambridge Crystallographic Data Centre
#                                CCDC 
#
#######################################################################
#
# If this CIF has been generated from an entry in the Cambridge 
# Structural Database, then it will include bibliographic, chemical, 
# crystal, experimental, refinement or atomic coordinate data resulting 
# from the CCDC's data processing and validation procedures.
#
#######################################################################

data_LORVUJ
_chemical_formula_moiety         'C49 H78 Cl1 N1 P2 Si1'
_chemical_name_systematic        
N-(t-butyl(dimethylsilyl))-N-((2,4,6-tri-t-butylphenylphosphinylidene)(2,4,6-tri-t-butylphenylphosphino)methyl)-p-chloroaniline
_symmetry_cell_setting           monoclinic
_symmetry_space_group_name_H-M   'P 21/n'
_symmetry_Int_Tables_number      14
_space_group_name_Hall           '-P 2yn'
loop_
_symmetry_equiv_pos_site_id
_symmetry_equiv_pos_as_xyz
1 x,y,z
2 1/2+x,1/2-y,1/2+z
3 -x,-y,-z
4 1/2-x,1/2+y,1/2-z
_cell_length_a                   10.319(3)
_cell_length_b                   23.309(5)
_cell_length_c                   21.41(1)
_cell_angle_alpha                90
_cell_angle_beta                 99.64(5)
_cell_angle_gamma                90
_cell_volume                     5076.94
_exptl_crystal_colour            green
_exptl_crystal_description       prismatic
_cell_formula_units_Z            4
loop_
_atom_site_label
_atom_site_type_symbol
_atom_site_fract_x
_atom_site_fract_y
_atom_site_fract_z
Cl1 Cl 0.8874(1) 0.26367(6) 0.56025(8)
P1 P 0.4687(1) 0.12593(4) 0.72697(5)
P2 P 0.4404(1) 0.20527(5) 0.83494(5)
Si1 Si 0.3743(1) 0.31260(5) 0.72613(5)
N1 N 0.4679(3) 0.2493(1) 0.7194(1)
C1 C 0.4612(3) 0.1953(2) 0.7506(2)
C2 C 0.4886(4) 0.1195(2) 0.6420(2)
C3 C 0.6132(4) 0.1029(2) 0.6279(2)
C4 C 0.6307(4) 0.1049(2) 0.5648(2)
C5 C 0.5324(5) 0.1173(2) 0.5151(2)
C6 C 0.4099(4) 0.1247(2) 0.5293(2)
C7 C 0.3817(4) 0.1245(2) 0.5912(2)
C8 C 0.7263(4) 0.0768(2) 0.6767(2)
C9 C 0.8363(5) 0.0511(3) 0.6448(3)
C10 C 0.7886(5) 0.1196(3) 0.7257(3)
C11 C 0.6765(5) 0.0259(2) 0.7104(2)
C12 C 0.5579(6) 0.1174(3) 0.4463(2)
C13 C 0.455(1) 0.1444(6) 0.4045(3)
C14 C 0.574(1) 0.0565(3) 0.4276(3)
C15 C 0.681(1) 0.1468(5) 0.4414(3)
C16 C 0.2351(4) 0.1236(2) 0.5991(2)
C17 C 0.1406(5) 0.1188(2) 0.5357(2)
C18 C 0.2115(4) 0.0697(2) 0.6373(2)
C19 C 0.1944(4) 0.1773(2) 0.6313(2)
C20 C 0.4787(4) 0.1341(2) 0.8724(2)
C21 C 0.3773(4) 0.0927(2) 0.8688(2)
C22 C 0.4149(4) 0.0353(2) 0.8750(2)
C23 C 0.5434(4) 0.0179(2) 0.8877(2)
C24 C 0.6384(4) 0.0602(2) 0.9024(2)
C25 C 0.6090(4) 0.1184(2) 0.8975(2)
C26 C 0.2294(4) 0.1075(2) 0.8644(2)
C27 C 0.2122(4) 0.1518(2) 0.9151(2)
C28 C 0.1663(4) 0.1295(3) 0.7990(2)
C29 C 0.1502(5) 0.0545(2) 0.8791(3)
C30 C 0.5790(5) -0.0462(2) 0.8909(2)
C31 C 0.5229(6) -0.0738(2) 0.8275(2)
C32 C 0.5143(6) -0.0739(2) 0.9434(2)
C33 C 0.7240(6) -0.0569(2) 0.9041(3)
C34 C 0.7198(4) 0.1614(2) 0.9257(2)
C35 C 0.6655(4) 0.2056(2) 0.9673(2)
C36 C 0.7855(5) 0.1906(2) 0.8748(2)
C37 C 0.8313(4) 0.1304(2) 0.9698(2)
C38 C 0.3241(6) 0.3418(2) 0.6448(2)
C39 C 0.2199(4) 0.2958(2) 0.7546(2)
C40 C 0.4660(5) 0.3721(2) 0.7758(2)
C41 C 0.5740(7) 0.3966(3) 0.7423(4)
C42 C 0.3700(6) 0.4208(2) 0.7805(3)
C43 C 0.5251(7) 0.3548(2) 0.8412(3)
C44 C 0.5680(4) 0.2531(2) 0.6799(2)
C45 C 0.6982(4) 0.2596(2) 0.7071(2)
C46 C 0.7961(4) 0.2640(2) 0.6708(3)
C47 C 0.7628(5) 0.2613(2) 0.6057(3)
C48 C 0.6365(5) 0.2563(2) 0.5785(2)
C49 C 0.5377(4) 0.2518(2) 0.6146(2)
H1 H 0.7087 0.1008 0.5562
H2 H 0.3320 0.1253 0.4979
H3 H 0.7985 0.0240 0.6129
H4 H 0.8796 0.0801 0.6257
H5 H 0.8977 0.0310 0.6754
H6 H 0.8358 0.1477 0.7063
H7 H 0.8469 0.1006 0.7581
H8 H 0.7217 0.1385 0.7440
H9 H 0.7518 0.0037 0.7380
H10 H 0.6089 0.0338 0.7334
H11 H 0.6315 0.0002 0.6815
H12 H 0.3873 0.1603 0.4278
H13 H 0.4003 0.1135 0.3777
H14 H 0.4763 0.1709 0.3773
H15 H 0.6075 0.0340 0.4673
H16 H 0.4986 0.0399 0.4082
H17 H 0.6437 0.0532 0.4030
H18 H 0.6972 0.1455 0.3996
H19 H 0.7497 0.1340 0.4707
H20 H 0.6669 0.1885 0.4505
H21 H 0.1476 0.1516 0.5099
H22 H 0.1663 0.0892 0.5132
H23 H 0.0450 0.1234 0.5479
H24 H 0.2247 0.0416 0.6153
H25 H 0.1153 0.0674 0.6383
H26 H 0.2682 0.0688 0.6789
H27 H 0.1068 0.1775 0.6380
H28 H 0.2534 0.1845 0.6751
H29 H 0.2019 0.2094 0.6113
H30 H 0.3443 0.0080 0.8680
H31 H 0.7221 0.0505 0.9162
H32 H 0.1225 0.1599 0.9116
H33 H 0.2542 0.1380 0.9586
H34 H 0.2620 0.1840 0.9113
H35 H 0.2180 0.1610 0.7872
H36 H 0.0802 0.1446 0.8016
H37 H 0.1599 0.1007 0.7690
H38 H 0.1445 0.0310 0.8449
H39 H 0.0714 0.0661 0.8816
H40 H 0.1905 0.0313 0.9220
H41 H 0.5656 -0.0580 0.7951
H42 H 0.4316 -0.0664 0.8176
H43 H 0.5380 -0.1139 0.8298
H44 H 0.4025 -0.0728 0.9356
H45 H 0.5242 -0.1192 0.9416
H46 H 0.5524 -0.0545 0.9829
H47 H 0.7338 -0.0932 0.9037
H48 H 0.7668 -0.0434 0.9427
H49 H 0.7841 -0.0388 0.8746
H50 H 0.6284 0.1880 1.0027
H51 H 0.5851 0.2269 0.9493
H52 H 0.7290 0.2272 0.9834
H53 H 0.8144 0.1630 0.8558
H54 H 0.7201 0.2045 0.8370
H55 H 0.8430 0.2188 0.8925
H56 H 0.8907 0.1552 0.9895
H57 H 0.7865 0.1095 1.0001
H58 H 0.8909 0.1028 0.9455
H59 H 0.2824 0.3135 0.6159
H60 H 0.3953 0.3474 0.6272
H61 H 0.2783 0.3758 0.6488
H62 H 0.1579 0.3215 0.7443
H63 H 0.2287 0.2929 0.7955
H64 H 0.1755 0.2657 0.7345
H65 H 0.6325 0.3670 0.7346
H66 H 0.5317 0.4108 0.7005
H67 H 0.6181 0.4267 0.7646
H68 H 0.3328 0.4332 0.7389
H69 H 0.4141 0.4521 0.8033
H70 H 0.3016 0.4077 0.8016
H71 H 0.5621 0.3865 0.8651
H72 H 0.4572 0.3385 0.8622
H73 H 0.5903 0.3261 0.8402
H74 H 0.7182 0.2623 0.7496
H75 H 0.8850 0.2655 0.6928
H76 H 0.6190 0.2576 0.5387
H77 H 0.4472 0.2434 0.5947
H78 H 0.5634 0.2260 0.8486
loop_
_geom_bond_atom_site_label_1
_geom_bond_atom_site_label_2
_geom_bond_site_symmetry_1
_geom_bond_site_symmetry_2
Cl1 C47 1_555 1_555
P1 C1 1_555 1_555
P2 C1 1_555 1_555
Si1 N1 1_555 1_555
N1 C1 1_555 1_555
C2 P1 1_555 1_555
C3 C2 1_555 1_555
C4 C3 1_555 1_555
C5 C4 1_555 1_555
C6 C5 1_555 1_555
C7 C2 1_555 1_555
C8 C3 1_555 1_555
C9 C8 1_555 1_555
C10 C8 1_555 1_555
C11 C8 1_555 1_555
C12 C5 1_555 1_555
C13 C12 1_555 1_555
C14 C12 1_555 1_555
C15 C12 1_555 1_555
C16 C7 1_555 1_555
C17 C16 1_555 1_555
C18 C16 1_555 1_555
C19 C16 1_555 1_555
C20 P2 1_555 1_555
C21 C20 1_555 1_555
C22 C21 1_555 1_555
C23 C22 1_555 1_555
C24 C23 1_555 1_555
C25 C20 1_555 1_555
C26 C21 1_555 1_555
C27 C26 1_555 1_555
C28 C26 1_555 1_555
C29 C26 1_555 1_555
C30 C23 1_555 1_555
C31 C30 1_555 1_555
C32 C30 1_555 1_555
C33 C30 1_555 1_555
C34 C25 1_555 1_555
C35 C34 1_555 1_555
C36 C34 1_555 1_555
C37 C34 1_555 1_555
C38 Si1 1_555 1_555
C39 Si1 1_555 1_555
C40 Si1 1_555 1_555
C41 C40 1_555 1_555
C42 C40 1_555 1_555
C43 C40 1_555 1_555
C44 N1 1_555 1_555
C45 C44 1_555 1_555
C46 C45 1_555 1_555
C47 C46 1_555 1_555
C48 C47 1_555 1_555
C49 C44 1_555 1_555
H1 C4 1_555 1_555
H2 C6 1_555 1_555
H3 C9 1_555 1_555
H4 C9 1_555 1_555
H5 C9 1_555 1_555
H6 C10 1_555 1_555
H7 C10 1_555 1_555
H8 C10 1_555 1_555
H9 C11 1_555 1_555
H10 C11 1_555 1_555
H11 C11 1_555 1_555
H12 C13 1_555 1_555
H13 C13 1_555 1_555
H14 C13 1_555 1_555
H15 C14 1_555 1_555
H16 C14 1_555 1_555
H17 C14 1_555 1_555
H18 C15 1_555 1_555
H19 C15 1_555 1_555
H20 C15 1_555 1_555
H21 C17 1_555 1_555
H22 C17 1_555 1_555
H23 C17 1_555 1_555
H24 C18 1_555 1_555
H25 C18 1_555 1_555
H26 C18 1_555 1_555
H27 C19 1_555 1_555
H28 C19 1_555 1_555
H29 C19 1_555 1_555
H30 C22 1_555 1_555
H31 C24 1_555 1_555
H32 C27 1_555 1_555
H33 C27 1_555 1_555
H34 C27 1_555 1_555
H35 C28 1_555 1_555
H36 C28 1_555 1_555
H37 C28 1_555 1_555
H38 C29 1_555 1_555
H39 C29 1_555 1_555
H40 C29 1_555 1_555
H41 C31 1_555 1_555
H42 C31 1_555 1_555
H43 C31 1_555 1_555
H44 C32 1_555 1_555
H45 C32 1_555 1_555
H46 C32 1_555 1_555
H47 C33 1_555 1_555
H48 C33 1_555 1_555
H49 C33 1_555 1_555
H50 C35 1_555 1_555
H51 C35 1_555 1_555
H52 C35 1_555 1_555
H53 C36 1_555 1_555
H54 C36 1_555 1_555
H55 C36 1_555 1_555
H56 C37 1_555 1_555
H57 C37 1_555 1_555
H58 C37 1_555 1_555
H59 C38 1_555 1_555
H60 C38 1_555 1_555
H61 C38 1_555 1_555
H62 C39 1_555 1_555
H63 C39 1_555 1_555
H64 C39 1_555 1_555
H65 C41 1_555 1_555
H66 C41 1_555 1_555
H67 C41 1_555 1_555
H68 C42 1_555 1_555
H69 C42 1_555 1_555
H70 C42 1_555 1_555
H71 C43 1_555 1_555
H72 C43 1_555 1_555
H73 C43 1_555 1_555
H74 C45 1_555 1_555
H75 C46 1_555 1_555
H76 C48 1_555 1_555
H77 C49 1_555 1_555
H78 P2 1_555 1_555
C6 C7 1_555 1_555
C24 C25 1_555 1_555
C48 C49 1_555 1_555

#END
