
#######################################################################
#
#                 Cambridge Crystallographic Data Centre
#                                CCDC 
#
#######################################################################
#
# If this CIF has been generated from an entry in the Cambridge 
# Structural Database, then it will include bibliographic, chemical, 
# crystal, experimental, refinement or atomic coordinate data resulting 
# from the CCDC's data processing and validation procedures.
#
#######################################################################

data_LORVOD
_chemical_formula_moiety         'C25 H33 Cl1 N1 P1'
_chemical_name_systematic        
1-(p-Chlorophenyl)-3-(2,4,6-tri-t-butylphenyl)-1-aza-3-phosphaallene
_symmetry_cell_setting           monoclinic
_symmetry_space_group_name_H-M   'P 21/n'
_symmetry_Int_Tables_number      14
_space_group_name_Hall           '-P 2yn'
loop_
_symmetry_equiv_pos_site_id
_symmetry_equiv_pos_as_xyz
1 x,y,z
2 1/2-x,1/2+y,1/2-z
3 -x,-y,-z
4 1/2+x,1/2-y,1/2+z
_cell_length_a                   15.200(6)
_cell_length_b                   9.982(6)
_cell_length_c                   15.868(6)
_cell_angle_alpha                90
_cell_angle_beta                 99.47(3)
_cell_angle_gamma                90
_cell_volume                     2374.78
_exptl_crystal_colour            orange
_cell_formula_units_Z            4
_exptl_crystal_recrystallization_method hexane
loop_
_atom_site_label
_atom_site_type_symbol
_atom_site_fract_x
_atom_site_fract_y
_atom_site_fract_z
Cl1 Cl 0.4756(1) 0.9473(2) 0.3329(1)
P1 P 0.68318(7) 0.2391(1) 0.52077(8)
N1 N 0.6527(2) 0.5154(4) 0.5503(2)
C1 C 0.6694(3) 0.4008(5) 0.5325(3)
C2 C 0.8029(2) 0.2364(4) 0.5091(3)
C3 C 0.8279(3) 0.2419(4) 0.4269(3)
C4 C 0.9182(3) 0.2504(4) 0.4236(3)
C5 C 0.9844(2) 0.2524(4) 0.4938(3)
C6 C 0.9577(3) 0.2376(4) 0.5730(3)
C7 C 0.8692(3) 0.2271(4) 0.5831(3)
C8 C 0.6112(3) 0.6174(5) 0.4951(3)
C9 C 0.6247(3) 0.7484(5) 0.5208(3)
C10 C 0.5838(3) 0.8503(5) 0.4702(3)
C11 C 0.5282(3) 0.8195(5) 0.3956(3)
C12 C 0.5123(3) 0.6893(6) 0.3701(3)
C13 C 0.5542(3) 0.5876(5) 0.4203(3)
C14 C 0.7625(3) 0.2345(5) 0.3411(3)
C15 C 0.7074(3) 0.3625(6) 0.3250(3)
C16 C 0.8124(3) 0.2205(6) 0.2645(3)
C17 C 0.7017(3) 0.1121(6) 0.3382(3)
C18 C 1.0834(3) 0.2654(4) 0.4879(3)
C19 C 1.1245(3) 0.3812(7) 0.5414(4)
C20 C 1.1314(3) 0.1382(6) 0.5222(4)
C21 C 1.0998(3) 0.2858(8) 0.3977(4)
C22 C 0.8513(3) 0.2044(5) 0.6755(3)
C23 C 0.8100(3) 0.3274(6) 0.7099(3)
C24 C 0.7921(4) 0.0811(6) 0.6805(3)
C25 C 0.9374(3) 0.1750(7) 0.7381(3)
H1 H 0.93588 0.25691 0.36825
H2 H 1.00356 0.23692 0.62231
H3 H 0.66329 0.76776 0.57533
H4 H 0.59415 0.94437 0.48692
H5 H 0.47288 0.66875 0.31697
H6 H 0.54294 0.49358 0.40370
H7 H 0.74593 0.43755 0.32182
H8 H 0.66677 0.35604 0.27277
H9 H 0.67442 0.37821 0.37049
H10 H 0.84890 0.14052 0.26928
H11 H 0.77194 0.21439 0.21125
H12 H 0.85132 0.29519 0.26052
H13 H 0.66914 0.11277 0.38520
H14 H 0.66172 0.10653 0.28659
H15 H 0.73804 0.03089 0.34431
H16 H 1.18642 0.38925 0.54142
H17 H 1.09592 0.46448 0.52429
H18 H 1.11709 0.36868 0.60187
H19 H 1.12466 0.12398 0.58209
H20 H 1.10786 0.06084 0.49148
H21 H 1.19386 0.14326 0.52135
H22 H 1.16221 0.29494 0.39480
H23 H 1.07762 0.21161 0.36088
H24 H 1.07041 0.36545 0.37201
H25 H 0.84993 0.40343 0.71166
H26 H 0.75525 0.35251 0.67376
H27 H 0.79789 0.31336 0.76605
H28 H 0.78109 0.06572 0.73755
H29 H 0.73593 0.08774 0.64359
H30 H 0.82097 -0.00019 0.66365
H31 H 0.92857 0.16332 0.79508
H32 H 0.96832 0.09639 0.72144
H33 H 0.98066 0.24889 0.73827
loop_
_geom_bond_atom_site_label_1
_geom_bond_atom_site_label_2
_geom_bond_site_symmetry_1
_geom_bond_site_symmetry_2
Cl1 C11 1_555 1_555
P1 C1 1_555 1_555
N1 C1 1_555 1_555
C2 P1 1_555 1_555
C3 C2 1_555 1_555
C4 C3 1_555 1_555
C5 C4 1_555 1_555
C6 C5 1_555 1_555
C7 C2 1_555 1_555
C8 N1 1_555 1_555
C9 C8 1_555 1_555
C10 C9 1_555 1_555
C11 C10 1_555 1_555
C12 C11 1_555 1_555
C13 C8 1_555 1_555
C14 C3 1_555 1_555
C15 C14 1_555 1_555
C16 C14 1_555 1_555
C17 C14 1_555 1_555
C18 C5 1_555 1_555
C19 C18 1_555 1_555
C20 C18 1_555 1_555
C21 C18 1_555 1_555
C22 C7 1_555 1_555
C23 C22 1_555 1_555
C24 C22 1_555 1_555
C25 C22 1_555 1_555
H1 C4 1_555 1_555
H2 C6 1_555 1_555
H3 C9 1_555 1_555
H4 C10 1_555 1_555
H5 C12 1_555 1_555
H6 C13 1_555 1_555
H7 C15 1_555 1_555
H8 C15 1_555 1_555
H9 C15 1_555 1_555
H10 C16 1_555 1_555
H11 C16 1_555 1_555
H12 C16 1_555 1_555
H13 C17 1_555 1_555
H14 C17 1_555 1_555
H15 C17 1_555 1_555
H16 C19 1_555 1_555
H17 C19 1_555 1_555
H18 C19 1_555 1_555
H19 C20 1_555 1_555
H20 C20 1_555 1_555
H21 C20 1_555 1_555
H22 C21 1_555 1_555
H23 C21 1_555 1_555
H24 C21 1_555 1_555
H25 C23 1_555 1_555
H26 C23 1_555 1_555
H27 C23 1_555 1_555
H28 C24 1_555 1_555
H29 C24 1_555 1_555
H30 C24 1_555 1_555
H31 C25 1_555 1_555
H32 C25 1_555 1_555
H33 C25 1_555 1_555
C6 C7 1_555 1_555
C12 C13 1_555 1_555

#END
