
#######################################################################
#
#                 Cambridge Crystallographic Data Centre
#                                CCDC 
#
#######################################################################
#
# If this CIF has been generated from an entry in the Cambridge 
# Structural Database, then it will include bibliographic, chemical, 
# crystal, experimental, refinement or atomic coordinate data resulting 
# from the CCDC's data processing and validation procedures.
#
#######################################################################

data_LORXIB
_chemical_formula_moiety         'C30 H32 O6'
_chemical_name_systematic        
'diethyl 2-(diphenylmethyl)-5-(4-methoxyphenyl)dihydrofuran-3,3(2H)-dicarboxylate'
_symmetry_cell_setting           monoclinic
_symmetry_space_group_name_H-M   'P 21/n'
_symmetry_Int_Tables_number      14
_space_group_name_Hall           '-P 2yn'
loop_
_symmetry_equiv_pos_site_id
_symmetry_equiv_pos_as_xyz
1 x,y,z
2 1/2-x,1/2+y,1/2-z
3 -x,-y,-z
4 1/2+x,1/2-y,1/2+z
_cell_length_a                   13.9123(8)
_cell_length_b                   10.5089(6)
_cell_length_c                   18.3446(11)
_cell_angle_alpha                90
_cell_angle_beta                 100.079(3)
_cell_angle_gamma                90
_cell_volume                     2640.64
_exptl_crystal_colour            colorless
_exptl_crystal_description       block
_cell_formula_units_Z            4
loop_
_atom_site_label
_atom_site_type_symbol
_atom_site_fract_x
_atom_site_fract_y
_atom_site_fract_z
O1 O 0.27828(10) 0.15998(12) 0.06857(7)
O2 O 0.26986(10) 0.59117(11) 0.06124(6)
O3 O 0.11119(10) 0.25617(13) -0.02903(7)
O4 O 0.09037(10) 0.36380(15) 0.07193(8)
O5 O 0.30060(12) 1.00313(15) -0.18459(10)
O6 O 0.38333(12) 0.24861(14) 0.00461(9)
C1 C 0.24640(13) 0.37153(16) 0.02963(9)
C2 C 0.38736(12) 0.45095(16) 0.13424(9)
C3 C 0.40158(12) 0.34242(16) 0.18977(9)
C4 C 0.28076(13) 0.46757(16) 0.09440(9)
C5 C 0.42850(12) 0.57544(16) 0.16871(9)
C6 C 0.40290(14) 0.62468(19) 0.23227(10)
H1 H 0.3613 0.5790 0.2571
C7 C 0.27619(14) 0.90317(17) -0.14392(11)
C8 C 0.33338(14) 0.30756(19) 0.23316(10)
H2 H 0.2742 0.3507 0.2280
C9 C 0.31128(14) 0.25390(17) 0.03165(10)
C10 C 0.48891(15) 0.27636(19) 0.20008(12)
H3 H 0.5361 0.2986 0.1722
C11 C 0.49285(14) 0.64502(18) 0.13427(11)
H4 H 0.5119 0.6127 0.0918
C12 C 0.18409(15) 0.85206(18) -0.15090(11)
H5 H 0.1332 0.8858 -0.1851
C13 C 0.16708(15) 0.75005(19) -0.10685(11)
H6 H 0.1041 0.7178 -0.1112
C14 C 0.25065(16) 0.45462(18) -0.03870(10)
C15 C 0.14087(13) 0.33118(16) 0.02856(9)
C16 C 0.21748(15) 0.58221(19) -0.01314(10)
C17 C 0.23989(14) 0.69587(17) -0.05746(10)
C18 C 0.33299(16) 0.7469(2) -0.05096(11)
H7 H 0.3839 0.7107 -0.0178
C19 C 0.35142(15) 0.8509(2) -0.09310(12)
H8 H 0.4139 0.8854 -0.0873
C20 C 0.01570(15) 0.1973(2) -0.03520(12)
H9 H -0.0351 0.2579 -0.0542
H10 H 0.0051 0.1680 0.0129
C21 C 0.52881(17) 0.7604(2) 0.16159(13)
H11 H 0.5716 0.8056 0.1376
C22 C 0.43867(16) 0.7417(2) 0.25943(12)
H12 H 0.4200 0.7750 0.3018
C23 C 0.50171(17) 0.8087(2) 0.22382(14)
H13 H 0.5258 0.8870 0.2423
C24 C 0.35248(17) 0.2090(2) 0.28418(12)
H14 H 0.3061 0.1871 0.3129
C25 C 0.50806(18) 0.1780(2) 0.25081(14)
H15 H 0.5674 0.1351 0.2566
C26 C 0.01390(18) 0.0878(2) -0.08703(14)
H16 H -0.0483 0.0461 -0.0924
H17 H 0.0646 0.0288 -0.0676
H18 H 0.0243 0.1181 -0.1344
C27 C 0.43902(19) 0.1437(2) 0.29264(13)
H19 H 0.4510 0.0769 0.3263
C28 C 0.2765(2) -0.0570(2) 0.10266(18)
H20 H 0.3128 -0.1351 0.1080
H21 H 0.2173 -0.0687 0.0676
H22 H 0.2609 -0.0327 0.1497
C29 C 0.33507(17) 0.04269(19) 0.07638(15)
H23 H 0.3952 0.0549 0.1114
H24 H 0.3517 0.0186 0.0291
C30 C 0.2243(2) 1.0625(3) -0.2355(2)
H25 H 0.2353(13) 0.4584(16) 0.1307(10)
H26 H 0.4248(13) 0.4283(18) 0.0961(10)
H27 H 0.2055(16) 0.422(2) -0.0831(13)
H28 H 0.3146(18) 0.460(2) -0.0491(13)
H29 H 0.1407(14) 0.5812(19) -0.0133(10)
loop_
_geom_bond_atom_site_label_1
_geom_bond_atom_site_label_2
_geom_bond_site_symmetry_1
_geom_bond_site_symmetry_2
O1 C9 1_555 1_555
O2 C4 1_555 1_555
O3 C15 1_555 1_555
O4 C15 1_555 1_555
O5 C7 1_555 1_555
O6 C9 1_555 1_555
C1 C4 1_555 1_555
C2 C3 1_555 1_555
C3 C8 1_555 1_555
C4 C2 1_555 1_555
C5 C2 1_555 1_555
C6 C5 1_555 1_555
H1 C6 1_555 1_555
C7 C12 1_555 1_555
C8 H2 1_555 1_555
C9 C1 1_555 1_555
C10 C3 1_555 1_555
H3 C10 1_555 1_555
C11 C5 1_555 1_555
H4 C11 1_555 1_555
C12 H5 1_555 1_555
C13 C12 1_555 1_555
H6 C13 1_555 1_555
C14 C1 1_555 1_555
C15 C1 1_555 1_555
C16 O2 1_555 1_555
C17 C13 1_555 1_555
C18 C17 1_555 1_555
H7 C18 1_555 1_555
C19 C7 1_555 1_555
H8 C19 1_555 1_555
C20 O3 1_555 1_555
H9 C20 1_555 1_555
H10 C20 1_555 1_555
C21 C11 1_555 1_555
H11 C21 1_555 1_555
C22 C6 1_555 1_555
H12 C22 1_555 1_555
C23 C21 1_555 1_555
H13 C23 1_555 1_555
C24 C8 1_555 1_555
H14 C24 1_555 1_555
C25 C10 1_555 1_555
H15 C25 1_555 1_555
C26 C20 1_555 1_555
H16 C26 1_555 1_555
H17 C26 1_555 1_555
H18 C26 1_555 1_555
C27 C24 1_555 1_555
H19 C27 1_555 1_555
C28 H20 1_555 1_555
H21 C28 1_555 1_555
H22 C28 1_555 1_555
C29 O1 1_555 1_555
H23 C29 1_555 1_555
H24 C29 1_555 1_555
C30 O5 1_555 1_555
H25 C4 1_555 1_555
H26 C2 1_555 1_555
H27 C14 1_555 1_555
H28 C14 1_555 1_555
H29 C16 1_555 1_555
C14 C16 1_555 1_555
C16 C17 1_555 1_555
C18 C19 1_555 1_555
C22 C23 1_555 1_555
C25 C27 1_555 1_555
C28 C29 1_555 1_555

#END
