
#######################################################################
#
#                 Cambridge Crystallographic Data Centre
#                                CCDC 
#
#######################################################################
#
# If this CIF has been generated from an entry in the Cambridge 
# Structural Database, then it will include bibliographic, chemical, 
# crystal, experimental, refinement or atomic coordinate data resulting 
# from the CCDC's data processing and validation procedures.
#
#######################################################################

data_LORXOH
_chemical_formula_moiety         'C30 H32 O6'
_chemical_name_systematic        
'diethyl 2-hydroxy-4-(4-methoxyphenyl)-3,3-diphenylcyclopentane-1,1-dicarboxylate'
_symmetry_cell_setting           monoclinic
_symmetry_space_group_name_H-M   'P 21/n'
_symmetry_Int_Tables_number      14
_space_group_name_Hall           '-P 2yn'
loop_
_symmetry_equiv_pos_site_id
_symmetry_equiv_pos_as_xyz
1 x,y,z
2 1/2-x,1/2+y,1/2-z
3 -x,-y,-z
4 1/2+x,1/2-y,1/2+z
_cell_length_a                   19.1199(9)
_cell_length_b                   6.5447(3)
_cell_length_c                   21.9099(10)
_cell_angle_alpha                90
_cell_angle_beta                 113.059(2)
_cell_angle_gamma                90
_cell_volume                     2522.62
_exptl_crystal_colour            colorless
_exptl_crystal_description       block
_cell_formula_units_Z            4
loop_
_atom_site_label
_atom_site_type_symbol
_atom_site_fract_x
_atom_site_fract_y
_atom_site_fract_z
O1 O 0.08313(7) 0.1587(2) 0.36021(6)
O2 O 0.29037(7) -0.14980(17) 0.46910(7)
O3 O 0.14789(7) -0.12510(19) 0.54565(6)
O4 O 0.09758(8) -0.2545(2) 0.44299(6)
O5 O 0.17032(7) -0.06002(19) 0.35481(6)
O6 O 0.35974(8) 0.5141(2) 0.79926(6)
C1 C 0.16767(9) 0.2573(2) 0.49246(8)
H1 H 0.1490 0.2377 0.5273
H2 H 0.1318 0.3429 0.4584
C2 C 0.27880(9) 0.3931(2) 0.59576(8)
C3 C 0.17557(9) 0.0485(2) 0.46269(8)
C4 C 0.28677(9) 0.2910(2) 0.42355(8)
C5 C 0.11588(10) -0.2932(3) 0.57002(9)
H3 H 0.1435 -0.3061 0.6176
H4 H 0.1221 -0.4196 0.5496
C6 C 0.26967(10) 0.2575(3) 0.64105(8)
H5 H 0.2445 0.1344 0.6259
C7 C 0.23290(9) 0.4325(2) 0.38550(8)
H6 H 0.2008 0.4936 0.4028
C8 C 0.38208(9) 0.2422(3) 0.53788(8)
C9 C 0.24733(9) 0.3614(2) 0.52120(8)
H7 H 0.2419 0.4966 0.5006
C10 C 0.26316(9) 0.0144(2) 0.49470(8)
H8 H 0.2753 -0.0186 0.5414
C11 C 0.29752(9) 0.2291(2) 0.49442(8)
C12 C 0.33501(10) 0.4847(3) 0.73190(8)
C13 C 0.22655(10) 0.4835(3) 0.32212(8)
H9 H 0.1904 0.5787 0.2975
C14 C 0.14439(9) 0.0427(3) 0.38665(8)
C15 C 0.29723(10) 0.3022(3) 0.70802(9)
H10 H 0.2904 0.2093 0.7373
C16 C 0.31694(10) 0.5742(3) 0.62121(8)
H11 H 0.3238 0.6676 0.5921
C17 C 0.13502(9) -0.1274(2) 0.48126(8)
C18 C 0.34519(10) 0.6216(3) 0.68831(9)
H12 H 0.3707 0.7441 0.7036
C19 C 0.41960(10) 0.4265(3) 0.54036(9)
H13 H 0.3925 0.5378 0.5161
C20 C 0.32664(10) 0.2525(3) 0.33240(9)
H14 H 0.3581 0.1904 0.3145
C21 C 0.49648(11) 0.4462(4) 0.57832(10)
H15 H 0.5204 0.5710 0.5800
C22 C 0.04895(11) 0.1741(3) 0.28827(9)
H16 H 0.0209 0.0507 0.2690
H17 H 0.0878 0.1945 0.2707
C23 C 0.33359(9) 0.2024(3) 0.39574(8)
H18 H 0.3702 0.1079 0.4202
C24 C 0.03323(11) -0.2606(3) 0.55512(11)
H19 H 0.0142 -0.3737 0.5719
H20 H 0.0056 -0.2507 0.5080
H21 H 0.0270 -0.1367 0.5759
C25 C 0.50163(11) 0.0994(4) 0.61120(10)
H22 H 0.5292 -0.0119 0.6349
C26 C 0.27327(11) 0.3943(3) 0.29526(9)
H23 H 0.2690 0.4289 0.2528
C27 C 0.42423(10) 0.0786(3) 0.57370(9)
H24 H 0.4005 -0.0462 0.5727
C28 C 0.53783(11) 0.2821(4) 0.61369(10)
H25 H 0.5896 0.2950 0.6389
C29 C 0.39979(13) 0.6977(4) 0.82556(10)
H26 H 0.4139 0.7006 0.8727
H27 H 0.3678 0.8127 0.8057
H28 H 0.4447 0.7038 0.8161
C30 C -0.00333(14) 0.3536(4) 0.27279(12)
H29 H -0.0275 0.3706 0.2256
H30 H 0.0252 0.4743 0.2922
H31 H -0.0413 0.3312 0.2906
H32 H 0.2677(13) -0.147(4) 0.4266(12)
loop_
_geom_bond_atom_site_label_1
_geom_bond_atom_site_label_2
_geom_bond_site_symmetry_1
_geom_bond_site_symmetry_2
O1 C14 1_555 1_555
O2 C10 1_555 1_555
O3 C5 1_555 1_555
O4 C17 1_555 1_555
O5 C14 1_555 1_555
O6 C12 1_555 1_555
C1 H1 1_555 1_555
H2 C1 1_555 1_555
C2 C6 1_555 1_555
C3 C1 1_555 1_555
C4 C7 1_555 1_555
C5 H3 1_555 1_555
H4 C5 1_555 1_555
C6 H5 1_555 1_555
C7 H6 1_555 1_555
C8 C11 1_555 1_555
C9 C1 1_555 1_555
H7 C9 1_555 1_555
C10 C3 1_555 1_555
H8 C10 1_555 1_555
C11 C4 1_555 1_555
C12 C15 1_555 1_555
C13 C7 1_555 1_555
H9 C13 1_555 1_555
C14 C3 1_555 1_555
C15 C6 1_555 1_555
H10 C15 1_555 1_555
C16 C2 1_555 1_555
H11 C16 1_555 1_555
C17 O3 1_555 1_555
C18 C12 1_555 1_555
H12 C18 1_555 1_555
C19 C8 1_555 1_555
H13 C19 1_555 1_555
C20 H14 1_555 1_555
C21 C19 1_555 1_555
H15 C21 1_555 1_555
C22 O1 1_555 1_555
H16 C22 1_555 1_555
H17 C22 1_555 1_555
C23 C4 1_555 1_555
H18 C23 1_555 1_555
C24 C5 1_555 1_555
H19 C24 1_555 1_555
H20 C24 1_555 1_555
H21 C24 1_555 1_555
C25 H22 1_555 1_555
C26 C13 1_555 1_555
H23 C26 1_555 1_555
C27 C8 1_555 1_555
H24 C27 1_555 1_555
C28 C21 1_555 1_555
H25 C28 1_555 1_555
C29 O6 1_555 1_555
H26 C29 1_555 1_555
H27 C29 1_555 1_555
H28 C29 1_555 1_555
C30 C22 1_555 1_555
H29 C30 1_555 1_555
H30 C30 1_555 1_555
H31 C30 1_555 1_555
H32 O2 1_555 1_555
C2 C9 1_555 1_555
C3 C17 1_555 1_555
C9 C11 1_555 1_555
C10 C11 1_555 1_555
C16 C18 1_555 1_555
C20 C23 1_555 1_555
C20 C26 1_555 1_555
C25 C27 1_555 1_555
C25 C28 1_555 1_555

#END
