
#######################################################################
#
#                 Cambridge Crystallographic Data Centre
#                                CCDC 
#
#######################################################################
#
# If this CIF has been generated from an entry in the Cambridge 
# Structural Database, then it will include bibliographic, chemical, 
# crystal, experimental, refinement or atomic coordinate data resulting 
# from the CCDC's data processing and validation procedures.
#
#######################################################################

data_LORXEX
_chemical_formula_moiety         'C30 H30 O7'
_chemical_name_systematic        
'diethyl 4-(1,3-benzodioxol-5-yl)-2-hydroxy-3,3-diphenylcyclopentane-1,1-dicarboxylate'
_symmetry_cell_setting           orthorhombic
_symmetry_space_group_name_H-M   'P b c a'
_symmetry_Int_Tables_number      61
_space_group_name_Hall           '-P 2ac 2ab'
loop_
_symmetry_equiv_pos_site_id
_symmetry_equiv_pos_as_xyz
1 x,y,z
2 1/2-x,-y,1/2+z
3 1/2+x,1/2-y,-z
4 -x,1/2+y,1/2-z
5 -x,-y,-z
6 1/2+x,y,1/2-z
7 1/2-x,1/2+y,z
8 x,1/2-y,1/2+z
_cell_length_a                   18.938(3)
_cell_length_b                   13.6386(16)
_cell_length_c                   19.840(3)
_cell_angle_alpha                90
_cell_angle_beta                 90
_cell_angle_gamma                90
_cell_volume                     5124.43
_exptl_crystal_colour            colorless
_exptl_crystal_description       block
_cell_formula_units_Z            8
loop_
_atom_site_label
_atom_site_type_symbol
_atom_site_fract_x
_atom_site_fract_y
_atom_site_fract_z
O1 O 0.06243(9) 0.14808(11) 0.55359(8)
H1 H 0.0651 0.1210 0.5168
O2 O 0.13032(9) -0.01873(14) 0.49655(8)
O3 O 0.17936(10) 0.16609(14) 0.92574(9)
O4 O 0.10245(10) -0.18113(12) 0.59453(10)
O5 O -0.00451(10) -0.11561(13) 0.58269(10)
O6 O 0.10393(13) 0.08521(16) 0.99821(9)
O7 O 0.21607(10) 0.00795(16) 0.57213(10)
C1 C -0.03781(11) 0.16411(16) 0.68181(11)
C2 C 0.08920(11) 0.21255(15) 0.68758(11)
C3 C 0.11954(12) -0.01071(16) 0.68318(11)
H2 H 0.1279 -0.0769 0.6992
H3 H 0.1623 0.0276 0.6890
C4 C 0.06953(11) 0.04940(15) 0.79513(11)
C5 C 0.03820(11) 0.12676(15) 0.67480(10)
C6 C 0.13071(12) 0.11298(17) 0.88935(12)
C7 C 0.09586(11) -0.01104(15) 0.60932(11)
C8 C 0.05744(12) 0.03630(16) 0.72025(11)
C9 C 0.04395(12) 0.07842(15) 0.60332(10)
C10 C 0.12519(12) 0.10572(17) 0.82103(11)
H4 H 0.1572 0.1370 0.7927
C11 C 0.15410(12) 0.22330(18) 0.65583(12)
H5 H 0.1676 0.1782 0.6231
C12 C 0.08554(15) 0.06487(19) 0.93235(12)
C13 C 0.07201(13) 0.28076(17) 0.73680(13)
H6 H 0.0289 0.2756 0.7590
C14 C 0.02572(14) 0.00013(17) 0.83975(12)
H7 H -0.0103 -0.0386 0.8224
C15 C -0.08639(13) 0.12716(19) 0.72679(13)
H8 H -0.0730 0.0774 0.7561
C16 C 0.05738(13) -0.10726(17) 0.59369(11)
C17 C 0.19883(14) 0.2995(2) 0.67189(14)
H9 H 0.2418 0.3058 0.6496
C18 C 0.15585(14) -0.00519(17) 0.55858(12)
C19 C 0.11734(15) 0.35616(19) 0.75354(16)
H10 H 0.1050 0.4001 0.7874
C20 C 0.03332(16) 0.00612(19) 0.90931(13)
H11 H 0.0040 -0.0285 0.9385
C21 C -0.06001(13) 0.23913(18) 0.63972(13)
H12 H -0.0282 0.2663 0.6092
C22 C -0.15476(14) 0.1627(2) 0.72916(14)
H13 H -0.1867 0.1366 0.7599
C23 C -0.12840(13) 0.2744(2) 0.64212(16)
H14 H -0.1421 0.3246 0.6132
C24 C 0.18015(16) 0.3665(2) 0.72079(16)
H15 H 0.2101 0.4183 0.7313
C25 C -0.17579(14) 0.2363(2) 0.68635(15)
H16 H -0.2219 0.2598 0.6876
C26 C 0.15720(17) 0.1579(2) 0.99435(13)
H17 H 0.1969 0.1397 1.0226
H18 H 0.1389 0.2203 1.0101
C27 C 0.07477(18) -0.27862(19) 0.57856(19)
H19 H 0.0451 -0.2758 0.5388
H20 H 0.0469 -0.3035 0.6158
C28 C 0.17839(18) -0.0198(3) 0.44008(15)
H21 H 0.1557 -0.0518 0.4022
H22 H 0.2198 -0.0579 0.4520
C29 C 0.1359(2) -0.3424(3) 0.5664(2)
H23 H 0.1199 -0.4074 0.5558
H24 H 0.1649 -0.3445 0.6061
H25 H 0.1630 -0.3171 0.5294
C30 C 0.2003(2) 0.0776(3) 0.4200(2)
H26 H 0.2322 0.0730 0.3826
H27 H 0.2236 0.1092 0.4571
H28 H 0.1597 0.1152 0.4072
H29 H 0.0190(12) -0.0091(16) 0.7138(11)
H30 H -0.0031(11) 0.0498(14) 0.5919(10)
loop_
_geom_bond_atom_site_label_1
_geom_bond_atom_site_label_2
_geom_bond_site_symmetry_1
_geom_bond_site_symmetry_2
O1 H1 1_555 1_555
O2 C18 1_555 1_555
O3 C6 1_555 1_555
O4 C16 1_555 1_555
O5 C16 1_555 1_555
O6 C12 1_555 1_555
O7 C18 1_555 1_555
C1 C5 1_555 1_555
C2 C5 1_555 1_555
C3 H2 1_555 1_555
H3 C3 1_555 1_555
C4 C8 1_555 1_555
C5 C8 1_555 1_555
C6 C10 1_555 1_555
C7 C3 1_555 1_555
C8 C3 1_555 1_555
C9 O1 1_555 1_555
C10 C4 1_555 1_555
H4 C10 1_555 1_555
C11 C2 1_555 1_555
H5 C11 1_555 1_555
C12 C6 1_555 1_555
C13 C2 1_555 1_555
H6 C13 1_555 1_555
C14 C4 1_555 1_555
H7 C14 1_555 1_555
C15 C1 1_555 1_555
H8 C15 1_555 1_555
C16 C7 1_555 1_555
C17 C11 1_555 1_555
H9 C17 1_555 1_555
C18 C7 1_555 1_555
C19 C13 1_555 1_555
H10 C19 1_555 1_555
C20 C12 1_555 1_555
H11 C20 1_555 1_555
C21 C1 1_555 1_555
H12 C21 1_555 1_555
C22 C15 1_555 1_555
H13 C22 1_555 1_555
C23 C21 1_555 1_555
H14 C23 1_555 1_555
C24 C17 1_555 1_555
H15 C24 1_555 1_555
C25 C22 1_555 1_555
H16 C25 1_555 1_555
C26 O3 1_555 1_555
H17 C26 1_555 1_555
H18 C26 1_555 1_555
C27 O4 1_555 1_555
H19 C27 1_555 1_555
H20 C27 1_555 1_555
C28 O2 1_555 1_555
H21 C28 1_555 1_555
H22 C28 1_555 1_555
C29 C27 1_555 1_555
H23 C29 1_555 1_555
H24 C29 1_555 1_555
H25 C29 1_555 1_555
C30 C28 1_555 1_555
H26 C30 1_555 1_555
H27 C30 1_555 1_555
H28 C30 1_555 1_555
H29 C8 1_555 1_555
H30 C9 1_555 1_555
O6 C26 1_555 1_555
C5 C9 1_555 1_555
C7 C9 1_555 1_555
C14 C20 1_555 1_555
C19 C24 1_555 1_555
C23 C25 1_555 1_555

#END
