
#######################################################################
#
#                 Cambridge Crystallographic Data Centre
#                                CCDC 
#
#######################################################################
#
# If this CIF has been generated from an entry in the Cambridge 
# Structural Database, then it will include bibliographic, chemical, 
# crystal, experimental, refinement or atomic coordinate data resulting 
# from the CCDC's data processing and validation procedures.
#
#######################################################################

data_LORYUO
_chemical_formula_moiety         'C24 H26 N2 2+,0.5(C3 H6 O1),2(C1 F3 O3 S1 1-)'
_chemical_name_systematic        
"4,15-dimethyl-6,7,8,11,12,13-hexahydropyrido[2,1-a]pyrido[1',2':1,2]azepino[4,3-i][2]benzazepinediium bis(trifluoromethanesulfonate) acetone solvate"
_symmetry_cell_setting           triclinic
_symmetry_space_group_name_H-M   'P -1'
_symmetry_Int_Tables_number      2
_space_group_name_Hall           '-P 1'
loop_
_symmetry_equiv_pos_site_id
_symmetry_equiv_pos_as_xyz
1 x,y,z
2 -x,-y,-z
_cell_length_a                   9.0232(4)
_cell_length_b                   12.5214(6)
_cell_length_c                   14.3223(6)
_cell_angle_alpha                101.780(2)
_cell_angle_beta                 106.4230(10)
_cell_angle_gamma                101.248(2)
_cell_volume                     1463.38
_exptl_crystal_colour            colorless
_exptl_crystal_description       plate
_cell_formula_units_Z            2
loop_
_atom_site_label
_atom_site_type_symbol
_atom_site_fract_x
_atom_site_fract_y
_atom_site_fract_z
S1 S 0.18567(4) 0.17944(3) 0.66820(3)
O1 O 0.32804(14) 0.14460(10) 0.66621(9)
O2 O 0.07445(18) 0.10405(12) 0.69556(14)
O3 O 0.1178(2) 0.22241(17) 0.58573(10)
C25 C 0.26012(19) 0.30365(13) 0.77614(12)
F1 F 0.14528(14) 0.35166(9) 0.78825(9)
F2 F 0.3254(2) 0.27869(12) 0.86073(9)
F3 F 0.36999(16) 0.38215(10) 0.76541(13)
S2 S 0.87446(4) 0.67161(3) 0.79834(3)
O4 O 0.79547(17) 0.62912(13) 0.69083(10)
O5 O 1.04682(12) 0.70295(10) 0.83170(9)
O6 O 0.80705(14) 0.75050(10) 0.84858(12)
C26 C 0.82810(19) 0.54768(14) 0.84349(13)
F4 F 0.88558(19) 0.57237(13) 0.94306(10)
F5 F 0.88912(19) 0.46754(10) 0.80618(14)
F6 F 0.67114(13) 0.50205(11) 0.81557(11)
O7 O 0.6084(4) 0.3923(3) 0.4540(2)
C27 C 0.5399(4) 0.4577(3) 0.4845(2)
C28 C 0.5530(2) 0.56811(16) 0.45445(15)
H27 H 0.6643 0.6003 0.4600
H28 H 0.4872 0.5359 0.3828
H29 H 0.5917 0.6505 0.4689
O7A O 0.3916(4) 0.6077(3) 0.5460(2)
C27A C 0.4601(4) 0.5423(3) 0.5155(2)
C28A C 0.4470(2) 0.43189(16) 0.54555(15)
H27A H 0.3357 0.3997 0.5400
H28A H 0.5128 0.4641 0.6172
H29A H 0.4083 0.3495 0.5311
C1 C 0.66069(17) 0.88698(12) 0.66212(11)
H1 H 0.6468 0.8146 0.6745
C2 C 0.68022(18) 0.90011(13) 0.57215(11)
H2 H 0.6810 0.8370 0.5227
C3 C 0.69847(18) 1.00569(13) 0.55507(11)
H3 H 0.7102 1.0146 0.4930
C4 C 0.69992(17) 1.09866(12) 0.62696(11)
N1 N 0.67992(13) 1.08361(9) 0.71459(8)
C5 C 0.68487(16) 1.18097(11) 0.79610(10)
H4 H 0.6026 1.1570 0.8265
H5 H 0.6595 1.2429 0.7666
C6 C 0.84979(16) 1.22425(11) 0.87813(11)
H6 H 0.8418 1.2734 0.9391
H7 H 0.9248 1.2709 0.8539
C7 C 0.91793(16) 1.12756(12) 0.90701(11)
H8 H 0.9575 1.0929 0.8536
H9 H 1.0100 1.1587 0.9711
C8 C 0.79279(15) 1.03774(11) 0.91982(10)
C9 C 0.80506(16) 1.01832(11) 1.01357(10)
H10 H 0.8939 1.0627 1.0715
C10 C 0.68910(16) 0.93493(11) 1.02342(10)
H11 H 0.7024 0.9211 1.0877
C11 C 0.55384(15) 0.87103(11) 0.94141(10)
C12 C 0.42477(16) 0.78309(11) 0.95242(10)
H12 H 0.3208 0.8009 0.9280
H13 H 0.4484 0.7871 1.0251
C13 C 0.40942(17) 0.66183(12) 0.89378(11)
H14 H 0.4954 0.6335 0.9326
H15 H 0.3050 0.6119 0.8869
C14 C 0.42117(16) 0.65616(11) 0.78903(10)
H16 H 0.5345 0.6868 0.7956
H17 H 0.3856 0.5760 0.7482
N2 N 0.32132(13) 0.72137(9) 0.73561(8)
C15 C 0.17445(16) 0.66800(12) 0.66467(10)
C16 C 0.08921(17) 0.73167(13) 0.61352(10)
H18 H -0.0119 0.6952 0.5622
C17 C 0.14964(17) 0.84741(13) 0.63630(11)
H19 H 0.0908 0.8906 0.6010
C18 C 0.29757(16) 0.90007(12) 0.71148(10)
H20 H 0.3395 0.9799 0.7288
C19 C 0.38374(15) 0.83622(11) 0.76117(9)
C20 C 0.53761(15) 0.89117(10) 0.84634(10)
C21 C 0.65926(15) 0.97192(11) 0.83559(10)
C22 C 0.66160(15) 0.98001(11) 0.73381(10)
C23 C 0.7240(2) 1.21414(14) 0.61075(12)
H21 H 0.6280 1.2403 0.6092
H22 H 0.7429 1.2111 0.5463
H23 H 0.8168 1.2667 0.6662
C24 C 0.10718(18) 0.54336(12) 0.64450(11)
H24 H 0.1676 0.5025 0.6101
H25 H -0.0058 0.5210 0.6014
H26 H 0.1156 0.5249 0.7088
H30? H 0.5205 0.6218 0.4995
H31? H 0.6448 0.5358 0.4694
H32? H 0.4828 0.5532 0.3844
loop_
_geom_bond_atom_site_label_1
_geom_bond_atom_site_label_2
_geom_bond_site_symmetry_1
_geom_bond_site_symmetry_2
C1 H1 1_555 1_555
C2 C1 1_555 1_555
H2 C2 1_555 1_555
C3 C2 1_555 1_555
H3 C3 1_555 1_555
C4 C3 1_555 1_555
N1 C4 1_555 1_555
C5 N1 1_555 1_555
H4 C5 1_555 1_555
H5 C5 1_555 1_555
C6 C5 1_555 1_555
H6 C6 1_555 1_555
H7 C6 1_555 1_555
C7 C6 1_555 1_555
H8 C7 1_555 1_555
H9 C7 1_555 1_555
C8 C7 1_555 1_555
C9 C8 1_555 1_555
H10 C9 1_555 1_555
C10 C9 1_555 1_555
H11 C10 1_555 1_555
C11 C10 1_555 1_555
C12 C11 1_555 1_555
H12 C12 1_555 1_555
H13 C12 1_555 1_555
C13 C12 1_555 1_555
H14 C13 1_555 1_555
H15 C13 1_555 1_555
C14 C13 1_555 1_555
H16 C14 1_555 1_555
H17 C14 1_555 1_555
N2 C14 1_555 1_555
C15 N2 1_555 1_555
C16 C15 1_555 1_555
H18 C16 1_555 1_555
C17 C16 1_555 1_555
H19 C17 1_555 1_555
C18 C17 1_555 1_555
H20 C18 1_555 1_555
C19 N2 1_555 1_555
C20 C11 1_555 1_555
C21 C8 1_555 1_555
C22 C1 1_555 1_555
C23 C4 1_555 1_555
H21 C23 1_555 1_555
H22 C23 1_555 1_555
H23 C23 1_555 1_555
C24 C15 1_555 1_555
H24 C24 1_555 1_555
H25 C24 1_555 1_555
H26 C24 1_555 1_555
S1 O1 1_555 1_555
O2 S1 1_555 1_555
O3 S1 1_555 1_555
C25 S1 1_555 1_555
F1 C25 1_555 1_555
F2 C25 1_555 1_555
F3 C25 1_555 1_555
S2 O4 1_555 1_555
O5 S2 1_555 1_555
O6 S2 1_555 1_555
C26 S2 1_555 1_555
F4 C26 1_555 1_555
F5 C26 1_555 1_555
F6 C26 1_555 1_555
O7 C27 1_555 1_555
C27 C28 1_555 1_555
C28 H27 1_555 1_555
H28 C28 1_555 1_555
H29 C28 1_555 1_555
O7A C27A 1_555 1_555
C27A C28 1_555 1_555
C28A C27 1_555 1_555
H27A C28A 1_555 1_555
H28A C28A 1_555 1_555
H29A C28A 1_555 1_555
N1 C22 1_555 1_555
C18 C19 1_555 1_555
C19 C20 1_555 1_555
C20 C21 1_555 1_555
C21 C22 1_555 1_555
C27A C28A 1_555 1_555

#END
