
#######################################################################
#
#                 Cambridge Crystallographic Data Centre
#                                CCDC 
#
#######################################################################
#
# If this CIF has been generated from an entry in the Cambridge 
# Structural Database, then it will include bibliographic, chemical, 
# crystal, experimental, refinement or atomic coordinate data resulting 
# from the CCDC's data processing and validation procedures.
#
#######################################################################

data_LORYOI
_chemical_formula_moiety         'C24 H26 N2 2+,2(C1 F3 O3 S1 1-)'
_chemical_name_systematic        
"2,17-dimethyl-6,7,8,11,12,13-hexahydropyrido[2,1-a]pyrido[1',2':1,2]azepino[4,3-i][2]benzazepinediium bis(trifluoromethanesulfonate)"
_symmetry_cell_setting           monoclinic
_symmetry_space_group_name_H-M   'P 21/c'
_symmetry_Int_Tables_number      14
_space_group_name_Hall           '-P 2ybc'
loop_
_symmetry_equiv_pos_site_id
_symmetry_equiv_pos_as_xyz
1 x,y,z
2 -x,1/2+y,1/2-z
3 -x,-y,-z
4 x,1/2-y,1/2+z
_cell_length_a                   14.2532(9)
_cell_length_b                   8.9518(5)
_cell_length_c                   21.2552(12)
_cell_angle_alpha                90
_cell_angle_beta                 92.286(2)
_cell_angle_gamma                90
_cell_volume                     2709.83
_exptl_crystal_colour            colorless
_exptl_crystal_description       prism
_cell_formula_units_Z            4
loop_
_atom_site_label
_atom_site_type_symbol
_atom_site_fract_x
_atom_site_fract_y
_atom_site_fract_z
C1 C 0.76956(9) 0.79650(15) 0.35013(6)
H1 H 0.7538 0.7608 0.3090
C2 C 0.86194(10) 0.78471(16) 0.37372(7)
C3 C 0.88262(10) 0.84138(18) 0.43357(7)
H2 H 0.9452 0.8379 0.4506
C4 C 0.81329(10) 0.90208(17) 0.46797(7)
H3 H 0.8282 0.9404 0.5088
N1 N 0.72392(8) 0.90847(13) 0.44476(5)
C5 C 0.65162(10) 0.97116(17) 0.48555(7)
H4 H 0.6118 1.0426 0.4610
H5 H 0.6827 1.0262 0.5210
C6 C 0.59062(10) 0.84773(19) 0.51116(7)
H6 H 0.5369 0.8935 0.5321
H7 H 0.6278 0.7908 0.5434
C7 C 0.55301(10) 0.73914(16) 0.46017(6)
H8 H 0.6009 0.6613 0.4533
H9 H 0.4962 0.6890 0.4752
C8 C 0.52894(9) 0.81594(15) 0.39842(6)
C9 C 0.43629(9) 0.82961(15) 0.37619(6)
H10 H 0.3872 0.7935 0.4010
C10 C 0.41452(9) 0.89533(15) 0.31826(7)
H11 H 0.3506 0.9042 0.3042
C11 C 0.48446(9) 0.94825(15) 0.28044(6)
C12 C 0.46114(10) 1.01387(16) 0.21610(6)
H12 H 0.4905 1.1137 0.2132
H13 H 0.3923 1.0268 0.2109
C13 C 0.49547(10) 0.91472(17) 0.16267(7)
H14 H 0.4511 0.8306 0.1559
H15 H 0.4956 0.9739 0.1233
C14 C 0.59372(10) 0.85260(16) 0.17664(7)
H16 H 0.5901 0.7686 0.2067
H17 H 0.6194 0.8136 0.1373
N2 N 0.65781(8) 0.96912(12) 0.20359(5)
C15 C 0.72063(10) 1.03445(16) 0.16629(7)
H18 H 0.7236 1.0041 0.1236
C16 C 0.78005(10) 1.14370(16) 0.18911(7)
H19 H 0.8240 1.1880 0.1623
C17 C 0.77612(9) 1.19010(15) 0.25164(7)
C18 C 0.71069(9) 1.12052(15) 0.28909(6)
H20 H 0.7066 1.1496 0.3319
C19 C 0.65174(9) 1.01019(15) 0.26501(6)
C20 C 0.57846(9) 0.93921(14) 0.30305(6)
C21 C 0.60075(9) 0.87381(14) 0.36210(6)
C22 C 0.70057(9) 0.85909(14) 0.38557(6)
C23 C 0.93618(11) 0.7122(2) 0.33616(8)
H21 H 0.9101 0.6874 0.2941
H22 H 0.9580 0.6207 0.3574
H23 H 0.9891 0.7811 0.3324
C24 C 0.83603(10) 1.31383(18) 0.27833(8)
H24 H 0.8012 1.4081 0.2753
H25 H 0.8933 1.3219 0.2546
H26 H 0.8528 1.2925 0.3226
S1 S 0.73563(3) 0.38084(4) 0.460309(18)
C25 C 0.85441(13) 0.4052(2) 0.49305(9)
F1 F 0.91631(8) 0.41407(18) 0.44855(6)
F2 F 0.86223(10) 0.52832(18) 0.52700(8)
F3 F 0.87951(10) 0.29195(19) 0.53055(7)
O1 O 0.74020(11) 0.23751(14) 0.43003(6)
O2 O 0.72349(9) 0.50367(15) 0.41733(7)
O3 O 0.67945(9) 0.38548(17) 0.51504(6)
S2 S 0.80818(2) 0.62245(4) 0.146405(17)
C26 C 0.93280(11) 0.6682(2) 0.14863(8)
F4 F 0.94699(8) 0.80984(12) 0.16549(6)
F5 F 0.96861(8) 0.64815(15) 0.09215(5)
F6 F 0.98150(7) 0.58232(13) 0.18967(5)
O4 O 0.80632(9) 0.46931(13) 0.12606(6)
O5 O 0.78014(8) 0.64759(14) 0.20998(5)
O6 O 0.76997(8) 0.72729(13) 0.10082(5)
H27? H 0.9982 0.7468 0.3514
H28? H 0.9265 0.7389 0.2917
H29? H 0.9324 0.6035 0.3408
loop_
_geom_bond_atom_site_label_1
_geom_bond_atom_site_label_2
_geom_bond_site_symmetry_1
_geom_bond_site_symmetry_2
C1 H1 1_555 1_555
C2 C1 1_555 1_555
C3 C2 1_555 1_555
H2 C3 1_555 1_555
C4 C3 1_555 1_555
H3 C4 1_555 1_555
N1 C4 1_555 1_555
C5 N1 1_555 1_555
H4 C5 1_555 1_555
H5 C5 1_555 1_555
C6 C5 1_555 1_555
H6 C6 1_555 1_555
H7 C6 1_555 1_555
C7 C6 1_555 1_555
H8 C7 1_555 1_555
H9 C7 1_555 1_555
C8 C7 1_555 1_555
C9 C8 1_555 1_555
H10 C9 1_555 1_555
C10 C9 1_555 1_555
H11 C10 1_555 1_555
C11 C10 1_555 1_555
C12 C11 1_555 1_555
H12 C12 1_555 1_555
H13 C12 1_555 1_555
C13 C12 1_555 1_555
H14 C13 1_555 1_555
H15 C13 1_555 1_555
C14 C13 1_555 1_555
H16 C14 1_555 1_555
H17 C14 1_555 1_555
N2 C14 1_555 1_555
C15 N2 1_555 1_555
H18 C15 1_555 1_555
C16 C15 1_555 1_555
H19 C16 1_555 1_555
C17 C16 1_555 1_555
C18 C17 1_555 1_555
H20 C18 1_555 1_555
C19 N2 1_555 1_555
C20 C11 1_555 1_555
C21 C8 1_555 1_555
C22 C1 1_555 1_555
C23 C2 1_555 1_555
H21 C23 1_555 1_555
H22 C23 1_555 1_555
H23 C23 1_555 1_555
C24 C17 1_555 1_555
H24 C24 1_555 1_555
H25 C24 1_555 1_555
H26 C24 1_555 1_555
S1 C25 1_555 1_555
C25 F1 1_555 1_555
F2 C25 1_555 1_555
F3 C25 1_555 1_555
O1 S1 1_555 1_555
O2 S1 1_555 1_555
O3 S1 1_555 1_555
S2 C26 1_555 1_555
C26 F4 1_555 1_555
F5 C26 1_555 1_555
F6 C26 1_555 1_555
O4 S2 1_555 1_555
O5 S2 1_555 1_555
O6 S2 1_555 1_555
N1 C22 1_555 1_555
C18 C19 1_555 1_555
C19 C20 1_555 1_555
C20 C21 1_555 1_555
C21 C22 1_555 1_555

#END
