
#######################################################################
#
#                 Cambridge Crystallographic Data Centre
#                                CCDC 
#
#######################################################################
#
# If this CIF has been generated from an entry in the Cambridge 
# Structural Database, then it will include bibliographic, chemical, 
# crystal, experimental, refinement or atomic coordinate data resulting 
# from the CCDC's data processing and validation procedures.
#
#######################################################################

data_LORZEZ
_chemical_formula_moiety         'C24 H26 N2 2+,2(Br1 1-)'
_chemical_name_systematic        
"2,17-dimethyl-6,7,8,11,12,13-hexahydropyrido[2,1-a]pyrido[1',2':1,2]azepino[4,3-i][2]benzazepinediium bis(bromide) unknown solvate"
_symmetry_cell_setting           orthorhombic
_symmetry_space_group_name_H-M   'P 21 21 2'
_symmetry_Int_Tables_number      18
_space_group_name_Hall           'P 2 2ab'
loop_
_symmetry_equiv_pos_site_id
_symmetry_equiv_pos_as_xyz
1 x,y,z
2 1/2+x,1/2-y,-z
3 1/2-x,1/2+y,-z
4 -x,-y,z
_cell_length_a                   27.6754(9)
_cell_length_b                   10.0575(3)
_cell_length_c                   14.6734(6)
_cell_angle_alpha                90
_cell_angle_beta                 90
_cell_angle_gamma                90
_cell_volume                     4084.27
_exptl_crystal_colour            colorless
_exptl_crystal_description       plate/needle
_cell_formula_units_Z            6
loop_
_atom_site_label
_atom_site_type_symbol
_atom_site_fract_x
_atom_site_fract_y
_atom_site_fract_z
Br1 Br 0.814934(16) 0.67103(4) 0.11891(3)
Br2 Br 0.811485(17) 0.89214(4) 0.72647(3)
Br3 Br 0.570996(16) 0.86303(4) 0.95399(4)
C1 C 0.55559(13) 0.5028(4) 0.9437(4)
H1 H 0.5523 0.5955 0.9331
C2 C 0.57316(16) 0.4590(4) 1.0267(4)
C3 C 0.58043(17) 0.3247(4) 1.0384(4)
H2 H 0.5932 0.2919 1.0941
C4 C 0.56912(17) 0.2378(4) 0.9686(4)
H3 H 0.5754 0.1456 0.9760
N1 N 0.54969(12) 0.2810(3) 0.8915(3)
C5 C 0.53577(14) 0.1817(4) 0.8204(3)
H4 H 0.5030 0.2026 0.7976
H5 H 0.5349 0.0919 0.8479
C6 C 0.57073(15) 0.1820(4) 0.7418(3)
H6 H 0.5566 0.1305 0.6909
H7 H 0.6008 0.1367 0.7609
C7 C 0.58343(14) 0.3226(4) 0.7074(3)
H8 H 0.6085 0.3616 0.7475
H9 H 0.5970 0.3162 0.6452
C8 C 0.54006(13) 0.4129(3) 0.7059(3)
C9 C 0.51988(13) 0.4573(4) 0.6265(4)
H10 H 0.5332 0.4295 0.5700
C10 C 0.52014(13) 0.4560(3) 0.7894(3)
C11 C 0.54289(13) 0.4151(3) 0.8764(3)
C12 C 0.58281(18) 0.5566(4) 1.1027(4)
H11 H 0.5534 0.5688 1.1388
H12 H 0.5927 0.6421 1.0767
H13 H 0.6086 0.5223 1.1419
C1C C 0.44441(13) 0.4972(4) 0.9437(4)
H1C H 0.4477 0.4045 0.9331
C2C C 0.42684(16) 0.5410(4) 1.0267(4)
C3C C 0.41957(17) 0.6753(4) 1.0384(4)
H2C H 0.4068 0.7081 1.0941
C4C C 0.43088(17) 0.7622(4) 0.9686(4)
H3C H 0.4246 0.8544 0.9760
N1C N 0.45031(12) 0.7190(3) 0.8915(3)
C5C C 0.46423(14) 0.8183(4) 0.8204(3)
H4C H 0.4970 0.7974 0.7976
H5C H 0.4651 0.9081 0.8479
C6C C 0.42927(15) 0.8180(4) 0.7418(3)
H6C H 0.4434 0.8695 0.6909
H7C H 0.3992 0.8633 0.7609
C7C C 0.41657(14) 0.6774(4) 0.7074(3)
H8C H 0.3915 0.6384 0.7475
H9C H 0.4030 0.6838 0.6452
C8C C 0.45994(13) 0.5871(3) 0.7059(3)
C9C C 0.48012(13) 0.5427(4) 0.6265(4)
H10C H 0.4668 0.5705 0.5700
C10C C 0.47986(13) 0.5440(3) 0.7894(3)
C11C C 0.45711(13) 0.5849(3) 0.8764(3)
C12C C 0.41719(18) 0.4434(4) 1.1027(4)
H11C H 0.4466 0.4312 1.1388
H12C H 0.4073 0.3579 1.0767
H13C H 0.3914 0.4777 1.1419
C13 C 0.71654(13) 0.0254(4) 0.2489(3)
H14 H 0.7220 0.1185 0.2518
C14 C 0.67745(15) -0.0228(4) 0.1984(3)
C15 C 0.67002(15) -0.1590(4) 0.1985(4)
H15 H 0.6436 -0.1954 0.1656
C16 C 0.70007(15) -0.2406(4) 0.2451(3)
H16 H 0.6940 -0.3336 0.2447
N2 N 0.73838(11) -0.1937(3) 0.2920(2)
C17 C 0.77049(16) -0.2891(4) 0.3392(3)
H17 H 0.8046 -0.2671 0.3252
H18 H 0.7640 -0.3799 0.3163
C18 C 0.76297(17) -0.2859(4) 0.4417(4)
H19 H 0.7896 -0.3347 0.4717
H20 H 0.7324 -0.3319 0.4567
C19 C 0.76111(14) -0.1412(4) 0.4796(3)
H21 H 0.7285 -0.1038 0.4694
H22 H 0.7670 -0.1429 0.5462
C20 C 0.79797(13) -0.0535(3) 0.4348(3)
C21 C 0.83802(14) -0.0056(4) 0.4822(3)
H23 H 0.8432 -0.0328 0.5435
C22 C 0.86997(14) 0.0797(3) 0.4420(3)
H24 H 0.8969 0.1103 0.4761
C23 C 0.86422(13) 0.1233(4) 0.3524(3)
C24 C 0.89884(14) 0.2176(3) 0.3077(3)
H25 H 0.9084 0.1814 0.2476
H26 H 0.9283 0.2252 0.3456
C25 C 0.87648(14) 0.3580(3) 0.2944(3)
H27 H 0.8790 0.4081 0.3523
H28 H 0.8953 0.4067 0.2477
C26 C 0.82382(13) 0.3529(3) 0.2651(3)
H29 H 0.8035 0.3277 0.3178
H30 H 0.8135 0.4422 0.2443
N3 N 0.81651(12) 0.2549(3) 0.1898(2)
C27 C 0.81025(15) 0.2997(4) 0.1051(3)
H31 H 0.8115 0.3927 0.0939
C28 C 0.80206(15) 0.2140(4) 0.0337(3)
H32 H 0.7958 0.2483 -0.0255
C29 C 0.80293(13) 0.0776(4) 0.0478(3)
C30 C 0.81215(14) 0.0343(3) 0.1347(3)
H33 H 0.8150 -0.0585 0.1454
C31 C 0.81744(13) 0.1202(3) 0.2070(3)
C32 C 0.82366(13) 0.0778(3) 0.3030(3)
C33 C 0.79072(13) -0.0125(3) 0.3439(3)
C34 C 0.74737(14) -0.0600(4) 0.2946(3)
C35 C 0.79405(15) -0.0176(4) -0.0284(3)
H34 H 0.8180 -0.0030 -0.0766
H35 H 0.7615 -0.0033 -0.0530
H36 H 0.7968 -0.1089 -0.0057
C36 C 0.64647(15) 0.0697(4) 0.1447(4)
H37 H 0.6597 0.0792 0.0831
H38 H 0.6458 0.1568 0.1746
H39 H 0.6136 0.0340 0.1411
loop_
_geom_bond_atom_site_label_1
_geom_bond_atom_site_label_2
_geom_bond_site_symmetry_1
_geom_bond_site_symmetry_2
C1 H1 1_555 1_555
C2 C1 1_555 1_555
C3 C2 1_555 1_555
H2 C3 1_555 1_555
C4 C3 1_555 1_555
H3 C4 1_555 1_555
N1 C4 1_555 1_555
C5 N1 1_555 1_555
H4 C5 1_555 1_555
H5 C5 1_555 1_555
C6 C5 1_555 1_555
H6 C6 1_555 1_555
H7 C6 1_555 1_555
C7 C6 1_555 1_555
H8 C7 1_555 1_555
H9 C7 1_555 1_555
C8 C7 1_555 1_555
C9 C8 1_555 1_555
H10 C9 1_555 1_555
C10 C8 1_555 1_555
C11 C1 1_555 1_555
C12 C2 1_555 1_555
H11 C12 1_555 1_555
H12 C12 1_555 1_555
H13 C12 1_555 1_555
C13 H14 1_555 1_555
C14 C13 1_555 1_555
C15 C14 1_555 1_555
H15 C15 1_555 1_555
C16 C15 1_555 1_555
H16 C16 1_555 1_555
N2 C16 1_555 1_555
C17 N2 1_555 1_555
H17 C17 1_555 1_555
H18 C17 1_555 1_555
C18 C17 1_555 1_555
H19 C18 1_555 1_555
H20 C18 1_555 1_555
C19 C18 1_555 1_555
H21 C19 1_555 1_555
H22 C19 1_555 1_555
C20 C19 1_555 1_555
C21 C20 1_555 1_555
H23 C21 1_555 1_555
C22 C21 1_555 1_555
H24 C22 1_555 1_555
C23 C22 1_555 1_555
C24 C23 1_555 1_555
H25 C24 1_555 1_555
H26 C24 1_555 1_555
C25 C24 1_555 1_555
H27 C25 1_555 1_555
H28 C25 1_555 1_555
C26 C25 1_555 1_555
H29 C26 1_555 1_555
H30 C26 1_555 1_555
N3 C26 1_555 1_555
C27 N3 1_555 1_555
H31 C27 1_555 1_555
C28 C27 1_555 1_555
H32 C28 1_555 1_555
C29 C28 1_555 1_555
C30 C29 1_555 1_555
H33 C30 1_555 1_555
C31 N3 1_555 1_555
C32 C23 1_555 1_555
C33 C20 1_555 1_555
C34 C13 1_555 1_555
C35 C29 1_555 1_555
H34 C35 1_555 1_555
H35 C35 1_555 1_555
H36 C35 1_555 1_555
C36 C14 1_555 1_555
H37 C36 1_555 1_555
H38 C36 1_555 1_555
H39 C36 1_555 1_555
C1C H1C 1_555 1_555
C2C C1C 1_555 1_555
C3C C2C 1_555 1_555
H2C C3C 1_555 1_555
C4C C3C 1_555 1_555
H3C C4C 1_555 1_555
N1C C4C 1_555 1_555
C5C N1C 1_555 1_555
H4C C5C 1_555 1_555
H5C C5C 1_555 1_555
C6C C5C 1_555 1_555
H6C C6C 1_555 1_555
H7C C6C 1_555 1_555
C7C C6C 1_555 1_555
H8C C7C 1_555 1_555
H9C C7C 1_555 1_555
C8C C7C 1_555 1_555
C9C C9 1_555 1_555
H10C C9C 1_555 1_555
C10C C10 1_555 1_555
C11C C1C 1_555 1_555
C12C C2C 1_555 1_555
H11C C12C 1_555 1_555
H12C C12C 1_555 1_555
H13C C12C 1_555 1_555
N1 C11 1_555 1_555
C10 C11 1_555 1_555
N2 C34 1_555 1_555
C30 C31 1_555 1_555
C31 C32 1_555 1_555
C32 C33 1_555 1_555
C33 C34 1_555 1_555
N1C C11C 1_555 1_555
C8C C9C 1_555 1_555
C8C C10C 1_555 1_555
C10C C11C 1_555 1_555

#END
