
#######################################################################
#
#                 Cambridge Crystallographic Data Centre
#                                CCDC 
#
#######################################################################
#
# If this CIF has been generated from an entry in the Cambridge 
# Structural Database, then it will include bibliographic, chemical, 
# crystal, experimental, refinement or atomic coordinate data resulting 
# from the CCDC's data processing and validation procedures.
#
#######################################################################

data_LORZUP
_chemical_formula_moiety         'C42 H44 N4 2+,2(C1 F3 O3 S1 1-)'
_chemical_name_systematic        
"4,15-bis(2-(4-(dimethylamino)phenyl)vinyl)-6,7,8,11,12,13-hexahydropyrido[2,1-a]pyrido[1',2':1,2]azepino[4,3-i][2]benzazepinediium bis(trifluoromethanesulfonate)"
_symmetry_cell_setting           triclinic
_symmetry_space_group_name_H-M   'P -1'
_symmetry_Int_Tables_number      2
_space_group_name_Hall           '-P 1'
loop_
_symmetry_equiv_pos_site_id
_symmetry_equiv_pos_as_xyz
1 x,y,z
2 -x,-y,-z
_cell_length_a                   10.9183(3)
_cell_length_b                   13.1838(3)
_cell_length_c                   15.8627(3)
_cell_angle_alpha                69.6030(10)
_cell_angle_beta                 77.8740(10)
_cell_angle_gamma                78.1550(10)
_cell_volume                     2070.59
_exptl_crystal_colour            red
_exptl_crystal_description       plate
_cell_formula_units_Z            2
loop_
_atom_site_label
_atom_site_type_symbol
_atom_site_fract_x
_atom_site_fract_y
_atom_site_fract_z
C1 C 0.50622(15) 0.86748(13) 0.13622(10)
H1 H 0.4913 0.8240 0.1036
C2 C 0.59107(16) 0.94173(13) 0.09626(11)
H2 H 0.6375 0.9475 0.0374
C3 C 0.60712(16) 1.00709(13) 0.14317(11)
H3 H 0.6633 1.0598 0.1153
C4 C 0.54277(15) 0.99764(12) 0.23064(11)
N1 N 0.46475(12) 0.91979(10) 0.26988(8)
C5 C 0.40692(15) 0.89552(13) 0.36730(10)
H4 H 0.4548 0.9239 0.3987
H5 H 0.4131 0.8153 0.3966
C6 C 0.26874(16) 0.94658(14) 0.37796(11)
H6 H 0.2639 1.0256 0.3680
H7 H 0.2275 0.9125 0.4408
C7 C 0.19718(16) 0.93150(14) 0.31015(12)
H8 H 0.1050 0.9477 0.3294
H9 H 0.2193 0.9845 0.2493
C8 C 0.22772(15) 0.81720(13) 0.30343(10)
C9 C 0.13627(16) 0.74779(14) 0.33206(11)
H10 H 0.0532 0.7723 0.3571
C10 C 0.16414(16) 0.64370(14) 0.32465(11)
H11 H 0.0987 0.5995 0.3420
C11 C 0.28570(16) 0.60237(13) 0.29244(11)
C12 C 0.31797(18) 0.48593(14) 0.29107(13)
H12 H 0.2441 0.4472 0.3219
H13 H 0.3891 0.4484 0.3256
C13 C 0.35482(18) 0.47875(16) 0.19437(14)
H14 H 0.3971 0.4039 0.1972
H15 H 0.2774 0.4931 0.1664
C14 C 0.44298(17) 0.56047(14) 0.13545(11)
H16 H 0.4821 0.5412 0.0798
H17 H 0.3933 0.6343 0.1167
N2 N 0.54442(13) 0.56232(10) 0.18430(9)
C15 C 0.66383(16) 0.50926(13) 0.16796(10)
C16 C 0.75969(16) 0.52683(13) 0.20495(11)
H18 H 0.8440 0.4928 0.1926
C17 C 0.73370(16) 0.59295(13) 0.25916(11)
H19 H 0.7999 0.6069 0.2822
C18 C 0.60944(15) 0.63894(13) 0.27978(10)
H20 H 0.5898 0.6808 0.3202
C19 C 0.51442(15) 0.62426(12) 0.24187(10)
C20 C 0.38026(15) 0.67047(12) 0.26403(10)
C21 C 0.34984(15) 0.77868(12) 0.26705(10)
C22 C 0.44315(14) 0.85629(12) 0.22333(10)
C23 C 0.55666(16) 1.06891(13) 0.27947(11)
H21 H 0.4868 1.0895 0.3202
C24 C 0.66643(16) 1.10587(14) 0.26789(12)
H22 H 0.7337 1.0818 0.2273
C25 C 0.69498(16) 1.17832(13) 0.30997(11)
C26 C 0.82025(16) 1.19466(14) 0.30096(13)
H23 H 0.8847 1.1588 0.2663
C27 C 0.85351(16) 1.26103(14) 0.34064(13)
H24 H 0.9399 1.2690 0.3339
C28 C 0.76031(16) 1.31713(13) 0.39110(11)
C29 C 0.63342(15) 1.30075(13) 0.40073(11)
H25 H 0.5685 1.3370 0.4348
C30 C 0.60272(15) 1.23300(13) 0.36140(11)
H26 H 0.5168 1.2231 0.3693
C31 C 0.91977(18) 1.40069(17) 0.42210(14)
H27 H 0.9659 1.3315 0.4561
H28 H 0.9223 1.4576 0.4480
H29 H 0.9593 1.4219 0.3582
C32 C 0.69081(18) 1.43829(14) 0.48391(12)
H30 H 0.6228 1.4802 0.4486
H31 H 0.7267 1.4875 0.5032
H32 H 0.6567 1.3816 0.5376
C33 C 0.68600(17) 0.43452(13) 0.11539(11)
H33 H 0.6185 0.3987 0.1160
C34 C 0.79849(18) 0.41447(14) 0.06609(11)
H34 H 0.8622 0.4550 0.0642
C35 C 0.83347(16) 0.33743(13) 0.01528(11)
C36 C 0.95401(17) 0.33029(15) -0.03601(13)
H35 H 1.0102 0.3777 -0.0381
C37 C 0.99406(17) 0.25667(16) -0.08376(13)
H36 H 1.0762 0.2549 -0.1186
C38 C 0.91425(16) 0.18449(14) -0.08120(11)
C39 C 0.79179(16) 0.19291(13) -0.03102(11)
H37 H 0.7349 0.1465 -0.0297
C40 C 0.75275(16) 0.26705(13) 0.01618(11)
H38 H 0.6699 0.2704 0.0498
C41 C 1.0739(2) 0.1055(2) -0.18205(17)
H39 H 1.0850 0.1802 -0.2211
H40 H 1.0774 0.0598 -0.2200
H41 H 1.1415 0.0756 -0.1443
C42 C 0.8872(2) 0.01256(17) -0.09584(15)
H42 H 0.8794 -0.0206 -0.0296
H43 H 0.9352 -0.0410 -0.1249
H44 H 0.8027 0.0355 -0.1138
N3 N 0.78893(14) 1.38745(12) 0.42808(10)
N4 N 0.95273(16) 0.10681(13) -0.12423(11)
S1 S 0.74164(4) 0.74425(3) 0.43281(3)
C43 C 0.76217(19) 0.84108(17) 0.48544(14)
F1 F 0.85561(14) 0.89677(13) 0.43925(14)
F2 F 0.65849(12) 0.91376(10) 0.49063(9)
F3 F 0.78551(19) 0.79003(13) 0.57000(11)
O1 O 0.71140(17) 0.81316(12) 0.34526(10)
O2 O 0.86044(12) 0.67444(12) 0.43193(11)
O3 O 0.63732(14) 0.69357(13) 0.49080(12)
S2 S 0.32337(4) 0.23705(4) 0.06987(3)
C44 C 0.18687(18) 0.27486(16) 0.14686(13)
F4 F 0.21345(15) 0.24804(13) 0.23060(8)
F5 F 0.09018(11) 0.22448(11) 0.15233(10)
F6 F 0.14560(12) 0.38171(10) 0.12047(10)
O4 O 0.33962(14) 0.11943(11) 0.10521(10)
O5 O 0.28053(16) 0.28172(13) -0.01726(9)
O6 O 0.42072(14) 0.28821(15) 0.07962(13)
loop_
_geom_bond_atom_site_label_1
_geom_bond_atom_site_label_2
_geom_bond_site_symmetry_1
_geom_bond_site_symmetry_2
C1 H1 1_555 1_555
C2 C1 1_555 1_555
H2 C2 1_555 1_555
C3 C2 1_555 1_555
H3 C3 1_555 1_555
C4 C3 1_555 1_555
N1 C4 1_555 1_555
C5 N1 1_555 1_555
H4 C5 1_555 1_555
H5 C5 1_555 1_555
C6 C5 1_555 1_555
H6 C6 1_555 1_555
H7 C6 1_555 1_555
C7 C6 1_555 1_555
H8 C7 1_555 1_555
H9 C7 1_555 1_555
C8 C7 1_555 1_555
C9 C8 1_555 1_555
H10 C9 1_555 1_555
C10 C9 1_555 1_555
H11 C10 1_555 1_555
C11 C10 1_555 1_555
C12 C11 1_555 1_555
H12 C12 1_555 1_555
H13 C12 1_555 1_555
C13 C12 1_555 1_555
H14 C13 1_555 1_555
H15 C13 1_555 1_555
C14 C13 1_555 1_555
H16 C14 1_555 1_555
H17 C14 1_555 1_555
N2 C14 1_555 1_555
C15 N2 1_555 1_555
C16 C15 1_555 1_555
H18 C16 1_555 1_555
C17 C16 1_555 1_555
H19 C17 1_555 1_555
C18 C17 1_555 1_555
H20 C18 1_555 1_555
C19 N2 1_555 1_555
C20 C11 1_555 1_555
C21 C8 1_555 1_555
C22 C1 1_555 1_555
C23 C4 1_555 1_555
H21 C23 1_555 1_555
C24 C23 1_555 1_555
H22 C24 1_555 1_555
C25 C24 1_555 1_555
C26 C25 1_555 1_555
H23 C26 1_555 1_555
C27 C26 1_555 1_555
H24 C27 1_555 1_555
C28 C27 1_555 1_555
C29 C28 1_555 1_555
H25 C29 1_555 1_555
C30 C25 1_555 1_555
H26 C30 1_555 1_555
C31 H27 1_555 1_555
H28 C31 1_555 1_555
H29 C31 1_555 1_555
C32 H30 1_555 1_555
H31 C32 1_555 1_555
H32 C32 1_555 1_555
C33 C15 1_555 1_555
H33 C33 1_555 1_555
C34 C33 1_555 1_555
H34 C34 1_555 1_555
C35 C34 1_555 1_555
C36 C35 1_555 1_555
H35 C36 1_555 1_555
C37 C36 1_555 1_555
H36 C37 1_555 1_555
C38 C37 1_555 1_555
C39 C38 1_555 1_555
H37 C39 1_555 1_555
C40 C35 1_555 1_555
H38 C40 1_555 1_555
C41 H39 1_555 1_555
H40 C41 1_555 1_555
H41 C41 1_555 1_555
C42 H42 1_555 1_555
H43 C42 1_555 1_555
H44 C42 1_555 1_555
N3 C28 1_555 1_555
N4 C38 1_555 1_555
S1 C43 1_555 1_555
C43 F1 1_555 1_555
F2 C43 1_555 1_555
F3 C43 1_555 1_555
O1 S1 1_555 1_555
O2 S1 1_555 1_555
O3 S1 1_555 1_555
S2 C44 1_555 1_555
C44 F4 1_555 1_555
F5 C44 1_555 1_555
F6 C44 1_555 1_555
O4 S2 1_555 1_555
O5 S2 1_555 1_555
O6 S2 1_555 1_555
N1 C22 1_555 1_555
C18 C19 1_555 1_555
C19 C20 1_555 1_555
C20 C21 1_555 1_555
C21 C22 1_555 1_555
C29 C30 1_555 1_555
C31 N3 1_555 1_555
C32 N3 1_555 1_555
C39 C40 1_555 1_555
C41 N4 1_555 1_555
C42 N4 1_555 1_555

#END
