
#######################################################################
#
#                 Cambridge Crystallographic Data Centre
#                                CCDC 
#
#######################################################################
#
# If this CIF has been generated from an entry in the Cambridge 
# Structural Database, then it will include bibliographic, chemical, 
# crystal, experimental, refinement or atomic coordinate data resulting 
# from the CCDC's data processing and validation procedures.
#
#######################################################################

data_LORZID
_chemical_formula_moiety         'C24 H26 N2 2+,3(H2 O1),2(Br1 1-)'
_chemical_name_systematic        
"4,15-dimethyl-6,7,8,11,12,13-hexahydropyrido[2,1-a]pyrido[1',2':1,2]azepino[4,3-i][2]benzazepinediium bis(bromide) trihydrate"
_symmetry_cell_setting           orthorhombic
_symmetry_space_group_name_H-M   'P 21 21 21'
_symmetry_Int_Tables_number      19
_space_group_name_Hall           'P 2ac 2ab'
loop_
_symmetry_equiv_pos_site_id
_symmetry_equiv_pos_as_xyz
1 x,y,z
2 1/2+x,1/2-y,-z
3 -x,1/2+y,1/2-z
4 1/2-x,-y,1/2+z
_cell_length_a                   12.7303(4)
_cell_length_b                   12.7933(5)
_cell_length_c                   14.8125(6)
_cell_angle_alpha                90
_cell_angle_beta                 90
_cell_angle_gamma                90
_cell_volume                     2412.4
_exptl_crystal_colour            colorless
_exptl_crystal_description       prism
_cell_formula_units_Z            4
loop_
_atom_site_label
_atom_site_type_symbol
_atom_site_fract_x
_atom_site_fract_y
_atom_site_fract_z
C1 C 0.38530(17) 0.31890(17) 0.42632(16)
H1 H 0.4003 0.3819 0.4578
C2 C 0.43519(18) 0.29778(19) 0.34567(17)
H2 H 0.4835 0.3465 0.3207
C3 C 0.41392(17) 0.20462(18) 0.30147(17)
H3 H 0.4483 0.1892 0.2461
C4 C 0.34305(18) 0.13399(19) 0.33739(17)
N1 N 0.29435(13) 0.15725(14) 0.41628(15)
C5 C 0.21972(17) 0.0821(2) 0.46005(18)
H4 H 0.1935 0.0320 0.4144
H5 H 0.1587 0.1209 0.4845
C6 C 0.2732(2) 0.02321(19) 0.5353(2)
H6 H 0.3219 -0.0288 0.5089
H7 H 0.2196 -0.0153 0.5705
C7 C 0.33514(18) 0.09538(19) 0.59972(18)
H8 H 0.3486 0.0580 0.6571
H9 H 0.4039 0.1126 0.5722
C8 C 0.27637(17) 0.19505(18) 0.61922(17)
C9 C 0.23719(17) 0.21914(19) 0.70420(18)
H10 H 0.2478 0.1714 0.7525
C10 C 0.18291(18) 0.31134(18) 0.72027(17)
H11 H 0.1573 0.3259 0.7792
C11 C 0.16558(17) 0.38284(18) 0.65088(17)
C12 C 0.10867(19) 0.48414(18) 0.66676(17)
H12 H 0.0754 0.4825 0.7272
H13 H 0.0522 0.4918 0.6212
C13 C 0.18286(18) 0.57886(19) 0.66099(17)
H14 H 0.1408 0.6430 0.6512
H15 H 0.2207 0.5866 0.7190
C14 C 0.26254(16) 0.56770(17) 0.58467(17)
H16 H 0.2995 0.6350 0.5756
H17 H 0.3155 0.5143 0.6011
N2 N 0.20909(14) 0.53656(15) 0.49947(13)
C15 C 0.18428(16) 0.60900(18) 0.43636(17)
C16 C 0.13541(16) 0.5771(2) 0.35779(16)
H18 H 0.1187 0.6271 0.3126
C17 C 0.11083(19) 0.4738(2) 0.34443(18)
H19 H 0.0779 0.4523 0.2899
C18 C 0.13402(16) 0.4013(2) 0.41043(17)
H20 H 0.1163 0.3298 0.4019
C19 C 0.18330(16) 0.43317(18) 0.48911(17)
C20 C 0.20560(17) 0.36008(17) 0.56481(16)
C21 C 0.26068(17) 0.26709(18) 0.54974(16)
C22 C 0.31384(17) 0.24902(17) 0.46130(16)
C23 C 0.3222(2) 0.0315(2) 0.2926(2)
H21 H 0.3378 -0.0254 0.3347
H22 H 0.3669 0.0248 0.2390
H23 H 0.2482 0.0279 0.2746
C24 C 0.21096(19) 0.72191(19) 0.45287(19)
H24 H 0.1857 0.7427 0.5128
H25 H 0.1772 0.7654 0.4068
H26 H 0.2873 0.7312 0.4498
Br1 Br 0.510833(18) 0.08717(2) 0.081467(17)
Br2 Br 0.38733(2) 0.78568(2) 0.70180(2)
O1 O 0.45334(14) 0.09227(15) 0.86204(12)
H27 H 0.4802 0.1478 0.8430
H28 H 0.4514 0.0913 0.9256
O2 O 0.46745(18) 0.38219(19) 0.63430(16)
H29 H 0.4954 0.4458 0.6322
H30 H 0.5114 0.3408 0.6728
O3 O 0.46521(14) 0.84114(15) 0.47987(15)
H31 H 0.4527 0.8247 0.5400
H32 H 0.4787 0.7753 0.4538
loop_
_geom_bond_atom_site_label_1
_geom_bond_atom_site_label_2
_geom_bond_site_symmetry_1
_geom_bond_site_symmetry_2
C1 H1 1_555 1_555
C2 C1 1_555 1_555
H2 C2 1_555 1_555
C3 C2 1_555 1_555
H3 C3 1_555 1_555
C4 C3 1_555 1_555
N1 C4 1_555 1_555
C5 N1 1_555 1_555
H4 C5 1_555 1_555
H5 C5 1_555 1_555
C6 C5 1_555 1_555
H6 C6 1_555 1_555
H7 C6 1_555 1_555
C7 C6 1_555 1_555
H8 C7 1_555 1_555
H9 C7 1_555 1_555
C8 C7 1_555 1_555
C9 C8 1_555 1_555
H10 C9 1_555 1_555
C10 C9 1_555 1_555
H11 C10 1_555 1_555
C11 C10 1_555 1_555
C12 C11 1_555 1_555
H12 C12 1_555 1_555
H13 C12 1_555 1_555
C13 C12 1_555 1_555
H14 C13 1_555 1_555
H15 C13 1_555 1_555
C14 C13 1_555 1_555
H16 C14 1_555 1_555
H17 C14 1_555 1_555
N2 C14 1_555 1_555
C15 N2 1_555 1_555
C16 C15 1_555 1_555
H18 C16 1_555 1_555
C17 C16 1_555 1_555
H19 C17 1_555 1_555
C18 C17 1_555 1_555
H20 C18 1_555 1_555
C19 N2 1_555 1_555
C20 C11 1_555 1_555
C21 C8 1_555 1_555
C22 C1 1_555 1_555
C23 C4 1_555 1_555
H21 C23 1_555 1_555
H22 C23 1_555 1_555
H23 C23 1_555 1_555
C24 C15 1_555 1_555
H24 C24 1_555 1_555
H25 C24 1_555 1_555
H26 C24 1_555 1_555
O1 H27 1_555 1_555
H28 O1 1_555 1_555
O2 H29 1_555 1_555
H30 O2 1_555 1_555
O3 H31 1_555 1_555
H32 O3 1_555 1_555
N1 C22 1_555 1_555
C18 C19 1_555 1_555
C19 C20 1_555 1_555
C20 C21 1_555 1_555
C21 C22 1_555 1_555

#END
