
#######################################################################
#
#                 Cambridge Crystallographic Data Centre
#                                CCDC 
#
#######################################################################
#
# If this CIF has been generated from an entry in the Cambridge 
# Structural Database, then it will include bibliographic, chemical, 
# crystal, experimental, refinement or atomic coordinate data resulting 
# from the CCDC's data processing and validation procedures.
#
#######################################################################

data_LOSBEC
_chemical_formula_moiety         'C42 H34 N2 2+,2(I1 1-)'
_chemical_name_systematic        
'13-(2-(9-Anthryl)vinyl)-6,7-dimethyl-4,5,8,9-tetrahydroisoquinolino[1,2-a]pyrido[1,2-k][2,9]phenanthrolinedi-ium bis(iodide)'
_symmetry_cell_setting           orthorhombic
_symmetry_space_group_name_H-M   'P b c a'
_symmetry_Int_Tables_number      61
_space_group_name_Hall           '-P 2ac 2ab'
loop_
_symmetry_equiv_pos_site_id
_symmetry_equiv_pos_as_xyz
1 x,y,z
2 1/2-x,-y,1/2+z
3 -x,1/2+y,1/2-z
4 1/2+x,1/2-y,-z
5 -x,-y,-z
6 1/2+x,y,1/2-z
7 x,1/2-y,1/2+z
8 1/2-x,1/2+y,z
_cell_length_a                   7.7728(2)
_cell_length_b                   23.8635(6)
_cell_length_c                   36.1252(8)
_cell_angle_alpha                90
_cell_angle_beta                 90
_cell_angle_gamma                90
_cell_volume                     6700.73
_exptl_crystal_colour            red
_exptl_crystal_description       bar
_cell_formula_units_Z            8
loop_
_atom_site_label
_atom_site_type_symbol
_atom_site_fract_x
_atom_site_fract_y
_atom_site_fract_z
C1 C 0.1142(8) 0.0419(2) 0.09838(17)
H1 H 0.1127 0.0400 0.1246
C2 C 0.1691(9) -0.0052(3) 0.07805(18)
C3 C 0.1885(9) 0.0016(3) 0.04006(18)
H2 H 0.2286 -0.0288 0.0254
C4 C 0.1502(10) 0.0513(3) 0.02385(18)
H3 H 0.1699 0.0560 -0.0019
N1 N 0.0850(7) 0.0942(2) 0.04352(14)
C5 C 0.0411(10) 0.1474(3) 0.02430(18)
H4 H -0.0844 0.1490 0.0197
H5 H 0.1010 0.1491 0.0002
C6 C 0.0946(10) 0.1964(3) 0.04797(18)
H6 H 0.0592 0.2318 0.0359
H7 H 0.2214 0.1968 0.0505
C7 C 0.0124(8) 0.1925(2) 0.08599(17)
C8 C -0.0374(9) 0.2400(3) 0.10575(19)
C9 C -0.1172(9) 0.2346(3) 0.14031(18)
C10 C -0.1423(9) 0.1815(3) 0.15483(17)
C11 C -0.2069(9) 0.1718(3) 0.19458(18)
H8 H -0.1818 0.2051 0.2101
H9 H -0.3329 0.1656 0.1945
C12 C -0.1165(10) 0.1213(3) 0.20980(17)
H10 H 0.0094 0.1276 0.2098
H11 H -0.1539 0.1144 0.2356
N2 N -0.1592(7) 0.0727(2) 0.18632(14)
C13 C -0.1947(9) 0.0227(3) 0.20299(18)
H12 H -0.1866 0.0197 0.2292
C14 C -0.2405(9) -0.0223(3) 0.18322(17)
H13 H -0.2517 -0.0578 0.1949
C15 C -0.2724(9) -0.0166(3) 0.14472(19)
C16 C -0.3355(11) -0.0611(3) 0.1226(2)
H14 H -0.3507 -0.0972 0.1333
C17 C -0.3745(10) -0.0530(3) 0.0865(2)
H15 H -0.4126 -0.0837 0.0719
C18 C -0.3592(9) 0.0004(3) 0.07038(18)
H16 H -0.3937 0.0061 0.0454
C19 C -0.2944(8) 0.0444(3) 0.09064(18)
H17 H -0.2831 0.0802 0.0795
C20 C -0.2445(9) 0.0365(2) 0.12805(17)
C21 C -0.1697(8) 0.0795(2) 0.14943(17)
C22 C -0.1047(8) 0.1333(2) 0.13441(16)
C23 C -0.0171(9) 0.1386(3) 0.10040(17)
C24 C 0.0627(8) 0.0904(3) 0.08116(16)
C25 C -0.0008(11) 0.2977(3) 0.0901(2)
H18 H 0.1004 0.2959 0.0740
H19 H 0.0211 0.3239 0.1105
H20 H -0.1004 0.3105 0.0758
C26 C -0.1827(10) 0.2855(3) 0.1604(2)
H21 H -0.2615 0.2738 0.1801
H22 H -0.2438 0.3098 0.1429
H23 H -0.0856 0.3059 0.1712
C27 C 0.1970(9) -0.0605(3) 0.09460(18)
H24 H 0.2471 -0.0884 0.0792
C28 C 0.1588(10) -0.0755(3) 0.12915(19)
H25 H 0.1187 -0.0466 0.1451
C29 C 0.1722(9) -0.1318(3) 0.14513(19)
C30 C 0.1058(9) -0.1795(3) 0.12639(19)
C31 C 0.0148(10) -0.1775(3) 0.0918(2)
H26 H -0.0087 -0.1422 0.0808
C32 C -0.0381(11) -0.2248(3) 0.0746(2)
H27 H -0.0935 -0.2221 0.0512
C33 C -0.0132(12) -0.2782(3) 0.0905(2)
H28 H -0.0544 -0.3108 0.0783
C34 C 0.0706(12) -0.2825(3) 0.1235(2)
H29 H 0.0911 -0.3186 0.1337
C35 C 0.1280(10) -0.2344(3) 0.1430(2)
C36 C 0.2077(10) -0.2388(3) 0.1775(2)
H30 H 0.2208 -0.2749 0.1882
C37 C 0.2681(9) -0.1928(3) 0.19647(19)
C38 C 0.3475(11) -0.1976(4) 0.2319(2)
H31 H 0.3564 -0.2333 0.2433
C39 C 0.4106(11) -0.1520(4) 0.2496(2)
H32 H 0.4603 -0.1557 0.2735
C40 C 0.4024(11) -0.0995(4) 0.2327(2)
H33 H 0.4519 -0.0681 0.2449
C41 C 0.3258(10) -0.0921(3) 0.1994(2)
H34 H 0.3202 -0.0555 0.1891
C42 C 0.2538(10) -0.1378(3) 0.17971(19)
I1 I 0.34267(7) 0.07473(2) 0.187784(12)
I2 I 0.54506(7) 0.12740(2) 0.002919(12)
loop_
_geom_bond_atom_site_label_1
_geom_bond_atom_site_label_2
_geom_bond_site_symmetry_1
_geom_bond_site_symmetry_2
C1 H1 1_555 1_555
C2 C1 1_555 1_555
C3 C2 1_555 1_555
H2 C3 1_555 1_555
C4 C3 1_555 1_555
H3 C4 1_555 1_555
N1 C4 1_555 1_555
C5 N1 1_555 1_555
H4 C5 1_555 1_555
H5 C5 1_555 1_555
C6 C5 1_555 1_555
H6 C6 1_555 1_555
H7 C6 1_555 1_555
C7 C6 1_555 1_555
C8 C7 1_555 1_555
C9 C8 1_555 1_555
C10 C9 1_555 1_555
C11 C10 1_555 1_555
H8 C11 1_555 1_555
H9 C11 1_555 1_555
C12 C11 1_555 1_555
H10 C12 1_555 1_555
H11 C12 1_555 1_555
N2 C12 1_555 1_555
C13 N2 1_555 1_555
H12 C13 1_555 1_555
C14 C13 1_555 1_555
H13 C14 1_555 1_555
C15 C14 1_555 1_555
C16 C15 1_555 1_555
H14 C16 1_555 1_555
C17 C16 1_555 1_555
H15 C17 1_555 1_555
C18 C17 1_555 1_555
H16 C18 1_555 1_555
C19 C18 1_555 1_555
H17 C19 1_555 1_555
C20 C15 1_555 1_555
C21 N2 1_555 1_555
C22 C10 1_555 1_555
C23 C7 1_555 1_555
C24 C1 1_555 1_555
C25 C8 1_555 1_555
H18 C25 1_555 1_555
H19 C25 1_555 1_555
H20 C25 1_555 1_555
C26 C9 1_555 1_555
H21 C26 1_555 1_555
H22 C26 1_555 1_555
H23 C26 1_555 1_555
C27 C2 1_555 1_555
H24 C27 1_555 1_555
C28 C27 1_555 1_555
H25 C28 1_555 1_555
C29 C28 1_555 1_555
C30 C29 1_555 1_555
C31 C30 1_555 1_555
H26 C31 1_555 1_555
C32 C31 1_555 1_555
H27 C32 1_555 1_555
C33 C32 1_555 1_555
H28 C33 1_555 1_555
C34 C33 1_555 1_555
H29 C34 1_555 1_555
C35 C30 1_555 1_555
C36 C35 1_555 1_555
H30 C36 1_555 1_555
C37 C36 1_555 1_555
C38 C37 1_555 1_555
H31 C38 1_555 1_555
C39 C38 1_555 1_555
H32 C39 1_555 1_555
C40 C39 1_555 1_555
H33 C40 1_555 1_555
C41 C40 1_555 1_555
H34 C41 1_555 1_555
C42 C29 1_555 1_555
N1 C24 1_555 1_555
C19 C20 1_555 1_555
C20 C21 1_555 1_555
C21 C22 1_555 1_555
C22 C23 1_555 1_555
C23 C24 1_555 1_555
C34 C35 1_555 1_555
C37 C42 1_555 1_555
C41 C42 1_555 1_555

#END
