
#######################################################################
#
#                 Cambridge Crystallographic Data Centre
#                                CCDC 
#
#######################################################################
#
# If this CIF has been generated from an entry in the Cambridge 
# Structural Database, then it will include bibliographic, chemical, 
# crystal, experimental, refinement or atomic coordinate data resulting 
# from the CCDC's data processing and validation procedures.
#
#######################################################################

data_LOSFUW
_chemical_formula_moiety         'C27 H26 N2 2+,C1 H4 O1,2(I1 1-)'
_chemical_name_systematic        
'6,7,13-Trimethyl-4,5,8,9-tetrahydroisoquinolino[1,2-a]pyrido[1,2-k][2,9]phenanthrolinedi-ium bis(iodide) methanol solvate'
_symmetry_cell_setting           triclinic
_symmetry_space_group_name_H-M   'P -1'
_symmetry_Int_Tables_number      2
_space_group_name_Hall           '-P 1'
loop_
_symmetry_equiv_pos_site_id
_symmetry_equiv_pos_as_xyz
1 x,y,z
2 -x,-y,-z
_cell_length_a                   9.5036(4)
_cell_length_b                   11.1664(4)
_cell_length_c                   12.3553(5)
_cell_angle_alpha                87.9080(10)
_cell_angle_beta                 83.3910(10)
_cell_angle_gamma                82.4680(10)
_cell_volume                     1290.9
_exptl_crystal_colour            orange
_exptl_crystal_description       prism
_cell_formula_units_Z            2
loop_
_atom_site_label
_atom_site_type_symbol
_atom_site_fract_x
_atom_site_fract_y
_atom_site_fract_z
C1 C 0.8948(2) 0.84851(16) 0.32469(15)
H1 H 0.9891 0.8069 0.3168
C2 C 0.8362(2) 0.89315(16) 0.42609(15)
C3 C 0.6992(2) 0.95722(18) 0.43401(16)
H2 H 0.6564 0.9895 0.5018
C4 C 0.6263(2) 0.97361(18) 0.34417(17)
H3 H 0.5333 1.0177 0.3500
N1 N 0.68533(16) 0.92777(14) 0.24728(13)
C5 C 0.6057(2) 0.94987(18) 0.15078(16)
H4 H 0.5230 1.0129 0.1667
H5 H 0.5694 0.8749 0.1323
C6 C 0.7046(2) 0.99051(18) 0.05643(16)
H6 H 0.7342 1.0690 0.0729
H7 H 0.6541 1.0017 -0.0097
C7 C 0.8346(2) 0.89792(17) 0.03577(16)
C8 C 0.9087(2) 0.88247(17) -0.06885(16)
C9 C 1.0243(2) 0.79178(18) -0.08604(15)
C10 C 1.0635(2) 0.71439(17) 0.00033(15)
C11 C 1.1942(2) 0.62130(18) -0.00897(16)
H8 H 1.2640 0.6438 -0.0696
H9 H 1.1675 0.5413 -0.0241
C12 C 1.2595(2) 0.61573(18) 0.09745(16)
H10 H 1.3470 0.5566 0.0931
H11 H 1.2853 0.6959 0.1132
N2 N 1.15207(16) 0.57855(14) 0.18467(13)
C13 C 1.1961(2) 0.49419(17) 0.26084(16)
H12 H 1.2944 0.4634 0.2585
C14 C 1.1015(2) 0.45416(17) 0.33920(16)
H13 H 1.1342 0.4004 0.3950
C15 C 0.9539(2) 0.49217(17) 0.33836(15)
C16 C 0.8501(2) 0.44555(18) 0.41389(16)
H14 H 0.8794 0.3911 0.4703
C17 C 0.7082(2) 0.47852(19) 0.40596(17)
H15 H 0.6393 0.4489 0.4585
C18 C 0.6626(2) 0.55605(19) 0.32060(18)
H16 H 0.5635 0.5751 0.3141
C19 C 0.7603(2) 0.60412(17) 0.24695(16)
H17 H 0.7286 0.6559 0.1895
C20 C 0.9085(2) 0.57680(16) 0.25614(15)
C21 C 1.01495(19) 0.62728(16) 0.18425(15)
C22 C 0.98476(19) 0.72577(17) 0.10360(15)
C23 C 0.87648(19) 0.82426(16) 0.12359(15)
C24 C 0.81821(19) 0.86362(16) 0.23473(15)
C25 C 0.9159(2) 0.87422(18) 0.52444(16)
H18 H 0.8778 0.8109 0.5717
H19 H 0.9046 0.9497 0.5645
H20 H 1.0174 0.8497 0.5014
C26 C 0.8618(2) 0.9651(2) -0.16048(17)
H21 H 0.9423 0.9688 -0.2172
H22 H 0.8290 1.0463 -0.1326
H23 H 0.7835 0.9341 -0.1913
C27 C 1.1038(2) 0.7730(2) -0.19885(17)
H24 H 1.0351 0.7742 -0.2523
H25 H 1.1645 0.6949 -0.2005
H26 H 1.1635 0.8378 -0.2167
I1 I 0.424466(15) 0.282614(12) 0.066949(11)
I2 I 0.310916(13) 0.785392(12) 0.351828(11)
C28 C 0.5336(3) 0.7255(2) 0.6167(2)
H27 H 0.4450 0.7271 0.6660
H28 H 0.5796 0.6420 0.6089
H29 H 0.5118 0.7589 0.5451
O1 O 0.62664(17) 0.79564(15) 0.65992(13)
H30 H 0.6282 0.7793 0.7274
loop_
_geom_bond_atom_site_label_1
_geom_bond_atom_site_label_2
_geom_bond_site_symmetry_1
_geom_bond_site_symmetry_2
C1 H1 1_555 1_555
C2 C1 1_555 1_555
C3 C2 1_555 1_555
H2 C3 1_555 1_555
C4 C3 1_555 1_555
H3 C4 1_555 1_555
N1 C4 1_555 1_555
C5 N1 1_555 1_555
H4 C5 1_555 1_555
H5 C5 1_555 1_555
C6 C5 1_555 1_555
H6 C6 1_555 1_555
H7 C6 1_555 1_555
C7 C6 1_555 1_555
C8 C7 1_555 1_555
C9 C8 1_555 1_555
C10 C9 1_555 1_555
C11 C10 1_555 1_555
H8 C11 1_555 1_555
H9 C11 1_555 1_555
C12 C11 1_555 1_555
H10 C12 1_555 1_555
H11 C12 1_555 1_555
N2 C12 1_555 1_555
C13 N2 1_555 1_555
H12 C13 1_555 1_555
C14 C13 1_555 1_555
H13 C14 1_555 1_555
C15 C14 1_555 1_555
C16 C15 1_555 1_555
H14 C16 1_555 1_555
C17 C16 1_555 1_555
H15 C17 1_555 1_555
C18 C17 1_555 1_555
H16 C18 1_555 1_555
C19 C18 1_555 1_555
H17 C19 1_555 1_555
C20 C15 1_555 1_555
C21 N2 1_555 1_555
C22 C10 1_555 1_555
C23 C7 1_555 1_555
C24 C1 1_555 1_555
C25 C2 1_555 1_555
H18 C25 1_555 1_555
H19 C25 1_555 1_555
H20 C25 1_555 1_555
C26 C8 1_555 1_555
H21 C26 1_555 1_555
H22 C26 1_555 1_555
H23 C26 1_555 1_555
C27 C9 1_555 1_555
H24 C27 1_555 1_555
H25 C27 1_555 1_555
H26 C27 1_555 1_555
C28 H27 1_555 1_555
H28 C28 1_555 1_555
H29 C28 1_555 1_555
O1 C28 1_555 1_555
H30 O1 1_555 1_555
N1 C24 1_555 1_555
C19 C20 1_555 1_555
C20 C21 1_555 1_555
C21 C22 1_555 1_555
C22 C23 1_555 1_555
C23 C24 1_555 1_555

#END
