
#######################################################################
#
#                 Cambridge Crystallographic Data Centre
#                                CCDC 
#
#######################################################################
#
# If this CIF has been generated from an entry in the Cambridge 
# Structural Database, then it will include bibliographic, chemical, 
# crystal, experimental, refinement or atomic coordinate data resulting 
# from the CCDC's data processing and validation procedures.
#
#######################################################################

data_LOSGUX
_chemical_formula_moiety         'C21 H21 N3 O3 S1'
_chemical_name_systematic        
2-(Ethylsulfanyl)-4-nitro-3-phenyl-1-(1-phenyl-1H-imidazol-2-yl)butan-1-one
_symmetry_cell_setting           monoclinic
_symmetry_space_group_name_H-M   'P 21'
_symmetry_Int_Tables_number      4
_space_group_name_Hall           'P 2yb'
loop_
_symmetry_equiv_pos_site_id
_symmetry_equiv_pos_as_xyz
1 x,y,z
2 -x,1/2+y,-z
_cell_length_a                   8.5115(6)
_cell_length_b                   11.0465(6)
_cell_length_c                   11.2349(7)
_cell_angle_alpha                90
_cell_angle_beta                 105.865(7)
_cell_angle_gamma                90
_cell_volume                     1016.09
_cell_formula_units_Z            2
loop_
_atom_site_label
_atom_site_type_symbol
_atom_site_fract_x
_atom_site_fract_y
_atom_site_fract_z
S1 S -0.34719(12) -0.43183(10) -0.10079(8)
O1 O -0.4260(3) -0.6291(2) 0.0975(2)
O2 O -0.8966(5) -0.5295(3) -0.3225(3)
O3 O -1.0106(4) -0.3672(3) -0.2897(3)
N1 N -0.2963(3) -0.5027(3) 0.3316(2)
N2 N -0.3056(4) -0.3365(3) 0.2176(3)
N3 N -0.8942(4) -0.4339(3) -0.2703(2)
C1 C -0.4968(5) -0.6542(4) 0.3497(3)
H1 H -0.5794 -0.6060 0.3014
C2 C -0.5344(6) -0.7616(4) 0.3974(4)
H2 H -0.6424 -0.7869 0.3814
C3 C -0.4102(7) -0.8314(5) 0.4693(4)
H3 H -0.4356 -0.9041 0.5013
C4 C -0.2499(7) -0.7961(4) 0.4948(3)
H4 H -0.1675 -0.8438 0.5442
C5 C -0.2130(5) -0.6880(4) 0.4457(3)
H5 H -0.1049 -0.6629 0.4615
C6 C -0.3352(4) -0.6185(3) 0.3742(3)
C7 C -0.2176(5) -0.4133(4) 0.4085(3)
H6 H -0.1684 -0.4197 0.4930
C8 C -0.2254(5) -0.3127(4) 0.3368(4)
H7 H -0.1814 -0.2378 0.3659
C9 C -0.3465(4) -0.4517(3) 0.2155(3)
C10 C -0.4234(4) -0.5187(3) 0.1015(3)
C11 C -0.4958(4) -0.4426(3) -0.0120(3)
H8 H -0.5098 -0.3607 0.0172
C12 C -0.3306(8) -0.5870(5) -0.1498(5)
H9 H -0.2724 -0.6332 -0.0778
H10 H -0.4401 -0.6203 -0.1775
C13 C -0.6661(4) -0.4870(3) -0.0849(3)
H11 H -0.6535 -0.5639 -0.1249
C14 C -0.7369(4) -0.3941(3) -0.1854(3)
H12 H -0.7535 -0.3183 -0.1469
H13 H -0.6592 -0.3796 -0.2329
C15 C -0.7724(4) -0.5087(3) 0.0014(3)
C16 C -0.8233(5) -0.6248(4) 0.0182(4)
H14 H -0.7975 -0.6881 -0.0277
C17 C -0.9112(6) -0.6480(5) 0.1014(5)
H15 H -0.9407 -0.7272 0.1136
C18 C -0.9557(6) -0.5557(6) 0.1663(5)
H16 H -1.0174 -0.5716 0.2212
C19 C -0.9086(6) -0.4387(6) 0.1498(4)
H17 H -0.9385 -0.3752 0.1934
C20 C -0.8161(5) -0.4167(4) 0.0678(4)
H18 H -0.7832 -0.3381 0.0576
C21 C -0.2545(18) -0.6063(12) -0.2421(11)
H19 H -0.2958 -0.5499 -0.3082
H20 H -0.2758 -0.6874 -0.2729
H21 H -0.1389 -0.5950 -0.2092
H22? H -0.2163 -0.6100 -0.1267
H23? H -0.3866 -0.6397 -0.1056
C22? C -0.3941(16) -0.6056(11) -0.2743(10)
H24? H -0.5088 -0.5877 -0.2974
H25? H -0.3781 -0.6886 -0.2936
H26? H -0.3399 -0.5537 -0.3190
loop_
_geom_bond_atom_site_label_1
_geom_bond_atom_site_label_2
_geom_bond_site_symmetry_1
_geom_bond_site_symmetry_2
S1 C11 1_555 1_555
O1 C10 1_555 1_555
O2 N3 1_555 1_555
O3 N3 1_555 1_555
N1 C6 1_555 1_555
N2 C8 1_555 1_555
N3 C14 1_555 1_555
C1 H1 1_555 1_555
C2 C1 1_555 1_555
H2 C2 1_555 1_555
C3 C2 1_555 1_555
H3 C3 1_555 1_555
C4 C3 1_555 1_555
H4 C4 1_555 1_555
C5 C4 1_555 1_555
H5 C5 1_555 1_555
C6 C1 1_555 1_555
C7 N1 1_555 1_555
H6 C7 1_555 1_555
C8 C7 1_555 1_555
H7 C8 1_555 1_555
C9 N1 1_555 1_555
C10 C9 1_555 1_555
C11 C10 1_555 1_555
H8 C11 1_555 1_555
C12 S1 1_555 1_555
H9 C12 1_555 1_555
H10 C12 1_555 1_555
C13 C11 1_555 1_555
H11 C13 1_555 1_555
C14 C13 1_555 1_555
H12 C14 1_555 1_555
H13 C14 1_555 1_555
C15 C13 1_555 1_555
C16 C15 1_555 1_555
H14 C16 1_555 1_555
C17 C16 1_555 1_555
H15 C17 1_555 1_555
C18 C17 1_555 1_555
H16 C18 1_555 1_555
C19 C18 1_555 1_555
H17 C19 1_555 1_555
C20 C15 1_555 1_555
H18 C20 1_555 1_555
C21 C12 1_555 1_555
H19 C21 1_555 1_555
H20 C21 1_555 1_555
H21 C21 1_555 1_555
N2 C9 1_555 1_555
C5 C6 1_555 1_555
C19 C20 1_555 1_555

#END
