
#######################################################################
#
#                 Cambridge Crystallographic Data Centre
#                                CCDC 
#
#######################################################################
#
# If this CIF has been generated from an entry in the Cambridge 
# Structural Database, then it will include bibliographic, chemical, 
# crystal, experimental, refinement or atomic coordinate data resulting 
# from the CCDC's data processing and validation procedures.
#
#######################################################################

data_LOSGIK
_chemical_formula_moiety         'C13 H9 Br1 O2'
_chemical_name_systematic        
(E)-1-(4-Bromophenyl)-3-(2-furyl)prop-2-en-1-one
_symmetry_cell_setting           monoclinic
_symmetry_space_group_name_H-M   'P 21/c'
_symmetry_Int_Tables_number      14
_space_group_name_Hall           '-P 2ybc'
loop_
_symmetry_equiv_pos_site_id
_symmetry_equiv_pos_as_xyz
1 x,y,z
2 -x,1/2+y,1/2-z
3 -x,-y,-z
4 x,1/2-y,1/2+z
_cell_length_a                   14.172(4)
_cell_length_b                   14.064(4)
_cell_length_c                   5.8002(18)
_cell_angle_alpha                90
_cell_angle_beta                 98.353(4)
_cell_angle_gamma                90
_cell_volume                     1143.8
_exptl_crystal_colour            yellow
_exptl_crystal_description       block
_cell_formula_units_Z            4
_exptl_crystal_recrystallization_method ethanol
loop_
_atom_site_label
_atom_site_type_symbol
_atom_site_fract_x
_atom_site_fract_y
_atom_site_fract_z
Br1 Br -0.41996(3) 0.37809(5) 0.12851(11)
O1 O 0.0212(2) 0.3772(2) -0.1992(5)
O2 O 0.2477(3) 0.3452(3) 0.5655(7)
C1 C 0.0029(3) 0.3749(3) -0.0007(7)
C2 C 0.0790(3) 0.3714(3) 0.2017(8)
H1 H 0.0637 0.3577 0.3487
C3 C 0.1694(3) 0.3878(3) 0.1760(8)
H2 H 0.1811 0.4054 0.0282
C4 C 0.2501(4) 0.3809(3) 0.3540(8)
C5 C 0.3401(3) 0.4042(3) 0.3343(8)
H3 H 0.3612 0.4298 0.2032
C6 C 0.3966(3) 0.3830(4) 0.5455(10)
H4 H 0.4620 0.3928 0.5810
C7 C 0.3415(4) 0.3471(4) 0.6837(9)
H5 H 0.3609 0.3263 0.8353
C8 C -0.0983(3) 0.3758(3) 0.0412(7)
C9 C -0.1271(3) 0.4102(3) 0.2437(7)
H6 H -0.0817 0.4314 0.3646
C10 C -0.2221(3) 0.4132(3) 0.2679(8)
H7 H -0.2411 0.4373 0.4032
C11 C -0.2888(3) 0.3802(3) 0.0900(8)
C12 C -0.2635(3) 0.3453(3) -0.1120(8)
H8 H -0.3096 0.3227 -0.2298
C13 C -0.1670(3) 0.3443(3) -0.1383(7)
H9 H -0.1487 0.3225 -0.2765
loop_
_geom_bond_atom_site_label_1
_geom_bond_atom_site_label_2
_geom_bond_site_symmetry_1
_geom_bond_site_symmetry_2
Br1 C11 1_555 1_555
O1 C1 1_555 1_555
O2 C4 1_555 1_555
C1 C2 1_555 1_555
C2 H1 1_555 1_555
C3 C2 1_555 1_555
H2 C3 1_555 1_555
C4 C3 1_555 1_555
C5 C4 1_555 1_555
H3 C5 1_555 1_555
C6 C5 1_555 1_555
H4 C6 1_555 1_555
C7 O2 1_555 1_555
H5 C7 1_555 1_555
C8 C1 1_555 1_555
C9 C8 1_555 1_555
H6 C9 1_555 1_555
C10 C9 1_555 1_555
H7 C10 1_555 1_555
C11 C10 1_555 1_555
C12 C11 1_555 1_555
H8 C12 1_555 1_555
C13 C8 1_555 1_555
H9 C13 1_555 1_555
C6 C7 1_555 1_555
C12 C13 1_555 1_555

#END
