
#######################################################################
#
#                 Cambridge Crystallographic Data Centre
#                                CCDC 
#
#######################################################################
#
# If this CIF has been generated from an entry in the Cambridge 
# Structural Database, then it will include bibliographic, chemical, 
# crystal, experimental, refinement or atomic coordinate data resulting 
# from the CCDC's data processing and validation procedures.
#
#######################################################################

data_LOSHAE
_chemical_formula_moiety         'C19 H16 Cl1 N3 O3'
_chemical_name_systematic        
2-Chloro-4-nitro-3-phenyl-1-(1-phenyl-1H-imidazol-2-yl)butan-1-one
_symmetry_cell_setting           orthorhombic
_symmetry_space_group_name_H-M   'P 21 21 21'
_symmetry_Int_Tables_number      19
_space_group_name_Hall           'P 2ac 2ab'
loop_
_symmetry_equiv_pos_site_id
_symmetry_equiv_pos_as_xyz
1 x,y,z
2 1/2-x,-y,1/2+z
3 1/2+x,1/2-y,-z
4 -x,1/2+y,1/2-z
_cell_length_a                   8.1338(5)
_cell_length_b                   10.2777(6)
_cell_length_c                   21.8101(9)
_cell_angle_alpha                90
_cell_angle_beta                 90
_cell_angle_gamma                90
_cell_volume                     1823.25
_exptl_crystal_colour            colorless
_exptl_crystal_description       block
_cell_formula_units_Z            4
loop_
_atom_site_label
_atom_site_type_symbol
_atom_site_fract_x
_atom_site_fract_y
_atom_site_fract_z
Cl1 Cl 0.31986(16) 0.68693(14) 0.19421(5)
O1 O 0.4471(4) 0.8403(3) 0.30443(13)
N1 N 0.8363(6) 0.6585(5) 0.12203(16)
C1 C 0.4917(6) 0.6519(4) 0.24194(17)
H1 H 0.4962 0.5580 0.2495
C2 C 0.7929(5) 0.6827(4) 0.25855(17)
N2 N 0.4794(4) 0.6887(3) 0.41674(15)
N3 N 0.4596(5) 0.5152(3) 0.35636(18)
C3 C 0.6551(5) 0.6960(4) 0.21275(16)
H2 H 0.6452 0.7878 0.2012
C4 C 0.4680(5) 0.7226(4) 0.30273(19)
C5 C 0.4722(6) 0.6437(4) 0.35795(19)
C6 C 0.5003(6) 0.8186(5) 0.43913(17)
C7 C 0.8344(7) 0.5625(5) 0.2828(2)
H3 H 0.7809 0.4881 0.2689
C8 C 0.8764(6) 0.7906(5) 0.2797(2)
H4 H 0.8512 0.8722 0.2638
C9 C 0.6358(6) 0.8912(5) 0.4228(2)
H5 H 0.7121 0.8579 0.3952
C10 C 0.6854(6) 0.6156(4) 0.15467(17)
H6 H 0.6962 0.5246 0.1657
H7 H 0.5916 0.6241 0.1275
C11 C 0.4701(7) 0.5819(6) 0.4535(2)
H8 H 0.4719 0.5813 0.4961
O2 O 0.9218(6) 0.5787(4) 0.0991(2)
C12 C 0.3849(7) 0.8677(6) 0.4800(2)
H9 H 0.2924 0.8196 0.4907
C13 C 0.9993(8) 0.7792(8) 0.3250(3)
H10 H 1.0559 0.8518 0.3392
O3 O 0.8632(7) 0.7710(4) 0.1160(2)
C14 C 1.0324(7) 0.6560(9) 0.3475(3)
H11 H 1.1121 0.6462 0.3777
C15 C 0.4579(8) 0.4777(5) 0.4166(3)
H12 H 0.4494 0.3921 0.4301
C16 C 0.6579(8) 1.0136(5) 0.4476(2)
H13 H 0.7483 1.0635 0.4363
C17 C 0.4114(10) 0.9896(7) 0.5044(3)
H14 H 0.3356 1.0235 0.5320
C18 C 0.5457(10) 1.0617(6) 0.4891(3)
H15 H 0.5616 1.1432 0.5067
C19 C 0.9540(8) 0.5518(7) 0.3272(3)
H16 H 0.9799 0.4704 0.3431
loop_
_geom_bond_atom_site_label_1
_geom_bond_atom_site_label_2
_geom_bond_site_symmetry_1
_geom_bond_site_symmetry_2
Cl1 C1 1_555 1_555
O1 C4 1_555 1_555
N1 C10 1_555 1_555
C1 H1 1_555 1_555
C2 C3 1_555 1_555
N2 C5 1_555 1_555
N3 C5 1_555 1_555
C3 C1 1_555 1_555
H2 C3 1_555 1_555
C4 C1 1_555 1_555
C5 C4 1_555 1_555
C6 N2 1_555 1_555
C7 C2 1_555 1_555
H3 C7 1_555 1_555
C8 C2 1_555 1_555
H4 C8 1_555 1_555
C9 C6 1_555 1_555
H5 C9 1_555 1_555
C10 C3 1_555 1_555
H6 C10 1_555 1_555
H7 C10 1_555 1_555
C11 N2 1_555 1_555
H8 C11 1_555 1_555
O2 N1 1_555 1_555
C12 C6 1_555 1_555
H9 C12 1_555 1_555
C13 C8 1_555 1_555
H10 C13 1_555 1_555
O3 N1 1_555 1_555
C14 C13 1_555 1_555
H11 C14 1_555 1_555
C15 N3 1_555 1_555
H12 C15 1_555 1_555
C16 C9 1_555 1_555
H13 C16 1_555 1_555
C17 C12 1_555 1_555
H14 C17 1_555 1_555
C18 C16 1_555 1_555
H15 C18 1_555 1_555
C19 C7 1_555 1_555
H16 C19 1_555 1_555
C11 C15 1_555 1_555
C14 C19 1_555 1_555
C17 C18 1_555 1_555

#END
