
#######################################################################
#
#                 Cambridge Crystallographic Data Centre
#                                CCDC 
#
#######################################################################
#
# If this CIF has been generated from an entry in the Cambridge 
# Structural Database, then it will include bibliographic, chemical, 
# crystal, experimental, refinement or atomic coordinate data resulting 
# from the CCDC's data processing and validation procedures.
#
#######################################################################

data_LOSHIM
_chemical_formula_moiety         'C36 H30 B2 N6,C3 H6 O1'
_chemical_name_systematic        
"5,5,8,8-Tetraphenyl-5,6,7,8-tetrahydro-4\l^5^,9\l^5^,5\l^5^,8\l^5^-pyrazolo[1,2-a]pyrazolo[1',2':1,2][1,2,4,3]triazaborinino[5,6-f][1,2,4,3]benzotriazaborinine acetone solvate"
_symmetry_cell_setting           triclinic
_symmetry_space_group_name_H-M   'P -1'
_symmetry_Int_Tables_number      2
_space_group_name_Hall           '-P 1'
loop_
_symmetry_equiv_pos_site_id
_symmetry_equiv_pos_as_xyz
1 x,y,z
2 -x,-y,-z
_cell_length_a                   10.9203(9)
_cell_length_b                   12.3994(10)
_cell_length_c                   13.6076(12)
_cell_angle_alpha                94.079(3)
_cell_angle_beta                 99.826(3)
_cell_angle_gamma                110.183(3)
_cell_volume                     1687.11
_exptl_crystal_colour            yellow
_exptl_crystal_description       block
_cell_formula_units_Z            2
_exptl_crystal_recrystallization_method n-hexane/dichloromethane
_exptl_crystal_preparation       Luminescent
loop_
_atom_site_label
_atom_site_type_symbol
_atom_site_fract_x
_atom_site_fract_y
_atom_site_fract_z
N1 N 0.3479(2) 0.25757(18) 0.65089(16)
H1 H 0.4263 0.2663 0.6833
N2 N 0.4064(2) 0.05192(18) 0.66846(16)
H2 H 0.4720 0.1138 0.6977
N3 N 0.2104(2) 0.35488(19) 0.56417(17)
N4 N 0.1443(2) 0.25650(19) 0.49673(16)
N5 N 0.3701(2) -0.14553(19) 0.59895(16)
N6 N 0.2934(2) -0.13068(18) 0.51486(16)
B1 B 0.2940(3) 0.3517(3) 0.6723(2)
B2 B 0.3944(3) -0.0641(3) 0.7039(2)
C1 C 0.4149(3) 0.4749(2) 0.7056(2)
C2 C 0.5101(3) 0.5121(3) 0.6473(3)
H3 H 0.4983 0.4673 0.5862
C3 C 0.6218(4) 0.6128(4) 0.6758(4)
H4 H 0.6843 0.6341 0.6353
C4 C 0.6387(4) 0.6803(3) 0.7640(4)
H5 H 0.7131 0.7484 0.7838
C5 C 0.5477(5) 0.6489(3) 0.8236(3)
H6 H 0.5597 0.6954 0.8838
C6 C 0.4374(3) 0.5477(3) 0.7942(3)
H7 H 0.3758 0.5275 0.8356
C7 C 0.1918(3) 0.3216(2) 0.7486(2)
C8 C 0.0782(4) 0.3479(3) 0.7403(3)
H8 H 0.0552 0.3829 0.6855
C9 C -0.0039(4) 0.3246(4) 0.8099(3)
H9 H -0.0805 0.3429 0.8007
C10 C 0.0284(5) 0.2750(4) 0.8914(3)
H10 H -0.0253 0.2600 0.9388
C11 C 0.1395(6) 0.2475(4) 0.9033(3)
H11 H 0.1624 0.2137 0.9590
C12 C 0.2188(4) 0.2699(3) 0.8324(3)
H12 H 0.2937 0.2493 0.8415
C13 C 0.2627(3) -0.1218(3) 0.75054(19)
C14 C 0.1891(3) -0.0581(3) 0.7802(2)
H13 H 0.2130 0.0192 0.7703
C15 C 0.0799(4) -0.1075(4) 0.8247(3)
H14 H 0.0318 -0.0633 0.8432
C16 C 0.0441(4) -0.2209(5) 0.8409(3)
H15 H -0.0282 -0.2537 0.8707
C17 C 0.1145(4) -0.2860(4) 0.8134(3)
H16 H 0.0901 -0.3630 0.8245
C18 C 0.2218(3) -0.2374(3) 0.7689(2)
H17 H 0.2685 -0.2830 0.7505
C19 C 0.5316(3) -0.0536(2) 0.7760(2)
C20 C 0.6506(3) -0.0230(2) 0.7418(2)
H18 H 0.6482 -0.0162 0.6739
C21 C 0.7712(3) -0.0027(3) 0.8044(2)
H19 H 0.8483 0.0165 0.7785
C22 C 0.7783(3) -0.0104(3) 0.9050(2)
H20 H 0.8603 0.0050 0.9477
C23 C 0.6639(3) -0.0411(3) 0.9423(2)
H21 H 0.6677 -0.0479 1.0102
C24 C 0.5422(3) -0.0619(2) 0.8780(2)
H22 H 0.4653 -0.0822 0.9042
C25 C 0.0623(3) 0.2791(3) 0.4224(2)
H23 H 0.0061 0.2265 0.3671
C26 C 0.0754(3) 0.3926(3) 0.4420(2)
H24 H 0.0306 0.4318 0.4035
C27 C 0.1687(3) 0.4367(3) 0.5305(2)
H25 H 0.1983 0.5129 0.5621
C28 C 0.1411(3) -0.0391(2) 0.43956(19)
H26 H 0.0951 -0.1053 0.3927
C29 C 0.1068(3) 0.0564(2) 0.43500(19)
H27 H 0.0369 0.0558 0.3849
C30 C 0.1765(3) 0.1545(2) 0.50520(19)
C31 C 0.2800(3) 0.1595(2) 0.58341(19)
C32 C 0.3130(3) 0.0585(2) 0.59000(19)
C33 C 0.2463(3) -0.0363(2) 0.51569(19)
C34 C 0.4071(3) -0.2330(3) 0.5719(2)
H28 H 0.4598 -0.2624 0.6149
C35 C 0.3557(3) -0.2738(3) 0.4708(2)
H29 H 0.3670 -0.3343 0.4335
C36 C 0.2851(3) -0.2077(2) 0.4365(2)
H30 H 0.2392 -0.2145 0.3708
O1 O 0.6351(3) 0.3019(2) 0.7811(2)
C37 C 0.6176(7) 0.2642(5) 0.9429(4)
H31 H 0.5600 0.1885 0.9090
H32 H 0.5691 0.2970 0.9805
H33 H 0.6921 0.2581 0.9879
C38 C 0.6656(4) 0.3385(4) 0.8689(3)
C39 C 0.7550(6) 0.4607(4) 0.9060(4)
H34 H 0.7774 0.5004 0.8498
H35 H 0.8351 0.4621 0.9491
H36 H 0.7104 0.4987 0.9431
loop_
_geom_bond_atom_site_label_1
_geom_bond_atom_site_label_2
_geom_bond_site_symmetry_1
_geom_bond_site_symmetry_2
N1 H1 1_555 1_555
N2 H2 1_555 1_555
N3 N4 1_555 1_555
N4 C25 1_555 1_555
N5 N6 1_555 1_555
N6 C33 1_555 1_555
B1 N1 1_555 1_555
B2 N2 1_555 1_555
C1 B1 1_555 1_555
C2 C1 1_555 1_555
H3 C2 1_555 1_555
C3 C2 1_555 1_555
H4 C3 1_555 1_555
C4 C3 1_555 1_555
H5 C4 1_555 1_555
C5 C4 1_555 1_555
H6 C5 1_555 1_555
C6 C1 1_555 1_555
H7 C6 1_555 1_555
C7 B1 1_555 1_555
C8 C7 1_555 1_555
H8 C8 1_555 1_555
C9 C8 1_555 1_555
H9 C9 1_555 1_555
C10 C9 1_555 1_555
H10 C10 1_555 1_555
C11 C10 1_555 1_555
H11 C11 1_555 1_555
C12 C7 1_555 1_555
H12 C12 1_555 1_555
C13 B2 1_555 1_555
C14 C13 1_555 1_555
H13 C14 1_555 1_555
C15 C14 1_555 1_555
H14 C15 1_555 1_555
C16 C15 1_555 1_555
H15 C16 1_555 1_555
C17 C16 1_555 1_555
H16 C17 1_555 1_555
C18 C13 1_555 1_555
H17 C18 1_555 1_555
C19 B2 1_555 1_555
C20 C19 1_555 1_555
H18 C20 1_555 1_555
C21 C20 1_555 1_555
H19 C21 1_555 1_555
C22 C21 1_555 1_555
H20 C22 1_555 1_555
C23 C22 1_555 1_555
H21 C23 1_555 1_555
C24 C19 1_555 1_555
H22 C24 1_555 1_555
C25 H23 1_555 1_555
C26 C25 1_555 1_555
H24 C26 1_555 1_555
C27 N3 1_555 1_555
H25 C27 1_555 1_555
C28 H26 1_555 1_555
C29 C28 1_555 1_555
H27 C29 1_555 1_555
C30 N4 1_555 1_555
C31 N1 1_555 1_555
C32 N2 1_555 1_555
C33 C28 1_555 1_555
C34 N5 1_555 1_555
H28 C34 1_555 1_555
C35 C34 1_555 1_555
H29 C35 1_555 1_555
C36 N6 1_555 1_555
H30 C36 1_555 1_555
O1 C38 1_555 1_555
C37 H31 1_555 1_555
H32 C37 1_555 1_555
H33 C37 1_555 1_555
C38 C37 1_555 1_555
C39 C38 1_555 1_555
H34 C39 1_555 1_555
H35 C39 1_555 1_555
H36 C39 1_555 1_555
N3 B1 1_555 1_555
N5 B2 1_555 1_555
C5 C6 1_555 1_555
C11 C12 1_555 1_555
C17 C18 1_555 1_555
C23 C24 1_555 1_555
C26 C27 1_555 1_555
C29 C30 1_555 1_555
C30 C31 1_555 1_555
C31 C32 1_555 1_555
C32 C33 1_555 1_555
C35 C36 1_555 1_555

#END
