
#######################################################################
#
#                 Cambridge Crystallographic Data Centre
#                                CCDC 
#
#######################################################################
#
# If this CIF has been generated from an entry in the Cambridge 
# Structural Database, then it will include bibliographic, chemical, 
# crystal, experimental, refinement or atomic coordinate data resulting 
# from the CCDC's data processing and validation procedures.
#
#######################################################################

data_LOSJIN
_chemical_formula_moiety         'C7 H6 N4 S1'
_chemical_name_systematic        5-(4-Pyridyl)-1,3,4-thiadiazol-2-amine
_symmetry_cell_setting           monoclinic
_symmetry_space_group_name_H-M   'P 21/c'
_symmetry_Int_Tables_number      14
_space_group_name_Hall           '-P 2ybc'
loop_
_symmetry_equiv_pos_site_id
_symmetry_equiv_pos_as_xyz
1 x,y,z
2 -x,1/2+y,1/2-z
3 -x,-y,-z
4 x,1/2-y,1/2+z
_cell_length_a                   14.794(3)
_cell_length_b                   10.686(2)
_cell_length_c                   10.477(2)
_cell_angle_alpha                90
_cell_angle_beta                 106.52(3)
_cell_angle_gamma                90
_cell_volume                     1587.92
_exptl_crystal_colour            colorless
_exptl_crystal_description       block
_chemical_melting_point          '543 K'
_cell_formula_units_Z            8
_exptl_crystal_recrystallization_method acetone
loop_
_atom_site_label
_atom_site_type_symbol
_atom_site_fract_x
_atom_site_fract_y
_atom_site_fract_z
S1 S 0.08251(8) 0.54450(10) 0.19829(12)
N1 N 0.3034(3) 0.3300(4) -0.0749(4)
N2 N 0.0328(3) 0.3203(3) 0.1338(4)
N3 N -0.0258(2) 0.3605(3) 0.2081(4)
N4 N -0.0553(2) 0.5382(3) 0.3223(3)
H1 H -0.0999 0.5013 0.3454
H2 H -0.0408 0.6143 0.3462
C1 C 0.2262(3) 0.2621(5) -0.0932(4)
H3 H 0.2192 0.1944 -0.1510
C2 C 0.3105(3) 0.4259(5) 0.0056(5)
H4 H 0.3635 0.4769 0.0204
C3 C 0.2430(3) 0.4551(4) 0.0697(4)
H5 H 0.2515 0.5243 0.1256
C4 C 0.1643(3) 0.3827(4) 0.0511(4)
C5 C 0.1561(3) 0.2820(4) -0.0357(4)
H6 H 0.1038 0.2296 -0.0538
C6 C 0.0928(3) 0.4040(4) 0.1217(4)
C7 C -0.0070(3) 0.4754(4) 0.2470(4)
S2 S 0.43176(9) 0.68957(10) -0.17070(12)
N5 N 0.2053(3) 0.9156(4) 0.0901(4)
N6 N 0.4342(3) 0.9258(3) -0.1864(4)
N7 N 0.4926(2) 0.8856(3) -0.2569(4)
N8 N 0.5574(2) 0.7052(3) -0.3157(3)
H7 H 0.5907 0.7475 -0.3556
H8 H 0.5607 0.6249 -0.3136
C8 C 0.1980(3) 0.8094(5) 0.0207(5)
H9 H 0.1499 0.7540 0.0226
C9 C 0.2762(3) 0.9914(4) 0.0858(4)
H10 H 0.2837 1.0650 0.1352
C10 C 0.3375(3) 0.9687(4) 0.0150(4)
H11 H 0.3841 1.0269 0.0141
C11 C 0.3308(3) 0.8588(4) -0.0563(4)
C12 C 0.2573(3) 0.7782(4) -0.0528(4)
H12 H 0.2489 0.7035 -0.1003
C13 C 0.3977(3) 0.8349(4) -0.1355(4)
C14 C 0.4998(3) 0.7650(4) -0.2563(4)
loop_
_geom_bond_atom_site_label_1
_geom_bond_atom_site_label_2
_geom_bond_site_symmetry_1
_geom_bond_site_symmetry_2
S1 C6 1_555 1_555
N1 C1 1_555 1_555
N2 N3 1_555 1_555
N3 C7 1_555 1_555
N4 H1 1_555 1_555
H2 N4 1_555 1_555
C1 H3 1_555 1_555
C2 N1 1_555 1_555
H4 C2 1_555 1_555
C3 C2 1_555 1_555
H5 C3 1_555 1_555
C4 C3 1_555 1_555
C5 C1 1_555 1_555
H6 C5 1_555 1_555
C6 N2 1_555 1_555
C7 S1 1_555 1_555
S2 C13 1_555 1_555
N5 C8 1_555 1_555
N6 N7 1_555 1_555
N7 C14 1_555 1_555
N8 H7 1_555 1_555
H8 N8 1_555 1_555
C8 H9 1_555 1_555
C9 N5 1_555 1_555
H10 C9 1_555 1_555
C10 C9 1_555 1_555
H11 C10 1_555 1_555
C11 C10 1_555 1_555
C12 C8 1_555 1_555
H12 C12 1_555 1_555
C13 N6 1_555 1_555
C14 S2 1_555 1_555
N4 C7 1_555 1_555
C4 C5 1_555 1_555
C4 C6 1_555 1_555
N8 C14 1_555 1_555
C11 C12 1_555 1_555
C11 C13 1_555 1_555

#END
