
#######################################################################
#
#                 Cambridge Crystallographic Data Centre
#                                CCDC 
#
#######################################################################
#
# If this CIF has been generated from an entry in the Cambridge 
# Structural Database, then it will include bibliographic, chemical, 
# crystal, experimental, refinement or atomic coordinate data resulting 
# from the CCDC's data processing and validation procedures.
#
#######################################################################

data_LOTFIJ
_chemical_formula_moiety         'C15 H20 N1 1+,Cl1 1-,H2 O1,0.25(C1 H1 Cl3)'
_chemical_name_systematic        
"endo,endo-6-((Z)-2'-phenyl)ethenylbicyclo(2.2.1)hept-2-ylammonium chloride chloroform solvate monohydrate"
_symmetry_cell_setting           monoclinic
_symmetry_space_group_name_H-M   'C 2/c'
_symmetry_Int_Tables_number      15
_space_group_name_Hall           '-C 2yn'
loop_
_symmetry_equiv_pos_site_id
_symmetry_equiv_pos_as_xyz
1 x,y,z
2 -x,y,1/2-z
3 1/2+x,1/2+y,z
4 1/2-x,1/2+y,1/2-z
5 -x,-y,-z
6 x,-y,1/2+z
7 1/2-x,1/2-y,-z
8 1/2+x,1/2-y,1/2+z
_cell_length_a                   33.157(6)
_cell_length_b                   11.214(2)
_cell_length_c                   16.633(3)
_cell_angle_alpha                90
_cell_angle_beta                 104.557(3)
_cell_angle_gamma                90
_cell_volume                     5985.99
_exptl_crystal_colour            colorless
_exptl_crystal_description       needle
_chemical_melting_point          217-219deg.C
_cell_formula_units_Z            16
loop_
_atom_site_label
_atom_site_type_symbol
_atom_site_fract_x
_atom_site_fract_y
_atom_site_fract_z
Cl2 Cl 0.45013(10) 0.1082(4) 0.3989(2)
Cl3 Cl 0.4731(3) -0.3281(9) 0.1691(6)
Cl4 Cl 0.4719(3) -0.1681(9) 0.3023(6)
C31 C 0.5000 -0.252(3) 0.2500
Cl3A Cl 0.5269(3) -0.3281(9) 0.3309(6)
Cl4A Cl 0.5281(3) -0.1681(9) 0.1977(6)
O2 O 0.5511(4) 0.1092(13) 0.5996(8)
N1 N 0.5456(3) 0.6000(10) 0.5780(6)
C1 C 0.5641(4) 0.5184(12) 0.6530(7)
C2 C 0.5696(4) 0.5929(12) 0.7341(7)
C3 C 0.6154(3) 0.5588(11) 0.7788(7)
C4 C 0.6451(4) 0.6289(13) 0.7496(8)
C5 C 0.6421(3) 0.5806(12) 0.6588(7)
C6 C 0.6099(3) 0.4883(12) 0.6597(6)
C7 C 0.6199(4) 0.4323(12) 0.7520(7)
C8 C 0.6357(3) 0.6708(11) 0.5947(7)
C9 C 0.6503(4) 0.6763(12) 0.5232(8)
C10 C 0.6795(3) 0.5878(10) 0.5004(6)
C11 C 0.6784(3) 0.4696(10) 0.5105(6)
C12 C 0.7066(4) 0.3940(12) 0.4803(8)
C13 C 0.7352(4) 0.4466(12) 0.4413(8)
C14 C 0.7357(3) 0.5616(11) 0.4351(7)
C15 C 0.7076(4) 0.6292(11) 0.4602(7)
H1 H 0.5477 0.4490 0.6528
H2 H 0.5665 0.6764 0.7231
H3 H 0.5504 0.5686 0.7652
H4 H 0.6202 0.5642 0.8377
H5 H 0.6380 0.7115 0.7483
H6 H 0.6725 0.6178 0.7845
H7 H 0.6676 0.5406 0.6594
H8 H 0.6114 0.4269 0.6208
H9 H 0.6470 0.3983 0.7718
H10 H 0.5996 0.3774 0.7619
H11 H 0.6190 0.7372 0.6027
H12 H 0.6410 0.7411 0.4856
H13 H 0.6590 0.4360 0.5375
H14 H 0.7056 0.3096 0.4867
H15 H 0.7538 0.3988 0.4197
H16 H 0.7562 0.5991 0.4129
H17 H 0.7071 0.7129 0.4484
N2 N 0.5460(3) 0.0997(9) 0.4681(5)
C16 C 0.5644(4) 0.0197(12) 0.4124(7)
C17 C 0.6097(3) -0.0130(11) 0.4506(6)
C18 C 0.6425(4) 0.0834(13) 0.4842(8)
C19 C 0.6460(4) 0.1354(12) 0.3962(7)
C20 C 0.6149(4) 0.0585(11) 0.3362(7)
C21 C 0.5701(4) 0.0940(12) 0.3360(7)
C22 C 0.6210(4) -0.0687(12) 0.3679(7)
C23 C 0.6361(3) 0.1700(11) 0.5425(7)
C24 C 0.6513(4) 0.1718(12) 0.6280(8)
C25 C 0.6799(3) 0.0847(11) 0.6812(7)
C26 C 0.7073(4) 0.1265(12) 0.7498(8)
C27 C 0.7360(4) 0.0541(12) 0.8014(7)
C28 C 0.7355(3) -0.0618(12) 0.7931(7)
C29 C 0.7064(3) -0.1102(12) 0.7245(7)
C30 C 0.6784(3) -0.0364(10) 0.6694(6)
H18 H 0.5478 -0.0496 0.3954
H19 H 0.6113 -0.0736 0.4914
H20 H 0.6680 0.0426 0.5085
H21 H 0.6384 0.2176 0.3906
H22 H 0.6735 0.1262 0.3890
H23 H 0.6191 0.0637 0.2815
H24 H 0.5506 0.0705 0.2858
H25 H 0.5676 0.1775 0.3443
H26 H 0.6488 -0.0997 0.3767
H27 H 0.6018 -0.1260 0.3379
H28 H 0.6191 0.2359 0.5191
H29 H 0.6425 0.2369 0.6563
H30 H 0.7063 0.2092 0.7632
H31 H 0.7571 0.0899 0.8446
H32 H 0.7541 -0.1116 0.8321
H33 H 0.7057 -0.1943 0.7153
H34 H 0.6583 -0.0704 0.6236
Cl1 Cl 0.55020(10) 0.3930(4) 0.4507(2)
O1? O 0.5505(4) 0.6090(13) 0.4479(8)
loop_
_geom_bond_atom_site_label_1
_geom_bond_atom_site_label_2
_geom_bond_site_symmetry_1
_geom_bond_site_symmetry_2
Cl3 C31 1_555 1_555
Cl4 C31 1_555 1_555
N1 C1 1_555 1_555
N2 C16 1_555 1_555
C1 C2 1_555 1_555
C2 C3 1_555 1_555
C3 C4 1_555 1_555
C4 C5 1_555 1_555
C5 C6 1_555 1_555
C6 C1 1_555 1_555
C7 C3 1_555 1_555
C8 C5 1_555 1_555
C9 C8 1_555 1_555
C10 C9 1_555 1_555
C11 C10 1_555 1_555
C12 C11 1_555 1_555
C13 C12 1_555 1_555
C14 C13 1_555 1_555
C15 C10 1_555 1_555
C16 C17 1_555 1_555
C17 C18 1_555 1_555
C18 C19 1_555 1_555
C19 C20 1_555 1_555
C20 C21 1_555 1_555
C21 C16 1_555 1_555
C22 C17 1_555 1_555
C23 C18 1_555 1_555
C24 C23 1_555 1_555
C25 C24 1_555 1_555
C26 C25 1_555 1_555
C27 C26 1_555 1_555
C28 C27 1_555 1_555
C29 C28 1_555 1_555
C30 C25 1_555 1_555
C31 Cl3A 1_555 1_555
H1 C1 1_555 1_555
H2 C2 1_555 1_555
H3 C2 1_555 1_555
H4 C3 1_555 1_555
H5 C4 1_555 1_555
H6 C4 1_555 1_555
H7 C5 1_555 1_555
H8 C6 1_555 1_555
H9 C7 1_555 1_555
H10 C7 1_555 1_555
H11 C8 1_555 1_555
H12 C9 1_555 1_555
H13 C11 1_555 1_555
H14 C12 1_555 1_555
H15 C13 1_555 1_555
H16 C14 1_555 1_555
H17 C15 1_555 1_555
H18 C16 1_555 1_555
H19 C17 1_555 1_555
H20 C18 1_555 1_555
H21 C19 1_555 1_555
H22 C19 1_555 1_555
H23 C20 1_555 1_555
H24 C21 1_555 1_555
H25 C21 1_555 1_555
H26 C22 1_555 1_555
H27 C22 1_555 1_555
H28 C23 1_555 1_555
H29 C24 1_555 1_555
H30 C26 1_555 1_555
H31 C27 1_555 1_555
H32 C28 1_555 1_555
H33 C29 1_555 1_555
H34 C30 1_555 1_555
Cl4A C31 1_555 1_555
C6 C7 1_555 1_555
C14 C15 1_555 1_555
C20 C22 1_555 1_555
C29 C30 1_555 1_555

#END
