
#######################################################################
#
#                 Cambridge Crystallographic Data Centre
#                                CCDC 
#
#######################################################################
#
# If this CIF has been generated from an entry in the Cambridge 
# Structural Database, then it will include bibliographic, chemical, 
# crystal, experimental, refinement or atomic coordinate data resulting 
# from the CCDC's data processing and validation procedures.
#
#######################################################################

data_LOTFUV
_chemical_formula_moiety         'C13 H7 Br2 F2 N1 O1'
_chemical_name_systematic        
'2,6-Dibromo-3,5-difluoro-4-pyridyl 4-methylphenyl ketone'
_symmetry_cell_setting           monoclinic
_symmetry_space_group_name_H-M   'P 21/c'
_symmetry_Int_Tables_number      14
_space_group_name_Hall           '-P 2ybc'
loop_
_symmetry_equiv_pos_site_id
_symmetry_equiv_pos_as_xyz
1 x,y,z
2 x,1/2-y,1/2+z
3 -x,-y,-z
4 -x,1/2+y,1/2-z
_cell_length_a                   7.4899(15)
_cell_length_b                   22.206(4)
_cell_length_c                   8.6648(17)
_cell_angle_alpha                90
_cell_angle_beta                 113.35(3)
_cell_angle_gamma                90
_cell_volume                     1323.11
_exptl_crystal_colour            colorless
_exptl_crystal_description       prism
_chemical_melting_point          145-146deg.C
_cell_formula_units_Z            4
loop_
_atom_site_label
_atom_site_type_symbol
_atom_site_fract_x
_atom_site_fract_y
_atom_site_fract_z
Br1 Br 0.28493(4) 0.557191(12) 0.84053(3)
Br2 Br 0.24095(4) 0.378094(11) 0.38944(4)
F1 F 0.2058(2) 0.48428(7) 0.15883(17)
F2 F 0.2296(2) 0.63790(6) 0.53935(18)
C1 C 0.2144(3) 0.56344(10) 0.3416(3)
N1 N 0.2545(3) 0.47711(9) 0.5873(2)
C2 C 0.2534(3) 0.53528(11) 0.6212(3)
O1 O 0.3523(3) 0.61479(8) 0.1791(2)
C3 C 0.2390(3) 0.46094(10) 0.4356(3)
C4 C -0.1420(4) 0.63133(10) 0.1466(3)
H1 H -0.1444 0.5987 0.2166
C5 C 0.0306(3) 0.64639(10) 0.1301(3)
C6 C 0.0324(4) 0.69532(11) 0.0290(3)
H2 H 0.1494 0.7059 0.0174
C7 C 0.2081(4) 0.61029(10) 0.2107(3)
C8 C -0.3098(4) 0.66403(11) 0.0607(3)
H3 H -0.4270 0.6533 0.0717
C9 C 0.2318(3) 0.57937(10) 0.5016(3)
C10 C 0.2201(3) 0.50250(11) 0.3105(3)
C11 C -0.3091(4) 0.71259(10) -0.0419(3)
C12 C -0.1344(4) 0.72831(11) -0.0540(3)
H4 H -0.1306 0.7620 -0.1200
C13 C -0.4959(4) 0.74588(12) -0.1391(4)
H5 H -0.4707 0.7783 -0.2046
H6 H -0.5468 0.7631 -0.0605
H7 H -0.5916 0.7179 -0.2152
loop_
_geom_bond_atom_site_label_1
_geom_bond_atom_site_label_2
_geom_bond_site_symmetry_1
_geom_bond_site_symmetry_2
Br1 C2 1_555 1_555
Br2 C3 1_555 1_555
F1 C10 1_555 1_555
F2 C9 1_555 1_555
C1 C7 1_555 1_555
N1 C2 1_555 1_555
C2 C9 1_555 1_555
O1 C7 1_555 1_555
C3 N1 1_555 1_555
C4 H1 1_555 1_555
C5 C4 1_555 1_555
C6 C5 1_555 1_555
H2 C6 1_555 1_555
C7 C5 1_555 1_555
C8 C4 1_555 1_555
H3 C8 1_555 1_555
C9 C1 1_555 1_555
C10 C1 1_555 1_555
C11 C8 1_555 1_555
C12 C6 1_555 1_555
H4 C12 1_555 1_555
C13 C11 1_555 1_555
H5 C13 1_555 1_555
H6 C13 1_555 1_555
H7 C13 1_555 1_555
C3 C10 1_555 1_555
C11 C12 1_555 1_555

#END
