
#######################################################################
#
#                 Cambridge Crystallographic Data Centre
#                                CCDC 
#
#######################################################################
#
# If this CIF has been generated from an entry in the Cambridge 
# Structural Database, then it will include bibliographic, chemical, 
# crystal, experimental, refinement or atomic coordinate data resulting 
# from the CCDC's data processing and validation procedures.
#
#######################################################################

data_LOTGAE
_chemical_formula_moiety         'C23 H25 N1 O1'
_chemical_name_systematic        
1-(1-(4-t-butylphenyl)-2-methyl-4-phenyl-1H-pyrrol-3-yl)ethanone
_symmetry_cell_setting           monoclinic
_symmetry_space_group_name_H-M   'P 21/c'
_symmetry_Int_Tables_number      14
_space_group_name_Hall           '-P 2ybc'
loop_
_symmetry_equiv_pos_site_id
_symmetry_equiv_pos_as_xyz
1 x,y,z
2 -x,1/2+y,1/2-z
3 -x,-y,-z
4 x,1/2-y,1/2+z
_cell_length_a                   10.7809(8)
_cell_length_b                   16.0045(12)
_cell_length_c                   11.2190(8)
_cell_angle_alpha                90
_cell_angle_beta                 92.3110(10)
_cell_angle_gamma                90
_cell_volume                     1934.18
_cell_formula_units_Z            4
loop_
_atom_site_label
_atom_site_type_symbol
_atom_site_fract_x
_atom_site_fract_y
_atom_site_fract_z
N1 N 0.51530(12) 0.10459(9) 0.25030(12)
C1 C 0.41739(15) 0.10882(10) 0.42227(15)
C2 C 0.80476(15) 0.15554(11) 0.01541(15)
C3 C 0.39344(15) 0.08616(11) 0.22165(15)
C4 C 0.61258(15) 0.11951(11) 0.16915(15)
C5 C 0.72660(16) 0.08160(13) 0.18522(16)
H1 H 0.7399 0.0432 0.2467
C6 C 0.82173(16) 0.10046(13) 0.10999(17)
H2 H 0.8989 0.0755 0.1234
C7 C 0.33035(15) 0.08759(11) 0.32697(15)
C8 C 0.52918(15) 0.11835(11) 0.37155(15)
H3 H 0.6033 0.1320 0.4122
C9 C 0.59371(17) 0.17534(12) 0.07646(18)
H4 H 0.5175 0.2021 0.0653
C10 C 0.68823(17) 0.19138(12) 0.00039(18)
H5 H 0.6732 0.2276 -0.0634
C11 C 0.4756(2) 0.10414(12) 0.64002(17)
H6 H 0.5420 0.0695 0.6235
O1 O 0.12515(13) 0.07569(14) 0.25136(16)
C12 C 0.19969(17) 0.06289(13) 0.33364(18)
C13 C 0.39464(16) 0.12999(10) 0.54797(15)
C14 C 0.90721(18) 0.17846(13) -0.07001(17)
C15 C 0.29578(18) 0.18156(12) 0.57622(17)
H7 H 0.2399 0.1993 0.5161
C16 C 0.34928(18) 0.06218(14) 0.09846(16)
H8 H 0.2842 0.0215 0.1028
H9 H 0.4170 0.0389 0.0565
H10 H 0.3183 0.1108 0.0569
C17 C 0.4584(2) 0.12943(15) 0.75629(18)
H11 H 0.5132 0.1115 0.8171
C18 C 0.2797(2) 0.20670(14) 0.69262(19)
H12 H 0.2136 0.2413 0.7102
C19 C 0.3614(2) 0.18060(15) 0.78245(19)
H13 H 0.3508 0.1977 0.8606
C20 C 0.1597(2) 0.01651(18) 0.4422(2)
H14 H 0.0979 -0.0242 0.4190
H15 H 0.1255 0.0553 0.4974
H16 H 0.2300 -0.0112 0.4796
C21 C 1.0205(3) 0.1255(3) -0.0509(4)
H17 H 1.0558 0.1349 0.0278
H18 H 1.0802 0.1398 -0.1088
H19 H 0.9983 0.0676 -0.0596
C22 C 0.9407(3) 0.2698(2) -0.0530(3)
H20 H 0.9798 0.2777 0.0246
H21 H 0.8668 0.3032 -0.0600
H22 H 0.9969 0.2865 -0.1129
C23 C 0.8604(3) 0.1679(3) -0.1979(2)
H23 H 0.8369 0.1108 -0.2115
H24 H 0.9249 0.1829 -0.2505
H25 H 0.7898 0.2034 -0.2130
loop_
_geom_bond_atom_site_label_1
_geom_bond_atom_site_label_2
_geom_bond_site_symmetry_1
_geom_bond_site_symmetry_2
N1 C3 1_555 1_555
C1 C7 1_555 1_555
C2 C6 1_555 1_555
C3 C7 1_555 1_555
C4 N1 1_555 1_555
C5 C4 1_555 1_555
H1 C5 1_555 1_555
C6 C5 1_555 1_555
H2 C6 1_555 1_555
C7 C12 1_555 1_555
C8 N1 1_555 1_555
H3 C8 1_555 1_555
C9 C4 1_555 1_555
H4 C9 1_555 1_555
C10 C2 1_555 1_555
H5 C10 1_555 1_555
C11 H6 1_555 1_555
O1 C12 1_555 1_555
C12 C20 1_555 1_555
C13 C1 1_555 1_555
C14 C2 1_555 1_555
C15 C13 1_555 1_555
H7 C15 1_555 1_555
C16 C3 1_555 1_555
H8 C16 1_555 1_555
H9 C16 1_555 1_555
H10 C16 1_555 1_555
C17 C11 1_555 1_555
H11 C17 1_555 1_555
C18 C15 1_555 1_555
H12 C18 1_555 1_555
C19 C17 1_555 1_555
H13 C19 1_555 1_555
C20 H14 1_555 1_555
H15 C20 1_555 1_555
H16 C20 1_555 1_555
C21 C14 1_555 1_555
H17 C21 1_555 1_555
H18 C21 1_555 1_555
H19 C21 1_555 1_555
C22 C14 1_555 1_555
H20 C22 1_555 1_555
H21 C22 1_555 1_555
H22 C22 1_555 1_555
C23 C14 1_555 1_555
H23 C23 1_555 1_555
H24 C23 1_555 1_555
H25 C23 1_555 1_555
C1 C8 1_555 1_555
C9 C10 1_555 1_555
C11 C13 1_555 1_555
C18 C19 1_555 1_555

#END
