
#######################################################################
#
#                 Cambridge Crystallographic Data Centre
#                                CCDC 
#
#######################################################################
#
# If this CIF has been generated from an entry in the Cambridge 
# Structural Database, then it will include bibliographic, chemical, 
# crystal, experimental, refinement or atomic coordinate data resulting 
# from the CCDC's data processing and validation procedures.
#
#######################################################################

data_LOTKEK
_chemical_formula_moiety         'C22 H24 N6 O5 Si2'
_chemical_name_systematic        
1(3,4)-Furazana-2,8(2,6)-dipyridina-3,7(3,5)-bis(4,5-dihydropisoxazola)-5-oxa-4,6-bis(dimethylsila)cyclo-octaphane
_symmetry_cell_setting           triclinic
_symmetry_space_group_name_H-M   'P -1'
_symmetry_Int_Tables_number      2
_space_group_name_Hall           '-P 1'
loop_
_symmetry_equiv_pos_site_id
_symmetry_equiv_pos_as_xyz
1 x,y,z
2 -x,-y,-z
_cell_length_a                   8.6725(2)
_cell_length_b                   8.6733(2)
_cell_length_c                   17.7650(2)
_cell_angle_alpha                75.9570(10)
_cell_angle_beta                 86.1690(10)
_cell_angle_gamma                71.1580(10)
_cell_volume                     1226.77
_exptl_crystal_colour            colorless
_exptl_crystal_description       'hexagonal plate'
_cell_formula_units_Z            1
loop_
_atom_site_label
_atom_site_type_symbol
_atom_site_fract_x
_atom_site_fract_y
_atom_site_fract_z
Si1 Si 0.31151(7) 0.46202(7) 0.38106(3)
Si2 Si 0.16596(7) 0.18076(7) 0.36694(4)
O1 O 0.22258(19) 0.34666(19) 0.35261(9)
O2 O 0.52057(18) 0.4323(2) 0.25983(9)
O3 O -0.1470(2) 0.3490(2) 0.39289(9)
N1 N 0.4771(2) 0.4328(3) 0.18520(12)
N2 N 0.1239(2) 0.6917(3) 0.07291(10)
N3 N -0.1983(2) 0.5223(3) 0.36144(11)
N4 N -0.1920(2) 0.7492(2) 0.16684(11)
C1 C 0.1579(4) 0.6270(4) 0.41956(17)
C2 C 0.4768(4) 0.3308(4) 0.45127(18)
C3 C 0.3926(3) 0.5647(3) 0.28886(12)
C4 C 0.2653(3) 0.6451(3) 0.22326(12)
C5 C 0.3401(3) 0.5455(3) 0.16471(12)
C6 C 0.2641(3) 0.5657(3) 0.08961(13)
C7 C 0.3343(4) 0.4574(4) 0.04128(16)
C8 C 0.2567(4) 0.4830(4) -0.02828(16)
C9 C 0.1122(4) 0.6097(4) -0.04620(15)
C10 C 0.0487(3) 0.7112(3) 0.00569(13)
C11 C -0.1072(4) 0.8473(4) -0.00978(15)
C12 C 0.1835(4) 0.0757(4) 0.47136(17)
C13 C 0.2885(6) 0.0404(5) 0.3062(3)
C14 C -0.0533(3) 0.2629(3) 0.33373(13)
C15 C -0.0894(3) 0.3988(3) 0.25793(13)
C16 C -0.1657(2) 0.5516(3) 0.28914(12)
C17 C -0.2047(3) 0.7263(3) 0.24405(13)
C18 C -0.2501(3) 0.8595(4) 0.28138(18)
C19 C -0.2843(3) 1.0200(4) 0.2375(2)
C20 C -0.2709(3) 1.0462(4) 0.1578(2)
C21 C -0.2247(3) 0.9088(3) 0.12506(15)
C22 C -0.2179(3) 0.9324(3) 0.03985(16)
O4 O -0.1502(7) 0.9194(6) -0.1411(3)
O6 O -0.3361(11) 1.0695(11) -0.0671(5)
N6 N -0.1857(17) 0.9350(15) -0.0747(10)
N8 N -0.3557(13) 1.0679(14) 0.0097(7)
H1 H 0.110(4) 0.581(4) 0.464(2)
H2 H 0.209(4) 0.695(4) 0.4336(18)
H3 H 0.070(4) 0.697(4) 0.3805(17)
H4 H 0.436(4) 0.292(4) 0.500(2)
H5 H 0.548(4) 0.387(4) 0.4589(19)
H6 H 0.546(5) 0.233(5) 0.434(2)
H7 H 0.447(3) 0.640(3) 0.2949(13)
H8 H 0.251(3) 0.761(3) 0.2032(15)
H9 H 0.157(3) 0.633(3) 0.2397(14)
H10 H 0.425(3) 0.369(3) 0.0584(15)
H11 H 0.304(4) 0.403(4) -0.0596(18)
H12 H 0.050(3) 0.628(3) -0.0901(17)
H13 H 0.292(4) 0.046(4) 0.4903(18)
H14 H 0.155(4) -0.025(4) 0.4788(17)
H15 H 0.110(4) 0.146(4) 0.5013(19)
H16 H 0.399(8) -0.002(7) 0.324(3)
H17 H 0.241(6) -0.035(6) 0.305(3)
H18 H 0.300(5) 0.103(5) 0.257(3)
H19 H -0.100(3) 0.177(4) 0.3334(16)
H20 H -0.168(3) 0.389(3) 0.2249(14)
H21 H 0.009(3) 0.402(3) 0.2296(14)
H22 H -0.257(4) 0.835(4) 0.3356(18)
H23 H -0.318(4) 1.111(4) 0.2586(17)
H24 H -0.296(4) 1.153(4) 0.1234(17)
O5? O -0.2806(11) 1.0132(11) -0.0922(6)
O7? O -0.4456(6) 1.1496(6) -0.0078(3)
N5? N -0.1357(17) 0.8863(18) -0.0900(9)
N7? N -0.3181(17) 1.0342(17) -0.0156(8)
loop_
_geom_bond_atom_site_label_1
_geom_bond_atom_site_label_2
_geom_bond_site_symmetry_1
_geom_bond_site_symmetry_2
Si1 O1 1_555 1_555
Si2 O1 1_555 1_555
O2 N1 1_555 1_555
O3 N3 1_555 1_555
N1 C5 1_555 1_555
N2 C6 1_555 1_555
N3 C16 1_555 1_555
N4 C17 1_555 1_555
C1 Si1 1_555 1_555
C2 Si1 1_555 1_555
C3 Si1 1_555 1_555
C4 C3 1_555 1_555
C5 C4 1_555 1_555
C6 C5 1_555 1_555
C7 C6 1_555 1_555
C8 C7 1_555 1_555
C9 C8 1_555 1_555
C10 N2 1_555 1_555
C11 C10 1_555 1_555
C12 Si2 1_555 1_555
C13 Si2 1_555 1_555
C14 Si2 1_555 1_555
C15 C14 1_555 1_555
C16 C15 1_555 1_555
C17 C16 1_555 1_555
C18 C17 1_555 1_555
C19 C18 1_555 1_555
C20 C19 1_555 1_555
C21 N4 1_555 1_555
C22 C11 1_555 1_555
O4 N6 1_555 1_555
O6 N6 1_555 1_555
N6 C11 1_555 1_555
N8 C22 1_555 1_555
H1 C1 1_555 1_555
H2 C1 1_555 1_555
H3 C1 1_555 1_555
H4 C2 1_555 1_555
H5 C2 1_555 1_555
H6 C2 1_555 1_555
H7 C3 1_555 1_555
H8 C4 1_555 1_555
H9 C4 1_555 1_555
H10 C7 1_555 1_555
H11 C8 1_555 1_555
H12 C9 1_555 1_555
H13 C12 1_555 1_555
H14 C12 1_555 1_555
H15 C12 1_555 1_555
H16 C13 1_555 1_555
H17 C13 1_555 1_555
H18 C13 1_555 1_555
H19 C14 1_555 1_555
H20 C15 1_555 1_555
H21 C15 1_555 1_555
H22 C18 1_555 1_555
H23 C19 1_555 1_555
H24 C20 1_555 1_555
O2 C3 1_555 1_555
O3 C14 1_555 1_555
C9 C10 1_555 1_555
C20 C21 1_555 1_555
C21 C22 1_555 1_555
O6 N8 1_555 1_555

#END
