
#######################################################################
#
#                 Cambridge Crystallographic Data Centre
#                                CCDC 
#
#######################################################################
#
# If this CIF has been generated from an entry in the Cambridge 
# Structural Database, then it will include bibliographic, chemical, 
# crystal, experimental, refinement or atomic coordinate data resulting 
# from the CCDC's data processing and validation procedures.
#
#######################################################################

data_LOTLUD01
_chemical_formula_moiety         'C6 H16 N1 1+,Cl1 O4 1-'
_chemical_name_systematic        'Dipropylammonium perchlorate'
_symmetry_cell_setting           orthorhombic
_symmetry_space_group_name_H-M   'P n m a'
_symmetry_Int_Tables_number      62
_space_group_name_Hall           '-P 2ac 2n'
loop_
_symmetry_equiv_pos_site_id
_symmetry_equiv_pos_as_xyz
1 x,y,z
2 1/2-x,-y,1/2+z
3 1/2+x,1/2-y,1/2-z
4 -x,1/2+y,-z
5 -x,-y,-z
6 1/2+x,y,1/2-z
7 1/2-x,1/2+y,1/2+z
8 x,1/2-y,z
_cell_length_a                   8.5346(3)
_cell_length_b                   7.5928(3)
_cell_length_c                   16.1352(6)
_cell_angle_alpha                90
_cell_angle_beta                 90
_cell_angle_gamma                90
_cell_volume                     1045.59
_exptl_crystal_colour            colorless
_exptl_crystal_description       block
_cell_formula_units_Z            4
loop_
_atom_site_label
_atom_site_type_symbol
_atom_site_fract_x
_atom_site_fract_y
_atom_site_fract_z
Cl1 Cl 0.28374(6) 0.2500 0.48921(3)
O1 O 0.3744(3) 0.3809(3) 0.5342(2)
O2 O 0.2050(3) 0.1638(4) 0.42246(17)
O1G O 0.3744(3) 0.1191(3) 0.5342(2)
O2G O 0.2050(3) 0.3362(4) 0.42246(17)
N1 N 0.2863(2) 0.7500 0.49116(10)
H1 H 0.3496 0.8478 0.4944
C1 C 0.1449(5) 0.7500 0.7160(2)
C2 C 0.3190(3) 0.7500 0.33811(14)
H2 H 0.3868 0.6445 0.3416
C3 C 0.1770(3) 0.7500 0.56313(14)
H3 H 0.1089 0.6446 0.5599
C4 C 0.2611(3) 0.7500 0.64498(15)
H4 H 0.3289 0.8555 0.6488
C5 C 0.2051(3) 0.7500 0.40951(14)
H5 H 0.1372 0.8554 0.4056
C6 C 0.2324(5) 0.7500 0.2561(2)
H6 H 0.196(3) 0.7500 0.765(2)
H7 H 0.164(3) 0.854(3) 0.2502(15)
H8 H 0.308(4) 0.7500 0.215(2)
H9 H 0.076(3) 0.855(3) 0.7135(16)
H1G H 0.3496 0.6522 0.4944
H2G H 0.3868 0.8555 0.3416
H3G H 0.1089 0.8554 0.5599
H4G H 0.3289 0.6445 0.6488
H5G H 0.1372 0.6446 0.4056
H7G H 0.164(3) 0.646(3) 0.2502(15)
H9G H 0.076(3) 0.645(3) 0.7135(16)
H10? H 0.3496 0.8478 0.4944
H11? H 0.3868 0.6445 0.3416
H12? H 0.1089 0.6446 0.5599
H13? H 0.3289 0.8555 0.6488
H14? H 0.1372 0.8554 0.4056
O3? O 0.3888(3) 0.3799(3) 0.4581(2)
O4? O 0.1712(3) 0.3272(3) 0.54249(17)
loop_
_geom_bond_atom_site_label_1
_geom_bond_atom_site_label_2
_geom_bond_site_symmetry_1
_geom_bond_site_symmetry_2
Cl1 O1 1_555 1_555
O2 Cl1 1_555 1_555
N1 H1 1_555 1_555
C1 C4 1_555 1_555
C2 H2 1_555 1_555
C3 N1 1_555 1_555
H3 C3 1_555 1_555
C4 C3 1_555 1_555
H4 C4 1_555 1_555
C5 N1 1_555 1_555
H5 C5 1_555 1_555
C6 C2 1_555 1_555
H6 C1 1_555 1_555
H7 C6 1_555 1_555
H8 C6 1_555 1_555
H9 C1 1_555 1_555
O1G Cl1 1_555 1_555
O2G Cl1 1_555 1_555
H1G N1 1_555 1_555
H2G C2 1_555 1_555
H3G C3 1_555 1_555
H4G C4 1_555 1_555
H5G C5 1_555 1_555
H7G C6 1_555 1_555
H9G C1 1_555 1_555
C2 C5 1_555 1_555

#END
