
#######################################################################
#
#                 Cambridge Crystallographic Data Centre
#                                CCDC 
#
#######################################################################
#
# If this CIF has been generated from an entry in the Cambridge 
# Structural Database, then it will include bibliographic, chemical, 
# crystal, experimental, refinement or atomic coordinate data resulting 
# from the CCDC's data processing and validation procedures.
#
#######################################################################

data_LOTLUD
_chemical_formula_moiety         'C6 H16 N1 1+,Cl1 O4 1-'
_chemical_name_systematic        'Dipropylammonium perchlorate'
_symmetry_cell_setting           orthorhombic
_symmetry_space_group_name_H-M   'C m c m'
_symmetry_Int_Tables_number      63
_space_group_name_Hall           '-C 2n 2'
loop_
_symmetry_equiv_pos_site_id
_symmetry_equiv_pos_as_xyz
1 x,y,z
2 -x,-y,1/2+z
3 x,-y,-z
4 -x,y,1/2-z
5 1/2+x,1/2+y,z
6 1/2-x,1/2-y,1/2+z
7 1/2+x,1/2-y,-z
8 1/2-x,1/2+y,1/2-z
9 -x,-y,-z
10 x,y,1/2-z
11 -x,y,z
12 x,-y,1/2+z
13 1/2-x,1/2-y,-z
14 1/2+x,1/2+y,1/2-z
15 1/2-x,1/2+y,z
16 1/2+x,1/2-y,1/2+z
_cell_length_a                   16.3536(11)
_cell_length_b                   8.6485(5)
_cell_length_c                   7.7268(5)
_cell_angle_alpha                90
_cell_angle_beta                 90
_cell_angle_gamma                90
_cell_volume                     1092.83
_exptl_crystal_colour            colorless
_exptl_crystal_description       block
_cell_formula_units_Z            4
loop_
_atom_site_label
_atom_site_type_symbol
_atom_site_fract_x
_atom_site_fract_y
_atom_site_fract_z
Cl1 Cl 0.0000 0.71837(14) 0.2500
O1 O -0.0617(7) 0.8152(8) 0.2500
O2 O 0.0000 0.616(2) 0.108(2)
O1C O 0.0617(7) 0.8152(8) 0.2500
O2C O 0.0000 0.616(2) 0.392(2)
N1 N 0.0000 0.2889(4) 0.2500
H1 H 0.0000 0.3518 0.1539
C1 C -0.0759(3) 0.1961(5) 0.2500
H2 H -0.0763 0.1286 0.1465
C2 C -0.1507(4) 0.2915(7) 0.2500
H3 H -0.1510 0.3588 0.1463
C3 C -0.2272(6) 0.1904(17) 0.2500
H4 H -0.2271 0.1246 0.1468
H5 H -0.2760 0.2561 0.2500
H1C H 0.0000 0.3518 0.3461
C1C C 0.0759(3) 0.1961(5) 0.2500
H2C H 0.0763 0.1286 0.3535
C2C C 0.1507(4) 0.2915(7) 0.2500
H3C H 0.1510 0.3588 0.3537
C3C C 0.2272(6) 0.1904(17) 0.2500
H4C H 0.2271 0.1246 0.3532
H5C H 0.2760 0.2561 0.2500
H2I H -0.0763 0.1286 0.3535
H3I H -0.1510 0.3588 0.3537
H4I H -0.2271 0.1246 0.3532
H2J H 0.0763 0.1286 0.1465
H3J H 0.1510 0.3588 0.1463
H4J H 0.2271 0.1246 0.1468
H6? H 0.0000 0.3518 0.1539
H7? H -0.0763 0.1286 0.1465
H8? H -0.1510 0.3588 0.1463
H9? H -0.2274 0.1254 0.1461
O3? O -0.041(2) 0.6258(19) 0.119(2)
loop_
_geom_bond_atom_site_label_1
_geom_bond_atom_site_label_2
_geom_bond_site_symmetry_1
_geom_bond_site_symmetry_2
Cl1 O1 1_555 1_555
O2 Cl1 1_555 1_555
N1 H1 1_555 1_555
C1 N1 1_555 1_555
H2 C1 1_555 1_555
C2 C1 1_555 1_555
H3 C2 1_555 1_555
C3 C2 1_555 1_555
H4 C3 1_555 1_555
H5 C3 1_555 1_555
O1C Cl1 1_555 1_555
O2C Cl1 1_555 1_555
H1C N1 1_555 1_555
C1C N1 1_555 1_555
H2C C1C 1_555 1_555
C2C C1C 1_555 1_555
H3C C2C 1_555 1_555
C3C C2C 1_555 1_555
H4C C3C 1_555 1_555
H5C C3C 1_555 1_555
H2I C1 1_555 1_555
H3I C2 1_555 1_555
H4I C3 1_555 1_555
H2J C1C 1_555 1_555
H3J C2C 1_555 1_555
H4J C3C 1_555 1_555

#END
