
#######################################################################
#
#                 Cambridge Crystallographic Data Centre
#                                CCDC 
#
#######################################################################
#
# If this CIF has been generated from an entry in the Cambridge 
# Structural Database, then it will include bibliographic, chemical, 
# crystal, experimental, refinement or atomic coordinate data resulting 
# from the CCDC's data processing and validation procedures.
#
#######################################################################

data_LOTLIR
_chemical_name_common            
'18-Crown-6 dipropylammonium clathrate perchlorate'
_chemical_formula_moiety         'C12 H24 O6,C6 H16 N1 1+,Cl1 O4 1-'
_chemical_name_systematic        
'1,4,7,10,13,16-Hexaoxacyclooctadecane di-n-propylammonium clathrate perchlorate'
_symmetry_cell_setting           orthorhombic
_symmetry_space_group_name_H-M   'P n m a'
_symmetry_Int_Tables_number      62
_space_group_name_Hall           '-P 2ac 2n'
loop_
_symmetry_equiv_pos_site_id
_symmetry_equiv_pos_as_xyz
1 x,y,z
2 1/2-x,-y,1/2+z
3 1/2+x,1/2-y,1/2-z
4 -x,1/2+y,-z
5 -x,-y,-z
6 1/2+x,y,1/2-z
7 1/2-x,1/2+y,1/2+z
8 x,1/2-y,z
_cell_length_a                   16.5769(4)
_cell_length_b                   15.1415(3)
_cell_length_c                   10.0908(2)
_cell_angle_alpha                90
_cell_angle_beta                 90
_cell_angle_gamma                90
_cell_volume                     2532.78
_exptl_crystal_colour            colorless
_exptl_crystal_description       block
_cell_formula_units_Z            4
loop_
_atom_site_label
_atom_site_type_symbol
_atom_site_fract_x
_atom_site_fract_y
_atom_site_fract_z
O3 O 0.10116(12) 0.2500 0.64568(17)
O4 O 0.24068(8) 0.09046(8) 0.30501(13)
O5 O 0.16886(8) 0.08551(9) 0.56109(15)
C1 C 0.18457(15) 0.17252(16) 0.1279(2)
H1 H 0.2362 0.1674 0.0792
H2 H 0.1401 0.1745 0.0625
C2 C 0.10315(15) 0.17261(17) 0.7241(2)
H3 H 0.0575 0.1731 0.7873
H4 H 0.1539 0.1708 0.7757
C3 C 0.23847(15) 0.01360(13) 0.3868(3)
H5 H 0.2886 0.0112 0.4400
H6 H 0.2374 -0.0393 0.3293
C4 C 0.09777(14) 0.09362(16) 0.6382(2)
H7 H 0.0908 0.0402 0.6936
H8 H 0.0503 0.0988 0.5791
C5 C 0.17408(14) 0.09604(15) 0.2173(2)
H9 H 0.1236 0.1028 0.2686
H10 H 0.1701 0.0411 0.1645
C6 C 0.16789(17) 0.01012(13) 0.4785(3)
H11 H 0.1172 0.0086 0.4267
H12 H 0.1706 -0.0441 0.5332
O6 O 0.18433(11) 0.2500 0.20529(16)
O4G O 0.24068(8) 0.40954(8) 0.30501(13)
O5G O 0.16886(8) 0.41449(9) 0.56109(15)
C1G C 0.18457(15) 0.32748(16) 0.1279(2)
H1G H 0.2362 0.3326 0.0792
H2G H 0.1401 0.3255 0.0625
C2G C 0.10315(15) 0.32739(17) 0.7241(2)
H3G H 0.0575 0.3269 0.7873
H4G H 0.1539 0.3292 0.7757
C3G C 0.23847(15) 0.48640(13) 0.3868(3)
H5G H 0.2886 0.4888 0.4400
H6G H 0.2374 0.5393 0.3293
C4G C 0.09777(14) 0.40638(16) 0.6382(2)
H7G H 0.0908 0.4598 0.6936
H8G H 0.0503 0.4012 0.5791
C5G C 0.17408(14) 0.40396(15) 0.2173(2)
H9G H 0.1236 0.3972 0.2686
H10G H 0.1701 0.4589 0.1645
C6G C 0.16789(17) 0.48988(13) 0.4785(3)
H11G H 0.1172 0.4914 0.4267
H12G H 0.1706 0.5441 0.5332
N1 N 0.30944(12) 0.2500 0.4210(2)
H13 H 0.2820 0.2991 0.3916
C7 C 0.39295(19) 0.2500 0.3615(3)
H14 H 0.4223 0.3028 0.3937
C8 C 0.3098(2) 0.2500 0.5671(3)
C9 C 0.3947(2) 0.2500 0.2167(3)
H15 H 0.3656 0.3028 0.1840
C10 C 0.4766(3) 0.2500 0.1618(5)
H16 H 0.4739 0.2500 0.0648
H17 H 0.5055 0.1973 0.1924
C11 C 0.3533(3) 0.2057(3) 0.6481(4)
C12 C 0.3552(3) 0.2500 0.7922(4)
H18 H 0.4121 0.1909 0.6042
H19 H 0.3305 0.1511 0.6499
H20 H 0.3095 0.2500 0.8218
H21 H 0.3843 0.2013 0.8216
H13G H 0.2820 0.2009 0.3916
H14G H 0.4223 0.1972 0.3937
H15G H 0.3656 0.1972 0.1840
H17G H 0.5055 0.3027 0.1924
C11G C 0.3533(3) 0.2943(3) 0.6481(4)
H18G H 0.4121 0.3091 0.6042
H19G H 0.3305 0.3489 0.6499
H21G H 0.3843 0.2987 0.8216
Cl1 Cl 0.5000 0.0000 0.5000
O1 O 0.4644(3) -0.0802(3) 0.4943(4)
O2 O 0.4896(3) 0.0504(4) 0.3800(6)
O1D O 0.5356(3) 0.0802(3) 0.5057(4)
O2D O 0.5104(3) -0.0504(4) 0.6200(6)
H22? H 0.2820 0.2991 0.3916
H23? H 0.4223 0.3028 0.3937
H24? H 0.3656 0.3028 0.1840
H25? H 0.3216 0.1895 0.5421
H26? H 0.2537(15) 0.2500 0.571(2)
O7? O 0.4515(2) 0.0532(3) 0.6049(6)
O8? O 0.57778(18) 0.0029(3) 0.5416(4)
loop_
_geom_bond_atom_site_label_1
_geom_bond_atom_site_label_2
_geom_bond_site_symmetry_1
_geom_bond_site_symmetry_2
Cl1 O1 1_555 1_555
O2 Cl1 1_555 1_555
O3 C2 1_555 1_555
O4 C3 1_555 1_555
O5 C4 1_555 1_555
C1 H1 1_555 1_555
H2 C1 1_555 1_555
C2 H3 1_555 1_555
H4 C2 1_555 1_555
C3 H5 1_555 1_555
H6 C3 1_555 1_555
C4 C2 1_555 1_555
H7 C4 1_555 1_555
H8 C4 1_555 1_555
C5 O4 1_555 1_555
H9 C5 1_555 1_555
H10 C5 1_555 1_555
C6 O5 1_555 1_555
H11 C6 1_555 1_555
H12 C6 1_555 1_555
O6 C1 1_555 1_555
N1 H13 1_555 1_555
C7 N1 1_555 1_555
H14 C7 1_555 1_555
C8 N1 1_555 1_555
C9 C7 1_555 1_555
H15 C9 1_555 1_555
C10 C9 1_555 1_555
H16 C10 1_555 1_555
H17 C10 1_555 1_555
C11 C8 1_555 1_555
C12 C11 1_555 1_555
H18 C11 1_555 1_555
H19 C11 1_555 1_555
H20 C12 1_555 1_555
H21 C12 1_555 1_555
O1D Cl1 1_555 1_555
O2D Cl1 1_555 1_555
O4G C3G 1_555 1_555
O5G C4G 1_555 1_555
C1G O6 1_555 1_555
H1G C1G 1_555 1_555
H2G C1G 1_555 1_555
C2G O3 1_555 1_555
H3G C2G 1_555 1_555
H4G C2G 1_555 1_555
C3G H5G 1_555 1_555
H6G C3G 1_555 1_555
C4G C2G 1_555 1_555
H7G C4G 1_555 1_555
H8G C4G 1_555 1_555
C5G O4G 1_555 1_555
H9G C5G 1_555 1_555
H10G C5G 1_555 1_555
C6G O5G 1_555 1_555
H11G C6G 1_555 1_555
H12G C6G 1_555 1_555
H13G N1 1_555 1_555
H14G C7 1_555 1_555
H15G C9 1_555 1_555
H17G C10 1_555 1_555
C11G C8 1_555 1_555
H18G C11G 1_555 1_555
H19G C11G 1_555 1_555
H21G C12 1_555 1_555
C1 C5 1_555 1_555
C3 C6 1_555 1_555
C11 C11G 1_555 1_555
C12 C11G 1_555 1_555
C1G C5G 1_555 1_555
C3G C6G 1_555 1_555

#END
