
#######################################################################
#
#                 Cambridge Crystallographic Data Centre
#                                CCDC 
#
#######################################################################
#
# If this CIF has been generated from an entry in the Cambridge 
# Structural Database, then it will include bibliographic, chemical, 
# crystal, experimental, refinement or atomic coordinate data resulting 
# from the CCDC's data processing and validation procedures.
#
#######################################################################

data_LOTLIR01
_chemical_name_common            
'18-Crown-6 dipropylammonium clathrate perchlorate'
_chemical_formula_moiety         'C12 H24 O6,C6 H16 N1 1+,Cl1 O4 1-'
_chemical_name_systematic        
'1,4,7,10,13,16-Hexaoxacyclooctadecane di-n-propylammonium clathrate perchlorate'
_symmetry_cell_setting           orthorhombic
_symmetry_space_group_name_H-M   'P 21 21 21'
_symmetry_Int_Tables_number      19
_space_group_name_Hall           'P 2ac 2ab'
loop_
_symmetry_equiv_pos_site_id
_symmetry_equiv_pos_as_xyz
1 x,y,z
2 1/2-x,-y,1/2+z
3 1/2+x,1/2-y,-z
4 -x,1/2+y,1/2-z
_cell_length_a                   10.031(6)
_cell_length_b                   15.109(9)
_cell_length_c                   16.199(10)
_cell_angle_alpha                90
_cell_angle_beta                 90
_cell_angle_gamma                90
_cell_volume                     2455.09
_exptl_crystal_colour            colorless
_exptl_crystal_description       block
_cell_formula_units_Z            4
loop_
_atom_site_label
_atom_site_type_symbol
_atom_site_fract_x
_atom_site_fract_y
_atom_site_fract_z
Cl1 Cl 0.98744(6) 0.77025(4) 0.23735(4)
O1 O 0.95286(18) 0.76627(14) 0.32287(11)
O2 O 1.0050(2) 0.68225(12) 0.20639(12)
O3 O 0.8822(2) 0.81308(13) 0.19253(13)
O4 O 1.1096(2) 0.81904(16) 0.22795(15)
O5 O 1.68581(16) 0.33436(10) 0.01677(11)
O6 O 1.79824(16) 0.49345(10) 0.06718(11)
O7 O 1.70777(16) 0.65298(10) 0.00186(10)
O8 O 1.35819(17) 0.51457(11) 0.15605(12)
O9 O 1.43168(17) 0.34468(11) 0.08926(12)
O10 O 1.45120(17) 0.67355(11) 0.07902(11)
C1 C 1.8675(2) 0.41202(16) 0.07559(18)
H1 H 1.9291 0.4149 0.1233
H2 H 1.9205 0.4001 0.0253
C2 C 1.5011(3) 0.26283(16) 0.08997(16)
H3 H 1.4370 0.2132 0.0855
H4 H 1.5508 0.2563 0.1424
C3 C 1.5959(3) 0.26079(17) 0.01857(17)
H5 H 1.6484 0.2054 0.0211
H6 H 1.5440 0.2600 -0.0334
C4 C 1.8853(2) 0.56673(16) 0.05819(17)
H7 H 1.9288 0.5650 0.0034
H8 H 1.9554 0.5649 0.1011
C5 C 1.2749(3) 0.43863(18) 0.15618(19)
H9 H 1.2224 0.4367 0.1044
H10 H 1.2118 0.4421 0.2031
C6 C 1.6329(3) 0.73328(16) 0.00245(17)
H11 H 1.5772 0.7356 -0.0480
H12 H 1.6956 0.7838 0.0003
C7 C 1.8043(2) 0.64975(15) 0.06675(16)
H13 H 1.7588 0.6504 0.1210
H14 H 1.8634 0.7021 0.0636
C8 C 1.5440(2) 0.74400(15) 0.07672(16)
H15 H 1.5985 0.7438 0.1277
H16 H 1.4962 0.8012 0.0735
C9 C 1.7681(2) 0.34012(16) 0.08836(17)
H17 H 1.8144 0.2831 0.0976
H18 H 1.7128 0.3532 0.1375
C10 C 1.2824(3) 0.59423(18) 0.15241(18)
H19 H 1.2212 0.5973 0.2002
H20 H 1.2283 0.5951 0.1013
C11 C 1.3568(3) 0.35659(18) 0.16345(18)
H21 H 1.4181 0.3616 0.2111
H22 H 1.2980 0.3049 0.1726
C12 C 1.3753(3) 0.67241(18) 0.15346(17)
H23 H 1.3232 0.7278 0.1584
H24 H 1.4358 0.6683 0.2016
N1 N 1.57644(19) 0.49430(13) -0.05695(13)
H25 H 1.6220 0.5413 -0.0344
H26 H 1.5917 0.4457 -0.0241
C13 C 1.6307(2) 0.47631(17) -0.14094(16)
H27 H 1.5894 0.5176 -0.1809
H28 H 1.6066 0.4153 -0.1575
C14 C 1.7806(3) 0.48662(18) -0.14415(17)
H29 H 1.8221 0.4495 -0.1008
H30 H 1.8048 0.5491 -0.1333
C15 C 1.4291(2) 0.51500(17) -0.05595(18)
H31 H 1.3995 0.5210 0.0021
H32 H 1.4144 0.5726 -0.0836
C16 C 1.3446(2) 0.44591(18) -0.09782(18)
H33 H 1.3512 0.3894 -0.0672
H34 H 1.3779 0.4359 -0.1546
C17 C 1.8332(3) 0.4589(2) -0.22864(19)
H35 H 1.8170 0.3956 -0.2369
H36 H 1.9291 0.4707 -0.2316
H37 H 1.7872 0.4927 -0.2717
C18 C 1.1993(3) 0.4755(2) -0.1011(2)
H38 H 1.1653 0.4829 -0.0448
H39 H 1.1462 0.4307 -0.1300
H40 H 1.1931 0.5320 -0.1307
loop_
_geom_bond_atom_site_label_1
_geom_bond_atom_site_label_2
_geom_bond_site_symmetry_1
_geom_bond_site_symmetry_2
Cl1 O1 1_555 1_555
O2 Cl1 1_555 1_555
O3 Cl1 1_555 1_555
O4 Cl1 1_555 1_555
O5 C3 1_555 1_555
O6 C1 1_555 1_555
O7 C6 1_555 1_555
O8 C5 1_555 1_555
O9 C2 1_555 1_555
O10 C8 1_555 1_555
C1 H1 1_555 1_555
H2 C1 1_555 1_555
C2 H3 1_555 1_555
H4 C2 1_555 1_555
C3 C2 1_555 1_555
H5 C3 1_555 1_555
H6 C3 1_555 1_555
C4 O6 1_555 1_555
H7 C4 1_555 1_555
H8 C4 1_555 1_555
C5 H9 1_555 1_555
H10 C5 1_555 1_555
C6 H11 1_555 1_555
H12 C6 1_555 1_555
C7 O7 1_555 1_555
H13 C7 1_555 1_555
H14 C7 1_555 1_555
C8 C6 1_555 1_555
H15 C8 1_555 1_555
H16 C8 1_555 1_555
C9 O5 1_555 1_555
H17 C9 1_555 1_555
H18 C9 1_555 1_555
C10 O8 1_555 1_555
H19 C10 1_555 1_555
H20 C10 1_555 1_555
C11 O9 1_555 1_555
H21 C11 1_555 1_555
H22 C11 1_555 1_555
C12 O10 1_555 1_555
H23 C12 1_555 1_555
H24 C12 1_555 1_555
N1 H25 1_555 1_555
H26 N1 1_555 1_555
C13 N1 1_555 1_555
H27 C13 1_555 1_555
H28 C13 1_555 1_555
C14 C13 1_555 1_555
H29 C14 1_555 1_555
H30 C14 1_555 1_555
C15 N1 1_555 1_555
H31 C15 1_555 1_555
H32 C15 1_555 1_555
C16 C15 1_555 1_555
H33 C16 1_555 1_555
H34 C16 1_555 1_555
C17 C14 1_555 1_555
H35 C17 1_555 1_555
H36 C17 1_555 1_555
H37 C17 1_555 1_555
C18 C16 1_555 1_555
H38 C18 1_555 1_555
H39 C18 1_555 1_555
H40 C18 1_555 1_555
C1 C9 1_555 1_555
C4 C7 1_555 1_555
C5 C11 1_555 1_555
C10 C12 1_555 1_555

#END
