
#######################################################################
#
#                 Cambridge Crystallographic Data Centre
#                                CCDC 
#
#######################################################################
#
# If this CIF has been generated from an entry in the Cambridge 
# Structural Database, then it will include bibliographic, chemical, 
# crystal, experimental, refinement or atomic coordinate data resulting 
# from the CCDC's data processing and validation procedures.
#
#######################################################################

data_LOTLUD02
_chemical_formula_moiety         'C6 H16 N1 1+,Cl1 O4 1-'
_chemical_name_systematic        'Dipropylammonium perchlorate'
_symmetry_cell_setting           orthorhombic
_symmetry_space_group_name_H-M   'P m c n'
_symmetry_Int_Tables_number      62
_space_group_name_Hall           '-P 2n 2a'
loop_
_symmetry_equiv_pos_site_id
_symmetry_equiv_pos_as_xyz
1 x,y,z
2 1/2-x,1/2-y,1/2+z
3 1/2+x,-y,-z
4 -x,1/2+y,1/2-z
5 -x,-y,-z
6 1/2+x,1/2+y,1/2-z
7 1/2-x,y,z
8 x,1/2-y,1/2+z
_cell_length_a                   7.4714(8)
_cell_length_b                   16.0278(18)
_cell_length_c                   8.4874(9)
_cell_angle_alpha                90
_cell_angle_beta                 90
_cell_angle_gamma                90
_cell_volume                     1016.37
_exptl_crystal_colour            colorless
_exptl_crystal_description       block
_cell_formula_units_Z            4
loop_
_atom_site_label
_atom_site_type_symbol
_atom_site_fract_x
_atom_site_fract_y
_atom_site_fract_z
Cl1 Cl 0.7500 0.51139(17) 0.7096(3)
O1 O 0.6476(18) 0.5750(8) 0.7898(14)
O2 O 0.6195(17) 0.4599(8) 0.6212(14)
O1F O 0.8524(18) 0.5750(8) 0.7898(14)
O2F O 0.8805(17) 0.4599(8) 0.6212(14)
N1 N 0.2500 0.5104(5) 0.7200(11)
H1 H 0.3494 0.5071 0.6564
C1 C 0.2500 0.4373(7) 0.8316(14)
H2 H 0.1428 0.4403 0.9000
C2 C 0.2500 0.6652(7) 0.6841(14)
H3 H 0.3573 0.6616 0.6161
C3 C 0.2500 0.2832(9) 0.8622(19)
C4 C 0.2500 0.3553(7) 0.7444(15)
H4 H 0.3573 0.3516 0.6763
C5 C 0.2500 0.5929(7) 0.8017(14)
H5 H 0.3572 0.5970 0.8699
C6 C 0.2500 0.7473(8) 0.7714(18)
H6 H 0.2500 0.237(6) 0.819(12)
H7 H 0.2500 0.7971 0.7124
H8 H 0.193(9) 0.283(4) 0.935(8)
H9 H 0.1863 0.7502 0.8505
H1F H 0.1506 0.5071 0.6564
H2F H 0.3572 0.4403 0.9000
H3F H 0.1427 0.6616 0.6161
H4F H 0.1427 0.3516 0.6763
H5F H 0.1428 0.5970 0.8699
H8F H 0.307(9) 0.283(4) 0.935(8)
H9F H 0.3137 0.7502 0.8505
O3? O 0.6243(17) 0.5486(8) 0.6019(13)
H10? H 0.3494 0.5071 0.6564
H11? H 0.1428 0.4403 0.9000
H12? H 0.3573 0.6616 0.6161
H13? H 0.3573 0.3516 0.6763
H14? H 0.3572 0.5970 0.8699
O4? O 0.6625(19) 0.4601(8) 0.8204(14)
loop_
_geom_bond_atom_site_label_1
_geom_bond_atom_site_label_2
_geom_bond_site_symmetry_1
_geom_bond_site_symmetry_2
Cl1 O1 1_555 1_555
O2 Cl1 1_555 1_555
N1 H1 1_555 1_555
C1 N1 1_555 1_555
H2 C1 1_555 1_555
C2 H3 1_555 1_555
C3 C4 1_555 1_555
C4 C1 1_555 1_555
H4 C4 1_555 1_555
C5 N1 1_555 1_555
H5 C5 1_555 1_555
C6 C2 1_555 1_555
H6 C3 1_555 1_555
H7 C6 1_555 1_555
H8 C3 1_555 1_555
H9 C6 1_555 1_555
O1F Cl1 1_555 1_555
O2F Cl1 1_555 1_555
H1F N1 1_555 1_555
H2F C1 1_555 1_555
H3F C2 1_555 1_555
H4F C4 1_555 1_555
H5F C5 1_555 1_555
H8F C3 1_555 1_555
H9F C6 1_555 1_555
C2 C5 1_555 1_555

#END
