
#######################################################################
#
#                 Cambridge Crystallographic Data Centre
#                                CCDC 
#
#######################################################################
#
# If this CIF has been generated from an entry in the Cambridge 
# Structural Database, then it will include bibliographic, chemical, 
# crystal, experimental, refinement or atomic coordinate data resulting 
# from the CCDC's data processing and validation procedures.
#
#######################################################################

data_LOTRUJ
_chemical_formula_moiety         'C15 H25 N1 O4'
_chemical_name_systematic        
'Methyl 1-allyl-2-((t-butoxycarbonyl)amino)cyclopentanecarboxylate'
_symmetry_cell_setting           monoclinic
_symmetry_space_group_name_H-M   'P 21/n'
_symmetry_Int_Tables_number      14
_space_group_name_Hall           '-P 2yn'
loop_
_symmetry_equiv_pos_site_id
_symmetry_equiv_pos_as_xyz
1 x,y,z
2 1/2-x,1/2+y,1/2-z
3 -x,-y,-z
4 1/2+x,1/2-y,1/2+z
_cell_length_a                   11.2581(6)
_cell_length_b                   6.6241(3)
_cell_length_c                   21.6129(16)
_cell_angle_alpha                90
_cell_angle_beta                 95.919(6)
_cell_angle_gamma                90
_cell_volume                     1603.18
_exptl_crystal_colour            colorless
_exptl_crystal_description       plate
_cell_formula_units_Z            4
loop_
_atom_site_label
_atom_site_type_symbol
_atom_site_fract_x
_atom_site_fract_y
_atom_site_fract_z
O1 O 0.17832(11) 1.25529(18) -0.05624(6)
N1 N 0.16079(11) 0.6734(2) -0.00449(6)
H1 H 0.1746 0.5499 -0.0136
C1 C 0.16820(13) 0.9146(2) -0.09573(7)
O2 O 0.33699(9) 1.05566(17) -0.03532(6)
C2 C 0.06867(13) 0.9796(2) -0.14559(8)
H2 H 0.1012 1.0126 -0.1842
H3 H 0.0265 1.0965 -0.1319
O3 O 0.18687(10) 0.91467(17) 0.07066(5)
C3 C -0.01506(14) 0.7966(3) -0.15427(8)
H4 H 0.0065 0.7119 -0.1880
H5 H -0.0972 0.8401 -0.1637
O4 O 0.26533(9) 0.59750(16) 0.08439(5)
C4 C 0.00024(14) 0.6804(3) -0.09230(8)
H6 H -0.0749 0.6737 -0.0741
H7 H 0.0279 0.5440 -0.0986
C5 C 0.09329(13) 0.7991(2) -0.04999(7)
H8 H 0.0506 0.8997 -0.0275
C6 C 0.25903(13) 0.7723(2) -0.12196(8)
H9 H 0.3131 0.7208 -0.0877
H10 H 0.2165 0.6582 -0.1417
C7 C 0.33065(15) 0.8707(3) -0.16805(9)
H11 H 0.3818 0.9741 -0.1533
C8 C 0.32849(17) 0.8260(3) -0.22683(10)
H12 H 0.2788 0.7236 -0.2438
H13 H 0.3767 0.8964 -0.2519
C9 C 0.22628(13) 1.0945(2) -0.06173(8)
C10 C 0.38922(16) 1.2138(3) 0.00495(10)
H14 H 0.3952 1.3353 -0.0187
H15 H 0.4674 1.1731 0.0225
H16 H 0.3397 1.2377 0.0378
C11 C 0.20278(13) 0.7448(2) 0.05206(8)
C12 C 0.31814(14) 0.6336(3) 0.14864(7)
C13 C 0.40976(16) 0.8019(3) 0.14967(9)
H17 H 0.4640 0.7750 0.1192
H18 H 0.4534 0.8092 0.1902
H19 H 0.3698 0.9280 0.1403
C14 C 0.37818(16) 0.4333(3) 0.16565(8)
H20 H 0.3202 0.3268 0.1604
H21 H 0.4123 0.4372 0.2082
H22 H 0.4400 0.4092 0.1391
C15 C 0.22102(15) 0.6772(3) 0.19033(8)
H23 H 0.1847 0.8050 0.1792
H24 H 0.2551 0.6813 0.2329
H25 H 0.1616 0.5728 0.1854
loop_
_geom_bond_atom_site_label_1
_geom_bond_atom_site_label_2
_geom_bond_site_symmetry_1
_geom_bond_site_symmetry_2
O1 C9 1_555 1_555
N1 H1 1_555 1_555
C1 C2 1_555 1_555
O2 C9 1_555 1_555
C2 H2 1_555 1_555
H3 C2 1_555 1_555
O3 C11 1_555 1_555
C3 C2 1_555 1_555
H4 C3 1_555 1_555
H5 C3 1_555 1_555
O4 C11 1_555 1_555
C4 C3 1_555 1_555
H6 C4 1_555 1_555
H7 C4 1_555 1_555
C5 N1 1_555 1_555
H8 C5 1_555 1_555
C6 C1 1_555 1_555
H9 C6 1_555 1_555
H10 C6 1_555 1_555
C7 C6 1_555 1_555
H11 C7 1_555 1_555
C8 C7 1_555 1_555
H12 C8 1_555 1_555
H13 C8 1_555 1_555
C9 C1 1_555 1_555
C10 O2 1_555 1_555
H14 C10 1_555 1_555
H15 C10 1_555 1_555
H16 C10 1_555 1_555
C11 N1 1_555 1_555
C12 O4 1_555 1_555
C13 C12 1_555 1_555
H17 C13 1_555 1_555
H18 C13 1_555 1_555
H19 C13 1_555 1_555
C14 C12 1_555 1_555
H20 C14 1_555 1_555
H21 C14 1_555 1_555
H22 C14 1_555 1_555
C15 C12 1_555 1_555
H23 C15 1_555 1_555
H24 C15 1_555 1_555
H25 C15 1_555 1_555
C1 C5 1_555 1_555
C4 C5 1_555 1_555

#END
