
#######################################################################
#
#                 Cambridge Crystallographic Data Centre
#                                CCDC 
#
#######################################################################
#
# If this CIF has been generated from an entry in the Cambridge 
# Structural Database, then it will include bibliographic, chemical, 
# crystal, experimental, refinement or atomic coordinate data resulting 
# from the CCDC's data processing and validation procedures.
#
#######################################################################

data_LOTWAU
_chemical_formula_moiety         'C29 H48 O4 Si1'
_chemical_name_systematic        
3-hydroxy-4-methyl-5-(1-((triisopropylsilyl)oxy)propan-2-yl)-10-oxatetracyclo[10.4.1.0^4,8^.0^8,16^]heptadeca-13,15-dien-11-one
_symmetry_cell_setting           monoclinic
_symmetry_space_group_name_H-M   'P 21/c'
_symmetry_Int_Tables_number      14
_space_group_name_Hall           '-P 2ybc'
loop_
_symmetry_equiv_pos_site_id
_symmetry_equiv_pos_as_xyz
1 x,y,z
2 -x,1/2+y,1/2-z
3 -x,-y,-z
4 x,1/2-y,1/2+z
_cell_length_a                   14.8075(8)
_cell_length_b                   13.0885(7)
_cell_length_c                   14.9329(8)
_cell_angle_alpha                90
_cell_angle_beta                 107.6965(6)
_cell_angle_gamma                90
_cell_volume                     2757.17
_exptl_crystal_colour            colorless
_exptl_crystal_description       prism
_cell_formula_units_Z            4
loop_
_atom_site_label
_atom_site_type_symbol
_atom_site_fract_x
_atom_site_fract_y
_atom_site_fract_z
Si1 Si 0.38990(3) -0.29062(3) 0.13721(3)
O1 O 0.02636(8) 0.11820(8) 0.07867(8)
O2 O -0.02235(7) 0.18430(7) -0.20573(7)
O3 O -0.08742(8) 0.29632(8) -0.31248(7)
O4 O 0.31923(9) -0.19491(9) 0.13900(8)
C1 C 0.08677(13) 0.29516(11) 0.09207(11)
C2 C 0.10960(11) 0.18012(11) 0.09920(10)
C3 C 0.17009(10) 0.15120(10) 0.03545(9)
C4 C 0.18586(10) 0.03592(10) 0.01916(10)
C5 C 0.21523(12) 0.03719(12) -0.07283(11)
C6 C 0.18772(11) 0.14289(11) -0.12020(10)
C7 C 0.12367(10) 0.18984(10) -0.06752(9)
C8 C 0.02271(11) 0.14471(11) -0.11135(10)
C9 C -0.05986(10) 0.27771(11) -0.22895(10)
C10 C -0.07653(11) 0.36059(11) -0.16162(11)
C11 C -0.05249(12) 0.33992(12) -0.05565(11)
C12 C 0.05502(11) 0.34345(11) -0.00685(10)
C13 C 0.10826(10) 0.30329(10) -0.07192(10)
C14 C 0.12072(11) 0.36292(11) -0.14009(10)
C15 C 0.06651(13) 0.45825(12) -0.16747(11)
C16 C -0.02571(12) 0.45696(12) -0.17885(11)
C17 C 0.26707(12) 0.20379(12) 0.07601(11)
C18 C 0.25580(11) -0.02431(11) 0.09873(10)
C19 C 0.22883(14) -0.02617(14) 0.18978(12)
C20 C 0.26142(13) -0.13372(11) 0.06462(11)
C21 C 0.32023(14) -0.39947(13) 0.06736(14)
C22 C 0.3721(2) -0.50241(16) 0.0867(2)
H1 H 0.4252 -0.5017 0.0605
H2 H 0.3281 -0.5574 0.0574
H3 H 0.3961 -0.5139 0.1547
C23 C 0.28347(18) -0.37947(18) -0.03787(15)
H4 H 0.2456 -0.4379 -0.0693
H5 H 0.3371 -0.3698 -0.0625
H6 H 0.2440 -0.3178 -0.0496
C24 C 0.48495(13) -0.24985(15) 0.08480(13)
C25 C 0.57125(18) -0.3195(2) 0.1126(2)
C26 C 0.5154(2) -0.1382(2) 0.1006(2)
C27 C 0.43883(13) -0.32510(14) 0.26488(12)
C28 C 0.36263(18) -0.3668(2) 0.30531(16)
C29 C 0.48908(15) -0.23364(19) 0.32291(14)
H7 H -0.0079(16) 0.1393(18) 0.1108(16)
H8 H 0.0375(12) 0.3086(13) 0.1218(12)
H9 H 0.1460(12) 0.3291(13) 0.1316(12)
H10 H 0.1470(11) 0.1674(12) 0.1622(11)
H11 H 0.1254(10) 0.0026(11) 0.0052(10)
H12 H 0.1864(12) -0.0191(14) -0.1144(13)
H13 H 0.2840(12) 0.0277(12) -0.0580(11)
H14 H 0.1542(11) 0.1379(12) -0.1878(12)
H15 H 0.2450(13) 0.1846(13) -0.1127(12)
H16 H -0.0189(11) 0.1544(12) -0.0735(11)
H17 H 0.0269(11) 0.0725(13) -0.1250(11)
H18 H -0.1462(12) 0.3726(13) -0.1868(12)
H19 H -0.0806(12) 0.3960(14) -0.0291(12)
H20 H -0.0813(12) 0.2758(14) -0.0432(12)
H21 H 0.0698(10) 0.4136(12) 0.0013(10)
H22 H 0.1570(12) 0.3388(13) -0.1802(12)
H23 H 0.0969(12) 0.5166(14) -0.1813(13)
H24 H -0.0652(13) 0.5199(15) -0.1987(13)
H25 H 0.2633(13) 0.2757(16) 0.0679(14)
H26 H 0.2929(12) 0.1933(13) 0.1440(13)
H27 H 0.3153(13) 0.1759(14) 0.0490(12)
H28 H 0.3183(11) 0.0029(12) 0.1101(11)
H29 H 0.1602(14) -0.0428(14) 0.1768(13)
H30 H 0.2674(14) -0.0747(17) 0.2323(14)
H31 H 0.2402(14) 0.0417(18) 0.2220(15)
H32 H 0.2871(12) -0.1344(13) 0.0102(12)
H33 H 0.1969(12) -0.1604(13) 0.0433(11)
H34 H 0.2675(17) -0.4096(17) 0.0903(16)
H35 H 0.4544(15) -0.2546(17) 0.0186(17)
H36 H 0.6149(17) -0.3016(18) 0.0762(17)
H37 H 0.605(2) -0.309(2) 0.185(2)
H38 H 0.555(2) -0.389(2) 0.106(2)
H39 H 0.5523(18) -0.1338(19) 0.166(2)
H40 H 0.5600(17) -0.1217(18) 0.0664(17)
H41 H 0.461(2) -0.090(2) 0.079(2)
H42 H 0.4857(15) -0.3797(16) 0.2713(14)
H43 H 0.3917(18) -0.388(2) 0.3733(19)
H44 H 0.3143(16) -0.3140(17) 0.3037(15)
H45 H 0.3320(15) -0.4243(17) 0.2713(15)
H46 H 0.4412(17) -0.1792(18) 0.3160(15)
H47 H 0.5173(15) -0.2518(18) 0.3918(17)
H48 H 0.5447(16) -0.2076(17) 0.3018(15)
loop_
_geom_bond_atom_site_label_1
_geom_bond_atom_site_label_2
_geom_bond_site_symmetry_1
_geom_bond_site_symmetry_2
Si1 O4 1_555 1_555
O1 C2 1_555 1_555
O2 C8 1_555 1_555
O3 C9 1_555 1_555
O4 C20 1_555 1_555
C1 C2 1_555 1_555
C2 C3 1_555 1_555
C3 C4 1_555 1_555
C4 C5 1_555 1_555
C5 C6 1_555 1_555
C6 C7 1_555 1_555
C7 C3 1_555 1_555
C8 C7 1_555 1_555
C9 O2 1_555 1_555
C10 C9 1_555 1_555
C11 C10 1_555 1_555
C12 C1 1_555 1_555
C13 C7 1_555 1_555
C14 C13 1_555 1_555
C15 C14 1_555 1_555
C16 C10 1_555 1_555
C17 C3 1_555 1_555
C18 C4 1_555 1_555
C19 C18 1_555 1_555
C20 C18 1_555 1_555
C21 Si1 1_555 1_555
C22 C21 1_555 1_555
H1 C22 1_555 1_555
H2 C22 1_555 1_555
H3 C22 1_555 1_555
C23 C21 1_555 1_555
H4 C23 1_555 1_555
H5 C23 1_555 1_555
H6 C23 1_555 1_555
C24 Si1 1_555 1_555
C25 C24 1_555 1_555
C26 C24 1_555 1_555
C27 Si1 1_555 1_555
C28 C27 1_555 1_555
C29 C27 1_555 1_555
H7 O1 1_555 1_555
H8 C1 1_555 1_555
H9 C1 1_555 1_555
H10 C2 1_555 1_555
H11 C4 1_555 1_555
H12 C5 1_555 1_555
H13 C5 1_555 1_555
H14 C6 1_555 1_555
H15 C6 1_555 1_555
H16 C8 1_555 1_555
H17 C8 1_555 1_555
H18 C10 1_555 1_555
H19 C11 1_555 1_555
H20 C11 1_555 1_555
H21 C12 1_555 1_555
H22 C14 1_555 1_555
H23 C15 1_555 1_555
H24 C16 1_555 1_555
H25 C17 1_555 1_555
H26 C17 1_555 1_555
H27 C17 1_555 1_555
H28 C18 1_555 1_555
H29 C19 1_555 1_555
H30 C19 1_555 1_555
H31 C19 1_555 1_555
H32 C20 1_555 1_555
H33 C20 1_555 1_555
H34 C21 1_555 1_555
H35 C24 1_555 1_555
H36 C25 1_555 1_555
H37 C25 1_555 1_555
H38 C25 1_555 1_555
H39 C26 1_555 1_555
H40 C26 1_555 1_555
H41 C26 1_555 1_555
H42 C27 1_555 1_555
H43 C28 1_555 1_555
H44 C28 1_555 1_555
H45 C28 1_555 1_555
H46 C29 1_555 1_555
H47 C29 1_555 1_555
H48 C29 1_555 1_555
C11 C12 1_555 1_555
C12 C13 1_555 1_555
C15 C16 1_555 1_555

#END
