
#######################################################################
#
#                 Cambridge Crystallographic Data Centre
#                                CCDC 
#
#######################################################################
#
# If this CIF has been generated from an entry in the Cambridge 
# Structural Database, then it will include bibliographic, chemical, 
# crystal, experimental, refinement or atomic coordinate data resulting 
# from the CCDC's data processing and validation procedures.
#
#######################################################################

data_LOVLAL
_chemical_formula_moiety         'C19 H16 O2'
_chemical_name_systematic        '3,5-diphenylpent-2-en-4-yn-2-yl acetate'
_symmetry_cell_setting           monoclinic
_symmetry_space_group_name_H-M   'P 21/c'
_symmetry_Int_Tables_number      14
_space_group_name_Hall           '-P 2ybc'
loop_
_symmetry_equiv_pos_site_id
_symmetry_equiv_pos_as_xyz
1 x,y,z
2 -x,1/2+y,1/2-z
3 -x,-y,-z
4 x,1/2-y,1/2+z
_cell_length_a                   9.154(4)
_cell_length_b                   9.597(4)
_cell_length_c                   35.236(14)
_cell_angle_alpha                90
_cell_angle_beta                 95.106(7)
_cell_angle_gamma                90
_cell_volume                     3083.23
_exptl_crystal_colour            colorless
_exptl_crystal_description       block
_cell_formula_units_Z            8
_exptl_crystal_recrystallization_method n-hexane
loop_
_atom_site_label
_atom_site_type_symbol
_atom_site_fract_x
_atom_site_fract_y
_atom_site_fract_z
O1 O 0.96480(17) 0.61538(17) 0.20863(5)
O2 O 0.8701(2) 0.5112(2) 0.15511(6)
C1 C 1.0838(2) 0.8731(2) 0.18376(7)
C2 C 0.8710(3) 0.7301(3) 0.20148(7)
C3 C 0.9288(2) 0.8518(2) 0.19228(7)
C4 C 0.6624(2) 1.1923(2) 0.19068(7)
C5 C 0.7597(3) 1.0749(3) 0.19124(8)
C6 C 0.8358(3) 0.9728(3) 0.19134(7)
C7 C 0.5949(3) 1.2405(3) 0.15626(8)
H1 H 0.6165 1.1989 0.1336
C8 C 1.1576(3) 0.9928(2) 0.19715(7)
H2 H 1.1109 1.0560 0.2120
C9 C 0.9479(3) 0.5055(3) 0.18405(8)
C10 C 0.6302(3) 1.2572(3) 0.22413(8)
H3 H 0.6752 1.2276 0.2474
C11 C 1.1559(3) 0.7810(3) 0.16173(7)
H4 H 1.1083 0.7007 0.1525
C12 C 1.2993(3) 1.0184(3) 0.18860(8)
H5 H 1.3473 1.0988 0.1976
C13 C 1.3698(3) 0.9253(3) 0.16681(8)
H6 H 1.4656 0.9425 0.1613
C14 C 0.5310(3) 1.3662(3) 0.22264(10)
H7 H 0.5093 1.4094 0.2451
C15 C 1.2987(3) 0.8070(3) 0.15325(8)
H8 H 1.3462 0.7443 0.1384
C16 C 1.0407(3) 0.3863(3) 0.19780(9)
H9 H 0.9902 0.3324 0.2155
H10 H 1.1313 0.4203 0.2102
H11 H 1.0608 0.3288 0.1766
C17 C 0.4968(3) 1.3485(3) 0.15540(9)
H12 H 0.4520 1.3794 0.1322
C18 C 0.4643(3) 1.4114(3) 0.18860(10)
H13 H 0.3972 1.4844 0.1879
C19 C 0.7165(3) 0.7037(3) 0.20912(9)
H14 H 0.6651 0.7907 0.2098
H15 H 0.7145 0.6572 0.2332
H16 H 0.6701 0.6461 0.1893
O3 O 0.21566(19) 0.49292(19) 0.03660(6)
C20 C 0.5015(3) 0.6165(3) 0.06158(7)
C21 C 0.5989(3) 0.3761(3) 0.05457(7)
O4 O 0.1987(2) 0.4875(2) 0.09979(7)
C22 C 0.8249(3) 0.2076(3) 0.06449(8)
C23 C 0.4732(3) 0.4680(3) 0.05116(7)
C24 C 0.7028(3) 0.3021(3) 0.05855(7)
C25 C 0.1491(3) 0.5209(3) 0.06900(10)
C26 C 0.3431(3) 0.4115(3) 0.04022(8)
C27 C 0.4217(3) 0.7252(3) 0.04411(8)
H17 H 0.3456 0.7059 0.0256
C28 C 0.6153(3) 0.6494(3) 0.08881(8)
H18 H 0.6712 0.5782 0.1007
C29 C 0.5664(4) 0.8921(4) 0.08095(10)
H19 H 0.5885 0.9842 0.0874
C30 C 0.8375(4) 0.0940(3) 0.04129(9)
H20 H 0.7682 0.0798 0.0207
C31 C 0.4539(4) 0.8625(3) 0.05397(9)
H21 H 0.3990 0.9345 0.0422
C32 C 0.9298(3) 0.2278(3) 0.09404(9)
H22 H 0.9245 0.3050 0.1098
C33 C 0.6466(3) 0.7853(4) 0.09846(9)
H23 H 0.7225 0.8054 0.1170
C34 C 1.0439(4) 0.1337(4) 0.10057(10)
H24 H 1.1149 0.1478 0.1208
C35 C 1.0527(4) 0.0212(4) 0.07777(12)
H25 H 1.1288 -0.0423 0.0825
C36 C 0.0104(3) 0.5986(4) 0.05924(11)
H26 H -0.0354 0.6185 0.0821
H27 H -0.0546 0.5431 0.0425
H28 H 0.0314 0.6843 0.0468
C37 C 0.9511(4) 0.0011(4) 0.04804(12)
H29 H 0.9579 -0.0756 0.0322
C38 C 0.3124(3) 0.2639(3) 0.02864(11)
H30 H 0.4019 0.2112 0.0314
H31 H 0.2725 0.2613 0.0025
H32 H 0.2432 0.2244 0.0445
loop_
_geom_bond_atom_site_label_1
_geom_bond_atom_site_label_2
_geom_bond_site_symmetry_1
_geom_bond_site_symmetry_2
O1 C2 1_555 1_555
O2 C9 1_555 1_555
C1 C3 1_555 1_555
C2 C3 1_555 1_555
C3 C6 1_555 1_555
C4 C5 1_555 1_555
C5 C6 1_555 1_555
C7 C4 1_555 1_555
H1 C7 1_555 1_555
C8 C1 1_555 1_555
H2 C8 1_555 1_555
C9 O1 1_555 1_555
C10 C4 1_555 1_555
H3 C10 1_555 1_555
C11 C1 1_555 1_555
H4 C11 1_555 1_555
C12 C8 1_555 1_555
H5 C12 1_555 1_555
C13 C12 1_555 1_555
H6 C13 1_555 1_555
C14 C10 1_555 1_555
H7 C14 1_555 1_555
C15 C11 1_555 1_555
H8 C15 1_555 1_555
C16 C9 1_555 1_555
H9 C16 1_555 1_555
H10 C16 1_555 1_555
H11 C16 1_555 1_555
C17 C7 1_555 1_555
H12 C17 1_555 1_555
C18 C14 1_555 1_555
H13 C18 1_555 1_555
C19 C2 1_555 1_555
H14 C19 1_555 1_555
H15 C19 1_555 1_555
H16 C19 1_555 1_555
O3 C25 1_555 1_555
C20 C23 1_555 1_555
C21 C23 1_555 1_555
O4 C25 1_555 1_555
C22 C24 1_555 1_555
C23 C26 1_555 1_555
C24 C21 1_555 1_555
C25 C36 1_555 1_555
C26 O3 1_555 1_555
C27 C20 1_555 1_555
H17 C27 1_555 1_555
C28 C20 1_555 1_555
H18 C28 1_555 1_555
C29 H19 1_555 1_555
C30 C22 1_555 1_555
H20 C30 1_555 1_555
C31 C27 1_555 1_555
H21 C31 1_555 1_555
C32 C22 1_555 1_555
H22 C32 1_555 1_555
C33 C28 1_555 1_555
H23 C33 1_555 1_555
C34 C32 1_555 1_555
H24 C34 1_555 1_555
C35 C34 1_555 1_555
H25 C35 1_555 1_555
C36 H26 1_555 1_555
H27 C36 1_555 1_555
H28 C36 1_555 1_555
C37 C30 1_555 1_555
H29 C37 1_555 1_555
C38 C26 1_555 1_555
H30 C38 1_555 1_555
H31 C38 1_555 1_555
H32 C38 1_555 1_555
C13 C15 1_555 1_555
C17 C18 1_555 1_555
C29 C31 1_555 1_555
C29 C33 1_555 1_555
C35 C37 1_555 1_555

#END
