
#######################################################################
#
#                 Cambridge Crystallographic Data Centre
#                                CCDC 
#
#######################################################################
#
# If this CIF has been generated from an entry in the Cambridge 
# Structural Database, then it will include bibliographic, chemical, 
# crystal, experimental, refinement or atomic coordinate data resulting 
# from the CCDC's data processing and validation procedures.
#
#######################################################################

data_LOVYIG
_chemical_formula_moiety         'C15 H16 O4'
_chemical_name_systematic        
't-Butyl 3-methyl-1-oxo-1H-isochromene-4-carboxylate'
_symmetry_cell_setting           triclinic
_symmetry_space_group_name_H-M   'P -1'
_symmetry_Int_Tables_number      2
_space_group_name_Hall           '-P 1'
loop_
_symmetry_equiv_pos_site_id
_symmetry_equiv_pos_as_xyz
1 x,y,z
2 -x,-y,-z
_cell_length_a                   8.153(9)
_cell_length_b                   8.436(8)
_cell_length_c                   10.959(10)
_cell_angle_alpha                86.72(3)
_cell_angle_beta                 72.91(2)
_cell_angle_gamma                72.86(2)
_cell_volume                     688.11
_exptl_crystal_colour            colorless
_exptl_crystal_description       prismatic
_cell_formula_units_Z            2
loop_
_atom_site_label
_atom_site_type_symbol
_atom_site_fract_x
_atom_site_fract_y
_atom_site_fract_z
O1 O -0.3892(2) 0.6853(3) 1.21325(18)
O2 O -0.29522(18) 0.7917(2) 1.02913(16)
O3 O 0.2567(2) 0.8959(2) 0.84896(15)
O4 O 0.14581(17) 0.78871(17) 0.71767(13)
C1 C -0.2621(3) 0.7104(3) 1.1342(2)
C2 C -0.0783(3) 0.6635(3) 1.1415(2)
C3 C -0.0399(4) 0.5780(3) 1.2470(2)
H1 H -0.1309 0.5511 1.3107
C4 C 0.1300(4) 0.5335(3) 1.2575(3)
H2 H 0.1548 0.4760 1.3280
C5 C 0.2642(3) 0.5733(3) 1.1646(3)
H3 H 0.3797 0.5433 1.1727
C6 C 0.2301(3) 0.6571(3) 1.0597(2)
H4 H 0.3231 0.6834 0.9976
C7 C 0.0558(3) 0.7044(3) 1.0440(2)
C8 C 0.0073(3) 0.7895(3) 0.9363(2)
C9 C -0.1632(3) 0.8301(3) 0.9322(2)
C10 C -0.2460(3) 0.9254(3) 0.8355(2)
H5 H -0.1636 0.9776 0.7797
H6 H -0.3543 1.0087 0.8782
H7 H -0.2733 0.8512 0.7864
C11 C 0.1493(3) 0.8339(3) 0.8317(2)
C12 C 0.2770(3) 0.8169(3) 0.5994(2)
C13 C 0.4651(3) 0.7125(3) 0.5995(2)
H8 H 0.5047 0.7620 0.6579
H9 H 0.5461 0.7074 0.5151
H10 H 0.4627 0.6023 0.6254
C14 C 0.2588(3) 1.0017(3) 0.5870(3)
H11 H 0.1340 1.0634 0.6096
H12 H 0.3162 1.0233 0.5004
H13 H 0.3145 1.0348 0.6431
C15 C 0.2194(3) 0.7519(3) 0.4967(2)
H14 H 0.2240 0.6375 0.5109
H15 H 0.2988 0.7615 0.4142
H16 H 0.0991 0.8157 0.5003
loop_
_geom_bond_atom_site_label_1
_geom_bond_atom_site_label_2
_geom_bond_site_symmetry_1
_geom_bond_site_symmetry_2
O1 C1 1_555 1_555
O2 C1 1_555 1_555
O3 C11 1_555 1_555
O4 C11 1_555 1_555
C1 C2 1_555 1_555
C2 C3 1_555 1_555
C3 H1 1_555 1_555
C4 C3 1_555 1_555
H2 C4 1_555 1_555
C5 C4 1_555 1_555
H3 C5 1_555 1_555
C6 C5 1_555 1_555
H4 C6 1_555 1_555
C7 C2 1_555 1_555
C8 C7 1_555 1_555
C9 O2 1_555 1_555
C10 C9 1_555 1_555
H5 C10 1_555 1_555
H6 C10 1_555 1_555
H7 C10 1_555 1_555
C11 C8 1_555 1_555
C12 O4 1_555 1_555
C13 C12 1_555 1_555
H8 C13 1_555 1_555
H9 C13 1_555 1_555
H10 C13 1_555 1_555
C14 C12 1_555 1_555
H11 C14 1_555 1_555
H12 C14 1_555 1_555
H13 C14 1_555 1_555
C15 C12 1_555 1_555
H14 C15 1_555 1_555
H15 C15 1_555 1_555
H16 C15 1_555 1_555
C6 C7 1_555 1_555
C8 C9 1_555 1_555

#END
