
#######################################################################
#
#                 Cambridge Crystallographic Data Centre
#                                CCDC 
#
#######################################################################
#
# If this CIF has been generated from an entry in the Cambridge 
# Structural Database, then it will include bibliographic, chemical, 
# crystal, experimental, refinement or atomic coordinate data resulting 
# from the CCDC's data processing and validation procedures.
#
#######################################################################

data_LOWHEK
_chemical_formula_moiety         'C29 H28 N2 O5,C6 H6'
_chemical_name_systematic        
"2'-Deoxy-5'-O-tritylthymidine benzene clathrate"
_symmetry_cell_setting           triclinic
_symmetry_space_group_name_H-M   'P 1'
_symmetry_Int_Tables_number      1
_space_group_name_Hall           'P 1'
loop_
_symmetry_equiv_pos_site_id
_symmetry_equiv_pos_as_xyz
1 x,y,z
_cell_length_a                   10.441(2)
_cell_length_b                   11.250(3)
_cell_length_c                   13.871(3)
_cell_angle_alpha                69.8(2)
_cell_angle_beta                 87.7(2)
_cell_angle_gamma                81.8(2)
_cell_volume                     1513.39
_cell_formula_units_Z            2
loop_
_atom_site_label
_atom_site_type_symbol
_atom_site_fract_x
_atom_site_fract_y
_atom_site_fract_z
N1 N 0.9313(3) -0.0047(4) 0.0426(3)
C1 C 0.8391(3) 0.0383(4) 0.1008(3)
O1 O 0.8649 0.0931 0.1587
N2 N 0.7170(3) 0.0143(4) 0.0895(3)
C2 C 0.6784(4) -0.0504(4) 0.0309(3)
O2 O 0.5650(3) -0.0653(4) 0.0293(3)
C3 C 0.7801(4) -0.0961(4) -0.0269(3)
C4 C 0.8996(3) -0.0715(4) -0.0175(3)
C5 C 0.7463(4) -0.1679(6) -0.0926(4)
C6 C 1.0674(3) 0.0071(6) 0.0560(3)
C7 C 1.1451(3) -0.1167(5) 0.1189(3)
C8 C 1.2812(3) -0.0968(4) 0.0808(3)
O3 O 1.3313(3) -0.0287(4) 0.1347(3)
C9 C 1.2582(3) -0.0179(3) -0.0331(3)
O4 O 1.1253(3) 0.0438(3) -0.0422(3)
C10 C 1.2828(4) -0.0899(4) -0.1072(3)
O5 O 1.2016(2) -0.1870(3) -0.0819(3)
C11 C 1.1917(3) -0.2555(3) -0.1525(3)
C12 C 1.1619(4) -0.3882(4) -0.0829(3)
C13 C 1.0914(5) -0.4011(4) 0.0062(3)
C14 C 1.0600(6) -0.5192(5) 0.0689(4)
C15 C 1.0996(7) -0.6256(5) 0.0441(5)
C16 C 1.1674(6) -0.6154(5) -0.0446(5)
C17 C 1.2012(5) -0.4975(5) -0.1076(4)
C18 C 1.3202(3) -0.2657(4) -0.2099(3)
C19 C 1.3285(4) -0.2095(5) -0.3149(4)
C20 C 1.4465(5) -0.2191(7) -0.3634(4)
C21 C 1.5565(5) -0.2849(6) -0.3078(4)
C22 C 1.5490(4) -0.3389(5) -0.2041(4)
C23 C 1.4320(4) -0.3307(4) -0.1545(3)
C24 C 1.0786(4) -0.1891(4) -0.2273(3)
C25 C 1.0171(4) -0.2556(5) -0.2753(4)
C26 C 0.9194(5) -0.1961(6) -0.3468(4)
C27 C 0.8811(5) -0.0641(6) -0.3733(4)
C28 C 0.9387(5) 0.0017(6) -0.3258(4)
C29 C 1.0352(4) -0.0587(4) -0.2531(4)
N3 N 0.4632(3) 0.1729(3) 0.3384(3)
C30 C 0.5569(3) 0.1329(4) 0.2787(3)
O6 O 0.5326(3) 0.0815(4) 0.2189(3)
N4 N 0.6785(3) 0.1554(4) 0.2923(3)
C31 C 0.7189(4) 0.2079(4) 0.3595(3)
O7 O 0.8328(3) 0.2182(4) 0.3650(3)
C32 C 0.6162(3) 0.2458(4) 0.4220(3)
C33 C 0.4961(3) 0.2256(4) 0.4084(3)
C34 C 0.6511(5) 0.3038(6) 0.4974(4)
C35 C 0.3287(3) 0.1579(4) 0.3260(3)
C36 C 0.2729(3) 0.0654(4) 0.4207(3)
C37 C 0.1289(3) 0.1128(4) 0.4074(3)
O8 O 0.0787(3) 0.0584(4) 0.3414(3)
C38 C 0.1260(3) 0.2576(4) 0.3561(3)
O9 O 0.2520(3) 0.2782(3) 0.3112(3)
C39 C 0.0938(3) 0.3350(4) 0.4265(3)
O10 O 0.1893(3) 0.2962(3) 0.5050(3)
C40 C 0.1913(4) 0.3769(4) 0.5667(3)
C41 C 0.3088(3) 0.3154(4) 0.6381(3)
C42 C 0.3573(4) 0.1864(4) 0.6615(3)
C43 C 0.4627(4) 0.1320(5) 0.7277(4)
C44 C 0.5190(4) 0.2029(5) 0.7728(4)
C45 C 0.4694(5) 0.3298(5) 0.7521(4)
C46 C 0.3669(4) 0.3869(5) 0.6836(4)
C47 C 0.0649(4) 0.3775(4) 0.6274(3)
C48 C 0.0588(4) 0.2979(4) 0.7293(3)
C49 C -0.0575(5) 0.2976(5) 0.7824(4)
C50 C -0.1673(4) 0.3740(5) 0.7363(4)
C51 C -0.1640(4) 0.4515(5) 0.6346(4)
C52 C -0.0485(3) 0.4538(3) 0.5811(3)
C53 C 0.2156(4) 0.5113(4) 0.4977(3)
C54 C 0.1699(4) 0.6185(4) 0.5230(3)
C55 C 0.1974(4) 0.7389(4) 0.4620(3)
C56 C 0.2722(4) 0.7533(4) 0.3757(4)
C57 C 0.3197(4) 0.6471(4) 0.3508(3)
C58 C 0.2914(4) 0.5265(4) 0.4105(3)
C59 C 0.8626(19) 0.8041(13) 0.3675(13)
C60 C 0.7414(19) 0.8099(13) 0.3910(11)
C61 C 0.6579(12) 0.7413(16) 0.3750(12)
C62 C 0.6940(14) 0.6604(17) 0.3273(14)
C63 C 0.8242(14) 0.6534(15) 0.2912(9)
C64 C 0.8985(10) 0.7258(19) 0.3126(9)
C65 C 0.6991(16) 0.4519(26) 0.0649(18)
C66 C 0.6131(34) 0.5183(30) 0.1193(20)
C67 C 0.4951(24) 0.4828(14) 0.1346(8)
C68 C 0.4618(9) 0.4100(11) 0.0975(8)
C69 C 0.5361(20) 0.3514(10) 0.0420(7)
C70 C 0.6521(21) 0.3728(22) 0.0219(10)
loop_
_geom_bond_atom_site_label_1
_geom_bond_atom_site_label_2
_geom_bond_site_symmetry_1
_geom_bond_site_symmetry_2
N1 C1 1_555 1_555
C1 O1 1_555 1_555
N2 C1 1_555 1_555
C2 N2 1_555 1_555
O2 C2 1_555 1_555
C3 C2 1_555 1_555
C4 N1 1_555 1_555
C5 C3 1_555 1_555
C6 N1 1_555 1_555
C7 C6 1_555 1_555
C8 C7 1_555 1_555
O3 C8 1_555 1_555
C9 C8 1_555 1_555
O4 C6 1_555 1_555
C10 C9 1_555 1_555
O5 C10 1_555 1_555
C11 O5 1_555 1_555
C12 C11 1_555 1_555
C13 C12 1_555 1_555
C14 C13 1_555 1_555
C15 C14 1_555 1_555
C16 C15 1_555 1_555
C17 C12 1_555 1_555
C18 C11 1_555 1_555
C19 C18 1_555 1_555
C20 C19 1_555 1_555
C21 C20 1_555 1_555
C22 C21 1_555 1_555
C23 C18 1_555 1_555
C24 C11 1_555 1_555
C25 C24 1_555 1_555
C26 C25 1_555 1_555
C27 C26 1_555 1_555
C28 C27 1_555 1_555
C29 C24 1_555 1_555
N3 C30 1_555 1_555
C30 O6 1_555 1_555
N4 C30 1_555 1_555
C31 N4 1_555 1_555
O7 C31 1_555 1_555
C32 C31 1_555 1_555
C33 N3 1_555 1_555
C34 C32 1_555 1_555
C35 N3 1_555 1_555
C36 C35 1_555 1_555
C37 C36 1_555 1_555
O8 C37 1_555 1_555
C38 C37 1_555 1_555
O9 C35 1_555 1_555
C39 C38 1_555 1_555
O10 C39 1_555 1_555
C40 O10 1_555 1_555
C41 C40 1_555 1_555
C42 C41 1_555 1_555
C43 C42 1_555 1_555
C44 C43 1_555 1_555
C45 C44 1_555 1_555
C46 C41 1_555 1_555
C47 C40 1_555 1_555
C48 C47 1_555 1_555
C49 C48 1_555 1_555
C50 C49 1_555 1_555
C51 C50 1_555 1_555
C52 C47 1_555 1_555
C53 C40 1_555 1_555
C54 C53 1_555 1_555
C55 C54 1_555 1_555
C56 C55 1_555 1_555
C57 C56 1_555 1_555
C58 C53 1_555 1_555
C59 C60 1_555 1_555
C60 C61 1_555 1_555
C61 C62 1_555 1_555
C62 C63 1_555 1_555
C63 C64 1_555 1_555
C64 C59 1_555 1_555
C65 C66 1_555 1_555
C66 C67 1_555 1_555
C67 C68 1_555 1_555
C68 C69 1_555 1_555
C69 C70 1_555 1_555
C70 C65 1_555 1_555
C3 C4 1_555 1_555
C9 O4 1_555 1_555
C16 C17 1_555 1_555
C22 C23 1_555 1_555
C28 C29 1_555 1_555
C32 C33 1_555 1_555
C38 O9 1_555 1_555
C45 C46 1_555 1_555
C51 C52 1_555 1_555
C57 C58 1_555 1_555

#END
