
#######################################################################
#
#                 Cambridge Crystallographic Data Centre
#                                CCDC 
#
#######################################################################
#
# If this CIF has been generated from an entry in the Cambridge 
# Structural Database, then it will include bibliographic, chemical, 
# crystal, experimental, refinement or atomic coordinate data resulting 
# from the CCDC's data processing and validation procedures.
#
#######################################################################

data_LOWHOU
_chemical_formula_moiety         'C29 H28 N2 O5,0.5(C8 H10)'
_chemical_name_systematic        
"2'-Deoxy-5'-O-tritylthymidine p-xylene clathrate"
_symmetry_cell_setting           orthorhombic
_symmetry_space_group_name_H-M   'P 21 21 21'
_symmetry_Int_Tables_number      19
_space_group_name_Hall           'P 2ac 2ab'
loop_
_symmetry_equiv_pos_site_id
_symmetry_equiv_pos_as_xyz
1 x,y,z
2 1/2-x,-y,1/2+z
3 1/2+x,1/2-y,-z
4 -x,1/2+y,1/2-z
_cell_length_a                   9.953(2)
_cell_length_b                   15.929(4)
_cell_length_c                   36.162(6)
_cell_angle_alpha                90
_cell_angle_beta                 90
_cell_angle_gamma                90
_cell_volume                     5733.17
_cell_formula_units_Z            8
loop_
_atom_site_label
_atom_site_type_symbol
_atom_site_fract_x
_atom_site_fract_y
_atom_site_fract_z
N3 N 0.3542(4) 0.4371(3) 0.8215(1)
C30 C 0.4149(5) 0.3866(3) 0.8468(1)
O6 O 0.3523(3) 0.3504(2) 0.8714(1)
N4 N 0.5514(4) 0.3795(2) 0.8435(1)
C31 C 0.6318(5) 0.4205(3) 0.8181(1)
O7 O 0.7551(4) 0.4117(3) 0.8199(1)
C32 C 0.5616(5) 0.4713(3) 0.7916(1)
C33 C 0.4282(5) 0.4773(3) 0.7942(1)
C34 C 0.6413(8) 0.5171(6) 0.7633(2)
C35 C 0.2077(5) 0.4481(4) 0.8220(1)
C36 C 0.1645(6) 0.5409(5) 0.8278(2)
C37 C 0.0442(5) 0.5516(4) 0.8037(1)
O8 O -0.0784(5) 0.5586(5) 0.8223(2)
C38 C 0.0497(5) 0.4779(3) 0.7759(1)
O9 O 0.1608(4) 0.4246(2) 0.7863(1)
C39 C 0.0651(5) 0.5045(3) 0.7362(1)
O10 O 0.1866(3) 0.5520(2) 0.7335(1)
C40 C 0.2329(5) 0.5740(3) 0.6969(1)
C41 C 0.1247(5) 0.6239(3) 0.6766(1)
C42 C 0.1260(5) 0.7110(3) 0.6750(1)
C43 C 0.0248(6) 0.7546(3) 0.6573(2)
C44 C -0.0779(6) 0.7136(4) 0.6397(2)
C45 C -0.0831(8) 0.6279(6) 0.6406(2)
C46 C 0.0186(6) 0.5824(3) 0.6587(1)
C47 C 0.2745(5) 0.4959(3) 0.6757(1)
C48 C 0.2761(8) 0.4941(4) 0.6381(2)
C49 C 0.3159(11) 0.4225(5) 0.6191(2)
C50 C 0.3507(10) 0.3523(5) 0.6374(2)
C51 C 0.3485(10) 0.3510(5) 0.6752(2)
C52 C 0.3135(7) 0.4234(4) 0.6950(1)
C53 C 0.3566(5) 0.6292(3) 0.7050(1)
C54 C 0.3600(7) 0.6780(4) 0.7369(2)
C55 C 0.4713(14) 0.7314(9) 0.7433(4)
C56 C 0.5761(9) 0.7338(6) 0.7210(3)
C57 C 0.5753(8) 0.6866(6) 0.6896(4)
C58 C 0.4659(6) 0.6329(5) 0.6809(2)
N1 N 0.6578(4) 0.1690(3) 0.9399(1)
C1 C 0.5979(5) 0.2305(3) 0.9196(1)
O1 O 0.6625(4) 0.2783(2) 0.9002(1)
N2 N 0.4606(5) 0.2344(3) 0.9227(1)
C2 C 0.3801(5) 0.1858(4) 0.9451(1)
O2 O 0.2579(4) 0.1987(3) 0.9462(1)
C3 C 0.4509(5) 0.1231(3) 0.9663(1)
C4 C 0.5845(5) 0.1177(3) 0.9629(1)
C5 C 0.3683(8) 0.0662(4) 0.9909(2)
C6 C 0.8057(5) 0.1582(3) 0.9344(1)
C7 C 0.8937(5) 0.2106(3) 0.9586(2)
C8 C 0.9436(5) 0.1500(3) 0.9885(1)
O3 O 1.0705(4) 0.1709(3) 1.0037(1)
C9 C 0.9442(5) 0.0671(3) 0.9679(1)
O4 O 0.8351(4) 0.0723(2) 0.9422(1)
C10 C 0.9280(5) -0.0125(3) 0.9907(1)
O5 O 0.8181(3) 0.0033(2) 1.0154(1)
C11 C 0.7676(5) -0.0648(3) 1.0375(1)
C12 C 0.8639(5) -0.0873(3) 1.0691(1)
C13 C 0.8377(7) -0.1536(4) 1.0921(2)
C14 C 0.9164(8) -0.1713(4) 1.1230(2)
C15 C 1.0260(8) -0.1244(5) 1.1303(2)
C16 C 1.0527(7) -0.0564(5) 1.1088(2)
C17 C 0.9735(6) -0.0369(4) 1.0781(2)
C18 C 0.7352(5) -0.1385(3) 1.0116(1)
C19 C 0.6355(6) -0.1304(3) 0.9855(1)
C20 C 0.6069(6) -0.1924(4) 0.9603(2)
C21 C 0.6782(7) -0.2661(4) 0.9609(2)
C22 C 0.7815(8) -0.2767(4) 0.9861(2)
C23 C 0.8091(7) -0.2124(4) 1.0113(2)
C24 C 0.6413(5) -0.0297(3) 1.0556(1)
C25 C 0.5336(5) -0.0796(3) 1.0651(1)
C26 C 0.4220(6) -0.0465(4) 1.0826(2)
C27 C 0.4178(6) 0.0368(4) 1.0907(2)
C28 C 0.5256(7) 0.0873(4) 1.0822(2)
C29 C 0.6360(6) 0.0563(3) 1.0647(1)
loop_
_geom_bond_atom_site_label_1
_geom_bond_atom_site_label_2
_geom_bond_site_symmetry_1
_geom_bond_site_symmetry_2
N1 C1 1_555 1_555
C1 O1 1_555 1_555
N2 C1 1_555 1_555
C2 N2 1_555 1_555
O2 C2 1_555 1_555
C3 C2 1_555 1_555
C4 N1 1_555 1_555
C5 C3 1_555 1_555
C6 N1 1_555 1_555
C7 C6 1_555 1_555
C8 C7 1_555 1_555
O3 C8 1_555 1_555
C9 C8 1_555 1_555
O4 C6 1_555 1_555
C10 C9 1_555 1_555
O5 C10 1_555 1_555
C11 O5 1_555 1_555
C12 C11 1_555 1_555
C13 C12 1_555 1_555
C14 C13 1_555 1_555
C15 C14 1_555 1_555
C16 C15 1_555 1_555
C17 C12 1_555 1_555
C18 C11 1_555 1_555
C19 C18 1_555 1_555
C20 C19 1_555 1_555
C21 C20 1_555 1_555
C22 C21 1_555 1_555
C23 C18 1_555 1_555
C24 C11 1_555 1_555
C25 C24 1_555 1_555
C26 C25 1_555 1_555
C27 C26 1_555 1_555
C28 C27 1_555 1_555
C29 C24 1_555 1_555
N3 C30 1_555 1_555
C30 O6 1_555 1_555
N4 C30 1_555 1_555
C31 N4 1_555 1_555
O7 C31 1_555 1_555
C32 C31 1_555 1_555
C33 N3 1_555 1_555
C34 C32 1_555 1_555
C35 N3 1_555 1_555
C36 C35 1_555 1_555
C37 C36 1_555 1_555
O8 C37 1_555 1_555
C38 C37 1_555 1_555
O9 C35 1_555 1_555
C39 C38 1_555 1_555
O10 C39 1_555 1_555
C40 O10 1_555 1_555
C41 C40 1_555 1_555
C42 C41 1_555 1_555
C43 C42 1_555 1_555
C44 C43 1_555 1_555
C45 C44 1_555 1_555
C46 C41 1_555 1_555
C47 C40 1_555 1_555
C48 C47 1_555 1_555
C49 C48 1_555 1_555
C50 C49 1_555 1_555
C51 C50 1_555 1_555
C52 C47 1_555 1_555
C53 C40 1_555 1_555
C54 C53 1_555 1_555
C55 C54 1_555 1_555
C56 C55 1_555 1_555
C57 C56 1_555 1_555
C58 C53 1_555 1_555
C3 C4 1_555 1_555
C9 O4 1_555 1_555
C16 C17 1_555 1_555
C22 C23 1_555 1_555
C28 C29 1_555 1_555
C32 C33 1_555 1_555
C38 O9 1_555 1_555
C45 C46 1_555 1_555
C51 C52 1_555 1_555
C57 C58 1_555 1_555

#END
