
#######################################################################
#
#                 Cambridge Crystallographic Data Centre
#                                CCDC 
#
#######################################################################
#
# If this CIF has been generated from an entry in the Cambridge 
# Structural Database, then it will include bibliographic, chemical, 
# crystal, experimental, refinement or atomic coordinate data resulting 
# from the CCDC's data processing and validation procedures.
#
#######################################################################

data_LOWJEM
_chemical_formula_moiety         'C29 H28 N2 O5,1.5(H2 O1)'
_chemical_name_systematic        
"2'-Deoxy-5'-O-tritylthymidine sesquihydrate clathrate"
_symmetry_cell_setting           orthorhombic
_symmetry_space_group_name_H-M   'P 21 21 21'
_symmetry_Int_Tables_number      19
_space_group_name_Hall           'P 2ac 2ab'
loop_
_symmetry_equiv_pos_site_id
_symmetry_equiv_pos_as_xyz
1 x,y,z
2 1/2-x,-y,1/2+z
3 1/2+x,1/2-y,-z
4 -x,1/2+y,1/2-z
_cell_length_a                   9.985(2)
_cell_length_b                   15.742(2)
_cell_length_c                   36.491(5)
_cell_angle_alpha                90
_cell_angle_beta                 90
_cell_angle_gamma                90
_cell_volume                     5735.8
_cell_formula_units_Z            8
loop_
_atom_site_label
_atom_site_type_symbol
_atom_site_fract_x
_atom_site_fract_y
_atom_site_fract_z
N1 N 0.1533(5) -0.4413(4) -0.1795(1)
C1 C 0.0933(6) -0.3902(4) -0.1535(2)
O1 O 0.1556(4) -0.3556(3) -0.1288(1)
N2 N -0.0427(5) -0.3817(3) -0.1575(1)
C2 C -0.1239(7) -0.4195(5) -0.1830(2)
O2 O -0.2471(5) -0.4093(4) -0.1811(2)
C3 C -0.0554(7) -0.4682(5) -0.2106(2)
C4 C -0.1372(9) -0.5073(9) -0.2411(2)
C5 C 0.0794(7) -0.4775(5) -0.2072(2)
C6 C 0.2989(6) -0.4558(5) -0.1784(2)
C7 C 0.3395(8) -0.5477(6) -0.1753(2)
C8 C 0.4640(7) -0.5570(5) -0.1980(2)
O3 O 0.5836(6) -0.5589(6) -0.1761(2)
C9 C 0.4598(6) -0.4812(5) -0.2241(2)
O4 O 0.3514(4) -0.4270(3) -0.2126(1)
C10 C 0.4431(7) -0.5034(5) -0.2635(2)
O5 O 0.3211(4) -0.5497(3) -0.2671(1)
C11 C 0.2741(7) -0.5693(5) -0.3038(2)
C12 C 0.1486(7) -0.6243(5) -0.2968(2)
C13 C 0.1386(8) -0.6738(6) -0.2661(2)
C14 C 0.0260(12) -0.7258(7) -0.2595(3)
C15 C -0.0748(13) -0.7263(10) -0.2840(6)
C16 C -0.0718(12) -0.6781(10) -0.3155(5)
C17 C 0.0421(9) -0.6259(7) -0.3217(3)
C18 C 0.2369(8) -0.4870(5) -0.3233(2)
C19 C 0.2028(9) -0.4145(6) -0.3045(2)
C20 C 0.1697(13) -0.3398(7) -0.3232(3)
C21 C 0.1740(13) -0.3363(8) -0.3599(3)
C22 C 0.2040(12) -0.4076(7) -0.3799(2)
C23 C 0.2348(11) -0.4832(7) -0.3614(2)
C24 C 0.3821(6) -0.6201(4) -0.3246(2)
C25 C 0.4871(8) -0.5779(5) -0.3421(2)
C26 C 0.5872(7) -0.6248(5) -0.3601(2)
C27 C 0.5828(8) -0.7120(6) -0.3601(2)
C28 C 0.4815(9) -0.7530(5) -0.3427(2)
C29 C 0.3790(9) -0.7075(5) -0.3249(2)
N3 N 0.1540(5) -0.6726(3) -0.4389(1)
C30 C 0.0939(6) -0.7347(4) -0.4194(2)
O6 O 0.1555(5) -0.7843(3) -0.3995(1)
N4 N -0.0440(5) -0.7395(4) -0.4233(1)
C31 C -0.1211(6) -0.6912(5) -0.4458(2)
O7 O -0.2455(5) -0.7041(4) -0.4473(1)
C32 C -0.0517(6) -0.6257(4) -0.4663(2)
C33 C -0.1300(7) -0.5683(5) -0.4910(2)
C34 C 0.0835(6) -0.6197(4) -0.4619(2)
C35 C 0.3005(6) -0.6597(4) -0.4327(3)
C36 C 0.3907(7) -0.7117(4) -0.4569(2)
C37 C 0.4386(6) -0.6511(4) -0.4857(2)
O8 O 0.5621(5) -0.6717(3) -0.5025(1)
C38 C 0.4399(6) -0.5674(4) -0.4648(2)
O9 O 0.3294(5) -0.5740(3) -0.4393(1)
C39 C 0.4219(7) -0.4879(4) -0.4870(2)
O10 O 0.3137(4) -0.5030(2) -0.5121(1)
C40 C 0.2687(6) -0.4347(4) -0.5350(2)
C41 C 0.1438(6) -0.4693(4) -0.5544(2)
C42 C 0.1381(7) -0.5551(4) -0.5637(2)
C43 C 0.0303(8) -0.5868(5) -0.5825(2)
C44 C -0.0741(8) -0.5354(5) -0.5924(2)
C45 C -0.0723(8) -0.4501(5) -0.5835(2)
C46 C 0.0380(6) -0.4170(4) -0.5645(2)
C47 C 0.2381(6) -0.3575(4) -0.5102(2)
C48 C 0.1375(7) -0.3660(5) -0.4835(2)
C49 C 0.1094(8) -0.3024(5) -0.4599(2)
C50 C 0.1806(9) -0.2291(5) -0.4608(2)
C51 C 0.2811(9) -0.2192(5) -0.4860(2)
C52 C 0.3086(8) -0.2846(5) -0.5105(2)
C53 C 0.3701(6) -0.4167(4) -0.5660(2)
C54 C 0.3475(8) -0.3508(5) -0.5902(2)
C55 C 0.4319(9) -0.3375(6) -0.6202(2)
C56 C 0.5413(10) -0.3920(7) -0.6258(2)
C57 C 0.5594(8) -0.4585(7) -0.6027(2)
C58 C 0.4758(7) -0.4717(5) -0.5730(2)
O11 O 0.1797(26) 0.8217(16) 0.3048(5)
O12 O 0.1727(27) 0.8834(17) 0.4172(6)
O13 O 0.0583(28) 0.8048(20) 0.3591(9)
O14 O 0.2561(28) 0.8894(17) 0.3562(7)
O15 O 0.3337(25) 0.9481(15) 0.4032(5)
loop_
_geom_bond_atom_site_label_1
_geom_bond_atom_site_label_2
_geom_bond_site_symmetry_1
_geom_bond_site_symmetry_2
N1 C1 1_555 1_555
C1 O1 1_555 1_555
N2 C1 1_555 1_555
C2 N2 1_555 1_555
O2 C2 1_555 1_555
C3 C2 1_555 1_555
C4 C3 1_555 1_555
C5 N1 1_555 1_555
C6 N1 1_555 1_555
C7 C6 1_555 1_555
C8 C7 1_555 1_555
O3 C8 1_555 1_555
C9 C8 1_555 1_555
O4 C6 1_555 1_555
C10 C9 1_555 1_555
O5 C10 1_555 1_555
C11 O5 1_555 1_555
C12 C11 1_555 1_555
C13 C12 1_555 1_555
C14 C13 1_555 1_555
C15 C14 1_555 1_555
C16 C15 1_555 1_555
C17 C12 1_555 1_555
C18 C11 1_555 1_555
C19 C18 1_555 1_555
C20 C19 1_555 1_555
C21 C20 1_555 1_555
C22 C21 1_555 1_555
C23 C18 1_555 1_555
C24 C11 1_555 1_555
C25 C24 1_555 1_555
C26 C25 1_555 1_555
C27 C26 1_555 1_555
C28 C27 1_555 1_555
C29 C24 1_555 1_555
N3 C30 1_555 1_555
C30 O6 1_555 1_555
N4 C30 1_555 1_555
C31 N4 1_555 1_555
O7 C31 1_555 1_555
C32 C31 1_555 1_555
C33 C32 1_555 1_555
C34 N3 1_555 1_555
C35 N3 1_555 1_555
C36 C35 1_555 1_555
C37 C36 1_555 1_555
O8 C37 1_555 1_555
C38 C37 1_555 1_555
O9 C35 1_555 1_555
C39 C38 1_555 1_555
O10 C39 1_555 1_555
C40 O10 1_555 1_555
C41 C40 1_555 1_555
C42 C41 1_555 1_555
C43 C42 1_555 1_555
C44 C43 1_555 1_555
C45 C44 1_555 1_555
C46 C41 1_555 1_555
C47 C40 1_555 1_555
C48 C47 1_555 1_555
C49 C48 1_555 1_555
C50 C49 1_555 1_555
C51 C50 1_555 1_555
C52 C47 1_555 1_555
C53 C40 1_555 1_555
C54 C53 1_555 1_555
C55 C54 1_555 1_555
C56 C55 1_555 1_555
C57 C56 1_555 1_555
C58 C53 1_555 1_555
C3 C5 1_555 1_555
C9 O4 1_555 1_555
C16 C17 1_555 1_555
C22 C23 1_555 1_555
C28 C29 1_555 1_555
C32 C34 1_555 1_555
C38 O9 1_555 1_555
C45 C46 1_555 1_555
C51 C52 1_555 1_555
C57 C58 1_555 1_555

#END
