
#######################################################################
#
#                 Cambridge Crystallographic Data Centre
#                                CCDC 
#
#######################################################################
#
# If this CIF has been generated from an entry in the Cambridge 
# Structural Database, then it will include bibliographic, chemical, 
# crystal, experimental, refinement or atomic coordinate data resulting 
# from the CCDC's data processing and validation procedures.
#
#######################################################################

data_LOWJIQ
_chemical_formula_moiety         'C28 H26 N2 O6'
_chemical_name_systematic        2'-Deoxy-5'-O-trityluridine
_symmetry_cell_setting           monoclinic
_symmetry_space_group_name_H-M   'P 21'
_symmetry_Int_Tables_number      4
_space_group_name_Hall           'P 2yb'
loop_
_symmetry_equiv_pos_site_id
_symmetry_equiv_pos_as_xyz
1 x,y,z
2 -x,1/2+y,-z
_cell_length_a                   11.995(3)
_cell_length_b                   11.492(3)
_cell_length_c                   17.381(2)
_cell_angle_alpha                90
_cell_angle_beta                 92.6(1)
_cell_angle_gamma                90
_cell_volume                     2393.44
_cell_formula_units_Z            4
loop_
_atom_site_label
_atom_site_type_symbol
_atom_site_fract_x
_atom_site_fract_y
_atom_site_fract_z
N1 N 0.1498(1) 0.2894(1) 0.5037(1)
C1 C 0.0753(2) 0.3662(2) 0.4681(1)
O1 O 0.0197(1) 0.4345(2) 0.5039(1)
N2 N 0.0674(1) 0.3582(2) 0.3890(1)
C2 C 0.1280(2) 0.2868(2) 0.3433(1)
O2 O 0.1161(1) 0.2957(1) 0.2722(1)
C3 C 0.2017(2) 0.2086(2) 0.3847(1)
C4 C 0.2105(2) 0.2131(2) 0.4620(1)
C5 C 0.3880(1) -0.0980(2) 0.5649(1)
C6 C 0.1591(2) 0.2955(2) 0.5894(1)
C7 C 0.0622(2) 0.2302(2) 0.6244(1)
O3 O 0.0427(1) 0.2686(2) 0.7003(1)
C8 C 0.1137(1) 0.1098(2) 0.6322(1)
O4 O 0.0611(1) 0.0310(1) 0.6808(1)
C9 C 0.2325(1) 0.1395(2) 0.6607(1)
O5 O 0.2586(1) 0.2411(1) 0.6157(1)
C10 C 0.3186(2) 0.0457(2) 0.6541(1)
O6 O 0.3156(1) 0.0011(1) 0.5777(1)
C11 C 0.3701(1) -0.1256(2) 0.4791(1)
C12 C 0.4489(2) -0.1906(2) 0.4409(1)
C13 C 0.4300(2) -0.2212(2) 0.3647(1)
C14 C 0.3333(2) -0.1884(2) 0.3245(1)
C15 C 0.2542(2) -0.1244(2) 0.3620(1)
C16 C 0.2717(2) -0.0939(2) 0.4390(1)
C17 C 0.5082(1) -0.0613(2) 0.5875(1)
C18 C 0.5511(2) -0.0734(2) 0.6630(1)
C19 C 0.6562(2) -0.0294(2) 0.6840(2)
C20 C 0.7194(2) 0.0254(2) 0.6309(2)
C21 C 0.6780(2) 0.0387(2) 0.5568(2)
C22 C 0.5729(2) -0.0038(2) 0.5355(1)
C23 C 0.3471(2) -0.2063(2) 0.6072(1)
C24 C 0.2336(2) -0.2199(2) 0.6182(1)
C25 C 0.1925(3) -0.3222(3) 0.6499(1)
C26 C 0.2644(3) -0.4104(2) 0.6716(1)
C27 C 0.3772(3) -0.3987(2) 0.6606(1)
C28 C 0.4186(2) -0.2979(2) 0.6282(1)
loop_
_geom_bond_atom_site_label_1
_geom_bond_atom_site_label_2
_geom_bond_site_symmetry_1
_geom_bond_site_symmetry_2
N1 C1 1_555 1_555
C1 O1 1_555 1_555
N2 C1 1_555 1_555
C2 N2 1_555 1_555
O2 C2 1_555 1_555
C3 C2 1_555 1_555
C4 N1 1_555 1_555
C5 O6 1_555 1_555
C6 N1 1_555 1_555
C7 C6 1_555 1_555
O3 C7 1_555 1_555
C8 C7 1_555 1_555
O4 C8 1_555 1_555
C9 C8 1_555 1_555
O5 C6 1_555 1_555
C10 C9 1_555 1_555
O6 C10 1_555 1_555
C11 C5 1_555 1_555
C12 C11 1_555 1_555
C13 C12 1_555 1_555
C14 C13 1_555 1_555
C15 C14 1_555 1_555
C16 C11 1_555 1_555
C17 C5 1_555 1_555
C18 C17 1_555 1_555
C19 C18 1_555 1_555
C20 C19 1_555 1_555
C21 C20 1_555 1_555
C22 C17 1_555 1_555
C23 C5 1_555 1_555
C24 C23 1_555 1_555
C25 C24 1_555 1_555
C26 C25 1_555 1_555
C27 C26 1_555 1_555
C28 C23 1_555 1_555
C3 C4 1_555 1_555
C9 O5 1_555 1_555
C15 C16 1_555 1_555
C21 C22 1_555 1_555
C27 C28 1_555 1_555

#END
