
#######################################################################
#
#                 Cambridge Crystallographic Data Centre
#                                CCDC 
#
#######################################################################
#
# If this CIF has been generated from an entry in the Cambridge 
# Structural Database, then it will include bibliographic, chemical, 
# crystal, experimental, refinement or atomic coordinate data resulting 
# from the CCDC's data processing and validation procedures.
#
#######################################################################

data_LOWNUI
_chemical_formula_moiety         'C11 H8 N2 O1 S2'
_chemical_name_systematic        
'3-(2-thienyl)-4H-1,2,4-benzothiadiazine 1-oxide'
_symmetry_cell_setting           monoclinic
_symmetry_space_group_name_H-M   'P 21/c'
_symmetry_Int_Tables_number      14
_space_group_name_Hall           '-P 2ybc'
loop_
_symmetry_equiv_pos_site_id
_symmetry_equiv_pos_as_xyz
1 x,y,z
2 -x,1/2+y,1/2-z
3 -x,-y,-z
4 x,1/2-y,1/2+z
_cell_length_a                   8.2057(5)
_cell_length_b                   18.0582(12)
_cell_length_c                   7.4221(4)
_cell_angle_alpha                90
_cell_angle_beta                 111.185(3)
_cell_angle_gamma                90
_cell_volume                     1025.48
_exptl_crystal_colour            colorless
_exptl_crystal_description       block
_cell_formula_units_Z            4
loop_
_atom_site_label
_atom_site_type_symbol
_atom_site_fract_x
_atom_site_fract_y
_atom_site_fract_z
S1 S 0.26614(8) 0.63587(3) 0.89610(9)
O1 O 0.3842(2) 0.62865(10) 0.7816(3)
N1 N 0.1490(3) 0.55856(12) 0.8642(3)
S2 S -0.04643(9) 0.43009(4) 0.66426(10)
N2 N 0.3735(3) 0.49230(11) 1.1039(3)
H1 H 0.421(3) 0.4475(11) 1.142(4)
C1 C 0.4088(3) 0.62500(14) 1.1386(4)
C2 C 0.4841(4) 0.68660(15) 1.2515(4)
H2 H 0.4451 0.7351 1.2067
C3 C 0.6157(4) 0.67642(16) 1.4291(4)
H3 H 0.6648 0.7180 1.5087
C4 C 0.6768(4) 0.60553(16) 1.4918(4)
H4 H 0.7726 0.5993 1.6100
C5 C 0.5992(3) 0.54428(15) 1.3836(4)
H5 H 0.6397 0.4960 1.4283
C6 C 0.4605(3) 0.55384(14) 1.2077(4)
C7 C 0.2214(3) 0.49681(14) 0.9512(3)
C8 C 0.1277(3) 0.42807(14) 0.8791(3)
C9 C 0.1557(3) 0.35629(13) 0.9628(4)
H6 H 0.2440 0.3436 1.0827
C10 C 0.0309(4) 0.30613(15) 0.8392(4)
H7 H 0.0281 0.2549 0.8673
C11 C -0.0842(4) 0.33836(16) 0.6770(4)
H8 H -0.1755 0.3122 0.5815
loop_
_geom_bond_atom_site_label_1
_geom_bond_atom_site_label_2
_geom_bond_site_symmetry_1
_geom_bond_site_symmetry_2
S1 O1 1_555 1_555
N1 S1 1_555 1_555
S2 C8 1_555 1_555
N2 H1 1_555 1_555
C1 S1 1_555 1_555
C2 C1 1_555 1_555
H2 C2 1_555 1_555
C3 C2 1_555 1_555
H3 C3 1_555 1_555
C4 C3 1_555 1_555
H4 C4 1_555 1_555
C5 C4 1_555 1_555
H5 C5 1_555 1_555
C6 N2 1_555 1_555
C7 N1 1_555 1_555
C8 C7 1_555 1_555
C9 C8 1_555 1_555
H6 C9 1_555 1_555
C10 C9 1_555 1_555
H7 C10 1_555 1_555
C11 S2 1_555 1_555
H8 C11 1_555 1_555
N2 C7 1_555 1_555
C1 C6 1_555 1_555
C5 C6 1_555 1_555
C10 C11 1_555 1_555

#END
