
#######################################################################
#
#                 Cambridge Crystallographic Data Centre
#                                CCDC 
#
#######################################################################
#
# If this CIF has been generated from an entry in the Cambridge 
# Structural Database, then it will include bibliographic, chemical, 
# crystal, experimental, refinement or atomic coordinate data resulting 
# from the CCDC's data processing and validation procedures.
#
#######################################################################

data_LOWPAQ
_chemical_formula_moiety         'C14 H9 F3 N2 O1 S1'
_chemical_name_systematic        
'3-phenyl-6-(trifluoromethyl)-4H-1,2,4-benzothiadiazine 1-oxide'
_symmetry_cell_setting           monoclinic
_symmetry_space_group_name_H-M   'P 21/c'
_symmetry_Int_Tables_number      14
_space_group_name_Hall           '-P 2ybc'
loop_
_symmetry_equiv_pos_site_id
_symmetry_equiv_pos_as_xyz
1 x,y,z
2 -x,1/2+y,1/2-z
3 -x,-y,-z
4 x,1/2-y,1/2+z
_cell_length_a                   12.7488(9)
_cell_length_b                   8.6205(6)
_cell_length_c                   12.1309(8)
_cell_angle_alpha                90
_cell_angle_beta                 101.918(3)
_cell_angle_gamma                90
_cell_volume                     1304.46
_exptl_crystal_colour            yellow
_exptl_crystal_description       plate
_cell_formula_units_Z            4
loop_
_atom_site_label
_atom_site_type_symbol
_atom_site_fract_x
_atom_site_fract_y
_atom_site_fract_z
S1 S 0.65273(4) 0.05147(5) -0.14912(4)
C1 C 0.81232(14) 0.0631(2) 0.17610(15)
H1 H 0.8071 0.1144 0.2441
C2 C 0.89713(15) -0.0362(2) 0.17263(16)
C3 C 0.73445(14) 0.0863(2) 0.07762(15)
C4 C 0.46649(14) 0.2797(2) 0.01676(15)
C5 C 0.55878(14) 0.1867(2) -0.00360(14)
C6 C 0.74515(14) 0.0124(2) -0.02162(15)
C7 C 0.97867(15) -0.0667(2) 0.27812(17)
C8 C 0.39340(15) 0.3380(2) -0.07600(15)
H2 H 0.4021 0.3146 -0.1501
C9 C 0.45158(14) 0.3128(2) 0.12487(15)
H3 H 0.4993 0.2708 0.1885
C10 C 0.83046(16) -0.0880(2) -0.02302(16)
H4 H 0.8358 -0.1399 -0.0908
C11 C 0.90716(16) -0.1124(2) 0.07353(17)
H5 H 0.9659 -0.1798 0.0728
C12 C 0.36754(15) 0.4067(2) 0.14001(17)
H6 H 0.3588 0.4309 0.2140
C13 C 0.30883(16) 0.4293(2) -0.06050(17)
H7 H 0.2591 0.4675 -0.1240
C14 C 0.29601(16) 0.4656(2) 0.04750(18)
H8 H 0.2386 0.5304 0.0580
N1 N 0.54770(12) 0.11578(18) -0.10099(12)
N2 N 0.64702(12) 0.18136(18) 0.08019(12)
H9 H 0.6492 0.2412 0.1394
F1 F 1.07833(10) -0.0670(2) 0.26028(12)
F2 F 0.97579(12) 0.03518(17) 0.35974(11)
F3 F 0.96563(11) -0.20620(16) 0.32161(11)
O1 O 0.69844(10) 0.18814(16) -0.19933(11)
loop_
_geom_bond_atom_site_label_1
_geom_bond_atom_site_label_2
_geom_bond_site_symmetry_1
_geom_bond_site_symmetry_2
S1 C6 1_555 1_555
C1 H1 1_555 1_555
C2 C1 1_555 1_555
C3 C1 1_555 1_555
C4 C5 1_555 1_555
C5 N1 1_555 1_555
C6 C3 1_555 1_555
C7 C2 1_555 1_555
C8 C4 1_555 1_555
H2 C8 1_555 1_555
C9 C4 1_555 1_555
H3 C9 1_555 1_555
C10 C6 1_555 1_555
H4 C10 1_555 1_555
C11 C2 1_555 1_555
H5 C11 1_555 1_555
C12 C9 1_555 1_555
H6 C12 1_555 1_555
C13 C8 1_555 1_555
H7 C13 1_555 1_555
C14 C12 1_555 1_555
H8 C14 1_555 1_555
N1 S1 1_555 1_555
N2 C3 1_555 1_555
H9 N2 1_555 1_555
F1 C7 1_555 1_555
F2 C7 1_555 1_555
F3 C7 1_555 1_555
O1 S1 1_555 1_555
C5 N2 1_555 1_555
C10 C11 1_555 1_555
C13 C14 1_555 1_555

#END
