
#######################################################################
#
#                 Cambridge Crystallographic Data Centre
#                                CCDC 
#
#######################################################################
#
# If this CIF has been generated from an entry in the Cambridge 
# Structural Database, then it will include bibliographic, chemical, 
# crystal, experimental, refinement or atomic coordinate data resulting 
# from the CCDC's data processing and validation procedures.
#
#######################################################################

data_LOWQAR
_chemical_formula_moiety         'C17 H9 F5 N2 O2'
_chemical_name_systematic        
5,5'-((pentafluorophenyl)methylene)bis(1H-pyrrole-2-carbaldehyde)
_symmetry_cell_setting           triclinic
_symmetry_space_group_name_H-M   'P -1'
_symmetry_Int_Tables_number      2
_space_group_name_Hall           '-P 1'
loop_
_symmetry_equiv_pos_site_id
_symmetry_equiv_pos_as_xyz
1 x,y,z
2 -x,-y,-z
_cell_length_a                   10.0877(8)
_cell_length_b                   11.7180(8)
_cell_length_c                   13.6686(10)
_cell_angle_alpha                95.540(6)
_cell_angle_beta                 93.267(6)
_cell_angle_gamma                95.334(7)
_cell_volume                     1597.67
_exptl_crystal_colour            colorless
_exptl_crystal_description       Block
_cell_formula_units_Z            4
loop_
_atom_site_label
_atom_site_type_symbol
_atom_site_fract_x
_atom_site_fract_y
_atom_site_fract_z
C1 C 0.8839(3) 0.6465(3) 0.3605(3)
H1 H 0.8136 0.6330 0.4026
C2 C 0.9752(3) 0.5610(3) 0.3484(3)
C3 C 0.9760(3) 0.4531(3) 0.3805(3)
H2 H 0.9120 0.4175 0.4192
C4 C 1.0885(3) 0.4058(3) 0.3454(3)
H3 H 1.1147 0.3318 0.3555
C5 C 1.1546(3) 0.4860(3) 0.2934(2)
C6 C 1.2744(3) 0.4816(3) 0.2339(2)
H4 H 1.3148 0.5629 0.2343
C7 C 1.2321(3) 0.4393(3) 0.1282(3)
C8 C 1.1116(4) 0.3886(4) 0.0847(3)
H5 H 1.0321 0.3732 0.1173
C9 C 1.1267(4) 0.3642(4) -0.0144(3)
H6 H 1.0599 0.3280 -0.0620
C10 C 1.2557(3) 0.4017(3) -0.0324(3)
C11 C 1.3210(4) 0.3975(3) -0.1211(3)
H7 H 1.2717 0.3602 -0.1785
C12 C 1.3800(3) 0.4160(3) 0.2808(2)
C13 C 1.3853(3) 0.2982(3) 0.2631(3)
C14 C 1.4813(4) 0.2411(3) 0.3089(3)
C15 C 1.5746(3) 0.3010(4) 0.3751(3)
C16 C 1.5731(3) 0.4177(4) 0.3954(3)
C17 C 1.4780(3) 0.4732(3) 0.3472(3)
N1 N 1.0855(2) 0.5791(2) 0.2959(2)
H8 H 1.1078 0.6421 0.2679
N2 N 1.3178(3) 0.4485(2) 0.0564(2)
H9 H 1.4009 0.4797 0.0651
O1 O 0.8892(2) 0.7361(2) 0.3208(2)
O2 O 1.4358(3) 0.4379(2) -0.13073(18)
F1 F 1.2954(2) 0.23519(18) 0.20003(18)
F2 F 1.4838(2) 0.12734(19) 0.28740(19)
F3 F 1.6683(2) 0.2477(2) 0.42101(18)
F4 F 1.6635(2) 0.4775(2) 0.46166(16)
F5 F 1.48019(19) 0.58765(17) 0.36915(15)
C18 C 0.7516(4) 0.1591(4) 0.8191(3)
H10 H 0.6666 0.1373 0.8419
C19 C 0.8515(3) 0.0846(3) 0.8331(3)
C20 C 0.8459(3) -0.0121(3) 0.8832(3)
H11 H 0.7716 -0.0424 0.9155
C21 C 0.9674(3) -0.0573(3) 0.8781(3)
H12 H 0.9916 -0.1240 0.9064
C22 C 1.0470(3) 0.0119(3) 0.8246(2)
C23 C 1.1898(3) 0.0050(3) 0.7989(2)
H13 H 1.2435 0.0733 0.8358
C24 C 1.2439(3) -0.1008(3) 0.8350(2)
C25 C 1.2048(3) -0.2167(3) 0.8098(3)
H14 H 1.1340 -0.2489 0.7637
C26 C 1.2893(3) -0.2769(3) 0.8650(3)
H15 H 1.2858 -0.3583 0.8639
C27 C 1.3790(3) -0.1983(3) 0.9217(2)
C28 C 1.4862(3) -0.2158(3) 0.9890(3)
H16 H 1.4981 -0.2932 0.9995
C29 C 1.2127(3) 0.0109(3) 0.6906(2)
C30 C 1.1346(3) -0.0540(3) 0.6152(3)
C31 C 1.1591(4) -0.0511(3) 0.5177(3)
C32 C 1.2650(4) 0.0190(4) 0.4930(3)
C33 C 1.3468(4) 0.0844(4) 0.5654(3)
C34 C 1.3189(3) 0.0793(3) 0.6620(3)
N3 N 0.9765(2) 0.0980(2) 0.7975(2)
H17 H 1.0058 0.1534 0.7627
N4 N 1.3488(2) -0.0898(2) 0.90152(19)
H18 H 1.3915 -0.0241 0.9280
O3 O 0.7638(3) 0.2490(3) 0.7806(3)
O4 O 1.5642(2) -0.1410(2) 1.03438(19)
F6 F 1.0291(2) -0.12510(19) 0.63604(16)
F7 F 1.0820(2) -0.1172(2) 0.44799(17)
F8 F 1.2895(3) 0.0226(3) 0.39780(19)
F9 F 1.4509(3) 0.1527(3) 0.5408(2)
F10 F 1.3999(2) 0.1453(2) 0.73043(17)
loop_
_geom_bond_atom_site_label_1
_geom_bond_atom_site_label_2
_geom_bond_site_symmetry_1
_geom_bond_site_symmetry_2
C1 H1 1_555 1_555
C2 C1 1_555 1_555
C3 C2 1_555 1_555
H2 C3 1_555 1_555
C4 C3 1_555 1_555
H3 C4 1_555 1_555
C5 C4 1_555 1_555
C6 C5 1_555 1_555
H4 C6 1_555 1_555
C7 C6 1_555 1_555
C8 C7 1_555 1_555
H5 C8 1_555 1_555
C9 C8 1_555 1_555
H6 C9 1_555 1_555
C10 C9 1_555 1_555
C11 C10 1_555 1_555
H7 C11 1_555 1_555
C12 C6 1_555 1_555
C13 C12 1_555 1_555
C14 C13 1_555 1_555
C15 C14 1_555 1_555
C16 C15 1_555 1_555
C17 C12 1_555 1_555
N1 C2 1_555 1_555
H8 N1 1_555 1_555
N2 C7 1_555 1_555
H9 N2 1_555 1_555
O1 C1 1_555 1_555
O2 C11 1_555 1_555
F1 C13 1_555 1_555
F2 C14 1_555 1_555
F3 C15 1_555 1_555
F4 C16 1_555 1_555
F5 C17 1_555 1_555
C18 H10 1_555 1_555
C19 C18 1_555 1_555
C20 C19 1_555 1_555
H11 C20 1_555 1_555
C21 C20 1_555 1_555
H12 C21 1_555 1_555
C22 C21 1_555 1_555
C23 C22 1_555 1_555
H13 C23 1_555 1_555
C24 C23 1_555 1_555
C25 C24 1_555 1_555
H14 C25 1_555 1_555
C26 C25 1_555 1_555
H15 C26 1_555 1_555
C27 C26 1_555 1_555
C28 C27 1_555 1_555
H16 C28 1_555 1_555
C29 C23 1_555 1_555
C30 C29 1_555 1_555
C31 C30 1_555 1_555
C32 C31 1_555 1_555
C33 C32 1_555 1_555
C34 C29 1_555 1_555
N3 C19 1_555 1_555
H17 N3 1_555 1_555
N4 C24 1_555 1_555
H18 N4 1_555 1_555
O3 C18 1_555 1_555
O4 C28 1_555 1_555
F6 C30 1_555 1_555
F7 C31 1_555 1_555
F8 C32 1_555 1_555
F9 C33 1_555 1_555
F10 C34 1_555 1_555
C5 N1 1_555 1_555
C10 N2 1_555 1_555
C16 C17 1_555 1_555
C22 N3 1_555 1_555
C27 N4 1_555 1_555
C33 C34 1_555 1_555

#END
