
#######################################################################
#
#                 Cambridge Crystallographic Data Centre
#                                CCDC 
#
#######################################################################
#
# If this CIF has been generated from an entry in the Cambridge 
# Structural Database, then it will include bibliographic, chemical, 
# crystal, experimental, refinement or atomic coordinate data resulting 
# from the CCDC's data processing and validation procedures.
#
#######################################################################

data_LOWTIC
_chemical_formula_moiety         'C26 H26 N2 O5'
_chemical_name_systematic        
'dibenzyl 1-(7-oxo-1,3,4,7-tetrahydronaphthalen-4a(2H)-yl)hydrazine-1,2-dicarboxylate'
_symmetry_cell_setting           monoclinic
_symmetry_space_group_name_H-M   'P 21/c'
_symmetry_Int_Tables_number      14
_space_group_name_Hall           '-P 2ybc'
loop_
_symmetry_equiv_pos_site_id
_symmetry_equiv_pos_as_xyz
1 x,y,z
2 -x,1/2+y,1/2-z
3 -x,-y,-z
4 x,1/2-y,1/2+z
_cell_length_a                   18.941(4)
_cell_length_b                   7.9994(16)
_cell_length_c                   16.443(3)
_cell_angle_alpha                90
_cell_angle_beta                 111.192(4)
_cell_angle_gamma                90
_cell_volume                     2322.91
_exptl_crystal_colour            colorless
_exptl_crystal_description       block
_cell_formula_units_Z            4
loop_
_atom_site_label
_atom_site_type_symbol
_atom_site_fract_x
_atom_site_fract_y
_atom_site_fract_z
N1 N 0.33297(18) 0.2403(4) 0.26710(19)
N2 N 0.2917(2) 0.3382(4) 0.1967(2)
H1 H 0.3142 0.4054 0.1733
O1 O 0.39503(17) 0.1432(4) 0.60455(17)
O2 O 0.1781(2) 0.2620(6) 0.2021(3)
O3 O 0.1891(2) 0.4033(5) 0.0877(2)
O4 O 0.29422(18) 0.0260(3) 0.17407(17)
O5 O 0.35006(19) -0.0277(4) 0.31875(19)
C1 C 0.3826(3) 0.5044(5) 0.3474(3)
H2 H 0.3384 0.5617 0.3080
H3 H 0.3969 0.5579 0.4040
C2 C 0.4473(3) 0.5229(5) 0.3137(3)
H4 H 0.4302 0.4859 0.2535
H5 H 0.4608 0.6401 0.3150
C3 C 0.5169(3) 0.4236(6) 0.3665(3)
H6 H 0.5404 0.4752 0.4234
H7 H 0.5532 0.4262 0.3374
C4 C 0.4972(2) 0.2406(5) 0.3784(3)
H8 H 0.4817 0.1827 0.3228
H9 H 0.5413 0.1842 0.4186
C5 C 0.4341(2) 0.2367(5) 0.4132(3)
C6 C 0.4446(2) 0.1904(5) 0.4950(2)
H10 H 0.4923 0.1540 0.5309
C7 C 0.3847(2) 0.1946(5) 0.5299(3)
C8 C 0.3117(2) 0.2620(5) 0.4741(3)
H11 H 0.2720 0.2663 0.4948
C9 C 0.3008(2) 0.3173(5) 0.3945(3)
H12 H 0.2530 0.3568 0.3606
C10 C 0.3618(2) 0.3195(5) 0.3560(2)
C11 C 0.3270(2) 0.0702(6) 0.2585(3)
C12 C 0.2757(3) -0.1484(6) 0.1586(3)
H13 H 0.2372 -0.1791 0.1820
H14 H 0.3202 -0.2166 0.1867
C13 C 0.2467(2) -0.1749(5) 0.0617(3)
C14 C 0.2842(3) -0.2771(5) 0.0239(4)
H15 H 0.3279 -0.3323 0.0587
C15 C 0.2576(4) -0.2989(7) -0.0657(5)
H16 H 0.2835 -0.3678 -0.0910
C16 C 0.1931(5) -0.2191(9) -0.1169(4)
H17 H 0.1746 -0.2341 -0.1770
C17 C 0.1566(3) -0.1185(8) -0.0795(5)
H18 H 0.1130 -0.0632 -0.1144
C18 C 0.1824(3) -0.0961(6) 0.0087(4)
H19 H 0.1560 -0.0265 0.0331
C19 C 0.2149(3) 0.3268(7) 0.1651(3)
C20 C 0.1077(4) 0.4335(11) 0.0505(4)
H20 H 0.0984 0.5522 0.0398
H21 H 0.0847 0.3987 0.0918
C21 C 0.0723(3) 0.3400(8) -0.0327(4)
C22 C 0.0958(3) 0.3633(7) -0.1019(5)
H22 H 0.1364 0.4342 -0.0954
C23 C 0.0612(6) 0.2855(11) -0.1792(5)
H23 H 0.0783 0.3009 -0.2250
C24 C 0.0019(6) 0.1856(14) -0.1886(8)
H24 H -0.0230 0.1356 -0.2425
C25 C -0.0233(5) 0.1546(12) -0.1227(10)
H25 H -0.0644 0.0844 -0.1305
C26 C 0.0140(5) 0.2306(10) -0.0444(6)
H26 H -0.0007 0.2071 0.0025
loop_
_geom_bond_atom_site_label_1
_geom_bond_atom_site_label_2
_geom_bond_site_symmetry_1
_geom_bond_site_symmetry_2
N1 N2 1_555 1_555
N2 H1 1_555 1_555
O1 C7 1_555 1_555
O2 C19 1_555 1_555
O3 C19 1_555 1_555
O4 C11 1_555 1_555
O5 C11 1_555 1_555
C1 H2 1_555 1_555
H3 C1 1_555 1_555
C2 C1 1_555 1_555
H4 C2 1_555 1_555
H5 C2 1_555 1_555
C3 C2 1_555 1_555
H6 C3 1_555 1_555
H7 C3 1_555 1_555
C4 C3 1_555 1_555
H8 C4 1_555 1_555
H9 C4 1_555 1_555
C5 C4 1_555 1_555
C6 C5 1_555 1_555
H10 C6 1_555 1_555
C7 C6 1_555 1_555
C8 C7 1_555 1_555
H11 C8 1_555 1_555
C9 C8 1_555 1_555
H12 C9 1_555 1_555
C10 N1 1_555 1_555
C11 N1 1_555 1_555
C12 O4 1_555 1_555
H13 C12 1_555 1_555
H14 C12 1_555 1_555
C13 C12 1_555 1_555
C14 C13 1_555 1_555
H15 C14 1_555 1_555
C15 C14 1_555 1_555
H16 C15 1_555 1_555
C16 C15 1_555 1_555
H17 C16 1_555 1_555
C17 C16 1_555 1_555
H18 C17 1_555 1_555
C18 C13 1_555 1_555
H19 C18 1_555 1_555
C19 N2 1_555 1_555
C20 O3 1_555 1_555
H20 C20 1_555 1_555
H21 C20 1_555 1_555
C21 C20 1_555 1_555
C22 C21 1_555 1_555
H22 C22 1_555 1_555
C23 C22 1_555 1_555
H23 C23 1_555 1_555
C24 C23 1_555 1_555
H24 C24 1_555 1_555
C25 C24 1_555 1_555
H25 C25 1_555 1_555
C26 C21 1_555 1_555
H26 C26 1_555 1_555
C1 C10 1_555 1_555
C5 C10 1_555 1_555
C9 C10 1_555 1_555
C17 C18 1_555 1_555
C25 C26 1_555 1_555

#END
