
#######################################################################
#
#                 Cambridge Crystallographic Data Centre
#                                CCDC 
#
#######################################################################
#
# If this CIF has been generated from an entry in the Cambridge 
# Structural Database, then it will include bibliographic, chemical, 
# crystal, experimental, refinement or atomic coordinate data resulting 
# from the CCDC's data processing and validation procedures.
#
#######################################################################

data_LOWVUQ
_chemical_formula_moiety         
'C13 H8 O2 S7 Se2 1+,C13 H8 O2 S7 Se2,F6 P1 1-,0.25(C6 H5 Cl1)'
_chemical_name_systematic        
'bis(5-(5,6-dihydro[1,4]diselenino[2,3-d][1,3]dithiol-2-ylidene)-2-(5,6-dihydro[1,3]dithiolo[4,5-b][1,4]dioxin-2-ylidene)-1,3-dithiolane-4-thione cation radical) hexafluorophosphate chlorobenzene solvate'
_symmetry_cell_setting           monoclinic
_symmetry_space_group_name_H-M   'C 2/c'
_symmetry_Int_Tables_number      15
_space_group_name_Hall           '-C 2yn'
loop_
_symmetry_equiv_pos_site_id
_symmetry_equiv_pos_as_xyz
1 x,y,z
2 -x,y,1/2-z
3 1/2+x,1/2+y,z
4 1/2-x,1/2+y,1/2-z
5 -x,-y,-z
6 x,-y,1/2+z
7 1/2-x,1/2-y,-z
8 1/2+x,1/2-y,1/2+z
_cell_length_a                   38.199(17)
_cell_length_b                   14.215(6)
_cell_length_c                   16.037(7)
_cell_angle_alpha                90
_cell_angle_beta                 96.269(10)
_cell_angle_gamma                90
_cell_volume                     8656
_exptl_crystal_colour            black
_exptl_crystal_description       platelet
_chemical_melting_point          '185 deg.C'
_cell_formula_units_Z            8
loop_
_atom_site_label
_atom_site_type_symbol
_atom_site_fract_x
_atom_site_fract_y
_atom_site_fract_z
Se1 Se 0.38414(5) 0.16323(13) 0.37092(10)
Se2 Se 0.40137(5) -0.08301(14) 0.41719(11)
S1 S 0.17823(11) 0.1433(2) 0.07524(18)
S2 S 0.15459(9) -0.0456(3) 0.01514(18)
S3 S 0.24495(9) 0.0488(2) 0.18039(16)
S4 S 0.22003(9) -0.1377(2) 0.12614(18)
S5 S 0.31457(9) 0.0857(2) 0.28439(17)
S6 S 0.32934(9) -0.1110(2) 0.31907(18)
S7 S 0.27643(11) -0.2378(2) 0.2272(2)
O1 O 0.1233(3) 0.2167(9) -0.0120(6)
O2 O 0.0997(3) 0.0327(10) -0.0731(5)
C1 C 0.1862(4) 0.0221(9) 0.0774(6)
C2 C 0.2133(3) -0.0157(8) 0.1208(6)
C3 C 0.2696(3) -0.0490(9) 0.2220(6)
C4 C 0.2581(3) -0.1381(8) 0.1990(6)
C5 C 0.1404(3) 0.1342(13) 0.0050(7)
C6 C 0.1303(4) 0.0534(14) -0.0207(9)
C7 C 0.3007(4) -0.0297(8) 0.2709(6)
C8 C 0.3536(3) 0.0615(10) 0.3442(7)
C9 C 0.3607(4) -0.0321(10) 0.3595(7)
C10 C 0.0930(6) 0.1976(19) -0.0747(12)
H1 H 0.0755 0.2465 -0.0712
H2 H 0.1007 0.2004 -0.1303
C11 C 0.0767(5) 0.1076(19) -0.0643(12)
H3 H 0.0686 0.1047 -0.0091
H4 H 0.0563 0.1013 -0.1056
C12 C 0.4265(5) 0.0999(14) 0.3572(11)
H5 H 0.4255 0.0800 0.2991
H6 H 0.4456 0.1447 0.3670
C13 C 0.4353(5) 0.0176(18) 0.4105(18)
H7 H 0.4416 0.0406 0.4671
H8 H 0.4563 -0.0103 0.3922
Se3 Se 0.08849(4) 0.14387(11) 0.18585(8)
Se4 Se 0.07847(4) -0.09502(13) 0.14345(10)
S8 S 0.29434(10) 0.1511(2) 0.49881(18)
S9 S 0.32236(9) -0.0334(2) 0.55784(17)
S10 S 0.22898(8) 0.0506(2) 0.39717(15)
S11 S 0.25542(9) -0.1333(2) 0.45536(17)
S12 S 0.15837(9) 0.0809(2) 0.29073(16)
S13 S 0.14707(9) -0.1184(2) 0.25988(17)
S14 S 0.19944(10) -0.2382(2) 0.35794(19)
O3 O 0.3507(3) 0.2316(7) 0.5745(6)
O4 O 0.3779(3) 0.0525(9) 0.6341(6)
C14 C 0.2896(3) 0.0304(7) 0.5012(6)
C15 C 0.2611(3) -0.0110(8) 0.4575(6)
C16 C 0.2052(3) -0.0453(8) 0.3579(6)
C17 C 0.2174(3) -0.1364(8) 0.3850(6)
C18 C 0.3341(4) 0.1484(11) 0.5605(8)
C19 C 0.3461(4) 0.0668(11) 0.5854(7)
C20 C 0.1739(3) -0.0329(8) 0.3068(6)
C21 C 0.1217(3) 0.0511(9) 0.2248(6)
C22 C 0.1162(3) -0.0412(10) 0.2108(6)
C23 C 0.3873(5) 0.2143(16) 0.6107(13)
H9 H 0.4019 0.2120 0.5648
H10 H 0.3950 0.2684 0.6448
C24 C 0.3942(6) 0.1378(15) 0.6572(12)
H11 H 0.3887 0.1524 0.7134
H12 H 0.4195 0.1274 0.6611
C25 C 0.0499(4) 0.0703(12) 0.2180(10)
H13 H 0.0559 0.0482 0.2749
H14 H 0.0294 0.1109 0.2180
C26 C 0.0402(4) -0.0116(15) 0.1636(12)
H15 H 0.0293 0.0113 0.1099
H16 H 0.0225 -0.0479 0.1888
P1 P 0.00967(13) -0.2422(4) 0.9521(3)
F1 F 0.0315(8) -0.331(2) 0.9293(17)
F2 F -0.0188(9) -0.306(2) 0.9931(19)
F3 F -0.0200(10) -0.170(3) 0.971(2)
F4 F 0.0296(9) -0.160(2) 0.9101(19)
F5 F -0.0157(7) -0.2615(16) 0.8642(13)
F6 F 0.0358(9) -0.246(2) 1.0283(19)
Cl1 Cl 0.0000 -0.2284(8) 0.2500
C27 C 0.0000 -0.3505(18) 0.2500
C28 C 0.0174(7) -0.398(2) 0.3226(15)
C29 C 0.0183(10) -0.476(3) 0.3183(15)
C30 C 0.0000 -0.525(2) 0.2500
C28A C -0.0174(7) -0.398(2) 0.1774(15)
C29A C -0.0183(10) -0.476(3) 0.1817(15)
F7? F 0.0072(7) -0.2137(19) 1.0490(14)
F8? F -0.0287(9) -0.239(3) 0.917(2)
F9? F 0.0210(7) -0.2559(19) 0.8696(15)
F10? F 0.0532(7) -0.2293(19) 0.9833(16)
F11? F 0.0070(8) -0.3457(19) 0.9760(15)
F12? F 0.0078(9) -0.129(2) 0.9490(18)
loop_
_geom_bond_atom_site_label_1
_geom_bond_atom_site_label_2
_geom_bond_site_symmetry_1
_geom_bond_site_symmetry_2
Se1 C8 1_555 1_555
Se2 C9 1_555 1_555
S1 C1 1_555 1_555
S2 C1 1_555 1_555
S3 C2 1_555 1_555
S4 C2 1_555 1_555
S5 C7 1_555 1_555
S6 C7 1_555 1_555
S7 C4 1_555 1_555
O1 C5 1_555 1_555
O2 C6 1_555 1_555
C1 C2 1_555 1_555
C3 S3 1_555 1_555
C4 S4 1_555 1_555
C5 S1 1_555 1_555
C6 S2 1_555 1_555
C7 C3 1_555 1_555
C8 S5 1_555 1_555
C9 S6 1_555 1_555
C10 O1 1_555 1_555
H1 C10 1_555 1_555
H2 C10 1_555 1_555
C11 O2 1_555 1_555
H3 C11 1_555 1_555
H4 C11 1_555 1_555
C12 Se1 1_555 1_555
H5 C12 1_555 1_555
H6 C12 1_555 1_555
C13 Se2 1_555 1_555
H7 C13 1_555 1_555
H8 C13 1_555 1_555
Se3 C21 1_555 1_555
Se4 C22 1_555 1_555
S8 C14 1_555 1_555
S9 C14 1_555 1_555
S10 C15 1_555 1_555
S11 C15 1_555 1_555
S12 C20 1_555 1_555
S13 C20 1_555 1_555
S14 C17 1_555 1_555
O3 C18 1_555 1_555
O4 C19 1_555 1_555
C14 C15 1_555 1_555
C16 S10 1_555 1_555
C17 S11 1_555 1_555
C18 S8 1_555 1_555
C19 S9 1_555 1_555
C20 C16 1_555 1_555
C21 S12 1_555 1_555
C22 S13 1_555 1_555
C23 O3 1_555 1_555
H9 C23 1_555 1_555
H10 C23 1_555 1_555
C24 O4 1_555 1_555
H11 C24 1_555 1_555
H12 C24 1_555 1_555
C25 Se3 1_555 1_555
H13 C25 1_555 1_555
H14 C25 1_555 1_555
C26 Se4 1_555 1_555
H15 C26 1_555 1_555
H16 C26 1_555 1_555
P1 F1 1_555 1_555
F2 P1 1_555 1_555
F3 P1 1_555 1_555
F4 P1 1_555 1_555
F5 P1 1_555 1_555
F6 P1 1_555 1_555
Cl1 C27 1_555 1_555
C27 C28 1_555 1_555
C28 C29 1_555 1_555
C29 C30 1_555 1_555
C30 C29A 1_555 1_555
C28A C27 1_555 1_555
C29A C28A 1_555 1_555
C3 C4 1_555 1_555
C5 C6 1_555 1_555
C8 C9 1_555 1_555
C10 C11 1_555 1_555
C12 C13 1_555 1_555
C16 C17 1_555 1_555
C18 C19 1_555 1_555
C21 C22 1_555 1_555
C23 C24 1_555 1_555
C25 C26 1_555 1_555

#END
