
#######################################################################
#
#                 Cambridge Crystallographic Data Centre
#                                CCDC 
#
#######################################################################
#
# If this CIF has been generated from an entry in the Cambridge 
# Structural Database, then it will include bibliographic, chemical, 
# crystal, experimental, refinement or atomic coordinate data resulting 
# from the CCDC's data processing and validation procedures.
#
#######################################################################

data_LOYTIE
_chemical_formula_moiety         'C18 H15 N1 O5'
_chemical_name_systematic        
5-(4-methoxybenzylidene)-3-(4-methoxyphenyl)-1,3-oxazolidine-2,4-dione
_symmetry_cell_setting           orthorhombic
_symmetry_space_group_name_H-M   'P b c a'
_symmetry_Int_Tables_number      61
_space_group_name_Hall           '-P 2ac 2ab'
loop_
_symmetry_equiv_pos_site_id
_symmetry_equiv_pos_as_xyz
1 x,y,z
2 1/2-x,-y,1/2+z
3 -x,1/2+y,1/2-z
4 1/2+x,1/2-y,-z
5 -x,-y,-z
6 1/2+x,y,1/2-z
7 x,1/2-y,1/2+z
8 1/2-x,1/2+y,z
_cell_length_a                   12.291(3)
_cell_length_b                   7.4147(15)
_cell_length_c                   34.667(7)
_cell_angle_alpha                90
_cell_angle_beta                 90
_cell_angle_gamma                90
_cell_volume                     3159.35
_exptl_crystal_colour            colorless
_exptl_crystal_description       needle
_cell_formula_units_Z            8
loop_
_atom_site_label
_atom_site_type_symbol
_atom_site_fract_x
_atom_site_fract_y
_atom_site_fract_z
C1 C 0.87349(15) 0.0922(3) 0.16699(5)
C2 C 0.88400(16) 0.0843(3) 0.24673(5)
C3 C 0.79657(16) 0.1833(3) 0.18846(6)
H1 H 0.7418 0.2480 0.1762
C4 C 0.95367(16) -0.0047(3) 0.18520(5)
H2 H 1.0041 -0.0687 0.1706
C5 C 0.80129(17) 0.1782(3) 0.22803(6)
H3 H 0.7487 0.2380 0.2425
C6 C 0.95468(16) 0.1772(3) 0.10290(5)
C7 C 0.96003(16) -0.0078(3) 0.22501(5)
H4 H 1.0154 -0.0718 0.2371
C8 C 0.91346(16) 0.1668(3) 0.06351(5)
C9 C 0.96880(19) 0.0047(3) 0.30628(6)
H5 H 0.9657 -0.1224 0.3011
H6 H 0.9606 0.0251 0.3335
H7 H 1.0377 0.0515 0.2979
N1 N 0.87254(12) 0.1013(2) 0.12545(4)
O1 O 0.88327(12) 0.0937(2) 0.28600(4)
O2 O 1.03957(11) 0.2385(2) 0.11470(4)
O3 O 0.81003(11) 0.0890(2) 0.06511(3)
O4 O 0.70036(12) -0.0116(2) 0.11261(4)
C10 C 0.88053(15) 0.1996(3) -0.08724(5)
C11 C 0.83709(17) 0.1263(3) -0.02176(6)
H8 H 0.7906 0.0725 -0.0040
C12 C 0.81176(17) 0.1190(3) -0.06053(5)
H9 H 0.7490 0.0603 -0.0687
C13 C 0.78496(17) 0.0528(3) 0.10286(5)
C14 C 0.97365(16) 0.2874(3) -0.07485(6)
H10 H 1.0195 0.3425 -0.0926
C15 C 0.93076(16) 0.2126(3) -0.00863(5)
C16 C 0.96395(17) 0.2195(3) 0.03172(5)
H11 H 1.0323 0.2696 0.0358
C17 C 0.99821(17) 0.2928(3) -0.03622(6)
H12 H 1.0612 0.3512 -0.0282
C18 C 0.77767(17) 0.0932(3) -0.14179(6)
H13 H 0.7891 -0.0310 -0.1351
H14 H 0.7765 0.1055 -0.1694
H15 H 0.7095 0.1333 -0.1313
O5 O 0.86415(11) 0.2004(2) -0.12625(4)
loop_
_geom_bond_atom_site_label_1
_geom_bond_atom_site_label_2
_geom_bond_site_symmetry_1
_geom_bond_site_symmetry_2
C1 C3 1_555 1_555
C2 C5 1_555 1_555
C3 H1 1_555 1_555
C4 C1 1_555 1_555
H2 C4 1_555 1_555
C5 C3 1_555 1_555
H3 C5 1_555 1_555
C6 C8 1_555 1_555
C7 C2 1_555 1_555
H4 C7 1_555 1_555
C8 O3 1_555 1_555
C9 H5 1_555 1_555
H6 C9 1_555 1_555
H7 C9 1_555 1_555
N1 C1 1_555 1_555
O1 C2 1_555 1_555
O2 C6 1_555 1_555
O3 C13 1_555 1_555
O4 C13 1_555 1_555
C10 C12 1_555 1_555
C11 H8 1_555 1_555
C12 C11 1_555 1_555
H9 C12 1_555 1_555
C13 N1 1_555 1_555
C14 C10 1_555 1_555
H10 C14 1_555 1_555
C15 C11 1_555 1_555
C16 C8 1_555 1_555
H11 C16 1_555 1_555
C17 C14 1_555 1_555
H12 C17 1_555 1_555
C18 H13 1_555 1_555
H14 C18 1_555 1_555
H15 C18 1_555 1_555
O5 C10 1_555 1_555
C4 C7 1_555 1_555
C6 N1 1_555 1_555
C9 O1 1_555 1_555
C15 C16 1_555 1_555
C15 C17 1_555 1_555
C18 O5 1_555 1_555

#END
