
#######################################################################
#
#                 Cambridge Crystallographic Data Centre
#                                CCDC 
#
#######################################################################
#
# If this CIF has been generated from an entry in the Cambridge 
# Structural Database, then it will include bibliographic, chemical, 
# crystal, experimental, refinement or atomic coordinate data resulting 
# from the CCDC's data processing and validation procedures.
#
#######################################################################

data_LOZCUY
_chemical_formula_moiety         'C12 H14 O2 S5'
_chemical_name_systematic        
'4,9-Diethyl-6,7-dihydro-1,4-dithiino(5,6-f)benzotrithiole 3,5-dioxide'
_symmetry_cell_setting           monoclinic
_symmetry_space_group_name_H-M   'P 21/c'
_symmetry_Int_Tables_number      14
_space_group_name_Hall           '-P 2ybc'
loop_
_symmetry_equiv_pos_site_id
_symmetry_equiv_pos_as_xyz
1 x,y,z
2 x,1/2-y,1/2+z
3 -x,-y,-z
4 -x,1/2+y,1/2-z
_cell_length_a                   8.7569(8)
_cell_length_b                   9.569(2)
_cell_length_c                   18.2457(8)
_cell_angle_alpha                90
_cell_angle_beta                 101.368(5)
_cell_angle_gamma                90
_cell_volume                     1498.9
_exptl_crystal_colour            yellow
_exptl_crystal_description       prismatic
_chemical_melting_point          '180.5-182.5 deg.C'
_cell_formula_units_Z            4
loop_
_atom_site_label
_atom_site_type_symbol
_atom_site_fract_x
_atom_site_fract_y
_atom_site_fract_z
S1 S 0.4995(1) 0.0680(1) 0.58821(6)
S2 S 0.3069(1) 0.1154(2) 0.63556(7)
S3 S 0.4273(1) 0.2042(1) 0.73215(7)
S4 S 1.0067(1) -0.1931(1) 0.75099(6)
S5 S 0.9518(1) 0.0032(1) 0.90116(6)
O1 O 0.5700(6) 0.1937(4) 0.5608(2)
O2 O 0.9586(4) -0.3226(4) 0.7871(2)
C1 C 0.6211(4) 0.0290(4) 0.6769(2)
C2 C 0.5936(5) 0.0988(4) 0.7399(2)
C3 C 0.6977(5) 0.0909(4) 0.8083(2)
C4 C 0.8285(4) 0.0043(4) 0.8121(2)
C5 C 0.8523(4) -0.0700(4) 0.7494(2)
C6 C 0.7495(5) -0.0580(4) 0.6795(2)
C7 C 1.1084(7) -0.1125(7) 0.8952(3)
C8 C 1.1550(5) -0.1100(6) 0.8202(3)
C9 C 0.7755(5) -0.1378(5) 0.6115(2)
C10 C 0.8833(9) -0.0642(8) 0.5688(3)
C11 C 0.6598(6) 0.1648(5) 0.8754(2)
C12 C 0.5646(8) 0.0741(8) 0.9182(3)
H1 H 1.062(9) -0.204(8) 0.911(4)
H2 H 1.206(10) -0.065(8) 0.941(5)
H3 H 1.254(7) -0.159(6) 0.815(3)
H4 H 1.158(8) -0.024(8) 0.791(4)
H5 H 0.807(6) -0.235(6) 0.623(3)
H6 H 0.679(5) -0.153(4) 0.586(2)
H7 H 0.894(7) -0.119(7) 0.532(4)
H8 H 0.836(7) 0.021(7) 0.547(4)
H9 H 0.97(1) -0.029(10) 0.594(5)
H10 H 0.741(6) 0.224(6) 0.901(3)
H11 H 0.602(6) 0.254(5) 0.867(3)
H12 H 0.449(9) 0.054(7) 0.895(4)
H13 H 0.537(9) 0.140(8) 0.955(5)
H14 H 0.614(7) -0.006(6) 0.929(3)
loop_
_geom_bond_atom_site_label_1
_geom_bond_atom_site_label_2
_geom_bond_site_symmetry_1
_geom_bond_site_symmetry_2
S1 S2 1_555 1_555
S2 S3 1_555 1_555
S3 C2 1_555 1_555
S4 O2 1_555 1_555
S5 C4 1_555 1_555
O1 S1 1_555 1_555
C1 S1 1_555 1_555
C2 C1 1_555 1_555
C3 C2 1_555 1_555
C4 C3 1_555 1_555
C5 S4 1_555 1_555
C6 C1 1_555 1_555
C7 S5 1_555 1_555
C8 S4 1_555 1_555
C9 C6 1_555 1_555
C10 C9 1_555 1_555
C11 C3 1_555 1_555
C12 C11 1_555 1_555
H1 C7 1_555 1_555
H2 C7 1_555 1_555
H3 C8 1_555 1_555
H4 C8 1_555 1_555
H5 C9 1_555 1_555
H6 C9 1_555 1_555
H7 C10 1_555 1_555
H8 C10 1_555 1_555
H9 C10 1_555 1_555
H10 C11 1_555 1_555
H11 C11 1_555 1_555
H12 C12 1_555 1_555
H13 C12 1_555 1_555
H14 C12 1_555 1_555
C4 C5 1_555 1_555
C5 C6 1_555 1_555
C7 C8 1_555 1_555

#END
