
#######################################################################
#
#                 Cambridge Crystallographic Data Centre
#                                CCDC 
#
#######################################################################
#
# If this CIF has been generated from an entry in the Cambridge 
# Structural Database, then it will include bibliographic, chemical, 
# crystal, experimental, refinement or atomic coordinate data resulting 
# from the CCDC's data processing and validation procedures.
#
#######################################################################

data_LOZGIS
_chemical_formula_moiety         'C7 H11 N3 O1'
_chemical_name_systematic        3-(3-Methyl-1H-pyrazol-1-yl)propanamide
_symmetry_cell_setting           triclinic
_symmetry_space_group_name_H-M   'P -1'
_symmetry_Int_Tables_number      2
_space_group_name_Hall           '-P 1'
loop_
_symmetry_equiv_pos_site_id
_symmetry_equiv_pos_as_xyz
1 x,y,z
2 -x,-y,-z
_cell_length_a                   7.349(2)
_cell_length_b                   7.9079(15)
_cell_length_c                   8.291(2)
_cell_angle_alpha                107.79(2)
_cell_angle_beta                 96.97(2)
_cell_angle_gamma                116.48(3)
_cell_volume                     391.457
_exptl_crystal_colour            colorless
_exptl_crystal_description       plate
_cell_formula_units_Z            2
loop_
_atom_site_label
_atom_site_type_symbol
_atom_site_fract_x
_atom_site_fract_y
_atom_site_fract_z
O1 O 0.15378(13) 0.76345(12) 0.50010(11)
N1 N 0.32701(16) 1.21102(15) 0.84833(13)
N2 N 0.38123(15) 1.24688(14) 1.02311(13)
N3 N 0.23871(16) 0.65121(15) 0.70203(13)
H1 H 0.335(3) 0.675(3) 0.793(2)
H2 H 0.122(3) 0.528(3) 0.643(2)
C1 C 0.1506(2) 1.22024(19) 0.80047(18)
H3 H 0.0840 1.2014 0.6857
C2 C 0.0855(2) 1.2617(2) 0.9482(2)
H4 H -0.0341 1.2775 0.9569
C3 C 0.23275(18) 1.27599(17) 1.08391(17)
C4 C 0.4621(2) 1.18147(18) 0.74211(16)
H5 H 0.6053 1.3077 0.7928
H6 H 0.4012 1.1612 0.6198
C5 C 0.48434(18) 0.99758(17) 0.73453(15)
H7 H 0.5352 1.0130 0.8572
H8 H 0.5931 0.9965 0.6752
C6 C 0.27643(17) 0.79288(17) 0.63563(14)
C7 C 0.2388(2) 1.3169(2) 1.27357(19)
H9 H 0.3618 1.3177 1.3354
H10 H 0.1074 1.2084 1.2782
H11 H 0.2512 1.4514 1.3314
loop_
_geom_bond_atom_site_label_1
_geom_bond_atom_site_label_2
_geom_bond_site_symmetry_1
_geom_bond_site_symmetry_2
O1 C6 1_555 1_555
N1 N2 1_555 1_555
N2 C3 1_555 1_555
N3 H1 1_555 1_555
H2 N3 1_555 1_555
C1 N1 1_555 1_555
H3 C1 1_555 1_555
C2 C1 1_555 1_555
H4 C2 1_555 1_555
C3 C2 1_555 1_555
C4 N1 1_555 1_555
H5 C4 1_555 1_555
H6 C4 1_555 1_555
C5 C4 1_555 1_555
H7 C5 1_555 1_555
H8 C5 1_555 1_555
C6 N3 1_555 1_555
C7 C3 1_555 1_555
H9 C7 1_555 1_555
H10 C7 1_555 1_555
H11 C7 1_555 1_555
C5 C6 1_555 1_555

#END
