
#######################################################################
#
#                 Cambridge Crystallographic Data Centre
#                                CCDC 
#
#######################################################################
#
# If this CIF has been generated from an entry in the Cambridge 
# Structural Database, then it will include bibliographic, chemical, 
# crystal, experimental, refinement or atomic coordinate data resulting 
# from the CCDC's data processing and validation procedures.
#
#######################################################################

data_LOZGEO
_chemical_formula_moiety         'C7 H11 N3 O1'
_chemical_name_systematic        2-Methyl-3-(1H-pyrazol-1-yl)propanamide
_symmetry_cell_setting           monoclinic
_symmetry_space_group_name_H-M   'P 21/c'
_symmetry_Int_Tables_number      14
_space_group_name_Hall           '-P 2ybc'
loop_
_symmetry_equiv_pos_site_id
_symmetry_equiv_pos_as_xyz
1 x,y,z
2 -x,1/2+y,1/2-z
3 -x,-y,-z
4 x,1/2-y,1/2+z
_cell_length_a                   13.94190(10)
_cell_length_b                   6.349
_cell_length_c                   9.59420(10)
_cell_angle_alpha                90
_cell_angle_beta                 108.1460(10)
_cell_angle_gamma                90
_cell_volume                     807.014
_exptl_crystal_colour            colorless
_exptl_crystal_description       prism
_cell_formula_units_Z            4
loop_
_atom_site_label
_atom_site_type_symbol
_atom_site_fract_x
_atom_site_fract_y
_atom_site_fract_z
O1 O 0.59820(5) 0.16998(11) 0.95999(7)
N1 N 0.83673(5) 0.16888(12) 1.16181(8)
N2 N 0.84995(6) 0.09447(13) 1.29867(8)
N3 N 0.56546(6) 0.13963(13) 1.17534(9)
H1 H 0.5161(10) 0.045(2) 1.1365(14)
H2 H 0.5792(9) 0.183(2) 1.2648(15)
C1 C 0.88373(6) 0.04885(15) 1.08666(10)
H3 H 0.8849 0.0724 0.9894
C2 C 0.92969(7) -0.11419(15) 1.17783(10)
H4 H 0.9687 -0.2257 1.1574
C3 C 0.90598(7) -0.07881(15) 1.30720(10)
H5 H 0.9272 -0.1673 1.3911
C4 C 0.78668(7) 0.37063(14) 1.11623(10)
H6 H 0.7696 0.3841 1.0084
H7 H 0.8340 0.4858 1.1615
C5 C 0.69066(7) 0.39539(14) 1.15900(10)
H8 H 0.7082 0.3876 1.2682
C6 C 0.61463(6) 0.22307(14) 1.09021(9)
C7 C 0.64433(8) 0.61173(16) 1.10657(13)
H9 H 0.5825 0.6298 1.1335
H10 H 0.6282 0.6211 0.9998
H11 H 0.6927 0.7225 1.1530
loop_
_geom_bond_atom_site_label_1
_geom_bond_atom_site_label_2
_geom_bond_site_symmetry_1
_geom_bond_site_symmetry_2
O1 C6 1_555 1_555
N1 N2 1_555 1_555
N2 C3 1_555 1_555
N3 H1 1_555 1_555
H2 N3 1_555 1_555
C1 N1 1_555 1_555
H3 C1 1_555 1_555
C2 C1 1_555 1_555
H4 C2 1_555 1_555
C3 C2 1_555 1_555
H5 C3 1_555 1_555
C4 N1 1_555 1_555
H6 C4 1_555 1_555
H7 C4 1_555 1_555
C5 C4 1_555 1_555
H8 C5 1_555 1_555
C6 N3 1_555 1_555
C7 C5 1_555 1_555
H9 C7 1_555 1_555
H10 C7 1_555 1_555
H11 C7 1_555 1_555
C5 C6 1_555 1_555

#END
