
#######################################################################
#
#                 Cambridge Crystallographic Data Centre
#                                CCDC 
#
#######################################################################
#
# If this CIF has been generated from an entry in the Cambridge 
# Structural Database, then it will include bibliographic, chemical, 
# crystal, experimental, refinement or atomic coordinate data resulting 
# from the CCDC's data processing and validation procedures.
#
#######################################################################

data_LOZXON
_chemical_formula_moiety         'C28 H34 O8'
_chemical_name_systematic        
'1,2:4,5-Di-O-isopropylidene-\b-D-fructopyranos-3-yl 2-(benzyloxy)-3-phenylpropionate'
_symmetry_cell_setting           monoclinic
_symmetry_space_group_name_H-M   'P 21'
_symmetry_Int_Tables_number      4
_space_group_name_Hall           'P 2yb'
loop_
_symmetry_equiv_pos_site_id
_symmetry_equiv_pos_as_xyz
1 x,y,z
2 -x,1/2+y,-z
_cell_length_a                   8.0120(5)
_cell_length_b                   14.1477(8)
_cell_length_c                   11.7213(8)
_cell_angle_alpha                90
_cell_angle_beta                 105.128(5)
_cell_angle_gamma                90
_cell_volume                     1282.58
_exptl_crystal_colour            colorless
_exptl_crystal_description       'thick plate'
_cell_formula_units_Z            2
loop_
_atom_site_label
_atom_site_type_symbol
_atom_site_fract_x
_atom_site_fract_y
_atom_site_fract_z
O1 O 0.1236(2) 0.69894 0.66352(15)
O2 O -0.1279(2) 0.81161(18) 0.42916(16)
O3 O 0.1242(2) 0.84427(17) 0.56429(15)
O4 O 0.4767(2) 0.60708(18) 0.73086(15)
O5 O 0.5889(2) 0.67930(18) 0.59177(15)
O6 O 0.2879(2) 0.75671(17) 0.40870(14)
O7 O 0.2094(2) 0.62140(18) 0.30604(15)
O8 O 0.1964(2) 0.72177(18) 0.09737(14)
C1 C 0.2682(3) 0.7244(3) 0.7592(2)
C2 C 0.4412(3) 0.7065(2) 0.7332(2)
C3 C 0.4496(3) 0.7354(2) 0.6102(2)
C4 C 0.2821(3) 0.7115(2) 0.5184(2)
C5 C 0.1216(3) 0.7447(2) 0.5553(2)
C6 C -0.0536(3) 0.7218(2) 0.4691(2)
C7 C -0.0506(3) 0.8782(2) 0.5182(2)
C8 C -0.0430(4) 0.9724(2) 0.4594(3)
C9 C -0.1419(4) 0.8823(2) 0.6173(3)
C10 C 0.6082(3) 0.5974(2) 0.6684(2)
C11 C 0.7869(3) 0.6000(3) 0.7536(2)
C12 C 0.5730(4) 0.5084(2) 0.5955(3)
C13 C 0.2533(3) 0.7029(2) 0.3096(2)
C14 C 0.2799(3) 0.7620(2) 0.2075(2)
C15 C 0.0095(3) 0.7219(2) 0.0732(2)
C16 C -0.0663(3) 0.8202(2) 0.0531(2)
C17 C -0.0649(4) 0.8692(2) -0.0501(3)
C18 C -0.1323(4) 0.9601(3) -0.0694(3)
C19 C -0.2031(4) 1.0021(2) 0.0137(3)
C20 C -0.2061(3) 0.9547(2) 0.1162(3)
C21 C -0.1369(3) 0.8636(2) 0.1358(2)
C22 C 0.4740(4) 0.7712(2) 0.2130(2)
C23 C 0.5527(3) 0.6790(2) 0.1866(2)
C24 C 0.5735(3) 0.6614(2) 0.0747(2)
C25 C 0.6407(4) 0.5763(3) 0.0477(3)
C26 C 0.6885(4) 0.5078(3) 0.1333(3)
C27 C 0.6697(4) 0.5237(3) 0.2457(3)
C28 C 0.6021(4) 0.6093(2) 0.2725(2)
H1 H 0.259(4) 0.791(2) 0.778(3)
H2 H 0.258(4) 0.686(2) 0.825(3)
H3 H 0.530(4) 0.739(2) 0.794(3)
H4 H 0.475(4) 0.805(2) 0.606(3)
H5 H 0.273(4) 0.641(2) 0.509(2)
H6 H -0.127(4) 0.688(2) 0.510(3)
H7 H -0.045(4) 0.691(2) 0.399(3)
H8 H -0.163(4) 0.992(2) 0.424(3)
H9 H 0.014(4) 1.019(2) 0.522(3)
H10 H 0.014(4) 0.966(2) 0.394(3)
H11 H -0.079(4) 0.931(2) 0.684(3)
H12 H -0.260(5) 0.903(2) 0.586(3)
H13 H -0.149(4) 0.818(3) 0.646(3)
H14 H 0.806(4) 0.545(2) 0.809(3)
H15 H 0.877(4) 0.606(2) 0.708(3)
H16 H 0.798(4) 0.657(3) 0.801(3)
H17 H 0.665(4) 0.504(2) 0.556(3)
H18 H 0.577(4) 0.455(3) 0.644(3)
H19 H 0.459(5) 0.517(2) 0.524(3)
H20 H 0.231(4) 0.823(2) 0.215(3)
H21 H -0.025(4) 0.683(2) -0.005(3)
H22 H -0.026(4) 0.693(2) 0.140(3)
H23 H -0.020(4) 0.841(2) -0.112(3)
H24 H -0.129(4) 0.992(2) -0.139(3)
H25 H -0.252(4) 1.064(3) 0.001(3)
H26 H -0.253(4) 0.980(2) 0.183(3)
H27 H -0.143(4) 0.832(2) 0.203(3)
H28 H 0.530(4) 0.791(2) 0.295(3)
H29 H 0.484(4) 0.818(2) 0.155(3)
H30 H 0.547(4) 0.710(2) 0.018(3)
H31 H 0.652(4) 0.567(2) -0.031(3)
H32 H 0.738(5) 0.448(3) 0.118(3)
H33 H 0.697(4) 0.480(3) 0.304(3)
H34 H 0.597(4) 0.619(2) 0.352(3)
loop_
_geom_bond_atom_site_label_1
_geom_bond_atom_site_label_2
_geom_bond_site_symmetry_1
_geom_bond_site_symmetry_2
O1 C1 1_555 1_555
O2 C6 1_555 1_555
O3 C5 1_555 1_555
O4 C2 1_555 1_555
O5 C3 1_555 1_555
O6 C4 1_555 1_555
O7 C13 1_555 1_555
O8 C14 1_555 1_555
C1 C2 1_555 1_555
C2 C3 1_555 1_555
C3 C4 1_555 1_555
C4 C5 1_555 1_555
C5 O1 1_555 1_555
C6 C5 1_555 1_555
C7 O2 1_555 1_555
C8 C7 1_555 1_555
C9 C7 1_555 1_555
C10 O4 1_555 1_555
C11 C10 1_555 1_555
C12 C10 1_555 1_555
C13 O6 1_555 1_555
C14 C13 1_555 1_555
C15 O8 1_555 1_555
C16 C15 1_555 1_555
C17 C16 1_555 1_555
C18 C17 1_555 1_555
C19 C18 1_555 1_555
C20 C19 1_555 1_555
C21 C16 1_555 1_555
C22 C14 1_555 1_555
C23 C22 1_555 1_555
C24 C23 1_555 1_555
C25 C24 1_555 1_555
C26 C25 1_555 1_555
C27 C26 1_555 1_555
C28 C23 1_555 1_555
H1 C1 1_555 1_555
H2 C1 1_555 1_555
H3 C2 1_555 1_555
H4 C3 1_555 1_555
H5 C4 1_555 1_555
H6 C6 1_555 1_555
H7 C6 1_555 1_555
H8 C8 1_555 1_555
H9 C8 1_555 1_555
H10 C8 1_555 1_555
H11 C9 1_555 1_555
H12 C9 1_555 1_555
H13 C9 1_555 1_555
H14 C11 1_555 1_555
H15 C11 1_555 1_555
H16 C11 1_555 1_555
H17 C12 1_555 1_555
H18 C12 1_555 1_555
H19 C12 1_555 1_555
H20 C14 1_555 1_555
H21 C15 1_555 1_555
H22 C15 1_555 1_555
H23 C17 1_555 1_555
H24 C18 1_555 1_555
H25 C19 1_555 1_555
H26 C20 1_555 1_555
H27 C21 1_555 1_555
H28 C22 1_555 1_555
H29 C22 1_555 1_555
H30 C24 1_555 1_555
H31 C25 1_555 1_555
H32 C26 1_555 1_555
H33 C27 1_555 1_555
H34 C28 1_555 1_555
O3 C7 1_555 1_555
O5 C10 1_555 1_555
C20 C21 1_555 1_555
C27 C28 1_555 1_555

#END
