
#######################################################################
#
#                 Cambridge Crystallographic Data Centre
#                                CCDC 
#
#######################################################################
#
# If this CIF has been generated from an entry in the Cambridge 
# Structural Database, then it will include bibliographic, chemical, 
# crystal, experimental, refinement or atomic coordinate data resulting 
# from the CCDC's data processing and validation procedures.
#
#######################################################################

data_LOZZAB
_chemical_formula_moiety         'C23 H42 N4 O7'
_chemical_name_systematic        
'Methyl t-butoxycarbonyl-alanyl-\a-aminoisobutyryl-leucyl-\a-aminoisobutyrate'
_symmetry_cell_setting           orthorhombic
_symmetry_space_group_name_H-M   'P 21 21 21'
_symmetry_Int_Tables_number      19
_space_group_name_Hall           'P 2ac 2ab'
loop_
_symmetry_equiv_pos_site_id
_symmetry_equiv_pos_as_xyz
1 x,y,z
2 -x,1/2+y,1/2-z
3 1/2+x,1/2-y,-z
4 1/2-x,-y,1/2+z
_cell_length_a                   9.359(14)
_cell_length_b                   16.86(2)
_cell_length_c                   17.79(3)
_cell_angle_alpha                90
_cell_angle_beta                 90
_cell_angle_gamma                90
_cell_volume                     2807.13
_cell_formula_units_Z            4
_exptl_crystal_recrystallization_method 'ethyl acetate'
loop_
_atom_site_label
_atom_site_type_symbol
_atom_site_fract_x
_atom_site_fract_y
_atom_site_fract_z
C1 C 0.4057(8) 0.4155(5) 0.4762(5)
H1 H 0.4305 0.3932 0.5241
H2 H 0.4678 0.3943 0.4382
H3 H 0.3085 0.4023 0.4643
C2 C 0.3176(9) 0.5401(6) 0.5357(3)
H4 H 0.2233 0.5198 0.5266
H5 H 0.3170 0.5968 0.5303
H6 H 0.3468 0.5264 0.5858
C3 C 0.5736(8) 0.5311(6) 0.4948(4)
H7 H 0.5988 0.5179 0.5456
H8 H 0.5800 0.5874 0.4879
H9 H 0.6379 0.5051 0.4607
C4 C 0.4220(7) 0.5040(5) 0.4791(4)
O1 O 0.3726(4) 0.5406(3) 0.4063(2)
C5 C 0.4425(7) 0.5213(5) 0.3411(4)
N1 N 0.4166(6) 0.5776(4) 0.2874(3)
H10 H 0.3754 0.6215 0.2990
O2 O 0.5200(5) 0.4651(4) 0.3318(3)
C6 C 0.4604(7) 0.5619(5) 0.2097(3)
H11 H 0.4232 0.5096 0.1958
C7 C 0.3960(8) 0.6219(7) 0.1561(4)
H12 H 0.4252 0.6098 0.1057
H13 H 0.4284 0.6741 0.1693
H14 H 0.2937 0.6198 0.1595
C8 C 0.6232(7) 0.5597(5) 0.2000(3)
O3 O 0.6727(5) 0.5288(3) 0.1416(2)
N2 N 0.7075(5) 0.5885(4) 0.2544(3)
H15 H 0.6682 0.6134 0.2911
C9 C 0.8658(7) 0.5796(5) 0.2542(4)
C10 C 0.9196(8) 0.6037(6) 0.3322(4)
H16 H 0.8720 0.5726 0.3698
H17 H 0.8999 0.6589 0.3405
H18 H 1.0208 0.5948 0.3351
C11 C 0.9347(8) 0.6319(6) 0.1932(4)
H19 H 1.0367 0.6268 0.1956
H20 H 0.9084 0.6863 0.2013
H21 H 0.9018 0.6152 0.1446
C12 C 0.9040(7) 0.4916(5) 0.2437(4)
O4 O 1.0220(5) 0.4731(4) 0.2174(3)
N3 N 0.8098(5) 0.4371(4) 0.2695(3)
H22 H 0.7286 0.4535 0.2860
C13 C 0.7961(7) 0.3172(5) 0.3486(3)
H23 H 0.6930 0.3197 0.3533
H24 H 0.8229 0.2616 0.3494
C14 C 0.8625(8) 0.3576(6) 0.4175(3)
H25 H 0.8278 0.4125 0.4183
C15 C 0.8104(10) 0.3182(7) 0.4886(4)
H26 H 0.8311 0.3516 0.5309
H27 H 0.8578 0.2681 0.4948
H28 H 0.7091 0.3098 0.4854
C16 C 1.0202(9) 0.3609(10) 0.4132(5)
H29 H 1.0481 0.3911 0.3699
H30 H 1.0576 0.3081 0.4091
H31 H 1.0572 0.3856 0.4577
C17 C 0.8382(6) 0.3520(5) 0.2708(3)
H32 H 0.9407 0.3434 0.2629
C18 C 0.7557(6) 0.3085(5) 0.2093(4)
N4 N 0.7050(5) 0.3496(4) 0.1507(2)
H33 H 0.7298 0.3984 0.1451
O5 O 0.7377(5) 0.2358(4) 0.2153(2)
C19 C 0.6068(7) 0.3129(5) 0.0951(3)
C20 C 0.5536(8) 0.3799(6) 0.0432(4)
H34 H 0.6307 0.3976 0.0117
H35 H 0.5199 0.4234 0.0731
H36 H 0.4771 0.3605 0.0123
C21 C 0.6753(8) 0.2487(6) 0.0485(4)
H37 H 0.6045 0.2246 0.0168
H38 H 0.7158 0.2093 0.0810
H39 H 0.7493 0.2713 0.0178
O6 O 0.4121(5) 0.2222(4) 0.1234(3)
C22 C 0.4742(8) 0.2823(5) 0.1369(4)
O7 O 0.4324(6) 0.3352(4) 0.1890(3)
C23 C 0.3001(9) 0.3187(8) 0.2306(6)
H40 H 0.3223 0.2896 0.2755
H41 H 0.2368 0.2879 0.1997
H42 H 0.2547 0.3678 0.2439
loop_
_geom_bond_atom_site_label_1
_geom_bond_atom_site_label_2
_geom_bond_site_symmetry_1
_geom_bond_site_symmetry_2
C1 H1 1_555 1_555
H2 C1 1_555 1_555
H3 C1 1_555 1_555
C2 H4 1_555 1_555
H5 C2 1_555 1_555
H6 C2 1_555 1_555
C3 H7 1_555 1_555
H8 C3 1_555 1_555
H9 C3 1_555 1_555
C4 C1 1_555 1_555
O1 C4 1_555 1_555
C5 O1 1_555 1_555
N1 C5 1_555 1_555
H10 N1 1_555 1_555
O2 C5 1_555 1_555
C6 N1 1_555 1_555
H11 C6 1_555 1_555
C7 C6 1_555 1_555
H12 C7 1_555 1_555
H13 C7 1_555 1_555
H14 C7 1_555 1_555
C8 C6 1_555 1_555
O3 C8 1_555 1_555
N2 C8 1_555 1_555
H15 N2 1_555 1_555
C9 N2 1_555 1_555
C10 C9 1_555 1_555
H16 C10 1_555 1_555
H17 C10 1_555 1_555
H18 C10 1_555 1_555
C11 C9 1_555 1_555
H19 C11 1_555 1_555
H20 C11 1_555 1_555
H21 C11 1_555 1_555
C12 C9 1_555 1_555
O4 C12 1_555 1_555
N3 C12 1_555 1_555
H22 N3 1_555 1_555
C13 H23 1_555 1_555
H24 C13 1_555 1_555
C14 C13 1_555 1_555
H25 C14 1_555 1_555
C15 C14 1_555 1_555
H26 C15 1_555 1_555
H27 C15 1_555 1_555
H28 C15 1_555 1_555
C16 C14 1_555 1_555
H29 C16 1_555 1_555
H30 C16 1_555 1_555
H31 C16 1_555 1_555
C17 N3 1_555 1_555
H32 C17 1_555 1_555
C18 C17 1_555 1_555
N4 C18 1_555 1_555
H33 N4 1_555 1_555
O5 C18 1_555 1_555
C19 N4 1_555 1_555
C20 C19 1_555 1_555
H34 C20 1_555 1_555
H35 C20 1_555 1_555
H36 C20 1_555 1_555
C21 C19 1_555 1_555
H37 C21 1_555 1_555
H38 C21 1_555 1_555
H39 C21 1_555 1_555
O6 C22 1_555 1_555
C22 C19 1_555 1_555
O7 C22 1_555 1_555
C23 O7 1_555 1_555
H40 C23 1_555 1_555
H41 C23 1_555 1_555
H42 C23 1_555 1_555
C2 C4 1_555 1_555
C3 C4 1_555 1_555
C13 C17 1_555 1_555

#END
