
#######################################################################
#
#                 Cambridge Crystallographic Data Centre
#                                CCDC 
#
#######################################################################
#
# If this CIF has been generated from an entry in the Cambridge 
# Structural Database, then it will include bibliographic, chemical, 
# crystal, experimental, refinement or atomic coordinate data resulting 
# from the CCDC's data processing and validation procedures.
#
#######################################################################

data_LPYGLU08
_chemical_name_common            5-oxoproline
_chemical_formula_moiety         'C5 H7 N1 O3'
_chemical_name_systematic        'L-pyroglutamic acid'
_symmetry_cell_setting           orthorhombic
_symmetry_space_group_name_H-M   'P 21 21 21'
_symmetry_Int_Tables_number      19
_space_group_name_Hall           'P 2ac 2ab'
loop_
_symmetry_equiv_pos_site_id
_symmetry_equiv_pos_as_xyz
1 x,y,z
2 1/2-x,-y,1/2+z
3 1/2+x,1/2-y,-z
4 -x,1/2+y,1/2-z
_cell_length_a                   4.4135(7)
_cell_length_b                   9.1662(14)
_cell_length_c                   14.753(2)
_cell_angle_alpha                90
_cell_angle_beta                 90
_cell_angle_gamma                90
_cell_volume                     596.833
_exptl_crystal_colour            colorless
_exptl_crystal_description       rod
_cell_formula_units_Z            4
loop_
_atom_site_label
_atom_site_type_symbol
_atom_site_fract_x
_atom_site_fract_y
_atom_site_fract_z
O1 O 1.0479(7) 0.5697(4) 1.08205(16)
H1 H 0.9829 0.5668 1.1341
O2 O 0.6192(7) 0.3671(3) 0.74321(14)
O3 O 0.7300(10) 0.3875(3) 1.06189(16)
C1 C 0.8893(9) 0.5829(3) 0.79548(19)
H2 H 0.7337 0.6506 0.7758
H3 H 1.0579 0.5875 0.7534
C2 C 0.9918(10) 0.6175(4) 0.8906(2)
H4 H 0.8419 0.6763 0.9219
H5 H 1.1827 0.6699 0.8899
C3 C 1.0283(7) 0.4692(3) 0.93685(17)
H6 H 1.2413 0.4392 0.9349
C4 C 0.9173(7) 0.4692(3) 1.03393(18)
C5 C 0.7673(7) 0.4321(3) 0.80128(15)
N1 N 0.8515(8) 0.3754(2) 0.88011(14)
H7 H 0.8032 0.2883 0.8960
loop_
_geom_bond_atom_site_label_1
_geom_bond_atom_site_label_2
_geom_bond_site_symmetry_1
_geom_bond_site_symmetry_2
O1 H1 1_555 1_555
O2 C5 1_555 1_555
O3 C4 1_555 1_555
C1 H2 1_555 1_555
H3 C1 1_555 1_555
C2 C1 1_555 1_555
H4 C2 1_555 1_555
H5 C2 1_555 1_555
C3 C2 1_555 1_555
H6 C3 1_555 1_555
C4 O1 1_555 1_555
C5 C1 1_555 1_555
N1 C3 1_555 1_555
H7 N1 1_555 1_555
C3 C4 1_555 1_555
C5 N1 1_555 1_555

#END
