
#######################################################################
#
#                 Cambridge Crystallographic Data Centre
#                                CCDC 
#
#######################################################################
#
# If this CIF has been generated from an entry in the Cambridge 
# Structural Database, then it will include bibliographic, chemical, 
# crystal, experimental, refinement or atomic coordinate data resulting 
# from the CCDC's data processing and validation procedures.
#
#######################################################################

data_LPYGLU06
_chemical_name_common            5-oxoproline
_chemical_formula_moiety         'C5 H7 N1 O3'
_chemical_name_systematic        'L-pyroglutamic acid'
_symmetry_cell_setting           orthorhombic
_symmetry_space_group_name_H-M   'P 21 21 21'
_symmetry_Int_Tables_number      19
_space_group_name_Hall           'P 2ac 2ab'
loop_
_symmetry_equiv_pos_site_id
_symmetry_equiv_pos_as_xyz
1 x,y,z
2 1/2-x,-y,1/2+z
3 1/2+x,1/2-y,-z
4 -x,1/2+y,1/2-z
_cell_length_a                   9.024(5)
_cell_length_b                   13.453(8)
_cell_length_c                   14.672(8)
_cell_angle_alpha                90
_cell_angle_beta                 90
_cell_angle_gamma                90
_cell_volume                     1781.18
_exptl_crystal_colour            colorless
_exptl_crystal_description       rod
_cell_formula_units_Z            12
loop_
_atom_site_label
_atom_site_type_symbol
_atom_site_fract_x
_atom_site_fract_y
_atom_site_fract_z
C1 C 0.7619(3) 0.40435(18) 0.29441(14)
C2 C 0.7557(3) 0.43508(17) 0.19485(14)
H1 H 0.7748 0.5066 0.1899
C3 C 0.6077(3) 0.4101(3) 0.14742(17)
H2 H 0.5582 0.3553 0.1777
H3 H 0.5422 0.4673 0.1470
C4 C 0.6534(3) 0.3816(2) 0.05084(15)
H4 H 0.5931 0.3272 0.0282
H5 H 0.6441 0.4377 0.0098
C5 C 0.8126(3) 0.35038(18) 0.06008(14)
N1 N 0.8628(2) 0.38159(19) 0.14096(13)
H6 H 0.9518 0.3706 0.1593
O1 O 0.6409(2) 0.43051(17) 0.33802(12)
H7 H 0.6471 0.4132 0.3915
O2 O 0.8670(2) 0.36449(17) 0.32882(12)
O3 O 0.8874(2) 0.30471(18) 0.00385(12)
C6 C 0.7771(3) 0.71029(18) 0.29168(14)
C7 C 0.7794(3) 0.75215(18) 0.19632(16)
H8 H 0.8011 0.8235 0.1984
C8 C 0.6318(4) 0.7345(3) 0.1461(2)
H9 H 0.5724 0.6856 0.1781
H10 H 0.5757 0.7959 0.1419
C9 C 0.6727(3) 0.6974(2) 0.05238(18)
H11 H 0.6138 0.6398 0.0361
H12 H 0.6576 0.7488 0.0070
C10 C 0.8330(3) 0.67069(18) 0.05941(14)
N2 N 0.8857(2) 0.70247(18) 0.13894(13)
H13 H 0.9766 0.6940 0.1549
O4 O 0.6766(3) 0.75315(17) 0.34218(14)
H14 H 0.6777 0.7286 0.3933
O5 O 0.8534(3) 0.6411(2) 0.31683(14)
O6 O 0.9081(2) 0.62626(19) 0.00192(12)
C11 C 0.8031(2) 0.05119(18) 0.26413(14)
C12 C 0.8111(2) 0.07847(17) 0.16433(14)
H15 H 0.8694 0.1394 0.1570
C13 C 0.6578(3) 0.0922(2) 0.12029(17)
H16 H 0.5828 0.0545 0.1528
H17 H 0.6294 0.1617 0.1195
C14 C 0.6783(3) 0.05237(19) 0.02347(15)
H18 H 0.5906 0.0170 0.0032
H19 H 0.6990 0.1060 -0.0189
C15 C 0.8079(2) -0.01645(18) 0.03107(14)
N3 N 0.8762(2) -0.00039(18) 0.11035(12)
H20 H 0.9522 -0.0339 0.1279
O7 O 0.7435(3) 0.12215(16) 0.31302(13)
H21 H 0.7408 0.1051 0.3666
O8 O 0.8472(3) -0.02643(16) 0.29524(13)
O9 O 0.8479(2) -0.07954(16) -0.02562(12)
loop_
_geom_bond_atom_site_label_1
_geom_bond_atom_site_label_2
_geom_bond_site_symmetry_1
_geom_bond_site_symmetry_2
C1 C2 1_555 1_555
C2 H1 1_555 1_555
C3 C2 1_555 1_555
H2 C3 1_555 1_555
H3 C3 1_555 1_555
C4 C3 1_555 1_555
H4 C4 1_555 1_555
H5 C4 1_555 1_555
C5 C4 1_555 1_555
N1 C2 1_555 1_555
H6 N1 1_555 1_555
O1 C1 1_555 1_555
H7 O1 1_555 1_555
O2 C1 1_555 1_555
O3 C5 1_555 1_555
C6 C7 1_555 1_555
C7 H8 1_555 1_555
C8 C7 1_555 1_555
H9 C8 1_555 1_555
H10 C8 1_555 1_555
C9 C8 1_555 1_555
H11 C9 1_555 1_555
H12 C9 1_555 1_555
C10 C9 1_555 1_555
N2 C7 1_555 1_555
H13 N2 1_555 1_555
O4 C6 1_555 1_555
H14 O4 1_555 1_555
O5 C6 1_555 1_555
O6 C10 1_555 1_555
C11 C12 1_555 1_555
C12 H15 1_555 1_555
C13 C12 1_555 1_555
H16 C13 1_555 1_555
H17 C13 1_555 1_555
C14 C13 1_555 1_555
H18 C14 1_555 1_555
H19 C14 1_555 1_555
C15 C14 1_555 1_555
N3 C12 1_555 1_555
H20 N3 1_555 1_555
O7 C11 1_555 1_555
H21 O7 1_555 1_555
O8 C11 1_555 1_555
O9 C15 1_555 1_555
C5 N1 1_555 1_555
C10 N2 1_555 1_555
C15 N3 1_555 1_555

#END
