
#######################################################################
#
#                 Cambridge Crystallographic Data Centre
#                                CCDC 
#
#######################################################################
#
# If this CIF has been generated from an entry in the Cambridge 
# Structural Database, then it will include bibliographic, chemical, 
# crystal, experimental, refinement or atomic coordinate data resulting 
# from the CCDC's data processing and validation procedures.
#
#######################################################################

data_LPYGLU07
_chemical_name_common            5-oxoproline
_chemical_formula_moiety         'C5 H7 N1 O3'
_chemical_name_systematic        'L-pyroglutamic acid'
_symmetry_cell_setting           orthorhombic
_symmetry_space_group_name_H-M   'P 21 21 21'
_symmetry_Int_Tables_number      19
_space_group_name_Hall           'P 2ac 2ab'
loop_
_symmetry_equiv_pos_site_id
_symmetry_equiv_pos_as_xyz
1 x,y,z
2 1/2-x,-y,1/2+z
3 1/2+x,1/2-y,-z
4 -x,1/2+y,1/2-z
_cell_length_a                   9.0390(10)
_cell_length_b                   13.4680(10)
_cell_length_c                   14.6700(10)
_cell_angle_alpha                90
_cell_angle_beta                 90
_cell_angle_gamma                90
_cell_volume                     1785.89
_exptl_crystal_colour            colorless
_exptl_crystal_description       block
_cell_formula_units_Z            12
loop_
_atom_site_label
_atom_site_type_symbol
_atom_site_fract_x
_atom_site_fract_y
_atom_site_fract_z
O1 O 0.6442(3) 0.5701(2) 0.16270(17)
H1 H 0.6507 0.5877 0.1093
O2 O 0.8863(3) 0.6954(2) 0.49755(17)
O3 O 0.8667(3) 0.6380(2) 0.17289(17)
N1 N 0.8627(3) 0.6196(3) 0.36068(18)
H2 H 0.9518 0.6307 0.3428
C1 C 0.7570(4) 0.5661(2) 0.3060(2)
C2 C 0.7634(4) 0.5972(2) 0.2070(2)
C3 C 0.8119(4) 0.6505(2) 0.4409(2)
C4 C 0.6540(4) 0.6189(3) 0.4491(2)
H3 H 0.5931 0.6730 0.4713
H4 H 0.6445 0.5630 0.4903
C5 C 0.6094(4) 0.5898(3) 0.3531(2)
H5 H 0.5590 0.6441 0.3227
H6 H 0.5451 0.5322 0.3537
H7 H 0.782(4) 0.500(3) 0.305(2)
O4 O 0.5950(3) 0.6260(2) 0.99877(17)
N2 N 0.6155(3) 0.7023(3) 0.86222(18)
H8 H 0.5249 0.6930 0.8464
O5 O 0.8216(4) 0.7538(2) 0.6590(2)
H9 H 0.8210 0.7288 0.6081
O6 O 0.6450(4) 0.6434(3) 0.6840(2)
C6 C 0.7223(4) 0.7113(3) 0.7092(2)
C7 C 0.6687(4) 0.6707(3) 0.9412(2)
C8 C 0.7199(5) 0.7532(3) 0.8048(2)
H10 H 0.6969 0.8242 0.8029
C9 C 0.8270(4) 0.6992(3) 0.9478(2)
H11 H 0.8873 0.6423 0.9643
H12 H 0.8409 0.7508 0.9931
C10 C 0.8671(5) 0.7364(4) 0.8545(3)
H13 H 0.9268 0.6878 0.8224
H14 H 0.9225 0.7979 0.8587
O7 O 0.1481(3) 0.5758(2) -0.02368(16)
N3 N 0.1240(3) 0.4970(2) 0.11263(17)
H15 H 0.0466 0.5289 0.1299
O8 O 0.1516(3) 0.5249(2) 0.29697(17)
O9 O 0.2636(4) 0.3807(2) 0.31503(19)
H16 H 0.2664 0.3986 0.3684
C11 C 0.1919(4) 0.4205(3) 0.1670(2)
C12 C 0.1910(4) 0.5143(2) 0.0333(2)
C13 C 0.2000(4) 0.4487(3) 0.2664(2)
C14 C 0.3221(4) 0.4487(3) 0.0262(2)
H17 H 0.4082 0.4858 0.0063
H18 H 0.3042 0.3949 -0.0163
C15 C 0.3439(4) 0.4091(3) 0.1225(2)
H19 H 0.4180 0.4474 0.1549
H20 H 0.3742 0.3400 0.1214
H21 H 0.147(5) 0.361(3) 0.161(3)
loop_
_geom_bond_atom_site_label_1
_geom_bond_atom_site_label_2
_geom_bond_site_symmetry_1
_geom_bond_site_symmetry_2
O1 H1 1_555 1_555
O2 C3 1_555 1_555
O3 C2 1_555 1_555
N1 H2 1_555 1_555
C1 N1 1_555 1_555
C2 O1 1_555 1_555
C3 N1 1_555 1_555
C4 C3 1_555 1_555
H3 C4 1_555 1_555
H4 C4 1_555 1_555
C5 C1 1_555 1_555
H5 C5 1_555 1_555
H6 C5 1_555 1_555
H7 C1 1_555 1_555
O4 C7 1_555 1_555
N2 H8 1_555 1_555
O5 H9 1_555 1_555
O6 C6 1_555 1_555
C6 O5 1_555 1_555
C7 N2 1_555 1_555
C8 N2 1_555 1_555
H10 C8 1_555 1_555
C9 C7 1_555 1_555
H11 C9 1_555 1_555
H12 C9 1_555 1_555
C10 C8 1_555 1_555
H13 C10 1_555 1_555
H14 C10 1_555 1_555
O7 C12 1_555 1_555
N3 H15 1_555 1_555
O8 C13 1_555 1_555
O9 H16 1_555 1_555
C11 N3 1_555 1_555
C12 N3 1_555 1_555
C13 O9 1_555 1_555
C14 C12 1_555 1_555
H17 C14 1_555 1_555
H18 C14 1_555 1_555
C15 C11 1_555 1_555
H19 C15 1_555 1_555
H20 C15 1_555 1_555
H21 C11 1_555 1_555
C1 C2 1_555 1_555
C4 C5 1_555 1_555
C6 C8 1_555 1_555
C9 C10 1_555 1_555
C11 C13 1_555 1_555
C14 C15 1_555 1_555

#END
