
#######################################################################
#
#                 Cambridge Crystallographic Data Centre
#                                CCDC 
#
#######################################################################
#
# If this CIF has been generated from an entry in the Cambridge 
# Structural Database, then it will include bibliographic, chemical, 
# crystal, experimental, refinement or atomic coordinate data resulting 
# from the CCDC's data processing and validation procedures.
#
#######################################################################

data_LPYGLU03
_chemical_name_common            5-oxoproline
_chemical_formula_moiety         'C5 H7 N1 O3'
_chemical_name_systematic        'L-pyroglutamic acid'
_symmetry_cell_setting           orthorhombic
_symmetry_space_group_name_H-M   'P 21 21 21'
_symmetry_Int_Tables_number      19
_space_group_name_Hall           'P 2ac 2ab'
loop_
_symmetry_equiv_pos_site_id
_symmetry_equiv_pos_as_xyz
1 x,y,z
2 1/2-x,-y,1/2+z
3 1/2+x,1/2-y,-z
4 -x,1/2+y,1/2-z
_cell_length_a                   8.95790(10)
_cell_length_b                   13.2324(2)
_cell_length_c                   14.6009(2)
_cell_angle_alpha                90
_cell_angle_beta                 90
_cell_angle_gamma                90
_cell_volume                     1730.71
_exptl_crystal_colour            colorless
_exptl_crystal_description       rod
_cell_formula_units_Z            12
loop_
_atom_site_label
_atom_site_type_symbol
_atom_site_fract_x
_atom_site_fract_y
_atom_site_fract_z
O1 O 0.82359(17) 0.24401(9) 0.34473(8)
H1 H 0.8227 0.2687 0.3977
O2 O 0.58576(14) 0.37411(10) 0.00241(7)
O3 O 0.64756(16) 0.36114(10) 0.31951(8)
N1 N 0.61249(15) 0.29680(10) 0.14038(8)
H2 H 0.5187 0.3040 0.1572
C1 C 0.72455(17) 0.29050(11) 0.29386(9)
C2 C 0.7228(2) 0.24843(11) 0.19782(10)
H3 H 0.7048 0.1739 0.1996
C3 C 0.66380(17) 0.32969(10) 0.05998(9)
C4 C 0.82638(18) 0.30453(13) 0.05221(10)
H4 H 0.8845 0.3645 0.0328
H5 H 0.8424 0.2495 0.0073
C5 C 0.8723(2) 0.27104(19) 0.14791(12)
H6 H 0.9281 0.3253 0.1797
H7 H 0.9356 0.2098 0.1451
O4 O 0.24745(16) 0.62851(9) 0.68886(7)
H8 H 0.2502 0.6117 0.6334
O5 O 0.15727(14) 0.41533(9) 1.02796(7)
O6 O 0.15349(15) 0.47284(9) 0.70613(7)
N2 N 0.12357(15) 0.49679(10) 0.89203(7)
H9 H 0.0469 0.4604 0.8738
C6 C 0.32144(17) 0.55472(11) 0.97961(9)
H10 H 0.4136 0.5206 1.0007
H11 H 0.2966 0.6099 1.0228
C7 C 0.33995(17) 0.59515(11) 0.88191(10)
H12 H 0.4172 0.5567 0.8482
H13 H 0.3676 0.6676 0.8824
C8 C 0.18474(16) 0.57953(10) 0.83868(9)
H14 H 0.1226 0.6415 0.8475
C9 C 0.19244(16) 0.55309(10) 0.73798(9)
C10 C 0.19428(16) 0.48089(10) 0.97145(9)
O7 O 0.89133(13) 0.30369(10) 0.50590(7)
O8 O 0.63627(14) 0.43341(10) 0.83930(7)
H15 H 0.6424 0.4158 0.8944
O9 O 0.86706(13) 0.36833(9) 0.83166(7)
N3 N 0.86472(14) 0.38379(11) 0.64318(8)
H16 H 0.9563 0.3728 0.6627
C11 C 0.81497(17) 0.35123(10) 0.56192(9)
C12 C 0.75474(17) 0.43865(11) 0.69627(9)
H17 H 0.7744 0.5128 0.6908
C13 C 0.75965(16) 0.40861(10) 0.79634(9)
C14 C 0.65454(17) 0.38359(12) 0.55051(9)
H18 H 0.5927 0.3274 0.5267
H19 H 0.6466 0.4418 0.5082
C15 C 0.60641(17) 0.41310(14) 0.64777(10)
H20 H 0.5550 0.3563 0.6786
H21 H 0.5391 0.4724 0.6467
loop_
_geom_bond_atom_site_label_1
_geom_bond_atom_site_label_2
_geom_bond_site_symmetry_1
_geom_bond_site_symmetry_2
O1 H1 1_555 1_555
O2 C3 1_555 1_555
O3 C1 1_555 1_555
N1 H2 1_555 1_555
C1 O1 1_555 1_555
C2 N1 1_555 1_555
H3 C2 1_555 1_555
C3 N1 1_555 1_555
C4 C3 1_555 1_555
H4 C4 1_555 1_555
H5 C4 1_555 1_555
C5 C2 1_555 1_555
H6 C5 1_555 1_555
H7 C5 1_555 1_555
O4 H8 1_555 1_555
O5 C10 1_555 1_555
O6 C9 1_555 1_555
N2 H9 1_555 1_555
C6 H10 1_555 1_555
H11 C6 1_555 1_555
C7 C6 1_555 1_555
H12 C7 1_555 1_555
H13 C7 1_555 1_555
C8 N2 1_555 1_555
H14 C8 1_555 1_555
C9 O4 1_555 1_555
C10 N2 1_555 1_555
O7 C11 1_555 1_555
O8 H15 1_555 1_555
O9 C13 1_555 1_555
N3 H16 1_555 1_555
C11 N3 1_555 1_555
C12 N3 1_555 1_555
H17 C12 1_555 1_555
C13 O8 1_555 1_555
C14 C11 1_555 1_555
H18 C14 1_555 1_555
H19 C14 1_555 1_555
C15 C12 1_555 1_555
H20 C15 1_555 1_555
H21 C15 1_555 1_555
C1 C2 1_555 1_555
C4 C5 1_555 1_555
C6 C10 1_555 1_555
C7 C8 1_555 1_555
C8 C9 1_555 1_555
C12 C13 1_555 1_555
C14 C15 1_555 1_555

#END
