
#######################################################################
#
#                 Cambridge Crystallographic Data Centre
#                                CCDC 
#
#######################################################################
#
# If this CIF has been generated from an entry in the Cambridge 
# Structural Database, then it will include bibliographic, chemical, 
# crystal, experimental, refinement or atomic coordinate data resulting 
# from the CCDC's data processing and validation procedures.
#
#######################################################################

data_LPYGLU01
_chemical_name_common            5-oxoproline
_chemical_formula_moiety         'C5 H7 N1 O3'
_chemical_name_systematic        'pyroglutamic acid'
_symmetry_cell_setting           orthorhombic
_symmetry_space_group_name_H-M   'P 21 21 21'
_symmetry_Int_Tables_number      19
_space_group_name_Hall           'P 2ac 2ab'
loop_
_symmetry_equiv_pos_site_id
_symmetry_equiv_pos_as_xyz
1 x,y,z
2 1/2-x,-y,1/2+z
3 1/2+x,1/2-y,-z
4 -x,1/2+y,1/2-z
_cell_length_a                   9.0379(9)
_cell_length_b                   13.4729(14)
_cell_length_c                   14.6797(13)
_cell_angle_alpha                90
_cell_angle_beta                 90
_cell_angle_gamma                90
_cell_volume                     1787.5
_exptl_crystal_colour            colorless
_exptl_crystal_description       rod
_cell_formula_units_Z            12
loop_
_atom_site_label
_atom_site_type_symbol
_atom_site_fract_x
_atom_site_fract_y
_atom_site_fract_z
O1 O 0.3551(3) 0.43011(19) 0.66275(16)
H1 H 0.3482 0.4122 0.6095
N1 N 0.1373(3) 0.3803(2) 0.86077(17)
H2 H 0.0481 0.3693 0.8431
C1 C 0.2369(4) 0.4029(2) 0.7074(2)
O2 O 0.1337(3) 0.3613(2) 0.67323(16)
C2 C 0.2430(3) 0.4338(2) 0.8058(2)
H3 H 0.2231 0.5051 0.8104
O3 O 0.1145(3) 0.3043(2) 0.99771(17)
C3 C 0.3897(4) 0.4104(3) 0.8532(2)
H4 H 0.4406 0.3563 0.8228
H5 H 0.4537 0.4681 0.8540
C4 C 0.3454(4) 0.3811(3) 0.9488(2)
H6 H 0.4066 0.3271 0.9708
H7 H 0.3547 0.4369 0.9901
C5 C 0.1886(4) 0.3494(2) 0.9409(2)
N2 N 0.1160(3) 0.7022(2) 0.86226(17)
H8 H 0.0254 0.6928 0.8466
O4 O 0.3213(4) 0.75368(19) 0.65913(17)
H9 H 0.3185 0.7291 0.6081
O5 O 0.1450(3) 0.6447(3) 0.68411(18)
O6 O 0.0955(3) 0.6261(2) 0.99895(16)
C6 C 0.2225(4) 0.7123(3) 0.7100(2)
C7 C 0.2202(4) 0.7530(2) 0.8046(2)
H10 H 0.1968 0.8240 0.8029
C8 C 0.3662(5) 0.7370(4) 0.8545(2)
H11 H 0.4270 0.6891 0.8224
H12 H 0.4205 0.7989 0.8593
C9 C 0.3261(4) 0.6986(3) 0.9480(2)
H13 H 0.3862 0.6415 0.9638
H14 H 0.3404 0.7497 0.9937
C10 C 0.1696(4) 0.6710(3) 0.9413(2)
N3 N 0.8761(3) 0.5032(2) 0.61271(17)
H15 H 0.9537 0.4714 0.6299
O7 O 0.8487(3) 0.4758(2) 0.79691(16)
O8 O 0.7350(4) 0.61882(19) 0.81482(17)
H16 H 0.7328 0.6010 0.8682
O9 O 0.8517(3) 0.4246(2) 0.47652(15)
C11 C 0.7997(4) 0.5517(3) 0.7664(2)
C12 C 0.8073(4) 0.5800(2) 0.6672(2)
H17 H 0.8626 0.6421 0.6605
C13 C 0.6560(4) 0.5905(3) 0.6231(2)
H18 H 0.6248 0.6594 0.6221
H19 H 0.5825 0.5517 0.6554
C14 C 0.6781(4) 0.5513(3) 0.5267(2)
H20 H 0.5920 0.5145 0.5065
H21 H 0.6962 0.6053 0.4844
C15 C 0.8086(4) 0.4859(3) 0.5336(2)
loop_
_geom_bond_atom_site_label_1
_geom_bond_atom_site_label_2
_geom_bond_site_symmetry_1
_geom_bond_site_symmetry_2
O1 H1 1_555 1_555
N1 H2 1_555 1_555
C1 O1 1_555 1_555
O2 C1 1_555 1_555
C2 N1 1_555 1_555
H3 C2 1_555 1_555
O3 C5 1_555 1_555
C3 C2 1_555 1_555
H4 C3 1_555 1_555
H5 C3 1_555 1_555
C4 C3 1_555 1_555
H6 C4 1_555 1_555
H7 C4 1_555 1_555
C5 N1 1_555 1_555
N2 H8 1_555 1_555
O4 H9 1_555 1_555
O5 C6 1_555 1_555
O6 C10 1_555 1_555
C6 O4 1_555 1_555
C7 N2 1_555 1_555
H10 C7 1_555 1_555
C8 C7 1_555 1_555
H11 C8 1_555 1_555
H12 C8 1_555 1_555
C9 C8 1_555 1_555
H13 C9 1_555 1_555
H14 C9 1_555 1_555
C10 N2 1_555 1_555
N3 H15 1_555 1_555
O7 C11 1_555 1_555
O8 H16 1_555 1_555
O9 C15 1_555 1_555
C11 O8 1_555 1_555
C12 N3 1_555 1_555
H17 C12 1_555 1_555
C13 C12 1_555 1_555
H18 C13 1_555 1_555
H19 C13 1_555 1_555
C14 C13 1_555 1_555
H20 C14 1_555 1_555
H21 C14 1_555 1_555
C15 N3 1_555 1_555
C1 C2 1_555 1_555
C4 C5 1_555 1_555
C6 C7 1_555 1_555
C9 C10 1_555 1_555
C11 C12 1_555 1_555
C14 C15 1_555 1_555

#END
