
#######################################################################
#
#                 Cambridge Crystallographic Data Centre
#                                CCDC 
#
#######################################################################
#
# If this CIF has been generated from an entry in the Cambridge 
# Structural Database, then it will include bibliographic, chemical, 
# crystal, experimental, refinement or atomic coordinate data resulting 
# from the CCDC's data processing and validation procedures.
#
#######################################################################

data_LSERMH19
_chemical_name_common            'L-serine monohydrate'
_chemical_formula_moiety         'C3 H7 N1 O3,H2 O1'
_chemical_name_systematic        '(S)-2-Ammonio-3-hydroxypropanoate monohydrate'
_symmetry_cell_setting           orthorhombic
_symmetry_space_group_name_H-M   'P 21 21 21'
_symmetry_Int_Tables_number      19
_space_group_name_Hall           'P 2ac 2ab'
loop_
_symmetry_equiv_pos_site_id
_symmetry_equiv_pos_as_xyz
1 x,y,z
2 1/2-x,-y,1/2+z
3 -x,1/2+y,1/2-z
4 1/2+x,1/2-y,-z
_cell_length_a                   4.7971(2)
_cell_length_b                   9.3046(4)
_cell_length_c                   12.1440(5)
_cell_angle_alpha                90
_cell_angle_beta                 90
_cell_angle_gamma                90
_cell_volume                     542.049
_exptl_crystal_colour            colorless
_exptl_crystal_description       block
_cell_formula_units_Z            4
loop_
_atom_site_label
_atom_site_type_symbol
_atom_site_fract_x
_atom_site_fract_y
_atom_site_fract_z
N1 N 0.7145(4) 0.78927(17) 0.66624(14)
O1 O 0.9474(4) 0.82696(16) 0.89561(12)
O2 O 0.7673(3) 1.13705(14) 0.79894(12)
O3 O 0.9803(3) 1.04110(15) 0.65335(13)
C1 C 0.8105(4) 1.03710(18) 0.73183(15)
C2 C 0.6364(4) 0.90132(18) 0.74885(15)
H1 H 0.4365 0.9271 0.7364
C3 C 0.6635(5) 0.8452(2) 0.86616(16)
H2 H 0.5745 0.9138 0.9176
H3 H 0.5652 0.7521 0.8725
H4 H 0.998(8) 0.739(4) 0.877(2)
H5 H 0.697(6) 0.829(3) 0.5973(18)
H6 H 0.586(7) 0.716(3) 0.670(2)
H7 H 0.889(7) 0.758(3) 0.676(2)
O4 O 0.8612(3) 0.57839(16) 0.49629(12)
H8 H 0.736(8) 0.549(3) 0.451(2)
H9 H 0.923(8) 0.498(4) 0.528(3)
loop_
_geom_bond_atom_site_label_1
_geom_bond_atom_site_label_2
_geom_bond_site_symmetry_1
_geom_bond_site_symmetry_2
N1 C2 1_555 1_555
O1 C3 1_555 1_555
O2 C1 1_555 1_555
O3 C1 1_555 1_555
C1 C2 1_555 1_555
C2 H1 1_555 1_555
C3 C2 1_555 1_555
H2 C3 1_555 1_555
H3 C3 1_555 1_555
H4 O1 1_555 1_555
H5 N1 1_555 1_555
H6 N1 1_555 1_555
H7 N1 1_555 1_555
O4 H8 1_555 1_555
H9 O4 1_555 1_555

#END
