
#######################################################################
#
#                 Cambridge Crystallographic Data Centre
#                                CCDC 
#
#######################################################################
#
# If this CIF has been generated from an entry in the Cambridge 
# Structural Database, then it will include bibliographic, chemical, 
# crystal, experimental, refinement or atomic coordinate data resulting 
# from the CCDC's data processing and validation procedures.
#
#######################################################################

data_LUBBAN
_chemical_formula_moiety         'C19 H13 N5 O2'
_chemical_name_systematic        
'5-(1-methyl-4-(1-methyl-1H-pyrrol-2-yl)-2,5-dioxopyrrolidin-3-yl)benzene-1,2,4-tricarbonitrile unknown solvate'
_symmetry_cell_setting           tetragonal
_symmetry_space_group_name_H-M   'P -4 21 c'
_symmetry_Int_Tables_number      114
_space_group_name_Hall           'P -4 2n'
loop_
_symmetry_equiv_pos_site_id
_symmetry_equiv_pos_as_xyz
1 x,y,z
2 -x,-y,z
3 y,-x,-z
4 -y,x,-z
5 1/2-x,1/2+y,1/2-z
6 1/2+x,1/2-y,1/2-z
7 1/2-y,1/2-x,1/2+z
8 1/2+y,1/2+x,1/2+z
_cell_length_a                   22.6533(16)
_cell_length_b                   22.6533(16)
_cell_length_c                   7.2430(14)
_cell_angle_alpha                90
_cell_angle_beta                 90
_cell_angle_gamma                90
_cell_volume                     3716.9
_cell_formula_units_Z            8
loop_
_atom_site_label
_atom_site_type_symbol
_atom_site_fract_x
_atom_site_fract_y
_atom_site_fract_z
C1 C 0.23162(19) 0.5904(2) 0.8186(7)
C2 C 0.29389(17) 0.60572(16) 0.8824(6)
H1 H 0.3167 0.6191 0.7752
C3 C 0.28418(16) 0.65827(16) 1.0104(6)
H2 H 0.2852 0.6437 1.1377
C4 C 0.22140(18) 0.67846(18) 0.9695(7)
C5 C 0.13053(19) 0.6350(2) 0.8338(8)
H3 H 0.1201 0.5992 0.7710
H4 H 0.1222 0.6682 0.7555
H5 H 0.1080 0.6383 0.9455
C6 C 0.32567(18) 0.55493(16) 0.9692(7)
C7 C 0.3256(2) 0.53489(19) 1.1524(7)
H6 H 0.3054 0.5513 1.2516
C8 C 0.3618(2) 0.4856(2) 1.1556(9)
H7 H 0.3694 0.4628 1.2598
C9 C 0.3843(2) 0.4752(2) 0.9886(10)
H8 H 0.4103 0.4451 0.9570
C10 C 0.3732(3) 0.5205(2) 0.6724(8)
H9 H 0.3998 0.4894 0.6382
H10 H 0.3906 0.5580 0.6425
H11 H 0.3367 0.5161 0.6062
C11 C 0.38114(17) 0.77476(17) 0.7970(6)
C12 C 0.42286(18) 0.78536(18) 0.9336(6)
C13 C 0.41745(18) 0.75708(17) 1.1036(7)
H12 H 0.4441 0.7647 1.1983
C14 C 0.37170(16) 0.71736(16) 1.1292(6)
C15 C 0.33052(15) 0.70588(16) 0.9921(7)
C16 C 0.33550(18) 0.73627(17) 0.8249(6)
H13 H 0.3077 0.7303 0.7323
C17 C 0.38634(19) 0.80484(19) 0.6216(8)
C18 C 0.4721(2) 0.8234(2) 0.9026(8)
C19 C 0.36944(19) 0.6874(2) 1.3034(7)
N1 N 0.19431(14) 0.63409(15) 0.8790(5)
N2 N 0.36166(16) 0.51773(15) 0.8709(6)
N3 N 0.39059(19) 0.82721(19) 0.4804(8)
N4 N 0.5122(2) 0.8526(2) 0.8721(8)
N5 N 0.36784(18) 0.66181(19) 1.4422(6)
O1 O 0.21803(15) 0.54819(13) 0.7284(5)
O2 O 0.19922(12) 0.72485(14) 1.0159(5)
loop_
_geom_bond_atom_site_label_1
_geom_bond_atom_site_label_2
_geom_bond_site_symmetry_1
_geom_bond_site_symmetry_2
C1 C2 1_555 1_555
C2 H1 1_555 1_555
C3 C2 1_555 1_555
H2 C3 1_555 1_555
C4 C3 1_555 1_555
C5 H3 1_555 1_555
H4 C5 1_555 1_555
H5 C5 1_555 1_555
C6 C2 1_555 1_555
C7 C6 1_555 1_555
H6 C7 1_555 1_555
C8 C7 1_555 1_555
H7 C8 1_555 1_555
C9 C8 1_555 1_555
H8 C9 1_555 1_555
C10 H9 1_555 1_555
H10 C10 1_555 1_555
H11 C10 1_555 1_555
C11 C12 1_555 1_555
C12 C13 1_555 1_555
C13 H12 1_555 1_555
C14 C13 1_555 1_555
C15 C3 1_555 1_555
C16 C11 1_555 1_555
H13 C16 1_555 1_555
C17 C11 1_555 1_555
C18 C12 1_555 1_555
C19 C14 1_555 1_555
N1 C1 1_555 1_555
N2 C6 1_555 1_555
N3 C17 1_555 1_555
N4 C18 1_555 1_555
N5 C19 1_555 1_555
O1 C1 1_555 1_555
O2 C4 1_555 1_555
C4 N1 1_555 1_555
C5 N1 1_555 1_555
C9 N2 1_555 1_555
C10 N2 1_555 1_555
C14 C15 1_555 1_555
C15 C16 1_555 1_555

#END
