
#######################################################################
#
#                 Cambridge Crystallographic Data Centre
#                                CCDC 
#
#######################################################################
#
# If this CIF has been generated from an entry in the Cambridge 
# Structural Database, then it will include bibliographic, chemical, 
# crystal, experimental, refinement or atomic coordinate data resulting 
# from the CCDC's data processing and validation procedures.
#
#######################################################################

data_LUBPEF
_chemical_formula_moiety         'C22 H15 N1 O2'
_chemical_name_systematic        
3-methyl-1'H-spiro[benzo[e]indole-1,2'-naphthalene]-1',2(3H)-dione
_symmetry_cell_setting           orthorhombic
_symmetry_space_group_name_H-M   'P 21 21 21'
_symmetry_Int_Tables_number      19
_space_group_name_Hall           'P 2ac 2ab'
loop_
_symmetry_equiv_pos_site_id
_symmetry_equiv_pos_as_xyz
1 x,y,z
2 1/2-x,-y,1/2+z
3 -x,1/2+y,1/2-z
4 1/2+x,1/2-y,-z
_cell_length_a                   6.5585(2)
_cell_length_b                   10.1487(3)
_cell_length_c                   24.4506(6)
_cell_angle_alpha                90
_cell_angle_beta                 90
_cell_angle_gamma                90
_cell_volume                     1627.44
_exptl_crystal_colour            colorless
_exptl_crystal_description       block
_cell_formula_units_Z            4
loop_
_atom_site_label
_atom_site_type_symbol
_atom_site_fract_x
_atom_site_fract_y
_atom_site_fract_z
N1 N 0.3120(3) 0.24042(17) 0.10917(7)
O1 O 0.3222(2) -0.08644(15) 0.11993(6)
O2 O 0.3181(3) 0.14441(15) 0.02404(6)
C1 C 0.6334(3) -0.17141(18) 0.08635(7)
C2 C 0.5813(4) -0.3020(2) 0.09743(8)
H1 H 0.4607 -0.3213 0.1158
C3 C 0.7096(5) -0.4027(2) 0.08104(10)
H2 H 0.6746 -0.4899 0.0880
C4 C 0.8890(5) -0.3738(3) 0.05450(10)
H3 H 0.9746 -0.4420 0.0436
C5 C 0.9435(4) -0.2455(3) 0.04386(8)
H4 H 1.0667 -0.2277 0.0265
C6 C 0.8149(3) -0.1417(2) 0.05892(7)
C7 C 0.8643(3) -0.0062(2) 0.04488(8)
H5 H 0.9805 0.0102 0.0242
C8 C 0.7507(3) 0.0949(2) 0.06036(7)
H6 H 0.7880 0.1791 0.0492
C9 C 0.5638(3) 0.07887(17) 0.09515(7)
C10 C 0.4915(3) -0.06490(18) 0.10184(7)
C11 C 0.3829(3) 0.15657(19) 0.07029(7)
C12 C 0.4283(3) 0.23280(19) 0.15734(8)
C13 C 0.5828(3) 0.14287(17) 0.15164(7)
C14 C 0.7258(3) 0.12309(18) 0.19414(7)
C15 C 0.6993(3) 0.1982(2) 0.24284(7)
C16 C 0.5335(4) 0.2871(2) 0.24685(9)
H7 H 0.5161 0.3341 0.2792
C17 C 0.3989(4) 0.3065(2) 0.20539(9)
H8 H 0.2919 0.3661 0.2086
C18 C 0.8959(3) 0.0382(2) 0.19044(8)
H9 H 0.9147 -0.0128 0.1592
C19 C 1.0334(4) 0.0303(2) 0.23238(9)
H10 H 1.1461 -0.0247 0.2290
C20 C 1.0069(4) 0.1037(2) 0.28050(8)
H11 H 1.1011 0.0970 0.3088
C21 C 0.8428(4) 0.1848(2) 0.28555(8)
H12 H 0.8247 0.2323 0.3177
C22 C 0.1459(4) 0.3319(2) 0.10081(12)
H13 H 0.0995 0.3261 0.0636
H14 H 0.1920 0.4199 0.1081
H15 H 0.0358 0.3103 0.1251
loop_
_geom_bond_atom_site_label_1
_geom_bond_atom_site_label_2
_geom_bond_site_symmetry_1
_geom_bond_site_symmetry_2
N1 C11 1_555 1_555
O1 C10 1_555 1_555
O2 C11 1_555 1_555
C1 C2 1_555 1_555
C2 H1 1_555 1_555
C3 C2 1_555 1_555
H2 C3 1_555 1_555
C4 C3 1_555 1_555
H3 C4 1_555 1_555
C5 C4 1_555 1_555
H4 C5 1_555 1_555
C6 C1 1_555 1_555
C7 C6 1_555 1_555
H5 C7 1_555 1_555
C8 C7 1_555 1_555
H6 C8 1_555 1_555
C9 C8 1_555 1_555
C10 C1 1_555 1_555
C11 C9 1_555 1_555
C12 N1 1_555 1_555
C13 C9 1_555 1_555
C14 C13 1_555 1_555
C15 C14 1_555 1_555
C16 C15 1_555 1_555
H7 C16 1_555 1_555
C17 C12 1_555 1_555
H8 C17 1_555 1_555
C18 C14 1_555 1_555
H9 C18 1_555 1_555
C19 C18 1_555 1_555
H10 C19 1_555 1_555
C20 C19 1_555 1_555
H11 C20 1_555 1_555
C21 C15 1_555 1_555
H12 C21 1_555 1_555
C22 N1 1_555 1_555
H13 C22 1_555 1_555
H14 C22 1_555 1_555
H15 C22 1_555 1_555
C5 C6 1_555 1_555
C9 C10 1_555 1_555
C12 C13 1_555 1_555
C16 C17 1_555 1_555
C20 C21 1_555 1_555

#END
