
#######################################################################
#
#                 Cambridge Crystallographic Data Centre
#                                CCDC 
#
#######################################################################
#
# If this CIF has been generated from an entry in the Cambridge 
# Structural Database, then it will include bibliographic, chemical, 
# crystal, experimental, refinement or atomic coordinate data resulting 
# from the CCDC's data processing and validation procedures.
#
#######################################################################

data_LUBQAC
_chemical_formula_moiety         'C29 H30 N4 O4'
_chemical_name_systematic        
"16a-(2-methylbut-3-en-2-yl)-7,15-dioxo-5,5a,7a,8,13,13a,15,15a,16,16a-decahydroindolo[3''',2''':4'',5'']pyrrolo[1'',2'':4',5']pyrazino[1',2':1,5]pyrrolo[2,3-b]indol-8a(7H)-yl acetate unknown solvate"
_symmetry_cell_setting           orthorhombic
_symmetry_space_group_name_H-M   'P 21 21 21'
_symmetry_Int_Tables_number      19
_space_group_name_Hall           'P 2ac 2ab'
loop_
_symmetry_equiv_pos_site_id
_symmetry_equiv_pos_as_xyz
1 x,y,z
2 1/2-x,-y,1/2+z
3 1/2+x,1/2-y,-z
4 -x,1/2+y,1/2-z
_cell_length_a                   8.0880(10)
_cell_length_b                   11.9869(13)
_cell_length_c                   28.795(3)
_cell_angle_alpha                90
_cell_angle_beta                 90
_cell_angle_gamma                90
_cell_volume                     2791.68
_exptl_crystal_colour            colorless
_exptl_crystal_description       block
_cell_formula_units_Z            4
loop_
_atom_site_label
_atom_site_type_symbol
_atom_site_fract_x
_atom_site_fract_y
_atom_site_fract_z
O1 O 0.8235(4) 0.3509(3) 0.16447(11)
O2 O 0.9934(5) 0.2058(3) 0.15468(13)
O3 O 1.0222(5) 0.2550(3) 0.32742(12)
O4 O 0.6548(4) 0.6126(3) 0.29165(11)
N1 N 1.1823(5) 0.3309(3) 0.23180(13)
H1 H 1.2230 0.2648 0.2333
N2 N 0.9488(5) 0.3927(3) 0.27799(13)
N3 N 0.7712(5) 0.4967(3) 0.34454(12)
N4 N 0.6745(5) 0.6380(3) 0.39976(13)
H2 H 0.6238 0.6961 0.3895
C1 C 1.2286(6) 0.3904(4) 0.19217(18)
C2 C 1.3846(8) 0.4022(6) 0.1741(2)
H3 H 1.4747 0.3665 0.1876
C3 C 1.4044(10) 0.4699(6) 0.1348(3)
H4 H 1.5088 0.4779 0.1217
C4 C 1.2712(10) 0.5248(5) 0.1151(2)
H5 H 1.2877 0.5718 0.0898
C5 C 1.1120(9) 0.5102(4) 0.1331(2)
H6 H 1.0217 0.5453 0.1195
C6 C 1.0915(7) 0.4427(4) 0.17157(16)
C7 C 0.9379(6) 0.4081(3) 0.19592(15)
C8 C 1.0030(5) 0.3336(4) 0.23652(15)
H7 H 0.9558 0.2584 0.2351
C9 C 0.8950(6) 0.5075(3) 0.26899(14)
H8 H 0.9898 0.5581 0.2713
C10 C 0.8355(6) 0.5019(3) 0.21847(14)
H9 H 0.8547 0.5723 0.2028
H10 H 0.7184 0.4847 0.2171
C11 C 0.7622(6) 0.5437(3) 0.30238(14)
C12 C 0.9035(6) 0.4222(3) 0.35938(15)
H11 H 0.9961 0.4665 0.3713
C13 C 0.9645(6) 0.3468(3) 0.32027(15)
C14 C 0.8234(7) 0.3591(4) 0.39917(16)
H12 H 0.9062 0.3318 0.4207
H13 H 0.7596 0.2964 0.3877
C15 C 0.7092(6) 0.4464(3) 0.42293(15)
C16 C 0.6558(6) 0.5251(3) 0.38220(15)
H14 H 0.5412 0.5107 0.3729
C17 C 0.7859(6) 0.6361(4) 0.43525(15)
C18 C 0.8690(7) 0.7253(4) 0.45550(19)
H15 H 0.8505 0.7975 0.4449
C19 C 0.9801(8) 0.7063(5) 0.4918(2)
H16 H 1.0377 0.7656 0.5049
C20 C 1.0043(9) 0.5986(6) 0.5082(2)
H17 H 1.0751 0.5863 0.5331
C21 C 0.9239(8) 0.5096(5) 0.48762(18)
H18 H 0.9440 0.4374 0.4981
C22 C 0.8131(6) 0.5271(4) 0.45137(15)
C23 C 0.8720(6) 0.2522(4) 0.14589(17)
C24 C 0.7420(10) 0.2130(6) 0.1122(3)
H19 H 0.6695 0.2738 0.1047
H20 H 0.6793 0.1536 0.1260
H21 H 0.7944 0.1866 0.0843
C25 C 0.5594(7) 0.3927(4) 0.44993(19)
C26 C 0.6246(10) 0.3103(5) 0.4867(2)
H22 H 0.6802 0.2497 0.4715
H23 H 0.5337 0.2819 0.5045
H24 H 0.7006 0.3481 0.5069
C27 C 0.4681(9) 0.4859(5) 0.4766(2)
H25 H 0.5448 0.5244 0.4963
H26 H 0.3819 0.4536 0.4952
H27 H 0.4208 0.5375 0.4548
C28 C 0.4486(12) 0.3327(6) 0.4167(3)
H28 H 0.4937 0.2788 0.3972
C29 C 0.308(2) 0.3513(13) 0.4145(6)
H29 H 0.2614 0.4049 0.4337
H30 H 0.2426 0.3126 0.3934
loop_
_geom_bond_atom_site_label_1
_geom_bond_atom_site_label_2
_geom_bond_site_symmetry_1
_geom_bond_site_symmetry_2
O1 C7 1_555 1_555
O2 C23 1_555 1_555
O3 C13 1_555 1_555
O4 C11 1_555 1_555
N1 H1 1_555 1_555
N2 C8 1_555 1_555
N3 C11 1_555 1_555
N4 H2 1_555 1_555
C1 N1 1_555 1_555
C2 C1 1_555 1_555
H3 C2 1_555 1_555
C3 C2 1_555 1_555
H4 C3 1_555 1_555
C4 C3 1_555 1_555
H5 C4 1_555 1_555
C5 C4 1_555 1_555
H6 C5 1_555 1_555
C6 C1 1_555 1_555
C7 C6 1_555 1_555
C8 N1 1_555 1_555
H7 C8 1_555 1_555
C9 N2 1_555 1_555
H8 C9 1_555 1_555
C10 C7 1_555 1_555
H9 C10 1_555 1_555
H10 C10 1_555 1_555
C11 C9 1_555 1_555
C12 N3 1_555 1_555
H11 C12 1_555 1_555
C13 N2 1_555 1_555
C14 C12 1_555 1_555
H12 C14 1_555 1_555
H13 C14 1_555 1_555
C15 C14 1_555 1_555
C16 N3 1_555 1_555
H14 C16 1_555 1_555
C17 N4 1_555 1_555
C18 C17 1_555 1_555
H15 C18 1_555 1_555
C19 C18 1_555 1_555
H16 C19 1_555 1_555
C20 C19 1_555 1_555
H17 C20 1_555 1_555
C21 C20 1_555 1_555
H18 C21 1_555 1_555
C22 C15 1_555 1_555
C23 O1 1_555 1_555
C24 C23 1_555 1_555
H19 C24 1_555 1_555
H20 C24 1_555 1_555
H21 C24 1_555 1_555
C25 C15 1_555 1_555
C26 C25 1_555 1_555
H22 C26 1_555 1_555
H23 C26 1_555 1_555
H24 C26 1_555 1_555
C27 C25 1_555 1_555
H25 C27 1_555 1_555
H26 C27 1_555 1_555
H27 C27 1_555 1_555
C28 C25 1_555 1_555
H28 C28 1_555 1_555
C29 C28 1_555 1_555
H29 C29 1_555 1_555
H30 C29 1_555 1_555
N4 C16 1_555 1_555
C5 C6 1_555 1_555
C7 C8 1_555 1_555
C9 C10 1_555 1_555
C12 C13 1_555 1_555
C15 C16 1_555 1_555
C17 C22 1_555 1_555
C21 C22 1_555 1_555

#END
