
#######################################################################
#
#                 Cambridge Crystallographic Data Centre
#                                CCDC 
#
#######################################################################
#
# If this CIF has been generated from an entry in the Cambridge 
# Structural Database, then it will include bibliographic, chemical, 
# crystal, experimental, refinement or atomic coordinate data resulting 
# from the CCDC's data processing and validation procedures.
#
#######################################################################

data_LUCJIE
_chemical_name_common            
"N,N'-bis(3-(Heptaisobutyloctasilsesquioxanyl)propyl)-1,6,7,12-tetrakis(4-t-butylphenoxy)perylene-3,4:9,10-bis(dicarboxamide) chloroform solvate"
_chemical_formula_moiety         'C126 H194 N2 O32 Si16,2(C1 H1 Cl3)'
_chemical_name_systematic        
"N,N'-bis(3-(3,5,7,9,11,13,15-Heptaisobutylpentacyclo[9.5.1.1^3, 9^.1^5,15^.1^7, 13^]octasiloxan-1-yl)propyl)-5,6,12,13-tetrakis(4-t-butylphenoxy)isoquinolino[4',5',6':6,5,10]anthra[2,1,9-def]isoquinoline-1,3,8,10(2H,9H)-tetrone chloroform solvate"
_symmetry_cell_setting           triclinic
_symmetry_space_group_name_H-M   'P -1'
_symmetry_Int_Tables_number      2
_space_group_name_Hall           '-P 1'
loop_
_symmetry_equiv_pos_site_id
_symmetry_equiv_pos_as_xyz
1 x,y,z
2 -x,-y,-z
_cell_length_a                   10.975(4)
_cell_length_b                   21.227(7)
_cell_length_c                   34.042(10)
_cell_angle_alpha                87.099(7)
_cell_angle_beta                 82.157(6)
_cell_angle_gamma                83.536(6)
_cell_volume                     7801.5
_exptl_crystal_colour            red
_exptl_crystal_description       needle
_cell_formula_units_Z            2
loop_
_atom_site_label
_atom_site_type_symbol
_atom_site_fract_x
_atom_site_fract_y
_atom_site_fract_z
Cl1 Cl 0.1741(8) 1.1217(4) 0.6407(2)
Cl2 Cl 0.2519(11) 1.1628(6) 0.7063(3)
Cl3 Cl 0.1774(9) 1.0377(4) 0.7083(3)
C1 C 0.250(3) 1.0898(13) 0.6816(8)
H1 H 0.3368 1.0716 0.6720
Cl4 Cl 0.5234(8) 0.6330(4) 0.6135(2)
Cl5 Cl 0.6203(11) 0.6142(7) 0.6853(3)
Cl6 Cl 0.3788(12) 0.6706(8) 0.6844(4)
C2 C 0.5288(14) 0.6702(8) 0.6585(4)
H2 H 0.5596 0.7130 0.6549
Si1 Si 0.2878(4) 0.7949(2) 0.19168(13)
Si2 Si 0.5568(5) 0.8345(2) 0.17636(16)
Si3 Si 0.5803(5) 0.7988(3) 0.09029(16)
Si4 Si 0.3086(5) 0.7585(3) 0.10372(15)
Si5 Si 0.4145(6) 0.6207(3) 0.12581(17)
Si6 Si 0.6842(5) 0.6603(3) 0.11227(18)
Si7 Si 0.6619(4) 0.6979(2) 0.19965(15)
Si8 Si 0.3912(4) 0.6584(2) 0.21517(13)
Si9 Si 0.5674(8) 0.8600(3) 0.76753(17)
Si10 Si 0.3090(14) 0.8132(9) 0.7945(4)
Si11 Si 0.3310(12) 0.8365(7) 0.8825(3)
Si12 Si 0.5839(8) 0.8850(3) 0.85602(19)
Si13 Si 0.4494(11) 0.6993(4) 0.8934(2)
Si14 Si 0.4300(12) 0.6771(4) 0.8044(3)
Si15 Si 0.6912(11) 0.7218(4) 0.7793(2)
Si16 Si 0.7009(9) 0.7497(5) 0.8693(3)
O1 O 0.4294(9) 0.8227(4) 0.2985(3)
O2 O 0.1226(9) 0.9800(4) 0.3220(3)
O3 O 0.4476(9) 1.0132(4) 0.6248(3)
O4 O 0.5583(10) 0.8020(5) 0.6237(3)
O5 O 0.5931(9) 0.7729(4) 0.4299(3)
O6 O 0.4540(8) 0.7364(4) 0.4923(3)
O7 O 0.1104(8) 1.0309(4) 0.4654(3)
O8 O 0.2896(8) 1.0724(4) 0.4945(3)
O9 O 0.7051(9) 0.6690(5) 0.1568(3)
O10 O 0.6346(9) 0.7739(4) 0.1955(3)
O11 O 0.5852(9) 0.8339(5) 0.1295(3)
O12 O 0.6655(10) 0.7294(6) 0.0886(3)
O13 O 0.4382(11) 0.7865(6) 0.0879(3)
O14 O 0.2583(9) 0.7870(5) 0.1473(3)
O15 O 0.3878(9) 0.6227(5) 0.1726(4)
O16 O 0.3073(9) 0.7263(5) 0.2146(3)
O17 O 0.3311(11) 0.6843(7) 0.1085(3)
O18 O 0.5325(9) 0.6685(5) 0.2185(3)
O19 O 0.7311(14) 0.7278(6) 0.8264(6)
O20 O 0.6490(16) 0.7921(6) 0.7615(3)
O21 O 0.5940(11) 0.8889(5) 0.8074(4)
O22 O 0.4272(14) 0.6730(6) 0.8507(5)
O23 O 0.580(2) 0.7167(8) 0.8916(4)
O24 O 0.294(2) 0.8334(12) 0.8392(5)
O25 O 0.4392(15) 0.8765(7) 0.8753(4)
O26 O 0.375(2) 0.7630(11) 0.9007(5)
O27 O 0.336(2) 0.7397(10) 0.7948(5)
O28 O 0.4232(18) 0.8497(7) 0.7725(4)
O29 O 0.5641(11) 0.6253(6) 0.1122(3)
O30 O 0.572(2) 0.6862(9) 0.7831(5)
O31 O 0.6764(14) 0.8272(7) 0.8675(4)
O32 O 0.4120(10) 0.8299(4) 0.1881(3)
N1 N 0.2779(11) 0.9005(5) 0.3095(3)
N2 N 0.4942(11) 0.9061(6) 0.6282(3)
C3 C 0.2082(14) 0.9443(7) 0.3341(4)
C4 C 0.2313(13) 0.9455(6) 0.3765(4)
C5 C 0.1604(13) 0.9877(6) 0.4014(4)
H3 H 0.0930 1.0141 0.3926
C6 C 0.1877(13) 0.9914(6) 0.4394(4)
C7 C 0.2891(13) 0.9548(6) 0.4544(4)
C8 C 0.3378(13) 0.9597(6) 0.4920(4)
C9 C 0.3283(13) 1.0169(6) 0.5134(4)
C10 C 0.3660(13) 1.0153(6) 0.5498(4)
H4 H 0.3579 1.0546 0.5626
C11 C 0.4145(14) 0.9633(7) 0.5699(4)
C12 C 0.4540(15) 0.9644(7) 0.6075(5)
C13 C 0.5118(16) 0.8495(7) 0.6055(5)
C14 C 0.4773(14) 0.8473(7) 0.5663(4)
C15 C 0.4836(13) 0.7916(6) 0.5478(4)
H5 H 0.5053 0.7527 0.5614
C16 C 0.4588(13) 0.7916(6) 0.5100(4)
C17 C 0.4306(13) 0.8475(6) 0.4873(4)
C18 C 0.4268(13) 0.8525(6) 0.4443(4)
C19 C 0.4979(13) 0.8117(6) 0.4184(4)
C20 C 0.4816(13) 0.8155(6) 0.3766(4)
H6 H 0.5336 0.7891 0.3581
C21 C 0.3886(13) 0.8583(6) 0.3646(4)
C22 C 0.3716(14) 0.8592(7) 0.3233(4)
C23 C 0.3244(13) 0.9004(6) 0.3890(4)
C24 C 0.3505(13) 0.9030(6) 0.4288(4)
C25 C 0.3992(13) 0.9033(6) 0.5101(4)
C26 C 0.4319(13) 0.9054(6) 0.5488(4)
C27 C 0.6369(16) 0.7147(7) 0.4087(5)
C28 C 0.7522(15) 0.7068(7) 0.3915(4)
H7 H 0.8020 0.7409 0.3901
C29 C 0.8005(16) 0.6508(7) 0.3758(5)
H8 H 0.8859 0.6441 0.3659
C30 C 0.7278(17) 0.6049(8) 0.3745(5)
C31 C 0.6077(16) 0.6141(7) 0.3905(5)
H9 H 0.5557 0.5814 0.3897
C32 C 0.5609(15) 0.6691(7) 0.4076(4)
H10 H 0.4764 0.6757 0.4187
C33 C 0.7832(19) 0.5406(9) 0.3567(6)
C34 C 0.9135(17) 0.5242(8) 0.3560(5)
H11 H 0.9567 0.5380 0.3305
H12 H 0.9308 0.4781 0.3597
H13 H 0.9422 0.5452 0.3775
C35 C 0.7290(17) 0.4878(8) 0.3820(5)
H14 H 0.6744 0.5056 0.4049
H15 H 0.7958 0.4587 0.3912
H16 H 0.6813 0.4646 0.3663
C36 C 0.7498(17) 0.5332(8) 0.3185(5)
H17 H 0.6601 0.5430 0.3192
H18 H 0.7741 0.4894 0.3105
H19 H 0.7921 0.5622 0.2993
C37 C 0.5217(14) 0.6774(7) 0.5045(4)
C38 C 0.6459(14) 0.6765(6) 0.5028(4)
H20 H 0.6840 0.7139 0.4945
C39 C 0.7201(14) 0.6205(6) 0.5132(4)
H21 H 0.8078 0.6187 0.5103
C40 C 0.6603(15) 0.5695(7) 0.5276(4)
C41 C 0.5286(14) 0.5728(7) 0.5287(4)
H22 H 0.4869 0.5366 0.5369
C42 C 0.4630(14) 0.6284(6) 0.5180(4)
H23 H 0.3753 0.6315 0.5202
C43 C 0.7423(15) 0.5080(7) 0.5370(5)
C44 C 0.8098(13) 0.4769(6) 0.4988(4)
H24 H 0.7498 0.4724 0.4805
H25 H 0.8501 0.4349 0.5055
H26 H 0.8723 0.5036 0.4861
C45 C 0.6602(13) 0.4579(6) 0.5618(4)
H27 H 0.6239 0.4754 0.5874
H28 H 0.7126 0.4184 0.5663
H29 H 0.5940 0.4493 0.5469
C46 C 0.8394(14) 0.5266(6) 0.5647(4)
H30 H 0.7944 0.5460 0.5887
H31 H 0.8917 0.5568 0.5501
H32 H 0.8912 0.4883 0.5721
C47 C 0.0688(15) 1.0894(7) 0.4494(4)
C48 C 0.1468(16) 1.1229(7) 0.4231(4)
H33 H 0.2277 1.1040 0.4139
C49 C 0.1073(16) 1.1861(7) 0.4093(5)
H34 H 0.1622 1.2103 0.3924
C50 C -0.0221(18) 1.2121(8) 0.4222(5)
C51 C -0.0899(17) 1.1773(7) 0.4499(5)
H35 H -0.1681 1.1972 0.4609
C52 C -0.0570(15) 1.1149(7) 0.4639(4)
H36 H -0.1121 1.0916 0.4813
C53 C -0.0737(13) 1.2768(7) 0.4053(4)
C54 C -0.0227(15) 1.2891(8) 0.3627(4)
H37 H 0.0627 1.2994 0.3612
H38 H -0.0733 1.3247 0.3515
H39 H -0.0242 1.2511 0.3476
C55 C -0.2144(12) 1.2803(8) 0.4091(5)
H40 H -0.2398 1.2781 0.3827
H41 H -0.2510 1.3203 0.4209
H42 H -0.2427 1.2446 0.4259
C56 C -0.0351(15) 1.3215(8) 0.4326(4)
H43 H -0.1039 1.3541 0.4400
H44 H 0.0360 1.3416 0.4192
H45 H -0.0123 1.2980 0.4565
C57 C 0.1977(14) 1.1149(6) 0.5189(4)
C58 C 0.2032(13) 1.1779(6) 0.5040(4)
H46 H 0.2625 1.1896 0.4826
C59 C 0.1106(13) 1.2228(7) 0.5242(4)
H47 H 0.1102 1.2665 0.5166
C60 C 0.0223(14) 1.2048(7) 0.5542(4)
C61 C 0.0234(13) 1.1426(6) 0.5642(4)
H48 H -0.0394 1.1295 0.5840
C62 C 0.1125(13) 1.0963(6) 0.5469(4)
H49 H 0.1117 1.0528 0.5550
C63 C -0.0798(14) 1.2548(7) 0.5742(5)
C64 C -0.1997(14) 1.2473(7) 0.5562(4)
H50 H -0.1834 1.2511 0.5272
H51 H -0.2647 1.2805 0.5659
H52 H -0.2269 1.2055 0.5641
C65 C -0.0436(13) 1.3222(6) 0.5645(4)
H53 H -0.0244 1.3403 0.5886
H54 H -0.1125 1.3487 0.5545
H55 H 0.0293 1.3207 0.5443
C66 C -0.0994(13) 1.2437(6) 0.6207(4)
H56 H -0.1058 1.1986 0.6272
H57 H -0.1755 1.2687 0.6319
H58 H -0.0289 1.2569 0.6318
C67 C 0.2509(13) 0.9011(6) 0.2680(4)
H59 H 0.3288 0.8921 0.2498
H60 H 0.2116 0.9435 0.2605
C68 C 0.1621(13) 0.8497(6) 0.2643(4)
H61 H 0.1927 0.8094 0.2773
H62 H 0.0785 0.8636 0.2778
C69 C 0.1552(13) 0.8390(7) 0.2208(4)
H63 H 0.1402 0.8811 0.2074
H64 H 0.0816 0.8165 0.2196
C70 C 0.5926(19) 0.9109(9) 0.1956(7)
H65 H 0.5244 0.9443 0.1917
H66 H 0.5963 0.9053 0.2245
C71 C 0.718(2) 0.9338(10) 0.1749(8)
H67 H 0.7141 0.9385 0.1457
C72 C 0.8275(19) 0.8961(9) 0.1807(7)
H68 H 0.8818 0.9214 0.1925
H69 H 0.8694 0.8806 0.1552
H70 H 0.8080 0.8600 0.1987
C73 C 0.729(2) 0.9974(9) 0.1899(7)
H71 H 0.7246 0.9947 0.2188
H72 H 0.6619 1.0279 0.1822
H73 H 0.8090 1.0116 0.1784
C74 C 0.7786(16) 0.6808(11) 0.2336(7)
H74 H 0.7368 0.6919 0.2604
H75 H 0.7999 0.6343 0.2343
C75 C 0.8840(19) 0.7061(12) 0.2289(7)
H76 H 0.8728 0.7517 0.2198
C76 C 0.9718(17) 0.6655(11) 0.1978(7)
H77 H 0.9631 0.6834 0.1711
H78 H 0.9500 0.6219 0.1999
H79 H 1.0575 0.6657 0.2029
C77 C 0.9647(16) 0.6964(11) 0.2645(7)
H80 H 0.9169 0.7150 0.2884
H81 H 1.0403 0.7172 0.2575
H82 H 0.9864 0.6509 0.2696
C78 C 0.3339(19) 0.6068(9) 0.2543(5)
H83 H 0.2600 0.5903 0.2467
H84 H 0.3974 0.5702 0.2563
C79 C 0.298(2) 0.6340(10) 0.2962(6)
H85 H 0.2290 0.6687 0.2951
C80 C 0.2558(18) 0.5836(9) 0.3278(5)
H86 H 0.1870 0.6027 0.3463
H87 H 0.3248 0.5676 0.3423
H88 H 0.2287 0.5484 0.3148
C81 C 0.3970(18) 0.6586(10) 0.3118(5)
H89 H 0.4179 0.6973 0.2967
H90 H 0.4696 0.6269 0.3097
H91 H 0.3712 0.6684 0.3398
C82 C 0.3576(17) 0.5462(11) 0.1108(8)
H92 H 0.4043 0.5366 0.0844
H93 H 0.3872 0.5122 0.1293
C83 C 0.2267(18) 0.5359(8) 0.1078(6)
H94 H 0.1848 0.5632 0.0877
C84 C 0.238(2) 0.4656(9) 0.1025(7)
H95 H 0.2679 0.4566 0.0746
H96 H 0.1575 0.4499 0.1100
H97 H 0.2975 0.4445 0.1193
C85 C 0.1683(19) 0.5400(11) 0.1494(7)
H98 H 0.0840 0.5612 0.1502
H99 H 0.2167 0.5644 0.1641
H100 H 0.1656 0.4972 0.1615
C86 C 0.827(2) 0.6165(16) 0.0848(7)
H101 H 0.9000 0.6383 0.0882
H102 H 0.8394 0.5730 0.0966
C87 C 0.820(2) 0.6123(10) 0.0412(6)
H103 H 0.7931 0.6522 0.0265
C88 C 0.9468(17) 0.5801(15) 0.0278(7)
H104 H 0.9614 0.5411 0.0440
H105 H 1.0091 0.6085 0.0308
H106 H 0.9526 0.5695 -0.0001
C89 C 0.745(2) 0.5583(15) 0.0417(8)
H107 H 0.6942 0.5548 0.0676
H108 H 0.7995 0.5189 0.0369
H109 H 0.6906 0.5656 0.0209
C90 C 0.645(3) 0.8603(18) 0.0505(7)
H110 H 0.5939 0.9014 0.0541
H111 H 0.7304 0.8665 0.0550
C91 C 0.699(3) 0.8972(18) -0.0141(8)
H112 H 0.7068 0.8898 -0.0426
H113 H 0.7803 0.9026 -0.0068
H114 H 0.6424 0.9356 -0.0080
C92 C 0.649(2) 0.8414(11) 0.0090(8)
H115 H 0.6894 0.7982 0.0019
C93 C 0.515(2) 0.8563(18) 0.0039(9)
H116 H 0.5072 0.8836 -0.0199
H117 H 0.4704 0.8782 0.0272
H118 H 0.4787 0.8167 0.0012
C94 C 0.204(2) 0.7865(15) 0.0680(6)
H119 H 0.1895 0.8334 0.0687
H120 H 0.2453 0.7757 0.0411
C95 C 0.079(3) 0.7607(16) 0.0740(7)
H121 H 0.0929 0.7138 0.0789
C96 C -0.002(2) 0.7744(14) 0.0402(6)
H122 H -0.0814 0.7971 0.0506
H123 H -0.0157 0.7343 0.0294
H124 H 0.0403 0.8005 0.0192
C97 C -0.007(2) 0.7895(14) 0.1088(7)
H125 H 0.0294 0.8243 0.1189
H126 H -0.0210 0.7569 0.1299
H127 H -0.0867 0.8057 0.0999
C98 C 0.4886(12) 0.9042(8) 0.6738(3)
H128 H 0.4370 0.9415 0.6857
H129 H 0.4573 0.8648 0.6860
C99 C 0.6194(12) 0.9058(8) 0.6774(3)
H130 H 0.6536 0.9423 0.6622
H131 H 0.6695 0.8660 0.6688
C100 C 0.6115(15) 0.9133(8) 0.7225(4)
H132 H 0.5558 0.9530 0.7274
H133 H 0.6948 0.9240 0.7260
C101 C 0.152(2) 0.839(2) 0.7841(10)
H134 H 0.1009 0.8035 0.7920
H135 H 0.1179 0.8745 0.8015
C102 C 0.135(3) 0.8594(13) 0.7427(11)
H136 H 0.1707 0.8990 0.7319
C103 C 0.181(3) 0.799(2) 0.7216(12)
H137 H 0.2585 0.8052 0.7045
H138 H 0.1192 0.7890 0.7054
H139 H 0.1954 0.7648 0.7412
C104 C -0.002(3) 0.859(2) 0.7436(12)
H140 H -0.0270 0.8757 0.7182
H141 H -0.0461 0.8848 0.7651
H142 H -0.0234 0.8150 0.7480
C105 C 0.174(3) 0.878(2) 0.9010(10)
H143 H 0.1361 0.8972 0.8780
H144 H 0.1215 0.8457 0.9137
C106 C 0.177(3) 0.9279(14) 0.9299(8)
H145 H 0.1726 0.9683 0.9135
C107 C 0.296(2) 0.926(2) 0.9463(12)
H146 H 0.3646 0.9151 0.9253
H147 H 0.2982 0.8930 0.9678
H148 H 0.3035 0.9669 0.9567
C108 C 0.064(2) 0.936(2) 0.9600(11)
H149 H 0.0388 0.8940 0.9687
H150 H -0.0028 0.9609 0.9481
H151 H 0.0829 0.9576 0.9828
C109 C 0.404(3) 0.6381(12) 0.9339(4)
H152 H 0.3297 0.6195 0.9279
H153 H 0.4717 0.6035 0.9346
C110 C 0.376(2) 0.6677(10) 0.9732(7)
H154 H 0.3184 0.7078 0.9751
C111 C 0.505(3) 0.6704(16) 0.9832(7)
H155 H 0.5639 0.6443 0.9650
H156 H 0.5091 0.6543 1.0105
H157 H 0.5244 0.7145 0.9807
C112 C 0.339(3) 0.6124(15) 0.9998(5)
H158 H 0.4081 0.5786 0.9984
H159 H 0.2671 0.5964 0.9912
H160 H 0.3181 0.6261 1.0272
C113 C 0.796(2) 0.721(2) 0.9105(7)
H161 H 0.7598 0.7412 0.9354
H162 H 0.7945 0.6742 0.9149
C114 C 0.927(3) 0.7347(12) 0.9004(8)
H163 H 0.9288 0.7795 0.9079
C115 C 1.015(2) 0.695(2) 0.9239(9)
H164 H 1.0890 0.6793 0.9062
H165 H 0.9748 0.6592 0.9369
H166 H 1.0387 0.7209 0.9442
C116 C 0.971(3) 0.733(2) 0.8566(8)
H167 H 0.9822 0.7762 0.8461
H168 H 0.9086 0.7161 0.8432
H169 H 1.0493 0.7061 0.8519
C117 C 0.6295(19) 0.9620(12) 0.8732(7)
H170 H 0.5975 0.9976 0.8562
H171 H 0.5893 0.9690 0.9007
C118 C 0.7656(19) 0.9633(9) 0.8720(6)
H172 H 0.8118 0.9261 0.8846
C119 C 0.804(2) 0.9764(12) 0.8292(5)
H173 H 0.8735 1.0021 0.8259
H174 H 0.7342 0.9996 0.8175
H175 H 0.8286 0.9363 0.8158
C120 C 0.770(2) 1.0267(11) 0.8886(6)
H176 H 0.6928 1.0388 0.9058
H177 H 0.7814 1.0585 0.8668
H178 H 0.8397 1.0246 0.9041
C121 C 0.399(3) 0.6016(10) 0.7878(8)
H179 H 0.3963 0.6067 0.7589
H180 H 0.4722 0.5710 0.7914
C122 C 0.288(2) 0.5710(10) 0.8053(7)
H181 H 0.2178 0.5959 0.7936
C123 C 0.286(3) 0.5044(11) 0.7925(8)
H182 H 0.2321 0.5047 0.7718
H183 H 0.2551 0.4780 0.8153
H184 H 0.3702 0.4872 0.7820
C124 C 0.256(3) 0.5785(14) 0.8488(7)
H185 H 0.2011 0.5481 0.8617
H186 H 0.2300 0.6205 0.8596
H187 H 0.3411 0.5647 0.8535
C125 C 0.832(2) 0.6845(10) 0.7455(8)
H188 H 0.8042 0.6687 0.7218
H189 H 0.8876 0.7176 0.7365
C126 C 0.904(2) 0.6308(11) 0.7656(5)
H190 H 0.9239 0.6379 0.7927
C127 C 1.0105(17) 0.6156(11) 0.7338(9)
H191 H 1.0794 0.5921 0.7456
H192 H 1.0369 0.6550 0.7210
H193 H 0.9847 0.5896 0.7140
C128 C 0.829(2) 0.5778(10) 0.7614(9)
H194 H 0.7415 0.5940 0.7635
H195 H 0.8419 0.5453 0.7823
H196 H 0.8552 0.5592 0.7354
loop_
_geom_bond_atom_site_label_1
_geom_bond_atom_site_label_2
_geom_bond_site_symmetry_1
_geom_bond_site_symmetry_2
Cl1 C1 1_555 1_555
Cl2 C1 1_555 1_555
Cl3 C1 1_555 1_555
C1 H1 1_555 1_555
Cl4 C2 1_555 1_555
Cl5 C2 1_555 1_555
Cl6 C2 1_555 1_555
C2 H2 1_555 1_555
Si1 O14 1_555 1_555
Si2 O10 1_555 1_555
Si3 O11 1_555 1_555
Si4 O13 1_555 1_555
Si5 O15 1_555 1_555
Si6 O9 1_555 1_555
Si7 O9 1_555 1_555
Si8 O15 1_555 1_555
Si9 O20 1_555 1_555
Si10 O24 1_555 1_555
Si11 O24 1_555 1_555
Si12 O21 1_555 1_555
Si13 O22 1_555 1_555
Si14 O22 1_555 1_555
Si15 O19 1_555 1_555
Si16 O19 1_555 1_555
O1 C22 1_555 1_555
O2 C3 1_555 1_555
O3 C12 1_555 1_555
O4 C13 1_555 1_555
O5 C19 1_555 1_555
O6 C16 1_555 1_555
O7 C6 1_555 1_555
O8 C9 1_555 1_555
O10 Si7 1_555 1_555
O11 Si2 1_555 1_555
O12 Si3 1_555 1_555
O13 Si3 1_555 1_555
O14 Si4 1_555 1_555
O16 Si1 1_555 1_555
O17 Si4 1_555 1_555
O18 Si7 1_555 1_555
O20 Si15 1_555 1_555
O21 Si9 1_555 1_555
O23 Si13 1_555 1_555
O25 Si11 1_555 1_555
O26 Si11 1_555 1_555
O27 Si10 1_555 1_555
O28 Si9 1_555 1_555
O29 Si5 1_555 1_555
O30 Si14 1_555 1_555
O31 Si12 1_555 1_555
O32 Si1 1_555 1_555
N1 C3 1_555 1_555
N2 C12 1_555 1_555
C3 C4 1_555 1_555
C4 C5 1_555 1_555
C5 H3 1_555 1_555
C6 C5 1_555 1_555
C7 C6 1_555 1_555
C8 C7 1_555 1_555
C9 C8 1_555 1_555
C10 C9 1_555 1_555
H4 C10 1_555 1_555
C11 C10 1_555 1_555
C12 C11 1_555 1_555
C13 N2 1_555 1_555
C14 C13 1_555 1_555
C15 C14 1_555 1_555
H5 C15 1_555 1_555
C16 C15 1_555 1_555
C17 C16 1_555 1_555
C18 C17 1_555 1_555
C19 C18 1_555 1_555
C20 C19 1_555 1_555
H6 C20 1_555 1_555
C21 C20 1_555 1_555
C22 N1 1_555 1_555
C23 C4 1_555 1_555
C24 C7 1_555 1_555
C25 C8 1_555 1_555
C26 C11 1_555 1_555
C27 O5 1_555 1_555
C28 C27 1_555 1_555
H7 C28 1_555 1_555
C29 C28 1_555 1_555
H8 C29 1_555 1_555
C30 C29 1_555 1_555
C31 C30 1_555 1_555
H9 C31 1_555 1_555
C32 C27 1_555 1_555
H10 C32 1_555 1_555
C33 C30 1_555 1_555
C34 C33 1_555 1_555
H11 C34 1_555 1_555
H12 C34 1_555 1_555
H13 C34 1_555 1_555
C35 C33 1_555 1_555
H14 C35 1_555 1_555
H15 C35 1_555 1_555
H16 C35 1_555 1_555
C36 C33 1_555 1_555
H17 C36 1_555 1_555
H18 C36 1_555 1_555
H19 C36 1_555 1_555
C37 O6 1_555 1_555
C38 C37 1_555 1_555
H20 C38 1_555 1_555
C39 C38 1_555 1_555
H21 C39 1_555 1_555
C40 C39 1_555 1_555
C41 C40 1_555 1_555
H22 C41 1_555 1_555
C42 C37 1_555 1_555
H23 C42 1_555 1_555
C43 C40 1_555 1_555
C44 C43 1_555 1_555
H24 C44 1_555 1_555
H25 C44 1_555 1_555
H26 C44 1_555 1_555
C45 C43 1_555 1_555
H27 C45 1_555 1_555
H28 C45 1_555 1_555
H29 C45 1_555 1_555
C46 C43 1_555 1_555
H30 C46 1_555 1_555
H31 C46 1_555 1_555
H32 C46 1_555 1_555
C47 O7 1_555 1_555
C48 C47 1_555 1_555
H33 C48 1_555 1_555
C49 C48 1_555 1_555
H34 C49 1_555 1_555
C50 C49 1_555 1_555
C51 C50 1_555 1_555
H35 C51 1_555 1_555
C52 C47 1_555 1_555
H36 C52 1_555 1_555
C53 C50 1_555 1_555
C54 C53 1_555 1_555
H37 C54 1_555 1_555
H38 C54 1_555 1_555
H39 C54 1_555 1_555
C55 C53 1_555 1_555
H40 C55 1_555 1_555
H41 C55 1_555 1_555
H42 C55 1_555 1_555
C56 C53 1_555 1_555
H43 C56 1_555 1_555
H44 C56 1_555 1_555
H45 C56 1_555 1_555
C57 O8 1_555 1_555
C58 C57 1_555 1_555
H46 C58 1_555 1_555
C59 C58 1_555 1_555
H47 C59 1_555 1_555
C60 C59 1_555 1_555
C61 C60 1_555 1_555
H48 C61 1_555 1_555
C62 C57 1_555 1_555
H49 C62 1_555 1_555
C63 C60 1_555 1_555
C64 C63 1_555 1_555
H50 C64 1_555 1_555
H51 C64 1_555 1_555
H52 C64 1_555 1_555
C65 C63 1_555 1_555
H53 C65 1_555 1_555
H54 C65 1_555 1_555
H55 C65 1_555 1_555
C66 C63 1_555 1_555
H56 C66 1_555 1_555
H57 C66 1_555 1_555
H58 C66 1_555 1_555
C67 N1 1_555 1_555
H59 C67 1_555 1_555
H60 C67 1_555 1_555
C68 C67 1_555 1_555
H61 C68 1_555 1_555
H62 C68 1_555 1_555
C69 Si1 1_555 1_555
H63 C69 1_555 1_555
H64 C69 1_555 1_555
C70 Si2 1_555 1_555
H65 C70 1_555 1_555
H66 C70 1_555 1_555
C71 C70 1_555 1_555
H67 C71 1_555 1_555
C72 C71 1_555 1_555
H68 C72 1_555 1_555
H69 C72 1_555 1_555
H70 C72 1_555 1_555
C73 C71 1_555 1_555
H71 C73 1_555 1_555
H72 C73 1_555 1_555
H73 C73 1_555 1_555
C74 Si7 1_555 1_555
H74 C74 1_555 1_555
H75 C74 1_555 1_555
C75 C74 1_555 1_555
H76 C75 1_555 1_555
C76 C75 1_555 1_555
H77 C76 1_555 1_555
H78 C76 1_555 1_555
H79 C76 1_555 1_555
C77 C75 1_555 1_555
H80 C77 1_555 1_555
H81 C77 1_555 1_555
H82 C77 1_555 1_555
C78 Si8 1_555 1_555
H83 C78 1_555 1_555
H84 C78 1_555 1_555
C79 C78 1_555 1_555
H85 C79 1_555 1_555
C80 C79 1_555 1_555
H86 C80 1_555 1_555
H87 C80 1_555 1_555
H88 C80 1_555 1_555
C81 C79 1_555 1_555
H89 C81 1_555 1_555
H90 C81 1_555 1_555
H91 C81 1_555 1_555
C82 Si5 1_555 1_555
H92 C82 1_555 1_555
H93 C82 1_555 1_555
C83 C82 1_555 1_555
H94 C83 1_555 1_555
C84 C83 1_555 1_555
H95 C84 1_555 1_555
H96 C84 1_555 1_555
H97 C84 1_555 1_555
C85 C83 1_555 1_555
H98 C85 1_555 1_555
H99 C85 1_555 1_555
H100 C85 1_555 1_555
C86 Si6 1_555 1_555
H101 C86 1_555 1_555
H102 C86 1_555 1_555
C87 C86 1_555 1_555
H103 C87 1_555 1_555
C88 C87 1_555 1_555
H104 C88 1_555 1_555
H105 C88 1_555 1_555
H106 C88 1_555 1_555
C89 C87 1_555 1_555
H107 C89 1_555 1_555
H108 C89 1_555 1_555
H109 C89 1_555 1_555
C90 Si3 1_555 1_555
H110 C90 1_555 1_555
H111 C90 1_555 1_555
C91 H112 1_555 1_555
H113 C91 1_555 1_555
H114 C91 1_555 1_555
C92 C90 1_555 1_555
H115 C92 1_555 1_555
C93 C92 1_555 1_555
H116 C93 1_555 1_555
H117 C93 1_555 1_555
H118 C93 1_555 1_555
C94 Si4 1_555 1_555
H119 C94 1_555 1_555
H120 C94 1_555 1_555
C95 C94 1_555 1_555
H121 C95 1_555 1_555
C96 C95 1_555 1_555
H122 C96 1_555 1_555
H123 C96 1_555 1_555
H124 C96 1_555 1_555
C97 C95 1_555 1_555
H125 C97 1_555 1_555
H126 C97 1_555 1_555
H127 C97 1_555 1_555
C98 N2 1_555 1_555
H128 C98 1_555 1_555
H129 C98 1_555 1_555
C99 C98 1_555 1_555
H130 C99 1_555 1_555
H131 C99 1_555 1_555
C100 Si9 1_555 1_555
H132 C100 1_555 1_555
H133 C100 1_555 1_555
C101 Si10 1_555 1_555
H134 C101 1_555 1_555
H135 C101 1_555 1_555
C102 C101 1_555 1_555
H136 C102 1_555 1_555
C103 C102 1_555 1_555
H137 C103 1_555 1_555
H138 C103 1_555 1_555
H139 C103 1_555 1_555
C104 C102 1_555 1_555
H140 C104 1_555 1_555
H141 C104 1_555 1_555
H142 C104 1_555 1_555
C105 Si11 1_555 1_555
H143 C105 1_555 1_555
H144 C105 1_555 1_555
C106 C105 1_555 1_555
H145 C106 1_555 1_555
C107 C106 1_555 1_555
H146 C107 1_555 1_555
H147 C107 1_555 1_555
H148 C107 1_555 1_555
C108 C106 1_555 1_555
H149 C108 1_555 1_555
H150 C108 1_555 1_555
H151 C108 1_555 1_555
C109 Si13 1_555 1_555
H152 C109 1_555 1_555
H153 C109 1_555 1_555
C110 C109 1_555 1_555
H154 C110 1_555 1_555
C111 C110 1_555 1_555
H155 C111 1_555 1_555
H156 C111 1_555 1_555
H157 C111 1_555 1_555
C112 C110 1_555 1_555
H158 C112 1_555 1_555
H159 C112 1_555 1_555
H160 C112 1_555 1_555
C113 Si16 1_555 1_555
H161 C113 1_555 1_555
H162 C113 1_555 1_555
C114 C113 1_555 1_555
H163 C114 1_555 1_555
C115 C114 1_555 1_555
H164 C115 1_555 1_555
H165 C115 1_555 1_555
H166 C115 1_555 1_555
C116 C114 1_555 1_555
H167 C116 1_555 1_555
H168 C116 1_555 1_555
H169 C116 1_555 1_555
C117 Si12 1_555 1_555
H170 C117 1_555 1_555
H171 C117 1_555 1_555
C118 C117 1_555 1_555
H172 C118 1_555 1_555
C119 C118 1_555 1_555
H173 C119 1_555 1_555
H174 C119 1_555 1_555
H175 C119 1_555 1_555
C120 C118 1_555 1_555
H176 C120 1_555 1_555
H177 C120 1_555 1_555
H178 C120 1_555 1_555
C121 Si14 1_555 1_555
H179 C121 1_555 1_555
H180 C121 1_555 1_555
C122 C121 1_555 1_555
H181 C122 1_555 1_555
C123 C122 1_555 1_555
H182 C123 1_555 1_555
H183 C123 1_555 1_555
H184 C123 1_555 1_555
C124 C122 1_555 1_555
H185 C124 1_555 1_555
H186 C124 1_555 1_555
H187 C124 1_555 1_555
C125 Si15 1_555 1_555
H188 C125 1_555 1_555
H189 C125 1_555 1_555
C126 C125 1_555 1_555
H190 C126 1_555 1_555
C127 C126 1_555 1_555
H191 C127 1_555 1_555
H192 C127 1_555 1_555
H193 C127 1_555 1_555
C128 C126 1_555 1_555
H194 C128 1_555 1_555
H195 C128 1_555 1_555
H196 C128 1_555 1_555
Si2 O32 1_555 1_555
Si5 O17 1_555 1_555
Si6 O12 1_555 1_555
Si6 O29 1_555 1_555
Si8 O16 1_555 1_555
Si8 O18 1_555 1_555
Si10 O28 1_555 1_555
Si12 O25 1_555 1_555
Si13 O26 1_555 1_555
Si14 O27 1_555 1_555
Si15 O30 1_555 1_555
Si16 O23 1_555 1_555
Si16 O31 1_555 1_555
C14 C26 1_555 1_555
C17 C25 1_555 1_555
C18 C24 1_555 1_555
C21 C22 1_555 1_555
C21 C23 1_555 1_555
C23 C24 1_555 1_555
C25 C26 1_555 1_555
C31 C32 1_555 1_555
C41 C42 1_555 1_555
C51 C52 1_555 1_555
C61 C62 1_555 1_555
C68 C69 1_555 1_555
C91 C92 1_555 1_555
C99 C100 1_555 1_555

#END
