
#######################################################################
#
#                 Cambridge Crystallographic Data Centre
#                                CCDC 
#
#######################################################################
#
# If this CIF has been generated from an entry in the Cambridge 
# Structural Database, then it will include bibliographic, chemical, 
# crystal, experimental, refinement or atomic coordinate data resulting 
# from the CCDC's data processing and validation procedures.
#
#######################################################################

data_LUCMUT
_chemical_formula_moiety         'C13 H8 Br2 N2 O3'
_chemical_name_systematic        
2,4-dibromo-6-(((2-nitrophenyl)imino)methyl)phenol
_symmetry_cell_setting           monoclinic
_symmetry_space_group_name_H-M   'P 21/c'
_symmetry_Int_Tables_number      14
_space_group_name_Hall           '-P 2ybc'
loop_
_symmetry_equiv_pos_site_id
_symmetry_equiv_pos_as_xyz
1 x,y,z
2 -x,1/2+y,1/2-z
3 -x,-y,-z
4 x,1/2-y,1/2+z
_cell_length_a                   12.794(3)
_cell_length_b                   7.2041(15)
_cell_length_c                   14.862(3)
_cell_angle_alpha                90
_cell_angle_beta                 93.355(5)
_cell_angle_gamma                90
_cell_volume                     1367.47
_exptl_crystal_colour            colorless
_exptl_crystal_description       Prism
_cell_formula_units_Z            4
loop_
_atom_site_label
_atom_site_type_symbol
_atom_site_fract_x
_atom_site_fract_y
_atom_site_fract_z
Br1 Br 0.05714(3) 0.59669(5) 0.29260(2)
Br2 Br 0.14282(4) 0.30701(6) -0.04929(3)
N1 N 0.5422(2) 0.2902(3) 0.45919(18)
N2 N 0.4774(2) 0.4385(3) 0.28812(17)
O1 O 0.5551(2) 0.3245(4) 0.53993(16)
O2 O 0.4707(2) 0.1948(3) 0.42710(16)
O3 O 0.2876(2) 0.5383(3) 0.32725(15)
H1 H 0.348(4) 0.523(5) 0.337(3)
C1 C 0.6185(3) 0.3643(4) 0.3990(2)
C2 C 0.7223(3) 0.3667(4) 0.4305(2)
H2 H 0.7419 0.3324 0.4909
C3 C 0.7968(3) 0.4200(4) 0.3725(2)
H3 H 0.8687 0.4205 0.3925
C4 C 0.7673(3) 0.4729(4) 0.2849(2)
H4 H 0.8193 0.5068 0.2449
C5 C 0.6624(3) 0.4766(4) 0.2554(2)
H5 H 0.6431 0.5176 0.1959
C6 C 0.5847(3) 0.4208(4) 0.3120(2)
C7 C 0.4412(2) 0.3997(4) 0.20820(19)
H6 H 0.4875 0.3547 0.1655
C8 C 0.3306(3) 0.4229(4) 0.1812(2)
C9 C 0.2955(3) 0.3732(4) 0.0939(2)
H7 H 0.3439 0.3308 0.0524
C10 C 0.1911(3) 0.3857(4) 0.0679(2)
C11 C 0.1186(3) 0.4495(4) 0.1268(2)
H8 H 0.0464 0.4576 0.1083
C12 C 0.1539(3) 0.5010(4) 0.2130(2)
C13 C 0.2587(3) 0.4882(4) 0.2426(2)
loop_
_geom_bond_atom_site_label_1
_geom_bond_atom_site_label_2
_geom_bond_site_symmetry_1
_geom_bond_site_symmetry_2
Br1 C12 1_555 1_555
Br2 C10 1_555 1_555
N1 O1 1_555 1_555
N2 C6 1_555 1_555
O2 N1 1_555 1_555
O3 H1 1_555 1_555
C1 N1 1_555 1_555
C2 C1 1_555 1_555
H2 C2 1_555 1_555
C3 C2 1_555 1_555
H3 C3 1_555 1_555
C4 C3 1_555 1_555
H4 C4 1_555 1_555
C5 C4 1_555 1_555
H5 C5 1_555 1_555
C6 C1 1_555 1_555
C7 N2 1_555 1_555
H6 C7 1_555 1_555
C8 C7 1_555 1_555
C9 C8 1_555 1_555
H7 C9 1_555 1_555
C10 C9 1_555 1_555
C11 C10 1_555 1_555
H8 C11 1_555 1_555
C12 C11 1_555 1_555
C13 O3 1_555 1_555
C5 C6 1_555 1_555
C8 C13 1_555 1_555
C12 C13 1_555 1_555

#END
