
#######################################################################
#
#                 Cambridge Crystallographic Data Centre
#                                CCDC 
#
#######################################################################
#
# If this CIF has been generated from an entry in the Cambridge 
# Structural Database, then it will include bibliographic, chemical, 
# crystal, experimental, refinement or atomic coordinate data resulting 
# from the CCDC's data processing and validation procedures.
#
#######################################################################

data_LUCPAC
_chemical_formula_moiety         'C17 H17 N1 O2 S1'
_chemical_name_systematic        
6,7-dimethoxy-1-(phenylsulfanyl)-3,4-dihydroisoquinoline
_symmetry_cell_setting           monoclinic
_symmetry_space_group_name_H-M   'P 21/c'
_symmetry_Int_Tables_number      14
_space_group_name_Hall           '-P 2ybc'
loop_
_symmetry_equiv_pos_site_id
_symmetry_equiv_pos_as_xyz
1 x,y,z
2 -x,1/2+y,1/2-z
3 -x,-y,-z
4 x,1/2-y,1/2+z
_cell_length_a                   19.1715(9)
_cell_length_b                   8.6293(9)
_cell_length_c                   9.3029(17)
_cell_angle_alpha                90
_cell_angle_beta                 102.648(5)
_cell_angle_gamma                90
_cell_volume                     1501.69
_exptl_crystal_colour            colorless
_exptl_crystal_description       plate
_cell_formula_units_Z            4
loop_
_atom_site_label
_atom_site_type_symbol
_atom_site_fract_x
_atom_site_fract_y
_atom_site_fract_z
S1 S 0.26293(2) 0.80906(5) 0.52094(4)
O1 O 0.06775(6) 0.22137(13) 0.20662(13)
O2 O 0.07151(6) 0.50740(12) 0.12869(12)
N1 N 0.33649(7) 0.55390(16) 0.62324(14)
C1 C 0.34566(8) 0.89180(18) 0.61018(16)
C2 C 0.38194(9) 0.9834(2) 0.52865(18)
H1 H 0.3651 0.9930 0.4274
C3 C 0.44353(9) 1.0609(2) 0.5983(2)
H2 H 0.4673 1.1245 0.5439
C4 C 0.46967(9) 1.0438(2) 0.7479(2)
H3 H 0.5113 1.0947 0.7945
C5 C 0.43341(10) 0.9502(2) 0.82807(19)
H4 H 0.4512 0.9376 0.9287
C6 C 0.37126(9) 0.8756(2) 0.76057(17)
H5 H 0.3467 0.8149 0.8157
C7 C 0.27886(8) 0.60526(18) 0.54182(15)
C8 C 0.34405(9) 0.38476(19) 0.62791(18)
H6 H 0.3797 0.3559 0.7148
H7 H 0.3609 0.3506 0.5422
C9 C 0.27427(9) 0.3026(2) 0.63098(17)
H8 H 0.2808 0.1913 0.6278
H9 H 0.2591 0.3280 0.7211
C10 C 0.21841(8) 0.35422(18) 0.49927(16)
C11 C 0.16675(9) 0.25593(18) 0.41874(17)
H10 H 0.1645 0.1533 0.4480
C12 C 0.11864(9) 0.30966(18) 0.29525(17)
C13 C 0.12067(8) 0.46592(18) 0.25244(16)
C14 C 0.17132(8) 0.56371(18) 0.33280(16)
H11 H 0.1727 0.6671 0.3053
C15 C 0.22093(8) 0.50820(18) 0.45595(15)
C16 C 0.07334(11) 0.0576(2) 0.2244(2)
H12 H 0.0361 0.0084 0.1533
H13 H 0.0687 0.0303 0.3219
H14 H 0.1190 0.0238 0.2101
C17 C 0.06509(9) 0.66923(18) 0.09575(19)
H15 H 0.0264 0.6857 0.0123
H16 H 0.1088 0.7063 0.0736
H17 H 0.0558 0.7244 0.1792
loop_
_geom_bond_atom_site_label_1
_geom_bond_atom_site_label_2
_geom_bond_site_symmetry_1
_geom_bond_site_symmetry_2
S1 C1 1_555 1_555
O1 C12 1_555 1_555
O2 C13 1_555 1_555
N1 C7 1_555 1_555
C1 C2 1_555 1_555
C2 H1 1_555 1_555
C3 C2 1_555 1_555
H2 C3 1_555 1_555
C4 C3 1_555 1_555
H3 C4 1_555 1_555
C5 C4 1_555 1_555
H4 C5 1_555 1_555
C6 C1 1_555 1_555
H5 C6 1_555 1_555
C7 S1 1_555 1_555
C8 N1 1_555 1_555
H6 C8 1_555 1_555
H7 C8 1_555 1_555
C9 C8 1_555 1_555
H8 C9 1_555 1_555
H9 C9 1_555 1_555
C10 C9 1_555 1_555
C11 C10 1_555 1_555
H10 C11 1_555 1_555
C12 C11 1_555 1_555
C13 C12 1_555 1_555
C14 C13 1_555 1_555
H11 C14 1_555 1_555
C15 C7 1_555 1_555
C16 O1 1_555 1_555
H12 C16 1_555 1_555
H13 C16 1_555 1_555
H14 C16 1_555 1_555
C17 O2 1_555 1_555
H15 C17 1_555 1_555
H16 C17 1_555 1_555
H17 C17 1_555 1_555
C5 C6 1_555 1_555
C10 C15 1_555 1_555
C14 C15 1_555 1_555

#END
