
#######################################################################
#
#                 Cambridge Crystallographic Data Centre
#                                CCDC 
#
#######################################################################
#
# If this CIF has been generated from an entry in the Cambridge 
# Structural Database, then it will include bibliographic, chemical, 
# crystal, experimental, refinement or atomic coordinate data resulting 
# from the CCDC's data processing and validation procedures.
#
#######################################################################

data_LUCQIL
_chemical_formula_moiety         'C10 H11 O3 1-,C7 H7 N2 1+,H2 O1'
_chemical_name_systematic        
'1H-benzimidazol-3-ium 2-methyl-2-phenoxypropanoate monohydrate'
_symmetry_cell_setting           triclinic
_symmetry_space_group_name_H-M   'P -1'
_symmetry_Int_Tables_number      2
_space_group_name_Hall           '-P 1'
loop_
_symmetry_equiv_pos_site_id
_symmetry_equiv_pos_as_xyz
1 x,y,z
2 -x,-y,-z
_cell_length_a                   9.3113(8)
_cell_length_b                   12.2490(9)
_cell_length_c                   16.2590(17)
_cell_angle_alpha                104.871(2)
_cell_angle_beta                 106.6240(10)
_cell_angle_gamma                99.5430(10)
_cell_volume                     1659.1
_exptl_crystal_colour            colorless
_exptl_crystal_description       block
_cell_formula_units_Z            4
loop_
_atom_site_label
_atom_site_type_symbol
_atom_site_fract_x
_atom_site_fract_y
_atom_site_fract_z
N1 N 0.6328(5) 0.4707(4) 0.3629(3)
H1 H 0.6642 0.4112 0.3411
N2 N 0.5107(5) 0.6071(4) 0.3686(3)
H2 H 0.4519 0.6501 0.3514
C1 C 0.5376(7) 0.5190(5) 0.3160(3)
H3 H 0.4949 0.4933 0.2531
C2 C 0.5951(6) 0.6191(4) 0.4584(3)
C3 C 0.6728(6) 0.5329(4) 0.4533(3)
C4 C 0.7705(8) 0.5217(6) 0.5330(4)
H4 H 0.8222 0.4628 0.5309
C5 C 0.7863(8) 0.6003(6) 0.6132(4)
H5 H 0.8533 0.5970 0.6667
C6 C 0.7041(8) 0.6861(6) 0.6169(4)
H6 H 0.7153 0.7370 0.6731
C7 C 0.6061(7) 0.6972(5) 0.5390(4)
H7 H 0.5511 0.7541 0.5412
N3 N -0.0221(5) 0.1064(4) 0.3628(3)
H8 H -0.0893 0.1178 0.3193
N4 N 0.1548(5) 0.0352(4) 0.4338(3)
H9 H 0.2193 -0.0069 0.4430
C8 C 0.0650(6) 0.0338(5) 0.3541(4)
H10 H 0.0638 -0.0129 0.2987
C9 C 0.1270(6) 0.1151(5) 0.4990(3)
C10 C 0.0128(6) 0.1613(5) 0.4540(3)
C11 C -0.0438(7) 0.2460(5) 0.4986(4)
H11 H -0.1194 0.2767 0.4682
C12 C 0.0212(8) 0.2824(6) 0.5933(4)
H12 H -0.0131 0.3393 0.6270
C13 C 0.1330(7) 0.2378(6) 0.6385(4)
H13 H 0.1718 0.2655 0.7016
C14 C 0.1902(7) 0.1529(6) 0.5933(4)
H14 H 0.2661 0.1228 0.6241
O1 O 0.3506(5) 0.7567(4) 0.3322(3)
O2 O 0.2150(7) 0.8567(5) 0.2598(3)
O3 O 0.3515(4) 0.6203(3) 0.1688(2)
C15 C 0.2641(7) 0.7693(5) 0.2615(4)
C16 C 0.2202(6) 0.6676(5) 0.1726(3)
C17 C 0.1061(8) 0.5706(6) 0.1783(5)
H15 H 0.0757 0.5043 0.1245
H16 H 0.0163 0.5964 0.1837
H17 H 0.1531 0.5489 0.2304
C18 C 0.1536(8) 0.7021(6) 0.0876(4)
H18 H 0.2253 0.7694 0.0893
H19 H 0.0566 0.7201 0.0860
H20 H 0.1374 0.6383 0.0344
C19 C 0.4740(6) 0.6811(5) 0.1526(3)
C20 C 0.5253(7) 0.8002(5) 0.1796(4)
H21 H 0.4751 0.8471 0.2099
C21 C 0.6549(7) 0.8515(6) 0.1614(4)
H22 H 0.6897 0.9324 0.1778
C22 C 0.7284(8) 0.7801(7) 0.1191(4)
H23 H 0.8137 0.8134 0.1066
C23 C 0.6807(7) 0.6627(7) 0.0948(4)
H24 H 0.7341 0.6164 0.0669
C24 C 0.5529(6) 0.6110(5) 0.1111(4)
H25 H 0.5200 0.5300 0.0945
O4 O 0.7951(5) 0.1463(4) 0.2226(2)
O5 O 0.7126(6) 0.2760(4) 0.3088(3)
O6 O 0.5209(4) 0.3056(3) 0.1576(2)
C25 C 0.7237(6) 0.2249(5) 0.2345(4)
C26 C 0.6554(6) 0.2632(5) 0.1522(3)
C27 C 0.6184(7) 0.1696(6) 0.0632(4)
H26 H 0.5417 0.1032 0.0583
H27 H 0.7108 0.1466 0.0599
H28 H 0.5790 0.1993 0.0144
C28 C 0.7716(8) 0.3707(6) 0.1611(5)
H29 H 0.7342 0.3966 0.1099
H30 H 0.8688 0.3526 0.1633
H31 H 0.7858 0.4314 0.2158
C29 C 0.3850(6) 0.2315(5) 0.1461(3)
C30 C 0.2538(7) 0.2725(6) 0.1201(4)
H32 H 0.2632 0.3439 0.1095
C31 C 0.1120(8) 0.2088(7) 0.1102(5)
H33 H 0.0255 0.2377 0.0939
C32 C 0.0958(8) 0.1016(7) 0.1241(5)
H34 H -0.0019 0.0581 0.1162
C33 C 0.2222(9) 0.0591(7) 0.1493(5)
H35 H 0.2126 -0.0118 0.1609
C34 C 0.3661(8) 0.1246(6) 0.1574(5)
H36 H 0.4518 0.0941 0.1710
O7 O 0.3641(5) 0.9167(4) 0.4807(3)
H37 H 0.3561 0.8636 0.4330
H38 H 0.4467 0.9698 0.4951
O8 O 0.5361(11) 0.0678(7) 0.3532(6)
H40 H 0.5626 0.1171 0.3283
H41 H 0.5308 0.1023 0.4044
H39? H 0.4014 0.9012 0.5293
H42? H 0.4492 0.0212 0.3181
loop_
_geom_bond_atom_site_label_1
_geom_bond_atom_site_label_2
_geom_bond_site_symmetry_1
_geom_bond_site_symmetry_2
N1 H1 1_555 1_555
N2 H2 1_555 1_555
C1 N1 1_555 1_555
H3 C1 1_555 1_555
C2 N2 1_555 1_555
C3 N1 1_555 1_555
C4 C3 1_555 1_555
H4 C4 1_555 1_555
C5 C4 1_555 1_555
H5 C5 1_555 1_555
C6 C5 1_555 1_555
H6 C6 1_555 1_555
C7 C2 1_555 1_555
H7 C7 1_555 1_555
N3 H8 1_555 1_555
N4 H9 1_555 1_555
C8 N3 1_555 1_555
H10 C8 1_555 1_555
C9 N4 1_555 1_555
C10 N3 1_555 1_555
C11 C10 1_555 1_555
H11 C11 1_555 1_555
C12 C11 1_555 1_555
H12 C12 1_555 1_555
C13 C12 1_555 1_555
H13 C13 1_555 1_555
C14 C9 1_555 1_555
H14 C14 1_555 1_555
O1 C15 1_555 1_555
O2 C15 1_555 1_555
O3 C16 1_555 1_555
C15 C16 1_555 1_555
C16 C17 1_555 1_555
C17 H15 1_555 1_555
H16 C17 1_555 1_555
H17 C17 1_555 1_555
C18 C16 1_555 1_555
H18 C18 1_555 1_555
H19 C18 1_555 1_555
H20 C18 1_555 1_555
C19 O3 1_555 1_555
C20 C19 1_555 1_555
H21 C20 1_555 1_555
C21 C20 1_555 1_555
H22 C21 1_555 1_555
C22 C21 1_555 1_555
H23 C22 1_555 1_555
C23 C22 1_555 1_555
H24 C23 1_555 1_555
C24 C19 1_555 1_555
H25 C24 1_555 1_555
O4 C25 1_555 1_555
O5 C25 1_555 1_555
O6 C26 1_555 1_555
C25 C26 1_555 1_555
C26 C27 1_555 1_555
C27 H26 1_555 1_555
H27 C27 1_555 1_555
H28 C27 1_555 1_555
C28 C26 1_555 1_555
H29 C28 1_555 1_555
H30 C28 1_555 1_555
H31 C28 1_555 1_555
C29 O6 1_555 1_555
C30 C29 1_555 1_555
H32 C30 1_555 1_555
C31 C30 1_555 1_555
H33 C31 1_555 1_555
C32 C31 1_555 1_555
H34 C32 1_555 1_555
C33 C32 1_555 1_555
H35 C33 1_555 1_555
C34 C29 1_555 1_555
H36 C34 1_555 1_555
O7 H37 1_555 1_555
H38 O7 1_555 1_555
O8 H40 1_555 1_555
H41 O8 1_555 1_555
N2 C1 1_555 1_555
C2 C3 1_555 1_555
C6 C7 1_555 1_555
N4 C8 1_555 1_555
C9 C10 1_555 1_555
C13 C14 1_555 1_555
C23 C24 1_555 1_555
C33 C34 1_555 1_555

#END
