
#######################################################################
#
#                 Cambridge Crystallographic Data Centre
#                                CCDC 
#
#######################################################################
#
# If this CIF has been generated from an entry in the Cambridge 
# Structural Database, then it will include bibliographic, chemical, 
# crystal, experimental, refinement or atomic coordinate data resulting 
# from the CCDC's data processing and validation procedures.
#
#######################################################################

data_LUCRAD
_chemical_name_common            'Ammonium trinitrophloroglucinolate'
_chemical_formula_moiety         'H4 N1 1+,C6 H2 N3 O9 1-'
_chemical_name_systematic        
'Ammonium 3,5-dihydroxy-2,4,6-trinitrophenolate'
_symmetry_cell_setting           monoclinic
_symmetry_space_group_name_H-M   'C 2/c'
_symmetry_Int_Tables_number      15
_space_group_name_Hall           '-C 2yn'
loop_
_symmetry_equiv_pos_site_id
_symmetry_equiv_pos_as_xyz
1 x,y,z
2 -x,y,1/2-z
3 1/2+x,1/2+y,z
4 1/2-x,1/2+y,1/2-z
5 -x,-y,-z
6 x,-y,1/2+z
7 1/2-x,1/2-y,-z
8 1/2+x,1/2-y,1/2+z
_cell_length_a                   9.3065(19)
_cell_length_b                   21.144(6)
_cell_length_c                   9.797(2)
_cell_angle_alpha                90
_cell_angle_beta                 99.56(3)
_cell_angle_gamma                90
_cell_volume                     1901.05
_exptl_crystal_colour            yellow
_exptl_crystal_description       needle
_cell_formula_units_Z            8
_chemical_properties_physical    friction-sensitive
_exptl_crystal_recrystallization_method water
_exptl_crystal_preparation       explosive
loop_
_atom_site_label
_atom_site_type_symbol
_atom_site_fract_x
_atom_site_fract_y
_atom_site_fract_z
O1 O 0.0000 0.45740(6) 0.2500
O2 O 0.04356(13) 0.43244(5) -0.02486(12)
O3 O 0.25031(11) 0.38428(5) 0.02803(12)
O4 O 0.14190(12) 0.26711(5) 0.06399(11)
H1 H 0.140(2) 0.2308(9) 0.079(2)
O5 O -0.06351(12) 0.16518(4) 0.33356(12)
N1 N 0.12374(13) 0.39483(5) 0.04505(13)
N2 N 0.0000 0.19534(7) 0.2500
C1 C 0.0000 0.39810(9) 0.2500
C2 C 0.06602(15) 0.36082(6) 0.15426(15)
C3 C 0.07246(16) 0.29568(6) 0.15470(15)
C4 C 0.0000 0.26143(9) 0.2500
O2A O -0.04356(13) 0.43244(5) 0.52486(12)
O3A O -0.25031(11) 0.38428(5) 0.47197(12)
O4A O -0.14190(12) 0.26711(5) 0.43601(11)
H1A H -0.140(2) 0.2308(9) 0.421(2)
O5A O 0.06351(12) 0.16518(4) 0.16644(12)
N1A N -0.12374(13) 0.39483(5) 0.45495(13)
C2A C -0.06602(15) 0.36082(6) 0.34574(15)
C3A C -0.07246(16) 0.29568(6) 0.34530(15)
O6 O 0.0000 0.03193(6) 0.7500
O7 O 0.13998(13) 0.04006(4) 0.54282(13)
O8 O 0.23110(12) 0.12947(5) 0.49503(11)
O9 O 0.15990(12) 0.22889(5) 0.58959(11)
H2 H 0.2019(19) 0.2025(8) 0.5497(19)
O10 O 0.11718(13) 0.32316(4) 0.75391(12)
N3 N 0.15154(13) 0.09676(5) 0.56440(13)
N4 N 0.0000 0.29588(7) 0.7500
C5 C 0.0000 0.09058(9) 0.7500
C6 C 0.07955(16) 0.12809(6) 0.66161(15)
C7 C 0.08440(16) 0.19521(6) 0.66618(15)
C8 C 0.0000 0.22702(8) 0.7500
O7A O -0.13998(13) 0.04006(4) 0.95718(13)
O8A O -0.23110(12) 0.12947(5) 1.00497(11)
O9A O -0.15990(12) 0.22889(5) 0.91041(11)
H2A H -0.2019(19) 0.2025(8) 0.9503(19)
O10A O -0.11718(13) 0.32316(4) 0.74609(12)
N3A N -0.15154(13) 0.09676(5) 0.93560(13)
C6A C -0.07955(16) 0.12809(6) 0.83839(15)
C7A C -0.08440(16) 0.19521(6) 0.83382(15)
N5 N 0.26106(16) 0.04522(6) 0.25758(15)
H3 H 0.178(2) 0.0243(8) 0.2493(19)
H4 H 0.343(2) 0.0199(8) 0.2619(19)
H5 H 0.256(2) 0.0683(8) 0.181(2)
H6 H 0.269(2) 0.0697(8) 0.333(2)
loop_
_geom_bond_atom_site_label_1
_geom_bond_atom_site_label_2
_geom_bond_site_symmetry_1
_geom_bond_site_symmetry_2
O1 C1 1_555 1_555
O2 N1 1_555 1_555
O3 N1 1_555 1_555
O4 H1 1_555 1_555
O5 N2 1_555 1_555
O6 C5 1_555 1_555
O7 N3 1_555 1_555
O8 N3 1_555 1_555
O9 H2 1_555 1_555
O10 N4 1_555 1_555
N1 C2 1_555 1_555
N2 C4 1_555 1_555
N3 C6 1_555 1_555
N4 C8 1_555 1_555
C1 C2 1_555 1_555
C2 C3 1_555 1_555
C3 O4 1_555 1_555
C4 C3 1_555 1_555
C5 C6 1_555 1_555
C6 C7 1_555 1_555
C7 O9 1_555 1_555
C8 C7 1_555 1_555
N5 H3 1_555 1_555
H4 N5 1_555 1_555
H5 N5 1_555 1_555
H6 N5 1_555 1_555
O2A N1A 1_555 1_555
O3A N1A 1_555 1_555
O4A H1A 1_555 1_555
O5A N2 1_555 1_555
O7A N3A 1_555 1_555
O8A N3A 1_555 1_555
O9A H2A 1_555 1_555
O10A N4 1_555 1_555
N1A C2A 1_555 1_555
N3A C6A 1_555 1_555
C2A C1 1_555 1_555
C3A C4 1_555 1_555
C6A C5 1_555 1_555
C7A C8 1_555 1_555
O4A C3A 1_555 1_555
O9A C7A 1_555 1_555
C2A C3A 1_555 1_555
C6A C7A 1_555 1_555

#END
