
#######################################################################
#
#                 Cambridge Crystallographic Data Centre
#                                CCDC 
#
#######################################################################
#
# If this CIF has been generated from an entry in the Cambridge 
# Structural Database, then it will include bibliographic, chemical, 
# crystal, experimental, refinement or atomic coordinate data resulting 
# from the CCDC's data processing and validation procedures.
#
#######################################################################

data_LUCTAG
_chemical_formula_moiety         'C5 H5 O5 1-,C3 H5 N2 1+'
_chemical_name_systematic        '1H-Imidazol-3-ium 4-carboxy-2-oxobutanoate'
_symmetry_cell_setting           monoclinic
_symmetry_space_group_name_H-M   'P 21/c'
_symmetry_Int_Tables_number      14
_space_group_name_Hall           '-P 2ybc'
loop_
_symmetry_equiv_pos_site_id
_symmetry_equiv_pos_as_xyz
1 x,y,z
2 -x,1/2+y,1/2-z
3 -x,-y,-z
4 x,1/2-y,1/2+z
_cell_length_a                   8.1679(5)
_cell_length_b                   11.5683(10)
_cell_length_c                   10.0510(9)
_cell_angle_alpha                90
_cell_angle_beta                 94.4530(10)
_cell_angle_gamma                90
_cell_volume                     946.839
_exptl_crystal_colour            colorless
_exptl_crystal_description       block
_cell_formula_units_Z            4
loop_
_atom_site_label
_atom_site_type_symbol
_atom_site_fract_x
_atom_site_fract_y
_atom_site_fract_z
O1 O 0.36163(17) 0.19019(12) 1.08999(14)
O2 O 0.01002(18) 0.41748(11) 0.73422(14)
H1 H -0.0555 0.4261 0.6689
O3 O 0.21593(17) -0.07596(11) 0.97289(14)
O4 O 0.40825(17) -0.03985(12) 1.13749(14)
O5 O -0.0331(2) 0.23310(13) 0.68794(17)
C1 C 0.3057(2) -0.00977(17) 1.04584(19)
C2 C 0.2874(2) 0.12147(16) 1.01699(19)
C3 C 0.0335(2) 0.30602(17) 0.7568(2)
C4 C 0.1518(2) 0.28263(16) 0.8758(2)
H2 H 0.1116 0.3186 0.9541
H3 H 0.2575 0.3165 0.8613
C5 C 0.1723(2) 0.15409(16) 0.8998(2)
H4 H 0.0653 0.1212 0.9123
H5 H 0.2114 0.1193 0.8204
N1 N 0.59085(19) 0.08056(14) 0.32027(17)
H6 H 0.5315 0.0564 0.2515
N2 N 0.7168(2) 0.19274(16) 0.46197(18)
H7 H 0.7531 0.2546 0.5014
C6 C 0.6226(2) 0.18928(18) 0.3499(2)
H8 H 0.5848 0.2530 0.3001
C7 C 0.6677(2) 0.01224(19) 0.4168(2)
H9 H 0.6651 -0.0681 0.4203
C8 C 0.7480(3) 0.08298(19) 0.5058(2)
H10 H 0.8122 0.0612 0.5822
loop_
_geom_bond_atom_site_label_1
_geom_bond_atom_site_label_2
_geom_bond_site_symmetry_1
_geom_bond_site_symmetry_2
O1 C2 1_555 1_555
O2 H1 1_555 1_555
O3 C1 1_555 1_555
O4 C1 1_555 1_555
O5 C3 1_555 1_555
C1 C2 1_555 1_555
C2 C5 1_555 1_555
C3 O2 1_555 1_555
C4 C3 1_555 1_555
H2 C4 1_555 1_555
H3 C4 1_555 1_555
C5 C4 1_555 1_555
H4 C5 1_555 1_555
H5 C5 1_555 1_555
N1 H6 1_555 1_555
N2 H7 1_555 1_555
C6 N1 1_555 1_555
H8 C6 1_555 1_555
C7 N1 1_555 1_555
H9 C7 1_555 1_555
C8 N2 1_555 1_555
H10 C8 1_555 1_555
N2 C6 1_555 1_555
C7 C8 1_555 1_555

#END
