
#######################################################################
#
#                 Cambridge Crystallographic Data Centre
#                                CCDC 
#
#######################################################################
#
# If this CIF has been generated from an entry in the Cambridge 
# Structural Database, then it will include bibliographic, chemical, 
# crystal, experimental, refinement or atomic coordinate data resulting 
# from the CCDC's data processing and validation procedures.
#
#######################################################################

data_LUDDET01
_chemical_name_common            'Benzylammonium 3,5-dinitrosalicylate'
_chemical_formula_moiety         'C7 H10 N1 1+,C7 H3 N2 O7 1-'
_chemical_name_systematic        'Benzylammonium 2-carboxy-4,6-dinitrophenolate'
_symmetry_cell_setting           triclinic
_symmetry_space_group_name_H-M   'P -1'
_symmetry_Int_Tables_number      2
_space_group_name_Hall           '-P 1'
loop_
_symmetry_equiv_pos_site_id
_symmetry_equiv_pos_as_xyz
1 x,y,z
2 -x,-y,-z
_cell_length_a                   9.7082(11)
_cell_length_b                   10.9970(11)
_cell_length_c                   15.9915(17)
_cell_angle_alpha                98.2230(10)
_cell_angle_beta                 102.6500(10)
_cell_angle_gamma                114.105(2)
_cell_volume                     1467.86
_exptl_crystal_colour            colorless
_exptl_crystal_description       block
_chemical_melting_point          '154-155 deg.C'
_cell_formula_units_Z            4
loop_
_atom_site_label
_atom_site_type_symbol
_atom_site_fract_x
_atom_site_fract_y
_atom_site_fract_z
N1 N 0.5813(3) 0.2436(3) 0.26923(18)
H1 H 0.6066 0.2969 0.2325
H2 H 0.5122 0.2585 0.2922
H3 H 0.5379 0.1554 0.2394
C1 C 0.7251(4) 0.2767(4) 0.3411(2)
H4 H 0.6951 0.2283 0.3854
H5 H 0.7779 0.3749 0.3695
C2 C 0.8388(4) 0.2371(4) 0.3078(2)
C3 C 0.9285(4) 0.3166(3) 0.2621(2)
H6 H 0.9218 0.3963 0.2539
C4 C 1.0279(4) 0.2783(4) 0.2285(2)
H7 H 1.0879 0.3321 0.1975
C5 C 1.0390(4) 0.1624(4) 0.2403(3)
H8 H 1.1064 0.1372 0.2172
C6 C 0.9520(5) 0.0831(4) 0.2855(3)
H9 H 0.9595 0.0035 0.2931
C7 C 0.8516(4) 0.1208(4) 0.3206(2)
H10 H 0.7935 0.0674 0.3525
N2 N 0.3259(3) 0.7737(3) 0.30823(18)
H11 H 0.4081 0.7834 0.2889
H12 H 0.3334 0.7420 0.3563
H13 H 0.3260 0.8551 0.3217
C8 C 0.1759(4) 0.6744(4) 0.2376(2)
H14 H 0.1774 0.5865 0.2224
H15 H 0.0872 0.6599 0.2604
C9 C 0.1518(4) 0.7232(3) 0.1561(2)
C10 C 0.1053(4) 0.8252(4) 0.1537(3)
H16 H 0.0846 0.8612 0.2031
C11 C 0.0886(5) 0.8753(4) 0.0808(3)
H17 H 0.0556 0.9436 0.0804
C12 C 0.1208(5) 0.8240(5) 0.0083(3)
H18 H 0.1132 0.8598 -0.0408
C13 C 0.1636(5) 0.7213(5) 0.0079(3)
H19 H 0.1822 0.6851 -0.0422
C14 C 0.1798(4) 0.6698(4) 0.0813(3)
H20 H 0.2095 0.5994 0.0806
N3 N 0.3377(3) 0.0846(3) 0.4369(2)
N4 N 0.0500(3) 0.2551(3) 0.59135(19)
O1 O 0.4235(2) 0.3277(2) 0.36807(14)
O2 O 0.4097(3) 0.5453(2) 0.35767(15)
H21 H 0.4248 0.4773 0.3475
O3 O 0.2948(3) 0.6243(2) 0.43903(14)
O4 O 0.0056(3) 0.3429(3) 0.60751(19)
O5 O 0.0159(3) 0.1555(3) 0.62268(19)
O6 O 0.3449(3) 0.0156(3) 0.4897(2)
O7 O 0.3619(3) 0.0633(2) 0.36523(18)
C15 C 0.3286(4) 0.5331(3) 0.4143(2)
C16 C 0.2845(3) 0.4065(3) 0.44635(18)
C17 C 0.3390(3) 0.3078(3) 0.42033(19)
C18 C 0.2926(4) 0.1935(3) 0.4584(2)
C19 C 0.2035(4) 0.1781(3) 0.5150(2)
H22 H 0.1794 0.1038 0.5402
C20 C 0.1494(4) 0.2730(3) 0.5344(2)
C21 C 0.1903(3) 0.3865(3) 0.50001(19)
H23 H 0.1531 0.4501 0.5136
N5 N 0.4443(3) 0.0562(3) 0.85673(18)
N6 N 0.3079(3) 0.2981(3) 1.07619(18)
O8 O 0.4277(3) 0.2499(2) 0.75235(14)
O9 O 0.3706(3) 0.4455(2) 0.73173(14)
H24 H 0.3897 0.3796 0.7226
O10 O 0.3155(3) 0.5536(2) 0.83574(16)
O11 O 0.2846(3) 0.3955(3) 1.10322(16)
O12 O 0.3107(3) 0.2140(3) 1.11868(16)
O13 O 0.4175(3) -0.0341(2) 0.89671(16)
O14 O 0.5003(3) 0.0531(2) 0.79494(15)
C22 C 0.3442(4) 0.4600(3) 0.8086(2)
C23 C 0.3540(3) 0.3593(3) 0.8598(2)
C24 C 0.3994(3) 0.2568(3) 0.8269(2)
C25 C 0.4062(3) 0.1678(3) 0.8830(2)
C26 C 0.3758(3) 0.1805(3) 0.9630(2)
H25 H 0.3824 0.1210 0.9978
C27 C 0.3359(4) 0.2816(3) 0.9909(2)
C28 C 0.3245(3) 0.3701(3) 0.9399(2)
H26 H 0.2965 0.4377 0.9600
loop_
_geom_bond_atom_site_label_1
_geom_bond_atom_site_label_2
_geom_bond_site_symmetry_1
_geom_bond_site_symmetry_2
N1 H1 1_555 1_555
H2 N1 1_555 1_555
H3 N1 1_555 1_555
C1 N1 1_555 1_555
H4 C1 1_555 1_555
H5 C1 1_555 1_555
C2 C1 1_555 1_555
C3 C2 1_555 1_555
H6 C3 1_555 1_555
C4 C3 1_555 1_555
H7 C4 1_555 1_555
C5 C4 1_555 1_555
H8 C5 1_555 1_555
C6 C5 1_555 1_555
H9 C6 1_555 1_555
C7 C2 1_555 1_555
H10 C7 1_555 1_555
N2 H11 1_555 1_555
H12 N2 1_555 1_555
H13 N2 1_555 1_555
C8 N2 1_555 1_555
H14 C8 1_555 1_555
H15 C8 1_555 1_555
C9 C8 1_555 1_555
C10 C9 1_555 1_555
H16 C10 1_555 1_555
C11 C10 1_555 1_555
H17 C11 1_555 1_555
C12 C11 1_555 1_555
H18 C12 1_555 1_555
C13 C12 1_555 1_555
H19 C13 1_555 1_555
C14 C9 1_555 1_555
H20 C14 1_555 1_555
N3 O6 1_555 1_555
N4 O4 1_555 1_555
O1 C17 1_555 1_555
O2 H21 1_555 1_555
O3 C15 1_555 1_555
O5 N4 1_555 1_555
O7 N3 1_555 1_555
C15 O2 1_555 1_555
C16 C15 1_555 1_555
C17 C16 1_555 1_555
C18 N3 1_555 1_555
C19 C18 1_555 1_555
H22 C19 1_555 1_555
C20 N4 1_555 1_555
C21 C16 1_555 1_555
H23 C21 1_555 1_555
N5 O13 1_555 1_555
N6 O11 1_555 1_555
O8 C24 1_555 1_555
O9 H24 1_555 1_555
O10 C22 1_555 1_555
O12 N6 1_555 1_555
O14 N5 1_555 1_555
C22 O9 1_555 1_555
C23 C22 1_555 1_555
C24 C23 1_555 1_555
C25 N5 1_555 1_555
C26 C25 1_555 1_555
H25 C26 1_555 1_555
C27 N6 1_555 1_555
C28 C23 1_555 1_555
H26 C28 1_555 1_555
C6 C7 1_555 1_555
C13 C14 1_555 1_555
C17 C18 1_555 1_555
C19 C20 1_555 1_555
C20 C21 1_555 1_555
C24 C25 1_555 1_555
C26 C27 1_555 1_555
C27 C28 1_555 1_555

#END
