
#######################################################################
#
#                 Cambridge Crystallographic Data Centre
#                                CCDC 
#
#######################################################################
#
# If this CIF has been generated from an entry in the Cambridge 
# Structural Database, then it will include bibliographic, chemical, 
# crystal, experimental, refinement or atomic coordinate data resulting 
# from the CCDC's data processing and validation procedures.
#
#######################################################################

data_LUDFEV01
_chemical_name_common            'bis(2-picolyl)ammonium perchlorate'
_chemical_formula_moiety         'C12 H14 N3 1+,Cl1 O4 1-'
_chemical_name_systematic        'bis(2-pyridylmethyl)ammonium perchlorate'
_symmetry_cell_setting           orthorhombic
_symmetry_space_group_name_H-M   'P b c a'
_symmetry_Int_Tables_number      61
_space_group_name_Hall           '-P 2ac 2ab'
loop_
_symmetry_equiv_pos_site_id
_symmetry_equiv_pos_as_xyz
1 x,y,z
2 1/2-x,-y,1/2+z
3 1/2+x,1/2-y,-z
4 -x,1/2+y,1/2-z
5 -x,-y,-z
6 1/2+x,y,1/2-z
7 1/2-x,1/2+y,z
8 x,1/2-y,1/2+z
_cell_length_a                   11.1253(9)
_cell_length_b                   14.3480(10)
_cell_length_c                   16.8880(10)
_cell_angle_alpha                90
_cell_angle_beta                 90
_cell_angle_gamma                90
_cell_volume                     2695.76
_exptl_crystal_colour            colorless
_exptl_crystal_description       block
_cell_formula_units_Z            8
loop_
_atom_site_label
_atom_site_type_symbol
_atom_site_fract_x
_atom_site_fract_y
_atom_site_fract_z
N1 N 0.76206(10) 0.84089(8) 0.07385(6)
C1 C 0.78609(12) 0.82876(11) -0.01202(8)
N2 N 0.58150(10) 0.88422(8) -0.02040(7)
C2 C 0.67754(12) 0.85445(9) -0.06027(7)
C3 C 0.68132(14) 0.84915(10) -0.14261(8)
C4 C 0.58126(15) 0.87673(11) -0.18492(9)
C5 C 0.48051(14) 0.90785(10) -0.14438(9)
C6 C 0.48452(13) 0.91001(10) -0.06276(9)
C7 C 0.87139(12) 0.83477(10) 0.12423(8)
N3 N 0.73427(10) 0.89663(9) 0.22193(7)
C8 C 0.84049(11) 0.85610(9) 0.20913(7)
C9 C 0.92259(13) 0.83650(10) 0.26903(8)
C10 C 0.89376(14) 0.86165(11) 0.34583(8)
C11 C 0.78378(15) 0.90379(11) 0.36013(9)
C12 C 0.70768(14) 0.91962(11) 0.29705(9)
H1 H 0.7291(16) 0.8966(12) 0.0817(10)
H2 H 0.7120(17) 0.7986(13) 0.0902(11)
H3 H 0.8083(15) 0.7675(13) -0.0191(10)
H4 H 0.8531(16) 0.8698(12) -0.0238(10)
H5 H 0.7526(17) 0.8307(12) -0.1674(10)
H6 H 0.5807(19) 0.8766(15) -0.2408(14)
H7 H 0.4065(16) 0.9270(12) -0.1697(11)
H8 H 0.4158(15) 0.9331(12) -0.0299(10)
H9 H 0.9308(16) 0.8818(12) 0.1039(11)
H10 H 0.9019(15) 0.7741(13) 0.1191(10)
H11 H 0.9956(18) 0.8097(13) 0.2581(11)
H12 H 0.9486(18) 0.8507(14) 0.3863(12)
H13 H 0.7600(17) 0.9218(12) 0.4110(11)
H14 H 0.6326(17) 0.9479(13) 0.3054(11)
Cl1 Cl 0.61708(3) 0.60672(2) 0.078951(18)
O1 O 0.68081(12) 0.66579(8) 0.13447(7)
O2 O 0.58242(10) 0.66155(9) 0.01168(7)
O3 O 0.69708(10) 0.53416(8) 0.05309(7)
O4 O 0.51412(9) 0.56663(8) 0.11675(6)
loop_
_geom_bond_atom_site_label_1
_geom_bond_atom_site_label_2
_geom_bond_site_symmetry_1
_geom_bond_site_symmetry_2
N1 C1 1_555 1_555
C1 C2 1_555 1_555
N2 C2 1_555 1_555
C2 C3 1_555 1_555
C3 C4 1_555 1_555
C4 C5 1_555 1_555
C5 C6 1_555 1_555
C6 N2 1_555 1_555
C7 N1 1_555 1_555
N3 C8 1_555 1_555
C8 C7 1_555 1_555
C9 C8 1_555 1_555
C10 C9 1_555 1_555
C11 C10 1_555 1_555
C12 N3 1_555 1_555
Cl1 O1 1_555 1_555
O2 Cl1 1_555 1_555
O3 Cl1 1_555 1_555
O4 Cl1 1_555 1_555
H1 N1 1_555 1_555
H2 N1 1_555 1_555
H3 C1 1_555 1_555
H4 C1 1_555 1_555
H5 C3 1_555 1_555
H6 C4 1_555 1_555
H7 C5 1_555 1_555
H8 C6 1_555 1_555
H9 C7 1_555 1_555
H10 C7 1_555 1_555
H11 C9 1_555 1_555
H12 C10 1_555 1_555
H13 C11 1_555 1_555
H14 C12 1_555 1_555
C11 C12 1_555 1_555

#END
