
#######################################################################
#
#                 Cambridge Crystallographic Data Centre
#                                CCDC 
#
#######################################################################
#
# If this CIF has been generated from an entry in the Cambridge 
# Structural Database, then it will include bibliographic, chemical, 
# crystal, experimental, refinement or atomic coordinate data resulting 
# from the CCDC's data processing and validation procedures.
#
#######################################################################

data_LUDLOM
_chemical_formula_moiety         'C42 H30 O2,C1 H1 Cl3'
_chemical_name_systematic        
'5,6,11,12-Tetraphenyl-6,12-dihydrochrysene-6,12-diol chloroform'
_symmetry_cell_setting           monoclinic
_symmetry_space_group_name_H-M   'P 21/c'
_symmetry_Int_Tables_number      14
_space_group_name_Hall           '-P 2ybc'
loop_
_symmetry_equiv_pos_site_id
_symmetry_equiv_pos_as_xyz
1 x,y,z
2 -x,1/2+y,1/2-z
3 -x,-y,-z
4 x,1/2-y,1/2+z
_cell_length_a                   17.962(4)
_cell_length_b                   9.9317(18)
_cell_length_c                   20.157(4)
_cell_angle_alpha                90
_cell_angle_beta                 112.669(3)
_cell_angle_gamma                90
_cell_volume                     3318.08
_exptl_crystal_colour            colorless
_exptl_crystal_description       rod
_cell_formula_units_Z            4
_exptl_crystal_recrystallization_method hexane/chloroform
loop_
_atom_site_label
_atom_site_type_symbol
_atom_site_fract_x
_atom_site_fract_y
_atom_site_fract_z
C1 C 0.04785(14) 0.3653(2) 0.69541(12)
C2 C 0.06613(15) 0.5032(2) 0.70068(12)
C3 C 0.00469(15) 0.5976(3) 0.68377(12)
H1 H 0.0172 0.6908 0.6855
C4 C -0.07455(15) 0.5572(3) 0.66439(13)
H2 H -0.1164 0.6224 0.6521
C5 C -0.09277(15) 0.4220(3) 0.66293(13)
H3 H -0.1470 0.3945 0.6514
C6 C -0.03246(15) 0.3259(3) 0.67814(12)
H4 H -0.0456 0.2330 0.6769
C7 C 0.11546(14) 0.2683(2) 0.71074(12)
C8 C 0.19351(14) 0.3135(2) 0.76606(12)
C9 C 0.24352(14) 0.2030(2) 0.81064(12)
C10 C 0.23810(14) 0.0749(2) 0.77946(13)
C11 C 0.28029(14) -0.0330(3) 0.82027(13)
H5 H 0.2778 -0.1183 0.7982
C12 C 0.32622(15) -0.0174(3) 0.89321(13)
H6 H 0.3549 -0.0917 0.9210
C13 C 0.32997(15) 0.1077(3) 0.92519(13)
H7 H 0.3607 0.1187 0.9752
C14 C 0.28910(14) 0.2160(2) 0.88448(12)
H8 H 0.2919 0.3010 0.9070
C15 C 0.15314(15) 0.5486(2) 0.72143(12)
C16 C 0.21199(14) 0.4458(2) 0.77261(12)
C17 C 0.18649(14) 0.0595(2) 0.69978(13)
C18 C 0.11075(14) 0.1478(2) 0.67875(12)
O1 O 0.16598(11) 0.67292(16) 0.75991(9)
H9 H 0.1619 0.7371 0.7316
C19 C 0.17318(15) 0.5645(2) 0.65387(13)
C20 C 0.12043(16) 0.5210(3) 0.58607(13)
H10 H 0.0701 0.4819 0.5807
C21 C 0.14074(17) 0.5344(3) 0.52663(14)
H11 H 0.1044 0.5042 0.4809
C22 C 0.21367(17) 0.5915(3) 0.53361(14)
H12 H 0.2277 0.5999 0.4929
C23 C 0.26585(17) 0.6362(3) 0.60021(15)
H13 H 0.3157 0.6762 0.6051
C24 C 0.24620(16) 0.6232(3) 0.66011(14)
H14 H 0.2826 0.6545 0.7056
O2 O 0.16333(10) -0.08033(16) 0.68822(9)
H15 H 0.1349 -0.0929 0.6445
C25 C 0.23858(14) 0.0911(2) 0.65616(12)
C26 C 0.23513(16) 0.2115(3) 0.62124(13)
H16 H 0.1992 0.2800 0.6234
C27 C 0.28380(17) 0.2339(3) 0.58275(15)
H17 H 0.2811 0.3176 0.5591
C28 C 0.33602(16) 0.1352(3) 0.57865(14)
H18 H 0.3683 0.1500 0.5515
C29 C 0.34082(16) 0.0149(3) 0.61434(14)
H19 H 0.3771 -0.0531 0.6122
C30 C 0.29314(15) -0.0071(3) 0.65312(14)
H20 H 0.2974 -0.0898 0.6780
C31 C 0.28970(15) 0.4984(2) 0.82523(13)
C32 C 0.29191(17) 0.5717(3) 0.88533(14)
H21 H 0.2430 0.5910 0.8912
C33 C 0.36402(19) 0.6162(3) 0.93606(16)
H22 H 0.3647 0.6633 0.9773
C34 C 0.4350(2) 0.5926(3) 0.92721(18)
H23 H 0.4846 0.6245 0.9619
C35 C 0.43416(18) 0.5226(3) 0.86771(19)
H24 H 0.4831 0.5077 0.8612
C36 C 0.36160(16) 0.4737(3) 0.81711(16)
H25 H 0.3616 0.4233 0.7770
C37 C 0.03448(14) 0.0980(2) 0.62200(13)
C38 C -0.00914(15) -0.0061(3) 0.63701(14)
H26 H 0.0134 -0.0533 0.6813
C39 C -0.08518(16) -0.0410(3) 0.58752(15)
H27 H -0.1143 -0.1122 0.5980
C40 C -0.11864(16) 0.0277(3) 0.52297(15)
H28 H -0.1712 0.0054 0.4897
C41 C -0.07539(16) 0.1283(3) 0.50725(14)
H29 H -0.0982 0.1750 0.4628
C42 C 0.00108(15) 0.1623(3) 0.55564(13)
H30 H 0.0310 0.2300 0.5434
C43 C 0.47761(18) 0.0867(3) 0.84054(16)
H31 H 0.4182 0.0858 0.8288
Cl1 Cl 0.4981(2) 0.2025(8) 0.7808(2)
Cl2 Cl 0.5072(4) -0.0698(5) 0.8299(6)
Cl3 Cl 0.52669(5) 0.15250(10) 0.92711(4)
Cl4? Cl 0.5088(6) 0.141(2) 0.7763(3)
Cl5? Cl 0.4955(4) -0.0957(11) 0.8515(5)
H32? H 0.4184 0.1041 0.8245
loop_
_geom_bond_atom_site_label_1
_geom_bond_atom_site_label_2
_geom_bond_site_symmetry_1
_geom_bond_site_symmetry_2
C1 C2 1_555 1_555
C2 C3 1_555 1_555
C3 H1 1_555 1_555
C4 C3 1_555 1_555
H2 C4 1_555 1_555
C5 C4 1_555 1_555
H3 C5 1_555 1_555
C6 C1 1_555 1_555
H4 C6 1_555 1_555
C7 C1 1_555 1_555
C8 C7 1_555 1_555
C9 C8 1_555 1_555
C10 C9 1_555 1_555
C11 C10 1_555 1_555
H5 C11 1_555 1_555
C12 C11 1_555 1_555
H6 C12 1_555 1_555
C13 C12 1_555 1_555
H7 C13 1_555 1_555
C14 C9 1_555 1_555
H8 C14 1_555 1_555
C15 C2 1_555 1_555
C16 C8 1_555 1_555
C17 C10 1_555 1_555
C18 C7 1_555 1_555
O1 C15 1_555 1_555
H9 O1 1_555 1_555
C19 C15 1_555 1_555
C20 C19 1_555 1_555
H10 C20 1_555 1_555
C21 C20 1_555 1_555
H11 C21 1_555 1_555
C22 C21 1_555 1_555
H12 C22 1_555 1_555
C23 C22 1_555 1_555
H13 C23 1_555 1_555
C24 C19 1_555 1_555
H14 C24 1_555 1_555
O2 C17 1_555 1_555
H15 O2 1_555 1_555
C25 C17 1_555 1_555
C26 C25 1_555 1_555
H16 C26 1_555 1_555
C27 C26 1_555 1_555
H17 C27 1_555 1_555
C28 C27 1_555 1_555
H18 C28 1_555 1_555
C29 C28 1_555 1_555
H19 C29 1_555 1_555
C30 C25 1_555 1_555
H20 C30 1_555 1_555
C31 C16 1_555 1_555
C32 C31 1_555 1_555
H21 C32 1_555 1_555
C33 C32 1_555 1_555
H22 C33 1_555 1_555
C34 C33 1_555 1_555
H23 C34 1_555 1_555
C35 C34 1_555 1_555
H24 C35 1_555 1_555
C36 C31 1_555 1_555
H25 C36 1_555 1_555
C37 C18 1_555 1_555
C38 C37 1_555 1_555
H26 C38 1_555 1_555
C39 C38 1_555 1_555
H27 C39 1_555 1_555
C40 C39 1_555 1_555
H28 C40 1_555 1_555
C41 C40 1_555 1_555
H29 C41 1_555 1_555
C42 C37 1_555 1_555
H30 C42 1_555 1_555
C43 H31 1_555 1_555
Cl1 C43 1_555 1_555
Cl2 C43 1_555 1_555
Cl3 C43 1_555 1_555
C5 C6 1_555 1_555
C13 C14 1_555 1_555
C15 C16 1_555 1_555
C17 C18 1_555 1_555
C23 C24 1_555 1_555
C29 C30 1_555 1_555
C35 C36 1_555 1_555
C41 C42 1_555 1_555

#END
