
#######################################################################
#
#                 Cambridge Crystallographic Data Centre
#                                CCDC 
#
#######################################################################
#
# If this CIF has been generated from an entry in the Cambridge 
# Structural Database, then it will include bibliographic, chemical, 
# crystal, experimental, refinement or atomic coordinate data resulting 
# from the CCDC's data processing and validation procedures.
#
#######################################################################

data_LUDPEH
_chemical_formula_moiety         'C6 H6 N4 S1'
_chemical_name_systematic        2-hydrazino[1,3]thiazolo[5,4-b]pyridine
_symmetry_cell_setting           monoclinic
_symmetry_space_group_name_H-M   'P 21/c'
_symmetry_Int_Tables_number      14
_space_group_name_Hall           '-P 2ybc'
loop_
_symmetry_equiv_pos_site_id
_symmetry_equiv_pos_as_xyz
1 x,y,z
2 -x,1/2+y,1/2-z
3 -x,-y,-z
4 x,1/2-y,1/2+z
_cell_length_a                   3.885(2)
_cell_length_b                   13.423(8)
_cell_length_c                   13.634(8)
_cell_angle_alpha                90
_cell_angle_beta                 98.017(6)
_cell_angle_gamma                90
_cell_volume                     704.042
_cell_formula_units_Z            4
loop_
_atom_site_label
_atom_site_type_symbol
_atom_site_fract_x
_atom_site_fract_y
_atom_site_fract_z
C1 C 0.0381(5) 0.73923(17) 0.11769(16)
C2 C 0.0784(6) 0.70212(16) 0.02349(17)
C3 C -0.0429(6) 0.76098(18) -0.05789(18)
H1 H -0.0275 0.7396 -0.1220
C4 C -0.1874(7) 0.85255(19) -0.0404(2)
H2 H -0.2689 0.8941 -0.0931
C5 C -0.2103(7) 0.88186(19) 0.0556(2)
H3 H -0.3065 0.9440 0.0651
C6 C 0.3109(6) 0.57619(16) 0.11322(16)
N1 N -0.1022(5) 0.82628(15) 0.13635(16)
N2 N 0.2356(5) 0.60971(15) 0.02237(14)
N3 N 0.4579(6) 0.48812(16) 0.13654(15)
H4 H 0.4992 0.4471 0.0911
N4 N 0.5438(6) 0.46391(16) 0.23722(15)
H5 H 0.5013 0.5055 0.2820
H6 H 0.6389 0.4075 0.2541
S1 S 0.20342(15) 0.65320(4) 0.20908(4)
loop_
_geom_bond_atom_site_label_1
_geom_bond_atom_site_label_2
_geom_bond_site_symmetry_1
_geom_bond_site_symmetry_2
C1 C2 1_555 1_555
C2 C3 1_555 1_555
C3 H1 1_555 1_555
C4 C3 1_555 1_555
H2 C4 1_555 1_555
C5 C4 1_555 1_555
H3 C5 1_555 1_555
C6 N2 1_555 1_555
N1 C1 1_555 1_555
N2 C2 1_555 1_555
N3 C6 1_555 1_555
H4 N3 1_555 1_555
N4 N3 1_555 1_555
H5 N4 1_555 1_555
H6 N4 1_555 1_555
S1 C1 1_555 1_555
C5 N1 1_555 1_555
C6 S1 1_555 1_555

#END
