
#######################################################################
#
#                 Cambridge Crystallographic Data Centre
#                                CCDC 
#
#######################################################################
#
# If this CIF has been generated from an entry in the Cambridge 
# Structural Database, then it will include bibliographic, chemical, 
# crystal, experimental, refinement or atomic coordinate data resulting 
# from the CCDC's data processing and validation procedures.
#
#######################################################################

data_LUDSOT
_chemical_formula_moiety         'C20 H19 N1 O3 S1'
_chemical_name_systematic        
(R)-2-((4-Methylphenyl)sulfonyl)-6-phenyl-2,3,3a,4-tetrahydrocyclopenta[c]pyrrol-5(1H)-one
_symmetry_cell_setting           monoclinic
_symmetry_space_group_name_H-M   'P 21'
_symmetry_Int_Tables_number      4
_space_group_name_Hall           'P 2yb'
loop_
_symmetry_equiv_pos_site_id
_symmetry_equiv_pos_as_xyz
1 x,y,z
2 -x,1/2+y,-z
_cell_length_a                   9.2721(2)
_cell_length_b                   14.8627(3)
_cell_length_c                   13.1807(3)
_cell_angle_alpha                90
_cell_angle_beta                 108.0050(10)
_cell_angle_gamma                90
_cell_volume                     1727.46
_exptl_crystal_colour            colorless
_exptl_crystal_description       rectangular
_cell_formula_units_Z            4
loop_
_atom_site_label
_atom_site_type_symbol
_atom_site_fract_x
_atom_site_fract_y
_atom_site_fract_z
S1 S 0.39643(13) -0.06129(6) 0.76454(8)
O1 O 0.0150(4) 0.3038(2) 0.4508(2)
O2 O 0.5367(3) -0.0363(2) 0.8374(2)
O3 O 0.3847(3) -0.14196(18) 0.7047(2)
N1 N 0.3509(4) 0.0202(2) 0.6799(2)
C1 C 0.0861(5) 0.2417(3) 0.4973(3)
C2 C 0.0654(4) 0.1437(3) 0.4745(3)
C3 C 0.1796(4) 0.1015(3) 0.5411(3)
C4 C 0.2206(4) 0.0068(2) 0.5777(3)
H1 H 0.2526 -0.0272 0.5255
H2 H 0.1361 -0.0239 0.5913
C5 C 0.3524(4) 0.1133(2) 0.7186(3)
H3 H 0.4533 0.1317 0.7610
H4 H 0.2829 0.1211 0.7598
C6 C 0.2986(4) 0.1646(2) 0.6117(3)
H5 H 0.3834 0.1698 0.5825
C7 C 0.2171(4) 0.2539(3) 0.5996(3)
H6 H 0.2828 0.3028 0.5930
H7 H 0.1805 0.2656 0.6598
C8 C -0.0611(4) 0.1048(3) 0.3927(3)
C9 C -0.0642(5) 0.0155(3) 0.3616(3)
H8 H 0.0151 -0.0224 0.3970
C10 C -0.1841(5) -0.0183(3) 0.2781(4)
H9 H -0.1822 -0.0782 0.2581
C11 C -0.3031(5) 0.0340(3) 0.2256(3)
H10 H -0.3827 0.0100 0.1706
C12 C -0.3056(5) 0.1218(3) 0.2537(3)
H11 H -0.3864 0.1586 0.2176
C13 C -0.1877(5) 0.1559(3) 0.3359(3)
H12 H -0.1920 0.2159 0.3549
C14 C 0.2644(4) -0.0642(3) 0.8337(3)
C15 C 0.2775(5) -0.0127(3) 0.9205(3)
H13 H 0.3627 0.0236 0.9467
C16 C 0.1706(6) -0.0123(3) 0.9702(3)
H14 H 0.1865 0.0231 1.0308
C17 C 0.0425(5) -0.0604(3) 0.9369(3)
C18 C 0.0266(5) -0.1134(3) 0.8463(4)
H15 H -0.0597 -0.1488 0.8204
C19 C 0.1342(5) -0.1148(3) 0.7947(3)
H16 H 0.1195 -0.1496 0.7337
C20 C -0.0761(5) -0.0607(4) 0.9920(4)
H17 H -0.0466 -0.0205 1.0519
H18 H -0.0868 -0.1204 1.0164
H19 H -0.1710 -0.0413 0.9432
S2 S 0.09600(13) 0.76428(6) 0.24059(9)
O4 O 0.4962(4) 0.4025(2) 0.5438(3)
O5 O 0.1164(3) 0.84918(17) 0.2935(2)
O6 O -0.0491(3) 0.7367(2) 0.1702(2)
N2 N 0.1460(4) 0.6904(2) 0.3358(2)
C21 C 0.4244(5) 0.4648(3) 0.4903(4)
C22 C 0.4525(4) 0.5633(3) 0.5174(3)
C23 C 0.3481(4) 0.6077(2) 0.4377(3)
C24 C 0.2885(4) 0.7012(2) 0.4197(3)
H20 H 0.2730 0.7258 0.4837
H21 H 0.3569 0.7401 0.3972
C25 C 0.1106(4) 0.5935(2) 0.3137(3)
H22 H 0.0587 0.5834 0.2385
H23 H 0.0480 0.5709 0.3550
C26 C 0.2631(4) 0.5496(2) 0.3471(3)
H24 H 0.3085 0.5545 0.2894
C27 C 0.2886(5) 0.4561(3) 0.3934(4)
H25 H 0.2011 0.4356 0.4126
H26 H 0.3080 0.4140 0.3429
C28 C 0.5727(4) 0.5997(3) 0.6122(3)
C29 C 0.5736(5) 0.6882(3) 0.6417(4)
H27 H 0.4994 0.7265 0.6002
C30 C 0.6775(5) 0.7213(3) 0.7280(3)
H28 H 0.6731 0.7809 0.7479
C31 C 0.7919(6) 0.6651(4) 0.7871(3)
H29 H 0.8652 0.6860 0.8480
C32 C 0.7945(5) 0.5778(3) 0.7537(4)
H30 H 0.8748 0.5410 0.7903
C33 C 0.6848(5) 0.5432(3) 0.6696(3)
H31 H 0.6855 0.4828 0.6514
C34 C 0.2274(5) 0.7595(3) 0.1694(3)
C35 C 0.3550(5) 0.8129(3) 0.1992(3)
H32 H 0.3713 0.8522 0.2565
C36 C 0.4575(5) 0.8078(3) 0.1438(4)
H33 H 0.5440 0.8435 0.1652
C37 C 0.4372(5) 0.7526(3) 0.0592(3)
C38 C 0.3061(6) 0.6979(4) 0.0288(3)
H34 H 0.2915 0.6582 -0.0280
C39 C 0.2006(5) 0.7025(3) 0.0812(3)
H35 H 0.1123 0.6683 0.0587
C40 C 0.5539(5) 0.7484(4) 0.0002(4)
H36 H 0.6339 0.7905 0.0314
H37 H 0.5065 0.7634 -0.0735
H38 H 0.5952 0.6888 0.0054
loop_
_geom_bond_atom_site_label_1
_geom_bond_atom_site_label_2
_geom_bond_site_symmetry_1
_geom_bond_site_symmetry_2
S1 O2 1_555 1_555
O1 C1 1_555 1_555
O3 S1 1_555 1_555
N1 S1 1_555 1_555
C1 C2 1_555 1_555
C2 C3 1_555 1_555
C3 C4 1_555 1_555
C4 N1 1_555 1_555
H1 C4 1_555 1_555
H2 C4 1_555 1_555
C5 N1 1_555 1_555
H3 C5 1_555 1_555
H4 C5 1_555 1_555
C6 C3 1_555 1_555
H5 C6 1_555 1_555
C7 C1 1_555 1_555
H6 C7 1_555 1_555
H7 C7 1_555 1_555
C8 C2 1_555 1_555
C9 C8 1_555 1_555
H8 C9 1_555 1_555
C10 C9 1_555 1_555
H9 C10 1_555 1_555
C11 C10 1_555 1_555
H10 C11 1_555 1_555
C12 C11 1_555 1_555
H11 C12 1_555 1_555
C13 C8 1_555 1_555
H12 C13 1_555 1_555
C14 S1 1_555 1_555
C15 C14 1_555 1_555
H13 C15 1_555 1_555
C16 C15 1_555 1_555
H14 C16 1_555 1_555
C17 C16 1_555 1_555
C18 C17 1_555 1_555
H15 C18 1_555 1_555
C19 C14 1_555 1_555
H16 C19 1_555 1_555
C20 C17 1_555 1_555
H17 C20 1_555 1_555
H18 C20 1_555 1_555
H19 C20 1_555 1_555
S2 O5 1_555 1_555
O4 C21 1_555 1_555
O6 S2 1_555 1_555
N2 S2 1_555 1_555
C21 C22 1_555 1_555
C22 C23 1_555 1_555
C23 C24 1_555 1_555
C24 N2 1_555 1_555
H20 C24 1_555 1_555
H21 C24 1_555 1_555
C25 N2 1_555 1_555
H22 C25 1_555 1_555
H23 C25 1_555 1_555
C26 C23 1_555 1_555
H24 C26 1_555 1_555
C27 C21 1_555 1_555
H25 C27 1_555 1_555
H26 C27 1_555 1_555
C28 C22 1_555 1_555
C29 C28 1_555 1_555
H27 C29 1_555 1_555
C30 C29 1_555 1_555
H28 C30 1_555 1_555
C31 C30 1_555 1_555
H29 C31 1_555 1_555
C32 C31 1_555 1_555
H30 C32 1_555 1_555
C33 C28 1_555 1_555
H31 C33 1_555 1_555
C34 S2 1_555 1_555
C35 C34 1_555 1_555
H32 C35 1_555 1_555
C36 C35 1_555 1_555
H33 C36 1_555 1_555
C37 C36 1_555 1_555
C38 C37 1_555 1_555
H34 C38 1_555 1_555
C39 C34 1_555 1_555
H35 C39 1_555 1_555
C40 C37 1_555 1_555
H36 C40 1_555 1_555
H37 C40 1_555 1_555
H38 C40 1_555 1_555
C5 C6 1_555 1_555
C6 C7 1_555 1_555
C12 C13 1_555 1_555
C18 C19 1_555 1_555
C25 C26 1_555 1_555
C26 C27 1_555 1_555
C32 C33 1_555 1_555
C38 C39 1_555 1_555

#END
