
#######################################################################
#
#                 Cambridge Crystallographic Data Centre
#                                CCDC 
#
#######################################################################
#
# If this CIF has been generated from an entry in the Cambridge 
# Structural Database, then it will include bibliographic, chemical, 
# crystal, experimental, refinement or atomic coordinate data resulting 
# from the CCDC's data processing and validation procedures.
#
#######################################################################

data_LUDSUZ
_chemical_formula_moiety         'C20 H19 N1 O3 S1'
_chemical_name_systematic        
2-((4-Methylphenyl)sulfonyl)-6-phenyl-2,3,3a,4-tetrahydrocyclopenta[c]pyrrol-5(1H)-one
_symmetry_cell_setting           monoclinic
_symmetry_space_group_name_H-M   'P 21/n'
_symmetry_Int_Tables_number      14
_space_group_name_Hall           '-P 2yn'
loop_
_symmetry_equiv_pos_site_id
_symmetry_equiv_pos_as_xyz
1 x,y,z
2 1/2-x,1/2+y,1/2-z
3 -x,-y,-z
4 1/2+x,1/2-y,1/2+z
_cell_length_a                   7.2769(1)
_cell_length_b                   22.2431(3)
_cell_length_c                   11.2857(1)
_cell_angle_alpha                90
_cell_angle_beta                 106.416(1)
_cell_angle_gamma                90
_cell_volume                     1752.25
_exptl_crystal_colour            colorless
_exptl_crystal_description       block
_cell_formula_units_Z            4
loop_
_atom_site_label
_atom_site_type_symbol
_atom_site_fract_x
_atom_site_fract_y
_atom_site_fract_z
S1 S 0.12932(6) 0.009216(18) 0.35385(4)
O1 O 0.1868(2) 0.30134(6) 0.61005(17)
O2 O -0.06162(18) -0.01079(6) 0.29688(12)
O3 O 0.26747(18) -0.03044(5) 0.42968(11)
N1 N 0.11464(19) 0.06621(6) 0.43842(12)
C1 C 0.1667(3) 0.25043(8) 0.57055(18)
C2 C 0.3168(2) 0.20253(7) 0.59632(14)
C3 C 0.2271(2) 0.15093(7) 0.55295(14)
C4 C 0.2875(2) 0.08930(7) 0.52974(15)
H1 H 0.3964 0.0902 0.4962
H2 H 0.3195 0.0653 0.6046
C5 C -0.0278(2) 0.11450(8) 0.39138(16)
H3 H -0.1578 0.0992 0.3712
H4 H -0.0074 0.1340 0.3192
C6 C 0.0137(2) 0.15663(8) 0.50066(16)
H5 H -0.0491 0.1416 0.5610
C7 C -0.0158(3) 0.22438(9) 0.48612(19)
H6 H -0.0327 0.2366 0.4012
H7 H -0.1266 0.2370 0.5114
C8 C 0.5199(2) 0.21335(7) 0.65885(14)
C9 C 0.6376(3) 0.16709(10) 0.71748(18)
H8 H 0.5886 0.1283 0.7147
C10 C 0.8255(3) 0.17758(14) 0.7796(2)
H9 H 0.9036 0.1459 0.8176
C11 C 0.8997(4) 0.23516(15) 0.7862(2)
H10 H 1.0257 0.2426 0.8316
C12 C 0.7876(4) 0.28088(12) 0.7259(2)
H11 H 0.8386 0.3193 0.7274
C13 C 0.6001(3) 0.27059(9) 0.66302(19)
H12 H 0.5247 0.3023 0.6224
C14 C 0.2214(2) 0.03507(7) 0.23450(14)
C15 C 0.0958(3) 0.05110(10) 0.12281(17)
H13 H -0.0357 0.0491 0.1114
C16 C 0.1673(3) 0.07015(10) 0.02814(18)
H14 H 0.0822 0.0805 -0.0474
C17 C 0.3616(3) 0.07421(8) 0.04257(17)
C18 C 0.4838(3) 0.05905(9) 0.15586(18)
H15 H 0.6153 0.0621 0.1679
C19 C 0.4174(2) 0.03949(7) 0.25174(15)
H16 H 0.5028 0.0293 0.3273
C20 C 0.4346(4) 0.09389(11) -0.0633(2)
H17 H 0.5722 0.0943 -0.0375
H18 H 0.3880 0.1335 -0.0891
H19 H 0.3904 0.0664 -0.1311
loop_
_geom_bond_atom_site_label_1
_geom_bond_atom_site_label_2
_geom_bond_site_symmetry_1
_geom_bond_site_symmetry_2
S1 O2 1_555 1_555
O1 C1 1_555 1_555
O3 S1 1_555 1_555
N1 S1 1_555 1_555
C1 C2 1_555 1_555
C2 C3 1_555 1_555
C3 C4 1_555 1_555
C4 N1 1_555 1_555
H1 C4 1_555 1_555
H2 C4 1_555 1_555
C5 N1 1_555 1_555
H3 C5 1_555 1_555
H4 C5 1_555 1_555
C6 C3 1_555 1_555
H5 C6 1_555 1_555
C7 C1 1_555 1_555
H6 C7 1_555 1_555
H7 C7 1_555 1_555
C8 C2 1_555 1_555
C9 C8 1_555 1_555
H8 C9 1_555 1_555
C10 C9 1_555 1_555
H9 C10 1_555 1_555
C11 C10 1_555 1_555
H10 C11 1_555 1_555
C12 C11 1_555 1_555
H11 C12 1_555 1_555
C13 C8 1_555 1_555
H12 C13 1_555 1_555
C14 S1 1_555 1_555
C15 C14 1_555 1_555
H13 C15 1_555 1_555
C16 C15 1_555 1_555
H14 C16 1_555 1_555
C17 C16 1_555 1_555
C18 C17 1_555 1_555
H15 C18 1_555 1_555
C19 C14 1_555 1_555
H16 C19 1_555 1_555
C20 C17 1_555 1_555
H17 C20 1_555 1_555
H18 C20 1_555 1_555
H19 C20 1_555 1_555
C5 C6 1_555 1_555
C6 C7 1_555 1_555
C12 C13 1_555 1_555
C18 C19 1_555 1_555

#END
