
#######################################################################
#
#                 Cambridge Crystallographic Data Centre
#                                CCDC 
#
#######################################################################
#
# If this CIF has been generated from an entry in the Cambridge 
# Structural Database, then it will include bibliographic, chemical, 
# crystal, experimental, refinement or atomic coordinate data resulting 
# from the CCDC's data processing and validation procedures.
#
#######################################################################

data_LUDTEK
_chemical_formula_moiety         'C14 H15 N1 O3 S1'
_chemical_name_systematic        
2-((4-Methylphenyl)sulfonyl)-2,3,3a,4-tetrahydrocyclopenta[c]pyrrol-5(1H)-one
_symmetry_cell_setting           monoclinic
_symmetry_space_group_name_H-M   'P 21/n'
_symmetry_Int_Tables_number      14
_space_group_name_Hall           '-P 2yn'
loop_
_symmetry_equiv_pos_site_id
_symmetry_equiv_pos_as_xyz
1 x,y,z
2 1/2-x,1/2+y,1/2-z
3 -x,-y,-z
4 1/2+x,1/2-y,1/2+z
_cell_length_a                   6.01730(10)
_cell_length_b                   10.7749(2)
_cell_length_c                   20.6130(5)
_cell_angle_alpha                90
_cell_angle_beta                 90.9590(10)
_cell_angle_gamma                90
_cell_volume                     1336.27
_exptl_crystal_colour            colorless
_exptl_crystal_description       block
_cell_formula_units_Z            4
loop_
_atom_site_label
_atom_site_type_symbol
_atom_site_fract_x
_atom_site_fract_y
_atom_site_fract_z
S1 S 0.39040(9) 0.30025(5) 0.23153(3)
O1 O 0.7262(3) 0.6546(2) 0.50419(9)
O2 O 0.1524(3) 0.29633(17) 0.22821(9)
O3 O 0.5164(3) 0.18921(15) 0.22398(9)
N1 N 0.4563(3) 0.35561(18) 0.30181(9)
C1 C 0.6737(4) 0.6029(2) 0.45392(11)
C2 C 0.7993(4) 0.5033(3) 0.42212(12)
H1 H 0.9313 0.4684 0.4376
C3 C 0.6914(4) 0.4713(2) 0.36708(12)
C4 C 0.6946(4) 0.3667(3) 0.32122(12)
H2 H 0.7482 0.2915 0.3421
H3 H 0.7864 0.3851 0.2842
C5 C 0.3210(4) 0.4555(2) 0.33097(12)
H4 H 0.2341 0.4241 0.3666
H5 H 0.2216 0.4926 0.2989
C6 C 0.4915(4) 0.5474(2) 0.35457(13)
H6 H 0.5233 0.6046 0.3189
C7 C 0.4634(4) 0.6227(2) 0.41531(12)
H7 H 0.4436 0.7098 0.4050
H8 H 0.3357 0.5942 0.4392
C8 C 0.4794(3) 0.4059(2) 0.17230(10)
C9 C 0.3498(4) 0.5071(2) 0.15477(12)
H9 H 0.2138 0.5200 0.1744
C10 C 0.4224(4) 0.5885(2) 0.10818(13)
H10 H 0.3349 0.6566 0.0970
C11 C 0.6241(4) 0.5708(2) 0.07756(12)
C12 C 0.7514(4) 0.4705(3) 0.09688(13)
H11 H 0.8883 0.4580 0.0776
C13 C 0.6835(4) 0.3884(2) 0.14349(13)
H12 H 0.7735 0.3219 0.1556
C14 C 0.7009(6) 0.6573(3) 0.02529(15)
H13 H 0.8433 0.6306 0.0102
H14 H 0.7131 0.7399 0.0424
H15 H 0.5954 0.6565 -0.0102
loop_
_geom_bond_atom_site_label_1
_geom_bond_atom_site_label_2
_geom_bond_site_symmetry_1
_geom_bond_site_symmetry_2
S1 O2 1_555 1_555
O1 C1 1_555 1_555
O3 S1 1_555 1_555
N1 S1 1_555 1_555
C1 C2 1_555 1_555
C2 H1 1_555 1_555
C3 C2 1_555 1_555
C4 N1 1_555 1_555
H2 C4 1_555 1_555
H3 C4 1_555 1_555
C5 N1 1_555 1_555
H4 C5 1_555 1_555
H5 C5 1_555 1_555
C6 C3 1_555 1_555
H6 C6 1_555 1_555
C7 C1 1_555 1_555
H7 C7 1_555 1_555
H8 C7 1_555 1_555
C8 S1 1_555 1_555
C9 C8 1_555 1_555
H9 C9 1_555 1_555
C10 C9 1_555 1_555
H10 C10 1_555 1_555
C11 C10 1_555 1_555
C12 C11 1_555 1_555
H11 C12 1_555 1_555
C13 C8 1_555 1_555
H12 C13 1_555 1_555
C14 C11 1_555 1_555
H13 C14 1_555 1_555
H14 C14 1_555 1_555
H15 C14 1_555 1_555
C3 C4 1_555 1_555
C5 C6 1_555 1_555
C6 C7 1_555 1_555
C12 C13 1_555 1_555

#END
