
#######################################################################
#
#                 Cambridge Crystallographic Data Centre
#                                CCDC 
#
#######################################################################
#
# If this CIF has been generated from an entry in the Cambridge 
# Structural Database, then it will include bibliographic, chemical, 
# crystal, experimental, refinement or atomic coordinate data resulting 
# from the CCDC's data processing and validation procedures.
#
#######################################################################

data_LUDVAI
_chemical_compound_source        'marine sponge Spongionella sp'
_chemical_name_common            
"4-(2-(3,3-Dimethylcyclohex-1-en-1-yl)ethylidene)-5-oxooctahydrodifuro[2,3-b:3',2'-d]furan-2,3-diyl diacetate"
_chemical_formula_moiety         'C22 H28 O8'
_chemical_name_systematic        'Gracilin H'
_chemical_properties_biological  
'tested for cytotoxicity and potential to inhibit epidermal growth factor tyrosine kinase'
_symmetry_cell_setting           orthorhombic
_symmetry_space_group_name_H-M   'P 21 21 21'
_symmetry_Int_Tables_number      19
_space_group_name_Hall           'P 2ac 2ab'
loop_
_symmetry_equiv_pos_site_id
_symmetry_equiv_pos_as_xyz
1 x,y,z
2 1/2-x,-y,1/2+z
3 -x,1/2+y,1/2-z
4 1/2+x,1/2-y,-z
_cell_length_a                   10.6853(4)
_cell_length_b                   11.4061(5)
_cell_length_c                   17.0613(6)
_cell_angle_alpha                90
_cell_angle_beta                 90
_cell_angle_gamma                90
_cell_volume                     2079.39
_exptl_crystal_colour            colorless
_exptl_crystal_description       blade
_cell_formula_units_Z            4
_exptl_crystal_recrystallization_method methanol
loop_
_atom_site_label
_atom_site_type_symbol
_atom_site_fract_x
_atom_site_fract_y
_atom_site_fract_z
C1 C 0.6382(6) 0.4079(5) 0.4267(3)
H1 H 0.7087 0.4143 0.3893
H2 H 0.5830 0.4764 0.4177
C2 C 0.5665(8) 0.3007(6) 0.4069(3)
H3 H 0.5062 0.3208 0.3649
H4 H 0.6256 0.2425 0.3850
C3 C 0.5036(15) 0.2499(14) 0.4649(7)
H5 H 0.4731 0.1729 0.4461
H6 H 0.4292 0.2985 0.4767
C4 C 0.5792(5) 0.2294(5) 0.5448(3)
C5 C 0.6675(5) 0.3318(5) 0.5587(3)
H7 H 0.7103 0.3367 0.6074
C6 C 0.6878(4) 0.4172(3) 0.5039(2)
C7 C 0.7681(4) 0.5221(4) 0.5244(3)
H8 H 0.7854 0.5216 0.5814
H9 H 0.8492 0.5157 0.4966
C8 C 0.7070(4) 0.6360(3) 0.5028(2)
H10 H 0.6237 0.6465 0.5209
C9 C 0.7549(4) 0.7238(3) 0.4617(2)
C10 C 0.6912(4) 0.8393(4) 0.4441(2)
H11 H 0.6534 0.8728 0.4928
C11 C 0.5946(4) 0.8418(4) 0.3757(2)
H12 H 0.5129 0.8738 0.3946
C12 C 0.5731(4) 0.7283(4) 0.3304(2)
H13 H 0.5937 0.6575 0.3624
C13 C 0.3600(4) 0.6743(4) 0.3480(2)
C14 C 0.2327(4) 0.6777(5) 0.3123(3)
H14 H 0.2234 0.7497 0.2815
H15 H 0.1694 0.6761 0.3538
H16 H 0.2217 0.6095 0.2780
C15 C 0.6569(4) 0.7388(4) 0.2586(2)
H17 H 0.6146 0.7046 0.2116
C16 C 0.7785(5) 0.5647(4) 0.2538(2)
C17 C 0.9082(5) 0.5172(5) 0.2604(3)
H18 H 0.9364 0.5229 0.3149
H19 H 0.9644 0.5626 0.2266
H20 H 0.9088 0.4349 0.2439
C18 C 0.8840(4) 0.7309(4) 0.4294(2)
C19 C 0.7983(4) 0.9169(4) 0.4153(3)
H21 H 0.8221 0.9745 0.4569
C20 C 0.6520(4) 0.9249(4) 0.3150(3)
H22 H 0.5905 0.9877 0.3012
C21 C 0.6382(6) 0.1175(5) 0.5713(4)
H23 H 0.7127 0.1017 0.5395
H24 H 0.5783 0.0531 0.5652
H25 H 0.6624 0.1244 0.6265
C22 C 0.4634(5) 0.2487(5) 0.5926(5)
H26 H 0.4228 0.3217 0.5761
H27 H 0.4859 0.2540 0.6482
H28 H 0.4057 0.1829 0.5848
O1 O 0.9650(3) 0.6583(3) 0.42745(17)
O2 O 0.9029(3) 0.8396(3) 0.39874(16)
O3 O 0.7609(3) 0.9759(3) 0.34807(18)
O4 O 0.6805(3) 0.8569(3) 0.24721(17)
O5 O 0.7753(3) 0.6812(3) 0.27245(16)
O6 O 0.4462(3) 0.7242(3) 0.30016(17)
O7 O 0.3868(3) 0.6340(3) 0.41093(17)
O8 O 0.6867(4) 0.5124(3) 0.23305(19)
C23? C 0.5815(12) 0.1996(10) 0.4538(5)
H29? H 0.6620 0.1616 0.4406
H30? H 0.5135 0.1435 0.4418
loop_
_geom_bond_atom_site_label_1
_geom_bond_atom_site_label_2
_geom_bond_site_symmetry_1
_geom_bond_site_symmetry_2
C1 H1 1_555 1_555
H2 C1 1_555 1_555
C2 C1 1_555 1_555
H3 C2 1_555 1_555
H4 C2 1_555 1_555
C3 C2 1_555 1_555
H5 C3 1_555 1_555
H6 C3 1_555 1_555
C4 C3 1_555 1_555
C5 C4 1_555 1_555
H7 C5 1_555 1_555
C6 C1 1_555 1_555
C7 C6 1_555 1_555
H8 C7 1_555 1_555
H9 C7 1_555 1_555
C8 C7 1_555 1_555
H10 C8 1_555 1_555
C9 C8 1_555 1_555
C10 C9 1_555 1_555
H11 C10 1_555 1_555
C11 C10 1_555 1_555
H12 C11 1_555 1_555
C12 C11 1_555 1_555
H13 C12 1_555 1_555
C13 C14 1_555 1_555
C14 H14 1_555 1_555
H15 C14 1_555 1_555
H16 C14 1_555 1_555
C15 C12 1_555 1_555
H17 C15 1_555 1_555
C16 C17 1_555 1_555
C17 H18 1_555 1_555
H19 C17 1_555 1_555
H20 C17 1_555 1_555
C18 C9 1_555 1_555
C19 C10 1_555 1_555
H21 C19 1_555 1_555
C20 C11 1_555 1_555
H22 C20 1_555 1_555
C21 C4 1_555 1_555
H23 C21 1_555 1_555
H24 C21 1_555 1_555
H25 C21 1_555 1_555
C22 C4 1_555 1_555
H26 C22 1_555 1_555
H27 C22 1_555 1_555
H28 C22 1_555 1_555
O1 C18 1_555 1_555
O2 C18 1_555 1_555
O3 C19 1_555 1_555
O4 C15 1_555 1_555
O5 C15 1_555 1_555
O6 C12 1_555 1_555
O7 C13 1_555 1_555
O8 C16 1_555 1_555
C5 C6 1_555 1_555
C13 O6 1_555 1_555
C16 O5 1_555 1_555
C19 O2 1_555 1_555
C20 O3 1_555 1_555
C20 O4 1_555 1_555

#END
