
#######################################################################
#
#                 Cambridge Crystallographic Data Centre
#                                CCDC 
#
#######################################################################
#
# If this CIF has been generated from an entry in the Cambridge 
# Structural Database, then it will include bibliographic, chemical, 
# crystal, experimental, refinement or atomic coordinate data resulting 
# from the CCDC's data processing and validation procedures.
#
#######################################################################

data_LUDVEM
_chemical_compound_source        'basidiomycete Hexagonia speciosa'
_chemical_name_common            2-(3-Methylbut-2-en-1-yl)cyclohexane-1,4-diol
_chemical_formula_moiety         'C11 H20 O2'
_chemical_name_systematic        'Speciosin H'
_symmetry_cell_setting           monoclinic
_symmetry_space_group_name_H-M   'P 21'
_symmetry_Int_Tables_number      4
_space_group_name_Hall           'P 2yb'
loop_
_symmetry_equiv_pos_site_id
_symmetry_equiv_pos_as_xyz
1 x,y,z
2 -x,1/2+y,-z
_cell_length_a                   6.1288(18)
_cell_length_b                   7.166(2)
_cell_length_c                   12.816(4)
_cell_angle_alpha                90
_cell_angle_beta                 102.805(4)
_cell_angle_gamma                90
_cell_volume                     548.867
_exptl_crystal_colour            colorless
_exptl_crystal_description       block
_chemical_melting_point          '103-104 deg.C'
_cell_formula_units_Z            2
loop_
_atom_site_label
_atom_site_type_symbol
_atom_site_fract_x
_atom_site_fract_y
_atom_site_fract_z
O1 O 0.4945(7) 0.7794(5) 0.3846(3)
H1 H 0.5823 0.8569 0.4171
O2 O 0.6442(6) 0.1418(4) 0.4350(3)
H2 H 0.6970 0.0487 0.4127
C1 C 0.4144(8) 0.3759(6) 0.3218(4)
H3 H 0.3600 0.4191 0.3841
C2 C 0.4266(9) 0.5485(7) 0.2501(5)
H4 H 0.4697 0.5071 0.1855
H5 H 0.2785 0.6030 0.2291
C3 C 0.5869(9) 0.6962(6) 0.3020(4)
H6 H 0.5966 0.7919 0.2486
C4 C 0.8176(9) 0.6144(7) 0.3434(5)
H7 H 0.9160 0.7103 0.3811
H8 H 0.8776 0.5731 0.2833
C5 C 0.8125(8) 0.4495(7) 0.4188(4)
H9 H 0.7654 0.4928 0.4821
H10 H 0.9618 0.3978 0.4413
C6 C 0.6506(8) 0.2961(6) 0.3633(4)
H11 H 0.7053 0.2496 0.3019
C7 C 0.2465(8) 0.2297(6) 0.2632(4)
H12 H 0.2353 0.1305 0.3132
H13 H 0.1005 0.2884 0.2429
C8 C 0.3002(9) 0.1422(7) 0.1636(4)
H14 H 0.4319 0.1804 0.1453
C9 C 0.1773(9) 0.0164(7) 0.1001(5)
C10 C 0.2543(12) -0.0673(10) 0.0047(5)
H15 H 0.3895 -0.0068 -0.0031
H16 H 0.1401 -0.0492 -0.0591
H17 H 0.2816 -0.1984 0.0163
C11 C -0.0412(10) -0.0577(9) 0.1199(5)
H18 H -0.0308 -0.1905 0.1295
H19 H -0.1603 -0.0288 0.0597
H20 H -0.0710 -0.0008 0.1831
loop_
_geom_bond_atom_site_label_1
_geom_bond_atom_site_label_2
_geom_bond_site_symmetry_1
_geom_bond_site_symmetry_2
O1 H1 1_555 1_555
O2 H2 1_555 1_555
C1 H3 1_555 1_555
C2 C1 1_555 1_555
H4 C2 1_555 1_555
H5 C2 1_555 1_555
C3 O1 1_555 1_555
H6 C3 1_555 1_555
C4 C3 1_555 1_555
H7 C4 1_555 1_555
H8 C4 1_555 1_555
C5 C4 1_555 1_555
H9 C5 1_555 1_555
H10 C5 1_555 1_555
C6 O2 1_555 1_555
H11 C6 1_555 1_555
C7 C1 1_555 1_555
H12 C7 1_555 1_555
H13 C7 1_555 1_555
C8 C7 1_555 1_555
H14 C8 1_555 1_555
C9 C8 1_555 1_555
C10 C9 1_555 1_555
H15 C10 1_555 1_555
H16 C10 1_555 1_555
H17 C10 1_555 1_555
C11 C9 1_555 1_555
H18 C11 1_555 1_555
H19 C11 1_555 1_555
H20 C11 1_555 1_555
C1 C6 1_555 1_555
C2 C3 1_555 1_555
C5 C6 1_555 1_555

#END
