
#######################################################################
#
#                 Cambridge Crystallographic Data Centre
#                                CCDC 
#
#######################################################################
#
# If this CIF has been generated from an entry in the Cambridge 
# Structural Database, then it will include bibliographic, chemical, 
# crystal, experimental, refinement or atomic coordinate data resulting 
# from the CCDC's data processing and validation procedures.
#
#######################################################################

data_LUDWEN
_chemical_compound_source        'aerial parts of Euphorbia royleana'
_chemical_name_common            '12-O-Acetylingol 3,8-ditiglate'
_chemical_formula_moiety         'C32 H44 O9'
_chemical_name_systematic        
'4-Acetoxy-9-hydroxy-3,6,6,10,14-pentamethyl-2-oxo-16-oxatetracyclo[10.3.1.0^1,12^.0^5,7^]hexadec-10-ene-8,13-diyl bis(2-methylbut-2-enoate)'
_chemical_properties_biological  'tested for antiangiogenic activity'
_symmetry_cell_setting           orthorhombic
_symmetry_space_group_name_H-M   'P 21 21 21'
_symmetry_Int_Tables_number      19
_space_group_name_Hall           'P 2ac 2ab'
loop_
_symmetry_equiv_pos_site_id
_symmetry_equiv_pos_as_xyz
1 x,y,z
2 1/2-x,-y,1/2+z
3 -x,1/2+y,1/2-z
4 1/2+x,1/2-y,-z
_cell_length_a                   11.2454(7)
_cell_length_b                   13.3881(9)
_cell_length_c                   20.6190(13)
_cell_angle_alpha                90
_cell_angle_beta                 90
_cell_angle_gamma                90
_cell_volume                     3104.28
_exptl_crystal_colour            colorless
_exptl_crystal_description       prismatic
_chemical_melting_point          '96-97 deg.C'
_cell_formula_units_Z            4
_exptl_crystal_recrystallization_method methanol
loop_
_atom_site_label
_atom_site_type_symbol
_atom_site_fract_x
_atom_site_fract_y
_atom_site_fract_z
O1 O 0.40769(15) 1.02470(13) 0.86349(8)
O2 O 0.62683(17) 0.70604(14) 0.95825(10)
O3 O 0.4997(2) 1.14312(14) 1.01187(9)
O4 O 0.60271(15) 0.95880(13) 0.76523(8)
O5 O 0.7800(2) 0.8889(2) 0.78170(12)
O6 O 0.49591(15) 0.65713(12) 1.06964(8)
O7 O 0.32448(17) 0.58662(13) 1.03850(10)
O8 O 0.33672(15) 1.03419(12) 1.11824(8)
O9 O 0.16135(18) 0.95649(17) 1.13285(10)
C1 C 0.5468(3) 1.16673(19) 0.87542(13)
H1 H 0.6111 1.1909 0.9025
H2 H 0.4907 1.2208 0.8685
C2 C 0.5948(3) 1.1281(2) 0.81054(13)
H3 H 0.6724 1.1591 0.8025
C3 C 0.6138(2) 1.01602(19) 0.82359(12)
H4 H 0.6941 1.0065 0.8410
C4 C 0.5248(2) 0.98482(17) 0.87480(11)
C5 C 0.5419(2) 0.88771(17) 0.90812(11)
H5 H 0.6178 0.8774 0.9248
C6 C 0.4665(2) 0.81344(17) 0.91794(11)
C7 C 0.5027(2) 0.72616(18) 0.96047(12)
H6 H 0.4599 0.6665 0.9458
C8 C 0.4692(2) 0.74651(16) 1.03166(12)
H7 H 0.3842 0.7619 1.0348
C9 C 0.5403(2) 0.82866(17) 1.06236(12)
H8 H 0.6243 0.8282 1.0496
C10 C 0.5208(2) 0.85966(19) 1.13239(12)
C11 C 0.4936(2) 0.93254(17) 1.07843(11)
H9 H 0.5532 0.9854 1.0737
C12 C 0.3687(2) 0.96644(18) 1.06490(12)
H10 H 0.3163 0.9080 1.0671
C13 C 0.3503(2) 1.01692(19) 0.99899(12)
H11 H 0.3443 0.9632 0.9669
C14 C 0.4505(2) 1.08386(18) 0.97693(12)
C15 C 0.4865(2) 1.07925(18) 0.90650(12)
C16 C 0.5131(4) 1.1518(2) 0.75348(15)
H12 H 0.4377 1.1197 0.7599
H13 H 0.5485 1.1279 0.7141
H14 H 0.5017 1.2227 0.7506
C17 C 0.3413(2) 0.8062(2) 0.89204(14)
H15 H 0.3247 0.8633 0.8653
H16 H 0.2863 0.8044 0.9276
H17 H 0.3333 0.7464 0.8667
C18 C 0.6293(3) 0.8825(2) 1.17295(15)
H18 H 0.6087 0.9296 1.2062
H19 H 0.6903 0.9103 1.1458
H20 H 0.6579 0.8221 1.1926
C19 C 0.4211(3) 0.8132(2) 1.17096(14)
H21 H 0.4499 0.7546 1.1928
H22 H 0.3574 0.7950 1.1423
H23 H 0.3925 0.8603 1.2024
C20 C 0.2343(3) 1.0766(3) 0.99467(15)
H24 H 0.2380 1.1326 1.0237
H25 H 0.1687 1.0345 1.0065
H26 H 0.2235 1.1001 0.9511
C21 C 0.6986(3) 0.9052(2) 0.74666(13)
C22 C 0.6922(3) 0.8723(2) 0.67812(14)
C23 C 0.6170(3) 0.9137(2) 0.63773(13)
H27 H 0.5624 0.9585 0.6551
C24 C 0.6107(4) 0.8956(3) 0.56610(15)
H28 H 0.6659 0.8439 0.5544
H29 H 0.6306 0.9559 0.5434
H30 H 0.5316 0.8753 0.5546
C25 C 0.7856(4) 0.7978(3) 0.6595(2)
H31 H 0.7918 0.7948 0.6131
H32 H 0.7642 0.7332 0.6760
H33 H 0.8607 0.8177 0.6776
C26 C 0.4161(2) 0.58319(19) 1.06945(13)
C27 C 0.4552(2) 0.49726(18) 1.11027(12)
C28 C 0.3987(3) 0.41170(19) 1.10161(13)
H34 H 0.3366 0.4123 1.0718
C29 C 0.4231(4) 0.3145(2) 1.13414(17)
H35 H 0.4723 0.2740 1.1066
H36 H 0.3494 0.2805 1.1422
H37 H 0.4633 0.3263 1.1745
C30 C 0.5549(3) 0.5139(2) 1.15695(16)
H38 H 0.5690 0.4539 1.1812
H39 H 0.5343 0.5670 1.1862
H40 H 0.6256 0.5317 1.1335
C31 C 0.2333(3) 1.0182(2) 1.14833(13)
C32 C 0.2174(3) 1.0876(2) 1.20456(14)
H41 H 0.1821 1.1488 1.1898
H42 H 0.2933 1.1015 1.2238
H43 H 0.1664 1.0570 1.2362
H44 H 0.643(3) 0.669(3) 0.923(2)
loop_
_geom_bond_atom_site_label_1
_geom_bond_atom_site_label_2
_geom_bond_site_symmetry_1
_geom_bond_site_symmetry_2
O1 C4 1_555 1_555
O2 C7 1_555 1_555
O3 C14 1_555 1_555
O4 C3 1_555 1_555
O5 C21 1_555 1_555
O6 C8 1_555 1_555
O7 C26 1_555 1_555
O8 C12 1_555 1_555
O9 C31 1_555 1_555
C1 H1 1_555 1_555
H2 C1 1_555 1_555
C2 C1 1_555 1_555
H3 C2 1_555 1_555
C3 C2 1_555 1_555
H4 C3 1_555 1_555
C4 C3 1_555 1_555
C5 C4 1_555 1_555
H5 C5 1_555 1_555
C6 C5 1_555 1_555
C7 C6 1_555 1_555
H6 C7 1_555 1_555
C8 C7 1_555 1_555
H7 C8 1_555 1_555
C9 C8 1_555 1_555
H8 C9 1_555 1_555
C10 C9 1_555 1_555
C11 C9 1_555 1_555
H9 C11 1_555 1_555
C12 C11 1_555 1_555
H10 C12 1_555 1_555
C13 C12 1_555 1_555
H11 C13 1_555 1_555
C14 C13 1_555 1_555
C15 O1 1_555 1_555
C16 C2 1_555 1_555
H12 C16 1_555 1_555
H13 C16 1_555 1_555
H14 C16 1_555 1_555
C17 C6 1_555 1_555
H15 C17 1_555 1_555
H16 C17 1_555 1_555
H17 C17 1_555 1_555
C18 C10 1_555 1_555
H18 C18 1_555 1_555
H19 C18 1_555 1_555
H20 C18 1_555 1_555
C19 C10 1_555 1_555
H21 C19 1_555 1_555
H22 C19 1_555 1_555
H23 C19 1_555 1_555
C20 C13 1_555 1_555
H24 C20 1_555 1_555
H25 C20 1_555 1_555
H26 C20 1_555 1_555
C21 O4 1_555 1_555
C22 C21 1_555 1_555
C23 C22 1_555 1_555
H27 C23 1_555 1_555
C24 C23 1_555 1_555
H28 C24 1_555 1_555
H29 C24 1_555 1_555
H30 C24 1_555 1_555
C25 C22 1_555 1_555
H31 C25 1_555 1_555
H32 C25 1_555 1_555
H33 C25 1_555 1_555
C26 O6 1_555 1_555
C27 C26 1_555 1_555
C28 C27 1_555 1_555
H34 C28 1_555 1_555
C29 C28 1_555 1_555
H35 C29 1_555 1_555
H36 C29 1_555 1_555
H37 C29 1_555 1_555
C30 C27 1_555 1_555
H38 C30 1_555 1_555
H39 C30 1_555 1_555
H40 C30 1_555 1_555
C31 O8 1_555 1_555
C32 C31 1_555 1_555
H41 C32 1_555 1_555
H42 C32 1_555 1_555
H43 C32 1_555 1_555
H44 O2 1_555 1_555
C1 C15 1_555 1_555
C4 C15 1_555 1_555
C10 C11 1_555 1_555
C14 C15 1_555 1_555

#END
