
#######################################################################
#
#                 Cambridge Crystallographic Data Centre
#                                CCDC 
#
#######################################################################
#
# If this CIF has been generated from an entry in the Cambridge 
# Structural Database, then it will include bibliographic, chemical, 
# crystal, experimental, refinement or atomic coordinate data resulting 
# from the CCDC's data processing and validation procedures.
#
#######################################################################

data_LUDWAJ
_chemical_compound_source        'apical buds of Gardenia sootepensis'
_chemical_name_common            
'Methyl 3-(4-(7-hydroxy-6-methylhept-5-en-2-yl)-3a,6a-dimethyl-10-methylene-9-oxododecahydro-1H-cyclopenta[7,8]cyclopropa[4,4a]naphtho[2,3-b]furan-10b(2H)-yl)propanoate'
_chemical_formula_moiety         'C31 H46 O5'
_chemical_name_systematic        'Sootepin A'
_chemical_properties_biological  
'tested for in vitro cytotoxic activity against various human cancer cell lines'
_symmetry_cell_setting           triclinic
_symmetry_space_group_name_H-M   'P 1'
_symmetry_Int_Tables_number      1
_space_group_name_Hall           'P 1'
loop_
_symmetry_equiv_pos_site_id
_symmetry_equiv_pos_as_xyz
1 x,y,z
_cell_length_a                   7.3556(2)
_cell_length_b                   7.4296(2)
_cell_length_c                   14.2899(4)
_cell_angle_alpha                81.7620(10)
_cell_angle_beta                 82.9370(10)
_cell_angle_gamma                65.0020(10)
_cell_volume                     698.775
_exptl_crystal_colour            colorless
_exptl_crystal_description       prism
_chemical_melting_point          '143-144 deg.C'
_cell_formula_units_Z            1
loop_
_atom_site_label
_atom_site_type_symbol
_atom_site_fract_x
_atom_site_fract_y
_atom_site_fract_z
C1 C 0.5349(4) 0.7125(4) 0.05353(19)
H1 H 0.4070 0.7346 0.0886
H2 H 0.5713 0.8183 0.0650
C2 C 0.3043(14) -0.6369(10) 0.5452(4)
H3 H 0.2659 -0.6315 0.6125
H4 H 0.1950 -0.5344 0.5107
C3 C 0.7083(12) -0.7475(8) 0.5465(4)
H5 H 0.6984 -0.8664 0.5781
H6 H 0.7602 -0.6927 0.5881
H7 H 0.7971 -0.7794 0.4903
O1 O 0.3395(13) -0.8151(10) 0.5209(4)
H8 H 0.2378 -0.8359 0.5333
H9 H 1.162(5) 0.273(5) -0.121(2)
H10 H 1.017(4) 0.400(4) -0.206(2)
H11 H 0.365(4) 0.738(4) -0.0600(18)
H12 H 0.727(4) 0.548(4) 0.150(2)
H13 H 1.109(4) 0.264(4) 0.1246(19)
H14 H 1.150(4) 0.177(4) 0.0287(19)
H15 H 1.072(5) -0.024(5) 0.160(2)
H16 H 0.933(4) 0.017(4) 0.071(2)
H17 H 0.442(5) 0.505(5) 0.248(2)
H18 H 0.302(5) 0.486(5) 0.169(2)
H19 H 0.433(4) 0.222(4) 0.328(2)
H20 H 0.335(5) 0.178(4) 0.246(2)
H21 H 0.645(4) -0.020(4) 0.185(2)
H22 H 0.910(5) 0.329(5) 0.255(2)
H23 H 0.732(4) 0.304(4) 0.322(2)
H24 H 0.945(5) 0.131(5) 0.299(2)
H25 H 0.872(5) 0.730(5) -0.013(2)
H26 H 1.115(5) 0.514(4) -0.032(2)
H27 H 0.723(4) -0.035(4) 0.3762(19)
H28 H 0.980(5) -0.354(6) 0.345(3)
H29 H 1.036(5) -0.213(5) 0.296(2)
H30 H 0.941(7) -0.307(7) 0.240(4)
H31 H 0.587(5) -0.292(5) 0.308(2)
H32 H 0.454(6) -0.091(6) 0.350(3)
H33 H 0.779(7) -0.451(7) 0.433(3)
H34 H 0.618(6) -0.242(6) 0.490(3)
H35 H 0.354(7) -0.316(7) 0.469(4)
H36 H 0.782(5) 0.567(6) -0.312(3)
H37 H 0.715(6) 0.813(6) -0.335(3)
H38 H 0.499(6) 0.170(6) 0.077(3)
H39 H 0.453(4) 0.395(4) 0.0156(18)
H40 H 0.661(4) 0.224(4) 0.0006(19)
H41 H 0.609(4) 0.501(4) -0.1301(19)
C4 C 1.0197(4) 0.3243(4) -0.14196(18)
C5 C 0.9755(4) 0.1442(4) -0.1499(2)
H42 H 1.0113 0.0539 -0.0924
H43 H 0.8323 0.1891 -0.1548
C6 C 1.0862(4) 0.0329(5) -0.2330(2)
C7 C 0.6721(4) 0.7367(4) -0.20314(19)
C8 C 0.6659(3) 0.5932(4) -0.11705(17)
C9 C 0.5026(4) 0.7360(4) -0.05136(18)
C10 C 0.6923(3) 0.5145(3) 0.09565(16)
C11 C 0.8837(3) 0.4293(3) 0.03074(16)
C12 C 0.8729(3) 0.4729(3) -0.07667(16)
C13 C 1.0418(3) 0.2340(4) 0.07480(18)
C14 C 0.9616(3) 0.0793(3) 0.12385(17)
C15 C 0.7780(3) 0.1751(3) 0.19189(14)
C16 C 0.6144(3) 0.3536(3) 0.13316(15)
C17 C 0.4321(4) 0.4151(4) 0.20534(18)
C18 C 0.4433(4) 0.2184(4) 0.25978(18)
C19 C 0.6558(3) 0.0519(3) 0.23548(16)
C20 C 0.8406(4) 0.2447(4) 0.27411(18)
C21 C 0.9594(4) 0.5776(4) -0.02454(19)
C22 C 0.7331(4) -0.1060(4) 0.32101(17)
C23 C 0.9438(5) -0.2651(5) 0.2992(3)
C24 C 0.5859(4) -0.2039(4) 0.35164(19)
C25 C 0.6190(6) -0.3295(6) 0.4471(2)
C26 C 0.4697(7) -0.4175(6) 0.4750(2)
C27 C 0.5063(9) -0.5992(7) 0.5202(2)
C28 C 0.7325(6) 0.7030(8) -0.2922(2)
C29 C 0.5768(4) 0.9414(4) -0.1732(2)
C30 C 0.5561(3) 0.2837(4) 0.04971(17)
C31 C 1.2278(7) -0.2829(8) -0.2924(4)
H44 H 1.2589 -0.4202 -0.2701
H45 H 1.3489 -0.2691 -0.3176
H46 H 1.1350 -0.2400 -0.3411
O2 O 1.1197(6) 0.1067(5) -0.3083(2)
O3 O 1.1375(4) -0.1604(4) -0.21389(18)
O4 O 0.4831(3) 0.9379(3) -0.08788(15)
O5 O 0.5741(4) 1.0953(4) -0.21542(18)
loop_
_geom_bond_atom_site_label_1
_geom_bond_atom_site_label_2
_geom_bond_site_symmetry_1
_geom_bond_site_symmetry_2
C1 H1 1_555 1_555
H2 C1 1_555 1_555
C2 H3 1_555 1_555
H4 C2 1_555 1_555
C3 H5 1_555 1_555
H6 C3 1_555 1_555
H7 C3 1_555 1_555
O1 C2 1_555 1_555
H8 O1 1_555 1_555
H9 C4 1_555 1_555
H10 C4 1_555 1_555
H11 C9 1_555 1_555
H12 C10 1_555 1_555
H13 C13 1_555 1_555
H14 C13 1_555 1_555
H15 C14 1_555 1_555
H16 C14 1_555 1_555
H17 C17 1_555 1_555
H18 C17 1_555 1_555
H19 C18 1_555 1_555
H20 C18 1_555 1_555
H21 C19 1_555 1_555
H22 C20 1_555 1_555
H23 C20 1_555 1_555
H24 C20 1_555 1_555
H25 C21 1_555 1_555
H26 C21 1_555 1_555
H27 C22 1_555 1_555
H28 C23 1_555 1_555
H29 C23 1_555 1_555
H30 C23 1_555 1_555
H31 C24 1_555 1_555
H32 C24 1_555 1_555
H33 C25 1_555 1_555
H34 C25 1_555 1_555
H35 C26 1_555 1_555
H36 C28 1_555 1_555
H37 C28 1_555 1_555
H38 C30 1_555 1_555
H39 C30 1_555 1_555
H40 C30 1_555 1_555
H41 C8 1_555 1_555
C4 C5 1_555 1_555
C5 H42 1_555 1_555
H43 C5 1_555 1_555
C6 C5 1_555 1_555
C7 C8 1_555 1_555
C8 C9 1_555 1_555
C9 C1 1_555 1_555
C10 C1 1_555 1_555
C11 C10 1_555 1_555
C12 C4 1_555 1_555
C13 C11 1_555 1_555
C14 C13 1_555 1_555
C15 C14 1_555 1_555
C16 C10 1_555 1_555
C17 C16 1_555 1_555
C18 C17 1_555 1_555
C19 C15 1_555 1_555
C20 C15 1_555 1_555
C21 C11 1_555 1_555
C22 C19 1_555 1_555
C23 C22 1_555 1_555
C24 C22 1_555 1_555
C25 C24 1_555 1_555
C26 C25 1_555 1_555
C27 C2 1_555 1_555
C28 C7 1_555 1_555
C29 C7 1_555 1_555
C30 C16 1_555 1_555
C31 H44 1_555 1_555
H45 C31 1_555 1_555
H46 C31 1_555 1_555
O2 C6 1_555 1_555
O3 C6 1_555 1_555
O4 C9 1_555 1_555
O5 C29 1_555 1_555
C3 C27 1_555 1_555
C8 C12 1_555 1_555
C11 C12 1_555 1_555
C12 C21 1_555 1_555
C15 C16 1_555 1_555
C18 C19 1_555 1_555
C26 C27 1_555 1_555
C29 O4 1_555 1_555
C31 O3 1_555 1_555

#END
