
#######################################################################
#
#                 Cambridge Crystallographic Data Centre
#                                CCDC 
#
#######################################################################
#
# If this CIF has been generated from an entry in the Cambridge 
# Structural Database, then it will include bibliographic, chemical, 
# crystal, experimental, refinement or atomic coordinate data resulting 
# from the CCDC's data processing and validation procedures.
#
#######################################################################

data_LUDWOX
_chemical_name_common            
4-Methoxy-5b,8,8,11a,13a-pentamethyl-4,5,5a,5b,6,7,7a,8,9,10,11,11a,11b,12,13,13a-hexadecahydrochryseno[1,2-c]furan-13-ol
_chemical_formula_moiety         'C26 H40 O3'
_chemical_name_systematic        '16-O-Methylsesterstatin 4'
_chemical_properties_biological  
'tested for cytotoxic and antimicrobial activity'
_symmetry_cell_setting           monoclinic
_symmetry_space_group_name_H-M   'P 21'
_symmetry_Int_Tables_number      4
_space_group_name_Hall           'P 2yb'
loop_
_symmetry_equiv_pos_site_id
_symmetry_equiv_pos_as_xyz
1 x,y,z
2 -x,1/2+y,-z
_cell_length_a                   11.061(4)
_cell_length_b                   6.048(2)
_cell_length_c                   16.603(7)
_cell_angle_alpha                90
_cell_angle_beta                 101.298(17)
_cell_angle_gamma                90
_cell_volume                     1089.17
_exptl_crystal_colour            colorless
_exptl_crystal_description       needle
_cell_formula_units_Z            2
_exptl_crystal_recrystallization_method chloroform
loop_
_atom_site_label
_atom_site_type_symbol
_atom_site_fract_x
_atom_site_fract_y
_atom_site_fract_z
O1 O 0.5293(3) 0.4966(6) 0.48402(16)
H1 H 0.5290 0.3643 0.4994
O2 O 0.8889(2) 0.7677(5) 0.26387(16)
O3 O 0.8940(2) 0.7970(5) 0.53033(16)
C1 C 0.2166(3) 0.4371(7) 0.2116(2)
H2 H 0.1998 0.3752 0.2635
H3 H 0.2331 0.5971 0.2202
C2 C 0.1018(3) 0.4073(8) 0.1439(2)
H4 H 0.0786 0.2490 0.1398
H5 H 0.0323 0.4910 0.1586
C3 C 0.1237(3) 0.4873(8) 0.0609(3)
H6 H 0.0493 0.4544 0.0187
H7 H 0.1341 0.6499 0.0632
C4 C 0.2350(3) 0.3857(7) 0.0338(3)
C5 C 0.3489(3) 0.4077(7) 0.1056(2)
H8 H 0.3607 0.5709 0.1129
C6 C 0.4702(3) 0.3271(7) 0.0844(2)
H9 H 0.4774 0.3848 0.0297
H10 H 0.4696 0.1636 0.0815
C7 C 0.5817(3) 0.4035(7) 0.1485(2)
H11 H 0.5864 0.5669 0.1473
H12 H 0.6578 0.3446 0.1335
C8 C 0.5764(3) 0.3283(7) 0.2364(2)
C9 C 0.4497(3) 0.4058(7) 0.2540(2)
H13 H 0.4500 0.5696 0.2461
C10 C 0.3324(3) 0.3246(7) 0.1917(2)
C11 C 0.4430(3) 0.3762(7) 0.3446(2)
H14 H 0.3620 0.4288 0.3537
H15 H 0.4504 0.2173 0.3589
C12 C 0.5453(3) 0.5044(8) 0.3997(2)
H16 H 0.5357 0.6626 0.3821
C13 C 0.6738(3) 0.4333(7) 0.3903(2)
C14 C 0.6798(3) 0.4544(7) 0.2972(2)
H17 H 0.6652 0.6146 0.2838
C15 C 0.8117(3) 0.4080(7) 0.2846(2)
H18 H 0.8396 0.2640 0.3099
H19 H 0.8111 0.3971 0.2250
C16 C 0.9023(3) 0.5864(7) 0.3217(2)
H20 H 0.9879 0.5262 0.3285
C17 C 0.8799(3) 0.6560(7) 0.4044(2)
C18 C 0.7715(3) 0.5901(7) 0.4350(2)
C19 C 0.7858(3) 0.6792(7) 0.5116(2)
H21 H 0.7289 0.6622 0.5472
C20 C 0.9494(3) 0.7785(7) 0.4640(2)
H22 H 1.0265 0.8432 0.4603
C21 C 0.2077(4) 0.1466(8) 0.0048(3)
H23 H 0.2840 0.0760 -0.0035
H24 H 0.1473 0.1466 -0.0470
H25 H 0.1743 0.0647 0.0465
C22 C 0.2578(4) 0.5175(8) -0.0401(2)
H26 H 0.3161 0.4373 -0.0669
H27 H 0.2923 0.6624 -0.0218
H28 H 0.1798 0.5375 -0.0792
C23 C 0.3144(4) 0.0727(7) 0.1972(3)
H29 H 0.3648 -0.0030 0.1633
H30 H 0.2274 0.0361 0.1774
H31 H 0.3396 0.0249 0.2544
C24 C 0.5986(4) 0.0754(7) 0.2425(3)
H32 H 0.5588 0.0051 0.1909
H33 H 0.5637 0.0156 0.2878
H34 H 0.6874 0.0456 0.2526
C25 C 0.7043(4) 0.2014(7) 0.4282(2)
H35 H 0.6393 0.0972 0.4041
H36 H 0.7093 0.2087 0.4877
H37 H 0.7835 0.1512 0.4167
C26 C 0.9930(4) 0.9095(8) 0.2762(3)
H38 H 0.9832 1.0194 0.2321
H39 H 1.0676 0.8221 0.2760
H40 H 1.0003 0.9850 0.3292
loop_
_geom_bond_atom_site_label_1
_geom_bond_atom_site_label_2
_geom_bond_site_symmetry_1
_geom_bond_site_symmetry_2
O1 H1 1_555 1_555
O2 C16 1_555 1_555
O3 C19 1_555 1_555
C1 H2 1_555 1_555
H3 C1 1_555 1_555
C2 C1 1_555 1_555
H4 C2 1_555 1_555
H5 C2 1_555 1_555
C3 C2 1_555 1_555
H6 C3 1_555 1_555
H7 C3 1_555 1_555
C4 C3 1_555 1_555
C5 C4 1_555 1_555
H8 C5 1_555 1_555
C6 C5 1_555 1_555
H9 C6 1_555 1_555
H10 C6 1_555 1_555
C7 C6 1_555 1_555
H11 C7 1_555 1_555
H12 C7 1_555 1_555
C8 C7 1_555 1_555
C9 C8 1_555 1_555
H13 C9 1_555 1_555
C10 C1 1_555 1_555
C11 C9 1_555 1_555
H14 C11 1_555 1_555
H15 C11 1_555 1_555
C12 O1 1_555 1_555
H16 C12 1_555 1_555
C13 C12 1_555 1_555
C14 C8 1_555 1_555
H17 C14 1_555 1_555
C15 C14 1_555 1_555
H18 C15 1_555 1_555
H19 C15 1_555 1_555
C16 C15 1_555 1_555
H20 C16 1_555 1_555
C17 C16 1_555 1_555
C18 C13 1_555 1_555
C19 C18 1_555 1_555
H21 C19 1_555 1_555
C20 O3 1_555 1_555
H22 C20 1_555 1_555
C21 C4 1_555 1_555
H23 C21 1_555 1_555
H24 C21 1_555 1_555
H25 C21 1_555 1_555
C22 C4 1_555 1_555
H26 C22 1_555 1_555
H27 C22 1_555 1_555
H28 C22 1_555 1_555
C23 C10 1_555 1_555
H29 C23 1_555 1_555
H30 C23 1_555 1_555
H31 C23 1_555 1_555
C24 C8 1_555 1_555
H32 C24 1_555 1_555
H33 C24 1_555 1_555
H34 C24 1_555 1_555
C25 C13 1_555 1_555
H35 C25 1_555 1_555
H36 C25 1_555 1_555
H37 C25 1_555 1_555
C26 O2 1_555 1_555
H38 C26 1_555 1_555
H39 C26 1_555 1_555
H40 C26 1_555 1_555
C5 C10 1_555 1_555
C9 C10 1_555 1_555
C11 C12 1_555 1_555
C13 C14 1_555 1_555
C17 C18 1_555 1_555
C17 C20 1_555 1_555

#END
