
#######################################################################
#
#                 Cambridge Crystallographic Data Centre
#                                CCDC 
#
#######################################################################
#
# If this CIF has been generated from an entry in the Cambridge 
# Structural Database, then it will include bibliographic, chemical, 
# crystal, experimental, refinement or atomic coordinate data resulting 
# from the CCDC's data processing and validation procedures.
#
#######################################################################

data_LUDXIT
_chemical_formula_moiety         'C18 H48 Na1 P6 1+,C32 H12 B1 F24 1-'
_chemical_name_systematic        
'tris(Ethane-1,2-diylbis(dimethylphosphine))-sodium tetrakis(3,5-bis(trifluoromethyl)phenyl)borate'
_symmetry_cell_setting           monoclinic
_symmetry_space_group_name_H-M   'P 21/c'
_symmetry_Int_Tables_number      14
_space_group_name_Hall           '-P 2ybc'
loop_
_symmetry_equiv_pos_site_id
_symmetry_equiv_pos_as_xyz
1 x,y,z
2 -x,1/2+y,1/2-z
3 -x,-y,-z
4 x,1/2-y,1/2+z
_cell_length_a                   18.4514(10)
_cell_length_b                   13.2631(10)
_cell_length_c                   26.133(2)
_cell_angle_alpha                90
_cell_angle_beta                 90.826(3)
_cell_angle_gamma                90
_cell_volume                     6394.68
_exptl_crystal_colour            colorless
_cell_formula_units_Z            4
loop_
_atom_site_label
_atom_site_type_symbol
_atom_site_fract_x
_atom_site_fract_y
_atom_site_fract_z
Na1 Na 0.24496(3) 0.77064(5) 0.60697(2)
P1 P 0.24122(2) 0.58536(3) 0.674590(17)
P2 P 0.39429(2) 0.72401(4) 0.647683(18)
P3 P 0.27136(3) 0.65764(4) 0.511308(19)
P4 P 0.31821(3) 0.91081(3) 0.537197(19)
P5 P 0.09309(3) 0.82918(5) 0.58196(2)
P6 P 0.18999(3) 0.90156(4) 0.69143(2)
C1 C 0.25204(16) 0.46878(17) 0.63872(10)
H1 H 0.2504 0.4113 0.6622
H2 H 0.2987 0.4696 0.6213
H3 H 0.2127 0.4627 0.6133
C2 C 0.17701(10) 0.54364(18) 0.72295(8)
H4 H 0.1931 0.4790 0.7373
H5 H 0.1289 0.5355 0.7071
H6 H 0.1746 0.5941 0.7503
C3 C 0.32478(9) 0.58592(17) 0.71379(7)
H7 H 0.3205 0.6387 0.7404
H8 H 0.3292 0.5202 0.7315
C4 C 0.39431(10) 0.60484(16) 0.68371(8)
H9 H 0.4013 0.5484 0.6595
H10 H 0.4361 0.6049 0.7079
C5 C 0.48573(10) 0.71990(17) 0.62103(8)
H11 H 0.5206 0.7008 0.6479
H12 H 0.4983 0.7865 0.6076
H13 H 0.4870 0.6702 0.5933
C6 C 0.40928(13) 0.8161(2) 0.69880(10)
H14 H 0.4574 0.8057 0.7142
H15 H 0.3723 0.8076 0.7250
H16 H 0.4062 0.8844 0.6846
C7 C 0.35112(14) 0.57475(17) 0.51013(9)
H17 H 0.3539 0.5418 0.4767
H18 H 0.3470 0.5234 0.5369
H19 H 0.3950 0.6148 0.5162
C8 C 0.20785(17) 0.5844(2) 0.47179(11)
H20 H 0.2334 0.5562 0.4425
H21 H 0.1686 0.6283 0.4595
H22 H 0.1876 0.5295 0.4922
C9 C 0.29711(14) 0.75445(15) 0.46517(8)
H23 H 0.3170 0.7212 0.4345
H24 H 0.2532 0.7921 0.4543
C10 C 0.35253(12) 0.82812(16) 0.48605(9)
H25 H 0.3698 0.8708 0.4576
H26 H 0.3947 0.7898 0.4996
C11 C 0.26582(12) 1.00135(15) 0.49943(8)
H27 H 0.2987 1.0416 0.4785
H28 H 0.2391 1.0459 0.5224
H29 H 0.2315 0.9652 0.4771
C12 C 0.39939(13) 0.98582(19) 0.55092(13)
H30 H 0.4117 1.0256 0.5207
H31 H 0.4398 0.9408 0.5597
H32 H 0.3902 1.0312 0.5797
C13 C 0.04969(18) 0.9179(2) 0.53958(14)
C14 C 0.0349(2) 0.7153(3) 0.55944(16)
C15 C 0.05491(15) 0.8425(3) 0.64614(11)
C16 C 0.2153(2) 1.0269(3) 0.71554(18)
C17 C 0.1771(2) 0.8311(3) 0.75193(14)
C18 C 0.09212(11) 0.92762(19) 0.67735(10)
B1 B 0.24808(9) 0.25969(13) 0.37130(7)
F1 F 0.44128(5) -0.00969(8) 0.30634(4)
F2 F 0.45045(6) -0.03660(10) 0.38661(4)
F3 F 0.40811(6) -0.15174(8) 0.33664(6)
F4 F 0.08269(6) -0.06292(9) 0.34432(6)
F5 F 0.14996(6) -0.19171(8) 0.35135(6)
F6 F 0.12072(7) -0.10930(11) 0.41756(5)
F7 F 0.10389(7) 0.18737(12) 0.53850(5)
F8 F 0.11180(7) 0.34154(11) 0.55670(6)
F9 F 0.16758(7) 0.23637(14) 0.60226(5)
F10 F 0.45270(8) 0.37287(12) 0.50791(6)
F11 F 0.45818(9) 0.21208(13) 0.51584(7)
F12 F 0.42154(11) 0.30211(14) 0.57931(7)
F13 F 0.04264(6) 0.51566(9) 0.42368(4)
F14 F -0.03014(6) 0.53052(10) 0.35975(5)
F15 F 0.07168(8) 0.60636(9) 0.35981(6)
F16 F -0.02607(10) 0.28155(14) 0.22808(7)
F17 F 0.04836(11) 0.15771(14) 0.23513(8)
F18 F 0.07822(12) 0.29078(16) 0.19271(8)
F19 F 0.46683(7) 0.60176(10) 0.31301(5)
F20 F 0.43833(9) 0.55931(11) 0.38817(5)
F21 F 0.36236(9) 0.63777(10) 0.34118(8)
F22 F 0.32357(11) 0.28627(15) 0.17590(8)
F23 F 0.42310(15) 0.3648(2) 0.17494(11)
F24 F 0.39581(17) 0.1937(2) 0.20327(12)
C23 C 0.25630(8) 0.13727(12) 0.36336(6)
C24 C 0.32391(8) 0.09184(11) 0.35657(6)
H33 H 0.3655 0.1338 0.3543
C25 C 0.33291(8) -0.01217(12) 0.35299(6)
C26 C 0.27369(8) -0.07666(12) 0.35623(6)
H34 H 0.2794 -0.1476 0.3535
C27 C 0.20586(8) -0.03360(12) 0.36363(6)
C28 C 0.19742(8) 0.07058(12) 0.36737(6)
H35 H 0.1504 0.0974 0.3728
C29 C 0.40768(9) -0.05316(13) 0.34555(7)
C30 C 0.14028(9) -0.09956(13) 0.36922(7)
C31 C 0.26023(8) 0.27483(11) 0.43304(6)
C32 C 0.20292(8) 0.26668(11) 0.46744(6)
H36 H 0.1549 0.2606 0.4543
C33 C 0.21397(8) 0.26724(12) 0.52018(6)
C34 C 0.28310(9) 0.27614(11) 0.54151(6)
H37 H 0.2905 0.2764 0.5776
C35 C 0.34110(9) 0.28472(11) 0.50832(6)
C36 C 0.32950(8) 0.28341(11) 0.45532(6)
H38 H 0.3702 0.2885 0.4336
C37 C 0.15011(10) 0.25712(15) 0.55439(7)
C38 C 0.41667(9) 0.29310(12) 0.52877(6)
C39 C 0.17012(8) 0.30224(12) 0.34948(6)
C40 C 0.13601(8) 0.38707(12) 0.37020(6)
H39 H 0.1559 0.4164 0.4005
C41 C 0.07375(8) 0.43027(13) 0.34803(6)
C42 C 0.04385(9) 0.38937(13) 0.30341(6)
H40 H 0.0017 0.4181 0.2880
C43 C 0.07688(9) 0.30574(13) 0.28194(6)
C44 C 0.13858(8) 0.26345(12) 0.30478(6)
H41 H 0.1599 0.2061 0.2893
C45 C 0.03956(9) 0.51984(14) 0.37237(7)
C46 C 0.04640(9) 0.25934(14) 0.23375(7)
C47 C 0.30755(8) 0.32143(12) 0.33705(6)
C48 C 0.33685(8) 0.41383(11) 0.35213(6)
H42 H 0.3247 0.4405 0.3846
C49 C 0.38318(9) 0.46809(12) 0.32118(6)
C50 C 0.40221(9) 0.43342(13) 0.27301(6)
H43 H 0.4344 0.4705 0.2521
C51 C 0.37241(8) 0.34232(13) 0.25652(6)
C52 C 0.32644(8) 0.28785(12) 0.28791(6)
H44 H 0.3071 0.2258 0.2758
C53 C 0.41282(11) 0.56628(15) 0.34066(7)
C54 C 0.38999(9) 0.30249(14) 0.20515(7)
C19? C 0.0305(5) 0.7335(6) 0.6004(4)
C20? C 0.0720(4) 0.9428(5) 0.6251(2)
C21? C 0.2260(3) 1.0312(4) 0.6810(3)
C22? C 0.2012(5) 0.8915(7) 0.7626(2)
F25? F 0.4134(2) 0.3504(3) 0.57615(13)
F26? F 0.4484(2) 0.2112(3) 0.54262(17)
F27? F 0.4618(3) 0.3491(3) 0.50080(17)
F28? F 0.42597(19) 0.2535(3) 0.57682(12)
F29? F 0.4631(2) 0.2244(3) 0.50055(15)
F30? F 0.4471(3) 0.3816(3) 0.52573(18)
F31? F -0.0066(2) 0.3042(3) 0.21269(16)
F32? F 0.02627(19) 0.1590(2) 0.24399(14)
F33? F 0.09964(18) 0.2418(3) 0.19857(13)
F34? F -0.0256(2) 0.2455(4) 0.2330(2)
F35? F 0.0783(3) 0.1787(3) 0.2162(2)
F36? F 0.0550(2) 0.3299(3) 0.19236(14)
F37? F 0.45758(15) 0.2669(2) 0.20512(12)
F38? F 0.34095(15) 0.2476(2) 0.18521(11)
F39? F 0.39881(15) 0.3910(2) 0.17156(11)
F40? F 0.44994(18) 0.3232(3) 0.18428(14)
F41? F 0.3518(3) 0.3015(5) 0.1723(2)
F42? F 0.42710(19) 0.2209(3) 0.20770(15)
loop_
_geom_bond_atom_site_label_1
_geom_bond_atom_site_label_2
_geom_bond_site_symmetry_1
_geom_bond_site_symmetry_2
Na1 P1 1_555 1_555
P1 C1 1_555 1_555
P2 Na1 1_555 1_555
P3 Na1 1_555 1_555
P4 Na1 1_555 1_555
P5 Na1 1_555 1_555
P6 Na1 1_555 1_555
C1 H1 1_555 1_555
H2 C1 1_555 1_555
H3 C1 1_555 1_555
C2 P1 1_555 1_555
H4 C2 1_555 1_555
H5 C2 1_555 1_555
H6 C2 1_555 1_555
C3 P1 1_555 1_555
H7 C3 1_555 1_555
H8 C3 1_555 1_555
C4 P2 1_555 1_555
H9 C4 1_555 1_555
H10 C4 1_555 1_555
C5 P2 1_555 1_555
H11 C5 1_555 1_555
H12 C5 1_555 1_555
H13 C5 1_555 1_555
C6 P2 1_555 1_555
H14 C6 1_555 1_555
H15 C6 1_555 1_555
H16 C6 1_555 1_555
C7 P3 1_555 1_555
H17 C7 1_555 1_555
H18 C7 1_555 1_555
H19 C7 1_555 1_555
C8 P3 1_555 1_555
H20 C8 1_555 1_555
H21 C8 1_555 1_555
H22 C8 1_555 1_555
C9 P3 1_555 1_555
H23 C9 1_555 1_555
H24 C9 1_555 1_555
C10 P4 1_555 1_555
H25 C10 1_555 1_555
H26 C10 1_555 1_555
C11 P4 1_555 1_555
H27 C11 1_555 1_555
H28 C11 1_555 1_555
H29 C11 1_555 1_555
C12 P4 1_555 1_555
H30 C12 1_555 1_555
H31 C12 1_555 1_555
H32 C12 1_555 1_555
C13 P5 1_555 1_555
C14 P5 1_555 1_555
C15 P5 1_555 1_555
C16 P6 1_555 1_555
C17 P6 1_555 1_555
C18 P6 1_555 1_555
B1 C23 1_555 1_555
F1 C29 1_555 1_555
F2 C29 1_555 1_555
F3 C29 1_555 1_555
F4 C30 1_555 1_555
F5 C30 1_555 1_555
F6 C30 1_555 1_555
F7 C37 1_555 1_555
F8 C37 1_555 1_555
F9 C37 1_555 1_555
F10 C38 1_555 1_555
F11 C38 1_555 1_555
F12 C38 1_555 1_555
F13 C45 1_555 1_555
F14 C45 1_555 1_555
F15 C45 1_555 1_555
F16 C46 1_555 1_555
F17 C46 1_555 1_555
F18 C46 1_555 1_555
F19 C53 1_555 1_555
F20 C53 1_555 1_555
F21 C53 1_555 1_555
F22 C54 1_555 1_555
F23 C54 1_555 1_555
F24 C54 1_555 1_555
C23 C24 1_555 1_555
C24 H33 1_555 1_555
C25 C24 1_555 1_555
C26 C25 1_555 1_555
H34 C26 1_555 1_555
C27 C26 1_555 1_555
C28 C23 1_555 1_555
H35 C28 1_555 1_555
C29 C25 1_555 1_555
C30 C27 1_555 1_555
C31 B1 1_555 1_555
C32 C31 1_555 1_555
H36 C32 1_555 1_555
C33 C32 1_555 1_555
C34 C33 1_555 1_555
H37 C34 1_555 1_555
C35 C34 1_555 1_555
C36 C31 1_555 1_555
H38 C36 1_555 1_555
C37 C33 1_555 1_555
C38 C35 1_555 1_555
C39 B1 1_555 1_555
C40 C39 1_555 1_555
H39 C40 1_555 1_555
C41 C40 1_555 1_555
C42 C41 1_555 1_555
H40 C42 1_555 1_555
C43 C42 1_555 1_555
C44 C39 1_555 1_555
H41 C44 1_555 1_555
C45 C41 1_555 1_555
C46 C43 1_555 1_555
C47 B1 1_555 1_555
C48 C47 1_555 1_555
H42 C48 1_555 1_555
C49 C48 1_555 1_555
C50 C49 1_555 1_555
H43 C50 1_555 1_555
C51 C50 1_555 1_555
C52 C47 1_555 1_555
H44 C52 1_555 1_555
C53 C49 1_555 1_555
C54 C51 1_555 1_555
C3 C4 1_555 1_555
C9 C10 1_555 1_555
C15 C18 1_555 1_555
C27 C28 1_555 1_555
C35 C36 1_555 1_555
C43 C44 1_555 1_555
C51 C52 1_555 1_555

#END
