
#######################################################################
#
#                 Cambridge Crystallographic Data Centre
#                                CCDC 
#
#######################################################################
#
# If this CIF has been generated from an entry in the Cambridge 
# Structural Database, then it will include bibliographic, chemical, 
# crystal, experimental, refinement or atomic coordinate data resulting 
# from the CCDC's data processing and validation procedures.
#
#######################################################################

data_LUDXOY
_chemical_compound_source        'twigs of Swietenia macrophylla'
_chemical_name_common            
'11,12-Diacetoxy-8-(acetoxy(3-furyl)methyl)-9-(2-methoxy-2-oxoethyl)-3,8,14-trimethyl-17-oxo-2,4,18,22-tetraoxaheptacyclo[12.6.1.1$3,10!.0$1,12!.0$5,10!.0$5,20!.0$15,20!]docos-13-yl 2,3-dimethyloxirane-2-carboxylate'
_chemical_formula_moiety         'C40 H48 O17'
_chemical_name_systematic        'Swietenitin B'
_symmetry_cell_setting           orthorhombic
_symmetry_space_group_name_H-M   'P 21 21 21'
_symmetry_Int_Tables_number      19
_space_group_name_Hall           'P 2ac 2ab'
loop_
_symmetry_equiv_pos_site_id
_symmetry_equiv_pos_as_xyz
1 x,y,z
2 1/2-x,-y,1/2+z
3 -x,1/2+y,1/2-z
4 1/2+x,1/2-y,-z
_cell_length_a                   11.1609(7)
_cell_length_b                   15.3050(10)
_cell_length_c                   23.1138(15)
_cell_angle_alpha                90
_cell_angle_beta                 90
_cell_angle_gamma                90
_cell_volume                     3948.24
_exptl_crystal_colour            colorless
_exptl_crystal_description       prismatic
_chemical_melting_point          '250-251 deg.C'
_cell_formula_units_Z            4
_exptl_crystal_recrystallization_method methanol/water
loop_
_atom_site_label
_atom_site_type_symbol
_atom_site_fract_x
_atom_site_fract_y
_atom_site_fract_z
O1 O 1.3846(2) 0.8188(2) 0.27843(11)
O2 O 1.38760(18) 0.88681(14) 0.19470(9)
O3 O 1.26643(17) 1.07093(13) 0.09134(8)
O4 O 1.09752(16) 1.04860(11) 0.03580(7)
O5 O 1.22778(16) 0.93946(12) 0.04300(8)
O6 O 0.95096(18) 1.04475(13) 0.23674(8)
O7 O 0.9376(3) 1.15173(15) 0.30363(9)
O8 O 0.8068(3) 0.97690(19) 0.34026(11)
O9 O 1.0826(2) 1.16629(12) 0.12691(9)
O10 O 0.9258(3) 1.22001(16) 0.17625(10)
O11 O 0.88385(17) 1.08304(12) 0.09850(8)
O12 O 0.7486(2) 1.02152(18) 0.15859(10)
O13 O 1.0252(2) 1.03791(16) -0.08846(9)
O14 O 0.9082(3) 1.13873(14) -0.04710(11)
O15 O 0.5921(3) 0.7291(2) 0.16007(12)
O16 O 0.69103(17) 0.86758(12) 0.00381(7)
O17 O 0.5753(2) 0.97112(18) 0.04318(10)
C1 C 1.2068(2) 1.04221(17) 0.14181(11)
C2 C 1.0760(2) 1.07848(16) 0.15032(11)
C3 C 1.0646(2) 1.07658(19) 0.21725(11)
H1 H 1.0782 1.1354 0.2327
C4 C 1.1677(3) 1.01686(19) 0.23516(12)
C5 C 1.1437(2) 0.92678(18) 0.20417(11)
H2 H 1.0571 0.9191 0.1998
C6 C 1.1950(3) 0.84609(19) 0.23322(13)
H3 H 1.1608 0.8409 0.2716
H4 H 1.1712 0.7949 0.2113
C7 C 1.3290(3) 0.8471(2) 0.23827(14)
C8 C 1.0335(2) 0.98040(16) 0.06563(10)
C9 C 1.1364(2) 0.91672(17) 0.08565(11)
C10 C 1.1995(2) 0.94210(16) 0.14346(11)
C11 C 1.1011(2) 0.82099(16) 0.08066(11)
H5 H 1.1435 0.7873 0.1097
H6 H 1.1242 0.7990 0.0429
C12 C 0.9662(2) 0.80935(16) 0.08886(11)
H7 H 0.9415 0.8387 0.1241
H8 H 0.9481 0.7477 0.0930
C13 C 0.8953(2) 0.84657(16) 0.03750(10)
C14 C 0.9584(2) 0.93349(17) 0.01863(10)
H9 H 1.0192 0.9135 -0.0090
C15 C 0.8795(3) 0.99422(18) -0.01801(11)
H10 H 0.8294 0.9588 -0.0430
H11 H 0.8270 1.0268 0.0076
C16 C 0.9484(3) 1.0578(2) -0.05475(12)
C17 C 0.7633(2) 0.86010(17) 0.05637(11)
H12 H 0.7577 0.9153 0.0777
C18 C 0.9015(3) 0.78265(17) -0.01358(11)
H13 H 0.9834 0.7665 -0.0204
H14 H 0.8693 0.8101 -0.0475
H15 H 0.8555 0.7313 -0.0047
C19 C 1.3256(2) 0.90018(19) 0.14041(12)
H16 H 1.3182 0.8440 0.1213
H17 H 1.3756 0.9368 0.1161
C20 C 0.7072(2) 0.78902(18) 0.09249(11)
C21 C 0.6402(4) 0.8047(2) 0.13932(15)
H18 H 0.6280 0.8596 0.1555
C22 C 0.6990(3) 0.6974(2) 0.08372(14)
H19 H 0.7351 0.6656 0.0542
C23 C 0.6307(3) 0.6657(2) 0.12539(15)
H20 H 0.6120 0.6068 0.1299
C24 C 1.1843(3) 1.0124(2) 0.30008(13)
H21 H 1.1886 1.0705 0.3155
H22 H 1.2571 0.9817 0.3088
H23 H 1.1176 0.9821 0.3171
C25 C 1.2660(3) 1.06196(19) 0.19941(12)
H24 H 1.2721 1.1241 0.2072
H25 H 1.3437 1.0343 0.2035
C26 C 0.9766(2) 1.02489(16) 0.11790(11)
H26 H 0.9427 0.9808 0.1439
C27 C 0.8972(3) 1.0875(2) 0.28040(12)
C28 C 0.7839(3) 1.0449(3) 0.29866(12)
C29 C 0.7614(4) 0.9558(3) 0.28492(17)
H27 H 0.8198 0.9293 0.2586
C30 C 0.6373(5) 0.9172(5) 0.2818(2)
H28 H 0.6417 0.8552 0.2881
H29 H 0.6035 0.9284 0.2443
H30 H 0.5876 0.9432 0.3110
C31 C 0.6879(5) 1.1088(4) 0.3142(2)
H31 H 0.6176 1.0778 0.3264
H32 H 0.6691 1.1441 0.2811
H33 H 0.7155 1.1456 0.3451
C32 C 1.2204(2) 1.03196(18) 0.04012(12)
C33 C 1.2887(3) 1.0688(2) -0.00933(13)
H34 H 1.2598 1.0437 -0.0448
H35 H 1.3722 1.0555 -0.0048
H36 H 1.2781 1.1310 -0.0104
C34 C 1.0036(4) 1.2282(2) 0.13968(15)
C35 C 1.0252(6) 1.3076(2) 0.10308(19)
H37 H 1.0327 1.2904 0.0633
H38 H 1.0976 1.3358 0.1154
H39 H 0.9591 1.3472 0.1071
C36 C 0.7751(3) 1.0779(2) 0.12486(15)
C37 C 0.6953(4) 1.1495(3) 0.1047(2)
H40 H 0.6243 1.1250 0.0878
H41 H 0.7365 1.1842 0.0764
H42 H 0.6734 1.1857 0.1370
C38 C 0.9701(6) 1.2058(3) -0.0787(2)
H43 H 1.0433 1.2202 -0.0591
H44 H 0.9204 1.2568 -0.0812
H45 H 0.9881 1.1851 -0.1170
C39 C 0.6009(3) 0.92556(19) 0.00304(12)
C40 C 0.5411(3) 0.9270(2) -0.05428(13)
H46 H 0.4564 0.9193 -0.0493
H47 H 0.5722 0.8806 -0.0779
H48 H 0.5561 0.9821 -0.0728
loop_
_geom_bond_atom_site_label_1
_geom_bond_atom_site_label_2
_geom_bond_site_symmetry_1
_geom_bond_site_symmetry_2
O1 C7 1_555 1_555
O2 C7 1_555 1_555
O3 C1 1_555 1_555
O4 C8 1_555 1_555
O5 C9 1_555 1_555
O6 C3 1_555 1_555
O7 C27 1_555 1_555
O8 C28 1_555 1_555
O9 C2 1_555 1_555
O10 C34 1_555 1_555
O11 C26 1_555 1_555
O12 C36 1_555 1_555
O13 C16 1_555 1_555
O14 C16 1_555 1_555
O15 C21 1_555 1_555
O16 C17 1_555 1_555
O17 C39 1_555 1_555
C1 C2 1_555 1_555
C2 C3 1_555 1_555
C3 H1 1_555 1_555
C4 C3 1_555 1_555
C5 C4 1_555 1_555
H2 C5 1_555 1_555
C6 C5 1_555 1_555
H3 C6 1_555 1_555
H4 C6 1_555 1_555
C7 C6 1_555 1_555
C8 C9 1_555 1_555
C9 C10 1_555 1_555
C10 C1 1_555 1_555
C11 C9 1_555 1_555
H5 C11 1_555 1_555
H6 C11 1_555 1_555
C12 C11 1_555 1_555
H7 C12 1_555 1_555
H8 C12 1_555 1_555
C13 C12 1_555 1_555
C14 C8 1_555 1_555
H9 C14 1_555 1_555
C15 C14 1_555 1_555
H10 C15 1_555 1_555
H11 C15 1_555 1_555
C16 C15 1_555 1_555
C17 C13 1_555 1_555
H12 C17 1_555 1_555
C18 C13 1_555 1_555
H13 C18 1_555 1_555
H14 C18 1_555 1_555
H15 C18 1_555 1_555
C19 O2 1_555 1_555
H16 C19 1_555 1_555
H17 C19 1_555 1_555
C20 C17 1_555 1_555
C21 C20 1_555 1_555
H18 C21 1_555 1_555
C22 C20 1_555 1_555
H19 C22 1_555 1_555
C23 O15 1_555 1_555
H20 C23 1_555 1_555
C24 C4 1_555 1_555
H21 C24 1_555 1_555
H22 C24 1_555 1_555
H23 C24 1_555 1_555
C25 C1 1_555 1_555
H24 C25 1_555 1_555
H25 C25 1_555 1_555
C26 C2 1_555 1_555
H26 C26 1_555 1_555
C27 O6 1_555 1_555
C28 C27 1_555 1_555
C29 O8 1_555 1_555
H27 C29 1_555 1_555
C30 C29 1_555 1_555
H28 C30 1_555 1_555
H29 C30 1_555 1_555
H30 C30 1_555 1_555
C31 C28 1_555 1_555
H31 C31 1_555 1_555
H32 C31 1_555 1_555
H33 C31 1_555 1_555
C32 O3 1_555 1_555
C33 C32 1_555 1_555
H34 C33 1_555 1_555
H35 C33 1_555 1_555
H36 C33 1_555 1_555
C34 O9 1_555 1_555
C35 C34 1_555 1_555
H37 C35 1_555 1_555
H38 C35 1_555 1_555
H39 C35 1_555 1_555
C36 O11 1_555 1_555
C37 C36 1_555 1_555
H40 C37 1_555 1_555
H41 C37 1_555 1_555
H42 C37 1_555 1_555
C38 O14 1_555 1_555
H43 C38 1_555 1_555
H44 C38 1_555 1_555
H45 C38 1_555 1_555
C39 O16 1_555 1_555
C40 C39 1_555 1_555
H46 C40 1_555 1_555
H47 C40 1_555 1_555
H48 C40 1_555 1_555
O4 C32 1_555 1_555
O5 C32 1_555 1_555
C4 C25 1_555 1_555
C5 C10 1_555 1_555
C8 C26 1_555 1_555
C10 C19 1_555 1_555
C13 C14 1_555 1_555
C22 C23 1_555 1_555
C28 C29 1_555 1_555

#END
