
#######################################################################
#
#                 Cambridge Crystallographic Data Centre
#                                CCDC 
#
#######################################################################
#
# If this CIF has been generated from an entry in the Cambridge 
# Structural Database, then it will include bibliographic, chemical, 
# crystal, experimental, refinement or atomic coordinate data resulting 
# from the CCDC's data processing and validation procedures.
#
#######################################################################

data_LUDZEQ
_chemical_formula_moiety         'C30 H35 F2 N1 O3'
_chemical_name_systematic        
(1RS)-3,3-Difluoro-4,4-dihydroxy-N-(2-(2-naphthyl)ethyl)-N-(4-pentylphenyl)cyclohexanecarboxamide
_symmetry_cell_setting           orthorhombic
_symmetry_space_group_name_H-M   'P n 21 a'
_symmetry_Int_Tables_number      33
_space_group_name_Hall           'P -2ac -2n'
loop_
_symmetry_equiv_pos_site_id
_symmetry_equiv_pos_as_xyz
1 x,y,z
2 -x,1/2+y,-z
3 1/2-x,1/2+y,1/2+z
4 1/2+x,y,1/2-z
_cell_length_a                   15.0801(5)
_cell_length_b                   18.6531(7)
_cell_length_c                   19.7040(6)
_cell_angle_alpha                90
_cell_angle_beta                 90
_cell_angle_gamma                90
_cell_volume                     5542.55
_exptl_crystal_colour            colorless
_exptl_crystal_description       cube
_cell_formula_units_Z            8
loop_
_atom_site_label
_atom_site_type_symbol
_atom_site_fract_x
_atom_site_fract_y
_atom_site_fract_z
F1 F 0.69560(19) 0.1228(2) 0.35176(16)
F2 F 0.6896(2) 0.1321(2) 0.24157(15)
O1 O 0.4015(2) 0.2357(2) 0.32356(17)
O2 O 0.81228(19) 0.2202(2) 0.30582(17)
O3 O 0.69864(18) 0.2774(2) 0.24794(14)
N1 N 0.4089(2) 0.2358(2) 0.43746(19)
C1 C 0.1289(3) 0.1622(3) 0.5199(2)
C2 C 0.1698(3) 0.1733(3) 0.4588(2)
C3 C 0.1177(3) 0.1913(3) 0.4028(2)
C4 C 0.0278(3) 0.1970(3) 0.4076(2)
C5 C -0.1094(3) 0.1950(4) 0.4778(3)
C6 C -0.1483(3) 0.1860(4) 0.5378(3)
C7 C -0.0989(4) 0.1664(4) 0.5942(3)
C8 C -0.0088(3) 0.1602(3) 0.5908(3)
C9 C 0.0353(3) 0.1693(3) 0.5271(2)
C10 C -0.0156(3) 0.1871(3) 0.4702(2)
C11 C 0.2703(3) 0.1681(3) 0.4510(3)
C12 C 0.3119(3) 0.2414(3) 0.4432(3)
C13 C 0.4464(3) 0.2299(3) 0.3753(2)
C14 C 0.5458(3) 0.2171(3) 0.3709(2)
C15 C 0.5683(3) 0.1781(3) 0.3054(2)
C16 C 0.6676(3) 0.1675(3) 0.2996(2)
C17 C 0.7211(3) 0.2358(3) 0.3046(2)
C18 C 0.6969(3) 0.2737(3) 0.3713(2)
C19 C 0.5976(2) 0.2870(3) 0.3763(2)
C20 C 0.4581(3) 0.2359(3) 0.5007(2)
C21 C 0.4746(3) 0.2999(3) 0.5331(3)
C22 C 0.5154(4) 0.3003(3) 0.5956(3)
C23 C 0.5396(4) 0.2363(3) 0.6273(3)
C24 C 0.5257(4) 0.1738(3) 0.5930(3)
C25 C 0.4832(3) 0.1724(3) 0.5310(2)
C26 C 0.5799(5) 0.2354(5) 0.6982(3)
C27 C 0.6726(5) 0.2111(5) 0.7039(3)
C28 C 0.7006(8) 0.2215(10) 0.7780(4)
C29 C 0.7983(8) 0.2051(10) 0.7923(8)
C30 C 0.8434(16) 0.1540(11) 0.8423(8)
H1 H 0.8342 0.2302 0.2690
H2 H 0.7180 0.3181 0.2528
H5 H 0.1628 0.1498 0.5576
H6 H 0.1450 0.1997 0.3612
H7 H -0.0053 0.2075 0.3690
H8 H -0.1437 0.2066 0.4402
H9 H -0.2092 0.1930 0.5420
H10 H -0.1277 0.1573 0.6350
H11 H 0.0237 0.1501 0.6297
H12 H 0.2952 0.1446 0.4905
H13 H 0.2842 0.1392 0.4115
H14 H 0.2884 0.2646 0.4029
H15 H 0.2969 0.2708 0.4821
H16 H 0.5631 0.1864 0.4090
H17 H 0.5388 0.1319 0.3047
H18 H 0.5472 0.2058 0.2669
H19 H 0.7157 0.2443 0.4094
H20 H 0.7280 0.3191 0.3740
H21 H 0.5794 0.3191 0.3401
H22 H 0.5842 0.3099 0.4192
H23 H 0.4582 0.3429 0.5127
H24 H 0.5269 0.3437 0.6170
H25 H 0.5454 0.1310 0.6119
H26 H 0.4716 0.1289 0.5097
H27 H 0.5761 0.2835 0.7167
H28 H 0.5435 0.2046 0.7265
H29 H 0.7104 0.2391 0.6741
H30 H 0.6774 0.1610 0.6913
H31 H 0.6887 0.2708 0.7910
H32 H 0.6643 0.1909 0.8065
H33 H 0.8221 0.1915 0.7484
H34 H 0.8242 0.2515 0.8023
H35 H 0.9065 0.1601 0.8397
H36 H 0.8283 0.1055 0.8310
H37 H 0.8237 0.1645 0.8875
F3 F -0.09574(19) 0.5287(2) 0.22143(14)
F4 F -0.11876(16) 0.52490(19) 0.33013(13)
O4 O 0.20094(19) 0.4722(2) 0.32877(17)
O5 O -0.0704(2) 0.3869(2) 0.21289(15)
O6 O -0.20144(18) 0.4110(2) 0.26995(16)
N2 N 0.1720(2) 0.4442(2) 0.43663(17)
C31 C 0.4667(3) 0.4878(3) 0.4439(3)
C32 C 0.4052(3) 0.5015(3) 0.4916(2)
C33 C 0.4297(3) 0.5068(3) 0.5592(3)
C34 C 0.5160(3) 0.4981(3) 0.5795(3)
C35 C 0.6741(4) 0.4779(4) 0.5497(3)
C36 C 0.7340(4) 0.4696(4) 0.5039(4)
C37 C 0.7120(4) 0.4661(4) 0.4333(4)
C38 C 0.6239(4) 0.4714(3) 0.4146(3)
C39 C 0.5580(3) 0.4803(3) 0.4630(3)
C40 C 0.5815(3) 0.4859(3) 0.5320(2)
C41 C 0.3080(3) 0.5109(3) 0.4706(3)
C42 C 0.2673(3) 0.4392(3) 0.4521(3)
C43 C 0.1464(2) 0.4594(3) 0.3729(2)
C44 C 0.0476(2) 0.4561(3) 0.3564(2)
C45 C 0.0244(3) 0.4971(3) 0.2929(2)
C46 C -0.0736(3) 0.4914(3) 0.2790(2)
C47 C -0.1070(2) 0.4132(3) 0.2727(2)
C48 C -0.0794(3) 0.3714(3) 0.3344(2)
C49 C 0.0198(3) 0.3774(3) 0.3487(2)
C50 C 0.1104(3) 0.4372(3) 0.4931(2)
C51 C 0.0703(3) 0.4972(3) 0.5212(2)
C52 C 0.0104(5) 0.4897(4) 0.5736(3)
C53 C -0.0211(6) 0.4192(6) 0.5945(5)
C54 C 0.0328(5) 0.3625(4) 0.5721(3)
C55 C 0.0916(3) 0.3698(3) 0.5190(3)
C56 C -0.0975(7) 0.4070(9) 0.6442(5)
C57 C -0.0680(16) 0.413(2) 0.7182(7)
C58 C -0.1348(17) 0.3990(18) 0.7752(13)
C59 C -0.217(3) 0.447(2) 0.7693(17)
C60 C -0.247(2) 0.4150(18) 0.8373(15)
H3 H -0.0832 0.3444 0.2087
H4 H -0.2186 0.4316 0.2356
H38 H 0.4501 0.4832 0.3987
H39 H 0.3866 0.5165 0.5917
H40 H 0.5304 0.5004 0.6253
H41 H 0.6906 0.4788 0.5951
H42 H 0.7930 0.4659 0.5169
H43 H 0.7561 0.4604 0.4007
H44 H 0.6086 0.4689 0.3689
H45 H 0.2750 0.5322 0.5078
H46 H 0.3045 0.5430 0.4320
H47 H 0.2980 0.4198 0.4129
H48 H 0.2756 0.4061 0.4895
H49 H 0.0146 0.4769 0.3945
H50 H 0.0575 0.4779 0.2548
H51 H 0.0407 0.5471 0.2985
H52 H -0.0946 0.3213 0.3279
H53 H -0.1121 0.3887 0.3735
H54 H 0.0528 0.3556 0.3118
H55 H 0.0338 0.3515 0.3901
H56 H 0.0839 0.5426 0.5047
H57 H -0.0102 0.5303 0.5960
H58 H 0.0286 0.3184 0.5939
H59 H 0.1186 0.3295 0.5005
H60 H -0.1437 0.4420 0.6354
H61 H -0.1224 0.3597 0.6366
H62 H -0.0449 0.4612 0.7247
H63 H -0.0188 0.3803 0.7246
H64 H -0.1528 0.3491 0.7737
H65 H -0.1064 0.4076 0.8186
H66 H -0.2554 0.4348 0.7315
H67 H -0.2044 0.4977 0.7709
H68 H -0.3102 0.4105 0.8377
H69 H -0.2285 0.4460 0.8735
H70 H -0.2203 0.3686 0.8433
C61? C 0.7145(9) 0.1866(10) 0.7707(4)
C62? C 0.8004(8) 0.1429(8) 0.7729(6)
C63? C 0.0134(11) 0.4316(9) 0.6132(7)
C64? C -0.0473(12) 0.4139(13) 0.6731(10)
C65? C -0.1371(13) 0.4512(14) 0.6812(10)
C66? C -0.1775(16) 0.442(2) 0.7520(11)
C67? C -0.2740(16) 0.465(2) 0.7418(10)
C68? C -0.2980(17) 0.4534(16) 0.8164(10)
H71? H 0.6699 0.1589 0.7945
H72? H 0.7247 0.2295 0.7975
H73? H 0.7875 0.0925 0.7659
H74? H 0.8403 0.1587 0.7373
H75? H -0.0587 0.3627 0.6716
H76? H -0.0138 0.4229 0.7142
H77? H -0.1780 0.4319 0.6479
H78? H -0.1298 0.5019 0.6718
H79? H -0.1737 0.3931 0.7672
H80? H -0.1480 0.4731 0.7847
H81? H -0.3063 0.4339 0.7113
H82? H -0.2800 0.5148 0.7277
H83? H -0.3567 0.4712 0.8248
H84? H -0.2565 0.4785 0.8447
H85? H -0.2959 0.4031 0.8266
loop_
_geom_bond_atom_site_label_1
_geom_bond_atom_site_label_2
_geom_bond_site_symmetry_1
_geom_bond_site_symmetry_2
F1 C16 1_555 1_555
F2 C16 1_555 1_555
F3 C46 1_555 1_555
F4 C46 1_555 1_555
O1 C13 1_555 1_555
O2 C17 1_555 1_555
O3 C17 1_555 1_555
O4 C43 1_555 1_555
O5 C47 1_555 1_555
O6 C47 1_555 1_555
N1 C12 1_555 1_555
N2 C42 1_555 1_555
C1 C2 1_555 1_555
C2 C3 1_555 1_555
C3 C4 1_555 1_555
C4 C10 1_555 1_555
C5 C6 1_555 1_555
C6 C7 1_555 1_555
C7 C8 1_555 1_555
C8 C9 1_555 1_555
C9 C1 1_555 1_555
C10 C5 1_555 1_555
C11 C2 1_555 1_555
C12 C11 1_555 1_555
C13 N1 1_555 1_555
C14 C13 1_555 1_555
C15 C14 1_555 1_555
C16 C15 1_555 1_555
C17 C16 1_555 1_555
C18 C17 1_555 1_555
C19 C14 1_555 1_555
C20 N1 1_555 1_555
C21 C20 1_555 1_555
C22 C21 1_555 1_555
C23 C22 1_555 1_555
C24 C23 1_555 1_555
C25 C20 1_555 1_555
C26 C23 1_555 1_555
C27 C26 1_555 1_555
C28 C27 1_555 1_555
C29 C28 1_555 1_555
C30 C29 1_555 1_555
C31 C32 1_555 1_555
C32 C33 1_555 1_555
C33 C34 1_555 1_555
C34 C40 1_555 1_555
C35 C36 1_555 1_555
C36 C37 1_555 1_555
C37 C38 1_555 1_555
C38 C39 1_555 1_555
C39 C31 1_555 1_555
C40 C35 1_555 1_555
C41 C32 1_555 1_555
C42 C41 1_555 1_555
C43 N2 1_555 1_555
C44 C43 1_555 1_555
C45 C44 1_555 1_555
C46 C45 1_555 1_555
C47 C46 1_555 1_555
C48 C47 1_555 1_555
C49 C44 1_555 1_555
C50 N2 1_555 1_555
C51 C50 1_555 1_555
C52 C51 1_555 1_555
C53 C52 1_555 1_555
C54 C53 1_555 1_555
C55 C50 1_555 1_555
C56 C53 1_555 1_555
C57 C56 1_555 1_555
C58 C57 1_555 1_555
C59 C58 1_555 1_555
C60 C59 1_555 1_555
H1 O2 1_555 1_555
H2 O3 1_555 1_555
H3 O5 1_555 1_555
H4 O6 1_555 1_555
H5 C1 1_555 1_555
H6 C3 1_555 1_555
H7 C4 1_555 1_555
H8 C5 1_555 1_555
H9 C6 1_555 1_555
H10 C7 1_555 1_555
H11 C8 1_555 1_555
H12 C11 1_555 1_555
H13 C11 1_555 1_555
H14 C12 1_555 1_555
H15 C12 1_555 1_555
H16 C14 1_555 1_555
H17 C15 1_555 1_555
H18 C15 1_555 1_555
H19 C18 1_555 1_555
H20 C18 1_555 1_555
H21 C19 1_555 1_555
H22 C19 1_555 1_555
H23 C21 1_555 1_555
H24 C22 1_555 1_555
H25 C24 1_555 1_555
H26 C25 1_555 1_555
H27 C26 1_555 1_555
H28 C26 1_555 1_555
H29 C27 1_555 1_555
H30 C27 1_555 1_555
H31 C28 1_555 1_555
H32 C28 1_555 1_555
H33 C29 1_555 1_555
H34 C29 1_555 1_555
H35 C30 1_555 1_555
H36 C30 1_555 1_555
H37 C30 1_555 1_555
H38 C31 1_555 1_555
H39 C33 1_555 1_555
H40 C34 1_555 1_555
H41 C35 1_555 1_555
H42 C36 1_555 1_555
H43 C37 1_555 1_555
H44 C38 1_555 1_555
H45 C41 1_555 1_555
H46 C41 1_555 1_555
H47 C42 1_555 1_555
H48 C42 1_555 1_555
H49 C44 1_555 1_555
H50 C45 1_555 1_555
H51 C45 1_555 1_555
H52 C48 1_555 1_555
H53 C48 1_555 1_555
H54 C49 1_555 1_555
H55 C49 1_555 1_555
H56 C51 1_555 1_555
H57 C52 1_555 1_555
H58 C54 1_555 1_555
H59 C55 1_555 1_555
H60 C56 1_555 1_555
H61 C56 1_555 1_555
H62 C57 1_555 1_555
H63 C57 1_555 1_555
H64 C58 1_555 1_555
H65 C58 1_555 1_555
H66 C59 1_555 1_555
H67 C59 1_555 1_555
H68 C60 1_555 1_555
H69 C60 1_555 1_555
H70 C60 1_555 1_555
C9 C10 1_555 1_555
C18 C19 1_555 1_555
C24 C25 1_555 1_555
C39 C40 1_555 1_555
C48 C49 1_555 1_555
C54 C55 1_555 1_555

#END
