
#######################################################################
#
#                 Cambridge Crystallographic Data Centre
#                                CCDC 
#
#######################################################################
#
# If this CIF has been generated from an entry in the Cambridge 
# Structural Database, then it will include bibliographic, chemical, 
# crystal, experimental, refinement or atomic coordinate data resulting 
# from the CCDC's data processing and validation procedures.
#
#######################################################################

data_LUDZOZ01
_chemical_formula_moiety         'C19 H13 N1 O1'
_chemical_name_systematic        9H-carbazol-9-yl(phenyl)methanone
_symmetry_cell_setting           orthorhombic
_symmetry_space_group_name_H-M   'P 21 21 21'
_symmetry_Int_Tables_number      19
_space_group_name_Hall           'P 2ac 2ab'
loop_
_symmetry_equiv_pos_site_id
_symmetry_equiv_pos_as_xyz
1 x,y,z
2 1/2-x,-y,1/2+z
3 -x,1/2+y,1/2-z
4 1/2+x,1/2-y,-z
_cell_length_a                   5.5819(7)
_cell_length_b                   14.4266(19)
_cell_length_c                   17.211(2)
_cell_angle_alpha                90
_cell_angle_beta                 90
_cell_angle_gamma                90
_cell_volume                     1385.96
_exptl_crystal_colour            white
_exptl_crystal_description       stick-like
_cell_formula_units_Z            4
loop_
_atom_site_label
_atom_site_type_symbol
_atom_site_fract_x
_atom_site_fract_y
_atom_site_fract_z
O1 O 0.9789(3) -0.11587(8) 1.01768(8)
N1 N 1.0532(3) -0.03073(8) 0.91002(7)
C1 C 1.2472(3) -0.08293(10) 0.87956(9)
C2 C 1.3118(3) -0.04530(10) 0.80743(8)
C3 C 1.1473(3) 0.02976(9) 0.79110(8)
C4 C 0.9882(3) 0.03643(9) 0.85310(8)
C5 C 1.6303(3) -0.15490(12) 0.79934(10)
H1 H 1.7615 -0.1795 0.7732
C6 C 0.7912(3) 0.09563(10) 0.85053(10)
H2 H 0.6805 0.0977 0.8909
C7 C 0.8493(3) 0.03942(11) 1.02275(8)
C8 C 1.3720(3) -0.15705(11) 0.91200(10)
H3 H 1.3285 -0.1820 0.9598
C9 C 0.9592(4) -0.04257(11) 0.98451(10)
C10 C 0.7670(4) 0.15126(11) 0.78543(11)
H4 H 0.6378 0.1918 0.7824
C11 C 0.9294(4) 0.14817(11) 0.72492(10)
H5 H 0.9094 0.1873 0.6825
C12 C 0.9680(3) 0.12384(11) 1.02325(9)
H6 H 1.1105 0.1307 0.9958
C13 C 1.5050(3) -0.08210(11) 0.76729(10)
H7 H 1.5495 -0.0579 0.7193
C14 C 1.1207(3) 0.08777(11) 0.72660(9)
H8 H 1.2297 0.0857 0.6858
C15 C 0.5461(4) 0.10425(18) 1.10431(11)
H9 H 0.4029 0.0982 1.1314
C16 C 1.5622(4) -0.19188(11) 0.87048(10)
H10 H 1.6477 -0.2417 0.8906
C17 C 0.6390(3) 0.02923(14) 1.06420(10)
H11 H 0.5604 -0.0276 1.0652
C18 C 0.8756(4) 0.19748(13) 1.06422(10)
H12 H 0.9562 0.2539 1.0648
C19 C 0.6650(5) 0.18778(16) 1.10418(10)
H13 H 0.6020 0.2379 1.1314
loop_
_geom_bond_atom_site_label_1
_geom_bond_atom_site_label_2
_geom_bond_site_symmetry_1
_geom_bond_site_symmetry_2
O1 C9 1_555 1_555
N1 C1 1_555 1_555
C1 C2 1_555 1_555
C2 C3 1_555 1_555
C3 C4 1_555 1_555
C4 N1 1_555 1_555
C5 H1 1_555 1_555
C6 C4 1_555 1_555
H2 C6 1_555 1_555
C7 C9 1_555 1_555
C8 C1 1_555 1_555
H3 C8 1_555 1_555
C9 N1 1_555 1_555
C10 C6 1_555 1_555
H4 C10 1_555 1_555
C11 C10 1_555 1_555
H5 C11 1_555 1_555
C12 C7 1_555 1_555
H6 C12 1_555 1_555
C13 C2 1_555 1_555
H7 C13 1_555 1_555
C14 C3 1_555 1_555
H8 C14 1_555 1_555
C15 H9 1_555 1_555
C16 C5 1_555 1_555
H10 C16 1_555 1_555
C17 C7 1_555 1_555
H11 C17 1_555 1_555
C18 C12 1_555 1_555
H12 C18 1_555 1_555
C19 C15 1_555 1_555
H13 C19 1_555 1_555
C5 C13 1_555 1_555
C8 C16 1_555 1_555
C11 C14 1_555 1_555
C15 C17 1_555 1_555
C18 C19 1_555 1_555

#END
