
#######################################################################
#
#                 Cambridge Crystallographic Data Centre
#                                CCDC 
#
#######################################################################
#
# If this CIF has been generated from an entry in the Cambridge 
# Structural Database, then it will include bibliographic, chemical, 
# crystal, experimental, refinement or atomic coordinate data resulting 
# from the CCDC's data processing and validation procedures.
#
#######################################################################

data_LUFHUQ
_chemical_name_common            
'bis(meso-Tetraphenyl-3-oxa-2-yl-chlorine)oxide unknown solvate'
_chemical_formula_moiety         'C86 H58 N8 O3'
_chemical_name_systematic        
"5,5'-Oxybis(2,7,12,17-tetraphenyl-4-oxa-21,22,23,24-tetraazapentacyclo[16.2.1.1^3,6^.1^8,11^.1^13,16^]tetracosa-1,3(24),6,8,10,12,14,16(22),17,19-decaene) unknown solvate"
_symmetry_cell_setting           triclinic
_symmetry_space_group_name_H-M   'P -1'
_symmetry_Int_Tables_number      2
_space_group_name_Hall           '-P 1'
loop_
_symmetry_equiv_pos_site_id
_symmetry_equiv_pos_as_xyz
1 x,y,z
2 -x,-y,-z
_cell_length_a                   12.2998(7)
_cell_length_b                   13.2498(7)
_cell_length_c                   22.1649(12)
_cell_angle_alpha                80.070(4)
_cell_angle_beta                 87.587(4)
_cell_angle_gamma                89.341(4)
_cell_volume                     3554.91
_exptl_crystal_colour            black
_exptl_crystal_description       plate
_cell_formula_units_Z            2
loop_
_atom_site_label
_atom_site_type_symbol
_atom_site_fract_x
_atom_site_fract_y
_atom_site_fract_z
C1 C 1.0065(4) 0.4181(3) 0.3510(2)
C2 C 0.9679(4) 0.5051(3) 0.3742(2)
C3 C 1.0097(4) 0.6077(3) 0.3453(2)
C4 C 0.9941(5) 0.6406(4) 0.2834(2)
H1 H 0.9576 0.5982 0.2603
C5 C 1.0328(5) 0.7372(4) 0.2550(3)
H2 H 1.0218 0.7607 0.2128
C6 C 1.0868(5) 0.7981(4) 0.2887(3)
H3 H 1.1137 0.8632 0.2695
C7 C 1.1013(4) 0.7650(4) 0.3484(3)
H4 H 1.1392 0.8068 0.3712
C8 C 1.0620(4) 0.6712(3) 0.3773(2)
H5 H 1.0713 0.6503 0.4200
C9 C 0.8890(4) 0.4993(3) 0.4218(2)
C10 C 0.8393(4) 0.5834(4) 0.4459(2)
H6 H 0.8557 0.6538 0.4324
C11 C 0.7650(4) 0.5461(4) 0.4911(2)
H7 H 0.7212 0.5856 0.5147
C12 C 0.7641(4) 0.4367(4) 0.4969(2)
C13 C 0.6998(4) 0.3686(3) 0.5367(2)
C14 C 0.6293(4) 0.4130(3) 0.5827(2)
C15 C 0.6778(4) 0.4524(4) 0.6297(2)
H8 H 0.7548 0.4524 0.6319
C16 C 0.6126(5) 0.4919(4) 0.6735(2)
H9 H 0.6449 0.5172 0.7060
C17 C 0.5015(5) 0.4940(4) 0.6691(2)
H10 H 0.4573 0.5213 0.6987
C18 C 0.4529(5) 0.4567(4) 0.6222(2)
H11 H 0.3761 0.4590 0.6193
C19 C 0.5181(4) 0.4156(4) 0.5794(2)
H12 H 0.4851 0.3891 0.5474
C20 C 0.6991(4) 0.2612(4) 0.5402(2)
C21 C 0.6354(4) 0.1914(4) 0.5848(2)
H13 H 0.5884 0.2094 0.6164
C22 C 0.6549(4) 0.0958(4) 0.5735(2)
H14 H 0.6249 0.0338 0.5954
C23 C 0.7311(4) 0.1071(3) 0.5207(2)
C24 C 0.7737(4) 0.0240(3) 0.4945(2)
C25 C 0.7232(4) -0.0800(3) 0.5185(2)
C26 C 0.6148(4) -0.0966(4) 0.5069(2)
H15 H 0.5745 -0.0442 0.4827
C27 C 0.5663(4) -0.1891(4) 0.5306(2)
H16 H 0.4928 -0.2001 0.5221
C28 C 0.6223(5) -0.2649(4) 0.5661(2)
H17 H 0.5869 -0.3269 0.5840
C29 C 0.7321(5) -0.2508(4) 0.5760(2)
H18 H 0.7725 -0.3045 0.5990
C30 C 0.7817(4) -0.1588(3) 0.5521(2)
H19 H 0.8564 -0.1494 0.5588
C31 C 0.8527(4) 0.0283(3) 0.4482(2)
C32 C 0.8943(4) -0.0522(4) 0.4189(2)
H20 H 0.8745 -0.1223 0.4298
C33 C 0.9666(4) -0.0137(3) 0.3730(2)
H21 H 1.0057 -0.0516 0.3464
C34 C 0.9734(4) 0.0927(3) 0.3719(2)
C35 C 1.0352(4) 0.1639(4) 0.3290(2)
C36 C 1.1089(4) 0.1192(3) 0.2843(2)
C37 C 1.2020(4) 0.0632(4) 0.3048(2)
H22 H 1.2187 0.0543 0.3468
C38 C 1.2694(4) 0.0210(4) 0.2641(2)
H23 H 1.3323 -0.0165 0.2783
C39 C 1.2456(4) 0.0331(4) 0.2031(2)
H24 H 1.2931 0.0053 0.1752
C40 C 1.1533(5) 0.0853(4) 0.1824(2)
H25 H 1.1360 0.0919 0.1406
C41 C 1.0848(4) 0.1287(3) 0.2231(2)
H26 H 1.0212 0.1649 0.2087
C42 C 1.0349(4) 0.2679(4) 0.3275(2)
C43 C 1.0983(4) 0.3441(3) 0.2811(2)
H27 H 1.1757 0.3228 0.2749
C44 C 1.0788(4) 0.4318(4) 0.1764(2)
H28 H 1.0680 0.5031 0.1847
C45 C 1.0233(4) 0.4131(4) 0.1200(2)
C46 C 0.9215(4) 0.4495(4) 0.1052(2)
C47 C 0.8597(4) 0.5087(4) 0.1468(2)
C48 C 0.8196(4) 0.4596(4) 0.2042(2)
H29 H 0.8332 0.3886 0.2170
C49 C 0.7602(4) 0.5138(5) 0.2423(3)
H30 H 0.7334 0.4799 0.2813
C50 C 0.7399(5) 0.6158(5) 0.2242(3)
H31 H 0.6975 0.6523 0.2502
C51 C 0.7806(5) 0.6655(5) 0.1687(3)
H32 H 0.7675 0.7368 0.1567
C52 C 0.8404(5) 0.6130(5) 0.1299(3)
H33 H 0.8684 0.6483 0.0916
C53 C 0.8691(4) 0.4276(4) 0.0525(2)
C54 C 0.7685(5) 0.4681(5) 0.0304(3)
H34 H 0.7251 0.5185 0.0458
C55 C 0.7456(5) 0.4196(6) -0.0183(3)
H35 H 0.6834 0.4326 -0.0424
C56 C 0.8297(5) 0.3468(5) -0.0268(3)
C57 C 0.8337(5) 0.2738(6) -0.0650(2)
C58 C 0.7293(5) 0.2821(6) -0.1016(3)
C59 C 0.6265(6) 0.2690(7) -0.0729(3)
H36 H 0.6188 0.2586 -0.0295
C60 C 0.5349(5) 0.2712(7) -0.1078(3)
H37 H 0.4647 0.2623 -0.0882
C61 C 0.5461(6) 0.2865(7) -0.1714(3)
H38 H 0.4836 0.2881 -0.1953
C62 C 0.6489(7) 0.2996(7) -0.2001(3)
H39 H 0.6566 0.3101 -0.2436
C63 C 0.7405(5) 0.2974(7) -0.1652(4)
H40 H 0.8107 0.3064 -0.1848
O1 O 1.0886(3) 0.4347(2) 0.30634(14)
O2 O 1.0384(3) 0.3549(2) 0.22593(14)
O3 O 1.1898(3) 0.4091(2) 0.16221(14)
C64 C 0.9171(6) 0.2027(5) -0.0693(3)
C65 C 0.9156(7) 0.1238(5) -0.1079(3)
H41 H 0.8571 0.1093 -0.1317
C66 C 1.0128(7) 0.0754(5) -0.1036(3)
H42 H 1.0366 0.0218 -0.1245
C67 C 1.0731(6) 0.1209(4) -0.0613(2)
C68 C 1.1827(5) 0.0959(4) -0.0481(2)
C69 C 1.2370(5) 0.0151(5) -0.0795(2)
C70 C 1.2066(6) -0.0853(5) -0.0710(3)
H43 H 1.1455 -0.1067 -0.0443
C71 C 1.2604(6) -0.1558(5) -0.0992(3)
H44 H 1.2362 -0.2248 -0.0915
C72 C 1.3466(7) -0.1303(5) -0.1374(3)
H45 H 1.3793 -0.1798 -0.1589
C73 C 1.3882(7) -0.0316(6) -0.1459(3)
H46 H 1.4526 -0.0137 -0.1704
C74 C 1.3318(7) 0.0408(5) -0.1170(3)
H47 H 1.3581 0.1091 -0.1229
C75 C 1.2457(5) 0.1378(4) -0.0093(2)
C76 C 1.3543(5) 0.1131(5) 0.0078(3)
H48 H 1.3996 0.0632 -0.0068
C77 C 1.3821(5) 0.1735(4) 0.0486(2)
H49 H 1.4502 0.1724 0.0674
C78 C 1.2917(4) 0.2388(4) 0.0587(2)
C79 C 1.2842(4) 0.3042(4) 0.1011(2)
C80 C 1.3793(4) 0.3180(4) 0.1379(2)
C81 C 1.4697(5) 0.3746(4) 0.1140(3)
H50 H 1.4739 0.4037 0.0717
C82 C 1.5550(5) 0.3898(5) 0.1512(3)
H51 H 1.6149 0.4317 0.1346
C83 C 1.5520(5) 0.3428(5) 0.2133(3)
H52 H 1.6108 0.3501 0.2386
C84 C 1.4616(4) 0.2859(4) 0.2367(2)
H53 H 1.4577 0.2556 0.2789
C85 C 1.3787(4) 0.2725(4) 0.2008(2)
H54 H 1.3184 0.2317 0.2181
C86 C 1.1877(5) 0.3531(4) 0.1142(2)
N1 N 0.8405(3) 0.4125(3) 0.45336(16)
H55 H 0.8555 0.3499 0.4470
N2 N 0.7585(3) 0.2075(3) 0.50140(17)
N3 N 0.9061(3) 0.1156(3) 0.41847(16)
H56 H 0.8980 0.1769 0.4282
N4 N 0.9758(3) 0.3208(3) 0.36657(16)
N5 N 0.9040(4) 0.3590(3) 0.01645(19)
H57 H 0.9667 0.3262 0.0203
N6 N 1.0151(4) 0.1989(4) -0.04128(19)
N7 N 1.2106(4) 0.2149(3) 0.02275(18)
H58 H 1.1458 0.2440 0.0203
N8 N 1.0913(4) 0.3551(3) 0.08879(18)
C87? C 0.7380(8) 0.2500(11) -0.1012(6)
C88? C 0.6775(9) 0.1611(9) -0.0832(4)
C89? C 0.5868(9) 0.1437(8) -0.1152(5)
C90? C 0.5565(10) 0.2152(10) -0.1653(5)
C91? C 0.6169(13) 0.3041(10) -0.1833(6)
C92? C 0.7077(12) 0.3215(9) -0.1512(7)
H59? H 0.6982 0.1122 -0.0489
H60? H 0.5455 0.0830 -0.1029
H61? H 0.4945 0.2033 -0.1872
H62? H 0.5962 0.3530 -0.2175
H63? H 0.7490 0.3823 -0.1636
loop_
_geom_bond_atom_site_label_1
_geom_bond_atom_site_label_2
_geom_bond_site_symmetry_1
_geom_bond_site_symmetry_2
C1 C2 1_555 1_555
C2 C3 1_555 1_555
C3 C4 1_555 1_555
C4 H1 1_555 1_555
C5 C4 1_555 1_555
H2 C5 1_555 1_555
C6 C5 1_555 1_555
H3 C6 1_555 1_555
C7 C6 1_555 1_555
H4 C7 1_555 1_555
C8 C3 1_555 1_555
H5 C8 1_555 1_555
C9 C2 1_555 1_555
C10 C9 1_555 1_555
H6 C10 1_555 1_555
C11 C10 1_555 1_555
H7 C11 1_555 1_555
C12 C11 1_555 1_555
C13 C12 1_555 1_555
C14 C13 1_555 1_555
C15 C14 1_555 1_555
H8 C15 1_555 1_555
C16 C15 1_555 1_555
H9 C16 1_555 1_555
C17 C16 1_555 1_555
H10 C17 1_555 1_555
C18 C17 1_555 1_555
H11 C18 1_555 1_555
C19 C14 1_555 1_555
H12 C19 1_555 1_555
C20 C13 1_555 1_555
C21 C20 1_555 1_555
H13 C21 1_555 1_555
C22 C21 1_555 1_555
H14 C22 1_555 1_555
C23 C22 1_555 1_555
C24 C23 1_555 1_555
C25 C24 1_555 1_555
C26 C25 1_555 1_555
H15 C26 1_555 1_555
C27 C26 1_555 1_555
H16 C27 1_555 1_555
C28 C27 1_555 1_555
H17 C28 1_555 1_555
C29 C28 1_555 1_555
H18 C29 1_555 1_555
C30 C25 1_555 1_555
H19 C30 1_555 1_555
C31 C24 1_555 1_555
C32 C31 1_555 1_555
H20 C32 1_555 1_555
C33 C32 1_555 1_555
H21 C33 1_555 1_555
C34 C33 1_555 1_555
C35 C34 1_555 1_555
C36 C35 1_555 1_555
C37 C36 1_555 1_555
H22 C37 1_555 1_555
C38 C37 1_555 1_555
H23 C38 1_555 1_555
C39 C38 1_555 1_555
H24 C39 1_555 1_555
C40 C39 1_555 1_555
H25 C40 1_555 1_555
C41 C36 1_555 1_555
H26 C41 1_555 1_555
C42 C35 1_555 1_555
C43 C42 1_555 1_555
H27 C43 1_555 1_555
C44 H28 1_555 1_555
C45 C44 1_555 1_555
C46 C45 1_555 1_555
C47 C46 1_555 1_555
C48 C47 1_555 1_555
H29 C48 1_555 1_555
C49 C48 1_555 1_555
H30 C49 1_555 1_555
C50 C49 1_555 1_555
H31 C50 1_555 1_555
C51 C50 1_555 1_555
H32 C51 1_555 1_555
C52 C47 1_555 1_555
H33 C52 1_555 1_555
C53 C46 1_555 1_555
C54 C53 1_555 1_555
H34 C54 1_555 1_555
C55 C54 1_555 1_555
H35 C55 1_555 1_555
C56 C55 1_555 1_555
C57 C56 1_555 1_555
C58 C57 1_555 1_555
C59 C58 1_555 1_555
H36 C59 1_555 1_555
C60 C59 1_555 1_555
H37 C60 1_555 1_555
C61 C60 1_555 1_555
H38 C61 1_555 1_555
C62 C61 1_555 1_555
H39 C62 1_555 1_555
C63 C58 1_555 1_555
H40 C63 1_555 1_555
O1 C1 1_555 1_555
O2 C43 1_555 1_555
O3 C44 1_555 1_555
C64 C57 1_555 1_555
C65 C64 1_555 1_555
H41 C65 1_555 1_555
C66 C65 1_555 1_555
H42 C66 1_555 1_555
C67 C66 1_555 1_555
C68 C67 1_555 1_555
C69 C68 1_555 1_555
C70 C69 1_555 1_555
H43 C70 1_555 1_555
C71 C70 1_555 1_555
H44 C71 1_555 1_555
C72 C71 1_555 1_555
H45 C72 1_555 1_555
C73 C72 1_555 1_555
H46 C73 1_555 1_555
C74 C69 1_555 1_555
H47 C74 1_555 1_555
C75 C68 1_555 1_555
C76 C75 1_555 1_555
H48 C76 1_555 1_555
C77 C76 1_555 1_555
H49 C77 1_555 1_555
C78 C77 1_555 1_555
C79 C78 1_555 1_555
C80 C79 1_555 1_555
C81 C80 1_555 1_555
H50 C81 1_555 1_555
C82 C81 1_555 1_555
H51 C82 1_555 1_555
C83 C82 1_555 1_555
H52 C83 1_555 1_555
C84 C83 1_555 1_555
H53 C84 1_555 1_555
C85 C80 1_555 1_555
H54 C85 1_555 1_555
C86 O3 1_555 1_555
N1 C9 1_555 1_555
H55 N1 1_555 1_555
N2 C20 1_555 1_555
N3 C31 1_555 1_555
H56 N3 1_555 1_555
N4 C1 1_555 1_555
N5 C53 1_555 1_555
H57 N5 1_555 1_555
N6 C64 1_555 1_555
N7 C75 1_555 1_555
H58 N7 1_555 1_555
N8 C45 1_555 1_555
C7 C8 1_555 1_555
C12 N1 1_555 1_555
C18 C19 1_555 1_555
C23 N2 1_555 1_555
C29 C30 1_555 1_555
C34 N3 1_555 1_555
C40 C41 1_555 1_555
C42 N4 1_555 1_555
C43 O1 1_555 1_555
C44 O2 1_555 1_555
C51 C52 1_555 1_555
C56 N5 1_555 1_555
C62 C63 1_555 1_555
C67 N6 1_555 1_555
C73 C74 1_555 1_555
C78 N7 1_555 1_555
C79 C86 1_555 1_555
C84 C85 1_555 1_555
C86 N8 1_555 1_555

#END
