
#######################################################################
#
#                 Cambridge Crystallographic Data Centre
#                                CCDC 
#
#######################################################################
#
# If this CIF has been generated from an entry in the Cambridge 
# Structural Database, then it will include bibliographic, chemical, 
# crystal, experimental, refinement or atomic coordinate data resulting 
# from the CCDC's data processing and validation procedures.
#
#######################################################################

data_LUFLIJ
_chemical_name_common            
'(3R,4R,5S)-1 -Propyl-6 -bromo-spiro[4.3 ]oxindole-spiro[5.3 ]-1 -propyl-6 -bromo-oxindole-tetrahydrothiophen-3-ol'
_chemical_formula_moiety         'C24 H24 Br2 N2 O3 S1'
_chemical_name_systematic        
6,6''-dibromo-4'-hydroxy-1,1''-dipropyl-4',5'-dihydrodispiro[indole-3,2'-thiophene-3',3''-indole]-2,2''(1H,1''H)-dione
_symmetry_cell_setting           orthorhombic
_symmetry_space_group_name_H-M   'P 21 21 21'
_symmetry_Int_Tables_number      19
_space_group_name_Hall           'P 2ac 2ab'
loop_
_symmetry_equiv_pos_site_id
_symmetry_equiv_pos_as_xyz
1 x,y,z
2 1/2-x,-y,1/2+z
3 1/2+x,1/2-y,-z
4 -x,1/2+y,1/2-z
_cell_length_a                   9.181(4)
_cell_length_b                   9.395(4)
_cell_length_c                   27.281(11)
_cell_angle_alpha                90
_cell_angle_beta                 90
_cell_angle_gamma                90
_cell_volume                     2353.14
_exptl_crystal_colour            colorless
_exptl_crystal_description       block
_chemical_melting_point          '180-181 deg.C'
_cell_formula_units_Z            4
loop_
_atom_site_label
_atom_site_type_symbol
_atom_site_fract_x
_atom_site_fract_y
_atom_site_fract_z
Br1 Br 0.15296(9) 0.56392(9) 0.12522(4)
S1 S 0.7157(2) -0.1771(2) 0.16651(9)
O1 O 0.3749(6) -0.1803(6) 0.1994(2)
N1 N 0.2598(8) 0.0268(8) 0.1772(3)
C1 C 0.3048(9) 0.1654(8) 0.1614(3)
Br2 Br 0.30771(10) -0.12539(11) -0.06334(4)
O2 O 0.5240(5) 0.0725(6) 0.2634(2)
H1 H 0.4528(11) 0.0275(18) 0.2540(11)
N2 N 0.6985(8) 0.0939(6) 0.0669(3)
C2 C 0.4480(9) 0.1769(9) 0.1608(3)
O3 O 0.8185(6) 0.1396(6) 0.1354(2)
C3 C 0.5119(9) 0.3103(9) 0.1462(3)
H2 H 0.6127 0.3182 0.1441
C4 C 0.4275(8) 0.4244(9) 0.1354(3)
H3 H 0.4686 0.5111 0.1265
C5 C 0.2781(8) 0.4075(8) 0.1382(3)
C6 C 0.2103(9) 0.2769(8) 0.1493(3)
H4 H 0.1097 0.2656 0.1487
C7 C 0.1110(9) -0.0165(9) 0.1907(3)
H5 H 0.1048 -0.1196 0.1911
H6 H 0.0429 0.0186 0.1663
C8 C 0.0699(9) 0.0406(9) 0.2401(3)
H7 H -0.0340 0.0273 0.2448
H8 H 0.0889 0.1421 0.2407
C9 C 0.1492(11) -0.0276(9) 0.2823(3)
H9 H 0.1168 0.0139 0.3125
H10 H 0.2520 -0.0124 0.2786
H11 H 0.1295 -0.1280 0.2826
C10 C 0.3808(8) -0.0532(9) 0.1856(3)
C11 C 0.5173(9) 0.0378(9) 0.1746(3)
C12 C 0.6093(9) 0.0390(9) 0.2212(3)
H12 H 0.6867 0.1102 0.2178
C13 C 0.6804(9) -0.1119(8) 0.2268(3)
H13 H 0.6148 -0.1756 0.2439
H14 H 0.7704 -0.1052 0.2452
C14 C 0.6151(8) -0.0368(8) 0.1337(3)
C15 C 0.7224(9) 0.0751(9) 0.1126(3)
C16 C 0.7717(9) 0.1876(9) 0.0328(3)
H15 H 0.8207 0.2621 0.0511
H16 H 0.6994 0.2326 0.0120
C17 C 0.8856(9) 0.1098(9) -0.0003(3)
H17 H 0.8354 0.0414 -0.0209
H18 H 0.9319 0.1790 -0.0216
C18 C 1.0023(10) 0.0328(10) 0.0292(4)
H19 H 1.0713 -0.0098 0.0072
H20 H 0.9578 -0.0399 0.0488
H21 H 1.0514 0.0996 0.0501
C19 C 0.5804(10) 0.0015(9) 0.0500(3)
C20 C 0.5278(9) -0.0796(9) 0.0886(3)
C21 C 0.4240(9) -0.1825(9) 0.0827(3)
H22 H 0.3980 -0.2441 0.1079
C22 C 0.3615(10) -0.1889(9) 0.0378(3)
H23 H 0.2844 -0.2521 0.0338
C23 C 0.4051(10) -0.1040(9) -0.0060(4)
C24 C 0.5182(9) -0.0110(9) 0.0045(4)
H24 H 0.5538 0.0461 -0.0206
loop_
_geom_bond_atom_site_label_1
_geom_bond_atom_site_label_2
_geom_bond_site_symmetry_1
_geom_bond_site_symmetry_2
Br1 C5 1_555 1_555
S1 C13 1_555 1_555
O1 C10 1_555 1_555
N1 C1 1_555 1_555
C1 C2 1_555 1_555
Br2 C23 1_555 1_555
O2 H1 1_555 1_555
N2 C15 1_555 1_555
C2 C3 1_555 1_555
O3 C15 1_555 1_555
C3 H2 1_555 1_555
C4 C3 1_555 1_555
H3 C4 1_555 1_555
C5 C4 1_555 1_555
C6 C1 1_555 1_555
H4 C6 1_555 1_555
C7 N1 1_555 1_555
H5 C7 1_555 1_555
H6 C7 1_555 1_555
C8 C7 1_555 1_555
H7 C8 1_555 1_555
H8 C8 1_555 1_555
C9 C8 1_555 1_555
H9 C9 1_555 1_555
H10 C9 1_555 1_555
H11 C9 1_555 1_555
C10 N1 1_555 1_555
C11 C2 1_555 1_555
C12 O2 1_555 1_555
H12 C12 1_555 1_555
C13 C12 1_555 1_555
H13 C13 1_555 1_555
H14 C13 1_555 1_555
C14 S1 1_555 1_555
C15 C14 1_555 1_555
C16 N2 1_555 1_555
H15 C16 1_555 1_555
H16 C16 1_555 1_555
C17 C16 1_555 1_555
H17 C17 1_555 1_555
H18 C17 1_555 1_555
C18 C17 1_555 1_555
H19 C18 1_555 1_555
H20 C18 1_555 1_555
H21 C18 1_555 1_555
C19 N2 1_555 1_555
C20 C14 1_555 1_555
C21 C20 1_555 1_555
H22 C21 1_555 1_555
C22 C21 1_555 1_555
H23 C22 1_555 1_555
C23 C22 1_555 1_555
C24 C19 1_555 1_555
H24 C24 1_555 1_555
C5 C6 1_555 1_555
C10 C11 1_555 1_555
C11 C12 1_555 1_555
C11 C14 1_555 1_555
C19 C20 1_555 1_555
C23 C24 1_555 1_555

#END
