
#######################################################################
#
#                 Cambridge Crystallographic Data Centre
#                                CCDC 
#
#######################################################################
#
# If this CIF has been generated from an entry in the Cambridge 
# Structural Database, then it will include bibliographic, chemical, 
# crystal, experimental, refinement or atomic coordinate data resulting 
# from the CCDC's data processing and validation procedures.
#
#######################################################################

data_LUFLUU
_chemical_formula_moiety         'C10 H10 Cl1 F3 O5'
_chemical_name_systematic        
'Methyl 3-chloro-6-hydroxy-4-methoxy-2-oxo-6-(trifluoromethyl)cyclohex-3-ene-1-carboxylate'
_symmetry_cell_setting           monoclinic
_symmetry_space_group_name_H-M   'P 21/c'
_symmetry_Int_Tables_number      14
_space_group_name_Hall           '-P 2ybc'
loop_
_symmetry_equiv_pos_site_id
_symmetry_equiv_pos_as_xyz
1 x,y,z
2 -x,1/2+y,1/2-z
3 -x,-y,-z
4 x,1/2-y,1/2+z
_cell_length_a                   8.3390(3)
_cell_length_b                   9.8502(3)
_cell_length_c                   14.6141(6)
_cell_angle_alpha                90
_cell_angle_beta                 97.958(3)
_cell_angle_gamma                90
_cell_volume                     1188.85
_exptl_crystal_colour            colorless
_exptl_crystal_description       prism
_chemical_melting_point          108-109deg.C
_cell_formula_units_Z            4
loop_
_atom_site_label
_atom_site_type_symbol
_atom_site_fract_x
_atom_site_fract_y
_atom_site_fract_z
C1 C 0.35750(14) 0.21950(11) 0.06358(7)
C2 C 0.35208(13) 0.36278(11) 0.10432(7)
H1 H 0.2917 0.4235 0.0566
C3 C 0.52427(14) 0.41881(11) 0.12986(7)
C4 C 0.64397(13) 0.37599(11) 0.07384(7)
C5 C 0.60937(13) 0.29208(11) 0.00040(7)
C6 C 0.44838(14) 0.22337(11) -0.02063(7)
H2 H 0.4646 0.1294 -0.0416
H3 H 0.3818 0.2721 -0.0717
C7 C 0.18686(15) 0.16498(12) 0.03147(8)
C8 C 0.27438(14) 0.37286(12) 0.19216(7)
C9 C 0.13022(19) 0.51881(17) 0.27840(9)
H4 H 0.0732 0.4400 0.2991
H5 H 0.0556 0.5959 0.2687
H6 H 0.2213 0.5424 0.3255
C10 C 0.68767(16) 0.20470(13) -0.14050(8)
H7 H 0.6419 0.1146 -0.1323
H8 H 0.7871 0.1954 -0.1688
H9 H 0.6091 0.2596 -0.1807
Cl1 Cl 0.83588(4) 0.44292(3) 0.10051(2)
F1 F 0.19288(10) 0.04156(8) -0.00617(6)
F2 F 0.10340(9) 0.24428(9) -0.03179(6)
F3 F 0.10031(11) 0.15301(10) 0.10115(6)
O1 O 0.43869(11) 0.12582(8) 0.12665(6)
O2 O 0.72443(10) 0.27017(9) -0.05191(6)
O3 O 0.19014(10) 0.48661(9) 0.19276(5)
O4 O 0.29383(13) 0.29085(10) 0.25387(6)
O5 O 0.55219(12) 0.49987(9) 0.19316(6)
H10 H 0.404(2) 0.1328(18) 0.1745(13)
loop_
_geom_bond_atom_site_label_1
_geom_bond_atom_site_label_2
_geom_bond_site_symmetry_1
_geom_bond_site_symmetry_2
C1 C2 1_555 1_555
C2 H1 1_555 1_555
C3 C2 1_555 1_555
C4 C3 1_555 1_555
C5 C4 1_555 1_555
C6 C1 1_555 1_555
H2 C6 1_555 1_555
H3 C6 1_555 1_555
C7 C1 1_555 1_555
C8 C2 1_555 1_555
C9 H4 1_555 1_555
H5 C9 1_555 1_555
H6 C9 1_555 1_555
C10 H7 1_555 1_555
H8 C10 1_555 1_555
H9 C10 1_555 1_555
Cl1 C4 1_555 1_555
F1 C7 1_555 1_555
F2 C7 1_555 1_555
F3 C7 1_555 1_555
O1 C1 1_555 1_555
O2 C5 1_555 1_555
O3 C8 1_555 1_555
O4 C8 1_555 1_555
O5 C3 1_555 1_555
H10 O1 1_555 1_555
C5 C6 1_555 1_555
C9 O3 1_555 1_555
C10 O2 1_555 1_555

#END
