
#######################################################################
#
#                 Cambridge Crystallographic Data Centre
#                                CCDC 
#
#######################################################################
#
# If this CIF has been generated from an entry in the Cambridge 
# Structural Database, then it will include bibliographic, chemical, 
# crystal, experimental, refinement or atomic coordinate data resulting 
# from the CCDC's data processing and validation procedures.
#
#######################################################################

data_LUFLEE
_chemical_formula_moiety         'C12 H13 F3 O5'
_chemical_name_systematic        
'2-Methoxyethyl 2-hydroxy-4-methoxy-6-(trifluoromethyl)benzoate'
_symmetry_cell_setting           monoclinic
_symmetry_space_group_name_H-M   'C 2/c'
_symmetry_Int_Tables_number      15
_space_group_name_Hall           '-C 2yn'
loop_
_symmetry_equiv_pos_site_id
_symmetry_equiv_pos_as_xyz
1 x,y,z
2 -x,y,1/2-z
3 1/2+x,1/2+y,z
4 1/2-x,1/2+y,1/2-z
5 -x,-y,-z
6 x,-y,1/2+z
7 1/2-x,1/2-y,-z
8 1/2+x,1/2-y,1/2+z
_cell_length_a                   38.218(3)
_cell_length_b                   4.6368(2)
_cell_length_c                   15.7348(11)
_cell_angle_alpha                90
_cell_angle_beta                 112.632(5)
_cell_angle_gamma                90
_cell_volume                     2573.64
_exptl_crystal_colour            colorless
_exptl_crystal_description       prism
_chemical_melting_point          57-58deg.C
_cell_formula_units_Z            8
loop_
_atom_site_label
_atom_site_type_symbol
_atom_site_fract_x
_atom_site_fract_y
_atom_site_fract_z
C1 C 0.14917(4) 0.3270(3) 0.49594(9)
C2 C 0.18592(4) 0.2814(4) 0.49847(10)
C3 C 0.19347(4) 0.0888(4) 0.44028(10)
H1 H 0.2187 0.0606 0.4447
C4 C 0.16418(4) -0.0603(3) 0.37645(10)
C5 C 0.12681(4) -0.0146(4) 0.36912(10)
H2 H 0.1066 -0.1153 0.3236
C6 C 0.11925(4) 0.1734(3) 0.42679(9)
C7 C 0.07791(4) 0.2205(3) 0.40900(10)
C8 C 0.14572(4) 0.5198(4) 0.56683(10)
C9 C 0.10857(4) 0.6894(4) 0.64734(10)
H3 H 0.1153 0.8899 0.6382
H4 H 0.1250 0.6272 0.7103
C10 C 0.06803(4) 0.6732(4) 0.63487(10)
H5 H 0.0620 0.8339 0.6684
H6 H 0.0517 0.6925 0.5687
C11 C 0.02153(5) 0.3807(4) 0.65193(13)
H7 H 0.0170 0.1946 0.6754
H8 H 0.0065 0.3921 0.5856
H9 H 0.0141 0.5371 0.6834
C12 C 0.20525(5) -0.2950(5) 0.31670(13)
H10 H 0.2043 -0.4385 0.2701
H11 H 0.2222 -0.3632 0.3776
H12 H 0.2148 -0.1120 0.3030
F1 F 0.06703(2) 0.1061(2) 0.47304(6)
F2 F 0.05514(2) 0.0990(2) 0.32916(6)
F3 F 0.06835(2) 0.5004(2) 0.40151(6)
O1 O 0.17124(3) 0.6820(3) 0.61385(7)
O2 O 0.11368(3) 0.4988(3) 0.57914(7)
O3 O 0.06049(3) 0.4070(3) 0.66841(8)
O4 O 0.21652(3) 0.4224(3) 0.55849(8)
H13 H 0.2062(6) 0.539(5) 0.5853(14)
O5 O 0.16801(3) -0.2534(3) 0.31580(7)
loop_
_geom_bond_atom_site_label_1
_geom_bond_atom_site_label_2
_geom_bond_site_symmetry_1
_geom_bond_site_symmetry_2
C1 C2 1_555 1_555
C2 C3 1_555 1_555
C3 H1 1_555 1_555
C4 C3 1_555 1_555
C5 C4 1_555 1_555
H2 C5 1_555 1_555
C6 C1 1_555 1_555
C7 C6 1_555 1_555
C8 C1 1_555 1_555
C9 H3 1_555 1_555
H4 C9 1_555 1_555
C10 C9 1_555 1_555
H5 C10 1_555 1_555
H6 C10 1_555 1_555
C11 H7 1_555 1_555
H8 C11 1_555 1_555
H9 C11 1_555 1_555
C12 H10 1_555 1_555
H11 C12 1_555 1_555
H12 C12 1_555 1_555
F1 C7 1_555 1_555
F2 C7 1_555 1_555
F3 C7 1_555 1_555
O1 C8 1_555 1_555
O2 C8 1_555 1_555
O3 C10 1_555 1_555
O4 C2 1_555 1_555
H13 O4 1_555 1_555
O5 C4 1_555 1_555
C5 C6 1_555 1_555
C9 O2 1_555 1_555
C11 O3 1_555 1_555
C12 O5 1_555 1_555

#END
