
#######################################################################
#
#                 Cambridge Crystallographic Data Centre
#                                CCDC 
#
#######################################################################
#
# If this CIF has been generated from an entry in the Cambridge 
# Structural Database, then it will include bibliographic, chemical, 
# crystal, experimental, refinement or atomic coordinate data resulting 
# from the CCDC's data processing and validation procedures.
#
#######################################################################

data_LUFMEF
_chemical_formula_moiety         'C14 H13 N1 O4'
_chemical_name_systematic        
1-Methyl-6-(4-nitrophenyl)-3a,4-dihydro-1H-cyclopenta[c]furan-5(3H)-one
_symmetry_cell_setting           monoclinic
_symmetry_space_group_name_H-M   'C 2/c'
_symmetry_Int_Tables_number      15
_space_group_name_Hall           '-C 2yn'
loop_
_symmetry_equiv_pos_site_id
_symmetry_equiv_pos_as_xyz
1 x,y,z
2 -x,y,1/2-z
3 1/2+x,1/2+y,z
4 1/2-x,1/2+y,1/2-z
5 -x,-y,-z
6 x,-y,1/2+z
7 1/2-x,1/2-y,-z
8 1/2+x,1/2-y,1/2+z
_cell_length_a                   17.092(3)
_cell_length_b                   10.0062(13)
_cell_length_c                   15.548(2)
_cell_angle_alpha                90
_cell_angle_beta                 109.775(12)
_cell_angle_gamma                90
_cell_volume                     2502.3
_exptl_crystal_colour            yellow
_exptl_crystal_description       prism
_cell_formula_units_Z            8
loop_
_atom_site_label
_atom_site_type_symbol
_atom_site_fract_x
_atom_site_fract_y
_atom_site_fract_z
O1 O 0.63352(16) 0.4938(3) 0.75511(17)
O2 O 0.85700(15) 0.6557(3) 0.58602(18)
O3 O 0.4115(3) 0.0829(5) 0.3947(3)
O4 O 0.4240(3) 0.1915(4) 0.2864(2)
N1 N 0.4421(2) 0.1727(4) 0.3669(3)
C1 C 0.67379(18) 0.5151(3) 0.6200(2)
C2 C 0.6785(2) 0.5401(4) 0.7166(2)
C3 C 0.7548(2) 0.6264(4) 0.7621(2)
H1 H 0.7986 0.5744 0.8052
H2 H 0.7410 0.7011 0.7940
C4 C 0.78138(19) 0.6750(4) 0.6833(2)
H3 H 0.7617 0.7667 0.6674
C5 C 0.73595(18) 0.5833(3) 0.6065(2)
C6 C 0.78450(19) 0.5744(3) 0.5422(2)
H4 H 0.7522 0.6128 0.4828
C7 C 0.8696(2) 0.6625(4) 0.6816(3)
H5 H 0.9029 0.7396 0.7095
H6 H 0.8964 0.5822 0.7129
C8 C 0.8095(2) 0.4319(4) 0.5300(3)
H7 H 0.8404 0.4312 0.4886
H8 H 0.7606 0.3779 0.5055
H9 H 0.8434 0.3966 0.5880
C9 C 0.61336(17) 0.4267(3) 0.5553(2)
C10 C 0.5717(2) 0.3260(4) 0.5847(2)
H10 H 0.5820 0.3148 0.6470
C11 C 0.5153(2) 0.2424(4) 0.5231(3)
H11 H 0.4879 0.1756 0.5433
C12 C 0.50089(19) 0.2608(4) 0.4314(2)
C13 C 0.5396(2) 0.3593(4) 0.3993(2)
H12 H 0.5287 0.3700 0.3369
C14 C 0.59492(19) 0.4419(3) 0.4612(2)
H13 H 0.6208 0.5097 0.4399
loop_
_geom_bond_atom_site_label_1
_geom_bond_atom_site_label_2
_geom_bond_site_symmetry_1
_geom_bond_site_symmetry_2
O1 C2 1_555 1_555
O2 C6 1_555 1_555
O3 N1 1_555 1_555
O4 N1 1_555 1_555
N1 C12 1_555 1_555
C1 C2 1_555 1_555
C2 C3 1_555 1_555
C3 H1 1_555 1_555
H2 C3 1_555 1_555
C4 C3 1_555 1_555
H3 C4 1_555 1_555
C5 C1 1_555 1_555
C6 C5 1_555 1_555
H4 C6 1_555 1_555
C7 O2 1_555 1_555
H5 C7 1_555 1_555
H6 C7 1_555 1_555
C8 C6 1_555 1_555
H7 C8 1_555 1_555
H8 C8 1_555 1_555
H9 C8 1_555 1_555
C9 C1 1_555 1_555
C10 C9 1_555 1_555
H10 C10 1_555 1_555
C11 C10 1_555 1_555
H11 C11 1_555 1_555
C12 C11 1_555 1_555
C13 C12 1_555 1_555
H12 C13 1_555 1_555
C14 C9 1_555 1_555
H13 C14 1_555 1_555
C4 C5 1_555 1_555
C4 C7 1_555 1_555
C13 C14 1_555 1_555

#END
