
#######################################################################
#
#                 Cambridge Crystallographic Data Centre
#                                CCDC 
#
#######################################################################
#
# If this CIF has been generated from an entry in the Cambridge 
# Structural Database, then it will include bibliographic, chemical, 
# crystal, experimental, refinement or atomic coordinate data resulting 
# from the CCDC's data processing and validation procedures.
#
#######################################################################

data_LUFNEF
_chemical_formula_moiety         'C21 H24 N3 P3'
_chemical_name_systematic        
trans-1,3,5-Trimethyl-1,3,5-triphenyltriphosphazene
_symmetry_cell_setting           triclinic
_symmetry_space_group_name_H-M   'P -1'
_symmetry_Int_Tables_number      2
_space_group_name_Hall           '-P 1'
loop_
_symmetry_equiv_pos_site_id
_symmetry_equiv_pos_as_xyz
1 x,y,z
2 -x,-y,-z
_cell_length_a                   8.128(2)
_cell_length_b                   15.809(3)
_cell_length_c                   17.454(3)
_cell_angle_alpha                107.93(1)
_cell_angle_beta                 90.59(2)
_cell_angle_gamma                91.58(1)
_cell_volume                     2132.61
_exptl_crystal_colour            colorless
_exptl_crystal_description       plates
_chemical_melting_point          '97 deg.C'
_cell_formula_units_Z            4
loop_
_atom_site_label
_atom_site_type_symbol
_atom_site_fract_x
_atom_site_fract_y
_atom_site_fract_z
P1 P -0.0159(3) 0.7467(2) 0.4367(2)
P2 P 0.3096(3) 0.7058(2) 0.3929(2)
P3 P 0.2318(3) 0.8810(2) 0.4780(2)
N1 N 0.1177(10) 0.6779(6) 0.3901(6)
N2 N 0.3591(10) 0.8067(5) 0.4389(5)
N3 N 0.0420(10) 0.8486(5) 0.4764(6)
C1 C -0.1886(12) 0.7417(8) 0.3687(6)
H1 H -0.2249(12) 0.6809(8) 0.3446(6)
H2 H -0.1553(12) 0.7665(8) 0.3273(6)
H3 H -0.2771(12) 0.7751(8) 0.3982(6)
C2 C 0.4214(14) 0.6358(8) 0.4371(7)
H4 H 0.3923(14) 0.5746(8) 0.4096(7)
H5 H 0.3944(14) 0.6496(8) 0.4929(7)
H6 H 0.5374(14) 0.6458(8) 0.4325(7)
C3 C 0.2457(14) 0.9668(8) 0.4318(7)
H7 H 0.1681(14) 1.0116(8) 0.4558(7)
H8 H 0.2214(14) 0.9421(8) 0.3752(7)
H9 H 0.3550(14) 0.9929(8) 0.4396(7)
C7 C -0.1083(11) 0.7047(7) 0.5120(6)
C8 C -0.1767(14) 0.7595(8) 0.5804(7)
H19 H -0.1702(14) 0.8207(8) 0.5902(7)
C9 C -0.2549(15) 0.7254(10) 0.6347(8)
H20 H -0.3008(15) 0.7637(10) 0.6805(8)
C10 C -0.2650(15) 0.6364(10) 0.6214(9)
H21 H -0.3173(15) 0.6135(10) 0.6582(9)
C11 C -0.1977(16) 0.5796(9) 0.5531(9)
H22 H -0.2069(16) 0.5184(9) 0.5431(9)
C12 C -0.1160(14) 0.6147(8) 0.4994(8)
H23 H -0.0663(14) 0.5768(8) 0.4546(8)
C13 C 0.3773(11) 0.6783(7) 0.2910(6)
C14 C 0.3759(13) 0.5923(7) 0.2409(7)
H24 H 0.3435(13) 0.5464(7) 0.2610(7)
C15 C 0.4213(14) 0.5720(9) 0.1617(7)
H25 H 0.4165(14) 0.5133(9) 0.1287(7)
C16 C 0.4734(13) 0.6381(9) 0.1315(7)
H26 H 0.5044(13) 0.6246(9) 0.0781(7)
C17 C 0.4795(13) 0.7246(8) 0.1810(7)
H27 H 0.5149(13) 0.7700(8) 0.1610(7)
C18 C 0.4337(13) 0.7441(7) 0.2594(7)
H28 H 0.4405(13) 0.8028(7) 0.2924(7)
C19 C 0.2973(11) 0.9360(6) 0.5812(6)
C20 C 0.4144(13) 0.8966(7) 0.6177(7)
H29 H 0.4559(13) 0.8418(7) 0.5894(7)
C21 C 0.4683(15) 0.9396(8) 0.6960(7)
H30 H 0.5470(15) 0.9141(8) 0.7202(7)
C22 C 0.4050(15) 1.0199(9) 0.7376(7)
H31 H 0.4396(15) 1.0479(9) 0.7905(7)
C23 C 0.2918(14) 1.0596(8) 0.7025(7)
H32 H 0.2495(14) 1.1142(8) 0.7310(7)
C24 C 0.2412(13) 1.0164(7) 0.6232(6)
H33 H 0.1667(13) 1.0437(7) 0.5984(6)
P4 P 0.5299(3) 0.2539(2) 0.0838(2)
P5 P 0.2057(3) 0.3005(2) 0.0623(2)
P6 P 0.2744(3) 0.1236(2) 0.0475(2)
N4 N 0.4002(9) 0.3250(5) 0.0728(5)
N5 N 0.1503(9) 0.2011(5) 0.0520(5)
N6 N 0.4662(9) 0.1540(5) 0.0651(6)
C4 C 0.7012(11) 0.2559(7) 0.0215(6)
H10 H 0.7416(11) 0.3161(7) 0.0320(6)
H11 H 0.6675(11) 0.2319(7) -0.0340(6)
H12 H 0.7868(11) 0.2207(7) 0.0330(6)
C5 C 0.1028(13) 0.3714(8) 0.1454(7)
H13 H 0.1355(13) 0.4322(8) 0.1522(7)
H14 H 0.1309(13) 0.3568(8) 0.1933(7)
H15 H -0.0140(13) 0.3638(8) 0.1358(7)
C6 C 0.2573(13) 0.0417(8) -0.0485(7)
H16 H 0.3324(13) -0.0048(8) -0.0507(7)
H17 H 0.2836(13) 0.0684(8) -0.0895(7)
H18 H 0.1468(13) 0.0172(8) -0.0570(7)
C25 C 0.6190(11) 0.2953(7) 0.1847(6)
C26 C 0.6364(15) 0.3846(8) 0.2223(7)
H34 H 0.5948(15) 0.4238(8) 0.1972(7)
C27 C 0.7150(18) 0.4186(10) 0.2973(8)
H35 H 0.7274(18) 0.4797(10) 0.3216(8)
C28 C 0.7736(16) 0.3611(11) 0.3346(8)
H36 H 0.8247(16) 0.3829(11) 0.3850(8)
C29 C 0.7578(17) 0.2741(11) 0.2990(8)
H37 H 0.7988(17) 0.2356(11) 0.3250(8)
C30 C 0.6809(14) 0.2384(8) 0.2230(7)
H38 H 0.6719(14) 0.1771(8) 0.1988(7)
C31 C 0.1344(11) 0.3305(7) -0.0244(6)
C32 C 0.0597(14) 0.2672(8) -0.0892(7)
H39 H 0.0417(14) 0.2094(8) -0.0876(7)
C33 C 0.0116(15) 0.2898(10) -0.1565(8)
H40 H -0.0409(15) 0.2473(10) -0.1995(8)
C34 C 0.0399(16) 0.3726(12) -0.1603(8)
H41 H 0.0072(16) 0.3864(12) -0.2062(8)
C35 C 0.1151(16) 0.4361(9) -0.0986(8)
H42 H 0.1374(16) 0.4927(9) -0.1024(8)
C36 C 0.1593(14) 0.4152(8) -0.0284(7)
H43 H 0.2056(14) 0.4592(8) 0.0156(7)
C37 C 0.2048(11) 0.0673(6) 0.1168(6)
C38 C 0.2600(13) -0.0182(7) 0.1114(7)
H44 H 0.3344(13) -0.0458(7) 0.0721(7)
C39 C 0.2036(14) -0.0601(8) 0.1641(7)
H45 H 0.2408(14) -0.1164(8) 0.1601(7)
C40 C 0.0961(14) -0.0226(9) 0.2216(7)
H46 H 0.0589(14) -0.0529(9) 0.2564(7)
C41 C 0.0409(15) 0.0614(9) 0.2286(7)
H47 H -0.0324(15) 0.0885(9) 0.2686(7)
C42 C 0.0958(13) 0.1047(7) 0.1755(7)
H48 H 0.0575(13) 0.1609(7) 0.1799(7)
loop_
_geom_bond_atom_site_label_1
_geom_bond_atom_site_label_2
_geom_bond_site_symmetry_1
_geom_bond_site_symmetry_2
P1 N1 1_555 1_555
P2 N1 1_555 1_555
P3 N2 1_555 1_555
P4 N4 1_555 1_555
P5 N4 1_555 1_555
P6 N5 1_555 1_555
N2 P2 1_555 1_555
N3 P1 1_555 1_555
N5 P5 1_555 1_555
N6 P4 1_555 1_555
C1 P1 1_555 1_555
H1 C1 1_555 1_555
H2 C1 1_555 1_555
H3 C1 1_555 1_555
C2 P2 1_555 1_555
H4 C2 1_555 1_555
H5 C2 1_555 1_555
H6 C2 1_555 1_555
C3 P3 1_555 1_555
H7 C3 1_555 1_555
H8 C3 1_555 1_555
H9 C3 1_555 1_555
C4 P4 1_555 1_555
H10 C4 1_555 1_555
H11 C4 1_555 1_555
H12 C4 1_555 1_555
C5 P5 1_555 1_555
H13 C5 1_555 1_555
H14 C5 1_555 1_555
H15 C5 1_555 1_555
C6 P6 1_555 1_555
H16 C6 1_555 1_555
H17 C6 1_555 1_555
H18 C6 1_555 1_555
C7 P1 1_555 1_555
C8 C7 1_555 1_555
H19 C8 1_555 1_555
C9 C8 1_555 1_555
H20 C9 1_555 1_555
C10 C9 1_555 1_555
H21 C10 1_555 1_555
C11 C10 1_555 1_555
H22 C11 1_555 1_555
C12 C7 1_555 1_555
H23 C12 1_555 1_555
C13 P2 1_555 1_555
C14 C13 1_555 1_555
H24 C14 1_555 1_555
C15 C14 1_555 1_555
H25 C15 1_555 1_555
C16 C15 1_555 1_555
H26 C16 1_555 1_555
C17 C16 1_555 1_555
H27 C17 1_555 1_555
C18 C13 1_555 1_555
H28 C18 1_555 1_555
C19 P3 1_555 1_555
C20 C19 1_555 1_555
H29 C20 1_555 1_555
C21 C20 1_555 1_555
H30 C21 1_555 1_555
C22 C21 1_555 1_555
H31 C22 1_555 1_555
C23 C22 1_555 1_555
H32 C23 1_555 1_555
C24 C19 1_555 1_555
H33 C24 1_555 1_555
C25 P4 1_555 1_555
C26 C25 1_555 1_555
H34 C26 1_555 1_555
C27 C26 1_555 1_555
H35 C27 1_555 1_555
C28 C27 1_555 1_555
H36 C28 1_555 1_555
C29 C28 1_555 1_555
H37 C29 1_555 1_555
C30 C25 1_555 1_555
H38 C30 1_555 1_555
C31 P5 1_555 1_555
C32 C31 1_555 1_555
H39 C32 1_555 1_555
C33 C32 1_555 1_555
H40 C33 1_555 1_555
C34 C33 1_555 1_555
H41 C34 1_555 1_555
C35 C34 1_555 1_555
H42 C35 1_555 1_555
C36 C31 1_555 1_555
H43 C36 1_555 1_555
C37 P6 1_555 1_555
C38 C37 1_555 1_555
H44 C38 1_555 1_555
C39 C38 1_555 1_555
H45 C39 1_555 1_555
C40 C39 1_555 1_555
H46 C40 1_555 1_555
C41 C40 1_555 1_555
H47 C41 1_555 1_555
C42 C37 1_555 1_555
H48 C42 1_555 1_555
P3 N3 1_555 1_555
P6 N6 1_555 1_555
C11 C12 1_555 1_555
C17 C18 1_555 1_555
C23 C24 1_555 1_555
C29 C30 1_555 1_555
C35 C36 1_555 1_555
C41 C42 1_555 1_555

#END
