
#######################################################################
#
#                 Cambridge Crystallographic Data Centre
#                                CCDC 
#
#######################################################################
#
# If this CIF has been generated from an entry in the Cambridge 
# Structural Database, then it will include bibliographic, chemical, 
# crystal, experimental, refinement or atomic coordinate data resulting 
# from the CCDC's data processing and validation procedures.
#
#######################################################################

data_LUFSIQ
_chemical_formula_moiety         'C15 H19 F3 N2 O1 S1'
_chemical_name_systematic        
2-Methyl-N-(2,2,2-trifluoro-1-(2-methyl-1H-indol-3-yl)ethyl)propane-2-sulfinamide
_symmetry_cell_setting           orthorhombic
_symmetry_space_group_name_H-M   'P 21 21 21'
_symmetry_Int_Tables_number      19
_space_group_name_Hall           'P 2ac 2ab'
loop_
_symmetry_equiv_pos_site_id
_symmetry_equiv_pos_as_xyz
1 x,y,z
2 1/2-x,-y,1/2+z
3 -x,1/2+y,1/2-z
4 1/2+x,1/2-y,-z
_cell_length_a                   9.5251(6)
_cell_length_b                   21.5003(16)
_cell_length_c                   23.9866(15)
_cell_angle_alpha                90
_cell_angle_beta                 90
_cell_angle_gamma                90
_cell_volume                     4912.28
_cell_formula_units_Z            12
loop_
_atom_site_label
_atom_site_type_symbol
_atom_site_fract_x
_atom_site_fract_y
_atom_site_fract_z
C1 C 0.7184(3) 0.10191(11) 0.91798(10)
C2 C 0.7184(3) 0.05157(10) 0.95254(10)
C3 C 0.6979(2) 0.07387(9) 1.00813(10)
C4 C 0.6814(3) 0.13907(11) 1.00410(11)
C5 C 0.6595(3) 0.17588(12) 1.05039(13)
H1 H 0.6474 0.2186 1.0467
C6 C 0.6558(3) 0.14835(13) 1.10187(13)
H2 H 0.6403 0.1725 1.1335
C7 C 0.6752(3) 0.08471(12) 1.10716(11)
H3 H 0.6740 0.0668 1.1424
C8 C 0.6960(3) 0.04763(11) 1.06131(10)
H4 H 0.7087 0.0050 1.0657
C9 C 0.7426(3) 0.10616(13) 0.85638(11)
H5 H 0.7035 0.1443 0.8426
H6 H 0.6981 0.0716 0.8382
H7 H 0.8416 0.1053 0.8489
C10 C 0.7333(2) -0.01498(10) 0.93446(10)
H8 H 0.7064 -0.0176 0.8951
C11 C 0.3804(3) -0.09851(11) 0.94182(10)
C12 C 0.3580(3) -0.04384(13) 0.90284(12)
H9 H 0.3914 -0.0544 0.8663
H10 H 0.4086 -0.0084 0.9165
H11 H 0.2597 -0.0342 0.9010
C13 C 0.3361(3) -0.08373(12) 1.00112(11)
H12 H 0.2358 -0.0796 1.0027
H13 H 0.3790 -0.0455 1.0128
H14 H 0.3654 -0.1168 1.0254
C14 C 0.3032(3) -0.15588(13) 0.92097(12)
H15 H 0.3145 -0.1891 0.9473
H16 H 0.3411 -0.1682 0.8856
H17 H 0.2052 -0.1465 0.9169
C15 C 0.8821(3) -0.03787(13) 0.93971(14)
F1 F 0.89610(18) -0.09699(7) 0.92409(8)
F2 F 0.93251(19) -0.03438(7) 0.99106(8)
F3 F 0.96863(19) -0.00532(9) 0.90739(9)
N1 N 0.6953(2) 0.15449(9) 0.94874(9)
H18 H 0.6902 0.1916 0.9355
N2 N 0.6389(2) -0.05485(9) 0.96604(9)
H19 H 0.605(3) -0.0410(11) 0.9958(8)
O1 O 0.59001(19) -0.17019(7) 0.97871(7)
S1 S 0.56836(7) -0.11816(3) 0.93851(3)
C16 C 0.6244(3) 0.27256(13) 0.72845(11)
C17 C 0.6617(3) 0.32829(12) 0.75192(9)
C18 C 0.5449(3) 0.36982(13) 0.74502(10)
C19 C 0.4390(3) 0.33686(17) 0.71684(11)
C20 C 0.3115(4) 0.3627(2) 0.70379(12)
H20 H 0.2427 0.3394 0.6858
C21 C 0.2880(4) 0.4234(2) 0.71782(15)
H21 H 0.2029 0.4419 0.7086
C22 C 0.3890(4) 0.45761(17) 0.74554(13)
H22 H 0.3706 0.4988 0.7549
C23 C 0.5171(3) 0.43153(14) 0.75965(11)
H23 H 0.5840 0.4548 0.7787
C24 C 0.7042(4) 0.21297(12) 0.72333(12)
H24 H 0.6443 0.1788 0.7333
H25 H 0.7839 0.2139 0.7478
H26 H 0.7355 0.2079 0.6856
C25 C 0.7976(3) 0.33987(11) 0.78017(9)
H27 H 0.8481 0.3003 0.7833
C26 C 0.6584(3) 0.38070(12) 0.93579(10)
C27 C 0.6099(4) 0.44411(12) 0.91590(12)
H28 H 0.5933 0.4705 0.9475
H29 H 0.5247 0.4397 0.8949
H30 H 0.6811 0.4623 0.8927
C28 C 0.5492(3) 0.35199(14) 0.97478(11)
H31 H 0.5361 0.3786 1.0065
H32 H 0.5812 0.3119 0.9870
H33 H 0.4618 0.3475 0.9553
C29 C 0.8019(3) 0.38348(16) 0.96365(11)
H34 H 0.8667 0.4048 0.9397
H35 H 0.8351 0.3420 0.9704
H36 H 0.7944 0.4054 0.9984
C30 C 0.8890(3) 0.38551(15) 0.74862(11)
F4 F 1.00694(17) 0.39780(8) 0.77647(6)
F5 F 0.9266(2) 0.36165(9) 0.69975(6)
F6 F 0.82937(19) 0.43960(8) 0.73854(7)
N3 N 0.4920(3) 0.27815(13) 0.70721(9)
H37 H 0.4476 0.2490 0.6901
N4 N 0.7777(2) 0.36573(9) 0.83698(8)
H38 H 0.8570(19) 0.3662(10) 0.8538(9)
O2 O 0.7197(3) 0.26902(7) 0.89556(8)
S2 S 0.65908(7) 0.32839(3) 0.87552(3)
C31 C 0.1582(3) 0.21544(10) 0.60794(10)
C32 C 0.1811(3) 0.16498(10) 0.64164(9)
C33 C 0.3240(3) 0.14486(10) 0.63232(9)
C34 C 0.3799(3) 0.18532(11) 0.59197(10)
C35 C 0.5166(3) 0.17988(13) 0.57164(11)
H39 H 0.5515 0.2074 0.5452
C36 C 0.5972(3) 0.13251(14) 0.59214(12)
H40 H 0.6886 0.1275 0.5793
C37 C 0.5445(3) 0.09168(13) 0.63199(12)
H41 H 0.6019 0.0600 0.6453
C38 C 0.4100(3) 0.09687(11) 0.65218(10)
H42 H 0.3765 0.0689 0.6786
C39 C 0.0286(3) 0.25341(11) 0.59912(11)
H43 H 0.0537 0.2928 0.5831
H44 H -0.0173 0.2601 0.6342
H45 H -0.0337 0.2318 0.5744
C40 C 0.0747(3) 0.13869(10) 0.68030(9)
H46 H -0.0018 0.1689 0.6839
C41 C 0.2725(3) 0.15306(14) 0.82889(10)
C42 C 0.3689(3) 0.10046(13) 0.81178(13)
H47 H 0.4303 0.1144 0.7826
H48 H 0.3138 0.0661 0.7986
H49 H 0.4237 0.0875 0.8433
C43 C 0.3593(4) 0.20460(15) 0.85651(13)
H50 H 0.3962 0.1898 0.8913
H51 H 0.3006 0.2401 0.8631
H52 H 0.4353 0.2162 0.8324
C44 C 0.1540(4) 0.1319(2) 0.86562(12)
H53 H 0.1906 0.1194 0.9012
H54 H 0.1069 0.0974 0.8485
H55 H 0.0888 0.1655 0.8707
C45 C 0.0129(3) 0.07788(14) 0.66070(13)
F7 F -0.08188(19) 0.05547(8) 0.69716(7)
F8 F -0.05534(19) 0.08568(8) 0.61266(7)
F9 F 0.10639(19) 0.03330(7) 0.65254(8)
N5 N 0.2769(3) 0.22749(9) 0.57795(8)
H56 H 0.2860 0.2569 0.5540
N6 N 0.1334(2) 0.12725(9) 0.73629(8)
H57 H 0.066(2) 0.1140(11) 0.7585(9)
O3 O 0.0890(3) 0.23335(9) 0.78389(9)
S3 S 0.20245(8) 0.19129(3) 0.76571(3)
loop_
_geom_bond_atom_site_label_1
_geom_bond_atom_site_label_2
_geom_bond_site_symmetry_1
_geom_bond_site_symmetry_2
C1 C2 1_555 1_555
C2 C3 1_555 1_555
C3 C4 1_555 1_555
C4 C5 1_555 1_555
C5 H1 1_555 1_555
C6 C5 1_555 1_555
H2 C6 1_555 1_555
C7 C6 1_555 1_555
H3 C7 1_555 1_555
C8 C3 1_555 1_555
H4 C8 1_555 1_555
C9 C1 1_555 1_555
H5 C9 1_555 1_555
H6 C9 1_555 1_555
H7 C9 1_555 1_555
C10 C2 1_555 1_555
H8 C10 1_555 1_555
C11 C12 1_555 1_555
C12 H9 1_555 1_555
H10 C12 1_555 1_555
H11 C12 1_555 1_555
C13 C11 1_555 1_555
H12 C13 1_555 1_555
H13 C13 1_555 1_555
H14 C13 1_555 1_555
C14 C11 1_555 1_555
H15 C14 1_555 1_555
H16 C14 1_555 1_555
H17 C14 1_555 1_555
C15 C10 1_555 1_555
F1 C15 1_555 1_555
F2 C15 1_555 1_555
F3 C15 1_555 1_555
N1 C1 1_555 1_555
H18 N1 1_555 1_555
N2 C10 1_555 1_555
H19 N2 1_555 1_555
O1 S1 1_555 1_555
S1 C11 1_555 1_555
C16 C17 1_555 1_555
C17 C18 1_555 1_555
C18 C19 1_555 1_555
C19 C20 1_555 1_555
C20 H20 1_555 1_555
C21 C20 1_555 1_555
H21 C21 1_555 1_555
C22 C21 1_555 1_555
H22 C22 1_555 1_555
C23 C18 1_555 1_555
H23 C23 1_555 1_555
C24 C16 1_555 1_555
H24 C24 1_555 1_555
H25 C24 1_555 1_555
H26 C24 1_555 1_555
C25 C17 1_555 1_555
H27 C25 1_555 1_555
C26 C27 1_555 1_555
C27 H28 1_555 1_555
H29 C27 1_555 1_555
H30 C27 1_555 1_555
C28 C26 1_555 1_555
H31 C28 1_555 1_555
H32 C28 1_555 1_555
H33 C28 1_555 1_555
C29 C26 1_555 1_555
H34 C29 1_555 1_555
H35 C29 1_555 1_555
H36 C29 1_555 1_555
C30 C25 1_555 1_555
F4 C30 1_555 1_555
F5 C30 1_555 1_555
F6 C30 1_555 1_555
N3 C16 1_555 1_555
H37 N3 1_555 1_555
N4 C25 1_555 1_555
H38 N4 1_555 1_555
O2 S2 1_555 1_555
S2 C26 1_555 1_555
C31 C32 1_555 1_555
C32 C33 1_555 1_555
C33 C34 1_555 1_555
C34 C35 1_555 1_555
C35 H39 1_555 1_555
C36 C35 1_555 1_555
H40 C36 1_555 1_555
C37 C36 1_555 1_555
H41 C37 1_555 1_555
C38 C33 1_555 1_555
H42 C38 1_555 1_555
C39 C31 1_555 1_555
H43 C39 1_555 1_555
H44 C39 1_555 1_555
H45 C39 1_555 1_555
C40 C32 1_555 1_555
H46 C40 1_555 1_555
C41 C42 1_555 1_555
C42 H47 1_555 1_555
H48 C42 1_555 1_555
H49 C42 1_555 1_555
C43 C41 1_555 1_555
H50 C43 1_555 1_555
H51 C43 1_555 1_555
H52 C43 1_555 1_555
C44 C41 1_555 1_555
H53 C44 1_555 1_555
H54 C44 1_555 1_555
H55 C44 1_555 1_555
C45 C40 1_555 1_555
F7 C45 1_555 1_555
F8 C45 1_555 1_555
F9 C45 1_555 1_555
N5 C31 1_555 1_555
H56 N5 1_555 1_555
N6 C40 1_555 1_555
H57 N6 1_555 1_555
O3 S3 1_555 1_555
S3 C41 1_555 1_555
C4 N1 1_555 1_555
C7 C8 1_555 1_555
N2 S1 1_555 1_555
C19 N3 1_555 1_555
C22 C23 1_555 1_555
N4 S2 1_555 1_555
C34 N5 1_555 1_555
C37 C38 1_555 1_555
N6 S3 1_555 1_555

#END
