
#######################################################################
#
#                 Cambridge Crystallographic Data Centre
#                                CCDC 
#
#######################################################################
#
# If this CIF has been generated from an entry in the Cambridge 
# Structural Database, then it will include bibliographic, chemical, 
# crystal, experimental, refinement or atomic coordinate data resulting 
# from the CCDC's data processing and validation procedures.
#
#######################################################################

data_LUGDEY
_chemical_name_common            
'17-(((trifluoromethyl)sulfonyl)oxy)androsta-5,16-dien-3-yl acetate'
_chemical_formula_moiety         'C22 H29 F3 O5 S1'
_chemical_name_systematic        
'(3S, 8R, 9S, 10R, 13S, 14S)-10,13-dimethyl-17-(trifluoromethyl sulfonyloxy)-2, 3, 4,7, 8, 9, 10, 11, 12, 13,14, 15-dodecahydro-1H-cyclopenta[a]phenanthren-3-yl acetate'
_symmetry_cell_setting           orthorhombic
_symmetry_space_group_name_H-M   'P 21 21 21'
_symmetry_Int_Tables_number      19
_space_group_name_Hall           'P 2ac 2ab'
loop_
_symmetry_equiv_pos_site_id
_symmetry_equiv_pos_as_xyz
1 x,y,z
2 1/2-x,-y,1/2+z
3 1/2+x,1/2-y,-z
4 -x,1/2+y,1/2-z
_cell_length_a                   8.0734(10)
_cell_length_b                   9.9640(12)
_cell_length_c                   27.6900(15)
_cell_angle_alpha                90
_cell_angle_beta                 90
_cell_angle_gamma                90
_cell_volume                     2227.48
_exptl_crystal_colour            colorless
_exptl_crystal_description       block
_cell_formula_units_Z            4
loop_
_atom_site_label
_atom_site_type_symbol
_atom_site_fract_x
_atom_site_fract_y
_atom_site_fract_z
S1 S -0.10597(18) 0.04595(17) 0.06476(4)
C1 C 0.4181(6) 0.0552(5) 0.35593(14)
H1 H 0.3017 0.0423 0.3632
H2 H 0.4598 -0.0284 0.3427
C2 C 0.5109(7) 0.0846(6) 0.40342(16)
H3 H 0.4642 0.1634 0.4189
H4 H 0.4999 0.0092 0.4253
C3 C 0.6921(6) 0.1085(5) 0.39178(16)
H5 H 0.7385 0.0276 0.3769
C4 C 0.7123(7) 0.2252(5) 0.35765(16)
H6 H 0.8288 0.2381 0.3505
H7 H 0.6710 0.3064 0.3728
C5 C 0.6179(6) 0.1994(5) 0.31113(16)
C6 C 0.6943(6) 0.2032(5) 0.26896(16)
H8 H 0.8077 0.2195 0.2694
C7 C 0.6156(6) 0.1838(5) 0.22092(16)
H9 H 0.6479 0.0972 0.2080
H10 H 0.6546 0.2526 0.1989
C8 C 0.4257(5) 0.1907(5) 0.22442(15)
H11 H 0.3908 0.2846 0.2276
C9 C 0.3643(5) 0.1100(4) 0.26848(16)
H12 H 0.4104 0.0195 0.2649
C10 C 0.4335(6) 0.1654(4) 0.31691(16)
C11 C 0.1732(6) 0.0929(5) 0.26877(16)
H13 H 0.1441 0.0284 0.2936
H14 H 0.1235 0.1781 0.2776
C12 C 0.0973(6) 0.0464(5) 0.22079(15)
H15 H 0.1297 -0.0456 0.2143
H16 H -0.0226 0.0498 0.2228
C13 C 0.1568(5) 0.1370(5) 0.17978(15)
C14 C 0.3473(5) 0.1296(5) 0.17969(16)
H17 H 0.3725 0.0336 0.1819
C15 C 0.3994(7) 0.1698(6) 0.12816(16)
H18 H 0.4076 0.2665 0.1247
H19 H 0.5038 0.1288 0.1190
C16 C 0.2568(7) 0.1135(6) 0.09945(17)
H20 H 0.2587 0.0952 0.0665
C17 C 0.1287(6) 0.0943(5) 0.12839(16)
C18 C -0.1421(9) 0.2240(8) 0.0518(3)
C19 C 0.9433(6) 0.1150(6) 0.4372(2)
C20 C 1.0190(8) 0.1479(7) 0.4847(2)
H21 H 0.9341 0.1767 0.5067
H22 H 1.0730 0.0697 0.4975
H23 H 1.0987 0.2185 0.4807
C21 C 0.3391(7) 0.2934(5) 0.33312(19)
H24 H 0.2236 0.2729 0.3368
H25 H 0.3830 0.3241 0.3634
H26 H 0.3523 0.3623 0.3092
C22 C 0.0868(7) 0.2809(5) 0.18514(18)
H27 H 0.1028 0.3114 0.2177
H28 H 0.1435 0.3400 0.1633
H29 H -0.0294 0.2806 0.1777
O1 O 0.0134(6) 0.0001(5) 0.03104(14)
O2 O -0.2654(5) -0.0135(5) 0.06899(13)
O3 O -0.0360(4) 0.0520(4) 0.11675(10)
O4 O 1.0173(5) 0.0759(5) 0.40211(14)
O5 O 0.7779(4) 0.1346(4) 0.43747(11)
F1 F -0.2250(9) 0.2339(7) 0.0126(2)
F2 F -0.2274(6) 0.2797(5) 0.0871(2)
F3 F -0.0052(5) 0.2913(4) 0.04760(17)
loop_
_geom_bond_atom_site_label_1
_geom_bond_atom_site_label_2
_geom_bond_site_symmetry_1
_geom_bond_site_symmetry_2
S1 C18 1_555 1_555
C1 H1 1_555 1_555
H2 C1 1_555 1_555
C2 C1 1_555 1_555
H3 C2 1_555 1_555
H4 C2 1_555 1_555
C3 C2 1_555 1_555
H5 C3 1_555 1_555
C4 C3 1_555 1_555
H6 C4 1_555 1_555
H7 C4 1_555 1_555
C5 C4 1_555 1_555
C6 C5 1_555 1_555
H8 C6 1_555 1_555
C7 C6 1_555 1_555
H9 C7 1_555 1_555
H10 C7 1_555 1_555
C8 C7 1_555 1_555
H11 C8 1_555 1_555
C9 C8 1_555 1_555
H12 C9 1_555 1_555
C10 C1 1_555 1_555
C11 C9 1_555 1_555
H13 C11 1_555 1_555
H14 C11 1_555 1_555
C12 C11 1_555 1_555
H15 C12 1_555 1_555
H16 C12 1_555 1_555
C13 C12 1_555 1_555
C14 C8 1_555 1_555
H17 C14 1_555 1_555
C15 C14 1_555 1_555
H18 C15 1_555 1_555
H19 C15 1_555 1_555
C16 C15 1_555 1_555
H20 C16 1_555 1_555
C17 C13 1_555 1_555
C18 F1 1_555 1_555
C19 C20 1_555 1_555
C20 H21 1_555 1_555
H22 C20 1_555 1_555
H23 C20 1_555 1_555
C21 C10 1_555 1_555
H24 C21 1_555 1_555
H25 C21 1_555 1_555
H26 C21 1_555 1_555
C22 C13 1_555 1_555
H27 C22 1_555 1_555
H28 C22 1_555 1_555
H29 C22 1_555 1_555
O1 S1 1_555 1_555
O2 S1 1_555 1_555
O3 S1 1_555 1_555
O4 C19 1_555 1_555
O5 C3 1_555 1_555
F2 C18 1_555 1_555
F3 C18 1_555 1_555
C5 C10 1_555 1_555
C9 C10 1_555 1_555
C13 C14 1_555 1_555
C16 C17 1_555 1_555
C17 O3 1_555 1_555
C19 O5 1_555 1_555

#END
