
#######################################################################
#
#                 Cambridge Crystallographic Data Centre
#                                CCDC 
#
#######################################################################
#
# If this CIF has been generated from an entry in the Cambridge 
# Structural Database, then it will include bibliographic, chemical, 
# crystal, experimental, refinement or atomic coordinate data resulting 
# from the CCDC's data processing and validation procedures.
#
#######################################################################

data_LUGKUT02
_chemical_formula_moiety         'C60,C2 H4'
_chemical_name_systematic        'C60Fullerene ethene'
_symmetry_cell_setting           cubic
_symmetry_space_group_name_H-M   'P a -3'
_symmetry_Int_Tables_number      205
_space_group_name_Hall           '-P 2ac 2ab 3'
loop_
_symmetry_equiv_pos_site_id
_symmetry_equiv_pos_as_xyz
1 x,y,z
2 z,x,y
3 y,z,x
4 1/2+x,y,1/2-z
5 1/2-x,1/2+y,z
6 x,1/2-y,1/2+z
7 1/2+z,x,1/2-y
8 1/2-z,1/2+x,y
9 z,1/2-x,1/2+y
10 1/2-y,1/2+z,x
11 y,1/2-z,1/2+x
12 1/2+y,z,1/2-x
13 -x,-y,-z
14 -z,-x,-y
15 -y,-z,-x
16 1/2-x,-y,1/2+z
17 1/2+x,1/2-y,-z
18 -x,1/2+y,1/2-z
19 1/2-z,-x,1/2+y
20 1/2+z,1/2-x,-y
21 -z,1/2+x,1/2-y
22 1/2+y,1/2-z,-x
23 -y,1/2+z,1/2-x
24 1/2-y,-z,1/2+x
_cell_length_a                   14.178(4)
_cell_length_b                   14.178(4)
_cell_length_c                   14.178(4)
_cell_angle_alpha                90
_cell_angle_beta                 90
_cell_angle_gamma                90
_cell_volume                     2850
_exptl_crystal_colour            black
_exptl_crystal_description       block
_cell_formula_units_Z            4
loop_
_atom_site_label
_atom_site_type_symbol
_atom_site_fract_x
_atom_site_fract_y
_atom_site_fract_z
C11 C 0.012(6) -0.033(2) 0.030(4)
C11A C 0.030(4) 0.012(6) -0.033(2)
C11B C -0.033(2) 0.030(4) 0.012(6)
C11L C -0.012(6) 0.033(2) -0.030(4)
C11M C -0.030(4) -0.012(6) 0.033(2)
C11N C 0.033(2) -0.030(4) -0.012(6)
C1 C 0.1090(3) 0.0366(4) 0.2779(3)
C2 C 0.1326(4) -0.0611(4) 0.2965(4)
C3 C 0.2044(4) -0.0631(4) 0.3696(4)
C4 C 0.2248(3) 0.0340(5) 0.3964(4)
C5 C 0.1663(4) 0.0950(4) 0.3382(4)
C6 C 0.1277(4) 0.1781(3) 0.3775(4)
C7 C 0.0314(3) 0.2029(4) 0.3579(4)
C8 C 0.1475(4) 0.2008(3) 0.4757(4)
C9 C 0.0149(4) 0.0609(4) 0.2579(4)
C10 C 0.2443(4) 0.0578(4) 0.4895(4)
C2R C 0.2035(4) -0.1326(4) 0.4389(4)
C1R C 0.2221(3) -0.1090(3) 0.5366(4)
C5R C 0.1618(4) -0.1663(4) 0.5950(4)
C4R C 0.1036(4) -0.2248(3) 0.5340(5)
C3R C 0.1304(4) -0.2044(4) 0.4369(4)
C2V C 0.0611(4) -0.2035(4) 0.3674(4)
C1V C -0.0366(4) -0.2221(3) 0.3910(3)
C5V C -0.0950(4) -0.1618(4) 0.3337(4)
C4V C -0.0340(5) -0.1036(4) 0.2752(3)
C3V C 0.0631(4) -0.1304(4) 0.2956(4)
C10V C -0.0578(4) -0.0105(4) 0.2557(4)
C7F C -0.1421(4) 0.0314(3) 0.2971(4)
C6F C -0.1225(4) 0.1277(4) 0.3219(3)
C5F C -0.1618(4) 0.1663(4) 0.4050(4)
C1F C -0.2221(3) 0.1090(3) 0.4634(4)
C2F C -0.2035(4) 0.1326(4) 0.5611(4)
C3F C -0.1304(4) 0.2044(4) 0.5631(4)
C2J C -0.0611(4) 0.2035(4) 0.6326(4)
C1J C 0.0366(4) 0.2221(3) 0.6090(3)
C5J C 0.0950(4) 0.1618(4) 0.6663(4)
C4J C 0.0340(5) 0.1036(4) 0.7248(3)
C3J C -0.0631(4) 0.1304(4) 0.7044(4)
C2L C -0.1326(4) 0.0611(4) 0.7035(4)
C1L C -0.1090(3) -0.0366(4) 0.7221(3)
C5L C -0.1663(4) -0.0950(4) 0.6618(4)
C4L C -0.2248(3) -0.0340(5) 0.6036(4)
C3L C -0.2044(4) 0.0631(4) 0.6304(4)
C10L C -0.2443(4) -0.0578(4) 0.5105(4)
C7V C -0.2029(4) -0.1421(4) 0.4686(3)
C6V C -0.1781(3) -0.1225(4) 0.3723(4)
C8V C -0.2008(3) -0.0243(4) 0.3525(4)
C9F C -0.2421(4) 0.0149(4) 0.4391(4)
C8L C -0.1475(4) -0.2008(3) 0.5243(4)
C6L C -0.1277(4) -0.1781(3) 0.6225(4)
C7L C -0.0314(3) -0.2029(4) 0.6421(4)
C8R C 0.0243(4) -0.1475(4) 0.7008(3)
C6R C 0.1225(4) -0.1277(4) 0.6781(3)
C7R C 0.1421(4) -0.0314(3) 0.7029(4)
C8J C 0.2008(3) 0.0243(4) 0.6475(4)
C6J C 0.1781(3) 0.1225(4) 0.6277(4)
C7J C 0.2029(4) 0.1421(4) 0.5314(3)
C8F C -0.0243(4) 0.1475(4) 0.2992(3)
C10F C -0.0105(4) 0.2443(4) 0.4422(4)
C4F C -0.1036(4) 0.2248(3) 0.4660(5)
C9J C 0.0609(4) 0.2421(4) 0.5149(4)
C9R C 0.2421(4) -0.0149(4) 0.5609(4)
C10J C 0.0578(4) 0.0105(4) 0.7443(4)
C9L C -0.0149(4) -0.0609(4) 0.7421(4)
C10R C 0.0105(4) -0.2443(4) 0.5578(4)
C9V C -0.0609(4) -0.2421(4) 0.4851(4)
loop_
_geom_bond_atom_site_label_1
_geom_bond_atom_site_label_2
_geom_bond_site_symmetry_1
_geom_bond_site_symmetry_2
C1 C2 1_555 1_555
C2 C3 1_555 1_555
C3 C4 1_555 1_555
C4 C5 1_555 1_555
C5 C1 1_555 1_555
C6 C5 1_555 1_555
C7 C6 1_555 1_555
C8 C6 1_555 1_555
C9 C1 1_555 1_555
C10 C4 1_555 1_555
C11 C11A 1_555 1_555
C2R C3 1_555 1_555
C1R C2R 1_555 1_555
C5R C1R 1_555 1_555
C4R C5R 1_555 1_555
C3R C2R 1_555 1_555
C2V C3R 1_555 1_555
C1V C2V 1_555 1_555
C5V C1V 1_555 1_555
C4V C5V 1_555 1_555
C3V C2 1_555 1_555
C10V C9 1_555 1_555
C7F C10V 1_555 1_555
C6F C7F 1_555 1_555
C5F C6F 1_555 1_555
C1F C5F 1_555 1_555
C2F C1F 1_555 1_555
C3F C2F 1_555 1_555
C2J C3F 1_555 1_555
C1J C2J 1_555 1_555
C5J C1J 1_555 1_555
C4J C5J 1_555 1_555
C3J C2J 1_555 1_555
C2L C3J 1_555 1_555
C1L C2L 1_555 1_555
C5L C1L 1_555 1_555
C4L C5L 1_555 1_555
C3L C2F 1_555 1_555
C10L C4L 1_555 1_555
C7V C10L 1_555 1_555
C6V C5V 1_555 1_555
C8V C7F 1_555 1_555
C9F C1F 1_555 1_555
C8L C7V 1_555 1_555
C6L C5L 1_555 1_555
C7L C6L 1_555 1_555
C8R C7L 1_555 1_555
C6R C5R 1_555 1_555
C7R C6R 1_555 1_555
C8J C7R 1_555 1_555
C6J C5J 1_555 1_555
C7J C8 1_555 1_555
C8F C7 1_555 1_555
C10F C7 1_555 1_555
C4F C5F 1_555 1_555
C9J C8 1_555 1_555
C9R C10 1_555 1_555
C10J C4J 1_555 1_555
C9L C1L 1_555 1_555
C10R C4R 1_555 1_555
C9V C1V 1_555 1_555
C11A C11B 1_555 1_555
C11B C11 1_555 1_555
C11L C11 1_555 1_555
C11M C11 1_555 1_555
C11N C11 1_555 1_555
C9 C8F 1_555 1_555
C10 C7J 1_555 1_555
C1R C9R 1_555 1_555
C4R C3R 1_555 1_555
C2V C3V 1_555 1_555
C4V C3V 1_555 1_555
C4V C10V 1_555 1_555
C6F C8F 1_555 1_555
C3F C4F 1_555 1_555
C1J C9J 1_555 1_555
C4J C3J 1_555 1_555
C2L C3L 1_555 1_555
C4L C3L 1_555 1_555
C10L C9F 1_555 1_555
C7V C6V 1_555 1_555
C6V C8V 1_555 1_555
C8V C9F 1_555 1_555
C8L C6L 1_555 1_555
C8L C9V 1_555 1_555
C7L C10R 1_555 1_555
C8R C6R 1_555 1_555
C8R C9L 1_555 1_555
C7R C10J 1_555 1_555
C8J C6J 1_555 1_555
C8J C9R 1_555 1_555
C6J C7J 1_555 1_555
C10F C4F 1_555 1_555
C10F C9J 1_555 1_555
C10J C9L 1_555 1_555
C10R C9V 1_555 1_555
C11A C11L 1_555 1_555
C11A C11M 1_555 1_555
C11A C11N 1_555 1_555
C11B C11M 1_555 1_555
C11B C11N 1_555 1_555
C11B C11L 1_555 1_555
C11L C11M 1_555 1_555
C11L C11N 1_555 1_555
C11M C11N 1_555 1_555

#END
