
#######################################################################
#
#                 Cambridge Crystallographic Data Centre
#                                CCDC 
#
#######################################################################
#
# If this CIF has been generated from an entry in the Cambridge 
# Structural Database, then it will include bibliographic, chemical, 
# crystal, experimental, refinement or atomic coordinate data resulting 
# from the CCDC's data processing and validation procedures.
#
#######################################################################

data_LUGKUV
_chemical_formula_moiety         'C24 H20 O1'
_chemical_name_systematic        
1-(3,4-diphenylcyclopenta-1,3-dien-1-yl)-3-methoxybenzene
_symmetry_cell_setting           monoclinic
_symmetry_space_group_name_H-M   'P 21'
_symmetry_Int_Tables_number      4
_space_group_name_Hall           'P 2yb'
loop_
_symmetry_equiv_pos_site_id
_symmetry_equiv_pos_as_xyz
1 x,y,z
2 -x,1/2+y,-z
_cell_length_a                   9.7254(5)
_cell_length_b                   8.4725(6)
_cell_length_c                   11.1926(7)
_cell_angle_alpha                90
_cell_angle_beta                 105.038(4)
_cell_angle_gamma                90
_cell_volume                     890.669
_exptl_crystal_colour            yellow
_exptl_crystal_description       block
_cell_formula_units_Z            2
loop_
_atom_site_label
_atom_site_type_symbol
_atom_site_fract_x
_atom_site_fract_y
_atom_site_fract_z
O1 O -0.99216(18) 0.7158(2) -0.58481(16)
C1 C -0.2737(2) 0.6199(3) -0.2023(2)
C2 C -0.3733(2) 0.6524(3) -0.1395(2)
C3 C -0.5132(2) 0.6638(3) -0.2300(2)
H1 H -0.5983 0.6907 -0.2119
C4 C -0.4971(2) 0.6280(3) -0.3464(2)
C5 C -0.3482(2) 0.5972(4) -0.3350(2)
H2 H -0.3114 0.6697 -0.3862
H3 H -0.3351 0.4901 -0.3607
C6 C -0.1173(2) 0.6074(3) -0.1566(2)
C7 C -0.0418(3) 0.5033(3) -0.2111(2)
H4 H -0.0902 0.4416 -0.2774
C8 C 0.1058(3) 0.4900(4) -0.1679(3)
H5 H 0.1548 0.4194 -0.2055
C9 C 0.1786(3) 0.5794(4) -0.0712(2)
H6 H 0.2767 0.5687 -0.0416
C10 C 0.1058(3) 0.6858(4) -0.0175(2)
H7 H 0.1554 0.7477 0.0483
C11 C -0.0404(3) 0.7016(3) -0.0604(2)
H8 H -0.0878 0.7760 -0.0247
C12 C -0.3604(2) 0.6609(3) -0.0059(2)
C13 C -0.2658(2) 0.5667(3) 0.0794(2)
H9 H -0.2029 0.5017 0.0523
C14 C -0.2633(3) 0.5677(4) 0.2028(3)
H10 H -0.1992 0.5038 0.2582
C15 C -0.3554(4) 0.6632(5) 0.2443(3)
H11 H -0.3530 0.6645 0.3279
C16 C -0.4504(3) 0.7560(4) 0.1631(3)
H12 H -0.5137 0.8191 0.1913
C17 C -0.4525(3) 0.7564(4) 0.0393(2)
H13 H -0.5165 0.8215 -0.0150
C18 C -0.6120(2) 0.6159(3) -0.4615(2)
C19 C -0.5908(3) 0.5410(4) -0.5651(2)
H14 H -0.5023 0.4979 -0.5631
C20 C -0.7015(3) 0.5300(4) -0.6724(3)
H15 H -0.6856 0.4815 -0.7421
C21 C -0.8338(3) 0.5900(4) -0.6763(2)
H16 H -0.9076 0.5819 -0.7481
C22 C -0.8559(3) 0.6624(3) -0.5726(2)
C23 C -0.7463(2) 0.6770(3) -0.4663(2)
H17 H -0.7623 0.7280 -0.3976
C24 C -1.0227(3) 0.7972(4) -0.4851(3)
H18 H -1.1210 0.8282 -0.5069
H19 H -0.9636 0.8894 -0.4665
H20 H -1.0043 0.7296 -0.4139
loop_
_geom_bond_atom_site_label_1
_geom_bond_atom_site_label_2
_geom_bond_site_symmetry_1
_geom_bond_site_symmetry_2
O1 C22 1_555 1_555
C1 C2 1_555 1_555
C2 C3 1_555 1_555
C3 H1 1_555 1_555
C4 C3 1_555 1_555
C5 C1 1_555 1_555
H2 C5 1_555 1_555
H3 C5 1_555 1_555
C6 C1 1_555 1_555
C7 C6 1_555 1_555
H4 C7 1_555 1_555
C8 C7 1_555 1_555
H5 C8 1_555 1_555
C9 C8 1_555 1_555
H6 C9 1_555 1_555
C10 C9 1_555 1_555
H7 C10 1_555 1_555
C11 C6 1_555 1_555
H8 C11 1_555 1_555
C12 C2 1_555 1_555
C13 C12 1_555 1_555
H9 C13 1_555 1_555
C14 C13 1_555 1_555
H10 C14 1_555 1_555
C15 C14 1_555 1_555
H11 C15 1_555 1_555
C16 C15 1_555 1_555
H12 C16 1_555 1_555
C17 C12 1_555 1_555
H13 C17 1_555 1_555
C18 C4 1_555 1_555
C19 C18 1_555 1_555
H14 C19 1_555 1_555
C20 C19 1_555 1_555
H15 C20 1_555 1_555
C21 C20 1_555 1_555
H16 C21 1_555 1_555
C22 C21 1_555 1_555
C23 C18 1_555 1_555
H17 C23 1_555 1_555
C24 O1 1_555 1_555
H18 C24 1_555 1_555
H19 C24 1_555 1_555
H20 C24 1_555 1_555
C4 C5 1_555 1_555
C10 C11 1_555 1_555
C16 C17 1_555 1_555
C22 C23 1_555 1_555

#END
