
#######################################################################
#
#                 Cambridge Crystallographic Data Centre
#                                CCDC 
#
#######################################################################
#
# If this CIF has been generated from an entry in the Cambridge 
# Structural Database, then it will include bibliographic, chemical, 
# crystal, experimental, refinement or atomic coordinate data resulting 
# from the CCDC's data processing and validation procedures.
#
#######################################################################

data_LUGLEE01
_chemical_formula_moiety         'C60,C2 H6'
_chemical_name_systematic        'C60Fullerene ethane'
_symmetry_cell_setting           monoclinic
_symmetry_space_group_name_H-M   'P 21/n'
_symmetry_Int_Tables_number      14
_space_group_name_Hall           '-P 2yn'
loop_
_symmetry_equiv_pos_site_id
_symmetry_equiv_pos_as_xyz
1 x,y,z
2 1/2+x,1/2-y,1/2+z
3 -x,-y,-z
4 1/2-x,1/2+y,1/2-z
_cell_length_a                   9.8467(12)
_cell_length_b                   9.8465(12)
_cell_length_c                   14.829(2)
_cell_angle_alpha                90
_cell_angle_beta                 90.038(2)
_cell_angle_gamma                90
_cell_volume                     1437.75
_exptl_crystal_colour            black
_exptl_crystal_description       plate
_cell_formula_units_Z            2
loop_
_atom_site_label
_atom_site_type_symbol
_atom_site_fract_x
_atom_site_fract_y
_atom_site_fract_z
C1 C 0.0047(8) -0.3259(8) 0.0999(6)
C2 C -0.1352(8) -0.3015(9) 0.0921(6)
C3 C -0.1971(7) -0.3016(7) 0.0025(5)
C4 C -0.1198(8) -0.3216(9) -0.0746(6)
C5 C 0.0249(8) -0.3432(9) -0.0645(6)
C6 C 0.0867(9) -0.3462(9) 0.0199(6)
C7 C 0.2162(9) -0.2811(9) 0.0361(6)
C8 C 0.2804(10) -0.2163(9) -0.0350(5)
C9 C 0.2180(8) -0.2176(8) -0.1225(5)
C10 C 0.0934(9) -0.2777(9) -0.1394(6)
C11 C 0.3469(8) -0.0859(8) -0.0191(6)
C12 C 0.3233(9) -0.0067(8) -0.0994(6)
C13 C 0.2458(9) -0.0852(8) -0.1634(6)
C14 C 0.1448(10) -0.0235(8) -0.2176(6)
C15 C 0.1222(10) 0.1208(9) -0.2077(7)
C16 C -0.2001(9) -0.1966(8) 0.1469(5)
C17 C 0.3024(9) 0.1317(8) -0.0896(6)
C18 C -0.2995(7) -0.1957(7) 0.0023(6)
C19 C -0.3182(10) -0.1203(8) -0.0769(7)
C20 C 0.3442(9) -0.0237(9) 0.0652(6)
C21 C 0.2789(9) -0.0923(8) 0.1403(6)
C22 C 0.2136(10) 0.0077(9) 0.1945(6)
C23 C -0.2391(10) -0.1391(9) -0.1536(7)
C24 C -0.1439(9) -0.2406(9) -0.1498(7)
C25 C -0.0131(10) -0.2148(9) -0.1908(7)
C26 C 0.0159(11) -0.0925(9) -0.2305(7)
C27 C 0.0860(9) -0.0146(9) 0.2308(7)
C28 C -0.0216(10) 0.1449(9) -0.2179(6)
C29 C 0.0828(8) -0.2460(8) 0.1637(5)
C30 C 0.2163(8) -0.2171(8) 0.1272(6)
C28B C 0.0216(10) -0.1449(9) 0.2179(6)
C15B C -0.1222(10) -0.1208(9) 0.2077(7)
C14B C -0.1448(10) 0.0235(8) 0.2176(6)
C13B C -0.2458(9) 0.0852(8) 0.1634(6)
C9B C -0.2180(8) 0.2176(8) 0.1225(5)
C8B C -0.2804(10) 0.2163(9) 0.0350(5)
C7B C -0.2162(9) 0.2811(9) -0.0361(6)
C6B C -0.0867(9) 0.3462(9) -0.0199(6)
C1B C -0.0047(8) 0.3259(8) -0.0999(6)
C2B C 0.1352(8) 0.3015(9) -0.0921(6)
C3B C 0.1971(7) 0.3016(7) -0.0025(5)
C4B C 0.1198(8) 0.3216(9) 0.0746(6)
C5B C -0.0249(8) 0.3432(9) 0.0645(6)
C10B C -0.0934(9) 0.2777(9) 0.1394(6)
C25B C 0.0131(10) 0.2148(9) 0.1908(7)
C24B C 0.1439(9) 0.2406(9) 0.1498(7)
C23B C 0.2391(10) 0.1391(9) 0.1536(7)
C19B C 0.3182(10) 0.1203(8) 0.0769(7)
C18B C 0.2995(7) 0.1957(7) -0.0023(6)
C26B C -0.0159(11) 0.0925(9) 0.2305(7)
C17B C -0.3024(9) -0.1317(8) 0.0896(6)
C12B C -0.3233(9) 0.0067(8) 0.0994(6)
C11B C -0.3469(8) 0.0859(8) 0.0191(6)
C20B C -0.3442(9) 0.0237(9) -0.0652(6)
C21B C -0.2789(9) 0.0923(8) -0.1403(6)
C22B C -0.2136(10) -0.0077(9) -0.1945(6)
C27B C -0.0860(9) 0.0146(9) -0.2308(7)
C16B C 0.2001(9) 0.1966(8) -0.1469(5)
C29B C -0.0828(8) 0.2460(8) -0.1637(5)
C30B C -0.2163(8) 0.2171(8) -0.1272(6)
C31 C -0.0010(12) 0.0007(11) 0.4484(6)
C31B C 0.0010(12) -0.0007(11) 0.5516(6)
loop_
_geom_bond_atom_site_label_1
_geom_bond_atom_site_label_2
_geom_bond_site_symmetry_1
_geom_bond_site_symmetry_2
C1 C2 1_555 1_555
C2 C3 1_555 1_555
C3 C4 1_555 1_555
C4 C5 1_555 1_555
C5 C6 1_555 1_555
C6 C1 1_555 1_555
C7 C6 1_555 1_555
C8 C7 1_555 1_555
C9 C8 1_555 1_555
C10 C5 1_555 1_555
C11 C8 1_555 1_555
C12 C11 1_555 1_555
C13 C9 1_555 1_555
C14 C13 1_555 1_555
C15 C14 1_555 1_555
C16 C2 1_555 1_555
C17 C12 1_555 1_555
C18 C3 1_555 1_555
C19 C18 1_555 1_555
C20 C11 1_555 1_555
C21 C20 1_555 1_555
C22 C21 1_555 1_555
C23 C19 1_555 1_555
C24 C4 1_555 1_555
C25 C10 1_555 1_555
C26 C14 1_555 1_555
C27 C22 1_555 1_555
C28 C15 1_555 1_555
C29 C1 1_555 1_555
C30 C7 1_555 1_555
C31 C31B 1_555 1_555
C28B C27 1_555 1_555
C15B C16 1_555 1_555
C14B C15B 1_555 1_555
C13B C14B 1_555 1_555
C9B C13B 1_555 1_555
C8B C9B 1_555 1_555
C7B C8B 1_555 1_555
C6B C7B 1_555 1_555
C1B C6B 1_555 1_555
C2B C1B 1_555 1_555
C3B C2B 1_555 1_555
C4B C3B 1_555 1_555
C5B C6B 1_555 1_555
C10B C9B 1_555 1_555
C25B C10B 1_555 1_555
C24B C4B 1_555 1_555
C23B C22 1_555 1_555
C19B C20 1_555 1_555
C18B C17 1_555 1_555
C26B C27 1_555 1_555
C17B C16 1_555 1_555
C12B C13B 1_555 1_555
C11B C8B 1_555 1_555
C20B C19 1_555 1_555
C21B C20B 1_555 1_555
C22B C23 1_555 1_555
C27B C26 1_555 1_555
C16B C15 1_555 1_555
C29B C28 1_555 1_555
C30B C7B 1_555 1_555
C9 C10 1_555 1_555
C12 C13 1_555 1_555
C17 C16B 1_555 1_555
C18 C17B 1_555 1_555
C21 C30 1_555 1_555
C23 C24 1_555 1_555
C24 C25 1_555 1_555
C25 C26 1_555 1_555
C28 C27B 1_555 1_555
C29 C28B 1_555 1_555
C29 C30 1_555 1_555
C28B C15B 1_555 1_555
C14B C26B 1_555 1_555
C1B C29B 1_555 1_555
C2B C16B 1_555 1_555
C3B C18B 1_555 1_555
C4B C5B 1_555 1_555
C5B C10B 1_555 1_555
C25B C24B 1_555 1_555
C25B C26B 1_555 1_555
C24B C23B 1_555 1_555
C23B C19B 1_555 1_555
C19B C18B 1_555 1_555
C17B C12B 1_555 1_555
C12B C11B 1_555 1_555
C11B C20B 1_555 1_555
C21B C22B 1_555 1_555
C21B C30B 1_555 1_555
C22B C27B 1_555 1_555
C29B C30B 1_555 1_555

#END
