
#######################################################################
#
#                 Cambridge Crystallographic Data Centre
#                                CCDC 
#
#######################################################################
#
# If this CIF has been generated from an entry in the Cambridge 
# Structural Database, then it will include bibliographic, chemical, 
# crystal, experimental, refinement or atomic coordinate data resulting 
# from the CCDC's data processing and validation procedures.
#
#######################################################################

data_LUGMUW
_chemical_formula_moiety         'C27 H21 Cl1 O3'
_chemical_name_systematic        
2-((4-Chlorophenyl)(5-oxocyclopent-1-en-1-yl)methyl)-1,3-diphenylpropane-1,3-dione
_symmetry_cell_setting           orthorhombic
_symmetry_space_group_name_H-M   'P n a 21'
_symmetry_Int_Tables_number      33
_space_group_name_Hall           'P 2c -2n'
loop_
_symmetry_equiv_pos_site_id
_symmetry_equiv_pos_as_xyz
1 x,y,z
2 -x,-y,1/2+z
3 1/2+x,1/2-y,z
4 1/2-x,1/2+y,1/2+z
_cell_length_a                   11.0930(5)
_cell_length_b                   13.4335(5)
_cell_length_c                   14.4720(6)
_cell_angle_alpha                90
_cell_angle_beta                 90
_cell_angle_gamma                90
_cell_volume                     2156.59
_exptl_crystal_colour            colorless
_exptl_crystal_description       block
_chemical_melting_point          '195-196 deg.C'
_cell_formula_units_Z            4
loop_
_atom_site_label
_atom_site_type_symbol
_atom_site_fract_x
_atom_site_fract_y
_atom_site_fract_z
C1 C 0.73912(11) 0.20776(10) 0.05399(10)
H1 H 0.6774 0.2247 0.0967
C2 C 0.71412(13) 0.20802(11) -0.03995(11)
H2 H 0.6359 0.2251 -0.0614
C3 C 0.80414(14) 0.18311(10) -0.10212(11)
C4 C 0.91693(14) 0.15493(11) -0.07201(11)
H3 H 0.9770 0.1352 -0.1150
C5 C 0.94161(12) 0.15572(11) 0.02235(10)
H4 H 1.0197 0.1374 0.0433
C6 C 0.85391(10) 0.18288(8) 0.08670(9)
C7 C 0.88262(10) 0.18165(9) 0.18958(9)
H5 H 0.9722 0.1774 0.1958
C8 C 0.84267(10) 0.27533(8) 0.23873(9)
C9 C 0.73615(11) 0.29953(9) 0.27735(11)
H6 H 0.6690 0.2557 0.2786
C10 C 0.73339(11) 0.40201(10) 0.31822(10)
H7 H 0.7104 0.3998 0.3843
H8 H 0.6758 0.4452 0.2847
C11 C 0.86274(11) 0.43938(10) 0.30654(11)
H9 H 0.8640 0.5036 0.2730
H10 H 0.9018 0.4486 0.3674
C12 C 0.92628(10) 0.35963(9) 0.25160(9)
C13 C 0.82921(10) 0.08750(8) 0.23469(9)
H11 H 0.7394 0.0877 0.2284
C14 C 0.88244(11) -0.00496(9) 0.18645(9)
C15 C 0.80400(11) -0.07424(9) 0.13292(9)
C16 C 0.68295(12) -0.05516(10) 0.11367(10)
H12 H 0.6464 0.0043 0.1356
C17 C 0.61570(13) -0.12301(11) 0.06246(11)
H13 H 0.5336 -0.1093 0.0488
C18 C 0.66803(15) -0.21041(12) 0.03139(11)
H14 H 0.6215 -0.2571 -0.0027
C19 C 0.78838(15) -0.22977(12) 0.05005(13)
H15 H 0.8243 -0.2895 0.0282
C20 C 0.85643(12) -0.16253(10) 0.10040(11)
H16 H 0.9388 -0.1762 0.1129
C21 C 0.86433(10) 0.08218(9) 0.33692(9)
C22 C 0.78488(11) 0.02585(9) 0.40137(10)
C23 C 0.67891(13) -0.02104(11) 0.37194(11)
H17 H 0.6580 -0.0214 0.3083
C24 C 0.60432(14) -0.06705(12) 0.43624(13)
H18 H 0.5325 -0.0991 0.4164
C25 C 0.63398(18) -0.06645(13) 0.52840(13)
H19 H 0.5815 -0.0966 0.5721
C26 C 0.73957(19) -0.02236(14) 0.55806(12)
H20 H 0.7601 -0.0233 0.6218
C27 C 0.81577(16) 0.02336(11) 0.49492(11)
H21 H 0.8889 0.0529 0.5153
Cl1 Cl 0.77506(4) 0.19108(3) -0.21995(3)
O1 O 1.02929(8) 0.36352(7) 0.22208(7)
O2 O 0.99006(9) -0.01922(8) 0.19204(9)
O3 O 0.95432(9) 0.12431(8) 0.36443(7)
loop_
_geom_bond_atom_site_label_1
_geom_bond_atom_site_label_2
_geom_bond_site_symmetry_1
_geom_bond_site_symmetry_2
C1 H1 1_555 1_555
C2 C1 1_555 1_555
H2 C2 1_555 1_555
C3 C2 1_555 1_555
C4 C3 1_555 1_555
H3 C4 1_555 1_555
C5 C4 1_555 1_555
H4 C5 1_555 1_555
C6 C1 1_555 1_555
C7 C6 1_555 1_555
H5 C7 1_555 1_555
C8 C7 1_555 1_555
C9 C8 1_555 1_555
H6 C9 1_555 1_555
C10 C9 1_555 1_555
H7 C10 1_555 1_555
H8 C10 1_555 1_555
C11 C10 1_555 1_555
H9 C11 1_555 1_555
H10 C11 1_555 1_555
C12 C8 1_555 1_555
C13 C7 1_555 1_555
H11 C13 1_555 1_555
C14 C13 1_555 1_555
C15 C14 1_555 1_555
C16 C15 1_555 1_555
H12 C16 1_555 1_555
C17 C16 1_555 1_555
H13 C17 1_555 1_555
C18 C17 1_555 1_555
H14 C18 1_555 1_555
C19 C18 1_555 1_555
H15 C19 1_555 1_555
C20 C15 1_555 1_555
H16 C20 1_555 1_555
C21 C13 1_555 1_555
C22 C21 1_555 1_555
C23 C22 1_555 1_555
H17 C23 1_555 1_555
C24 C23 1_555 1_555
H18 C24 1_555 1_555
C25 C24 1_555 1_555
H19 C25 1_555 1_555
C26 C25 1_555 1_555
H20 C26 1_555 1_555
C27 C22 1_555 1_555
H21 C27 1_555 1_555
Cl1 C3 1_555 1_555
O1 C12 1_555 1_555
O2 C14 1_555 1_555
O3 C21 1_555 1_555
C5 C6 1_555 1_555
C11 C12 1_555 1_555
C19 C20 1_555 1_555
C26 C27 1_555 1_555

#END
