
#######################################################################
#
#                 Cambridge Crystallographic Data Centre
#                                CCDC 
#
#######################################################################
#
# If this CIF has been generated from an entry in the Cambridge 
# Structural Database, then it will include bibliographic, chemical, 
# crystal, experimental, refinement or atomic coordinate data resulting 
# from the CCDC's data processing and validation procedures.
#
#######################################################################

data_LUGPEJ
_chemical_formula_moiety         'C12 H14 N4'
_chemical_name_systematic        
1-Ethyl-3-((1Z,3E)-4-(1H-pyrrol-1-yl)buta-1,3-dien-1-yl)-1H-1,2,4-triazole
_symmetry_cell_setting           monoclinic
_symmetry_space_group_name_H-M   'P 21/c'
_symmetry_Int_Tables_number      14
_space_group_name_Hall           '-P 2ybc'
loop_
_symmetry_equiv_pos_site_id
_symmetry_equiv_pos_as_xyz
1 x,y,z
2 -x,1/2+y,1/2-z
3 -x,-y,-z
4 x,1/2-y,1/2+z
_cell_length_a                   13.5774(4)
_cell_length_b                   7.9769(2)
_cell_length_c                   22.4305(6)
_cell_angle_alpha                90
_cell_angle_beta                 106.670(3)
_cell_angle_gamma                90
_cell_volume                     2327.25
_exptl_crystal_colour            colorless
_exptl_crystal_description       parallelepiped
_chemical_melting_point          '56-57 deg.C'
_cell_formula_units_Z            8
loop_
_atom_site_label
_atom_site_type_symbol
_atom_site_fract_x
_atom_site_fract_y
_atom_site_fract_z
N1 N -0.02337(9) -1.19659(16) 0.62596(6)
N2 N -0.20248(9) -1.34187(15) 0.78466(5)
N3 N -0.18657(9) -1.25091(15) 0.88253(6)
N4 N -0.26952(9) -1.35281(15) 0.86234(6)
C1 C -0.10505(11) -1.2980(2) 0.59575(7)
H1 H -0.1536 -1.3466 0.6139
C2 C -0.10394(12) -1.3162(2) 0.53596(7)
H2 H -0.1511 -1.3800 0.5047
C3 C -0.01963(14) -1.2225(3) 0.52847(8)
H3 H -0.0004 -1.2113 0.4912
C4 C 0.02851(12) -1.1517(2) 0.58400(8)
H4 H 0.0880 -1.0827 0.5926
C5 C 0.00450(10) -1.14589(18) 0.68819(7)
H5 H 0.0644 -1.0786 0.7024
C6 C -0.04604(10) -1.18409(18) 0.72926(7)
H6 H -0.1063 -1.2510 0.7165
C7 C -0.01100(10) -1.12572(18) 0.79296(7)
H7 H 0.0504 -1.0611 0.8037
C8 C -0.05507(10) -1.15224(18) 0.83850(6)
H8 H -0.0219 -1.1034 0.8778
C9 C -0.14812(10) -1.24770(17) 0.83435(6)
C10 C -0.27743(10) -1.40356(18) 0.80441(6)
H9 H -0.3302 -1.4748 0.7806
C11 C -0.33660(12) -1.3848(2) 0.90164(7)
H10 H -0.2944 -1.4210 0.9434
H11 H -0.3846 -1.4769 0.8834
C12 C -0.39717(12) -1.2316(2) 0.90810(8)
H12 H -0.4411 -1.2575 0.9347
H13 H -0.4400 -1.1967 0.8669
H14 H -0.3498 -1.1407 0.9269
N5 N -0.24897(9) -0.76956(16) 0.61998(6)
N6 N -0.46611(9) -0.69198(16) 0.76647(5)
N7 N -0.45991(9) -0.80706(15) 0.85965(6)
N8 N -0.55081(9) -0.72635(15) 0.83522(6)
C13 C -0.33135(11) -0.67341(19) 0.58673(7)
H15 H -0.3817 -0.6232 0.6030
C14 C -0.32790(13) -0.6632(2) 0.52699(7)
H16 H -0.3751 -0.6046 0.4941
C15 C -0.24124(13) -0.7558(2) 0.52245(8)
H17 H -0.2199 -0.7707 0.4860
C16 C -0.19439(12) -0.8192(2) 0.57972(7)
H18 H -0.1341 -0.8865 0.5903
C17 C -0.22558(11) -0.81637(18) 0.68255(7)
H19 H -0.1614 -0.8704 0.7001
C18 C -0.28508(10) -0.79209(18) 0.71980(7)
H20 H -0.3495 -0.7374 0.7041
C19 C -0.25297(11) -0.84795(18) 0.78390(7)
H21 H -0.1851 -0.8911 0.7983
C20 C -0.30696(11) -0.84652(18) 0.82554(6)
H22 H -0.2735 -0.8919 0.8654
C21 C -0.41111(11) -0.78346(18) 0.81683(6)
C22 C -0.55204(10) -0.65971(18) 0.78046(6)
H23 H -0.6077 -0.5970 0.7548
C23 C -0.62936(12) -0.7178(2) 0.86785(8)
H24 H -0.6469 -0.8328 0.8780
H25 H -0.6923 -0.6660 0.8403
C24 C -0.59320(14) -0.6163(3) 0.92749(8)
H26 H -0.6478 -0.6129 0.9481
H27 H -0.5768 -0.5019 0.9176
H28 H -0.5317 -0.6687 0.9552
loop_
_geom_bond_atom_site_label_1
_geom_bond_atom_site_label_2
_geom_bond_site_symmetry_1
_geom_bond_site_symmetry_2
N1 C1 1_555 1_555
N2 C9 1_555 1_555
N3 N4 1_555 1_555
N4 C10 1_555 1_555
C1 H1 1_555 1_555
C2 C1 1_555 1_555
H2 C2 1_555 1_555
C3 C2 1_555 1_555
H3 C3 1_555 1_555
C4 N1 1_555 1_555
H4 C4 1_555 1_555
C5 N1 1_555 1_555
H5 C5 1_555 1_555
C6 C5 1_555 1_555
H6 C6 1_555 1_555
C7 C6 1_555 1_555
H7 C7 1_555 1_555
C8 C7 1_555 1_555
H8 C8 1_555 1_555
C9 N3 1_555 1_555
C10 N2 1_555 1_555
H9 C10 1_555 1_555
C11 N4 1_555 1_555
H10 C11 1_555 1_555
H11 C11 1_555 1_555
C12 C11 1_555 1_555
H12 C12 1_555 1_555
H13 C12 1_555 1_555
H14 C12 1_555 1_555
N5 C13 1_555 1_555
N6 C21 1_555 1_555
N7 N8 1_555 1_555
N8 C22 1_555 1_555
C13 H15 1_555 1_555
C14 C13 1_555 1_555
H16 C14 1_555 1_555
C15 C14 1_555 1_555
H17 C15 1_555 1_555
C16 N5 1_555 1_555
H18 C16 1_555 1_555
C17 N5 1_555 1_555
H19 C17 1_555 1_555
C18 C17 1_555 1_555
H20 C18 1_555 1_555
C19 C18 1_555 1_555
H21 C19 1_555 1_555
C20 C19 1_555 1_555
H22 C20 1_555 1_555
C21 N7 1_555 1_555
C22 N6 1_555 1_555
H23 C22 1_555 1_555
C23 N8 1_555 1_555
H24 C23 1_555 1_555
H25 C23 1_555 1_555
C24 C23 1_555 1_555
H26 C24 1_555 1_555
H27 C24 1_555 1_555
H28 C24 1_555 1_555
C3 C4 1_555 1_555
C8 C9 1_555 1_555
C15 C16 1_555 1_555
C20 C21 1_555 1_555

#END
