
#######################################################################
#
#                 Cambridge Crystallographic Data Centre
#                                CCDC 
#
#######################################################################
#
# If this CIF has been generated from an entry in the Cambridge 
# Structural Database, then it will include bibliographic, chemical, 
# crystal, experimental, refinement or atomic coordinate data resulting 
# from the CCDC's data processing and validation procedures.
#
#######################################################################

data_LUGPAF
_chemical_formula_moiety         'C7 H9 N3'
_chemical_name_systematic        1-Ethylidene-2-(pyridin-2-yl)hydrazine
_symmetry_cell_setting           monoclinic
_symmetry_space_group_name_H-M   'P 21/c'
_symmetry_Int_Tables_number      14
_space_group_name_Hall           '-P 2ybc'
loop_
_symmetry_equiv_pos_site_id
_symmetry_equiv_pos_as_xyz
1 x,y,z
2 -x,1/2+y,1/2-z
3 -x,-y,-z
4 x,1/2-y,1/2+z
_cell_length_a                   5.329(3)
_cell_length_b                   9.235(2)
_cell_length_c                   14.718(4)
_cell_angle_alpha                90
_cell_angle_beta                 93.53(3)
_cell_angle_gamma                90
_cell_volume                     722.947
_exptl_crystal_colour            orange
_exptl_crystal_description       block
_chemical_melting_point          '57-60 deg.C'
_cell_formula_units_Z            4
_exptl_crystal_recrystallization_method 'diethyl ether'
loop_
_atom_site_label
_atom_site_type_symbol
_atom_site_fract_x
_atom_site_fract_y
_atom_site_fract_z
N1 N 0.4832(5) 1.0456(3) 0.12446(18)
N2 N 0.2306(5) 0.8796(3) 0.04803(19)
H1 H 0.3267 0.8858 0.0034
N3 N 0.0260(5) 0.7887(3) 0.04327(19)
C1 C 0.2786(7) 0.9603(4) 0.1256(2)
C2 C 0.1265(7) 0.9545(4) 0.1989(3)
H2 H -0.0128 0.8937 0.1979
C3 C 0.1873(7) 1.0402(4) 0.2720(3)
H3 H 0.0869 1.0390 0.3215
C4 C 0.3964(8) 1.1293(4) 0.2739(3)
H4 H 0.4400 1.1887 0.3235
C5 C 0.5353(7) 1.1253(4) 0.1987(3)
H5 H 0.6784 1.1830 0.1996
C6 C -0.0351(7) 0.7284(4) -0.0311(2)
H6 H 0.0568 0.7480 -0.0814
C7 C -0.2503(6) 0.6268(4) -0.0410(2)
H7 H -0.3370 0.6257 0.0143
H8 H -0.1897 0.5313 -0.0531
H9 H -0.3635 0.6575 -0.0905
loop_
_geom_bond_atom_site_label_1
_geom_bond_atom_site_label_2
_geom_bond_site_symmetry_1
_geom_bond_site_symmetry_2
N1 C1 1_555 1_555
N2 H1 1_555 1_555
N3 N2 1_555 1_555
C1 N2 1_555 1_555
C2 C1 1_555 1_555
H2 C2 1_555 1_555
C3 C2 1_555 1_555
H3 C3 1_555 1_555
C4 C3 1_555 1_555
H4 C4 1_555 1_555
C5 N1 1_555 1_555
H5 C5 1_555 1_555
C6 N3 1_555 1_555
H6 C6 1_555 1_555
C7 C6 1_555 1_555
H7 C7 1_555 1_555
H8 C7 1_555 1_555
H9 C7 1_555 1_555
C4 C5 1_555 1_555

#END
