
#######################################################################
#
#                 Cambridge Crystallographic Data Centre
#                                CCDC 
#
#######################################################################
#
# If this CIF has been generated from an entry in the Cambridge 
# Structural Database, then it will include bibliographic, chemical, 
# crystal, experimental, refinement or atomic coordinate data resulting 
# from the CCDC's data processing and validation procedures.
#
#######################################################################

data_LUHDUP
_chemical_formula_moiety         'C8 H8 O3'
_chemical_name_systematic        1-(3,4-dihydroxyphenyl)ethanone
_symmetry_cell_setting           monoclinic
_symmetry_space_group_name_H-M   'P 21/c'
_symmetry_Int_Tables_number      14
_space_group_name_Hall           '-P 2ybc'
loop_
_symmetry_equiv_pos_site_id
_symmetry_equiv_pos_as_xyz
1 x,y,z
2 -x,1/2+y,1/2-z
3 -x,-y,-z
4 x,1/2-y,1/2+z
_cell_length_a                   7.9894(17)
_cell_length_b                   5.4562(10)
_cell_length_c                   16.240(3)
_cell_angle_alpha                90
_cell_angle_beta                 94.747(5)
_cell_angle_gamma                90
_cell_volume                     705.502
_exptl_crystal_colour            colorless
_exptl_crystal_description       block
_cell_formula_units_Z            4
loop_
_atom_site_label
_atom_site_type_symbol
_atom_site_fract_x
_atom_site_fract_y
_atom_site_fract_z
O1 O 0.36260(15) 0.0311(2) 0.61870(8)
H1 H 0.323(3) -0.062(4) 0.5802(16)
O2 O 0.45366(14) 0.3518(2) 0.73141(8)
H2 H 0.478(3) 0.474(5) 0.7651(18)
O3 O -0.23286(14) 0.2521(2) 0.51445(8)
C1 C 0.2461(2) 0.2057(3) 0.63340(10)
C2 C 0.29583(19) 0.3814(3) 0.69331(10)
C3 C 0.1874(2) 0.5665(3) 0.71106(10)
H3 H 0.2213 0.6841 0.7514
C4 C 0.0284(2) 0.5810(3) 0.66992(10)
H4 H -0.0443 0.7092 0.6819
C5 C -0.02345(19) 0.4062(3) 0.61102(10)
C6 C 0.08732(19) 0.2172(3) 0.59385(10)
H5 H 0.0526 0.0966 0.5548
C7 C -0.19154(19) 0.4144(3) 0.56426(10)
C8 C -0.3096(2) 0.6209(3) 0.57902(12)
H6 H -0.4033 0.6178 0.5370
H7 H -0.2507 0.7758 0.5764
H8 H -0.3512 0.6024 0.6331
loop_
_geom_bond_atom_site_label_1
_geom_bond_atom_site_label_2
_geom_bond_site_symmetry_1
_geom_bond_site_symmetry_2
O1 H1 1_555 1_555
O2 H2 1_555 1_555
O3 C7 1_555 1_555
C1 O1 1_555 1_555
C2 O2 1_555 1_555
C3 C2 1_555 1_555
H3 C3 1_555 1_555
C4 C3 1_555 1_555
H4 C4 1_555 1_555
C5 C4 1_555 1_555
C6 C1 1_555 1_555
H5 C6 1_555 1_555
C7 C5 1_555 1_555
C8 C7 1_555 1_555
H6 C8 1_555 1_555
H7 C8 1_555 1_555
H8 C8 1_555 1_555
C1 C2 1_555 1_555
C5 C6 1_555 1_555

#END
