
#######################################################################
#
#                 Cambridge Crystallographic Data Centre
#                                CCDC 
#
#######################################################################
#
# If this CIF has been generated from an entry in the Cambridge 
# Structural Database, then it will include bibliographic, chemical, 
# crystal, experimental, refinement or atomic coordinate data resulting 
# from the CCDC's data processing and validation procedures.
#
#######################################################################

data_LUHGOM
_chemical_formula_moiety         'C30 H15 Br3 O5'
_chemical_name_systematic        
'4-bromo-2-(2-(4-bromophenyl)-4-oxo-4H-furo[3,2-c]chromen-3-yl)phenyl 4-bromobenzoate'
_symmetry_cell_setting           monoclinic
_symmetry_space_group_name_H-M   'P 21/c'
_symmetry_Int_Tables_number      14
_space_group_name_Hall           '-P 2ybc'
loop_
_symmetry_equiv_pos_site_id
_symmetry_equiv_pos_as_xyz
1 x,y,z
2 -x,1/2+y,1/2-z
3 -x,-y,-z
4 x,1/2-y,1/2+z
_cell_length_a                   12.9966(15)
_cell_length_b                   15.1284(17)
_cell_length_c                   27.344(3)
_cell_angle_alpha                90
_cell_angle_beta                 103.663(4)
_cell_angle_gamma                90
_cell_volume                     5224.18
_exptl_crystal_colour            colorless
_exptl_crystal_description       prism
_cell_formula_units_Z            8
loop_
_atom_site_label
_atom_site_type_symbol
_atom_site_fract_x
_atom_site_fract_y
_atom_site_fract_z
C1 C 0.3762(4) 0.8963(3) 1.06957(19)
C2 C 0.4575(4) 0.8730(3) 1.0467(2)
H1 H 0.5193 0.8439 1.0652
C3 C 0.4451(4) 0.8937(3) 0.9959(2)
H2 H 0.4990 0.8787 0.9792
C4 C 0.3546(4) 0.9358(3) 0.9701(2)
C5 C 0.2720(4) 0.9589(3) 0.9923(2)
C6 C 0.2865(4) 0.9399(3) 1.0437(2)
H3 H 0.2342 0.9573 1.0609
C7 C 0.3108(4) 0.8957(4) 0.8833(2)
C8 C 0.3164(4) 0.9262(4) 0.8317(2)
C9 C 0.3686(4) 1.0026(4) 0.8239(2)
H4 H 0.3997 1.0395 0.8516
C10 C 0.3758(5) 1.0255(4) 0.7753(2)
H5 H 0.4128 1.0773 0.7699
C11 C 0.3291(4) 0.9727(4) 0.7355(2)
C12 C 0.2761(5) 0.8966(4) 0.7423(2)
H6 H 0.2441 0.8608 0.7143
C13 C 0.2699(4) 0.8727(4) 0.7909(2)
H7 H 0.2341 0.8201 0.7961
C14 C 0.1718(4) 1.0011(3) 0.96552(18)
C15 C 0.1541(4) 1.0947(3) 0.95451(19)
C16 C 0.2234(5) 1.1713(4) 0.9640(2)
C17 C 0.0639(4) 1.2616(3) 0.93150(19)
C18 C 0.0257(5) 1.3468(3) 0.9220(2)
H8 H 0.0721 1.3962 0.9289
C19 C -0.0820(5) 1.3585(4) 0.9022(2)
H9 H -0.1090 1.4167 0.8954
C20 C -0.1521(4) 1.2866(4) 0.89195(19)
H10 H -0.2257 1.2962 0.8787
C21 C -0.1130(4) 1.2017(3) 0.90137(18)
H11 H -0.1596 1.1525 0.8944
C22 C -0.0038(4) 1.1883(3) 0.92141(19)
C23 C 0.0475(4) 1.1054(3) 0.93480(18)
C24 C 0.0746(4) 0.9618(3) 0.95008(19)
C25 C 0.0329(4) 0.8716(3) 0.95080(19)
C26 C -0.0773(4) 0.8559(3) 0.93715(19)
H12 H -0.1241 0.9045 0.9280
C27 C -0.1190(4) 0.7716(3) 0.93671(19)
H13 H -0.1934 0.7623 0.9272
C28 C -0.0503(5) 0.7013(3) 0.9503(2)
C29 C 0.0582(4) 0.7136(4) 0.9641(2)
H14 H 0.1042 0.6645 0.9735
C30 C 0.0991(5) 0.7980(4) 0.96412(19)
H15 H 0.1737 0.8062 0.9734
O1 O 0.3458(3) 0.9600(2) 0.91879(13)
O2 O 0.2791(3) 0.8246(2) 0.89350(14)
O3 O 0.3183(3) 1.1727(2) 0.98050(16)
O4 O 0.1723(3) 1.2525(2) 0.95115(13)
O5 O -0.0035(3) 1.0257(2) 0.93064(12)
Br1 Br 0.39040(5) 0.87009(4) 1.13951(2)
Br2 Br 0.34255(5) 1.00344(5) 0.66937(2)
Br3 Br -0.10762(5) 0.58431(4) 0.94869(2)
C31 C 0.5788(5) 0.8042(4) 0.8200(2)
C32 C 0.5113(5) 0.7879(4) 0.7733(3)
H16 H 0.4515 0.7504 0.7705
C33 C 0.5322(4) 0.8267(4) 0.7311(2)
H17 H 0.4852 0.8178 0.6992
C34 C 0.6222(4) 0.8792(4) 0.7351(2)
C35 C 0.6937(4) 0.8926(3) 0.7816(2)
C36 C 0.6680(4) 0.8544(4) 0.8241(2)
H18 H 0.7137 0.8636 0.8564
C37 C 0.6308(4) 0.8821(5) 0.6478(2)
C38 C 0.6402(4) 0.9452(4) 0.6073(2)
C39 C 0.6401(5) 1.0368(4) 0.6130(2)
H19 H 0.6363 1.0618 0.6444
C40 C 0.6456(5) 1.0918(4) 0.5729(3)
H20 H 0.6462 1.1542 0.5769
C41 C 0.6503(5) 1.0549(5) 0.5272(3)
C42 C 0.6502(5) 0.9645(5) 0.5208(2)
H21 H 0.6542 0.9401 0.4893
C43 C 0.6442(5) 0.9092(4) 0.5606(2)
H22 H 0.6428 0.8469 0.5562
C44 C 0.8009(4) 0.9339(4) 0.7879(2)
C45 C 0.8291(4) 1.0261(3) 0.7847(2)
C46 C 0.7711(5) 1.1074(4) 0.7680(2)
C47 C 0.9431(4) 1.1845(4) 0.7902(2)
C48 C 0.9942(5) 1.2661(4) 0.7942(2)
H23 H 0.9553 1.3187 0.7838
C49 C 1.1034(5) 1.2693(4) 0.8136(2)
H24 H 1.1385 1.3249 0.8168
C50 C 1.1621(5) 1.1933(4) 0.8284(2)
H25 H 1.2365 1.1969 0.8415
C51 C 1.1120(4) 1.1120(4) 0.8240(2)
H26 H 1.1518 1.0596 0.8338
C52 C 1.0018(4) 1.1075(3) 0.8049(2)
C53 C 0.9379(4) 1.0299(3) 0.80011(19)
C54 C 0.8939(4) 0.8888(3) 0.8045(2)
C55 C 0.9272(4) 0.7967(3) 0.81385(19)
C56 C 0.8587(4) 0.7241(4) 0.7982(2)
H27 H 0.7860 0.7346 0.7834
C57 C 0.8958(5) 0.6384(4) 0.8039(2)
H28 H 0.8488 0.5903 0.7935
C58 C 1.0014(5) 0.6229(3) 0.8249(2)
C59 C 1.0718(5) 0.6916(4) 0.84162(19)
H29 H 1.1442 0.6801 0.8566
C60 C 1.0329(4) 0.7781(3) 0.8357(2)
H30 H 1.0802 0.8257 0.8470
O6 O 0.6439(3) 0.9243(2) 0.69368(15)
O7 O 0.6162(3) 0.8035(3) 0.64278(16)
O8 O 0.6766(3) 1.1155(2) 0.75212(14)
O9 O 0.8340(3) 1.1838(2) 0.77166(13)
O10 O 0.9797(3) 0.9483(2) 0.81249(13)
Br4 Br 0.54844(6) 0.75396(5) 0.87947(3)
Br5 Br 0.65750(6) 1.13062(6) 0.47215(3)
Br6 Br 1.05335(6) 0.50429(4) 0.83038(3)
loop_
_geom_bond_atom_site_label_1
_geom_bond_atom_site_label_2
_geom_bond_site_symmetry_1
_geom_bond_site_symmetry_2
C1 C2 1_555 1_555
C2 H1 1_555 1_555
C3 C2 1_555 1_555
H2 C3 1_555 1_555
C4 C3 1_555 1_555
C5 C4 1_555 1_555
C6 C1 1_555 1_555
H3 C6 1_555 1_555
C7 C8 1_555 1_555
C8 C9 1_555 1_555
C9 H4 1_555 1_555
C10 C9 1_555 1_555
H5 C10 1_555 1_555
C11 C10 1_555 1_555
C12 C11 1_555 1_555
H6 C12 1_555 1_555
C13 C8 1_555 1_555
H7 C13 1_555 1_555
C14 C5 1_555 1_555
C15 C14 1_555 1_555
C16 C15 1_555 1_555
C17 C18 1_555 1_555
C18 H8 1_555 1_555
C19 C18 1_555 1_555
H9 C19 1_555 1_555
C20 C19 1_555 1_555
H10 C20 1_555 1_555
C21 C20 1_555 1_555
H11 C21 1_555 1_555
C22 C17 1_555 1_555
C23 C15 1_555 1_555
C24 C14 1_555 1_555
C25 C24 1_555 1_555
C26 C25 1_555 1_555
H12 C26 1_555 1_555
C27 C26 1_555 1_555
H13 C27 1_555 1_555
C28 C27 1_555 1_555
C29 C28 1_555 1_555
H14 C29 1_555 1_555
C30 C25 1_555 1_555
H15 C30 1_555 1_555
O1 C4 1_555 1_555
O2 C7 1_555 1_555
O3 C16 1_555 1_555
O4 C16 1_555 1_555
O5 C23 1_555 1_555
Br1 C1 1_555 1_555
Br2 C11 1_555 1_555
Br3 C28 1_555 1_555
C31 C32 1_555 1_555
C32 H16 1_555 1_555
C33 C32 1_555 1_555
H17 C33 1_555 1_555
C34 C33 1_555 1_555
C35 C34 1_555 1_555
C36 C31 1_555 1_555
H18 C36 1_555 1_555
C37 C38 1_555 1_555
C38 C39 1_555 1_555
C39 H19 1_555 1_555
C40 C39 1_555 1_555
H20 C40 1_555 1_555
C41 C40 1_555 1_555
C42 C41 1_555 1_555
H21 C42 1_555 1_555
C43 C38 1_555 1_555
H22 C43 1_555 1_555
C44 C35 1_555 1_555
C45 C44 1_555 1_555
C46 C45 1_555 1_555
C47 C48 1_555 1_555
C48 H23 1_555 1_555
C49 C48 1_555 1_555
H24 C49 1_555 1_555
C50 C49 1_555 1_555
H25 C50 1_555 1_555
C51 C50 1_555 1_555
H26 C51 1_555 1_555
C52 C47 1_555 1_555
C53 C45 1_555 1_555
C54 C44 1_555 1_555
C55 C54 1_555 1_555
C56 C55 1_555 1_555
H27 C56 1_555 1_555
C57 C56 1_555 1_555
H28 C57 1_555 1_555
C58 C57 1_555 1_555
C59 C58 1_555 1_555
H29 C59 1_555 1_555
C60 C55 1_555 1_555
H30 C60 1_555 1_555
O6 C34 1_555 1_555
O7 C37 1_555 1_555
O8 C46 1_555 1_555
O9 C46 1_555 1_555
O10 C53 1_555 1_555
Br4 C31 1_555 1_555
Br5 C41 1_555 1_555
Br6 C58 1_555 1_555
C5 C6 1_555 1_555
C7 O1 1_555 1_555
C12 C13 1_555 1_555
C17 O4 1_555 1_555
C21 C22 1_555 1_555
C22 C23 1_555 1_555
C24 O5 1_555 1_555
C29 C30 1_555 1_555
C35 C36 1_555 1_555
C37 O6 1_555 1_555
C42 C43 1_555 1_555
C47 O9 1_555 1_555
C51 C52 1_555 1_555
C52 C53 1_555 1_555
C54 O10 1_555 1_555
C59 C60 1_555 1_555

#END
