
#######################################################################
#
#                 Cambridge Crystallographic Data Centre
#                                CCDC 
#
#######################################################################
#
# If this CIF has been generated from an entry in the Cambridge 
# Structural Database, then it will include bibliographic, chemical, 
# crystal, experimental, refinement or atomic coordinate data resulting 
# from the CCDC's data processing and validation procedures.
#
#######################################################################

data_LUHGIG
_chemical_formula_moiety         'C23 H16 Br1 F3 O5'
_chemical_name_systematic        
'3-(5-bromo-2-(trifluoromethyl)-1-benzofuran-3-yl)-2-oxo-2H-chromen-4-yl pivalate'
_symmetry_cell_setting           monoclinic
_symmetry_space_group_name_H-M   'P 21/n'
_symmetry_Int_Tables_number      14
_space_group_name_Hall           '-P 2yn'
loop_
_symmetry_equiv_pos_site_id
_symmetry_equiv_pos_as_xyz
1 x,y,z
2 1/2-x,1/2+y,1/2-z
3 -x,-y,-z
4 1/2+x,1/2-y,1/2+z
_cell_length_a                   14.4485(8)
_cell_length_b                   16.5256(10)
_cell_length_c                   19.0198(11)
_cell_angle_alpha                90
_cell_angle_beta                 103.621(2)
_cell_angle_gamma                90
_cell_volume                     4413.63
_exptl_crystal_colour            colorless
_exptl_crystal_description       prism
_cell_formula_units_Z            8
loop_
_atom_site_label
_atom_site_type_symbol
_atom_site_fract_x
_atom_site_fract_y
_atom_site_fract_z
C1 C 0.4946(3) 0.5358(2) 0.21188(19)
C2 C 0.5599(4) 0.4759(2) 0.2040(2)
H1 H 0.5412 0.4207 0.2025
C3 C 0.6509(4) 0.4952(2) 0.1984(2)
H2 H 0.6955 0.4549 0.1928
C4 C 0.6732(3) 0.5766(2) 0.20127(18)
C5 C 0.6094(2) 0.63712(18) 0.20804(16)
C6 C 0.5177(3) 0.6172(2) 0.21379(17)
H3 H 0.4731 0.6577 0.2188
C7 C 0.6587(2) 0.71254(18) 0.20681(16)
C8 C 0.7467(2) 0.6917(2) 0.20041(17)
C9 C 0.8303(3) 0.7399(2) 0.1940(2)
C10 C 0.6165(2) 0.79383(17) 0.20721(16)
C11 C 0.6490(2) 0.84491(18) 0.27103(18)
C12 C 0.5376(2) 0.94644(18) 0.21260(18)
C13 C 0.5021(3) 1.0238(2) 0.2180(2)
H4 H 0.5247 1.0556 0.2602
C14 C 0.4336(3) 1.0533(2) 0.1611(3)
H5 H 0.4083 1.1059 0.1643
C15 C 0.4008(3) 1.0079(2) 0.0991(3)
H6 H 0.3537 1.0294 0.0601
C16 C 0.4367(3) 0.9311(2) 0.0942(2)
H7 H 0.4151 0.9001 0.0514
C17 C 0.5047(2) 0.89940(18) 0.15188(18)
C18 C 0.5472(2) 0.82070(18) 0.15171(17)
C19 C 0.5620(3) 0.7674(2) 0.03909(18)
C20 C 0.5231(3) 0.7034(2) -0.01724(19)
C21 C 0.4178(4) 0.6988(4) -0.0334(3)
H8 H 0.3954 0.6573 -0.0702
H9 H 0.3907 0.7513 -0.0514
H10 H 0.3975 0.6849 0.0108
C22 C 0.5577(5) 0.7237(3) -0.0847(2)
H11 H 0.6273 0.7278 -0.0722
H12 H 0.5302 0.7755 -0.1045
H13 H 0.5379 0.6810 -0.1209
C23 C 0.5649(5) 0.6238(3) 0.0124(3)
H14 H 0.6345 0.6271 0.0235
H15 H 0.5433 0.5811 -0.0235
H16 H 0.5442 0.6110 0.0567
O1 O 0.75863(18) 0.60957(14) 0.19638(13)
O2 O 0.70892(17) 0.82691(13) 0.32405(12)
O3 O 0.60789(16) 0.91999(12) 0.26988(11)
O4 O 0.51223(15) 0.76996(12) 0.09316(11)
O5 O 0.6278(2) 0.81174(19) 0.04110(15)
F1 F 0.81588(15) 0.81790(13) 0.19876(12)
F2 F 0.8537(2) 0.7290(2) 0.13218(18)
F3 F 0.90668(18) 0.72294(18) 0.2453(2)
Br1 Br 0.37072(4) 0.50433(3) 0.21868(3)
C24 C 0.7819(3) 0.0661(2) 0.09978(18)
C25 C 0.8268(4) -0.0079(2) 0.0965(2)
H17 H 0.7929 -0.0568 0.0982
C26 C 0.9193(4) -0.0105(2) 0.0908(2)
H18 H 0.9509 -0.0605 0.0884
C27 C 0.9650(3) 0.0630(2) 0.08852(19)
C28 C 0.9203(3) 0.1376(2) 0.08967(16)
C29 C 0.8263(2) 0.1397(2) 0.09624(17)
H19 H 0.7941 0.1895 0.0982
C30 C 0.9906(2) 0.1987(2) 0.08600(17)
C31 C 1.0705(3) 0.1564(2) 0.08370(19)
C32 C 1.1673(3) 0.1817(3) 0.0794(2)
C33 C 0.9749(2) 0.2873(2) 0.08257(17)
C34 C 1.0329(3) 0.3375(2) 0.13976(19)
C35 C 0.9538(2) 0.4548(2) 0.07868(16)
C36 C 0.9481(3) 0.5387(2) 0.07780(19)
H20 H 0.9918 0.5700 0.1124
C37 C 0.8786(3) 0.5757(2) 0.0265(2)
H21 H 0.8737 0.6331 0.0258
C38 C 0.8155(3) 0.5304(2) -0.0245(2)
H22 H 0.7676 0.5570 -0.0598
C39 C 0.8213(2) 0.4469(2) -0.02459(18)
H23 H 0.7777 0.4163 -0.0598
C40 C 0.8917(2) 0.40784(18) 0.02751(16)
C41 C 0.9085(2) 0.32211(19) 0.03073(16)
C42 C 0.8828(3) 0.2572(2) -0.08272(18)
C43 C 0.8090(3) 0.2133(2) -0.13934(19)
C44 C 0.7121(3) 0.2522(3) -0.1476(3)
H24 H 0.7151 0.3088 -0.1625
H25 H 0.6936 0.2501 -0.1013
H26 H 0.6651 0.2230 -0.1844
C45 C 0.8416(4) 0.2152(3) -0.2099(2)
H27 H 0.8435 0.2714 -0.2261
H28 H 0.7970 0.1841 -0.2469
H29 H 0.9053 0.1914 -0.2022
C46 C 0.8061(3) 0.1253(2) -0.1152(2)
H30 H 0.7596 0.0952 -0.1516
H31 H 0.7877 0.1234 -0.0688
H32 H 0.8692 0.1009 -0.1096
O6 O 1.0582(2) 0.07427(15) 0.08475(14)
O7 O 1.0879(2) 0.31255(17) 0.19275(14)
O8 O 1.02336(16) 0.41972(14) 0.13181(11)
O9 O 0.84887(14) 0.27596(12) -0.02275(11)
O10 O 0.9614(2) 0.2749(2) -0.08449(16)
F4 F 1.1958(2) 0.14555(19) 0.02708(18)
F5 F 1.23230(18) 0.16171(19) 0.13944(17)
F6 F 1.17526(16) 0.26000(15) 0.07184(14)
Br2 Br 0.65550(3) 0.06531(3) 0.11178(2)
loop_
_geom_bond_atom_site_label_1
_geom_bond_atom_site_label_2
_geom_bond_site_symmetry_1
_geom_bond_site_symmetry_2
C1 C2 1_555 1_555
C2 H1 1_555 1_555
C3 C2 1_555 1_555
H2 C3 1_555 1_555
C4 C3 1_555 1_555
C5 C4 1_555 1_555
C6 C1 1_555 1_555
H3 C6 1_555 1_555
C7 C5 1_555 1_555
C8 C7 1_555 1_555
C9 C8 1_555 1_555
C10 C7 1_555 1_555
C11 C10 1_555 1_555
C12 C13 1_555 1_555
C13 H4 1_555 1_555
C14 C13 1_555 1_555
H5 C14 1_555 1_555
C15 C14 1_555 1_555
H6 C15 1_555 1_555
C16 C15 1_555 1_555
H7 C16 1_555 1_555
C17 C12 1_555 1_555
C18 C10 1_555 1_555
C19 C20 1_555 1_555
C20 C21 1_555 1_555
C21 H8 1_555 1_555
H9 C21 1_555 1_555
H10 C21 1_555 1_555
C22 C20 1_555 1_555
H11 C22 1_555 1_555
H12 C22 1_555 1_555
H13 C22 1_555 1_555
C23 C20 1_555 1_555
H14 C23 1_555 1_555
H15 C23 1_555 1_555
H16 C23 1_555 1_555
O1 C4 1_555 1_555
O2 C11 1_555 1_555
O3 C11 1_555 1_555
O4 C18 1_555 1_555
O5 C19 1_555 1_555
F1 C9 1_555 1_555
F2 C9 1_555 1_555
F3 C9 1_555 1_555
Br1 C1 1_555 1_555
C24 C25 1_555 1_555
C25 H17 1_555 1_555
C26 C25 1_555 1_555
H18 C26 1_555 1_555
C27 C26 1_555 1_555
C28 C27 1_555 1_555
C29 C24 1_555 1_555
H19 C29 1_555 1_555
C30 C28 1_555 1_555
C31 C30 1_555 1_555
C32 C31 1_555 1_555
C33 C30 1_555 1_555
C34 C33 1_555 1_555
C35 C36 1_555 1_555
C36 H20 1_555 1_555
C37 C36 1_555 1_555
H21 C37 1_555 1_555
C38 C37 1_555 1_555
H22 C38 1_555 1_555
C39 C38 1_555 1_555
H23 C39 1_555 1_555
C40 C35 1_555 1_555
C41 C33 1_555 1_555
C42 C43 1_555 1_555
C43 C44 1_555 1_555
C44 H24 1_555 1_555
H25 C44 1_555 1_555
H26 C44 1_555 1_555
C45 C43 1_555 1_555
H27 C45 1_555 1_555
H28 C45 1_555 1_555
H29 C45 1_555 1_555
C46 C43 1_555 1_555
H30 C46 1_555 1_555
H31 C46 1_555 1_555
H32 C46 1_555 1_555
O6 C27 1_555 1_555
O7 C34 1_555 1_555
O8 C34 1_555 1_555
O9 C41 1_555 1_555
O10 C42 1_555 1_555
F4 C32 1_555 1_555
F5 C32 1_555 1_555
F6 C32 1_555 1_555
Br2 C24 1_555 1_555
C5 C6 1_555 1_555
C8 O1 1_555 1_555
C12 O3 1_555 1_555
C16 C17 1_555 1_555
C17 C18 1_555 1_555
C19 O4 1_555 1_555
C28 C29 1_555 1_555
C31 O6 1_555 1_555
C35 O8 1_555 1_555
C39 C40 1_555 1_555
C40 C41 1_555 1_555
C42 O9 1_555 1_555

#END
