
#######################################################################
#
#                 Cambridge Crystallographic Data Centre
#                                CCDC 
#
#######################################################################
#
# If this CIF has been generated from an entry in the Cambridge 
# Structural Database, then it will include bibliographic, chemical, 
# crystal, experimental, refinement or atomic coordinate data resulting 
# from the CCDC's data processing and validation procedures.
#
#######################################################################

data_LUHHAY
_chemical_formula_moiety         'C72 H100 O4 S8,2(C1 H1 Cl3)'
_chemical_name_systematic        
"2,2'-(2,3,11,12-tetrakis(n-Decyloxy)-5,6,8,9,14,15,17,18-octadehydrodibenzo[a,h][14]annulene-7,16-diylidene)bis(4,5-bis(methylsulfanyl)-1,3-dithiole) chloroform solvate"
_symmetry_cell_setting           triclinic
_symmetry_space_group_name_H-M   'P -1'
_symmetry_Int_Tables_number      2
_space_group_name_Hall           '-P 1'
loop_
_symmetry_equiv_pos_site_id
_symmetry_equiv_pos_as_xyz
1 x,y,z
2 -x,-y,-z
_cell_length_a                   13.756(3)
_cell_length_b                   16.679(4)
_cell_length_c                   19.491(4)
_cell_angle_alpha                97.186(3)
_cell_angle_beta                 107.111(3)
_cell_angle_gamma                107.699(3)
_cell_volume                     3957.05
_exptl_crystal_colour            orange
_exptl_crystal_description       prism
_cell_formula_units_Z            2
loop_
_atom_site_label
_atom_site_type_symbol
_atom_site_fract_x
_atom_site_fract_y
_atom_site_fract_z
Cl1 Cl 0.33794(6) 0.24383(5) 0.15390(4)
Cl2 Cl 0.55705(6) 0.31433(5) 0.15747(4)
Cl3 Cl 0.51195(6) 0.33507(5) 0.29265(4)
C73 C 0.4633(2) 0.32918(16) 0.19768(13)
H101 H 0.4530 0.3847 0.1903
Cl4 Cl 0.82177(6) 0.77375(6) 0.15978(4)
Cl5 Cl 1.04690(6) 0.82205(5) 0.17366(4)
Cl6 Cl 0.98258(6) 0.79119(5) 0.29950(4)
C74 C 0.9563(2) 0.83130(17) 0.21940(14)
H102 H 0.9663 0.8938 0.2337
S1 S 1.07151(5) 0.43324(4) -0.06777(3)
S2 S 1.17921(4) 0.35932(4) 0.04680(3)
S3 S 1.27943(5) 0.52607(4) -0.09232(4)
S4 S 1.40263(4) 0.44881(4) 0.04561(3)
S5 S 0.33051(4) 0.12293(4) -0.04512(3)
S6 S 0.43725(5) 0.05787(4) 0.07675(3)
S7 S 0.10575(5) 0.03588(4) -0.04508(4)
S8 S 0.22726(6) -0.02827(5) 0.10217(4)
O1 O 0.64711(12) 0.52372(10) -0.23763(8)
O2 O 0.44935(12) 0.44362(10) -0.24466(8)
O3 O 0.87341(12) -0.00751(10) 0.27234(9)
O4 O 1.06850(12) 0.07134(10) 0.27721(9)
C1 C 0.95965(17) 0.32567(14) 0.00010(12)
C2 C 0.86437(18) 0.33587(14) -0.04554(12)
C3 C 0.78599(18) 0.34758(14) -0.08333(12)
C4 C 0.69614(17) 0.36667(14) -0.12621(12)
C5 C 0.71613(18) 0.43300(14) -0.16365(11)
H1 H 0.7881 0.4614 -0.1624
C6 C 0.63298(18) 0.45758(14) -0.20218(11)
C7 C 0.52548(17) 0.41389(14) -0.20581(11)
C8 C 0.50457(17) 0.34727(14) -0.17059(11)
H2 H 0.4318 0.3169 -0.1744
C9 C 0.58945(18) 0.32363(14) -0.12907(11)
C10 C 0.56923(17) 0.26018(14) -0.08683(12)
C11 C 0.55899(17) 0.21281(14) -0.04552(12)
C12 C 0.55085(17) 0.16036(14) 0.00625(12)
C13 C 0.64606(17) 0.15219(14) 0.05352(12)
C14 C 0.72434(18) 0.14229(14) 0.09337(12)
C15 C 0.81558(18) 0.12748(14) 0.13981(12)
C16 C 0.79810(18) 0.06820(14) 0.18455(12)
H3 H 0.7265 0.0402 0.1841
C17 C 0.88366(18) 0.05061(14) 0.22878(12)
C18 C 0.99018(17) 0.09298(14) 0.23058(12)
C19 C 1.00848(18) 0.15115(14) 0.18713(12)
H4 H 1.0805 0.1793 0.1883
C20 C 0.92154(17) 0.16919(14) 0.14106(12)
C21 C 0.94004(17) 0.22689(14) 0.09393(12)
C22 C 0.95111(17) 0.27270(14) 0.05151(12)
C23 C 1.05844(18) 0.36755(14) -0.00560(12)
C24 C 1.21289(18) 0.46318(14) -0.04240(12)
C25 C 1.26301(18) 0.43001(14) 0.01049(12)
C26 C 1.2063(2) 0.59838(18) -0.11056(15)
H5 H 1.1300 0.5649 -0.1413
H6 H 1.2394 0.6391 -0.1366
H7 H 1.2094 0.6305 -0.0638
C27 C 1.40941(19) 0.36181(16) -0.01551(14)
H8 H 1.3829 0.3672 -0.0666
H9 H 1.3640 0.3062 -0.0109
H10 H 1.4851 0.3647 -0.0023
C28 C 0.45117(18) 0.11810(14) 0.01148(12)
C29 C 0.24573(19) 0.05764(15) -0.00656(13)
C30 C 0.29507(19) 0.02848(15) 0.04973(14)
C31 C 0.0951(2) 0.12895(16) 0.00534(16)
H11 H 0.1369 0.1815 -0.0058
H12 H 0.1241 0.1326 0.0584
H13 H 0.0184 0.1235 -0.0092
C32 C 0.2947(3) -0.1026(2) 0.1231(2)
H14 H 0.2420 -0.1575 0.1230
H15 H 0.3521 -0.0786 0.1720
H16 H 0.3273 -0.1125 0.0859
C33 C 0.74988(18) 0.55546(15) -0.24868(13)
H17 H 0.7632 0.5072 -0.2747
H18 H 0.8101 0.5823 -0.2005
C34 C 0.74426(19) 0.62176(15) -0.29450(12)
H19 H 0.8163 0.6476 -0.2992
H20 H 0.7295 0.6687 -0.2679
C35 C 0.65810(19) 0.58614(14) -0.37138(12)
H21 H 0.5855 0.5610 -0.3673
H22 H 0.6722 0.5393 -0.3986
C36 C 0.6576(2) 0.65629(15) -0.41453(13)
H23 H 0.6488 0.7048 -0.3852
H24 H 0.7291 0.6788 -0.4207
C37 C 0.5683(2) 0.62571(15) -0.49026(13)
H25 H 0.4965 0.6059 -0.4841
H26 H 0.5749 0.5756 -0.5190
C38 C 0.57273(19) 0.69570(15) -0.53359(13)
H27 H 0.5704 0.7471 -0.5036
H28 H 0.6430 0.7132 -0.5421
C39 C 0.4804(2) 0.66731(16) -0.60738(13)
H29 H 0.4106 0.6516 -0.5984
H30 H 0.4813 0.6144 -0.6362
C40 C 0.4837(2) 0.73419(16) -0.65393(13)
H31 H 0.5544 0.7511 -0.6617
H32 H 0.4256 0.7067 -0.7029
C41 C 0.4694(2) 0.81570(17) -0.62135(15)
H33 H 0.5346 0.8498 -0.5773
H34 H 0.4056 0.7992 -0.6053
C42 C 0.4529(3) 0.8716(2) -0.67664(19)
H35 H 0.4394 0.9214 -0.6547
H36 H 0.3903 0.8373 -0.7213
H37 H 0.5184 0.8920 -0.6896
C43 C 0.33727(18) 0.39708(16) -0.25510(13)
H38 H 0.3279 0.3961 -0.2067
H39 H 0.3141 0.3366 -0.2830
C44 C 0.27012(19) 0.44295(16) -0.29755(13)
H40 H 0.2947 0.5031 -0.2686
H41 H 0.1931 0.4139 -0.3028
C45 C 0.27628(19) 0.44544(15) -0.37438(12)
H42 H 0.3534 0.4724 -0.3698
H43 H 0.2479 0.3855 -0.4047
C46 C 0.21101(19) 0.49627(17) -0.41320(13)
H44 H 0.1336 0.4677 -0.4192
H45 H 0.2373 0.5552 -0.3814
C47 C 0.21824(19) 0.50403(16) -0.48860(13)
H46 H 0.1942 0.4453 -0.5201
H47 H 0.2952 0.5347 -0.4826
C48 C 0.14884(19) 0.55245(16) -0.52727(13)
H48 H 0.0730 0.5242 -0.5296
H49 H 0.1764 0.6124 -0.4972
C49 C 0.14794(19) 0.55577(17) -0.60526(13)
H50 H 0.2216 0.5920 -0.6024
H51 H 0.1311 0.4965 -0.6333
C50 C 0.0654(2) 0.59221(18) -0.64685(13)
H52 H 0.0817 0.6510 -0.6182
H53 H -0.0082 0.5555 -0.6500
C51 C 0.0640(2) 0.59729(17) -0.72515(13)
H54 H 0.0578 0.5403 -0.7517
H55 H -0.0014 0.6093 -0.7519
C52 C 0.1642(2) 0.66610(17) -0.72698(14)
H56 H 0.1698 0.7231 -0.7022
H57 H 0.1582 0.6656 -0.7784
H58 H 0.2293 0.6541 -0.7015
C53 C 0.76606(18) -0.05143(16) 0.27252(13)
H59 H 0.7191 -0.0906 0.2235
H60 H 0.7326 -0.0089 0.2836
C54 C 0.77699(19) -0.10305(16) 0.33129(13)
H61 H 0.7034 -0.1392 0.3285
H62 H 0.8152 -0.1423 0.3213
C55 C 0.8390(2) -0.04565(17) 0.40832(14)
H63 H 0.8040 -0.0032 0.4162
H64 H 0.9141 -0.0128 0.4117
C56 C 0.8451(2) -0.09400(17) 0.47056(14)
H65 H 0.8767 -0.0508 0.5184
H66 H 0.7700 -0.1298 0.4652
C57 C 0.9120(2) -0.15248(16) 0.47292(14)
H67 H 0.8739 -0.2021 0.4293
H68 H 0.9837 -0.1196 0.4705
C58 C 0.9293(2) -0.18616(17) 0.54302(14)
H69 H 0.9646 -0.1360 0.5862
H70 H 0.8571 -0.2197 0.5444
C59 C 0.9980(2) -0.24312(17) 0.55085(14)
H71 H 1.0674 -0.2124 0.5444
H72 H 0.9588 -0.2970 0.5112
C60 C 1.0228(2) -0.26657(17) 0.62555(14)
H73 H 1.0639 -0.2126 0.6648
H74 H 0.9531 -0.2949 0.6326
C61 C 1.0877(2) -0.32598(17) 0.63483(14)
H75 H 1.1551 -0.2999 0.6243
H76 H 1.0443 -0.3820 0.5984
C62 C 1.1182(3) -0.3423(2) 0.71191(15)
H77 H 1.0518 -0.3709 0.7217
H78 H 1.1607 -0.2869 0.7483
H79 H 1.1618 -0.3794 0.7154
C63 C 1.17825(18) 0.10854(16) 0.27934(13)
H80 H 1.1967 0.1708 0.2798
H81 H 1.1869 0.0791 0.2354
C64 C 1.25193(19) 0.09688(16) 0.34898(13)
H82 H 1.2484 0.1327 0.3921
H83 H 1.3279 0.1191 0.3500
C65 C 1.2247(2) 0.00402(15) 0.35734(13)
H84 H 1.1496 -0.0181 0.3580
H85 H 1.2270 -0.0324 0.3141
C66 C 1.30290(19) -0.00369(16) 0.42732(14)
H86 H 1.3096 0.0402 0.4694
H87 H 1.3757 0.0099 0.4229
C67 C 1.2692(2) -0.09254(16) 0.44451(14)
H88 H 1.1981 -0.1051 0.4515
H89 H 1.2594 -0.1369 0.4017
C68 C 1.3516(2) -0.09945(16) 0.51296(13)
H90 H 1.3624 -0.0544 0.5556
H91 H 1.4223 -0.0879 0.5056
C69 C 1.3167(2) -0.18802(17) 0.53091(14)
H92 H 1.2940 -0.2334 0.4855
H93 H 1.2524 -0.1953 0.5460
C70 C 1.4051(2) -0.20220(18) 0.59191(15)
H94 H 1.3742 -0.2604 0.6004
H95 H 1.4654 -0.2021 0.5740
C71 C 1.4522(2) -0.13640(18) 0.66537(16)
H96 H 1.5126 -0.1489 0.6989
H97 H 1.4833 -0.0780 0.6573
C72 C 1.3704(3) -0.1354(3) 0.70277(19)
H98 H 1.4028 -0.0852 0.7449
H99 H 1.3502 -0.1887 0.7201
H100 H 1.3053 -0.1317 0.6675
loop_
_geom_bond_atom_site_label_1
_geom_bond_atom_site_label_2
_geom_bond_site_symmetry_1
_geom_bond_site_symmetry_2
Cl1 C73 1_555 1_555
Cl2 C73 1_555 1_555
Cl3 C73 1_555 1_555
Cl4 C74 1_555 1_555
Cl5 C74 1_555 1_555
Cl6 C74 1_555 1_555
S1 C23 1_555 1_555
S2 C23 1_555 1_555
S3 C24 1_555 1_555
S4 C25 1_555 1_555
S5 C28 1_555 1_555
S6 C28 1_555 1_555
S7 C29 1_555 1_555
S8 C30 1_555 1_555
O1 C6 1_555 1_555
O2 C7 1_555 1_555
O3 C17 1_555 1_555
O4 C18 1_555 1_555
C1 C2 1_555 1_555
C2 C3 1_555 1_555
C3 C4 1_555 1_555
C4 C5 1_555 1_555
C5 H1 1_555 1_555
C6 C5 1_555 1_555
C7 C6 1_555 1_555
C8 C7 1_555 1_555
H2 C8 1_555 1_555
C9 C4 1_555 1_555
C10 C9 1_555 1_555
C11 C10 1_555 1_555
C12 C11 1_555 1_555
C13 C12 1_555 1_555
C14 C13 1_555 1_555
C15 C14 1_555 1_555
C16 C15 1_555 1_555
H3 C16 1_555 1_555
C17 C16 1_555 1_555
C18 C17 1_555 1_555
C19 C18 1_555 1_555
H4 C19 1_555 1_555
C20 C15 1_555 1_555
C21 C20 1_555 1_555
C22 C1 1_555 1_555
C23 C1 1_555 1_555
C24 S1 1_555 1_555
C25 S2 1_555 1_555
C26 S3 1_555 1_555
H5 C26 1_555 1_555
H6 C26 1_555 1_555
H7 C26 1_555 1_555
C27 S4 1_555 1_555
H8 C27 1_555 1_555
H9 C27 1_555 1_555
H10 C27 1_555 1_555
C28 C12 1_555 1_555
C29 S5 1_555 1_555
C30 S6 1_555 1_555
C31 S7 1_555 1_555
H11 C31 1_555 1_555
H12 C31 1_555 1_555
H13 C31 1_555 1_555
C32 S8 1_555 1_555
H14 C32 1_555 1_555
H15 C32 1_555 1_555
H16 C32 1_555 1_555
C33 O1 1_555 1_555
H17 C33 1_555 1_555
H18 C33 1_555 1_555
C34 C33 1_555 1_555
H19 C34 1_555 1_555
H20 C34 1_555 1_555
C35 C34 1_555 1_555
H21 C35 1_555 1_555
H22 C35 1_555 1_555
C36 C35 1_555 1_555
H23 C36 1_555 1_555
H24 C36 1_555 1_555
C37 C36 1_555 1_555
H25 C37 1_555 1_555
H26 C37 1_555 1_555
C38 C37 1_555 1_555
H27 C38 1_555 1_555
H28 C38 1_555 1_555
C39 C38 1_555 1_555
H29 C39 1_555 1_555
H30 C39 1_555 1_555
C40 C39 1_555 1_555
H31 C40 1_555 1_555
H32 C40 1_555 1_555
C41 C40 1_555 1_555
H33 C41 1_555 1_555
H34 C41 1_555 1_555
C42 C41 1_555 1_555
H35 C42 1_555 1_555
H36 C42 1_555 1_555
H37 C42 1_555 1_555
C43 O2 1_555 1_555
H38 C43 1_555 1_555
H39 C43 1_555 1_555
C44 C43 1_555 1_555
H40 C44 1_555 1_555
H41 C44 1_555 1_555
C45 C44 1_555 1_555
H42 C45 1_555 1_555
H43 C45 1_555 1_555
C46 C45 1_555 1_555
H44 C46 1_555 1_555
H45 C46 1_555 1_555
C47 C46 1_555 1_555
H46 C47 1_555 1_555
H47 C47 1_555 1_555
C48 C47 1_555 1_555
H48 C48 1_555 1_555
H49 C48 1_555 1_555
C49 C48 1_555 1_555
H50 C49 1_555 1_555
H51 C49 1_555 1_555
C50 C49 1_555 1_555
H52 C50 1_555 1_555
H53 C50 1_555 1_555
C51 C50 1_555 1_555
H54 C51 1_555 1_555
H55 C51 1_555 1_555
C52 C51 1_555 1_555
H56 C52 1_555 1_555
H57 C52 1_555 1_555
H58 C52 1_555 1_555
C53 O3 1_555 1_555
H59 C53 1_555 1_555
H60 C53 1_555 1_555
C54 C53 1_555 1_555
H61 C54 1_555 1_555
H62 C54 1_555 1_555
C55 C54 1_555 1_555
H63 C55 1_555 1_555
H64 C55 1_555 1_555
C56 C55 1_555 1_555
H65 C56 1_555 1_555
H66 C56 1_555 1_555
C57 C56 1_555 1_555
H67 C57 1_555 1_555
H68 C57 1_555 1_555
C58 C57 1_555 1_555
H69 C58 1_555 1_555
H70 C58 1_555 1_555
C59 C58 1_555 1_555
H71 C59 1_555 1_555
H72 C59 1_555 1_555
C60 C59 1_555 1_555
H73 C60 1_555 1_555
H74 C60 1_555 1_555
C61 C60 1_555 1_555
H75 C61 1_555 1_555
H76 C61 1_555 1_555
C62 C61 1_555 1_555
H77 C62 1_555 1_555
H78 C62 1_555 1_555
H79 C62 1_555 1_555
C63 O4 1_555 1_555
H80 C63 1_555 1_555
H81 C63 1_555 1_555
C64 C63 1_555 1_555
H82 C64 1_555 1_555
H83 C64 1_555 1_555
C65 C64 1_555 1_555
H84 C65 1_555 1_555
H85 C65 1_555 1_555
C66 C65 1_555 1_555
H86 C66 1_555 1_555
H87 C66 1_555 1_555
C67 C66 1_555 1_555
H88 C67 1_555 1_555
H89 C67 1_555 1_555
C68 C67 1_555 1_555
H90 C68 1_555 1_555
H91 C68 1_555 1_555
C69 C68 1_555 1_555
H92 C69 1_555 1_555
H93 C69 1_555 1_555
C70 C69 1_555 1_555
H94 C70 1_555 1_555
H95 C70 1_555 1_555
C71 C70 1_555 1_555
H96 C71 1_555 1_555
H97 C71 1_555 1_555
C72 C71 1_555 1_555
H98 C72 1_555 1_555
H99 C72 1_555 1_555
H100 C72 1_555 1_555
C73 H101 1_555 1_555
C74 H102 1_555 1_555
C8 C9 1_555 1_555
C19 C20 1_555 1_555
C21 C22 1_555 1_555
C24 C25 1_555 1_555
C29 C30 1_555 1_555

#END
