
#######################################################################
#
#                 Cambridge Crystallographic Data Centre
#                                CCDC 
#
#######################################################################
#
# If this CIF has been generated from an entry in the Cambridge 
# Structural Database, then it will include bibliographic, chemical, 
# crystal, experimental, refinement or atomic coordinate data resulting 
# from the CCDC's data processing and validation procedures.
#
#######################################################################

data_LUHHOM
_chemical_formula_moiety         'C72 H12 N2 O6,1.2(C1 S2),0.3(C2 H6 O1)'
_chemical_name_systematic        
'Dihydroxy-(3-oxo-1,5-diphenyl-1,5-diazapenta-1,4-diene-2,4-diyl)-trioxo-open-cage-C60fullerene carbon disulfide ethanol solvate'
_symmetry_cell_setting           triclinic
_symmetry_space_group_name_H-M   'P -1'
_symmetry_Int_Tables_number      2
_space_group_name_Hall           '-P 1'
loop_
_symmetry_equiv_pos_site_id
_symmetry_equiv_pos_as_xyz
1 x,y,z
2 -x,-y,-z
_cell_length_a                   14.0617(2)
_cell_length_b                   17.0906(2)
_cell_length_c                   19.3399(3)
_cell_angle_alpha                90.8266(5)
_cell_angle_beta                 104.6941(5)
_cell_angle_gamma                94.1097(8)
_cell_volume                     4481.69
_exptl_crystal_colour            'black red'
_exptl_crystal_description       'long plate'
_cell_formula_units_Z            4
_exptl_crystal_recrystallization_method 'carbon disulfide/ethanol'
loop_
_atom_site_label
_atom_site_type_symbol
_atom_site_fract_x
_atom_site_fract_y
_atom_site_fract_z
O1 O 1.02869(18) 0.68953(13) 0.21067(15)
O2 O 0.75255(15) 0.56017(13) 0.15587(12)
O3 O 0.71022(17) 0.65158(14) 0.02272(13)
O4 O 0.76606(16) 0.79570(13) 0.11354(12)
O5 O 0.83572(14) 0.87320(11) 0.33333(11)
H1 H 0.8695 0.8932 0.3070
O6 O 0.81659(14) 0.59861(11) 0.38472(11)
H2 H 0.8474 0.5649 0.3692
N1 N 0.93825(17) 0.84568(14) 0.23513(14)
N2 N 0.92589(17) 0.56964(14) 0.28761(13)
C1 C 0.9075(2) 0.77341(17) 0.23839(16)
C2 C 0.9552(2) 0.69768(17) 0.23033(17)
C3 C 0.9009(2) 0.63622(16) 0.26505(16)
C4 C 0.8184(2) 0.67471(17) 0.28234(16)
C5 C 0.8241(2) 0.75183(16) 0.26814(15)
C6 C 0.7659(2) 0.81354(16) 0.29347(16)
C7 C 0.7084(2) 0.77578(16) 0.34195(15)
C8 C 0.7027(2) 0.69769(17) 0.35592(15)
C9 C 0.7548(2) 0.63578(16) 0.32560(15)
C10 C 0.6638(2) 0.57701(16) 0.29197(16)
C11 C 0.6316(2) 0.53689(16) 0.22651(16)
C12 C 0.6683(2) 0.54532(16) 0.15972(16)
C13 C 0.5763(2) 0.54124(17) 0.09901(16)
C14 C 0.5579(2) 0.59113(17) 0.04195(16)
C15 C 0.6271(2) 0.65515(18) 0.02598(16)
C16 C 0.5662(2) 0.72574(19) 0.01641(16)
C17 C 0.5928(2) 0.79809(18) 0.05236(16)
C18 C 0.6852(2) 0.81784(17) 0.11047(16)
C19 C 0.6537(2) 0.86168(16) 0.16841(17)
C20 C 0.6829(2) 0.85494(16) 0.24178(17)
C21 C 0.6124(2) 0.87102(16) 0.28284(17)
C22 C 0.6270(2) 0.82081(17) 0.34307(16)
C23 C 0.5448(2) 0.78907(18) 0.36504(16)
C24 C 0.5405(2) 0.70660(18) 0.37997(16)
C25 C 0.6156(2) 0.66240(18) 0.37157(15)
C26 C 0.5936(2) 0.58693(16) 0.33409(16)
C27 C 0.4958(2) 0.55611(17) 0.31168(16)
C28 C 0.4628(2) 0.51406(16) 0.24448(17)
C29 C 0.5295(2) 0.50722(16) 0.20337(16)
C30 C 0.4952(2) 0.51103(16) 0.12605(16)
C31 C 0.3988(2) 0.52637(17) 0.09473(17)
C32 C 0.3803(2) 0.58063(18) 0.03767(16)
C33 C 0.4590(2) 0.61406(18) 0.01402(16)
C34 C 0.4643(2) 0.69627(19) -0.00134(15)
C35 C 0.3907(2) 0.74180(19) 0.00820(16)
C36 C 0.4174(2) 0.81861(18) 0.04238(17)
C37 C 0.5171(2) 0.84283(17) 0.06664(17)
C38 C 0.5544(2) 0.88325(16) 0.13546(17)
C39 C 0.4883(2) 0.90043(16) 0.17560(18)
C40 C 0.5188(2) 0.89371(16) 0.25138(17)
C41 C 0.4343(2) 0.86251(18) 0.27492(18)
C42 C 0.4478(2) 0.80967(19) 0.33027(17)
C43 C 0.3812(2) 0.73953(19) 0.32366(17)
C44 C 0.4384(2) 0.67599(19) 0.35383(16)
C45 C 0.4170(2) 0.60117(18) 0.32215(17)
C46 C 0.3347(2) 0.58672(18) 0.25977(18)
C47 C 0.3630(2) 0.53168(17) 0.21178(18)
C48 C 0.3314(2) 0.53887(17) 0.13896(18)
C49 C 0.2730(2) 0.60215(19) 0.10920(18)
C50 C 0.3031(2) 0.62800(19) 0.04638(17)
C51 C 0.3082(2) 0.7070(2) 0.03234(17)
C52 C 0.2825(2) 0.76366(19) 0.07978(18)
C53 C 0.3507(2) 0.83322(19) 0.08602(18)
C54 C 0.3852(2) 0.87419(17) 0.15074(19)
C55 C 0.3528(2) 0.84862(18) 0.21307(18)
C56 C 0.2866(2) 0.78209(19) 0.20716(18)
C57 C 0.3016(2) 0.72606(19) 0.26358(18)
C58 C 0.2776(2) 0.64822(19) 0.23113(18)
C59 C 0.2469(2) 0.65534(19) 0.15398(18)
C60 C 0.2525(2) 0.73827(19) 0.13895(18)
C61 C 1.0101(2) 0.87259(17) 0.19983(18)
C62 C 1.0187(2) 0.8367(2) 0.13713(19)
H3 H 0.9798 0.7895 0.1193
C63 C 1.0830(3) 0.8688(2) 0.1009(2)
H4 H 1.0882 0.8442 0.0578
C64 C 1.1399(3) 0.9366(3) 0.1268(3)
H5 H 1.1861 0.9580 0.1025
C65 C 1.1301(3) 0.9734(2) 0.1876(3)
H6 H 1.1690 1.0207 0.2050
C66 C 1.0636(2) 0.9418(2) 0.2243(2)
H7 H 1.0555 0.9682 0.2658
C67 C 1.0047(2) 0.53256(16) 0.27073(17)
C68 C 1.0013(3) 0.50991(19) 0.20073(19)
H8 H 0.9490 0.5238 0.1623
C69 C 1.0749(3) 0.46699(19) 0.1876(2)
H9 H 1.0731 0.4518 0.1398
C70 C 1.1491(3) 0.44643(19) 0.2418(2)
H10 H 1.1986 0.4162 0.2321
C71 C 1.1532(3) 0.4691(2) 0.3111(2)
H11 H 1.2064 0.4556 0.3490
C72 C 1.0807(2) 0.51111(18) 0.32530(18)
H12 H 1.0830 0.5255 0.3733
N3 N 0.71218(18) 0.05088(14) 0.09426(13)
N4 N 0.87724(18) 0.31023(15) 0.10880(13)
O7 O 0.8963(2) 0.13830(15) 0.06254(16)
O8 O 0.99578(15) 0.27152(14) 0.24708(12)
O9 O 1.06625(16) 0.12131(13) 0.30305(13)
O10 O 0.86137(15) 0.04417(13) 0.24303(11)
O11 O 0.56586(14) 0.10625(13) 0.14593(11)
H13 H 0.5846 0.0662 0.1293
O12 O 0.71870(16) 0.36784(12) 0.14919(11)
H14 H 0.7683 0.3803 0.1338
C73 C 0.7624(2) 0.11464(17) 0.12110(15)
C74 C 0.8462(2) 0.16147(18) 0.09883(16)
C75 C 0.8437(2) 0.24401(18) 0.12617(15)
C76 C 0.7749(2) 0.24034(16) 0.17283(15)
C77 C 0.7311(2) 0.16588(16) 0.17069(15)
C78 C 0.6450(2) 0.14259(17) 0.20125(16)
C79 C 0.6101(2) 0.21563(18) 0.22983(16)
C80 C 0.6524(2) 0.28945(17) 0.23056(16)
C81 C 0.7437(2) 0.31175(16) 0.20421(16)
C82 C 0.8099(2) 0.35649(16) 0.27264(16)
C83 C 0.9080(2) 0.35574(16) 0.30976(16)
C84 C 0.9851(2) 0.30118(17) 0.30089(17)
C85 C 1.0404(2) 0.28474(18) 0.37688(17)
C86 C 1.0642(2) 0.21223(18) 0.40162(17)
C87 C 1.0453(2) 0.13585(18) 0.35790(18)
C88 C 0.9892(2) 0.08325(17) 0.39911(17)
C89 C 0.9004(2) 0.04141(16) 0.37328(16)
C90 C 0.8347(2) 0.04187(15) 0.29655(16)
C91 C 0.7313(2) 0.04739(16) 0.30582(16)
C92 C 0.6578(2) 0.09165(16) 0.26954(16)
C93 C 0.5868(2) 0.11699(18) 0.30641(17)
C94 C 0.5606(2) 0.19398(19) 0.28392(17)
C95 C 0.5451(2) 0.2492(2) 0.33244(19)
C96 C 0.5899(2) 0.32828(19) 0.33352(19)
C97 C 0.6473(2) 0.34543(17) 0.28545(17)
C98 C 0.7420(2) 0.38762(16) 0.30929(17)
C99 C 0.7724(2) 0.41795(17) 0.37927(18)
C100 C 0.8746(2) 0.41796(16) 0.41738(17)
C101 C 0.9383(2) 0.38550(16) 0.38327(17)
C102 C 1.0158(2) 0.34162(18) 0.42415(17)
C103 C 1.0212(2) 0.32743(18) 0.49500(17)
C104 C 1.0430(2) 0.24992(19) 0.52035(17)
C105 C 1.0591(2) 0.19330(19) 0.47306(18)
C106 C 1.0139(2) 0.11500(18) 0.47200(17)
C107 C 0.9555(2) 0.09633(19) 0.51830(17)
C108 C 0.8643(3) 0.04884(18) 0.49161(17)
C109 C 0.8361(2) 0.02639(16) 0.41911(17)
C110 C 0.7355(2) 0.02828(16) 0.37952(16)
C111 C 0.6657(2) 0.04934(17) 0.41371(18)
C112 C 0.5896(2) 0.09644(18) 0.37598(18)
C113 C 0.5715(2) 0.1531(2) 0.42672(19)
C114 C 0.5520(2) 0.2281(2) 0.4054(2)
C115 C 0.6002(2) 0.2960(2) 0.4520(2)
C116 C 0.6240(2) 0.35636(19) 0.40706(18)
C117 C 0.7124(3) 0.40216(18) 0.42919(18)
C118 C 0.7789(2) 0.39054(18) 0.49863(17)
C119 C 0.8791(2) 0.40213(17) 0.49139(17)
C120 C 0.9509(2) 0.35670(18) 0.52887(17)
C121 C 0.9263(3) 0.29682(19) 0.57506(17)
C122 C 0.9827(2) 0.23024(19) 0.56920(16)
C123 C 0.9389(3) 0.15456(19) 0.56851(16)
C124 C 0.8390(3) 0.14138(19) 0.57354(16)
C125 C 0.7928(3) 0.07571(18) 0.52660(17)
C126 C 0.6948(3) 0.07546(19) 0.48796(18)
C127 C 0.6381(3) 0.1409(2) 0.49602(19)
C128 C 0.6827(3) 0.2043(2) 0.54120(18)
C129 C 0.6640(3) 0.2840(2) 0.51828(19)
C130 C 0.7542(3) 0.3328(2) 0.54236(18)
C131 C 0.8304(3) 0.2847(2) 0.58089(16)
C132 C 0.7847(3) 0.2053(2) 0.58004(17)
C133 C 0.7360(2) -0.00049(16) 0.04357(16)
C134 C 0.8285(2) -0.02755(18) 0.05150(18)
H15 H 0.8815 -0.0096 0.0909
C135 C 0.8430(3) -0.0807(2) 0.00165(19)
H16 H 0.9062 -0.0997 0.0071
C136 C 0.7666(3) -0.10673(19) -0.05610(19)
H17 H 0.7778 -0.1429 -0.0904
C137 C 0.6739(3) -0.08017(18) -0.06399(17)
H18 H 0.6213 -0.0977 -0.1038
C138 C 0.6584(2) -0.02791(17) -0.01353(17)
H19 H 0.5945 -0.0107 -0.0179
C139 C 0.9459(2) 0.32088(18) 0.06729(17)
C140 C 1.0276(2) 0.2782(2) 0.0730(2)
H20 H 1.0397 0.2368 0.1055
C141 C 1.0917(3) 0.2970(2) 0.0305(2)
H21 H 1.1486 0.2687 0.0349
C142 C 1.0746(3) 0.3550(2) -0.0173(2)
H22 H 1.1177 0.3655 -0.0473
C143 C 0.9949(3) 0.3985(2) -0.0223(2)
H23 H 0.9823 0.4386 -0.0561
C144 C 0.9328(2) 0.3836(2) 0.02244(18)
H24 H 0.8812 0.4166 0.0221
C145 C 0.3045(3) 0.2684(2) 0.2050(2)
S1 S 0.36759(11) 0.31216(9) 0.16557(9)
S2 S 0.23286(13) 0.22217(11) 0.24402(10)
C146 C 0.3197(3) 0.0853(3) 0.4026(3)
S3 S 0.33278(13) 0.02638(11) 0.34620(10)
S4 S 0.30782(11) 0.14019(11) 0.46070(9)
C148 C 0.3478(15) 0.3994(14) 0.4434(9)
C149 C 0.3769(5) 0.3766(5) 0.3709(4)
O13 O 0.2675(3) 0.4015(4) 0.4808(2)
C147? C 0.4055(8) 0.4123(9) 0.4498(9)
S5? S 0.4563(4) 0.4831(3) 0.4886(3)
S6? S 0.3450(6) 0.3380(4) 0.4105(6)
loop_
_geom_bond_atom_site_label_1
_geom_bond_atom_site_label_2
_geom_bond_site_symmetry_1
_geom_bond_site_symmetry_2
O1 C2 1_555 1_555
O2 C12 1_555 1_555
O3 C15 1_555 1_555
O4 C18 1_555 1_555
O5 H1 1_555 1_555
O6 H2 1_555 1_555
N1 C1 1_555 1_555
N2 C3 1_555 1_555
C1 C2 1_555 1_555
C2 C3 1_555 1_555
C3 C4 1_555 1_555
C4 C5 1_555 1_555
C5 C1 1_555 1_555
C6 O5 1_555 1_555
C7 C6 1_555 1_555
C8 C7 1_555 1_555
C9 O6 1_555 1_555
C10 C9 1_555 1_555
C11 C10 1_555 1_555
C12 C11 1_555 1_555
C13 C12 1_555 1_555
C14 C13 1_555 1_555
C15 C14 1_555 1_555
C16 C15 1_555 1_555
C17 C16 1_555 1_555
C18 C17 1_555 1_555
C19 C18 1_555 1_555
C20 C6 1_555 1_555
C21 C20 1_555 1_555
C22 C7 1_555 1_555
C23 C22 1_555 1_555
C24 C23 1_555 1_555
C25 C8 1_555 1_555
C26 C10 1_555 1_555
C27 C26 1_555 1_555
C28 C27 1_555 1_555
C29 C11 1_555 1_555
C30 C13 1_555 1_555
C31 C30 1_555 1_555
C32 C31 1_555 1_555
C33 C14 1_555 1_555
C34 C16 1_555 1_555
C35 C34 1_555 1_555
C36 C35 1_555 1_555
C37 C17 1_555 1_555
C38 C19 1_555 1_555
C39 C38 1_555 1_555
C40 C21 1_555 1_555
C41 C40 1_555 1_555
C42 C23 1_555 1_555
C43 C42 1_555 1_555
C44 C24 1_555 1_555
C45 C27 1_555 1_555
C46 C45 1_555 1_555
C47 C28 1_555 1_555
C48 C31 1_555 1_555
C49 C48 1_555 1_555
C50 C32 1_555 1_555
C51 C35 1_555 1_555
C52 C51 1_555 1_555
C53 C36 1_555 1_555
C54 C39 1_555 1_555
C55 C41 1_555 1_555
C56 C55 1_555 1_555
C57 C43 1_555 1_555
C58 C46 1_555 1_555
C59 C49 1_555 1_555
C60 C52 1_555 1_555
C61 N1 1_555 1_555
C62 C61 1_555 1_555
H3 C62 1_555 1_555
C63 C62 1_555 1_555
H4 C63 1_555 1_555
C64 C63 1_555 1_555
H5 C64 1_555 1_555
C65 C64 1_555 1_555
H6 C65 1_555 1_555
C66 C61 1_555 1_555
H7 C66 1_555 1_555
C67 N2 1_555 1_555
C68 C67 1_555 1_555
H8 C68 1_555 1_555
C69 C68 1_555 1_555
H9 C69 1_555 1_555
C70 C69 1_555 1_555
H10 C70 1_555 1_555
C71 C70 1_555 1_555
H11 C71 1_555 1_555
C72 C67 1_555 1_555
H12 C72 1_555 1_555
N3 C73 1_555 1_555
N4 C75 1_555 1_555
O7 C74 1_555 1_555
O8 C84 1_555 1_555
O9 C87 1_555 1_555
O10 C90 1_555 1_555
O11 H13 1_555 1_555
O12 H14 1_555 1_555
C73 C74 1_555 1_555
C74 C75 1_555 1_555
C75 C76 1_555 1_555
C76 C77 1_555 1_555
C77 C73 1_555 1_555
C78 O11 1_555 1_555
C79 C78 1_555 1_555
C80 C79 1_555 1_555
C81 O12 1_555 1_555
C82 C81 1_555 1_555
C83 C82 1_555 1_555
C84 C83 1_555 1_555
C85 C84 1_555 1_555
C86 C85 1_555 1_555
C87 C86 1_555 1_555
C88 C87 1_555 1_555
C89 C88 1_555 1_555
C90 C89 1_555 1_555
C91 C90 1_555 1_555
C92 C78 1_555 1_555
C93 C92 1_555 1_555
C94 C79 1_555 1_555
C95 C94 1_555 1_555
C96 C95 1_555 1_555
C97 C80 1_555 1_555
C98 C82 1_555 1_555
C99 C98 1_555 1_555
C100 C99 1_555 1_555
C101 C83 1_555 1_555
C102 C85 1_555 1_555
C103 C102 1_555 1_555
C104 C103 1_555 1_555
C105 C86 1_555 1_555
C106 C88 1_555 1_555
C107 C106 1_555 1_555
C108 C107 1_555 1_555
C109 C89 1_555 1_555
C110 C91 1_555 1_555
C111 C110 1_555 1_555
C112 C93 1_555 1_555
C113 C112 1_555 1_555
C114 C95 1_555 1_555
C115 C114 1_555 1_555
C116 C96 1_555 1_555
C117 C99 1_555 1_555
C118 C117 1_555 1_555
C119 C100 1_555 1_555
C120 C103 1_555 1_555
C121 C120 1_555 1_555
C122 C104 1_555 1_555
C123 C107 1_555 1_555
C124 C123 1_555 1_555
C125 C108 1_555 1_555
C126 C111 1_555 1_555
C127 C113 1_555 1_555
C128 C127 1_555 1_555
C129 C115 1_555 1_555
C130 C118 1_555 1_555
C131 C121 1_555 1_555
C132 C124 1_555 1_555
C133 N3 1_555 1_555
C134 C133 1_555 1_555
H15 C134 1_555 1_555
C135 C134 1_555 1_555
H16 C135 1_555 1_555
C136 C135 1_555 1_555
H17 C136 1_555 1_555
C137 C136 1_555 1_555
H18 C137 1_555 1_555
C138 C133 1_555 1_555
H19 C138 1_555 1_555
C139 N4 1_555 1_555
C140 C139 1_555 1_555
H20 C140 1_555 1_555
C141 C140 1_555 1_555
H21 C141 1_555 1_555
C142 C141 1_555 1_555
H22 C142 1_555 1_555
C143 C142 1_555 1_555
H23 C143 1_555 1_555
C144 C139 1_555 1_555
H24 C144 1_555 1_555
C145 S1 1_555 1_555
S2 C145 1_555 1_555
C146 S3 1_555 1_555
S4 C146 1_555 1_555
C148 C149 1_555 1_555
O13 C148 1_555 1_555
C4 C9 1_555 1_555
C5 C6 1_555 1_555
C8 C9 1_555 1_555
C19 C20 1_555 1_555
C21 C22 1_555 1_555
C24 C25 1_555 1_555
C25 C26 1_555 1_555
C28 C29 1_555 1_555
C29 C30 1_555 1_555
C32 C33 1_555 1_555
C33 C34 1_555 1_555
C36 C37 1_555 1_555
C37 C38 1_555 1_555
C39 C40 1_555 1_555
C41 C42 1_555 1_555
C43 C44 1_555 1_555
C44 C45 1_555 1_555
C46 C47 1_555 1_555
C47 C48 1_555 1_555
C49 C50 1_555 1_555
C50 C51 1_555 1_555
C52 C53 1_555 1_555
C53 C54 1_555 1_555
C54 C55 1_555 1_555
C56 C57 1_555 1_555
C56 C60 1_555 1_555
C57 C58 1_555 1_555
C58 C59 1_555 1_555
C59 C60 1_555 1_555
C65 C66 1_555 1_555
C71 C72 1_555 1_555
C76 C81 1_555 1_555
C77 C78 1_555 1_555
C80 C81 1_555 1_555
C91 C92 1_555 1_555
C93 C94 1_555 1_555
C96 C97 1_555 1_555
C97 C98 1_555 1_555
C100 C101 1_555 1_555
C101 C102 1_555 1_555
C104 C105 1_555 1_555
C105 C106 1_555 1_555
C108 C109 1_555 1_555
C109 C110 1_555 1_555
C111 C112 1_555 1_555
C113 C114 1_555 1_555
C115 C116 1_555 1_555
C116 C117 1_555 1_555
C118 C119 1_555 1_555
C119 C120 1_555 1_555
C121 C122 1_555 1_555
C122 C123 1_555 1_555
C124 C125 1_555 1_555
C125 C126 1_555 1_555
C126 C127 1_555 1_555
C128 C129 1_555 1_555
C128 C132 1_555 1_555
C129 C130 1_555 1_555
C130 C131 1_555 1_555
C131 C132 1_555 1_555
C137 C138 1_555 1_555
C143 C144 1_555 1_555

#END
