
#######################################################################
#
#                 Cambridge Crystallographic Data Centre
#                                CCDC 
#
#######################################################################
#
# If this CIF has been generated from an entry in the Cambridge 
# Structural Database, then it will include bibliographic, chemical, 
# crystal, experimental, refinement or atomic coordinate data resulting 
# from the CCDC's data processing and validation procedures.
#
#######################################################################

data_LUHHUS
_chemical_formula_moiety         
'C72 H12 N2 O6,1.2(C1 S2),0.3(C2 H6 O1),0.37(H2 O1)'
_chemical_name_systematic        
'Dihydroxy-(3-oxo-1,5-diphenyl-1,5-diazapenta-1,4-diene-2,4-diyl)-trioxo-open-cage-C60fullerene carbon disulfide ethanol solvate hydrate clathrate'
_symmetry_cell_setting           triclinic
_symmetry_space_group_name_H-M   'P -1'
_symmetry_Int_Tables_number      2
_space_group_name_Hall           '-P 1'
loop_
_symmetry_equiv_pos_site_id
_symmetry_equiv_pos_as_xyz
1 x,y,z
2 -x,-y,-z
_cell_length_a                   14.0590(2)
_cell_length_b                   17.0748(3)
_cell_length_c                   19.3384(3)
_cell_angle_alpha                90.9325(7)
_cell_angle_beta                 104.7350(7)
_cell_angle_gamma                94.0137(7)
_cell_volume                     4475.79
_exptl_crystal_colour            'black red'
_exptl_crystal_description       'long plate'
_cell_formula_units_Z            4
_exptl_crystal_recrystallization_method 'carbon disulfide/ethanol'
loop_
_atom_site_label
_atom_site_type_symbol
_atom_site_fract_x
_atom_site_fract_y
_atom_site_fract_z
O1 O 0.5020(6) 0.7005(5) 0.1872(4)
O2 O 1.02910(19) 0.68959(15) 0.21055(16)
O3 O 0.75289(17) 0.55978(14) 0.15544(11)
O4 O 0.71073(19) 0.65150(15) 0.02284(14)
O5 O 0.76668(18) 0.79562(14) 0.11329(12)
O6 O 0.83625(15) 0.87305(12) 0.33302(11)
H1 H 0.8686 0.8942 0.3063
O7 O 0.81747(15) 0.59894(13) 0.38400(11)
H2 H 0.8482 0.5652 0.3684
N1 N 0.93814(19) 0.84590(16) 0.23484(14)
N2 N 0.92647(19) 0.56971(15) 0.28690(14)
C1 C 0.9085(2) 0.77349(19) 0.23813(16)
C2 C 0.9553(2) 0.69766(19) 0.22978(17)
C3 C 0.9009(2) 0.63642(19) 0.26444(16)
C4 C 0.8191(2) 0.67468(18) 0.28194(15)
C5 C 0.8244(2) 0.75206(18) 0.26817(15)
C6 C 0.7666(2) 0.81328(18) 0.29302(16)
C7 C 0.7090(2) 0.77588(18) 0.34166(16)
C8 C 0.7031(2) 0.69812(19) 0.35580(15)
C9 C 0.7550(2) 0.63581(18) 0.32497(15)
C10 C 0.6649(2) 0.57714(17) 0.29158(16)
C11 C 0.6320(2) 0.53705(18) 0.22657(16)
C12 C 0.6688(3) 0.54539(18) 0.15935(17)
C13 C 0.5763(2) 0.54146(18) 0.09868(16)
C14 C 0.5577(2) 0.59103(19) 0.04219(16)
C15 C 0.6269(3) 0.6555(2) 0.02625(16)
C16 C 0.5658(2) 0.7255(2) 0.01644(16)
C17 C 0.5928(2) 0.7977(2) 0.05203(16)
C18 C 0.6857(3) 0.8177(2) 0.11038(17)
C19 C 0.6538(2) 0.86182(18) 0.16871(17)
C20 C 0.6832(2) 0.85528(17) 0.24185(16)
C21 C 0.6130(2) 0.87174(18) 0.28224(17)
C22 C 0.6274(2) 0.82081(19) 0.34309(16)
C23 C 0.5453(3) 0.7896(2) 0.36492(16)
C24 C 0.5410(2) 0.7072(2) 0.37939(16)
C25 C 0.6172(2) 0.66253(19) 0.37128(15)
C26 C 0.5944(2) 0.58710(19) 0.33397(16)
C27 C 0.4970(2) 0.55635(19) 0.31209(17)
C28 C 0.4635(2) 0.51416(18) 0.24410(18)
C29 C 0.5295(2) 0.50722(18) 0.20223(17)
C30 C 0.4955(2) 0.51093(18) 0.12595(17)
C31 C 0.3994(2) 0.52630(19) 0.09525(17)
C32 C 0.3808(2) 0.5807(2) 0.03741(17)
C33 C 0.4596(2) 0.6140(2) 0.01385(16)
C34 C 0.4645(2) 0.6964(2) -0.00168(15)
C35 C 0.3907(2) 0.7416(2) 0.00810(16)
C36 C 0.4176(2) 0.8185(2) 0.04249(17)
C37 C 0.5176(2) 0.84313(19) 0.06661(17)
C38 C 0.5540(2) 0.88317(18) 0.13566(18)
C39 C 0.4883(2) 0.90103(18) 0.17552(18)
C40 C 0.5192(2) 0.89434(18) 0.25115(18)
C41 C 0.4345(2) 0.8630(2) 0.27548(19)
C42 C 0.4483(2) 0.8099(2) 0.33022(17)
C43 C 0.3818(2) 0.7404(2) 0.32331(17)
C44 C 0.4391(2) 0.6764(2) 0.35318(16)
C45 C 0.4176(2) 0.6019(2) 0.32164(17)
C46 C 0.3352(2) 0.5873(2) 0.25962(18)
C47 C 0.3629(2) 0.53179(19) 0.21091(18)
C48 C 0.3314(2) 0.53853(19) 0.13815(17)
C49 C 0.2729(2) 0.6021(2) 0.10928(18)
C50 C 0.3036(2) 0.6284(2) 0.04652(17)
C51 C 0.3080(2) 0.7076(2) 0.03254(17)
C52 C 0.2834(2) 0.7640(2) 0.07974(17)
C53 C 0.3506(2) 0.8334(2) 0.08627(18)
C54 C 0.3856(2) 0.87397(19) 0.15059(19)
C55 C 0.3525(2) 0.8491(2) 0.21307(18)
C56 C 0.2875(2) 0.7823(2) 0.20738(18)
C57 C 0.3023(2) 0.7263(2) 0.26326(19)
C58 C 0.2781(2) 0.6483(2) 0.23097(18)
C59 C 0.2471(2) 0.6560(2) 0.15433(19)
C60 C 0.2524(2) 0.7389(2) 0.13976(19)
C61 C 1.0103(2) 0.8727(2) 0.19995(18)
C62 C 1.0183(3) 0.8368(2) 0.13684(19)
H3 H 0.9789 0.7899 0.1188
C63 C 1.0833(3) 0.8689(3) 0.1002(2)
H4 H 1.0891 0.8438 0.0574
C64 C 1.1391(3) 0.9366(3) 0.1257(3)
H5 H 1.1842 0.9583 0.1007
C65 C 1.1307(3) 0.9743(3) 0.1877(3)
H6 H 1.1700 1.0215 0.2051
C66 C 1.0635(3) 0.9423(2) 0.2248(2)
H7 H 1.0554 0.9686 0.2664
C67 C 1.0054(2) 0.53240(18) 0.27010(18)
C68 C 1.0019(3) 0.5092(2) 0.2005(2)
H8 H 0.9492 0.5228 0.1621
C69 C 1.0762(3) 0.4656(2) 0.1868(2)
H9 H 1.0742 0.4496 0.1392
C70 C 1.1497(3) 0.4466(2) 0.2410(3)
H10 H 1.1999 0.4167 0.2316
C71 C 1.1537(3) 0.4696(2) 0.3101(2)
H11 H 1.2068 0.4562 0.3482
C72 C 1.0817(2) 0.5117(2) 0.32407(18)
H12 H 1.0845 0.5268 0.3721
O8 O 0.8049(6) 0.2215(5) 0.4053(4)
N3 N 0.71213(19) 0.05112(16) 0.09426(13)
N4 N 0.8770(2) 0.31081(16) 0.10923(13)
O9 O 0.8954(2) 0.13876(16) 0.06243(16)
O10 O 0.99547(17) 0.27230(15) 0.24731(12)
O11 O 1.06640(17) 0.12144(14) 0.30277(13)
O12 O 0.86185(16) 0.04472(13) 0.24278(12)
O13 O 0.56620(15) 0.10620(13) 0.14652(11)
H13 H 0.5854 0.0662 0.1299
O14 O 0.71761(17) 0.36771(13) 0.14961(11)
H14 H 0.7670 0.3799 0.1339
C73 C 0.7619(2) 0.11438(19) 0.12078(15)
C74 C 0.8460(3) 0.1613(2) 0.09923(17)
C75 C 0.8429(2) 0.2442(2) 0.12685(16)
C76 C 0.7743(2) 0.23979(18) 0.17290(15)
C77 C 0.7310(2) 0.16593(18) 0.17076(15)
C78 C 0.6444(2) 0.14262(19) 0.20161(16)
C79 C 0.6094(2) 0.21555(19) 0.22988(16)
C80 C 0.6520(2) 0.28959(19) 0.23088(16)
C81 C 0.7427(2) 0.31189(18) 0.20418(16)
C82 C 0.8100(3) 0.35714(17) 0.27313(16)
C83 C 0.9076(2) 0.35665(17) 0.31038(16)
C84 C 0.9846(2) 0.30249(19) 0.30112(18)
C85 C 1.0398(2) 0.28527(19) 0.37668(16)
C86 C 1.0642(2) 0.2127(2) 0.40112(17)
C87 C 1.0449(2) 0.1362(2) 0.35735(19)
C88 C 0.9897(2) 0.08368(19) 0.39904(17)
C89 C 0.9012(2) 0.04172(18) 0.37308(16)
C90 C 0.8354(2) 0.04224(17) 0.29717(17)
C91 C 0.7317(2) 0.04763(17) 0.30619(16)
C92 C 0.6581(2) 0.09135(18) 0.26974(16)
C93 C 0.5869(2) 0.1172(2) 0.30736(17)
C94 C 0.5600(2) 0.1937(2) 0.28440(18)
C95 C 0.5451(2) 0.2493(2) 0.33303(19)
C96 C 0.5897(2) 0.3286(2) 0.33342(19)
C97 C 0.6468(2) 0.34597(19) 0.28602(17)
C98 C 0.7411(2) 0.38810(18) 0.30992(17)
C99 C 0.7717(3) 0.41797(18) 0.37995(18)
C100 C 0.8736(3) 0.41846(18) 0.41720(17)
C101 C 0.9372(2) 0.38618(18) 0.38317(17)
C102 C 1.0154(2) 0.34225(19) 0.42401(17)
C103 C 1.0211(2) 0.3279(2) 0.49462(17)
C104 C 1.0430(2) 0.2507(2) 0.52024(17)
C105 C 1.0596(2) 0.1939(2) 0.47297(17)
C106 C 1.0145(2) 0.1156(2) 0.47143(17)
C107 C 0.9562(3) 0.0966(2) 0.51768(17)
C108 C 0.8652(3) 0.04914(19) 0.49130(17)
C109 C 0.8368(3) 0.02667(18) 0.41918(17)
C110 C 0.7356(2) 0.02791(17) 0.37915(17)
C111 C 0.6661(3) 0.04905(19) 0.41323(18)
C112 C 0.5898(2) 0.0965(2) 0.37590(19)
C113 C 0.5719(2) 0.1535(2) 0.42693(19)
C114 C 0.5518(2) 0.2288(2) 0.40615(19)
C115 C 0.5995(3) 0.2956(2) 0.4519(2)
C116 C 0.6233(3) 0.3563(2) 0.40757(19)
C117 C 0.7119(3) 0.4023(2) 0.42980(18)
C118 C 0.7780(3) 0.3911(2) 0.49809(18)
C119 C 0.8787(3) 0.40250(19) 0.49146(17)
C120 C 0.9509(3) 0.3576(2) 0.52899(17)
C121 C 0.9262(3) 0.2974(2) 0.57549(16)
C122 C 0.9827(3) 0.2314(2) 0.56893(16)
C123 C 0.9391(3) 0.1554(2) 0.56847(16)
C124 C 0.8403(3) 0.1423(2) 0.57364(16)
C125 C 0.7931(3) 0.0762(2) 0.52651(18)
C126 C 0.6959(3) 0.0755(2) 0.48852(19)
C127 C 0.6378(3) 0.1412(2) 0.4961(2)
C128 C 0.6832(3) 0.2046(2) 0.54136(18)
C129 C 0.6637(3) 0.2841(2) 0.51819(19)
C130 C 0.7543(3) 0.3328(2) 0.54276(17)
C131 C 0.8300(3) 0.2852(2) 0.58097(16)
C132 C 0.7866(3) 0.2059(2) 0.58016(17)
C133 C 0.7362(3) -0.00060(18) 0.04356(16)
C134 C 0.8281(3) -0.0277(2) 0.05118(18)
H15 H 0.8812 -0.0095 0.0905
C135 C 0.8428(3) -0.0815(2) 0.00157(19)
H16 H 0.9059 -0.1010 0.0073
C136 C 0.7663(3) -0.1071(2) -0.05631(19)
H17 H 0.7771 -0.1433 -0.0909
C137 C 0.6748(3) -0.0804(2) -0.06381(18)
H18 H 0.6223 -0.0978 -0.1038
C138 C 0.6587(3) -0.02810(19) -0.01328(17)
H19 H 0.5946 -0.0111 -0.0176
C139 C 0.9455(2) 0.3211(2) 0.06770(17)
C140 C 1.0267(3) 0.2791(2) 0.0738(2)
H20 H 1.0385 0.2379 0.1067
C141 C 1.0924(3) 0.2971(2) 0.0314(2)
H21 H 1.1492 0.2686 0.0360
C142 C 1.0747(3) 0.3555(3) -0.0163(2)
H22 H 1.1175 0.3661 -0.0465
C143 C 0.9952(3) 0.3989(3) -0.0209(2)
H23 H 0.9832 0.4398 -0.0541
C144 C 0.9324(3) 0.3835(2) 0.02240(18)
H24 H 0.8799 0.4159 0.0211
C145 C 0.3020(3) 0.2668(2) 0.2052(2)
S1 S 0.36797(10) 0.31205(9) 0.16550(7)
S2 S 0.23294(12) 0.22168(10) 0.24358(8)
C146 C 0.3200(3) 0.0850(3) 0.4033(2)
S3 S 0.33298(13) 0.02705(11) 0.34651(9)
S4 S 0.30769(11) 0.14061(11) 0.46059(9)
C148 C 0.3345(11) 0.3818(10) 0.4365(6)
C149 C 0.3786(4) 0.3786(4) 0.3684(3)
O15 O 0.2678(3) 0.4009(3) 0.48158(18)
C147? C 0.4046(8) 0.4202(6) 0.4556(6)
S5? S 0.4570(3) 0.4840(2) 0.48867(19)
S6? S 0.3478(5) 0.3389(4) 0.4086(5)
loop_
_geom_bond_atom_site_label_1
_geom_bond_atom_site_label_2
_geom_bond_site_symmetry_1
_geom_bond_site_symmetry_2
O2 C2 1_555 1_555
O3 C12 1_555 1_555
O4 C15 1_555 1_555
O5 C18 1_555 1_555
O6 H1 1_555 1_555
O7 H2 1_555 1_555
N1 C1 1_555 1_555
N2 C3 1_555 1_555
C1 C2 1_555 1_555
C2 C3 1_555 1_555
C3 C4 1_555 1_555
C4 C5 1_555 1_555
C5 C1 1_555 1_555
C6 O6 1_555 1_555
C7 C6 1_555 1_555
C8 C7 1_555 1_555
C9 O7 1_555 1_555
C10 C9 1_555 1_555
C11 C10 1_555 1_555
C12 C11 1_555 1_555
C13 C12 1_555 1_555
C14 C13 1_555 1_555
C15 C14 1_555 1_555
C16 C15 1_555 1_555
C17 C16 1_555 1_555
C18 C17 1_555 1_555
C19 C18 1_555 1_555
C20 C6 1_555 1_555
C21 C20 1_555 1_555
C22 C7 1_555 1_555
C23 C22 1_555 1_555
C24 C23 1_555 1_555
C25 C8 1_555 1_555
C26 C10 1_555 1_555
C27 C26 1_555 1_555
C28 C27 1_555 1_555
C29 C11 1_555 1_555
C30 C13 1_555 1_555
C31 C30 1_555 1_555
C32 C31 1_555 1_555
C33 C14 1_555 1_555
C34 C16 1_555 1_555
C35 C34 1_555 1_555
C36 C35 1_555 1_555
C37 C17 1_555 1_555
C38 C19 1_555 1_555
C39 C38 1_555 1_555
C40 C21 1_555 1_555
C41 C40 1_555 1_555
C42 C23 1_555 1_555
C43 C42 1_555 1_555
C44 C24 1_555 1_555
C45 C27 1_555 1_555
C46 C45 1_555 1_555
C47 C28 1_555 1_555
C48 C31 1_555 1_555
C49 C48 1_555 1_555
C50 C32 1_555 1_555
C51 C35 1_555 1_555
C52 C51 1_555 1_555
C53 C36 1_555 1_555
C54 C39 1_555 1_555
C55 C41 1_555 1_555
C56 C55 1_555 1_555
C57 C43 1_555 1_555
C58 C46 1_555 1_555
C59 C49 1_555 1_555
C60 C52 1_555 1_555
C61 N1 1_555 1_555
C62 C61 1_555 1_555
H3 C62 1_555 1_555
C63 C62 1_555 1_555
H4 C63 1_555 1_555
C64 C63 1_555 1_555
H5 C64 1_555 1_555
C65 C64 1_555 1_555
H6 C65 1_555 1_555
C66 C61 1_555 1_555
H7 C66 1_555 1_555
C67 N2 1_555 1_555
C68 C67 1_555 1_555
H8 C68 1_555 1_555
C69 C68 1_555 1_555
H9 C69 1_555 1_555
C70 C69 1_555 1_555
H10 C70 1_555 1_555
C71 C70 1_555 1_555
H11 C71 1_555 1_555
C72 C67 1_555 1_555
H12 C72 1_555 1_555
N3 C73 1_555 1_555
N4 C75 1_555 1_555
O9 C74 1_555 1_555
O10 C84 1_555 1_555
O11 C87 1_555 1_555
O12 C90 1_555 1_555
O13 H13 1_555 1_555
O14 H14 1_555 1_555
C73 C74 1_555 1_555
C74 C75 1_555 1_555
C75 C76 1_555 1_555
C76 C77 1_555 1_555
C77 C73 1_555 1_555
C78 O13 1_555 1_555
C79 C78 1_555 1_555
C80 C79 1_555 1_555
C81 O14 1_555 1_555
C82 C81 1_555 1_555
C83 C82 1_555 1_555
C84 C83 1_555 1_555
C85 C84 1_555 1_555
C86 C85 1_555 1_555
C87 C86 1_555 1_555
C88 C87 1_555 1_555
C89 C88 1_555 1_555
C90 C89 1_555 1_555
C91 C90 1_555 1_555
C92 C78 1_555 1_555
C93 C92 1_555 1_555
C94 C79 1_555 1_555
C95 C94 1_555 1_555
C96 C95 1_555 1_555
C97 C80 1_555 1_555
C98 C82 1_555 1_555
C99 C98 1_555 1_555
C100 C99 1_555 1_555
C101 C83 1_555 1_555
C102 C85 1_555 1_555
C103 C102 1_555 1_555
C104 C103 1_555 1_555
C105 C86 1_555 1_555
C106 C88 1_555 1_555
C107 C106 1_555 1_555
C108 C107 1_555 1_555
C109 C89 1_555 1_555
C110 C91 1_555 1_555
C111 C110 1_555 1_555
C112 C93 1_555 1_555
C113 C112 1_555 1_555
C114 C95 1_555 1_555
C115 C114 1_555 1_555
C116 C96 1_555 1_555
C117 C99 1_555 1_555
C118 C117 1_555 1_555
C119 C100 1_555 1_555
C120 C103 1_555 1_555
C121 C120 1_555 1_555
C122 C104 1_555 1_555
C123 C107 1_555 1_555
C124 C123 1_555 1_555
C125 C108 1_555 1_555
C126 C111 1_555 1_555
C127 C113 1_555 1_555
C128 C127 1_555 1_555
C129 C115 1_555 1_555
C130 C118 1_555 1_555
C131 C121 1_555 1_555
C132 C124 1_555 1_555
C133 N3 1_555 1_555
C134 C133 1_555 1_555
H15 C134 1_555 1_555
C135 C134 1_555 1_555
H16 C135 1_555 1_555
C136 C135 1_555 1_555
H17 C136 1_555 1_555
C137 C136 1_555 1_555
H18 C137 1_555 1_555
C138 C133 1_555 1_555
H19 C138 1_555 1_555
C139 N4 1_555 1_555
C140 C139 1_555 1_555
H20 C140 1_555 1_555
C141 C140 1_555 1_555
H21 C141 1_555 1_555
C142 C141 1_555 1_555
H22 C142 1_555 1_555
C143 C142 1_555 1_555
H23 C143 1_555 1_555
C144 C139 1_555 1_555
H24 C144 1_555 1_555
C145 S1 1_555 1_555
S2 C145 1_555 1_555
C146 S3 1_555 1_555
S4 C146 1_555 1_555
C148 C149 1_555 1_555
O15 C148 1_555 1_555
C4 C9 1_555 1_555
C5 C6 1_555 1_555
C8 C9 1_555 1_555
C19 C20 1_555 1_555
C21 C22 1_555 1_555
C24 C25 1_555 1_555
C25 C26 1_555 1_555
C28 C29 1_555 1_555
C29 C30 1_555 1_555
C32 C33 1_555 1_555
C33 C34 1_555 1_555
C36 C37 1_555 1_555
C37 C38 1_555 1_555
C39 C40 1_555 1_555
C41 C42 1_555 1_555
C43 C44 1_555 1_555
C44 C45 1_555 1_555
C46 C47 1_555 1_555
C47 C48 1_555 1_555
C49 C50 1_555 1_555
C50 C51 1_555 1_555
C52 C53 1_555 1_555
C53 C54 1_555 1_555
C54 C55 1_555 1_555
C56 C57 1_555 1_555
C56 C60 1_555 1_555
C57 C58 1_555 1_555
C58 C59 1_555 1_555
C59 C60 1_555 1_555
C65 C66 1_555 1_555
C71 C72 1_555 1_555
C76 C81 1_555 1_555
C77 C78 1_555 1_555
C80 C81 1_555 1_555
C91 C92 1_555 1_555
C93 C94 1_555 1_555
C96 C97 1_555 1_555
C97 C98 1_555 1_555
C100 C101 1_555 1_555
C101 C102 1_555 1_555
C104 C105 1_555 1_555
C105 C106 1_555 1_555
C108 C109 1_555 1_555
C109 C110 1_555 1_555
C111 C112 1_555 1_555
C113 C114 1_555 1_555
C115 C116 1_555 1_555
C116 C117 1_555 1_555
C118 C119 1_555 1_555
C119 C120 1_555 1_555
C121 C122 1_555 1_555
C122 C123 1_555 1_555
C124 C125 1_555 1_555
C125 C126 1_555 1_555
C126 C127 1_555 1_555
C128 C129 1_555 1_555
C128 C132 1_555 1_555
C129 C130 1_555 1_555
C130 C131 1_555 1_555
C131 C132 1_555 1_555
C137 C138 1_555 1_555
C143 C144 1_555 1_555

#END
