
#######################################################################
#
#                 Cambridge Crystallographic Data Centre
#                                CCDC 
#
#######################################################################
#
# If this CIF has been generated from an entry in the Cambridge 
# Structural Database, then it will include bibliographic, chemical, 
# crystal, experimental, refinement or atomic coordinate data resulting 
# from the CCDC's data processing and validation procedures.
#
#######################################################################

data_LUHHUT
_chemical_formula_moiety         'C30 H24 Br1 N1 O9'
_chemical_name_systematic        
'dimethyl 5-(5-bromo-2-hydroxyphenyl)-4-((4-hydroxy-2-oxo-2H-chromen-3-yl)carbonyl)-3-phenylpyrrolidine-2,2-dicarboxylate'
_symmetry_cell_setting           monoclinic
_symmetry_space_group_name_H-M   'P 21/n'
_symmetry_Int_Tables_number      14
_space_group_name_Hall           '-P 2yn'
loop_
_symmetry_equiv_pos_site_id
_symmetry_equiv_pos_as_xyz
1 x,y,z
2 1/2-x,1/2+y,1/2-z
3 -x,-y,-z
4 1/2+x,1/2-y,1/2+z
_cell_length_a                   12.8444(15)
_cell_length_b                   10.1393(13)
_cell_length_c                   22.002(3)
_cell_angle_alpha                90
_cell_angle_beta                 90.719(4)
_cell_angle_gamma                90
_cell_volume                     2865.17
_exptl_crystal_colour            colorless
_exptl_crystal_description       prism
_cell_formula_units_Z            4
loop_
_atom_site_label
_atom_site_type_symbol
_atom_site_fract_x
_atom_site_fract_y
_atom_site_fract_z
C1 C 0.7424(4) 0.2210(5) -0.1661(2)
C2 C 0.6681(4) 0.1307(5) -0.1840(2)
H1 H 0.6307 0.1418 -0.2212
C3 C 0.6487(4) 0.0230(5) -0.1469(2)
H2 H 0.5981 -0.0406 -0.1588
C4 C 0.7028(3) 0.0080(4) -0.09263(19)
C5 C 0.7736(3) 0.1038(4) -0.07253(17)
C6 C 0.7952(3) 0.2079(4) -0.11140(19)
H3 H 0.8468 0.2708 -0.1002
C7 C 0.8225(3) 0.0995(4) -0.00965(17)
H4 H 0.8834 0.1609 -0.0081
C8 C 0.7474(3) 0.1327(4) 0.04436(18)
H5 H 0.7787 0.2066 0.0685
C9 C 0.6384(3) 0.1746(4) 0.02302(18)
C10 C 0.6205(3) 0.2972(4) -0.00990(18)
C11 C 0.7010(4) 0.3967(4) -0.0157(2)
C12 C 0.5863(3) 0.5221(4) -0.08126(19)
C13 C 0.5744(4) 0.6340(5) -0.1163(2)
H6 H 0.6292 0.6965 -0.1190
C14 C 0.4820(4) 0.6538(5) -0.1471(2)
H7 H 0.4730 0.7306 -0.1713
C15 C 0.4020(4) 0.5629(5) -0.1432(2)
H8 H 0.3388 0.5779 -0.1649
C16 C 0.4127(4) 0.4528(5) -0.1087(2)
H9 H 0.3570 0.3915 -0.1064
C17 C 0.5064(3) 0.4291(4) -0.07634(18)
C18 C 0.5245(3) 0.3160(4) -0.03885(18)
C19 C 0.7452(3) 0.0094(4) 0.08445(17)
H10 H 0.6910 -0.0506 0.0667
C20 C 0.7155(3) 0.0342(4) 0.15000(18)
C21 C 0.7581(4) 0.1342(5) 0.1847(2)
H11 H 0.8092 0.1904 0.1676
C22 C 0.7277(4) 0.1538(5) 0.2440(2)
H12 H 0.7571 0.2235 0.2674
C23 C 0.6543(4) 0.0715(6) 0.2690(2)
H13 H 0.6338 0.0840 0.3099
C24 C 0.6111(4) -0.0271(6) 0.2355(2)
H14 H 0.5602 -0.0829 0.2530
C25 C 0.6410(3) -0.0467(5) 0.17556(19)
H15 H 0.6103 -0.1156 0.1522
C26 C 0.8521(3) -0.0545(4) 0.07174(17)
C27 C 0.8574(3) -0.2010(5) 0.08327(18)
C28 C 0.9614(4) -0.3908(4) 0.0638(2)
H16 H 1.0285 -0.4134 0.0457
H17 H 0.9052 -0.4357 0.0414
H18 H 0.9612 -0.4189 0.1064
C29 C 0.9403(3) 0.0135(5) 0.10711(18)
C30 C 1.0352(4) 0.0144(6) 0.1999(2)
H19 H 1.0404 -0.0358 0.2379
H20 H 1.0159 0.1058 0.2089
H21 H 1.1025 0.0131 0.1795
N1 N 0.8576(3) -0.0340(3) 0.00661(14)
H22 H 0.8790 -0.0934 -0.0196
O1 O 0.6831(2) -0.1011(3) -0.05848(13)
H23 H 0.7204 -0.0996 -0.0269
O2 O 0.5646(2) 0.0993(3) 0.03304(13)
O3 O 0.7869(2) 0.3943(3) 0.00740(15)
O4 O 0.6791(2) 0.5058(3) -0.05059(14)
O5 O 0.4473(2) 0.2325(3) -0.03421(13)
H24 H 0.4655 0.1693 -0.0118
O6 O 0.7911(2) -0.2668(3) 0.10720(14)
O7 O 0.9458(2) -0.2493(3) 0.06047(13)
O8 O 0.9877(2) 0.1076(3) 0.08905(13)
O9 O 0.9566(2) -0.0444(3) 0.16071(12)
Br1 Br 0.77394(5) 0.36331(6) -0.21824(3)
loop_
_geom_bond_atom_site_label_1
_geom_bond_atom_site_label_2
_geom_bond_site_symmetry_1
_geom_bond_site_symmetry_2
C1 C2 1_555 1_555
C2 H1 1_555 1_555
C3 C2 1_555 1_555
H2 C3 1_555 1_555
C4 C3 1_555 1_555
C5 C4 1_555 1_555
C6 C1 1_555 1_555
H3 C6 1_555 1_555
C7 C5 1_555 1_555
H4 C7 1_555 1_555
C8 C7 1_555 1_555
H5 C8 1_555 1_555
C9 C8 1_555 1_555
C10 C9 1_555 1_555
C11 C10 1_555 1_555
C12 C13 1_555 1_555
C13 H6 1_555 1_555
C14 C13 1_555 1_555
H7 C14 1_555 1_555
C15 C14 1_555 1_555
H8 C15 1_555 1_555
C16 C15 1_555 1_555
H9 C16 1_555 1_555
C17 C12 1_555 1_555
C18 C10 1_555 1_555
C19 C8 1_555 1_555
H10 C19 1_555 1_555
C20 C19 1_555 1_555
C21 C20 1_555 1_555
H11 C21 1_555 1_555
C22 C21 1_555 1_555
H12 C22 1_555 1_555
C23 C22 1_555 1_555
H13 C23 1_555 1_555
C24 C23 1_555 1_555
H14 C24 1_555 1_555
C25 C20 1_555 1_555
H15 C25 1_555 1_555
C26 C19 1_555 1_555
C27 C26 1_555 1_555
C28 H16 1_555 1_555
H17 C28 1_555 1_555
H18 C28 1_555 1_555
C29 C26 1_555 1_555
C30 H19 1_555 1_555
H20 C30 1_555 1_555
H21 C30 1_555 1_555
N1 C7 1_555 1_555
H22 N1 1_555 1_555
O1 C4 1_555 1_555
H23 O1 1_555 1_555
O2 C9 1_555 1_555
O3 C11 1_555 1_555
O4 C11 1_555 1_555
O5 C18 1_555 1_555
H24 O5 1_555 1_555
O6 C27 1_555 1_555
O7 C27 1_555 1_555
O8 C29 1_555 1_555
O9 C29 1_555 1_555
Br1 C1 1_555 1_555
C5 C6 1_555 1_555
C12 O4 1_555 1_555
C16 C17 1_555 1_555
C17 C18 1_555 1_555
C24 C25 1_555 1_555
C26 N1 1_555 1_555
C28 O7 1_555 1_555
C30 O9 1_555 1_555

#END
