
#######################################################################
#
#                 Cambridge Crystallographic Data Centre
#                                CCDC 
#
#######################################################################
#
# If this CIF has been generated from an entry in the Cambridge 
# Structural Database, then it will include bibliographic, chemical, 
# crystal, experimental, refinement or atomic coordinate data resulting 
# from the CCDC's data processing and validation procedures.
#
#######################################################################

data_LUHJUU
_chemical_formula_moiety         'C18 H16 N2 O6'
_chemical_name_systematic        
'Ethyl 1-(3-nitrobenzyl)-2,7-dioxo-1-azaspiro[3.5]nona-5,8-diene-3-carboxylate'
_symmetry_cell_setting           triclinic
_symmetry_space_group_name_H-M   'P -1'
_symmetry_Int_Tables_number      2
_space_group_name_Hall           '-P 1'
loop_
_symmetry_equiv_pos_site_id
_symmetry_equiv_pos_as_xyz
1 x,y,z
2 -x,-y,-z
_cell_length_a                   9.6009(18)
_cell_length_b                   9.9357(19)
_cell_length_c                   10.0350(19)
_cell_angle_alpha                95.531(2)
_cell_angle_beta                 96.755(3)
_cell_angle_gamma                110.311(2)
_cell_volume                     881.774
_exptl_crystal_colour            colorless
_exptl_crystal_description       block
_cell_formula_units_Z            2
loop_
_atom_site_label
_atom_site_type_symbol
_atom_site_fract_x
_atom_site_fract_y
_atom_site_fract_z
C1 C -0.0061(3) 0.8004(3) -0.0671(2)
C2 C 0.1521(3) 0.8936(3) -0.0542(2)
H1 H 0.1799 0.9627 -0.1121
C3 C 0.2559(2) 0.8825(2) 0.0366(2)
H2 H 0.3548 0.9448 0.0404
C4 C 0.2246(2) 0.7759(2) 0.1340(2)
C5 C 0.0626(2) 0.6814(2) 0.1171(2)
H3 H 0.0339 0.6109 0.1734
C6 C -0.0424(2) 0.6931(2) 0.0258(2)
H4 H -0.1417 0.6314 0.0206
C7 C 0.3372(2) 0.6915(2) 0.1517(2)
H5 H 0.2838 0.5883 0.1551
C8 C 0.3924(3) 0.7794(2) 0.2939(2)
C9 C 0.4484(3) 0.7131(3) 0.0555(3)
C10 C 0.4853(3) 0.6237(4) -0.1640(3)
H6 H 0.5903 0.6790 -0.1279
H7 H 0.4771 0.5271 -0.2018
C11 C 0.4361(4) 0.6908(5) -0.2669(3)
H8 H 0.3287 0.6466 -0.2914
H9 H 0.4824 0.6794 -0.3448
H10 H 0.4634 0.7922 -0.2348
C12 C 0.2527(2) 0.9479(2) 0.3639(2)
H11 H 0.2526 1.0297 0.3183
H12 H 0.3273 0.9845 0.4456
C13 C 0.0988(2) 0.8746(2) 0.4017(2)
C14 C -0.0237(3) 0.9010(2) 0.3415(2)
H13 H -0.0097 0.9687 0.2817
C15 C -0.1662(3) 0.8298(3) 0.3678(2)
H14 H -0.2473 0.8493 0.3257
C16 C -0.1886(3) 0.7298(3) 0.4565(3)
H15 H -0.2842 0.6805 0.4752
C17 C -0.0654(3) 0.7047(2) 0.5166(2)
C18 C 0.0773(3) 0.7754(2) 0.4911(2)
H16 H 0.1585 0.7565 0.5337
N1 N 0.29222(18) 0.84722(19) 0.27569(17)
N2 N -0.0884(4) 0.5963(3) 0.6098(3)
O1 O -0.10407(19) 0.8110(2) -0.15086(17)
O2 O 0.48652(17) 0.78934(19) 0.38890(16)
O3 O 0.5679(2) 0.8104(2) 0.07426(18)
O4 O 0.39501(17) 0.6135(2) -0.05340(17)
O5 O -0.2143(3) 0.5250(2) 0.6230(2)
O6 O 0.0246(3) 0.5852(2) 0.6721(2)
loop_
_geom_bond_atom_site_label_1
_geom_bond_atom_site_label_2
_geom_bond_site_symmetry_1
_geom_bond_site_symmetry_2
C1 C2 1_555 1_555
C2 H1 1_555 1_555
C3 C2 1_555 1_555
H2 C3 1_555 1_555
C4 C3 1_555 1_555
C5 C4 1_555 1_555
H3 C5 1_555 1_555
C6 C1 1_555 1_555
H4 C6 1_555 1_555
C7 C4 1_555 1_555
H5 C7 1_555 1_555
C8 C7 1_555 1_555
C9 C7 1_555 1_555
C10 H6 1_555 1_555
H7 C10 1_555 1_555
C11 C10 1_555 1_555
H8 C11 1_555 1_555
H9 C11 1_555 1_555
H10 C11 1_555 1_555
C12 H11 1_555 1_555
H12 C12 1_555 1_555
C13 C12 1_555 1_555
C14 C13 1_555 1_555
H13 C14 1_555 1_555
C15 C14 1_555 1_555
H14 C15 1_555 1_555
C16 C15 1_555 1_555
H15 C16 1_555 1_555
C17 C16 1_555 1_555
C18 C13 1_555 1_555
H16 C18 1_555 1_555
N1 C4 1_555 1_555
N2 C17 1_555 1_555
O1 C1 1_555 1_555
O2 C8 1_555 1_555
O3 C9 1_555 1_555
O4 C9 1_555 1_555
O5 N2 1_555 1_555
O6 N2 1_555 1_555
C5 C6 1_555 1_555
C8 N1 1_555 1_555
C10 O4 1_555 1_555
C12 N1 1_555 1_555
C17 C18 1_555 1_555

#END
