
#######################################################################
#
#                 Cambridge Crystallographic Data Centre
#                                CCDC 
#
#######################################################################
#
# If this CIF has been generated from an entry in the Cambridge 
# Structural Database, then it will include bibliographic, chemical, 
# crystal, experimental, refinement or atomic coordinate data resulting 
# from the CCDC's data processing and validation procedures.
#
#######################################################################

data_LUHKOO
_chemical_formula_moiety         'C23 H17 N1 O2'
_chemical_name_systematic        
2-(1-Phenyl-2-(2-furoyl)ethen-1-yl)-5-phenylpyrrole
_symmetry_cell_setting           monoclinic
_symmetry_space_group_name_H-M   'P 21/c'
_symmetry_Int_Tables_number      14
_space_group_name_Hall           '-P 2ybc'
loop_
_symmetry_equiv_pos_site_id
_symmetry_equiv_pos_as_xyz
1 x,y,z
2 x,1/2-y,1/2+z
3 -x,-y,-z
4 -x,1/2+y,1/2-z
_cell_length_a                   18.912(3)
_cell_length_b                   6.1067(11)
_cell_length_c                   29.277(5)
_cell_angle_alpha                90
_cell_angle_beta                 90.339(5)
_cell_angle_gamma                90
_cell_volume                     3381.14
_exptl_crystal_colour            brown
_exptl_crystal_description       plate
_chemical_melting_point          '188 deg. C'
_cell_formula_units_Z            8
_exptl_crystal_recrystallization_method ethanol
loop_
_atom_site_label
_atom_site_type_symbol
_atom_site_fract_x
_atom_site_fract_y
_atom_site_fract_z
O1 O 0.42715(6) 0.34053(17) 0.30050(3)
O2 O 0.52467(6) -0.01593(18) 0.37328(3)
N1 N 0.35898(6) 0.6933(2) 0.32439(4)
H1 H 0.3804(10) 0.582(3) 0.3082(6)
C1 C 0.32105(8) 0.8674(2) 0.30902(5)
C2 C 0.30011(8) 0.9876(3) 0.34729(5)
H2 H 0.2724(9) 1.119(3) 0.3469(5)
C3 C 0.32609(8) 0.8806(2) 0.38592(5)
H3 H 0.3187(8) 0.923(3) 0.4173(5)
C4 C 0.36386(8) 0.6964(2) 0.37127(5)
C5 C 0.40038(7) 0.5328(2) 0.39751(5)
C6 C 0.43641(8) 0.3510(2) 0.38275(5)
H4 H 0.4583(8) 0.270(3) 0.4067(5)
C7 C 0.44924(8) 0.2654(2) 0.33762(5)
C8 C 0.49403(8) 0.0690(2) 0.33431(5)
C9 C 0.56303(9) -0.1928(3) 0.35890(6)
H5 H 0.5893(10) -0.273(3) 0.3844(6)
C10 C 0.55766(9) -0.2202(3) 0.31374(6)
H6 H 0.5811(9) -0.328(3) 0.2962(6)
C11 C 0.51288(8) -0.0511(3) 0.29755(5)
H7 H 0.4975(9) -0.027(3) 0.2680(6)
C12 C 0.30759(8) 0.9052(2) 0.26036(5)
C13 C 0.32974(8) 0.7558(3) 0.22725(5)
H8 H 0.3550(9) 0.623(3) 0.2364(5)
C14 C 0.31533(9) 0.7913(3) 0.18139(6)
H9 H 0.3318(9) 0.689(3) 0.1577(6)
C15 C 0.27793(9) 0.9760(3) 0.16773(6)
H10 H 0.2663(8) 0.999(3) 0.1365(6)
C16 C 0.25601(9) 1.1257(3) 0.20026(6)
H11 H 0.2288(9) 1.256(3) 0.1916(5)
C17 C 0.27086(8) 1.0921(3) 0.24594(5)
H12 H 0.2539(9) 1.202(3) 0.2688(5)
C18 C 0.39964(7) 0.5648(2) 0.44819(5)
C19 C 0.42650(8) 0.7546(3) 0.46836(5)
H13 H 0.4446(9) 0.872(3) 0.4482(5)
C20 C 0.42881(8) 0.7761(3) 0.51535(5)
H14 H 0.4477(9) 0.911(3) 0.5299(5)
C21 C 0.40331(8) 0.6106(3) 0.54316(5)
H15 H 0.4060(9) 0.624(3) 0.5752(6)
C22 C 0.37571(8) 0.4229(3) 0.52349(5)
H16 H 0.3564(9) 0.307(3) 0.5433(5)
C23 C 0.37409(8) 0.3988(3) 0.47647(5)
H17 H 0.3555(9) 0.261(3) 0.4627(5)
O3 O 0.04361(6) -0.16159(17) 0.36307(3)
O4 O 0.01800(6) -0.56014(18) 0.44944(4)
N2 N 0.12443(7) 0.1830(2) 0.36793(4)
H18 H 0.0945(10) 0.074(3) 0.3577(6)
C24 C 0.14773(7) 0.3614(2) 0.34495(5)
C25 C 0.19404(8) 0.4743(3) 0.37384(5)
H19 H 0.2202(9) 0.609(3) 0.3662(5)
C26 C 0.19797(8) 0.3593(2) 0.41486(5)
H20 H 0.2259(9) 0.399(3) 0.4418(5)
C27 C 0.15351(8) 0.1761(2) 0.41111(5)
C28 C 0.13858(8) 0.0069(2) 0.44337(5)
C29 C 0.09664(8) -0.1760(3) 0.43823(5)
H21 H 0.0934(8) -0.272(3) 0.4638(5)
C30 C 0.05225(8) -0.2503(2) 0.40096(5)
C31 C 0.01022(8) -0.4490(2) 0.40890(5)
C32 C -0.02701(10) -0.7345(3) 0.44718(6)
H22 H -0.0256(9) -0.831(3) 0.4749(6)
C33 C -0.06221(10) -0.7355(3) 0.40772(6)
H23 H -0.0966(11) -0.838(4) 0.3974(6)
C34 C -0.03816(9) -0.5507(3) 0.38223(6)
H24 H -0.0507(9) -0.506(3) 0.3550(6)
C35 C 0.12470(8) 0.4075(3) 0.29827(5)
C36 C 0.07908(9) 0.2660(3) 0.27491(5)
H25 H 0.0632(9) 0.134(3) 0.2910(6)
C37 C 0.05787(9) 0.3098(3) 0.23054(6)
H26 H 0.0245(9) 0.208(3) 0.2140(6)
C38 C 0.08275(9) 0.4946(3) 0.20844(6)
H27 H 0.0690(9) 0.526(3) 0.1765(6)
C39 C 0.12775(9) 0.6368(3) 0.23115(6)
H28 H 0.1459(10) 0.769(3) 0.2153(6)
C40 C 0.14817(9) 0.5959(3) 0.27565(6)
H29 H 0.1800(9) 0.700(3) 0.2907(6)
C41 C 0.17159(8) 0.0359(2) 0.48981(5)
C42 C 0.15560(9) 0.2195(3) 0.51628(5)
H30 H 0.1237(9) 0.332(3) 0.5026(5)
C43 C 0.18254(9) 0.2406(3) 0.56017(6)
H31 H 0.1685(10) 0.366(3) 0.5794(6)
C44 C 0.22608(9) 0.0795(3) 0.57823(5)
H32 H 0.2436(9) 0.087(3) 0.6097(6)
C45 C 0.24264(9) -0.1023(3) 0.55225(5)
H33 H 0.2728(9) -0.216(3) 0.5654(6)
C46 C 0.21543(8) -0.1248(3) 0.50837(5)
H34 H 0.2276(9) -0.253(3) 0.4898(5)
loop_
_geom_bond_atom_site_label_1
_geom_bond_atom_site_label_2
_geom_bond_site_symmetry_1
_geom_bond_site_symmetry_2
O1 C7 1_555 1_555
O2 C8 1_555 1_555
N1 H1 1_555 1_555
C1 N1 1_555 1_555
C2 C1 1_555 1_555
H2 C2 1_555 1_555
C3 C2 1_555 1_555
H3 C3 1_555 1_555
C4 N1 1_555 1_555
C5 C4 1_555 1_555
C6 C5 1_555 1_555
H4 C6 1_555 1_555
C7 C6 1_555 1_555
C8 C7 1_555 1_555
C9 O2 1_555 1_555
H5 C9 1_555 1_555
C10 C9 1_555 1_555
H6 C10 1_555 1_555
C11 C8 1_555 1_555
H7 C11 1_555 1_555
C12 C1 1_555 1_555
C13 C12 1_555 1_555
H8 C13 1_555 1_555
C14 C13 1_555 1_555
H9 C14 1_555 1_555
C15 C14 1_555 1_555
H10 C15 1_555 1_555
C16 C15 1_555 1_555
H11 C16 1_555 1_555
C17 C12 1_555 1_555
H12 C17 1_555 1_555
C18 C5 1_555 1_555
C19 C18 1_555 1_555
H13 C19 1_555 1_555
C20 C19 1_555 1_555
H14 C20 1_555 1_555
C21 C20 1_555 1_555
H15 C21 1_555 1_555
C22 C21 1_555 1_555
H16 C22 1_555 1_555
C23 C18 1_555 1_555
H17 C23 1_555 1_555
O3 C30 1_555 1_555
O4 C31 1_555 1_555
N2 H18 1_555 1_555
C24 N2 1_555 1_555
C25 C24 1_555 1_555
H19 C25 1_555 1_555
C26 C25 1_555 1_555
H20 C26 1_555 1_555
C27 N2 1_555 1_555
C28 C27 1_555 1_555
C29 C28 1_555 1_555
H21 C29 1_555 1_555
C30 C29 1_555 1_555
C31 C30 1_555 1_555
C32 O4 1_555 1_555
H22 C32 1_555 1_555
C33 C32 1_555 1_555
H23 C33 1_555 1_555
C34 C31 1_555 1_555
H24 C34 1_555 1_555
C35 C24 1_555 1_555
C36 C35 1_555 1_555
H25 C36 1_555 1_555
C37 C36 1_555 1_555
H26 C37 1_555 1_555
C38 C37 1_555 1_555
H27 C38 1_555 1_555
C39 C38 1_555 1_555
H28 C39 1_555 1_555
C40 C35 1_555 1_555
H29 C40 1_555 1_555
C41 C28 1_555 1_555
C42 C41 1_555 1_555
H30 C42 1_555 1_555
C43 C42 1_555 1_555
H31 C43 1_555 1_555
C44 C43 1_555 1_555
H32 C44 1_555 1_555
C45 C44 1_555 1_555
H33 C45 1_555 1_555
C46 C41 1_555 1_555
H34 C46 1_555 1_555
C3 C4 1_555 1_555
C10 C11 1_555 1_555
C16 C17 1_555 1_555
C22 C23 1_555 1_555
C26 C27 1_555 1_555
C33 C34 1_555 1_555
C39 C40 1_555 1_555
C45 C46 1_555 1_555

#END
