
#######################################################################
#
#                 Cambridge Crystallographic Data Centre
#                                CCDC 
#
#######################################################################
#
# If this CIF has been generated from an entry in the Cambridge 
# Structural Database, then it will include bibliographic, chemical, 
# crystal, experimental, refinement or atomic coordinate data resulting 
# from the CCDC's data processing and validation procedures.
#
#######################################################################

data_LUHRUD
_chemical_formula_moiety         'C12 H13 Cl1 N2 O3'
_chemical_name_systematic        
6-chloro-3-ethyl-4-(nitromethyl)-3,4-dihydroquinolin-2(1H)-one
_symmetry_cell_setting           monoclinic
_symmetry_space_group_name_H-M   'P 21'
_symmetry_Int_Tables_number      4
_space_group_name_Hall           'P 2yb'
loop_
_symmetry_equiv_pos_site_id
_symmetry_equiv_pos_as_xyz
1 x,y,z
2 -x,1/2+y,-z
_cell_length_a                   11.126(9)
_cell_length_b                   8.548(7)
_cell_length_c                   13.382(10)
_cell_angle_alpha                90
_cell_angle_beta                 96.170(14)
_cell_angle_gamma                90
_cell_volume                     1265.32
_exptl_crystal_colour            yellow
_exptl_crystal_description       block
_cell_formula_units_Z            4
loop_
_atom_site_label
_atom_site_type_symbol
_atom_site_fract_x
_atom_site_fract_y
_atom_site_fract_z
Cl1 Cl 1.12804(6) 0.31731(10) 0.06051(5)
C1 C 0.9820(2) 0.3030(3) 0.09367(17)
C2 C 0.9368(3) 0.1632(3) 0.1219(2)
H1 H 0.9828 0.0725 0.1208
C3 C 0.8228(3) 0.1581(3) 0.1517(2)
H2 H 0.7905 0.0628 0.1690
C4 C 0.7560(2) 0.2921(3) 0.15617(17)
C5 C 0.8001(2) 0.4337(3) 0.12470(16)
C6 C 0.9145(2) 0.4383(3) 0.09363(16)
H3 H 0.9458 0.5322 0.0728
C7 C 0.7227(2) 0.5772(3) 0.12900(16)
H4 H 0.7749 0.6697 0.1346
C8 C 0.6532(2) 0.5683(3) 0.22177(18)
H5 H 0.5953 0.6549 0.2189
C9 C 0.5843(2) 0.4170(3) 0.2215(2)
C10 C 0.7376(3) 0.5810(4) 0.32038(18)
H6 H 0.6898 0.5683 0.3763
H7 H 0.7953 0.4957 0.3231
C11 C 0.8060(3) 0.7329(4) 0.3334(2)
H8 H 0.8616 0.7405 0.2835
H9 H 0.8499 0.7364 0.3991
H10 H 0.7501 0.8188 0.3257
C12 C 0.6378(2) 0.5880(3) 0.03178(19)
H11 H 0.6845 0.5887 -0.0254
H12 H 0.5848 0.4976 0.0258
N1 N 0.64027(19) 0.2893(2) 0.19121(16)
N2 N 0.5642(2) 0.7335(3) 0.0318(2)
O1 O 0.48388(18) 0.4091(2) 0.25227(16)
O2 O 0.4615(2) 0.7257(4) 0.0530(2)
O3 O 0.6115(3) 0.8555(3) 0.0170(3)
Cl2 Cl -0.10235(7) 1.10813(11) 0.44058(7)
C13 C 0.0367(2) 1.1081(4) 0.39294(18)
C14 C 0.0813(3) 1.2481(3) 0.3598(2)
H13 H 0.0372 1.3403 0.3624
C15 C 0.1919(2) 1.2478(3) 0.32315(19)
H14 H 0.2233 1.3409 0.3011
C16 C 0.2568(2) 1.1120(3) 0.31866(16)
C17 C 0.2111(2) 0.9702(3) 0.34964(17)
C18 C 0.0995(2) 0.9718(3) 0.38804(18)
H15 H 0.0676 0.8792 0.4105
C19 C 0.2838(2) 0.8252(3) 0.33958(18)
H16 H 0.2626 0.7489 0.3895
C20 C 0.2580(3) 0.7524(3) 0.2346(2)
H17 H 0.2775 0.8266 0.1840
H18 H 0.3076 0.6600 0.2297
C21 C 0.4185(2) 0.8615(3) 0.35983(18)
H19 H 0.4643 0.7686 0.3438
C22 C 0.4515(2) 0.9950(3) 0.29398(19)
C23 C 0.4540(3) 0.9050(4) 0.47002(19)
H20 H 0.4103 0.9988 0.4850
H21 H 0.4281 0.8216 0.5119
C24 C 0.5867(3) 0.9330(5) 0.4983(2)
H22 H 0.6311 0.8402 0.4853
H23 H 0.6006 0.9587 0.5684
H24 H 0.6131 1.0180 0.4591
N3 N 0.37011(18) 1.1134(3) 0.28103(16)
N4 N 0.1284(2) 0.7095(3) 0.21737(18)
O4 O 0.54747(18) 1.0001(2) 0.25776(16)
O5 O 0.0630(3) 0.7807(3) 0.1557(2)
O6 O 0.0927(2) 0.6071(3) 0.26919(17)
loop_
_geom_bond_atom_site_label_1
_geom_bond_atom_site_label_2
_geom_bond_site_symmetry_1
_geom_bond_site_symmetry_2
Cl1 C1 1_555 1_555
C1 C2 1_555 1_555
C2 H1 1_555 1_555
C3 C2 1_555 1_555
H2 C3 1_555 1_555
C4 C3 1_555 1_555
C5 C4 1_555 1_555
C6 C1 1_555 1_555
H3 C6 1_555 1_555
C7 C5 1_555 1_555
H4 C7 1_555 1_555
C8 C7 1_555 1_555
H5 C8 1_555 1_555
C9 C8 1_555 1_555
C10 C8 1_555 1_555
H6 C10 1_555 1_555
H7 C10 1_555 1_555
C11 C10 1_555 1_555
H8 C11 1_555 1_555
H9 C11 1_555 1_555
H10 C11 1_555 1_555
C12 C7 1_555 1_555
H11 C12 1_555 1_555
H12 C12 1_555 1_555
N1 C4 1_555 1_555
N2 C12 1_555 1_555
O1 C9 1_555 1_555
O2 N2 1_555 1_555
O3 N2 1_555 1_555
Cl2 C13 1_555 1_555
C13 C14 1_555 1_555
C14 H13 1_555 1_555
C15 C14 1_555 1_555
H14 C15 1_555 1_555
C16 C15 1_555 1_555
C17 C16 1_555 1_555
C18 C13 1_555 1_555
H15 C18 1_555 1_555
C19 C17 1_555 1_555
H16 C19 1_555 1_555
C20 C19 1_555 1_555
H17 C20 1_555 1_555
H18 C20 1_555 1_555
C21 C19 1_555 1_555
H19 C21 1_555 1_555
C22 C21 1_555 1_555
C23 C21 1_555 1_555
H20 C23 1_555 1_555
H21 C23 1_555 1_555
C24 C23 1_555 1_555
H22 C24 1_555 1_555
H23 C24 1_555 1_555
H24 C24 1_555 1_555
N3 C16 1_555 1_555
N4 C20 1_555 1_555
O4 C22 1_555 1_555
O5 N4 1_555 1_555
O6 N4 1_555 1_555
C5 C6 1_555 1_555
C9 N1 1_555 1_555
C17 C18 1_555 1_555
C22 N3 1_555 1_555

#END
