
#######################################################################
#
#                 Cambridge Crystallographic Data Centre
#                                CCDC 
#
#######################################################################
#
# If this CIF has been generated from an entry in the Cambridge 
# Structural Database, then it will include bibliographic, chemical, 
# crystal, experimental, refinement or atomic coordinate data resulting 
# from the CCDC's data processing and validation procedures.
#
#######################################################################

data_LUHTIT
_chemical_formula_moiety         'C27 H38 O3'
_chemical_name_systematic        
'17-ethynyl-3-oxoestr-4-en-17-yl heptanoate unknown solvate'
_symmetry_cell_setting           orthorhombic
_symmetry_space_group_name_H-M   'P 21 21 21'
_symmetry_Int_Tables_number      19
_space_group_name_Hall           'P 2ac 2ab'
loop_
_symmetry_equiv_pos_site_id
_symmetry_equiv_pos_as_xyz
1 x,y,z
2 1/2-x,-y,1/2+z
3 1/2+x,1/2-y,-z
4 -x,1/2+y,1/2-z
_cell_length_a                   6.09236(14)
_cell_length_b                   12.7347(3)
_cell_length_c                   30.1234(8)
_cell_angle_alpha                90
_cell_angle_beta                 90
_cell_angle_gamma                90
_cell_volume                     2337.11
_exptl_crystal_colour            colorless
_exptl_crystal_description       prism
_cell_formula_units_Z            4
loop_
_atom_site_label
_atom_site_type_symbol
_atom_site_fract_x
_atom_site_fract_y
_atom_site_fract_z
O1 O -0.1544(3) -0.39815(14) -0.41250(6)
O2 O 0.0620(3) -0.26047(15) -0.42865(7)
C1 C 0.0430(5) -0.7728(2) -0.34197(9)
H1 H 0.1751 -0.7808 -0.3602
C2 C 0.1247(4) -0.5813(2) -0.33857(9)
H2 H 0.2510 -0.5968 -0.3576
C3 C 0.0856(4) -0.6796(2) -0.31042(9)
H3 H -0.0446 -0.6686 -0.2919
C4 C 0.1953(5) -0.47736(19) -0.42550(9)
C5 C 0.1939(5) -0.8953(2) -0.28406(9)
C6 C -0.0660(4) -0.5541(2) -0.36976(9)
C7 C 0.1756(4) -0.4767(2) -0.31552(9)
H4 H 0.3274 -0.4742 -0.3058
H5 H 0.0808 -0.4662 -0.2900
C8 C -0.1161(5) -0.3011(2) -0.42901(10)
C9 C 0.0098(5) -0.8783(2) -0.31713(9)
H6 H -0.1287 -0.8743 -0.3007
C10 C -0.1472(5) -0.7494(2) -0.37399(9)
H7 H -0.2826 -0.7444 -0.3572
H8 H -0.1620 -0.8074 -0.3947
C11 C 0.2812(5) -0.7026(2) -0.28056(9)
H9 H 0.3020 -0.6447 -0.2601
H10 H 0.4127 -0.7088 -0.2985
C12 C 0.3356(5) -0.4971(2) -0.45154(10)
H11 H 0.4455 -0.5126 -0.4719
C13 C -0.1135(4) -0.6471(2) -0.40029(9)
H12 H 0.0080 -0.6561 -0.4208
H13 H -0.2442 -0.6325 -0.4176
C14 C -0.3311(5) -0.1358(2) -0.43404(11)
H14 H -0.3429 -0.1311 -0.4020
H15 H -0.1943 -0.1026 -0.4426
C15 C 0.0273(5) -0.4533(2) -0.39182(9)
C16 C 0.1306(5) -0.3928(2) -0.35181(9)
H16 H 0.2661 -0.3587 -0.3607
H17 H 0.0298 -0.3398 -0.3409
C17 C -0.3223(5) -0.2519(2) -0.44725(10)
H18 H -0.4498 -0.2882 -0.4356
H19 H -0.3240 -0.2582 -0.4793
C18 C -0.6721(5) 0.1103(2) -0.46720(10)
H20 H -0.8160 0.0930 -0.4555
H21 H -0.6728 0.0959 -0.4988
C19 C -0.2758(5) -0.5243(2) -0.34439(10)
H22 H -0.3184 -0.5813 -0.3254
H23 H -0.3915 -0.5100 -0.3652
H24 H -0.2487 -0.4629 -0.3267
C20 C -0.5204(5) -0.0752(2) -0.45477(10)
H25 H -0.6583 -0.1015 -0.4431
H26 H -0.5204 -0.0861 -0.4866
C21 C 0.2462(5) -0.8044(2) -0.25432(9)
H27 H 0.3780 -0.8201 -0.2375
H28 H 0.1269 -0.7945 -0.2334
C22 C -0.6262(6) 0.2270(2) -0.45962(11)
H29 H -0.7406 0.2680 -0.4730
H30 H -0.4878 0.2451 -0.4728
H31 H -0.6212 0.2410 -0.4283
C23 C -0.0064(6) -0.9699(2) -0.35012(10)
H32 H -0.1490 -0.9677 -0.3644
H33 H 0.1041 -0.9606 -0.3730
C24 C 0.2330(9) -1.0839(3) -0.30334(13)
C25 C -0.5007(5) 0.0422(2) -0.44481(10)
H34 H -0.5111 0.0524 -0.4130
H35 H -0.3564 0.0659 -0.4541
C26 C 0.0245(8) -1.0776(2) -0.32882(12)
H36 H -0.0978 -1.0918 -0.3091
H37 H 0.0247 -1.1310 -0.3518
C27 C 0.3014(6) -0.9864(3) -0.28077(11)
H38 H 0.4268 -0.9886 -0.2632
O3 O 0.3315(9) -1.1651(3) -0.29881(15)
loop_
_geom_bond_atom_site_label_1
_geom_bond_atom_site_label_2
_geom_bond_site_symmetry_1
_geom_bond_site_symmetry_2
O1 C8 1_555 1_555
O2 C8 1_555 1_555
C1 H1 1_555 1_555
C2 H2 1_555 1_555
C3 C1 1_555 1_555
H3 C3 1_555 1_555
C4 C12 1_555 1_555
C5 C9 1_555 1_555
C6 C2 1_555 1_555
C7 C2 1_555 1_555
H4 C7 1_555 1_555
H5 C7 1_555 1_555
C8 C17 1_555 1_555
C9 C1 1_555 1_555
H6 C9 1_555 1_555
C10 C1 1_555 1_555
H7 C10 1_555 1_555
H8 C10 1_555 1_555
C11 C3 1_555 1_555
H9 C11 1_555 1_555
H10 C11 1_555 1_555
C12 H11 1_555 1_555
C13 C6 1_555 1_555
H12 C13 1_555 1_555
H13 C13 1_555 1_555
C14 H14 1_555 1_555
H15 C14 1_555 1_555
C15 O1 1_555 1_555
C16 C7 1_555 1_555
H16 C16 1_555 1_555
H17 C16 1_555 1_555
C17 C14 1_555 1_555
H18 C17 1_555 1_555
H19 C17 1_555 1_555
C18 H20 1_555 1_555
H21 C18 1_555 1_555
C19 C6 1_555 1_555
H22 C19 1_555 1_555
H23 C19 1_555 1_555
H24 C19 1_555 1_555
C20 C14 1_555 1_555
H25 C20 1_555 1_555
H26 C20 1_555 1_555
C21 C5 1_555 1_555
H27 C21 1_555 1_555
H28 C21 1_555 1_555
C22 C18 1_555 1_555
H29 C22 1_555 1_555
H30 C22 1_555 1_555
H31 C22 1_555 1_555
C23 C9 1_555 1_555
H32 C23 1_555 1_555
H33 C23 1_555 1_555
C24 C26 1_555 1_555
C25 C18 1_555 1_555
H34 C25 1_555 1_555
H35 C25 1_555 1_555
C26 C23 1_555 1_555
H36 C26 1_555 1_555
H37 C26 1_555 1_555
C27 C5 1_555 1_555
H38 C27 1_555 1_555
O3 C24 1_555 1_555
C2 C3 1_555 1_555
C4 C15 1_555 1_555
C6 C15 1_555 1_555
C10 C13 1_555 1_555
C11 C21 1_555 1_555
C15 C16 1_555 1_555
C20 C25 1_555 1_555
C24 C27 1_555 1_555

#END
