
#######################################################################
#
#                 Cambridge Crystallographic Data Centre
#                                CCDC 
#
#######################################################################
#
# If this CIF has been generated from an entry in the Cambridge 
# Structural Database, then it will include bibliographic, chemical, 
# crystal, experimental, refinement or atomic coordinate data resulting 
# from the CCDC's data processing and validation procedures.
#
#######################################################################

data_LUHVUG
_chemical_formula_moiety         'C22 H24 N2 O2'
_chemical_name_systematic        
4,4'-(Biphenyl-4,4'-diyldinitrilo)bis(pent-2-en-2-ol)
_symmetry_cell_setting           triclinic
_symmetry_space_group_name_H-M   'P -1'
_symmetry_Int_Tables_number      2
_space_group_name_Hall           '-P 1'
loop_
_symmetry_equiv_pos_site_id
_symmetry_equiv_pos_as_xyz
1 x,y,z
2 -x,-y,-z
_cell_length_a                   7.6372(6)
_cell_length_b                   8.0694(6)
_cell_length_c                   8.8376(6)
_cell_angle_alpha                70.095(2)
_cell_angle_beta                 68.809(3)
_cell_angle_gamma                66.769(2)
_cell_volume                     454.024
_exptl_crystal_colour            yellow
_exptl_crystal_description       prism
_chemical_melting_point          '161-163 deg.C'
_cell_formula_units_Z            1
loop_
_atom_site_label
_atom_site_type_symbol
_atom_site_fract_x
_atom_site_fract_y
_atom_site_fract_z
N1 N 0.4722(3) 0.9593(3) 0.8152(3)
O1 O 0.1813(3) 0.9426(2) 1.0948(2)
H1 H 0.2855 0.9021 1.0284
C1 C 0.6591(4) 0.6522(4) 0.7876(3)
H2 H 0.5815 0.6137 0.8930
C2 C 0.2282(4) 1.2189(3) 0.9060(3)
H3 H 0.1782 1.3474 0.8876
C3 C 0.9241(3) 0.5702(3) 0.5463(3)
C4 C 0.6266(4) 0.8411(3) 0.7190(3)
C5 C 0.8930(4) 0.7598(4) 0.4795(3)
H4 H 0.9725 0.7985 0.3752
C6 C 0.8024(4) 0.5200(4) 0.7048(3)
H5 H 0.8184 0.3952 0.7553
C7 C 0.7487(4) 0.8926(4) 0.5619(3)
H6 H 0.7328 1.0176 0.5121
C8 C -0.0654(4) 1.2199(4) 1.1550(4)
H7 H -0.1210 1.1346 1.2478
H8 H -0.1572 1.2911 1.0881
H9 H -0.0389 1.3017 1.1953
C9 C 0.1231(4) 1.1143(4) 1.0515(3)
C10 C 0.3952(4) 1.1461(3) 0.7923(3)
C11 C 0.4894(5) 1.2731(4) 0.6466(4)
H10 H 0.6042 1.2011 0.5787
H11 H 0.5272 1.3479 0.6859
H12 H 0.3971 1.3519 0.5816
N1A N 1.5278(3) 0.0407(3) 0.1848(3)
O1A O 1.8187(3) 0.0574(2) -0.0948(2)
H1A H 1.7145 0.0979 -0.0284
C1A C 1.3409(4) 0.3478(4) 0.2124(3)
H2A H 1.4185 0.3863 0.1070
C2A C 1.7718(4) -0.2189(3) 0.0940(3)
H3A H 1.8218 -0.3474 0.1124
C3A C 1.0759(3) 0.4298(3) 0.4537(3)
C4A C 1.3734(4) 0.1589(3) 0.2810(3)
C5A C 1.1070(4) 0.2402(4) 0.5205(3)
H4A H 1.0275 0.2015 0.6248
C6A C 1.1976(4) 0.4800(4) 0.2952(3)
H5A H 1.1816 0.6048 0.2447
C7A C 1.2513(4) 0.1074(4) 0.4381(3)
H6A H 1.2672 -0.0176 0.4879
C8A C 2.0654(4) -0.2199(4) -0.1550(4)
H7A H 2.1210 -0.1346 -0.2478
H8A H 2.1572 -0.2911 -0.0881
H9A H 2.0389 -0.3017 -0.1953
C9A C 1.8769(4) -0.1143(4) -0.0515(3)
C10A C 1.6048(4) -0.1461(3) 0.2077(3)
C11A C 1.5106(5) -0.2731(4) 0.3534(4)
H10A H 1.3958 -0.2011 0.4213
H11A H 1.4728 -0.3479 0.3141
H12A H 1.6029 -0.3519 0.4184
loop_
_geom_bond_atom_site_label_1
_geom_bond_atom_site_label_2
_geom_bond_site_symmetry_1
_geom_bond_site_symmetry_2
N1 C4 1_555 1_555
O1 H1 1_555 1_555
C1 H2 1_555 1_555
C2 H3 1_555 1_555
C3 C5 1_555 1_555
C4 C1 1_555 1_555
C5 H4 1_555 1_555
C6 C1 1_555 1_555
H5 C6 1_555 1_555
C7 C4 1_555 1_555
H6 C7 1_555 1_555
C8 H7 1_555 1_555
H8 C8 1_555 1_555
H9 C8 1_555 1_555
C9 O1 1_555 1_555
C10 N1 1_555 1_555
C11 C10 1_555 1_555
H10 C11 1_555 1_555
H11 C11 1_555 1_555
H12 C11 1_555 1_555
N1A C4A 1_555 1_555
O1A H1A 1_555 1_555
C1A H2A 1_555 1_555
C2A H3A 1_555 1_555
C3A C3 1_555 1_555
C4A C1A 1_555 1_555
C5A C3A 1_555 1_555
H4A C5A 1_555 1_555
C6A C1A 1_555 1_555
H5A C6A 1_555 1_555
C7A C4A 1_555 1_555
H6A C7A 1_555 1_555
C8A H7A 1_555 1_555
H8A C8A 1_555 1_555
H9A C8A 1_555 1_555
C9A O1A 1_555 1_555
C10A N1A 1_555 1_555
C11A C10A 1_555 1_555
H10A C11A 1_555 1_555
H11A C11A 1_555 1_555
H12A C11A 1_555 1_555
C2 C9 1_555 1_555
C2 C10 1_555 1_555
C3 C6 1_555 1_555
C5 C7 1_555 1_555
C8 C9 1_555 1_555
C2A C9A 1_555 1_555
C2A C10A 1_555 1_555
C3A C6A 1_555 1_555
C5A C7A 1_555 1_555
C8A C9A 1_555 1_555

#END
