
#######################################################################
#
#                 Cambridge Crystallographic Data Centre
#                                CCDC 
#
#######################################################################
#
# If this CIF has been generated from an entry in the Cambridge 
# Structural Database, then it will include bibliographic, chemical, 
# crystal, experimental, refinement or atomic coordinate data resulting 
# from the CCDC's data processing and validation procedures.
#
#######################################################################

data_LUHVOB
_chemical_formula_moiety         'C32 H24 N2 O1 S1'
_chemical_name_systematic        
2-benzoyl-3-(isoquinolin-1-yl)-3-phenyl-2-((phenylsulfanyl)methyl)propanenitrile
_symmetry_cell_setting           triclinic
_symmetry_space_group_name_H-M   'P -1'
_symmetry_Int_Tables_number      2
_space_group_name_Hall           '-P 1'
loop_
_symmetry_equiv_pos_site_id
_symmetry_equiv_pos_as_xyz
1 x,y,z
2 -x,-y,-z
_cell_length_a                   9.4724(19)
_cell_length_b                   12.292(3)
_cell_length_c                   12.563(3)
_cell_angle_alpha                104.00(3)
_cell_angle_beta                 109.97(3)
_cell_angle_gamma                102.72(3)
_cell_volume                     1258.29
_exptl_crystal_colour            colorless
_exptl_crystal_description       block
_cell_formula_units_Z            2
loop_
_atom_site_label
_atom_site_type_symbol
_atom_site_fract_x
_atom_site_fract_y
_atom_site_fract_z
C1 C 0.6378(3) 0.0771(2) 0.1502(2)
H1 H 0.7041 0.0683 0.1110
C2 C 0.5937(3) -0.0080(2) 0.1946(2)
H2 H 0.6275 -0.0738 0.1844
C3 C 0.4955(2) 0.0046(2) 0.25686(19)
C4 C 0.4432(3) -0.0798(2) 0.3065(2)
H3 H 0.4737 -0.1472 0.2987
C5 C 0.3492(3) -0.0632(3) 0.3653(3)
H4 H 0.3156 -0.1194 0.3972
C6 C 0.3023(3) 0.0375(2) 0.3783(2)
H5 H 0.2383 0.0479 0.4193
C7 C 0.3494(3) 0.1208(2) 0.3315(2)
H6 H 0.3174 0.1875 0.3410
C8 C 0.4466(2) 0.10632(19) 0.26860(18)
C9 C 0.4981(2) 0.18818(19) 0.21482(18)
C10 C 0.4383(2) 0.29359(18) 0.21595(18)
H7 H 0.4515 0.3314 0.2985
C11 C 0.2598(2) 0.25141(19) 0.13384(19)
C12 C 0.1941(3) 0.1603(2) 0.0228(2)
H8 H 0.2593 0.1249 -0.0033
C13 C 0.0321(3) 0.1216(3) -0.0492(3)
H9 H -0.0106 0.0611 -0.1237
C14 C -0.0660(3) 0.1727(3) -0.0107(3)
H10 H -0.1748 0.1462 -0.0589
C15 C -0.0025(3) 0.2625(3) 0.0985(3)
H11 H -0.0681 0.2973 0.1247
C16 C 0.1597(3) 0.3014(2) 0.1701(2)
H12 H 0.2019 0.3626 0.2440
C17 C 0.5395(2) 0.38856(18) 0.18400(18)
C18 C 0.5097(3) 0.3390(2) 0.0556(2)
C19 C 0.7179(2) 0.42784(19) 0.27275(18)
C20 C 0.8487(2) 0.4940(2) 0.2481(2)
C21 C 0.8260(3) 0.5246(2) 0.1452(2)
H13 H 0.7237 0.5031 0.0857
C22 C 0.9554(3) 0.5868(3) 0.1316(3)
H14 H 0.9396 0.6066 0.0625
C23 C 1.1072(3) 0.6197(3) 0.2193(3)
H15 H 1.1940 0.6590 0.2082
C24 C 1.1304(3) 0.5943(3) 0.3237(3)
H16 H 1.2323 0.6201 0.3849
C25 C 1.0022(3) 0.5305(2) 0.3376(2)
H17 H 1.0189 0.5118 0.4073
C26 C 0.4870(2) 0.50134(19) 0.1961(2)
H18 H 0.3741 0.4764 0.1450
H19 H 0.5428 0.5528 0.1653
C27 C 0.7220(3) 0.6825(2) 0.4087(2)
C28 C 0.7736(3) 0.7561(2) 0.3521(2)
H20 H 0.7037 0.7542 0.2782
C29 C 0.9288(3) 0.8323(3) 0.4055(3)
H21 H 0.9637 0.8804 0.3666
C30 C 1.0316(3) 0.8374(3) 0.5154(3)
H22 H 1.1353 0.8902 0.5517
C31 C 0.9817(3) 0.7645(3) 0.5724(3)
H23 H 1.0517 0.7679 0.6470
C32 C 0.8268(3) 0.6861(3) 0.5184(2)
H24 H 0.7935 0.6358 0.5561
N1 N 0.5910(2) 0.17516(17) 0.15951(17)
N2 N 0.4770(3) 0.3061(2) -0.04546(18)
O1 O 0.74727(17) 0.40965(15) 0.36717(13)
S1 S 0.52118(7) 0.58748(6) 0.34657(6)
loop_
_geom_bond_atom_site_label_1
_geom_bond_atom_site_label_2
_geom_bond_site_symmetry_1
_geom_bond_site_symmetry_2
C1 H1 1_555 1_555
C2 C1 1_555 1_555
H2 C2 1_555 1_555
C3 C2 1_555 1_555
C4 C3 1_555 1_555
H3 C4 1_555 1_555
C5 C4 1_555 1_555
H4 C5 1_555 1_555
C6 C5 1_555 1_555
H5 C6 1_555 1_555
C7 C6 1_555 1_555
H6 C7 1_555 1_555
C8 C3 1_555 1_555
C9 C8 1_555 1_555
C10 C9 1_555 1_555
H7 C10 1_555 1_555
C11 C10 1_555 1_555
C12 C11 1_555 1_555
H8 C12 1_555 1_555
C13 C12 1_555 1_555
H9 C13 1_555 1_555
C14 C13 1_555 1_555
H10 C14 1_555 1_555
C15 C14 1_555 1_555
H11 C15 1_555 1_555
C16 C11 1_555 1_555
H12 C16 1_555 1_555
C17 C10 1_555 1_555
C18 C17 1_555 1_555
C19 C17 1_555 1_555
C20 C19 1_555 1_555
C21 C20 1_555 1_555
H13 C21 1_555 1_555
C22 C21 1_555 1_555
H14 C22 1_555 1_555
C23 C22 1_555 1_555
H15 C23 1_555 1_555
C24 C23 1_555 1_555
H16 C24 1_555 1_555
C25 C20 1_555 1_555
H17 C25 1_555 1_555
C26 C17 1_555 1_555
H18 C26 1_555 1_555
H19 C26 1_555 1_555
C27 C28 1_555 1_555
C28 H20 1_555 1_555
C29 C28 1_555 1_555
H21 C29 1_555 1_555
C30 C29 1_555 1_555
H22 C30 1_555 1_555
C31 C30 1_555 1_555
H23 C31 1_555 1_555
C32 C27 1_555 1_555
H24 C32 1_555 1_555
N1 C1 1_555 1_555
N2 C18 1_555 1_555
O1 C19 1_555 1_555
S1 C26 1_555 1_555
C7 C8 1_555 1_555
C9 N1 1_555 1_555
C15 C16 1_555 1_555
C24 C25 1_555 1_555
C27 S1 1_555 1_555
C31 C32 1_555 1_555

#END
