
#######################################################################
#
#                 Cambridge Crystallographic Data Centre
#                                CCDC 
#
#######################################################################
#
# If this CIF has been generated from an entry in the Cambridge 
# Structural Database, then it will include bibliographic, chemical, 
# crystal, experimental, refinement or atomic coordinate data resulting 
# from the CCDC's data processing and validation procedures.
#
#######################################################################

data_LUHWAN
_chemical_compound_source        'stems of Gelsemium elegans BENTH'
_chemical_name_common            
'11,14-hydroxygelsenicine ethanol solvate monohydrate'
_chemical_formula_moiety         'C19 H22 N2 O5,C2 H6 O1,H2 O1'
_chemical_name_systematic        
"(3S,6'R)-2'-Ethyl-3a',4',8',8a'-tetrahydro-6,9'-dihydroxy-1-methoxy-3'H,6'H-spiro(indole-3,7'-[3,6]methanooxepino[4,3-b]pyrrol)-2(1H)-one ethanol solvate monohydrate"
_chemical_properties_biological  
'Source plant used in TCM in treatment of pain, spasticity and skin ulcers'
_symmetry_cell_setting           orthorhombic
_symmetry_space_group_name_H-M   'P 21 21 21'
_symmetry_Int_Tables_number      19
_space_group_name_Hall           'P 2ac 2ab'
loop_
_symmetry_equiv_pos_site_id
_symmetry_equiv_pos_as_xyz
1 x,y,z
2 1/2-x,-y,1/2+z
3 -x,1/2+y,1/2-z
4 1/2+x,1/2-y,-z
_cell_length_a                   8.7326(6)
_cell_length_b                   13.0882(9)
_cell_length_c                   18.6300(13)
_cell_angle_alpha                90
_cell_angle_beta                 90
_cell_angle_gamma                90
_cell_volume                     2129.3
_exptl_crystal_colour            colorless
_exptl_crystal_description       prismatic
_chemical_melting_point          '183-184.5 deg.C'
_cell_formula_units_Z            4
loop_
_atom_site_label
_atom_site_type_symbol
_atom_site_fract_x
_atom_site_fract_y
_atom_site_fract_z
N1 N 0.9635(3) 0.17038(18) 0.10409(13)
N2 N 1.0637(3) 0.48718(18) 0.19677(13)
O1 O 1.1416(2) 0.25551(18) 0.17013(12)
O2 O 1.0654(2) 0.10747(15) 0.06888(11)
O3 O 0.4743(3) 0.02013(19) 0.03105(13)
H1 H 0.5207 0.0011 -0.0048
O4 O 0.7256(3) 0.31253(17) 0.29995(11)
O5 O 0.9820(3) 0.27984(17) 0.38997(11)
H2 H 0.9427 0.2233 0.3947
C1 C 1.0101(3) 0.2375(2) 0.15610(14)
C2 C 0.8609(3) 0.26694(19) 0.27353(13)
H3 H 0.8502 0.1935 0.2823
C3 C 0.8958(3) 0.4800(2) 0.20877(15)
H4 H 0.8477 0.5438 0.1930
C4 C 0.8286(3) 0.39160(18) 0.16603(14)
H5 H 0.8639 0.3984 0.1169
H6 H 0.7183 0.4003 0.1653
C5 C 0.8621(3) 0.28024(18) 0.19028(13)
C6 C 0.7397(3) 0.21300(19) 0.15597(13)
C7 C 0.5823(3) 0.2090(2) 0.16462(15)
H7 H 0.5343 0.2501 0.1985
C8 C 0.4966(4) 0.1429(2) 0.12222(16)
H8 H 0.3910 0.1396 0.1282
C9 C 0.5668(3) 0.0817(2) 0.07117(15)
C10 C 0.7253(3) 0.0842(2) 0.06123(14)
H9 H 0.7739 0.0430 0.0275
C11 C 0.8055(3) 0.15100(19) 0.10417(13)
C12 C 1.0031(4) 0.3009(2) 0.31540(14)
H10 H 1.0938 0.2649 0.2975
C13 C 1.0285(3) 0.4171(2) 0.31116(14)
H11 H 1.0666 0.4432 0.3571
C14 C 0.8793(3) 0.4708(2) 0.29069(15)
H12 H 0.8826 0.5400 0.3108
C15 C 0.7382(4) 0.4188(2) 0.31980(16)
H13 H 0.7391 0.4239 0.3717
H14 H 0.6484 0.4549 0.3026
C16 C 1.3862(4) 0.4793(4) 0.1910(2)
H15 H 1.3592 0.4387 0.1500
H16 H 1.4945 0.4744 0.1993
H17 H 1.3592 0.5493 0.1822
C17 C 1.3016(4) 0.4412(3) 0.25571(17)
H18 H 1.3280 0.3701 0.2633
H19 H 1.3361 0.4793 0.2974
C18 C 1.1329(3) 0.44988(19) 0.25078(14)
C19 C 1.1183(6) 0.1537(4) 0.0046(2)
H20 H 1.0341 0.1622 -0.0280
H21 H 1.1947 0.1110 -0.0171
H22 H 1.1620 0.2193 0.0154
O6 O 0.1268(3) 0.58913(17) 0.07070(12)
H26 H 0.1114 0.5502 0.1147
H30 H 0.187(8) 0.603(6) 0.039(4)
O7 O 0.4188(5) 0.6348(3) 0.02033(18)
C20 C 0.6259(17) 0.7066(12) 0.0958(7)
H23 H 0.7268 0.6948 0.1144
H24 H 0.6289 0.7619 0.0620
H25 H 0.5580 0.7237 0.1345
H27 H 0.4220 0.6725 -0.0308
C21 C 0.5828(17) 0.6276(10) 0.0523(6)
H28 H 0.5903 0.5646 0.0796
H29 H 0.6552 0.6230 0.0130
C22? C 0.4897(13) 0.7082(8) 0.0639(4)
H31? H 0.4902 0.7700 0.0353
H32? H 0.4173 0.7205 0.1025
H33? H 0.6378 0.7669 0.1245
H34? H 0.7049 0.7044 0.0600
H35? H 0.6333 0.6472 0.1259
loop_
_geom_bond_atom_site_label_1
_geom_bond_atom_site_label_2
_geom_bond_site_symmetry_1
_geom_bond_site_symmetry_2
N1 O2 1_555 1_555
N2 C3 1_555 1_555
O1 C1 1_555 1_555
O2 C19 1_555 1_555
O3 H1 1_555 1_555
O4 C2 1_555 1_555
O5 H2 1_555 1_555
O6 H26 1_555 1_555
O7 H27 1_555 1_555
C1 N1 1_555 1_555
C2 H3 1_555 1_555
C3 H4 1_555 1_555
C4 C3 1_555 1_555
H5 C4 1_555 1_555
H6 C4 1_555 1_555
C5 C1 1_555 1_555
C6 C5 1_555 1_555
C7 C6 1_555 1_555
H7 C7 1_555 1_555
C8 C7 1_555 1_555
H8 C8 1_555 1_555
C9 O3 1_555 1_555
C10 C9 1_555 1_555
H9 C10 1_555 1_555
C11 N1 1_555 1_555
C12 O5 1_555 1_555
H10 C12 1_555 1_555
C13 C12 1_555 1_555
H11 C13 1_555 1_555
C14 C3 1_555 1_555
H12 C14 1_555 1_555
C15 O4 1_555 1_555
H13 C15 1_555 1_555
H14 C15 1_555 1_555
C16 H15 1_555 1_555
H16 C16 1_555 1_555
H17 C16 1_555 1_555
C17 C16 1_555 1_555
H18 C17 1_555 1_555
H19 C17 1_555 1_555
C18 N2 1_555 1_555
C19 H20 1_555 1_555
H21 C19 1_555 1_555
H22 C19 1_555 1_555
C20 H23 1_555 1_555
H24 C20 1_555 1_555
H25 C20 1_555 1_555
C21 O7 1_555 1_555
H28 C21 1_555 1_555
H29 C21 1_555 1_555
H30 O6 1_555 1_555
C2 C5 1_555 1_555
C2 C12 1_555 1_555
C4 C5 1_555 1_555
C6 C11 1_555 1_555
C8 C9 1_555 1_555
C10 C11 1_555 1_555
C13 C14 1_555 1_555
C13 C18 1_555 1_555
C14 C15 1_555 1_555
C17 C18 1_555 1_555
C20 C21 1_555 1_555

#END
