
#######################################################################
#
#                 Cambridge Crystallographic Data Centre
#                                CCDC 
#
#######################################################################
#
# If this CIF has been generated from an entry in the Cambridge 
# Structural Database, then it will include bibliographic, chemical, 
# crystal, experimental, refinement or atomic coordinate data resulting 
# from the CCDC's data processing and validation procedures.
#
#######################################################################

data_LUJCOJ
_chemical_formula_moiety         'C20 H14 O2,C10 H8 N2'
_chemical_name_systematic        "1,1'-Binaphthalene-2,2'-diol 4,4'-bipyridine"
_symmetry_cell_setting           orthorhombic
_symmetry_space_group_name_H-M   'P c a 21'
_symmetry_Int_Tables_number      29
_space_group_name_Hall           'P 2c -2ac'
loop_
_symmetry_equiv_pos_site_id
_symmetry_equiv_pos_as_xyz
1 x,y,z
2 -x,-y,1/2+z
3 1/2-x,y,1/2+z
4 1/2+x,-y,z
_cell_length_a                   17.6103(8)
_cell_length_b                   9.5075(4)
_cell_length_c                   27.3059(13)
_cell_angle_alpha                90
_cell_angle_beta                 90
_cell_angle_gamma                90
_cell_volume                     4571.82
_exptl_crystal_colour            colorless
_exptl_crystal_description       block
_cell_formula_units_Z            8
loop_
_atom_site_label
_atom_site_type_symbol
_atom_site_fract_x
_atom_site_fract_y
_atom_site_fract_z
O1 O 1.0580(2) 0.3292(4) 0.50000(16)
H1 H 1.101(2) 0.368(8) 0.495(3)
O2 O 1.1097(2) 0.0875(4) 0.40376(15)
H2 H 1.120(3) 0.089(5) 0.3730(6)
C1 C 1.04470(6) 0.07664(10) 0.49731(5)
C2 C 1.06992(7) 0.19814(11) 0.52061(5)
C3 C 1.11415(7) 0.18821(11) 0.56269(6)
H3 H 1.1310 0.2694 0.5783
C4 C 1.13314(7) 0.05681(10) 0.58148(6)
H4 H 1.1627 0.0502 0.6096
C5 C 1.10793(7) -0.06469(11) 0.55819(6)
C6 C 1.06372(7) -0.05477(11) 0.51609(5)
C7 C 1.03850(6) -0.17627(12) 0.49279(4)
H5 H 1.0090 -0.1696 0.4647
C8 C 1.05750(6) -0.30768(14) 0.51158(5)
H6 H 1.0406 -0.3889 0.4960
C9 C 1.10173(7) -0.31760(14) 0.55366(6)
H7 H 1.1144 -0.4054 0.5662
C10 C 1.12694(7) -0.19610(12) 0.57696(6)
H8 H 1.1565 -0.2027 0.6051
C11 C 0.99503(6) 0.09277(11) 0.45014(4)
C12 C 1.03203(6) 0.09630(11) 0.40512(4)
C13 C 0.99010(6) 0.10255(11) 0.36199(4)
H9 H 1.0148 0.1049 0.3319
C14 C 0.91115(7) 0.10523(11) 0.36386(4)
H10 H 0.8831 0.1094 0.3350
C15 C 0.87413(7) 0.10169(11) 0.40886(4)
C16 C 0.91607(7) 0.09544(11) 0.45200(4)
C17 C 0.87906(7) 0.09190(11) 0.49702(5)
H11 H 0.9071 0.0877 0.5258
C18 C 0.80012(9) 0.09457(11) 0.49889(5)
H12 H 0.7754 0.0922 0.5290
C19 C 0.75818(9) 0.10082(11) 0.45575(4)
H13 H 0.7054 0.1026 0.4570
C20 C 0.79518(9) 0.10437(11) 0.41074(4)
H14 H 0.7671 0.1085 0.3819
N1 N 1.2079(3) 0.4043(5) 0.4813(2)
N2 N 1.56036(16) 0.40498(14) 0.35516(4)
C21 C 1.2417(4) 0.2861(6) 0.4682(3)
H15 H 1.2167 0.2019 0.4745
C22 C 1.3107(3) 0.2798(5) 0.4463(2)
H16 H 1.3317 0.1929 0.4383
C23 C 1.3503(3) 0.4030(5) 0.43555(18)
C24 C 1.3152(3) 0.5264(6) 0.4502(3)
H17 H 1.3389 0.6125 0.4449
C25 C 1.2458(4) 0.5215(6) 0.4725(3)
H18 H 1.2238 0.6061 0.4820
C26 C 1.5118(3) 0.2959(6) 0.3537(2)
H19 H 1.5245 0.2193 0.3341
C27 C 1.4442(3) 0.2903(5) 0.37936(19)
H20 H 1.4129 0.2119 0.3768
C28 C 1.4236(3) 0.4024(5) 0.40894(17)
C29 C 1.4744(3) 0.5141(5) 0.4121(2)
H21 H 1.4639 0.5904 0.4323
C30 C 1.5405(3) 0.5105(6) 0.3850(2)
H22 H 1.5735 0.5866 0.3876
N3 N 1.5360(3) 0.0873(5) 0.1890(2)
N4 N 1.1835(3) 0.0818(5) 0.31454(18)
C31 C 1.5017(3) 0.2047(6) 0.2036(3)
H23 H 1.5267 0.2897 0.1986
C32 C 1.4316(3) 0.2076(6) 0.2259(3)
H24 H 1.4101 0.2931 0.2348
C33 C 1.3932(3) 0.0846(5) 0.23484(19)
C34 C 1.4279(3) -0.0367(6) 0.2187(3)
H25 H 1.4039 -0.1230 0.2228
C35 C 1.4984(4) -0.0305(6) 0.1966(3)
H26 H 1.5205 -0.1144 0.1864
C36 C 1.2322(3) 0.1909(6) 0.3169(2)
H27 H 1.2200 0.2667 0.3370
C37 C 1.2992(3) 0.1955(6) 0.29116(19)
H28 H 1.3308 0.2736 0.2937
C38 C 1.3197(3) 0.0838(5) 0.26145(18)
C39 C 1.2693(3) -0.0274(6) 0.2587(2)
H29 H 1.2801 -0.1041 0.2387
C40 C 1.2032(3) -0.0244(7) 0.2854(2)
H30 H 1.1704 -0.1008 0.2831
O3 O 1.6823(2) 0.1920(4) 0.17509(17)
H31 H 1.6379(16) 0.157(7) 0.173(3)
O4 O 1.63218(19) 0.4214(5) 0.26701(14)
H32 H 1.61219(8) 0.40481(12) 0.29505(7)
C41 C 1.69804(7) 0.44413(12) 0.17379(6)
C42 C 1.66898(7) 0.32147(13) 0.15308(6)
C43 C 1.62492(8) 0.32870(13) 0.11076(7)
H33 H 1.6055 0.2468 0.0969
C44 C 1.60990(9) 0.45858(12) 0.08918(7)
H34 H 1.5805 0.4634 0.0609
C45 C 1.63896(8) 0.58123(12) 0.10990(7)
C46 C 1.68303(7) 0.57402(12) 0.15222(6)
C47 C 1.71208(7) 0.69667(14) 0.17295(6)
H35 H 1.7415 0.6919 0.2012
C48 C 1.69707(7) 0.82655(17) 0.15136(6)
H36 H 1.7165 0.9084 0.1652
C49 C 1.65300(8) 0.83378(17) 0.10904(7)
H37 H 1.6430 0.9204 0.0946
C50 C 1.62395(8) 0.71113(14) 0.08832(7)
H38 H 1.5945 0.7159 0.0601
C51 C 1.74837(6) 0.42939(12) 0.22114(6)
C52 C 1.71032(7) 0.42039(12) 0.26579(6)
C53 C 1.75139(6) 0.40753(12) 0.30920(7)
H39 H 1.7260 0.4015 0.3390
C54 C 1.83047(7) 0.40365(12) 0.30794(7)
H40 H 1.8579 0.3950 0.3369
C55 C 1.86850(7) 0.41266(12) 0.26330(6)
C56 C 1.82745(7) 0.42552(12) 0.21989(6)
C57 C 1.86546(7) 0.43454(12) 0.17524(6)
H41 H 1.8381 0.4431 0.1463
C58 C 1.94456(9) 0.43066(12) 0.17400(6)
H42 H 1.9699 0.4367 0.1442
C59 C 1.98561(10) 0.41779(12) 0.21739(6)
H43 H 2.0384 0.4152 0.2165
C60 C 1.94759(9) 0.40879(12) 0.26205(6)
H44 H 1.9750 0.4002 0.2910
loop_
_geom_bond_atom_site_label_1
_geom_bond_atom_site_label_2
_geom_bond_site_symmetry_1
_geom_bond_site_symmetry_2
O1 H1 1_555 1_555
O2 H2 1_555 1_555
N1 C21 1_555 1_555
N2 C26 1_555 1_555
C1 C2 1_555 1_555
C2 O1 1_555 1_555
C3 C2 1_555 1_555
H3 C3 1_555 1_555
C4 C3 1_555 1_555
H4 C4 1_555 1_555
C5 C4 1_555 1_555
C6 C1 1_555 1_555
C7 C6 1_555 1_555
H5 C7 1_555 1_555
C8 C7 1_555 1_555
H6 C8 1_555 1_555
C9 C8 1_555 1_555
H7 C9 1_555 1_555
C10 C5 1_555 1_555
H8 C10 1_555 1_555
C11 C1 1_555 1_555
C12 O2 1_555 1_555
C13 C12 1_555 1_555
H9 C13 1_555 1_555
C14 C13 1_555 1_555
H10 C14 1_555 1_555
C15 C14 1_555 1_555
C16 C11 1_555 1_555
C17 C16 1_555 1_555
H11 C17 1_555 1_555
C18 C17 1_555 1_555
H12 C18 1_555 1_555
C19 C18 1_555 1_555
H13 C19 1_555 1_555
C20 C15 1_555 1_555
H14 C20 1_555 1_555
C21 H15 1_555 1_555
C22 C21 1_555 1_555
H16 C22 1_555 1_555
C23 C22 1_555 1_555
C24 C23 1_555 1_555
H17 C24 1_555 1_555
C25 N1 1_555 1_555
H18 C25 1_555 1_555
C26 H19 1_555 1_555
C27 C26 1_555 1_555
H20 C27 1_555 1_555
C28 C23 1_555 1_555
C29 C28 1_555 1_555
H21 C29 1_555 1_555
C30 N2 1_555 1_555
H22 C30 1_555 1_555
N3 C31 1_555 1_555
N4 C36 1_555 1_555
C31 H23 1_555 1_555
C32 C31 1_555 1_555
H24 C32 1_555 1_555
C33 C32 1_555 1_555
C34 C33 1_555 1_555
H25 C34 1_555 1_555
C35 N3 1_555 1_555
H26 C35 1_555 1_555
C36 H27 1_555 1_555
C37 C36 1_555 1_555
H28 C37 1_555 1_555
C38 C33 1_555 1_555
C39 C38 1_555 1_555
H29 C39 1_555 1_555
C40 N4 1_555 1_555
H30 C40 1_555 1_555
O3 H31 1_555 1_555
O4 H32 1_555 1_555
C41 C42 1_555 1_555
C42 O3 1_555 1_555
C43 C42 1_555 1_555
H33 C43 1_555 1_555
C44 C43 1_555 1_555
H34 C44 1_555 1_555
C45 C44 1_555 1_555
C46 C41 1_555 1_555
C47 C46 1_555 1_555
H35 C47 1_555 1_555
C48 C47 1_555 1_555
H36 C48 1_555 1_555
C49 C48 1_555 1_555
H37 C49 1_555 1_555
C50 C45 1_555 1_555
H38 C50 1_555 1_555
C51 C41 1_555 1_555
C52 O4 1_555 1_555
C53 C52 1_555 1_555
H39 C53 1_555 1_555
C54 C53 1_555 1_555
H40 C54 1_555 1_555
C55 C54 1_555 1_555
C56 C51 1_555 1_555
C57 C56 1_555 1_555
H41 C57 1_555 1_555
C58 C57 1_555 1_555
H42 C58 1_555 1_555
C59 C58 1_555 1_555
H43 C59 1_555 1_555
C60 C55 1_555 1_555
H44 C60 1_555 1_555
C5 C6 1_555 1_555
C9 C10 1_555 1_555
C11 C12 1_555 1_555
C15 C16 1_555 1_555
C19 C20 1_555 1_555
C24 C25 1_555 1_555
C27 C28 1_555 1_555
C29 C30 1_555 1_555
C34 C35 1_555 1_555
C37 C38 1_555 1_555
C39 C40 1_555 1_555
C45 C46 1_555 1_555
C49 C50 1_555 1_555
C51 C52 1_555 1_555
C55 C56 1_555 1_555
C59 C60 1_555 1_555

#END
