
#######################################################################
#
#                 Cambridge Crystallographic Data Centre
#                                CCDC 
#
#######################################################################
#
# If this CIF has been generated from an entry in the Cambridge 
# Structural Database, then it will include bibliographic, chemical, 
# crystal, experimental, refinement or atomic coordinate data resulting 
# from the CCDC's data processing and validation procedures.
#
#######################################################################

data_LUJCID
_chemical_formula_moiety         'C20 H14 O2,2(C14 H12 N2)'
_chemical_name_systematic        
"1,1'-Binaphthalene-2,2'-diol bis(2,9-dimethyl-1,10-phenanthroline)"
_symmetry_cell_setting           monoclinic
_symmetry_space_group_name_H-M   'C 2/c'
_symmetry_Int_Tables_number      15
_space_group_name_Hall           '-C 2yn'
loop_
_symmetry_equiv_pos_site_id
_symmetry_equiv_pos_as_xyz
1 x,y,z
2 -x,y,1/2-z
3 1/2+x,1/2+y,z
4 1/2-x,1/2+y,1/2-z
5 -x,-y,-z
6 x,-y,1/2+z
7 1/2-x,1/2-y,-z
8 1/2+x,1/2-y,1/2+z
_cell_length_a                   14.8138(11)
_cell_length_b                   11.0354(8)
_cell_length_c                   22.4513(17)
_cell_angle_alpha                90
_cell_angle_beta                 97.9480(10)
_cell_angle_gamma                90
_cell_volume                     3635
_exptl_crystal_colour            colorless
_exptl_crystal_description       block
_cell_formula_units_Z            4
loop_
_atom_site_label
_atom_site_type_symbol
_atom_site_fract_x
_atom_site_fract_y
_atom_site_fract_z
C1 C -0.0168(2) 0.5742(3) 0.35146(17)
N1 N 0.02215(16) 0.48529(18) 0.38798(10)
C2 C 0.0024(3) 0.6940(3) 0.3644(3)
H1 H -0.0242 0.7540 0.3387
N2 N 0.08899(17) 0.2974(3) 0.45966(13)
C3 C 0.0581(3) 0.7246(3) 0.4131(3)
H2 H 0.0712 0.8061 0.4207
C4 C 0.0991(2) 0.6345(4) 0.4548(2)
C5 C 0.1554(4) 0.6564(8) 0.5095(3)
H3 H 0.1704 0.7363 0.5198
C6 C 0.1882(4) 0.5694(10) 0.5472(3)
H4 H 0.2248 0.5894 0.5829
C7 C 0.1669(3) 0.4402(7) 0.53268(18)
C8 C 0.1958(5) 0.3389(12) 0.5698(3)
H5 H 0.2307 0.3500 0.6072
C9 C 0.1711(5) 0.2243(12) 0.5495(4)
H6 H 0.1907 0.1579 0.5733
C10 C 0.1178(3) 0.2050(5) 0.4944(2)
C11 C 0.1120(2) 0.4124(4) 0.47812(13)
C12 C 0.0774(2) 0.5124(3) 0.43909(14)
C13 C -0.0841(3) 0.5377(4) 0.29888(18)
H7 H -0.0884 0.4509 0.2972
H8 H -0.0647 0.5674 0.2625
H9 H -0.1428 0.5712 0.3030
C14 C 0.0907(3) 0.0792(5) 0.4704(4)
H10 H 0.0538 0.0863 0.4319
H11 H 0.0567 0.0386 0.4979
H12 H 0.1446 0.0334 0.4662
O1 O 1.04453(14) 0.26420(17) 0.32177(10)
C15 C 0.97467(16) 0.1836(2) 0.31753(10)
C16 C 0.91126(17) 0.1879(2) 0.35905(11)
H13 H 0.9171 0.2469 0.3889
C17 C 0.84178(16) 0.1065(2) 0.35561(10)
H14 H 0.8006 0.1106 0.3833
C18 C 0.83111(14) 0.0160(2) 0.31085(9)
C19 C 0.76056(16) -0.0723(3) 0.30670(11)
H15 H 0.7189 -0.0703 0.3341
C20 C 0.75264(18) -0.1597(3) 0.26356(13)
H16 H 0.7069 -0.2178 0.2622
C21 C 0.81360(18) -0.1614(3) 0.22141(12)
H17 H 0.8078 -0.2206 0.1917
C22 C 0.88187(15) -0.0772(2) 0.22305(10)
H18 H 0.9209 -0.0796 0.1940
C23 C 0.89403(13) 0.01334(18) 0.26825(9)
C24 C 0.96659(14) 0.09882(17) 0.27227(9)
H19 H 1.039(2) 0.319(3) 0.3539(17)
O1A O 0.95547(14) 0.26420(17) 0.17823(10)
C15A C 1.02533(16) 0.1836(2) 0.18247(10)
C16A C 1.08874(17) 0.1879(2) 0.14095(11)
H13A H 1.0829 0.2469 0.1111
C17A C 1.15822(16) 0.1065(2) 0.14439(10)
H14A H 1.1994 0.1106 0.1167
C18A C 1.16889(14) 0.0160(2) 0.18915(9)
C19A C 1.23944(16) -0.0723(3) 0.19330(11)
H15A H 1.2811 -0.0703 0.1659
C20A C 1.24736(18) -0.1597(3) 0.23644(13)
H16A H 1.2931 -0.2178 0.2378
C21A C 1.18640(18) -0.1614(3) 0.27859(12)
H17A H 1.1922 -0.2206 0.3083
C22A C 1.11813(15) -0.0772(2) 0.27695(10)
H18A H 1.0791 -0.0796 0.3060
C23A C 1.10597(13) 0.01334(18) 0.23175(9)
C24A C 1.03341(14) 0.09882(17) 0.22773(9)
H19A H 0.961(2) 0.319(3) 0.1461(17)
loop_
_geom_bond_atom_site_label_1
_geom_bond_atom_site_label_2
_geom_bond_site_symmetry_1
_geom_bond_site_symmetry_2
C1 N1 1_555 1_555
N1 C12 1_555 1_555
O1 C15 1_555 1_555
C2 C1 1_555 1_555
H1 C2 1_555 1_555
N2 C10 1_555 1_555
C3 C2 1_555 1_555
H2 C3 1_555 1_555
C4 C3 1_555 1_555
C5 C4 1_555 1_555
H3 C5 1_555 1_555
C6 C5 1_555 1_555
H4 C6 1_555 1_555
C7 C6 1_555 1_555
C8 C7 1_555 1_555
H5 C8 1_555 1_555
C9 C8 1_555 1_555
H6 C9 1_555 1_555
C10 C9 1_555 1_555
C11 N2 1_555 1_555
C12 C4 1_555 1_555
C13 C1 1_555 1_555
H7 C13 1_555 1_555
H8 C13 1_555 1_555
H9 C13 1_555 1_555
C14 C10 1_555 1_555
H10 C14 1_555 1_555
H11 C14 1_555 1_555
H12 C14 1_555 1_555
C15 C16 1_555 1_555
C16 H13 1_555 1_555
C17 C16 1_555 1_555
H14 C17 1_555 1_555
C18 C17 1_555 1_555
C19 C18 1_555 1_555
H15 C19 1_555 1_555
C20 C19 1_555 1_555
H16 C20 1_555 1_555
C21 C20 1_555 1_555
H17 C21 1_555 1_555
C22 C21 1_555 1_555
H18 C22 1_555 1_555
C23 C18 1_555 1_555
C24 C15 1_555 1_555
H19 O1 1_555 1_555
O1A C15A 1_555 1_555
C15A C16A 1_555 1_555
C16A H13A 1_555 1_555
C17A C16A 1_555 1_555
H14A C17A 1_555 1_555
C18A C17A 1_555 1_555
C19A C18A 1_555 1_555
H15A C19A 1_555 1_555
C20A C19A 1_555 1_555
H16A C20A 1_555 1_555
C21A C20A 1_555 1_555
H17A C21A 1_555 1_555
C22A C21A 1_555 1_555
H18A C22A 1_555 1_555
C23A C18A 1_555 1_555
C24A C24 1_555 1_555
H19A O1A 1_555 1_555
C7 C11 1_555 1_555
C11 C12 1_555 1_555
C22 C23 1_555 1_555
C23 C24 1_555 1_555
C15A C24A 1_555 1_555
C22A C23A 1_555 1_555
C23A C24A 1_555 1_555

#END
