
#######################################################################
#
#                 Cambridge Crystallographic Data Centre
#                                CCDC 
#
#######################################################################
#
# If this CIF has been generated from an entry in the Cambridge 
# Structural Database, then it will include bibliographic, chemical, 
# crystal, experimental, refinement or atomic coordinate data resulting 
# from the CCDC's data processing and validation procedures.
#
#######################################################################

data_LUJQUE
_chemical_formula_moiety         'C25 H29 N1 O5 S1'
_chemical_name_systematic        
2,2-dimethyl-9-((4-methylphenyl)sulfonyl)-8-(4-nitrophenyl)-11-oxatricyclo[6.2.1.0^1,6^]undecane
_symmetry_cell_setting           orthorhombic
_symmetry_space_group_name_H-M   'F d d 2'
_symmetry_Int_Tables_number      43
_space_group_name_Hall           'F 2 -2d'
loop_
_symmetry_equiv_pos_site_id
_symmetry_equiv_pos_as_xyz
1 x,y,z
2 -x,-y,z
3 1/4-x,1/4+y,1/4+z
4 3/4+x,3/4-y,1/4+z
5 x,1/2+y,1/2+z
6 -x,1/2-y,1/2+z
7 1/4-x,3/4+y,3/4+z
8 3/4+x,1/4-y,3/4+z
9 1/2+x,y,1/2+z
10 1/2-x,-y,1/2+z
11 3/4-x,1/4+y,3/4+z
12 1/4+x,3/4-y,3/4+z
13 1/2+x,1/2+y,z
14 1/2-x,1/2-y,z
15 3/4-x,3/4+y,1/4+z
16 1/4+x,1/4-y,1/4+z
_cell_length_a                   22.419(8)
_cell_length_b                   52.094(18)
_cell_length_c                   7.523(3)
_cell_angle_alpha                90
_cell_angle_beta                 90
_cell_angle_gamma                90
_cell_volume                     8786.08
_exptl_crystal_colour            colorless
_exptl_crystal_description       Tabular
_cell_formula_units_Z            16
loop_
_atom_site_label
_atom_site_type_symbol
_atom_site_fract_x
_atom_site_fract_y
_atom_site_fract_z
C1 C 0.0569(2) 0.16146(12) 0.3116(8)
C2 C 0.0090(2) 0.17623(11) 0.2042(9)
H1 H 0.0090 0.1709 0.0778
H2 H -0.0313 0.1735 0.2546
C3 C 0.0292(2) 0.20439(12) 0.2251(9)
H3 H -0.0046 0.2156 0.2634
C4 C 0.0572(3) 0.21409(13) 0.0541(9)
H4 H 0.0827 0.2005 0.0030
H5 H 0.0253 0.2180 -0.0329
C5 C 0.0944(3) 0.23802(14) 0.0841(11)
H6 H 0.1124 0.2436 -0.0296
H7 H 0.0687 0.2521 0.1291
C6 C 0.1431(3) 0.23231(14) 0.2174(10)
H8 H 0.1676 0.2479 0.2344
H9 H 0.1694 0.2188 0.1686
C7 C 0.1194(3) 0.22355(12) 0.3979(9)
C8 C 0.0759(2) 0.20130(12) 0.3753(8)
C9 C 0.0443(3) 0.19185(12) 0.5445(8)
H10 H 0.0694 0.1945 0.6510
H11 H 0.0056 0.2007 0.5616
C10 C 0.0351(2) 0.16321(12) 0.5070(8)
H12 H -0.0082 0.1588 0.5139
C11 C 0.0861(3) 0.24546(13) 0.4898(10)
H13 H 0.1125 0.2604 0.5008
H14 H 0.0734 0.2399 0.6084
H15 H 0.0510 0.2502 0.4193
C12 C 0.1722(3) 0.21575(14) 0.5139(11)
H16 H 0.1926 0.2010 0.4600
H17 H 0.1579 0.2110 0.6326
H18 H 0.2001 0.2302 0.5236
C13 C 0.0714(2) 0.13552(12) 0.2441(8)
C14 C 0.1301(2) 0.12888(12) 0.2077(8)
H19 H 0.1610 0.1411 0.2264
C15 C 0.1440(2) 0.10467(12) 0.1443(9)
H20 H 0.1841 0.1000 0.1206
C16 C 0.0977(2) 0.08747(12) 0.1163(8)
C17 C 0.0388(2) 0.09382(12) 0.1544(9)
H21 H 0.0078 0.0816 0.1385
C18 C 0.0266(2) 0.11780(12) 0.2147(8)
H22 H -0.0137 0.1225 0.2371
C19 C 0.0244(3) 0.03185(13) 0.6274(10)
H23 H -0.0186 0.0286 0.6329
H24 H 0.0439 0.0242 0.7312
H25 H 0.0408 0.0242 0.5187
C20 C 0.0590(2) 0.11245(12) 0.6390(8)
C21 C 0.1049(2) 0.09537(12) 0.6105(9)
H26 H 0.1446 0.1014 0.5948
C22 C 0.0929(2) 0.06951(13) 0.6049(9)
H27 H 0.1248 0.0578 0.5860
C23 C 0.0353(2) 0.06002(13) 0.6263(8)
C24 C -0.0101(2) 0.07766(13) 0.6530(8)
H28 H -0.0498 0.0716 0.6666
C25 C 0.0006(2) 0.10350(12) 0.6604(9)
H29 H -0.0312 0.1152 0.6797
N1 N 0.1119(2) 0.06200(11) 0.0522(8)
O1 O 0.10675(15) 0.17835(7) 0.3127(5)
O2 O 0.13864(17) 0.14802(9) 0.6397(6)
O3 O 0.0515(2) 0.15250(9) 0.8363(6)
O4 O 0.0715(2) 0.04623(9) 0.0460(8)
O5 O 0.16288(19) 0.05722(9) 0.0075(8)
S1 S 0.07603(6) 0.14494(3) 0.6680(2)
loop_
_geom_bond_atom_site_label_1
_geom_bond_atom_site_label_2
_geom_bond_site_symmetry_1
_geom_bond_site_symmetry_2
C1 C2 1_555 1_555
C2 H1 1_555 1_555
H2 C2 1_555 1_555
C3 C2 1_555 1_555
H3 C3 1_555 1_555
C4 C3 1_555 1_555
H4 C4 1_555 1_555
H5 C4 1_555 1_555
C5 C4 1_555 1_555
H6 C5 1_555 1_555
H7 C5 1_555 1_555
C6 C5 1_555 1_555
H8 C6 1_555 1_555
H9 C6 1_555 1_555
C7 C6 1_555 1_555
C8 C3 1_555 1_555
C9 C8 1_555 1_555
H10 C9 1_555 1_555
H11 C9 1_555 1_555
C10 C1 1_555 1_555
H12 C10 1_555 1_555
C11 C7 1_555 1_555
H13 C11 1_555 1_555
H14 C11 1_555 1_555
H15 C11 1_555 1_555
C12 C7 1_555 1_555
H16 C12 1_555 1_555
H17 C12 1_555 1_555
H18 C12 1_555 1_555
C13 C1 1_555 1_555
C14 C13 1_555 1_555
H19 C14 1_555 1_555
C15 C14 1_555 1_555
H20 C15 1_555 1_555
C16 C15 1_555 1_555
C17 C16 1_555 1_555
H21 C17 1_555 1_555
C18 C13 1_555 1_555
H22 C18 1_555 1_555
C19 H23 1_555 1_555
H24 C19 1_555 1_555
H25 C19 1_555 1_555
C20 C21 1_555 1_555
C21 H26 1_555 1_555
C22 C21 1_555 1_555
H27 C22 1_555 1_555
C23 C19 1_555 1_555
C24 C23 1_555 1_555
H28 C24 1_555 1_555
C25 C20 1_555 1_555
H29 C25 1_555 1_555
N1 C16 1_555 1_555
O1 C1 1_555 1_555
O2 S1 1_555 1_555
O3 S1 1_555 1_555
O4 N1 1_555 1_555
O5 N1 1_555 1_555
S1 C10 1_555 1_555
C7 C8 1_555 1_555
C8 O1 1_555 1_555
C9 C10 1_555 1_555
C17 C18 1_555 1_555
C20 S1 1_555 1_555
C22 C23 1_555 1_555
C24 C25 1_555 1_555

#END
