
#######################################################################
#
#                 Cambridge Crystallographic Data Centre
#                                CCDC 
#
#######################################################################
#
# If this CIF has been generated from an entry in the Cambridge 
# Structural Database, then it will include bibliographic, chemical, 
# crystal, experimental, refinement or atomic coordinate data resulting 
# from the CCDC's data processing and validation procedures.
#
#######################################################################

data_LUJTUG
_chemical_formula_moiety         'C28 H28 N4 O3'
_chemical_name_systematic        
((3',6'-bis(ethylamino)-2',7'-dimethyl-3-oxospiro[isoindole-1,9'-xanthen]-2(3H)-yl)imino)acetaldehyde
_symmetry_cell_setting           orthorhombic
_symmetry_space_group_name_H-M   'P n m a'
_symmetry_Int_Tables_number      62
_space_group_name_Hall           '-P 2ac 2n'
loop_
_symmetry_equiv_pos_site_id
_symmetry_equiv_pos_as_xyz
1 x,y,z
2 1/2-x,-y,1/2+z
3 -x,1/2+y,-z
4 1/2+x,1/2-y,1/2-z
5 -x,-y,-z
6 1/2+x,y,1/2-z
7 x,1/2-y,z
8 1/2-x,1/2+y,1/2+z
_cell_length_a                   19.352(4)
_cell_length_b                   15.755(3)
_cell_length_c                   8.3951(17)
_cell_angle_alpha                90
_cell_angle_beta                 90
_cell_angle_gamma                90
_cell_volume                     2559.59
_exptl_crystal_colour            colorless
_exptl_crystal_description       block
_cell_formula_units_Z            4
loop_
_atom_site_label
_atom_site_type_symbol
_atom_site_fract_x
_atom_site_fract_y
_atom_site_fract_z
O1 O 0.38138(13) 0.2500 -0.2182(3)
O2 O 0.0746(2) 0.2500 -0.3498(5)
O3 O 0.12633(12) 0.2500 0.2738(3)
N1 N 0.27958(14) 0.2500 -0.0752(3)
N2 N 0.23984(16) 0.2500 -0.2062(3)
N3 N 0.10001(15) -0.04912(16) 0.2276(4)
H1 H 0.1170 -0.0964 0.1946
C1 C 0.32448(16) 0.2500 0.1780(4)
C2 C 0.33722(18) 0.2500 0.3401(4)
H2 H 0.3009 0.2500 0.4127
C3 C 0.40479(18) 0.2500 0.3918(4)
H3 H 0.4140 0.2500 0.5005
C4 C 0.4592(2) 0.2500 0.2844(4)
H4 H 0.5044 0.2500 0.3221
C5 C 0.44715(19) 0.2500 0.1217(4)
H5 H 0.4834 0.2500 0.0491
C6 C 0.37912(17) 0.2500 0.0715(4)
C7 C 0.35097(18) 0.2500 -0.0909(4)
C8 C 0.1742(2) 0.2500 -0.1950(4)
H6 H 0.1519 0.2500 -0.0968
C9 C 0.1363(3) 0.2500 -0.3424(6)
H7 H 0.1612 0.2500 -0.4372
C10 C 0.25536(16) 0.2500 0.0953(3)
C11 C 0.21393(12) 0.17151(14) 0.1311(3)
C12 C 0.23492(13) 0.09103(15) 0.0798(3)
H8 H 0.2759 0.0869 0.0227
C13 C 0.19874(15) 0.01836(16) 0.1087(3)
C14 C 0.13699(14) 0.02378(16) 0.1973(3)
C15 C 0.11531(13) 0.10273(16) 0.2514(3)
H9 H 0.0750 0.1073 0.3110
C16 C 0.15366(12) 0.17446(14) 0.2169(2)
C17 C 0.22295(19) -0.06520(19) 0.0435(5)
H10 H 0.2657 -0.0572 -0.0127
H11 H 0.1888 -0.0875 -0.0280
H12 H 0.2299 -0.1044 0.1296
C18 C 0.03506(19) -0.0519(2) 0.3102(5)
H13 H 0.0370 -0.0124 0.3989
H14 H 0.0289 -0.1084 0.3541
C19 C -0.0247(3) -0.0316(4) 0.2138(7)
H15 H -0.0656 -0.0345 0.2782
H16 H -0.0282 -0.0715 0.1278
H17 H -0.0198 0.0247 0.1714
N3F N 0.10001(15) 0.54912(16) 0.2276(4)
H1F H 0.1170 0.5964 0.1946
C11F C 0.21393(12) 0.32849(14) 0.1311(3)
C12F C 0.23492(13) 0.40897(15) 0.0798(3)
H8F H 0.2759 0.4131 0.0227
C13F C 0.19874(15) 0.48164(16) 0.1087(3)
C14F C 0.13699(14) 0.47622(16) 0.1973(3)
C15F C 0.11531(13) 0.39727(16) 0.2514(3)
H9F H 0.0750 0.3927 0.3110
C16F C 0.15366(12) 0.32554(14) 0.2169(2)
C17F C 0.22295(19) 0.56520(19) 0.0435(5)
H10F H 0.2657 0.5572 -0.0127
H11F H 0.1888 0.5875 -0.0280
H12F H 0.2299 0.6044 0.1296
C18F C 0.03506(19) 0.5519(2) 0.3102(5)
H13F H 0.0370 0.5124 0.3989
H14F H 0.0289 0.6084 0.3541
C19F C -0.0247(3) 0.5316(4) 0.2138(7)
H15F H -0.0656 0.5345 0.2782
H16F H -0.0282 0.5715 0.1278
H17F H -0.0198 0.4753 0.1714
loop_
_geom_bond_atom_site_label_1
_geom_bond_atom_site_label_2
_geom_bond_site_symmetry_1
_geom_bond_site_symmetry_2
O1 C7 1_555 1_555
O2 C9 1_555 1_555
O3 C16 1_555 1_555
N1 N2 1_555 1_555
N2 C8 1_555 1_555
N3 H1 1_555 1_555
C1 C2 1_555 1_555
C2 H2 1_555 1_555
C3 C2 1_555 1_555
H3 C3 1_555 1_555
C4 C3 1_555 1_555
H4 C4 1_555 1_555
C5 C4 1_555 1_555
H5 C5 1_555 1_555
C6 C1 1_555 1_555
C7 N1 1_555 1_555
C8 H6 1_555 1_555
C9 C8 1_555 1_555
H7 C9 1_555 1_555
C10 N1 1_555 1_555
C11 C10 1_555 1_555
C12 C11 1_555 1_555
H8 C12 1_555 1_555
C13 C12 1_555 1_555
C14 N3 1_555 1_555
C15 C14 1_555 1_555
H9 C15 1_555 1_555
C16 C11 1_555 1_555
C17 C13 1_555 1_555
H10 C17 1_555 1_555
H11 C17 1_555 1_555
H12 C17 1_555 1_555
C18 N3 1_555 1_555
H13 C18 1_555 1_555
H14 C18 1_555 1_555
C19 C18 1_555 1_555
H15 C19 1_555 1_555
H16 C19 1_555 1_555
H17 C19 1_555 1_555
N3F H1F 1_555 1_555
C11F C10 1_555 1_555
C12F C11F 1_555 1_555
H8F C12F 1_555 1_555
C13F C12F 1_555 1_555
C14F N3F 1_555 1_555
C15F C14F 1_555 1_555
H9F C15F 1_555 1_555
C16F O3 1_555 1_555
C17F C13F 1_555 1_555
H10F C17F 1_555 1_555
H11F C17F 1_555 1_555
H12F C17F 1_555 1_555
C18F N3F 1_555 1_555
H13F C18F 1_555 1_555
H14F C18F 1_555 1_555
C19F C18F 1_555 1_555
H15F C19F 1_555 1_555
H16F C19F 1_555 1_555
H17F C19F 1_555 1_555
C1 C10 1_555 1_555
C5 C6 1_555 1_555
C6 C7 1_555 1_555
C13 C14 1_555 1_555
C15 C16 1_555 1_555
C11F C16F 1_555 1_555
C13F C14F 1_555 1_555
C15F C16F 1_555 1_555

#END
