
#######################################################################
#
#                 Cambridge Crystallographic Data Centre
#                                CCDC 
#
#######################################################################
#
# If this CIF has been generated from an entry in the Cambridge 
# Structural Database, then it will include bibliographic, chemical, 
# crystal, experimental, refinement or atomic coordinate data resulting 
# from the CCDC's data processing and validation procedures.
#
#######################################################################

data_LUJVAN
_chemical_formula_moiety         'C27 H19 N1 O2'
_chemical_name_systematic        
N-(2-Hydroxybenzylidene)-2-amino-2'-hydroxy-1,1'-binaphthyl
_symmetry_cell_setting           orthorhombic
_symmetry_space_group_name_H-M   'P 21 21 21'
_symmetry_Int_Tables_number      19
_space_group_name_Hall           'P 2ac 2ab'
loop_
_symmetry_equiv_pos_site_id
_symmetry_equiv_pos_as_xyz
1 x,y,z
2 1/2-x,-y,1/2+z
3 -x,1/2+y,1/2-z
4 1/2+x,1/2-y,-z
_cell_length_a                   9.2152(6)
_cell_length_b                   11.4160(8)
_cell_length_c                   19.0345(13)
_cell_angle_alpha                90
_cell_angle_beta                 90
_cell_angle_gamma                90
_cell_volume                     2002.44
_exptl_crystal_colour            colorless
_cell_formula_units_Z            4
loop_
_atom_site_label
_atom_site_type_symbol
_atom_site_fract_x
_atom_site_fract_y
_atom_site_fract_z
O1 O 0.20664(17) 0.16310(14) 0.05646(9)
O2 O 0.59835(17) 0.43656(14) 0.06268(9)
N1 N 0.41781(18) 0.40200(15) 0.15986(9)
C1 C 0.3447(2) 0.32078(18) 0.20336(11)
C2 C 0.2747(3) 0.3542(2) 0.26559(12)
C3 C 0.2009(3) 0.2758(2) 0.30401(12)
C4 C 0.1894(2) 0.1586(2) 0.28258(11)
C5 C 0.1060(3) 0.0752(3) 0.32014(14)
C6 C 0.0930(3) -0.0356(3) 0.29726(14)
C7 C 0.1657(3) -0.0708(2) 0.23657(15)
C8 C 0.2491(3) 0.0051(2) 0.20036(13)
C9 C 0.2631(2) 0.12307(17) 0.22159(10)
C10 C 0.3447(2) 0.20547(17) 0.18185(11)
C11 C 0.4254(2) 0.16881(16) 0.11757(10)
C12 C 0.5783(2) 0.15140(15) 0.11903(10)
C13 C 0.6630(3) 0.17298(19) 0.17921(13)
C14 C 0.8091(3) 0.1535(2) 0.17914(15)
C15 C 0.8786(3) 0.1125(2) 0.11964(17)
C16 C 0.8018(3) 0.0916(2) 0.06074(16)
C17 C 0.6506(2) 0.11111(17) 0.05823(12)
C18 C 0.5697(3) 0.0925(2) -0.00336(12)
C19 C 0.4248(3) 0.11112(19) -0.00461(11)
C20 C 0.3520(2) 0.14770(17) 0.05663(11)
C21 C 0.3868(3) 0.5114(2) 0.15825(12)
C22 C 0.4606(2) 0.5913(2) 0.11272(11)
C23 C 0.5641(2) 0.5505(2) 0.06548(12)
C24 C 0.6327(3) 0.6296(3) 0.02140(16)
C25 C 0.5993(4) 0.7454(3) 0.02426(17)
C26 C 0.4973(4) 0.7870(3) 0.07040(15)
C27 C 0.4283(3) 0.7104(2) 0.11346(14)
H1 H 0.283(2) 0.4338(17) 0.2806(9)
H2 H 0.158(2) 0.3006(16) 0.3464(9)
H3 H 0.0556(19) 0.1056(16) 0.3615(10)
H4 H 0.039(2) -0.0937(19) 0.3215(11)
H5 H 0.147(2) -0.1519(19) 0.2189(11)
H6 H 0.293(2) -0.0204(17) 0.1581(10)
H7 H 0.615(2) 0.2029(16) 0.2189(9)
H8 H 0.865(2) 0.1717(18) 0.2199(11)
H9 H 0.990(3) 0.0976(19) 0.1197(10)
H10 H 0.845(3) 0.066(2) 0.0151(12)
H11 H 0.619(2) 0.0726(18) -0.0472(10)
H12 H 0.369(2) 0.0994(16) -0.0456(9)
H13 H 0.3175(19) 0.5412(15) 0.1884(9)
H14 H 0.701(3) 0.599(2) -0.0095(12)
H15 H 0.650(3) 0.793(2) -0.0022(13)
H16 H 0.472(3) 0.866(2) 0.0697(13)
H17 H 0.354(2) 0.7374(17) 0.1459(11)
H18 H 0.165(3) 0.141(2) 0.0187(12)
H19 H 0.534(3) 0.394(2) 0.1045(14)
loop_
_geom_bond_atom_site_label_1
_geom_bond_atom_site_label_2
_geom_bond_site_symmetry_1
_geom_bond_site_symmetry_2
O1 C20 1_555 1_555
O2 C23 1_555 1_555
N1 C1 1_555 1_555
C1 C2 1_555 1_555
C2 C3 1_555 1_555
C3 C4 1_555 1_555
C4 C5 1_555 1_555
C5 C6 1_555 1_555
C6 C7 1_555 1_555
C7 C8 1_555 1_555
C8 C9 1_555 1_555
C9 C4 1_555 1_555
C10 C1 1_555 1_555
C11 C10 1_555 1_555
C12 C11 1_555 1_555
C13 C12 1_555 1_555
C14 C13 1_555 1_555
C15 C14 1_555 1_555
C16 C15 1_555 1_555
C17 C12 1_555 1_555
C18 C17 1_555 1_555
C19 C18 1_555 1_555
C20 C11 1_555 1_555
C21 N1 1_555 1_555
C22 C21 1_555 1_555
C23 C22 1_555 1_555
C24 C23 1_555 1_555
C25 C24 1_555 1_555
C26 C25 1_555 1_555
C27 C22 1_555 1_555
H1 C2 1_555 1_555
H2 C3 1_555 1_555
H3 C5 1_555 1_555
H4 C6 1_555 1_555
H5 C7 1_555 1_555
H6 C8 1_555 1_555
H7 C13 1_555 1_555
H8 C14 1_555 1_555
H9 C15 1_555 1_555
H10 C16 1_555 1_555
H11 C18 1_555 1_555
H12 C19 1_555 1_555
H13 C21 1_555 1_555
H14 C24 1_555 1_555
H15 C25 1_555 1_555
H16 C26 1_555 1_555
H17 C27 1_555 1_555
H18 O1 1_555 1_555
H19 O2 1_555 1_555
C9 C10 1_555 1_555
C16 C17 1_555 1_555
C19 C20 1_555 1_555
C26 C27 1_555 1_555

#END
