
#######################################################################
#
#                 Cambridge Crystallographic Data Centre
#                                CCDC 
#
#######################################################################
#
# If this CIF has been generated from an entry in the Cambridge 
# Structural Database, then it will include bibliographic, chemical, 
# crystal, experimental, refinement or atomic coordinate data resulting 
# from the CCDC's data processing and validation procedures.
#
#######################################################################

data_LUJWIW
_chemical_formula_moiety         'C13 H9 Cl1 N2'
_chemical_name_systematic        2-(2-Chlorophenyl)benzimidazole
_symmetry_cell_setting           orthorhombic
_symmetry_space_group_name_H-M   'P b c a'
_symmetry_Int_Tables_number      61
_space_group_name_Hall           '-P 2ac 2ab'
loop_
_symmetry_equiv_pos_site_id
_symmetry_equiv_pos_as_xyz
1 x,y,z
2 1/2-x,-y,1/2+z
3 1/2+x,1/2-y,-z
4 -x,1/2+y,1/2-z
5 -x,-y,-z
6 1/2+x,y,1/2-z
7 1/2-x,1/2+y,z
8 x,1/2-y,1/2+z
_cell_length_a                   7.0567(8)
_cell_length_b                   9.978(2)
_cell_length_c                   32.464(4)
_cell_angle_alpha                90
_cell_angle_beta                 90
_cell_angle_gamma                90
_cell_volume                     2285.85
_cell_formula_units_Z            8
loop_
_atom_site_label
_atom_site_type_symbol
_atom_site_fract_x
_atom_site_fract_y
_atom_site_fract_z
Cl1 Cl 0.2373(1) 0.3149(1) 0.0519(1)
N1 N 0.3050(2) 0.4013(2) 0.1424(1)
N2 N 0.2519(2) 0.6210(2) 0.1447(1)
C1 C 0.4291(3) 0.4519(2) 0.1711(1)
C2 C 0.5631(3) 0.3913(2) 0.1961(1)
C3 C 0.6623(4) 0.4733(3) 0.2223(1)
C4 C 0.6304(4) 0.6108(3) 0.2236(1)
C5 C 0.4988(3) 0.6711(2) 0.1986(1)
C6 C 0.3952(3) 0.5895(2) 0.1721(1)
C7 C 0.2020(3) 0.5053(2) 0.1279(1)
C8 C 0.0413(3) 0.4920(2) 0.0991(1)
C9 C -0.1210(4) 0.5670(3) 0.1068(1)
C10 C -0.2768(4) 0.5594(4) 0.0820(1)
C11 C -0.2727(6) 0.4772(5) 0.0480(1)
C12 C -0.1149(6) 0.4033(4) 0.0391(1)
C13 C 0.0416(4) 0.4103(3) 0.0646(1)
loop_
_geom_bond_atom_site_label_1
_geom_bond_atom_site_label_2
_geom_bond_site_symmetry_1
_geom_bond_site_symmetry_2
Cl1 C13 1_555 1_555
N1 C1 1_555 1_555
N2 C6 1_555 1_555
C1 C2 1_555 1_555
C2 C3 1_555 1_555
C3 C4 1_555 1_555
C4 C5 1_555 1_555
C5 C6 1_555 1_555
C6 C1 1_555 1_555
C7 N1 1_555 1_555
C8 C7 1_555 1_555
C9 C8 1_555 1_555
C10 C9 1_555 1_555
C11 C10 1_555 1_555
C12 C11 1_555 1_555
C13 C8 1_555 1_555
N2 C7 1_555 1_555
C12 C13 1_555 1_555

#END
