
#######################################################################
#
#                 Cambridge Crystallographic Data Centre
#                                CCDC 
#
#######################################################################
#
# If this CIF has been generated from an entry in the Cambridge 
# Structural Database, then it will include bibliographic, chemical, 
# crystal, experimental, refinement or atomic coordinate data resulting 
# from the CCDC's data processing and validation procedures.
#
#######################################################################

data_LUKCEA
_chemical_formula_moiety         'C25 H32 N2 O1 S2'
_chemical_name_systematic        
2-(4-(Decyloxy)phenyl)-5-(4-(methylsulfanyl)phenyl)-1,3,4-thiadiazole
_symmetry_cell_setting           monoclinic
_symmetry_space_group_name_H-M   'C 2/c'
_symmetry_Int_Tables_number      15
_space_group_name_Hall           '-C 2yn'
loop_
_symmetry_equiv_pos_site_id
_symmetry_equiv_pos_as_xyz
1 x,y,z
2 -x,y,1/2-z
3 1/2+x,1/2+y,z
4 1/2-x,1/2+y,1/2-z
5 -x,-y,-z
6 x,-y,1/2+z
7 1/2-x,1/2-y,-z
8 1/2+x,1/2-y,1/2+z
_cell_length_a                   55.26(2)
_cell_length_b                   5.312(2)
_cell_length_c                   16.379(8)
_cell_angle_alpha                90
_cell_angle_beta                 97.993(10)
_cell_angle_gamma                90
_cell_volume                     4761.2
_cell_formula_units_Z            8
loop_
_atom_site_label
_atom_site_type_symbol
_atom_site_fract_x
_atom_site_fract_y
_atom_site_fract_z
S1 S 0.155236(14) -0.06699(15) 0.21340(5)
S2 S 0.035230(15) -0.05117(18) -0.01208(6)
O1 O 0.26620(4) 0.0286(4) 0.43781(13)
N1 N 0.17474(5) 0.3326(5) 0.16991(19)
N2 N 0.15163(5) 0.3278(5) 0.12616(18)
C1 C 0.47578(6) 0.1092(8) 0.8238(2)
H1 H 0.4695 0.1097 0.8756
H2 H 0.4915 0.1898 0.8303
H3 H 0.4774 -0.0613 0.8059
C2 C 0.45835(5) 0.2501(7) 0.7602(2)
H4 H 0.4571 0.4229 0.7783
H5 H 0.4651 0.2529 0.7086
C3 C 0.43304(5) 0.1365(6) 0.7453(2)
H6 H 0.4345 -0.0385 0.7298
H7 H 0.4262 0.1399 0.7967
C4 C 0.41546(5) 0.2656(6) 0.6798(2)
H8 H 0.4224 0.2668 0.6287
H9 H 0.4135 0.4391 0.6961
C5 C 0.39055(5) 0.1416(6) 0.6648(2)
H10 H 0.3926 -0.0314 0.6481
H11 H 0.3838 0.1379 0.7163
C6 C 0.37231(5) 0.2685(6) 0.60015(19)
H12 H 0.3696 0.4396 0.6176
H13 H 0.3792 0.2772 0.5488
C7 C 0.34800(5) 0.1337(6) 0.58494(19)
H14 H 0.3412 0.1271 0.6364
H15 H 0.3509 -0.0382 0.5688
C8 C 0.32922(5) 0.2509(6) 0.51982(19)
H16 H 0.3357 0.2566 0.4678
H17 H 0.3260 0.4224 0.5356
C9 C 0.30545(5) 0.1033(6) 0.50875(19)
H18 H 0.3090 -0.0706 0.4969
H19 H 0.2987 0.1059 0.5604
C10 C 0.28636(5) 0.1998(6) 0.44136(19)
H20 H 0.2813 0.3686 0.4540
H21 H 0.2927 0.2032 0.3891
C11 C 0.24596(5) 0.0652(6) 0.38150(19)
C12 C 0.22743(5) -0.1106(5) 0.3834(2)
H22 H 0.2295 -0.2427 0.4210
C13 C 0.20610(5) -0.0893(6) 0.32992(19)
H23 H 0.1939 -0.2088 0.3314
C14 C 0.20239(5) 0.1076(5) 0.27336(19)
C15 C 0.22124(5) 0.2798(6) 0.27219(19)
H24 H 0.2193 0.4116 0.2345
C16 C 0.24265(5) 0.2607(6) 0.32515(19)
H25 H 0.2550 0.3790 0.3232
C17 C 0.17925(5) 0.1393(6) 0.2183(2)
C18 C 0.13930(5) 0.1310(6) 0.14243(19)
C19 C 0.11414(5) 0.0865(6) 0.10365(18)
C20 C 0.10032(6) -0.1154(6) 0.1252(2)
H26 H 0.1072 -0.2293 0.1649
C21 C 0.07666(6) -0.1484(6) 0.0885(2)
H27 H 0.0679 -0.2856 0.1038
C22 C 0.06550(5) 0.0160(6) 0.0293(2)
C23 C 0.07923(6) 0.2172(6) 0.0074(2)
H28 H 0.0723 0.3304 -0.0325
C24 C 0.10292(5) 0.2510(6) 0.04416(19)
H29 H 0.1117 0.3882 0.0287
C25 C 0.02654(6) 0.2039(7) -0.0804(2)
H30 H 0.0277 0.3588 -0.0500
H31 H 0.0100 0.1799 -0.1063
H32 H 0.0372 0.2104 -0.1219
loop_
_geom_bond_atom_site_label_1
_geom_bond_atom_site_label_2
_geom_bond_site_symmetry_1
_geom_bond_site_symmetry_2
S1 C17 1_555 1_555
S2 C22 1_555 1_555
O1 C10 1_555 1_555
N1 N2 1_555 1_555
N2 C18 1_555 1_555
C1 H1 1_555 1_555
H2 C1 1_555 1_555
H3 C1 1_555 1_555
C2 C1 1_555 1_555
H4 C2 1_555 1_555
H5 C2 1_555 1_555
C3 C2 1_555 1_555
H6 C3 1_555 1_555
H7 C3 1_555 1_555
C4 C3 1_555 1_555
H8 C4 1_555 1_555
H9 C4 1_555 1_555
C5 C4 1_555 1_555
H10 C5 1_555 1_555
H11 C5 1_555 1_555
C6 C5 1_555 1_555
H12 C6 1_555 1_555
H13 C6 1_555 1_555
C7 C6 1_555 1_555
H14 C7 1_555 1_555
H15 C7 1_555 1_555
C8 C7 1_555 1_555
H16 C8 1_555 1_555
H17 C8 1_555 1_555
C9 C8 1_555 1_555
H18 C9 1_555 1_555
H19 C9 1_555 1_555
C10 C9 1_555 1_555
H20 C10 1_555 1_555
H21 C10 1_555 1_555
C11 O1 1_555 1_555
C12 C11 1_555 1_555
H22 C12 1_555 1_555
C13 C12 1_555 1_555
H23 C13 1_555 1_555
C14 C13 1_555 1_555
C15 C14 1_555 1_555
H24 C15 1_555 1_555
C16 C11 1_555 1_555
H25 C16 1_555 1_555
C17 N1 1_555 1_555
C18 S1 1_555 1_555
C19 C18 1_555 1_555
C20 C19 1_555 1_555
H26 C20 1_555 1_555
C21 C20 1_555 1_555
H27 C21 1_555 1_555
C22 C21 1_555 1_555
C23 C22 1_555 1_555
H28 C23 1_555 1_555
C24 C19 1_555 1_555
H29 C24 1_555 1_555
C25 S2 1_555 1_555
H30 C25 1_555 1_555
H31 C25 1_555 1_555
H32 C25 1_555 1_555
C14 C17 1_555 1_555
C15 C16 1_555 1_555
C23 C24 1_555 1_555

#END
