
#######################################################################
#
#                 Cambridge Crystallographic Data Centre
#                                CCDC 
#
#######################################################################
#
# If this CIF has been generated from an entry in the Cambridge 
# Structural Database, then it will include bibliographic, chemical, 
# crystal, experimental, refinement or atomic coordinate data resulting 
# from the CCDC's data processing and validation procedures.
#
#######################################################################

data_LUKCAW
_chemical_formula_moiety         'C31 H36 N2 O2 S1'
_chemical_name_systematic        
2-(4-(Decyloxy)phenyl)-5-(4'-methoxybiphenyl-4-yl)-1,3,4-thiadiazole
_symmetry_cell_setting           triclinic
_symmetry_space_group_name_H-M   'P -1'
_symmetry_Int_Tables_number      2
_space_group_name_Hall           '-P 1'
loop_
_symmetry_equiv_pos_site_id
_symmetry_equiv_pos_as_xyz
1 x,y,z
2 -x,-y,-z
_cell_length_a                   5.846(4)
_cell_length_b                   14.691(10)
_cell_length_c                   30.70(2)
_cell_angle_alpha                92.842(15)
_cell_angle_beta                 91.465(7)
_cell_angle_gamma                91.293(11)
_cell_volume                     2631.77
_exptl_crystal_colour            colorless
_exptl_crystal_description       block
_cell_formula_units_Z            4
loop_
_atom_site_label
_atom_site_type_symbol
_atom_site_fract_x
_atom_site_fract_y
_atom_site_fract_z
S1 S -0.19376(18) 0.66110(8) 0.44002(4)
N1 N 0.1904(6) 0.5825(2) 0.43529(12)
N2 N 0.1078(6) 0.5843(2) 0.39305(12)
O1 O 0.2545(5) 0.6305(2) 0.64386(9)
O2 O -0.8850(5) 0.6232(2) 0.09820(9)
C1 C 1.3872(11) 0.6360(4) 0.99648(17)
H1 H 1.4002 0.7027 0.9969
H2 H 1.5248 0.6117 1.0102
H3 H 1.2524 0.6179 1.0126
C2 C 1.3628(9) 0.5984(3) 0.94968(15)
H4 H 1.5070 0.6112 0.9347
H5 H 1.3412 0.5314 0.9497
C3 C 1.1672(8) 0.6368(3) 0.92405(14)
H6 H 1.1879 0.7039 0.9243
H7 H 1.0229 0.6235 0.9389
C4 C 1.1436(8) 0.6001(3) 0.87700(14)
H8 H 1.2887 0.6130 0.8623
H9 H 1.1219 0.5331 0.8768
C5 C 0.9487(7) 0.6387(3) 0.85067(14)
H10 H 0.8032 0.6260 0.8653
H11 H 0.9702 0.7058 0.8506
C6 C 0.9289(7) 0.6007(3) 0.80387(14)
H12 H 0.9113 0.5335 0.8039
H13 H 1.0726 0.6150 0.7890
C7 C 0.7293(7) 0.6380(3) 0.77813(13)
H14 H 0.5861 0.6242 0.7933
H15 H 0.7478 0.7051 0.7781
C8 C 0.7047(7) 0.6003(3) 0.73131(14)
H16 H 0.6973 0.5329 0.7310
H17 H 0.8420 0.6184 0.7153
C9 C 0.4927(7) 0.6338(3) 0.70780(14)
H18 H 0.3552 0.6120 0.7227
H19 H 0.4948 0.7013 0.7101
C10 C 0.4737(7) 0.6031(3) 0.66088(14)
H20 H 0.5988 0.6310 0.6446
H21 H 0.4857 0.5359 0.6577
C11 C 0.2129(7) 0.6232(3) 0.60001(15)
C12 C 0.0105(7) 0.6598(3) 0.58548(14)
H22 H -0.0914 0.6854 0.6061
C13 C -0.0459(7) 0.6597(3) 0.54154(14)
H23 H -0.1863 0.6847 0.5322
C14 C 0.1027(7) 0.6231(3) 0.51096(14)
C15 C 0.3069(7) 0.5856(3) 0.52592(14)
H24 H 0.4095 0.5601 0.5054
C16 C 0.3616(7) 0.5849(3) 0.56987(14)
H25 H 0.4997 0.5586 0.5795
C17 C 0.0528(7) 0.6193(3) 0.46362(14)
C18 C -0.0909(7) 0.6228(3) 0.38993(14)
C19 C -0.2140(7) 0.6292(3) 0.34827(14)
C20 C -0.4239(7) 0.6703(3) 0.34353(14)
H26 H -0.4926 0.6978 0.3685
C21 C -0.5354(7) 0.6723(3) 0.30321(14)
H27 H -0.6784 0.7014 0.3011
C22 C -0.4429(7) 0.6325(3) 0.26564(13)
C23 C -0.2293(7) 0.5920(3) 0.27055(13)
H28 H -0.1596 0.5652 0.2456
C24 C -0.1186(7) 0.5900(3) 0.31034(14)
H29 H 0.0255 0.5617 0.3124
C25 C -0.5634(7) 0.6307(3) 0.22257(14)
C26 C -0.7635(7) 0.6797(3) 0.21546(14)
H30 H -0.8251 0.7141 0.2392
C27 C -0.8741(7) 0.6794(3) 0.17497(14)
H31 H -1.0072 0.7144 0.1712
C28 C -0.7907(7) 0.6279(3) 0.13975(13)
C29 C -0.5965(7) 0.5777(3) 0.14595(14)
H32 H -0.5385 0.5420 0.1222
C30 C -0.4859(7) 0.5790(3) 0.18634(14)
H33 H -0.3531 0.5436 0.1897
C31 C -1.0808(8) 0.6772(3) 0.09048(15)
H34 H -1.2031 0.6598 0.1099
H35 H -1.1340 0.6671 0.0601
H36 H -1.0396 0.7418 0.0962
S2 S 0.68417(18) 0.14856(8) 0.55890(4)
N3 N 0.2935(6) 0.0675(2) 0.55692(12)
N4 N 0.3792(6) 0.0610(2) 0.59885(12)
O3 O 0.2334(5) 0.15824(19) 0.35459(9)
O4 O 1.3676(5) 0.1093(2) 0.89809(9)
C32 C -0.9050(10) 0.1464(4) 0.00219(17)
H37 H -0.9312 0.2121 0.0045
H38 H -1.0360 0.1152 -0.0131
H39 H -0.7659 0.1349 -0.0141
C33 C -0.8773(9) 0.1107(3) 0.04755(16)
H40 H -1.0174 0.1239 0.0639
H41 H -0.8630 0.0436 0.0449
C34 C -0.6735(8) 0.1507(3) 0.07340(15)
H42 H -0.6856 0.2179 0.0755
H43 H -0.5329 0.1362 0.0574
C35 C -0.6499(8) 0.1168(3) 0.11902(14)
H44 H -0.7932 0.1295 0.1345
H45 H -0.6337 0.0498 0.1167
C36 C -0.4512(8) 0.1577(3) 0.14649(14)
H46 H -0.4656 0.2248 0.1485
H47 H -0.3072 0.1440 0.1315
C37 C -0.4340(7) 0.1235(3) 0.19241(13)
H48 H -0.5765 0.1385 0.2077
H49 H -0.4230 0.0563 0.1904
C38 C -0.2318(7) 0.1631(3) 0.21955(14)
H50 H -0.0893 0.1490 0.2041
H51 H -0.2441 0.2302 0.2221
C39 C -0.2143(7) 0.1275(3) 0.26492(14)
H52 H -0.2168 0.0600 0.2627
H53 H -0.3493 0.1469 0.2815
C40 C 0.0024(7) 0.1612(3) 0.28989(14)
H54 H 0.1374 0.1393 0.2740
H55 H 0.0084 0.2287 0.2909
C41 C 0.0152(7) 0.1295(3) 0.33558(13)
H56 H -0.1095 0.1562 0.3529
H57 H -0.0015 0.0623 0.3352
C42 C 0.2716(7) 0.1432(3) 0.39758(14)
C43 C 0.4789(7) 0.1757(3) 0.41554(14)
H58 H 0.5851 0.2048 0.3976
C44 C 0.5345(7) 0.1666(3) 0.45896(14)
H59 H 0.6779 0.1893 0.4706
C45 C 0.3802(7) 0.1242(3) 0.48583(14)
C46 C 0.1712(7) 0.0911(3) 0.46737(14)
H60 H 0.0639 0.0624 0.4853
C47 C 0.1178(7) 0.0992(3) 0.42387(14)
H61 H -0.0231 0.0748 0.4118
C48 C 0.4338(7) 0.1110(3) 0.53174(14)
C49 C 0.5810(7) 0.0996(3) 0.60487(14)
C50 C 0.7054(7) 0.1016(3) 0.64721(13)
C51 C 0.9207(7) 0.1434(3) 0.65370(14)
H62 H 0.9919 0.1715 0.6302
C52 C 1.0332(7) 0.1445(3) 0.69452(14)
H63 H 1.1800 0.1733 0.6981
C53 C 0.9350(7) 0.1042(3) 0.73024(14)
C54 C 0.7179(7) 0.0624(3) 0.72265(14)
H64 H 0.6451 0.0344 0.7461
C55 C 0.6069(7) 0.0605(3) 0.68239(14)
H65 H 0.4612 0.0308 0.6786
C56 C 1.0524(7) 0.1050(3) 0.77374(14)
C57 C 1.2564(7) 0.1548(3) 0.78252(14)
H66 H 1.3211 0.1878 0.7598
C58 C 1.3679(7) 0.1581(3) 0.82288(14)
H67 H 1.5064 0.1927 0.8275
C59 C 1.2765(7) 0.1107(3) 0.85637(14)
C60 C 1.0760(7) 0.0593(3) 0.84864(14)
H68 H 1.0133 0.0256 0.8713
C61 C 0.9682(7) 0.0572(3) 0.80825(14)
H69 H 0.8309 0.0218 0.8037
C62 C 1.5703(8) 0.1633(3) 0.90820(15)
H70 H 1.6932 0.1428 0.8892
H71 H 1.6169 0.1565 0.9387
H72 H 1.5398 0.2275 0.9036
loop_
_geom_bond_atom_site_label_1
_geom_bond_atom_site_label_2
_geom_bond_site_symmetry_1
_geom_bond_site_symmetry_2
S1 C17 1_555 1_555
S2 C48 1_555 1_555
N1 N2 1_555 1_555
N2 C18 1_555 1_555
N3 N4 1_555 1_555
N4 C49 1_555 1_555
O1 C10 1_555 1_555
O2 C28 1_555 1_555
O3 C41 1_555 1_555
O4 C59 1_555 1_555
C1 H1 1_555 1_555
H2 C1 1_555 1_555
H3 C1 1_555 1_555
C2 C1 1_555 1_555
H4 C2 1_555 1_555
H5 C2 1_555 1_555
C3 C2 1_555 1_555
H6 C3 1_555 1_555
H7 C3 1_555 1_555
C4 C3 1_555 1_555
H8 C4 1_555 1_555
H9 C4 1_555 1_555
C5 C4 1_555 1_555
H10 C5 1_555 1_555
H11 C5 1_555 1_555
C6 C5 1_555 1_555
H12 C6 1_555 1_555
H13 C6 1_555 1_555
C7 C6 1_555 1_555
H14 C7 1_555 1_555
H15 C7 1_555 1_555
C8 C7 1_555 1_555
H16 C8 1_555 1_555
H17 C8 1_555 1_555
C9 C8 1_555 1_555
H18 C9 1_555 1_555
H19 C9 1_555 1_555
C10 C9 1_555 1_555
H20 C10 1_555 1_555
H21 C10 1_555 1_555
C11 O1 1_555 1_555
C12 C11 1_555 1_555
H22 C12 1_555 1_555
C13 C12 1_555 1_555
H23 C13 1_555 1_555
C14 C13 1_555 1_555
C15 C14 1_555 1_555
H24 C15 1_555 1_555
C16 C11 1_555 1_555
H25 C16 1_555 1_555
C17 N1 1_555 1_555
C18 S1 1_555 1_555
C19 C18 1_555 1_555
C20 C19 1_555 1_555
H26 C20 1_555 1_555
C21 C20 1_555 1_555
H27 C21 1_555 1_555
C22 C21 1_555 1_555
C23 C22 1_555 1_555
H28 C23 1_555 1_555
C24 C19 1_555 1_555
H29 C24 1_555 1_555
C25 C22 1_555 1_555
C26 C25 1_555 1_555
H30 C26 1_555 1_555
C27 C26 1_555 1_555
H31 C27 1_555 1_555
C28 C27 1_555 1_555
C29 C28 1_555 1_555
H32 C29 1_555 1_555
C30 C25 1_555 1_555
H33 C30 1_555 1_555
C31 O2 1_555 1_555
H34 C31 1_555 1_555
H35 C31 1_555 1_555
H36 C31 1_555 1_555
C32 H37 1_555 1_555
H38 C32 1_555 1_555
H39 C32 1_555 1_555
C33 C32 1_555 1_555
H40 C33 1_555 1_555
H41 C33 1_555 1_555
C34 C33 1_555 1_555
H42 C34 1_555 1_555
H43 C34 1_555 1_555
C35 C34 1_555 1_555
H44 C35 1_555 1_555
H45 C35 1_555 1_555
C36 C35 1_555 1_555
H46 C36 1_555 1_555
H47 C36 1_555 1_555
C37 C36 1_555 1_555
H48 C37 1_555 1_555
H49 C37 1_555 1_555
C38 C37 1_555 1_555
H50 C38 1_555 1_555
H51 C38 1_555 1_555
C39 C38 1_555 1_555
H52 C39 1_555 1_555
H53 C39 1_555 1_555
C40 C39 1_555 1_555
H54 C40 1_555 1_555
H55 C40 1_555 1_555
C41 C40 1_555 1_555
H56 C41 1_555 1_555
H57 C41 1_555 1_555
C42 O3 1_555 1_555
C43 C42 1_555 1_555
H58 C43 1_555 1_555
C44 C43 1_555 1_555
H59 C44 1_555 1_555
C45 C44 1_555 1_555
C46 C45 1_555 1_555
H60 C46 1_555 1_555
C47 C42 1_555 1_555
H61 C47 1_555 1_555
C48 N3 1_555 1_555
C49 S2 1_555 1_555
C50 C49 1_555 1_555
C51 C50 1_555 1_555
H62 C51 1_555 1_555
C52 C51 1_555 1_555
H63 C52 1_555 1_555
C53 C52 1_555 1_555
C54 C53 1_555 1_555
H64 C54 1_555 1_555
C55 C50 1_555 1_555
H65 C55 1_555 1_555
C56 C53 1_555 1_555
C57 C56 1_555 1_555
H66 C57 1_555 1_555
C58 C57 1_555 1_555
H67 C58 1_555 1_555
C59 C58 1_555 1_555
C60 C59 1_555 1_555
H68 C60 1_555 1_555
C61 C56 1_555 1_555
H69 C61 1_555 1_555
C62 O4 1_555 1_555
H70 C62 1_555 1_555
H71 C62 1_555 1_555
H72 C62 1_555 1_555
C14 C17 1_555 1_555
C15 C16 1_555 1_555
C23 C24 1_555 1_555
C29 C30 1_555 1_555
C45 C48 1_555 1_555
C46 C47 1_555 1_555
C54 C55 1_555 1_555
C60 C61 1_555 1_555

#END
