
#######################################################################
#
#                 Cambridge Crystallographic Data Centre
#                                CCDC 
#
#######################################################################
#
# If this CIF has been generated from an entry in the Cambridge 
# Structural Database, then it will include bibliographic, chemical, 
# crystal, experimental, refinement or atomic coordinate data resulting 
# from the CCDC's data processing and validation procedures.
#
#######################################################################

data_LUKDEC
_chemical_compound_source        'Caryopteris incana'
_chemical_formula_moiety         'C20 H24 O3'
_chemical_name_systematic        
6-hydroxy-7-isopropyl-1,1,10a-trimethyl-1,2,3,10a-tetrahydrocyclopenta[7,8]naphtho[1,8-bc]furan-4-one
_chemical_properties_biological  'anticancer activity'
_symmetry_cell_setting           monoclinic
_symmetry_space_group_name_H-M   'P 21'
_symmetry_Int_Tables_number      4
_space_group_name_Hall           'P 2yb'
loop_
_symmetry_equiv_pos_site_id
_symmetry_equiv_pos_as_xyz
1 x,y,z
2 -x,1/2+y,-z
_cell_length_a                   12.38710(10)
_cell_length_b                   10.73400(10)
_cell_length_c                   12.86660(10)
_cell_angle_alpha                90
_cell_angle_beta                 103.68
_cell_angle_gamma                90
_cell_volume                     1662.25
_exptl_crystal_colour            colorless
_exptl_crystal_description       block
_cell_formula_units_Z            4
loop_
_atom_site_label
_atom_site_type_symbol
_atom_site_fract_x
_atom_site_fract_y
_atom_site_fract_z
O1 O 0.47874(12) 0.10661(16) 0.35597(11)
O2 O 0.66185(12) 0.07033(18) 0.39195(11)
O3 O 0.23185(12) 0.1250(2) 0.28136(12)
H1 H 0.2754 0.0941 0.2472
C1 C 0.64308(19) 0.3177(2) 0.50936(19)
H2 H 0.6311 0.3426 0.4334
H3 H 0.6165 0.3852 0.5495
C2 C 0.7645(2) 0.2884(3) 0.5572(3)
H4 H 0.8049 0.3650 0.5865
H5 H 0.7994 0.2537 0.5018
C3 C 0.76869(18) 0.1913(3) 0.64803(18)
C4 C 0.64299(17) 0.1489(2) 0.63516(16)
C5 C 0.58668(19) 0.2182(3) 0.71258(17)
H6 H 0.6301 0.2309 0.7832
C6 C 0.48306(19) 0.2624(2) 0.69078(18)
H7 H 0.4569 0.3050 0.7448
C7 C 0.40934(18) 0.2462(2) 0.58471(16)
C8 C 0.46210(17) 0.2054(2) 0.50826(16)
C9 C 0.58319(17) 0.1926(2) 0.52033(15)
C10 C 0.40537(18) 0.1606(2) 0.41138(16)
C11 C 0.29087(18) 0.1645(2) 0.37888(16)
C12 C 0.23361(18) 0.2140(2) 0.45266(17)
C13 C 0.29342(18) 0.2515(2) 0.55401(17)
H8 H 0.2539 0.2817 0.6037
C14 C 0.10669(18) 0.2211(2) 0.42028(18)
H9 H 0.0854 0.2604 0.3479
C15 C 0.0544(2) 0.0916(3) 0.4116(2)
H10 H 0.0744 0.0504 0.4815
H11 H 0.0819 0.0421 0.3592
H12 H -0.0266 0.0991 0.3885
C16 C 0.05803(19) 0.3009(3) 0.4964(2)
H13 H -0.0217 0.3126 0.4665
H14 H 0.0951 0.3822 0.5057
H15 H 0.0696 0.2591 0.5659
C17 C 0.8421(2) 0.0835(3) 0.6298(2)
H16 H 0.9164 0.1149 0.6299
H17 H 0.8095 0.0443 0.5607
H18 H 0.8475 0.0220 0.6871
C18 C 0.8207(2) 0.2480(4) 0.7573(2)
H19 H 0.8206 0.1861 0.8133
H20 H 0.7775 0.3210 0.7690
H21 H 0.8972 0.2733 0.7597
C19 C 0.58482(16) 0.1144(2) 0.42120(15)
C20 C 0.6273(2) 0.0098(3) 0.65221(19)
H22 H 0.6664 -0.0133 0.7251
H23 H 0.6575 -0.0381 0.6007
H24 H 0.5479 -0.0084 0.6418
O4 O 0.51032(12) 1.01873(15) 1.14958(11)
O5 O 0.32597(12) 1.02969(19) 1.12198(12)
O6 O 0.75432(13) 0.98471(19) 1.22925(12)
H25 H 0.7093 1.0070 1.2653
C21 C 0.3799(2) 1.1112(2) 0.90637(18)
H26 H 0.3503 1.1719 0.9505
H27 H 0.4465 1.1474 0.8880
C22 C 0.2925(2) 1.0798(3) 0.8056(2)
H28 H 0.3277 1.0632 0.7455
H29 H 0.2396 1.1498 0.7855
C23 C 0.23245(18) 0.9637(3) 0.83131(18)
C24 C 0.33296(17) 0.8853(2) 0.89797(16)
C25 C 0.39675(19) 0.8268(2) 0.82161(17)
H30 H 0.3535 0.7800 0.7639
C26 C 0.50510(19) 0.8334(2) 0.82605(16)
H31 H 0.5333 0.7985 0.7699
C27 C 0.58136(18) 0.8937(2) 0.91650(16)
C28 C 0.52953(17) 0.9537(2) 0.98643(16)
C29 C 0.40989(17) 0.9850(2) 0.96862(15)
C30 C 0.58454(17) 0.9798(2) 1.08908(16)
C31 C 0.69815(18) 0.9614(2) 1.12669(16)
C32 C 0.75587(18) 0.9139(2) 1.05279(17)
C33 C 0.69619(18) 0.8780(2) 0.95054(17)
H32 H 0.7352 0.8417 0.9028
C34 C 0.88150(18) 0.8999(3) 1.08812(18)
H33 H 0.8989 0.8596 1.1602
C35 C 0.93836(19) 1.0278(3) 1.1001(2)
H34 H 1.0184 1.0172 1.1292
H35 H 0.9075 1.0796 1.1487
H36 H 0.9255 1.0683 1.0299
C36 C 0.9305(2) 0.8184(3) 1.0141(2)
H37 H 0.8939 0.7368 1.0065
H38 H 1.0103 0.8076 1.0444
H39 H 0.9188 0.8582 0.9438
C37 C 0.1471(2) 0.9942(4) 0.8951(2)
H40 H 0.1851 1.0262 0.9656
H41 H 0.1057 0.9186 0.9038
H42 H 0.0956 1.0574 0.8570
C38 C 0.1703(2) 0.8998(4) 0.7273(2)
H43 H 0.1487 0.8155 0.7435
H44 H 0.2190 0.8952 0.6775
H45 H 0.1037 0.9480 0.6948
C39 C 0.40414(17) 1.0104(2) 1.08508(16)
C40 C 0.2993(2) 0.7803(2) 0.96403(19)
H46 H 0.2511 0.7213 0.9163
H47 H 0.2592 0.8152 1.0144
H48 H 0.3660 0.7369 1.0037
loop_
_geom_bond_atom_site_label_1
_geom_bond_atom_site_label_2
_geom_bond_site_symmetry_1
_geom_bond_site_symmetry_2
O1 C10 1_555 1_555
O2 C19 1_555 1_555
O3 H1 1_555 1_555
C1 H2 1_555 1_555
H3 C1 1_555 1_555
C2 C1 1_555 1_555
H4 C2 1_555 1_555
H5 C2 1_555 1_555
C3 C2 1_555 1_555
C4 C3 1_555 1_555
C5 C4 1_555 1_555
H6 C5 1_555 1_555
C6 C5 1_555 1_555
H7 C6 1_555 1_555
C7 C6 1_555 1_555
C8 C7 1_555 1_555
C9 C1 1_555 1_555
C10 C8 1_555 1_555
C11 O3 1_555 1_555
C12 C11 1_555 1_555
C13 C7 1_555 1_555
H8 C13 1_555 1_555
C14 C12 1_555 1_555
H9 C14 1_555 1_555
C15 C14 1_555 1_555
H10 C15 1_555 1_555
H11 C15 1_555 1_555
H12 C15 1_555 1_555
C16 C14 1_555 1_555
H13 C16 1_555 1_555
H14 C16 1_555 1_555
H15 C16 1_555 1_555
C17 C3 1_555 1_555
H16 C17 1_555 1_555
H17 C17 1_555 1_555
H18 C17 1_555 1_555
C18 C3 1_555 1_555
H19 C18 1_555 1_555
H20 C18 1_555 1_555
H21 C18 1_555 1_555
C19 O1 1_555 1_555
C20 C4 1_555 1_555
H22 C20 1_555 1_555
H23 C20 1_555 1_555
H24 C20 1_555 1_555
O4 C30 1_555 1_555
O5 C39 1_555 1_555
O6 H25 1_555 1_555
C21 H26 1_555 1_555
H27 C21 1_555 1_555
C22 C21 1_555 1_555
H28 C22 1_555 1_555
H29 C22 1_555 1_555
C23 C22 1_555 1_555
C24 C23 1_555 1_555
C25 C24 1_555 1_555
H30 C25 1_555 1_555
C26 C25 1_555 1_555
H31 C26 1_555 1_555
C27 C26 1_555 1_555
C28 C27 1_555 1_555
C29 C21 1_555 1_555
C30 C28 1_555 1_555
C31 O6 1_555 1_555
C32 C31 1_555 1_555
C33 C27 1_555 1_555
H32 C33 1_555 1_555
C34 C32 1_555 1_555
H33 C34 1_555 1_555
C35 C34 1_555 1_555
H34 C35 1_555 1_555
H35 C35 1_555 1_555
H36 C35 1_555 1_555
C36 C34 1_555 1_555
H37 C36 1_555 1_555
H38 C36 1_555 1_555
H39 C36 1_555 1_555
C37 C23 1_555 1_555
H40 C37 1_555 1_555
H41 C37 1_555 1_555
H42 C37 1_555 1_555
C38 C23 1_555 1_555
H43 C38 1_555 1_555
H44 C38 1_555 1_555
H45 C38 1_555 1_555
C39 O4 1_555 1_555
C40 C24 1_555 1_555
H46 C40 1_555 1_555
H47 C40 1_555 1_555
H48 C40 1_555 1_555
C4 C9 1_555 1_555
C8 C9 1_555 1_555
C9 C19 1_555 1_555
C10 C11 1_555 1_555
C12 C13 1_555 1_555
C24 C29 1_555 1_555
C28 C29 1_555 1_555
C29 C39 1_555 1_555
C30 C31 1_555 1_555
C32 C33 1_555 1_555

#END
