
#######################################################################
#
#                 Cambridge Crystallographic Data Centre
#                                CCDC 
#
#######################################################################
#
# If this CIF has been generated from an entry in the Cambridge 
# Structural Database, then it will include bibliographic, chemical, 
# crystal, experimental, refinement or atomic coordinate data resulting 
# from the CCDC's data processing and validation procedures.
#
#######################################################################

data_LUKDIG
_chemical_compound_source        'Caryopteris incana'
_chemical_formula_moiety         'C19 H26 O4'
_chemical_name_systematic        
5,6',6',9a'-tetramethyl-4,5,5a',6',7',8',9',9a'-octahydro-1'H,3H-spiro[furan-2,3'-naphtho[1,2-c]furan]-1',4'(5'H)-dione
_chemical_properties_biological  'anticancer activity'
_symmetry_cell_setting           monoclinic
_symmetry_space_group_name_H-M   'P 21'
_symmetry_Int_Tables_number      4
_space_group_name_Hall           'P 2yb'
loop_
_symmetry_equiv_pos_site_id
_symmetry_equiv_pos_as_xyz
1 x,y,z
2 -x,1/2+y,-z
_cell_length_a                   9.7007(2)
_cell_length_b                   6.22280(10)
_cell_length_c                   13.9225(3)
_cell_angle_alpha                90
_cell_angle_beta                 101.8700(10)
_cell_angle_gamma                90
_cell_volume                     822.468
_exptl_crystal_colour            colorless
_exptl_crystal_description       needle
_cell_formula_units_Z            2
loop_
_atom_site_label
_atom_site_type_symbol
_atom_site_fract_x
_atom_site_fract_y
_atom_site_fract_z
O1 O 1.2595(3) 0.4482(7) 0.7229(2)
O2 O 0.8233(3) 0.7002(6) 0.9300(2)
O3 O 1.0506(3) 0.7680(6) 0.9325(2)
O4 O 1.1913(3) 0.8963(6) 0.8283(2)
C1 C 0.6843(4) 0.4998(8) 0.7290(3)
H1 H 0.6505 0.4953 0.7914
H2 H 0.6904 0.6524 0.7102
C2 C 0.5791(5) 0.3840(10) 0.6497(3)
H3 H 0.4867 0.4574 0.6401
H4 H 0.5665 0.2348 0.6710
C3 C 0.6294(5) 0.3803(9) 0.5521(3)
H5 H 0.5592 0.3017 0.5028
H6 H 0.6336 0.5297 0.5285
C4 C 0.7741(5) 0.2752(9) 0.5586(3)
C5 C 0.8789(4) 0.3843(8) 0.6437(3)
H7 H 0.8829 0.5373 0.6225
C6 C 1.0311(4) 0.3035(9) 0.6564(3)
H8 H 1.0362 0.1541 0.6813
H9 H 1.0579 0.3016 0.5915
C7 C 1.1355(4) 0.4406(8) 0.7262(3)
C8 C 1.0754(4) 0.5592(8) 0.7995(3)
C9 C 0.9418(5) 0.5383(8) 0.8080(3)
C10 C 0.8321(4) 0.3977(8) 0.7448(3)
C11 C 1.1551(5) 0.7121(8) 0.8734(3)
C12 C 1.2884(5) 0.6314(8) 0.9414(3)
H10 H 1.2664 0.5550 0.9987
H11 H 1.3425 0.5346 0.9064
C13 C 1.3679(5) 0.8385(9) 0.9719(3)
H12 H 1.4708 0.8132 0.9882
H13 H 1.3383 0.9039 1.0292
C14 C 1.3271(5) 0.9810(9) 0.8810(3)
H14 H 1.3154 1.1329 0.9014
C15 C 1.4281(5) 0.9727(12) 0.8116(4)
H15 H 1.4459 0.8226 0.7967
H16 H 1.5170 1.0418 0.8425
H17 H 1.3869 1.0485 0.7508
C16 C 0.7649(5) 0.0303(9) 0.5684(3)
H18 H 0.7168 -0.0047 0.6217
H19 H 0.8601 -0.0306 0.5829
H20 H 0.7120 -0.0302 0.5067
C17 C 0.8200(5) 0.3240(10) 0.4611(3)
H21 H 0.9065 0.2446 0.4588
H22 H 0.8374 0.4785 0.4566
H23 H 0.7453 0.2801 0.4060
C18 C 0.8352(5) 0.1834(9) 0.8007(3)
H24 H 0.9248 0.1101 0.8014
H25 H 0.7572 0.0922 0.7679
H26 H 0.8256 0.2116 0.8682
C19 C 0.9252(5) 0.6723(8) 0.8952(3)
loop_
_geom_bond_atom_site_label_1
_geom_bond_atom_site_label_2
_geom_bond_site_symmetry_1
_geom_bond_site_symmetry_2
O1 C7 1_555 1_555
O2 C19 1_555 1_555
O3 C11 1_555 1_555
O4 C11 1_555 1_555
C1 H1 1_555 1_555
H2 C1 1_555 1_555
C2 C1 1_555 1_555
H3 C2 1_555 1_555
H4 C2 1_555 1_555
C3 C2 1_555 1_555
H5 C3 1_555 1_555
H6 C3 1_555 1_555
C4 C3 1_555 1_555
C5 C4 1_555 1_555
H7 C5 1_555 1_555
C6 C5 1_555 1_555
H8 C6 1_555 1_555
H9 C6 1_555 1_555
C7 C6 1_555 1_555
C8 C7 1_555 1_555
C9 C8 1_555 1_555
C10 C1 1_555 1_555
C11 C8 1_555 1_555
C12 C11 1_555 1_555
H10 C12 1_555 1_555
H11 C12 1_555 1_555
C13 C12 1_555 1_555
H12 C13 1_555 1_555
H13 C13 1_555 1_555
C14 O4 1_555 1_555
H14 C14 1_555 1_555
C15 C14 1_555 1_555
H15 C15 1_555 1_555
H16 C15 1_555 1_555
H17 C15 1_555 1_555
C16 C4 1_555 1_555
H18 C16 1_555 1_555
H19 C16 1_555 1_555
H20 C16 1_555 1_555
C17 C4 1_555 1_555
H21 C17 1_555 1_555
H22 C17 1_555 1_555
H23 C17 1_555 1_555
C18 C10 1_555 1_555
H24 C18 1_555 1_555
H25 C18 1_555 1_555
H26 C18 1_555 1_555
C19 O3 1_555 1_555
C5 C10 1_555 1_555
C9 C10 1_555 1_555
C9 C19 1_555 1_555
C13 C14 1_555 1_555

#END
