
#######################################################################
#
#                 Cambridge Crystallographic Data Centre
#                                CCDC 
#
#######################################################################
#
# If this CIF has been generated from an entry in the Cambridge 
# Structural Database, then it will include bibliographic, chemical, 
# crystal, experimental, refinement or atomic coordinate data resulting 
# from the CCDC's data processing and validation procedures.
#
#######################################################################

data_LUKFED
_chemical_formula_moiety         'C17 H18'
_chemical_name_systematic        1,3-bis(p-tolyl)propene
_symmetry_cell_setting           monoclinic
_symmetry_space_group_name_H-M   'P 21/c'
_symmetry_Int_Tables_number      14
_space_group_name_Hall           '-P 2ybc'
loop_
_symmetry_equiv_pos_site_id
_symmetry_equiv_pos_as_xyz
1 x,y,z
2 -x,1/2+y,1/2-z
3 -x,-y,-z
4 x,1/2-y,1/2+z
_cell_length_a                   15.2210(18)
_cell_length_b                   14.4204(17)
_cell_length_c                   5.9497(7)
_cell_angle_alpha                90
_cell_angle_beta                 101.27
_cell_angle_gamma                90
_cell_volume                     1280.74
_exptl_crystal_colour            colorless
_exptl_crystal_description       block
_cell_formula_units_Z            4
loop_
_atom_site_label
_atom_site_type_symbol
_atom_site_fract_x
_atom_site_fract_y
_atom_site_fract_z
C1 C 0.82704(14) 0.10153(14) 0.3763(4)
H1 H 0.8300 0.0568 0.4902
C2 C 0.90081(15) 0.15005(17) 0.3716(4)
H2 H 0.8975 0.1940 0.2559
C3 C 0.98697(14) 0.14103(15) 0.5311(4)
H3 H 0.9841 0.0869 0.6263
H4 H 0.9947 0.1948 0.6312
C4 C 0.74091(14) 0.11290(13) 0.2153(4)
C5 C 0.66093(14) 0.08251(13) 0.2729(3)
H5 H 0.6624 0.0534 0.4131
C6 C 0.57937(13) 0.09504(13) 0.1243(3)
H6 H 0.5271 0.0746 0.1670
C7 C 0.57459(14) 0.13781(13) -0.0877(4)
C8 C 0.65433(14) 0.16685(14) -0.1466(4)
H7 H 0.6528 0.1951 -0.2878
C9 C 0.73564(14) 0.15450(14) 0.0008(4)
H8 H 0.7879 0.1743 -0.0435
C10 C 0.48638(15) 0.15214(16) -0.2504(4)
H9 H 0.4966 0.1830 -0.3860
H10 H 0.4478 0.1894 -0.1776
H11 H 0.4586 0.0931 -0.2913
C11 C 1.06934(13) 0.13225(13) 0.4247(4)
C12 C 1.06687(14) 0.09193(14) 0.2109(4)
H12 H 1.0124 0.0720 0.1253
C13 C 1.14423(14) 0.08109(14) 0.1235(3)
H13 H 1.1409 0.0535 -0.0192
C14 C 1.22701(14) 0.11094(13) 0.2461(3)
C15 C 1.22905(13) 0.15191(13) 0.4588(3)
H14 H 1.2834 0.1725 0.5437
C16 C 1.15181(13) 0.16270(13) 0.5468(3)
H15 H 1.1551 0.1906 0.6891
C17 C 1.31075(15) 0.10016(15) 0.1501(4)
H16 H 1.3609 0.1244 0.2573
H17 H 1.3043 0.1336 0.0082
H18 H 1.3205 0.0357 0.1234
loop_
_geom_bond_atom_site_label_1
_geom_bond_atom_site_label_2
_geom_bond_site_symmetry_1
_geom_bond_site_symmetry_2
C1 H1 1_555 1_555
C2 C1 1_555 1_555
H2 C2 1_555 1_555
C3 C2 1_555 1_555
H3 C3 1_555 1_555
H4 C3 1_555 1_555
C4 C1 1_555 1_555
C5 C4 1_555 1_555
H5 C5 1_555 1_555
C6 C5 1_555 1_555
H6 C6 1_555 1_555
C7 C6 1_555 1_555
C8 C7 1_555 1_555
H7 C8 1_555 1_555
C9 C4 1_555 1_555
H8 C9 1_555 1_555
C10 C7 1_555 1_555
H9 C10 1_555 1_555
H10 C10 1_555 1_555
H11 C10 1_555 1_555
C11 C3 1_555 1_555
C12 C11 1_555 1_555
H12 C12 1_555 1_555
C13 C12 1_555 1_555
H13 C13 1_555 1_555
C14 C13 1_555 1_555
C15 C14 1_555 1_555
H14 C15 1_555 1_555
C16 C11 1_555 1_555
H15 C16 1_555 1_555
C17 C14 1_555 1_555
H16 C17 1_555 1_555
H17 C17 1_555 1_555
H18 C17 1_555 1_555
C8 C9 1_555 1_555
C15 C16 1_555 1_555

#END
