
#######################################################################
#
#                 Cambridge Crystallographic Data Centre
#                                CCDC 
#
#######################################################################
#
# If this CIF has been generated from an entry in the Cambridge 
# Structural Database, then it will include bibliographic, chemical, 
# crystal, experimental, refinement or atomic coordinate data resulting 
# from the CCDC's data processing and validation procedures.
#
#######################################################################

data_LUKGOO
_chemical_formula_moiety         'C15 H16 N4 O2 S1'
_chemical_name_systematic        
5-Amino-4-cyano-N-(dimethylcarbamoyl)-3-phenyl-2,3-dihydrothiophene-2-carboxamide
_symmetry_cell_setting           monoclinic
_symmetry_space_group_name_H-M   'P 21/n'
_symmetry_Int_Tables_number      14
_space_group_name_Hall           '-P 2yn'
loop_
_symmetry_equiv_pos_site_id
_symmetry_equiv_pos_as_xyz
1 x,y,z
2 1/2-x,1/2+y,1/2-z
3 -x,-y,-z
4 1/2+x,1/2-y,1/2+z
_cell_length_a                   6.6668(8)
_cell_length_b                   14.9641(17)
_cell_length_c                   15.9727(18)
_cell_angle_alpha                90
_cell_angle_beta                 95.1860(10)
_cell_angle_gamma                90
_cell_volume                     1586.96
_exptl_crystal_colour            colorless
_exptl_crystal_description       block
_cell_formula_units_Z            4
loop_
_atom_site_label
_atom_site_type_symbol
_atom_site_fract_x
_atom_site_fract_y
_atom_site_fract_z
S1 S 0.25517(7) 0.51450(3) 0.25301(3)
O1 O 0.1011(2) 0.36433(9) 0.15860(8)
O2 O 0.5936(2) 0.50273(12) 0.09301(9)
N1 N 0.0081(3) 0.35560(12) 0.01879(10)
C1 C 0.6593(3) 0.48477(14) 0.26210(11)
H1 H 0.7656 0.4793 0.2238
N2 N 0.3042(2) 0.42825(12) 0.06702(9)
C2 C 0.4616(3) 0.44774(13) 0.21672(11)
H2 H 0.4448 0.3844 0.2301
N3 N 0.3378(2) 0.68614(11) 0.28395(12)
C3 C 0.1329(3) 0.38062(12) 0.08557(12)
C4 C 0.4192(3) 0.60575(13) 0.27280(11)
C5 C 0.4580(3) 0.46130(14) 0.12196(11)
C6 C 0.6178(3) 0.58300(14) 0.27406(11)
N4 N 0.8974(3) 0.70032(15) 0.29668(13)
C7 C 0.7269(3) 0.43432(15) 0.34276(12)
C8 C 0.7722(3) 0.64727(15) 0.28674(12)
C9 C 0.8518(4) 0.36434(16) 0.33934(15)
H3 H 0.8936 0.3473 0.2877
C10 C -0.1753(4) 0.30772(18) 0.03325(16)
H4 H -0.1599 0.2457 0.0200
H5 H -0.2863 0.3323 -0.0019
H6 H -0.2009 0.3136 0.0912
C11 C 0.8666(4) 0.3406(2) 0.48704(16)
H7 H 0.8824 0.3021 0.5329
C12 C 0.0475(4) 0.3669(2) -0.06909(13)
H8 H 0.0321 0.4286 -0.0845
H9 H -0.0461 0.3314 -0.1042
H10 H 0.1824 0.3479 -0.0763
C13 C 0.7131(8) 0.4765(4) 0.4224(3)
H11 H 0.6589 0.5334 0.4263
C14 C 0.7840(9) 0.4289(4) 0.4935(3)
H12 H 0.7780 0.4544 0.5463
C15 C 0.9198(5) 0.3169(2) 0.41069(18)
H13 H 1.0038 0.2679 0.4059
H14 H 0.3167 0.4407 0.0143
H15 H 0.2051 0.6945 0.2838
H16 H 0.4048 0.7315 0.2985
C16? C 0.7012(12) 0.3897(5) 0.4888(3)
C17? C 0.6263(12) 0.4361(5) 0.4159(3)
H17? H 0.6356 0.3934 0.5376
H18? H 0.5075 0.4687 0.4164
loop_
_geom_bond_atom_site_label_1
_geom_bond_atom_site_label_2
_geom_bond_site_symmetry_1
_geom_bond_site_symmetry_2
S1 C2 1_555 1_555
O1 C3 1_555 1_555
O2 C5 1_555 1_555
N1 C3 1_555 1_555
C1 H1 1_555 1_555
N2 C3 1_555 1_555
C2 C1 1_555 1_555
H2 C2 1_555 1_555
N3 C4 1_555 1_555
C4 S1 1_555 1_555
C5 N2 1_555 1_555
C6 C1 1_555 1_555
N4 C8 1_555 1_555
C7 C1 1_555 1_555
C8 C6 1_555 1_555
C9 C7 1_555 1_555
H3 C9 1_555 1_555
C10 N1 1_555 1_555
H4 C10 1_555 1_555
H5 C10 1_555 1_555
H6 C10 1_555 1_555
C11 H7 1_555 1_555
C12 N1 1_555 1_555
H8 C12 1_555 1_555
H9 C12 1_555 1_555
H10 C12 1_555 1_555
C13 C7 1_555 1_555
H11 C13 1_555 1_555
C14 C11 1_555 1_555
H12 C14 1_555 1_555
C15 C9 1_555 1_555
H13 C15 1_555 1_555
H14 N2 1_555 1_555
H15 N3 1_555 1_555
H16 N3 1_555 1_555
C2 C5 1_555 1_555
C4 C6 1_555 1_555
C11 C15 1_555 1_555
C13 C14 1_555 1_555

#END
