
#######################################################################
#
#                 Cambridge Crystallographic Data Centre
#                                CCDC 
#
#######################################################################
#
# If this CIF has been generated from an entry in the Cambridge 
# Structural Database, then it will include bibliographic, chemical, 
# crystal, experimental, refinement or atomic coordinate data resulting 
# from the CCDC's data processing and validation procedures.
#
#######################################################################

data_LUKGII
_chemical_formula_moiety         'C19 H22 N4 O3 S1'
_chemical_name_systematic        
N-((5-Amino-4-cyano-3-(4-methoxyphenyl)-2,3-dihydrothiophen-2-yl)carbonyl)piperidine-1-carboxamide
_symmetry_cell_setting           monoclinic
_symmetry_space_group_name_H-M   'P 21/n'
_symmetry_Int_Tables_number      14
_space_group_name_Hall           '-P 2yn'
loop_
_symmetry_equiv_pos_site_id
_symmetry_equiv_pos_as_xyz
1 x,y,z
2 1/2-x,1/2+y,1/2-z
3 -x,-y,-z
4 1/2+x,1/2-y,1/2+z
_cell_length_a                   6.8696(9)
_cell_length_b                   15.464(2)
_cell_length_c                   17.975(2)
_cell_angle_alpha                90
_cell_angle_beta                 92.963(2)
_cell_angle_gamma                90
_cell_volume                     1906.96
_cell_formula_units_Z            4
loop_
_atom_site_label
_atom_site_type_symbol
_atom_site_fract_x
_atom_site_fract_y
_atom_site_fract_z
S1 S 0.25691(10) 1.05514(5) 0.23041(4)
O1 O 0.1307(3) 0.89196(14) 0.16660(11)
O2 O 0.5842(3) 1.02827(15) 0.08533(11)
N1 N 0.3234(4) 0.94357(17) 0.07662(13)
C1 C 0.7511(4) 1.18735(19) 0.26195(15)
C2 C 0.6502(4) 1.03101(18) 0.23884(15)
H1 H 0.7545 1.0258 0.2039
C3 C 0.6021(4) 1.12575(18) 0.24736(15)
N2 N 0.3242(4) 1.22231(16) 0.25781(15)
O3 O 0.9238(4) 0.86074(18) 0.50414(13)
C4 C 0.4090(4) 1.14516(18) 0.24678(14)
C5 C 0.4626(4) 0.98856(18) 0.20270(14)
H2 H 0.4491 0.9293 0.2211
C6 C 0.7173(4) 0.98714(18) 0.31167(15)
N3 N 0.8775(4) 1.23527(18) 0.27315(15)
C7 C 0.8465(5) 0.9192(2) 0.31072(17)
H3 H 0.8918 0.9008 0.2655
C8 C 0.4628(4) 0.98880(18) 0.11853(15)
C9 C 0.8491(4) 0.9050(2) 0.44293(17)
C10 C 0.7215(5) 0.9727(2) 0.44584(17)
H4 H 0.6778 0.9911 0.4913
C11 C 0.6579(5) 1.0135(2) 0.38035(17)
H5 H 0.5727 1.0600 0.3827
C12 C 0.9101(5) 0.8777(2) 0.37525(19)
H6 H 0.9947 0.8310 0.3730
C13 C 0.1622(5) 0.8985(2) 0.10148(17)
C14 C 0.8662(6) 0.8869(3) 0.57541(19)
H7 H 0.8997 0.9466 0.5834
H8 H 0.9322 0.8521 0.6131
H9 H 0.7279 0.8798 0.5780
N4 N 0.0057(8) 0.8874(4) 0.0448(3)
C15 C -0.1602(14) 0.8337(8) 0.0649(7)
H10 H -0.1123 0.7811 0.0887
H11 H -0.2364 0.8648 0.1001
C16 C -0.2507(11) 0.8177(7) 0.0168(5)
H12 H -0.3339 0.8678 0.0081
H13 H -0.3353 0.7720 0.0330
C17 C -0.1918(14) 0.7900(9) -0.0603(5)
H14 H -0.2926 0.8055 -0.0977
H15 H -0.1730 0.7278 -0.0618
C18 C 0.005(2) 0.8384(8) -0.0758(9)
H16 H 0.1147 0.7988 -0.0696
H17 H 0.0010 0.8604 -0.1264
C19 C 0.0226(11) 0.8933(5) -0.0349(4)
H18 H -0.0708 0.9369 -0.0520
H19 H 0.1506 0.9175 -0.0419
H30 H 0.1960 1.2329 0.2616
H31 H 0.3818 1.2669 0.2766
H32 H 0.3443 0.9557 0.0258
N5? N 0.0881(9) 0.8386(5) 0.0530(3)
C20? C 0.053(2) 0.7986(8) -0.0682(9)
H20? H 0.1231 0.7716 -0.1075
H21? H -0.0020 0.8525 -0.0873
C21? C -0.0887(16) 0.7951(10) 0.0705(7)
H22? H -0.0719 0.7726 0.1208
H23? H -0.1922 0.8378 0.0704
C22? C -0.1358(14) 0.7435(5) 0.0349(5)
H24? H -0.2753 0.7380 0.0398
H25? H -0.0771 0.6913 0.0559
C23? C 0.1540(11) 0.8121(5) -0.0206(4)
H26? H 0.2416 0.8569 -0.0363
H27? H 0.2324 0.7604 -0.0125
C24? C -0.1035(15) 0.7416(6) -0.0468(6)
H28? H -0.0731 0.6829 -0.0611
H29? H -0.2233 0.7583 -0.0740
loop_
_geom_bond_atom_site_label_1
_geom_bond_atom_site_label_2
_geom_bond_site_symmetry_1
_geom_bond_site_symmetry_2
S1 C4 1_555 1_555
O1 C13 1_555 1_555
O2 C8 1_555 1_555
N1 C8 1_555 1_555
C1 C3 1_555 1_555
C2 H1 1_555 1_555
C3 C2 1_555 1_555
N2 C4 1_555 1_555
O3 C9 1_555 1_555
C4 C3 1_555 1_555
C5 S1 1_555 1_555
H2 C5 1_555 1_555
C6 C2 1_555 1_555
N3 C1 1_555 1_555
C7 C6 1_555 1_555
H3 C7 1_555 1_555
C8 C5 1_555 1_555
C9 C10 1_555 1_555
C10 H4 1_555 1_555
C11 C6 1_555 1_555
H5 C11 1_555 1_555
C12 C7 1_555 1_555
H6 C12 1_555 1_555
C13 N1 1_555 1_555
C14 O3 1_555 1_555
H7 C14 1_555 1_555
H8 C14 1_555 1_555
H9 C14 1_555 1_555
N4 C13 1_555 1_555
C15 N4 1_555 1_555
H10 C15 1_555 1_555
H11 C15 1_555 1_555
C16 C15 1_555 1_555
H12 C16 1_555 1_555
H13 C16 1_555 1_555
C17 C16 1_555 1_555
H14 C17 1_555 1_555
H15 C17 1_555 1_555
C18 C17 1_555 1_555
H16 C18 1_555 1_555
H17 C18 1_555 1_555
C19 N4 1_555 1_555
H18 C19 1_555 1_555
H19 C19 1_555 1_555
H30 N2 1_555 1_555
H31 N2 1_555 1_555
H32 N1 1_555 1_555
C2 C5 1_555 1_555
C9 C12 1_555 1_555
C10 C11 1_555 1_555
C18 C19 1_555 1_555

#END
