
#######################################################################
#
#                 Cambridge Crystallographic Data Centre
#                                CCDC 
#
#######################################################################
#
# If this CIF has been generated from an entry in the Cambridge 
# Structural Database, then it will include bibliographic, chemical, 
# crystal, experimental, refinement or atomic coordinate data resulting 
# from the CCDC's data processing and validation procedures.
#
#######################################################################

data_LUKHIJ
_chemical_formula_moiety         'C17 H17 F1 N4 O3 S1'
_chemical_name_systematic        
N-((5-Amino-4-cyano-3-(4-fluorophenyl)-2,3-dihydrothiophen-2-yl)carbonyl)morpholine-4-carboxamide
_symmetry_cell_setting           triclinic
_symmetry_space_group_name_H-M   'P -1'
_symmetry_Int_Tables_number      2
_space_group_name_Hall           '-P 1'
loop_
_symmetry_equiv_pos_site_id
_symmetry_equiv_pos_as_xyz
1 x,y,z
2 -x,-y,-z
_cell_length_a                   6.7158(10)
_cell_length_b                   11.9402(17)
_cell_length_c                   13.3729(19)
_cell_angle_alpha                98.031(2)
_cell_angle_beta                 95.781(2)
_cell_angle_gamma                99.664(2)
_cell_volume                     1038.26
_exptl_crystal_colour            'light yellow'
_exptl_crystal_description       block
_cell_formula_units_Z            2
loop_
_atom_site_label
_atom_site_type_symbol
_atom_site_fract_x
_atom_site_fract_y
_atom_site_fract_z
S1 S 0.27986(6) 0.73378(3) 0.79459(3)
O1 O 0.61348(19) 0.58817(12) 0.92328(10)
O2 O 0.0423(2) 0.50945(12) 0.76033(11)
N1 N 0.2983(2) 0.48721(12) 0.87960(11)
H1 H 0.3181 0.4542 0.9320
C1 C 0.6715(2) 0.81151(14) 0.80413(12)
C2 C 0.4585(3) 0.56661(14) 0.86253(12)
C3 C 0.4944(2) 0.84529(14) 0.82698(13)
N2 N -0.0045(2) 0.35477(14) 0.84146(13)
C4 C 0.4413(2) 0.62571(14) 0.76932(12)
H2 H 0.3778 0.5691 0.7096
C5 C 0.1054(3) 0.45315(14) 0.82160(13)
C6 C 0.6503(2) 0.68947(14) 0.74804(12)
H3 H 0.7588 0.6536 0.7772
N3 N 0.4655(3) 0.94953(14) 0.86769(15)
C7 C 0.6599(3) 0.68516(15) 0.63410(13)
C8 C 0.8592(3) 0.88835(15) 0.82411(14)
O3 O -0.2666(2) 0.17363(14) 0.89940(15)
C9 C 0.0757(3) 0.26171(16) 0.88407(15)
H4 H 0.2091 0.2916 0.9224
H5 H 0.0896 0.2020 0.8294
N4 N 1.0135(2) 0.95105(16) 0.84190(16)
F1 F 0.6870(3) 0.67426(18) 0.32647(10)
C10 C 0.6777(4) 0.6767(2) 0.42865(15)
C11 C -0.2130(3) 0.3174(2) 0.78918(19)
H6 H -0.2143 0.2615 0.7289
H7 H -0.2647 0.3827 0.7682
C12 C -0.0668(4) 0.21301(19) 0.95193(18)
H8 H -0.0176 0.1494 0.9779
H9 H -0.0708 0.2715 1.0095
C13 C 0.7833(4) 0.6220(2) 0.58511(16)
H10 H 0.8624 0.5811 0.6220
C14 C 0.5465(5) 0.7457(3) 0.57683(18)
H11 H 0.4632 0.7906 0.6085
C15 C 0.7935(4) 0.6174(3) 0.48093(17)
H12 H 0.8784 0.5744 0.4484
C16 C -0.3442(3) 0.2647(2) 0.8605(2)
H13 H -0.3538 0.3235 0.9167
H14 H -0.4802 0.2354 0.8251
C17 C 0.5541(5) 0.7409(3) 0.47314(19)
H15 H 0.4757 0.7810 0.4351
H16 H 0.3342 0.9641 0.8752
H17 H 0.5535 1.0196 0.8799
loop_
_geom_bond_atom_site_label_1
_geom_bond_atom_site_label_2
_geom_bond_site_symmetry_1
_geom_bond_site_symmetry_2
S1 C3 1_555 1_555
O1 C2 1_555 1_555
O2 C5 1_555 1_555
N1 H1 1_555 1_555
C1 C3 1_555 1_555
C2 N1 1_555 1_555
C3 N3 1_555 1_555
N2 C5 1_555 1_555
C4 S1 1_555 1_555
H2 C4 1_555 1_555
C5 N1 1_555 1_555
C6 C1 1_555 1_555
H3 C6 1_555 1_555
N3 H16 1_555 1_555
C7 C6 1_555 1_555
C8 C1 1_555 1_555
O3 C12 1_555 1_555
C9 N2 1_555 1_555
H4 C9 1_555 1_555
H5 C9 1_555 1_555
N4 C8 1_555 1_555
F1 C10 1_555 1_555
C10 C15 1_555 1_555
C11 N2 1_555 1_555
H6 C11 1_555 1_555
H7 C11 1_555 1_555
C12 C9 1_555 1_555
H8 C12 1_555 1_555
H9 C12 1_555 1_555
C13 C7 1_555 1_555
H10 C13 1_555 1_555
C14 C7 1_555 1_555
H11 C14 1_555 1_555
C15 C13 1_555 1_555
H12 C15 1_555 1_555
C16 O3 1_555 1_555
H13 C16 1_555 1_555
H14 C16 1_555 1_555
C17 C10 1_555 1_555
H15 C17 1_555 1_555
H17 N3 1_555 1_555
C2 C4 1_555 1_555
C4 C6 1_555 1_555
C11 C16 1_555 1_555
C14 C17 1_555 1_555

#END
