
#######################################################################
#
#                 Cambridge Crystallographic Data Centre
#                                CCDC 
#
#######################################################################
#
# If this CIF has been generated from an entry in the Cambridge 
# Structural Database, then it will include bibliographic, chemical, 
# crystal, experimental, refinement or atomic coordinate data resulting 
# from the CCDC's data processing and validation procedures.
#
#######################################################################

data_LUKHAB
_chemical_formula_moiety         'C17 H17 F1 N4 O2 S1,C3 H7 N1 O1'
_chemical_name_systematic        
'N-((5-Amino-4-cyano-3-(4-fluorophenyl)-2,3-dihydrothiophen-2-yl)carbonyl)pyrrolidine-1-carboxamide N,N-dimethylformamide'
_symmetry_cell_setting           triclinic
_symmetry_space_group_name_H-M   'P -1'
_symmetry_Int_Tables_number      2
_space_group_name_Hall           '-P 1'
loop_
_symmetry_equiv_pos_site_id
_symmetry_equiv_pos_as_xyz
1 x,y,z
2 -x,-y,-z
_cell_length_a                   6.5865(7)
_cell_length_b                   12.5670(13)
_cell_length_c                   14.6548(15)
_cell_angle_alpha                66.5450(10)
_cell_angle_beta                 81.0860(10)
_cell_angle_gamma                87.7400(10)
_cell_volume                     1099.02
_exptl_crystal_colour            colorless
_exptl_crystal_description       block
_cell_formula_units_Z            2
loop_
_atom_site_label
_atom_site_type_symbol
_atom_site_fract_x
_atom_site_fract_y
_atom_site_fract_z
S1 S 0.60667(6) 0.14240(4) 0.20882(3)
O1 O 0.50672(19) 0.23334(11) 0.01403(9)
O2 O 1.03169(19) 0.04865(11) 0.08310(9)
N1 N 0.7693(2) 0.11275(12) -0.00452(10)
H1 H 0.8065 0.0661 -0.0336
N2 N 0.6611(2) 0.00208(14) 0.39641(10)
C1 C 1.0973(2) 0.05892(16) 0.34668(12)
C2 C 0.7550(2) 0.07584(14) 0.30577(11)
N3 N 0.5297(2) 0.17434(13) -0.11419(11)
N4 N 1.2076(2) 0.01641(17) 0.40453(12)
C3 C 0.8872(2) 0.11435(14) 0.06411(11)
C4 C 0.5939(2) 0.17847(14) -0.03327(12)
C5 C 1.0161(2) 0.20236(13) 0.17403(12)
H2 H 1.1454 0.1827 0.1419
C6 C 0.8404(2) 0.19798(14) 0.11602(11)
H3 H 0.8177 0.2758 0.0666
C7 C 1.0414(3) 0.32144(14) 0.17615(13)
C8 C 0.9580(2) 0.10755(14) 0.27806(12)
F1 F 1.1224(2) 0.63997(11) 0.18625(12)
C9 C 1.2020(3) 0.39556(15) 0.11402(13)
H4 H 1.2922 0.3729 0.0699
C10 C 0.3501(3) 0.24149(18) -0.15162(14)
H5 H 0.3752 0.3239 -0.1721
H6 H 0.2287 0.2171 -0.1008
C11 C 0.6448(3) 0.13229(17) -0.18789(14)
H7 H 0.6267 0.0490 -0.1656
H8 H 0.7903 0.1514 -0.1993
C12 C 1.2304(3) 0.50372(16) 0.11668(16)
H9 H 1.3384 0.5534 0.0751
C13 C 0.3267(3) 0.21316(19) -0.24138(16)
H10 H 0.2449 0.1426 -0.2205
H11 H 0.2634 0.2762 -0.2912
C14 C 1.0951(3) 0.53473(16) 0.18210(17)
C15 C 0.5477(3) 0.19753(19) -0.28232(15)
H12 H 0.6169 0.2720 -0.3223
H13 H 0.5527 0.1527 -0.3233
C16 C 0.9082(3) 0.35742(19) 0.24136(19)
H14 H 0.7999 0.3084 0.2836
C17 C 0.9337(4) 0.4650(2) 0.2447(2)
H15 H 0.8439 0.4888 0.2881
H22 H 0.5332 -0.0100 0.4106
H23 H 0.7195 -0.0141 0.4507
N5 N 0.2521(3) 0.34929(17) 0.45527(14)
C18 C 0.3611(5) 0.3016(3) 0.3889(2)
H16 H 0.4416 0.3618 0.3335
H17 H 0.2649 0.2685 0.3639
H18 H 0.4501 0.2424 0.4245
C19 C 0.0640(5) 0.2918(3) 0.5161(2)
H19 H 0.0945 0.2186 0.5665
H20 H -0.0227 0.2789 0.4744
H21 H -0.0054 0.3394 0.5481
C20 C 0.3210(6) 0.4441(3) 0.4594(4)
O3 O 0.2170(7) 0.4695(4) 0.5392(3)
O4? O 0.4911(7) 0.5041(4) 0.3800(4)
loop_
_geom_bond_atom_site_label_1
_geom_bond_atom_site_label_2
_geom_bond_site_symmetry_1
_geom_bond_site_symmetry_2
S1 C2 1_555 1_555
O1 C4 1_555 1_555
O2 C3 1_555 1_555
N1 H1 1_555 1_555
N2 C2 1_555 1_555
C1 N4 1_555 1_555
C2 C8 1_555 1_555
N3 C4 1_555 1_555
C3 N1 1_555 1_555
C4 N1 1_555 1_555
C5 H2 1_555 1_555
C6 S1 1_555 1_555
H3 C6 1_555 1_555
C7 C5 1_555 1_555
C8 C1 1_555 1_555
F1 C14 1_555 1_555
C9 C7 1_555 1_555
H4 C9 1_555 1_555
C10 N3 1_555 1_555
H5 C10 1_555 1_555
H6 C10 1_555 1_555
C11 N3 1_555 1_555
H7 C11 1_555 1_555
H8 C11 1_555 1_555
C12 C9 1_555 1_555
H9 C12 1_555 1_555
C13 C10 1_555 1_555
H10 C13 1_555 1_555
H11 C13 1_555 1_555
C14 C12 1_555 1_555
C15 C11 1_555 1_555
H12 C15 1_555 1_555
H13 C15 1_555 1_555
C16 C7 1_555 1_555
H14 C16 1_555 1_555
C17 C14 1_555 1_555
H15 C17 1_555 1_555
N5 C18 1_555 1_555
C18 H16 1_555 1_555
H17 C18 1_555 1_555
H18 C18 1_555 1_555
C19 N5 1_555 1_555
H19 C19 1_555 1_555
H20 C19 1_555 1_555
H21 C19 1_555 1_555
C20 N5 1_555 1_555
O3 C20 1_555 1_555
H22 N2 1_555 1_555
H23 N2 1_555 1_555
C3 C6 1_555 1_555
C5 C6 1_555 1_555
C5 C8 1_555 1_555
C13 C15 1_555 1_555
C16 C17 1_555 1_555

#END
