
#######################################################################
#
#                 Cambridge Crystallographic Data Centre
#                                CCDC 
#
#######################################################################
#
# If this CIF has been generated from an entry in the Cambridge 
# Structural Database, then it will include bibliographic, chemical, 
# crystal, experimental, refinement or atomic coordinate data resulting 
# from the CCDC's data processing and validation procedures.
#
#######################################################################

data_LUKHOP
_chemical_formula_moiety         'C20 H17 Cl1 N4 O2 S1'
_chemical_name_systematic        
5-Amino-N-(benzylcarbamoyl)-3-(4-chlorophenyl)-4-cyano-2,3-dihydrothiophene-2-carboxamide
_symmetry_cell_setting           triclinic
_symmetry_space_group_name_H-M   'P -1'
_symmetry_Int_Tables_number      2
_space_group_name_Hall           '-P 1'
loop_
_symmetry_equiv_pos_site_id
_symmetry_equiv_pos_as_xyz
1 x,y,z
2 -x,-y,-z
_cell_length_a                   9.740(5)
_cell_length_b                   10.793(10)
_cell_length_c                   10.943(6)
_cell_angle_alpha                103.474(8)
_cell_angle_beta                 111.391(6)
_cell_angle_gamma                96.195(8)
_cell_volume                     1017.73
_exptl_crystal_colour            colorless
_exptl_crystal_description       sheet
_cell_formula_units_Z            2
loop_
_atom_site_label
_atom_site_type_symbol
_atom_site_fract_x
_atom_site_fract_y
_atom_site_fract_z
S1 S 0.36236(17) 0.60129(17) 0.91247(14)
Cl1 Cl 0.2818(4) 1.2370(3) 0.7900(5)
C1 C 0.2238(7) 0.8013(6) 0.7060(6)
C2 C 0.1754(6) 0.6129(6) 0.7984(6)
H1 H 0.1375 0.6790 0.8478
C3 C 0.0676(7) 0.4798(6) 0.7464(6)
C4 C 0.4198(7) 0.5649(6) 0.7741(6)
C5 C 0.3263(7) 0.5944(6) 0.6630(6)
N1 N -0.1497(6) 0.2551(5) 0.7037(5)
C6 C 0.1957(7) 0.6534(6) 0.6790(6)
H2 H 0.1041 0.6132 0.5951
C7 C 0.3388(7) 0.5709(7) 0.5359(7)
N2 N 0.5453(7) 0.5201(6) 0.7923(6)
H3 H 0.5773 0.5058 0.7278
H4 H 0.5946 0.5053 0.8686
N3 N 0.3467(9) 0.5530(8) 0.4310(6)
N4 N 0.0151(7) 0.4534(6) 0.8385(6)
H5 H 0.0599 0.5050 0.9208
O1 O -0.1539(8) 0.3601(7) 0.9049(6)
C8 C -0.1023(8) 0.3532(7) 0.8167(7)
C9 C -0.2897(8) 0.1576(7) 0.6585(8)
H6 H -0.3413 0.1355 0.5594
H7 H -0.3551 0.1964 0.6979
C10 C 0.3645(8) 0.8812(8) 0.7765(9)
H8 H 0.4485 0.8448 0.8063
C11 C 0.1011(8) 0.8578(7) 0.6586(9)
H9 H 0.0053 0.8047 0.6084
C12 C -0.2667(9) 0.0355(8) 0.6967(10)
C13 C 0.2603(10) 1.0687(8) 0.7569(10)
C14 C -0.2904(16) -0.1978(12) 0.627(2)
H10 H -0.3167 -0.2766 0.5585
C15 C -0.1955(15) -0.0840(14) 0.8629(18)
H11 H -0.1556 -0.0852 0.9538
C16 C 0.3835(10) 1.0161(8) 0.8043(11)
H12 H 0.4790 1.0697 0.8546
C17 C 0.1184(11) 0.9916(9) 0.6844(11)
H13 H 0.0352 1.0285 0.6530
C18 C -0.3050(12) -0.0827(10) 0.5940(14)
H14 H -0.3407 -0.0837 0.5024
C19 C -0.2360(18) -0.1931(17) 0.763(3)
H15 H -0.2274 -0.2707 0.7856
C20 C -0.2123(14) 0.0335(13) 0.8333(13)
H16 H -0.1875 0.1103 0.9039
O2 O 0.0321(5) 0.4056(4) 0.6324(4)
H17 H -0.1227 0.2605 0.6173
loop_
_geom_bond_atom_site_label_1
_geom_bond_atom_site_label_2
_geom_bond_site_symmetry_1
_geom_bond_site_symmetry_2
S1 C2 1_555 1_555
Cl1 C13 1_555 1_555
C1 C6 1_555 1_555
C2 H1 1_555 1_555
C3 C2 1_555 1_555
C4 S1 1_555 1_555
C5 C4 1_555 1_555
N1 C8 1_555 1_555
C6 C2 1_555 1_555
H2 C6 1_555 1_555
C7 C5 1_555 1_555
N2 C4 1_555 1_555
H3 N2 1_555 1_555
H4 N2 1_555 1_555
N3 C7 1_555 1_555
N4 C3 1_555 1_555
H5 N4 1_555 1_555
O1 C8 1_555 1_555
C8 N4 1_555 1_555
C9 N1 1_555 1_555
H6 C9 1_555 1_555
H7 C9 1_555 1_555
C10 C1 1_555 1_555
H8 C10 1_555 1_555
C11 C1 1_555 1_555
H9 C11 1_555 1_555
C12 C9 1_555 1_555
C13 C16 1_555 1_555
C14 H10 1_555 1_555
C15 H11 1_555 1_555
C16 C10 1_555 1_555
H12 C16 1_555 1_555
C17 C11 1_555 1_555
H13 C17 1_555 1_555
C18 C12 1_555 1_555
H14 C18 1_555 1_555
C19 C14 1_555 1_555
H15 C19 1_555 1_555
C20 C12 1_555 1_555
H16 C20 1_555 1_555
O2 C3 1_555 1_555
H17 N1 1_555 1_555
C5 C6 1_555 1_555
C13 C17 1_555 1_555
C14 C18 1_555 1_555
C15 C19 1_555 1_555
C15 C20 1_555 1_555

#END
