
#######################################################################
#
#                 Cambridge Crystallographic Data Centre
#                                CCDC 
#
#######################################################################
#
# If this CIF has been generated from an entry in the Cambridge 
# Structural Database, then it will include bibliographic, chemical, 
# crystal, experimental, refinement or atomic coordinate data resulting 
# from the CCDC's data processing and validation procedures.
#
#######################################################################

data_LUKJAD
_chemical_formula_moiety         'C29 H27 N5 O2 S1,C4 H11 N1,C3 H7 N1 O1'
_chemical_name_systematic        
'8-Amino-6,10-bis(4-isopropylphenyl)-2,4-dioxo-1-thia-3-azaspiro[4.5]dec-8-ene-7,7,9-tricarbonitrile diethylamine N,N-dimethylformamide solvate'
_symmetry_cell_setting           monoclinic
_symmetry_space_group_name_H-M   'P 21/n'
_symmetry_Int_Tables_number      14
_space_group_name_Hall           '-P 2yn'
loop_
_symmetry_equiv_pos_site_id
_symmetry_equiv_pos_as_xyz
1 x,y,z
2 1/2-x,1/2+y,1/2-z
3 -x,-y,-z
4 1/2+x,1/2-y,1/2+z
_cell_length_a                   12.0529(10)
_cell_length_b                   14.4819(13)
_cell_length_c                   20.5546(18)
_cell_angle_alpha                90
_cell_angle_beta                 102.0120(10)
_cell_angle_gamma                90
_cell_volume                     3509.22
_exptl_crystal_colour            colorless
_exptl_crystal_description       block
_cell_formula_units_Z            4
loop_
_atom_site_label
_atom_site_type_symbol
_atom_site_fract_x
_atom_site_fract_y
_atom_site_fract_z
C1 C 0.55361(17) 0.03271(15) 0.25535(10)
C2 C 0.4457(2) 0.00240(19) 0.22534(13)
H1 H 0.4362 -0.0563 0.2066
C3 C 0.3517(2) 0.0590(2) 0.22305(15)
H2 H 0.2803 0.0371 0.2028
C4 C 0.3613(2) 0.1470(2) 0.25016(15)
C5 C 0.2550(3) 0.2048(2) 0.2502(2)
H3 H 0.1920 0.1631 0.2526
C6 C 0.2697(4) 0.2747(3) 0.3097(2)
H4 H 0.3200 0.3234 0.3029
H5 H 0.3009 0.2431 0.3504
H6 H 0.1972 0.3002 0.3122
C7 C 0.2250(4) 0.2591(3) 0.1890(2)
H7 H 0.2833 0.3039 0.1879
H8 H 0.1543 0.2902 0.1878
H9 H 0.2179 0.2189 0.1513
C8 C 0.4703(2) 0.17766(18) 0.27870(13)
H10 H 0.4802 0.2372 0.2958
C9 C 0.56449(19) 0.12089(16) 0.28210(12)
H11 H 0.6359 0.1425 0.3026
C10 C 0.65308(17) -0.03496(15) 0.26325(10)
H12 H 0.6202 -0.0970 0.2611
C11 C 0.72859(18) -0.02559(15) 0.33204(10)
C12 C 0.67676(18) -0.05092(16) 0.38590(11)
C13 C 0.83496(18) 0.01010(15) 0.34732(11)
C14 C 0.89030(17) 0.04767(15) 0.29203(11)
C15 C 0.93479(18) 0.14271(16) 0.30962(11)
C16 C 0.99274(19) -0.00931(16) 0.29019(11)
C17 C 0.80646(17) 0.05374(14) 0.22244(10)
H13 H 0.7556 0.1053 0.2265
C18 C 0.86757(18) 0.08259(15) 0.16798(11)
C19 C 0.8607(2) 0.17461(17) 0.14811(13)
H14 H 0.8150 0.2151 0.1659
C20 C 0.9206(2) 0.20691(18) 0.10240(14)
H15 H 0.9140 0.2687 0.0898
C21 C 0.9904(2) 0.14918(18) 0.07476(13)
C22 C 1.0582(2) 0.1903(2) 0.02691(15)
H16 H 1.0884 0.2490 0.0468
C23 C 1.1598(2) 0.1339(2) 0.01956(16)
H17 H 1.2068 0.1229 0.0626
H18 H 1.2025 0.1669 -0.0075
H19 H 1.1349 0.0760 -0.0011
C24 C 0.9842(3) 0.2144(3) -0.03846(17)
H20 H 1.0291 0.2430 -0.0664
H21 H 0.9262 0.2565 -0.0316
H22 H 0.9497 0.1594 -0.0595
C25 C 0.9952(2) 0.05707(18) 0.09350(13)
H23 H 1.0400 0.0166 0.0749
C26 C 0.9354(2) 0.02372(17) 0.13904(12)
H24 H 0.9403 -0.0385 0.1505
C27 C 0.72889(17) -0.03238(14) 0.21023(10)
C28 C 0.65487(17) -0.02752(14) 0.13882(10)
C29 C 0.72110(18) -0.17282(15) 0.13036(11)
N1 N 0.63247(18) -0.07010(16) 0.42842(10)
N2 N 0.89999(16) 0.01418(14) 0.40904(9)
H42 H 0.8747 -0.0068 0.4423
H43 H 0.9668 0.0378 0.4152
N3 N 0.97082(19) 0.21469(16) 0.32113(12)
N4 N 1.07470(18) -0.04981(17) 0.29195(11)
N5 N 0.65125(15) -0.10392(12) 0.10194(9)
H44 H 0.6080 -0.1090 0.0632
O1 O 0.60383(13) 0.04500(10) 0.12068(7)
O2 O 0.73516(15) -0.24754(11) 0.10664(8)
S1 S 0.80117(5) -0.14305(4) 0.21261(3)
C30 C 0.5504(3) 0.2695(2) 0.10123(14)
H25 H 0.5625 0.2194 0.1325
H26 H 0.5144 0.3198 0.1192
H27 H 0.6220 0.2897 0.0928
C31 C 0.4756(2) 0.23751(17) 0.03713(13)
H28 H 0.4008 0.2236 0.0450
H29 H 0.4678 0.2871 0.0048
C32 C 0.6223(2) 0.17107(18) -0.02084(13)
H30 H 0.6805 0.2026 0.0111
H31 H 0.6008 0.2105 -0.0596
C33 C 0.6683(2) 0.0813(2) -0.04073(15)
H32 H 0.6917 0.0432 -0.0021
H33 H 0.7322 0.0933 -0.0606
H34 H 0.6104 0.0501 -0.0722
N6 N 0.52150(16) 0.15381(13) 0.00903(9)
H45 H 0.4920 0.0999 0.0100
C34 C 0.7948(2) -0.0758(2) 0.56062(13)
H35 H 0.7704 -0.1310 0.5761
C35 C 0.6341(3) -0.0046(3) 0.5949(2)
H36 H 0.6194 -0.0672 0.6058
H37 H 0.5715 0.0183 0.5621
H38 H 0.6436 0.0329 0.6342
C36 C 0.7683(3) 0.0869(2) 0.54425(18)
H39 H 0.8442 0.0833 0.5369
H40 H 0.7645 0.1340 0.5766
H41 H 0.7171 0.1018 0.5032
N7 N 0.73676(18) -0.00114(17) 0.56850(11)
O3 O 0.87824(14) -0.07987(14) 0.53479(9)
loop_
_geom_bond_atom_site_label_1
_geom_bond_atom_site_label_2
_geom_bond_site_symmetry_1
_geom_bond_site_symmetry_2
C1 C2 1_555 1_555
C2 H1 1_555 1_555
C3 C2 1_555 1_555
H2 C3 1_555 1_555
C4 C3 1_555 1_555
C5 C4 1_555 1_555
H3 C5 1_555 1_555
C6 C5 1_555 1_555
H4 C6 1_555 1_555
H5 C6 1_555 1_555
H6 C6 1_555 1_555
C7 C5 1_555 1_555
H7 C7 1_555 1_555
H8 C7 1_555 1_555
H9 C7 1_555 1_555
C8 C4 1_555 1_555
H10 C8 1_555 1_555
C9 C1 1_555 1_555
H11 C9 1_555 1_555
C10 C1 1_555 1_555
H12 C10 1_555 1_555
C11 C10 1_555 1_555
C12 C11 1_555 1_555
C13 C11 1_555 1_555
C14 C13 1_555 1_555
C15 C14 1_555 1_555
C16 C14 1_555 1_555
C17 C14 1_555 1_555
H13 C17 1_555 1_555
C18 C17 1_555 1_555
C19 C18 1_555 1_555
H14 C19 1_555 1_555
C20 C19 1_555 1_555
H15 C20 1_555 1_555
C21 C20 1_555 1_555
C22 C21 1_555 1_555
H16 C22 1_555 1_555
C23 C22 1_555 1_555
H17 C23 1_555 1_555
H18 C23 1_555 1_555
H19 C23 1_555 1_555
C24 C22 1_555 1_555
H20 C24 1_555 1_555
H21 C24 1_555 1_555
H22 C24 1_555 1_555
C25 C21 1_555 1_555
H23 C25 1_555 1_555
C26 C18 1_555 1_555
H24 C26 1_555 1_555
C27 C10 1_555 1_555
C28 C27 1_555 1_555
C29 N5 1_555 1_555
C30 H25 1_555 1_555
H26 C30 1_555 1_555
H27 C30 1_555 1_555
C31 C30 1_555 1_555
H28 C31 1_555 1_555
H29 C31 1_555 1_555
C32 H30 1_555 1_555
H31 C32 1_555 1_555
C33 C32 1_555 1_555
H32 C33 1_555 1_555
H33 C33 1_555 1_555
H34 C33 1_555 1_555
C34 H35 1_555 1_555
C35 H36 1_555 1_555
H37 C35 1_555 1_555
H38 C35 1_555 1_555
C36 H39 1_555 1_555
H40 C36 1_555 1_555
H41 C36 1_555 1_555
N1 C12 1_555 1_555
N2 C13 1_555 1_555
H42 N2 1_555 1_555
H43 N2 1_555 1_555
N3 C15 1_555 1_555
N4 C16 1_555 1_555
N5 C28 1_555 1_555
H44 N5 1_555 1_555
N6 C31 1_555 1_555
H45 N6 1_555 1_555
N7 C34 1_555 1_555
O1 C28 1_555 1_555
O2 C29 1_555 1_555
O3 C34 1_555 1_555
S1 C27 1_555 1_555
C8 C9 1_555 1_555
C17 C27 1_555 1_555
C25 C26 1_555 1_555
C29 S1 1_555 1_555
C32 N6 1_555 1_555
C35 N7 1_555 1_555
C36 N7 1_555 1_555

#END
