
#######################################################################
#
#                 Cambridge Crystallographic Data Centre
#                                CCDC 
#
#######################################################################
#
# If this CIF has been generated from an entry in the Cambridge 
# Structural Database, then it will include bibliographic, chemical, 
# crystal, experimental, refinement or atomic coordinate data resulting 
# from the CCDC's data processing and validation procedures.
#
#######################################################################

data_LUKJIL
_chemical_formula_moiety         'C25 H19 N5 O2 S1,C4 H11 N1,C3 H7 N1 O1'
_chemical_name_systematic        
'8-Amino-6,10-bis(p-tolyl)-2,4-dioxo-1-thia-3-azaspiro[4.5]dec-8-ene-7,7,9-tricarbonitrile diethylamine N,N-dimethylformamide solvate'
_symmetry_cell_setting           monoclinic
_symmetry_space_group_name_H-M   'P 21/n'
_symmetry_Int_Tables_number      14
_space_group_name_Hall           '-P 2yn'
loop_
_symmetry_equiv_pos_site_id
_symmetry_equiv_pos_as_xyz
1 x,y,z
2 1/2-x,1/2+y,1/2-z
3 -x,-y,-z
4 1/2+x,1/2-y,1/2+z
_cell_length_a                   11.652(7)
_cell_length_b                   14.169(8)
_cell_length_c                   20.196(12)
_cell_angle_alpha                90
_cell_angle_beta                 100.443(9)
_cell_angle_gamma                90
_cell_volume                     3279.07
_exptl_crystal_colour            colorless
_cell_formula_units_Z            4
loop_
_atom_site_label
_atom_site_type_symbol
_atom_site_fract_x
_atom_site_fract_y
_atom_site_fract_z
C1 C 0.05927(13) 0.62069(13) 0.27109(9)
H1 H 0.1302 0.6445 0.2935
C2 C -0.03862(15) 0.67872(13) 0.26076(9)
H2 H -0.0314 0.7415 0.2744
C3 C -0.14749(15) 0.64400(15) 0.23022(9)
C4 C -0.25380(17) 0.70641(19) 0.22132(13)
H3 H -0.3089 0.6858 0.1828
H4 H -0.2314 0.7705 0.2147
H5 H -0.2888 0.7027 0.2608
C5 C -0.15454(15) 0.55265(16) 0.21044(10)
H6 H -0.2265 0.5276 0.1909
C6 C -0.05492(14) 0.49502(14) 0.21901(9)
H7 H -0.0617 0.4327 0.2043
C7 C 0.05316(13) 0.52937(12) 0.24891(8)
C8 C 0.15632(12) 0.46279(12) 0.25875(7)
H8 H 0.1238 0.3989 0.2572
C9 C 0.22998(13) 0.47389(12) 0.32774(8)
C10 C 0.34056(13) 0.51191(11) 0.34330(7)
C11 C 0.17813(15) 0.44454(13) 0.38257(8)
C12 C 0.40131(13) 0.54562(12) 0.28795(7)
C13 C 0.44891(14) 0.64181(13) 0.30387(8)
C14 C 0.50363(13) 0.48503(13) 0.28726(8)
C15 C 0.32058(13) 0.55170(11) 0.21688(7)
H9 H 0.2694 0.6058 0.2200
C16 C 0.38538(13) 0.57697(12) 0.16202(8)
C17 C 0.45716(14) 0.51622(13) 0.13538(8)
H10 H 0.4650 0.4544 0.1511
C18 C 0.51732(16) 0.54381(14) 0.08661(9)
H11 H 0.5624 0.4999 0.0685
C19 C 0.51227(17) 0.63666(15) 0.06350(9)
C20 C 0.58474(18) 0.66741(18) 0.01117(10)
H12 H 0.5407 0.6571 -0.0332
H13 H 0.6555 0.6312 0.0169
H14 H 0.6034 0.7332 0.0170
C21 C 0.43979(16) 0.69632(15) 0.09002(9)
H15 H 0.4317 0.7581 0.0744
C22 C 0.37980(16) 0.66899(13) 0.13786(9)
H16 H 0.3336 0.7128 0.1551
C23 C 0.23723(13) 0.46523(11) 0.20558(7)
C24 C 0.16449(13) 0.47184(11) 0.13423(7)
C25 C 0.22593(15) 0.32112(12) 0.12498(8)
N2 N 0.15789(11) 0.39345(10) 0.09749(6)
H28 H 0.1132 0.3891 0.0587
N3 N 0.48487(13) 0.71670(12) 0.31451(7)
N4 N 0.58438(13) 0.44002(12) 0.28906(8)
N5 N 0.40170(12) 0.51971(11) 0.40597(6)
H29 H 0.3722 0.5003 0.4396
H30 H 0.4704 0.5441 0.4126
N6 N 0.13804(14) 0.42100(14) 0.42701(8)
O1 O 0.23749(12) 0.24526(8) 0.10065(6)
O2 O 0.11448(9) 0.54709(8) 0.11564(5)
S1 S 0.30877(4) 0.35146(3) 0.20703(2)
C26 C 0.1764(2) 0.5894(2) -0.04437(12)
H17 H 0.2204 0.5605 -0.0048
H18 H 0.2273 0.6030 -0.0756
H19 H 0.1159 0.5472 -0.0649
C27 C 0.1234(2) 0.67835(19) -0.02556(11)
H20 H 0.1818 0.7150 0.0040
H21 H 0.0963 0.7154 -0.0657
C28 C -0.0335(3) 0.7344(2) 0.03836(13)
H22 H -0.1063 0.7102 0.0484
H23 H -0.0522 0.7848 0.0056
C29 C 0.0377(4) 0.7746(3) 0.10192(15)
H24 H -0.0075 0.8212 0.1203
H25 H 0.1071 0.8034 0.0918
H26 H 0.0589 0.7249 0.1341
N1 N 0.02605(13) 0.65839(10) 0.00835(7)
H27 H -0.0003 0.6043 0.0098
C30 C 0.61083(18) 0.0685(3) 0.09981(16)
H31 H 0.6313 0.1337 0.1073
H32 H 0.5950 0.0412 0.1407
H33 H 0.5426 0.0635 0.0653
C31 C 0.6871(4) -0.07916(14) 0.0644(3)
H34 H 0.6344 -0.0863 0.0223
H35 H 0.6545 -0.1087 0.0996
H36 H 0.7604 -0.1083 0.0615
N7 N 0.70516(13) 0.01933(12) 0.07924(8)
C32 C 0.78367(19) 0.0618(3) 0.06638(13)
H37 H 0.7781 0.1237 0.0807
O3 O 0.86565(12) 0.05524(16) 0.04247(8)
C33? C 0.0180(3) 0.7533(2) 0.0351(2)
C34? C -0.0741(4) 0.7308(4) 0.0768(2)
H38? H -0.0085 0.7993 0.0001
H39? H 0.0908 0.7741 0.0625
H40? H -0.1358 0.6952 0.0500
H41? H -0.1051 0.7885 0.0912
H42? H -0.0399 0.6944 0.1154
loop_
_geom_bond_atom_site_label_1
_geom_bond_atom_site_label_2
_geom_bond_site_symmetry_1
_geom_bond_site_symmetry_2
C1 H1 1_555 1_555
C2 C1 1_555 1_555
H2 C2 1_555 1_555
C3 C2 1_555 1_555
C4 C3 1_555 1_555
H3 C4 1_555 1_555
H4 C4 1_555 1_555
H5 C4 1_555 1_555
C5 C3 1_555 1_555
H6 C5 1_555 1_555
C6 C5 1_555 1_555
H7 C6 1_555 1_555
C7 C1 1_555 1_555
C8 C7 1_555 1_555
H8 C8 1_555 1_555
C9 C8 1_555 1_555
C10 C9 1_555 1_555
C11 C9 1_555 1_555
C12 C10 1_555 1_555
C13 C12 1_555 1_555
C14 C12 1_555 1_555
C15 C12 1_555 1_555
H9 C15 1_555 1_555
C16 C15 1_555 1_555
C17 C16 1_555 1_555
H10 C17 1_555 1_555
C18 C17 1_555 1_555
H11 C18 1_555 1_555
C19 C18 1_555 1_555
C20 C19 1_555 1_555
H12 C20 1_555 1_555
H13 C20 1_555 1_555
H14 C20 1_555 1_555
C21 C19 1_555 1_555
H15 C21 1_555 1_555
C22 C16 1_555 1_555
H16 C22 1_555 1_555
C23 C8 1_555 1_555
C24 C23 1_555 1_555
C25 N2 1_555 1_555
C26 H17 1_555 1_555
H18 C26 1_555 1_555
H19 C26 1_555 1_555
C27 C26 1_555 1_555
H20 C27 1_555 1_555
H21 C27 1_555 1_555
C28 H22 1_555 1_555
H23 C28 1_555 1_555
C29 C28 1_555 1_555
H24 C29 1_555 1_555
H25 C29 1_555 1_555
H26 C29 1_555 1_555
N1 C27 1_555 1_555
H27 N1 1_555 1_555
N2 C24 1_555 1_555
H28 N2 1_555 1_555
N3 C13 1_555 1_555
N4 C14 1_555 1_555
N5 C10 1_555 1_555
H29 N5 1_555 1_555
H30 N5 1_555 1_555
N6 C11 1_555 1_555
O1 C25 1_555 1_555
O2 C24 1_555 1_555
S1 C23 1_555 1_555
C30 H31 1_555 1_555
H32 C30 1_555 1_555
H33 C30 1_555 1_555
C31 H34 1_555 1_555
H35 C31 1_555 1_555
H36 C31 1_555 1_555
N7 C30 1_555 1_555
C32 N7 1_555 1_555
H37 C32 1_555 1_555
O3 C32 1_555 1_555
C6 C7 1_555 1_555
C15 C23 1_555 1_555
C21 C22 1_555 1_555
C25 S1 1_555 1_555
C28 N1 1_555 1_555
C31 N7 1_555 1_555

#END
