
#######################################################################
#
#                 Cambridge Crystallographic Data Centre
#                                CCDC 
#
#######################################################################
#
# If this CIF has been generated from an entry in the Cambridge 
# Structural Database, then it will include bibliographic, chemical, 
# crystal, experimental, refinement or atomic coordinate data resulting 
# from the CCDC's data processing and validation procedures.
#
#######################################################################

data_LUKLIO
_chemical_formula_moiety         'C41 H44 B1 N3'
_chemical_name_systematic        
4-(13-(Dimesitylboryl)-1,9-diazatetracyclo[7.7.1.0^2,7^.0^10,15^]heptadeca-2,4,6,10,12,14-hexaen-5-yl)-N,N-dimethylaniline
_symmetry_cell_setting           triclinic
_symmetry_space_group_name_H-M   'P -1'
_symmetry_Int_Tables_number      2
_space_group_name_Hall           '-P 1'
loop_
_symmetry_equiv_pos_site_id
_symmetry_equiv_pos_as_xyz
1 x,y,z
2 -x,-y,-z
_cell_length_a                   8.660(12)
_cell_length_b                   15.52(2)
_cell_length_c                   25.74(4)
_cell_angle_alpha                100.726(19)
_cell_angle_beta                 96.95(2)
_cell_angle_gamma                93.252(19)
_cell_volume                     3362.96
_exptl_crystal_colour            colorless
_exptl_crystal_description       plate
_cell_formula_units_Z            4
loop_
_atom_site_label
_atom_site_type_symbol
_atom_site_fract_x
_atom_site_fract_y
_atom_site_fract_z
N1 N 0.7020(5) 0.8044(3) 0.33540(18)
C1 C 0.5876(6) 0.4734(4) 0.6625(2)
H1 H 0.6082 0.5322 0.6830
H2 H 0.6033 0.4321 0.6858
H3 H 0.4816 0.4654 0.6453
N2 N 0.4549(5) 0.8615(3) 0.35328(18)
C2 C 0.4396(7) 0.6251(4) -0.0300(2)
H4 H 0.4474 0.5650 -0.0464
H5 H 0.5423 0.6546 -0.0198
H6 H 0.3810 0.6540 -0.0549
C3 C 0.3574(8) 0.6281(5) 0.0192(3)
C4 C 0.2720(8) 0.5566(5) 0.0273(3)
H7 H 0.2640 0.5046 0.0021
C5 C 0.1972(7) 0.5586(4) 0.0718(3)
C6 C 0.2027(6) 0.6351(4) 0.1116(2)
C7 C 0.2173(7) 0.6887(3) 0.2167(2)
C8 C 0.3792(6) 0.6977(3) 0.2265(2)
H8 H 0.4355 0.6671 0.2016
C9 C 0.4597(6) 0.7504(4) 0.2721(2)
C10 C 0.6357(6) 0.7555(3) 0.2822(2)
H9 H 0.6689 0.6963 0.2779
H10 H 0.6775 0.7834 0.2556
C11 C 0.6882(7) 0.7545(4) 0.3756(2)
C12 C 0.7953(6) 0.6931(4) 0.3827(2)
H11 H 0.8696 0.6834 0.3595
C13 C 0.7950(6) 0.6463(4) 0.4227(2)
H12 H 0.8698 0.6064 0.4265
C14 C 0.6846(7) 0.6573(4) 0.4578(2)
C15 C 0.6817(6) 0.6046(4) 0.5004(2)
C16 C 0.7588(6) 0.5289(4) 0.4993(2)
H13 H 0.8112 0.5097 0.4704
C17 C 0.7615(6) 0.4809(4) 0.5388(3)
H14 H 0.8160 0.4307 0.5363
C18 C 0.6836(6) 0.5062(4) 0.5831(3)
N3 N 0.6904(6) 0.4596(3) 0.6234(2)
C19 C 0.7967(7) 0.3928(4) 0.6258(2)
H15 H 0.7571 0.3409 0.6001
H16 H 0.8079 0.3792 0.6609
H17 H 0.8965 0.4135 0.6182
C20 C -0.4956(6) 0.4707(4) 0.1695(2)
H18 H -0.5744 0.4972 0.1496
H19 H -0.5151 0.4774 0.2059
H20 H -0.4981 0.4093 0.1541
C21 C -0.3367(7) 0.5152(4) 0.1675(2)
C22 C -0.3184(8) 0.5812(4) 0.1396(2)
H21 H -0.4058 0.6003 0.1217
C23 C -0.1731(8) 0.6197(4) 0.1376(2)
C24 C -0.1640(6) 0.6915(4) 0.1054(2)
H22 H -0.1038 0.6739 0.0769
H23 H -0.1151 0.7446 0.1281
H24 H -0.2674 0.7015 0.0909
C25 C -0.0398(6) 0.5947(4) 0.1647(2)
C26 C -0.0585(7) 0.5276(4) 0.1934(2)
C27 C -0.2057(8) 0.4894(4) 0.1941(2)
H25 H -0.2165 0.4446 0.2133
C28 C 0.0779(6) 0.4929(3) 0.2233(2)
H26 H 0.0406 0.4455 0.2390
H27 H 0.1302 0.5392 0.2509
H28 H 0.1494 0.4718 0.1991
C29 C 0.5780(6) 0.7649(4) 0.4099(2)
C30 C 0.5770(6) 0.7183(4) 0.4506(2)
H29 H 0.5023 0.7280 0.4737
C31 C 0.6036(6) 0.5816(4) 0.5841(2)
H30 H 0.5482 0.6001 0.6124
C32 C 0.6047(6) 0.6291(4) 0.5443(2)
H31 H 0.5515 0.6798 0.5469
C33 C 0.4564(6) 0.8301(3) 0.4037(2)
H32 H 0.3541 0.8023 0.4051
H33 H 0.4776 0.8799 0.4333
C34 C 0.3792(7) 0.7987(3) 0.3084(2)
C35 C 0.2174(7) 0.7897(3) 0.3012(2)
H34 H 0.1619 0.8211 0.3261
C36 C 0.1401(6) 0.7340(4) 0.2568(2)
H35 H 0.0318 0.7260 0.2533
C37 C 0.6166(7) 0.8814(4) 0.3468(2)
H36 H 0.6194 0.9136 0.3180
H37 H 0.6685 0.9193 0.3792
C38 C 0.3609(7) 0.7048(4) 0.0566(3)
H38 H 0.4154 0.7550 0.0512
C39 C 0.2873(7) 0.7105(4) 0.1017(2)
C40 C 0.2958(6) 0.8000(3) 0.1370(2)
H39 H 0.3818 0.8057 0.1650
H40 H 0.2004 0.8071 0.1523
H41 H 0.3104 0.8444 0.1162
C41 C 0.1083(6) 0.4734(4) 0.0754(2)
H42 H 0.1269 0.4278 0.0467
H43 H -0.0014 0.4813 0.0730
H44 H 0.1429 0.4573 0.1089
B1 B 0.1273(8) 0.6376(4) 0.1633(3)
N4 N 0.6550(5) 0.3135(3) 0.32665(19)
N5 N 0.9034(6) -0.0484(4) 0.6007(2)
N6 N 0.9196(5) 0.3815(3) 0.34750(19)
C42 C 0.6552(7) 0.0532(4) -0.0268(2)
H45 H 0.5586 0.0769 -0.0191
H46 H 0.6383 -0.0094 -0.0385
H47 H 0.6938 0.0789 -0.0544
C43 C 0.7734(7) 0.0743(5) 0.0230(2)
C44 C 0.8191(8) 0.1589(4) 0.0475(2)
H48 H 0.7776 0.2039 0.0323
C45 C 0.9238(7) 0.1815(4) 0.0937(2)
C46 C 0.9910(6) 0.1145(4) 0.1169(2)
C47 C 1.0526(7) 0.2015(4) 0.2185(2)
C48 C 0.8965(6) 0.2124(3) 0.2241(2)
H49 H 0.8206 0.1813 0.1975
C49 C 0.8481(6) 0.2668(4) 0.2668(2)
C50 C 0.6775(6) 0.2676(3) 0.2731(2)
H50 H 0.6248 0.2966 0.2465
H51 H 0.6313 0.2076 0.2670
C51 C 0.6942(7) 0.2644(4) 0.3671(2)
C52 C 0.8266(7) 0.2843(4) 0.4039(2)
C53 C 0.8511(6) 0.2374(4) 0.4446(2)
H52 H 0.9385 0.2542 0.4701
C54 C 0.7528(7) 0.1670(4) 0.4492(2)
C55 C 0.7877(7) 0.1131(4) 0.4896(2)
C56 C 0.9101(6) 0.1370(4) 0.5319(2)
H53 H 0.9675 0.1908 0.5356
C57 C 0.9483(6) 0.0845(4) 0.5678(2)
H54 H 1.0322 0.1025 0.5945
C58 C 0.8646(7) 0.0050(5) 0.5650(3)
C59 C 1.0403(6) -0.0272(4) 0.6402(2)
H55 H 1.1311 -0.0214 0.6227
H56 H 1.0507 -0.0733 0.6603
H57 H 1.0300 0.0272 0.6638
C60 C 1.7012(6) -0.0224(4) 0.1960(3)
H58 H 1.7860 0.0204 0.2122
H59 H 1.7215 -0.0505 0.1613
H60 H 1.6912 -0.0657 0.2179
C61 C 1.5507(7) 0.0229(4) 0.1907(3)
C62 C 1.5224(7) 0.0775(4) 0.1544(2)
H61 H 1.5988 0.0886 0.1334
C63 C 1.3833(7) 0.1157(4) 0.1486(2)
C64 C 1.3632(6) 0.1775(4) 0.1101(2)
H62 H 1.4563 0.1822 0.0937
H63 H 1.3440 0.2345 0.1290
H64 H 1.2764 0.1553 0.0831
C65 C 1.2663(6) 0.1006(4) 0.1793(2)
C66 C 0.9697(7) 0.2782(4) 0.1146(2)
H65 H 0.9594 0.3092 0.0855
H66 H 1.0761 0.2859 0.1314
H67 H 0.9029 0.3010 0.1401
C67 C 0.8378(7) 0.0100(4) 0.0458(3)
H68 H 0.8067 -0.0485 0.0304
C68 C 0.9463(7) 0.0281(4) 0.0903(2)
C69 C 1.0132(6) -0.0496(4) 0.1108(2)
H69 H 0.9878 -0.0493 0.1461
H70 H 1.1246 -0.0451 0.1117
H71 H 0.9695 -0.1034 0.0875
C70 C 0.7548(7) 0.3955(4) 0.3380(2)
H72 H 0.7372 0.4252 0.3080
H73 H 0.7262 0.4335 0.3691
C71 C 0.9592(7) 0.3181(4) 0.3048(2)
C72 C 1.1167(6) 0.3081(4) 0.3011(2)
H74 H 1.1919 0.3410 0.3271
C73 C 1.1624(6) 0.2511(4) 0.2599(2)
H75 H 1.2682 0.2446 0.2591
C74 C 0.9473(6) 0.3545(4) 0.3995(2)
H76 H 0.9449 0.4051 0.4279
H77 H 1.0500 0.3327 0.4038
C75 C 0.8190(6) -0.1329(4) 0.5956(2)
H78 H 0.7157 -0.1246 0.6046
H79 H 0.8726 -0.1658 0.6193
H80 H 0.8123 -0.1645 0.5595
C76 C 0.7410(7) -0.0191(4) 0.5244(3)
H81 H 0.6821 -0.0722 0.5214
C77 C 0.7044(6) 0.0339(4) 0.4889(2)
H82 H 0.6189 0.0160 0.4628
C78 C 0.6194(6) 0.1459(4) 0.4109(2)
H83 H 0.5489 0.0991 0.4121
C79 C 0.5934(6) 0.1944(4) 0.3715(2)
H84 H 0.5040 0.1795 0.3467
C80 C 1.2986(7) 0.0470(4) 0.2168(2)
C81 C 1.1807(7) 0.0243(4) 0.2522(2)
H85 H 1.1971 -0.0326 0.2604
H86 H 1.0770 0.0234 0.2339
H87 H 1.1932 0.0676 0.2846
C82 C 1.4376(7) 0.0091(4) 0.2218(2)
H88 H 1.4554 -0.0267 0.2468
B2 B 1.1028(8) 0.1387(4) 0.1705(3)
loop_
_geom_bond_atom_site_label_1
_geom_bond_atom_site_label_2
_geom_bond_site_symmetry_1
_geom_bond_site_symmetry_2
N1 C10 1_555 1_555
C1 H1 1_555 1_555
H2 C1 1_555 1_555
H3 C1 1_555 1_555
N2 C33 1_555 1_555
C2 H4 1_555 1_555
H5 C2 1_555 1_555
H6 C2 1_555 1_555
C3 C2 1_555 1_555
C4 C3 1_555 1_555
H7 C4 1_555 1_555
C5 C4 1_555 1_555
C6 C5 1_555 1_555
C7 C8 1_555 1_555
C8 H8 1_555 1_555
C9 C8 1_555 1_555
C10 C9 1_555 1_555
H9 C10 1_555 1_555
H10 C10 1_555 1_555
C11 N1 1_555 1_555
C12 C11 1_555 1_555
H11 C12 1_555 1_555
C13 C12 1_555 1_555
H12 C13 1_555 1_555
C14 C13 1_555 1_555
C15 C14 1_555 1_555
C16 C15 1_555 1_555
H13 C16 1_555 1_555
C17 C16 1_555 1_555
H14 C17 1_555 1_555
C18 C17 1_555 1_555
N3 C1 1_555 1_555
C19 N3 1_555 1_555
H15 C19 1_555 1_555
H16 C19 1_555 1_555
H17 C19 1_555 1_555
C20 H18 1_555 1_555
H19 C20 1_555 1_555
H20 C20 1_555 1_555
C21 C20 1_555 1_555
C22 C21 1_555 1_555
H21 C22 1_555 1_555
C23 C22 1_555 1_555
C24 C23 1_555 1_555
H22 C24 1_555 1_555
H23 C24 1_555 1_555
H24 C24 1_555 1_555
C25 C23 1_555 1_555
C26 C25 1_555 1_555
C27 C21 1_555 1_555
H25 C27 1_555 1_555
C28 C26 1_555 1_555
H26 C28 1_555 1_555
H27 C28 1_555 1_555
H28 C28 1_555 1_555
C29 C11 1_555 1_555
C30 C14 1_555 1_555
H29 C30 1_555 1_555
C31 C18 1_555 1_555
H30 C31 1_555 1_555
C32 C15 1_555 1_555
H31 C32 1_555 1_555
C33 C29 1_555 1_555
H32 C33 1_555 1_555
H33 C33 1_555 1_555
C34 N2 1_555 1_555
C35 C34 1_555 1_555
H34 C35 1_555 1_555
C36 C7 1_555 1_555
H35 C36 1_555 1_555
C37 N1 1_555 1_555
H36 C37 1_555 1_555
H37 C37 1_555 1_555
C38 C3 1_555 1_555
H38 C38 1_555 1_555
C39 C6 1_555 1_555
C40 C39 1_555 1_555
H39 C40 1_555 1_555
H40 C40 1_555 1_555
H41 C40 1_555 1_555
C41 C5 1_555 1_555
H42 C41 1_555 1_555
H43 C41 1_555 1_555
H44 C41 1_555 1_555
B1 C6 1_555 1_555
N4 C50 1_555 1_555
N5 C58 1_555 1_555
N6 C70 1_555 1_555
C42 H45 1_555 1_555
H46 C42 1_555 1_555
H47 C42 1_555 1_555
C43 C42 1_555 1_555
C44 C43 1_555 1_555
H48 C44 1_555 1_555
C45 C44 1_555 1_555
C46 C45 1_555 1_555
C47 C48 1_555 1_555
C48 H49 1_555 1_555
C49 C48 1_555 1_555
C50 C49 1_555 1_555
H50 C50 1_555 1_555
H51 C50 1_555 1_555
C51 N4 1_555 1_555
C52 C51 1_555 1_555
C53 C52 1_555 1_555
H52 C53 1_555 1_555
C54 C53 1_555 1_555
C55 C54 1_555 1_555
C56 C55 1_555 1_555
H53 C56 1_555 1_555
C57 C56 1_555 1_555
H54 C57 1_555 1_555
C58 C57 1_555 1_555
C59 N5 1_555 1_555
H55 C59 1_555 1_555
H56 C59 1_555 1_555
H57 C59 1_555 1_555
C60 H58 1_555 1_555
H59 C60 1_555 1_555
H60 C60 1_555 1_555
C61 C60 1_555 1_555
C62 C61 1_555 1_555
H61 C62 1_555 1_555
C63 C62 1_555 1_555
C64 C63 1_555 1_555
H62 C64 1_555 1_555
H63 C64 1_555 1_555
H64 C64 1_555 1_555
C65 C63 1_555 1_555
C66 C45 1_555 1_555
H65 C66 1_555 1_555
H66 C66 1_555 1_555
H67 C66 1_555 1_555
C67 C43 1_555 1_555
H68 C67 1_555 1_555
C68 C46 1_555 1_555
C69 C68 1_555 1_555
H69 C69 1_555 1_555
H70 C69 1_555 1_555
H71 C69 1_555 1_555
C70 N4 1_555 1_555
H72 C70 1_555 1_555
H73 C70 1_555 1_555
C71 N6 1_555 1_555
C72 C71 1_555 1_555
H74 C72 1_555 1_555
C73 C47 1_555 1_555
H75 C73 1_555 1_555
C74 N6 1_555 1_555
H76 C74 1_555 1_555
H77 C74 1_555 1_555
C75 N5 1_555 1_555
H78 C75 1_555 1_555
H79 C75 1_555 1_555
H80 C75 1_555 1_555
C76 C58 1_555 1_555
H81 C76 1_555 1_555
C77 C55 1_555 1_555
H82 C77 1_555 1_555
C78 C54 1_555 1_555
H83 C78 1_555 1_555
C79 C51 1_555 1_555
H84 C79 1_555 1_555
C80 C65 1_555 1_555
C81 C80 1_555 1_555
H85 C81 1_555 1_555
H86 C81 1_555 1_555
H87 C81 1_555 1_555
C82 C61 1_555 1_555
H88 C82 1_555 1_555
B2 C46 1_555 1_555
N2 C37 1_555 1_555
C7 B1 1_555 1_555
C9 C34 1_555 1_555
C18 N3 1_555 1_555
C25 B1 1_555 1_555
C26 C27 1_555 1_555
C29 C30 1_555 1_555
C31 C32 1_555 1_555
C35 C36 1_555 1_555
C38 C39 1_555 1_555
C47 B2 1_555 1_555
C49 C71 1_555 1_555
C52 C74 1_555 1_555
C65 B2 1_555 1_555
C67 C68 1_555 1_555
C72 C73 1_555 1_555
C76 C77 1_555 1_555
C78 C79 1_555 1_555
C80 C82 1_555 1_555

#END
