
#######################################################################
#
#                 Cambridge Crystallographic Data Centre
#                                CCDC 
#
#######################################################################
#
# If this CIF has been generated from an entry in the Cambridge 
# Structural Database, then it will include bibliographic, chemical, 
# crystal, experimental, refinement or atomic coordinate data resulting 
# from the CCDC's data processing and validation procedures.
#
#######################################################################

data_LUKMUB
_chemical_formula_moiety         'C14 H19 F2 O4 P1'
_chemical_name_systematic        
'Diethyl (1,1-difluoro-2-hydroxy-4-phenylbut-3-en-1-yl)phosphonate'
_symmetry_cell_setting           monoclinic
_symmetry_space_group_name_H-M   'C 2'
_symmetry_Int_Tables_number      5
_space_group_name_Hall           'C 2y'
loop_
_symmetry_equiv_pos_site_id
_symmetry_equiv_pos_as_xyz
1 x,y,z
2 -x,y,-z
3 1/2+x,1/2+y,z
4 1/2-x,1/2+y,-z
_cell_length_a                   25.005(3)
_cell_length_b                   5.7568(7)
_cell_length_c                   10.8764(13)
_cell_angle_alpha                90
_cell_angle_beta                 90.027(2)
_cell_angle_gamma                90
_cell_volume                     1565.64
_exptl_crystal_colour            colorless
_exptl_crystal_description       block
_cell_formula_units_Z            4
loop_
_atom_site_label
_atom_site_type_symbol
_atom_site_fract_x
_atom_site_fract_y
_atom_site_fract_z
P1 P 0.173407(15) 0.84752(9) 0.72442(4)
F1 F 0.23270(5) 0.5908(2) 0.87094(10)
F2 F 0.27183(4) 0.9011(2) 0.80014(12)
O1 O 0.17848(6) 1.0449(2) 0.64082(13)
O2 O 0.14608(5) 0.8972(2) 0.85115(12)
O3 O 0.14003(5) 0.6338(2) 0.68143(12)
O4 O 0.26425(6) 0.7009(3) 0.56060(14)
H1 H 0.2769(10) 0.632(5) 0.511(3)
C1 C 0.16229(9) 1.0962(4) 0.9258(2)
H2 H 0.1925 1.1775 0.8857
H3 H 0.1744 1.0421 1.0076
C2 C 0.11677(13) 1.2577(5) 0.9403(3)
H4 H 0.1070 1.3220 0.8599
H5 H 0.1270 1.3843 0.9958
H6 H 0.0861 1.1739 0.9748
C3 C 0.12817(8) 0.5877(5) 0.55205(18)
H7 H 0.1596 0.5160 0.5117
H8 H 0.1198 0.7348 0.5090
C4 C 0.08036(19) 0.4234(12) 0.5455(5)
H9 H 0.0500 0.4924 0.5892
H10 H 0.0898 0.2748 0.5838
H11 H 0.0706 0.3975 0.4593
C5 C 0.23889(7) 0.7220(3) 0.76684(16)
C6 C 0.26563(7) 0.5712(3) 0.66878(17)
H12 H 0.2396 0.4422 0.6542
C7 C 0.31520(12) 0.4505(7) 0.7210(3)
H13 H 0.3115 0.3331 0.7818
C8 C 0.36324(12) 0.5105(6) 0.6811(3)
H14 H 0.3651 0.6257 0.6187
C9 C 0.41446(12) 0.4118(4) 0.7260(2)
C10 C 0.46223(12) 0.4987(6) 0.6801(4)
H15 H 0.4615 0.6189 0.6203
C11 C 0.51090(13) 0.4131(7) 0.7199(4)
H16 H 0.5432 0.4748 0.6876
C12 C 0.51262(19) 0.2379(9) 0.8067(6)
H17 H 0.5460 0.1801 0.8348
C13 C 0.46530(16) 0.1469(9) 0.8525(5)
H18 H 0.4662 0.0257 0.9117
C14 C 0.41664(10) 0.2331(5) 0.8117(3)
H19 H 0.3844 0.1690 0.8427
C15? C 0.0713(3) 0.5458(17) 0.5419(7)
H20? H 0.0619 0.4051 0.5878
H21? H 0.0617 0.5255 0.4552
H22? H 0.0517 0.6785 0.5758
H23? H 0.2489 0.4143 0.6602
C16? C 0.32577(10) 0.5614(5) 0.6948(3)
H24? H 0.3472 0.6960 0.6839
C17? C 0.34776(12) 0.3656(7) 0.7325(3)
H25? H 0.3249 0.2343 0.7386
C18? C 0.40482(12) 0.3302(7) 0.7662(2)
C19? C 0.44217(13) 0.5081(6) 0.7637(3)
H26? H 0.4315 0.6598 0.7394
C20? C 0.49514(14) 0.4661(7) 0.7964(4)
H27? H 0.5204 0.5893 0.7943
C21? C 0.5111(2) 0.2470(8) 0.8320(6)
H28? H 0.5472 0.2191 0.8549
C22? C 0.47410(17) 0.0673(8) 0.8342(5)
H29? H 0.4848 -0.0843 0.8583
C23? C 0.42145(14) 0.1099(7) 0.8012(3)
H30? H 0.3963 -0.0138 0.8026
loop_
_geom_bond_atom_site_label_1
_geom_bond_atom_site_label_2
_geom_bond_site_symmetry_1
_geom_bond_site_symmetry_2
P1 O1 1_555 1_555
F1 C5 1_555 1_555
F2 C5 1_555 1_555
O2 P1 1_555 1_555
O3 P1 1_555 1_555
O4 H1 1_555 1_555
C1 O2 1_555 1_555
H2 C1 1_555 1_555
H3 C1 1_555 1_555
C2 C1 1_555 1_555
H4 C2 1_555 1_555
H5 C2 1_555 1_555
H6 C2 1_555 1_555
C3 O3 1_555 1_555
H7 C3 1_555 1_555
H8 C3 1_555 1_555
C4 C3 1_555 1_555
H9 C4 1_555 1_555
H10 C4 1_555 1_555
H11 C4 1_555 1_555
C5 P1 1_555 1_555
C6 O4 1_555 1_555
H12 C6 1_555 1_555
C7 C6 1_555 1_555
H13 C7 1_555 1_555
C8 C7 1_555 1_555
H14 C8 1_555 1_555
C9 C8 1_555 1_555
C10 C9 1_555 1_555
H15 C10 1_555 1_555
C11 C10 1_555 1_555
H16 C11 1_555 1_555
C12 C11 1_555 1_555
H17 C12 1_555 1_555
C13 C12 1_555 1_555
H18 C13 1_555 1_555
C14 C9 1_555 1_555
H19 C14 1_555 1_555
C5 C6 1_555 1_555
C13 C14 1_555 1_555

#END
