
#######################################################################
#
#                 Cambridge Crystallographic Data Centre
#                                CCDC 
#
#######################################################################
#
# If this CIF has been generated from an entry in the Cambridge 
# Structural Database, then it will include bibliographic, chemical, 
# crystal, experimental, refinement or atomic coordinate data resulting 
# from the CCDC's data processing and validation procedures.
#
#######################################################################

data_LUKROZ
_chemical_formula_moiety         'C12 H14 Br2 N2 O6'
_chemical_name_systematic        
4,4'-(Ethane-1,2-diyldiimino)bis(3-bromo-5-methoxyfuran-2(5H)-one)
_symmetry_cell_setting           monoclinic
_symmetry_space_group_name_H-M   'P 21/n'
_symmetry_Int_Tables_number      14
_space_group_name_Hall           '-P 2yn'
loop_
_symmetry_equiv_pos_site_id
_symmetry_equiv_pos_as_xyz
1 x,y,z
2 1/2-x,1/2+y,1/2-z
3 -x,-y,-z
4 1/2+x,1/2-y,1/2+z
_cell_length_a                   4.2620(5)
_cell_length_b                   14.4085(17)
_cell_length_c                   12.4974(14)
_cell_angle_alpha                90
_cell_angle_beta                 99.8200
_cell_angle_gamma                90
_cell_volume                     756.209
_cell_formula_units_Z            2
_exptl_crystal_recrystallization_method ethanol
loop_
_atom_site_label
_atom_site_type_symbol
_atom_site_fract_x
_atom_site_fract_y
_atom_site_fract_z
Br1 Br 1.03574(14) 0.17788(4) 0.51354(4)
O1 O 1.1451(9) 0.1685(2) 0.7837(2)
O2 O 0.8775(8) 0.3014(2) 0.7924(2)
O3 O 0.8931(8) 0.4519(2) 0.7295(2)
N1 N 0.6170(8) 0.3738(2) 0.5153(3)
C1 C 0.7405(10) 0.3310(3) 0.6067(3)
C2 C 0.9150(11) 0.2522(3) 0.6216(3)
C3 C 0.9955(12) 0.2323(4) 0.7351(4)
C4 C 0.7243(13) 0.3707(3) 0.7183(3)
C5 C 0.4137(10) 0.4552(3) 0.5095(4)
C6 C 0.8562(13) 0.5008(3) 0.8251(3)
Br1B Br -0.03574(14) 0.82212(4) 0.48646(4)
O1B O -0.1451(9) 0.8315(2) 0.2163(2)
O2B O 0.1225(8) 0.6986(2) 0.2076(2)
O3B O 0.1069(8) 0.5481(2) 0.2705(2)
N1B N 0.3830(8) 0.6262(2) 0.4847(3)
C1B C 0.2595(10) 0.6690(3) 0.3933(3)
C2B C 0.0850(11) 0.7478(3) 0.3784(3)
C3B C 0.0045(12) 0.7677(4) 0.2649(4)
C4B C 0.2757(13) 0.6293(3) 0.2817(3)
C5B C 0.5863(10) 0.5448(3) 0.4905(4)
C6B C 0.1438(13) 0.4992(3) 0.1749(3)
loop_
_geom_bond_atom_site_label_1
_geom_bond_atom_site_label_2
_geom_bond_site_symmetry_1
_geom_bond_site_symmetry_2
Br1 C2 1_555 1_555
O1 C3 1_555 1_555
O2 C3 1_555 1_555
O3 C4 1_555 1_555
N1 C1 1_555 1_555
C1 C2 1_555 1_555
C2 C3 1_555 1_555
C4 O2 1_555 1_555
C5 N1 1_555 1_555
C6 O3 1_555 1_555
Br1B C2B 1_555 1_555
O1B C3B 1_555 1_555
O2B C3B 1_555 1_555
O3B C4B 1_555 1_555
N1B C1B 1_555 1_555
C1B C2B 1_555 1_555
C2B C3B 1_555 1_555
C4B O2B 1_555 1_555
C5B C5 1_555 1_555
C6B O3B 1_555 1_555
C1 C4 1_555 1_555
N1B C5B 1_555 1_555
C1B C4B 1_555 1_555

#END
