
#######################################################################
#
#                 Cambridge Crystallographic Data Centre
#                                CCDC 
#
#######################################################################
#
# If this CIF has been generated from an entry in the Cambridge 
# Structural Database, then it will include bibliographic, chemical, 
# crystal, experimental, refinement or atomic coordinate data resulting 
# from the CCDC's data processing and validation procedures.
#
#######################################################################

data_LUKVIY
_chemical_formula_moiety         'C22 H17 Cl1 N2 O2'
_chemical_name_systematic        
5-chloro-3-(2-nitro-1-phenylethyl)-2-phenyl-1H-indole
_symmetry_cell_setting           triclinic
_symmetry_space_group_name_H-M   'P -1'
_symmetry_Int_Tables_number      2
_space_group_name_Hall           '-P 1'
loop_
_symmetry_equiv_pos_site_id
_symmetry_equiv_pos_as_xyz
1 x,y,z
2 -x,-y,-z
_cell_length_a                   9.5830(7)
_cell_length_b                   9.7555(7)
_cell_length_c                   10.2307(7)
_cell_angle_alpha                79.546(6)
_cell_angle_beta                 77.966(6)
_cell_angle_gamma                87.455(7)
_cell_volume                     919.87
_exptl_crystal_colour            colorless
_exptl_crystal_description       block
_cell_formula_units_Z            2
loop_
_atom_site_label
_atom_site_type_symbol
_atom_site_fract_x
_atom_site_fract_y
_atom_site_fract_z
C1 C 0.30134(13) 0.30487(13) 0.47178(13)
C2 C 0.15631(13) 0.33679(14) 0.49919(14)
H1 H 0.1067 0.3398 0.5893
C3 C 0.08662(13) 0.36395(14) 0.39233(14)
H2 H -0.0124 0.3858 0.4077
C4 C 0.16322(13) 0.35909(14) 0.26078(13)
C5 C 0.30654(12) 0.32723(13) 0.23105(13)
H3 H 0.3547 0.3250 0.1404
C6 C 0.37928(12) 0.29823(12) 0.33886(12)
C7 C 0.52344(12) 0.26002(12) 0.35141(12)
C8 C 0.52687(13) 0.24560(13) 0.48676(13)
C9 C 0.65601(12) 0.24850(13) 0.24431(12)
H4 H 0.7395 0.2586 0.2863
C10 C 0.66676(13) 0.36530(13) 0.12008(12)
H5 H 0.7613 0.3610 0.0593
H6 H 0.5927 0.3523 0.0689
C11 C 0.67609(12) 0.11141(13) 0.19138(12)
C12 C 0.56223(13) 0.03868(13) 0.17345(12)
H7 H 0.4676 0.0721 0.1988
C13 C 0.58560(13) -0.08258(13) 0.11871(13)
H8 H 0.5070 -0.1314 0.1065
C14 C 0.72269(14) -0.13258(13) 0.08191(13)
H9 H 0.7385 -0.2150 0.0435
C15 C 0.83681(14) -0.06224(14) 0.10125(15)
H10 H 0.9311 -0.0971 0.0774
C16 C 0.81368(13) 0.05913(14) 0.15540(14)
H11 H 0.8925 0.1072 0.1681
C17 C 0.64585(13) 0.20526(14) 0.55687(12)
C18 C 0.68391(14) 0.28733(15) 0.64173(14)
H12 H 0.6360 0.3733 0.6516
C19 C 0.79159(16) 0.24370(18) 0.71180(16)
H13 H 0.8166 0.2994 0.7704
C20 C 0.86283(16) 0.11925(18) 0.69676(16)
H14 H 0.9364 0.0898 0.7453
C21 C 0.82741(14) 0.03761(16) 0.61152(15)
H15 H 0.8768 -0.0476 0.6011
C22 C 0.71956(13) 0.08033(14) 0.54118(13)
H16 H 0.6956 0.0245 0.4821
N1 N 0.39365(11) 0.27288(12) 0.55865(11)
H17 H 0.3714(16) 0.2700(17) 0.6404(17)
N2 N 0.64715(11) 0.50447(11) 0.16313(11)
O1 O 0.55567(10) 0.58312(10) 0.12206(11)
O2 O 0.72277(11) 0.53298(10) 0.23676(10)
Cl1 Cl 0.07128(3) 0.39630(4) 0.12679(3)
loop_
_geom_bond_atom_site_label_1
_geom_bond_atom_site_label_2
_geom_bond_site_symmetry_1
_geom_bond_site_symmetry_2
C1 C2 1_555 1_555
C2 H1 1_555 1_555
C3 C2 1_555 1_555
H2 C3 1_555 1_555
C4 C3 1_555 1_555
C5 C4 1_555 1_555
H3 C5 1_555 1_555
C6 C1 1_555 1_555
C7 C6 1_555 1_555
C8 C7 1_555 1_555
C9 C7 1_555 1_555
H4 C9 1_555 1_555
C10 C9 1_555 1_555
H5 C10 1_555 1_555
H6 C10 1_555 1_555
C11 C9 1_555 1_555
C12 C11 1_555 1_555
H7 C12 1_555 1_555
C13 C12 1_555 1_555
H8 C13 1_555 1_555
C14 C13 1_555 1_555
H9 C14 1_555 1_555
C15 C14 1_555 1_555
H10 C15 1_555 1_555
C16 C11 1_555 1_555
H11 C16 1_555 1_555
C17 C8 1_555 1_555
C18 C17 1_555 1_555
H12 C18 1_555 1_555
C19 C18 1_555 1_555
H13 C19 1_555 1_555
C20 C19 1_555 1_555
H14 C20 1_555 1_555
C21 C20 1_555 1_555
H15 C21 1_555 1_555
C22 C17 1_555 1_555
H16 C22 1_555 1_555
N1 C1 1_555 1_555
H17 N1 1_555 1_555
N2 C10 1_555 1_555
O1 N2 1_555 1_555
O2 N2 1_555 1_555
Cl1 C4 1_555 1_555
C5 C6 1_555 1_555
C8 N1 1_555 1_555
C15 C16 1_555 1_555
C21 C22 1_555 1_555

#END
