
#######################################################################
#
#                 Cambridge Crystallographic Data Centre
#                                CCDC 
#
#######################################################################
#
# If this CIF has been generated from an entry in the Cambridge 
# Structural Database, then it will include bibliographic, chemical, 
# crystal, experimental, refinement or atomic coordinate data resulting 
# from the CCDC's data processing and validation procedures.
#
#######################################################################

data_LUKVEU
_chemical_formula_moiety         'C23 H20 N2 O3'
_chemical_name_systematic        
5-methoxy-3-(2-nitro-1-phenylethyl)-2-phenyl-1H-indole
_symmetry_cell_setting           triclinic
_symmetry_space_group_name_H-M   'P -1'
_symmetry_Int_Tables_number      2
_space_group_name_Hall           '-P 1'
loop_
_symmetry_equiv_pos_site_id
_symmetry_equiv_pos_as_xyz
1 x,y,z
2 -x,-y,-z
_cell_length_a                   9.7561(7)
_cell_length_b                   10.0258(7)
_cell_length_c                   10.8942(8)
_cell_angle_alpha                116.415(5)
_cell_angle_beta                 91.843(4)
_cell_angle_gamma                97.963(4)
_cell_volume                     939.838
_exptl_crystal_colour            'light yellow'
_exptl_crystal_description       slab
_cell_formula_units_Z            2
loop_
_atom_site_label
_atom_site_type_symbol
_atom_site_fract_x
_atom_site_fract_y
_atom_site_fract_z
C1 C 0.19835(10) 0.50476(11) 0.67418(11)
C2 C 0.17538(11) 0.56338(12) 0.81213(11)
H1 H 0.1769 0.6686 0.8661
C3 C 0.15006(11) 0.46425(12) 0.86931(11)
H2 H 0.1334 0.5015 0.9633
C4 C 0.14906(10) 0.30892(11) 0.78826(11)
C5 C 0.17195(10) 0.25007(11) 0.65095(10)
H3 H 0.1709 0.1448 0.5979
C6 C 0.19683(10) 0.34839(11) 0.59073(10)
C7 C 0.22732(10) 0.33046(11) 0.45606(10)
C8 C 0.24758(10) 0.47341(11) 0.46426(10)
C9 C 0.22632(10) 0.18956(11) 0.32343(10)
H4 H 0.2138 0.2182 0.2473
C10 C 0.10313(10) 0.06333(11) 0.29937(11)
H5 H 0.1067 -0.0259 0.2104
H6 H 0.1097 0.0324 0.3736
C11 C 0.35712(10) 0.11774(11) 0.30199(11)
C12 C 0.45009(11) 0.13848(12) 0.41090(11)
H7 H 0.4337 0.2004 0.5031
C13 C 0.56717(11) 0.06865(12) 0.38520(12)
H8 H 0.6302 0.0831 0.4601
C14 C 0.59239(11) -0.02169(12) 0.25117(12)
H9 H 0.6726 -0.0687 0.2342
C15 C 0.49987(12) -0.04312(12) 0.14192(12)
H10 H 0.5166 -0.1049 0.0498
C16 C 0.38279(11) 0.02591(12) 0.16739(11)
H11 H 0.3195 0.0104 0.0923
C17 C 0.29178(11) 0.52239(11) 0.36018(11)
C18 C 0.21895(12) 0.61533(12) 0.32766(11)
H12 H 0.1360 0.6427 0.3682
C19 C 0.26838(14) 0.66735(13) 0.23588(12)
H13 H 0.2195 0.7313 0.2146
C20 C 0.38861(14) 0.62652(13) 0.17520(12)
H14 H 0.4218 0.6627 0.1126
C21 C 0.46049(12) 0.53318(14) 0.20555(12)
H15 H 0.5424 0.5046 0.1632
C22 C 0.41268(11) 0.48128(13) 0.29814(11)
H16 H 0.4623 0.4177 0.3193
C23 C 0.13008(14) 0.25934(13) 0.98450(11)
H17 H 0.1179 0.1737 1.0062
H18 H 0.0556 0.3185 1.0194
H19 H 0.2204 0.3235 1.0280
N1 N 0.22919(10) 0.57768(10) 0.59438(9)
H20 H 0.2353(14) 0.6738(16) 0.6209(14)
N2 N -0.03129(9) 0.11860(10) 0.29782(10)
O1 O -0.09938(8) 0.14343(9) 0.39586(9)
O2 O -0.06497(9) 0.13940(10) 0.19906(10)
O3 O 0.12460(8) 0.20475(8) 0.83947(7)
loop_
_geom_bond_atom_site_label_1
_geom_bond_atom_site_label_2
_geom_bond_site_symmetry_1
_geom_bond_site_symmetry_2
C1 C2 1_555 1_555
C2 H1 1_555 1_555
C3 C2 1_555 1_555
H2 C3 1_555 1_555
C4 C3 1_555 1_555
C5 C4 1_555 1_555
H3 C5 1_555 1_555
C6 C1 1_555 1_555
C7 C6 1_555 1_555
C8 C7 1_555 1_555
C9 C7 1_555 1_555
H4 C9 1_555 1_555
C10 C9 1_555 1_555
H5 C10 1_555 1_555
H6 C10 1_555 1_555
C11 C9 1_555 1_555
C12 C11 1_555 1_555
H7 C12 1_555 1_555
C13 C12 1_555 1_555
H8 C13 1_555 1_555
C14 C13 1_555 1_555
H9 C14 1_555 1_555
C15 C14 1_555 1_555
H10 C15 1_555 1_555
C16 C11 1_555 1_555
H11 C16 1_555 1_555
C17 C8 1_555 1_555
C18 C17 1_555 1_555
H12 C18 1_555 1_555
C19 C18 1_555 1_555
H13 C19 1_555 1_555
C20 C19 1_555 1_555
H14 C20 1_555 1_555
C21 C20 1_555 1_555
H15 C21 1_555 1_555
C22 C17 1_555 1_555
H16 C22 1_555 1_555
C23 H17 1_555 1_555
H18 C23 1_555 1_555
H19 C23 1_555 1_555
N1 C1 1_555 1_555
H20 N1 1_555 1_555
N2 C10 1_555 1_555
O1 N2 1_555 1_555
O2 N2 1_555 1_555
O3 C4 1_555 1_555
C5 C6 1_555 1_555
C8 N1 1_555 1_555
C15 C16 1_555 1_555
C21 C22 1_555 1_555
C23 O3 1_555 1_555

#END
