
#######################################################################
#
#                 Cambridge Crystallographic Data Centre
#                                CCDC 
#
#######################################################################
#
# If this CIF has been generated from an entry in the Cambridge 
# Structural Database, then it will include bibliographic, chemical, 
# crystal, experimental, refinement or atomic coordinate data resulting 
# from the CCDC's data processing and validation procedures.
#
#######################################################################

data_LUKVAQ
_chemical_formula_moiety         'C16 H13 Br1 N2 O2'
_chemical_name_systematic        2-bromo-3-(2-nitro-1-phenylethyl)-1H-indole
_symmetry_cell_setting           monoclinic
_symmetry_space_group_name_H-M   'P 21/c'
_symmetry_Int_Tables_number      14
_space_group_name_Hall           '-P 2ybc'
loop_
_symmetry_equiv_pos_site_id
_symmetry_equiv_pos_as_xyz
1 x,y,z
2 -x,1/2+y,1/2-z
3 -x,-y,-z
4 x,1/2-y,1/2+z
_cell_length_a                   9.7223(7)
_cell_length_b                   10.2804(7)
_cell_length_c                   13.9652(10)
_cell_angle_alpha                90
_cell_angle_beta                 91.238(2)
_cell_angle_gamma                90
_cell_volume                     1395.48
_exptl_crystal_colour            'pale brown'
_exptl_crystal_description       slab
_cell_formula_units_Z            4
loop_
_atom_site_label
_atom_site_type_symbol
_atom_site_fract_x
_atom_site_fract_y
_atom_site_fract_z
C1 C 0.4952(3) 0.3822(3) 0.59411(18)
C2 C 0.3700(3) 0.3784(3) 0.54275(19)
H1 H 0.3510 0.3120 0.4970
C3 C 0.2753(3) 0.4750(3) 0.5611(2)
H2 H 0.1888 0.4745 0.5281
C4 C 0.3051(3) 0.5740(3) 0.6280(2)
H3 H 0.2376 0.6386 0.6395
C5 C 0.4299(3) 0.5801(3) 0.6776(2)
H4 H 0.4492 0.6489 0.7213
C6 C 0.5274(3) 0.4817(2) 0.66142(18)
C7 C 0.6650(3) 0.4559(3) 0.69787(18)
C8 C 0.7066(3) 0.3462(3) 0.65211(19)
C9 C 0.7553(3) 0.5367(3) 0.76399(19)
H5 H 0.8379 0.4833 0.7817
C10 C 0.6852(3) 0.5750(3) 0.85699(19)
H6 H 0.7475 0.6310 0.8960
H7 H 0.6003 0.6249 0.8420
C11 C 0.8057(3) 0.6574(3) 0.70989(18)
C12 C 0.7453(3) 0.7795(3) 0.7152(2)
H8 H 0.6706 0.7933 0.7568
C13 C 0.7938(3) 0.8824(3) 0.6596(2)
H9 H 0.7520 0.9657 0.6639
C14 C 0.9025(3) 0.8638(3) 0.5982(2)
H10 H 0.9354 0.9338 0.5607
C15 C 0.9624(3) 0.7418(3) 0.5922(2)
H11 H 1.0363 0.7278 0.5499
C16 C 0.9147(3) 0.6396(3) 0.6479(2)
H12 H 0.9570 0.5566 0.6436
N1 N 0.6058(3) 0.2984(2) 0.59133(16)
H13 H 0.623(4) 0.242(3) 0.554(3)
N2 N 0.6503(3) 0.4554(2) 0.91218(16)
O1 O 0.7431(2) 0.3967(2) 0.95513(16)
O2 O 0.5300(3) 0.4220(3) 0.91282(19)
Br1 Br 0.87595(3) 0.26053(3) 0.66349(2)
loop_
_geom_bond_atom_site_label_1
_geom_bond_atom_site_label_2
_geom_bond_site_symmetry_1
_geom_bond_site_symmetry_2
C1 C2 1_555 1_555
C2 H1 1_555 1_555
C3 C2 1_555 1_555
H2 C3 1_555 1_555
C4 C3 1_555 1_555
H3 C4 1_555 1_555
C5 C4 1_555 1_555
H4 C5 1_555 1_555
C6 C1 1_555 1_555
C7 C6 1_555 1_555
C8 C7 1_555 1_555
C9 C7 1_555 1_555
H5 C9 1_555 1_555
C10 C9 1_555 1_555
H6 C10 1_555 1_555
H7 C10 1_555 1_555
C11 C9 1_555 1_555
C12 C11 1_555 1_555
H8 C12 1_555 1_555
C13 C12 1_555 1_555
H9 C13 1_555 1_555
C14 C13 1_555 1_555
H10 C14 1_555 1_555
C15 C14 1_555 1_555
H11 C15 1_555 1_555
C16 C11 1_555 1_555
H12 C16 1_555 1_555
N1 C1 1_555 1_555
H13 N1 1_555 1_555
N2 C10 1_555 1_555
O1 N2 1_555 1_555
O2 N2 1_555 1_555
Br1 C8 1_555 1_555
C5 C6 1_555 1_555
C8 N1 1_555 1_555
C15 C16 1_555 1_555

#END
