
#######################################################################
#
#                 Cambridge Crystallographic Data Centre
#                                CCDC 
#
#######################################################################
#
# If this CIF has been generated from an entry in the Cambridge 
# Structural Database, then it will include bibliographic, chemical, 
# crystal, experimental, refinement or atomic coordinate data resulting 
# from the CCDC's data processing and validation procedures.
#
#######################################################################

data_LUKXOG
_chemical_formula_moiety         'C6 H5 Cl2 N1 O1'
_chemical_name_systematic        4-amino-2,6-dichlorophenol
_symmetry_cell_setting           monoclinic
_symmetry_space_group_name_H-M   'P 21/n'
_symmetry_Int_Tables_number      14
_space_group_name_Hall           '-P 2yn'
loop_
_symmetry_equiv_pos_site_id
_symmetry_equiv_pos_as_xyz
1 x,y,z
2 1/2-x,1/2+y,1/2-z
3 -x,-y,-z
4 1/2+x,1/2-y,1/2+z
_cell_length_a                   4.6064(5)
_cell_length_b                   11.7569(12)
_cell_length_c                   13.2291(13)
_cell_angle_alpha                90
_cell_angle_beta                 96.760(5)
_cell_angle_gamma                90
_cell_volume                     711.467
_exptl_crystal_colour            colorless
_exptl_crystal_description       plate
_cell_formula_units_Z            4
loop_
_atom_site_label
_atom_site_type_symbol
_atom_site_fract_x
_atom_site_fract_y
_atom_site_fract_z
Cl1 Cl 0.10618(10) 0.09750(4) 0.70434(3)
Cl2 Cl 0.79187(11) 0.44532(4) 0.61176(4)
O1 O 0.4519(3) 0.30303(12) 0.74687(10)
N1 N 0.4522(4) 0.13356(14) 0.35171(12)
C1 C 0.4563(4) 0.26523(16) 0.65055(14)
C2 C 0.4607(4) 0.17796(16) 0.45234(13)
C3 C 0.6112(4) 0.27756(16) 0.48060(14)
H1 H 0.7170(4) 0.31620(16) 0.43359(14)
C4 C 0.3011(4) 0.16753(16) 0.61822(14)
C5 C 0.3014(4) 0.12337(16) 0.52110(14)
H2 H 0.1938(4) 0.05638(16) 0.50165(14)
C6 C 0.6052(4) 0.31990(16) 0.57788(14)
H3 H 0.615(5) 0.329(2) 0.7732(18)
H4 H 0.601(3) 0.1551(19) 0.3217(15)
H5 H 0.451(5) 0.0598(4) 0.3523(17)
loop_
_geom_bond_atom_site_label_1
_geom_bond_atom_site_label_2
_geom_bond_site_symmetry_1
_geom_bond_site_symmetry_2
Cl1 C4 1_555 1_555
Cl2 C6 1_555 1_555
O1 C1 1_555 1_555
N1 C2 1_555 1_555
C1 C4 1_555 1_555
C2 C3 1_555 1_555
C3 H1 1_555 1_555
C4 C5 1_555 1_555
C5 C2 1_555 1_555
H2 C5 1_555 1_555
C6 C1 1_555 1_555
H3 O1 1_555 1_555
H4 N1 1_555 1_555
H5 N1 1_555 1_555
C3 C6 1_555 1_555

#END
