
#######################################################################
#
#                 Cambridge Crystallographic Data Centre
#                                CCDC 
#
#######################################################################
#
# If this CIF has been generated from an entry in the Cambridge 
# Structural Database, then it will include bibliographic, chemical, 
# crystal, experimental, refinement or atomic coordinate data resulting 
# from the CCDC's data processing and validation procedures.
#
#######################################################################

data_LUKZOH
_chemical_formula_moiety         'C15 H14 N2 O4,H2 O1'
_chemical_name_systematic        
"3-Hydroxy-N'-(2-hydroxy-3-methoxybenzylidene)benzohydrazide monohydrate"
_symmetry_cell_setting           monoclinic
_symmetry_space_group_name_H-M   'P 21/c'
_symmetry_Int_Tables_number      14
_space_group_name_Hall           '-P 2ybc'
loop_
_symmetry_equiv_pos_site_id
_symmetry_equiv_pos_as_xyz
1 x,y,z
2 -x,1/2+y,1/2-z
3 -x,-y,-z
4 x,1/2-y,1/2+z
_cell_length_a                   9.460(3)
_cell_length_b                   12.540(5)
_cell_length_c                   12.189(4)
_cell_angle_alpha                90
_cell_angle_beta                 93.303(6)
_cell_angle_gamma                90
_cell_volume                     1443.56
_exptl_crystal_colour            colorless
_exptl_crystal_description       block
_cell_formula_units_Z            4
loop_
_atom_site_label
_atom_site_type_symbol
_atom_site_fract_x
_atom_site_fract_y
_atom_site_fract_z
O1 O 0.2292(3) 0.09528(16) 0.07124(18)
H1 H 0.1783 0.1105 0.1211
O2 O 0.3866(3) 0.07204(18) -0.0926(2)
O3 O -0.0107(3) 0.07365(16) 0.32796(17)
O4 O -0.2190(3) 0.07061(17) 0.69917(17)
H2 H -0.1644 0.0208 0.6914
N1 N 0.1143(3) 0.2243(2) 0.21317(18)
N2 N 0.0347(3) 0.24839(19) 0.30084(19)
C1 C 0.2597(3) 0.2872(2) 0.0732(2)
C2 C 0.2857(3) 0.1857(2) 0.0311(2)
C3 C 0.3697(4) 0.1751(3) -0.0589(2)
C4 C 0.4279(4) 0.2630(3) -0.1048(3)
H3 H 0.4841 0.2554 -0.1644
C5 C 0.4033(4) 0.3638(3) -0.0626(3)
H4 H 0.4431 0.4235 -0.0940
C6 C 0.3210(4) 0.3752(3) 0.0247(3)
H5 H 0.3053 0.4430 0.0525
C7 C 0.1723(4) 0.3024(2) 0.1659(2)
H6 H 0.1582 0.3712 0.1917
C8 C -0.0260(4) 0.1686(2) 0.3537(2)
C9 C -0.1128(3) 0.1984(2) 0.4467(2)
C10 C -0.1278(3) 0.1222(2) 0.5273(2)
H7 H -0.0847 0.0560 0.5208
C11 C -0.2053(3) 0.1428(2) 0.6168(2)
C12 C -0.2717(4) 0.2404(2) 0.6257(2)
H8 H -0.3249 0.2549 0.6858
C13 C -0.2586(4) 0.3158(2) 0.5454(2)
H9 H -0.3043 0.3810 0.5514
C14 C -0.1789(4) 0.2970(2) 0.4556(2)
H10 H -0.1696 0.3492 0.4023
C15 C 0.4817(4) 0.0521(3) -0.1762(3)
H11 H 0.4491 0.0881 -0.2424
H12 H 0.4863 -0.0232 -0.1898
H13 H 0.5742 0.0779 -0.1529
H14 H 0.039(4) 0.3158(12) 0.327(3)
O5 O 0.9493(3) 0.96457(19) 0.1271(2)
H15 H 0.890(3) 0.974(3) 0.0738(19)
H16 H 0.945(4) 1.0154(19) 0.173(2)
loop_
_geom_bond_atom_site_label_1
_geom_bond_atom_site_label_2
_geom_bond_site_symmetry_1
_geom_bond_site_symmetry_2
O1 H1 1_555 1_555
O2 C3 1_555 1_555
O3 C8 1_555 1_555
O4 H2 1_555 1_555
O5 H15 1_555 1_555
N1 N2 1_555 1_555
N2 C8 1_555 1_555
C1 C2 1_555 1_555
C2 O1 1_555 1_555
C3 C2 1_555 1_555
C4 C3 1_555 1_555
H3 C4 1_555 1_555
C5 C4 1_555 1_555
H4 C5 1_555 1_555
C6 C1 1_555 1_555
H5 C6 1_555 1_555
C7 N1 1_555 1_555
H6 C7 1_555 1_555
C8 C9 1_555 1_555
C9 C10 1_555 1_555
C10 H7 1_555 1_555
C11 O4 1_555 1_555
C12 C11 1_555 1_555
H8 C12 1_555 1_555
C13 C12 1_555 1_555
H9 C13 1_555 1_555
C14 C9 1_555 1_555
H10 C14 1_555 1_555
C15 O2 1_555 1_555
H11 C15 1_555 1_555
H12 C15 1_555 1_555
H13 C15 1_555 1_555
H14 N2 1_555 1_555
H16 O5 1_555 1_555
C1 C7 1_555 1_555
C5 C6 1_555 1_555
C10 C11 1_555 1_555
C13 C14 1_555 1_555

#END
