
#######################################################################
#
#                 Cambridge Crystallographic Data Centre
#                                CCDC 
#
#######################################################################
#
# If this CIF has been generated from an entry in the Cambridge 
# Structural Database, then it will include bibliographic, chemical, 
# crystal, experimental, refinement or atomic coordinate data resulting 
# from the CCDC's data processing and validation procedures.
#
#######################################################################

data_LULBIF
_chemical_formula_moiety         'C10 H10 I1 N2 1+,C7 H7 O3 S1 1-'
_chemical_name_systematic        
'di(pyridin-1-yl)iodonium 4-methylbenzenesulfonate'
_symmetry_cell_setting           monoclinic
_symmetry_space_group_name_H-M   'P 21/n'
_symmetry_Int_Tables_number      14
_space_group_name_Hall           '-P 2yn'
loop_
_symmetry_equiv_pos_site_id
_symmetry_equiv_pos_as_xyz
1 x,y,z
2 1/2-x,1/2+y,1/2-z
3 -x,-y,-z
4 1/2+x,1/2-y,1/2+z
_cell_length_a                   9.0892(4)
_cell_length_b                   21.1577(13)
_cell_length_c                   10.0924(5)
_cell_angle_alpha                90
_cell_angle_beta                 115.781(6)
_cell_angle_gamma                90
_cell_volume                     1747.65
_exptl_crystal_colour            colorless
_exptl_crystal_description       plate
_cell_formula_units_Z            4
_chemical_properties_physical    Moisture-sensitive
loop_
_atom_site_label
_atom_site_type_symbol
_atom_site_fract_x
_atom_site_fract_y
_atom_site_fract_z
C1 C 0.7946(3) 0.48678(16) 0.9056(4)
H1 H 0.7537 0.5288 0.8926
C2 C 0.8221(3) 0.45495(17) 1.0322(4)
H2 H 0.8002 0.4747 1.1063
C3 C 0.8819(3) 0.39372(16) 1.0519(4)
H3 H 0.9030 0.3712 1.1397
C4 C 0.9105(4) 0.36590(16) 0.9405(4)
H4 H 0.9509 0.3239 0.9506
C5 C 0.8795(3) 0.40004(15) 0.8163(4)
H5 H 0.8975 0.3809 0.7394
C6 C 0.6447(3) 0.54440(15) 0.2605(4)
H6 H 0.5865 0.5067 0.2576
C7 C 0.6070(3) 0.57796(15) 0.1324(4)
H7 H 0.5245 0.5630 0.0417
C8 C 0.6892(3) 0.63311(15) 0.1364(4)
H8 H 0.6627 0.6570 0.0493
C9 C 0.8112(3) 0.65318(15) 0.2696(4)
H9 H 0.8697 0.6911 0.2752
C10 C 0.8466(3) 0.61731(14) 0.3940(4)
H10 H 0.9321 0.6303 0.4850
I1 I 0.79635(2) 0.51248(2) 0.59383(2)
N1 N 0.8245(3) 0.45975(12) 0.7992(3)
N2 N 0.7626(3) 0.56438(11) 0.3890(3)
C11 C 0.3542(3) 0.67384(14) 0.5597(3)
C12 C 0.4706(4) 0.65528(15) 0.5123(4)
H11 H 0.5464 0.6228 0.5633
C13 C 0.4764(4) 0.68386(16) 0.3913(4)
H12 H 0.5561 0.6704 0.3603
C14 C 0.3689(3) 0.73161(15) 0.3144(4)
C15 C 0.2504(3) 0.74891(15) 0.3603(4)
H13 H 0.1737 0.7809 0.3079
C16 C 0.2421(3) 0.72065(15) 0.4805(4)
H14 H 0.1597 0.7331 0.5092
C17 C 0.3824(4) 0.76302(17) 0.1864(4)
H15 H 0.4979 0.7688 0.2092
H16 H 0.3280 0.8043 0.1680
H17 H 0.3301 0.7364 0.0987
O1 O 0.1976(2) 0.60740(11) 0.6724(2)
O2 O 0.3676(3) 0.69359(10) 0.8172(3)
O3 O 0.4930(2) 0.59806(10) 0.7807(2)
S1 S 0.35270(8) 0.64053(4) 0.72090(9)
loop_
_geom_bond_atom_site_label_1
_geom_bond_atom_site_label_2
_geom_bond_site_symmetry_1
_geom_bond_site_symmetry_2
C1 H1 1_555 1_555
C2 C1 1_555 1_555
H2 C2 1_555 1_555
C3 C2 1_555 1_555
H3 C3 1_555 1_555
C4 C3 1_555 1_555
H4 C4 1_555 1_555
C5 C4 1_555 1_555
H5 C5 1_555 1_555
C6 H6 1_555 1_555
C7 C6 1_555 1_555
H7 C7 1_555 1_555
C8 C7 1_555 1_555
H8 C8 1_555 1_555
C9 C8 1_555 1_555
H9 C9 1_555 1_555
C10 C9 1_555 1_555
H10 C10 1_555 1_555
I1 N1 1_555 1_555
N1 C1 1_555 1_555
N2 C6 1_555 1_555
C11 C12 1_555 1_555
C12 H11 1_555 1_555
C13 C12 1_555 1_555
H12 C13 1_555 1_555
C14 C13 1_555 1_555
C15 C14 1_555 1_555
H13 C15 1_555 1_555
C16 C11 1_555 1_555
H14 C16 1_555 1_555
C17 C14 1_555 1_555
H15 C17 1_555 1_555
H16 C17 1_555 1_555
H17 C17 1_555 1_555
O1 S1 1_555 1_555
O2 S1 1_555 1_555
O3 S1 1_555 1_555
S1 C11 1_555 1_555
C5 N1 1_555 1_555
C10 N2 1_555 1_555
I1 N2 1_555 1_555
C15 C16 1_555 1_555

#END
