
#######################################################################
#
#                 Cambridge Crystallographic Data Centre
#                                CCDC 
#
#######################################################################
#
# If this CIF has been generated from an entry in the Cambridge 
# Structural Database, then it will include bibliographic, chemical, 
# crystal, experimental, refinement or atomic coordinate data resulting 
# from the CCDC's data processing and validation procedures.
#
#######################################################################

data_LULCAY
_chemical_formula_moiety         'C10 H10 I1 N2 1+,N1 O3 1-'
_chemical_name_systematic        'di(pyridin-1-yl)iodonium nitrate'
_symmetry_cell_setting           triclinic
_symmetry_space_group_name_H-M   'P -1'
_symmetry_Int_Tables_number      2
_space_group_name_Hall           '-P 1'
loop_
_symmetry_equiv_pos_site_id
_symmetry_equiv_pos_as_xyz
1 x,y,z
2 -x,-y,-z
_cell_length_a                   7.0864(3)
_cell_length_b                   7.4613(3)
_cell_length_c                   13.5366(6)
_cell_angle_alpha                99.491(4)
_cell_angle_beta                 94.725(4)
_cell_angle_gamma                117.637(4)
_cell_volume                     614.967
_exptl_crystal_colour            colorless
_exptl_crystal_description       block
_cell_formula_units_Z            2
_chemical_properties_physical    Moisture-sensitive
loop_
_atom_site_label
_atom_site_type_symbol
_atom_site_fract_x
_atom_site_fract_y
_atom_site_fract_z
C1 C 0.5069(8) 0.7337(9) 0.0060(5)
H1 H 0.5130 0.6552 -0.0554
C2 C 0.3147(10) 0.6666(12) 0.0420(7)
H2 H 0.1890 0.5434 0.0052
C3 C 0.3050(11) 0.7768(13) 0.1305(6)
H3 H 0.1742 0.7295 0.1568
C4 C 0.4869(12) 0.9571(13) 0.1810(5)
H4 H 0.4824 1.0377 0.2420
C5 C 0.6810(9) 1.0221(10) 0.1418(4)
H5 H 0.8079 1.1467 0.1763
N1 N 0.6851(6) 0.9080(7) 0.0563(3)
I1 I 1.0000 1.0000 0.0000
C1A C 1.4931(8) 1.2663(9) -0.0060(5)
H1A H 1.4870 1.3448 0.0554
C2A C 1.6853(10) 1.3334(12) -0.0420(7)
H2A H 1.8110 1.4566 -0.0052
C3A C 1.6950(11) 1.2232(13) -0.1305(6)
H3A H 1.8258 1.2705 -0.1568
C4A C 1.5131(12) 1.0429(13) -0.1810(5)
H4A H 1.5176 0.9623 -0.2420
C5A C 1.3190(9) 0.9779(10) -0.1418(4)
H5A H 1.1921 0.8533 -0.1763
N1A N 1.3149(6) 1.0920(7) -0.0563(3)
C6 C 0.7539(8) 0.4812(8) 0.5124(4)
H6 H 0.7763 0.4340 0.4471
C7 C 0.8457(9) 0.6903(9) 0.5538(5)
H7 H 0.9325 0.7883 0.5176
C8 C 0.8107(10) 0.7568(9) 0.6485(5)
H8 H 0.8754 0.9013 0.6783
C9 C 0.6833(10) 0.6153(9) 0.6992(4)
H9 H 0.6560 0.6581 0.7640
C10 C 0.5962(9) 0.4095(9) 0.6533(4)
H10 H 0.5050 0.3087 0.6870
N2 N 0.6343(6) 0.3450(5) 0.5633(3)
I2 I 0.5000 0.0000 0.5000
C6A C 0.2461(8) -0.4812(8) 0.4876(4)
H6A H 0.2237 -0.4340 0.5529
C7A C 0.1543(9) -0.6903(9) 0.4462(5)
H7A H 0.0675 -0.7883 0.4824
C8A C 0.1893(10) -0.7568(9) 0.3515(5)
H8A H 0.1246 -0.9013 0.3217
C9A C 0.3167(10) -0.6153(9) 0.3008(4)
H9A H 0.3440 -0.6581 0.2360
C10A C 0.4038(9) -0.4095(9) 0.3467(4)
H10A H 0.4950 -0.3087 0.3130
N2A N 0.3657(6) -0.3450(5) 0.4367(3)
N3 N 0.8507(7) 0.6137(6) 0.2591(3)
O1 O 0.7944(11) 0.6762(13) 0.1931(5)
O2 O 0.9850(11) 0.7261(10) 0.3359(5)
O3 O 0.7763(16) 0.4227(10) 0.2548(6)
O4? O 0.921(3) 0.521(3) 0.2963(11)
O5? O 0.742(3) 0.550(3) 0.1714(9)
O6? O 0.871(3) 0.7815(19) 0.3068(14)
loop_
_geom_bond_atom_site_label_1
_geom_bond_atom_site_label_2
_geom_bond_site_symmetry_1
_geom_bond_site_symmetry_2
C1 H1 1_555 1_555
C2 C1 1_555 1_555
H2 C2 1_555 1_555
C3 C2 1_555 1_555
H3 C3 1_555 1_555
C4 C3 1_555 1_555
H4 C4 1_555 1_555
C5 C4 1_555 1_555
H5 C5 1_555 1_555
N1 C1 1_555 1_555
I1 N1 1_555 1_555
C6 H6 1_555 1_555
C7 C6 1_555 1_555
H7 C7 1_555 1_555
C8 C7 1_555 1_555
H8 C8 1_555 1_555
C9 C8 1_555 1_555
H9 C9 1_555 1_555
C10 C9 1_555 1_555
H10 C10 1_555 1_555
N2 C6 1_555 1_555
I2 N2 1_555 1_555
N3 O1 1_555 1_555
O2 N3 1_555 1_555
O3 N3 1_555 1_555
C1A H1A 1_555 1_555
C2A C1A 1_555 1_555
H2A C2A 1_555 1_555
C3A C2A 1_555 1_555
H3A C3A 1_555 1_555
C4A C3A 1_555 1_555
H4A C4A 1_555 1_555
C5A C4A 1_555 1_555
H5A C5A 1_555 1_555
N1A I1 1_555 1_555
C6A H6A 1_555 1_555
C7A C6A 1_555 1_555
H7A C7A 1_555 1_555
C8A C7A 1_555 1_555
H8A C8A 1_555 1_555
C9A C8A 1_555 1_555
H9A C9A 1_555 1_555
C10A C9A 1_555 1_555
H10A C10A 1_555 1_555
N2A I2 1_555 1_555
C5 N1 1_555 1_555
C10 N2 1_555 1_555
C1A N1A 1_555 1_555
C5A N1A 1_555 1_555
C6A N2A 1_555 1_555
C10A N2A 1_555 1_555

#END
