
#######################################################################
#
#                 Cambridge Crystallographic Data Centre
#                                CCDC 
#
#######################################################################
#
# If this CIF has been generated from an entry in the Cambridge 
# Structural Database, then it will include bibliographic, chemical, 
# crystal, experimental, refinement or atomic coordinate data resulting 
# from the CCDC's data processing and validation procedures.
#
#######################################################################

data_LULCEC
_chemical_formula_moiety         'C15 H25 B11 F2 N2 S1'
_chemical_name_systematic        
1-((5,5-difluoro-1,3,7,9-tetramethyl-5,10a-dihydro-1H-dipyrrolo[1,2-c:2',1'-f]-5-boratapyrimidin-6-ium-10-yl)sulfanediyl)-1,2-dicarba-closo-dodecaborane(11)
_symmetry_cell_setting           triclinic
_symmetry_space_group_name_H-M   'P -1'
_symmetry_Int_Tables_number      2
_space_group_name_Hall           '-P 1'
loop_
_symmetry_equiv_pos_site_id
_symmetry_equiv_pos_as_xyz
1 x,y,z
2 -x,-y,-z
_cell_length_a                   10.903(2)
_cell_length_b                   13.495(3)
_cell_length_c                   16.700(3)
_cell_angle_alpha                113.823(9)
_cell_angle_beta                 103.287(9)
_cell_angle_gamma                94.166(10)
_cell_volume                     2149.52
_exptl_crystal_colour            'red orange'
_exptl_crystal_description       plate
_cell_formula_units_Z            4
_exptl_crystal_recrystallization_method dichloromethane/hexane
loop_
_atom_site_label
_atom_site_type_symbol
_atom_site_fract_x
_atom_site_fract_y
_atom_site_fract_z
S1 S 0.858776(19) 0.464742(15) 0.236774(12)
F1 F 0.72355(5) 0.01446(4) -0.04324(4)
F2 F 0.70973(5) 0.12726(5) -0.11481(3)
N1 N 0.87590(6) 0.18500(5) 0.02624(4)
N2 N 0.64819(6) 0.18349(5) 0.02471(4)
C1 C 0.98322(8) 0.15275(6) 0.00606(6)
C2 C 1.09038(8) 0.22959(7) 0.07393(6)
H1 H 1.1776 0.2244 0.0767
C3 C 1.04835(7) 0.31335(7) 0.13558(5)
C4 C 0.91029(7) 0.28499(6) 0.10517(5)
C5 C 0.81488(7) 0.33232(6) 0.14212(5)
C6 C 0.68582(7) 0.27851(6) 0.10743(5)
C7 C 0.57482(7) 0.30003(6) 0.13893(5)
C8 C 0.47377(7) 0.21814(7) 0.07285(6)
H2 H 0.3874 0.2105 0.0749
C9 C 0.52042(7) 0.14886(6) 0.00285(5)
C10 C 0.98287(9) 0.05435(7) -0.07755(6)
H3 H 0.9178 -0.0069 -0.0879
H4 H 1.0675 0.0334 -0.0698
H5 H 0.9631 0.0718 -0.1301
C11 C 1.13577(8) 0.40935(7) 0.21666(6)
H6 H 1.2249 0.3995 0.2212
H7 H 1.1150 0.4143 0.2721
H8 H 1.1248 0.4773 0.2099
C12 C 0.56077(9) 0.38411(8) 0.22654(6)
H9 H 0.5600 0.4552 0.2238
H10 H 0.6329 0.3916 0.2773
H11 H 0.4802 0.3605 0.2359
C13 C 0.44656(8) 0.05331(7) -0.08366(6)
H12 H 0.4452 0.0712 -0.1352
H13 H 0.3585 0.0368 -0.0818
H14 H 0.4872 -0.0110 -0.0911
C14 C 0.84513(7) 0.55610(6) 0.18270(5)
C15 C 0.71387(8) 0.61136(7) 0.17791(6)
H15 H 0.6332 0.5846 0.2001
B1 B 0.73754(8) 0.12414(7) -0.03060(6)
B2 B 0.85186(9) 0.68927(7) 0.26146(6)
H16 H 0.8673 0.7146 0.3362
B3 B 0.97631(9) 0.65378(7) 0.20829(6)
H17 H 1.0754 0.6573 0.2485
B4 B 0.90567(9) 0.54818(7) 0.09544(6)
H18 H 0.9583 0.4824 0.0616
B5 B 0.73615(9) 0.51955(8) 0.07819(6)
H19 H 0.6764 0.4353 0.0339
B6 B 0.91536(9) 0.77506(7) 0.21780(7)
H20 H 0.9742 0.8592 0.2639
B7 B 0.94811(9) 0.68814(7) 0.11458(7)
H21 H 1.0285 0.7152 0.0923
B8 B 0.80003(10) 0.60441(8) 0.03421(6)
H22 H 0.7830 0.5759 -0.0411
B9 B 0.67568(9) 0.64183(9) 0.08762(7)
H23 H 0.5758 0.6380 0.0484
B10 B 0.74690(10) 0.74619(8) 0.20055(7)
H24 H 0.6937 0.8107 0.2356
B11 B 0.80624(9) 0.74521(8) 0.10982(7)
H25 H 0.7932 0.8099 0.0844
S2 S 0.631702(18) 0.044399(15) 0.385389(13)
F3 F 0.41335(5) 0.33655(5) 0.65818(4)
F4 F 0.59822(5) 0.42900(4) 0.66084(4)
N3 N 0.46251(6) 0.29329(5) 0.51548(4)
N4 N 0.58456(6) 0.23654(6) 0.62948(4)
C16 C 0.38978(8) 0.34809(6) 0.47713(5)
C17 C 0.36446(8) 0.29335(7) 0.38206(5)
H26 H 0.3147 0.3150 0.3393
C18 C 0.42389(7) 0.20245(6) 0.36067(5)
C19 C 0.48871(7) 0.20398(6) 0.44603(5)
C20 C 0.57085(7) 0.13894(6) 0.46990(5)
C21 C 0.61409(7) 0.15064(6) 0.55898(5)
C22 C 0.68609(7) 0.08771(7) 0.59805(6)
C23 C 0.69757(8) 0.13855(8) 0.69021(6)
H27 H 0.7396 0.1152 0.7342
C24 C 0.63678(8) 0.23079(7) 0.70842(5)
C25 C 0.34748(9) 0.45066(7) 0.53067(6)
H28 H 0.2898 0.4343 0.5627
H29 H 0.3022 0.4795 0.4893
H30 H 0.4225 0.5057 0.5752
C26 C 0.40640(8) 0.11939(8) 0.26482(5)
H31 H 0.3241 0.1193 0.2258
H32 H 0.4073 0.0460 0.2632
H33 H 0.4762 0.1383 0.2426
C27 C 0.73928(8) -0.01300(7) 0.55326(7)
H34 H 0.8149 0.0074 0.5370
H35 H 0.6741 -0.0660 0.4980
H36 H 0.7637 -0.0464 0.5955
C28 C 0.63126(10) 0.31240(9) 0.79897(6)
H37 H 0.6407 0.3864 0.8013
H38 H 0.7009 0.3105 0.8470
H39 H 0.5486 0.2941 0.8083
C29 C 0.77519(7) 0.13070(6) 0.39729(5)
C30 C 0.76314(8) 0.19287(7) 0.32857(6)
H40 H 0.6675 0.1881 0.2831
B12 B 0.51431(8) 0.32810(7) 0.61896(6)
B13 B 0.79223(9) 0.27293(7) 0.44347(7)
H41 H 0.7232 0.3203 0.4765
B14 B 0.89614(9) 0.20601(7) 0.49536(6)
H42 H 0.8968 0.2099 0.5637
B15 B 0.82721(9) 0.07533(8) 0.30113(6)
H43 H 0.7805 -0.0059 0.2417
B16 B 0.91821(8) 0.08488(7) 0.40778(6)
H44 H 0.9336 0.0097 0.4189
B17 B 0.86970(11) 0.31222(9) 0.37482(9)
H45 H 0.8523 0.3868 0.3632
B18 B 0.89105(10) 0.19063(10) 0.28711(7)
H46 H 0.8877 0.1850 0.2178
B19 B 0.99439(9) 0.12458(8) 0.33889(6)
H47 H 1.0610 0.0755 0.3043
B20 B 1.03805(9) 0.20636(8) 0.45935(6)
H48 H 1.1343 0.2117 0.5044
B21 B 0.95960(10) 0.32217(8) 0.48214(8)
H49 H 1.0032 0.4035 0.5423
B22 B 1.02097(10) 0.27192(9) 0.38505(8)
H50 H 1.1053 0.3205 0.3811
loop_
_geom_bond_atom_site_label_1
_geom_bond_atom_site_label_2
_geom_bond_site_symmetry_1
_geom_bond_site_symmetry_2
S1 C5 1_555 1_555
F1 B1 1_555 1_555
F2 B1 1_555 1_555
N1 C1 1_555 1_555
N2 C6 1_555 1_555
C1 C2 1_555 1_555
C2 H1 1_555 1_555
C3 C2 1_555 1_555
C4 N1 1_555 1_555
C5 C4 1_555 1_555
C6 C5 1_555 1_555
C7 C6 1_555 1_555
C8 C7 1_555 1_555
H2 C8 1_555 1_555
C9 N2 1_555 1_555
C10 C1 1_555 1_555
H3 C10 1_555 1_555
H4 C10 1_555 1_555
H5 C10 1_555 1_555
C11 C3 1_555 1_555
H6 C11 1_555 1_555
H7 C11 1_555 1_555
H8 C11 1_555 1_555
C12 C7 1_555 1_555
H9 C12 1_555 1_555
H10 C12 1_555 1_555
H11 C12 1_555 1_555
C13 C9 1_555 1_555
H12 C13 1_555 1_555
H13 C13 1_555 1_555
H14 C13 1_555 1_555
C14 S1 1_555 1_555
C15 C14 1_555 1_555
H15 C15 1_555 1_555
B1 N1 1_555 1_555
B2 C14 1_555 1_555
H16 B2 1_555 1_555
B3 C14 1_555 1_555
H17 B3 1_555 1_555
B4 C14 1_555 1_555
H18 B4 1_555 1_555
B5 C14 1_555 1_555
H19 B5 1_555 1_555
B6 B2 1_555 1_555
H20 B6 1_555 1_555
B7 B3 1_555 1_555
H21 B7 1_555 1_555
B8 B4 1_555 1_555
H22 B8 1_555 1_555
B9 C15 1_555 1_555
H23 B9 1_555 1_555
B10 C15 1_555 1_555
H24 B10 1_555 1_555
B11 B6 1_555 1_555
H25 B11 1_555 1_555
S2 C20 1_555 1_555
F3 B12 1_555 1_555
F4 B12 1_555 1_555
N3 C16 1_555 1_555
N4 C21 1_555 1_555
C16 C17 1_555 1_555
C17 H26 1_555 1_555
C18 C17 1_555 1_555
C19 N3 1_555 1_555
C20 C19 1_555 1_555
C21 C20 1_555 1_555
C22 C21 1_555 1_555
C23 C22 1_555 1_555
H27 C23 1_555 1_555
C24 N4 1_555 1_555
C25 C16 1_555 1_555
H28 C25 1_555 1_555
H29 C25 1_555 1_555
H30 C25 1_555 1_555
C26 C18 1_555 1_555
H31 C26 1_555 1_555
H32 C26 1_555 1_555
H33 C26 1_555 1_555
C27 C22 1_555 1_555
H34 C27 1_555 1_555
H35 C27 1_555 1_555
H36 C27 1_555 1_555
C28 C24 1_555 1_555
H37 C28 1_555 1_555
H38 C28 1_555 1_555
H39 C28 1_555 1_555
C29 S2 1_555 1_555
C30 C29 1_555 1_555
H40 C30 1_555 1_555
B12 N3 1_555 1_555
B13 C29 1_555 1_555
H41 B13 1_555 1_555
B14 C29 1_555 1_555
H42 B14 1_555 1_555
B15 C29 1_555 1_555
H43 B15 1_555 1_555
B16 C29 1_555 1_555
H44 B16 1_555 1_555
B17 C30 1_555 1_555
H45 B17 1_555 1_555
B18 C30 1_555 1_555
H46 B18 1_555 1_555
B19 B15 1_555 1_555
H47 B19 1_555 1_555
B20 B14 1_555 1_555
H48 B20 1_555 1_555
B21 B13 1_555 1_555
H49 B21 1_555 1_555
B22 B17 1_555 1_555
H50 B22 1_555 1_555
N2 B1 1_555 1_555
C3 C4 1_555 1_555
C8 C9 1_555 1_555
C15 B2 1_555 1_555
C15 B5 1_555 1_555
B2 B3 1_555 1_555
B2 B10 1_555 1_555
B3 B4 1_555 1_555
B3 B6 1_555 1_555
B4 B5 1_555 1_555
B4 B7 1_555 1_555
B5 B8 1_555 1_555
B5 B9 1_555 1_555
B6 B7 1_555 1_555
B6 B10 1_555 1_555
B7 B8 1_555 1_555
B7 B11 1_555 1_555
B8 B9 1_555 1_555
B8 B11 1_555 1_555
B9 B10 1_555 1_555
B9 B11 1_555 1_555
B10 B11 1_555 1_555
N4 B12 1_555 1_555
C18 C19 1_555 1_555
C23 C24 1_555 1_555
C30 B13 1_555 1_555
C30 B15 1_555 1_555
B13 B14 1_555 1_555
B13 B17 1_555 1_555
B14 B16 1_555 1_555
B14 B21 1_555 1_555
B15 B16 1_555 1_555
B15 B18 1_555 1_555
B16 B19 1_555 1_555
B16 B20 1_555 1_555
B17 B18 1_555 1_555
B17 B21 1_555 1_555
B18 B19 1_555 1_555
B18 B22 1_555 1_555
B19 B20 1_555 1_555
B19 B22 1_555 1_555
B20 B21 1_555 1_555
B20 B22 1_555 1_555
B21 B22 1_555 1_555

#END
