
#######################################################################
#
#                 Cambridge Crystallographic Data Centre
#                                CCDC 
#
#######################################################################
#
# If this CIF has been generated from an entry in the Cambridge 
# Structural Database, then it will include bibliographic, chemical, 
# crystal, experimental, refinement or atomic coordinate data resulting 
# from the CCDC's data processing and validation procedures.
#
#######################################################################

data_LULDED
_chemical_formula_moiety         'C73 H17 N1,C6 H4 Cl2'
_chemical_name_systematic        
'2,3,12,13-(2-Methyl-2-aza-7-phenylheptan-1,3-diyl-7-ylidene)-C60fullerene 1,2-dichlorobenzene solvate'
_symmetry_cell_setting           monoclinic
_symmetry_space_group_name_H-M   'P 21/c'
_symmetry_Int_Tables_number      14
_space_group_name_Hall           '-P 2ybc'
loop_
_symmetry_equiv_pos_site_id
_symmetry_equiv_pos_as_xyz
1 x,y,z
2 -x,1/2+y,1/2-z
3 -x,-y,-z
4 x,1/2-y,1/2+z
_cell_length_a                   10.4764(3)
_cell_length_b                   25.5317(6)
_cell_length_c                   16.5265(5)
_cell_angle_alpha                90
_cell_angle_beta                 102.296(3)
_cell_angle_gamma                90
_cell_volume                     4319.11
_exptl_crystal_colour            'dark brown'
_exptl_crystal_description       block
_cell_formula_units_Z            4
loop_
_atom_site_label
_atom_site_type_symbol
_atom_site_fract_x
_atom_site_fract_y
_atom_site_fract_z
C1 C 0.3558(4) 0.32189(18) 0.7462(4)
C2 C 0.3523(4) 0.37689(17) 0.7780(3)
C3 C 0.3900(4) 0.41816(17) 0.7370(3)
C4 C 0.6036(4) 0.3512(2) 0.6215(2)
C5 C 0.6421(7) 0.2971(3) 0.6528(4)
C6 C 0.5348(5) 0.27733(19) 0.6868(3)
C7 C 0.5649(4) 0.24652(15) 0.7533(3)
C8 C 0.5041(4) 0.25194(16) 0.8236(3)
C9 C 0.4110(4) 0.29016(16) 0.8235(3)
C10 C 0.3758(4) 0.3764(2) 0.8662(4)
C11 C 0.4333(5) 0.4194(2) 0.9140(3)
C12 C 0.4748(5) 0.46323(19) 0.8715(4)
C13 C 0.4555(4) 0.46162(16) 0.7852(3)
C14 C 0.5591(4) 0.48128(15) 0.7476(3)
C15 C 0.5644(4) 0.45096(16) 0.6764(3)
C16 C 0.6827(5) 0.44004(18) 0.6576(3)
C17 C 0.7045(4) 0.38764(19) 0.6297(3)
C18 C 0.8365(4) 0.3724(2) 0.6636(3)
C19 C 0.8665(4) 0.3221(2) 0.6893(3)
C20 C 0.7658(5) 0.2847(2) 0.6830(3)
C21 C 0.7233(5) 0.23085(17) 0.8805(3)
C22 C 0.6920(6) 0.3437(3) 1.0499(3)
C23 C 0.5995(5) 0.24327(18) 0.9006(3)
C24 C 0.5951(5) 0.2729(2) 0.9693(3)
C25 C 0.5596(5) 0.3594(2) 1.0172(3)
C26 C 0.5296(6) 0.4096(3) 0.9916(3)
C27 C 0.6299(7) 0.4487(2) 0.9970(4)
C28 C 0.6728(5) 0.50113(16) 0.7974(3)
C29 C 0.7963(4) 0.48957(17) 0.7774(3)
C30 C 0.8008(4) 0.45940(18) 0.7098(3)
C31 C 1.0228(4) 0.3564(2) 0.8117(4)
C32 C 0.9632(4) 0.3135(2) 0.7657(3)
C33 C 0.9212(4) 0.26877(19) 0.8062(3)
C34 C 0.9416(4) 0.26882(19) 0.8926(3)
C35 C 0.8385(4) 0.24849(18) 0.9318(3)
C36 C 0.8336(5) 0.2796(2) 1.0025(3)
C37 C 0.7139(6) 0.2918(2) 1.0215(3)
C38 C 0.7918(6) 0.3814(3) 1.0573(3)
C39 C 0.7562(6) 0.4359(2) 1.0291(3)
C40 C 0.8609(5) 0.4559(2) 0.9904(3)
C41 C 0.8293(5) 0.48764(19) 0.9224(4)
C42 C 0.8923(4) 0.48064(17) 0.8549(3)
C43 C 0.9843(4) 0.44257(17) 0.8560(3)
C44 C 1.0207(4) 0.4079(2) 0.9275(3)
C45 C 0.9578(5) 0.4145(2) 0.9946(3)
C46 C 0.9144(6) 0.3699(2) 1.0354(3)
C47 C 0.9364(6) 0.3194(2) 1.0096(3)
C48 C 1.0032(4) 0.3138(2) 0.9402(3)
C49 C 1.0423(4) 0.3561(2) 0.8994(3)
C50 C 0.1690(4) 0.3119(2) 0.5186(3)
H1 H 0.1090 0.3363 0.4851
H2 H 0.1336 0.2770 0.5070
C51 C 0.2502(8) 0.4312(3) 0.4378(4)
H3 H 0.2017 0.4627 0.4420
H4 H 0.1958 0.4069 0.4018
H5 H 0.3254 0.4395 0.4156
C52 C 0.2588(4) 0.23682(16) 0.6705(3)
C53 C 0.1834(4) 0.22229(19) 0.7280(4)
H6 H 0.1585 0.2475 0.7623
C54 C 0.1460(4) 0.1703(2) 0.7335(3)
H7 H 0.0961 0.1609 0.7715
C55 C 0.1816(5) 0.13362(18) 0.6842(4)
H8 H 0.1543 0.0991 0.6872
C56 C 0.2591(5) 0.14704(19) 0.6287(4)
H9 H 0.2858 0.1213 0.5961
C57 C 0.2964(4) 0.1985(2) 0.6220(3)
H10 H 0.3474 0.2072 0.5843
C58 C 0.4224(5) 0.3135(2) 0.6684(3)
C59 C 0.4395(6) 0.4177(2) 0.6540(4)
C60 C 0.4605(5) 0.3611(2) 0.6196(3)
C61 C 0.4105(5) 0.3231(2) 0.8936(3)
C62 C 0.8029(5) 0.25023(19) 0.7561(4)
C63 C 0.7020(5) 0.23231(18) 0.7900(4)
C64 C 0.4979(6) 0.3150(3) 0.9668(3)
C65 C 0.5940(6) 0.4823(2) 0.9221(4)
C66 C 0.6940(7) 0.5009(2) 0.8877(5)
C67 C 0.8974(5) 0.4179(2) 0.7125(3)
C68 C 0.9881(5) 0.4102(2) 0.7839(3)
C69 C 0.2840(4) 0.29534(18) 0.6664(3)
C70 C 0.1753(5) 0.3238(2) 0.6068(3)
H11 H 0.0924 0.3146 0.6202
H12 H 0.1874 0.3612 0.6152
C71 C 0.3045(5) 0.3150(2) 0.4917(4)
H13 H 0.3560 0.2843 0.5119
H14 H 0.2896 0.3150 0.4317
C72 C 0.3815(5) 0.3646(2) 0.5256(3)
H15 H 0.4438 0.3723 0.4906
C73 C 0.3463(6) 0.4471(3) 0.5799(4)
H16 H 0.2770 0.4650 0.5994
H17 H 0.3952 0.4727 0.5555
N1 N 0.2925(7) 0.4079(3) 0.5199(3)
C95 C 0.7885(5) 0.0703(2) 0.8084(3)
C96 C 0.7736(6) 0.0812(2) 0.8869(3)
C97 C 0.6572(6) 0.1017(3) 0.8989(4)
H27 H 0.6453 0.1087 0.9520
C98 C 0.5569(6) 0.1117(2) 0.8294(4)
H28 H 0.4770 0.1246 0.8366
C99 C 0.5759(6) 0.1026(2) 0.7517(4)
H29 H 0.5108 0.1111 0.7060
C100 C 0.6892(6) 0.0811(3) 0.7408(3)
H30 H 0.7002 0.0737 0.6876
Cl1 Cl 0.8952(2) 0.06841(12) 0.97360(12)
Cl2 Cl 0.93205(19) 0.04391(11) 0.79233(15)
C74? C 0.471(4) 0.2906(14) 0.6649(18)
C75? C 0.374(3) 0.3272(8) 0.6893(16)
C76? C 0.499(3) 0.4065(12) 0.6293(18)
C77? C 0.377(2) 0.3870(8) 0.6692(18)
C78? C 0.984(4) 0.3426(17) 0.995(2)
C79? C 0.879(5) 0.3288(18) 1.034(3)
C80? C 0.337(2) 0.2786(7) 0.6364(11)
C81? C 0.3040(14) 0.2927(12) 0.5448(12)
H18? H 0.3639 0.3194 0.5340
H19? H 0.3153 0.2620 0.5125
C82? C 0.141(3) 0.3597(8) 0.5734(18)
H20? H 0.0625 0.3769 0.5439
H21? H 0.1223 0.3455 0.6240
C83? C 0.247(2) 0.4022(10) 0.5983(13)
H22? H 0.2057 0.4323 0.6190
C84? C 0.428(3) 0.4322(15) 0.545(2)
H23? H 0.4377 0.4699 0.5481
H24? H 0.4674 0.4198 0.5002
N2? N 0.291(4) 0.419(3) 0.5261(13)
C85? C 0.687(2) 0.2471(9) 0.7302(13)
C86? C 0.945(3) 0.3876(9) 0.7294(17)
C87? C 0.467(3) 0.2933(11) 0.920(2)
C88? C 0.928(3) 0.4370(9) 0.7585(19)
C89? C 0.712(3) 0.4824(15) 0.948(2)
C90? C 0.440(4) 0.3421(12) 0.948(2)
C91? C 0.773(3) 0.2348(12) 0.8016(15)
C92? C 0.632(5) 0.4972(18) 0.875(2)
C93? C 0.609(3) 0.3110(12) 0.6417(19)
C94? C 0.370(3) 0.3206(13) 0.784(2)
H25? H 0.1088 0.2837 0.5228
H26? H 0.1538 0.3227 0.4611
loop_
_geom_bond_atom_site_label_1
_geom_bond_atom_site_label_2
_geom_bond_site_symmetry_1
_geom_bond_site_symmetry_2
C1 C2 1_555 1_555
C2 C3 1_555 1_555
C3 C13 1_555 1_555
C4 C5 1_555 1_555
C5 C6 1_555 1_555
C6 C7 1_555 1_555
C7 C8 1_555 1_555
C8 C9 1_555 1_555
C9 C1 1_555 1_555
C10 C2 1_555 1_555
C11 C10 1_555 1_555
C12 C11 1_555 1_555
C13 C12 1_555 1_555
C14 C13 1_555 1_555
C15 C14 1_555 1_555
C16 C15 1_555 1_555
C17 C4 1_555 1_555
C18 C17 1_555 1_555
C19 C18 1_555 1_555
C20 C5 1_555 1_555
C21 C23 1_555 1_555
C22 C25 1_555 1_555
C23 C8 1_555 1_555
C24 C23 1_555 1_555
C25 C26 1_555 1_555
C26 C11 1_555 1_555
C27 C26 1_555 1_555
C28 C14 1_555 1_555
C29 C28 1_555 1_555
C30 C16 1_555 1_555
C31 C32 1_555 1_555
C32 C19 1_555 1_555
C33 C32 1_555 1_555
C34 C33 1_555 1_555
C35 C21 1_555 1_555
C36 C35 1_555 1_555
C37 C22 1_555 1_555
C38 C22 1_555 1_555
C39 C27 1_555 1_555
C40 C39 1_555 1_555
C41 C40 1_555 1_555
C42 C29 1_555 1_555
C43 C42 1_555 1_555
C44 C43 1_555 1_555
C45 C40 1_555 1_555
C46 C38 1_555 1_555
C47 C36 1_555 1_555
C48 C34 1_555 1_555
C49 C31 1_555 1_555
C50 H1 1_555 1_555
H2 C50 1_555 1_555
C51 H3 1_555 1_555
H4 C51 1_555 1_555
H5 C51 1_555 1_555
C52 C53 1_555 1_555
C53 H6 1_555 1_555
C54 C53 1_555 1_555
H7 C54 1_555 1_555
C55 C54 1_555 1_555
H8 C55 1_555 1_555
C56 C55 1_555 1_555
H9 C56 1_555 1_555
C57 C52 1_555 1_555
H10 C57 1_555 1_555
C58 C1 1_555 1_555
C59 C3 1_555 1_555
C60 C4 1_555 1_555
C61 C9 1_555 1_555
C62 C20 1_555 1_555
C63 C7 1_555 1_555
C64 C24 1_555 1_555
C65 C12 1_555 1_555
C66 C28 1_555 1_555
C67 C18 1_555 1_555
C68 C31 1_555 1_555
C69 C1 1_555 1_555
C70 C50 1_555 1_555
H11 C70 1_555 1_555
H12 C70 1_555 1_555
C71 C50 1_555 1_555
H13 C71 1_555 1_555
H14 C71 1_555 1_555
C72 C60 1_555 1_555
H15 C72 1_555 1_555
C73 C59 1_555 1_555
H16 C73 1_555 1_555
H17 C73 1_555 1_555
N1 C51 1_555 1_555
C95 C96 1_555 1_555
C96 C97 1_555 1_555
C97 H27 1_555 1_555
C98 C97 1_555 1_555
H28 C98 1_555 1_555
C99 C98 1_555 1_555
H29 C99 1_555 1_555
C100 C95 1_555 1_555
H30 C100 1_555 1_555
Cl1 C96 1_555 1_555
Cl2 C95 1_555 1_555
C6 C58 1_555 1_555
C10 C61 1_555 1_555
C15 C59 1_555 1_555
C16 C17 1_555 1_555
C19 C20 1_555 1_555
C21 C63 1_555 1_555
C24 C37 1_555 1_555
C25 C64 1_555 1_555
C27 C65 1_555 1_555
C29 C30 1_555 1_555
C30 C67 1_555 1_555
C33 C62 1_555 1_555
C34 C35 1_555 1_555
C36 C37 1_555 1_555
C38 C39 1_555 1_555
C41 C42 1_555 1_555
C41 C66 1_555 1_555
C43 C68 1_555 1_555
C44 C45 1_555 1_555
C44 C49 1_555 1_555
C45 C46 1_555 1_555
C46 C47 1_555 1_555
C47 C48 1_555 1_555
C48 C49 1_555 1_555
C52 C69 1_555 1_555
C56 C57 1_555 1_555
C58 C60 1_555 1_555
C58 C69 1_555 1_555
C59 C60 1_555 1_555
C61 C64 1_555 1_555
C62 C63 1_555 1_555
C65 C66 1_555 1_555
C67 C68 1_555 1_555
C69 C70 1_555 1_555
C71 C72 1_555 1_555
C72 N1 1_555 1_555
C73 N1 1_555 1_555
C99 C100 1_555 1_555

#END
