
#######################################################################
#
#                 Cambridge Crystallographic Data Centre
#                                CCDC 
#
#######################################################################
#
# If this CIF has been generated from an entry in the Cambridge 
# Structural Database, then it will include bibliographic, chemical, 
# crystal, experimental, refinement or atomic coordinate data resulting 
# from the CCDC's data processing and validation procedures.
#
#######################################################################

data_LULJUZ
_chemical_formula_moiety         'C26 H17 Cl1 O6'
_chemical_name_systematic        
3,3'-((4-(Chloromethyl)phenyl)methylene)bis(4-hydroxy-2H-chromen-2-one)
_chemical_properties_biological  'antibacterial activity'
_symmetry_cell_setting           monoclinic
_symmetry_space_group_name_H-M   'P 21/n'
_symmetry_Int_Tables_number      14
_space_group_name_Hall           '-P 2yn'
loop_
_symmetry_equiv_pos_site_id
_symmetry_equiv_pos_as_xyz
1 x,y,z
2 1/2-x,1/2+y,1/2-z
3 -x,-y,-z
4 1/2+x,1/2-y,1/2+z
_cell_length_a                   13.788(4)
_cell_length_b                   10.233(3)
_cell_length_c                   15.439(4)
_cell_angle_alpha                90
_cell_angle_beta                 95.633(4)
_cell_angle_gamma                90
_cell_volume                     2167.81
_chemical_melting_point          '254-255 deg.C'
_cell_formula_units_Z            4
loop_
_atom_site_label
_atom_site_type_symbol
_atom_site_fract_x
_atom_site_fract_y
_atom_site_fract_z
Cl1 Cl 0.34834(6) -0.13624(9) 1.16110(5)
O1 O 0.36413(16) 0.2541(2) 0.84248(13)
O2 O 0.47280(15) 0.3236(2) 0.75929(13)
O3 O 0.39680(18) 0.0429(2) 0.57430(15)
H1 H 0.3368 0.0272 0.5718
O4 O 0.21017(18) -0.0086(2) 0.56679(14)
O5 O 0.06648(18) 0.0555(2) 0.59645(14)
O6 O 0.17744(17) 0.2092(2) 0.83213(14)
H2 H 0.2382 0.2187 0.8349
C1 C 0.4029(2) 0.2370(3) 0.77732(19)
C2 C 0.5189(2) 0.3184(3) 0.68422(19)
C3 C 0.5889(2) 0.4138(3) 0.6724(2)
H3 H 0.6059 0.4776 0.7159
C4 C 0.6324(3) 0.4127(4) 0.5963(2)
H4 H 0.6798 0.4774 0.5871
C5 C 0.6094(3) 0.3217(4) 0.5339(2)
H5 H 0.6411 0.3236 0.4820
C6 C 0.5416(3) 0.2273(4) 0.5445(2)
H6 H 0.5268 0.1640 0.5002
C7 C 0.4938(2) 0.2233(3) 0.6202(2)
C8 C 0.4211(2) 0.1285(3) 0.6383(2)
C9 C 0.3791(2) 0.1296(3) 0.7143(2)
C10 C 0.3018(2) 0.0304(3) 0.73560(18)
H7 H 0.3107 -0.0449 0.6959
C11 C 0.1992(2) 0.0769(3) 0.70969(18)
C12 C 0.1609(3) 0.0371(3) 0.6216(2)
C13 C 0.0062(2) 0.1224(3) 0.6512(2)
C14 C -0.0898(3) 0.1328(3) 0.6168(2)
H8 H -0.1125 0.0944 0.5625
C15 C -0.1532(3) 0.2044(4) 0.6673(3)
H9 H -0.2202 0.2145 0.6475
C16 C -0.1150(3) 0.2596(4) 0.7467(2)
H10 H -0.1564 0.3082 0.7805
C17 C -0.0196(3) 0.2443(3) 0.7756(3)
H11 H 0.0049 0.2825 0.8294
C18 C 0.0419(3) 0.1751(3) 0.7288(2)
C19 C 0.1461(2) 0.1522(3) 0.7574(2)
C20 C 0.3179(2) -0.0284(3) 0.82734(17)
C21 C 0.4124(2) -0.0466(3) 0.8665(2)
H12 H 0.4660 -0.0128 0.8394
C22 C 0.4290(2) -0.1135(3) 0.9448(2)
H13 H 0.4940 -0.1246 0.9705
C23 C 0.3524(2) -0.1643(3) 0.98601(19)
C24 C 0.2580(2) -0.1450(3) 0.94763(19)
H14 H 0.2045 -0.1782 0.9753
C25 C 0.2409(2) -0.0780(3) 0.86945(18)
H15 H 0.1758 -0.0657 0.8443
C26 C 0.3709(3) -0.2386(3) 1.0700(2)
H16 H 0.4393 -0.2694 1.0770
H17 H 0.3279 -0.3162 1.0685
loop_
_geom_bond_atom_site_label_1
_geom_bond_atom_site_label_2
_geom_bond_site_symmetry_1
_geom_bond_site_symmetry_2
Cl1 C26 1_555 1_555
O1 C1 1_555 1_555
O2 C1 1_555 1_555
O3 H1 1_555 1_555
O4 C12 1_555 1_555
O5 C12 1_555 1_555
O6 H2 1_555 1_555
C1 C9 1_555 1_555
C2 O2 1_555 1_555
C3 C2 1_555 1_555
H3 C3 1_555 1_555
C4 C3 1_555 1_555
H4 C4 1_555 1_555
C5 C4 1_555 1_555
H5 C5 1_555 1_555
C6 C5 1_555 1_555
H6 C6 1_555 1_555
C7 C2 1_555 1_555
C8 O3 1_555 1_555
C9 C8 1_555 1_555
C10 C9 1_555 1_555
H7 C10 1_555 1_555
C11 C10 1_555 1_555
C12 C11 1_555 1_555
C13 O5 1_555 1_555
C14 C13 1_555 1_555
H8 C14 1_555 1_555
C15 C14 1_555 1_555
H9 C15 1_555 1_555
C16 C15 1_555 1_555
H10 C16 1_555 1_555
C17 C16 1_555 1_555
H11 C17 1_555 1_555
C18 C13 1_555 1_555
C19 O6 1_555 1_555
C20 C10 1_555 1_555
C21 C20 1_555 1_555
H12 C21 1_555 1_555
C22 C21 1_555 1_555
H13 C22 1_555 1_555
C23 C22 1_555 1_555
C24 C23 1_555 1_555
H14 C24 1_555 1_555
C25 C20 1_555 1_555
H15 C25 1_555 1_555
C26 C23 1_555 1_555
H16 C26 1_555 1_555
H17 C26 1_555 1_555
C6 C7 1_555 1_555
C7 C8 1_555 1_555
C11 C19 1_555 1_555
C17 C18 1_555 1_555
C18 C19 1_555 1_555
C24 C25 1_555 1_555

#END
