
#######################################################################
#
#                 Cambridge Crystallographic Data Centre
#                                CCDC 
#
#######################################################################
#
# If this CIF has been generated from an entry in the Cambridge 
# Structural Database, then it will include bibliographic, chemical, 
# crystal, experimental, refinement or atomic coordinate data resulting 
# from the CCDC's data processing and validation procedures.
#
#######################################################################

data_LULLEJ
_chemical_formula_moiety         'K1 1+,C1 H3 O3 Se1 1-'
_chemical_name_systematic        'Potassium methyl selenite'
_symmetry_cell_setting           monoclinic
_symmetry_space_group_name_H-M   'P 21/c'
_symmetry_Int_Tables_number      14
_space_group_name_Hall           '-P 2ybc'
loop_
_symmetry_equiv_pos_site_id
_symmetry_equiv_pos_as_xyz
1 x,y,z
2 x,1/2-y,1/2+z
3 -x,-y,-z
4 -x,1/2+y,1/2-z
_cell_length_a                   10.2502(16)
_cell_length_b                   7.3115(12)
_cell_length_c                   6.4330(10)
_cell_angle_alpha                90
_cell_angle_beta                 103.012(2)
_cell_angle_gamma                90
_cell_volume                     469.738
_exptl_crystal_colour            white
_exptl_crystal_description       plate
_cell_formula_units_Z            4
_exptl_crystal_recrystallization_method 'diethyl ether/methanol'
loop_
_atom_site_label
_atom_site_type_symbol
_atom_site_fract_x
_atom_site_fract_y
_atom_site_fract_z
Se1 Se 0.75654(2) 0.09804(3) 0.21075(4)
O1 O 0.8348(2) -0.0812(2) 0.1375(4)
O2 O 0.67119(19) -0.0066(3) 0.4052(3)
O3 O 0.86968(18) 0.2094(3) 0.3912(3)
C1 C 0.5698(3) -0.1357(5) 0.3087(5)
H1 H 0.609(4) -0.253(5) 0.293(6)
H2 H 0.511(4) -0.151(6) 0.401(7)
H3 H 0.526(5) -0.100(5) 0.142(8)
K1 K 0.90072(6) 0.56912(8) 0.23835(9)
loop_
_geom_bond_atom_site_label_1
_geom_bond_atom_site_label_2
_geom_bond_site_symmetry_1
_geom_bond_site_symmetry_2
Se1 O1 1_555 1_555
O2 Se1 1_555 1_555
O3 Se1 1_555 1_555
C1 O2 1_555 1_555
H1 C1 1_555 1_555
H2 C1 1_555 1_555
H3 C1 1_555 1_555

#END
