
#######################################################################
#
#                 Cambridge Crystallographic Data Centre
#                                CCDC 
#
#######################################################################
#
# If this CIF has been generated from an entry in the Cambridge 
# Structural Database, then it will include bibliographic, chemical, 
# crystal, experimental, refinement or atomic coordinate data resulting 
# from the CCDC's data processing and validation procedures.
#
#######################################################################

data_LULMAH
_chemical_name_common            
'6,14-diamino-3,4,11,12-tetramethoxy-7-phenyl-7,8-dihydroquinolino(2,3-a)acridine ethanol solvate'
_chemical_formula_moiety         'C30 H28 N4 O4,3(C2 H6 O1)'
_chemical_name_systematic        
'2,3,10,11-tetramethoxy-7-phenyl-6,7-dihydrodibenzo[b,j][1,7]phenanthroline-8,14-diamine ethanol solvate'
_symmetry_cell_setting           triclinic
_symmetry_space_group_name_H-M   'P -1'
_symmetry_Int_Tables_number      2
_space_group_name_Hall           '-P 1'
loop_
_symmetry_equiv_pos_site_id
_symmetry_equiv_pos_as_xyz
1 x,y,z
2 -x,-y,-z
_cell_length_a                   10.6168(15)
_cell_length_b                   11.6951(17)
_cell_length_c                   16.020(2)
_cell_angle_alpha                71.380(3)
_cell_angle_beta                 77.686(3)
_cell_angle_gamma                66.743(3)
_cell_volume                     1723.12
_exptl_crystal_colour            colorless
_cell_formula_units_Z            2
loop_
_atom_site_label
_atom_site_type_symbol
_atom_site_fract_x
_atom_site_fract_y
_atom_site_fract_z
N1 N 0.5002(2) 0.8580(2) 0.17368(14)
N2 N 0.1661(3) 0.7355(3) 0.27542(18)
N3 N 0.1470(2) 0.8229(2) 0.41449(14)
N4 N 0.3685(2) 0.8829(3) 0.57312(16)
H1 H 0.4467 0.8919 0.5522
H2 H 0.3366 0.8851 0.6269
O1 O 0.5496(2) 0.7273(2) -0.08955(13)
O2 O 0.3444(2) 0.6517(2) -0.03402(14)
O3 O -0.20456(19) 0.7949(2) 0.65554(12)
O4 O -0.0887(2) 0.8504(2) 0.75221(13)
C1 C 0.4554(3) 0.8042(3) 0.12708(17)
C2 C 0.5282(3) 0.7908(3) 0.04340(18)
H4 H 0.6040 0.8169 0.0233
C3 C 0.4885(3) 0.7408(3) -0.00728(18)
C4 C 0.3749(3) 0.6996(3) 0.02360(18)
C5 C 0.3038(3) 0.7117(3) 0.10330(19)
C6 C 0.3435(3) 0.7629(3) 0.15766(17)
C7 C 0.2737(3) 0.7753(3) 0.24357(17)
C8 C 0.3233(2) 0.8271(3) 0.29159(17)
C9 C 0.4336(3) 0.8702(3) 0.25124(17)
C10 C 0.4765(3) 0.9405(3) 0.29681(18)
C11 C 0.4811(3) 0.8758(3) 0.39534(17)
H5 H 0.4922 0.9349 0.4225
C12 C 0.3445(3) 0.8611(2) 0.43403(17)
C13 C 0.2666(3) 0.8392(2) 0.38299(17)
C14 C 0.2943(3) 0.8648(2) 0.52047(17)
C15 C 0.1648(3) 0.8528(2) 0.55431(17)
C16 C 0.0953(3) 0.8302(2) 0.49917(16)
C17 C -0.0306(3) 0.8119(3) 0.53180(18)
C18 C -0.0862(3) 0.8154(3) 0.61620(18)
C19 C -0.0186(3) 0.8430(3) 0.67094(18)
C20 C 0.1031(3) 0.8599(3) 0.64087(19)
C21 C 0.6049(3) 0.7504(3) 0.41480(17)
C22 C 0.7362(3) 0.7534(3) 0.3868(2)
C23 C 0.8504(3) 0.6432(4) 0.4047(2)
H6 H 0.9380 0.6471 0.3856
C24 C 0.8355(4) 0.5277(4) 0.4505(3)
H7 H 0.9126 0.4530 0.4621
C25 C 0.7074(4) 0.5232(4) 0.4790(3)
C26 C 0.5917(3) 0.6342(3) 0.4607(3)
C27 C 0.6640(4) 0.7680(4) -0.1224(2)
H8 H 0.6355 0.8585 -0.1274
H9 H 0.7000 0.7522 -0.1795
H10 H 0.7341 0.7208 -0.0824
C28 C 0.2383(4) 0.5996(4) -0.0045(2)
H11 H 0.2632 0.5281 0.0467
H12 H 0.2253 0.5707 -0.0507
H13 H 0.1543 0.6645 0.0106
C29 C -0.2726(3) 0.7609(4) 0.6060(2)
H14 H -0.2924 0.8261 0.5512
H15 H -0.3572 0.7538 0.6391
H16 H -0.2147 0.6798 0.5940
C30 C -0.0339(4) 0.8902(4) 0.8059(2)
H17 H 0.0545 0.8270 0.8211
H18 H -0.0950 0.8994 0.8589
H19 H -0.0238 0.9715 0.7742
H35 H 0.126(3) 0.707(3) 0.247(3)
H36 H 0.124(3) 0.758(3) 0.323(2)
H37 H 0.227(3) 0.685(3) 0.121(2)
H40 H 0.568(3) 0.945(3) 0.2700(18)
H41 H 0.407(3) 1.026(3) 0.2907(19)
H42 H -0.073(3) 0.796(3) 0.495(2)
H43 H 0.152(3) 0.873(3) 0.677(2)
H44 H 0.747(3) 0.836(3) 0.358(2)
H45 H 0.705(4) 0.438(5) 0.502(3)
H46 H 0.500(3) 0.632(3) 0.4814(19)
O5 O 1.0133(3) 0.6416(3) 0.18817(18)
C31 C 1.0016(5) 0.5193(4) 0.2101(3)
H20 H 0.9454 0.5075 0.2662
H21 H 1.0925 0.4538 0.2181
C32 C 0.9414(6) 0.4993(5) 0.1441(5)
H22 H 0.8457 0.5527 0.1436
H23 H 0.9503 0.4104 0.1587
H24 H 0.9888 0.5219 0.0867
H38 H 0.930(2) 0.699(3) 0.179(3)
O6 O 0.7746(3) 0.8324(3) 0.1345(2)
C33 C 0.7886(5) 0.9435(6) 0.0778(5)
H25 H 0.8454 0.9234 0.0247
H26 H 0.6984 1.0032 0.0608
C34 C 0.8438(11) 1.0013(7) 0.1108(8)
H27 H 0.7741 1.0516 0.1470
H28 H 0.8817 1.0567 0.0633
H29 H 0.9156 0.9375 0.1460
H39 H 0.688(4) 0.842(4) 0.135(3)
O7 O 0.4142(3) 0.7124(3) 0.76196(17)
H3 H 0.4341 0.7217 0.8055
C35 C 0.4515(8) 0.5845(5) 0.7691(4)
H30 H 0.4044 0.5483 0.8238
H31 H 0.5493 0.5451 0.7758
C36 C 0.4288(8) 0.5460(5) 0.7037(4)
H32 H 0.4414 0.6041 0.6474
H33 H 0.3363 0.5461 0.7134
H34 H 0.4927 0.4605 0.7041
loop_
_geom_bond_atom_site_label_1
_geom_bond_atom_site_label_2
_geom_bond_site_symmetry_1
_geom_bond_site_symmetry_2
N1 C1 1_555 1_555
N2 C7 1_555 1_555
N3 C13 1_555 1_555
N4 H1 1_555 1_555
H2 N4 1_555 1_555
O1 C3 1_555 1_555
O2 C4 1_555 1_555
O3 C18 1_555 1_555
O4 C19 1_555 1_555
O5 C31 1_555 1_555
O6 C33 1_555 1_555
O7 H3 1_555 1_555
C1 C2 1_555 1_555
C2 H4 1_555 1_555
C3 C2 1_555 1_555
C4 C3 1_555 1_555
C5 C4 1_555 1_555
C6 C1 1_555 1_555
C7 C6 1_555 1_555
C8 C7 1_555 1_555
C9 N1 1_555 1_555
C10 C9 1_555 1_555
C11 C10 1_555 1_555
H5 C11 1_555 1_555
C12 C11 1_555 1_555
C13 C8 1_555 1_555
C14 N4 1_555 1_555
C15 C14 1_555 1_555
C16 N3 1_555 1_555
C17 C16 1_555 1_555
C18 C17 1_555 1_555
C19 C18 1_555 1_555
C20 C15 1_555 1_555
C21 C11 1_555 1_555
C22 C21 1_555 1_555
C23 C22 1_555 1_555
H6 C23 1_555 1_555
C24 C23 1_555 1_555
H7 C24 1_555 1_555
C25 C24 1_555 1_555
C26 C21 1_555 1_555
C27 O1 1_555 1_555
H8 C27 1_555 1_555
H9 C27 1_555 1_555
H10 C27 1_555 1_555
C28 O2 1_555 1_555
H11 C28 1_555 1_555
H12 C28 1_555 1_555
H13 C28 1_555 1_555
C29 O3 1_555 1_555
H14 C29 1_555 1_555
H15 C29 1_555 1_555
H16 C29 1_555 1_555
C30 O4 1_555 1_555
H17 C30 1_555 1_555
H18 C30 1_555 1_555
H19 C30 1_555 1_555
C31 H20 1_555 1_555
H21 C31 1_555 1_555
C32 C31 1_555 1_555
H22 C32 1_555 1_555
H23 C32 1_555 1_555
H24 C32 1_555 1_555
C33 H25 1_555 1_555
H26 C33 1_555 1_555
C34 C33 1_555 1_555
H27 C34 1_555 1_555
H28 C34 1_555 1_555
H29 C34 1_555 1_555
C35 O7 1_555 1_555
H30 C35 1_555 1_555
H31 C35 1_555 1_555
C36 C35 1_555 1_555
H32 C36 1_555 1_555
H33 C36 1_555 1_555
H34 C36 1_555 1_555
H35 N2 1_555 1_555
H36 N2 1_555 1_555
H37 C5 1_555 1_555
H38 O5 1_555 1_555
H39 O6 1_555 1_555
H40 C10 1_555 1_555
H41 C10 1_555 1_555
H42 C17 1_555 1_555
H43 C20 1_555 1_555
H44 C22 1_555 1_555
H45 C25 1_555 1_555
H46 C26 1_555 1_555
C5 C6 1_555 1_555
C8 C9 1_555 1_555
C12 C13 1_555 1_555
C12 C14 1_555 1_555
C15 C16 1_555 1_555
C19 C20 1_555 1_555
C25 C26 1_555 1_555

#END
