
#######################################################################
#
#                 Cambridge Crystallographic Data Centre
#                                CCDC 
#
#######################################################################
#
# If this CIF has been generated from an entry in the Cambridge 
# Structural Database, then it will include bibliographic, chemical, 
# crystal, experimental, refinement or atomic coordinate data resulting 
# from the CCDC's data processing and validation procedures.
#
#######################################################################

data_LULMOU
_chemical_formula_moiety         'C68 H96 O4 Si4'
_chemical_name_systematic        
5,10,15,20-Tetramethoxy-5,10,15,20-tetrakis(2-(triisopropylsilyl)ethynyl)-cyclocosa-1,3,6,8,11,13,16,18-octayne
_symmetry_cell_setting           monoclinic
_symmetry_space_group_name_H-M   'P 21/n'
_symmetry_Int_Tables_number      14
_space_group_name_Hall           '-P 2yn'
loop_
_symmetry_equiv_pos_site_id
_symmetry_equiv_pos_as_xyz
1 x,y,z
2 1/2+x,1/2-y,1/2+z
3 -x,-y,-z
4 1/2-x,1/2+y,1/2-z
_cell_length_a                   10.789(10)
_cell_length_b                   14.865(13)
_cell_length_c                   23.070(21)
_cell_angle_alpha                90
_cell_angle_beta                 94.23(8)
_cell_angle_gamma                90
_cell_volume                     3689.85
_exptl_crystal_colour            colorless
_exptl_crystal_description       prism
_cell_formula_units_Z            2
_exptl_crystal_recrystallization_method hexane/dichloromethane
loop_
_atom_site_label
_atom_site_type_symbol
_atom_site_fract_x
_atom_site_fract_y
_atom_site_fract_z
Si1 Si 0.20137(10) 0.41855(8) 0.11462(5)
Si2 Si -0.24214(11) 0.98673(8) 0.11229(5)
O1 O -0.2277(2) 0.29604(15) 0.17333(9)
O2 O -0.5871(2) 0.7656(2) 0.16975(10)
C1 C -0.2056(3) 0.3613(2) 0.13066(13)
C2 C -0.5044(3) 0.7523(2) 0.12541(14)
C3 C -0.2639(3) 0.4491(3) 0.14298(14)
C4 C -0.3168(3) 0.3056(2) 0.0302(2)
C5 C -0.3152(3) 0.5197(3) 0.14652(14)
C6 C -0.3775(3) 0.6007(3) 0.14571(14)
C7 C -0.4338(3) 0.6691(3) 0.14042(14)
C8 C -0.4169(4) 0.8279(3) 0.12110(15)
C9 C -0.0719(4) 0.3759(2) 0.12441(15)
C10 C -0.3466(4) 0.8894(3) 0.1179(2)
C11 C 0.0352(4) 0.3905(3) 0.1199(2)
C12 C -0.1723(4) 0.3153(3) 0.2300(2)
H1 H -0.1917(4) 0.2679(3) 0.2562(2)
H2 H -0.2040(4) 0.3713(3) 0.2434(2)
H3 H -0.0838(4) 0.3195(3) 0.2286(2)
C13 C -0.6645(4) 0.8435(3) 0.1603(2)
H4 H -0.7182(4) 0.8491(3) 0.1915(2)
H5 H -0.7137(4) 0.8372(3) 0.1241(2)
H6 H -0.6133(4) 0.8961(3) 0.1589(2)
C14 C 0.2196(5) 0.5372(4) 0.1390(3)
H7 H 0.3056(5) 0.5553(4) 0.1343(3)
C15 C 0.1344(7) 0.5997(4) 0.1022(4)
H8 H 0.1494(7) 0.5925(4) 0.0620(4)
H9 H 0.1508(7) 0.6609(4) 0.1137(4)
H10 H 0.0494(7) 0.5853(4) 0.1077(4)
C16 C -0.3303(5) 1.0861(3) 0.1371(2)
H11 H -0.2780(5) 1.1390(3) 0.1320(2)
C17 C -0.1022(5) 0.9632(5) 0.1632(3)
H12 H -0.1337(5) 0.9568(5) 0.2017(3)
C18 C 0.2891(4) 0.3406(5) 0.1662(3)
H13 H 0.2636(4) 0.3606(5) 0.2040(3)
C19 C -0.4506(6) 1.1017(4) 0.1004(3)
H14 H -0.4340(6) 1.1046(4) 0.0601(3)
H15 H -0.4871(6) 1.1574(4) 0.1117(3)
H16 H -0.5071(6) 1.0532(4) 0.1062(3)
C20 C 0.1832(10) 0.3473(9) 0.0020(4)
H17 H 0.1070(10) 0.3273(9) 0.0167(4)
H18 H 0.2368(10) 0.2966(9) -0.0025(4)
H19 H 0.1656(10) 0.3758(9) -0.0351(4)
C21 C -0.3519(7) 1.0810(4) 0.2017(3)
H20 H -0.2741(7) 1.0710(4) 0.2237(3)
H21 H -0.4075(7) 1.0323(4) 0.2082(3)
H22 H -0.3876(7) 1.1365(4) 0.2137(3)
C22 C 0.1951(8) 0.5492(6) 0.2035(4)
H23 H 0.2486(8) 0.5099(6) 0.2269(4)
H24 H 0.1100(8) 0.5348(6) 0.2089(4)
H25 H 0.2114(8) 0.6104(6) 0.2149(4)
C23 C 0.2388(5) 0.4055(5) 0.0388(3)
H26 H 0.1888(5) 0.4570(5) 0.0246(3)
C24 C -0.2087(8) 0.9981(4) 0.0352(3)
H27 H -0.1296(8) 0.9655(4) 0.0402(3)
C25 C 0.2528(6) 0.2463(5) 0.1652(4)
H28 H 0.1638(6) 0.2419(5) 0.1616(4)
H29 H 0.2844(6) 0.2177(5) 0.2005(4)
H30 H 0.2863(6) 0.2170(5) 0.1327(4)
C26 C -0.0409(6) 0.8735(7) 0.1507(4)
H31 H -0.1024(6) 0.8268(7) 0.1487(4)
H32 H 0.0218(6) 0.8603(7) 0.1812(4)
H33 H -0.0034(6) 0.8771(7) 0.1143(4)
C27 C -0.2561(11) 0.9438(9) -0.0063(3)
H34 H -0.2904(11) 0.8915(9) 0.0109(3)
H35 H -0.1919(11) 0.9259(9) -0.0306(3)
H36 H -0.3204(11) 0.9748(9) -0.0294(3)
C28 C 0.4292(4) 0.3580(5) 0.1718(3)
H37 H 0.4443(4) 0.4217(5) 0.1721(3)
H38 H 0.4666(4) 0.3313(5) 0.1394(3)
H39 H 0.4648(4) 0.3321(5) 0.2073(3)
C29 C -0.1495(7) 1.0846(4) 0.0189(3)
H40 H -0.1199(7) 1.1162(4) 0.0535(3)
H41 H -0.2096(7) 1.1210(4) -0.0030(3)
H42 H -0.0811(7) 1.0721(4) -0.0042(3)
C30 C 0.3631(5) 0.4466(5) 0.0241(2)
H43 H 0.3923(5) 0.4872(5) 0.0545(2)
H44 H 0.3518(5) 0.4787(5) -0.0120(2)
H45 H 0.4230(5) 0.3995(5) 0.0206(2)
C31 C -0.2662(3) 0.3275(2) 0.0755(2)
C32 C -0.0138(7) 1.0457(7) 0.1676(4)
H46 H -0.0604(7) 1.0988(7) 0.1755(4)
H47 H 0.0243(7) 1.0531(7) 0.1316(4)
H48 H 0.0495(7) 1.0363(7) 0.1985(4)
C33 C -0.3763(3) 0.2817(2) -0.0222(2)
C34 C -0.5723(3) 0.7366(2) 0.0681(2)
C33B C -0.6237(3) 0.7183(2) 0.0222(2)
C4B C -0.6832(3) 0.6944(2) -0.0302(2)
C31B C -0.7338(3) 0.6725(2) -0.0755(2)
C1B C -0.7944(3) 0.6387(2) -0.13066(13)
O1B O -0.7723(2) 0.70396(15) -0.17333(9)
C12B C -0.8277(4) 0.6847(3) -0.2300(2)
H1B H -0.8083(4) 0.7321(3) -0.2562(2)
H2B H -0.7960(4) 0.6287(3) -0.2434(2)
H3B H -0.9162(4) 0.6805(3) -0.2286(2)
C3B C -0.7361(3) 0.5509(3) -0.14298(14)
C5B C -0.6848(3) 0.4803(3) -0.14652(14)
C6B C -0.6225(3) 0.3993(3) -0.14571(14)
C7B C -0.5662(3) 0.3309(3) -0.14042(14)
C2B C -0.4956(3) 0.2477(2) -0.12541(14)
O2B O -0.4129(2) 0.2344(2) -0.16975(10)
C13B C -0.3355(4) 0.1565(3) -0.1603(2)
H4B H -0.2818(4) 0.1509(3) -0.1915(2)
H5B H -0.2863(4) 0.1628(3) -0.1241(2)
H6B H -0.3867(4) 0.1039(3) -0.1589(2)
C8B C -0.5831(4) 0.1721(3) -0.12110(15)
C10B C -0.6534(4) 0.1106(3) -0.1179(2)
Si2B Si -0.75786(11) 0.01327(8) -0.11229(5)
C16B C -0.6697(5) -0.0861(3) -0.1371(2)
H11B H -0.7220(5) -0.1390(3) -0.1320(2)
C19B C -0.5494(6) -0.1017(4) -0.1004(3)
H14B H -0.5660(6) -0.1046(4) -0.0601(3)
H15B H -0.5129(6) -0.1574(4) -0.1117(3)
H16B H -0.4929(6) -0.0532(4) -0.1062(3)
C21B C -0.6481(7) -0.0810(4) -0.2017(3)
H20B H -0.7259(7) -0.0710(4) -0.2237(3)
H21B H -0.5925(7) -0.0323(4) -0.2082(3)
H22B H -0.6124(7) -0.1365(4) -0.2137(3)
C17B C -0.8978(5) 0.0368(5) -0.1632(3)
H12B H -0.8663(5) 0.0432(5) -0.2017(3)
C26B C -0.9591(6) 0.1265(7) -0.1507(4)
H31B H -0.8976(6) 0.1732(7) -0.1487(4)
H32B H -1.0218(6) 0.1397(7) -0.1812(4)
H33B H -0.9966(6) 0.1229(7) -0.1143(4)
C32B C -0.9862(7) -0.0457(7) -0.1676(4)
H46B H -0.9396(7) -0.0988(7) -0.1755(4)
H47B H -1.0243(7) -0.0531(7) -0.1316(4)
H48B H -1.0495(7) -0.0363(7) -0.1985(4)
C24B C -0.7913(8) 0.0019(4) -0.0352(3)
H27B H -0.8704(8) 0.0345(4) -0.0402(3)
C27B C -0.7439(11) 0.0562(9) 0.0063(3)
H34B H -0.7096(11) 0.1085(9) -0.0109(3)
H35B H -0.8081(11) 0.0741(9) 0.0306(3)
H36B H -0.6796(11) 0.0252(9) 0.0294(3)
C29B C -0.8505(7) -0.0846(4) -0.0189(3)
H40B H -0.8801(7) -0.1162(4) -0.0535(3)
H41B H -0.7904(7) -0.1210(4) 0.0030(3)
H42B H -0.9189(7) -0.0721(4) 0.0042(3)
C34B C -0.4277(3) 0.2634(2) -0.0681(2)
C9B C -0.9281(4) 0.6241(2) -0.12441(15)
C11B C -1.0352(4) 0.6095(3) -0.1199(2)
Si1B Si -1.20137(10) 0.58145(8) -0.11462(5)
C14B C -1.2196(5) 0.4628(4) -0.1390(3)
H7B H -1.3056(5) 0.4447(4) -0.1343(3)
C15B C -1.1344(7) 0.4003(4) -0.1022(4)
H8B H -1.1494(7) 0.4075(4) -0.0620(4)
H9B H -1.1508(7) 0.3391(4) -0.1137(4)
H10B H -1.0494(7) 0.4147(4) -0.1077(4)
C22B C -1.1951(8) 0.4508(6) -0.2035(4)
H23B H -1.2486(8) 0.4901(6) -0.2269(4)
H24B H -1.1100(8) 0.4652(6) -0.2089(4)
H25B H -1.2114(8) 0.3896(6) -0.2149(4)
C18B C -1.2891(4) 0.6594(5) -0.1662(3)
H13B H -1.2636(4) 0.6394(5) -0.2040(3)
C25B C -1.2528(6) 0.7537(5) -0.1652(4)
H28B H -1.1638(6) 0.7581(5) -0.1616(4)
H29B H -1.2844(6) 0.7823(5) -0.2005(4)
H30B H -1.2863(6) 0.7830(5) -0.1327(4)
C28B C -1.4292(4) 0.6420(5) -0.1718(3)
H37B H -1.4443(4) 0.5783(5) -0.1721(3)
H38B H -1.4666(4) 0.6687(5) -0.1394(3)
H39B H -1.4648(4) 0.6679(5) -0.2073(3)
C23B C -1.2388(5) 0.5945(5) -0.0388(3)
C20B C -1.1832(10) 0.6527(9) -0.0020(4)
H17B H -1.1070(10) 0.6727(9) -0.0167(4)
H18B H -1.2368(10) 0.7034(9) 0.0025(4)
H19B H -1.1656(10) 0.6242(9) 0.0351(4)
H26B H -1.1888(5) 0.5430(5) -0.0246(3)
C30B C -1.3631(5) 0.5534(5) -0.0241(2)
H43B H -1.3923(5) 0.5128(5) -0.0545(2)
H44B H -1.3518(5) 0.5213(5) 0.0120(2)
H45B H -1.4230(5) 0.6005(5) -0.0206(2)
loop_
_geom_bond_atom_site_label_1
_geom_bond_atom_site_label_2
_geom_bond_site_symmetry_1
_geom_bond_site_symmetry_2
Si1 C11 1_555 1_555
Si2 C10 1_555 1_555
O1 C1 1_555 1_555
O2 C2 1_555 1_555
C1 C3 1_555 1_555
C2 C7 1_555 1_555
C3 C5 1_555 1_555
C4 C31 1_555 1_555
C5 C6 1_555 1_555
C6 C7 1_555 1_555
C8 C2 1_555 1_555
C9 C1 1_555 1_555
C10 C8 1_555 1_555
C11 C9 1_555 1_555
C12 O1 1_555 1_555
H1 C12 1_555 1_555
H2 C12 1_555 1_555
H3 C12 1_555 1_555
C13 O2 1_555 1_555
H4 C13 1_555 1_555
H5 C13 1_555 1_555
H6 C13 1_555 1_555
C14 Si1 1_555 1_555
H7 C14 1_555 1_555
C15 C14 1_555 1_555
H8 C15 1_555 1_555
H9 C15 1_555 1_555
H10 C15 1_555 1_555
C16 Si2 1_555 1_555
H11 C16 1_555 1_555
C17 Si2 1_555 1_555
H12 C17 1_555 1_555
C18 Si1 1_555 1_555
H13 C18 1_555 1_555
C19 C16 1_555 1_555
H14 C19 1_555 1_555
H15 C19 1_555 1_555
H16 C19 1_555 1_555
C20 H17 1_555 1_555
H18 C20 1_555 1_555
H19 C20 1_555 1_555
C21 C16 1_555 1_555
H20 C21 1_555 1_555
H21 C21 1_555 1_555
H22 C21 1_555 1_555
C22 C14 1_555 1_555
H23 C22 1_555 1_555
H24 C22 1_555 1_555
H25 C22 1_555 1_555
C23 Si1 1_555 1_555
H26 C23 1_555 1_555
C24 Si2 1_555 1_555
H27 C24 1_555 1_555
C25 C18 1_555 1_555
H28 C25 1_555 1_555
H29 C25 1_555 1_555
H30 C25 1_555 1_555
C26 C17 1_555 1_555
H31 C26 1_555 1_555
H32 C26 1_555 1_555
H33 C26 1_555 1_555
C27 C24 1_555 1_555
H34 C27 1_555 1_555
H35 C27 1_555 1_555
H36 C27 1_555 1_555
C28 C18 1_555 1_555
H37 C28 1_555 1_555
H38 C28 1_555 1_555
H39 C28 1_555 1_555
C29 C24 1_555 1_555
H40 C29 1_555 1_555
H41 C29 1_555 1_555
H42 C29 1_555 1_555
C30 C23 1_555 1_555
H43 C30 1_555 1_555
H44 C30 1_555 1_555
H45 C30 1_555 1_555
C31 C1 1_555 1_555
C32 C17 1_555 1_555
H46 C32 1_555 1_555
H47 C32 1_555 1_555
H48 C32 1_555 1_555
C33 C4 1_555 1_555
C34 C2 1_555 1_555
C33B C34 1_555 1_555
C4B C33B 1_555 1_555
C31B C4B 1_555 1_555
C1B C31B 1_555 1_555
O1B C1B 1_555 1_555
C12B O1B 1_555 1_555
H1B C12B 1_555 1_555
H2B C12B 1_555 1_555
H3B C12B 1_555 1_555
C3B C1B 1_555 1_555
C5B C3B 1_555 1_555
C6B C5B 1_555 1_555
C7B C6B 1_555 1_555
C2B C7B 1_555 1_555
O2B C2B 1_555 1_555
C13B O2B 1_555 1_555
H4B C13B 1_555 1_555
H5B C13B 1_555 1_555
H6B C13B 1_555 1_555
C8B C2B 1_555 1_555
C10B C8B 1_555 1_555
Si2B C10B 1_555 1_555
C16B Si2B 1_555 1_555
H11B C16B 1_555 1_555
C19B C16B 1_555 1_555
H14B C19B 1_555 1_555
H15B C19B 1_555 1_555
H16B C19B 1_555 1_555
C21B C16B 1_555 1_555
H20B C21B 1_555 1_555
H21B C21B 1_555 1_555
H22B C21B 1_555 1_555
C17B Si2B 1_555 1_555
H12B C17B 1_555 1_555
C26B C17B 1_555 1_555
H31B C26B 1_555 1_555
H32B C26B 1_555 1_555
H33B C26B 1_555 1_555
C32B C17B 1_555 1_555
H46B C32B 1_555 1_555
H47B C32B 1_555 1_555
H48B C32B 1_555 1_555
C24B Si2B 1_555 1_555
H27B C24B 1_555 1_555
C27B C24B 1_555 1_555
H34B C27B 1_555 1_555
H35B C27B 1_555 1_555
H36B C27B 1_555 1_555
C29B C24B 1_555 1_555
H40B C29B 1_555 1_555
H41B C29B 1_555 1_555
H42B C29B 1_555 1_555
C34B C33 1_555 1_555
C9B C1B 1_555 1_555
C11B C9B 1_555 1_555
Si1B C11B 1_555 1_555
C14B Si1B 1_555 1_555
H7B C14B 1_555 1_555
C15B C14B 1_555 1_555
H8B C15B 1_555 1_555
H9B C15B 1_555 1_555
H10B C15B 1_555 1_555
C22B C14B 1_555 1_555
H23B C22B 1_555 1_555
H24B C22B 1_555 1_555
H25B C22B 1_555 1_555
C18B Si1B 1_555 1_555
H13B C18B 1_555 1_555
C25B C18B 1_555 1_555
H28B C25B 1_555 1_555
H29B C25B 1_555 1_555
H30B C25B 1_555 1_555
C28B C18B 1_555 1_555
H37B C28B 1_555 1_555
H38B C28B 1_555 1_555
H39B C28B 1_555 1_555
C23B Si1B 1_555 1_555
C20B C23B 1_555 1_555
H17B C20B 1_555 1_555
H18B C20B 1_555 1_555
H19B C20B 1_555 1_555
H26B C23B 1_555 1_555
C30B C23B 1_555 1_555
H43B C30B 1_555 1_555
H44B C30B 1_555 1_555
H45B C30B 1_555 1_555
C20 C23 1_555 1_555
C2B C34B 1_555 1_555

#END
