
#######################################################################
#
#                 Cambridge Crystallographic Data Centre
#                                CCDC 
#
#######################################################################
#
# If this CIF has been generated from an entry in the Cambridge 
# Structural Database, then it will include bibliographic, chemical, 
# crystal, experimental, refinement or atomic coordinate data resulting 
# from the CCDC's data processing and validation procedures.
#
#######################################################################

data_LULTAO
_chemical_formula_moiety         'C25 H27 Cl1 N2 O4'
_chemical_name_systematic        
N-(4-Chlorobenzyl)-5,13-dioxo-2-phenyl-1-oxa-4-azacyclotridec-9-ene-7-carboxamide
_symmetry_cell_setting           orthorhombic
_symmetry_space_group_name_H-M   'P 21 21 21'
_symmetry_Int_Tables_number      19
_space_group_name_Hall           'P 2ac 2ab'
loop_
_symmetry_equiv_pos_site_id
_symmetry_equiv_pos_as_xyz
1 x,y,z
2 1/2+x,1/2-y,-z
3 -x,1/2+y,1/2-z
4 1/2-x,-y,1/2+z
_cell_length_a                   5.0392(4)
_cell_length_b                   12.5399(9)
_cell_length_c                   35.950(3)
_cell_angle_alpha                90
_cell_angle_beta                 90
_cell_angle_gamma                90
_cell_volume                     2271.72
_exptl_crystal_colour            colorless
_exptl_crystal_description       needle
_cell_formula_units_Z            4
loop_
_atom_site_label
_atom_site_type_symbol
_atom_site_fract_x
_atom_site_fract_y
_atom_site_fract_z
Cl1 Cl 0.1507(2) 0.52034(8) 0.97947(3)
O1 O 0.8826(3) 0.89865(18) 0.84512(5)
O2 O 0.8854(3) 0.88624(12) 0.65285(4)
O3 O 1.2662(3) 0.93853(16) 0.62638(6)
O4 O 0.4094(3) 0.77908(14) 0.72693(5)
N1 N 0.4439(4) 0.90642(18) 0.85734(5)
H1 H 0.277(5) 0.914(2) 0.8473(6)
N2 N 0.8390(4) 0.74424(15) 0.71328(5)
H2 H 1.011(5) 0.7514(17) 0.7210(6)
C1 C 0.2484(6) 0.6359(2) 0.95605(9)
C2 C 0.4543(6) 0.6316(2) 0.93163(9)
H3 H 0.5470 0.5667 0.9275
C3 C 0.5264(5) 0.7237(3) 0.91281(8)
H4 H 0.6706 0.7216 0.8958
C4 C 0.3934(5) 0.8180(2) 0.91832(7)
C5 C 0.1854(5) 0.8192(2) 0.94329(7)
H5 H 0.0906 0.8836 0.9474
C6 C 0.1132(6) 0.7281(3) 0.96236(8)
H6 H -0.0292 0.7297 0.9797
C7 C 0.4715(5) 0.9175(2) 0.89724(7)
H7 H 0.3596 0.9776 0.9058
H8 H 0.6583 0.9352 0.9031
C8 C 0.6518(4) 0.8992(2) 0.83430(7)
C9 C 0.5904(4) 0.8965(2) 0.79314(7)
H9 H 0.3950 0.8865 0.7897
C10 C 0.6736(6) 1.0052(2) 0.77594(8)
H10 H 0.5791 1.0623 0.7896
H11 H 0.8656 1.0152 0.7806
C11 C 0.6270(6) 1.0212(2) 0.73651(8)
H12 H 0.4610 0.9986 0.7268
C12 C 0.7976(6) 1.0648(2) 0.71295(8)
H13 H 0.9696 1.0811 0.7221
C13 C 0.7420(5) 1.0900(2) 0.67361(8)
H14 H 0.6882 1.1658 0.6719
H15 H 0.5894 1.0463 0.6653
C14 C 0.9694(6) 1.0717(2) 0.64708(8)
H16 H 0.9185 1.1018 0.6226
H17 H 1.1233 1.1133 0.6562
C15 C 1.0595(5) 0.9597(2) 0.64094(8)
C16 C 0.9646(4) 0.77638(19) 0.64792(6)
H18 H 1.1558 0.7686 0.6549
C17 C 0.7959(4) 0.7132(2) 0.67511(6)
H19 H 0.6063 0.7234 0.6688
H20 H 0.8371 0.6364 0.6724
C18 C 0.6462(4) 0.77742(19) 0.73620(6)
C19 C 0.7354(4) 0.8039(2) 0.77533(7)
H21 H 0.9274 0.8205 0.7748
H22 H 0.7112 0.7400 0.7911
C20 C 0.9260(4) 0.7382(2) 0.60874(6)
C21 C 1.0891(6) 0.6591(2) 0.59489(8)
H23 H 1.2282 0.6320 0.6100
C22 C 1.0545(7) 0.6188(2) 0.55971(8)
H24 H 1.1709 0.5652 0.5506
C23 C 0.8534(7) 0.6556(2) 0.53796(8)
H25 H 0.8277 0.6269 0.5138
C24 C 0.6888(7) 0.7335(3) 0.55085(8)
H26 H 0.5503 0.7600 0.5355
C25 C 0.7235(5) 0.7749(3) 0.58687(8)
H27 H 0.6067 0.8283 0.5960
loop_
_geom_bond_atom_site_label_1
_geom_bond_atom_site_label_2
_geom_bond_site_symmetry_1
_geom_bond_site_symmetry_2
Cl1 C1 1_555 1_555
O1 C8 1_555 1_555
O2 C15 1_555 1_555
O3 C15 1_555 1_555
O4 C18 1_555 1_555
N1 H1 1_555 1_555
N2 H2 1_555 1_555
C1 C2 1_555 1_555
C2 H3 1_555 1_555
C3 C2 1_555 1_555
H4 C3 1_555 1_555
C4 C3 1_555 1_555
C5 C4 1_555 1_555
H5 C5 1_555 1_555
C6 C1 1_555 1_555
H6 C6 1_555 1_555
C7 N1 1_555 1_555
H7 C7 1_555 1_555
H8 C7 1_555 1_555
C8 N1 1_555 1_555
C9 C8 1_555 1_555
H9 C9 1_555 1_555
C10 C9 1_555 1_555
H10 C10 1_555 1_555
H11 C10 1_555 1_555
C11 C10 1_555 1_555
H12 C11 1_555 1_555
C12 C11 1_555 1_555
H13 C12 1_555 1_555
C13 C12 1_555 1_555
H14 C13 1_555 1_555
H15 C13 1_555 1_555
C14 C13 1_555 1_555
H16 C14 1_555 1_555
H17 C14 1_555 1_555
C15 C14 1_555 1_555
C16 O2 1_555 1_555
H18 C16 1_555 1_555
C17 N2 1_555 1_555
H19 C17 1_555 1_555
H20 C17 1_555 1_555
C18 N2 1_555 1_555
C19 C9 1_555 1_555
H21 C19 1_555 1_555
H22 C19 1_555 1_555
C20 C16 1_555 1_555
C21 C20 1_555 1_555
H23 C21 1_555 1_555
C22 C21 1_555 1_555
H24 C22 1_555 1_555
C23 C22 1_555 1_555
H25 C23 1_555 1_555
C24 C23 1_555 1_555
H26 C24 1_555 1_555
C25 C20 1_555 1_555
H27 C25 1_555 1_555
C4 C7 1_555 1_555
C5 C6 1_555 1_555
C16 C17 1_555 1_555
C18 C19 1_555 1_555
C24 C25 1_555 1_555

#END
