
#######################################################################
#
#                 Cambridge Crystallographic Data Centre
#                                CCDC 
#
#######################################################################
#
# If this CIF has been generated from an entry in the Cambridge 
# Structural Database, then it will include bibliographic, chemical, 
# crystal, experimental, refinement or atomic coordinate data resulting 
# from the CCDC's data processing and validation procedures.
#
#######################################################################

data_LULYUN
_chemical_formula_moiety         'C46 H84 Ca2 N4 O2 Si4,C7 H8'
_chemical_name_systematic        
'bis(\m~2~-4-((2,6-Diisopropylphenyl)imino)pent-2-en-2-olato)-bis(bis(trimethylsilyl)amido)-di-calcium toluene solvate'
_symmetry_cell_setting           monoclinic
_symmetry_space_group_name_H-M   'P 21/n'
_symmetry_Int_Tables_number      14
_space_group_name_Hall           '-P 2yn'
loop_
_symmetry_equiv_pos_site_id
_symmetry_equiv_pos_as_xyz
1 x,y,z
2 1/2-x,1/2+y,1/2-z
3 -x,-y,-z
4 1/2+x,1/2-y,1/2+z
_cell_length_a                   11.8253(9)
_cell_length_b                   17.5332(13)
_cell_length_c                   15.4155(12)
_cell_angle_alpha                90
_cell_angle_beta                 107.253(2)
_cell_angle_gamma                90
_cell_volume                     3052.36
_cell_formula_units_Z            2
loop_
_atom_site_label
_atom_site_type_symbol
_atom_site_fract_x
_atom_site_fract_y
_atom_site_fract_z
C5 C 0.22217(16) 0.00667(10) 0.22238(12)
H6 H 0.1998 0.0592 0.2242
H7 H 0.2539 -0.0122 0.2832
H8 H 0.2811 0.0026 0.1911
C6 C 0.11527(13) -0.03953(8) 0.17321(10)
C7 C 0.07902(13) -0.09750(8) 0.21663(10)
H9 H 0.1246 -0.1054 0.2765
C8 C -0.02005(13) -0.14898(8) 0.18367(10)
C9 C -0.05618(15) -0.18939(10) 0.25770(10)
H10 H 0.0045 -0.2249 0.2879
H11 H -0.0670 -0.1527 0.3007
H12 H -0.1290 -0.2163 0.2315
C10 C -0.16872(12) -0.21378(8) 0.07036(9)
C11 C -0.14659(14) -0.29258(9) 0.07261(10)
C12 C -0.24345(15) -0.34111(9) 0.04045(12)
H13 H -0.2307 -0.3935 0.0406
C13 C -0.35719(15) -0.31378(10) 0.00848(12)
H14 H -0.4204 -0.3475 -0.0113
C14 C -0.37719(14) -0.23636(10) 0.00586(12)
H15 H -0.4543 -0.2181 -0.0162
C15 C -0.28392(13) -0.18491(9) 0.03564(10)
C16 C -0.02268(15) -0.32586(9) 0.10778(12)
H16 H 0.0315 -0.2845 0.1360
C17 C -0.01494(18) -0.38751(12) 0.17998(14)
H17 H 0.0659 -0.4034 0.2049
H18 H -0.0433 -0.3672 0.2275
H19 H -0.0626 -0.4305 0.1527
C18 C 0.01780(19) -0.35841(13) 0.03072(14)
H20 H 0.0169 -0.3190 -0.0127
H21 H 0.0967 -0.3781 0.0545
H22 H -0.0346 -0.3988 0.0016
C19 C -0.30774(14) -0.09966(9) 0.03359(12)
H23 H -0.2354 -0.0737 0.0311
C20 C -0.3328(2) -0.07420(13) 0.11993(15)
H24 H -0.2668 -0.0872 0.1714
H25 H -0.3446 -0.0200 0.1183
H26 H -0.4027 -0.0993 0.1249
C21 C -0.40710(16) -0.07437(10) -0.04910(13)
H27 H -0.4812 -0.0937 -0.0448
H28 H -0.4099 -0.0197 -0.0515
H29 H -0.3929 -0.0938 -0.1032
C22 C -0.1079(2) -0.18922(13) -0.32506(12)
H30 H -0.0406 -0.1973 -0.3467
H31 H -0.1765 -0.2127 -0.3660
H32 H -0.1216 -0.1355 -0.3218
C23 C -0.0469(2) -0.33548(11) -0.22548(15)
H33 H -0.0333 -0.3621 -0.1689
H34 H -0.1132 -0.3578 -0.2701
H35 H 0.0223 -0.3392 -0.2457
C24 C -0.22287(15) -0.23084(10) -0.18214(12)
H36 H -0.2428 -0.1792 -0.1721
H37 H -0.2839 -0.2521 -0.2319
H38 H -0.2158 -0.2604 -0.1283
C25 C 0.24666(17) -0.28039(12) -0.09070(14)
H39 H 0.2206 -0.3099 -0.1455
H40 H 0.3309 -0.2737 -0.0744
H41 H 0.2264 -0.3065 -0.0426
C26 C 0.2213(2) -0.13740(15) -0.20070(15)
H42 H 0.1894 -0.0867 -0.2102
H43 H 0.3062 -0.1350 -0.1829
H44 H 0.1932 -0.1661 -0.2560
C27 C 0.24136(15) -0.12844(11) -0.00170(13)
H45 H 0.2165 -0.1496 0.0471
H46 H 0.3261 -0.1309 0.0134
H47 H 0.2163 -0.0762 -0.0111
Ca1 Ca -0.01823(3) -0.102056(16) -0.027187(19)
N1 N -0.07209(10) -0.16015(7) 0.09780(8)
N2 N 0.02501(11) -0.18570(7) -0.12707(8)
O1 O 0.06378(9) -0.01782(6) 0.08863(7)
Si1 Si -0.07882(4) -0.23246(3) -0.20939(3)
Si2 Si 0.17269(4) -0.18492(3) -0.10942(3)
C5B C -0.22217(16) -0.00667(10) -0.22238(12)
H6B H -0.1998 -0.0592 -0.2242
H7B H -0.2539 0.0122 -0.2832
H8B H -0.2811 -0.0026 -0.1911
C6B C -0.11527(13) 0.03953(8) -0.17321(10)
C7B C -0.07902(13) 0.09750(8) -0.21663(10)
H9B H -0.1246 0.1054 -0.2765
C8B C 0.02005(13) 0.14898(8) -0.18367(10)
C9B C 0.05618(15) 0.18939(10) -0.25770(10)
H10B H -0.0045 0.2249 -0.2879
H11B H 0.0670 0.1527 -0.3007
H12B H 0.1290 0.2163 -0.2315
C10B C 0.16872(12) 0.21378(8) -0.07036(9)
C11B C 0.14659(14) 0.29258(9) -0.07261(10)
C12B C 0.24345(15) 0.34111(9) -0.04045(12)
H13B H 0.2307 0.3935 -0.0406
C13B C 0.35719(15) 0.31378(10) -0.00848(12)
H14B H 0.4204 0.3475 0.0113
C14B C 0.37719(14) 0.23636(10) -0.00586(12)
H15B H 0.4543 0.2181 0.0162
C15B C 0.28392(13) 0.18491(9) -0.03564(10)
C16B C 0.02268(15) 0.32586(9) -0.10778(12)
H16B H -0.0315 0.2845 -0.1360
C17B C 0.01494(18) 0.38751(12) -0.17998(14)
H17B H -0.0659 0.4034 -0.2049
H18B H 0.0433 0.3672 -0.2275
H19B H 0.0626 0.4305 -0.1527
C18B C -0.01780(19) 0.35841(13) -0.03072(14)
H20B H -0.0169 0.3190 0.0127
H21B H -0.0967 0.3781 -0.0545
H22B H 0.0346 0.3988 -0.0016
C19B C 0.30774(14) 0.09966(9) -0.03359(12)
H23B H 0.2354 0.0737 -0.0311
C20B C 0.3328(2) 0.07420(13) -0.11993(15)
H24B H 0.2668 0.0872 -0.1714
H25B H 0.3446 0.0200 -0.1183
H26B H 0.4027 0.0993 -0.1249
C21B C 0.40710(16) 0.07437(10) 0.04910(13)
H27B H 0.4812 0.0937 0.0448
H28B H 0.4099 0.0197 0.0515
H29B H 0.3929 0.0938 0.1032
C22B C 0.1079(2) 0.18922(13) 0.32506(12)
H30B H 0.0406 0.1973 0.3467
H31B H 0.1765 0.2127 0.3660
H32B H 0.1216 0.1355 0.3218
C23B C 0.0469(2) 0.33548(11) 0.22548(15)
H33B H 0.0333 0.3621 0.1689
H34B H 0.1132 0.3578 0.2701
H35B H -0.0223 0.3392 0.2457
C24B C 0.22287(15) 0.23084(10) 0.18214(12)
H36B H 0.2428 0.1792 0.1721
H37B H 0.2839 0.2521 0.2319
H38B H 0.2158 0.2604 0.1283
C25B C -0.24666(17) 0.28039(12) 0.09070(14)
H39B H -0.2206 0.3099 0.1455
H40B H -0.3309 0.2737 0.0744
H41B H -0.2264 0.3065 0.0426
C26B C -0.2213(2) 0.13740(15) 0.20070(15)
H42B H -0.1894 0.0867 0.2102
H43B H -0.3062 0.1350 0.1829
H44B H -0.1932 0.1661 0.2560
C27B C -0.24136(15) 0.12844(11) 0.00170(13)
H45B H -0.2165 0.1496 -0.0471
H46B H -0.3261 0.1309 -0.0134
H47B H -0.2163 0.0762 0.0111
Ca1B Ca 0.01823(3) 0.102056(16) 0.027187(19)
N1B N 0.07209(10) 0.16015(7) -0.09780(8)
N2B N -0.02501(11) 0.18570(7) 0.12707(8)
O1B O -0.06378(9) 0.01782(6) -0.08863(7)
Si1B Si 0.07882(4) 0.23246(3) 0.20939(3)
Si2B Si -0.17269(4) 0.18492(3) 0.10942(3)
C1 C 0.4019(2) 0.52487(12) 1.02164(19)
H1 H 0.3351 0.5416 1.0362
C2 C 0.3966(2) 0.51461(11) 0.93100(18)
C3 C 0.5035(3) 0.51066(12) 1.08901(19)
H2 H 0.5057 0.5180 1.1492
C4 C 0.2906(5) 0.5253(2) 0.8690(3)
H3 H 0.2993 0.5589 0.8223
H4 H 0.2368 0.5474 0.8979
H5 H 0.2600 0.4771 0.8427
C1B C 0.5981(2) 0.47513(12) 0.97836(19)
H1B H 0.6649 0.4584 0.9638
C2B C 0.6034(2) 0.48539(11) 1.06900(18)
C3B C 0.4965(3) 0.48934(12) 0.91099(19)
H2B H 0.4943 0.4820 0.8508
C4B C 0.7094(5) 0.4747(2) 1.1310(3)
H3B H 0.7007 0.4411 1.1777
H4B H 0.7632 0.4526 1.1021
H5B H 0.7400 0.5229 1.1573
loop_
_geom_bond_atom_site_label_1
_geom_bond_atom_site_label_2
_geom_bond_site_symmetry_1
_geom_bond_site_symmetry_2
C1 H1 1_555 1_555
C2 C1 1_555 1_555
C3 C1 1_555 1_555
H2 C3 1_555 1_555
C4 C2 1_555 1_555
H3 C4 1_555 1_555
H4 C4 1_555 1_555
H5 C4 1_555 1_555
C5 H6 1_555 1_555
H7 C5 1_555 1_555
H8 C5 1_555 1_555
C6 C5 1_555 1_555
C7 C6 1_555 1_555
H9 C7 1_555 1_555
C8 C7 1_555 1_555
C9 C8 1_555 1_555
H10 C9 1_555 1_555
H11 C9 1_555 1_555
H12 C9 1_555 1_555
C10 C11 1_555 1_555
C11 C12 1_555 1_555
C12 H13 1_555 1_555
C13 C12 1_555 1_555
H14 C13 1_555 1_555
C14 C13 1_555 1_555
H15 C14 1_555 1_555
C15 C10 1_555 1_555
C16 C11 1_555 1_555
H16 C16 1_555 1_555
C17 C16 1_555 1_555
H17 C17 1_555 1_555
H18 C17 1_555 1_555
H19 C17 1_555 1_555
C18 C16 1_555 1_555
H20 C18 1_555 1_555
H21 C18 1_555 1_555
H22 C18 1_555 1_555
C19 C15 1_555 1_555
H23 C19 1_555 1_555
C20 C19 1_555 1_555
H24 C20 1_555 1_555
H25 C20 1_555 1_555
H26 C20 1_555 1_555
C21 C19 1_555 1_555
H27 C21 1_555 1_555
H28 C21 1_555 1_555
H29 C21 1_555 1_555
C22 H30 1_555 1_555
H31 C22 1_555 1_555
H32 C22 1_555 1_555
C23 H33 1_555 1_555
H34 C23 1_555 1_555
H35 C23 1_555 1_555
C24 H36 1_555 1_555
H37 C24 1_555 1_555
H38 C24 1_555 1_555
C25 H39 1_555 1_555
H40 C25 1_555 1_555
H41 C25 1_555 1_555
C26 H42 1_555 1_555
H43 C26 1_555 1_555
H44 C26 1_555 1_555
C27 H45 1_555 1_555
H46 C27 1_555 1_555
H47 C27 1_555 1_555
Ca1 N1 1_555 1_555
N1 C8 1_555 1_555
N2 Ca1 1_555 1_555
O1 C6 1_555 1_555
Si1 C22 1_555 1_555
Si2 C25 1_555 1_555
C1B H1B 1_555 1_555
C2B C3 1_555 1_555
C3B C2 1_555 1_555
H2B C3B 1_555 1_555
C4B C2B 1_555 1_555
H3B C4B 1_555 1_555
H4B C4B 1_555 1_555
H5B C4B 1_555 1_555
C5B H6B 1_555 1_555
H7B C5B 1_555 1_555
H8B C5B 1_555 1_555
C6B C5B 1_555 1_555
C7B C6B 1_555 1_555
H9B C7B 1_555 1_555
C8B C7B 1_555 1_555
C9B C8B 1_555 1_555
H10B C9B 1_555 1_555
H11B C9B 1_555 1_555
H12B C9B 1_555 1_555
C10B C11B 1_555 1_555
C11B C12B 1_555 1_555
C12B H13B 1_555 1_555
C13B C12B 1_555 1_555
H14B C13B 1_555 1_555
C14B C13B 1_555 1_555
H15B C14B 1_555 1_555
C15B C10B 1_555 1_555
C16B C11B 1_555 1_555
H16B C16B 1_555 1_555
C17B C16B 1_555 1_555
H17B C17B 1_555 1_555
H18B C17B 1_555 1_555
H19B C17B 1_555 1_555
C18B C16B 1_555 1_555
H20B C18B 1_555 1_555
H21B C18B 1_555 1_555
H22B C18B 1_555 1_555
C19B C15B 1_555 1_555
H23B C19B 1_555 1_555
C20B C19B 1_555 1_555
H24B C20B 1_555 1_555
H25B C20B 1_555 1_555
H26B C20B 1_555 1_555
C21B C19B 1_555 1_555
H27B C21B 1_555 1_555
H28B C21B 1_555 1_555
H29B C21B 1_555 1_555
C22B H30B 1_555 1_555
H31B C22B 1_555 1_555
H32B C22B 1_555 1_555
C23B H33B 1_555 1_555
H34B C23B 1_555 1_555
H35B C23B 1_555 1_555
C24B H36B 1_555 1_555
H37B C24B 1_555 1_555
H38B C24B 1_555 1_555
C25B H39B 1_555 1_555
H40B C25B 1_555 1_555
H41B C25B 1_555 1_555
C26B H42B 1_555 1_555
H43B C26B 1_555 1_555
H44B C26B 1_555 1_555
C27B H45B 1_555 1_555
H46B C27B 1_555 1_555
H47B C27B 1_555 1_555
Ca1B O1 1_555 1_555
N1B C8B 1_555 1_555
N2B Ca1B 1_555 1_555
O1B Ca1 1_555 1_555
Si1B C22B 1_555 1_555
Si2B C25B 1_555 1_555
C10 N1 1_555 1_555
C14 C15 1_555 1_555
C23 Si1 1_555 1_555
C24 Si1 1_555 1_555
C26 Si2 1_555 1_555
C27 Si2 1_555 1_555
Ca1 O1 1_555 1_555
N2 Si1 1_555 1_555
N2 Si2 1_555 1_555
C1B C2B 1_555 1_555
C1B C3B 1_555 1_555
C6B O1B 1_555 1_555
C10B N1B 1_555 1_555
C14B C15B 1_555 1_555
C23B Si1B 1_555 1_555
C24B Si1B 1_555 1_555
C26B Si2B 1_555 1_555
C27B Si2B 1_555 1_555
Ca1B N1B 1_555 1_555
Ca1B O1B 1_555 1_555
N2B Si1B 1_555 1_555
N2B Si2B 1_555 1_555

#END
