
#######################################################################
#
#                 Cambridge Crystallographic Data Centre
#                                CCDC 
#
#######################################################################
#
# If this CIF has been generated from an entry in the Cambridge 
# Structural Database, then it will include bibliographic, chemical, 
# crystal, experimental, refinement or atomic coordinate data resulting 
# from the CCDC's data processing and validation procedures.
#
#######################################################################

data_LULZEY
_chemical_formula_moiety         'C60 H93 Ca3 N3 O6'
_chemical_name_systematic        
bis(\m~3~-propan-2-olato)-bis(\m~2~-4-((2,6-diisopropylphenyl)imino)pent-2-en-2-olato)-(\m~2~-propan-2-olato)-tri-calcium
_symmetry_cell_setting           monoclinic
_symmetry_space_group_name_H-M   'P 21/n'
_symmetry_Int_Tables_number      14
_space_group_name_Hall           '-P 2yn'
loop_
_symmetry_equiv_pos_site_id
_symmetry_equiv_pos_as_xyz
1 x,y,z
2 1/2-x,1/2+y,1/2-z
3 -x,-y,-z
4 1/2+x,1/2-y,1/2+z
_cell_length_a                   10.8503(16)
_cell_length_b                   24.432(4)
_cell_length_c                   24.362(4)
_cell_angle_alpha                90
_cell_angle_beta                 102.430(4)
_cell_angle_gamma                90
_cell_volume                     6306.85
_cell_formula_units_Z            4
loop_
_atom_site_label
_atom_site_type_symbol
_atom_site_fract_x
_atom_site_fract_y
_atom_site_fract_z
C1 C 1.3852(3) 0.55238(15) 0.46936(15)
H1 H 1.3825 0.5153 0.4539
H2 H 1.3993 0.5505 0.5104
H3 H 1.4540 0.5729 0.4587
C2 C 1.2605(3) 0.58107(13) 0.44613(15)
C3 C 1.1952(3) 0.60471(14) 0.48251(14)
H4 H 1.2348 0.6023 0.5212
C4 C 1.0766(3) 0.63236(14) 0.47058(14)
C5 C 1.0361(4) 0.65541(16) 0.52145(14)
H5 H 1.0798 0.6901 0.5322
H6 H 1.0574 0.6294 0.5527
H7 H 0.9447 0.6616 0.5124
C6 C 0.8847(3) 0.66423(14) 0.41182(14)
C7 C 0.8731(3) 0.72140(15) 0.40995(15)
C8 C 0.7516(4) 0.74393(17) 0.39572(17)
H8 H 0.7420 0.7826 0.3943
C9 C 0.6459(4) 0.71129(19) 0.38370(17)
H9 H 0.5644 0.7272 0.3730
C10 C 0.6592(4) 0.65527(18) 0.38737(16)
H10 H 0.5858 0.6330 0.3803
C11 C 0.7769(3) 0.63047(15) 0.40109(14)
C12 C 0.9860(4) 0.75952(16) 0.42138(18)
H11 H 1.0632 0.7367 0.4346
C13 C 0.9994(4) 0.78844(19) 0.3667(2)
H12 H 1.0020 0.7610 0.3376
H13 H 1.0776 0.8099 0.3737
H14 H 0.9272 0.8128 0.3540
C14 C 0.9801(5) 0.8017(2) 0.4670(2)
H15 H 0.9097 0.8269 0.4537
H16 H 1.0593 0.8224 0.4757
H17 H 0.9677 0.7830 0.5009
C15 C 0.7902(4) 0.56886(16) 0.40630(17)
H18 H 0.8712 0.5589 0.3955
C16 C 0.8016(4) 0.55092(18) 0.46761(18)
H19 H 0.8760 0.5681 0.4913
H20 H 0.8100 0.5110 0.4702
H21 H 0.7258 0.5622 0.4805
C17 C 0.6859(4) 0.53637(19) 0.3685(2)
H22 H 0.6067 0.5415 0.3810
H23 H 0.7083 0.4974 0.3704
H24 H 0.6756 0.5492 0.3296
C18 C 1.2987(3) 0.71623(15) 0.38462(14)
H25 H 1.2319 0.7108 0.4055
H26 H 1.3511 0.7475 0.4004
H27 H 1.3512 0.6833 0.3876
C19 C 1.2400(3) 0.72731(15) 0.32339(14)
C20 C 1.2857(3) 0.76957(15) 0.29638(15)
H28 H 1.3502 0.7909 0.3192
C21 C 1.2505(3) 0.78594(15) 0.23919(15)
C22 C 1.3208(4) 0.83484(17) 0.22362(17)
H29 H 1.2992 0.8400 0.1828
H30 H 1.4119 0.8287 0.2358
H31 H 1.2971 0.8676 0.2422
C23 C 1.1392(3) 0.77812(14) 0.14393(14)
C24 C 1.2006(4) 0.75107(17) 0.10677(16)
C25 C 1.1699(4) 0.76542(19) 0.05017(17)
H32 H 1.2118 0.7478 0.0246
C26 C 1.0805(4) 0.80447(18) 0.03041(17)
H33 H 1.0609 0.8138 -0.0084
C27 C 1.0196(4) 0.82994(16) 0.06713(16)
H34 H 0.9569 0.8566 0.0533
C28 C 1.0476(4) 0.81760(15) 0.12458(15)
C29 C 1.3007(5) 0.7077(2) 0.12672(19)
H35 H 1.3008 0.7000 0.1671
C30 C 1.4327(5) 0.7295(3) 0.1245(3)
H36 H 1.4962 0.7016 0.1390
H37 H 1.4503 0.7626 0.1476
H38 H 1.4357 0.7382 0.0856
C31 C 1.2714(5) 0.6541(2) 0.0951(2)
H39 H 1.1872 0.6415 0.0979
H40 H 1.3343 0.6266 0.1116
H41 H 1.2739 0.6597 0.0555
C32 C 0.9807(5) 0.8484(2) 0.16345(18)
H42 H 1.0085 0.8329 0.2021
C33 C 1.0164(6) 0.9094(3) 0.1655(3)
H43 H 1.1083 0.9131 0.1768
H44 H 0.9768 0.9283 0.1927
H45 H 0.9868 0.9257 0.1282
C34 C 0.8384(5) 0.8434(2) 0.1461(2)
H46 H 0.8087 0.8614 0.1098
H47 H 0.7998 0.8609 0.1745
H48 H 0.8148 0.8046 0.1430
C35 C 1.0325(4) 0.46948(15) 0.37658(14)
H49 H 1.1137 0.4886 0.3837
H50 H 1.0467 0.4304 0.3846
H51 H 0.9797 0.4846 0.4009
C36 C 0.9666(3) 0.47691(15) 0.31563(14)
C37 C 0.9255(3) 0.43071(14) 0.28469(14)
H52 H 0.9376 0.3973 0.3051
C38 C 0.8676(3) 0.42561(14) 0.22670(15)
C39 C 0.8312(4) 0.36778(14) 0.20756(15)
H53 H 0.7466 0.3678 0.1832
H54 H 0.8315 0.3446 0.2404
H55 H 0.8919 0.3535 0.1867
C40 C 0.7882(3) 0.45565(14) 0.13388(14)
C41 C 0.8602(4) 0.44109(15) 0.09455(15)
C42 C 0.7990(4) 0.43446(16) 0.03869(16)
H56 H 0.8467 0.4248 0.0117
C43 C 0.6707(4) 0.44161(16) 0.02166(16)
H57 H 0.6304 0.4362 -0.0166
C44 C 0.6012(4) 0.45654(15) 0.06007(17)
H58 H 0.5128 0.4619 0.0478
C45 C 0.6566(4) 0.46404(15) 0.11631(15)
C46 C 1.0037(4) 0.43375(17) 0.11221(16)
H59 H 1.0263 0.4322 0.1542
C47 C 1.0730(4) 0.48248(18) 0.09382(19)
H60 H 1.0538 0.4846 0.0527
H61 H 1.1641 0.4779 0.1076
H62 H 1.0454 0.5162 0.1093
C48 C 1.0480(4) 0.38028(18) 0.09014(18)
H63 H 0.9987 0.3497 0.1002
H64 H 1.1376 0.3746 0.1069
H65 H 1.0360 0.3823 0.0492
C49 C 0.5775(4) 0.48121(17) 0.15811(17)
H66 H 0.6364 0.4942 0.1930
C50 C 0.4869(4) 0.52771(18) 0.13613(18)
H67 H 0.5325 0.5568 0.1211
H68 H 0.4514 0.5423 0.1669
H69 H 0.4185 0.5140 0.1063
C51 C 0.5022(6) 0.4340(2) 0.1739(3)
H70 H 0.4450 0.4200 0.1402
H71 H 0.4529 0.4467 0.2008
H72 H 0.5598 0.4049 0.1911
C52 C 1.2322(3) 0.56587(15) 0.23493(15)
H73 H 1.2349 0.5653 0.1942
C53 C 1.3459(3) 0.59736(18) 0.26630(16)
H74 H 1.3431 0.6348 0.2517
H75 H 1.4232 0.5794 0.2610
H76 H 1.3450 0.5983 0.3064
C54 C 1.2335(4) 0.50729(17) 0.25536(18)
H77 H 1.2402 0.5070 0.2961
H78 H 1.3059 0.4880 0.2464
H79 H 1.1553 0.4890 0.2368
C55 C 0.7863(3) 0.66753(16) 0.25582(16)
C56 C 0.7794(6) 0.7222(2) 0.2265(2)
C57 C 0.6782(5) 0.6309(3) 0.2279(2)
C58 C 0.8863(4) 0.62937(16) 0.07905(14)
H80 H 0.9535 0.6162 0.0599
C59 C 0.8601(5) 0.68840(17) 0.06263(17)
H81 H 0.7930 0.7024 0.0801
H82 H 0.8332 0.6911 0.0217
H83 H 0.9369 0.7101 0.0754
C60 C 0.7714(4) 0.59444(17) 0.05874(17)
H84 H 0.7930 0.5559 0.0670
H85 H 0.7417 0.5992 0.0181
H86 H 0.7047 0.6054 0.0779
Ca1 Ca 1.06287(6) 0.61190(3) 0.32934(3)
Ca2 Ca 1.04782(6) 0.67727(3) 0.20724(3)
Ca3 Ca 0.91612(7) 0.56106(3) 0.20505(3)
N1 N 1.0066(2) 0.63799(11) 0.41954(11)
N2 N 1.1641(3) 0.76048(11) 0.20139(11)
N3 N 0.8479(3) 0.46651(11) 0.19107(11)
O1 O 1.2263(2) 0.58099(10) 0.39244(9)
O2 O 1.1487(2) 0.69475(9) 0.30048(9)
O3 O 0.9553(2) 0.52661(9) 0.29700(9)
O4 O 1.1179(2) 0.59198(9) 0.24057(9)
O5 O 0.90246(19) 0.64133(8) 0.25506(8)
O6 O 0.9325(2) 0.62356(9) 0.13724(9)
H87 H 0.670(3) 0.6273(14) 0.1858(16)
H88 H 0.843(5) 0.746(2) 0.241(2)
H89 H 0.779(3) 0.6748(13) 0.2949(15)
H90 H 0.598(5) 0.6499(18) 0.2304(19)
H91 H 0.712(4) 0.7421(19) 0.2306(18)
H92 H 0.777(4) 0.7137(17) 0.183(2)
H93 H 0.682(4) 0.5977(19) 0.2512(19)
loop_
_geom_bond_atom_site_label_1
_geom_bond_atom_site_label_2
_geom_bond_site_symmetry_1
_geom_bond_site_symmetry_2
C1 H1 1_555 1_555
H2 C1 1_555 1_555
H3 C1 1_555 1_555
C2 C1 1_555 1_555
C3 C2 1_555 1_555
H4 C3 1_555 1_555
C4 C3 1_555 1_555
C5 C4 1_555 1_555
H5 C5 1_555 1_555
H6 C5 1_555 1_555
H7 C5 1_555 1_555
C6 C7 1_555 1_555
C7 C8 1_555 1_555
C8 H8 1_555 1_555
C9 C8 1_555 1_555
H9 C9 1_555 1_555
C10 C9 1_555 1_555
H10 C10 1_555 1_555
C11 C6 1_555 1_555
C12 C7 1_555 1_555
H11 C12 1_555 1_555
C13 C12 1_555 1_555
H12 C13 1_555 1_555
H13 C13 1_555 1_555
H14 C13 1_555 1_555
C14 C12 1_555 1_555
H15 C14 1_555 1_555
H16 C14 1_555 1_555
H17 C14 1_555 1_555
C15 C11 1_555 1_555
H18 C15 1_555 1_555
C16 C15 1_555 1_555
H19 C16 1_555 1_555
H20 C16 1_555 1_555
H21 C16 1_555 1_555
C17 C15 1_555 1_555
H22 C17 1_555 1_555
H23 C17 1_555 1_555
H24 C17 1_555 1_555
C18 H25 1_555 1_555
H26 C18 1_555 1_555
H27 C18 1_555 1_555
C19 C18 1_555 1_555
C20 C19 1_555 1_555
H28 C20 1_555 1_555
C21 C20 1_555 1_555
C22 C21 1_555 1_555
H29 C22 1_555 1_555
H30 C22 1_555 1_555
H31 C22 1_555 1_555
C23 C24 1_555 1_555
C24 C25 1_555 1_555
C25 H32 1_555 1_555
C26 C25 1_555 1_555
H33 C26 1_555 1_555
C27 C26 1_555 1_555
H34 C27 1_555 1_555
C28 C23 1_555 1_555
C29 C24 1_555 1_555
H35 C29 1_555 1_555
C30 C29 1_555 1_555
H36 C30 1_555 1_555
H37 C30 1_555 1_555
H38 C30 1_555 1_555
C31 C29 1_555 1_555
H39 C31 1_555 1_555
H40 C31 1_555 1_555
H41 C31 1_555 1_555
C32 C28 1_555 1_555
H42 C32 1_555 1_555
C33 C32 1_555 1_555
H43 C33 1_555 1_555
H44 C33 1_555 1_555
H45 C33 1_555 1_555
C34 C32 1_555 1_555
H46 C34 1_555 1_555
H47 C34 1_555 1_555
H48 C34 1_555 1_555
C35 H49 1_555 1_555
H50 C35 1_555 1_555
H51 C35 1_555 1_555
C36 C35 1_555 1_555
C37 C36 1_555 1_555
H52 C37 1_555 1_555
C38 C37 1_555 1_555
C39 C38 1_555 1_555
H53 C39 1_555 1_555
H54 C39 1_555 1_555
H55 C39 1_555 1_555
C40 C41 1_555 1_555
C41 C42 1_555 1_555
C42 H56 1_555 1_555
C43 C42 1_555 1_555
H57 C43 1_555 1_555
C44 C43 1_555 1_555
H58 C44 1_555 1_555
C45 C40 1_555 1_555
C46 C41 1_555 1_555
H59 C46 1_555 1_555
C47 C46 1_555 1_555
H60 C47 1_555 1_555
H61 C47 1_555 1_555
H62 C47 1_555 1_555
C48 C46 1_555 1_555
H63 C48 1_555 1_555
H64 C48 1_555 1_555
H65 C48 1_555 1_555
C49 C45 1_555 1_555
H66 C49 1_555 1_555
C50 C49 1_555 1_555
H67 C50 1_555 1_555
H68 C50 1_555 1_555
H69 C50 1_555 1_555
C51 C49 1_555 1_555
H70 C51 1_555 1_555
H71 C51 1_555 1_555
H72 C51 1_555 1_555
C52 H73 1_555 1_555
C53 C52 1_555 1_555
H74 C53 1_555 1_555
H75 C53 1_555 1_555
H76 C53 1_555 1_555
C54 C52 1_555 1_555
H77 C54 1_555 1_555
H78 C54 1_555 1_555
H79 C54 1_555 1_555
C55 C56 1_555 1_555
C56 H88 1_555 1_555
C57 C55 1_555 1_555
C58 H80 1_555 1_555
C59 C58 1_555 1_555
H81 C59 1_555 1_555
H82 C59 1_555 1_555
H83 C59 1_555 1_555
C60 C58 1_555 1_555
H84 C60 1_555 1_555
H85 C60 1_555 1_555
H86 C60 1_555 1_555
Ca1 N1 1_555 1_555
Ca2 N2 1_555 1_555
Ca3 N3 1_555 1_555
N1 C4 1_555 1_555
N2 C21 1_555 1_555
N3 C38 1_555 1_555
O1 C2 1_555 1_555
O2 C19 1_555 1_555
O3 C36 1_555 1_555
O4 C52 1_555 1_555
O5 C55 1_555 1_555
O6 C58 1_555 1_555
H87 C57 1_555 1_555
H89 C55 1_555 1_555
H90 C57 1_555 1_555
H91 C56 1_555 1_555
H92 C56 1_555 1_555
H93 C57 1_555 1_555
C6 N1 1_555 1_555
C10 C11 1_555 1_555
C23 N2 1_555 1_555
C27 C28 1_555 1_555
C40 N3 1_555 1_555
C44 C45 1_555 1_555
Ca1 O1 1_555 1_555
Ca1 O2 1_555 1_555
Ca1 O3 1_555 1_555
Ca1 O4 1_555 1_555
Ca1 O5 1_555 1_555
Ca2 O2 1_555 1_555
Ca2 O4 1_555 1_555
Ca2 O5 1_555 1_555
Ca2 O6 1_555 1_555
Ca3 O3 1_555 1_555
Ca3 O4 1_555 1_555
Ca3 O5 1_555 1_555
Ca3 O6 1_555 1_555

#END
