
#######################################################################
#
#                 Cambridge Crystallographic Data Centre
#                                CCDC 
#
#######################################################################
#
# If this CIF has been generated from an entry in the Cambridge 
# Structural Database, then it will include bibliographic, chemical, 
# crystal, experimental, refinement or atomic coordinate data resulting 
# from the CCDC's data processing and validation procedures.
#
#######################################################################

data_LUMFIK
_chemical_formula_moiety         '2(C21 H24 N2 O2),C8 H6 O4'
_chemical_name_systematic        
'terephthalic acid bis(methyl eburnamenine-14-carboxylate)'
_symmetry_cell_setting           triclinic
_symmetry_space_group_name_H-M   'P 1'
_symmetry_Int_Tables_number      1
_space_group_name_Hall           'P 1'
loop_
_symmetry_equiv_pos_site_id
_symmetry_equiv_pos_as_xyz
1 x,y,z
_cell_length_a                   7.2450(14)
_cell_length_b                   11.289(2)
_cell_length_c                   14.240(3)
_cell_angle_alpha                80.07(3)
_cell_angle_beta                 78.00(3)
_cell_angle_gamma                71.85(3)
_cell_volume                     1075.25
_exptl_crystal_colour            white
_exptl_crystal_description       block
_cell_formula_units_Z            1
loop_
_atom_site_label
_atom_site_type_symbol
_atom_site_fract_x
_atom_site_fract_y
_atom_site_fract_z
O1 O 0.2472(9) 0.5521(4) 0.0377(3)
H1 H 0.2853 0.4759 0.0357
O2 O 0.1027(9) 0.4974(4) 0.1857(4)
O3 O -0.2545(10) 1.1318(4) 0.2529(3)
H2 H -0.2809 1.2071 0.2569
O4 O -0.0956(10) 1.1853(5) 0.1080(4)
C1 C 0.1363(9) 0.5766(6) 0.1217(4)
C2 C -0.0372(10) 0.7519(5) 0.2222(4)
H3 H -0.0592 0.6919 0.2734
C3 C -0.0717(9) 0.9691(5) 0.1597(4)
C4 C -0.1051(9) 0.8783(5) 0.2359(4)
H4 H -0.1728 0.9023 0.2958
C5 C 0.0953(10) 0.8045(6) 0.0581(4)
H5 H 0.1643 0.7801 -0.0015
C6 C 0.0631(9) 0.7144(6) 0.1332(4)
C7 C 0.0267(10) 0.9305(6) 0.0702(4)
H6 H 0.0463 0.9901 0.0182
C8 C -0.1391(9) 1.1055(6) 0.1716(5)
N1 N 0.6332(7) 0.3636(4) 0.2909(3)
N2 N 0.2126(7) 0.5872(4) 0.4247(3)
C9 C 0.3601(8) 0.5331(5) 0.3515(4)
O5 O -0.1908(7) 0.6546(4) 0.4851(3)
C10 C 0.4327(9) 0.6212(5) 0.2934(4)
O6 O -0.1612(7) 0.5161(5) 0.6179(4)
C11 C 0.3343(9) 0.7376(5) 0.3321(4)
C12 C 0.4300(8) 0.3948(5) 0.3483(4)
H7 H 0.3440 0.3726 0.3137
C13 C 0.6339(10) 0.4472(6) 0.1970(4)
H8 H 0.5363 0.4377 0.1637
H9 H 0.7617 0.4195 0.1569
C14 C 0.2159(8) 0.3854(5) 0.5081(4)
H10 H 0.1541 0.3350 0.5543
C15 C 0.4143(9) 0.3234(5) 0.4530(4)
C16 C 0.1972(9) 0.7144(5) 0.4159(4)
C17 C -0.0902(9) 0.5588(5) 0.5412(4)
C18 C 0.0896(10) 0.8081(5) 0.4737(5)
H11 H 0.0050 0.7912 0.5297
C19 C 0.5799(9) 0.3359(6) 0.5020(4)
H12 H 0.5550 0.4230 0.5114
H13 H 0.5787 0.2866 0.5649
C20 C 0.1207(9) 0.5101(5) 0.4951(4)
C21 C 0.7875(9) 0.3713(6) 0.3419(5)
H14 H 0.7671 0.4579 0.3510
H15 H 0.9161 0.3420 0.3030
C22 C 0.3537(11) 0.8587(5) 0.3051(5)
H16 H 0.4414 0.8755 0.2503
C23 C 0.5910(10) 0.5866(6) 0.2071(4)
H17 H 0.7100 0.6032 0.2153
H18 H 0.5480 0.6372 0.1490
C24 C 0.2412(12) 0.9531(6) 0.3605(6)
H19 H 0.2501 1.0345 0.3419
C25 C 0.4611(14) 0.0967(6) 0.5398(6)
H20 H 0.5934 0.0817 0.5504
H21 H 0.4407 0.0187 0.5329
H22 H 0.3701 0.1326 0.5938
C26 C 0.7805(10) 0.2911(6) 0.4402(5)
H23 H 0.8060 0.2039 0.4310
H24 H 0.8819 0.2968 0.4728
C27 C 0.4281(11) 0.1859(5) 0.4491(5)
H25 H 0.3073 0.1838 0.4311
H26 H 0.5347 0.1544 0.3978
C28 C 0.1113(13) 0.9267(6) 0.4463(6)
H27 H 0.0402 0.9906 0.4843
C29 C -0.3951(11) 0.7098(8) 0.5239(6)
H28 H -0.4746 0.6648 0.5077
H29 H -0.4360 0.7960 0.4969
H30 H -0.4103 0.7052 0.5929
N3 N 0.3591(8) 0.3246(4) 0.9924(4)
N4 N 0.2672(7) 0.1072(4) 0.8543(3)
C30 C 0.3045(8) 0.1577(5) 0.9279(4)
C31 C 0.2336(9) 0.2973(5) 0.9338(4)
H31 H 0.0982 0.3177 0.9689
C32 C 0.1350(8) 0.3106(5) 0.7742(4)
H32 H 0.0593 0.3622 0.7294
C33 C 0.4465(10) 0.3608(6) 0.7815(5)
H33 H 0.5139 0.2748 0.7691
H34 H 0.4458 0.4133 0.7199
C34 C 0.0299(9) 0.1414(6) 0.7375(4)
C35 C 0.3727(9) -0.0197(5) 0.8615(4)
C36 C 0.4658(9) -0.0469(5) 0.9428(4)
O7 O -0.0207(7) 0.0438(4) 0.7922(3)
C37 C 0.1539(8) 0.1889(5) 0.7851(4)
O8 O -0.0218(9) 0.1860(5) 0.6626(4)
C38 C 0.2317(9) 0.3709(5) 0.8317(4)
C39 C 0.4173(9) 0.0694(5) 0.9840(4)
C40 C 0.3677(12) 0.2361(6) 1.0850(4)
H35 H 0.2343 0.2423 1.1181
H36 H 0.4339 0.2629 1.1265
C41 C 0.5565(10) 0.4018(6) 0.8442(5)
H37 H 0.6895 0.3966 0.8110
H38 H 0.4908 0.4883 0.8557
C42 C 0.4022(10) -0.1118(5) 0.8002(5)
H39 H 0.3460 -0.0938 0.7445
C43 C 0.6085(11) -0.2592(6) 0.9089(5)
H40 H 0.6863 -0.3403 0.9246
C44 C 0.1051(11) 0.5070(5) 0.8414(5)
H41 H 0.1436 0.5370 0.8921
H42 H -0.0314 0.5073 0.8619
C45 C 0.5631(10) 0.3192(6) 0.9390(5)
H43 H 0.6340 0.2333 0.9274
H44 H 0.6335 0.3461 0.9784
C46 C 0.4739(12) 0.0983(6) 1.0707(5)
H45 H 0.6153 0.0839 1.0613
H46 H 0.4366 0.0441 1.1274
C47 C -0.1384(13) -0.0087(8) 0.7510(7)
H47 H -0.2586 0.0544 0.7402
H48 H -0.1683 -0.0777 0.7947
H49 H -0.0669 -0.0380 0.6907
C48 C 0.5822(10) -0.1681(5) 0.9663(5)
H50 H 0.6418 -0.1870 1.0210
C49 C 0.5198(12) -0.2313(6) 0.8276(6)
H51 H 0.5395 -0.2948 0.7897
C50 C 0.1189(16) 0.6010(7) 0.7480(6)
H52 H 0.2445 0.6175 0.7357
H53 H 0.0160 0.6780 0.7565
H54 H 0.1048 0.5653 0.6943
loop_
_geom_bond_atom_site_label_1
_geom_bond_atom_site_label_2
_geom_bond_site_symmetry_1
_geom_bond_site_symmetry_2
O1 H1 1_555 1_555
O2 C1 1_555 1_555
O3 H2 1_555 1_555
O4 C8 1_555 1_555
C1 O1 1_555 1_555
C2 H3 1_555 1_555
C3 C4 1_555 1_555
C4 C2 1_555 1_555
H4 C4 1_555 1_555
C5 H5 1_555 1_555
C6 C1 1_555 1_555
C7 C3 1_555 1_555
H6 C7 1_555 1_555
C8 O3 1_555 1_555
N1 C12 1_555 1_555
N2 C9 1_555 1_555
C9 C10 1_555 1_555
O5 C17 1_555 1_555
C10 C11 1_555 1_555
O6 C17 1_555 1_555
C11 C16 1_555 1_555
C12 C9 1_555 1_555
H7 C12 1_555 1_555
C13 N1 1_555 1_555
H8 C13 1_555 1_555
H9 C13 1_555 1_555
C14 H10 1_555 1_555
C15 C12 1_555 1_555
C16 N2 1_555 1_555
C17 C20 1_555 1_555
C18 C16 1_555 1_555
H11 C18 1_555 1_555
C19 C15 1_555 1_555
H12 C19 1_555 1_555
H13 C19 1_555 1_555
C20 N2 1_555 1_555
C21 N1 1_555 1_555
H14 C21 1_555 1_555
H15 C21 1_555 1_555
C22 C11 1_555 1_555
H16 C22 1_555 1_555
C23 C10 1_555 1_555
H17 C23 1_555 1_555
H18 C23 1_555 1_555
C24 C22 1_555 1_555
H19 C24 1_555 1_555
C25 H20 1_555 1_555
H21 C25 1_555 1_555
H22 C25 1_555 1_555
C26 C19 1_555 1_555
H23 C26 1_555 1_555
H24 C26 1_555 1_555
C27 C15 1_555 1_555
H25 C27 1_555 1_555
H26 C27 1_555 1_555
C28 C18 1_555 1_555
H27 C28 1_555 1_555
C29 O5 1_555 1_555
H28 C29 1_555 1_555
H29 C29 1_555 1_555
H30 C29 1_555 1_555
N3 C31 1_555 1_555
N4 C30 1_555 1_555
C30 C31 1_555 1_555
C31 H31 1_555 1_555
C32 H32 1_555 1_555
C33 H33 1_555 1_555
H34 C33 1_555 1_555
C34 O7 1_555 1_555
C35 N4 1_555 1_555
C36 C35 1_555 1_555
O7 C47 1_555 1_555
C37 N4 1_555 1_555
O8 C34 1_555 1_555
C38 C31 1_555 1_555
C39 C30 1_555 1_555
C40 N3 1_555 1_555
H35 C40 1_555 1_555
H36 C40 1_555 1_555
C41 C33 1_555 1_555
H37 C41 1_555 1_555
H38 C41 1_555 1_555
C42 C35 1_555 1_555
H39 C42 1_555 1_555
C43 H40 1_555 1_555
C44 C38 1_555 1_555
H41 C44 1_555 1_555
H42 C44 1_555 1_555
C45 N3 1_555 1_555
H43 C45 1_555 1_555
H44 C45 1_555 1_555
C46 C39 1_555 1_555
H45 C46 1_555 1_555
H46 C46 1_555 1_555
C47 H47 1_555 1_555
H48 C47 1_555 1_555
H49 C47 1_555 1_555
C48 C36 1_555 1_555
H50 C48 1_555 1_555
C49 C42 1_555 1_555
H51 C49 1_555 1_555
C50 C44 1_555 1_555
H52 C50 1_555 1_555
H53 C50 1_555 1_555
H54 C50 1_555 1_555
C2 C6 1_555 1_555
C3 C8 1_555 1_555
C5 C6 1_555 1_555
C5 C7 1_555 1_555
C13 C23 1_555 1_555
C14 C15 1_555 1_555
C14 C20 1_555 1_555
C21 C26 1_555 1_555
C24 C28 1_555 1_555
C25 C27 1_555 1_555
C32 C37 1_555 1_555
C32 C38 1_555 1_555
C33 C38 1_555 1_555
C34 C37 1_555 1_555
C36 C39 1_555 1_555
C40 C46 1_555 1_555
C41 C45 1_555 1_555
C43 C48 1_555 1_555
C43 C49 1_555 1_555

#END
