
#######################################################################
#
#                 Cambridge Crystallographic Data Centre
#                                CCDC 
#
#######################################################################
#
# If this CIF has been generated from an entry in the Cambridge 
# Structural Database, then it will include bibliographic, chemical, 
# crystal, experimental, refinement or atomic coordinate data resulting 
# from the CCDC's data processing and validation procedures.
#
#######################################################################

data_LUMJOU
_chemical_formula_moiety         'C7 H3 N2 O7 1-,H5 N2 1+'
_chemical_name_systematic        'hydrazinium 2-carboxy-4,6-dinitrophenolate'
_symmetry_cell_setting           monoclinic
_symmetry_space_group_name_H-M   'P 21/c'
_symmetry_Int_Tables_number      14
_space_group_name_Hall           '-P 2ybc'
loop_
_symmetry_equiv_pos_site_id
_symmetry_equiv_pos_as_xyz
1 x,y,z
2 -x,1/2+y,1/2-z
3 -x,-y,-z
4 x,1/2-y,1/2+z
_cell_length_a                   11.281(3)
_cell_length_b                   3.6982(8)
_cell_length_c                   23.970(5)
_cell_angle_alpha                90
_cell_angle_beta                 90.427(4)
_cell_angle_gamma                90
_cell_volume                     999.986
_exptl_crystal_colour            yellow
_exptl_crystal_description       strip
_cell_formula_units_Z            4
loop_
_atom_site_label
_atom_site_type_symbol
_atom_site_fract_x
_atom_site_fract_y
_atom_site_fract_z
O1 O 0.12904(19) 0.5136(7) 1.00804(8)
H1 H 0.0950 0.4117 0.9821
O2 O 0.08259(18) 0.2550(6) 0.91591(8)
C1 C 0.1870(3) 0.3322(8) 0.89846(12)
C2 C 0.3846(3) 0.5879(7) 0.91756(12)
H2 H 0.4380 0.6978 0.9420
N1 N 0.5372(2) 0.5880(7) 0.84578(11)
C3 C 0.3413(3) 0.3464(7) 0.82611(12)
H3 H 0.3652 0.2984 0.7898
O3 O 0.2987(2) 0.7903(6) 1.02288(9)
C4 C 0.2714(2) 0.5082(7) 0.93480(11)
C5 C 0.2277(2) 0.2613(8) 0.84326(11)
N2 N 0.1502(2) 0.1002(7) 0.80156(10)
C6 C 0.4185(2) 0.5040(8) 0.86393(12)
O4 O 0.0643(2) -0.0742(6) 0.81649(10)
C7 C 0.2355(3) 0.6151(8) 0.99207(12)
O5 O 0.5707(2) 0.4698(8) 0.80071(10)
O6 O 0.5993(2) 0.7758(7) 0.87631(11)
O7 O 0.1752(2) 0.1411(8) 0.75251(9)
N3 N 0.1729(3) 0.7183(7) 0.65130(11)
N4 N 0.1419(2) 0.4538(6) 0.60965(10)
H4 H 0.1887 0.4802 0.5802
H5 H 0.0667 0.4848 0.5992
H6 H 0.1511 0.2329 0.6238
H7 H 0.254(4) 0.666(10) 0.6610(14)
H8 H 0.128(4) 0.664(10) 0.6828(17)
loop_
_geom_bond_atom_site_label_1
_geom_bond_atom_site_label_2
_geom_bond_site_symmetry_1
_geom_bond_site_symmetry_2
O1 H1 1_555 1_555
O2 C1 1_555 1_555
C1 C4 1_555 1_555
C2 H2 1_555 1_555
N1 C6 1_555 1_555
C3 H3 1_555 1_555
O3 C7 1_555 1_555
C4 C2 1_555 1_555
C5 C1 1_555 1_555
N2 C5 1_555 1_555
C6 C2 1_555 1_555
O4 N2 1_555 1_555
C7 O1 1_555 1_555
O5 N1 1_555 1_555
O6 N1 1_555 1_555
O7 N2 1_555 1_555
N3 N4 1_555 1_555
N4 H4 1_555 1_555
H5 N4 1_555 1_555
H6 N4 1_555 1_555
H7 N3 1_555 1_555
H8 N3 1_555 1_555
C3 C5 1_555 1_555
C3 C6 1_555 1_555
C4 C7 1_555 1_555

#END
