
#######################################################################
#
#                 Cambridge Crystallographic Data Centre
#                                CCDC 
#
#######################################################################
#
# If this CIF has been generated from an entry in the Cambridge 
# Structural Database, then it will include bibliographic, chemical, 
# crystal, experimental, refinement or atomic coordinate data resulting 
# from the CCDC's data processing and validation procedures.
#
#######################################################################

data_LUMKIP
_chemical_name_common            
'1,4-dihydro-5H-tetrazol-5-iminium 2-hydroxy-3,5-dinitrobenzoate'
_chemical_formula_moiety         'C7 H3 N2 O7 1-,C1 H4 N5 1+'
_chemical_name_systematic        
'1,4-dihydro-5H-tetrazol-5-iminium 3,5-dinitrosalicylate'
_symmetry_cell_setting           orthorhombic
_symmetry_space_group_name_H-M   'P n m a'
_symmetry_Int_Tables_number      62
_space_group_name_Hall           '-P 2ac 2n'
loop_
_symmetry_equiv_pos_site_id
_symmetry_equiv_pos_as_xyz
1 x,y,z
2 1/2-x,-y,1/2+z
3 1/2+x,1/2-y,1/2-z
4 -x,1/2+y,-z
5 -x,-y,-z
6 1/2+x,y,1/2-z
7 1/2-x,1/2+y,1/2+z
8 x,1/2-y,z
_cell_length_a                   17.169(3)
_cell_length_b                   6.3306(11)
_cell_length_c                   11.1443(19)
_cell_angle_alpha                90
_cell_angle_beta                 90
_cell_angle_gamma                90
_cell_volume                     1211.27
_exptl_crystal_colour            yellow
_exptl_crystal_description       bulk
_cell_formula_units_Z            4
loop_
_atom_site_label
_atom_site_type_symbol
_atom_site_fract_x
_atom_site_fract_y
_atom_site_fract_z
O1 O 0.91682(12) 0.2500 0.59370(16)
C1 C 0.88913(18) 0.2500 0.4873(2)
N1 N 1.16004(15) 0.2500 0.3221(3)
N2 N 0.93607(16) 0.2500 0.0535(2)
C2 C 1.02570(15) 0.2500 0.4073(2)
O2 O 1.05124(12) 0.2500 0.51898(17)
C3 C 0.94483(15) 0.2500 0.3855(2)
O3 O 0.97833(14) 0.2500 -0.03081(19)
C4 C 0.96772(16) 0.2500 0.1751(2)
O4 O 0.86560(14) 0.2500 0.04354(19)
C5 C 1.04720(16) 0.2500 0.1910(3)
H1 H 1.0809 0.2500 0.1256
O5 O 1.20018(13) 0.2500 0.2344(2)
C6 C 1.07547(15) 0.2500 0.3072(3)
O6 O 1.18821(13) 0.2500 0.4206(2)
C7 C 0.91673(16) 0.2500 0.2696(2)
H2 H 0.8633 0.2500 0.2556
O7 O 0.81850(13) 0.2500 0.46440(19)
H3 H 0.995(3) 0.2500 0.566(4)
N3 N 0.72276(15) 0.2500 0.6409(2)
C8 C 0.74126(17) 0.2500 0.7554(3)
N4 N 0.61405(15) 0.2500 0.7319(3)
N5 N 0.64450(15) 0.2500 0.6284(2)
N6 N 0.67368(17) 0.2500 0.8128(2)
N7 N 0.81179(15) 0.2500 0.8007(3)
H4 H 0.8516 0.2500 0.7539
H5 H 0.8182 0.2500 0.8773
H6 H 0.665(2) 0.2500 0.890(4)
H7 H 0.758(2) 0.2500 0.573(4)
loop_
_geom_bond_atom_site_label_1
_geom_bond_atom_site_label_2
_geom_bond_site_symmetry_1
_geom_bond_site_symmetry_2
O1 C1 1_555 1_555
C1 C3 1_555 1_555
N1 O5 1_555 1_555
N2 O3 1_555 1_555
C2 O2 1_555 1_555
O2 H3 1_555 1_555
C3 C2 1_555 1_555
C4 N2 1_555 1_555
O4 N2 1_555 1_555
C5 C4 1_555 1_555
H1 C5 1_555 1_555
C6 N1 1_555 1_555
O6 N1 1_555 1_555
C7 C3 1_555 1_555
H2 C7 1_555 1_555
O7 C1 1_555 1_555
N3 C8 1_555 1_555
C8 N6 1_555 1_555
N4 N5 1_555 1_555
N5 N3 1_555 1_555
N6 N4 1_555 1_555
N7 C8 1_555 1_555
H4 N7 1_555 1_555
H5 N7 1_555 1_555
H6 N6 1_555 1_555
H7 N3 1_555 1_555
C2 C6 1_555 1_555
C4 C7 1_555 1_555
C5 C6 1_555 1_555

#END
