
#######################################################################
#
#                 Cambridge Crystallographic Data Centre
#                                CCDC 
#
#######################################################################
#
# If this CIF has been generated from an entry in the Cambridge 
# Structural Database, then it will include bibliographic, chemical, 
# crystal, experimental, refinement or atomic coordinate data resulting 
# from the CCDC's data processing and validation procedures.
#
#######################################################################

data_LUMVUK
_chemical_formula_moiety         'C44 H34 N2 O4'
_chemical_name_systematic        
25,27-bis((2-Cyanophenyl)methoxy)calix(4)arene
_symmetry_cell_setting           rhombohedral
_symmetry_space_group_name_H-M   'R -3'
_symmetry_Int_Tables_number      148
_space_group_name_Hall           '-R 3'
loop_
_symmetry_equiv_pos_site_id
_symmetry_equiv_pos_as_xyz
1 x,y,z
2 -y,x-y,z
3 -x+y,-x,z
4 2/3+x,1/3+y,1/3+z
5 2/3-y,1/3+x-y,1/3+z
6 2/3-x+y,1/3-x,1/3+z
7 1/3+x,2/3+y,2/3+z
8 2/3+y,1/3-x+y,1/3-z
9 2/3+x-y,1/3+x,1/3-z
10 -x,-y,-z
11 y,-x+y,-z
12 x-y,x,-z
13 1/3-x,2/3-y,2/3-z
14 1/3+y,2/3-x+y,2/3-z
15 1/3+x-y,2/3+x,2/3-z
16 2/3-x,1/3-y,1/3-z
17 1/3-y,2/3+x-y,2/3+z
18 1/3-x+y,2/3-x,2/3+z
_cell_length_a                   35.993(8)
_cell_length_b                   35.993(8)
_cell_length_c                   13.842(3)
_cell_angle_alpha                90
_cell_angle_beta                 90
_cell_angle_gamma                120.00
_cell_volume                     15529.8
_exptl_crystal_colour            colorless
_exptl_crystal_description       needle
_chemical_melting_point          'above 300deg.C'
_cell_formula_units_Z            18
_exptl_crystal_recrystallization_method acetone
loop_
_atom_site_label
_atom_site_type_symbol
_atom_site_fract_x
_atom_site_fract_y
_atom_site_fract_z
O1 O 0.83995(12) 0.07052(13) -0.1208(2)
H1 H 0.8566 0.0865 -0.0794
O2 O 0.93248(12) 0.14197(12) -0.1971(2)
H2 H 0.9161 0.1253 -0.2379
O3 O 0.87296(12) 0.07265(12) -0.3075(2)
O4 O 0.91062(12) 0.12286(12) 0.0068(2)
C1 C 0.95243(17) 0.18235(19) -0.2332(4)
C2 C 0.95297(18) 0.1897(2) -0.3334(4)
C3 C 0.9744(2) 0.2307(2) -0.3661(5)
H3 H 0.9750 0.2360 -0.4320
C4 C 0.9954(2) 0.2646(2) -0.3036(6)
H4 H 1.0099 0.2925 -0.3272
C5 C 0.99500(18) 0.2572(2) -0.2066(5)
H5 H 1.0091 0.2804 -0.1648
C6 C 0.97413(17) 0.2163(2) -0.1693(4)
C7 C 0.97245(18) 0.20754(19) -0.0613(4)
H6 H 0.9778 0.1840 -0.0503
H7 H 0.9949 0.2327 -0.0291
C8 C 0.92986(19) 0.1965(2) -0.0188(4)
C9 C 0.9180(2) 0.2275(2) -0.0112(4)
H8 H 0.9377 0.2556 -0.0281
C10 C 0.8782(2) 0.2181(2) 0.0203(4)
H9 H 0.8712 0.2396 0.0258
C11 C 0.84867(19) 0.1763(2) 0.0437(4)
H10 H 0.8214 0.1699 0.0637
C12 C 0.85843(19) 0.14372(18) 0.0384(3)
C13 C 0.89976(19) 0.15551(19) 0.0108(3)
C14 C 0.93890(18) 0.1239(2) 0.0829(4)
H11 H 0.9623 0.1531 0.0908
H12 H 0.9510 0.1062 0.0642
C15 C 0.91576(18) 0.1081(2) 0.1778(4)
C16 C 0.9181(2) 0.1373(2) 0.2457(5)
H13 H 0.9340 0.1665 0.2326
C17 C 0.8970(3) 0.1231(3) 0.3333(5)
H14 H 0.8987 0.1427 0.3795
C18 C 0.8738(3) 0.0803(4) 0.3506(6)
H15 H 0.8592 0.0712 0.4091
C19 C 0.8705(2) 0.0496(3) 0.2868(5)
H16 H 0.8553 0.0205 0.3018
C20 C 0.8915(2) 0.0643(2) 0.1979(5)
C21 C 0.8890(2) 0.0340(3) 0.1288(6)
C22 C 0.82328(18) 0.09758(18) 0.0587(4)
H17 H 0.8364 0.0799 0.0678
H18 H 0.8087 0.0969 0.1182
C23 C 0.79119(18) 0.07912(17) -0.0208(4)
C24 C 0.7501(2) 0.0727(2) -0.0085(4)
H19 H 0.7430 0.0810 0.0490
C25 C 0.7192(2) 0.0539(2) -0.0808(5)
H20 H 0.6916 0.0490 -0.0712
C26 C 0.7305(2) 0.0428(2) -0.1668(4)
H21 H 0.7101 0.0308 -0.2156
C27 C 0.77077(19) 0.04889(17) -0.1825(4)
C28 C 0.80069(17) 0.06685(17) -0.1079(4)
C29 C 0.78248(19) 0.0375(2) -0.2796(4)
H22 H 0.7564 0.0183 -0.3143
H23 H 0.7981 0.0224 -0.2685
C30 C 0.80986(19) 0.07719(19) -0.3419(4)
C31 C 0.7924(2) 0.0990(2) -0.3885(4)
H24 H 0.7629 0.0881 -0.3860
C32 C 0.8177(3) 0.1361(2) -0.4380(4)
H25 H 0.8051 0.1500 -0.4689
C33 C 0.8611(2) 0.1530(2) -0.4429(4)
H26 H 0.8778 0.1787 -0.4756
C34 C 0.8808(2) 0.1326(2) -0.4000(4)
C35 C 0.85410(19) 0.0937(2) -0.3524(4)
C36 C 0.92904(19) 0.1515(2) -0.4013(4)
H27 H 0.9393 0.1606 -0.4667
H28 H 0.9356 0.1294 -0.3835
C37 C 0.8751(2) 0.0407(2) -0.3652(4)
H29 H 0.8915 0.0537 -0.4234
H30 H 0.8464 0.0188 -0.3841
C38 C 0.89586(17) 0.02071(18) -0.3087(4)
C39 C 0.90636(18) 0.02998(18) -0.2121(4)
H31 H 0.9005 0.0493 -0.1806
C40 C 0.92554(19) 0.0106(2) -0.1618(5)
H32 H 0.9325 0.0171 -0.0969
C41 C 0.9343(2) -0.0179(2) -0.2069(5)
H33 H 0.9471 -0.0307 -0.1724
C42 C 0.9242(2) -0.0278(2) -0.3043(5)
H34 H 0.9304 -0.0470 -0.3353
C43 C 0.90467(18) -0.00839(18) -0.3543(4)
C44 C 0.89505(19) -0.01721(18) -0.4544(5)
N1 N 0.8861(3) 0.0094(2) 0.0737(5)
N2 N 0.88743(19) -0.02371(18) -0.5350(4)
loop_
_geom_bond_atom_site_label_1
_geom_bond_atom_site_label_2
_geom_bond_site_symmetry_1
_geom_bond_site_symmetry_2
O1 H1 1_555 1_555
O2 H2 1_555 1_555
O3 C35 1_555 1_555
O4 C13 1_555 1_555
C1 O2 1_555 1_555
C2 C1 1_555 1_555
C3 C2 1_555 1_555
H3 C3 1_555 1_555
C4 C3 1_555 1_555
H4 C4 1_555 1_555
C5 C4 1_555 1_555
H5 C5 1_555 1_555
C6 C1 1_555 1_555
C7 C6 1_555 1_555
H6 C7 1_555 1_555
H7 C7 1_555 1_555
C8 C7 1_555 1_555
C9 C8 1_555 1_555
H8 C9 1_555 1_555
C10 C9 1_555 1_555
H9 C10 1_555 1_555
C11 C10 1_555 1_555
H10 C11 1_555 1_555
C12 C11 1_555 1_555
C13 C8 1_555 1_555
C14 O4 1_555 1_555
H11 C14 1_555 1_555
H12 C14 1_555 1_555
C15 C14 1_555 1_555
C16 C15 1_555 1_555
H13 C16 1_555 1_555
C17 C16 1_555 1_555
H14 C17 1_555 1_555
C18 C17 1_555 1_555
H15 C18 1_555 1_555
C19 C18 1_555 1_555
H16 C19 1_555 1_555
C20 C15 1_555 1_555
C21 C20 1_555 1_555
C22 C12 1_555 1_555
H17 C22 1_555 1_555
H18 C22 1_555 1_555
C23 C22 1_555 1_555
C24 C23 1_555 1_555
H19 C24 1_555 1_555
C25 C24 1_555 1_555
H20 C25 1_555 1_555
C26 C25 1_555 1_555
H21 C26 1_555 1_555
C27 C26 1_555 1_555
C28 O1 1_555 1_555
C29 C27 1_555 1_555
H22 C29 1_555 1_555
H23 C29 1_555 1_555
C30 C29 1_555 1_555
C31 C30 1_555 1_555
H24 C31 1_555 1_555
C32 C31 1_555 1_555
H25 C32 1_555 1_555
C33 C32 1_555 1_555
H26 C33 1_555 1_555
C34 C33 1_555 1_555
C35 C30 1_555 1_555
C36 C2 1_555 1_555
H27 C36 1_555 1_555
H28 C36 1_555 1_555
C37 O3 1_555 1_555
H29 C37 1_555 1_555
H30 C37 1_555 1_555
C38 C37 1_555 1_555
C39 C38 1_555 1_555
H31 C39 1_555 1_555
C40 C39 1_555 1_555
H32 C40 1_555 1_555
C41 C40 1_555 1_555
H33 C41 1_555 1_555
C42 C41 1_555 1_555
H34 C42 1_555 1_555
C43 C38 1_555 1_555
C44 C43 1_555 1_555
N1 C21 1_555 1_555
N2 C44 1_555 1_555
C5 C6 1_555 1_555
C12 C13 1_555 1_555
C19 C20 1_555 1_555
C23 C28 1_555 1_555
C27 C28 1_555 1_555
C34 C36 1_555 1_555
C34 C35 1_555 1_555
C42 C43 1_555 1_555

#END
