
#######################################################################
#
#                 Cambridge Crystallographic Data Centre
#                                CCDC 
#
#######################################################################
#
# If this CIF has been generated from an entry in the Cambridge 
# Structural Database, then it will include bibliographic, chemical, 
# crystal, experimental, refinement or atomic coordinate data resulting 
# from the CCDC's data processing and validation procedures.
#
#######################################################################

data_LUMYAV
_chemical_formula_moiety         'C11 H13 N1 O7 S2'
_chemical_name_systematic        
'3-((4-methoxyphenyl)sulfonyl)-1,3-thiazolidine-4-carboxylic acid 1,1-dioxide'
_symmetry_cell_setting           orthorhombic
_symmetry_space_group_name_H-M   'P 21 21 21'
_symmetry_Int_Tables_number      19
_space_group_name_Hall           'P 2ac 2ab'
loop_
_symmetry_equiv_pos_site_id
_symmetry_equiv_pos_as_xyz
1 x,y,z
2 1/2-x,-y,1/2+z
3 1/2+x,1/2-y,-z
4 -x,1/2+y,1/2-z
_cell_length_a                   7.82043(19)
_cell_length_b                   10.2265(3)
_cell_length_c                   17.4910(4)
_cell_angle_alpha                90
_cell_angle_beta                 90
_cell_angle_gamma                90
_cell_volume                     1398.85
_cell_formula_units_Z            4
loop_
_atom_site_label
_atom_site_type_symbol
_atom_site_fract_x
_atom_site_fract_y
_atom_site_fract_z
S1 S -0.14899(10) -0.14127(7) -0.88715(4)
S2 S -0.32929(10) 0.10090(7) -0.73271(5)
O1 O 0.2128(3) -0.0432(2) -0.76608(16)
O2 O -0.2119(3) -0.2673(2) -0.86583(15)
O3 O 0.2320(3) 0.1454(2) -0.82963(15)
H1 H 0.3329 0.1417 -0.8171
N1 N -0.1370(3) -0.0596(2) -0.80564(13)
C1 C 0.1478(4) 0.0462(3) -0.79850(16)
C2 C -0.0453(4) 0.0675(3) -0.80744(18)
H2 H -0.0687 0.1124 -0.8558
O4 O -0.6464(4) 0.1377(2) -1.07817(15)
C3 C -0.4687(4) -0.1059(3) -0.94460(17)
H3 H -0.5015 -0.1767 -0.9146
C4 C -0.8182(5) 0.0924(4) -1.0838(3)
H4 H -0.8790 0.1444 -1.1206
H5 H -0.8729 0.0996 -1.0349
H6 H -0.8185 0.0026 -1.0999
O5 O 0.0142(3) -0.1244(3) -0.92089(15)
O6 O -0.4240(3) 0.1536(2) -0.79610(16)
O7 O -0.3959(4) 0.1177(3) -0.65788(16)
C5 C -0.5889(5) -0.0414(3) -0.98945(18)
H7 H -0.7018 -0.0700 -0.9902
C6 C -0.5405(4) 0.0651(3) -1.03291(17)
C7 C -0.2528(5) 0.0433(4) -0.98854(18)
H8 H -0.1399 0.0719 -0.9877
C8 C -0.3703(5) 0.1076(4) -1.03283(19)
H9 H -0.3373 0.1787 -1.0625
C9 C -0.2803(4) -0.0665(3) -0.75346(18)
H10 H -0.2494 -0.1134 -0.7073
H11 H -0.3770 -0.1099 -0.7772
C10 C -0.3006(4) -0.0646(3) -0.94462(16)
C11 C -0.1118(4) 0.1486(3) -0.7412(2)
H12 H -0.1025 0.2413 -0.7522
H13 H -0.0492 0.1295 -0.6947
loop_
_geom_bond_atom_site_label_1
_geom_bond_atom_site_label_2
_geom_bond_site_symmetry_1
_geom_bond_site_symmetry_2
S1 O2 1_555 1_555
S2 O6 1_555 1_555
O1 C1 1_555 1_555
O3 H1 1_555 1_555
N1 S1 1_555 1_555
C1 O3 1_555 1_555
C2 N1 1_555 1_555
H2 C2 1_555 1_555
O4 C4 1_555 1_555
C3 H3 1_555 1_555
C4 H4 1_555 1_555
H5 C4 1_555 1_555
H6 C4 1_555 1_555
O5 S1 1_555 1_555
O7 S2 1_555 1_555
C5 C3 1_555 1_555
H7 C5 1_555 1_555
C6 O4 1_555 1_555
C7 H8 1_555 1_555
C8 C6 1_555 1_555
H9 C8 1_555 1_555
C9 S2 1_555 1_555
H10 C9 1_555 1_555
H11 C9 1_555 1_555
C10 S1 1_555 1_555
C11 S2 1_555 1_555
H12 C11 1_555 1_555
H13 C11 1_555 1_555
N1 C9 1_555 1_555
C1 C2 1_555 1_555
C2 C11 1_555 1_555
C3 C10 1_555 1_555
C5 C6 1_555 1_555
C7 C8 1_555 1_555
C7 C10 1_555 1_555

#END
