
#######################################################################
#
#                 Cambridge Crystallographic Data Centre
#                                CCDC 
#
#######################################################################
#
# If this CIF has been generated from an entry in the Cambridge 
# Structural Database, then it will include bibliographic, chemical, 
# crystal, experimental, refinement or atomic coordinate data resulting 
# from the CCDC's data processing and validation procedures.
#
#######################################################################

data_LUNFOR
_chemical_formula_moiety         'C32 H41 B11'
_chemical_name_systematic        
1-phenyl-2-(3-(bis(2,4,6-trimethylphenyl)boranyl)phenyl)-1,2-dicarba-closo-dodecaborane(10)
_symmetry_cell_setting           triclinic
_symmetry_space_group_name_H-M   'P -1'
_symmetry_Int_Tables_number      2
_space_group_name_Hall           '-P 1'
loop_
_symmetry_equiv_pos_site_id
_symmetry_equiv_pos_as_xyz
1 x,y,z
2 -x,-y,-z
_cell_length_a                   10.914(2)
_cell_length_b                   11.236(2)
_cell_length_c                   27.191(5)
_cell_angle_alpha                94.359(4)
_cell_angle_beta                 94.151(4)
_cell_angle_gamma                90.688(4)
_cell_volume                     3315.54
_exptl_crystal_colour            colorless
_exptl_crystal_description       block
_cell_formula_units_Z            4
_exptl_crystal_recrystallization_method dichloromethane/n-hexane
loop_
_atom_site_label
_atom_site_type_symbol
_atom_site_fract_x
_atom_site_fract_y
_atom_site_fract_z
C1 C 0.40606(18) 0.02586(17) 0.36949(7)
C2 C 0.34113(19) -0.09208(18) 0.33188(8)
C3 C 0.32832(18) 0.09022(18) 0.40591(7)
C4 C 0.3515(2) 0.0790(2) 0.45636(8)
H1 H 0.4145 0.0304 0.4674
C5 C 0.2821(2) 0.1394(2) 0.49003(8)
H2 H 0.3005 0.1336 0.5237
C6 C 0.1859(2) 0.2082(2) 0.47437(8)
H3 H 0.1374 0.2453 0.4976
C7 C 0.15941(19) 0.22342(18) 0.42421(7)
C8 C 0.23452(19) 0.16397(18) 0.39111(7)
H4 H 0.2207 0.1746 0.3576
C9 C 0.06162(19) 0.35999(18) 0.35466(7)
C10 C -0.02536(19) 0.33766(19) 0.31424(7)
C11 C -0.0154(2) 0.3972(2) 0.27183(8)
H5 H -0.0731 0.3805 0.2452
C12 C 0.0764(2) 0.4798(2) 0.26754(8)
C13 C 0.1624(2) 0.5004(2) 0.30675(9)
H6 H 0.2258 0.5552 0.3043
C14 C 0.1581(2) 0.4424(2) 0.34990(8)
C15 C -0.1280(2) 0.2465(2) 0.31472(9)
H7 H -0.1868 0.2553 0.2873
H8 H -0.1674 0.2585 0.3451
H9 H -0.0949 0.1677 0.3121
C16 C 0.0840(3) 0.5462(3) 0.22134(10)
H10 H 0.0319 0.6144 0.2231
H11 H 0.0576 0.4942 0.1928
H12 H 0.1673 0.5721 0.2188
C17 C 0.2549(2) 0.4752(3) 0.39125(10)
H13 H 0.2980 0.5463 0.3844
H14 H 0.3118 0.4111 0.3939
H15 H 0.2165 0.4890 0.4218
C18 C -0.06928(19) 0.31117(18) 0.43359(7)
C19 C -0.1300(2) 0.20959(19) 0.44879(8)
C20 C -0.2383(2) 0.2223(2) 0.47226(8)
H16 H -0.2759 0.1546 0.4825
C21 C -0.2924(2) 0.3315(2) 0.48102(8)
C22 C -0.2322(2) 0.4311(2) 0.46697(7)
H17 H -0.2656 0.5059 0.4734
C23 C -0.12348(19) 0.42297(18) 0.44358(7)
C24 C -0.0867(3) 0.0833(2) 0.43734(10)
H18 H -0.0325 0.0606 0.4643
H19 H -0.0440 0.0798 0.4076
H20 H -0.1564 0.0295 0.4328
C25 C -0.4157(2) 0.3417(3) 0.50278(10)
H21 H -0.4319 0.2711 0.5192
H22 H -0.4787 0.3501 0.4768
H23 H -0.4147 0.4103 0.5261
C26 C -0.0660(2) 0.53778(19) 0.43017(9)
H24 H -0.1192 0.6029 0.4378
H25 H -0.0539 0.5323 0.3954
H26 H 0.0118 0.5512 0.4487
C27 C 0.2082(2) -0.1224(2) 0.33633(9)
C28 C 0.1686(2) -0.1681(2) 0.37799(12)
H27 H 0.2247 -0.1798 0.4045
C29 C 0.0455(3) -0.1969(3) 0.38079(16)
H28 H 0.0191 -0.2267 0.4093
C30 C -0.0372(3) -0.1813(3) 0.3415(2)
H29 H -0.1196 -0.2021 0.3429
C31 C 0.0015(3) -0.1360(4) 0.30122(18)
H30 H -0.0549 -0.1241 0.2748
C32 C 0.1230(3) -0.1066(3) 0.29811(12)
H31 H 0.1478 -0.0755 0.2696
B1 B 0.3754(3) 0.0419(2) 0.30749(9)
H32 H 0.3045 0.1014 0.2930
B2 B 0.5130(3) 0.0980(3) 0.33928(11)
H33 H 0.5331 0.1944 0.3453
B3 B 0.5571(2) -0.0019(3) 0.38382(12)
H34 H 0.6064 0.0295 0.4192
B4 B 0.4465(2) -0.1188(2) 0.37948(11)
H35 H 0.4219 -0.1632 0.4122
B5 B 0.4492(3) -0.1980(3) 0.32130(13)
H36 H 0.4278 -0.2942 0.3157
B6 B 0.4057(3) -0.0971(3) 0.27638(11)
H37 H 0.3556 -0.1277 0.2410
B7 B 0.5156(3) 0.0201(3) 0.28096(13)
H38 H 0.5382 0.0663 0.2484
B8 B 0.6279(3) -0.0083(3) 0.32771(14)
H39 H 0.7246 0.0185 0.3260
B9 B 0.5871(3) -0.1416(3) 0.35302(13)
H40 H 0.6566 -0.2017 0.3681
B10 B 0.5620(3) -0.1277(3) 0.28901(14)
H41 H 0.6150 -0.1786 0.2619
B11 B 0.0497(2) 0.2991(2) 0.40428(8)
C33 C 0.84310(17) 0.14479(18) 0.10367(7)
C34 C 0.78072(18) 0.00853(18) 0.11487(7)
C35 C 0.75918(17) 0.23782(18) 0.08397(7)
C36 C 0.67787(18) 0.29718(18) 0.11395(7)
H42 H 0.6769 0.2788 0.1467
C37 C 0.59775(19) 0.38311(18) 0.09692(7)
C38 C 0.6061(2) 0.4122(2) 0.04845(8)
H43 H 0.5545 0.4697 0.0359
C39 C 0.6888(2) 0.3579(2) 0.01863(8)
H44 H 0.6942 0.3808 -0.0133
C40 C 0.7636(2) 0.2701(2) 0.03573(8)
H45 H 0.8175 0.2321 0.0149
C41 C 0.37133(19) 0.47612(17) 0.11030(7)
C42 C 0.3232(2) 0.58871(18) 0.12541(7)
C43 C 0.2037(2) 0.6160(2) 0.10963(8)
H46 H 0.1742 0.6911 0.1190
C44 C 0.1274(2) 0.5372(2) 0.08081(9)
C45 C 0.1746(2) 0.4287(2) 0.06551(8)
H47 H 0.1244 0.3745 0.0455
C46 C 0.2943(2) 0.39730(18) 0.07876(7)
C47 C 0.3985(3) 0.6800(2) 0.15852(10)
H48 H 0.3519 0.7513 0.1634
H49 H 0.4725 0.6983 0.1434
H50 H 0.4190 0.6485 0.1899
C48 C -0.0043(3) 0.5682(3) 0.06767(12)
H51 H -0.0410 0.5995 0.0969
H52 H -0.0489 0.4979 0.0539
H53 H -0.0070 0.6272 0.0438
C49 C 0.3333(2) 0.2736(2) 0.06020(10)
H54 H 0.2618 0.2233 0.0522
H55 H 0.3851 0.2401 0.0855
H56 H 0.3776 0.2792 0.0312
C50 C 0.5358(2) 0.44887(19) 0.18932(8)
C51 C 0.6389(2) 0.5158(2) 0.20966(9)
C52 C 0.6650(3) 0.5269(2) 0.26106(11)
H57 H 0.7330 0.5723 0.2743
C53 C 0.5925(3) 0.4723(2) 0.29251(9)
C54 C 0.4937(3) 0.4065(2) 0.27243(9)
H58 H 0.4447 0.3689 0.2934
C55 C 0.4628(2) 0.39310(19) 0.22174(8)
C56 C 0.7211(3) 0.5817(3) 0.17803(12)
H59 H 0.7778 0.5269 0.1636
H60 H 0.7659 0.6439 0.1981
H61 H 0.6718 0.6160 0.1522
C57 C 0.6237(4) 0.4879(3) 0.34815(10)
H62 H 0.5667 0.5416 0.3630
H63 H 0.7056 0.5201 0.3547
H64 H 0.6184 0.4119 0.3618
C58 C 0.3530(3) 0.3148(2) 0.20387(9)
H65 H 0.3155 0.2866 0.2318
H66 H 0.3789 0.2480 0.1833
H67 H 0.2947 0.3601 0.1852
C59 C 0.64468(19) -0.01304(18) 0.10447(8)
C60 C 0.5631(2) 0.0169(2) 0.13927(9)
H68 H 0.5919 0.0531 0.1699
C61 C 0.4394(2) -0.0058(2) 0.12962(12)
H69 H 0.3857 0.0153 0.1537
C62 C 0.3949(2) -0.0583(3) 0.08569(13)
H70 H 0.3109 -0.0721 0.0792
C63 C 0.4742(3) -0.0908(3) 0.05094(12)
H71 H 0.4444 -0.1293 0.0209
C64 C 0.5983(2) -0.0674(3) 0.05986(10)
H72 H 0.6513 -0.0885 0.0355
B12 B 0.8672(2) 0.0190(2) 0.06483(11)
H73 H 0.8285 0.0070 0.0263
B13 B 0.9867(2) 0.1245(3) 0.08377(12)
H74 H 1.0275 0.1799 0.0573
B14 B 0.9645(2) 0.1810(3) 0.14492(11)
H75 H 0.9903 0.2733 0.1585
B15 B 0.8326(2) 0.1088(2) 0.16358(9)
H76 H 0.7712 0.1542 0.1890
B16 B 0.8604(3) -0.0459(3) 0.16413(11)
H77 H 0.8187 -0.1012 0.1903
B17 B 0.8822(3) -0.1019(3) 0.10283(11)
H78 H 0.8547 -0.1936 0.0890
B18 B 1.0140(3) -0.0304(3) 0.08409(13)
H79 H 1.0732 -0.0764 0.0579
B19 B 1.0741(3) 0.0697(3) 0.13359(14)
H80 H 1.1733 0.0891 0.1400
B20 B 0.9793(3) 0.0606(3) 0.18305(12)
H81 H 1.0159 0.0743 0.2219
B21 B 1.0110(3) -0.0688(3) 0.14548(13)
H82 H 1.0691 -0.1397 0.1597
B22 B 0.5013(2) 0.4379(2) 0.13193(9)
loop_
_geom_bond_atom_site_label_1
_geom_bond_atom_site_label_2
_geom_bond_site_symmetry_1
_geom_bond_site_symmetry_2
C1 C2 1_555 1_555
C2 C27 1_555 1_555
C3 C1 1_555 1_555
C4 C3 1_555 1_555
H1 C4 1_555 1_555
C5 C4 1_555 1_555
H2 C5 1_555 1_555
C6 C5 1_555 1_555
H3 C6 1_555 1_555
C7 C6 1_555 1_555
C8 C3 1_555 1_555
H4 C8 1_555 1_555
C9 C10 1_555 1_555
C10 C11 1_555 1_555
C11 H5 1_555 1_555
C12 C11 1_555 1_555
C13 C12 1_555 1_555
H6 C13 1_555 1_555
C14 C9 1_555 1_555
C15 C10 1_555 1_555
H7 C15 1_555 1_555
H8 C15 1_555 1_555
H9 C15 1_555 1_555
C16 C12 1_555 1_555
H10 C16 1_555 1_555
H11 C16 1_555 1_555
H12 C16 1_555 1_555
C17 C14 1_555 1_555
H13 C17 1_555 1_555
H14 C17 1_555 1_555
H15 C17 1_555 1_555
C18 C19 1_555 1_555
C19 C20 1_555 1_555
C20 H16 1_555 1_555
C21 C20 1_555 1_555
C22 C21 1_555 1_555
H17 C22 1_555 1_555
C23 C18 1_555 1_555
C24 C19 1_555 1_555
H18 C24 1_555 1_555
H19 C24 1_555 1_555
H20 C24 1_555 1_555
C25 C21 1_555 1_555
H21 C25 1_555 1_555
H22 C25 1_555 1_555
H23 C25 1_555 1_555
C26 C23 1_555 1_555
H24 C26 1_555 1_555
H25 C26 1_555 1_555
H26 C26 1_555 1_555
C27 C28 1_555 1_555
C28 H27 1_555 1_555
C29 C28 1_555 1_555
H28 C29 1_555 1_555
C30 C29 1_555 1_555
H29 C30 1_555 1_555
C31 C30 1_555 1_555
H30 C31 1_555 1_555
C32 C27 1_555 1_555
H31 C32 1_555 1_555
B1 C1 1_555 1_555
H32 B1 1_555 1_555
B2 C1 1_555 1_555
H33 B2 1_555 1_555
B3 C1 1_555 1_555
H34 B3 1_555 1_555
B4 C1 1_555 1_555
H35 B4 1_555 1_555
B5 C2 1_555 1_555
H36 B5 1_555 1_555
B6 C2 1_555 1_555
H37 B6 1_555 1_555
B7 B1 1_555 1_555
H38 B7 1_555 1_555
B8 B2 1_555 1_555
H39 B8 1_555 1_555
B9 B3 1_555 1_555
H40 B9 1_555 1_555
B10 B5 1_555 1_555
H41 B10 1_555 1_555
B11 C7 1_555 1_555
C33 C34 1_555 1_555
C34 C59 1_555 1_555
C35 C33 1_555 1_555
C36 C35 1_555 1_555
H42 C36 1_555 1_555
C37 C36 1_555 1_555
C38 C37 1_555 1_555
H43 C38 1_555 1_555
C39 C38 1_555 1_555
H44 C39 1_555 1_555
C40 C35 1_555 1_555
H45 C40 1_555 1_555
C41 C42 1_555 1_555
C42 C43 1_555 1_555
C43 H46 1_555 1_555
C44 C43 1_555 1_555
C45 C44 1_555 1_555
H47 C45 1_555 1_555
C46 C41 1_555 1_555
C47 C42 1_555 1_555
H48 C47 1_555 1_555
H49 C47 1_555 1_555
H50 C47 1_555 1_555
C48 C44 1_555 1_555
H51 C48 1_555 1_555
H52 C48 1_555 1_555
H53 C48 1_555 1_555
C49 C46 1_555 1_555
H54 C49 1_555 1_555
H55 C49 1_555 1_555
H56 C49 1_555 1_555
C50 C51 1_555 1_555
C51 C52 1_555 1_555
C52 H57 1_555 1_555
C53 C52 1_555 1_555
C54 C53 1_555 1_555
H58 C54 1_555 1_555
C55 C50 1_555 1_555
C56 C51 1_555 1_555
H59 C56 1_555 1_555
H60 C56 1_555 1_555
H61 C56 1_555 1_555
C57 C53 1_555 1_555
H62 C57 1_555 1_555
H63 C57 1_555 1_555
H64 C57 1_555 1_555
C58 C55 1_555 1_555
H65 C58 1_555 1_555
H66 C58 1_555 1_555
H67 C58 1_555 1_555
C59 C60 1_555 1_555
C60 H68 1_555 1_555
C61 C60 1_555 1_555
H69 C61 1_555 1_555
C62 C61 1_555 1_555
H70 C62 1_555 1_555
C63 C62 1_555 1_555
H71 C63 1_555 1_555
C64 C59 1_555 1_555
H72 C64 1_555 1_555
B12 C33 1_555 1_555
H73 B12 1_555 1_555
B13 C33 1_555 1_555
H74 B13 1_555 1_555
B14 C33 1_555 1_555
H75 B14 1_555 1_555
B15 C33 1_555 1_555
H76 B15 1_555 1_555
B16 C34 1_555 1_555
H77 B16 1_555 1_555
B17 C34 1_555 1_555
H78 B17 1_555 1_555
B18 B12 1_555 1_555
H79 B18 1_555 1_555
B19 B13 1_555 1_555
H80 B19 1_555 1_555
B20 B14 1_555 1_555
H81 B20 1_555 1_555
B21 B16 1_555 1_555
H82 B21 1_555 1_555
B22 C37 1_555 1_555
C2 B1 1_555 1_555
C2 B4 1_555 1_555
C7 C8 1_555 1_555
C9 B11 1_555 1_555
C13 C14 1_555 1_555
C18 B11 1_555 1_555
C22 C23 1_555 1_555
C31 C32 1_555 1_555
B1 B2 1_555 1_555
B1 B6 1_555 1_555
B2 B3 1_555 1_555
B2 B7 1_555 1_555
B3 B4 1_555 1_555
B3 B8 1_555 1_555
B4 B5 1_555 1_555
B4 B9 1_555 1_555
B5 B6 1_555 1_555
B5 B9 1_555 1_555
B6 B7 1_555 1_555
B6 B10 1_555 1_555
B7 B8 1_555 1_555
B7 B10 1_555 1_555
B8 B9 1_555 1_555
B8 B10 1_555 1_555
B9 B10 1_555 1_555
C34 B12 1_555 1_555
C34 B15 1_555 1_555
C39 C40 1_555 1_555
C41 B22 1_555 1_555
C45 C46 1_555 1_555
C50 B22 1_555 1_555
C54 C55 1_555 1_555
C63 C64 1_555 1_555
B12 B13 1_555 1_555
B12 B17 1_555 1_555
B13 B14 1_555 1_555
B13 B18 1_555 1_555
B14 B15 1_555 1_555
B14 B19 1_555 1_555
B15 B16 1_555 1_555
B15 B20 1_555 1_555
B16 B17 1_555 1_555
B16 B20 1_555 1_555
B17 B18 1_555 1_555
B17 B21 1_555 1_555
B18 B19 1_555 1_555
B18 B21 1_555 1_555
B19 B20 1_555 1_555
B19 B21 1_555 1_555
B20 B21 1_555 1_555

#END
