
#######################################################################
#
#                 Cambridge Crystallographic Data Centre
#                                CCDC 
#
#######################################################################
#
# If this CIF has been generated from an entry in the Cambridge 
# Structural Database, then it will include bibliographic, chemical, 
# crystal, experimental, refinement or atomic coordinate data resulting 
# from the CCDC's data processing and validation procedures.
#
#######################################################################

data_LUNHIM
_chemical_formula_moiety         'C19 H25 Br1 O1'
_chemical_name_systematic        1-Bromo-3,6-di-t-butyl-2-methoxynaphthalene
_symmetry_cell_setting           monoclinic
_symmetry_space_group_name_H-M   'P 21/n'
_symmetry_Int_Tables_number      14
_space_group_name_Hall           '-P 2yn'
loop_
_symmetry_equiv_pos_site_id
_symmetry_equiv_pos_as_xyz
1 x,y,z
2 1/2-x,1/2+y,1/2-z
3 -x,-y,-z
4 1/2+x,1/2-y,1/2+z
_cell_length_a                   6.0253(5)
_cell_length_b                   19.8448(15)
_cell_length_c                   15.0745(7)
_cell_angle_alpha                90
_cell_angle_beta                 88.889(5)
_cell_angle_gamma                90
_cell_volume                     1802.13
_exptl_crystal_colour            colorless
_exptl_crystal_description       prism
_cell_formula_units_Z            4
loop_
_atom_site_label
_atom_site_type_symbol
_atom_site_fract_x
_atom_site_fract_y
_atom_site_fract_z
Br1 Br 0.24040(6) 0.175444(15) 0.329497(17)
C1 C 0.2896(4) 0.21060(11) 0.44498(13)
C2 C 0.1959(3) 0.27092(11) 0.46824(14)
O1 O 0.0582(3) 0.30404(8) 0.41099(11)
C3 C -0.1583(4) 0.27465(16) 0.4006(2)
H1 H -0.2415 0.3012 0.3596
H2 H -0.2349 0.2736 0.4570
H3 H -0.1427 0.2296 0.3782
C4 C 0.2517(3) 0.30272(11) 0.55047(14)
C5 C 0.1701(4) 0.37382(11) 0.57482(16)
C6 C 0.2571(5) 0.42432(13) 0.5052(2)
H4 H 0.2058 0.4687 0.5202
H5 H 0.2034 0.4121 0.4478
H6 H 0.4164 0.4237 0.5039
C7 C -0.0868(4) 0.37625(15) 0.5804(2)
H7 H -0.1341 0.4211 0.5953
H8 H -0.1393 0.3455 0.6252
H9 H -0.1462 0.3637 0.5241
C8 C 0.2545(4) 0.39598(14) 0.66491(18)
H10 H 0.2012 0.4405 0.6780
H11 H 0.4139 0.3960 0.6636
H12 H 0.2017 0.3653 0.7098
C9 C 0.3888(3) 0.26749(10) 0.60506(14)
H13 H 0.4240 0.2866 0.6594
C10 C 0.6254(3) 0.17049(10) 0.64250(14)
H14 H 0.6560 0.1906 0.6966
C11 C 0.7217(3) 0.10997(10) 0.62225(14)
C12 C 0.8742(4) 0.07305(11) 0.68665(15)
C13 C 0.7290(5) 0.02672(14) 0.74440(19)
H15 H 0.8202 0.0031 0.7856
H16 H 0.6548 -0.0052 0.7074
H17 H 0.6207 0.0532 0.7764
C14 C 0.9922(5) 0.12282(15) 0.7473(2)
H18 H 1.0863 0.0985 0.7868
H19 H 0.8839 0.1479 0.7813
H20 H 1.0805 0.1533 0.7120
C15 C 1.0494(5) 0.03060(17) 0.6387(2)
H21 H 1.1410 0.0088 0.6814
H22 H 1.1397 0.0591 0.6013
H23 H 0.9779 -0.0028 0.6031
C16 C 0.6699(4) 0.08070(12) 0.53973(16)
H24 H 0.7328 0.0394 0.5246
C17 C 0.5310(4) 0.11091(11) 0.48148(16)
H25 H 0.5005 0.0898 0.4280
C18 C 0.4324(4) 0.17398(10) 0.50130(14)
C19 C 0.4797(3) 0.20386(10) 0.58361(13)
loop_
_geom_bond_atom_site_label_1
_geom_bond_atom_site_label_2
_geom_bond_site_symmetry_1
_geom_bond_site_symmetry_2
Br1 C1 1_555 1_555
C1 C2 1_555 1_555
C2 O1 1_555 1_555
O1 C3 1_555 1_555
C3 H1 1_555 1_555
H2 C3 1_555 1_555
H3 C3 1_555 1_555
C4 C2 1_555 1_555
C5 C4 1_555 1_555
C6 C5 1_555 1_555
H4 C6 1_555 1_555
H5 C6 1_555 1_555
H6 C6 1_555 1_555
C7 C5 1_555 1_555
H7 C7 1_555 1_555
H8 C7 1_555 1_555
H9 C7 1_555 1_555
C8 C5 1_555 1_555
H10 C8 1_555 1_555
H11 C8 1_555 1_555
H12 C8 1_555 1_555
C9 C4 1_555 1_555
H13 C9 1_555 1_555
C10 H14 1_555 1_555
C11 C10 1_555 1_555
C12 C11 1_555 1_555
C13 C12 1_555 1_555
H15 C13 1_555 1_555
H16 C13 1_555 1_555
H17 C13 1_555 1_555
C14 C12 1_555 1_555
H18 C14 1_555 1_555
H19 C14 1_555 1_555
H20 C14 1_555 1_555
C15 C12 1_555 1_555
H21 C15 1_555 1_555
H22 C15 1_555 1_555
H23 C15 1_555 1_555
C16 C11 1_555 1_555
H24 C16 1_555 1_555
C17 C16 1_555 1_555
H25 C17 1_555 1_555
C18 C1 1_555 1_555
C19 C9 1_555 1_555
C10 C19 1_555 1_555
C17 C18 1_555 1_555
C18 C19 1_555 1_555

#END
