
#######################################################################
#
#                 Cambridge Crystallographic Data Centre
#                                CCDC 
#
#######################################################################
#
# If this CIF has been generated from an entry in the Cambridge 
# Structural Database, then it will include bibliographic, chemical, 
# crystal, experimental, refinement or atomic coordinate data resulting 
# from the CCDC's data processing and validation procedures.
#
#######################################################################

data_LUNJEK
_chemical_formula_moiety         'C62 H72 Li2 N2 O4,C4 H8 O1'
_chemical_name_systematic        
'bis(\m~2~-3,6-Di-t-butyl-1-(isoquinolin-1-yl)-2-naphtholato-N,O,O)-bis(tetrahydrofuran)-di-lithium tetrahydrofuran solvate'
_symmetry_cell_setting           monoclinic
_symmetry_space_group_name_H-M   'P 21/n'
_symmetry_Int_Tables_number      14
_space_group_name_Hall           '-P 2yn'
loop_
_symmetry_equiv_pos_site_id
_symmetry_equiv_pos_as_xyz
1 x,y,z
2 1/2-x,1/2+y,1/2-z
3 -x,-y,-z
4 1/2+x,1/2-y,1/2+z
_cell_length_a                   16.524(6)
_cell_length_b                   10.431(4)
_cell_length_c                   37.439(13)
_cell_angle_alpha                90
_cell_angle_beta                 94.995(4)
_cell_angle_gamma                90
_cell_volume                     6428.55
_exptl_crystal_colour            yellow
_exptl_crystal_description       plate
_cell_formula_units_Z            4
loop_
_atom_site_label
_atom_site_type_symbol
_atom_site_fract_x
_atom_site_fract_y
_atom_site_fract_z
Li1 Li 0.5696(3) 0.3879(5) 0.18137(14)
Li2 Li 0.4797(3) 0.1923(6) 0.17393(15)
N1 N 0.53776(16) 0.5358(3) 0.14849(7)
O1 O 0.56004(12) 0.2548(2) 0.14599(5)
C1 C 0.60096(17) 0.4093(3) 0.10459(8)
C2 C 0.60539(17) 0.2852(3) 0.11959(8)
C3 C 0.66081(18) 0.1920(3) 0.10621(8)
C4 C 0.71300(18) 0.2333(3) 0.08204(9)
H1 H 0.7495 0.1727 0.0734
C5 C 0.71559(18) 0.3620(3) 0.06915(8)
C6 C 0.77353(18) 0.4024(4) 0.04575(9)
H2 H 0.8106 0.3411 0.0379
C7 C 0.77827(19) 0.5276(4) 0.03393(9)
C8 C 0.7227(2) 0.6159(4) 0.04637(9)
H3 H 0.7258 0.7031 0.0394
C9 C 0.66397(19) 0.5801(3) 0.06833(8)
H4 H 0.6268 0.6425 0.0755
C10 C 0.65803(18) 0.4512(3) 0.08050(8)
C11 C 0.53653(18) 0.5000(3) 0.11423(8)
C12 C 0.4804(2) 0.6222(3) 0.15795(9)
H5 H 0.4806 0.6450 0.1825
C13 C 0.4237(2) 0.6766(3) 0.13439(9)
H6 H 0.3875 0.7394 0.1422
C14 C 0.4188(2) 0.6391(3) 0.09819(9)
C15 C 0.3585(2) 0.6862(4) 0.07229(10)
H7 H 0.3212 0.7493 0.0790
C16 C 0.3533(2) 0.6422(4) 0.03812(10)
H8 H 0.3130 0.6756 0.0210
C17 C 0.4076(2) 0.5466(4) 0.02777(10)
H9 H 0.4026 0.5144 0.0039
C18 C 0.46724(18) 0.5009(3) 0.05210(8)
H10 H 0.5037 0.4374 0.0449
C19 C 0.47561(18) 0.5459(3) 0.08753(8)
C20 C 0.66051(19) 0.0511(3) 0.11921(9)
C21 C 0.5769(2) -0.0094(3) 0.10973(10)
H11 H 0.5773 -0.0981 0.1183
H12 H 0.5645 -0.0083 0.0837
H13 H 0.5356 0.0396 0.1211
C22 C 0.6823(2) 0.0450(4) 0.16002(10)
H14 H 0.6397 0.0874 0.1724
H15 H 0.7343 0.0885 0.1660
H16 H 0.6868 -0.0448 0.1676
C23 C 0.7234(2) -0.0311(4) 0.10152(12)
H17 H 0.7219 -0.1192 0.1106
H18 H 0.7778 0.0048 0.1073
H19 H 0.7106 -0.0313 0.0755
C24 C 0.8416(2) 0.5735(4) 0.00894(11)
C25 C 0.8005(2) 0.6484(5) -0.02217(12)
H20 H 0.7621 0.5926 -0.0362
H21 H 0.8415 0.6797 -0.0374
H22 H 0.7712 0.7214 -0.0130
C26 C 0.9036(2) 0.6607(5) 0.03111(12)
H23 H 0.9446 0.6912 0.0157
H24 H 0.9301 0.6116 0.0512
H25 H 0.8751 0.7342 0.0404
C27 C 0.8874(2) 0.4596(5) -0.00674(12)
H26 H 0.8483 0.4033 -0.0203
H27 H 0.9162 0.4111 0.0129
H28 H 0.9265 0.4923 -0.0227
N2 N 0.65165(14) 0.3867(3) 0.22460(7)
O2 O 0.48209(11) 0.3282(2) 0.20704(5)
C28 C 0.53856(16) 0.4360(3) 0.25920(8)
C29 C 0.47214(17) 0.4015(3) 0.23484(8)
C30 C 0.39154(17) 0.4495(3) 0.24125(9)
C31 C 0.38464(18) 0.5361(3) 0.26787(9)
H29 H 0.3323 0.5692 0.2712
C32 C 0.45217(17) 0.5802(3) 0.29128(8)
C33 C 0.44199(18) 0.6704(3) 0.31877(9)
H30 H 0.3890 0.7026 0.3214
C34 C 0.50606(17) 0.7139(3) 0.34206(8)
C35 C 0.58401(18) 0.6640(3) 0.33643(8)
H31 H 0.6298 0.6930 0.3514
C36 C 0.59567(17) 0.5759(3) 0.31034(8)
H32 H 0.6490 0.5453 0.3078
C37 C 0.52992(16) 0.5287(3) 0.28685(8)
C38 C 0.61949(17) 0.3738(3) 0.25575(8)
C39 C 0.72506(19) 0.3320(4) 0.22027(10)
H33 H 0.7472 0.3424 0.1979
C40 C 0.7683(2) 0.2636(4) 0.24607(10)
H34 H 0.8199 0.2295 0.2419
C41 C 0.73588(19) 0.2434(3) 0.27932(9)
C42 C 0.7764(2) 0.1704(4) 0.30732(11)
H35 H 0.8287 0.1361 0.3043
C43 C 0.7422(3) 0.1488(4) 0.33803(12)
H36 H 0.7700 0.0981 0.3563
C44 C 0.6653(2) 0.2009(3) 0.34336(9)
H37 H 0.6415 0.1847 0.3651
C45 C 0.6250(2) 0.2747(3) 0.31727(8)
H38 H 0.5734 0.3098 0.3211
C46 C 0.65943(18) 0.2992(3) 0.28458(8)
C47 C 0.31576(18) 0.3975(4) 0.21824(10)
C48 C 0.3173(2) 0.4329(4) 0.17871(10)
H39 H 0.2717 0.3914 0.1647
H40 H 0.3685 0.4040 0.1700
H41 H 0.3126 0.5261 0.1760
C49 C 0.3136(2) 0.2501(4) 0.22287(11)
H42 H 0.2665 0.2151 0.2084
H43 H 0.3095 0.2292 0.2482
H44 H 0.3635 0.2127 0.2150
C50 C 0.2367(2) 0.4507(5) 0.23131(13)
H45 H 0.2368 0.5445 0.2297
H46 H 0.2327 0.4249 0.2563
H47 H 0.1901 0.4167 0.2163
C51 C 0.49689(19) 0.8061(3) 0.37296(9)
C52 C 0.4107(2) 0.8601(4) 0.37301(11)
H48 H 0.3952 0.9016 0.3499
H49 H 0.4091 0.9231 0.3923
H50 H 0.3727 0.7903 0.3768
C53 C 0.5176(3) 0.7349(4) 0.40870(9)
H51 H 0.4795 0.6637 0.4106
H52 H 0.5133 0.7943 0.4287
H53 H 0.5731 0.7013 0.4095
C54 C 0.5557(2) 0.9207(4) 0.37088(10)
H54 H 0.6118 0.8895 0.3730
H55 H 0.5480 0.9807 0.3904
H56 H 0.5444 0.9645 0.3478
O3 O 0.38949(14) 0.1506(3) 0.13812(6)
C55 C 0.3862(2) 0.2092(4) 0.10324(10)
H57 H 0.4417 0.2253 0.0963
H58 H 0.3568 0.2919 0.1033
C56 C 0.3414(5) 0.1154(9) 0.0772(2)
H59 H 0.3752 0.0404 0.0719
H60 H 0.3199 0.1570 0.0546
C57 C 0.2688(7) 0.0786(14) 0.1034(4)
H61 H 0.2298 0.1496 0.1055
H62 H 0.2394 -0.0008 0.0957
C58 C 0.3250(3) 0.0594(5) 0.13780(12)
H63 H 0.2941 0.0719 0.1591
H64 H 0.3473 -0.0287 0.1386
O4 O 0.49211(18) 0.0454(2) 0.20804(6)
C59 C 0.5289(3) 0.0642(4) 0.24393(10)
H65 H 0.5051 0.1396 0.2552
H66 H 0.5882 0.0770 0.2439
C60 C 0.5105(5) -0.0568(7) 0.26333(17)
H67 H 0.4630 -0.0447 0.2774
H68 H 0.5576 -0.0831 0.2798
C61 C 0.4924(7) -0.1566(7) 0.2341(2)
H69 H 0.5346 -0.2242 0.2358
H70 H 0.4389 -0.1970 0.2364
C62 C 0.4922(10) -0.0878(18) 0.1997(2)
H71 H 0.5410 -0.1103 0.1875
H72 H 0.4433 -0.1105 0.1838
O5 O 0.2133(3) 0.7878(4) 0.13329(14)
C63 C 0.1474(6) 0.7390(10) 0.1127(2)
H73 H 0.1524 0.6450 0.1100
H74 H 0.1426 0.7787 0.0886
C64 C 0.0719(4) 0.7735(9) 0.13351(18)
H75 H 0.0546 0.8636 0.1295
H76 H 0.0254 0.7155 0.1271
C65 C 0.1072(3) 0.7523(5) 0.17014(15)
H77 H 0.1080 0.6602 0.1765
H78 H 0.0780 0.8009 0.1877
C66 C 0.1930(3) 0.8046(6) 0.16749(15)
H79 H 0.1948 0.8969 0.1737
H80 H 0.2320 0.7586 0.1845
C67? C 0.3862(2) 0.2092(4) 0.10324(10)
C68? C 0.3008(8) 0.1892(14) 0.0908(3)
C69? C 0.2968(13) 0.046(2) 0.1005(6)
C70? C 0.3250(3) 0.0594(5) 0.13780(12)
C71? C 0.5289(3) 0.0642(4) 0.24393(10)
C72? C 0.5542(10) -0.0481(15) 0.2594(4)
C73? C 0.5388(12) -0.1424(16) 0.2286(5)
C74? C 0.473(2) -0.087(4) 0.2094(6)
H81? H 0.4228 0.1657 0.0875
H82? H 0.4000 0.3015 0.1048
H83? H 0.2899 0.2043 0.0647
H84? H 0.2638 0.2421 0.1041
H85? H 0.2409 0.0110 0.0971
H86? H 0.3338 -0.0074 0.0873
H87? H 0.2809 0.0912 0.1518
H88? H 0.3449 -0.0235 0.1480
H89? H 0.5759 0.1228 0.2433
H90? H 0.4890 0.1051 0.2586
H91? H 0.5221 -0.0704 0.2797
H92? H 0.6125 -0.0448 0.2680
H93? H 0.5862 -0.1486 0.2142
H94? H 0.5254 -0.2288 0.2373
H95? H 0.4229 -0.1005 0.2214
H96? H 0.4655 -0.1233 0.1849
loop_
_geom_bond_atom_site_label_1
_geom_bond_atom_site_label_2
_geom_bond_site_symmetry_1
_geom_bond_site_symmetry_2
Li1 N1 1_555 1_555
Li2 O1 1_555 1_555
N1 C11 1_555 1_555
O1 Li1 1_555 1_555
C1 C2 1_555 1_555
C2 O1 1_555 1_555
C3 C2 1_555 1_555
C4 C3 1_555 1_555
H1 C4 1_555 1_555
C5 C4 1_555 1_555
C6 C5 1_555 1_555
H2 C6 1_555 1_555
C7 C6 1_555 1_555
C8 C7 1_555 1_555
H3 C8 1_555 1_555
C9 C8 1_555 1_555
H4 C9 1_555 1_555
C10 C1 1_555 1_555
C11 C1 1_555 1_555
C12 N1 1_555 1_555
H5 C12 1_555 1_555
C13 C12 1_555 1_555
H6 C13 1_555 1_555
C14 C13 1_555 1_555
C15 C14 1_555 1_555
H7 C15 1_555 1_555
C16 C15 1_555 1_555
H8 C16 1_555 1_555
C17 C16 1_555 1_555
H9 C17 1_555 1_555
C18 C17 1_555 1_555
H10 C18 1_555 1_555
C19 C11 1_555 1_555
C20 C3 1_555 1_555
C21 C20 1_555 1_555
H11 C21 1_555 1_555
H12 C21 1_555 1_555
H13 C21 1_555 1_555
C22 C20 1_555 1_555
H14 C22 1_555 1_555
H15 C22 1_555 1_555
H16 C22 1_555 1_555
C23 C20 1_555 1_555
H17 C23 1_555 1_555
H18 C23 1_555 1_555
H19 C23 1_555 1_555
C24 C7 1_555 1_555
C25 C24 1_555 1_555
H20 C25 1_555 1_555
H21 C25 1_555 1_555
H22 C25 1_555 1_555
C26 C24 1_555 1_555
H23 C26 1_555 1_555
H24 C26 1_555 1_555
H25 C26 1_555 1_555
C27 C24 1_555 1_555
H26 C27 1_555 1_555
H27 C27 1_555 1_555
H28 C27 1_555 1_555
N2 Li1 1_555 1_555
O2 Li1 1_555 1_555
C28 C29 1_555 1_555
C29 O2 1_555 1_555
C30 C29 1_555 1_555
C31 C30 1_555 1_555
H29 C31 1_555 1_555
C32 C31 1_555 1_555
C33 C32 1_555 1_555
H30 C33 1_555 1_555
C34 C33 1_555 1_555
C35 C34 1_555 1_555
H31 C35 1_555 1_555
C36 C35 1_555 1_555
H32 C36 1_555 1_555
C37 C28 1_555 1_555
C38 N2 1_555 1_555
C39 N2 1_555 1_555
H33 C39 1_555 1_555
C40 C39 1_555 1_555
H34 C40 1_555 1_555
C41 C40 1_555 1_555
C42 C41 1_555 1_555
H35 C42 1_555 1_555
C43 C42 1_555 1_555
H36 C43 1_555 1_555
C44 C43 1_555 1_555
H37 C44 1_555 1_555
C45 C44 1_555 1_555
H38 C45 1_555 1_555
C46 C38 1_555 1_555
C47 C30 1_555 1_555
C48 C47 1_555 1_555
H39 C48 1_555 1_555
H40 C48 1_555 1_555
H41 C48 1_555 1_555
C49 C47 1_555 1_555
H42 C49 1_555 1_555
H43 C49 1_555 1_555
H44 C49 1_555 1_555
C50 C47 1_555 1_555
H45 C50 1_555 1_555
H46 C50 1_555 1_555
H47 C50 1_555 1_555
C51 C34 1_555 1_555
C52 C51 1_555 1_555
H48 C52 1_555 1_555
H49 C52 1_555 1_555
H50 C52 1_555 1_555
C53 C51 1_555 1_555
H51 C53 1_555 1_555
H52 C53 1_555 1_555
H53 C53 1_555 1_555
C54 C51 1_555 1_555
H54 C54 1_555 1_555
H55 C54 1_555 1_555
H56 C54 1_555 1_555
O3 Li2 1_555 1_555
C55 O3 1_555 1_555
H57 C55 1_555 1_555
H58 C55 1_555 1_555
C56 C55 1_555 1_555
H59 C56 1_555 1_555
H60 C56 1_555 1_555
C57 C56 1_555 1_555
H61 C57 1_555 1_555
H62 C57 1_555 1_555
C58 O3 1_555 1_555
H63 C58 1_555 1_555
H64 C58 1_555 1_555
O4 Li2 1_555 1_555
C59 O4 1_555 1_555
H65 C59 1_555 1_555
H66 C59 1_555 1_555
C60 C59 1_555 1_555
H67 C60 1_555 1_555
H68 C60 1_555 1_555
C61 C60 1_555 1_555
H69 C61 1_555 1_555
H70 C61 1_555 1_555
C62 O4 1_555 1_555
H71 C62 1_555 1_555
H72 C62 1_555 1_555
O5 C63 1_555 1_555
C63 H73 1_555 1_555
H74 C63 1_555 1_555
C64 C63 1_555 1_555
H75 C64 1_555 1_555
H76 C64 1_555 1_555
C65 C64 1_555 1_555
H77 C65 1_555 1_555
H78 C65 1_555 1_555
C66 O5 1_555 1_555
H79 C66 1_555 1_555
H80 C66 1_555 1_555
Li2 O2 1_555 1_555
C5 C10 1_555 1_555
C9 C10 1_555 1_555
C14 C19 1_555 1_555
C18 C19 1_555 1_555
C28 C38 1_555 1_555
C32 C37 1_555 1_555
C36 C37 1_555 1_555
C41 C46 1_555 1_555
C45 C46 1_555 1_555
C57 C58 1_555 1_555
C61 C62 1_555 1_555
C65 C66 1_555 1_555

#END
