
#######################################################################
#
#                 Cambridge Crystallographic Data Centre
#                                CCDC 
#
#######################################################################
#
# If this CIF has been generated from an entry in the Cambridge 
# Structural Database, then it will include bibliographic, chemical, 
# crystal, experimental, refinement or atomic coordinate data resulting 
# from the CCDC's data processing and validation procedures.
#
#######################################################################

data_LUNMOY
_chemical_formula_moiety         'C80 H94 N4,C6 H14'
_chemical_name_systematic        
"3,3',3'',3''',6,6',6'',6'''-octa-t-butyl-9H,9'''H-1,1':9',9'':1'',1'''-quatercarbazole hexane solvate"
_symmetry_cell_setting           monoclinic
_symmetry_space_group_name_H-M   'C 2/c'
_symmetry_Int_Tables_number      15
_space_group_name_Hall           '-C 2yn'
loop_
_symmetry_equiv_pos_site_id
_symmetry_equiv_pos_as_xyz
1 x,y,z
2 -x,y,1/2-z
3 1/2+x,1/2+y,z
4 1/2-x,1/2+y,1/2-z
5 -x,-y,-z
6 x,-y,1/2+z
7 1/2-x,1/2-y,-z
8 1/2+x,1/2-y,1/2+z
_cell_length_a                   30.6695(11)
_cell_length_b                   12.1512(5)
_cell_length_c                   23.0584(9)
_cell_angle_alpha                90
_cell_angle_beta                 119.5715(9)
_cell_angle_gamma                90
_cell_volume                     7473.86
_exptl_crystal_colour            brown
_exptl_crystal_description       block
_cell_formula_units_Z            4
_exptl_crystal_recrystallization_method chloroform/hexane
loop_
_atom_site_label
_atom_site_type_symbol
_atom_site_fract_x
_atom_site_fract_y
_atom_site_fract_z
N1 N 0.47428(6) 0.15742(17) 0.22933(9)
N2 N 0.51300(7) 0.18528(17) 0.06042(10)
C1 C 0.44782(7) 0.2174(2) 0.17028(11)
C2 C 0.46396(8) 0.2821(2) 0.13427(11)
C3 C 0.42630(8) 0.3250(2) 0.07441(12)
C4 C 0.37477(8) 0.3090(2) 0.04917(12)
C5 C 0.36034(8) 0.2437(2) 0.08649(11)
C6 C 0.39605(7) 0.1976(2) 0.14646(11)
C7 C 0.39249(8) 0.1253(2) 0.19402(11)
C8 C 0.35254(8) 0.0809(2) 0.19909(11)
C9 C 0.36096(8) 0.0155(2) 0.25263(12)
C10 C 0.41057(9) -0.0083(2) 0.30054(13)
C11 C 0.45124(8) 0.0343(2) 0.29739(12)
C12 C 0.44150(7) 0.1009(2) 0.24433(11)
C13 C 0.53582(8) 0.2569(2) 0.11362(11)
C14 C 0.51747(8) 0.3028(2) 0.15286(11)
C15 C 0.54959(8) 0.3722(2) 0.20435(12)
C16 C 0.59906(8) 0.3954(2) 0.21871(11)
C17 C 0.61593(8) 0.3467(2) 0.17857(12)
C18 C 0.58521(8) 0.2776(2) 0.12672(11)
C19 C 0.59158(8) 0.2152(2) 0.07790(12)
C20 C 0.63130(8) 0.2040(2) 0.06470(12)
C21 C 0.62711(9) 0.1373(2) 0.01414(13)
C22 C 0.58149(9) 0.0811(3) -0.02477(13)
C23 C 0.54064(9) 0.0911(2) -0.01401(13)
C24 C 0.54663(8) 0.1588(2) 0.03834(12)
C25 C 0.33687(9) 0.3625(3) -0.01710(13)
C26 C 0.34940(14) 0.3284(5) -0.07008(16)
C27 C 0.28432(11) 0.3253(4) -0.03925(19)
C28 C 0.34095(18) 0.4845(4) -0.0095(2)
C29 C 0.31598(9) -0.0290(3) 0.25802(13)
C30 C 0.28223(12) -0.0976(3) 0.19829(16)
C31 C 0.28501(11) 0.0709(3) 0.25924(17)
C32 C 0.33190(11) -0.0933(4) 0.32176(16)
C33 C 0.63431(9) 0.4740(2) 0.27471(13)
C34 C 0.64687(12) 0.5734(3) 0.24526(16)
C35 C 0.68317(9) 0.4134(3) 0.32144(13)
C36 C 0.61098(11) 0.5147(3) 0.31606(15)
C37 C 0.67052(10) 0.1216(3) -0.00107(15)
C38 C 0.68395(13) 0.0001(3) 0.0059(2)
C39 C 0.71766(10) 0.1830(3) 0.04842(17)
C40 C 0.65446(13) 0.1600(4) -0.07103(18)
H1 H 0.48214 0.16034 0.04317
H2 H 0.43627 0.36847 0.04869
H3 H 0.32575 0.23063 0.07078
H4 H 0.31912 0.09595 0.1653
H5 H 0.41658 -0.05548 0.33659
H6 H 0.48464 0.01802 0.33076
H7 H 0.53766 0.40564 0.23112
H8 H 0.64899 0.36127 0.187
H9 H 0.6616 0.24317 0.09114
H10 H 0.57842 0.03462 -0.05971
H11 H 0.51006 0.0533 -0.0412
H12 H 0.38099 0.36289 -0.06117
H13 H 0.3225 0.35192 -0.11389
H14 H 0.35285 0.24816 -0.06958
H15 H 0.26121 0.36098 -0.08161
H16 H 0.27524 0.34548 -0.00541
H17 H 0.28217 0.2453 -0.04521
H18 H 0.3225 0.51919 -0.05347
H19 H 0.3763 0.50614 0.01178
H20 H 0.32673 0.50841 0.0183
H21 H 0.30069 -0.16199 0.1963
H22 H 0.27078 -0.05364 0.1577
H23 H 0.25319 -0.12191 0.2019
H24 H 0.25681 0.04489 0.26426
H25 H 0.27223 0.11213 0.21744
H26 H 0.30641 0.11897 0.2968
H27 H 0.35205 -0.15684 0.32314
H28 H 0.30207 -0.11873 0.32306
H29 H 0.35186 -0.04574 0.36028
H30 H 0.66447 0.5488 0.22183
H31 H 0.66836 0.62402 0.28117
H32 H 0.61584 0.61111 0.21384
H33 H 0.67563 0.34903 0.34057
H34 H 0.7056 0.46298 0.35737
H35 H 0.69948 0.38944 0.29621
H36 H 0.63486 0.56247 0.35195
H37 H 0.60278 0.45151 0.33533
H38 H 0.58035 0.55613 0.28738
H39 H 0.69516 -0.02373 0.05175
H40 H 0.71093 -0.0117 -0.00456
H41 H 0.65443 -0.0427 -0.02495
H42 H 0.728 0.15775 0.09375
H43 H 0.71073 0.2622 0.04515
H44 H 0.74459 0.16864 0.03818
H45 H 0.68184 0.14805 -0.08069
H46 H 0.64621 0.2385 -0.075
H47 H 0.62491 0.11821 -0.10282
N1A N 0.52572(6) 0.15742(17) 0.27067(9)
N2A N 0.48700(7) 0.18528(17) 0.43958(10)
C1A C 0.55218(7) 0.2174(2) 0.32972(11)
C2A C 0.53604(8) 0.2821(2) 0.36573(11)
C3A C 0.57370(8) 0.3250(2) 0.42559(12)
C4A C 0.62523(8) 0.3090(2) 0.45083(12)
C5A C 0.63966(8) 0.2437(2) 0.41351(11)
C6A C 0.60395(7) 0.1976(2) 0.35354(11)
C7A C 0.60751(8) 0.1253(2) 0.30598(11)
C8A C 0.64746(8) 0.0809(2) 0.30091(11)
C9A C 0.63904(8) 0.0155(2) 0.24737(12)
C10A C 0.58943(9) -0.0083(2) 0.19946(13)
C11A C 0.54876(8) 0.0343(2) 0.20261(12)
C12A C 0.55850(7) 0.1009(2) 0.25567(11)
C13A C 0.46418(8) 0.2569(2) 0.38638(11)
C14A C 0.48253(8) 0.3028(2) 0.34714(11)
C15A C 0.45041(8) 0.3722(2) 0.29565(12)
C16A C 0.40094(8) 0.3954(2) 0.28129(11)
C17A C 0.38407(8) 0.3467(2) 0.32143(12)
C18A C 0.41479(8) 0.2776(2) 0.37328(11)
C19A C 0.40842(8) 0.2152(2) 0.42210(12)
C20A C 0.36870(8) 0.2040(2) 0.43530(12)
C21A C 0.37289(9) 0.1373(2) 0.48586(13)
C22A C 0.41851(9) 0.0811(3) 0.52477(13)
C23A C 0.45936(9) 0.0911(2) 0.51401(13)
C24A C 0.45337(8) 0.1588(2) 0.46166(12)
C25A C 0.66313(9) 0.3625(3) 0.51710(13)
C26A C 0.65060(14) 0.3284(5) 0.57008(16)
C27A C 0.71568(11) 0.3253(4) 0.53925(19)
C28A C 0.65905(18) 0.4845(4) 0.5095(2)
C29A C 0.68402(9) -0.0290(3) 0.24198(13)
C30A C 0.71777(12) -0.0976(3) 0.30171(16)
C31A C 0.71499(11) 0.0709(3) 0.24076(17)
C32A C 0.66810(11) -0.0933(4) 0.17824(16)
C33A C 0.36569(9) 0.4740(2) 0.22529(13)
C34A C 0.35313(12) 0.5734(3) 0.25474(16)
C35A C 0.31683(9) 0.4134(3) 0.17856(13)
C36A C 0.38902(11) 0.5147(3) 0.18394(15)
C37A C 0.32948(10) 0.1216(3) 0.50107(15)
C38A C 0.31605(13) 0.0001(3) 0.4941(2)
C39A C 0.28234(10) 0.1830(3) 0.45158(17)
C40A C 0.34554(13) 0.1600(4) 0.57103(18)
H1A H 0.51786 0.16034 0.45683
H2A H 0.56373 0.36847 0.45131
H3A H 0.67425 0.23063 0.42922
H4A H 0.68088 0.09595 0.3347
H5A H 0.58342 -0.05548 0.16341
H6A H 0.51536 0.01802 0.16924
H7A H 0.46234 0.40564 0.26888
H8A H 0.35101 0.36127 0.313
H9A H 0.3384 0.24317 0.40886
H10A H 0.42158 0.03462 0.55971
H11A H 0.48994 0.0533 0.5412
H12A H 0.61901 0.36289 0.56117
H13A H 0.6775 0.35192 0.61389
H14A H 0.64715 0.24816 0.56958
H15A H 0.73879 0.36098 0.58161
H16A H 0.72476 0.34548 0.50541
H17A H 0.71783 0.2453 0.54521
H18A H 0.6775 0.51919 0.55347
H19A H 0.6237 0.50614 0.48822
H20A H 0.67327 0.50841 0.4817
H21A H 0.69931 -0.16199 0.3037
H22A H 0.72922 -0.05364 0.3423
H23A H 0.74681 -0.12191 0.2981
H24A H 0.74319 0.04489 0.23574
H25A H 0.72777 0.11213 0.28256
H26A H 0.69359 0.11897 0.2032
H27A H 0.64795 -0.15684 0.17686
H28A H 0.69793 -0.11873 0.17694
H29A H 0.64814 -0.04574 0.13972
H30A H 0.33553 0.5488 0.27817
H31A H 0.33164 0.62402 0.21883
H32A H 0.38416 0.61111 0.28616
H33A H 0.32437 0.34903 0.15943
H34A H 0.2944 0.46298 0.14263
H35A H 0.30052 0.38944 0.20379
H36A H 0.36514 0.56247 0.14805
H37A H 0.39722 0.45151 0.16467
H38A H 0.41965 0.55613 0.21262
H39A H 0.30484 -0.02373 0.44825
H40A H 0.28907 -0.0117 0.50456
H41A H 0.34557 -0.0427 0.52495
H42A H 0.272 0.15775 0.40625
H43A H 0.28927 0.2622 0.45485
H44A H 0.25541 0.16864 0.46182
H45A H 0.31816 0.14805 0.58069
H46A H 0.35379 0.2385 0.575
H47A H 0.37509 0.11821 0.60282
loop_
_geom_bond_atom_site_label_1
_geom_bond_atom_site_label_2
_geom_bond_site_symmetry_1
_geom_bond_site_symmetry_2
N1 C1 1_555 1_555
N2 C13 1_555 1_555
C1 C2 1_555 1_555
C2 C3 1_555 1_555
C3 C4 1_555 1_555
C4 C5 1_555 1_555
C5 C6 1_555 1_555
C6 C1 1_555 1_555
C7 C6 1_555 1_555
C8 C7 1_555 1_555
C9 C8 1_555 1_555
C10 C9 1_555 1_555
C11 C10 1_555 1_555
C12 N1 1_555 1_555
C13 C14 1_555 1_555
C14 C2 1_555 1_555
C15 C14 1_555 1_555
C16 C15 1_555 1_555
C17 C16 1_555 1_555
C18 C13 1_555 1_555
C19 C18 1_555 1_555
C20 C19 1_555 1_555
C21 C20 1_555 1_555
C22 C21 1_555 1_555
C23 C22 1_555 1_555
C24 N2 1_555 1_555
C25 C4 1_555 1_555
C26 C25 1_555 1_555
C27 C25 1_555 1_555
C28 C25 1_555 1_555
C29 C9 1_555 1_555
C30 C29 1_555 1_555
C31 C29 1_555 1_555
C32 C29 1_555 1_555
C33 C16 1_555 1_555
C34 C33 1_555 1_555
C35 C33 1_555 1_555
C36 C33 1_555 1_555
C37 C21 1_555 1_555
C38 C37 1_555 1_555
C39 C37 1_555 1_555
C40 C37 1_555 1_555
H1 N2 1_555 1_555
H2 C3 1_555 1_555
H3 C5 1_555 1_555
H4 C8 1_555 1_555
H5 C10 1_555 1_555
H6 C11 1_555 1_555
H7 C15 1_555 1_555
H8 C17 1_555 1_555
H9 C20 1_555 1_555
H10 C22 1_555 1_555
H11 C23 1_555 1_555
H12 C26 1_555 1_555
H13 C26 1_555 1_555
H14 C26 1_555 1_555
H15 C27 1_555 1_555
H16 C27 1_555 1_555
H17 C27 1_555 1_555
H18 C28 1_555 1_555
H19 C28 1_555 1_555
H20 C28 1_555 1_555
H21 C30 1_555 1_555
H22 C30 1_555 1_555
H23 C30 1_555 1_555
H24 C31 1_555 1_555
H25 C31 1_555 1_555
H26 C31 1_555 1_555
H27 C32 1_555 1_555
H28 C32 1_555 1_555
H29 C32 1_555 1_555
H30 C34 1_555 1_555
H31 C34 1_555 1_555
H32 C34 1_555 1_555
H33 C35 1_555 1_555
H34 C35 1_555 1_555
H35 C35 1_555 1_555
H36 C36 1_555 1_555
H37 C36 1_555 1_555
H38 C36 1_555 1_555
H39 C38 1_555 1_555
H40 C38 1_555 1_555
H41 C38 1_555 1_555
H42 C39 1_555 1_555
H43 C39 1_555 1_555
H44 C39 1_555 1_555
H45 C40 1_555 1_555
H46 C40 1_555 1_555
H47 C40 1_555 1_555
N1A N1 1_555 1_555
N2A C13A 1_555 1_555
C1A N1A 1_555 1_555
C2A C1A 1_555 1_555
C3A C2A 1_555 1_555
C4A C3A 1_555 1_555
C5A C4A 1_555 1_555
C6A C1A 1_555 1_555
C7A C6A 1_555 1_555
C8A C7A 1_555 1_555
C9A C8A 1_555 1_555
C10A C9A 1_555 1_555
C11A C10A 1_555 1_555
C12A N1A 1_555 1_555
C13A C14A 1_555 1_555
C14A C2A 1_555 1_555
C15A C14A 1_555 1_555
C16A C15A 1_555 1_555
C17A C16A 1_555 1_555
C18A C13A 1_555 1_555
C19A C18A 1_555 1_555
C20A C19A 1_555 1_555
C21A C20A 1_555 1_555
C22A C21A 1_555 1_555
C23A C22A 1_555 1_555
C24A N2A 1_555 1_555
C25A C4A 1_555 1_555
C26A C25A 1_555 1_555
C27A C25A 1_555 1_555
C28A C25A 1_555 1_555
C29A C9A 1_555 1_555
C30A C29A 1_555 1_555
C31A C29A 1_555 1_555
C32A C29A 1_555 1_555
C33A C16A 1_555 1_555
C34A C33A 1_555 1_555
C35A C33A 1_555 1_555
C36A C33A 1_555 1_555
C37A C21A 1_555 1_555
C38A C37A 1_555 1_555
C39A C37A 1_555 1_555
C40A C37A 1_555 1_555
H1A N2A 1_555 1_555
H2A C3A 1_555 1_555
H3A C5A 1_555 1_555
H4A C8A 1_555 1_555
H5A C10A 1_555 1_555
H6A C11A 1_555 1_555
H7A C15A 1_555 1_555
H8A C17A 1_555 1_555
H9A C20A 1_555 1_555
H10A C22A 1_555 1_555
H11A C23A 1_555 1_555
H12A C26A 1_555 1_555
H13A C26A 1_555 1_555
H14A C26A 1_555 1_555
H15A C27A 1_555 1_555
H16A C27A 1_555 1_555
H17A C27A 1_555 1_555
H18A C28A 1_555 1_555
H19A C28A 1_555 1_555
H20A C28A 1_555 1_555
H21A C30A 1_555 1_555
H22A C30A 1_555 1_555
H23A C30A 1_555 1_555
H24A C31A 1_555 1_555
H25A C31A 1_555 1_555
H26A C31A 1_555 1_555
H27A C32A 1_555 1_555
H28A C32A 1_555 1_555
H29A C32A 1_555 1_555
H30A C34A 1_555 1_555
H31A C34A 1_555 1_555
H32A C34A 1_555 1_555
H33A C35A 1_555 1_555
H34A C35A 1_555 1_555
H35A C35A 1_555 1_555
H36A C36A 1_555 1_555
H37A C36A 1_555 1_555
H38A C36A 1_555 1_555
H39A C38A 1_555 1_555
H40A C38A 1_555 1_555
H41A C38A 1_555 1_555
H42A C39A 1_555 1_555
H43A C39A 1_555 1_555
H44A C39A 1_555 1_555
H45A C40A 1_555 1_555
H46A C40A 1_555 1_555
H47A C40A 1_555 1_555
C7 C12 1_555 1_555
C11 C12 1_555 1_555
C17 C18 1_555 1_555
C19 C24 1_555 1_555
C23 C24 1_555 1_555
C5A C6A 1_555 1_555
C7A C12A 1_555 1_555
C11A C12A 1_555 1_555
C17A C18A 1_555 1_555
C19A C24A 1_555 1_555
C23A C24A 1_555 1_555

#END
