
#######################################################################
#
#                 Cambridge Crystallographic Data Centre
#                                CCDC 
#
#######################################################################
#
# If this CIF has been generated from an entry in the Cambridge 
# Structural Database, then it will include bibliographic, chemical, 
# crystal, experimental, refinement or atomic coordinate data resulting 
# from the CCDC's data processing and validation procedures.
#
#######################################################################

data_LUNPOZ01
_chemical_formula_moiety         'C15 H14 Cl1 N1 O1'
_chemical_name_systematic        (R)-N-(2-Chlorobenzoyl)-\a-methylbenzylamine
_symmetry_cell_setting           orthorhombic
_symmetry_space_group_name_H-M   'P 21 21 21'
_symmetry_Int_Tables_number      19
_space_group_name_Hall           'P 2ac 2ab'
loop_
_symmetry_equiv_pos_site_id
_symmetry_equiv_pos_as_xyz
1 x,y,z
2 1/2-x,-y,1/2+z
3 1/2+x,1/2-y,-z
4 -x,1/2+y,1/2-z
_cell_length_a                   8.3945(5)
_cell_length_b                   9.5771(5)
_cell_length_c                   17.0613(10)
_cell_angle_alpha                90
_cell_angle_beta                 90
_cell_angle_gamma                90
_cell_volume                     1371.64
_exptl_crystal_colour            colorless
_exptl_crystal_description       needles
_chemical_melting_point          108-110deg.C
_cell_formula_units_Z            4
_exptl_crystal_recrystallization_method methanol
loop_
_atom_site_label
_atom_site_type_symbol
_atom_site_fract_x
_atom_site_fract_y
_atom_site_fract_z
Cl1 Cl 1.22548(16) 0.90192(18) 0.10142(8)
O1 O 1.0285(5) 0.6163(3) 0.22000(18)
N1 N 1.0631(4) 0.8267(4) 0.27463(19)
H1 H 1.0411 0.9142 0.2712
C1 C 0.7880(9) 0.9213(6) 0.0164(3)
H2 H 0.7394 0.9561 -0.0285
C2 C 0.6978(7) 0.8545(5) 0.0717(3)
H3 H 0.5882 0.8461 0.0654
C3 C 0.7730(6) 0.7992(5) 0.1380(3)
H4 H 0.7131 0.7522 0.1755
C4 C 0.9355(5) 0.8137(4) 0.1484(2)
C5 C 1.0227(6) 0.8836(5) 0.0916(3)
C6 C 0.9471(9) 0.9373(5) 0.0261(3)
H5 H 1.0061 0.9848 -0.0115
C7 C 1.0132(5) 0.7438(4) 0.2176(3)
C8 C 1.1533(5) 0.7792(4) 0.3432(3)
H6 H 1.1476 0.6770 0.3450
C9 C 1.0773(6) 0.8361(6) 0.4177(3)
H7 H 1.0687 0.9358 0.4140
H8 H 1.1422 0.8120 0.4620
H9 H 0.9731 0.7963 0.4240
C10 C 1.3255(5) 0.8200(5) 0.3365(2)
C11 C 1.3734(6) 0.9472(5) 0.3071(3)
H10 H 1.2966 1.0086 0.2883
C12 C 1.5302(7) 0.9863(6) 0.3048(3)
H11 H 1.5575 1.0737 0.2852
C13 C 1.6458(6) 0.8994(7) 0.3306(3)
H12 H 1.7524 0.9257 0.3285
C14 C 1.6027(7) 0.7725(6) 0.3597(3)
H13 H 1.6809 0.7116 0.3777
C15 C 1.4448(6) 0.7328(5) 0.3629(3)
H14 H 1.4183 0.6457 0.3832
loop_
_geom_bond_atom_site_label_1
_geom_bond_atom_site_label_2
_geom_bond_site_symmetry_1
_geom_bond_site_symmetry_2
Cl1 C5 1_555 1_555
O1 C7 1_555 1_555
N1 H1 1_555 1_555
C1 H2 1_555 1_555
C2 C1 1_555 1_555
H3 C2 1_555 1_555
C3 C2 1_555 1_555
H4 C3 1_555 1_555
C4 C3 1_555 1_555
C5 C4 1_555 1_555
C6 C1 1_555 1_555
H5 C6 1_555 1_555
C7 N1 1_555 1_555
C8 N1 1_555 1_555
H6 C8 1_555 1_555
C9 C8 1_555 1_555
H7 C9 1_555 1_555
H8 C9 1_555 1_555
H9 C9 1_555 1_555
C10 C8 1_555 1_555
C11 C10 1_555 1_555
H10 C11 1_555 1_555
C12 C11 1_555 1_555
H11 C12 1_555 1_555
C13 C12 1_555 1_555
H12 C13 1_555 1_555
C14 C13 1_555 1_555
H13 C14 1_555 1_555
C15 C10 1_555 1_555
H14 C15 1_555 1_555
C4 C7 1_555 1_555
C5 C6 1_555 1_555
C14 C15 1_555 1_555

#END
