
#######################################################################
#
#                 Cambridge Crystallographic Data Centre
#                                CCDC 
#
#######################################################################
#
# If this CIF has been generated from an entry in the Cambridge 
# Structural Database, then it will include bibliographic, chemical, 
# crystal, experimental, refinement or atomic coordinate data resulting 
# from the CCDC's data processing and validation procedures.
#
#######################################################################

data_LUNQOA
_chemical_formula_moiety         'C9 H8 Cl3 N1 O2'
_chemical_name_systematic        '(R)-2-(2,4,5-Trichloroanilino)propionic acid'
_symmetry_cell_setting           orthorhombic
_symmetry_space_group_name_H-M   'P 21 21 21'
_symmetry_Int_Tables_number      19
_space_group_name_Hall           'P 2ac 2ab'
loop_
_symmetry_equiv_pos_site_id
_symmetry_equiv_pos_as_xyz
1 x,y,z
2 1/2-x,-y,1/2+z
3 1/2+x,1/2-y,-z
4 -x,1/2+y,1/2-z
_cell_length_a                   6.6692(5)
_cell_length_b                   7.7834(15)
_cell_length_c                   21.5744(18)
_cell_angle_alpha                90
_cell_angle_beta                 90
_cell_angle_gamma                90
_cell_volume                     1119.91
_exptl_crystal_colour            'light yellow'
_exptl_crystal_description       needle
_chemical_melting_point          165-167deg.C
_cell_formula_units_Z            4
_exptl_crystal_recrystallization_method dichloromethane/methanol/hexane
loop_
_atom_site_label
_atom_site_type_symbol
_atom_site_fract_x
_atom_site_fract_y
_atom_site_fract_z
Cl1 Cl 0.3572(2) 0.3095(2) 0.86506(7)
Cl2 Cl 0.6792(2) 0.3087(3) 0.63829(7)
Cl3 Cl 1.0621(2) 0.1147(3) 0.69131(7)
N1 N 0.7162(7) 0.1112(8) 0.9023(2)
O1 O 0.9903(6) 0.2743(6) 0.97876(18)
O2 O 1.1741(5) 0.0363(5) 0.98578(19)
H1 H 1.2508 0.1002 1.0045
C1 C 1.0151(8) 0.1243(9) 0.9673(2)
C2 C 0.8682(7) 0.0089(8) 0.9323(2)
H2 H 0.9424 -0.0545 0.9004
C3 C 0.7768(9) -0.1194(9) 0.9772(3)
H3 H 0.6902 -0.1963 0.9549
H4 H 0.7007 -0.0591 1.0080
H5 H 0.8817 -0.1838 0.9969
C4 C 0.7164(7) 0.1588(7) 0.8412(2)
C5 C 0.5545(7) 0.2497(7) 0.8169(2)
C6 C 0.5438(7) 0.2940(8) 0.7549(2)
H6 H 0.4319 0.3520 0.7400
C7 C 0.6964(8) 0.2529(8) 0.7156(2)
C8 C 0.8602(7) 0.1667(8) 0.7382(2)
C9 C 0.8711(7) 0.1210(8) 0.8009(2)
H7 H 0.9843 0.0643 0.8156
H8 H 0.630(7) 0.143(7) 0.921(2)
loop_
_geom_bond_atom_site_label_1
_geom_bond_atom_site_label_2
_geom_bond_site_symmetry_1
_geom_bond_site_symmetry_2
Cl1 C5 1_555 1_555
Cl2 C7 1_555 1_555
Cl3 C8 1_555 1_555
N1 C2 1_555 1_555
O1 C1 1_555 1_555
O2 H1 1_555 1_555
C1 O2 1_555 1_555
C2 C1 1_555 1_555
H2 C2 1_555 1_555
C3 C2 1_555 1_555
H3 C3 1_555 1_555
H4 C3 1_555 1_555
H5 C3 1_555 1_555
C4 N1 1_555 1_555
C5 C4 1_555 1_555
C6 C5 1_555 1_555
H6 C6 1_555 1_555
C7 C6 1_555 1_555
C8 C7 1_555 1_555
C9 C4 1_555 1_555
H7 C9 1_555 1_555
H8 N1 1_555 1_555
C8 C9 1_555 1_555

#END
