
#######################################################################
#
#                 Cambridge Crystallographic Data Centre
#                                CCDC 
#
#######################################################################
#
# If this CIF has been generated from an entry in the Cambridge 
# Structural Database, then it will include bibliographic, chemical, 
# crystal, experimental, refinement or atomic coordinate data resulting 
# from the CCDC's data processing and validation procedures.
#
#######################################################################

data_LUNSAQ
_chemical_formula_moiety         'C23 H24 N1 O1 P1'
_chemical_name_systematic        
'(R)-2-t-Butyl-5-methyl-6-phenyl-5,6-dihydrodibenzo[c,e][1,2]azaphosphinine 6-oxide'
_symmetry_cell_setting           monoclinic
_symmetry_space_group_name_H-M   'P 21'
_symmetry_Int_Tables_number      4
_space_group_name_Hall           'P 2yb'
loop_
_symmetry_equiv_pos_site_id
_symmetry_equiv_pos_as_xyz
1 x,y,z
2 -x,1/2+y,-z
_cell_length_a                   8.927(2)
_cell_length_b                   10.437(3)
_cell_length_c                   10.946(3)
_cell_angle_alpha                90
_cell_angle_beta                 104.592(3)
_cell_angle_gamma                90
_cell_volume                     986.955
_exptl_crystal_colour            colorless
_exptl_crystal_description       block
_chemical_melting_point          '173.8-174.9 deg.C'
_cell_formula_units_Z            2
_exptl_crystal_recrystallization_method n-hexane/tetrahydrofuran
loop_
_atom_site_label
_atom_site_type_symbol
_atom_site_fract_x
_atom_site_fract_y
_atom_site_fract_z
P1 P -0.35211(5) -0.57621(5) -0.04260(5)
O1 O -0.29173(18) -0.69876(15) -0.07847(15)
N1 N -0.32642(19) -0.54824(16) 0.11191(16)
C1 C -0.5574(2) -0.5625(2) -0.10669(19)
C2 C -0.6340(3) -0.6513(2) -0.1953(2)
H1 H -0.5796 -0.7190 -0.2191
C3 C -0.7925(3) -0.6388(3) -0.2486(2)
H2 H -0.8438 -0.6977 -0.3084
C4 C -0.8729(3) -0.5392(3) -0.2126(3)
H3 H -0.9786 -0.5313 -0.2483
C5 C -0.7983(3) -0.4506(2) -0.1238(3)
H4 H -0.8538 -0.3839 -0.0998
C6 C -0.6402(3) -0.4618(2) -0.0709(2)
H5 H -0.5895 -0.4023 -0.0116
C7 C -0.2673(2) -0.4361(2) -0.0895(2)
C8 C -0.3159(2) -0.3973(2) -0.2162(2)
H6 H -0.3897 -0.4452 -0.2730
C9 C -0.2548(3) -0.2886(2) -0.2569(2)
H7 H -0.2854 -0.2639 -0.3412
C10 C -0.1465(2) -0.2162(2) -0.1702(2)
H8 H -0.1070 -0.1416 -0.1966
C11 C -0.0975(2) -0.2537(2) -0.0460(2)
H9 H -0.0259 -0.2036 0.0105
C12 C -0.1539(2) -0.36680(19) -0.00284(19)
C13 C -0.0976(2) -0.40996(19) 0.12933(19)
C14 C -0.1863(2) -0.49536(19) 0.1837(2)
C15 C -0.1324(3) -0.5240(2) 0.3122(2)
H10 H -0.1903 -0.5779 0.3502
C16 C 0.0057(3) -0.4736(2) 0.3842(2)
H11 H 0.0369 -0.4928 0.4698
C17 C 0.0986(2) -0.3952(2) 0.3314(2)
C18 C 0.0438(2) -0.36566(19) 0.20381(19)
H12 H 0.1044 -0.3139 0.1663
C19 C 0.2554(3) -0.3436(2) 0.4064(2)
C20 C 0.2866(3) -0.3740(3) 0.5474(2)
H13 H 0.2022 -0.3431 0.5790
H14 H 0.3808 -0.3331 0.5920
H15 H 0.2962 -0.4650 0.5596
C21 C 0.3831(3) -0.4036(3) 0.3539(3)
H16 H 0.3828 -0.4948 0.3649
H17 H 0.4817 -0.3697 0.3984
H18 H 0.3646 -0.3838 0.2657
C22 C 0.2604(3) -0.1972(2) 0.3923(2)
H19 H 0.2453 -0.1756 0.3048
H20 H 0.3591 -0.1656 0.4393
H21 H 0.1799 -0.1590 0.4240
C23 C -0.4134(3) -0.6325(2) 0.1769(2)
H22 H -0.5081 -0.6586 0.1189
H23 H -0.4368 -0.5871 0.2462
H24 H -0.3523 -0.7067 0.2083
loop_
_geom_bond_atom_site_label_1
_geom_bond_atom_site_label_2
_geom_bond_site_symmetry_1
_geom_bond_site_symmetry_2
P1 O1 1_555 1_555
N1 P1 1_555 1_555
C1 P1 1_555 1_555
C2 C1 1_555 1_555
H1 C2 1_555 1_555
C3 C2 1_555 1_555
H2 C3 1_555 1_555
C4 C3 1_555 1_555
H3 C4 1_555 1_555
C5 C4 1_555 1_555
H4 C5 1_555 1_555
C6 C1 1_555 1_555
H5 C6 1_555 1_555
C7 P1 1_555 1_555
C8 C7 1_555 1_555
H6 C8 1_555 1_555
C9 C8 1_555 1_555
H7 C9 1_555 1_555
C10 C9 1_555 1_555
H8 C10 1_555 1_555
C11 C10 1_555 1_555
H9 C11 1_555 1_555
C12 C7 1_555 1_555
C13 C12 1_555 1_555
C14 N1 1_555 1_555
C15 C14 1_555 1_555
H10 C15 1_555 1_555
C16 C15 1_555 1_555
H11 C16 1_555 1_555
C17 C16 1_555 1_555
C18 C13 1_555 1_555
H12 C18 1_555 1_555
C19 C17 1_555 1_555
C20 C19 1_555 1_555
H13 C20 1_555 1_555
H14 C20 1_555 1_555
H15 C20 1_555 1_555
C21 C19 1_555 1_555
H16 C21 1_555 1_555
H17 C21 1_555 1_555
H18 C21 1_555 1_555
C22 C19 1_555 1_555
H19 C22 1_555 1_555
H20 C22 1_555 1_555
H21 C22 1_555 1_555
C23 N1 1_555 1_555
H22 C23 1_555 1_555
H23 C23 1_555 1_555
H24 C23 1_555 1_555
C5 C6 1_555 1_555
C11 C12 1_555 1_555
C13 C14 1_555 1_555
C17 C18 1_555 1_555

#END
