
#######################################################################
#
#                 Cambridge Crystallographic Data Centre
#                                CCDC 
#
#######################################################################
#
# If this CIF has been generated from an entry in the Cambridge 
# Structural Database, then it will include bibliographic, chemical, 
# crystal, experimental, refinement or atomic coordinate data resulting 
# from the CCDC's data processing and validation procedures.
#
#######################################################################

data_LUNVUN
_chemical_formula_moiety         'C28 H23 N3 O4 S1'
_chemical_name_systematic        
cis-2-(1-((4-Methylphenyl)sulfonyl)-2,5-diphenyl-2,5-dihydro-1H-pyrrol-3-yl)-5-nitropyridine
_symmetry_cell_setting           monoclinic
_symmetry_space_group_name_H-M   'P 21/n'
_symmetry_Int_Tables_number      14
_space_group_name_Hall           '-P 2yn'
loop_
_symmetry_equiv_pos_site_id
_symmetry_equiv_pos_as_xyz
1 x,y,z
2 1/2-x,1/2+y,1/2-z
3 -x,-y,-z
4 1/2+x,1/2-y,1/2+z
_cell_length_a                   12.8623(2)
_cell_length_b                   11.3355(2)
_cell_length_c                   16.9579(3)
_cell_angle_alpha                90
_cell_angle_beta                 94.4930(10)
_cell_angle_gamma                90
_cell_volume                     2464.87
_exptl_crystal_colour            colorless
_exptl_crystal_description       block
_cell_formula_units_Z            4
loop_
_atom_site_label
_atom_site_type_symbol
_atom_site_fract_x
_atom_site_fract_y
_atom_site_fract_z
S1 S 0.69881(2) 0.54995(3) 0.098784(18)
O1 O 1.27046(9) -0.03146(9) 0.15539(8)
O2 O 0.75468(7) 0.62163(8) 0.04705(6)
O3 O 1.31398(8) 0.10223(10) 0.07269(7)
O4 O 0.62139(7) 0.60062(8) 0.14487(5)
N1 N 0.78605(8) 0.49139(10) 0.16267(6)
N2 N 1.25723(9) 0.06405(11) 0.12168(8)
N3 N 1.05791(9) 0.29955(11) 0.10912(7)
C1 C 0.49562(12) 0.13947(13) -0.08212(9)
H1 H 0.5259 0.0676 -0.0609
H2 H 0.5071 0.1452 -0.1372
H3 H 0.4220 0.1394 -0.0760
C2 C 0.54551(11) 0.24312(12) -0.03847(8)
C3 C 0.63484(11) 0.29651(13) -0.06379(8)
H4 H 0.6637 0.2678 -0.1086
C4 C 0.68148(10) 0.39144(12) -0.02351(8)
H5 H 0.7407 0.4265 -0.0412
C5 C 0.63839(10) 0.43353(12) 0.04377(8)
C6 C 0.88863(10) 0.45459(12) 0.13438(8)
H6 H 0.8799 0.4345 0.0781
C7 C 0.91197(10) 0.34450(12) 0.18277(8)
C8 C 1.00433(10) 0.27189(12) 0.17164(8)
C9 C 1.03141(11) 0.17672(13) 0.22168(9)
H7 H 0.9935 0.1608 0.2650
C10 C 1.11488(11) 0.10697(13) 0.20594(9)
H8 H 1.1344 0.0426 0.2377
C11 C 1.16858(11) 0.13611(12) 0.14122(9)
C12 C 0.74795(10) 0.40594(11) 0.22059(7)
H9 H 0.6871 0.3645 0.1956
C13 C 0.83726(10) 0.32107(11) 0.23030(8)
H10 H 0.8401 0.2585 0.2659
C14 C 1.13937(11) 0.23230(13) 0.09459(9)
H11 H 1.1775 0.2507 0.0519
C15 C 0.96917(10) 0.55218(12) 0.14778(8)
C16 C 1.00226(11) 0.61435(13) 0.08379(9)
H12 H 0.9762 0.5952 0.0327
C17 C 1.07415(13) 0.70499(14) 0.09610(12)
H13 H 1.0973 0.7451 0.0530
C18 C 1.11160(12) 0.73625(14) 0.17170(12)
H14 H 1.1590 0.7979 0.1796
C19 C 1.07808(12) 0.67510(14) 0.23548(11)
H15 H 1.1024 0.6964 0.2866
C20 C 1.00837(11) 0.58216(13) 0.22371(9)
H16 H 0.9879 0.5398 0.2668
C21 C 0.71840(10) 0.45982(12) 0.29772(8)
C22 C 0.64395(12) 0.40285(13) 0.33921(9)
H17 H 0.6113 0.3353 0.3183
C23 C 0.61824(15) 0.44644(15) 0.41157(10)
H18 H 0.5682 0.4082 0.4390
C24 C 0.66650(15) 0.54623(14) 0.44299(9)
H19 H 0.6491 0.5752 0.4916
C25 C 0.74063(13) 0.60330(13) 0.40238(9)
H20 H 0.7734 0.6705 0.4237
C26 C 0.76640(11) 0.56039(12) 0.32969(8)
H21 H 0.8161 0.5993 0.3023
C27 C 0.54859(10) 0.38240(12) 0.06953(8)
H22 H 0.5195 0.4115 0.1141
C28 C 0.50307(11) 0.28798(13) 0.02830(8)
H23 H 0.4431 0.2539 0.0455
loop_
_geom_bond_atom_site_label_1
_geom_bond_atom_site_label_2
_geom_bond_site_symmetry_1
_geom_bond_site_symmetry_2
S1 O2 1_555 1_555
O1 N2 1_555 1_555
O3 N2 1_555 1_555
O4 S1 1_555 1_555
N1 S1 1_555 1_555
N2 C11 1_555 1_555
N3 C8 1_555 1_555
C1 H1 1_555 1_555
H2 C1 1_555 1_555
H3 C1 1_555 1_555
C2 C1 1_555 1_555
C3 C2 1_555 1_555
H4 C3 1_555 1_555
C4 C3 1_555 1_555
H5 C4 1_555 1_555
C5 S1 1_555 1_555
C6 N1 1_555 1_555
H6 C6 1_555 1_555
C7 C6 1_555 1_555
C8 C7 1_555 1_555
C9 C8 1_555 1_555
H7 C9 1_555 1_555
C10 C9 1_555 1_555
H8 C10 1_555 1_555
C11 C10 1_555 1_555
C12 N1 1_555 1_555
H9 C12 1_555 1_555
C13 C7 1_555 1_555
H10 C13 1_555 1_555
C14 N3 1_555 1_555
H11 C14 1_555 1_555
C15 C6 1_555 1_555
C16 C15 1_555 1_555
H12 C16 1_555 1_555
C17 C16 1_555 1_555
H13 C17 1_555 1_555
C18 C17 1_555 1_555
H14 C18 1_555 1_555
C19 C18 1_555 1_555
H15 C19 1_555 1_555
C20 C15 1_555 1_555
H16 C20 1_555 1_555
C21 C12 1_555 1_555
C22 C21 1_555 1_555
H17 C22 1_555 1_555
C23 C22 1_555 1_555
H18 C23 1_555 1_555
C24 C23 1_555 1_555
H19 C24 1_555 1_555
C25 C24 1_555 1_555
H20 C25 1_555 1_555
C26 C21 1_555 1_555
H21 C26 1_555 1_555
C27 C5 1_555 1_555
H22 C27 1_555 1_555
C28 C2 1_555 1_555
H23 C28 1_555 1_555
C4 C5 1_555 1_555
C11 C14 1_555 1_555
C12 C13 1_555 1_555
C19 C20 1_555 1_555
C25 C26 1_555 1_555
C27 C28 1_555 1_555

#END
