
#######################################################################
#
#                 Cambridge Crystallographic Data Centre
#                                CCDC 
#
#######################################################################
#
# If this CIF has been generated from an entry in the Cambridge 
# Structural Database, then it will include bibliographic, chemical, 
# crystal, experimental, refinement or atomic coordinate data resulting 
# from the CCDC's data processing and validation procedures.
#
#######################################################################

data_LUNWAU
_chemical_formula_moiety         'C37 H49 N5 O1,0.67(C6 H14)'
_chemical_name_systematic        
'Octaethyl-2-cyano-4-methoxysecochlorin n-hexane solvate'
_symmetry_cell_setting           monoclinic
_symmetry_space_group_name_H-M   'P 21/c'
_symmetry_Int_Tables_number      14
_space_group_name_Hall           '-P 2ybc'
loop_
_symmetry_equiv_pos_site_id
_symmetry_equiv_pos_as_xyz
1 x,y,z
2 -x,1/2+y,1/2-z
3 -x,-y,-z
4 x,1/2-y,1/2+z
_cell_length_a                   26.0651(12)
_cell_length_b                   15.2582(7)
_cell_length_c                   9.5468(5)
_cell_angle_alpha                90
_cell_angle_beta                 96.584(2)
_cell_angle_gamma                90
_cell_volume                     3771.78
_exptl_crystal_colour            brown
_exptl_crystal_description       plate
_cell_formula_units_Z            4
loop_
_atom_site_label
_atom_site_type_symbol
_atom_site_fract_x
_atom_site_fract_y
_atom_site_fract_z
C1 C 0.28264(6) 0.64717(10) -0.11663(17)
N1 N 0.3985(12) 0.6927(14) 0.023(4)
C2 C 0.3836(11) 0.6233(12) 0.001(5)
C3 C 0.3713(5) 0.5283(10) 0.0062(13)
C4 C 0.3118(5) 0.5147(8) 0.0008(12)
C5 C 0.2975(3) 0.4321(5) 0.0348(7)
H1 H 0.3254 0.3919 0.0472
C6 C 0.2496(2) 0.3945(4) 0.0553(7)
C7 C 0.2401(2) 0.3041(3) 0.0806(6)
C8 C 0.1900(3) 0.2945(5) 0.1100(9)
C9 C 0.16776(12) 0.3795(2) 0.1023(3)
N2 N 0.2026(4) 0.4369(7) 0.0545(19)
H2 H 0.1961 0.4914 0.0279
C10 C 0.12174(15) 0.4048(3) 0.1503(3)
H3 H 0.0994 0.3590 0.1729
C11 C 0.1048(3) 0.4896(3) 0.1688(10)
C12 C 0.3925(8) 0.4856(13) -0.1243(16)
H4 H 0.3982 0.4227 -0.1020
H5 H 0.3644 0.4885 -0.2033
C13 C 0.4392(8) 0.5174(14) -0.178(2)
H6 H 0.4449 0.4844 -0.2632
H7 H 0.4688 0.5096 -0.1064
H8 H 0.4352 0.5798 -0.2018
C14 C 0.3980(6) 0.4919(8) 0.1503(12)
H9 H 0.3912 0.4281 0.1524
H10 H 0.4357 0.4995 0.1511
C15 C 0.3841(7) 0.5275(14) 0.275(2)
H11 H 0.3951 0.5889 0.2819
H12 H 0.4009 0.4946 0.3552
H13 H 0.3465 0.5242 0.2741
C16 C 0.2798(2) 0.2328(3) 0.0740(7)
H14 H 0.2682 0.1795 0.1203
H15 H 0.3128 0.2519 0.1269
C17 C 0.2890(3) 0.2105(4) -0.0765(7)
H16 H 0.2571 0.1872 -0.1273
H17 H 0.3164 0.1664 -0.0750
H18 H 0.2993 0.2634 -0.1240
C18 C 0.1621(7) 0.2121(9) 0.1451(14)
H19 H 0.1385 0.2258 0.2162
H20 H 0.1877 0.1687 0.1869
C19 C 0.1312(5) 0.1721(10) 0.0156(17)
H21 H 0.1078 0.2164 -0.0307
H22 H 0.1110 0.1224 0.0443
H23 H 0.1549 0.1519 -0.0503
C20 C 0.05874(6) 0.51042(10) 0.23408(18)
C21 C 0.05851(6) 0.59928(10) 0.24654(18)
C22 C 0.10218(6) 0.63076(10) 0.17958(17)
C23 C 0.11364(6) 0.72025(10) 0.16068(18)
H24 H 0.0922 0.7615 0.2004
C24 C 0.15228(6) 0.75367(9) 0.09130(17)
C25 C 0.16035(6) 0.84350(9) 0.05021(18)
C26 C 0.19972(6) 0.84461(9) -0.03157(17)
C27 C 0.21867(6) 0.75560(9) -0.04073(17)
C28 C 0.25785(6) 0.72902(10) -0.11639(18)
H25 H 0.2698 0.7720 -0.1769
C29 C 0.02001(7) 0.44621(11) 0.2769(2)
H26 H 0.0004 0.4737 0.3482
H27 H 0.0384 0.3947 0.3211
C30 C -0.01761(8) 0.41578(13) 0.1529(2)
H28 H -0.0368 0.4663 0.1108
H29 H -0.0418 0.3734 0.1859
H30 H 0.0015 0.3881 0.0823
C31 C 0.02088(7) 0.65549(12) 0.3144(2)
H31 H 0.0396 0.7057 0.3619
H32 H 0.0059 0.6207 0.3873
C32 C -0.02235(8) 0.68986(14) 0.2102(2)
H33 H -0.0079 0.7247 0.1380
H34 H -0.0453 0.7266 0.2595
H35 H -0.0419 0.6405 0.1653
C33 C 0.12944(7) 0.91954(10) 0.0942(2)
H36 H 0.0928 0.9016 0.0916
H37 H 0.1312 0.9679 0.0258
C34 C 0.14843(9) 0.95255(14) 0.2409(2)
H38 H 0.1846 0.9705 0.2442
H39 H 0.1455 0.9056 0.3096
H40 H 0.1275 1.0028 0.2637
C35 C 0.22162(8) 0.92253(10) -0.1004(2)
H41 H 0.1937 0.9660 -0.1237
H42 H 0.2339 0.9035 -0.1899
C36 C 0.26557(10) 0.96628(14) -0.0102(3)
H43 H 0.2762 1.0190 -0.0581
H44 H 0.2948 0.9257 0.0053
H45 H 0.2543 0.9826 0.0807
C37 C 0.33698(9) 0.70445(15) -0.2868(2)
H46 H 0.3622 0.6822 -0.3465
H47 H 0.3537 0.7470 -0.2195
H48 H 0.3086 0.7330 -0.3459
N3 N 0.27481(5) 0.58058(8) -0.03383(15)
N4 N 0.12950(5) 0.56401(7) 0.13103(14)
N5 N 0.18979(5) 0.70470(8) 0.03724(14)
H49 H 0.1945 0.6481 0.0512
O1 O 0.31712(5) 0.63307(8) -0.21160(13)
N6? N 0.4023(9) 0.6785(10) 0.023(3)
C38? C 0.3849(8) 0.6106(8) 0.002(4)
C39? C 0.3668(4) 0.5201(7) -0.0282(8)
C40? C 0.3070(3) 0.5107(6) -0.0357(7)
C41? C 0.29111(18) 0.4252(3) -0.0244(5)
H50? H 0.3174 0.3831 -0.0333
C42? C 0.2437(7) 0.3891(9) -0.002(4)
C43? C 0.2298(4) 0.2993(7) -0.0066(13)
C44? C 0.1797(3) 0.2939(5) 0.0260(9)
C45? C 0.1620(4) 0.3804(6) 0.0566(10)
N7? N 0.2015(5) 0.4357(9) 0.0293(19)
H51? H 0.1999 0.4933 0.0319
C46? C 0.1177(5) 0.4059(9) 0.1113(12)
H52? H 0.0946 0.3594 0.1256
C47? C 0.1010(8) 0.4887(9) 0.149(3)
C48? C 0.2676(6) 0.2231(9) -0.0087(15)
H53? H 0.2466 0.1703 -0.0347
H54? H 0.2882 0.2344 -0.0877
C49? C 0.3048(8) 0.1982(15) 0.1136(15)
H55? H 0.3256 0.1484 0.0880
H56? H 0.2859 0.1817 0.1927
H57? H 0.3275 0.2480 0.1411
C50? C 0.1483(3) 0.2119(5) 0.0382(9)
H58? H 0.1557 0.1701 -0.0361
H59? H 0.1112 0.2268 0.0225
C51? C 0.1601(4) 0.1678(6) 0.1833(10)
H60? H 0.1386 0.1154 0.1871
H61? H 0.1527 0.2089 0.2573
H62? H 0.1967 0.1510 0.1980
C52? C 0.3864(6) 0.4831(11) -0.1662(11)
H63? H 0.3692 0.5144 -0.2494
H64? H 0.3777 0.4201 -0.1763
C53? C 0.4482(5) 0.4959(10) -0.158(2)
H65? H 0.4597 0.4792 -0.2490
H66? H 0.4654 0.4587 -0.0835
H67? H 0.4570 0.5574 -0.1383
C54? C 0.3940(4) 0.4723(6) 0.1029(8)
H68? H 0.4316 0.4845 0.1105
H69? H 0.3892 0.4083 0.0906
C55? C 0.3725(5) 0.5018(10) 0.2444(15)
H70? H 0.3758 0.5655 0.2549
H71? H 0.3923 0.4729 0.3249
H72? H 0.3360 0.4852 0.2408
C56? C 0.29111(18) 0.4252(3) -0.0244(5)
H73? H 0.3166 0.3824 -0.0376
C57? C 0.2427(6) 0.3906(8) 0.004(4)
C58? C 0.2327(4) 0.2992(7) 0.0229(13)
C59? C 0.1876(5) 0.2925(6) 0.0828(15)
C60? C 0.16776(12) 0.3795(2) 0.1023(3)
N8? N 0.2061(5) 0.4358(9) 0.070(2)
H74? H 0.2072 0.4922 0.0887
C61? C 0.12174(15) 0.4048(3) 0.1503(3)
H75? H 0.0994 0.3590 0.1729
C62? C 0.1048(3) 0.4896(3) 0.1688(10)
C63? C 0.2640(5) 0.2277(8) -0.0452(11)
H76? H 0.2409 0.1789 -0.0802
H77? H 0.2798 0.2524 -0.1258
C64? C 0.3059(6) 0.1944(11) 0.0673(13)
H78? H 0.3279 0.1523 0.0249
H79? H 0.2897 0.1656 0.1429
H80? H 0.3268 0.2439 0.1063
C65? C 0.1620(9) 0.2100(12) 0.128(2)
H81? H 0.1481 0.2212 0.2184
H82? H 0.1883 0.1633 0.1440
C66? C 0.1185(6) 0.1778(14) 0.021(2)
H83? H 0.1041 0.1236 0.0550
H84? H 0.1319 0.1665 -0.0694
H85? H 0.0913 0.2225 0.0074
N9? N 0.4023(9) 0.6785(10) 0.023(3)
C67? C 0.3849(8) 0.6106(8) 0.002(4)
C68? C 0.3668(4) 0.5201(7) -0.0282(8)
C69? C 0.3070(3) 0.5107(6) -0.0357(7)
C70? C 0.3864(6) 0.4831(11) -0.1662(11)
H86? H 0.3692 0.5144 -0.2494
H87? H 0.3777 0.4201 -0.1763
C71? C 0.4482(5) 0.4959(10) -0.158(2)
H88? H 0.4603 0.4727 -0.2447
H89? H 0.4566 0.5583 -0.1495
H90? H 0.4652 0.4642 -0.0766
C72? C 0.3940(4) 0.4723(6) 0.1029(8)
H91? H 0.4316 0.4845 0.1105
H92? H 0.3892 0.4083 0.0906
C73? C 0.3725(5) 0.5018(10) 0.2444(15)
H93? H 0.3908 0.4700 0.3242
H94? H 0.3779 0.5649 0.2581
H95? H 0.3355 0.4887 0.2383
C74? C 0.4401(10) 0.2171(16) -0.099(3)
H96? H 0.4272 0.1660 -0.1543
H97? H 0.4114 0.2569 -0.0873
H98? H 0.4659 0.2477 -0.1477
H99? H 0.4370 0.1555 0.0836
H100? H 0.4913 0.1463 0.0236
C75? C 0.4855(14) 0.253(2) 0.140(2)
H101? H 0.4719 0.3107 0.1069
H102? H 0.5232 0.2539 0.1342
C76? C 0.4783(9) 0.2458(14) 0.290(2)
H103? H 0.4458 0.2130 0.2948
H104? H 0.5066 0.2083 0.3344
C77? C 0.4763(8) 0.3196(16) 0.376(2)
H105? H 0.4670 0.3678 0.3086
H106? H 0.4450 0.3096 0.4241
C78? C 0.5103(8) 0.3582(14) 0.479(3)
H107? H 0.4942 0.4101 0.5157
H108? H 0.5193 0.3165 0.5558
H109? H 0.5416 0.3757 0.4385
H110? H 0.4188 0.3019 -0.4923
H111? H 0.4787 0.3012 -0.4323
H112? H 0.4497 0.2112 -0.4760
H113? H 0.4271 0.3197 -0.2555
H114? H 0.3982 0.2302 -0.2990
H115? H 0.4556 0.1516 -0.1882
H116? H 0.5016 0.2151 -0.2177
H117? H 0.4386 0.2731 -0.0295
H118? H 0.4989 0.2874 -0.0323
H119? H 0.5190 0.1675 0.0813
H120? H 0.4628 0.1263 0.0446
H121? H 0.4764 0.1637 0.2797
H122? H 0.4869 0.2634 0.2395
H123? H 0.4306 0.2221 0.2027
C79? C 0.4776(15) 0.249(3) 0.139(3)
H124? H 0.4568 0.2044 0.0846
H125? H 0.4715 0.3063 0.0930
H126? H 0.5143 0.2341 0.1426
H127? H 0.4252 0.2667 0.2796
H128? H 0.4679 0.1946 0.3292
H129? H 0.5266 0.2964 0.3970
H130? H 0.4918 0.3724 0.3224
H131? H 0.4431 0.3022 0.5210
H132? H 0.4608 0.4010 0.5022
H133? H 0.4986 0.3757 0.7060
H134? H 0.5438 0.3499 0.6145
H135? H 0.5386 0.2501 0.7906
H136? H 0.4798 0.2293 0.7327
H137? H 0.5251 0.2034 0.6408
C80? C 0.4712(8) 0.2427(12) -0.043(2)
C81? C 0.4636(11) 0.3115(15) -0.461(2)
C82? C 0.4321(8) 0.2600(18) -0.292(2)
C83? C 0.4666(13) 0.2138(17) -0.187(2)
C84? C 0.4460(11) 0.269(2) -0.435(2)
C85? C 0.4816(11) 0.3187(14) -0.429(2)
C86? C 0.5135(13) 0.247(2) 0.706(4)
C87? C 0.5091(9) 0.3326(16) 0.637(2)
C88? C 0.4733(7) 0.3397(15) 0.509(2)
C89? C 0.4906(6) 0.3175(15) 0.3771(19)
C90? C 0.4625(9) 0.2532(16) 0.285(2)
C91? C 0.4677(12) 0.2100(15) 0.210(2)
loop_
_geom_bond_atom_site_label_1
_geom_bond_atom_site_label_2
_geom_bond_site_symmetry_1
_geom_bond_site_symmetry_2
C1 C28 1_555 1_555
N1 C2 1_555 1_555
C2 C3 1_555 1_555
C3 C4 1_555 1_555
C4 C5 1_555 1_555
C5 H1 1_555 1_555
C6 C5 1_555 1_555
C7 C6 1_555 1_555
C8 C7 1_555 1_555
C9 C8 1_555 1_555
N2 C6 1_555 1_555
H2 N2 1_555 1_555
C10 C9 1_555 1_555
H3 C10 1_555 1_555
C11 C10 1_555 1_555
C12 C3 1_555 1_555
H4 C12 1_555 1_555
H5 C12 1_555 1_555
C13 C12 1_555 1_555
H6 C13 1_555 1_555
H7 C13 1_555 1_555
H8 C13 1_555 1_555
C14 C3 1_555 1_555
H9 C14 1_555 1_555
H10 C14 1_555 1_555
C15 C14 1_555 1_555
H11 C15 1_555 1_555
H12 C15 1_555 1_555
H13 C15 1_555 1_555
C16 C7 1_555 1_555
H14 C16 1_555 1_555
H15 C16 1_555 1_555
C17 C16 1_555 1_555
H16 C17 1_555 1_555
H17 C17 1_555 1_555
H18 C17 1_555 1_555
C18 C8 1_555 1_555
H19 C18 1_555 1_555
H20 C18 1_555 1_555
C19 C18 1_555 1_555
H21 C19 1_555 1_555
H22 C19 1_555 1_555
H23 C19 1_555 1_555
C20 C11 1_555 1_555
C21 C20 1_555 1_555
C22 C21 1_555 1_555
C23 C22 1_555 1_555
H24 C23 1_555 1_555
C24 C23 1_555 1_555
C25 C24 1_555 1_555
C26 C25 1_555 1_555
C27 C26 1_555 1_555
C28 C27 1_555 1_555
H25 C28 1_555 1_555
C29 C20 1_555 1_555
H26 C29 1_555 1_555
H27 C29 1_555 1_555
C30 C29 1_555 1_555
H28 C30 1_555 1_555
H29 C30 1_555 1_555
H30 C30 1_555 1_555
C31 C21 1_555 1_555
H31 C31 1_555 1_555
H32 C31 1_555 1_555
C32 C31 1_555 1_555
H33 C32 1_555 1_555
H34 C32 1_555 1_555
H35 C32 1_555 1_555
C33 C25 1_555 1_555
H36 C33 1_555 1_555
H37 C33 1_555 1_555
C34 C33 1_555 1_555
H38 C34 1_555 1_555
H39 C34 1_555 1_555
H40 C34 1_555 1_555
C35 C26 1_555 1_555
H41 C35 1_555 1_555
H42 C35 1_555 1_555
C36 C35 1_555 1_555
H43 C36 1_555 1_555
H44 C36 1_555 1_555
H45 C36 1_555 1_555
C37 H46 1_555 1_555
H47 C37 1_555 1_555
H48 C37 1_555 1_555
N3 C1 1_555 1_555
N4 C11 1_555 1_555
N5 C24 1_555 1_555
H49 N5 1_555 1_555
O1 C1 1_555 1_555
C4 N3 1_555 1_555
C9 N2 1_555 1_555
C22 N4 1_555 1_555
C27 N5 1_555 1_555
C37 O1 1_555 1_555

#END
