
#######################################################################
#
#                 Cambridge Crystallographic Data Centre
#                                CCDC 
#
#######################################################################
#
# If this CIF has been generated from an entry in the Cambridge 
# Structural Database, then it will include bibliographic, chemical, 
# crystal, experimental, refinement or atomic coordinate data resulting 
# from the CCDC's data processing and validation procedures.
#
#######################################################################

data_LUPBIJ
_chemical_formula_moiety         'C30 H24 N2 O3'
_chemical_name_systematic        
4,4''-dimethoxy-N-(quinolin-8-yl)-1,1':3',1''-terphenyl-2'-carboxamide
_symmetry_cell_setting           triclinic
_symmetry_space_group_name_H-M   'P -1'
_symmetry_Int_Tables_number      2
_space_group_name_Hall           '-P 1'
loop_
_symmetry_equiv_pos_site_id
_symmetry_equiv_pos_as_xyz
1 x,y,z
2 -x,-y,-z
_cell_length_a                   8.8035(18)
_cell_length_b                   10.760(2)
_cell_length_c                   13.898(3)
_cell_angle_alpha                94.58(3)
_cell_angle_beta                 100.59(3)
_cell_angle_gamma                110.38(3)
_cell_volume                     1198.2
_exptl_crystal_colour            colorless
_exptl_crystal_description       block
_cell_formula_units_Z            2
loop_
_atom_site_label
_atom_site_type_symbol
_atom_site_fract_x
_atom_site_fract_y
_atom_site_fract_z
O1 O 0.19039(18) 0.54220(13) 0.10634(11)
O2 O 1.15966(19) -0.04828(18) 0.39041(12)
O3 O 0.77548(16) 0.28959(13) 0.20465(10)
N1 N 0.60147(18) 0.26266(15) 0.31029(11)
H1 H 0.5075 0.2096 0.3186
N2 N 0.4921(2) 0.25590(18) 0.47404(12)
C1 C 0.2253(2) 0.42780(18) 0.10912(13)
C2 C 0.1218(2) 0.30894(18) 0.13042(14)
H2 H 0.0193 0.3015 0.1434
C3 C 0.1726(2) 0.20063(18) 0.13228(14)
H3 H 0.1021 0.1204 0.1462
C4 C 0.3253(2) 0.20795(17) 0.11407(13)
C5 C 0.4269(2) 0.32902(19) 0.09265(14)
H4 H 0.5296 0.3370 0.0797
C6 C 0.3779(2) 0.43728(19) 0.09026(14)
H5 H 0.4478 0.5174 0.0759
C7 C 0.3729(2) 0.08786(17) 0.11518(12)
C8 C 0.2609(2) -0.03347(19) 0.05906(14)
H6 H 0.1590 -0.0377 0.0226
C9 C 0.2995(3) -0.14748(19) 0.05699(15)
H7 H 0.2243 -0.2278 0.0189
C10 C 0.4498(2) -0.14167(18) 0.11166(14)
H8 H 0.4734 -0.2195 0.1110
C11 C 0.5671(2) -0.02319(18) 0.16777(13)
C12 C 0.5263(2) 0.09293(17) 0.16937(13)
C13 C 0.7266(2) -0.02557(17) 0.22520(14)
C14 C 0.8061(2) -0.10030(19) 0.18310(15)
H9 H 0.7612 -0.1445 0.1182
C15 C 0.9501(3) -0.1103(2) 0.23538(16)
H10 H 1.0002 -0.1614 0.2058
C16 C 1.0192(2) -0.0447(2) 0.33113(16)
C17 C 0.9429(3) 0.0313(2) 0.37391(16)
H11 H 0.9894 0.0771 0.4383
C18 C 0.7990(2) 0.03910(19) 0.32165(14)
H12 H 0.7486 0.0893 0.3520
C19 C 0.6847(2) 0.37627(18) 0.38302(14)
C20 C 0.8138(3) 0.4885(2) 0.37553(18)
H13 H 0.8547 0.4938 0.3183
C21 C 0.8848(3) 0.5963(2) 0.4549(2)
H14 H 0.9732 0.6720 0.4494
C22 C 0.8274(3) 0.5922(3) 0.53903(19)
H15 H 0.8762 0.6647 0.5903
C23 C 0.6944(3) 0.4790(2) 0.54904(15)
C24 C 0.6221(2) 0.3695(2) 0.47127(14)
C25 C 0.6247(4) 0.4661(3) 0.63348(17)
H16 H 0.6671 0.5355 0.6869
C26 C 0.4968(4) 0.3529(3) 0.63637(18)
H17 H 0.4514 0.3434 0.6920
C27 C 0.4334(3) 0.2505(3) 0.55508(17)
H18 H 0.3444 0.1737 0.5581
C28 C 0.6480(2) 0.22422(17) 0.22848(13)
C29 C 0.0451(3) 0.5427(2) 0.13760(19)
H19 H 0.0346 0.6278 0.1322
H20 H 0.0540 0.5278 0.2053
H21 H -0.0512 0.4726 0.0964
C30 C 1.2556(3) -0.1094(3) 0.3484(2)
H22 H 1.3504 -0.1034 0.3982
H23 H 1.2926 -0.0642 0.2953
H24 H 1.1892 -0.2020 0.3231
loop_
_geom_bond_atom_site_label_1
_geom_bond_atom_site_label_2
_geom_bond_site_symmetry_1
_geom_bond_site_symmetry_2
O1 C1 1_555 1_555
O2 C16 1_555 1_555
O3 C28 1_555 1_555
N1 H1 1_555 1_555
N2 C24 1_555 1_555
C1 C2 1_555 1_555
C2 H2 1_555 1_555
C3 C2 1_555 1_555
H3 C3 1_555 1_555
C4 C3 1_555 1_555
C5 C4 1_555 1_555
H4 C5 1_555 1_555
C6 C1 1_555 1_555
H5 C6 1_555 1_555
C7 C4 1_555 1_555
C8 C7 1_555 1_555
H6 C8 1_555 1_555
C9 C8 1_555 1_555
H7 C9 1_555 1_555
C10 C9 1_555 1_555
H8 C10 1_555 1_555
C11 C10 1_555 1_555
C12 C7 1_555 1_555
C13 C11 1_555 1_555
C14 C13 1_555 1_555
H9 C14 1_555 1_555
C15 C14 1_555 1_555
H10 C15 1_555 1_555
C16 C15 1_555 1_555
C17 C16 1_555 1_555
H11 C17 1_555 1_555
C18 C13 1_555 1_555
H12 C18 1_555 1_555
C19 N1 1_555 1_555
C20 C19 1_555 1_555
H13 C20 1_555 1_555
C21 C20 1_555 1_555
H14 C21 1_555 1_555
C22 C21 1_555 1_555
H15 C22 1_555 1_555
C23 C22 1_555 1_555
C24 C19 1_555 1_555
C25 C23 1_555 1_555
H16 C25 1_555 1_555
C26 C25 1_555 1_555
H17 C26 1_555 1_555
C27 N2 1_555 1_555
H18 C27 1_555 1_555
C28 N1 1_555 1_555
C29 O1 1_555 1_555
H19 C29 1_555 1_555
H20 C29 1_555 1_555
H21 C29 1_555 1_555
C30 O2 1_555 1_555
H22 C30 1_555 1_555
H23 C30 1_555 1_555
H24 C30 1_555 1_555
C5 C6 1_555 1_555
C11 C12 1_555 1_555
C12 C28 1_555 1_555
C17 C18 1_555 1_555
C23 C24 1_555 1_555
C26 C27 1_555 1_555

#END
