
#######################################################################
#
#                 Cambridge Crystallographic Data Centre
#                                CCDC 
#
#######################################################################
#
# If this CIF has been generated from an entry in the Cambridge 
# Structural Database, then it will include bibliographic, chemical, 
# crystal, experimental, refinement or atomic coordinate data resulting 
# from the CCDC's data processing and validation procedures.
#
#######################################################################

data_LUPJEM
_chemical_formula_moiety         'C49 H73 N1 O35,11.5(H2 O1)'
_chemical_name_systematic        '6-(4-Cyanophenyl)-\b-cyclodextrin hydrate'
_symmetry_cell_setting           orthorhombic
_symmetry_space_group_name_H-M   'P 21 21 21'
_symmetry_Int_Tables_number      19
_space_group_name_Hall           'P 2ac 2ab'
loop_
_symmetry_equiv_pos_site_id
_symmetry_equiv_pos_as_xyz
1 x,y,z
2 1/2+x,1/2-y,-z
3 -x,1/2+y,1/2-z
4 1/2-x,-y,1/2+z
_cell_length_a                   13.2562(5)
_cell_length_b                   18.8557(8)
_cell_length_c                   28.3843(11)
_cell_angle_alpha                90
_cell_angle_beta                 90
_cell_angle_gamma                90
_cell_volume                     7094.8
_exptl_crystal_colour            colorless
_exptl_crystal_description       prism
_cell_formula_units_Z            4
loop_
_atom_site_label
_atom_site_type_symbol
_atom_site_fract_x
_atom_site_fract_y
_atom_site_fract_z
N1 N 0.9305(4) 0.0769(5) 0.4974(2)
C1 C 0.1552(3) 0.5866(2) 0.40148(14)
H1 H 0.1430 0.6389 0.4000
C2 C 0.0697(5) 0.6463(3) 0.57858(17)
H2 H 0.0606 0.6829 0.6038
C3 C 0.0252(3) 0.4828(2) 0.72802(13)
H3 H 0.0096 0.4752 0.7621
C4 C 0.1680(4) 0.2238(3) 0.74825(16)
H4 H 0.1933 0.1826 0.7670
C5 C 0.3018(4) 0.0596(2) 0.61020(16)
H5 H 0.3410 0.0172 0.5996
C6 C 0.3083(4) 0.1039(2) 0.42633(17)
H6 H 0.3256 0.0874 0.3938
C7 C 0.3003(3) 0.3459(2) 0.33144(15)
H7 H 0.3187 0.3764 0.3039
C8 C 0.0883(4) 0.5499(2) 0.36532(14)
H8 H 0.0998 0.5716 0.3336
C9 C -0.0125(6) 0.6565(3) 0.54132(18)
H9 H -0.0095 0.7060 0.5288
C10 C -0.0725(3) 0.5014(2) 0.70221(15)
H10 H -0.1030 0.5442 0.7174
C11 C 0.0597(5) 0.2370(2) 0.76119(15)
H11 H 0.0547 0.2461 0.7958
C12 C 0.2111(3) 0.0346(2) 0.63879(15)
H12 H 0.2360 0.0052 0.6657
C13 C 0.2189(4) 0.0613(2) 0.44360(16)
H13 H 0.2348 0.0097 0.4400
C14 C 0.2381(4) 0.2821(2) 0.31487(16)
H14 H 0.2786 0.2538 0.2919
C15 C 0.1105(3) 0.4717(2) 0.36303(15)
H15 H 0.0889 0.4495 0.3934
C16 C 0.0058(5) 0.6033(3) 0.50065(16)
H16 H -0.0030 0.5538 0.5126
C17 C -0.0500(3) 0.5186(2) 0.65099(15)
H17 H -0.0277 0.4745 0.6345
C18 C 0.0201(4) 0.3016(2) 0.73423(15)
H18 H 0.0190 0.2897 0.6999
C19 C 0.1554(3) 0.0986(2) 0.65874(14)
H19 H 0.1258 0.1265 0.6322
C20 C 0.1977(3) 0.0761(2) 0.49471(16)
H20 H 0.1696 0.1251 0.4977
C21 C 0.2116(4) 0.2359(2) 0.35663(17)
H21 H 0.1687 0.2640 0.3788
C22 C 0.2236(3) 0.4589(2) 0.35662(16)
H22 H 0.2457 0.4741 0.3245
C23 C 0.1130(5) 0.6128(2) 0.48277(16)
H23 H 0.1212 0.6615 0.4693
C24 C 0.0328(4) 0.5737(2) 0.64800(14)
H24 H 0.0072 0.6205 0.6594
C25 C 0.0917(4) 0.3642(2) 0.74155(14)
H25 H 0.0845 0.3824 0.7745
C26 C 0.2282(4) 0.1453(2) 0.68571(16)
H26 H 0.2544 0.1193 0.7139
C27 C 0.2919(4) 0.0707(2) 0.52413(16)
H27 H 0.3144 0.0201 0.5261
C28 C 0.3088(3) 0.2152(2) 0.38194(14)
H28 H 0.3512 0.1845 0.3611
C29 C 0.2826(4) 0.4985(2) 0.39436(14)
H29 H 0.2611 0.4802 0.4259
C30 C 0.1881(4) 0.6019(3) 0.52247(16)
H30 H 0.1804 0.5529 0.5354
C31 C 0.1245(3) 0.5520(2) 0.67614(15)
H31 H 0.1534 0.5081 0.6618
C32 C 0.2025(4) 0.3451(3) 0.7322(2)
H32 H 0.2139 0.3366 0.6979
C33 C 0.3150(4) 0.1676(3) 0.6547(2)
H33 H 0.2881 0.1953 0.6274
C34 C 0.3764(4) 0.1166(3) 0.50326(16)
H34 H 0.3547 0.1674 0.5036
C35 C 0.3672(3) 0.2819(2) 0.39598(14)
H35 H 0.3229 0.3111 0.4169
C36 C 0.3951(4) 0.4919(3) 0.39094(16)
H36 H 0.4273 0.5202 0.4162
H37 H 0.4151 0.4417 0.3952
C37 C 0.2980(5) 0.6136(3) 0.5079(2)
H38 H 0.3421 0.6067 0.5357
H39 H 0.3169 0.5778 0.4840
C38 C 0.2057(4) 0.6084(3) 0.67734(19)
H40 H 0.2641 0.5910 0.6958
H41 H 0.2290 0.6185 0.6449
C39 C 0.2702(5) 0.4035(3) 0.7497(3)
H42 H 0.2486 0.4492 0.7357
H43 H 0.2638 0.4075 0.7844
C40 C 0.3947(5) 0.2104(4) 0.6789(3)
H44 H 0.3635 0.2507 0.6959
H45 H 0.4309 0.1805 0.7021
C41 C 0.4790(4) 0.1099(4) 0.5286(2)
H46 H 0.4774 0.0669 0.5486
H47 H 0.5321 0.1029 0.5046
C42 C 0.4627(4) 0.2688(2) 0.42101(16)
H48 H 0.5009 0.3137 0.4238
H49 H 0.4483 0.2512 0.4532
O1 O -0.0158(2) 0.55888(17) 0.37842(11)
H50 H -0.0460 0.5818 0.3573
O2 O -0.1083(4) 0.6438(2) 0.56093(13)
H51 H -0.1334 0.6824 0.5701
O3 O -0.1418(3) 0.44387(18) 0.70602(14)
H52 H -0.1364 0.4176 0.6822
O4 O 0.0034(3) 0.17540(17) 0.74976(13)
H53 H -0.0551 0.1790 0.7609
O5 O 0.1466(3) -0.00813(16) 0.61025(11)
H54 H 0.1428 0.0095 0.5831
O6 O 0.1330(3) 0.0772(2) 0.41534(13)
H55 H 0.1220 0.0435 0.3967
O7 O 0.1472(3) 0.30760(18) 0.29193(13)
H56 H 0.1155 0.3342 0.3105
O8 O 0.0582(3) 0.43772(19) 0.32551(13)
H57 H 0.0240 0.4679 0.3107
O9 O -0.0666(4) 0.6168(3) 0.46489(13)
H58 H -0.0472 0.5985 0.4395
O10 O -0.1412(3) 0.54401(19) 0.62971(13)
H59 H -0.1277 0.5778 0.6115
O11 O -0.0795(3) 0.31934(18) 0.74834(15)
H60 H -0.1022 0.3513 0.7307
O12 O 0.0759(3) 0.07340(15) 0.68805(11)
H61 H 0.0407 0.1078 0.6972
O13 O 0.1260(3) 0.0265(2) 0.51321(13)
H62 H 0.0678 0.0380 0.5045
O14 O 0.1567(3) 0.17590(19) 0.34173(15)
H63 H 0.1630 0.1433 0.3617
O15 O 0.2381(3) 0.38378(16) 0.36266(11)
O16 O 0.1268(3) 0.56144(15) 0.44673(10)
O17 O 0.0595(3) 0.57835(16) 0.59894(10)
O18 O 0.0619(2) 0.41876(15) 0.70891(10)
O19 O 0.1725(2) 0.20618(15) 0.70040(11)
O20 O 0.2668(2) 0.09651(17) 0.57036(11)
O21 O 0.2806(2) 0.17676(16) 0.42396(11)
O22 O 0.2572(2) 0.57336(16) 0.39190(11)
O23 O 0.1654(4) 0.6537(2) 0.55947(12)
O24 O 0.0972(2) 0.53680(15) 0.72413(10)
O25 O 0.2276(3) 0.28324(18) 0.75884(14)
O26 O 0.3664(2) 0.10443(19) 0.63703(14)
O27 O 0.3928(3) 0.09455(19) 0.45499(12)
O28 O 0.3888(2) 0.32248(17) 0.35477(11)
O29 O 0.4289(2) 0.51669(17) 0.34580(10)
H64 H 0.4738 0.4894 0.3355
O30 O 0.3140(5) 0.6815(3) 0.4894(2)
H65 H 0.2588 0.7033 0.4879
O31 O 0.1675(3) 0.67175(19) 0.69819(14)
H66 H 0.2061 0.7057 0.6918
O32 O 0.3722(4) 0.3905(4) 0.7378(4)
H67 H 0.3829 0.4039 0.7100
O33 O 0.4641(5) 0.2363(4) 0.6439(3)
H68 H 0.5061 0.2044 0.6374
O34 O 0.5046(5) 0.1642(4) 0.5551(3)
H69 H 0.4996 0.2018 0.5394
O35 O 0.5219(2) 0.21774(18) 0.39622(11)
C43 C 0.6048(4) 0.1926(2) 0.41819(15)
C44 C 0.6450(4) 0.2207(3) 0.45873(18)
H70 H 0.6143 0.2610 0.4728
C45 C 0.7299(4) 0.1909(3) 0.47924(19)
H71 H 0.7577 0.2105 0.5072
C46 C 0.7739(4) 0.1313(3) 0.45807(18)
C47 C 0.7334(4) 0.1022(3) 0.41721(18)
H72 H 0.7635 0.0615 0.4033
C48 C 0.6498(4) 0.1325(3) 0.39716(17)
H73 H 0.6221 0.1131 0.3691
C49 C 0.8611(5) 0.0998(4) 0.4796(2)
O36 O 0.1602(4) 0.0728(4) 0.2724(2)
O37 O 0.8768(4) 0.6274(3) 0.31358(19)
O38 O 0.6954(5) 0.6004(3) 0.6754(3)
O39 O 0.3462(5) 0.7292(3) 0.4021(2)
O40 O 0.5012(9) 0.6530(4) 0.3735(5)
O41 O 0.7769(6) 0.7043(4) 0.4523(3)
O42 O 0.4388(6) 0.6629(6) 0.7090(3)
O43 O 0.5347(11) 0.6735(9) 0.5617(5)
O44 O 0.5994(7) 0.6297(5) 0.4751(4)
O45 O 0.6647(8) 0.7288(5) 0.6340(3)
O46 O 0.5479(7) 0.7866(5) 0.7017(4)
O47 O 0.2351(11) 0.7840(7) 0.6424(4)
O48 O 0.0327(11) 0.9616(6) 0.3897(6)
O49 O 0.4937(12) 0.5246(10) 0.7255(7)
O50 O 0.6499(12) 0.6469(8) 0.4124(6)
O51? O 0.1962(10) 0.8071(5) 0.6739(5)
O52? O 0.3737(17) 0.7094(13) 0.6179(8)
loop_
_geom_bond_atom_site_label_1
_geom_bond_atom_site_label_2
_geom_bond_site_symmetry_1
_geom_bond_site_symmetry_2
N1 C49 1_555 1_555
C1 H1 1_555 1_555
C2 H2 1_555 1_555
C3 H3 1_555 1_555
C4 H4 1_555 1_555
C5 H5 1_555 1_555
C6 H6 1_555 1_555
C7 H7 1_555 1_555
C8 C1 1_555 1_555
H8 C8 1_555 1_555
C9 C2 1_555 1_555
H9 C9 1_555 1_555
C10 C3 1_555 1_555
H10 C10 1_555 1_555
C11 C4 1_555 1_555
H11 C11 1_555 1_555
C12 C5 1_555 1_555
H12 C12 1_555 1_555
C13 C6 1_555 1_555
H13 C13 1_555 1_555
C14 C7 1_555 1_555
H14 C14 1_555 1_555
C15 C8 1_555 1_555
H15 C15 1_555 1_555
C16 C9 1_555 1_555
H16 C16 1_555 1_555
C17 C10 1_555 1_555
H17 C17 1_555 1_555
C18 C11 1_555 1_555
H18 C18 1_555 1_555
C19 C12 1_555 1_555
H19 C19 1_555 1_555
C20 C13 1_555 1_555
H20 C20 1_555 1_555
C21 C14 1_555 1_555
H21 C21 1_555 1_555
C22 C15 1_555 1_555
H22 C22 1_555 1_555
C23 C16 1_555 1_555
H23 C23 1_555 1_555
C24 C17 1_555 1_555
H24 C24 1_555 1_555
C25 C18 1_555 1_555
H25 C25 1_555 1_555
C26 C19 1_555 1_555
H26 C26 1_555 1_555
C27 C20 1_555 1_555
H27 C27 1_555 1_555
C28 C21 1_555 1_555
H28 C28 1_555 1_555
C29 C22 1_555 1_555
H29 C29 1_555 1_555
C30 C23 1_555 1_555
H30 C30 1_555 1_555
C31 C24 1_555 1_555
H31 C31 1_555 1_555
C32 C25 1_555 1_555
H32 C32 1_555 1_555
C33 C26 1_555 1_555
H33 C33 1_555 1_555
C34 C27 1_555 1_555
H34 C34 1_555 1_555
C35 C28 1_555 1_555
H35 C35 1_555 1_555
C36 C29 1_555 1_555
H36 C36 1_555 1_555
H37 C36 1_555 1_555
C37 C30 1_555 1_555
H38 C37 1_555 1_555
H39 C37 1_555 1_555
C38 C31 1_555 1_555
H40 C38 1_555 1_555
H41 C38 1_555 1_555
C39 C32 1_555 1_555
H42 C39 1_555 1_555
H43 C39 1_555 1_555
C40 C33 1_555 1_555
H44 C40 1_555 1_555
H45 C40 1_555 1_555
C41 C34 1_555 1_555
H46 C41 1_555 1_555
H47 C41 1_555 1_555
C42 C35 1_555 1_555
H48 C42 1_555 1_555
H49 C42 1_555 1_555
O1 C8 1_555 1_555
H50 O1 1_555 1_555
O2 C9 1_555 1_555
H51 O2 1_555 1_555
O3 C10 1_555 1_555
H52 O3 1_555 1_555
O4 C11 1_555 1_555
H53 O4 1_555 1_555
O5 C12 1_555 1_555
H54 O5 1_555 1_555
O6 C13 1_555 1_555
H55 O6 1_555 1_555
O7 C14 1_555 1_555
H56 O7 1_555 1_555
O8 C15 1_555 1_555
H57 O8 1_555 1_555
O9 C16 1_555 1_555
H58 O9 1_555 1_555
O10 C17 1_555 1_555
H59 O10 1_555 1_555
O11 C18 1_555 1_555
H60 O11 1_555 1_555
O12 C19 1_555 1_555
H61 O12 1_555 1_555
O13 C20 1_555 1_555
H62 O13 1_555 1_555
O14 C21 1_555 1_555
H63 O14 1_555 1_555
O15 C7 1_555 1_555
O16 C1 1_555 1_555
O17 C2 1_555 1_555
O18 C3 1_555 1_555
O19 C4 1_555 1_555
O20 C5 1_555 1_555
O21 C6 1_555 1_555
O22 C1 1_555 1_555
O23 C2 1_555 1_555
O24 C3 1_555 1_555
O25 C4 1_555 1_555
O26 C5 1_555 1_555
O27 C6 1_555 1_555
O28 C7 1_555 1_555
O29 C36 1_555 1_555
H64 O29 1_555 1_555
O30 C37 1_555 1_555
H65 O30 1_555 1_555
O31 C38 1_555 1_555
H66 O31 1_555 1_555
O32 C39 1_555 1_555
H67 O32 1_555 1_555
O33 C40 1_555 1_555
H68 O33 1_555 1_555
O34 C41 1_555 1_555
H69 O34 1_555 1_555
O35 C42 1_555 1_555
C43 O35 1_555 1_555
C44 C43 1_555 1_555
H70 C44 1_555 1_555
C45 C44 1_555 1_555
H71 C45 1_555 1_555
C46 C45 1_555 1_555
C47 C46 1_555 1_555
H72 C47 1_555 1_555
C48 C43 1_555 1_555
H73 C48 1_555 1_555
C49 C46 1_555 1_555
C22 O15 1_555 1_555
C23 O16 1_555 1_555
C24 O17 1_555 1_555
C25 O18 1_555 1_555
C26 O19 1_555 1_555
C27 O20 1_555 1_555
C28 O21 1_555 1_555
C29 O22 1_555 1_555
C30 O23 1_555 1_555
C31 O24 1_555 1_555
C32 O25 1_555 1_555
C33 O26 1_555 1_555
C34 O27 1_555 1_555
C35 O28 1_555 1_555
C47 C48 1_555 1_555

#END
