
#######################################################################
#
#                 Cambridge Crystallographic Data Centre
#                                CCDC 
#
#######################################################################
#
# If this CIF has been generated from an entry in the Cambridge 
# Structural Database, then it will include bibliographic, chemical, 
# crystal, experimental, refinement or atomic coordinate data resulting 
# from the CCDC's data processing and validation procedures.
#
#######################################################################

data_LUPLEP
_chemical_formula_moiety         'C25 H21 N3 O2 S1'
_chemical_name_systematic        
4-(5-(2-Naphthyl)-3-phenyl-4,5-dihydro-1H-pyrazol-1-yl)benzenesulfonamide
_symmetry_cell_setting           monoclinic
_symmetry_space_group_name_H-M   'P 21/c'
_symmetry_Int_Tables_number      14
_space_group_name_Hall           '-P 2ybc'
loop_
_symmetry_equiv_pos_site_id
_symmetry_equiv_pos_as_xyz
1 x,y,z
2 -x,1/2+y,1/2-z
3 -x,-y,-z
4 x,1/2-y,1/2+z
_cell_length_a                   5.5995(6)
_cell_length_b                   21.282(2)
_cell_length_c                   17.7413(17)
_cell_angle_alpha                90
_cell_angle_beta                 98.529(3)
_cell_angle_gamma                90
_cell_volume                     2090.82
_cell_formula_units_Z            4
loop_
_atom_site_label
_atom_site_type_symbol
_atom_site_fract_x
_atom_site_fract_y
_atom_site_fract_z
S1 S 0.2600(3) 0.58693(6) 0.46798(7)
N1 N 0.7033(6) 0.78953(15) 0.66908(17)
C1 C 1.0477(7) 0.70036(17) 0.8194(2)
H1 H 1.1743 0.6911 0.7927
C2 C 0.6644(8) 0.95059(18) 0.7212(2)
C3 C 0.8300(7) 0.67909(17) 0.9248(2)
C4 C 0.8921(7) 0.74727(17) 0.7933(2)
N2 N 0.5923(6) 0.84752(15) 0.66873(17)
C5 C 0.6999(7) 0.76024(18) 0.8338(2)
H2 H 0.5907 0.7919 0.8166
C6 C 0.9280(7) 0.78592(17) 0.7244(2)
H3 H 1.0595 0.7685 0.7001
C7 C 1.0244(7) 0.66475(17) 0.8860(2)
C8 C 0.3708(7) 0.75037(19) 0.5794(2)
H4 H 0.2880 0.7880 0.5816
O1 O 0.0376(7) 0.61018(17) 0.42705(18)
C9 C 0.5957(7) 0.74205(18) 0.6235(2)
C10 C 0.3902(8) 0.64643(19) 0.5280(2)
C11 C 0.9570(9) 0.5963(2) 1.0147(2)
H5 H 0.9347 0.5733 1.0576
C12 C 0.6710(7) 0.72763(19) 0.8971(2)
H6 H 0.5431 0.7375 0.9230
C13 C 0.2710(8) 0.7026(2) 0.5324(2)
H7 H 0.1205 0.7084 0.5032
C14 C 0.7361(7) 0.88578(19) 0.7099(2)
C15 C 0.4481(8) 0.9738(2) 0.6834(3)
H8 H 0.3527 0.9483 0.6485
C16 C 0.7162(8) 0.68507(19) 0.6191(2)
H9 H 0.8662 0.6788 0.6484
C17 C 0.9721(7) 0.85606(17) 0.7419(2)
H10 H 1.0101 0.8633 0.7964
H11 H 1.1027 0.8722 0.7171
C18 C 1.1824(7) 0.6156(2) 0.9130(2)
H12 H 1.3111 0.6058 0.8875
C19 C 0.8018(8) 0.6433(2) 0.9903(2)
H13 H 0.6748 0.6523 1.0169
C20 C 0.6142(8) 0.63808(19) 0.5714(2)
H14 H 0.6967 0.6004 0.5685
C21 C 1.1489(8) 0.5821(2) 0.9763(2)
H15 H 1.2547 0.5498 0.9938
C22 C 0.3724(10) 1.0331(3) 0.6964(3)
H16 H 0.2261 1.0476 0.6705
C23 C 0.7264(13) 1.0505(2) 0.7854(3)
H17 H 0.8207 1.0766 0.8198
C24 C 0.8051(9) 0.9894(2) 0.7722(2)
H18 H 0.9519 0.9750 0.7978
O2 O 0.2316(8) 0.53138(16) 0.5164(2)
C25 C 0.5100(13) 1.0717(3) 0.7473(4)
H19 H 0.4570 1.1120 0.7560
N3 N 0.4415(9) 0.56735(19) 0.4161(2)
loop_
_geom_bond_atom_site_label_1
_geom_bond_atom_site_label_2
_geom_bond_site_symmetry_1
_geom_bond_site_symmetry_2
S1 O1 1_555 1_555
N1 N2 1_555 1_555
C1 H1 1_555 1_555
C2 C14 1_555 1_555
C3 C7 1_555 1_555
C4 C1 1_555 1_555
N2 C14 1_555 1_555
C5 C4 1_555 1_555
H2 C5 1_555 1_555
C6 N1 1_555 1_555
H3 C6 1_555 1_555
C7 C1 1_555 1_555
C8 H4 1_555 1_555
C9 N1 1_555 1_555
C10 S1 1_555 1_555
C11 H5 1_555 1_555
C12 C3 1_555 1_555
H6 C12 1_555 1_555
C13 C8 1_555 1_555
H7 C13 1_555 1_555
C14 C17 1_555 1_555
C15 C2 1_555 1_555
H8 C15 1_555 1_555
C16 C9 1_555 1_555
H9 C16 1_555 1_555
C17 C6 1_555 1_555
H10 C17 1_555 1_555
H11 C17 1_555 1_555
C18 C7 1_555 1_555
H12 C18 1_555 1_555
C19 C3 1_555 1_555
H13 C19 1_555 1_555
C20 C10 1_555 1_555
H14 C20 1_555 1_555
C21 C11 1_555 1_555
H15 C21 1_555 1_555
C22 C15 1_555 1_555
H16 C22 1_555 1_555
C23 H17 1_555 1_555
C24 C2 1_555 1_555
H18 C24 1_555 1_555
O2 S1 1_555 1_555
C25 C22 1_555 1_555
H19 C25 1_555 1_555
N3 S1 1_555 1_555
C4 C6 1_555 1_555
C5 C12 1_555 1_555
C8 C9 1_555 1_555
C10 C13 1_555 1_555
C11 C19 1_555 1_555
C16 C20 1_555 1_555
C18 C21 1_555 1_555
C23 C24 1_555 1_555
C23 C25 1_555 1_555

#END
