
#######################################################################
#
#                 Cambridge Crystallographic Data Centre
#                                CCDC 
#
#######################################################################
#
# If this CIF has been generated from an entry in the Cambridge 
# Structural Database, then it will include bibliographic, chemical, 
# crystal, experimental, refinement or atomic coordinate data resulting 
# from the CCDC's data processing and validation procedures.
#
#######################################################################

data_LUPPIW
_chemical_formula_moiety         'C19 H19 N1 O2'
_chemical_name_systematic        
N-(3-(Ethoxymethyl)-2H-chromen-2-ylidene)-4-methylaniline
_symmetry_cell_setting           monoclinic
_symmetry_space_group_name_H-M   'P 21/m'
_symmetry_Int_Tables_number      11
_space_group_name_Hall           '-P 2yb'
loop_
_symmetry_equiv_pos_site_id
_symmetry_equiv_pos_as_xyz
1 x,y,z
2 -x,1/2+y,-z
3 -x,-y,-z
4 x,1/2-y,z
_cell_length_a                   9.856(2)
_cell_length_b                   7.3947(18)
_cell_length_c                   11.096(2)
_cell_angle_alpha                90
_cell_angle_beta                 101.068(18)
_cell_angle_gamma                90
_cell_volume                     793.659
_exptl_crystal_colour            colorless
_exptl_crystal_description       plate
_cell_formula_units_Z            2
loop_
_atom_site_label
_atom_site_type_symbol
_atom_site_fract_x
_atom_site_fract_y
_atom_site_fract_z
O1 O 0.55265(13) 0.2500 0.79236(11)
O2 O 0.50854(15) 0.2500 1.21636(12)
N1 N 0.33784(17) 0.2500 0.84177(15)
C1 C 0.46780(19) 0.2500 0.87719(17)
C2 C 0.53127(19) 0.2500 1.00723(17)
C3 C 0.6685(2) 0.2500 1.04118(18)
H1 H 0.7079 0.2500 1.1243
C4 C 0.7572(2) 0.2500 0.95171(18)
C5 C 0.9017(2) 0.2500 0.9802(2)
H2 H 0.9463 0.2500 1.0620
C6 C 0.9138(2) 0.2500 0.7676(2)
H3 H 0.9663 0.2500 0.7063
C7 C 0.7711(2) 0.2500 0.73614(19)
H4 H 0.7271 0.2500 0.6541
C8 C 0.69488(19) 0.2500 0.82795(17)
C9 C 0.4331(2) 0.2500 1.09498(18)
C10 C 0.4213(2) 0.2500 1.3041(2)
C11 C 0.5060(3) 0.2500 1.4300(2)
C12 C 0.9788(2) 0.2500 0.8894(2)
H5 H 1.0748 0.2500 0.9100
C13 C 0.27706(18) 0.2500 0.71452(17)
C14 C 0.24173(15) 0.0896(2) 0.65328(13)
H6 H 0.2653 -0.0198 0.6931
C15 C 0.17098(15) 0.0907(2) 0.53224(13)
H7 H 0.1480 -0.0188 0.4923
C16 C 0.1338(2) 0.2500 0.46972(18)
C17 C 0.0550(3) 0.2500 0.3391(2)
H8 H 0.3722(19) 0.138(3) 1.0811(16)
H9 H 0.363(2) 0.141(3) 1.2921(17)
H10 H 0.450(3) 0.2500 1.494(3)
H11 H 0.569(2) 0.149(3) 1.4405(17)
H12 H -0.041(3) 0.2500 0.339(3)
H13 H 0.073(2) 0.152(3) 0.2960(17)
C14C C 0.24173(15) 0.4104(2) 0.65328(13)
H6C H 0.2653 0.5198 0.6931
C15C C 0.17098(15) 0.4093(2) 0.53224(13)
H7C H 0.1480 0.5188 0.4923
H8C H 0.3722(19) 0.362(3) 1.0811(16)
H9C H 0.363(2) 0.359(3) 1.2921(17)
H11C H 0.569(2) 0.351(3) 1.4405(17)
H13C H 0.073(2) 0.348(3) 0.2960(17)
loop_
_geom_bond_atom_site_label_1
_geom_bond_atom_site_label_2
_geom_bond_site_symmetry_1
_geom_bond_site_symmetry_2
O1 C1 1_555 1_555
O2 C9 1_555 1_555
N1 C1 1_555 1_555
C1 C2 1_555 1_555
C2 C3 1_555 1_555
C3 H1 1_555 1_555
C4 C3 1_555 1_555
C5 C4 1_555 1_555
H2 C5 1_555 1_555
C6 H3 1_555 1_555
C7 C6 1_555 1_555
H4 C7 1_555 1_555
C8 O1 1_555 1_555
C9 C2 1_555 1_555
C10 O2 1_555 1_555
C11 C10 1_555 1_555
C12 C5 1_555 1_555
H5 C12 1_555 1_555
C13 N1 1_555 1_555
C14 C13 1_555 1_555
H6 C14 1_555 1_555
C15 C14 1_555 1_555
H7 C15 1_555 1_555
C16 C15 1_555 1_555
C17 C16 1_555 1_555
H8 C9 1_555 1_555
H9 C10 1_555 1_555
H10 C11 1_555 1_555
H11 C11 1_555 1_555
H12 C17 1_555 1_555
H13 C17 1_555 1_555
C14C C13 1_555 1_555
H6C C14C 1_555 1_555
C15C C16 1_555 1_555
H7C C15C 1_555 1_555
H8C C9 1_555 1_555
H9C C10 1_555 1_555
H11C C11 1_555 1_555
H13C C17 1_555 1_555
C4 C8 1_555 1_555
C6 C12 1_555 1_555
C7 C8 1_555 1_555
C14C C15C 1_555 1_555

#END
