
#######################################################################
#
#                 Cambridge Crystallographic Data Centre
#                                CCDC 
#
#######################################################################
#
# If this CIF has been generated from an entry in the Cambridge 
# Structural Database, then it will include bibliographic, chemical, 
# crystal, experimental, refinement or atomic coordinate data resulting 
# from the CCDC's data processing and validation procedures.
#
#######################################################################

data_LUPRAQ
_chemical_formula_moiety         'C16 H13 N1 O1'
_chemical_name_systematic        
(Z)-3-Benzylidene-1-methyl-1,3-dihydro-2H-indol-2-one
_symmetry_cell_setting           monoclinic
_symmetry_space_group_name_H-M   'C c'
_symmetry_Int_Tables_number      9
_space_group_name_Hall           'C -2yc'
loop_
_symmetry_equiv_pos_site_id
_symmetry_equiv_pos_as_xyz
1 x,y,z
2 x,-y,1/2+z
3 1/2+x,1/2+y,z
4 1/2+x,1/2-y,1/2+z
_cell_length_a                   29.549(10)
_cell_length_b                   5.6866(18)
_cell_length_c                   15.507(5)
_cell_angle_alpha                90
_cell_angle_beta                 109.502(7)
_cell_angle_gamma                90
_cell_volume                     2456.2
_exptl_crystal_colour            colorless
_exptl_crystal_description       block
_cell_formula_units_Z            8
loop_
_atom_site_label
_atom_site_type_symbol
_atom_site_fract_x
_atom_site_fract_y
_atom_site_fract_z
O1 O 0.30634(15) 0.9115(8) 0.3917(3)
N1 N 0.26151(16) 1.1577(9) 0.4490(3)
C1 C 0.2731(3) 0.5223(13) 0.2548(5)
H1 H 0.2926 0.6469 0.2840
C2 C 0.2901(3) 0.3548(15) 0.2071(6)
H2 H 0.3217 0.3650 0.2084
C3 C 0.2620(3) 0.1771(11) 0.1588(5)
H3 H 0.2738 0.0682 0.1270
C4 C 0.2144(3) 0.1637(12) 0.1588(5)
H4 H 0.1943 0.0472 0.1244
C5 C 0.1971(3) 0.3156(11) 0.2072(4)
H5 H 0.1658 0.2993 0.2074
C6 C 0.2269(2) 0.5022(11) 0.2584(4)
C7 C 0.20296(19) 0.6579(8) 0.3043(3)
H6 H 0.1706 0.6230 0.2906
C8 C 0.2168(2) 0.8353(12) 0.3603(5)
C9 C 0.1883(2) 0.9865(9) 0.4003(4)
C10 C 0.1403(2) 0.9651(12) 0.3940(5)
H7 H 0.1219 0.8408 0.3617
C11 C 0.1210(2) 1.1223(12) 0.4342(6)
H8 H 0.0894 1.1048 0.4324
C12 C 0.1478(3) 1.3127(12) 0.4790(5)
H9 H 0.1324 1.4262 0.5024
C13 C 0.1959(2) 1.3453(10) 0.4910(4)
H10 H 0.2141 1.4689 0.5243
C14 C 0.2139(2) 1.1727(8) 0.4480(4)
C15 C 0.26872(18) 0.9649(10) 0.3967(4)
C16 C 0.3021(2) 1.3078(12) 0.4937(6)
H11 H 0.3271 1.2796 0.4682
H12 H 0.3139 1.2738 0.5580
H13 H 0.2924 1.4695 0.4845
O2 O 0.39388(15) 0.5932(8) 0.1862(3)
N2 N 0.43639(18) 0.3471(7) 0.1271(4)
C17 C 0.4268(2) 0.9809(12) 0.3208(4)
H14 H 0.4069 0.8614 0.2884
C18 C 0.4095(3) 1.1382(13) 0.3684(5)
H15 H 0.3787 1.1220 0.3710
C19 C 0.4384(3) 1.3204(14) 0.4123(6)
H16 H 0.4260 1.4306 0.4427
C20 C 0.4838(3) 1.3476(13) 0.4134(5)
H17 H 0.5029 1.4725 0.4436
C21 C 0.5008(3) 1.1780(11) 0.3667(5)
H18 H 0.5324 1.1903 0.3679
C22 C 0.4738(2) 0.9949(11) 0.3194(4)
C23 C 0.4927(2) 0.8315(13) 0.2661(5)
H19 H 0.5243 0.8696 0.2724
C24 C 0.47828(19) 0.6451(8) 0.2114(3)
C25 C 0.5105(2) 0.5182(11) 0.1750(4)
C26 C 0.5578(3) 0.5393(12) 0.1826(5)
H20 H 0.5761 0.6645 0.2142
C27 C 0.5787(3) 0.3611(14) 0.1399(5)
H21 H 0.6111 0.3700 0.1468
C28 C 0.5516(2) 0.1806(13) 0.0900(5)
H22 H 0.5648 0.0715 0.0603
C29 C 0.5031(3) 0.1660(13) 0.0850(5)
H23 H 0.4846 0.0406 0.0540
C30 C 0.4828(2) 0.3289(11) 0.1241(4)
C31 C 0.4340(3) 0.5414(10) 0.1757(4)
C32 C 0.3990(2) 0.1804(11) 0.0806(4)
H24 H 0.4042 0.1244 0.0263
H25 H 0.3682 0.2564 0.0644
H26 H 0.3997 0.0502 0.1205
loop_
_geom_bond_atom_site_label_1
_geom_bond_atom_site_label_2
_geom_bond_site_symmetry_1
_geom_bond_site_symmetry_2
O1 C15 1_555 1_555
O2 C31 1_555 1_555
N1 C14 1_555 1_555
N2 C30 1_555 1_555
C1 H1 1_555 1_555
C2 C1 1_555 1_555
H2 C2 1_555 1_555
C3 C2 1_555 1_555
H3 C3 1_555 1_555
C4 C3 1_555 1_555
H4 C4 1_555 1_555
C5 C4 1_555 1_555
H5 C5 1_555 1_555
C6 C1 1_555 1_555
C7 C6 1_555 1_555
H6 C7 1_555 1_555
C8 C7 1_555 1_555
C9 C8 1_555 1_555
C10 C9 1_555 1_555
H7 C10 1_555 1_555
C11 C10 1_555 1_555
H8 C11 1_555 1_555
C12 C11 1_555 1_555
H9 C12 1_555 1_555
C13 C12 1_555 1_555
H10 C13 1_555 1_555
C14 C9 1_555 1_555
C15 N1 1_555 1_555
C16 N1 1_555 1_555
H11 C16 1_555 1_555
H12 C16 1_555 1_555
H13 C16 1_555 1_555
C17 H14 1_555 1_555
C18 C17 1_555 1_555
H15 C18 1_555 1_555
C19 C18 1_555 1_555
H16 C19 1_555 1_555
C20 C19 1_555 1_555
H17 C20 1_555 1_555
C21 C20 1_555 1_555
H18 C21 1_555 1_555
C22 C17 1_555 1_555
C23 C22 1_555 1_555
H19 C23 1_555 1_555
C24 C23 1_555 1_555
C25 C24 1_555 1_555
C26 C25 1_555 1_555
H20 C26 1_555 1_555
C27 C26 1_555 1_555
H21 C27 1_555 1_555
C28 C27 1_555 1_555
H22 C28 1_555 1_555
C29 C28 1_555 1_555
H23 C29 1_555 1_555
C30 C25 1_555 1_555
C31 N2 1_555 1_555
C32 N2 1_555 1_555
H24 C32 1_555 1_555
H25 C32 1_555 1_555
H26 C32 1_555 1_555
C5 C6 1_555 1_555
C8 C15 1_555 1_555
C13 C14 1_555 1_555
C21 C22 1_555 1_555
C24 C31 1_555 1_555
C29 C30 1_555 1_555

#END
