
#######################################################################
#
#                 Cambridge Crystallographic Data Centre
#                                CCDC 
#
#######################################################################
#
# If this CIF has been generated from an entry in the Cambridge 
# Structural Database, then it will include bibliographic, chemical, 
# crystal, experimental, refinement or atomic coordinate data resulting 
# from the CCDC's data processing and validation procedures.
#
#######################################################################

data_LUPXEB
_chemical_formula_moiety         'C19 H37 B10 N1'
_chemical_name_systematic        
2-(N-(2,6-diisopropylphenyl)-2,2-dimethylpropanimidoyl)-1,2-dicarba-closo-dodecaborane(11)
_symmetry_cell_setting           monoclinic
_symmetry_space_group_name_H-M   'P 21/n'
_symmetry_Int_Tables_number      14
_space_group_name_Hall           '-P 2yn'
loop_
_symmetry_equiv_pos_site_id
_symmetry_equiv_pos_as_xyz
1 x,y,z
2 1/2-x,1/2+y,1/2-z
3 -x,-y,-z
4 1/2+x,1/2-y,1/2+z
_cell_length_a                   10.5147(13)
_cell_length_b                   20.272(2)
_cell_length_c                   12.1906(14)
_cell_angle_alpha                90
_cell_angle_beta                 108.022(2)
_cell_angle_gamma                90
_cell_volume                     2470.99
_exptl_crystal_colour            colorless
_exptl_crystal_description       block
_cell_formula_units_Z            4
loop_
_atom_site_label
_atom_site_type_symbol
_atom_site_fract_x
_atom_site_fract_y
_atom_site_fract_z
N1 N 0.7179(2) 0.07921(9) 0.69724(18)
C1 C 0.6456(2) 0.15815(12) 0.8037(2)
C2 C 0.4975(3) 0.12323(15) 0.7460(3)
H1 H 0.4839 0.0872 0.6759
C3 C 0.7513(2) 0.13369(12) 0.7469(2)
C4 C 0.8741(3) 0.17785(12) 0.7541(2)
C5 C 0.9480(3) 0.19767(17) 0.8791(3)
H2 H 0.8879 0.2209 0.9108
H3 H 1.0222 0.2257 0.8807
H4 H 0.9803 0.1588 0.9241
C6 C 0.8294(4) 0.23925(15) 0.6781(3)
H5 H 0.7837 0.2259 0.6003
H6 H 0.9063 0.2651 0.6795
H7 H 0.7702 0.2651 0.7070
C7 C 0.9752(3) 0.14152(16) 0.7084(3)
H8 H 0.9328 0.1287 0.6297
H9 H 1.0068 0.1029 0.7544
H10 H 1.0493 0.1701 0.7125
C8 C 0.7759(2) 0.03809(11) 0.6311(2)
C9 C 0.8576(3) -0.01469(13) 0.6850(3)
C10 C 0.8946(3) -0.05986(15) 0.6148(3)
H11 H 0.9487 -0.0953 0.6487
C11 C 0.8539(3) -0.05383(17) 0.4973(3)
H12 H 0.8800 -0.0849 0.4524
C12 C 0.7744(3) -0.00174(16) 0.4458(3)
H13 H 0.7479 0.0022 0.3659
C13 C 0.7323(3) 0.04552(13) 0.5105(2)
C14 C 0.6413(3) 0.10175(14) 0.4511(2)
H14 H 0.6492 0.1364 0.5089
C15 C 0.6829(5) 0.1320(2) 0.3536(4)
H15 H 0.7746 0.1457 0.3822
H16 H 0.6273 0.1695 0.3233
H17 H 0.6729 0.0999 0.2936
C16 C 0.4963(4) 0.08050(19) 0.4102(4)
H18 H 0.4723 0.0624 0.4738
H19 H 0.4840 0.0477 0.3510
H20 H 0.4407 0.1179 0.3797
C17 C 0.9037(3) -0.02308(15) 0.8147(3)
H21 H 0.8888 0.0190 0.8484
C18 C 1.0534(4) -0.0387(2) 0.8626(4)
H22 H 1.1034 -0.0058 0.8369
H23 H 1.0704 -0.0813 0.8354
H24 H 1.0801 -0.0389 0.9453
C19 C 0.8210(5) -0.0753(2) 0.8518(4)
H25 H 0.7278 -0.0643 0.8214
H26 H 0.8465 -0.0767 0.9345
H27 H 0.8365 -0.1176 0.8229
B1 B 0.5890(4) 0.0980(2) 0.8784(3)
H28 H 0.6350 0.0489 0.8992
B2 B 0.6678(4) 0.1715(2) 0.9470(3)
H29 H 0.7657 0.1704 1.0142
B3 B 0.6217(4) 0.23643(17) 0.8464(4)
H30 H 0.6907 0.2776 0.8488
B4 B 0.5168(3) 0.20427(19) 0.7146(4)
H31 H 0.5168 0.2233 0.6301
B5 B 0.4128(4) 0.1104(2) 0.8400(4)
H32 H 0.3437 0.0690 0.8361
B6 B 0.5197(5) 0.1422(3) 0.9720(4)
H33 H 0.5217 0.1221 1.0563
B7 B 0.5382(4) 0.2278(3) 0.9491(4)
H34 H 0.5510 0.2641 1.0188
B8 B 0.4468(4) 0.2477(2) 0.8067(5)
H35 H 0.4003 0.2964 0.7823
B9 B 0.3691(4) 0.1748(2) 0.7409(4)
H36 H 0.2719 0.1754 0.6727
B10 B 0.3837(4) 0.1891(2) 0.8869(4)
H37 H 0.2967 0.1994 0.9163
loop_
_geom_bond_atom_site_label_1
_geom_bond_atom_site_label_2
_geom_bond_site_symmetry_1
_geom_bond_site_symmetry_2
N1 C3 1_555 1_555
C1 C2 1_555 1_555
C2 H1 1_555 1_555
C3 C1 1_555 1_555
C4 C3 1_555 1_555
C5 C4 1_555 1_555
H2 C5 1_555 1_555
H3 C5 1_555 1_555
H4 C5 1_555 1_555
C6 C4 1_555 1_555
H5 C6 1_555 1_555
H6 C6 1_555 1_555
H7 C6 1_555 1_555
C7 C4 1_555 1_555
H8 C7 1_555 1_555
H9 C7 1_555 1_555
H10 C7 1_555 1_555
C8 N1 1_555 1_555
C9 C8 1_555 1_555
C10 C9 1_555 1_555
H11 C10 1_555 1_555
C11 C10 1_555 1_555
H12 C11 1_555 1_555
C12 C11 1_555 1_555
H13 C12 1_555 1_555
C13 C8 1_555 1_555
C14 C13 1_555 1_555
H14 C14 1_555 1_555
C15 C14 1_555 1_555
H15 C15 1_555 1_555
H16 C15 1_555 1_555
H17 C15 1_555 1_555
C16 C14 1_555 1_555
H18 C16 1_555 1_555
H19 C16 1_555 1_555
H20 C16 1_555 1_555
C17 C9 1_555 1_555
H21 C17 1_555 1_555
C18 C17 1_555 1_555
H22 C18 1_555 1_555
H23 C18 1_555 1_555
H24 C18 1_555 1_555
C19 C17 1_555 1_555
H25 C19 1_555 1_555
H26 C19 1_555 1_555
H27 C19 1_555 1_555
B1 C1 1_555 1_555
H28 B1 1_555 1_555
B2 C1 1_555 1_555
H29 B2 1_555 1_555
B3 C1 1_555 1_555
H30 B3 1_555 1_555
B4 C1 1_555 1_555
H31 B4 1_555 1_555
B5 C2 1_555 1_555
H32 B5 1_555 1_555
B6 B1 1_555 1_555
H33 B6 1_555 1_555
B7 B2 1_555 1_555
H34 B7 1_555 1_555
B8 B3 1_555 1_555
H35 B8 1_555 1_555
B9 C2 1_555 1_555
H36 B9 1_555 1_555
B10 B5 1_555 1_555
H37 B10 1_555 1_555
C2 B1 1_555 1_555
C2 B4 1_555 1_555
C12 C13 1_555 1_555
B1 B2 1_555 1_555
B1 B5 1_555 1_555
B2 B3 1_555 1_555
B2 B6 1_555 1_555
B3 B4 1_555 1_555
B3 B7 1_555 1_555
B4 B8 1_555 1_555
B4 B9 1_555 1_555
B5 B6 1_555 1_555
B5 B9 1_555 1_555
B6 B7 1_555 1_555
B6 B10 1_555 1_555
B7 B8 1_555 1_555
B7 B10 1_555 1_555
B8 B9 1_555 1_555
B8 B10 1_555 1_555
B9 B10 1_555 1_555

#END
