
#######################################################################
#
#                 Cambridge Crystallographic Data Centre
#                                CCDC 
#
#######################################################################
#
# If this CIF has been generated from an entry in the Cambridge 
# Structural Database, then it will include bibliographic, chemical, 
# crystal, experimental, refinement or atomic coordinate data resulting 
# from the CCDC's data processing and validation procedures.
#
#######################################################################

data_LUPXIF
_chemical_formula_moiety         'C19 H36 B11 Br2 N1,0.5(C7 H8)'
_chemical_name_systematic        
'1,2-(1-((dibromoboranyl)(2,6-di-isopropylphenyl)iminio)-2,2-dimethylpropyl)-1,2-dicarba-closo-dodecaborane toluene solvate'
_symmetry_cell_setting           monoclinic
_symmetry_space_group_name_H-M   'P 21/c'
_symmetry_Int_Tables_number      14
_space_group_name_Hall           '-P 2ybc'
loop_
_symmetry_equiv_pos_site_id
_symmetry_equiv_pos_as_xyz
1 x,y,z
2 -x,1/2+y,1/2-z
3 -x,-y,-z
4 x,1/2-y,1/2+z
_cell_length_a                   8.8893(14)
_cell_length_b                   16.193(3)
_cell_length_c                   21.266(3)
_cell_angle_alpha                90
_cell_angle_beta                 94.996(5)
_cell_angle_gamma                90
_cell_volume                     3049.49
_exptl_crystal_colour            colorless
_exptl_crystal_description       block
_cell_formula_units_Z            4
loop_
_atom_site_label
_atom_site_type_symbol
_atom_site_fract_x
_atom_site_fract_y
_atom_site_fract_z
C20 C -0.303(4) 1.007(2) 0.5362(19)
C21 C -0.312(3) 0.9222(18) 0.5383(14)
C22 C -0.444(3) 0.9027(18) 0.5037(12)
C23 C -0.577(2) 0.9406(10) 0.4827(8)
C24 C -0.558(3) 1.0251(10) 0.4901(11)
C20B C -0.697(4) 0.993(2) 0.4638(19)
C21B C -0.688(3) 1.0778(18) 0.4617(14)
C22B C -0.556(3) 1.0973(18) 0.4963(12)
C23B C -0.423(2) 1.0594(10) 0.5173(8)
C24B C -0.442(3) 0.9749(10) 0.5099(11)
N1 N 0.1704(6) 0.5393(3) 0.3155(3)
Br1 Br 0.40400(11) 0.54092(7) 0.42854(5)
Br2 Br 0.40693(10) 0.67456(6) 0.31637(5)
C1 C -0.0206(8) 0.6127(4) 0.3645(3)
C2 C 0.1423(8) 0.6518(5) 0.3935(3)
C3 C 0.0223(8) 0.5431(4) 0.3190(3)
C4 C -0.0991(8) 0.4833(5) 0.2897(4)
C5 C -0.2431(10) 0.5319(7) 0.2647(7)
H1 H -0.2741 0.5672 0.2975
H2 H -0.3228 0.4937 0.2522
H3 H -0.2214 0.5648 0.2290
C6 C -0.1386(13) 0.4259(7) 0.3471(6)
H4 H -0.1673 0.4599 0.3811
H5 H -0.0516 0.3937 0.3614
H6 H -0.2206 0.3898 0.3334
C7 C -0.0557(9) 0.4255(5) 0.2356(4)
H7 H -0.0319 0.4582 0.2002
H8 H -0.1390 0.3896 0.2231
H9 H 0.0306 0.3929 0.2502
C8 C 0.2505(8) 0.4873(5) 0.2715(3)
C9 C 0.2694(9) 0.5197(5) 0.2104(4)
C10 C 0.3529(9) 0.4728(6) 0.1713(4)
H10 H 0.3667 0.4922 0.1310
C11 C 0.4154(9) 0.3990(6) 0.1902(4)
H11 H 0.4719 0.3694 0.1631
C12 C 0.3952(9) 0.3676(5) 0.2499(4)
H12 H 0.4391 0.3174 0.2621
C13 C 0.3118(8) 0.4094(5) 0.2910(4)
C14 C 0.2883(9) 0.3651(5) 0.3527(4)
H13 H 0.2323 0.4022 0.3786
C15 C 0.4365(12) 0.3415(6) 0.3906(5)
H14 H 0.4976 0.3900 0.3982
H15 H 0.4899 0.3022 0.3671
H16 H 0.4150 0.3177 0.4301
C16 C 0.1959(12) 0.2849(6) 0.3414(5)
H17 H 0.1020 0.2972 0.3174
H18 H 0.1760 0.2614 0.3813
H19 H 0.2522 0.2462 0.3185
C17 C 0.1991(11) 0.6002(6) 0.1844(4)
H20 H 0.1616 0.6306 0.2197
C18 C 0.0652(15) 0.5859(9) 0.1347(5)
H21 H -0.0104 0.5533 0.1527
H22 H 0.0997 0.5573 0.0991
H23 H 0.0227 0.6381 0.1212
C19 C 0.3197(17) 0.6560(7) 0.1548(6)
H24 H 0.4022 0.6667 0.1859
H25 H 0.2739 0.7073 0.1409
H26 H 0.3566 0.6280 0.1194
B1 B 0.0322(10) 0.7109(6) 0.3391(4)
H27 H 0.0622 0.7257 0.2913
B2 B -0.1582(11) 0.6894(6) 0.3538(5)
H28 H -0.2496 0.6909 0.3154
B3 B -0.1592(12) 0.6148(7) 0.4172(5)
H29 H -0.2505 0.5693 0.4193
B4 B 0.0337(12) 0.5909(7) 0.4421(4)
H30 H 0.0665 0.5295 0.4607
B5 B 0.1281(12) 0.7560(6) 0.4068(5)
H31 H 0.2207 0.8003 0.4032
B6 B -0.0633(12) 0.7801(6) 0.3842(5)
H32 H -0.0955 0.8420 0.3665
B7 B -0.1832(14) 0.7219(8) 0.4313(5)
H33 H -0.2926 0.7459 0.4435
B8 B -0.0647(15) 0.6618(7) 0.4850(5)
H34 H -0.0973 0.6470 0.5325
B9 B 0.1283(14) 0.6818(6) 0.4706(5)
H35 H 0.2219 0.6788 0.5079
B10 B -0.0051(14) 0.7641(8) 0.4656(6)
H36 H 0.0010 0.8147 0.5003
B11 B 0.2719(10) 0.6025(6) 0.3613(4)
loop_
_geom_bond_atom_site_label_1
_geom_bond_atom_site_label_2
_geom_bond_site_symmetry_1
_geom_bond_site_symmetry_2
N1 C3 1_555 1_555
Br1 B11 1_555 1_555
Br2 B11 1_555 1_555
C1 C2 1_555 1_555
C2 B1 1_555 1_555
C3 C1 1_555 1_555
C4 C3 1_555 1_555
C5 C4 1_555 1_555
H1 C5 1_555 1_555
H2 C5 1_555 1_555
H3 C5 1_555 1_555
C6 C4 1_555 1_555
H4 C6 1_555 1_555
H5 C6 1_555 1_555
H6 C6 1_555 1_555
C7 C4 1_555 1_555
H7 C7 1_555 1_555
H8 C7 1_555 1_555
H9 C7 1_555 1_555
C8 N1 1_555 1_555
C9 C8 1_555 1_555
C10 C9 1_555 1_555
H10 C10 1_555 1_555
C11 C10 1_555 1_555
H11 C11 1_555 1_555
C12 C11 1_555 1_555
H12 C12 1_555 1_555
C13 C8 1_555 1_555
C14 C13 1_555 1_555
H13 C14 1_555 1_555
C15 C14 1_555 1_555
H14 C15 1_555 1_555
H15 C15 1_555 1_555
H16 C15 1_555 1_555
C16 C14 1_555 1_555
H17 C16 1_555 1_555
H18 C16 1_555 1_555
H19 C16 1_555 1_555
C17 C9 1_555 1_555
H20 C17 1_555 1_555
C18 C17 1_555 1_555
H21 C18 1_555 1_555
H22 C18 1_555 1_555
H23 C18 1_555 1_555
C19 C17 1_555 1_555
H24 C19 1_555 1_555
H25 C19 1_555 1_555
H26 C19 1_555 1_555
B1 C1 1_555 1_555
H27 B1 1_555 1_555
B2 C1 1_555 1_555
H28 B2 1_555 1_555
B3 C1 1_555 1_555
H29 B3 1_555 1_555
B4 C1 1_555 1_555
H30 B4 1_555 1_555
B5 C2 1_555 1_555
H31 B5 1_555 1_555
B6 B1 1_555 1_555
H32 B6 1_555 1_555
B7 B2 1_555 1_555
H33 B7 1_555 1_555
B8 B3 1_555 1_555
H34 B8 1_555 1_555
B9 C2 1_555 1_555
H35 B9 1_555 1_555
B10 B5 1_555 1_555
H36 B10 1_555 1_555
B11 N1 1_555 1_555
C20 C21 1_555 1_555
C21 C22 1_555 1_555
C22 C23 1_555 1_555
C23 C24 1_555 1_555
C24 C21B 1_555 1_555
C20B C23 1_555 1_555
C21B C20B 1_555 1_555
C22B C21B 1_555 1_555
C23B C20 1_555 1_555
C24B C21 1_555 1_555
C2 B4 1_555 1_555
C2 B11 1_555 1_555
C12 C13 1_555 1_555
B1 B2 1_555 1_555
B1 B5 1_555 1_555
B2 B3 1_555 1_555
B2 B6 1_555 1_555
B3 B4 1_555 1_555
B3 B7 1_555 1_555
B4 B8 1_555 1_555
B4 B9 1_555 1_555
B5 B6 1_555 1_555
B5 B9 1_555 1_555
B6 B7 1_555 1_555
B6 B10 1_555 1_555
B7 B8 1_555 1_555
B7 B10 1_555 1_555
B8 B9 1_555 1_555
B8 B10 1_555 1_555
B9 B10 1_555 1_555
C23 C24B 1_555 1_555
C24 C23B 1_555 1_555
C22B C23B 1_555 1_555
C23B C24B 1_555 1_555

#END
