
#######################################################################
#
#                 Cambridge Crystallographic Data Centre
#                                CCDC 
#
#######################################################################
#
# If this CIF has been generated from an entry in the Cambridge 
# Structural Database, then it will include bibliographic, chemical, 
# crystal, experimental, refinement or atomic coordinate data resulting 
# from the CCDC's data processing and validation procedures.
#
#######################################################################

data_LUPXUR
_chemical_formula_moiety         'C23 H42 B11 N1 O4,0.25(C6 H14)'
_chemical_name_systematic        
'1,2-(1-((bis(acetyloxy)borany)(2,6-di-isopropylphenyl)imino)-2,2-dimethylpropyl)-1,2-dicarba-closo-dodecaborane(10) hexane solvate'
_symmetry_cell_setting           triclinic
_symmetry_space_group_name_H-M   'P -1'
_symmetry_Int_Tables_number      2
_space_group_name_Hall           '-P 1'
loop_
_symmetry_equiv_pos_site_id
_symmetry_equiv_pos_as_xyz
1 x,y,z
2 -x,-y,-z
_cell_length_a                   9.8557(2)
_cell_length_b                   17.2485(5)
_cell_length_c                   19.2849(5)
_cell_angle_alpha                97.064(2)
_cell_angle_beta                 93.413(2)
_cell_angle_gamma                102.491(2)
_cell_volume                     3163.89
_exptl_crystal_colour            colorless
_exptl_crystal_description       block
_cell_formula_units_Z            4
loop_
_atom_site_label
_atom_site_type_symbol
_atom_site_fract_x
_atom_site_fract_y
_atom_site_fract_z
N1 N 0.2500(3) 0.82173(14) 0.29695(13)
O1 O 0.4743(2) 0.92292(12) 0.32200(11)
O2 O 0.6993(3) 0.91978(18) 0.32108(19)
O3 O 0.4804(2) 0.78220(13) 0.32865(11)
O4 O 0.4983(3) 0.83800(18) 0.44084(14)
C1 C 0.2647(3) 0.80127(18) 0.17625(15)
C2 C 0.4268(3) 0.82134(18) 0.21087(16)
C3 C 0.1747(3) 0.80820(17) 0.23728(15)
C4 C 0.0195(3) 0.8078(2) 0.22323(17)
C5 C -0.0522(4) 0.7459(2) 0.1608(2)
H1 H 0.0006 0.7529 0.1209
H2 H -0.1446 0.7531 0.1499
H3 H -0.0576 0.6929 0.1725
C6 C 0.0173(4) 0.8921(2) 0.2058(2)
H4 H 0.0733 0.9032 0.1676
H5 H 0.0541 0.9310 0.2462
H6 H -0.0769 0.8947 0.1927
C7 C -0.0720(4) 0.7925(3) 0.2853(2)
H7 H -0.0721 0.7402 0.2975
H8 H -0.1658 0.7956 0.2716
H9 H -0.0347 0.8323 0.3250
C8 C 0.1937(3) 0.8185(2) 0.36599(16)
C9 C 0.1800(4) 0.8887(2) 0.40626(18)
C10 C 0.1299(6) 0.8809(3) 0.4711(2)
H10 H 0.1192 0.9264 0.4995
C11 C 0.0957(7) 0.8083(4) 0.4945(3)
H11 H 0.0614 0.8049 0.5382
C12 C 0.1115(6) 0.7403(3) 0.4540(2)
H12 H 0.0876 0.6913 0.4707
C13 C 0.1626(4) 0.7431(2) 0.38839(19)
C14 C 0.2156(4) 0.9718(2) 0.38596(19)
H13 H 0.2500 0.9682 0.3393
C15 C 0.0911(5) 1.0116(3) 0.3836(3)
H14 H 0.0180 0.9792 0.3505
H15 H 0.1196 1.0637 0.3695
H16 H 0.0575 1.0168 0.4292
C16 C 0.3319(5) 1.0237(3) 0.4378(2)
H17 H 0.4111 0.9996 0.4383
H18 H 0.2998 1.0282 0.4838
H19 H 0.3583 1.0761 0.4240
C17 C 0.1804(6) 0.6665(3) 0.3473(2)
H20 H 0.2349 0.6815 0.3082
C18 C 0.0503(9) 0.6117(4) 0.3170(4)
H21 H -0.0034 0.6397 0.2901
H22 H -0.0022 0.5916 0.3539
H23 H 0.0709 0.5678 0.2870
C19 C 0.2615(8) 0.6203(4) 0.3896(5)
H24 H 0.3498 0.6543 0.4083
H25 H 0.2766 0.5746 0.3599
H26 H 0.2094 0.6026 0.4275
C20 C 0.6114(4) 0.9569(2) 0.33026(19)
C21 C 0.6407(4) 1.0451(2) 0.3498(2)
H27 H 0.7397 1.0663 0.3556
H28 H 0.6015 1.0577 0.3931
H29 H 0.5999 1.0685 0.3135
C22 C 0.5342(4) 0.7943(2) 0.3959(2)
C23 C 0.6403(5) 0.7465(3) 0.4073(2)
H30 H 0.6756 0.7566 0.4558
H31 H 0.7156 0.7616 0.3787
H32 H 0.5982 0.6905 0.3946
B1 B 0.3506(4) 0.7231(2) 0.1771(2)
H33 H 0.3244 0.6739 0.2087
B2 B 0.2415(4) 0.7290(2) 0.10245(19)
H34 H 0.1444 0.6837 0.0856
B3 B 0.2544(4) 0.8320(2) 0.09506(19)
H35 H 0.1652 0.8527 0.0731
B4 B 0.3711(4) 0.8909(2) 0.1651(2)
H36 H 0.3587 0.9500 0.1890
B5 B 0.5248(4) 0.7669(2) 0.1638(2)
H37 H 0.6132 0.7465 0.1870
B6 B 0.4086(4) 0.7086(3) 0.0934(2)
H38 H 0.4214 0.6495 0.0699
B7 B 0.3487(4) 0.7752(3) 0.0425(2)
H39 H 0.3222 0.7595 -0.0144
B8 B 0.4285(4) 0.8751(3) 0.0813(2)
H40 H 0.4541 0.9245 0.0498
B9 B 0.5367(4) 0.8689(3) 0.1558(2)
H41 H 0.6332 0.9143 0.1738
B10 B 0.5237(5) 0.7982(3) 0.0800(2)
H42 H 0.6115 0.7975 0.0475
B11 B 0.4234(4) 0.8392(2) 0.29459(19)
N2 N 0.2851(2) 0.28932(15) 0.17809(13)
O5 O 0.4426(2) 0.28417(13) 0.28543(11)
O6 O 0.3845(4) 0.1543(2) 0.29666(18)
O7 O 0.4752(2) 0.21499(12) 0.17023(11)
O8 O 0.6729(3) 0.2252(2) 0.2391(2)
C24 C 0.4196(3) 0.41043(17) 0.15355(16)
C25 C 0.5300(3) 0.36761(18) 0.19235(15)
C26 C 0.2773(3) 0.35118(18) 0.14716(15)
C27 C 0.1542(3) 0.3651(2) 0.10221(19)
C28 C 0.0104(4) 0.3120(3) 0.1099(2)
H43 H 0.0152 0.2566 0.1024
H44 H -0.0573 0.3213 0.0759
H45 H -0.0163 0.3249 0.1562
C29 C 0.1411(4) 0.4529(2) 0.1154(3)
H46 H 0.2295 0.4878 0.1111
H47 H 0.1136 0.4643 0.1618
H48 H 0.0722 0.4615 0.0816
C30 C 0.1860(4) 0.3464(3) 0.02492(19)
H49 H 0.2751 0.3788 0.0180
H50 H 0.1149 0.3582 -0.0057
H51 H 0.1876 0.2908 0.0147
C31 C 0.1672(3) 0.22519(19) 0.19024(17)
C32 C 0.0991(4) 0.2381(2) 0.2509(2)
C33 C -0.0074(4) 0.1759(3) 0.2635(2)
H52 H -0.0557 0.1827 0.3029
C34 C -0.0433(4) 0.1049(3) 0.2197(3)
H53 H -0.1144 0.0639 0.2299
C35 C 0.0249(4) 0.0941(2) 0.1610(2)
H54 H -0.0012 0.0454 0.1315
C36 C 0.1325(3) 0.1537(2) 0.14381(19)
C37 C 0.1337(4) 0.3145(3) 0.3029(2)
H55 H 0.2183 0.3490 0.2898
C38 C 0.1640(7) 0.2971(4) 0.3775(3)
H56 H 0.2377 0.2688 0.3784
H57 H 0.0815 0.2649 0.3923
H58 H 0.1918 0.3467 0.4087
C39 C 0.0185(7) 0.3610(4) 0.3028(3)
H59 H 0.0003 0.3734 0.2565
H60 H 0.0475 0.4099 0.3349
H61 H -0.0649 0.3290 0.3170
C40 C 0.1999(4) 0.1365(2) 0.07686(19)
H62 H 0.2759 0.1827 0.0734
C41 C 0.0955(5) 0.1234(3) 0.0108(2)
H63 H 0.0561 0.1695 0.0097
H64 H 0.0224 0.0769 0.0122
H65 H 0.1435 0.1156 -0.0305
C42 C 0.2613(4) 0.0629(2) 0.0769(2)
H66 H 0.3267 0.0701 0.1174
H67 H 0.3081 0.0555 0.0352
H68 H 0.1877 0.0165 0.0782
C43 C 0.4450(5) 0.2234(3) 0.3202(2)
C44 C 0.5241(6) 0.2484(3) 0.3916(2)
H69 H 0.5235 0.2018 0.4143
H70 H 0.4806 0.2845 0.4194
H71 H 0.6187 0.2746 0.3866
C45 C 0.5920(5) 0.1916(3) 0.1872(2)
C46 C 0.6185(5) 0.1249(3) 0.1380(2)
H72 H 0.7035 0.1114 0.1540
H73 H 0.6269 0.1408 0.0922
H74 H 0.5424 0.0790 0.1358
B12 B 0.5338(4) 0.3728(2) 0.10298(19)
H75 H 0.5036 0.3212 0.0612
B13 B 0.4959(4) 0.4670(2) 0.0933(2)
H76 H 0.4405 0.4769 0.0451
B14 B 0.4671(5) 0.5137(2) 0.1774(2)
H77 H 0.3938 0.5535 0.1835
B15 B 0.4858(4) 0.4486(2) 0.2393(2)
H78 H 0.4243 0.4457 0.2850
B16 B 0.6884(4) 0.3895(3) 0.1596(2)
H79 H 0.7592 0.3482 0.1546
B17 B 0.6704(4) 0.4548(3) 0.0968(2)
H80 H 0.7308 0.4571 0.0506
B18 B 0.6294(5) 0.5419(3) 0.1417(2)
H81 H 0.6631 0.6011 0.1245
B19 B 0.6232(5) 0.5302(2) 0.2320(2)
H82 H 0.6534 0.5818 0.2738
B20 B 0.6605(4) 0.4361(2) 0.2424(2)
H83 H 0.7138 0.4253 0.2908
B21 B 0.7491(4) 0.4939(3) 0.1825(2)
H84 H 0.8612 0.5219 0.1920
B22 B 0.4426(4) 0.2834(2) 0.21137(19)
C47 C 0.1911(18) 0.4875(9) 0.5441(8)
H85 H 0.1555 0.4793 0.5885
H86 H 0.1464 0.4432 0.5093
H87 H 0.1727 0.5363 0.5308
C48 C 0.3419(15) 0.4931(8) 0.5499(7)
H88 H 0.3820 0.5442 0.5784
H89 H 0.3557 0.4524 0.5784
C49 C 0.4294(12) 0.4875(9) 0.4963(9)
H90 H 0.4096 0.4313 0.4767
H91 H 0.3971 0.5154 0.4602
C47A C 0.8089(18) 0.5125(9) 0.4559(8)
H85A H 0.8445 0.5207 0.4115
H86A H 0.8536 0.5568 0.4907
H87A H 0.8273 0.4637 0.4692
C48A C 0.6581(15) 0.5069(8) 0.4501(7)
H88A H 0.6180 0.4558 0.4216
H89A H 0.6443 0.5476 0.4216
C49A C 0.5706(12) 0.5125(9) 0.5037(9)
H90A H 0.5904 0.5687 0.5233
H91A H 0.6029 0.4846 0.5398
loop_
_geom_bond_atom_site_label_1
_geom_bond_atom_site_label_2
_geom_bond_site_symmetry_1
_geom_bond_site_symmetry_2
N1 C3 1_555 1_555
O1 C20 1_555 1_555
O2 C20 1_555 1_555
O3 C22 1_555 1_555
O4 C22 1_555 1_555
C1 C2 1_555 1_555
C2 B1 1_555 1_555
C3 C1 1_555 1_555
C4 C3 1_555 1_555
C5 C4 1_555 1_555
H1 C5 1_555 1_555
H2 C5 1_555 1_555
H3 C5 1_555 1_555
C6 C4 1_555 1_555
H4 C6 1_555 1_555
H5 C6 1_555 1_555
H6 C6 1_555 1_555
C7 C4 1_555 1_555
H7 C7 1_555 1_555
H8 C7 1_555 1_555
H9 C7 1_555 1_555
C8 N1 1_555 1_555
C9 C8 1_555 1_555
C10 C9 1_555 1_555
H10 C10 1_555 1_555
C11 C10 1_555 1_555
H11 C11 1_555 1_555
C12 C11 1_555 1_555
H12 C12 1_555 1_555
C13 C8 1_555 1_555
C14 C9 1_555 1_555
H13 C14 1_555 1_555
C15 C14 1_555 1_555
H14 C15 1_555 1_555
H15 C15 1_555 1_555
H16 C15 1_555 1_555
C16 C14 1_555 1_555
H17 C16 1_555 1_555
H18 C16 1_555 1_555
H19 C16 1_555 1_555
C17 C13 1_555 1_555
H20 C17 1_555 1_555
C18 C17 1_555 1_555
H21 C18 1_555 1_555
H22 C18 1_555 1_555
H23 C18 1_555 1_555
C19 C17 1_555 1_555
H24 C19 1_555 1_555
H25 C19 1_555 1_555
H26 C19 1_555 1_555
C20 C21 1_555 1_555
C21 H27 1_555 1_555
H28 C21 1_555 1_555
H29 C21 1_555 1_555
C22 C23 1_555 1_555
C23 H30 1_555 1_555
H31 C23 1_555 1_555
H32 C23 1_555 1_555
B1 C1 1_555 1_555
H33 B1 1_555 1_555
B2 C1 1_555 1_555
H34 B2 1_555 1_555
B3 C1 1_555 1_555
H35 B3 1_555 1_555
B4 C1 1_555 1_555
H36 B4 1_555 1_555
B5 C2 1_555 1_555
H37 B5 1_555 1_555
B6 B1 1_555 1_555
H38 B6 1_555 1_555
B7 B2 1_555 1_555
H39 B7 1_555 1_555
B8 B3 1_555 1_555
H40 B8 1_555 1_555
B9 C2 1_555 1_555
H41 B9 1_555 1_555
B10 B5 1_555 1_555
H42 B10 1_555 1_555
B11 N1 1_555 1_555
N2 C26 1_555 1_555
O5 C43 1_555 1_555
O6 C43 1_555 1_555
O7 C45 1_555 1_555
O8 C45 1_555 1_555
C24 C25 1_555 1_555
C25 B12 1_555 1_555
C26 C24 1_555 1_555
C27 C26 1_555 1_555
C28 C27 1_555 1_555
H43 C28 1_555 1_555
H44 C28 1_555 1_555
H45 C28 1_555 1_555
C29 C27 1_555 1_555
H46 C29 1_555 1_555
H47 C29 1_555 1_555
H48 C29 1_555 1_555
C30 C27 1_555 1_555
H49 C30 1_555 1_555
H50 C30 1_555 1_555
H51 C30 1_555 1_555
C31 N2 1_555 1_555
C32 C31 1_555 1_555
C33 C32 1_555 1_555
H52 C33 1_555 1_555
C34 C33 1_555 1_555
H53 C34 1_555 1_555
C35 C34 1_555 1_555
H54 C35 1_555 1_555
C36 C31 1_555 1_555
C37 C32 1_555 1_555
H55 C37 1_555 1_555
C38 C37 1_555 1_555
H56 C38 1_555 1_555
H57 C38 1_555 1_555
H58 C38 1_555 1_555
C39 C37 1_555 1_555
H59 C39 1_555 1_555
H60 C39 1_555 1_555
H61 C39 1_555 1_555
C40 C36 1_555 1_555
H62 C40 1_555 1_555
C41 C40 1_555 1_555
H63 C41 1_555 1_555
H64 C41 1_555 1_555
H65 C41 1_555 1_555
C42 C40 1_555 1_555
H66 C42 1_555 1_555
H67 C42 1_555 1_555
H68 C42 1_555 1_555
C43 C44 1_555 1_555
C44 H69 1_555 1_555
H70 C44 1_555 1_555
H71 C44 1_555 1_555
C45 C46 1_555 1_555
C46 H72 1_555 1_555
H73 C46 1_555 1_555
H74 C46 1_555 1_555
B12 C24 1_555 1_555
H75 B12 1_555 1_555
B13 C24 1_555 1_555
H76 B13 1_555 1_555
B14 C24 1_555 1_555
H77 B14 1_555 1_555
B15 C24 1_555 1_555
H78 B15 1_555 1_555
B16 C25 1_555 1_555
H79 B16 1_555 1_555
B17 B12 1_555 1_555
H80 B17 1_555 1_555
B18 B13 1_555 1_555
H81 B18 1_555 1_555
B19 B14 1_555 1_555
H82 B19 1_555 1_555
B20 C25 1_555 1_555
H83 B20 1_555 1_555
B21 B16 1_555 1_555
H84 B21 1_555 1_555
B22 N2 1_555 1_555
C47 H85 1_555 1_555
H86 C47 1_555 1_555
H87 C47 1_555 1_555
C48 C47 1_555 1_555
H88 C48 1_555 1_555
H89 C48 1_555 1_555
C49 C48 1_555 1_555
H90 C49 1_555 1_555
H91 C49 1_555 1_555
C47A H85A 1_555 1_555
H86A C47A 1_555 1_555
H87A C47A 1_555 1_555
C48A C47A 1_555 1_555
H88A C48A 1_555 1_555
H89A C48A 1_555 1_555
C49A C49 1_555 1_555
H90A C49A 1_555 1_555
H91A C49A 1_555 1_555
O1 B11 1_555 1_555
O3 B11 1_555 1_555
C2 B4 1_555 1_555
C2 B11 1_555 1_555
C12 C13 1_555 1_555
B1 B2 1_555 1_555
B1 B5 1_555 1_555
B2 B3 1_555 1_555
B2 B6 1_555 1_555
B3 B4 1_555 1_555
B3 B7 1_555 1_555
B4 B8 1_555 1_555
B4 B9 1_555 1_555
B5 B6 1_555 1_555
B5 B9 1_555 1_555
B6 B7 1_555 1_555
B6 B10 1_555 1_555
B7 B8 1_555 1_555
B7 B10 1_555 1_555
B8 B9 1_555 1_555
B8 B10 1_555 1_555
B9 B10 1_555 1_555
O5 B22 1_555 1_555
O7 B22 1_555 1_555
C25 B15 1_555 1_555
C25 B22 1_555 1_555
C35 C36 1_555 1_555
B12 B13 1_555 1_555
B12 B16 1_555 1_555
B13 B14 1_555 1_555
B13 B17 1_555 1_555
B14 B15 1_555 1_555
B14 B18 1_555 1_555
B15 B19 1_555 1_555
B15 B20 1_555 1_555
B16 B17 1_555 1_555
B16 B20 1_555 1_555
B17 B18 1_555 1_555
B17 B21 1_555 1_555
B18 B19 1_555 1_555
B18 B21 1_555 1_555
B19 B20 1_555 1_555
B19 B21 1_555 1_555
B20 B21 1_555 1_555
C48A C49A 1_555 1_555

#END
