
#######################################################################
#
#                 Cambridge Crystallographic Data Centre
#                                CCDC 
#
#######################################################################
#
# If this CIF has been generated from an entry in the Cambridge 
# Structural Database, then it will include bibliographic, chemical, 
# crystal, experimental, refinement or atomic coordinate data resulting 
# from the CCDC's data processing and validation procedures.
#
#######################################################################

data_LUQFEJ
_chemical_formula_moiety         'C14 H31 N2 1+,C1 F3 O3 S1 1-'
_chemical_name_systematic        
'2-(Dibutylamino)cyclohexylammonium trifluoromethanesulfonate'
_symmetry_cell_setting           orthorhombic
_symmetry_space_group_name_H-M   'P 21 21 21'
_symmetry_Int_Tables_number      19
_space_group_name_Hall           'P 2ac 2ab'
loop_
_symmetry_equiv_pos_site_id
_symmetry_equiv_pos_as_xyz
1 x,y,z
2 1/2-x,-y,1/2+z
3 -x,1/2+y,1/2-z
4 1/2+x,1/2-y,-z
_cell_length_a                   7.6593(7)
_cell_length_b                   12.5747(11)
_cell_length_c                   20.4376(18)
_cell_angle_alpha                90
_cell_angle_beta                 90
_cell_angle_gamma                90
_cell_volume                     1968.41
_exptl_crystal_colour            colorless
_exptl_crystal_description       prismatic
_cell_formula_units_Z            4
loop_
_atom_site_label
_atom_site_type_symbol
_atom_site_fract_x
_atom_site_fract_y
_atom_site_fract_z
S1 S 0.35597(7) 0.92002(4) -0.01882(2)
F1 F 0.4889(2) 1.02108(14) -0.11860(7)
F2 F 0.3325(3) 0.88692(14) -0.14433(7)
F3 F 0.2119(2) 1.03074(15) -0.11248(9)
O1 O 0.50994(19) 0.85500(13) -0.01829(8)
O2 O 0.3630(3) 1.01447(13) 0.01920(8)
O3 O 0.19693(18) 0.85916(13) -0.01290(8)
C15 C 0.3472(3) 0.96721(19) -0.10329(11)
N1 N 0.8560(3) 0.86246(15) 0.04921(9)
N2 N 0.9511(2) 0.92773(15) 0.17347(7)
C1 C 0.8228(3) 0.97517(16) 0.06711(9)
H1 H 0.7041 0.9811 0.0846
C2 C 0.8384(3) 1.04635(18) 0.00753(10)
H2 H 0.7520 1.0259 -0.0248
H3 H 0.9532 1.0382 -0.0119
C3 C 0.8104(4) 1.1621(2) 0.02729(15)
H4 H 0.8279 1.2076 -0.0105
H5 H 0.6912 1.1715 0.0423
C4 C 0.9340(5) 1.1943(2) 0.08061(15)
H6 H 0.9100 1.2671 0.0933
H7 H 1.0527 1.1912 0.0642
C5 C 0.9180(4) 1.12269(18) 0.14011(13)
H8 H 0.8019 1.1293 0.1587
H9 H 1.0019 1.1443 0.1731
C6 C 0.9516(3) 1.00631(16) 0.12048(9)
H10 H 1.0681 1.0040 0.1007
C7 C 1.1208(3) 0.9267(2) 0.20792(10)
H11 H 1.1044 0.8959 0.2510
H12 H 1.1599 0.9994 0.2138
C8 C 1.2627(3) 0.8648(2) 0.17248(12)
H13 H 1.2701 0.8900 0.1277
H14 H 1.3739 0.8789 0.1934
C9 C 1.2318(4) 0.7471(3) 0.17179(18)
H15 H 1.1232 0.7335 0.1488
H16 H 1.2165 0.7233 0.2166
C10 C 1.3723(5) 0.6810(3) 0.14083(16)
H17 H 1.4069 0.7127 0.1001
H18 H 1.3288 0.6105 0.1329
H19 H 1.4711 0.6774 0.1696
C11 C 0.8062(3) 0.9395(2) 0.22058(10)
H20 H 0.7032 0.9646 0.1977
H21 H 0.8375 0.9924 0.2531
C12 C 0.7641(3) 0.8357(2) 0.25459(12)
H22 H 0.8708 0.8062 0.2725
H23 H 0.7192 0.7857 0.2226
C13 C 0.6319(4) 0.8481(3) 0.30906(12)
H24 H 0.6821 0.8917 0.3434
H25 H 0.5302 0.8849 0.2922
C14 C 0.5753(4) 0.7434(3) 0.33785(16)
H26 H 0.5284 0.6991 0.3039
H27 H 0.4875 0.7556 0.3705
H28 H 0.6740 0.7088 0.3575
H29 H 0.761(2) 0.837(2) 0.0344(12)
H30 H 0.864(3) 0.8316(17) 0.0873(8)
H31 H 0.949(2) 0.8567(18) 0.0261(10)
loop_
_geom_bond_atom_site_label_1
_geom_bond_atom_site_label_2
_geom_bond_site_symmetry_1
_geom_bond_site_symmetry_2
S1 O1 1_555 1_555
F1 C15 1_555 1_555
F2 C15 1_555 1_555
F3 C15 1_555 1_555
O2 S1 1_555 1_555
O3 S1 1_555 1_555
N1 C1 1_555 1_555
N2 C6 1_555 1_555
C1 H1 1_555 1_555
C2 C1 1_555 1_555
H2 C2 1_555 1_555
H3 C2 1_555 1_555
C3 C2 1_555 1_555
H4 C3 1_555 1_555
H5 C3 1_555 1_555
C4 C3 1_555 1_555
H6 C4 1_555 1_555
H7 C4 1_555 1_555
C5 C4 1_555 1_555
H8 C5 1_555 1_555
H9 C5 1_555 1_555
C6 C1 1_555 1_555
H10 C6 1_555 1_555
C7 N2 1_555 1_555
H11 C7 1_555 1_555
H12 C7 1_555 1_555
C8 C7 1_555 1_555
H13 C8 1_555 1_555
H14 C8 1_555 1_555
C9 C8 1_555 1_555
H15 C9 1_555 1_555
H16 C9 1_555 1_555
C10 C9 1_555 1_555
H17 C10 1_555 1_555
H18 C10 1_555 1_555
H19 C10 1_555 1_555
C11 N2 1_555 1_555
H20 C11 1_555 1_555
H21 C11 1_555 1_555
C12 C11 1_555 1_555
H22 C12 1_555 1_555
H23 C12 1_555 1_555
C13 C12 1_555 1_555
H24 C13 1_555 1_555
H25 C13 1_555 1_555
C14 C13 1_555 1_555
H26 C14 1_555 1_555
H27 C14 1_555 1_555
H28 C14 1_555 1_555
C15 S1 1_555 1_555
H29 N1 1_555 1_555
H30 N1 1_555 1_555
H31 N1 1_555 1_555
C5 C6 1_555 1_555

#END
