
#######################################################################
#
#                 Cambridge Crystallographic Data Centre
#                                CCDC 
#
#######################################################################
#
# If this CIF has been generated from an entry in the Cambridge 
# Structural Database, then it will include bibliographic, chemical, 
# crystal, experimental, refinement or atomic coordinate data resulting 
# from the CCDC's data processing and validation procedures.
#
#######################################################################

data_LUQJEN
_chemical_formula_moiety         'C19 H20 N8'
_chemical_name_systematic        
2-(N,N-diethylanilin-4-yl)-4,6-bis(pyrazol-1-yl)-1,3,5-triazine
_symmetry_cell_setting           monoclinic
_symmetry_space_group_name_H-M   'P 21/c'
_symmetry_Int_Tables_number      14
_space_group_name_Hall           '-P 2ybc'
loop_
_symmetry_equiv_pos_site_id
_symmetry_equiv_pos_as_xyz
1 x,y,z
2 -x,1/2+y,1/2-z
3 -x,-y,-z
4 x,1/2-y,1/2+z
_cell_length_a                   5.8827(12)
_cell_length_b                   17.349(3)
_cell_length_c                   18.563(5)
_cell_angle_alpha                90
_cell_angle_beta                 103.90(3)
_cell_angle_gamma                90
_cell_volume                     1839.04
_exptl_crystal_colour            yellow
_exptl_crystal_description       plate
_chemical_melting_point          '433-436 K'
_cell_formula_units_Z            4
_exptl_crystal_recrystallization_method dichloromethane
loop_
_atom_site_label
_atom_site_type_symbol
_atom_site_fract_x
_atom_site_fract_y
_atom_site_fract_z
N1 N -0.1828(4) 0.13941(15) 0.08675(14)
N2 N 0.8129(4) 0.18358(15) 0.31487(13)
N3 N 1.1498(4) 0.26468(14) 0.33207(13)
N4 N 0.8179(4) 0.28909(14) 0.23324(13)
N5 N 1.1483(4) 0.16049(15) 0.40843(13)
N6 N 1.0335(5) 0.11323(19) 0.44603(16)
N7 N 1.1414(4) 0.36786(14) 0.25183(13)
N8 N 1.3722(4) 0.38317(15) 0.28250(16)
C1 C -0.1994(7) -0.0040(2) 0.0796(2)
H1 H -0.2816 -0.0475 0.0929
H2 H -0.0358 -0.0083 0.1032
H3 H -0.2199 -0.0028 0.0267
C2 C -0.2955(5) 0.0693(2) 0.10478(19)
H4 H -0.4619 0.0722 0.0819
H5 H -0.2769 0.0670 0.1581
C3 C -0.2988(5) 0.1812(2) 0.01985(18)
H6 H -0.2692 0.2359 0.0282
H7 H -0.4665 0.1732 0.0111
C4 C -0.2213(7) 0.1576(2) -0.0487(2)
H8 H -0.3043 0.1874 -0.0903
H9 H -0.2540 0.1038 -0.0583
H10 H -0.0561 0.1664 -0.0411
C5 C 0.0347(5) 0.16006(17) 0.12716(16)
C6 C 0.1484(5) 0.11957(17) 0.19135(15)
H11 H 0.0762 0.0767 0.2061
C7 C 0.3637(5) 0.14219(17) 0.23247(16)
H12 H 0.4336 0.1144 0.2749
C8 C 0.4812(5) 0.20571(16) 0.21259(15)
C9 C 0.3704(5) 0.24605(17) 0.14918(16)
H13 H 0.4441 0.2889 0.1349
C10 C 0.1552(5) 0.22429(18) 0.10708(17)
H14 H 0.0871 0.2522 0.0646
C11 C 0.7129(5) 0.22765(17) 0.25573(15)
C12 C 1.0278(5) 0.20522(17) 0.34846(15)
C13 C 1.0298(5) 0.30341(16) 0.27363(15)
C14 C 1.2042(7) 0.0815(3) 0.4964(2)
H15 H 1.1798 0.0467 0.5319
C15 C 1.4249(7) 0.1055(2) 0.4909(2)
H16 H 1.5691 0.0899 0.5200
C16 C 1.3847(6) 0.15613(19) 0.43428(18)
H17 H 1.4966 0.1829 0.4164
C17 C 1.4119(6) 0.44595(19) 0.2478(2)
H18 H 1.5566 0.4705 0.2568
C18 C 1.2141(7) 0.4718(2) 0.1961(2)
H19 H 1.2017 0.5150 0.1658
C19 C 1.0446(6) 0.42073(19) 0.19964(18)
H20 H 0.8907 0.4216 0.1716
loop_
_geom_bond_atom_site_label_1
_geom_bond_atom_site_label_2
_geom_bond_site_symmetry_1
_geom_bond_site_symmetry_2
N1 C2 1_555 1_555
N2 C11 1_555 1_555
N3 C12 1_555 1_555
N4 C11 1_555 1_555
N5 N6 1_555 1_555
N6 C14 1_555 1_555
N7 N8 1_555 1_555
N8 C17 1_555 1_555
C1 H1 1_555 1_555
H2 C1 1_555 1_555
H3 C1 1_555 1_555
C2 C1 1_555 1_555
H4 C2 1_555 1_555
H5 C2 1_555 1_555
C3 N1 1_555 1_555
H6 C3 1_555 1_555
H7 C3 1_555 1_555
C4 C3 1_555 1_555
H8 C4 1_555 1_555
H9 C4 1_555 1_555
H10 C4 1_555 1_555
C5 N1 1_555 1_555
C6 C5 1_555 1_555
H11 C6 1_555 1_555
C7 C6 1_555 1_555
H12 C7 1_555 1_555
C8 C7 1_555 1_555
C9 C8 1_555 1_555
H13 C9 1_555 1_555
C10 C5 1_555 1_555
H14 C10 1_555 1_555
C11 C8 1_555 1_555
C12 N2 1_555 1_555
C13 N3 1_555 1_555
C14 H15 1_555 1_555
C15 C14 1_555 1_555
H16 C15 1_555 1_555
C16 N5 1_555 1_555
H17 C16 1_555 1_555
C17 H18 1_555 1_555
C18 C17 1_555 1_555
H19 C18 1_555 1_555
C19 N7 1_555 1_555
H20 C19 1_555 1_555
N4 C13 1_555 1_555
N5 C12 1_555 1_555
N7 C13 1_555 1_555
C9 C10 1_555 1_555
C15 C16 1_555 1_555
C18 C19 1_555 1_555

#END
