
#######################################################################
#
#                 Cambridge Crystallographic Data Centre
#                                CCDC 
#
#######################################################################
#
# If this CIF has been generated from an entry in the Cambridge 
# Structural Database, then it will include bibliographic, chemical, 
# crystal, experimental, refinement or atomic coordinate data resulting 
# from the CCDC's data processing and validation procedures.
#
#######################################################################

data_LUQMAN
_chemical_formula_moiety         'C18 H18 N2 O4'
_chemical_name_systematic        
'ethyl 7-oxo-5-(4-propylphenyl)-2,7-dihydropyrano[3,2-c]pyrazole-3-carboxylate'
_symmetry_cell_setting           monoclinic
_symmetry_space_group_name_H-M   'P 21/c'
_symmetry_Int_Tables_number      14
_space_group_name_Hall           '-P 2ybc'
loop_
_symmetry_equiv_pos_site_id
_symmetry_equiv_pos_as_xyz
1 x,y,z
2 -x,1/2+y,1/2-z
3 -x,-y,-z
4 x,1/2-y,1/2+z
_cell_length_a                   11.3073(3)
_cell_length_b                   12.3863(2)
_cell_length_c                   11.7620(2)
_cell_angle_alpha                90
_cell_angle_beta                 103.475(2)
_cell_angle_gamma                90
_cell_volume                     1601.99
_exptl_crystal_colour            yellowish
_exptl_crystal_description       prism
_cell_formula_units_Z            4
loop_
_atom_site_label
_atom_site_type_symbol
_atom_site_fract_x
_atom_site_fract_y
_atom_site_fract_z
O1 O 0.33158(10) 0.79743(8) 0.47511(9)
O2 O 0.23744(11) 0.98804(9) 0.33591(9)
O3 O 0.54652(12) 0.75431(9) 0.80976(10)
O4 O 0.28979(13) 1.15007(9) 0.41849(11)
N1 N 0.41960(12) 1.03978(10) 0.62190(11)
H1 H 0.4233 1.1088 0.6300
N2 N 0.47536(13) 0.97231(10) 0.70468(11)
C1 C 0.37435(15) 0.88166(12) 0.54605(13)
C2 C 0.44774(15) 0.87401(12) 0.65837(13)
C3 C 0.35630(14) 0.99077(12) 0.52326(12)
C4 C 0.29167(15) 1.05300(12) 0.42171(13)
C5 C 0.31081(15) 0.61102(12) 0.43928(14)
C6 C 0.48314(15) 0.76867(12) 0.71009(14)
C7 C 0.36370(14) 0.69690(12) 0.52109(13)
C8 C 0.33459(17) 0.50211(12) 0.46866(15)
H2 H 0.3865 0.4844 0.5399
C9 C 0.43363(15) 0.68294(12) 0.63010(14)
H3 H 0.4512 0.6124 0.6556
C10 C 0.20418(17) 0.44371(13) 0.28676(16)
C11 C 0.23305(17) 0.63372(13) 0.33217(15)
H4 H 0.2157 0.7052 0.3103
C12 C 0.28237(16) 0.42147(13) 0.39390(15)
H5 H 0.2998 0.3499 0.4155
C13 C 0.18087(18) 0.55165(14) 0.25738(15)
H6 H 0.1291 0.5690 0.1860
C14 C 0.1513(2) 0.35099(15) 0.20772(18)
H7 H 0.2181 0.3127 0.1872
H8 H 0.1136 0.3016 0.2527
C15 C 0.1782(2) 1.03996(17) 0.22695(16)
H9 H 0.2373 1.0788 0.1947
H10 H 0.1174 1.0908 0.2399
C16 C 0.1204(2) 0.9536(2) 0.14585(17)
H11 H 0.0889 0.9837 0.0696
H12 H 0.0552 0.9218 0.1740
H13 H 0.1796 0.8992 0.1414
C17 C 0.0599(2) 0.37623(16) 0.09687(19)
H14 H 0.0956 0.4259 0.0506
H15 H -0.0097 0.4116 0.1156
C18 C 0.0173(2) 0.27557(19) 0.0251(2)
H16 H -0.0420 0.2952 -0.0444
H17 H -0.0185 0.2263 0.0704
H18 H 0.0854 0.2416 0.0040
loop_
_geom_bond_atom_site_label_1
_geom_bond_atom_site_label_2
_geom_bond_site_symmetry_1
_geom_bond_site_symmetry_2
O1 C1 1_555 1_555
O2 C4 1_555 1_555
O3 C6 1_555 1_555
O4 C4 1_555 1_555
N1 H1 1_555 1_555
N2 N1 1_555 1_555
C1 C2 1_555 1_555
C2 N2 1_555 1_555
C3 N1 1_555 1_555
C4 C3 1_555 1_555
C5 C7 1_555 1_555
C6 C2 1_555 1_555
C7 O1 1_555 1_555
C8 C5 1_555 1_555
H2 C8 1_555 1_555
C9 C6 1_555 1_555
H3 C9 1_555 1_555
C10 C12 1_555 1_555
C11 C5 1_555 1_555
H4 C11 1_555 1_555
C12 C8 1_555 1_555
H5 C12 1_555 1_555
C13 C10 1_555 1_555
H6 C13 1_555 1_555
C14 C10 1_555 1_555
H7 C14 1_555 1_555
H8 C14 1_555 1_555
C15 O2 1_555 1_555
H9 C15 1_555 1_555
H10 C15 1_555 1_555
C16 C15 1_555 1_555
H11 C16 1_555 1_555
H12 C16 1_555 1_555
H13 C16 1_555 1_555
C17 C14 1_555 1_555
H14 C17 1_555 1_555
H15 C17 1_555 1_555
C18 C17 1_555 1_555
H16 C18 1_555 1_555
H17 C18 1_555 1_555
H18 C18 1_555 1_555
C1 C3 1_555 1_555
C7 C9 1_555 1_555
C11 C13 1_555 1_555

#END
