
#######################################################################
#
#                 Cambridge Crystallographic Data Centre
#                                CCDC 
#
#######################################################################
#
# If this CIF has been generated from an entry in the Cambridge 
# Structural Database, then it will include bibliographic, chemical, 
# crystal, experimental, refinement or atomic coordinate data resulting 
# from the CCDC's data processing and validation procedures.
#
#######################################################################

data_LUQMER
_chemical_formula_moiety         'C20 H20 N3 1+,F6 P1 1-'
_chemical_name_systematic        
'1-(acridin-9-yl)-3-butyl-1H-imidazol-3-ium hexafluorophosphate'
_symmetry_cell_setting           monoclinic
_symmetry_space_group_name_H-M   'P 21/c'
_symmetry_Int_Tables_number      14
_space_group_name_Hall           '-P 2ybc'
loop_
_symmetry_equiv_pos_site_id
_symmetry_equiv_pos_as_xyz
1 x,y,z
2 -x,1/2+y,1/2-z
3 -x,-y,-z
4 x,1/2-y,1/2+z
_cell_length_a                   13.285(3)
_cell_length_b                   16.926(3)
_cell_length_c                   9.0655(17)
_cell_angle_alpha                90
_cell_angle_beta                 105.976(2)
_cell_angle_gamma                90
_cell_volume                     1959.75
_exptl_crystal_colour            yellow
_exptl_crystal_description       prism
_cell_formula_units_Z            4
loop_
_atom_site_label
_atom_site_type_symbol
_atom_site_fract_x
_atom_site_fract_y
_atom_site_fract_z
N1 N 1.07740(12) 0.59273(8) 0.90051(16)
N2 N 0.75128(12) 0.56302(9) 0.83414(17)
N3 N 0.58386(12) 0.58050(11) 0.76604(19)
C1 C 0.91387(14) 0.52395(10) 0.77861(19)
C2 C 0.86391(16) 0.46314(10) 0.6750(2)
H1 H 0.7902 0.4563 0.6511
C3 C 0.92208(16) 0.41520(11) 0.6106(2)
H2 H 0.8884 0.3745 0.5427
C4 C 1.03172(16) 0.42466(11) 0.6426(2)
H3 H 1.0708 0.3898 0.5973
C5 C 1.08174(16) 0.48315(10) 0.7374(2)
H4 H 1.1553 0.4896 0.7566
C6 C 1.02412(14) 0.53503(10) 0.80832(19)
C7 C 1.02334(14) 0.64243(10) 0.96748(19)
C8 C 1.07953(15) 0.70459(10) 1.0600(2)
H5 H 1.1525 0.7102 1.0721
C9 C 1.02978(16) 0.75609(11) 1.1311(2)
H6 H 1.0680 0.7978 1.1916
C10 C 0.92170(16) 0.74800(11) 1.1157(2)
H7 H 0.8884 0.7842 1.1673
C11 C 0.86400(15) 0.68968(10) 1.0288(2)
H8 H 0.7914 0.6850 1.0207
C12 C 0.91312(14) 0.63552(10) 0.94960(19)
C13 C 0.86127(14) 0.57480(10) 0.8542(2)
C14 C 0.70669(15) 0.49684(11) 0.8811(2)
H9 H 0.7428 0.4522 0.9335
C15 C 0.60241(16) 0.50808(12) 0.8380(2)
H10 H 0.5510 0.4726 0.8541
C16 C 0.67451(15) 0.61244(13) 0.7647(2)
H11 H 0.6835 0.6622 0.7216
C17 C 0.4782(5) 0.6113(8) 0.6879(7)
H12 H 0.4311 0.5684 0.6354
H13 H 0.4815 0.6526 0.6122
C18 C 0.4423(4) 0.6450(4) 0.8186(8)
H14 H 0.4954 0.6830 0.8757
H15 H 0.4376 0.6017 0.8898
C19 C 0.3370(5) 0.6864(7) 0.7677(10)
H16 H 0.3386 0.7247 0.6858
H17 H 0.2822 0.6468 0.7235
C20 C 0.3082(4) 0.7291(4) 0.8946(6)
H18 H 0.3139 0.6930 0.9809
H19 H 0.2360 0.7484 0.8578
H20 H 0.3557 0.7739 0.9281
P1 P 0.64127(12) 0.63928(7) 0.33500(15)
F1 F 0.7102(3) 0.69454(15) 0.25843(19)
F2 F 0.57191(18) 0.58395(17) 0.4123(2)
F3 F 0.74388(12) 0.60979(11) 0.4588(4)
F4 F 0.5375(2) 0.66765(13) 0.2112(2)
F5 F 0.63063(18) 0.70990(14) 0.4464(2)
F6 F 0.65095(19) 0.56864(14) 0.2233(3)
C21? C 0.4834(5) 0.6248(7) 0.7214(10)
H21? H 0.4409 0.6038 0.6217
H22? H 0.4992 0.6807 0.7049
C22? C 0.4173(6) 0.6227(3) 0.8323(9)
H23? H 0.4606 0.6402 0.9343
H24? H 0.3958 0.5674 0.8426
C23? C 0.3201(4) 0.6740(5) 0.7852(11)
H25? H 0.2928 0.6731 0.6720
H26? H 0.2657 0.6511 0.8283
C24? C 0.3385(5) 0.7579(3) 0.8370(9)
H27? H 0.3749 0.7593 0.9468
H28? H 0.2712 0.7853 0.8187
H29? H 0.3815 0.7842 0.7795
P2? P 0.6279(9) 0.6389(6) 0.3228(12)
F7? F 0.6648(19) 0.7144(9) 0.2462(15)
F8? F 0.5907(15) 0.5630(9) 0.400(2)
F9? F 0.7461(9) 0.6188(11) 0.410(2)
F10? F 0.5089(12) 0.6577(11) 0.235(2)
F11? F 0.6191(14) 0.6918(10) 0.4643(16)
F12? F 0.6355(16) 0.5856(11) 0.181(2)
loop_
_geom_bond_atom_site_label_1
_geom_bond_atom_site_label_2
_geom_bond_site_symmetry_1
_geom_bond_site_symmetry_2
N1 C6 1_555 1_555
N2 C13 1_555 1_555
N3 C15 1_555 1_555
C1 C2 1_555 1_555
C2 H1 1_555 1_555
C3 C2 1_555 1_555
H2 C3 1_555 1_555
C4 C3 1_555 1_555
H3 C4 1_555 1_555
C5 C4 1_555 1_555
H4 C5 1_555 1_555
C6 C1 1_555 1_555
C7 N1 1_555 1_555
C8 C7 1_555 1_555
H5 C8 1_555 1_555
C9 C8 1_555 1_555
H6 C9 1_555 1_555
C10 C9 1_555 1_555
H7 C10 1_555 1_555
C11 C10 1_555 1_555
H8 C11 1_555 1_555
C12 C7 1_555 1_555
C13 C1 1_555 1_555
C14 N2 1_555 1_555
H9 C14 1_555 1_555
C15 C14 1_555 1_555
H10 C15 1_555 1_555
C16 N2 1_555 1_555
H11 C16 1_555 1_555
C17 N3 1_555 1_555
H12 C17 1_555 1_555
H13 C17 1_555 1_555
C18 C17 1_555 1_555
H14 C18 1_555 1_555
H15 C18 1_555 1_555
C19 C18 1_555 1_555
H16 C19 1_555 1_555
H17 C19 1_555 1_555
C20 C19 1_555 1_555
H18 C20 1_555 1_555
H19 C20 1_555 1_555
H20 C20 1_555 1_555
P1 F1 1_555 1_555
F2 P1 1_555 1_555
F3 P1 1_555 1_555
F4 P1 1_555 1_555
F5 P1 1_555 1_555
F6 P1 1_555 1_555
N3 C16 1_555 1_555
C5 C6 1_555 1_555
C11 C12 1_555 1_555
C12 C13 1_555 1_555

#END
