
#######################################################################
#
#                 Cambridge Crystallographic Data Centre
#                                CCDC 
#
#######################################################################
#
# If this CIF has been generated from an entry in the Cambridge 
# Structural Database, then it will include bibliographic, chemical, 
# crystal, experimental, refinement or atomic coordinate data resulting 
# from the CCDC's data processing and validation procedures.
#
#######################################################################

data_LUQNES
_chemical_formula_moiety         'C18 H12 N2 O4,H2 O1'
_chemical_name_systematic        
"3-methyl-6,7-dihydro-2H,5H-spiro[cyclopenta[5,6]pyrano[2,3-c]pyrazole-4,2'-indene]-1',3',5-trione monohydrate"
_symmetry_cell_setting           monoclinic
_symmetry_space_group_name_H-M   'P 21/c'
_symmetry_Int_Tables_number      14
_space_group_name_Hall           '-P 2ybc'
loop_
_symmetry_equiv_pos_site_id
_symmetry_equiv_pos_as_xyz
1 x,y,z
2 -x,1/2+y,1/2-z
3 -x,-y,-z
4 x,1/2-y,1/2+z
_cell_length_a                   16.5569(8)
_cell_length_b                   7.4472(4)
_cell_length_c                   12.9479(7)
_cell_angle_alpha                90
_cell_angle_beta                 99.196(2)
_cell_angle_gamma                90
_cell_volume                     1575.99
_exptl_crystal_description       Needle
_cell_formula_units_Z            4
loop_
_atom_site_label
_atom_site_type_symbol
_atom_site_fract_x
_atom_site_fract_y
_atom_site_fract_z
O1 O 0.06449(6) 0.09417(14) 0.15084(8)
O2 O 0.24128(6) 0.26610(15) -0.03205(8)
O3 O 0.32396(7) -0.02276(17) 0.29331(8)
O4 O 0.29259(8) 0.47057(18) 0.24452(12)
N1 N 0.06586(7) -0.18109(18) 0.06665(10)
N2 N 0.12519(8) -0.27659(19) 0.02940(10)
C1 C 0.28137(7) 0.20312(18) 0.04579(10)
C2 C 0.10558(8) -0.03801(19) 0.10646(10)
C3 C 0.19913(8) -0.19588(19) 0.04626(11)
C4 C 0.24544(7) 0.11392(18) 0.13645(10)
C5 C 0.18852(7) -0.03737(18) 0.09785(10)
C6 C 0.11387(8) 0.2318(2) 0.18830(10)
C7 C 0.32352(8) 0.05463(19) 0.21160(11)
C8 C 0.37130(8) 0.1945(2) 0.06963(11)
C9 C 0.19439(8) 0.24562(18) 0.18652(10)
C10 C 0.39586(8) 0.1085(2) 0.16413(12)
C11 C 0.22285(10) 0.4143(2) 0.23575(12)
C12 C 0.07691(10) 0.3887(2) 0.23450(12)
H1 H 0.0493 0.3523 0.2917
H2 H 0.0384 0.4509 0.1823
C13 C 0.47856(9) 0.0841(2) 0.20263(15)
H3 H 0.4955 0.0251 0.2657
C14 C 0.15110(11) 0.5057(2) 0.27326(12)
H4 H 0.1434 0.6259 0.2444
H5 H 0.1600 0.5138 0.3490
C15 C 0.27267(10) -0.2749(2) 0.01141(15)
H6 H 0.2585 -0.3878 -0.0225
H7 H 0.3145 -0.2934 0.0710
H8 H 0.2926 -0.1945 -0.0368
C16 C 0.50933(9) 0.2389(3) 0.04998(17)
H9 H 0.5485 0.2837 0.0127
C17 C 0.42750(9) 0.2618(2) 0.01058(14)
H10 H 0.4107 0.3199 -0.0528
C18 C 0.53450(9) 0.1507(3) 0.14379(17)
H11 H 0.5901 0.1360 0.1676
H12 H 0.1122(12) -0.385(3) -0.0011(15)
O5 O 0.08026(7) 0.39104(16) -0.05586(10)
H13 H 0.0376(14) 0.314(3) -0.0538(17)
H14 H 0.1267(15) 0.322(3) -0.0490(17)
loop_
_geom_bond_atom_site_label_1
_geom_bond_atom_site_label_2
_geom_bond_site_symmetry_1
_geom_bond_site_symmetry_2
O1 C2 1_555 1_555
O2 C1 1_555 1_555
O3 C7 1_555 1_555
O4 C11 1_555 1_555
N1 N2 1_555 1_555
N2 C3 1_555 1_555
C1 C4 1_555 1_555
C2 N1 1_555 1_555
C3 C5 1_555 1_555
C4 C5 1_555 1_555
C5 C2 1_555 1_555
C6 O1 1_555 1_555
C7 C4 1_555 1_555
C8 C1 1_555 1_555
C9 C4 1_555 1_555
C10 C7 1_555 1_555
C11 C9 1_555 1_555
C12 C6 1_555 1_555
H1 C12 1_555 1_555
H2 C12 1_555 1_555
C13 C10 1_555 1_555
H3 C13 1_555 1_555
C14 C11 1_555 1_555
H4 C14 1_555 1_555
H5 C14 1_555 1_555
C15 C3 1_555 1_555
H6 C15 1_555 1_555
H7 C15 1_555 1_555
H8 C15 1_555 1_555
C16 H9 1_555 1_555
C17 C8 1_555 1_555
H10 C17 1_555 1_555
C18 C13 1_555 1_555
H11 C18 1_555 1_555
H12 N2 1_555 1_555
O5 H13 1_555 1_555
H14 O5 1_555 1_555
C6 C9 1_555 1_555
C8 C10 1_555 1_555
C12 C14 1_555 1_555
C16 C17 1_555 1_555
C16 C18 1_555 1_555

#END
