
#######################################################################
#
#                 Cambridge Crystallographic Data Centre
#                                CCDC 
#
#######################################################################
#
# If this CIF has been generated from an entry in the Cambridge 
# Structural Database, then it will include bibliographic, chemical, 
# crystal, experimental, refinement or atomic coordinate data resulting 
# from the CCDC's data processing and validation procedures.
#
#######################################################################

data_LUQNIW
_chemical_formula_moiety         'C21 H18 N2 O4'
_chemical_name_systematic        
3,7,7-trimethyl-7,8-dihydro-2H-spiro[chromeno[2,3-c]pyrazole-4,2'-indene]-1',3',5(6H)-trione
_symmetry_cell_setting           monoclinic
_symmetry_space_group_name_H-M   'P 21/n'
_symmetry_Int_Tables_number      14
_space_group_name_Hall           '-P 2yn'
loop_
_symmetry_equiv_pos_site_id
_symmetry_equiv_pos_as_xyz
1 x,y,z
2 1/2-x,1/2+y,1/2-z
3 -x,-y,-z
4 1/2+x,1/2-y,1/2+z
_cell_length_a                   11.332(2)
_cell_length_b                   9.1756(16)
_cell_length_c                   17.706(3)
_cell_angle_alpha                90
_cell_angle_beta                 104.540(6)
_cell_angle_gamma                90
_cell_volume                     1782.07
_exptl_crystal_description       Needle
_cell_formula_units_Z            4
loop_
_atom_site_label
_atom_site_type_symbol
_atom_site_fract_x
_atom_site_fract_y
_atom_site_fract_z
O1 O 0.31675(9) 0.25243(12) 0.33713(6)
O2 O -0.08205(9) 0.18518(13) 0.18038(6)
O3 O 0.00555(10) -0.02850(12) 0.34516(8)
O4 O -0.01915(11) 0.48085(12) 0.30728(8)
N1 N 0.27619(12) 0.28890(16) 0.51946(8)
C1 C 0.10994(12) 0.21201(15) 0.26521(8)
C2 C 0.05188(11) 0.22945(15) 0.33301(8)
C3 C 0.23040(12) 0.22583(15) 0.26979(8)
C4 C -0.15755(12) 0.29925(17) 0.33199(8)
C5 C 0.19712(13) 0.23034(16) 0.12353(9)
C6 C -0.14948(12) 0.15022(17) 0.34461(8)
C7 C 0.02903(12) 0.18018(16) 0.18918(8)
C8 C 0.08499(13) 0.13802(19) 0.12397(9)
C9 C 0.15254(12) 0.25305(15) 0.40505(8)
C10 C 0.27410(12) 0.26170(16) 0.40292(8)
N2 N 0.35141(11) 0.28287(16) 0.47041(8)
C11 C -0.02788(12) 0.09616(16) 0.34160(8)
C12 C 0.15711(13) 0.27238(17) 0.48314(9)
C13 C 0.28739(13) 0.2143(2) 0.20281(9)
C14 C -0.04117(12) 0.35685(16) 0.32090(8)
C15 C 0.06072(18) 0.2789(3) 0.52659(12)
C16 C -0.24902(15) 0.0715(2) 0.35490(11)
C17 C 0.25576(18) 0.1754(3) 0.06010(11)
C18 C 0.1599(2) 0.3894(2) 0.10768(13)
C19 C -0.26485(14) 0.3748(2) 0.32882(10)
C20 C -0.35528(15) 0.1477(3) 0.35233(12)
C21 C -0.36298(15) 0.2963(3) 0.33934(12)
H1 H -0.2407(17) -0.031(2) 0.3633(11)
H2 H -0.2687(18) 0.481(2) 0.3194(12)
H3 H -0.442(2) 0.342(2) 0.3358(13)
H4 H -0.425(2) 0.096(3) 0.3580(13)
H5 H 0.323(2) 0.239(2) 0.0583(14)
H6 H 0.096(2) 0.397(3) 0.0567(15)
H7 H 0.195(2) 0.181(3) 0.0073(15)
H8 H 0.231(2) 0.447(3) 0.1033(14)
H9 H 0.127(2) 0.429(2) 0.1515(13)
H10 H 0.283(2) 0.070(3) 0.0717(13)
H11 H 0.3106(19) 0.304(2) 0.5707(13)
H12 H -0.009(3) 0.328(3) 0.4989(18)
H13 H 0.086(3) 0.306(4) 0.577(2)
H14 H 0.023(3) 0.185(4) 0.5245(19)
H15 H 0.0235(16) 0.1418(19) 0.0744(11)
H16 H 0.352(2) 0.287(2) 0.2114(12)
H17 H 0.1110(17) 0.035(2) 0.1332(11)
H18 H 0.3263(17) 0.119(2) 0.2080(11)
loop_
_geom_bond_atom_site_label_1
_geom_bond_atom_site_label_2
_geom_bond_site_symmetry_1
_geom_bond_site_symmetry_2
O1 C3 1_555 1_555
O2 C7 1_555 1_555
O3 C11 1_555 1_555
O4 C14 1_555 1_555
N1 N2 1_555 1_555
C1 C2 1_555 1_555
C2 C9 1_555 1_555
C3 C1 1_555 1_555
C4 C6 1_555 1_555
C5 C8 1_555 1_555
C6 C11 1_555 1_555
C7 C1 1_555 1_555
C8 C7 1_555 1_555
C9 C10 1_555 1_555
C10 O1 1_555 1_555
N2 C10 1_555 1_555
C11 C2 1_555 1_555
C12 N1 1_555 1_555
C13 C3 1_555 1_555
C14 C2 1_555 1_555
C15 C12 1_555 1_555
C16 C6 1_555 1_555
C17 C5 1_555 1_555
C18 C5 1_555 1_555
C19 C4 1_555 1_555
C20 C16 1_555 1_555
C21 C19 1_555 1_555
H1 C16 1_555 1_555
H2 C19 1_555 1_555
H3 C21 1_555 1_555
H4 C20 1_555 1_555
H5 C17 1_555 1_555
H6 C18 1_555 1_555
H7 C17 1_555 1_555
H8 C18 1_555 1_555
H9 C18 1_555 1_555
H10 C17 1_555 1_555
H11 N1 1_555 1_555
H12 C15 1_555 1_555
H13 C15 1_555 1_555
H14 C15 1_555 1_555
H15 C8 1_555 1_555
H16 C13 1_555 1_555
H17 C8 1_555 1_555
H18 C13 1_555 1_555
C4 C14 1_555 1_555
C5 C13 1_555 1_555
C9 C12 1_555 1_555
C20 C21 1_555 1_555

#END
