
#######################################################################
#
#                 Cambridge Crystallographic Data Centre
#                                CCDC 
#
#######################################################################
#
# If this CIF has been generated from an entry in the Cambridge 
# Structural Database, then it will include bibliographic, chemical, 
# crystal, experimental, refinement or atomic coordinate data resulting 
# from the CCDC's data processing and validation procedures.
#
#######################################################################

data_LUQNUI
_chemical_formula_moiety         'C26 H22 N2 O3,H2 O1'
_chemical_name_systematic        
"3,7,7-trimethyl-7,8-dihydro-2H,10'H-spiro[chromeno[2,3-c]pyrazole-4,9'-phenanthrene]-5,10'(6H)-dione monohydrate"
_symmetry_cell_setting           triclinic
_symmetry_space_group_name_H-M   'P -1'
_symmetry_Int_Tables_number      2
_space_group_name_Hall           '-P 1'
loop_
_symmetry_equiv_pos_site_id
_symmetry_equiv_pos_as_xyz
1 x,y,z
2 -x,-y,-z
_cell_length_a                   7.8170(8)
_cell_length_b                   9.4031(10)
_cell_length_c                   16.4402(17)
_cell_angle_alpha                73.821(3)
_cell_angle_beta                 81.557(3)
_cell_angle_gamma                69.541(3)
_cell_volume                     1085.72
_exptl_crystal_colour            colorless
_exptl_crystal_description       needle
_cell_formula_units_Z            2
loop_
_atom_site_label
_atom_site_type_symbol
_atom_site_fract_x
_atom_site_fract_y
_atom_site_fract_z
C1 C 0.8520(3) 0.5455(2) 0.11125(11)
C2 C 0.8624(2) 0.4635(2) 0.19555(11)
C3 C 0.7488(3) 0.3752(2) 0.20411(12)
C4 C 0.6933(3) 0.2658(3) 0.27878(13)
H1 H 0.6204 0.2174 0.2610
H2 H 0.6233 0.3226 0.3195
H3 H 0.8004 0.1866 0.3040
C5 C 0.9685(2) 0.4879(2) 0.25715(10)
C6 C 1.1030(3) 0.3293(2) 0.30016(11)
C7 C 1.0807(3) 0.2656(2) 0.39245(11)
C8 C 1.2027(3) 0.1212(3) 0.42864(13)
H4 H 1.2942 0.0678 0.3946
C9 C 1.1900(4) 0.0559(3) 0.51437(14)
H5 H 1.2725 -0.0410 0.5384
C10 C 1.0545(4) 0.1354(3) 0.56404(13)
H6 H 1.0448 0.0912 0.6220
C11 C 0.9334(3) 0.2782(3) 0.52982(12)
H7 H 0.8424 0.3297 0.5648
C12 C 0.9440(3) 0.3485(2) 0.44302(11)
C13 C 0.8195(2) 0.5057(2) 0.40577(11)
C14 C 0.6862(3) 0.5911(3) 0.45633(13)
H8 H 0.6741 0.5469 0.5141
C15 C 0.5731(3) 0.7387(3) 0.42231(15)
H9 H 0.4845 0.7929 0.4570
C16 C 0.5896(3) 0.8080(3) 0.33647(15)
H10 H 0.5141 0.9088 0.3134
C17 C 0.7195(3) 0.7250(2) 0.28640(12)
H11 H 0.7312 0.7706 0.2288
C18 C 0.8343(2) 0.5744(2) 0.31931(11)
C19 C 1.0785(2) 0.5908(2) 0.20386(11)
C20 C 1.2161(2) 0.6099(2) 0.24760(12)
C21 C 1.3201(3) 0.7181(3) 0.20055(14)
H12 H 1.4342 0.6572 0.1768
H13 H 1.3502 0.7632 0.2407
C22 C 1.2188(3) 0.8510(2) 0.12909(13)
C23 C 1.0583(3) 0.9675(3) 0.16660(15)
H14 H 0.9946 1.0506 0.1215
H15 H 1.1035 1.0102 0.2023
H16 H 0.9762 0.9147 0.1995
C24 C 1.3486(4) 0.9363(3) 0.07636(17)
H17 H 1.4520 0.8630 0.0544
H18 H 1.3899 0.9828 0.1115
H19 H 1.2855 1.0167 0.0301
C25 C 1.1527(3) 0.7779(3) 0.07315(12)
H20 H 1.0713 0.8607 0.0328
H21 H 1.2571 0.7227 0.0412
C26 C 1.0555(3) 0.6670(2) 0.12174(11)
H22 H 0.588(2) 0.374(3) 0.1133(14)
N1 N 0.6835(2) 0.4085(2) 0.12705(10)
N2 N 0.7446(2) 0.5168(2) 0.06776(10)
O1 O 0.93839(19) 0.65354(17) 0.07221(8)
O2 O 1.22119(19) 0.25556(16) 0.25625(8)
O3 O 1.24776(18) 0.53461(17) 0.32073(8)
H23 H 0.361(4) 0.365(3) 0.0473(14)
H24 H 0.338(4) 0.301(4) 0.1353(15)
O4 O 0.4118(2) 0.3122(2) 0.09296(11)
loop_
_geom_bond_atom_site_label_1
_geom_bond_atom_site_label_2
_geom_bond_site_symmetry_1
_geom_bond_site_symmetry_2
C1 C2 1_555 1_555
C2 C3 1_555 1_555
C3 C4 1_555 1_555
C4 H1 1_555 1_555
H2 C4 1_555 1_555
H3 C4 1_555 1_555
C5 C2 1_555 1_555
C6 C5 1_555 1_555
C7 C6 1_555 1_555
C8 C7 1_555 1_555
H4 C8 1_555 1_555
C9 C8 1_555 1_555
H5 C9 1_555 1_555
C10 C9 1_555 1_555
H6 C10 1_555 1_555
C11 C10 1_555 1_555
H7 C11 1_555 1_555
C12 C7 1_555 1_555
C13 C12 1_555 1_555
C14 C13 1_555 1_555
H8 C14 1_555 1_555
C15 C14 1_555 1_555
H9 C15 1_555 1_555
C16 C15 1_555 1_555
H10 C16 1_555 1_555
C17 C16 1_555 1_555
H11 C17 1_555 1_555
C18 C5 1_555 1_555
C19 C5 1_555 1_555
C20 C19 1_555 1_555
C21 C20 1_555 1_555
H12 C21 1_555 1_555
H13 C21 1_555 1_555
C22 C21 1_555 1_555
C23 C22 1_555 1_555
H14 C23 1_555 1_555
H15 C23 1_555 1_555
H16 C23 1_555 1_555
C24 C22 1_555 1_555
H17 C24 1_555 1_555
H18 C24 1_555 1_555
H19 C24 1_555 1_555
C25 C22 1_555 1_555
H20 C25 1_555 1_555
H21 C25 1_555 1_555
C26 C19 1_555 1_555
H22 N1 1_555 1_555
N1 C3 1_555 1_555
N2 C1 1_555 1_555
O1 C1 1_555 1_555
O2 C6 1_555 1_555
O3 C20 1_555 1_555
H23 O4 1_555 1_555
H24 O4 1_555 1_555
C11 C12 1_555 1_555
C13 C18 1_555 1_555
C17 C18 1_555 1_555
C25 C26 1_555 1_555
C26 O1 1_555 1_555
N1 N2 1_555 1_555

#END
