
#######################################################################
#
#                 Cambridge Crystallographic Data Centre
#                                CCDC 
#
#######################################################################
#
# If this CIF has been generated from an entry in the Cambridge 
# Structural Database, then it will include bibliographic, chemical, 
# crystal, experimental, refinement or atomic coordinate data resulting 
# from the CCDC's data processing and validation procedures.
#
#######################################################################

data_LUQPOD
_chemical_formula_moiety         'C12 H28 N1 1+,C12 H21 O4 1-,H2 O1'
_chemical_name_systematic        
'Tetrapropylammonium (hydrogen 2,3-di-t-butylsuccinate) monohydrate'
_symmetry_cell_setting           monoclinic
_symmetry_space_group_name_H-M   'P 21/c'
_symmetry_Int_Tables_number      14
_space_group_name_Hall           '-P 2ybc'
loop_
_symmetry_equiv_pos_site_id
_symmetry_equiv_pos_as_xyz
1 x,y,z
2 -x,1/2+y,1/2-z
3 -x,-y,-z
4 x,1/2-y,1/2+z
_cell_length_a                   19.615(2)
_cell_length_b                   16.4013(16)
_cell_length_c                   17.4466(18)
_cell_angle_alpha                90
_cell_angle_beta                 99.925(2)
_cell_angle_gamma                90
_cell_volume                     5528.77
_exptl_crystal_colour            colorless
_exptl_crystal_description       block
_cell_formula_units_Z            8
loop_
_atom_site_label
_atom_site_type_symbol
_atom_site_fract_x
_atom_site_fract_y
_atom_site_fract_z
C1 C 0.40378(16) 0.19513(19) 0.52224(19)
H1 H 0.4074 0.2457 0.5525
H2 H 0.4170 0.1502 0.5588
C2 C 0.45530(18) 0.1989(2) 0.4672(2)
H3 H 0.4544 0.1477 0.4381
H4 H 0.4432 0.2434 0.4299
C3 C 0.5264(2) 0.2127(3) 0.5137(3)
H5 H 0.5598 0.2155 0.4788
H6 H 0.5382 0.1680 0.5500
H7 H 0.5269 0.2635 0.5423
C4 C 0.30335(17) 0.25282(18) 0.4297(2)
H8 H 0.3306 0.2529 0.3876
H9 H 0.2551 0.2419 0.4062
C5 C 0.3070(2) 0.3372(2) 0.4653(2)
H10 H 0.3544 0.3486 0.4914
H11 H 0.2764 0.3403 0.5041
C6 C 0.2850(2) 0.3994(2) 0.4015(3)
H12 H 0.2869 0.4536 0.4240
H13 H 0.2380 0.3878 0.3759
H14 H 0.3159 0.3966 0.3637
C7 C 0.28842(17) 0.1787(2) 0.55149(19)
H15 H 0.3074 0.1337 0.5854
H16 H 0.2971 0.2291 0.5819
C8 C 0.21126(19) 0.1670(3) 0.5310(2)
H17 H 0.2011 0.1161 0.5019
H18 H 0.1907 0.2121 0.4981
C9 C 0.1804(2) 0.1640(3) 0.6044(3)
H19 H 0.1307 0.1562 0.5911
H20 H 0.1899 0.2149 0.6327
H21 H 0.2007 0.1192 0.6368
C10 C 0.32004(18) 0.10646(18) 0.43529(19)
H22 H 0.2711 0.1012 0.4119
H23 H 0.3462 0.1133 0.3927
C11 C 0.3430(2) 0.0276(2) 0.4773(2)
H24 H 0.3913 0.0321 0.5030
H25 H 0.3145 0.0167 0.5170
C12 C 0.3355(2) -0.0405(2) 0.4193(3)
H26 H 0.3497 -0.0913 0.4458
H27 H 0.3644 -0.0298 0.3806
H28 H 0.2875 -0.0446 0.3940
N1 N 0.32855(13) 0.18343(14) 0.48449(15)
C13 C 0.09440(16) 0.12101(16) 0.22002(17)
H29 H 0.1338 0.1486 0.2036
H30 H 0.0524 0.1499 0.1960
C14 C 0.10153(18) 0.12967(18) 0.30713(18)
H31 H 0.1462 0.1078 0.3327
H32 H 0.0646 0.0994 0.3259
C15 C 0.0966(2) 0.2202(2) 0.3258(2)
H33 H 0.1009 0.2273 0.3816
H34 H 0.0522 0.2412 0.3004
H35 H 0.1335 0.2496 0.3073
C16 C 0.07518(15) 0.04067(17) 0.09969(16)
H36 H 0.0676 -0.0145 0.0784
H37 H 0.0319 0.0710 0.0848
C17 C 0.13023(19) 0.0810(2) 0.06233(19)
H38 H 0.1427 0.1337 0.0875
H39 H 0.1718 0.0467 0.0694
C18 C 0.10456(19) 0.0938(2) -0.0227(2)
H40 H 0.1404 0.1198 -0.0460
H41 H 0.0638 0.1284 -0.0295
H42 H 0.0928 0.0416 -0.0476
C19 C 0.15909(15) -0.00776(17) 0.21574(18)
H43 H 0.1678 -0.0077 0.2728
H44 H 0.1960 0.0240 0.1986
C20 C 0.16371(17) -0.09493(18) 0.1879(2)
H45 H 0.1351 -0.1304 0.2146
H46 H 0.1461 -0.0980 0.1319
C21 C 0.23808(18) -0.1236(2) 0.2045(2)
H47 H 0.2407 -0.1791 0.1861
H48 H 0.2550 -0.1216 0.2601
H49 H 0.2662 -0.0884 0.1779
C22 C 0.03404(14) -0.01421(17) 0.21540(17)
H50 H 0.0290 -0.0660 0.1869
H51 H 0.0489 -0.0271 0.2706
C23 C -0.03609(15) 0.02605(18) 0.2059(2)
H52 H -0.0512 0.0419 0.1515
H53 H -0.0334 0.0753 0.2381
C24 C -0.08806(18) -0.0337(2) 0.2307(2)
H54 H -0.1333 -0.0081 0.2246
H55 H -0.0731 -0.0487 0.2848
H56 H -0.0907 -0.0822 0.1985
N2 N 0.09087(11) 0.03477(13) 0.18791(13)
C25 C -0.1044(3) 0.4543(2) -0.0617(3)
H57 H -0.0753 0.4741 -0.0974
H58 H -0.0935 0.4838 -0.0129
H59 H -0.1526 0.4628 -0.0841
C26 C -0.1077(3) 0.3178(3) -0.1235(2)
H60 H -0.0769 0.3364 -0.1578
H61 H -0.1553 0.3289 -0.1471
H62 H -0.1017 0.2596 -0.1149
C27 C -0.0141(2) 0.3539(3) -0.0146(3)
H63 H 0.0124 0.3720 -0.0534
H64 H -0.0033 0.2973 -0.0017
H65 H -0.0025 0.3871 0.0318
C28 C -0.2745(2) 0.2457(3) 0.0177(3)
H66 H -0.3117 0.2283 0.0440
H67 H -0.2836 0.2270 -0.0358
H68 H -0.2715 0.3047 0.0187
C29 C -0.1962(3) 0.2285(4) 0.1435(3)
H69 H -0.2356 0.2095 0.1653
H70 H -0.1909 0.2868 0.1515
H71 H -0.1547 0.2009 0.1690
C30 C -0.2146(2) 0.1177(2) 0.0477(3)
H72 H -0.2516 0.0981 0.0733
H73 H -0.1715 0.0917 0.0705
H74 H -0.2253 0.1048 -0.0073
C31 C -0.0909(2) 0.3620(2) -0.0467(2)
C32 C -0.20760(17) 0.21028(19) 0.0582(2)
C33 C -0.13903(17) 0.33320(18) 0.01183(18)
H75 H -0.1858 0.3527 -0.0115
C34 C -0.1219(2) 0.3787(2) 0.0893(2)
C35 C -0.14640(15) 0.23971(17) 0.01608(18)
H76 H -0.1608 0.2226 -0.0387
C36 C -0.07972(17) 0.19215(19) 0.0439(2)
O1 O -0.15266(15) 0.44173(15) 0.09875(17)
O2 O -0.07336(15) 0.35039(17) 0.14212(14)
O3 O -0.04073(13) 0.21538(15) 0.10648(15)
O4 O -0.06718(12) 0.13150(14) 0.00757(15)
H98 H -0.058(2) 0.290(3) 0.132(2)
C37 C 0.5844(3) 0.1572(3) 0.3240(4)
H77 H 0.6135 0.2050 0.3349
H78 H 0.5900 0.1225 0.3697
H79 H 0.5364 0.1739 0.3104
C38 C 0.6798(3) 0.0821(4) 0.2833(4)
H80 H 0.7092 0.1290 0.2979
H81 H 0.6958 0.0532 0.2412
H82 H 0.6818 0.0460 0.3277
C39 C 0.6055(3) 0.1641(4) 0.1878(4)
H83 H 0.6331 0.2122 0.2036
H84 H 0.5584 0.1802 0.1667
H85 H 0.6251 0.1348 0.1485
C40 C 0.4299(3) -0.0938(3) 0.2030(3)
H86 H 0.4080 -0.1408 0.1752
H87 H 0.3969 -0.0664 0.2296
H88 H 0.4693 -0.1116 0.2407
C41 C 0.3893(2) -0.0096(3) 0.0883(3)
H89 H 0.4030 0.0274 0.0502
H90 H 0.3571 0.0178 0.1160
H91 H 0.3673 -0.0572 0.0619
C42 C 0.5017(3) -0.0799(4) 0.1006(3)
H92 H 0.5173 -0.0423 0.0643
H93 H 0.4772 -0.1249 0.0721
H94 H 0.5414 -0.1007 0.1362
C43 C 0.6052(2) 0.1104(3) 0.2565(3)
C44 C 0.4538(2) -0.0359(2) 0.1463(2)
C45 C 0.5593(2) 0.0298(2) 0.2341(2)
H95 H 0.5860 -0.0033 0.2022
C46 C 0.5569(3) -0.0215(2) 0.3065(2)
C47 C 0.49060(19) 0.0445(2) 0.1826(2)
H96 H 0.5027 0.0740 0.1372
C48 C 0.4409(2) 0.1024(3) 0.2145(3)
O5 O 0.60062(18) -0.07461(18) 0.32481(17)
O6 O 0.5106(2) -0.00527(18) 0.34895(16)
O7 O 0.42639(16) 0.08791(19) 0.2807(2)
O8 O 0.41590(18) 0.1606(2) 0.1737(2)
H99 H 0.462(3) 0.034(3) 0.318(3)
O9 O 0.26901(17) 0.1593(2) 0.2284(3)
H97 H 0.308(3) 0.125(5) 0.229(6)
H100 H 0.285(3) 0.2138(12) 0.235(3)
O10 O 0.63445(16) -0.21145(18) 0.24177(19)
H101 H 0.628(2) -0.1609(15) 0.265(2)
H102 H 0.610(2) -0.249(2) 0.268(2)
loop_
_geom_bond_atom_site_label_1
_geom_bond_atom_site_label_2
_geom_bond_site_symmetry_1
_geom_bond_site_symmetry_2
C1 H1 1_555 1_555
H2 C1 1_555 1_555
C2 C1 1_555 1_555
H3 C2 1_555 1_555
H4 C2 1_555 1_555
C3 C2 1_555 1_555
H5 C3 1_555 1_555
H6 C3 1_555 1_555
H7 C3 1_555 1_555
C4 H8 1_555 1_555
H9 C4 1_555 1_555
C5 C4 1_555 1_555
H10 C5 1_555 1_555
H11 C5 1_555 1_555
C6 C5 1_555 1_555
H12 C6 1_555 1_555
H13 C6 1_555 1_555
H14 C6 1_555 1_555
C7 H15 1_555 1_555
H16 C7 1_555 1_555
C8 C7 1_555 1_555
H17 C8 1_555 1_555
H18 C8 1_555 1_555
C9 C8 1_555 1_555
H19 C9 1_555 1_555
H20 C9 1_555 1_555
H21 C9 1_555 1_555
C10 H22 1_555 1_555
H23 C10 1_555 1_555
C11 C10 1_555 1_555
H24 C11 1_555 1_555
H25 C11 1_555 1_555
C12 C11 1_555 1_555
H26 C12 1_555 1_555
H27 C12 1_555 1_555
H28 C12 1_555 1_555
C13 H29 1_555 1_555
H30 C13 1_555 1_555
C14 C13 1_555 1_555
H31 C14 1_555 1_555
H32 C14 1_555 1_555
C15 C14 1_555 1_555
H33 C15 1_555 1_555
H34 C15 1_555 1_555
H35 C15 1_555 1_555
C16 H36 1_555 1_555
H37 C16 1_555 1_555
C17 C16 1_555 1_555
H38 C17 1_555 1_555
H39 C17 1_555 1_555
C18 C17 1_555 1_555
H40 C18 1_555 1_555
H41 C18 1_555 1_555
H42 C18 1_555 1_555
C19 H43 1_555 1_555
H44 C19 1_555 1_555
C20 C19 1_555 1_555
H45 C20 1_555 1_555
H46 C20 1_555 1_555
C21 C20 1_555 1_555
H47 C21 1_555 1_555
H48 C21 1_555 1_555
H49 C21 1_555 1_555
C22 H50 1_555 1_555
H51 C22 1_555 1_555
C23 C22 1_555 1_555
H52 C23 1_555 1_555
H53 C23 1_555 1_555
C24 C23 1_555 1_555
H54 C24 1_555 1_555
H55 C24 1_555 1_555
H56 C24 1_555 1_555
C25 H57 1_555 1_555
H58 C25 1_555 1_555
H59 C25 1_555 1_555
C26 H60 1_555 1_555
H61 C26 1_555 1_555
H62 C26 1_555 1_555
C27 H63 1_555 1_555
H64 C27 1_555 1_555
H65 C27 1_555 1_555
C28 H66 1_555 1_555
H67 C28 1_555 1_555
H68 C28 1_555 1_555
C29 H69 1_555 1_555
H70 C29 1_555 1_555
H71 C29 1_555 1_555
C30 H72 1_555 1_555
H73 C30 1_555 1_555
H74 C30 1_555 1_555
C31 C25 1_555 1_555
C32 C28 1_555 1_555
C33 C31 1_555 1_555
H75 C33 1_555 1_555
C34 C33 1_555 1_555
C35 C32 1_555 1_555
H76 C35 1_555 1_555
C36 C35 1_555 1_555
C37 H77 1_555 1_555
H78 C37 1_555 1_555
H79 C37 1_555 1_555
C38 H80 1_555 1_555
H81 C38 1_555 1_555
H82 C38 1_555 1_555
C39 H83 1_555 1_555
H84 C39 1_555 1_555
H85 C39 1_555 1_555
C40 H86 1_555 1_555
H87 C40 1_555 1_555
H88 C40 1_555 1_555
C41 H89 1_555 1_555
H90 C41 1_555 1_555
H91 C41 1_555 1_555
C42 H92 1_555 1_555
H93 C42 1_555 1_555
H94 C42 1_555 1_555
C43 C37 1_555 1_555
C44 C40 1_555 1_555
C45 C43 1_555 1_555
H95 C45 1_555 1_555
C46 C45 1_555 1_555
C47 C44 1_555 1_555
H96 C47 1_555 1_555
C48 C47 1_555 1_555
N1 C1 1_555 1_555
N2 C13 1_555 1_555
O1 C34 1_555 1_555
O2 C34 1_555 1_555
O3 C36 1_555 1_555
O4 C36 1_555 1_555
O5 C46 1_555 1_555
O6 C46 1_555 1_555
O7 C48 1_555 1_555
O8 C48 1_555 1_555
O9 H97 1_555 1_555
O10 H101 1_555 1_555
H98 O2 1_555 1_555
H99 O6 1_555 1_555
H100 O9 1_555 1_555
H102 O10 1_555 1_555
C4 N1 1_555 1_555
C7 N1 1_555 1_555
C10 N1 1_555 1_555
C16 N2 1_555 1_555
C19 N2 1_555 1_555
C22 N2 1_555 1_555
C26 C31 1_555 1_555
C27 C31 1_555 1_555
C29 C32 1_555 1_555
C30 C32 1_555 1_555
C33 C35 1_555 1_555
C38 C43 1_555 1_555
C39 C43 1_555 1_555
C41 C44 1_555 1_555
C42 C44 1_555 1_555
C45 C47 1_555 1_555

#END
