
#######################################################################
#
#                 Cambridge Crystallographic Data Centre
#                                CCDC 
#
#######################################################################
#
# If this CIF has been generated from an entry in the Cambridge 
# Structural Database, then it will include bibliographic, chemical, 
# crystal, experimental, refinement or atomic coordinate data resulting 
# from the CCDC's data processing and validation procedures.
#
#######################################################################

data_LUQPOE01
_chemical_formula_moiety         'C8 H20 N1 1+,C2 H1 O4 1-'
_chemical_name_systematic        'Di-n-butylammonium hydrogen oxalate'
_symmetry_cell_setting           monoclinic
_symmetry_space_group_name_H-M   'P 21/c'
_symmetry_Int_Tables_number      14
_space_group_name_Hall           '-P 2ybc'
loop_
_symmetry_equiv_pos_site_id
_symmetry_equiv_pos_as_xyz
1 x,y,z
2 -x,1/2+y,1/2-z
3 -x,-y,-z
4 x,1/2-y,1/2+z
_cell_length_a                   17.868(2)
_cell_length_b                   5.5508(3)
_cell_length_c                   14.4018(10)
_cell_angle_alpha                90
_cell_angle_beta                 112.102(11)
_cell_angle_gamma                90
_cell_volume                     1323.43
_exptl_crystal_colour            colorless
_exptl_crystal_description       prism
_chemical_melting_point          '370 K'
_cell_formula_units_Z            4
_exptl_crystal_recrystallization_method water
loop_
_atom_site_label
_atom_site_type_symbol
_atom_site_fract_x
_atom_site_fract_y
_atom_site_fract_z
O1 O 0.25454(17) -0.0509(3) 0.46185(15)
O2 O 0.25537(17) 0.5440(3) 0.53371(14)
O3 O 0.25225(18) 0.3940(4) 0.39060(15)
C1 C 0.25412(19) 0.1218(4) 0.52031(19)
O4 O 0.25386(18) 0.0996(4) 0.60367(15)
H1 H 0.2541 -0.2431 0.4940
C2 C 0.25385(18) 0.3742(4) 0.47552(18)
N1 N 0.24560(16) 0.0441(5) 0.24277(15)
H2 H 0.2517 0.1361 0.1946
H3 H 0.2515 0.1401 0.2954
C3 C 0.3097(3) -0.1399(6) 0.2739(3)
H4 H 0.3045 -0.2406 0.2167
H5 H 0.3026 -0.2418 0.3246
C4 C 0.3919(3) -0.0352(11) 0.3143(4)
H6 H 0.3945 0.0385 0.3763
H7 H 0.3888 0.0932 0.2690
C5 C 0.1633(3) -0.0564(10) 0.2048(3)
H8 H 0.1550 -0.1509 0.2567
H9 H 0.1559 -0.1610 0.1481
C6 C 0.1001(4) 0.1588(14) 0.1716(4)
H10 H 0.1103 0.2685 0.2274
H11 H 0.1070 0.2474 0.1173
C7 C 0.0162(5) 0.0674(18) 0.1384(5)
H12 H 0.0065 -0.0065 0.1939
H13 H 0.0061 -0.0510 0.0856
C8 C -0.0383(6) 0.2893(17) 0.0996(5)
H14 H -0.0341 0.3922 0.1550
H15 H -0.0934 0.2380 0.0667
H16 H -0.0216 0.3760 0.0531
C9 C 0.4486(6) -0.248(2) 0.3479(12)
H17 H 0.4376 -0.3353 0.3998
H18 H 0.4391 -0.3564 0.2918
C10 C 0.5334(6) -0.171(3) 0.3868(9)
H19 H 0.5504 -0.1434 0.3319
H20 H 0.5664 -0.2947 0.4294
H21 H 0.5390 -0.0252 0.4245
C11? C 0.4756(9) -0.122(5) 0.342(2)
H22? H 0.4844 -0.1625 0.2811
H23? H 0.5127 0.0064 0.3753
C12? C 0.4936(14) -0.333(3) 0.4073(15)
H24? H 0.5113 -0.2817 0.4758
H25? H 0.5354 -0.4262 0.3978
H26? H 0.4459 -0.4299 0.3912
loop_
_geom_bond_atom_site_label_1
_geom_bond_atom_site_label_2
_geom_bond_site_symmetry_1
_geom_bond_site_symmetry_2
O1 C1 1_555 1_555
O2 C2 1_555 1_555
O3 C2 1_555 1_555
C1 O4 1_555 1_555
H1 O1 1_555 1_555
C2 C1 1_555 1_555
N1 H2 1_555 1_555
H3 N1 1_555 1_555
C3 N1 1_555 1_555
H4 C3 1_555 1_555
H5 C3 1_555 1_555
C4 C3 1_555 1_555
H6 C4 1_555 1_555
H7 C4 1_555 1_555
C5 N1 1_555 1_555
H8 C5 1_555 1_555
H9 C5 1_555 1_555
C6 C5 1_555 1_555
H10 C6 1_555 1_555
H11 C6 1_555 1_555
C7 C6 1_555 1_555
H12 C7 1_555 1_555
H13 C7 1_555 1_555
C8 C7 1_555 1_555
H14 C8 1_555 1_555
H15 C8 1_555 1_555
H16 C8 1_555 1_555
C9 C4 1_555 1_555
H17 C9 1_555 1_555
H18 C9 1_555 1_555
C10 C9 1_555 1_555
H19 C10 1_555 1_555
H20 C10 1_555 1_555
H21 C10 1_555 1_555

#END
