
#######################################################################
#
#                 Cambridge Crystallographic Data Centre
#                                CCDC 
#
#######################################################################
#
# If this CIF has been generated from an entry in the Cambridge 
# Structural Database, then it will include bibliographic, chemical, 
# crystal, experimental, refinement or atomic coordinate data resulting 
# from the CCDC's data processing and validation procedures.
#
#######################################################################

data_LUQQUK
_chemical_formula_moiety         'C12 H22 O4'
_chemical_name_systematic        '2,3-Di-t-butylsuccinic acid'
_symmetry_cell_setting           monoclinic
_symmetry_space_group_name_H-M   'C 2/c'
_symmetry_Int_Tables_number      15
_space_group_name_Hall           '-C 2yn'
loop_
_symmetry_equiv_pos_site_id
_symmetry_equiv_pos_as_xyz
1 x,y,z
2 -x,y,1/2-z
3 1/2+x,1/2+y,z
4 1/2-x,1/2+y,1/2-z
5 -x,-y,-z
6 x,-y,1/2+z
7 1/2-x,1/2-y,-z
8 1/2+x,1/2-y,1/2+z
_cell_length_a                   35.5649(15)
_cell_length_b                   7.5143(3)
_cell_length_c                   10.3977(4)
_cell_angle_alpha                90
_cell_angle_beta                 106.706(3)
_cell_angle_gamma                90
_cell_volume                     2661.45
_cell_formula_units_Z            8
loop_
_atom_site_label
_atom_site_type_symbol
_atom_site_fract_x
_atom_site_fract_y
_atom_site_fract_z
C1 C 0.12625(15) 0.5152(4) 0.1210(3)
C2 C 0.12468(11) 0.9363(4) 0.0410(3)
C3 C 0.14121(18) 0.6822(6) 0.2141(5)
H1 H 0.1358 0.6513 0.3007
C4 C 0.1138(2) 0.8411(9) 0.1591(6)
H2 H 0.1209 0.9302 0.2336
C5 C 0.0687(2) 0.8080(12) 0.1378(8)
C6 C 0.06257(19) 0.7075(10) 0.2564(6)
H3 H 0.0743 0.7745 0.3391
H4 H 0.0750 0.5902 0.2627
H5 H 0.0344 0.6927 0.2442
C7 C 0.0490(2) 0.9911(10) 0.1309(7)
H6 H 0.0207 0.9752 0.1163
H7 H 0.0534 1.0598 0.0565
H8 H 0.0602 1.0550 0.2154
C8 C 0.0462(8) 0.719(4) -0.003(3)
H9 H 0.0527 0.5923 -0.0014
H10 H 0.0544 0.7777 -0.0753
H11 H 0.0178 0.7334 -0.0198
C9 C 0.1864(2) 0.7229(11) 0.2547(9)
C10 C 0.2080(2) 0.5608(10) 0.3313(7)
H12 H 0.2062 0.4614 0.2688
H13 H 0.1960 0.5266 0.4014
H14 H 0.2357 0.5910 0.3725
C11 C 0.1951(2) 0.8799(12) 0.3542(9)
H15 H 0.2235 0.8963 0.3894
H16 H 0.1841 0.8547 0.4285
H17 H 0.1831 0.9885 0.3079
C12 C 0.2027(7) 0.762(3) 0.145(4)
H18 H 0.2313 0.7729 0.1801
H19 H 0.1917 0.8746 0.1028
H20 H 0.1961 0.6662 0.0789
O1 O 0.12566(8) 0.3711(3) 0.1892(2)
O2 O 0.12593(9) 0.5160(3) 0.0047(2)
O3 O 0.12497(8) 1.0958(3) 0.0339(2)
O4 O 0.12484(8) 0.8428(3) -0.0650(2)
H21 H 0.1265(8) 0.692(4) -0.059(3)
H22 H 0.1248(13) 0.208(6) 0.147(4)
C13? C 0.1873(2) 0.7060(12) 0.3794(7)
C14? C 0.2004(2) 0.9920(12) 0.2811(8)
C15? C 0.2033(11) 0.708(4) 0.155(4)
C16? C 0.1093(2) 0.6798(8) 0.1816(6)
C17? C 0.1360(3) 0.8394(11) 0.1807(8)
C18? C 0.0636(3) 0.7194(13) 0.1334(10)
C19? C 0.0428(3) 0.5554(12) 0.1693(9)
C20? C 0.0545(3) 0.8752(13) 0.2126(10)
C21? C 0.0485(6) 0.743(5) -0.003(3)
C22? C 0.1816(3) 0.8089(14) 0.2500(10)
H23? H 0.1755 0.5875 0.3592
H24? H 0.1746 0.7698 0.4379
H25? H 0.2154 0.6940 0.4249
H26? H 0.1907 1.0506 0.3494
H27? H 0.1937 1.0641 0.1991
H28? H 0.2290 0.9789 0.3146
H29? H 0.2316 0.7032 0.1997
H30? H 0.1985 0.7718 0.0698
H31? H 0.1930 0.5862 0.1377
H32? H 0.1147 0.6499 0.2790
H33? H 0.1285 0.9271 0.2413
H34? H 0.0148 0.5815 0.1530
H35? H 0.0544 0.5258 0.2643
H36? H 0.0459 0.4545 0.1136
H37? H 0.0690 0.9804 0.1980
H38? H 0.0622 0.8455 0.3084
H39? H 0.0262 0.9002 0.1824
H40? H 0.0571 0.6453 -0.0498
H41? H 0.0577 0.8564 -0.0286
H42? H 0.0197 0.7440 -0.0264
loop_
_geom_bond_atom_site_label_1
_geom_bond_atom_site_label_2
_geom_bond_site_symmetry_1
_geom_bond_site_symmetry_2
C1 C3 1_555 1_555
C2 C4 1_555 1_555
C3 H1 1_555 1_555
C4 C3 1_555 1_555
H2 C4 1_555 1_555
C5 C4 1_555 1_555
C6 C5 1_555 1_555
H3 C6 1_555 1_555
H4 C6 1_555 1_555
H5 C6 1_555 1_555
C7 C5 1_555 1_555
H6 C7 1_555 1_555
H7 C7 1_555 1_555
H8 C7 1_555 1_555
C8 C5 1_555 1_555
H9 C8 1_555 1_555
H10 C8 1_555 1_555
H11 C8 1_555 1_555
C9 C3 1_555 1_555
C10 C9 1_555 1_555
H12 C10 1_555 1_555
H13 C10 1_555 1_555
H14 C10 1_555 1_555
C11 C9 1_555 1_555
H15 C11 1_555 1_555
H16 C11 1_555 1_555
H17 C11 1_555 1_555
C12 C9 1_555 1_555
H18 C12 1_555 1_555
H19 C12 1_555 1_555
H20 C12 1_555 1_555
O1 C1 1_555 1_555
O2 C1 1_555 1_555
O3 C2 1_555 1_555
O4 C2 1_555 1_555
H21 O4 1_555 1_555
H22 O1 1_555 1_555

#END
