
#######################################################################
#
#                 Cambridge Crystallographic Data Centre
#                                CCDC 
#
#######################################################################
#
# If this CIF has been generated from an entry in the Cambridge 
# Structural Database, then it will include bibliographic, chemical, 
# crystal, experimental, refinement or atomic coordinate data resulting 
# from the CCDC's data processing and validation procedures.
#
#######################################################################

data_LUQRAS
_chemical_formula_moiety         'C38 H52 N6 O9 1+,3(C2 H6 O1),H1 O4 S1 1-'
_chemical_name_systematic        'atazanavir bisulfate'
_symmetry_cell_setting           triclinic
_symmetry_space_group_name_H-M   'P 1'
_symmetry_Int_Tables_number      1
_space_group_name_Hall           'P 1'
loop_
_symmetry_equiv_pos_site_id
_symmetry_equiv_pos_as_xyz
1 x,y,z
_cell_length_a                   10.749(5)
_cell_length_b                   13.450(4)
_cell_length_c                   9.250(2)
_cell_angle_alpha                98.33(2)
_cell_angle_beta                 95.92(3)
_cell_angle_gamma                102.82(3)
_cell_volume                     1277.47
_cell_formula_units_Z            1
loop_
_atom_site_label
_atom_site_type_symbol
_atom_site_fract_x
_atom_site_fract_y
_atom_site_fract_z
S1 S 0.5568(1) 0.0760(1) 0.5936(1)
O1 O 0.4984(4) 0.0446(3) 0.7188(4)
O2 O 0.6644(4) 0.0315(3) 0.5660(4)
O3 O 0.4651(4) 0.0667(3) 0.4636(4)
O4 O 0.6112(5) 0.1957(3) 0.6332(5)
H1 H 0.658 0.219 0.717
O5 O 0.4200(5) 0.5541(4) 0.8496(5)
O6 O 0.2889(5) 0.6016(4) 1.0066(6)
O7 O 0.7004(4) 0.4509(3) 1.0233(4)
O8 O 0.2913(4) 0.2932(3) 1.1074(4)
O9 O 0.1057(4) 0.1088(3) 0.9299(4)
O10 O 0.329(1) -0.0602(9) 1.064(1)
O11 O 0.324(2) -0.156(1) 1.003(2)
O12 O 0.3312(7) -0.1150(6) 1.0380(8)
O13 O 0.1810(5) -0.1433(3) 1.1819(4)
N1 N 0.4938(5) 0.6229(3) 1.0921(5)
N2 N 0.5365(4) 0.4385(3) 1.1609(4)
N3 N 0.2952(4) 0.2239(3) 0.8056(4)
N4 N 0.2716(4) 0.1163(3) 0.7961(4)
N5 N 0.1336(5) -0.0874(4) 0.9743(5)
N6 N -0.2764(4) 0.0574(3) 0.2878(4)
C1 C 0.4011(6) 0.5893(4) 0.9712(7)
C2 C 0.6225(5) 0.6026(4) 1.0813(5)
C3 C 0.6231(5) 0.4896(3) 1.0873(5)
C4 C 0.5220(5) 0.3284(3) 1.1691(5)
C5 C 0.4026(5) 0.2632(3) 1.0653(5)
C6 C 0.4165(5) 0.2747(4) 0.9050(5)
C7 C 0.1740(5) 0.0661(4) 0.8596(5)
C8 C 0.1592(5) -0.0523(4) 0.8367(5)
C9 C 0.2248(6) -0.1124(5) 1.0627(6)
C10 C 0.2720(9) -0.1732(6) 1.2842(7)
C11 C 0.1818(9) 0.5715(9) 0.894(1)
C12 C 0.7292(7) 0.6818(4) 1.1928(7)
C13 C 0.725(1) 0.7914(6) 1.169(1)
C14 C 0.8613(9) 0.6645(8) 1.165(1)
C15 C 0.710(1) 0.6694(7) 1.3507(8)
C16 C 0.5158(5) 0.3135(4) 1.3298(5)
C17 C 0.6305(6) 0.3765(4) 1.4359(5)
C18 C 0.7519(7) 0.3708(6) 1.4192(7)
C19 C 0.8581(7) 0.4279(7) 1.5213(9)
C20 C 0.8398(8) 0.4935(6) 1.6375(8)
C21 C 0.715(1) 0.5002(6) 1.6576(7)
C22 C 0.6112(8) 0.4430(5) 1.5589(6)
C23 C 0.3043(5) 0.2519(4) 0.6582(5)
C24 C 0.1813(5) 0.2051(4) 0.5532(5)
C25 C 0.0645(5) 0.2123(4) 0.5934(5)
C26 C -0.0489(5) 0.1725(4) 0.4957(5)
C27 C -0.0441(5) 0.1243(4) 0.3503(5)
C28 C 0.0756(5) 0.1176(4) 0.3097(5)
C29 C 0.1867(5) 0.1568(4) 0.4095(5)
C30 C -0.1615(5) 0.0853(4) 0.2417(4)
C31 C -0.3885(5) 0.0247(4) 0.1969(5)
C32 C -0.3891(5) 0.0200(4) 0.0470(5)
C33 C -0.2737(6) 0.0469(4) -0.0057(5)
C34 C -0.1596(5) 0.0781(4) 0.0890(5)
C35 C 0.0488(6) -0.1114(4) 0.7094(6)
C36 C -0.0819(7) -0.0958(6) 0.7378(9)
C37 C 0.0496(9) -0.2266(5) 0.6929(9)
C38 C 0.0797(8) -0.0738(5) 0.5667(7)
H2 H -0.275 0.053 0.403
O14 O 0.391(1) 0.6646(7) 0.6196(9)
C39 C 0.569(1) 0.7880(9) 0.725(1)
C40 C 0.448(1) 0.7726(9) 0.673(2)
O15 O 0.3714(7) 0.5646(5) 0.3408(6)
C41 C 0.204(1) 0.449(1) 0.405(2)
C42 C 0.240(1) 0.517(1) 0.316(1)
H3 H 0.397 0.602 0.446
O16 O 0.7502(4) 0.2721(3) 0.8957(5)
C43 C 0.8826(7) 0.2919(5) 0.8896(8)
C44 C 0.9613(7) 0.3439(6) 1.035(1)
loop_
_geom_bond_atom_site_label_1
_geom_bond_atom_site_label_2
_geom_bond_site_symmetry_1
_geom_bond_site_symmetry_2
S1 O1 1_555 1_555
O2 S1 1_555 1_555
O3 S1 1_555 1_555
O4 S1 1_555 1_555
H1 O4 1_555 1_555
O5 C1 1_555 1_555
O6 C1 1_555 1_555
O7 C3 1_555 1_555
O8 C5 1_555 1_555
O9 C7 1_555 1_555
O10 O11 1_555 1_555
O11 O12 1_555 1_555
O12 O10 1_555 1_555
O13 C9 1_555 1_555
N1 C1 1_555 1_555
N2 C3 1_555 1_555
N3 N4 1_555 1_555
N4 C7 1_555 1_555
N5 C8 1_555 1_555
N6 C30 1_555 1_555
C2 N1 1_555 1_555
C3 C2 1_555 1_555
C4 N2 1_555 1_555
C5 C4 1_555 1_555
C6 N3 1_555 1_555
C7 C8 1_555 1_555
C8 C35 1_555 1_555
C9 O10 1_555 1_555
C10 O13 1_555 1_555
C11 O6 1_555 1_555
C12 C2 1_555 1_555
C13 C12 1_555 1_555
C14 C12 1_555 1_555
C15 C12 1_555 1_555
C16 C4 1_555 1_555
C17 C16 1_555 1_555
C18 C17 1_555 1_555
C19 C18 1_555 1_555
C20 C19 1_555 1_555
C21 C20 1_555 1_555
C22 C17 1_555 1_555
C23 N3 1_555 1_555
C24 C23 1_555 1_555
C25 C24 1_555 1_555
C26 C25 1_555 1_555
C27 C26 1_555 1_555
C28 C27 1_555 1_555
C29 C24 1_555 1_555
C30 C27 1_555 1_555
C31 N6 1_555 1_555
C32 C31 1_555 1_555
C33 C32 1_555 1_555
C34 C30 1_555 1_555
C35 C36 1_555 1_555
C37 C35 1_555 1_555
C38 C35 1_555 1_555
H2 N6 1_555 1_555
O14 C40 1_555 1_555
C39 C40 1_555 1_555
O15 C42 1_555 1_555
C41 C42 1_555 1_555
H3 O15 1_555 1_555
O16 C43 1_555 1_555
C43 C44 1_555 1_555
O11 C9 1_555 1_555
O12 C9 1_555 1_555
N5 C9 1_555 1_555
C5 C6 1_555 1_555
C21 C22 1_555 1_555
C28 C29 1_555 1_555
C33 C34 1_555 1_555

#END
