
#######################################################################
#
#                 Cambridge Crystallographic Data Centre
#                                CCDC 
#
#######################################################################
#
# If this CIF has been generated from an entry in the Cambridge 
# Structural Database, then it will include bibliographic, chemical, 
# crystal, experimental, refinement or atomic coordinate data resulting 
# from the CCDC's data processing and validation procedures.
#
#######################################################################

data_LUQREW
_chemical_formula_moiety         'C38 H53 N6 O7 1+,C38 H52 N6 O7,H2 O8 S2 1-'
_chemical_name_systematic        'atazanavir bisulfate'
_symmetry_cell_setting           triclinic
_symmetry_space_group_name_H-M   'P 1'
_symmetry_Int_Tables_number      1
_space_group_name_Hall           'P 1'
loop_
_symmetry_equiv_pos_site_id
_symmetry_equiv_pos_as_xyz
1 x,y,z
_cell_length_a                   9.861(5)
_cell_length_b                   29.245(6)
_cell_length_c                   8.327(2)
_cell_angle_alpha                93.56(2)
_cell_angle_beta                 114.77(3)
_cell_angle_gamma                80.49(3)
_cell_volume                     2150.41
_cell_formula_units_Z            1
loop_
_atom_site_label
_atom_site_type_symbol
_atom_site_fract_x
_atom_site_fract_y
_atom_site_fract_z
S1 S 0.3230(4) 0.5467(1) 0.5608(5)
O1 O 0.431(1) 0.5060(3) 0.649(1)
O2 O 0.335(1) 0.5498(4) 0.383(1)
O3 O 0.360(1) 0.5877(4) 0.655(2)
O4 O 0.176(1) 0.5384(4) 0.528(1)
S2 S 0.6177(4) 0.4505(1) 0.4003(5)
O5 O 0.596(1) 0.4430(4) 0.564(1)
O6 O 0.518(1) 0.4921(4) 0.317(1)
O7 O 0.588(1) 0.4121(3) 0.289(2)
O8 O 0.768(1) 0.4587(4) 0.454(1)
H1 H 0.491 0.471 0.6
H2 H 0.44 0.512 0.322
O9 O 0.6985(7) 0.1753(3) 0.6456(9)
O10 O 0.1687(8) 0.1941(3) 0.3411(9)
O11 O -0.0352(7) 0.2482(3) 0.0308(8)
O12 O 0.2280(7) 0.1769(3) -0.233(1)
O13 O 0.0399(8) 0.1335(3) -0.330(1)
O14 O 0.6169(7) 0.2821(3) 0.963(1)
O15 O 0.3750(7) 0.2905(3) 0.9136(9)
N1 N 0.5015(9) 0.2182(3) 0.902(1)
N2 N 0.4642(8) 0.1647(3) 0.6001(9)
N3 N 0.2317(9) 0.2788(3) 0.256(1)
N4 N 0.1820(9) 0.2760(3) 0.069(1)
N5 N -0.0148(8) 0.2083(3) -0.280(1)
N6 N -0.087(1) 0.5265(3) 0.272(1)
C1 C 0.491(1) 0.2627(4) 0.924(1)
C2 C 0.6381(9) 0.1908(3) 0.892(1)
C3 C 0.600(1) 0.1764(4) 0.702(1)
C4 C 0.420(1) 0.1551(4) 0.403(1)
C5 C 0.295(1) 0.1936(4) 0.297(1)
C6 C 0.357(1) 0.2400(4) 0.346(2)
C7 C 0.051(1) 0.2592(4) -0.028(1)
C8 C 0.024(1) 0.2531(4) -0.223(1)
C9 C 0.094(1) 0.1732(4) -0.280(1)
C10 C 0.146(2) 0.0943(5) -0.342(2)
C11 C 0.616(1) 0.3313(4) 0.996(2)
C12 C 0.701(1) 0.1485(4) 1.025(1)
C13 C 0.842(1) 0.1219(5) 1.007(2)
C14 C 0.583(2) 0.1160(5) 0.997(2)
C15 C 0.748(2) 0.1713(5) 1.215(1)
C16 C 0.365(1) 0.1079(4) 0.356(2)
C17 C 0.484(1) 0.0691(4) 0.470(1)
C18 C 0.643(2) 0.0684(5) 0.520(2)
C19 C 0.753(2) 0.0293(6) 0.622(2)
C20 C 0.709(3) -0.0044(7) 0.691(3)
C21 C 0.553(2) -0.0032(5) 0.644(2)
C22 C 0.441(2) 0.0343(5) 0.534(2)
C23 C 0.291(1) 0.3229(4) 0.311(2)
C24 C 0.177(1) 0.3650(4) 0.259(1)
C25 C 0.224(1) 0.4064(4) 0.262(2)
C26 C 0.122(1) 0.4487(5) 0.233(2)
C27 C -0.031(1) 0.4469(4) 0.189(1)
C28 C -0.081(1) 0.4043(4) 0.180(1)
C29 C 0.019(1) 0.3629(4) 0.218(1)
C30 C -0.136(1) 0.4918(4) 0.170(1)
C31 C -0.170(1) 0.5683(4) 0.279(2)
C32 C -0.318(2) 0.5736(5) 0.158(2)
C33 C -0.376(2) 0.5403(5) 0.035(2)
C34 C -0.283(1) 0.4964(5) 0.039(2)
C35 C -0.096(1) 0.2937(4) -0.345(1)
C36 C -0.258(1) 0.2901(5) -0.366(2)
C37 C -0.085(2) 0.2890(6) -0.530(2)
C38 C -0.057(2) 0.3393(5) -0.265(2)
H3 H 0.047 0.523 0.383
O16 O 0.2347(7) 0.8167(3) 0.8392(8)
O17 O 0.7713(8) 0.7950(3) 1.0561(9)
O18 O 0.9725(7) 0.7436(3) 0.9141(8)
O19 O 0.7062(7) 0.8164(3) 0.427(1)
O20 O 0.8911(8) 0.8598(2) 0.535(1)
O21 O 0.3150(8) 0.7090(3) 1.184(1)
O22 O 0.5587(9) 0.6986(3) 1.377(1)
N7 N 0.4313(9) 0.7713(3) 1.271(1)
N8 N 0.4709(8) 0.8265(3) 1.0332(9)
N9 N 0.7555(8) 0.7179(3) 0.728(1)
N10 N 0.9491(8) 0.7852(3) 0.601(1)
N11 N 1.026(1) 0.4719(3) 0.711(1)
C39 C 0.442(1) 0.7247(4) 1.282(1)
C40 C 0.296(1) 0.7996(4) 1.141(1)
C41 C 0.3347(9) 0.8159(3) 0.989(1)
C42 C 0.519(1) 0.8353(4) 0.887(1)
C43 C 0.644(1) 0.7959(4) 0.886(1)
C44 C 0.587(1) 0.7494(4) 0.854(1)
C45 C 0.884(1) 0.7334(4) 0.766(1)
C46 C 0.914(1) 0.7392(4) 0.603(1)
C47 C 0.839(1) 0.8196(4) 0.513(1)
C48 C 0.785(2) 0.8996(5) 0.433(3)
C49 C 0.323(1) 0.6588(4) 1.202(2)
C50 C 0.237(1) 0.8409(4) 1.232(1)
C51 C 0.092(1) 0.8701(5) 1.080(2)
C52 C 0.352(1) 0.8744(4) 1.328(2)
C53 C 0.187(1) 0.8195(6) 1.362(1)
C54 C 0.570(1) 0.8825(4) 0.907(2)
C55 C 0.450(1) 0.9206(4) 0.919(1)
C56 C 0.296(2) 0.9236(5) 0.813(2)
C57 C 0.188(2) 0.9614(6) 0.826(2)
C58 C 0.244(2) 0.9942(6) 0.960(2)
C59 C 0.405(3) 0.9935(6) 1.062(2)
C60 C 0.504(2) 0.9552(4) 1.043(2)
C61 C 0.644(1) 0.6672(4) 0.832(2)
C62 C 0.762(1) 0.6266(3) 0.839(1)
C63 C 0.723(1) 0.5934(4) 0.696(2)
C64 C 0.822(1) 0.5547(4) 0.695(2)
C65 C 0.967(1) 0.5478(4) 0.828(1)
C66 C 1.009(1) 0.5783(4) 0.971(2)
C67 C 0.908(1) 0.6184(4) 0.971(2)
C68 C 1.076(1) 0.5070(4) 0.827(1)
C69 C 1.111(1) 0.4326(4) 0.690(2)
C70 C 1.258(2) 0.4262(5) 0.792(2)
C71 C 1.324(2) 0.4578(5) 0.918(2)
C72 C 1.230(1) 0.4994(5) 0.936(2)
C73 C 1.038(1) 0.7005(4) 0.584(1)
C74 C 1.196(1) 0.7055(4) 0.717(2)
C75 C 1.021(2) 0.7049(5) 0.392(2)
C76 C 0.998(1) 0.6536(4) 0.614(2)
N12 N 0.7084(8) 0.7114(3) 0.866(1)
H4 H 0.931 0.477 0.646
loop_
_geom_bond_atom_site_label_1
_geom_bond_atom_site_label_2
_geom_bond_site_symmetry_1
_geom_bond_site_symmetry_2
S1 O1 1_555 1_555
O1 H1 1_555 1_555
O2 S1 1_555 1_555
O3 S1 1_555 1_555
O4 S1 1_555 1_555
S2 O5 1_555 1_555
O5 H1 1_555 1_555
O6 S2 1_555 1_555
O7 S2 1_555 1_555
O8 S2 1_555 1_555
H2 O6 1_555 1_555
O9 C3 1_555 1_555
O10 C5 1_555 1_555
O11 C7 1_555 1_555
O12 C9 1_555 1_555
O13 C9 1_555 1_555
O14 C1 1_555 1_555
O15 C1 1_555 1_555
N1 C1 1_555 1_555
N2 C3 1_555 1_555
N3 N4 1_555 1_555
N4 C7 1_555 1_555
N5 C8 1_555 1_555
N6 C30 1_555 1_555
C2 N1 1_555 1_555
C3 C2 1_555 1_555
C4 N2 1_555 1_555
C5 C4 1_555 1_555
C6 N3 1_555 1_555
C7 C8 1_555 1_555
C8 C35 1_555 1_555
C9 N5 1_555 1_555
C10 O13 1_555 1_555
C11 O14 1_555 1_555
C12 C2 1_555 1_555
C13 C12 1_555 1_555
C14 C12 1_555 1_555
C15 C12 1_555 1_555
C16 C4 1_555 1_555
C17 C16 1_555 1_555
C18 C17 1_555 1_555
C19 C18 1_555 1_555
C20 C19 1_555 1_555
C21 C20 1_555 1_555
C22 C17 1_555 1_555
C23 N3 1_555 1_555
C24 C23 1_555 1_555
C25 C24 1_555 1_555
C26 C25 1_555 1_555
C27 C26 1_555 1_555
C28 C27 1_555 1_555
C29 C24 1_555 1_555
C30 C27 1_555 1_555
C31 N6 1_555 1_555
C32 C31 1_555 1_555
C33 C32 1_555 1_555
C34 C30 1_555 1_555
C35 C36 1_555 1_555
C37 C35 1_555 1_555
C38 C35 1_555 1_555
H3 N6 1_555 1_555
O16 C41 1_555 1_555
O17 C43 1_555 1_555
O18 C45 1_555 1_555
O19 C47 1_555 1_555
O20 C47 1_555 1_555
O21 C39 1_555 1_555
O22 C39 1_555 1_555
N7 C39 1_555 1_555
N8 C41 1_555 1_555
N9 C45 1_555 1_555
N10 C46 1_555 1_555
N11 C68 1_555 1_555
C40 N7 1_555 1_555
C41 C40 1_555 1_555
C42 N8 1_555 1_555
C43 C42 1_555 1_555
C44 C43 1_555 1_555
C45 C46 1_555 1_555
C46 C73 1_555 1_555
C47 N10 1_555 1_555
C48 O20 1_555 1_555
C49 O21 1_555 1_555
C50 C40 1_555 1_555
C51 C50 1_555 1_555
C52 C50 1_555 1_555
C53 C50 1_555 1_555
C54 C42 1_555 1_555
C55 C54 1_555 1_555
C56 C55 1_555 1_555
C57 C56 1_555 1_555
C58 C57 1_555 1_555
C59 C58 1_555 1_555
C60 C55 1_555 1_555
C61 C62 1_555 1_555
C62 C63 1_555 1_555
C63 C64 1_555 1_555
C64 C65 1_555 1_555
C65 C66 1_555 1_555
C66 C67 1_555 1_555
C67 C62 1_555 1_555
C68 C65 1_555 1_555
C69 N11 1_555 1_555
C70 C69 1_555 1_555
C71 C70 1_555 1_555
C72 C68 1_555 1_555
C73 C74 1_555 1_555
C75 C73 1_555 1_555
C76 C73 1_555 1_555
N12 N9 1_555 1_555
H4 N11 1_555 1_555
C5 C6 1_555 1_555
C21 C22 1_555 1_555
C28 C29 1_555 1_555
C33 C34 1_555 1_555
C44 N12 1_555 1_555
C59 C60 1_555 1_555
C61 N12 1_555 1_555
C71 C72 1_555 1_555

#END
