
#######################################################################
#
#                 Cambridge Crystallographic Data Centre
#                                CCDC 
#
#######################################################################
#
# If this CIF has been generated from an entry in the Cambridge 
# Structural Database, then it will include bibliographic, chemical, 
# crystal, experimental, refinement or atomic coordinate data resulting 
# from the CCDC's data processing and validation procedures.
#
#######################################################################

data_LUQYUT
_chemical_formula_moiety         'C17 H17 Br1 N2 O1'
_chemical_name_systematic        
5-(3-bromophenyl)-1,2,3,3a,5,6-hexahydropyrrolo[1,2-a][3,1,4]benzoxadiazepine
_symmetry_cell_setting           triclinic
_symmetry_space_group_name_H-M   'P -1'
_symmetry_Int_Tables_number      2
_space_group_name_Hall           '-P 1'
loop_
_symmetry_equiv_pos_site_id
_symmetry_equiv_pos_as_xyz
1 x,y,z
2 -x,-y,-z
_cell_length_a                   9.2010(18)
_cell_length_b                   9.6050(19)
_cell_length_c                   9.6880(19)
_cell_angle_alpha                105.73(3)
_cell_angle_beta                 101.83(3)
_cell_angle_gamma                107.80(3)
_cell_volume                     744.95
_cell_formula_units_Z            2
loop_
_atom_site_label
_atom_site_type_symbol
_atom_site_fract_x
_atom_site_fract_y
_atom_site_fract_z
Br1 Br 0.08831(10) -0.16497(8) 0.35946(9)
O1 O 0.1038(5) 0.3991(5) 0.3914(4)
N1 N 0.3308(6) 0.6409(5) 0.4647(5)
C1 C 0.2690(7) 0.4899(7) 0.4815(7)
H1 H 0.3363 0.4307 0.4583
N2 N 0.0874(6) 0.3285(5) 0.2365(5)
C2 C 0.2798(8) 0.5336(8) 0.6497(7)
H2 H 0.1812 0.4711 0.6612
H3 H 0.3688 0.5167 0.7060
C3 C 0.3058(8) 0.7037(7) 0.7040(7)
H4 H 0.3649 0.7542 0.8111
H5 H 0.2042 0.7173 0.6857
C4 C 0.4021(8) 0.7676(7) 0.6115(7)
H6 H 0.3907 0.8628 0.6044
H7 H 0.5151 0.7889 0.6537
C5 C 0.3845(7) 0.6558(6) 0.3436(6)
C6 C 0.5281(8) 0.7744(7) 0.3652(8)
H8 H 0.5902 0.8445 0.4623
C7 C 0.5797(9) 0.7892(8) 0.2434(9)
H9 H 0.6763 0.8690 0.2592
C8 C 0.4881(9) 0.6857(8) 0.0976(9)
H10 H 0.5234 0.6957 0.0161
C9 C 0.3450(8) 0.5683(8) 0.0747(7)
H11 H 0.2856 0.4975 -0.0227
C10 C 0.2871(7) 0.5530(6) 0.1940(7)
C11 C 0.1201(8) 0.4421(7) 0.1633(7)
H12 H 0.0351 0.4461 0.0956
C12 C 0.1357(6) 0.2016(6) 0.2075(6)
C13 C 0.1952(7) 0.1630(7) 0.0882(7)
H13 H 0.2122 0.2260 0.0304
C14 C 0.2288(7) 0.0290(7) 0.0568(7)
H14 H 0.2722 0.0055 -0.0210
C15 C 0.2010(7) -0.0715(7) 0.1355(7)
H15 H 0.2244 -0.1611 0.1134
C16 C 0.1352(7) -0.0295(7) 0.2508(7)
C17 C 0.1056(7) 0.1049(6) 0.2883(7)
H16 H 0.0653 0.1305 0.3681
loop_
_geom_bond_atom_site_label_1
_geom_bond_atom_site_label_2
_geom_bond_site_symmetry_1
_geom_bond_site_symmetry_2
Br1 C16 1_555 1_555
O1 C1 1_555 1_555
N1 C1 1_555 1_555
C1 H1 1_555 1_555
N2 O1 1_555 1_555
C2 C1 1_555 1_555
H2 C2 1_555 1_555
H3 C2 1_555 1_555
C3 C2 1_555 1_555
H4 C3 1_555 1_555
H5 C3 1_555 1_555
C4 N1 1_555 1_555
H6 C4 1_555 1_555
H7 C4 1_555 1_555
C5 N1 1_555 1_555
C6 C5 1_555 1_555
H8 C6 1_555 1_555
C7 C6 1_555 1_555
H9 C7 1_555 1_555
C8 C7 1_555 1_555
H10 C8 1_555 1_555
C9 C8 1_555 1_555
H11 C9 1_555 1_555
C10 C5 1_555 1_555
C11 N2 1_555 1_555
H12 C11 1_555 1_555
C12 N2 1_555 1_555
C13 C12 1_555 1_555
H13 C13 1_555 1_555
C14 C13 1_555 1_555
H14 C14 1_555 1_555
C15 C14 1_555 1_555
H15 C15 1_555 1_555
C16 C15 1_555 1_555
C17 C12 1_555 1_555
H16 C17 1_555 1_555
C3 C4 1_555 1_555
C9 C10 1_555 1_555
C10 C11 1_555 1_555
C16 C17 1_555 1_555

#END
