
#######################################################################
#
#                 Cambridge Crystallographic Data Centre
#                                CCDC 
#
#######################################################################
#
# If this CIF has been generated from an entry in the Cambridge 
# Structural Database, then it will include bibliographic, chemical, 
# crystal, experimental, refinement or atomic coordinate data resulting 
# from the CCDC's data processing and validation procedures.
#
#######################################################################

data_LURHIR
_chemical_formula_moiety         'C32 H36 N2'
_chemical_name_systematic        
1,1'-(2,5-bis(2-phenylvinyl)-1,4-phenylene)dipiperidine
_symmetry_cell_setting           triclinic
_symmetry_space_group_name_H-M   'P -1'
_symmetry_Int_Tables_number      2
_space_group_name_Hall           '-P 1'
loop_
_symmetry_equiv_pos_site_id
_symmetry_equiv_pos_as_xyz
1 x,y,z
2 -x,-y,-z
_cell_length_a                   6.202(5)
_cell_length_b                   8.602(8)
_cell_length_c                   12.334(12)
_cell_angle_alpha                83.36(4)
_cell_angle_beta                 79.79(3)
_cell_angle_gamma                73.78(3)
_cell_volume                     620.294
_exptl_crystal_colour            yellow
_exptl_crystal_description       block
_cell_formula_units_Z            1
loop_
_atom_site_label
_atom_site_type_symbol
_atom_site_fract_x
_atom_site_fract_y
_atom_site_fract_z
C1 C 0.8750(2) 0.39587(16) 0.55230(11)
H1 H 0.7883 0.3245 0.5888
N1 N 1.00695(17) 0.58004(13) 0.27078(9)
C2 C 0.8783(2) 0.43290(15) 0.43914(11)
C3 C 0.5124(2) 0.19615(16) 0.33790(12)
C4 C 0.7692(2) 0.35573(16) 0.37264(11)
H2 H 0.8151 0.3647 0.2950
C5 C 0.6129(2) 0.27431(16) 0.40821(12)
H3 H 0.5625 0.2663 0.4855
C6 C 1.0065(2) 0.54081(16) 0.38607(11)
C7 C 0.3434(2) 0.11969(17) 0.38576(14)
H4 H 0.3010 0.1141 0.4637
C8 C 0.7971(2) 0.69707(17) 0.24426(12)
H5 H 0.7956 0.8071 0.2612
H6 H 0.6639 0.6679 0.2899
C9 C 1.2085(2) 0.62294(17) 0.20946(11)
H7 H 1.3471 0.5454 0.2317
H8 H 1.2076 0.7332 0.2258
C10 C 0.7827(2) 0.69637(19) 0.12285(12)
H9 H 0.6451 0.7794 0.1045
H10 H 0.7698 0.5891 0.1076
C11 C 0.5730(3) 0.19744(19) 0.22341(13)
H11 H 0.6908 0.2453 0.1887
C12 C 0.2953(3) 0.05800(19) 0.20816(16)
H12 H 0.2202 0.0131 0.1640
C13 C 1.2081(2) 0.61773(19) 0.08670(12)
H13 H 1.2191 0.5055 0.0704
H14 H 1.3425 0.6492 0.0443
C14 C 0.2366(3) 0.05165(18) 0.32094(16)
H15 H 0.1220 0.0004 0.3550
C15 C 0.4649(3) 0.1304(2) 0.15970(15)
H16 H 0.5076 0.1342 0.0818
C16 C 0.9929(3) 0.7319(2) 0.05059(12)
H17 H 0.9893 0.7179 -0.0276
H18 H 0.9926 0.8457 0.0566
C1A C 1.1250(2) 0.60413(16) 0.44770(11)
H1A H 1.2117 0.6755 0.4112
N1A N 0.99305(17) 0.41996(13) 0.72922(9)
C2A C 1.1217(2) 0.56710(15) 0.56086(11)
C3A C 1.4876(2) 0.80385(16) 0.66210(12)
C4A C 1.2308(2) 0.64427(16) 0.62736(11)
H2A H 1.1849 0.6353 0.7050
C5A C 1.3871(2) 0.72569(16) 0.59179(12)
H3A H 1.4375 0.7337 0.5145
C6A C 0.9935(2) 0.45919(16) 0.61393(11)
C7A C 1.6566(2) 0.88031(17) 0.61424(14)
H4A H 1.6990 0.8859 0.5363
C8A C 1.2029(2) 0.30293(17) 0.75574(12)
H5A H 1.2044 0.1929 0.7388
H6A H 1.3361 0.3321 0.7101
C9A C 0.7915(2) 0.37706(17) 0.79054(11)
H7A H 0.6529 0.4546 0.7683
H8A H 0.7924 0.2668 0.7742
C10A C 1.2173(2) 0.30363(19) 0.87715(12)
H9A H 1.3549 0.2206 0.8955
H10A H 1.2302 0.4109 0.8924
C11A C 1.4270(3) 0.80256(19) 0.77659(13)
H11A H 1.3092 0.7547 0.8113
C12A C 1.7047(3) 0.94200(19) 0.79184(16)
H12A H 1.7798 0.9869 0.8360
C13A C 0.7919(2) 0.38227(19) 0.91330(12)
H13A H 0.7809 0.4945 0.9296
H14A H 0.6575 0.3508 0.9557
C14A C 1.7634(3) 0.94835(18) 0.67906(16)
H15A H 1.8780 0.9996 0.6450
C15A C 1.5351(3) 0.8696(2) 0.84030(15)
H16A H 1.4924 0.8658 0.9182
C16A C 1.0071(3) 0.2681(2) 0.94941(12)
H17A H 1.0107 0.2821 1.0276
H18A H 1.0074 0.1543 0.9434
loop_
_geom_bond_atom_site_label_1
_geom_bond_atom_site_label_2
_geom_bond_site_symmetry_1
_geom_bond_site_symmetry_2
C1 H1 1_555 1_555
N1 C6 1_555 1_555
C2 C1 1_555 1_555
C3 C5 1_555 1_555
C4 C2 1_555 1_555
H2 C4 1_555 1_555
C5 C4 1_555 1_555
H3 C5 1_555 1_555
C6 C2 1_555 1_555
C7 C3 1_555 1_555
H4 C7 1_555 1_555
C8 N1 1_555 1_555
H5 C8 1_555 1_555
H6 C8 1_555 1_555
C9 N1 1_555 1_555
H7 C9 1_555 1_555
H8 C9 1_555 1_555
C10 C8 1_555 1_555
H9 C10 1_555 1_555
H10 C10 1_555 1_555
C11 C3 1_555 1_555
H11 C11 1_555 1_555
C12 H12 1_555 1_555
C13 C9 1_555 1_555
H13 C13 1_555 1_555
H14 C13 1_555 1_555
C14 C7 1_555 1_555
H15 C14 1_555 1_555
C15 C11 1_555 1_555
H16 C15 1_555 1_555
C16 C10 1_555 1_555
H17 C16 1_555 1_555
H18 C16 1_555 1_555
C1A C6 1_555 1_555
H1A C1A 1_555 1_555
N1A C6A 1_555 1_555
C2A C1A 1_555 1_555
C3A C5A 1_555 1_555
C4A C2A 1_555 1_555
H2A C4A 1_555 1_555
C5A C4A 1_555 1_555
H3A C5A 1_555 1_555
C6A C1 1_555 1_555
C7A C3A 1_555 1_555
H4A C7A 1_555 1_555
C8A N1A 1_555 1_555
H5A C8A 1_555 1_555
H6A C8A 1_555 1_555
C9A N1A 1_555 1_555
H7A C9A 1_555 1_555
H8A C9A 1_555 1_555
C10A C8A 1_555 1_555
H9A C10A 1_555 1_555
H10A C10A 1_555 1_555
C11A C3A 1_555 1_555
H11A C11A 1_555 1_555
C12A H12A 1_555 1_555
C13A C9A 1_555 1_555
H13A C13A 1_555 1_555
H14A C13A 1_555 1_555
C14A C7A 1_555 1_555
H15A C14A 1_555 1_555
C15A C11A 1_555 1_555
H16A C15A 1_555 1_555
C16A C10A 1_555 1_555
H17A C16A 1_555 1_555
H18A C16A 1_555 1_555
C12 C14 1_555 1_555
C12 C15 1_555 1_555
C13 C16 1_555 1_555
C2A C6A 1_555 1_555
C12A C14A 1_555 1_555
C12A C15A 1_555 1_555
C13A C16A 1_555 1_555

#END
