
#######################################################################
#
#                 Cambridge Crystallographic Data Centre
#                                CCDC 
#
#######################################################################
#
# If this CIF has been generated from an entry in the Cambridge 
# Structural Database, then it will include bibliographic, chemical, 
# crystal, experimental, refinement or atomic coordinate data resulting 
# from the CCDC's data processing and validation procedures.
#
#######################################################################

data_LUSLEQ
_chemical_formula_moiety         'C15 H12 N4'
_chemical_name_systematic        bis(7-Azaindol-3-yl)methane
_symmetry_cell_setting           triclinic
_symmetry_space_group_name_H-M   'P -1'
_symmetry_Int_Tables_number      2
_space_group_name_Hall           '-P 1'
loop_
_symmetry_equiv_pos_site_id
_symmetry_equiv_pos_as_xyz
1 x,y,z
2 -x,-y,-z
_cell_length_a                   6.8293(17)
_cell_length_b                   8.970(2)
_cell_length_c                   11.078(3)
_cell_angle_alpha                77.761(4)
_cell_angle_beta                 75.070(5)
_cell_angle_gamma                78.534(4)
_cell_volume                     633.3
_chemical_melting_point          '260-262 deg.C(dec.)'
_cell_formula_units_Z            2
_exptl_crystal_recrystallization_method tetrahydrofuran
loop_
_atom_site_label
_atom_site_type_symbol
_atom_site_fract_x
_atom_site_fract_y
_atom_site_fract_z
N1 N 0.1737(3) 0.5530(2) 0.5835(2)
N2 N 0.1509(2) 0.3013(2) 0.5514(2)
N3 N 0.5959(3) 0.8433(2) 0.8992(2)
N4 N 0.2717(3) 0.8957(2) 1.0436(2)
C1 C 0.2943(3) 0.6100(3) 0.6412(2)
C2 C 0.4267(3) 0.4948(3) 0.6905(2)
C3 C 0.3897(3) 0.3548(3) 0.6633(2)
C4 C 0.4672(4) 0.2002(3) 0.6861(2)
C5 C 0.3896(4) 0.0986(3) 0.6406(2)
C6 C 0.2350(4) 0.1527(3) 0.5755(2)
C7 C 0.2316(3) 0.3972(3) 0.5962(2)
C8 C 0.6808(4) 0.7374(3) 0.8189(2)
C9 C 0.5452(3) 0.6435(2) 0.8234(2)
C10 C 0.3638(3) 0.6924(2) 0.9122(2)
C11 C 0.1722(3) 0.6473(3) 0.9624(2)
C12 C 0.0361(4) 0.7247(3) 1.0517(2)
C13 C 0.0899(4) 0.8449(3) 1.0895(2)
C14 C 0.4006(3) 0.8170(2) 0.9571(2)
C15 C 0.5870(4) 0.5046(3) 0.7597(2)
H1 H 0.0730(30) 0.6140(20) 0.5433(18)
H2 H 0.2680(20) 0.7240(20) 0.6394(14)
H3 H 0.6530(30) 0.9210(20) 0.9138(17)
H4 H 0.5720(20) 0.1663(18) 0.7291(15)
H5 H 0.4380(30) -0.0130(20) 0.6622(18)
H6 H 0.1720(30) 0.0780(20) 0.5432(17)
H7 H 0.8200(30) 0.7410(20) 0.7700(16)
H8 H 0.1400(20) 0.5650(20) 0.9354(15)
H9 H -0.0930(30) 0.6930(20) 1.0869(17)
H10 H -0.0040(20) 0.9042(19) 1.1517(16)
H11 H 0.7290(30) 0.5090(20) 0.6930(17)
H12 H 0.5900(30) 0.4090(20) 0.8240(17)
loop_
_geom_bond_atom_site_label_1
_geom_bond_atom_site_label_2
_geom_bond_site_symmetry_1
_geom_bond_site_symmetry_2
N1 C1 1_555 1_555
N2 C6 1_555 1_555
N3 C8 1_555 1_555
N4 C13 1_555 1_555
C1 C2 1_555 1_555
C2 C3 1_555 1_555
C3 C4 1_555 1_555
C4 C5 1_555 1_555
C5 C6 1_555 1_555
C6 H6 1_555 1_555
C7 N1 1_555 1_555
C8 C9 1_555 1_555
C9 C10 1_555 1_555
C10 C11 1_555 1_555
C11 C12 1_555 1_555
C12 C13 1_555 1_555
C13 H10 1_555 1_555
C14 N3 1_555 1_555
C15 C2 1_555 1_555
H1 N1 1_555 1_555
H2 C1 1_555 1_555
H3 N3 1_555 1_555
H4 C4 1_555 1_555
H5 C5 1_555 1_555
H7 C8 1_555 1_555
H8 C11 1_555 1_555
H9 C12 1_555 1_555
H11 C15 1_555 1_555
H12 C15 1_555 1_555
N2 C7 1_555 1_555
N4 C14 1_555 1_555
C3 C7 1_555 1_555
C9 C15 1_555 1_555
C10 C14 1_555 1_555

#END
