
#######################################################################
#
#                 Cambridge Crystallographic Data Centre
#                                CCDC 
#
#######################################################################
#
# If this CIF has been generated from an entry in the Cambridge 
# Structural Database, then it will include bibliographic, chemical, 
# crystal, experimental, refinement or atomic coordinate data resulting 
# from the CCDC's data processing and validation procedures.
#
#######################################################################

data_LUSMAN
_chemical_formula_moiety         'C27 H27 N1 O4'
_chemical_name_systematic        
(3S,3'R,8S)-2-(Hydroxy(2-methoxyphenyl)methyl)-4,4-diphenyl-1-oxo-3,4,6,7,8,8a-hexahydro-1H-pyrrolo(2,1-c)(1,4)oxazine
_symmetry_cell_setting           triclinic
_symmetry_space_group_name_H-M   'P 1'
_symmetry_Int_Tables_number      1
_space_group_name_Hall           'P 1'
loop_
_symmetry_equiv_pos_site_id
_symmetry_equiv_pos_as_xyz
1 x,y,z
_cell_length_a                   9.5301(10)
_cell_length_b                   9.5407(10)
_cell_length_c                   13.5234(14)
_cell_angle_alpha                89.970(2)
_cell_angle_beta                 103.718(2)
_cell_angle_gamma                111.876(2)
_cell_volume                     1103.24
_exptl_crystal_colour            colorless
_exptl_crystal_description       cubes
_chemical_melting_point          120-121deg.C
_cell_formula_units_Z            2
loop_
_atom_site_label
_atom_site_type_symbol
_atom_site_fract_x
_atom_site_fract_y
_atom_site_fract_z
O1 O 0.4483(3) -0.0254(3) 0.5028(2)
O2 O 0.6065(2) 0.2508(2) 0.35672(16)
O3 O 0.2874(3) 0.0948(3) 0.3247(3)
O4 O 0.4150(3) 0.4412(3) 0.54355(19)
N1 N 0.7001(4) 0.0866(3) 0.4945(2)
C1 C 0.5561(4) 0.0820(4) 0.4846(3)
C2 C 0.5400(4) 0.2243(3) 0.4423(2)
C3 C 0.7722(3) 0.2888(3) 0.3780(2)
C4 C 0.8252(4) 0.2227(4) 0.4803(3)
C5 C 0.9635(5) 0.1720(5) 0.4928(4)
H1 H 0.9712 0.1400 0.4270
H2 H 1.0611 0.2537 0.5267
C6 C 0.9268(7) 0.0430(6) 0.5567(5)
H3 H 0.9708 0.0794 0.6286
H4 H 0.9709 -0.0280 0.5403
C7 C 0.7529(6) -0.0331(6) 0.5344(4)
C8 C 0.3720(4) 0.2119(4) 0.4055(3)
C9 C 0.3657(4) 0.3601(4) 0.3715(2)
C10 C 0.3415(5) 0.3885(6) 0.2700(3)
C11 C 0.3431(6) 0.5258(9) 0.2411(5)
H5 H 0.3256 0.5422 0.1723
C12 C 0.3703(6) 0.6390(7) 0.3130(6)
C13 C 0.3949(5) 0.6172(5) 0.4158(4)
H6 H 0.4129 0.6947 0.4647
C14 C 0.3921(4) 0.4760(4) 0.4440(3)
C15 C 0.4259(6) 0.5458(6) 0.6223(4)
H7 H 0.3347 0.5705 0.6063
H8 H 0.5175 0.6364 0.6279
H9 H 0.4329 0.5012 0.6860
C16 C 0.7925(4) 0.2082(3) 0.2876(2)
C17 C 0.9202(4) 0.2744(5) 0.2459(3)
C18 C 0.9394(5) 0.1925(6) 0.1685(4)
C19 C 0.8342(6) 0.0499(6) 0.1305(4)
C20 C 0.7063(6) -0.0144(5) 0.1698(3)
C21 C 0.6851(5) 0.0634(4) 0.2472(3)
C22 C 0.8528(4) 0.4608(4) 0.3859(3)
C23 C 0.7730(6) 0.5422(5) 0.3308(4)
C24 C 0.8442(7) 0.6997(5) 0.3363(4)
H10 H 0.7898 0.7541 0.2994
C25 C 0.9925(7) 0.7749(5) 0.3951(5)
C26 C 1.0722(6) 0.6968(5) 0.4483(5)
C27 C 1.0025(5) 0.5390(5) 0.4460(4)
H21 H 0.600(3) 0.322(3) 0.491(2)
H22 H 0.852(5) 0.292(4) 0.533(3)
H23 H 0.315(4) 0.175(4) 0.455(3)
H24 H 0.320(5) 0.305(5) 0.228(3)
H25 H 0.377(6) 0.746(5) 0.292(3)
H26 H 0.994(5) 0.378(5) 0.273(3)
H27 H 1.025(7) 0.245(6) 0.135(4)
H28 H 0.861(6) 0.005(5) 0.078(4)
H29 H 0.619(6) -0.111(5) 0.143(3)
H30 H 0.602(4) 0.018(4) 0.279(3)
H31 H 0.660(5) 0.481(4) 0.291(3)
H32 H 1.040(5) 0.882(5) 0.392(3)
H33 H 1.182(6) 0.744(5) 0.496(3)
H34 H 1.070(7) 0.481(6) 0.491(4)
H47 H 0.727(6) -0.060(5) 0.608(4)
H48 H 0.315(7) 0.020(5) 0.350(4)
H52 H 0.724(5) -0.108(5) 0.479(4)
O5 O -0.1858(3) 0.2171(3) 0.7556(2)
O6 O 0.1681(2) 0.4427(2) 0.90611(16)
O7 O 0.0048(4) 0.1371(3) 0.9314(2)
O8 O 0.2837(4) 0.1516(4) 0.7441(2)
N2 N -0.0608(3) 0.4708(3) 0.7635(2)
C28 C -0.0648(4) 0.3303(4) 0.7747(2)
C29 C 0.0976(4) 0.3327(3) 0.8205(2)
C30 C 0.2001(4) 0.5983(3) 0.8868(2)
C31 C 0.0881(4) 0.6014(4) 0.7814(3)
C32 C 0.0341(5) 0.7352(5) 0.7670(4)
H11 H 0.0293 0.7748 0.8316
H12 H 0.1042 0.8164 0.7378
C33 C -0.1262(6) 0.6669(5) 0.6945(4)
C34 C -0.1968(5) 0.5114(5) 0.7259(4)
C35 C 0.0966(4) 0.1814(4) 0.8596(3)
H13 H 0.051(4) 0.103(4) 0.801(3)
C36 C 0.2611(4) 0.1951(3) 0.9079(3)
C37 C 0.3266(5) 0.2279(5) 1.0115(3)
H14 H 0.2647 0.2365 1.0531
C38 C 0.4751(7) 0.2482(6) 1.0555(4)
H15 H 0.5138 0.2672 1.1261
C39 C 0.5695(6) 0.2408(6) 0.9951(4)
C40 C 0.5123(6) 0.2098(5) 0.8909(4)
C41 C 0.3550(5) 0.1853(4) 0.8463(3)
C42 C 0.3675(7) 0.1245(6) 0.6779(4)
H16 H 0.4066 0.0484 0.7027
H17 H 0.4535 0.2167 0.6755
H18 H 0.2994 0.0901 0.6105
C43 C 0.1657(4) 0.6651(3) 0.9763(3)
C44 C 0.0421(4) 0.5777(4) 1.0151(3)
C45 C 0.0048(5) 0.6396(6) 1.0940(3)
C46 C 0.0929(6) 0.7866(6) 1.1358(4)
C47 C 0.2137(6) 0.8706(5) 1.0995(3)
H19 H 0.2730 0.9700 1.1281
C48 C 0.2529(5) 0.8128(4) 1.0198(3)
C49 C 0.3703(4) 0.6712(3) 0.8829(3)
C50 C 0.4268(5) 0.7911(4) 0.8266(4)
C51 C 0.5815(5) 0.8515(5) 0.8251(4)
C52 C 0.6855(5) 0.7996(5) 0.8805(4)
C53 C 0.6333(5) 0.6801(5) 0.9377(5)
H20 H 0.7039 0.6423 0.9759
C54 C 0.4765(5) 0.6151(5) 0.9391(4)
H35 H 0.160(4) 0.362(3) 0.766(2)
H36 H 0.148(4) 0.603(4) 0.729(3)
H37 H 0.670(7) 0.260(6) 1.030(4)
H38 H 0.560(4) 0.202(3) 0.838(3)
H39 H -0.008(5) 0.464(5) 0.994(3)
H40 H -0.080(5) 0.572(4) 1.120(3)
H41 H 0.071(5) 0.833(5) 1.191(4)
H42 H 0.337(5) 0.865(5) 0.990(3)
H43 H 0.337(6) 0.813(6) 0.770(4)
H44 H 0.607(4) 0.932(4) 0.781(3)
H45 H 0.795(6) 0.852(5) 0.890(3)
H46 H 0.437(6) 0.535(6) 0.981(4)
H49 H -0.194(6) 0.728(6) 0.698(4)
H50 H -0.258(6) 0.438(6) 0.671(4)
H51 H -0.094(3) 0.137(6) 0.912(4)
H53 H -0.119(7) 0.648(7) 0.625(5)
H54 H -0.257(4) 0.503(4) 0.784(3)
loop_
_geom_bond_atom_site_label_1
_geom_bond_atom_site_label_2
_geom_bond_site_symmetry_1
_geom_bond_site_symmetry_2
O1 C1 1_555 1_555
O2 C2 1_555 1_555
O3 C8 1_555 1_555
O4 C14 1_555 1_555
O5 C28 1_555 1_555
O6 C29 1_555 1_555
O7 C35 1_555 1_555
O8 C41 1_555 1_555
N1 C1 1_555 1_555
N2 C28 1_555 1_555
C1 C2 1_555 1_555
C2 C8 1_555 1_555
C3 O2 1_555 1_555
C4 N1 1_555 1_555
C5 C4 1_555 1_555
H1 C5 1_555 1_555
H2 C5 1_555 1_555
C6 C5 1_555 1_555
H3 C6 1_555 1_555
H4 C6 1_555 1_555
C7 N1 1_555 1_555
C8 C9 1_555 1_555
C9 C10 1_555 1_555
C10 C11 1_555 1_555
C11 H5 1_555 1_555
C12 C11 1_555 1_555
C13 C12 1_555 1_555
H6 C13 1_555 1_555
C14 C9 1_555 1_555
C15 O4 1_555 1_555
H7 C15 1_555 1_555
H8 C15 1_555 1_555
H9 C15 1_555 1_555
C16 C3 1_555 1_555
C17 C16 1_555 1_555
C18 C17 1_555 1_555
C19 C18 1_555 1_555
C20 C19 1_555 1_555
C21 C16 1_555 1_555
C22 C3 1_555 1_555
C23 C22 1_555 1_555
C24 C23 1_555 1_555
H10 C24 1_555 1_555
C25 C24 1_555 1_555
C26 C25 1_555 1_555
C27 C22 1_555 1_555
C28 C29 1_555 1_555
C29 C35 1_555 1_555
C30 O6 1_555 1_555
C31 N2 1_555 1_555
C32 C31 1_555 1_555
H11 C32 1_555 1_555
H12 C32 1_555 1_555
C33 C32 1_555 1_555
C34 N2 1_555 1_555
C35 H13 1_555 1_555
C36 C35 1_555 1_555
C37 C36 1_555 1_555
H14 C37 1_555 1_555
C38 C37 1_555 1_555
H15 C38 1_555 1_555
C39 C38 1_555 1_555
C40 C39 1_555 1_555
C41 C36 1_555 1_555
C42 O8 1_555 1_555
H16 C42 1_555 1_555
H17 C42 1_555 1_555
H18 C42 1_555 1_555
C43 C30 1_555 1_555
C44 C43 1_555 1_555
C45 C44 1_555 1_555
C46 C45 1_555 1_555
C47 C46 1_555 1_555
H19 C47 1_555 1_555
C48 C43 1_555 1_555
C49 C30 1_555 1_555
C50 C49 1_555 1_555
C51 C50 1_555 1_555
C52 C51 1_555 1_555
C53 C52 1_555 1_555
H20 C53 1_555 1_555
C54 C49 1_555 1_555
H21 C2 1_555 1_555
H22 C4 1_555 1_555
H23 C8 1_555 1_555
H24 C10 1_555 1_555
H25 C12 1_555 1_555
H26 C17 1_555 1_555
H27 C18 1_555 1_555
H28 C19 1_555 1_555
H29 C20 1_555 1_555
H30 C21 1_555 1_555
H31 C23 1_555 1_555
H32 C25 1_555 1_555
H33 C26 1_555 1_555
H34 C27 1_555 1_555
H35 C29 1_555 1_555
H36 C31 1_555 1_555
H37 C39 1_555 1_555
H38 C40 1_555 1_555
H39 C44 1_555 1_555
H40 C45 1_555 1_555
H41 C46 1_555 1_555
H42 C48 1_555 1_555
H43 C50 1_555 1_555
H44 C51 1_555 1_555
H45 C52 1_555 1_555
H46 C54 1_555 1_555
H47 C7 1_555 1_555
H48 O3 1_555 1_555
H49 C33 1_555 1_555
H50 C34 1_555 1_555
H51 O7 1_555 1_555
H52 C7 1_555 1_555
H53 C33 1_555 1_555
H54 C34 1_555 1_555
C3 C4 1_555 1_555
C6 C7 1_555 1_555
C13 C14 1_555 1_555
C20 C21 1_555 1_555
C26 C27 1_555 1_555
C30 C31 1_555 1_555
C33 C34 1_555 1_555
C40 C41 1_555 1_555
C47 C48 1_555 1_555
C53 C54 1_555 1_555

#END
