
#######################################################################
#
#                 Cambridge Crystallographic Data Centre
#                                CCDC 
#
#######################################################################
#
# If this CIF has been generated from an entry in the Cambridge 
# Structural Database, then it will include bibliographic, chemical, 
# crystal, experimental, refinement or atomic coordinate data resulting 
# from the CCDC's data processing and validation procedures.
#
#######################################################################

data_LUSNIY
_chemical_formula_moiety         'C22 H23 N5'
_chemical_name_systematic        
3,8,9,14-Tetramethyl-8,8a-dihydro-9H-imidazo[1,2-a]imidazo[2',1':2,3]benzimidazo[2,1-c]quinoxaline
_symmetry_cell_setting           triclinic
_symmetry_space_group_name_H-M   'P -1'
_symmetry_Int_Tables_number      2
_space_group_name_Hall           '-P 1'
loop_
_symmetry_equiv_pos_site_id
_symmetry_equiv_pos_as_xyz
1 x,y,z
2 -x,-y,-z
_cell_length_a                   10.2958(16)
_cell_length_b                   11.9008(18)
_cell_length_c                   17.378(3)
_cell_angle_alpha                91.658(2)
_cell_angle_beta                 100.274(2)
_cell_angle_gamma                113.611(2)
_cell_volume                     1907.83
_exptl_crystal_colour            colorless
_exptl_crystal_description       block
_cell_formula_units_Z            4
loop_
_atom_site_label
_atom_site_type_symbol
_atom_site_fract_x
_atom_site_fract_y
_atom_site_fract_z
C1 C 0.3374(3) 0.1697(3) 0.65666(18)
H1 H 0.3548 0.1195 0.6959
H2 H 0.2440 0.1247 0.6230
H3 H 0.3397 0.2436 0.6818
C2 C -0.1995(3) 0.2573(3) 0.32216(18)
H4 H -0.2082 0.3191 0.3551
H5 H -0.2644 0.1769 0.3313
H6 H -0.2237 0.2691 0.2679
C3 C 0.9420(3) 0.6437(3) 0.40861(19)
H7 H 0.9410 0.7239 0.4073
H8 H 0.9750 0.6250 0.3636
H9 H 1.0062 0.6427 0.4558
C4 C 0.2517(3) -0.0172(2) 0.43322(15)
H10 H 0.2438 -0.0958 0.4183
C5 C 0.5940(3) 0.2542(2) 0.64796(15)
H11 H 0.6302 0.2350 0.6963
C6 C 0.5032(3) 0.0973(2) 0.41718(17)
H12 H 0.5073 0.0183 0.4122
H13 H 0.5912 0.1556 0.4504
H14 H 0.4920 0.1252 0.3661
C7 C 0.1411(3) 0.0081(2) 0.43952(16)
H15 H 0.0453 -0.0494 0.4309
C8 C -0.0458(2) 0.2682(2) 0.34131(14)
C9 C 0.6738(3) 0.3339(2) 0.60618(14)
H16 H 0.7740 0.3769 0.6193
C10 C 0.0622(2) 0.3537(2) 0.30992(14)
H17 H 0.0387 0.4056 0.2767
C11 C 0.7912(2) 0.54847(19) 0.40726(15)
C12 C 0.1309(2) 0.20366(19) 0.40909(12)
C13 C -0.0097(2) 0.1919(2) 0.39240(14)
H18 H -0.0798 0.1339 0.4148
C14 C 0.2041(2) 0.3652(2) 0.32591(13)
H19 H 0.2743 0.4228 0.3034
C15 C 0.6828(2) 0.5175(2) 0.34009(14)
H20 H 0.7034 0.5561 0.2952
C16 C 0.3484(2) 0.19271(18) 0.46474(12)
C17 C 0.2385(2) 0.28873(19) 0.37626(12)
C18 C 0.5447(2) 0.4302(2) 0.33895(13)
H21 H 0.4742 0.4097 0.2930
N1 N 0.4480(2) 0.20185(18) 0.61039(11)
C19 C 0.4336(2) 0.27068(19) 0.54385(12)
H22 H 0.3893 0.3262 0.5565
C20 C 0.5093(2) 0.37272(18) 0.40499(13)
C21 C 0.7574(2) 0.49078(19) 0.47339(14)
H23 H 0.8293 0.5109 0.5187
N2 N 0.3821(2) 0.08667(16) 0.45138(12)
N3 N 0.19043(18) 0.13829(16) 0.46173(11)
N4 N 0.58350(19) 0.34347(17) 0.53897(11)
C22 C 0.6181(2) 0.40304(18) 0.47406(12)
N5 N 0.37005(17) 0.27818(15) 0.40328(10)
C23 C 0.6119(3) 0.6417(3) 0.0909(2)
H24 H 0.6508 0.6885 0.1419
H25 H 0.6617 0.6889 0.0530
H26 H 0.6246 0.5661 0.0926
C24 C 0.0126(3) 0.8589(4) 0.2206(2)
H27 H 0.0427 0.9259 0.2612
H28 H -0.0404 0.7827 0.2400
H29 H -0.0482 0.8711 0.1759
C25 C 0.2501(4) 0.5434(3) 0.1080(2)
H30 H 0.1723 0.4919 0.1285
C26 C 0.3619(4) 0.5221(3) 0.1020(2)
H31 H 0.3748 0.4528 0.1183
C27 C 0.1890(3) 0.5961(3) -0.11514(19)
H32 H 0.1548 0.6588 -0.1279
H33 H 0.1442 0.5526 -0.0746
H34 H 0.1648 0.5393 -0.1612
C28 C 1.0181(3) 1.1848(3) 0.0475(2)
H35 H 1.0048 1.2576 0.0338
H36 H 1.0423 1.1507 0.0043
H37 H 1.0952 1.2058 0.0929
C29 C 0.2780(3) 0.9534(3) 0.21664(15)
H38 H 0.2861 1.0223 0.2472
C30 C 0.1445(3) 0.8542(3) 0.19641(17)
C31 C 0.5575(3) 0.7877(2) -0.11020(14)
H39 H 0.6358 0.8250 -0.1341
C32 C 0.2545(3) 0.7514(2) 0.12721(15)
C33 C 0.1343(3) 0.7515(3) 0.15097(16)
H40 H 0.0461 0.6830 0.1368
C34 C 0.4091(2) 0.7118(2) 0.05944(14)
C35 C 0.8502(3) 1.0912(2) 0.14041(16)
H41 H 0.9176 1.1496 0.1806
C36 C 0.8797(2) 1.0909(2) 0.06564(16)
C37 C 0.4358(3) 0.6901(2) -0.14114(16)
H42 H 0.4145 0.6516 -0.1920
C38 C 0.4013(3) 0.9546(2) 0.19300(14)
H43 H 0.4898 1.0226 0.2076
N6 N 0.4603(2) 0.61431(18) 0.06873(14)
C39 C 0.3886(2) 0.8523(2) 0.14735(13)
C40 C 0.7226(3) 1.0065(2) 0.15614(15)
H44 H 0.7059 1.0082 0.2069
N7 N 0.3439(2) 0.65262(18) -0.08772(13)
N8 N 0.2639(2) 0.65868(18) 0.07822(13)
C41 C 0.4023(2) 0.7522(2) -0.02331(14)
H45 H 0.3459 0.8022 -0.0299
N9 N 0.5468(2) 0.82422(18) -0.03536(12)
C42 C 0.7768(2) 1.0024(2) 0.00686(15)
H46 H 0.7949 1.0011 -0.0436
C43 C 0.6475(2) 0.91596(19) 0.02147(13)
C44 C 0.6185(2) 0.91867(19) 0.09771(13)
N10 N 0.4908(2) 0.82659(16) 0.11505(11)
loop_
_geom_bond_atom_site_label_1
_geom_bond_atom_site_label_2
_geom_bond_site_symmetry_1
_geom_bond_site_symmetry_2
C1 H1 1_555 1_555
H2 C1 1_555 1_555
H3 C1 1_555 1_555
C2 H4 1_555 1_555
H5 C2 1_555 1_555
H6 C2 1_555 1_555
C3 H7 1_555 1_555
H8 C3 1_555 1_555
H9 C3 1_555 1_555
C4 H10 1_555 1_555
C5 H11 1_555 1_555
C6 H12 1_555 1_555
H13 C6 1_555 1_555
H14 C6 1_555 1_555
C7 C4 1_555 1_555
H15 C7 1_555 1_555
C8 C2 1_555 1_555
C9 C5 1_555 1_555
H16 C9 1_555 1_555
C10 C8 1_555 1_555
H17 C10 1_555 1_555
C11 C3 1_555 1_555
C12 C13 1_555 1_555
C13 C8 1_555 1_555
H18 C13 1_555 1_555
C14 C10 1_555 1_555
H19 C14 1_555 1_555
C15 C11 1_555 1_555
H20 C15 1_555 1_555
C16 C19 1_555 1_555
C17 C12 1_555 1_555
C18 C15 1_555 1_555
H21 C18 1_555 1_555
N1 C1 1_555 1_555
C19 N1 1_555 1_555
H22 C19 1_555 1_555
C20 C18 1_555 1_555
C21 C11 1_555 1_555
H23 C21 1_555 1_555
N2 C4 1_555 1_555
N3 C7 1_555 1_555
N4 C9 1_555 1_555
C22 C20 1_555 1_555
N5 C16 1_555 1_555
C23 H24 1_555 1_555
H25 C23 1_555 1_555
H26 C23 1_555 1_555
C24 H27 1_555 1_555
H28 C24 1_555 1_555
H29 C24 1_555 1_555
C25 H30 1_555 1_555
C26 C25 1_555 1_555
H31 C26 1_555 1_555
C27 H32 1_555 1_555
H33 C27 1_555 1_555
H34 C27 1_555 1_555
C28 H35 1_555 1_555
H36 C28 1_555 1_555
H37 C28 1_555 1_555
C29 H38 1_555 1_555
C30 C24 1_555 1_555
C31 H39 1_555 1_555
C32 C33 1_555 1_555
C33 C30 1_555 1_555
H40 C33 1_555 1_555
C34 N6 1_555 1_555
C35 H41 1_555 1_555
C36 C28 1_555 1_555
C37 C31 1_555 1_555
H42 C37 1_555 1_555
C38 C29 1_555 1_555
H43 C38 1_555 1_555
N6 C23 1_555 1_555
C39 C32 1_555 1_555
C40 C35 1_555 1_555
H44 C40 1_555 1_555
N7 C27 1_555 1_555
N8 C25 1_555 1_555
C41 C34 1_555 1_555
H45 C41 1_555 1_555
N9 C31 1_555 1_555
C42 C36 1_555 1_555
H46 C42 1_555 1_555
C43 N9 1_555 1_555
C44 C40 1_555 1_555
N10 C34 1_555 1_555
C5 N1 1_555 1_555
C6 N2 1_555 1_555
C12 N3 1_555 1_555
C14 C17 1_555 1_555
C16 N2 1_555 1_555
C16 N3 1_555 1_555
C17 N5 1_555 1_555
C19 N4 1_555 1_555
C20 N5 1_555 1_555
C21 C22 1_555 1_555
N4 C22 1_555 1_555
C26 N6 1_555 1_555
C29 C30 1_555 1_555
C32 N8 1_555 1_555
C34 N8 1_555 1_555
C35 C36 1_555 1_555
C37 N7 1_555 1_555
C38 C39 1_555 1_555
C39 N10 1_555 1_555
N7 C41 1_555 1_555
C41 N9 1_555 1_555
C42 C43 1_555 1_555
C43 C44 1_555 1_555
C44 N10 1_555 1_555

#END
