
#######################################################################
#
#                 Cambridge Crystallographic Data Centre
#                                CCDC 
#
#######################################################################
#
# If this CIF has been generated from an entry in the Cambridge 
# Structural Database, then it will include bibliographic, chemical, 
# crystal, experimental, refinement or atomic coordinate data resulting 
# from the CCDC's data processing and validation procedures.
#
#######################################################################

data_LUSQAS
_chemical_formula_moiety         'C27 H40 Li1 N3'
_chemical_name_systematic        
(N'-(2-((2,6-Diisopropylphenyl)amino)benzylidene)-N,N-diisopropylethane-1,2-diaminato)-lithium
_symmetry_cell_setting           orthorhombic
_symmetry_space_group_name_H-M   'P 21 21 21'
_symmetry_Int_Tables_number      19
_space_group_name_Hall           'P 2ac 2ab'
loop_
_symmetry_equiv_pos_site_id
_symmetry_equiv_pos_as_xyz
1 x,y,z
2 1/2-x,-y,1/2+z
3 -x,1/2+y,1/2-z
4 1/2+x,1/2-y,-z
_cell_length_a                   11.1407(6)
_cell_length_b                   13.8524(8)
_cell_length_c                   16.6396(9)
_cell_angle_alpha                90
_cell_angle_beta                 90
_cell_angle_gamma                90
_cell_volume                     2567.91
_exptl_crystal_colour            yellow
_exptl_crystal_description       block
_cell_formula_units_Z            4
loop_
_atom_site_label
_atom_site_type_symbol
_atom_site_fract_x
_atom_site_fract_y
_atom_site_fract_z
Li1 Li 0.4900(4) 0.3179(3) 0.2184(3)
N1 N 0.37107(17) 0.30831(14) 0.13625(12)
N2 N 0.58252(18) 0.21145(16) 0.18367(13)
N3 N 0.62877(19) 0.34737(16) 0.30399(13)
C1 C 0.5620(2) 0.16054(17) 0.12150(15)
H1 H 0.6208 0.1152 0.1069
C2 C 0.6938(2) 0.2000(2) 0.22901(18)
H2 H 0.7579 0.1773 0.1934
H3 H 0.6827 0.1521 0.2717
C3 C 0.7279(3) 0.2954(3) 0.26485(19)
H4 H 0.7915 0.2848 0.3045
H5 H 0.7609 0.3364 0.2223
C4 C 0.5961(3) 0.3013(3) 0.38135(19)
H6 H 0.5995 0.2307 0.3726
C5 C 0.4634(4) 0.3265(3) 0.4003(3)
H7 H 0.4140 0.3126 0.3537
H8 H 0.4571 0.3945 0.4135
H9 H 0.4361 0.2882 0.4455
C6 C 0.6766(5) 0.3232(3) 0.4525(2)
H10 H 0.7589 0.3073 0.4390
H11 H 0.6513 0.2849 0.4983
H12 H 0.6710 0.3912 0.4657
C7 C 0.6472(3) 0.4536(2) 0.3096(2)
H13 H 0.5979 0.4769 0.3551
C8 C 0.5989(5) 0.5014(3) 0.2340(3)
H14 H 0.497(5) 0.483(3) 0.231(3)
H15 H 0.624(4) 0.566(4) 0.239(3)
H16 H 0.643(4) 0.491(4) 0.187(3)
C9 C 0.7774(3) 0.4872(3) 0.3250(2)
H17 H 0.8073 0.4573 0.3738
H18 H 0.7789 0.5569 0.3310
H19 H 0.8276 0.4686 0.2800
C10 C 0.3634(2) 0.23744(16) 0.08063(14)
C11 C 0.4571(2) 0.16627(16) 0.07181(14)
C12 C 0.4481(3) 0.09744(19) 0.00907(15)
H20 H 0.5120 0.0540 0.0014
C13 C 0.3510(3) 0.0913(2) -0.04087(16)
H21 H 0.3469 0.0437 -0.0811
C14 C 0.2583(3) 0.1574(2) -0.03050(16)
H22 H 0.1901 0.1535 -0.0636
C15 C 0.2641(2) 0.22834(18) 0.02710(15)
H23 H 0.2004 0.2725 0.0314
C16 C 0.2870(2) 0.38563(18) 0.13149(15)
C17 C 0.3126(2) 0.46533(18) 0.08173(16)
C18 C 0.2342(3) 0.5435(2) 0.08162(19)
H24 H 0.2497 0.5962 0.0476
C19 C 0.1342(3) 0.5451(2) 0.1305(2)
H25 H 0.0827 0.5989 0.1302
C20 C 0.1104(2) 0.4677(2) 0.1795(2)
H26 H 0.0427 0.4697 0.2132
C21 C 0.1842(2) 0.3860(2) 0.18078(17)
C22 C 0.4237(3) 0.4660(2) 0.02873(19)
H27 H 0.4788 0.4160 0.0497
C23 C 0.3929(4) 0.4386(3) -0.0580(2)
H28 H 0.3490 0.3781 -0.0583
H29 H 0.4664 0.4313 -0.0887
H30 H 0.3439 0.4888 -0.0819
C24 C 0.4918(3) 0.5616(2) 0.0294(2)
H31 H 0.5104 0.5794 0.0844
H32 H 0.4425 0.6115 0.0051
H33 H 0.5657 0.5548 -0.0009
C25 C 0.1518(3) 0.2982(3) 0.23068(19)
H34 H 0.2220 0.2544 0.2303
C26 C 0.0463(3) 0.2432(3) 0.1945(2)
H35 H 0.0642 0.2268 0.1391
H36 H -0.0251 0.2834 0.1963
H37 H 0.0325 0.1847 0.2251
C27 C 0.1243(4) 0.3227(4) 0.3188(2)
H38 H 0.1914 0.3578 0.3418
H39 H 0.1115 0.2635 0.3487
H40 H 0.0526 0.3623 0.3215
loop_
_geom_bond_atom_site_label_1
_geom_bond_atom_site_label_2
_geom_bond_site_symmetry_1
_geom_bond_site_symmetry_2
Li1 N1 1_555 1_555
N1 C10 1_555 1_555
N2 Li1 1_555 1_555
N3 Li1 1_555 1_555
C1 N2 1_555 1_555
H1 C1 1_555 1_555
C2 N2 1_555 1_555
H2 C2 1_555 1_555
H3 C2 1_555 1_555
C3 N3 1_555 1_555
H4 C3 1_555 1_555
H5 C3 1_555 1_555
C4 N3 1_555 1_555
H6 C4 1_555 1_555
C5 C4 1_555 1_555
H7 C5 1_555 1_555
H8 C5 1_555 1_555
H9 C5 1_555 1_555
C6 C4 1_555 1_555
H10 C6 1_555 1_555
H11 C6 1_555 1_555
H12 C6 1_555 1_555
C7 N3 1_555 1_555
H13 C7 1_555 1_555
C8 C7 1_555 1_555
H14 C8 1_555 1_555
H15 C8 1_555 1_555
H16 C8 1_555 1_555
C9 C7 1_555 1_555
H17 C9 1_555 1_555
H18 C9 1_555 1_555
H19 C9 1_555 1_555
C10 C11 1_555 1_555
C11 C1 1_555 1_555
C12 C11 1_555 1_555
H20 C12 1_555 1_555
C13 C12 1_555 1_555
H21 C13 1_555 1_555
C14 C13 1_555 1_555
H22 C14 1_555 1_555
C15 C10 1_555 1_555
H23 C15 1_555 1_555
C16 N1 1_555 1_555
C17 C16 1_555 1_555
C18 C17 1_555 1_555
H24 C18 1_555 1_555
C19 C18 1_555 1_555
H25 C19 1_555 1_555
C20 C19 1_555 1_555
H26 C20 1_555 1_555
C21 C16 1_555 1_555
C22 C17 1_555 1_555
H27 C22 1_555 1_555
C23 C22 1_555 1_555
H28 C23 1_555 1_555
H29 C23 1_555 1_555
H30 C23 1_555 1_555
C24 C22 1_555 1_555
H31 C24 1_555 1_555
H32 C24 1_555 1_555
H33 C24 1_555 1_555
C25 C21 1_555 1_555
H34 C25 1_555 1_555
C26 C25 1_555 1_555
H35 C26 1_555 1_555
H36 C26 1_555 1_555
H37 C26 1_555 1_555
C27 C25 1_555 1_555
H38 C27 1_555 1_555
H39 C27 1_555 1_555
H40 C27 1_555 1_555
C2 C3 1_555 1_555
C14 C15 1_555 1_555
C20 C21 1_555 1_555

#END
