
#######################################################################
#
#                 Cambridge Crystallographic Data Centre
#                                CCDC 
#
#######################################################################
#
# If this CIF has been generated from an entry in the Cambridge 
# Structural Database, then it will include bibliographic, chemical, 
# crystal, experimental, refinement or atomic coordinate data resulting 
# from the CCDC's data processing and validation procedures.
#
#######################################################################

data_LUTFUD
_chemical_formula_moiety         'C17 H22 N2 O2,H2 O1'
_chemical_name_systematic        
'3-((1-Acetylpyrrolidin-2-yl)methyl)-1,3-dimethyl-1,3-dihydro-2H-indol-2-one monohydrate'
_symmetry_cell_setting           triclinic
_symmetry_space_group_name_H-M   'P -1'
_symmetry_Int_Tables_number      2
_space_group_name_Hall           '-P 1'
loop_
_symmetry_equiv_pos_site_id
_symmetry_equiv_pos_as_xyz
1 x,y,z
2 -x,-y,-z
_cell_length_a                   8.9541(8)
_cell_length_b                   8.9735(8)
_cell_length_c                   12.3319(10)
_cell_angle_alpha                93.052(7)
_cell_angle_beta                 103.731(7)
_cell_angle_gamma                118.483(9)
_cell_volume                     829.808
_exptl_crystal_colour            yellow
_exptl_crystal_description       block
_cell_formula_units_Z            2
loop_
_atom_site_label
_atom_site_type_symbol
_atom_site_fract_x
_atom_site_fract_y
_atom_site_fract_z
O1 O 0.8549(2) 0.42218(18) 0.19889(13)
O2 O 1.2599(3) 1.2064(2) 0.37451(14)
N1 N 0.6541(2) 0.51393(19) 0.16943(13)
N2 N 1.2350(2) 0.9962(2) 0.47062(13)
C1 C 0.5107(3) 0.6948(3) 0.13241(16)
H1 H 0.3984 0.6089 0.1321
C2 C 0.5447(3) 0.8591(3) 0.11572(17)
H2 H 0.4526 0.8832 0.1039
C3 C 0.7102(3) 0.9861(3) 0.11618(17)
H3 H 0.7287 1.0946 0.1049
C4 C 0.8511(3) 0.9537(2) 0.13353(15)
H4 H 0.9635 1.0396 0.1340
C5 C 0.8202(2) 0.7921(2) 0.14996(14)
C6 C 0.6516(3) 0.6660(2) 0.14936(14)
C7 C 0.5021(3) 0.3536(3) 0.1743(2)
H5 H 0.4584 0.3739 0.2341
H6 H 0.5375 0.2693 0.1889
H7 H 0.4098 0.3116 0.1029
C8 C 0.8177(3) 0.5350(2) 0.18219(16)
C9 C 0.9431(2) 0.7191(2) 0.17086(15)
C10 C 1.0095(3) 0.7086(3) 0.06856(17)
H8 H 0.9095 0.6455 0.0015
H9 H 1.0767 0.6506 0.0822
H10 H 1.0839 0.8232 0.0579
C11 C 1.1054(3) 0.8182(2) 0.27733(15)
H11 H 1.1623 0.7496 0.2930
H12 H 1.1899 0.9247 0.2600
C12 C 1.0685(3) 0.8633(3) 0.38503(16)
H13 H 0.9860 0.9071 0.3662
C13 C 0.9958(4) 0.7165(4) 0.4497(2)
H14 H 0.9123 0.7240 0.4842
H15 H 0.9356 0.6051 0.3988
C14 C 1.1484(9) 0.7380(7) 0.5356(5)
H16 H 1.2032 0.6820 0.5049
H17 H 1.1137 0.6877 0.5995
C15 C 1.2770(4) 0.9310(3) 0.57313(19)
H18 H 1.2561 0.9790 0.6364
H19 H 1.3997 0.9570 0.5947
C16 C 1.3157(3) 1.1611(3) 0.45952(18)
C17 C 1.4760(4) 1.2882(4) 0.5555(2)
H20 H 1.5543 1.3824 0.5264
H21 H 1.5373 1.2320 0.5910
H22 H 1.4390 1.3316 0.6104
O3 O 1.1773(2) 0.4206(3) 0.23662(18)
H29 H 1.0797 0.4199 0.2263
H30 H 1.2055 0.3600 0.2783
H23? H 0.8721 0.6782 0.4429
H24? H 1.0026 0.6192 0.4185
H25? H 1.3246 1.0184 0.6411
H26? H 1.3628 0.8949 0.5709
C18? C 1.1045(13) 0.7825(11) 0.5704(7)
H27? H 1.0462 0.8183 0.6140
H28? H 1.1216 0.6934 0.6026
loop_
_geom_bond_atom_site_label_1
_geom_bond_atom_site_label_2
_geom_bond_site_symmetry_1
_geom_bond_site_symmetry_2
O1 C8 1_555 1_555
O2 C16 1_555 1_555
N1 C6 1_555 1_555
N2 C12 1_555 1_555
C1 H1 1_555 1_555
C2 C1 1_555 1_555
H2 C2 1_555 1_555
C3 C2 1_555 1_555
H3 C3 1_555 1_555
C4 C3 1_555 1_555
H4 C4 1_555 1_555
C5 C4 1_555 1_555
C6 C1 1_555 1_555
C7 N1 1_555 1_555
H5 C7 1_555 1_555
H6 C7 1_555 1_555
H7 C7 1_555 1_555
C8 N1 1_555 1_555
C9 C5 1_555 1_555
C10 C9 1_555 1_555
H8 C10 1_555 1_555
H9 C10 1_555 1_555
H10 C10 1_555 1_555
C11 C9 1_555 1_555
H11 C11 1_555 1_555
H12 C11 1_555 1_555
C12 C11 1_555 1_555
H13 C12 1_555 1_555
C13 C12 1_555 1_555
H14 C13 1_555 1_555
H15 C13 1_555 1_555
C14 C13 1_555 1_555
H16 C14 1_555 1_555
H17 C14 1_555 1_555
C15 N2 1_555 1_555
H18 C15 1_555 1_555
H19 C15 1_555 1_555
C16 N2 1_555 1_555
C17 C16 1_555 1_555
H20 C17 1_555 1_555
H21 C17 1_555 1_555
H22 C17 1_555 1_555
O3 H29 1_555 1_555
H30 O3 1_555 1_555
C5 C6 1_555 1_555
C8 C9 1_555 1_555
C14 C15 1_555 1_555

#END
