
#######################################################################
#
#                 Cambridge Crystallographic Data Centre
#                                CCDC 
#
#######################################################################
#
# If this CIF has been generated from an entry in the Cambridge 
# Structural Database, then it will include bibliographic, chemical, 
# crystal, experimental, refinement or atomic coordinate data resulting 
# from the CCDC's data processing and validation procedures.
#
#######################################################################

data_LUTFUB
_chemical_name_common            1-(5'-bromo-2'-pyridyl)-orthocarborane
_chemical_formula_moiety         'C7 H14 B10 Br1 N1'
_chemical_name_systematic        
1-(5'-Bromo-2'-pyridyl)-1,2-dicarba-closo-dodecaborane(11)
_symmetry_cell_setting           monoclinic
_symmetry_space_group_name_H-M   'P 21/n'
_symmetry_Int_Tables_number      14
_space_group_name_Hall           '-P 2yn'
loop_
_symmetry_equiv_pos_site_id
_symmetry_equiv_pos_as_xyz
1 x,y,z
2 1/2+x,1/2-y,1/2+z
3 -x,-y,-z
4 1/2-x,1/2+y,1/2-z
_cell_length_a                   7.1473(14)
_cell_length_b                   18.867(4)
_cell_length_c                   10.082(2)
_cell_angle_alpha                90
_cell_angle_beta                 91.38(3)
_cell_angle_gamma                90
_cell_volume                     1359.14
_exptl_crystal_colour            colorless
_exptl_crystal_description       needle
_chemical_melting_point          '410-411 K'
_cell_formula_units_Z            4
_exptl_crystal_recrystallization_method 'diethyl ether/dichloromethane'
loop_
_atom_site_label
_atom_site_type_symbol
_atom_site_fract_x
_atom_site_fract_y
_atom_site_fract_z
Br1 Br 0.75917(5) 0.04432(2) 0.65278(4)
N1 N 0.7612(4) -0.11407(16) 0.3709(3)
C1 C 0.7241(5) -0.12084(17) 0.1320(3)
C2 C 0.7733(5) -0.20548(18) 0.1439(4)
H1 H 0.806(6) -0.217(2) 0.231(4)
B1 B 0.5416(6) -0.1816(2) 0.1312(4)
H2 H 0.4375 -0.1875 0.2118
B2 B 0.5424(6) -0.1071(2) 0.0217(4)
H3 H 0.4367 -0.0635 0.0296
B3 B 0.7783(6) -0.0891(2) -0.0205(4)
H4 H 0.8267 -0.0337 -0.0402
B4 B 0.9273(6) -0.1519(2) 0.0620(4)
H5 H 1.0728 -0.1384 0.0973
B5 B 0.6302(6) -0.2558(2) 0.0436(5)
H6 H 0.5831 -0.3110 0.0660
B6 B 0.4818(6) -0.1936(2) -0.0391(5)
H7 H 0.3357 -0.2071 -0.0727
B7 B 0.6287(6) -0.1365(2) -0.1332(4)
H8 H 0.5790 -0.1126 -0.2294
B8 B 0.8670(6) -0.1638(2) -0.1084(4)
H9 H 0.9733 -0.1583 -0.1876
B9 B 0.8667(6) -0.2379(2) 0.0034(5)
H10 H 0.9737 -0.2813 0.0000
B10 B 0.6820(6) -0.2285(2) -0.1185(4)
H11 H 0.6668 -0.2655 -0.2049
C3 C 0.7424(5) -0.07722(18) 0.2577(3)
C4 C 0.7325(5) -0.00420(19) 0.2524(4)
H12 H 0.7214 0.0197 0.1696
C5 C 0.7391(5) 0.03366(19) 0.3703(4)
H13 H 0.7337 0.0840 0.3705
C6 C 0.7549(5) -0.0039(2) 0.4877(4)
C7 C 0.7674(5) -0.0776(2) 0.4849(3)
H14 H 0.7816 -0.1025 0.5663
loop_
_geom_bond_atom_site_label_1
_geom_bond_atom_site_label_2
_geom_bond_site_symmetry_1
_geom_bond_site_symmetry_2
Br1 C6 1_555 1_555
N1 C3 1_555 1_555
C1 C2 1_555 1_555
C2 H1 1_555 1_555
B1 C1 1_555 1_555
H2 B1 1_555 1_555
B2 C1 1_555 1_555
H3 B2 1_555 1_555
B3 C1 1_555 1_555
H4 B3 1_555 1_555
B4 C1 1_555 1_555
H5 B4 1_555 1_555
B5 C2 1_555 1_555
H6 B5 1_555 1_555
B6 B1 1_555 1_555
H7 B6 1_555 1_555
B7 B2 1_555 1_555
H8 B7 1_555 1_555
B8 B3 1_555 1_555
H9 B8 1_555 1_555
B9 C2 1_555 1_555
H10 B9 1_555 1_555
B10 B5 1_555 1_555
H11 B10 1_555 1_555
C3 C1 1_555 1_555
C4 C3 1_555 1_555
H12 C4 1_555 1_555
C5 C4 1_555 1_555
H13 C5 1_555 1_555
C6 C5 1_555 1_555
C7 N1 1_555 1_555
H14 C7 1_555 1_555
C2 B1 1_555 1_555
C2 B4 1_555 1_555
B1 B5 1_555 1_555
B1 B2 1_555 1_555
B2 B6 1_555 1_555
B2 B3 1_555 1_555
B3 B7 1_555 1_555
B3 B4 1_555 1_555
B4 B9 1_555 1_555
B4 B8 1_555 1_555
B5 B9 1_555 1_555
B5 B6 1_555 1_555
B6 B10 1_555 1_555
B6 B7 1_555 1_555
B7 B8 1_555 1_555
B7 B10 1_555 1_555
B8 B9 1_555 1_555
B8 B10 1_555 1_555
B9 B10 1_555 1_555
C6 C7 1_555 1_555

#END
