
#######################################################################
#
#                 Cambridge Crystallographic Data Centre
#                                CCDC 
#
#######################################################################
#
# If this CIF has been generated from an entry in the Cambridge 
# Structural Database, then it will include bibliographic, chemical, 
# crystal, experimental, refinement or atomic coordinate data resulting 
# from the CCDC's data processing and validation procedures.
#
#######################################################################

data_LUTHIS
_chemical_formula_moiety         'C20 H18 Br1 N1 O2'
_chemical_name_systematic        
1-Acetyl-3-allyl-2-(3-bromophenyl)-2,3-dihydroquinolin-4(1H)-one
_symmetry_cell_setting           monoclinic
_symmetry_space_group_name_H-M   'P 21/c'
_symmetry_Int_Tables_number      14
_space_group_name_Hall           '-P 2ybc'
loop_
_symmetry_equiv_pos_site_id
_symmetry_equiv_pos_as_xyz
1 x,y,z
2 -x,1/2+y,1/2-z
3 -x,-y,-z
4 x,1/2-y,1/2+z
_cell_length_a                   7.4204(14)
_cell_length_b                   13.393(2)
_cell_length_c                   17.560(3)
_cell_angle_alpha                90
_cell_angle_beta                 98.428(4)
_cell_angle_gamma                90
_cell_volume                     1726.29
_exptl_crystal_colour            colorless
_exptl_crystal_description       prismatic
_cell_formula_units_Z            4
loop_
_atom_site_label
_atom_site_type_symbol
_atom_site_fract_x
_atom_site_fract_y
_atom_site_fract_z
Br1 Br 1.33404(5) 1.15438(3) 0.12149(3)
O1 O 0.4658(3) 0.89135(17) 0.21876(13)
O2 O 1.1193(3) 0.72071(15) 0.11408(12)
N1 N 0.9807(3) 0.82572(14) 0.18655(11)
C1 C 0.8556(3) 0.85909(18) 0.11962(14)
H1 H 0.8815 0.8202 0.0752
C2 C 0.6627(4) 0.83265(19) 0.13367(16)
H2 H 0.5767 0.8614 0.0917
C3 C 0.6216(4) 0.8760(2) 0.20800(17)
C4 C 0.7776(4) 0.89630(19) 0.26793(15)
C5 C 0.9551(4) 0.87098(18) 0.25685(15)
C6 C 1.0997(4) 0.8987(2) 0.31144(15)
H3 H 1.2185 0.8860 0.3032
C7 C 1.0680(5) 0.9453(2) 0.37802(17)
H4 H 1.1659 0.9624 0.4151
C8 C 0.8930(5) 0.9669(2) 0.39052(17)
H5 H 0.8727 0.9970 0.4362
C9 C 0.7504(4) 0.9438(2) 0.33558(17)
H6 H 0.6327 0.9602 0.3434
C10 C 0.8871(3) 0.96868(19) 0.10263(13)
C11 C 1.0607(4) 1.00675(19) 0.11785(15)
H7 H 1.1557 0.9668 0.1410
C12 C 1.0939(4) 1.1037(2) 0.09888(16)
C13 C 0.9600(5) 1.1649(2) 0.06273(16)
H8 H 0.9854 1.2298 0.0488
C14 C 0.7881(5) 1.1268(2) 0.04797(18)
H9 H 0.6938 1.1672 0.0246
C15 C 0.7508(4) 1.0301(2) 0.06679(16)
H10 H 0.6326 1.0058 0.0553
C16 C 0.6288(4) 0.7190(2) 0.13494(17)
H11 H 0.7203 0.6886 0.1731
H12 H 0.5106 0.7069 0.1505
C17 C 0.6346(5) 0.6704(2) 0.0593(2)
H13 H 0.7466 0.6654 0.0418
C18 C 0.4944(6) 0.6351(2) 0.0171(2)
H14 H 0.3807 0.6392 0.0332
H15 H 0.5059 0.6054 -0.0298
C19 C 1.0982(4) 0.74767(19) 0.17784(17)
C20 C 1.1882(4) 0.6948(2) 0.24740(17)
H16 H 1.2032 0.6256 0.2354
H17 H 1.1142 0.7003 0.2877
H18 H 1.3053 0.7242 0.2641
loop_
_geom_bond_atom_site_label_1
_geom_bond_atom_site_label_2
_geom_bond_site_symmetry_1
_geom_bond_site_symmetry_2
Br1 C12 1_555 1_555
O1 C3 1_555 1_555
O2 C19 1_555 1_555
N1 C1 1_555 1_555
C1 H1 1_555 1_555
C2 C1 1_555 1_555
H2 C2 1_555 1_555
C3 C2 1_555 1_555
C4 C3 1_555 1_555
C5 N1 1_555 1_555
C6 C5 1_555 1_555
H3 C6 1_555 1_555
C7 C6 1_555 1_555
H4 C7 1_555 1_555
C8 C7 1_555 1_555
H5 C8 1_555 1_555
C9 C4 1_555 1_555
H6 C9 1_555 1_555
C10 C1 1_555 1_555
C11 C10 1_555 1_555
H7 C11 1_555 1_555
C12 C11 1_555 1_555
C13 C12 1_555 1_555
H8 C13 1_555 1_555
C14 C13 1_555 1_555
H9 C14 1_555 1_555
C15 C10 1_555 1_555
H10 C15 1_555 1_555
C16 C2 1_555 1_555
H11 C16 1_555 1_555
H12 C16 1_555 1_555
C17 C16 1_555 1_555
H13 C17 1_555 1_555
C18 C17 1_555 1_555
H14 C18 1_555 1_555
H15 C18 1_555 1_555
C19 N1 1_555 1_555
C20 C19 1_555 1_555
H16 C20 1_555 1_555
H17 C20 1_555 1_555
H18 C20 1_555 1_555
C4 C5 1_555 1_555
C8 C9 1_555 1_555
C14 C15 1_555 1_555

#END
