
#######################################################################
#
#                 Cambridge Crystallographic Data Centre
#                                CCDC 
#
#######################################################################
#
# If this CIF has been generated from an entry in the Cambridge 
# Structural Database, then it will include bibliographic, chemical, 
# crystal, experimental, refinement or atomic coordinate data resulting 
# from the CCDC's data processing and validation procedures.
#
#######################################################################

data_LUTHOY
_chemical_formula_moiety         'C26 H26 N2 O1'
_chemical_name_systematic        
1-(1-Benzyl-4-phenyl-1,2,3,3a,4,9b-hexahydro-5H-pyrrolo[3,2-c]quinolin-5-yl)ethanone
_symmetry_cell_setting           monoclinic
_symmetry_space_group_name_H-M   'P 21/c'
_symmetry_Int_Tables_number      14
_space_group_name_Hall           '-P 2ybc'
loop_
_symmetry_equiv_pos_site_id
_symmetry_equiv_pos_as_xyz
1 x,y,z
2 -x,1/2+y,1/2-z
3 -x,-y,-z
4 x,1/2-y,1/2+z
_cell_length_a                   9.9194(12)
_cell_length_b                   13.9201(17)
_cell_length_c                   15.3890(19)
_cell_angle_alpha                90
_cell_angle_beta                 101.192(3)
_cell_angle_gamma                90
_cell_volume                     2084.49
_exptl_crystal_colour            colorless
_exptl_crystal_description       prismatic
_cell_formula_units_Z            4
loop_
_atom_site_label
_atom_site_type_symbol
_atom_site_fract_x
_atom_site_fract_y
_atom_site_fract_z
N1 N 0.83007(16) 0.87875(12) 0.07632(10)
N2 N 0.99298(17) 0.67323(12) 0.07783(11)
O1 O 1.0510(2) 0.62291(16) 0.21880(13)
C1 C 0.9113(2) 0.94052(16) 0.14254(15)
H1 H 0.8684 0.9484 0.1936
H2 H 0.9255 1.0032 0.1183
C2 C 1.0438(2) 0.88543(19) 0.16579(16)
H3 H 1.0370 0.8353 0.2085
H4 H 1.1193 0.9278 0.1904
C3 C 1.0652(2) 0.84196(16) 0.07737(14)
H5 H 1.1340 0.8801 0.0548
C4 C 0.9237(2) 0.85602(15) 0.01549(13)
H6 H 0.9287 0.9116 -0.0228
C5 C 0.87471(19) 0.77055(15) -0.04133(13)
C6 C 0.8034(2) 0.7793(2) -0.12723(15)
H7 H 0.7856 0.8401 -0.1518
C7 C 0.7578(3) 0.6993(2) -0.17744(17)
H8 H 0.7084 0.7063 -0.2350
C8 C 0.7860(3) 0.6091(2) -0.14188(18)
H9 H 0.7546 0.5551 -0.1753
C9 C 0.8601(2) 0.59836(18) -0.05743(17)
H10 H 0.8804 0.5373 -0.0341
C10 C 0.9047(2) 0.67896(16) -0.00689(14)
C11 C 1.11329(19) 0.73751(15) 0.08721(14)
H11 H 1.1629 0.7305 0.1485
C12 C 0.9672(3) 0.6249(2) 0.14964(18)
C13 C 0.8306(3) 0.5758(2) 0.1412(2)
H12 H 0.8347 0.5138 0.1146
H13 H 0.7611 0.6140 0.1047
H14 H 0.8085 0.5684 0.1989
C14 C 1.2122(2) 0.70640(16) 0.02906(16)
C15 C 1.3176(2) 0.64435(18) 0.0645(2)
H15 H 1.3227 0.6208 0.1216
C16 C 1.4150(3) 0.6169(2) 0.0169(3)
H16 H 1.4861 0.5762 0.0424
C17 C 1.4076(3) 0.6492(3) -0.0677(3)
H17 H 1.4738 0.6309 -0.0998
C18 C 1.3016(3) 0.7089(2) -0.1054(2)
H18 H 1.2953 0.7302 -0.1634
C19 C 1.2044(2) 0.73741(18) -0.05705(17)
H19 H 1.1331 0.7778 -0.0828
C20 C 0.7024(2) 0.92318(17) 0.03103(14)
H20 H 0.6574 0.8810 -0.0159
H21 H 0.7233 0.9830 0.0042
C21 C 0.6066(2) 0.94285(16) 0.09376(14)
C22 C 0.6012(2) 1.03225(19) 0.13129(16)
H22 H 0.6557 1.0816 0.1165
C23 C 0.5155(3) 1.0495(2) 0.19092(18)
H23 H 0.5128 1.1100 0.2163
C24 C 0.4350(3) 0.9767(3) 0.21185(17)
H24 H 0.3777 0.9876 0.2520
C25 C 0.4381(2) 0.8883(2) 0.17451(18)
H25 H 0.3831 0.8391 0.1891
C26 C 0.5226(2) 0.87198(19) 0.11521(15)
H26 H 0.5229 0.8118 0.0891
loop_
_geom_bond_atom_site_label_1
_geom_bond_atom_site_label_2
_geom_bond_site_symmetry_1
_geom_bond_site_symmetry_2
N1 C1 1_555 1_555
N2 C10 1_555 1_555
O1 C12 1_555 1_555
C1 H1 1_555 1_555
H2 C1 1_555 1_555
C2 C1 1_555 1_555
H3 C2 1_555 1_555
H4 C2 1_555 1_555
C3 C2 1_555 1_555
H5 C3 1_555 1_555
C4 N1 1_555 1_555
H6 C4 1_555 1_555
C5 C4 1_555 1_555
C6 C5 1_555 1_555
H7 C6 1_555 1_555
C7 C6 1_555 1_555
H8 C7 1_555 1_555
C8 C7 1_555 1_555
H9 C8 1_555 1_555
C9 C8 1_555 1_555
H10 C9 1_555 1_555
C10 C5 1_555 1_555
C11 N2 1_555 1_555
H11 C11 1_555 1_555
C12 N2 1_555 1_555
C13 C12 1_555 1_555
H12 C13 1_555 1_555
H13 C13 1_555 1_555
H14 C13 1_555 1_555
C14 C11 1_555 1_555
C15 C14 1_555 1_555
H15 C15 1_555 1_555
C16 C15 1_555 1_555
H16 C16 1_555 1_555
C17 C16 1_555 1_555
H17 C17 1_555 1_555
C18 C17 1_555 1_555
H18 C18 1_555 1_555
C19 C14 1_555 1_555
H19 C19 1_555 1_555
C20 N1 1_555 1_555
H20 C20 1_555 1_555
H21 C20 1_555 1_555
C21 C20 1_555 1_555
C22 C21 1_555 1_555
H22 C22 1_555 1_555
C23 C22 1_555 1_555
H23 C23 1_555 1_555
C24 C23 1_555 1_555
H24 C24 1_555 1_555
C25 C24 1_555 1_555
H25 C25 1_555 1_555
C26 C21 1_555 1_555
H26 C26 1_555 1_555
C3 C4 1_555 1_555
C3 C11 1_555 1_555
C9 C10 1_555 1_555
C18 C19 1_555 1_555
C25 C26 1_555 1_555

#END
