
#######################################################################
#
#                 Cambridge Crystallographic Data Centre
#                                CCDC 
#
#######################################################################
#
# If this CIF has been generated from an entry in the Cambridge 
# Structural Database, then it will include bibliographic, chemical, 
# crystal, experimental, refinement or atomic coordinate data resulting 
# from the CCDC's data processing and validation procedures.
#
#######################################################################

data_LUTLOD
_chemical_formula_moiety         'C23 H18 N2 O3 S1'
_chemical_name_systematic        
N-(5-((4-methylphenyl)sulfonyl)quinolin-8-yl)benzamide
_symmetry_cell_setting           triclinic
_symmetry_space_group_name_H-M   'P -1'
_symmetry_Int_Tables_number      2
_space_group_name_Hall           '-P 1'
loop_
_symmetry_equiv_pos_site_id
_symmetry_equiv_pos_as_xyz
1 x,y,z
2 -x,-y,-z
_cell_length_a                   9.4496(6)
_cell_length_b                   10.2550(5)
_cell_length_c                   11.2370(6)
_cell_angle_alpha                102.651(4)
_cell_angle_beta                 93.971(5)
_cell_angle_gamma                114.471(5)
_cell_volume                     951.23
_exptl_crystal_colour            yellow
_cell_formula_units_Z            2
loop_
_atom_site_label
_atom_site_type_symbol
_atom_site_fract_x
_atom_site_fract_y
_atom_site_fract_z
S1 S 0.18669(5) -0.08880(5) 0.22719(4)
C1 C 0.4711(2) 0.1331(2) 0.22073(17)
H1 H 0.5002 0.1357 0.3023
O1 O -0.24740(17) 0.28647(17) 0.43356(13)
C2 C 0.1267(2) 0.02760(19) 0.33025(16)
C3 C 0.2800(2) 0.0229(2) 0.03021(17)
H2 H 0.1809 -0.0467 -0.0148
O2 O 0.27109(18) -0.14418(16) 0.29810(13)
O3 O 0.05079(17) -0.19417(15) 0.13436(13)
C4 C 0.3872(2) 0.1201(2) -0.02464(18)
H3 H 0.3601 0.1137 -0.1076
N1 N -0.02279(17) 0.31770(17) 0.54722(13)
H4 H 0.0424 0.3693 0.6159
C5 C 0.3461(2) 0.1103(2) 0.51472(17)
H5 H 0.3878 0.0484 0.4749
C6 C 0.5351(2) 0.2274(2) 0.04225(18)
C7 C -0.0060(2) 0.03774(19) 0.28355(15)
H6 H -0.0599 -0.0199 0.2039
N2 N 0.22459(18) 0.29744(18) 0.63907(14)
C8 C 0.1544(2) 0.20880(19) 0.52166(15)
C9 C 0.3225(2) 0.0309(2) 0.15355(17)
C10 C 0.0166(2) 0.21826(19) 0.46962(15)
C11 C 0.2108(2) 0.1128(2) 0.45332(16)
C12 C 0.5754(2) 0.2310(2) 0.16525(18)
H7 H 0.6743 0.3006 0.2106
C13 C -0.1512(2) 0.3452(2) 0.52965(17)
C14 C -0.1645(2) 0.4539(2) 0.6355(2)
C15 C 0.3502(2) 0.2915(2) 0.69087(17)
H8 H 0.3990 0.3521 0.7707
C16 C 0.6491(3) 0.3377(3) -0.0158(2)
H9 H 0.6344 0.2928 -0.1030
H10 H 0.7555 0.3663 0.0223
H11 H 0.6298 0.4241 -0.0037
C17 C -0.0624(2) 0.13178(19) 0.35178(15)
H12 H -0.1526 0.1358 0.3178
C18 C -0.0745(3) 0.5030(2) 0.7539(2)
H13 H 0.0010 0.4701 0.7699
C19 C -0.0976(4) 0.6012(2) 0.8479(3)
H14 H -0.0368 0.6347 0.9266
C20 C 0.4144(2) 0.1990(2) 0.63228(18)
H15 H 0.5028 0.1981 0.6732
C21 C -0.2785(3) 0.5035(2) 0.6127(3)
H16 H -0.3396 0.4714 0.5342
C22 C -0.2993(4) 0.6013(3) 0.7090(3)
H17 H -0.3749 0.6345 0.6942
C23 C -0.2108(4) 0.6494(3) 0.8248(3)
H18 H -0.2266 0.7146 0.8882
loop_
_geom_bond_atom_site_label_1
_geom_bond_atom_site_label_2
_geom_bond_site_symmetry_1
_geom_bond_site_symmetry_2
S1 C2 1_555 1_555
C1 H1 1_555 1_555
O1 C13 1_555 1_555
C2 C7 1_555 1_555
C3 H2 1_555 1_555
O2 S1 1_555 1_555
O3 S1 1_555 1_555
C4 C3 1_555 1_555
H3 C4 1_555 1_555
N1 H4 1_555 1_555
C5 H5 1_555 1_555
C6 C4 1_555 1_555
C7 H6 1_555 1_555
N2 C8 1_555 1_555
C8 C10 1_555 1_555
C9 S1 1_555 1_555
C10 N1 1_555 1_555
C11 C2 1_555 1_555
C12 C1 1_555 1_555
H7 C12 1_555 1_555
C13 N1 1_555 1_555
C14 C13 1_555 1_555
C15 N2 1_555 1_555
H8 C15 1_555 1_555
C16 C6 1_555 1_555
H9 C16 1_555 1_555
H10 C16 1_555 1_555
H11 C16 1_555 1_555
C17 C7 1_555 1_555
H12 C17 1_555 1_555
C18 C14 1_555 1_555
H13 C18 1_555 1_555
C19 C18 1_555 1_555
H14 C19 1_555 1_555
C20 C5 1_555 1_555
H15 C20 1_555 1_555
C21 C14 1_555 1_555
H16 C21 1_555 1_555
C22 C21 1_555 1_555
H17 C22 1_555 1_555
C23 C19 1_555 1_555
H18 C23 1_555 1_555
C1 C9 1_555 1_555
C3 C9 1_555 1_555
C5 C11 1_555 1_555
C6 C12 1_555 1_555
C8 C11 1_555 1_555
C10 C17 1_555 1_555
C15 C20 1_555 1_555
C22 C23 1_555 1_555

#END
