
#######################################################################
#
#                 Cambridge Crystallographic Data Centre
#                                CCDC 
#
#######################################################################
#
# If this CIF has been generated from an entry in the Cambridge 
# Structural Database, then it will include bibliographic, chemical, 
# crystal, experimental, refinement or atomic coordinate data resulting 
# from the CCDC's data processing and validation procedures.
#
#######################################################################

data_LUTPOF
_chemical_formula_moiety         'C20 H15 N1 O4'
_chemical_name_systematic        
'Methyl 1-methyl-4-oxo-3-phenyl-1,4-dihydro-5-oxa-1-azacyclopenta(a)naphthalene-2-carboxylate'
_symmetry_cell_setting           triclinic
_symmetry_space_group_name_H-M   'P -1'
_symmetry_Int_Tables_number      2
_space_group_name_Hall           '-P 1'
loop_
_symmetry_equiv_pos_site_id
_symmetry_equiv_pos_as_xyz
1 x,y,z
2 -x,-y,-z
_cell_length_a                   8.0227(9)
_cell_length_b                   16.1383(19)
_cell_length_c                   12.9444(14)
_cell_angle_alpha                90.040(2)
_cell_angle_beta                 107.181(2)
_cell_angle_gamma                89.968(2)
_cell_volume                     1601.16
_exptl_crystal_colour            colorless
_exptl_crystal_description       parallelepiped
_chemical_melting_point          '217-219 deg.C'
_cell_formula_units_Z            4
loop_
_atom_site_label
_atom_site_type_symbol
_atom_site_fract_x
_atom_site_fract_y
_atom_site_fract_z
O1 O 1.1797(3) 0.71373(10) 0.88114(15)
O2 O 1.3285(2) 0.64834(10) 1.02953(13)
O3 O 0.9053(3) 0.33196(12) 0.70562(18)
O4 O 0.7574(2) 0.44588(10) 0.64285(16)
N1 N 1.1060(2) 0.43069(11) 0.89096(15)
C1 C 1.2113(3) 0.64788(15) 0.9267(2)
C2 C 1.1391(3) 0.56784(13) 0.88864(18)
C3 C 1.0173(3) 0.54584(13) 0.78901(18)
C4 C 0.9978(3) 0.46073(13) 0.79277(18)
C5 C 1.1929(3) 0.49615(13) 0.94955(18)
C6 C 1.3238(3) 0.49805(14) 1.05424(18)
C7 C 1.3977(3) 0.43172(17) 1.1220(2)
H1 H 1.3624 0.3779 1.1007
C8 C 1.5217(4) 0.4450(2) 1.2197(2)
H2 H 1.5690 0.4001 1.2635
C9 C 1.5768(4) 0.5239(2) 1.2536(2)
H3 H 1.6598 0.5320 1.3202
C10 C 1.5089(4) 0.59084(19) 1.1886(2)
H4 H 1.5463 0.6443 1.2108
C11 C 1.3844(3) 0.57765(16) 1.08989(19)
C12 C 1.1186(4) 0.34423(15) 0.9270(2)
H5 H 1.2025 0.3399 0.9972
H6 H 1.1547 0.3102 0.8767
H7 H 1.0067 0.3259 0.9309
C13 C 0.9342(3) 0.60124(13) 0.69683(18)
C14 C 0.9594(3) 0.58815(15) 0.59651(19)
H8 H 1.0331 0.5459 0.5880
C15 C 0.8758(4) 0.63733(18) 0.5090(2)
H9 H 0.8941 0.6282 0.4422
C16 C 0.7657(4) 0.69964(19) 0.5204(3)
H10 H 0.7071 0.7318 0.4612
C17 C 0.7431(4) 0.71400(17) 0.6201(3)
H11 H 0.6694 0.7564 0.6282
C18 C 0.8283(3) 0.66631(15) 0.7082(2)
H12 H 0.8147 0.6779 0.7756
C19 C 0.8843(3) 0.40532(14) 0.71194(19)
C20 C 0.6406(4) 0.39914(18) 0.5563(3)
H13 H 0.5542 0.4356 0.5119
H14 H 0.5843 0.3569 0.5862
H15 H 0.7057 0.3738 0.5132
O5 O 0.3200(3) 0.21369(10) 1.11877(15)
O6 O 0.1717(2) 0.14831(10) 0.97060(13)
O7 O 0.5954(3) -0.16794(12) 1.29406(18)
O8 O 0.7427(2) -0.05396(10) 1.35699(16)
N2 N 0.3934(2) -0.06929(11) 1.10876(15)
C21 C 0.2893(3) 0.14760(15) 1.0733(2)
C22 C 0.3613(3) 0.06778(13) 1.11170(18)
C23 C 0.4828(3) 0.04578(13) 1.21111(18)
C24 C 0.5019(3) -0.03933(13) 1.20723(18)
C25 C 0.3074(3) -0.00419(13) 1.05036(18)
C26 C 0.1761(3) -0.00169(14) 0.94560(18)
C27 C 0.1015(3) -0.06844(17) 0.8779(2)
H16 H 0.1363 -0.1223 0.8996
C28 C -0.0218(4) -0.0553(2) 0.7802(2)
H17 H -0.0690 -0.1003 0.7363
C29 C -0.0764(4) 0.0239(2) 0.7466(2)
H18 H -0.1595 0.0321 0.6800
C30 C -0.0084(4) 0.09075(19) 0.8111(2)
H19 H -0.0453 0.1442 0.7886
C31 C 0.1155(3) 0.07771(16) 0.90986(19)
C32 C 0.3812(4) -0.15592(15) 1.0729(2)
H20 H 0.2976 -0.1604 1.0027
H21 H 0.3448 -0.1898 1.1233
H22 H 0.4932 -0.1743 1.0694
C33 C 0.5659(3) 0.10131(13) 1.30314(18)
C34 C 0.5409(3) 0.08785(15) 1.40362(19)
H23 H 0.4677 0.0454 1.4122
C35 C 0.6243(4) 0.13729(19) 1.4910(2)
H24 H 0.6059 0.1284 1.5577
C36 C 0.7339(4) 0.19926(19) 1.4795(3)
H25 H 0.7929 0.2312 1.5389
C37 C 0.7569(4) 0.21430(17) 1.3797(3)
H26 H 0.8297 0.2570 1.3716
C38 C 0.6721(3) 0.16608(14) 1.2920(2)
H27 H 0.6865 0.1772 1.2247
C39 C 0.6158(3) -0.09458(14) 1.28794(19)
C40 C 0.8583(4) -0.10054(18) 1.4436(3)
H28 H 0.9451 -0.0642 1.4879
H29 H 0.9142 -0.1432 1.4140
H30 H 0.7928 -0.1254 1.4867
loop_
_geom_bond_atom_site_label_1
_geom_bond_atom_site_label_2
_geom_bond_site_symmetry_1
_geom_bond_site_symmetry_2
O1 C1 1_555 1_555
O2 C1 1_555 1_555
O3 C19 1_555 1_555
O4 C19 1_555 1_555
O5 C21 1_555 1_555
O6 C21 1_555 1_555
O7 C39 1_555 1_555
O8 C39 1_555 1_555
N1 C4 1_555 1_555
N2 C24 1_555 1_555
C1 C2 1_555 1_555
C2 C3 1_555 1_555
C3 C4 1_555 1_555
C4 C19 1_555 1_555
C5 N1 1_555 1_555
C6 C5 1_555 1_555
C7 C6 1_555 1_555
H1 C7 1_555 1_555
C8 C7 1_555 1_555
H2 C8 1_555 1_555
C9 C8 1_555 1_555
H3 C9 1_555 1_555
C10 C9 1_555 1_555
H4 C10 1_555 1_555
C11 O2 1_555 1_555
C12 N1 1_555 1_555
H5 C12 1_555 1_555
H6 C12 1_555 1_555
H7 C12 1_555 1_555
C13 C3 1_555 1_555
C14 C13 1_555 1_555
H8 C14 1_555 1_555
C15 C14 1_555 1_555
H9 C15 1_555 1_555
C16 C15 1_555 1_555
H10 C16 1_555 1_555
C17 C16 1_555 1_555
H11 C17 1_555 1_555
C18 C13 1_555 1_555
H12 C18 1_555 1_555
C20 O4 1_555 1_555
H13 C20 1_555 1_555
H14 C20 1_555 1_555
H15 C20 1_555 1_555
C21 C22 1_555 1_555
C22 C23 1_555 1_555
C23 C24 1_555 1_555
C24 C39 1_555 1_555
C25 N2 1_555 1_555
C26 C25 1_555 1_555
C27 C26 1_555 1_555
H16 C27 1_555 1_555
C28 C27 1_555 1_555
H17 C28 1_555 1_555
C29 C28 1_555 1_555
H18 C29 1_555 1_555
C30 C29 1_555 1_555
H19 C30 1_555 1_555
C31 O6 1_555 1_555
C32 N2 1_555 1_555
H20 C32 1_555 1_555
H21 C32 1_555 1_555
H22 C32 1_555 1_555
C33 C23 1_555 1_555
C34 C33 1_555 1_555
H23 C34 1_555 1_555
C35 C34 1_555 1_555
H24 C35 1_555 1_555
C36 C35 1_555 1_555
H25 C36 1_555 1_555
C37 C36 1_555 1_555
H26 C37 1_555 1_555
C38 C33 1_555 1_555
H27 C38 1_555 1_555
C40 O8 1_555 1_555
H28 C40 1_555 1_555
H29 C40 1_555 1_555
H30 C40 1_555 1_555
C2 C5 1_555 1_555
C6 C11 1_555 1_555
C10 C11 1_555 1_555
C17 C18 1_555 1_555
C22 C25 1_555 1_555
C26 C31 1_555 1_555
C30 C31 1_555 1_555
C37 C38 1_555 1_555

#END
