
#######################################################################
#
#                 Cambridge Crystallographic Data Centre
#                                CCDC 
#
#######################################################################
#
# If this CIF has been generated from an entry in the Cambridge 
# Structural Database, then it will include bibliographic, chemical, 
# crystal, experimental, refinement or atomic coordinate data resulting 
# from the CCDC's data processing and validation procedures.
#
#######################################################################

data_LUTWII
_chemical_formula_moiety         'C22 H14 Cl1 N3 O2'
_chemical_name_systematic        
5-(5-Chloro-2-hydroxybenzoyl)-2-(2-methyl-1H-indol-3-yl)nicotinonitrile
_symmetry_cell_setting           monoclinic
_symmetry_space_group_name_H-M   'P 21/n'
_symmetry_Int_Tables_number      14
_space_group_name_Hall           '-P 2yn'
loop_
_symmetry_equiv_pos_site_id
_symmetry_equiv_pos_as_xyz
1 x,y,z
2 1/2-x,1/2+y,1/2-z
3 -x,-y,-z
4 1/2+x,1/2-y,1/2+z
_cell_length_a                   16.0673(15)
_cell_length_b                   7.4804(7)
_cell_length_c                   17.0159(15)
_cell_angle_alpha                90
_cell_angle_beta                 113.452(3)
_cell_angle_gamma                90
_cell_volume                     1876.2
_exptl_crystal_colour            colorless
_exptl_crystal_description       block
_cell_formula_units_Z            4
loop_
_atom_site_label
_atom_site_type_symbol
_atom_site_fract_x
_atom_site_fract_y
_atom_site_fract_z
C1 C 0.6829(2) 1.0448(4) 0.2799(2)
C2 C 0.7315(2) 1.0614(5) 0.2278(2)
H1 H 0.7877 1.1176 0.2487
C3 C 0.6961(2) 0.9945(5) 0.1459(2)
H2 H 0.7285 1.0055 0.1115
C4 C 0.6122(2) 0.9108(5) 0.11432(19)
C5 C 0.56120(19) 0.9038(4) 0.16240(17)
H3 H 0.5036 0.8532 0.1393
C6 C 0.59480(17) 0.9718(4) 0.24590(17)
C7 C 0.54170(18) 0.9672(4) 0.29877(17)
C8 C 0.44084(17) 0.9513(4) 0.26081(16)
C9 C 0.39945(18) 0.8749(4) 0.31059(17)
H4 H 0.4370 0.8306 0.3641
C10 C 0.25482(17) 0.9246(3) 0.21050(15)
C11 C 0.29038(17) 1.0110(4) 0.15727(15)
C12 C 0.38420(17) 1.0235(4) 0.18271(16)
H5 H 0.4084 1.0794 0.1477
C13 C 0.23147(18) 1.0979(4) 0.07944(17)
C14 C 0.15806(17) 0.9068(4) 0.19015(16)
C15 C 0.09024(19) 0.8498(4) 0.11465(17)
C16 C 0.02316(18) 0.9066(4) 0.20583(19)
C17 C -0.0377(2) 0.9216(5) 0.2447(3)
H6 H -0.0992 0.8991 0.2146
C18 C -0.0039(2) 0.9706(5) 0.3289(3)
H7 H -0.0430 0.9798 0.3569
C19 C 0.0883(2) 1.0074(4) 0.3739(2)
H8 H 0.1091 1.0423 0.4310
C20 C 0.1487(2) 0.9931(4) 0.33560(18)
H9 H 0.2100 1.0177 0.3662
C21 C 0.11658(17) 0.9409(3) 0.25004(17)
C22 C 0.0944(2) 0.7734(5) 0.03518(18)
H10 H 0.0340 0.7473 -0.0054
H11 H 0.1296 0.6654 0.0490
H12 H 0.1221 0.8583 0.0108
N1 N 0.31060(14) 0.8602(3) 0.28774(13)
N2 N 0.18555(17) 1.1658(4) 0.01731(16)
N3 N 0.00999(15) 0.8531(3) 0.12427(16)
H13 H -0.0417 0.8255 0.0849
O1 O 0.72328(15) 1.1053(4) 0.36103(15)
H14 H 0.6973 1.0640 0.3898
O2 O 0.58003(13) 0.9826(3) 0.37762(12)
Cl1 Cl 0.57239(7) 0.81118(15) 0.01424(5)
loop_
_geom_bond_atom_site_label_1
_geom_bond_atom_site_label_2
_geom_bond_site_symmetry_1
_geom_bond_site_symmetry_2
C1 C2 1_555 1_555
C2 H1 1_555 1_555
C3 C2 1_555 1_555
H2 C3 1_555 1_555
C4 C3 1_555 1_555
C5 C4 1_555 1_555
H3 C5 1_555 1_555
C6 C1 1_555 1_555
C7 C6 1_555 1_555
C8 C7 1_555 1_555
C9 C8 1_555 1_555
H4 C9 1_555 1_555
C10 C11 1_555 1_555
C11 C12 1_555 1_555
C12 C8 1_555 1_555
H5 C12 1_555 1_555
C13 C11 1_555 1_555
C14 C10 1_555 1_555
C15 C14 1_555 1_555
C16 C17 1_555 1_555
C17 H6 1_555 1_555
C18 C17 1_555 1_555
H7 C18 1_555 1_555
C19 C18 1_555 1_555
H8 C19 1_555 1_555
C20 C19 1_555 1_555
H9 C20 1_555 1_555
C21 C14 1_555 1_555
C22 C15 1_555 1_555
H10 C22 1_555 1_555
H11 C22 1_555 1_555
H12 C22 1_555 1_555
N1 C9 1_555 1_555
N2 C13 1_555 1_555
N3 C15 1_555 1_555
H13 N3 1_555 1_555
O1 C1 1_555 1_555
H14 O1 1_555 1_555
O2 C7 1_555 1_555
Cl1 C4 1_555 1_555
C5 C6 1_555 1_555
C10 N1 1_555 1_555
C16 C21 1_555 1_555
C16 N3 1_555 1_555
C20 C21 1_555 1_555

#END
