
#######################################################################
#
#                 Cambridge Crystallographic Data Centre
#                                CCDC 
#
#######################################################################
#
# If this CIF has been generated from an entry in the Cambridge 
# Structural Database, then it will include bibliographic, chemical, 
# crystal, experimental, refinement or atomic coordinate data resulting 
# from the CCDC's data processing and validation procedures.
#
#######################################################################

data_LUTWIG
_chemical_formula_moiety         'C38 H50 N2 P2 Si2'
_chemical_name_systematic        
1,6-bis(t-Butyl(dimethyl)silyl)-2,3,4,5-tetraphenyl-1,6-diaza-3,4-diphosphahexa-1,5-diene
_symmetry_cell_setting           triclinic
_symmetry_space_group_name_H-M   'P -1'
_symmetry_Int_Tables_number      2
_space_group_name_Hall           '-P 1'
loop_
_symmetry_equiv_pos_site_id
_symmetry_equiv_pos_as_xyz
1 x,y,z
2 -x,-y,-z
_cell_length_a                   9.333(16)
_cell_length_b                   10.96(2)
_cell_length_c                   11.13(2)
_cell_angle_alpha                66.96(2)
_cell_angle_beta                 75.92(3)
_cell_angle_gamma                69.54(3)
_cell_volume                     974.066
_exptl_crystal_colour            yellow
_chemical_melting_point          '114-117 deg.C'
_cell_formula_units_Z            1
loop_
_atom_site_label
_atom_site_type_symbol
_atom_site_fract_x
_atom_site_fract_y
_atom_site_fract_z
N1 N 0.8788(8) 0.8153(5) 0.1979(4)
P1 P 1.1032(3) 0.91123(15) 0.00241(14)
Si1 Si 0.7563(4) 0.7449(2) 0.32993(15)
C1 C 1.0109(10) 0.7790(5) 0.1321(5)
C2 C 1.0959(11) 0.8729(6) -0.1440(5)
C3 C 0.9693(12) 0.9268(6) -0.2077(7)
H1 H 0.8801 0.9840 -0.1773
C4 C 0.9736(11) 0.8959(7) -0.3203(7)
H2 H 0.8870 0.9322 -0.3642
C5 C 1.1037(19) 0.8136(10) -0.3643(9)
H3 H 1.1080 0.7950 -0.4400
C6 C 1.2273(19) 0.7585(12) -0.2985(9)
H4 H 1.3154 0.6983 -0.3264
C7 C 1.2237(16) 0.7910(9) -0.1897(7)
H5 H 1.3113 0.7554 -0.1473
C8 C 1.1157(15) 0.6354(8) 0.1428(6)
C9 C 1.2628(19) 0.5956(11) 0.1640(10)
H6 H 1.3022 0.6566 0.1758
C10 C 1.3578(14) 0.4644(11) 0.1686(8)
H7 H 1.4616 0.4397 0.1776
C11 C 1.2967(19) 0.3728(11) 0.1598(10)
H8 H 1.3579 0.2827 0.1701
C12 C 1.1466(19) 0.4098(9) 0.1362(8)
H9 H 1.1085 0.3469 0.1262
C13 C 1.0540(12) 0.5404(7) 0.1275(6)
H10 H 0.9522 0.5671 0.1120
C14 C 0.7596(13) 0.8219(9) 0.4535(6)
H11 H 0.8585 0.7821 0.4850
H12 H 0.6809 0.8027 0.5260
H13 H 0.7411 0.9202 0.4124
C15 C 0.8155(17) 0.5521(8) 0.4085(7)
H14 H 0.9094 0.5232 0.4459
H15 H 0.8315 0.5101 0.3433
H16 H 0.7360 0.5243 0.4766
C16 C 0.5847(15) 0.8049(9) 0.2594(6)
C17 C 0.6085(12) 0.7672(11) 0.1403(8)
H17 H 0.6495 0.6687 0.1625
H18 H 0.6796 0.8113 0.0744
H19 H 0.5118 0.7971 0.1069
C18 C 0.5230(17) 0.9642(11) 0.2210(11)
H20 H 0.5068 0.9898 0.2976
H21 H 0.4273 0.9960 0.1855
H22 H 0.5968 1.0057 0.1562
C19 C 0.4507(13) 0.7432(11) 0.3655(8)
H23 H 0.4337 0.7694 0.4418
H24 H 0.4826 0.6442 0.3908
H25 H 0.3569 0.7798 0.3262
P1A P 0.8968(3) 1.08877(15) -0.00241(14)
C1A C 0.9891(10) 1.2210(5) -0.1321(5)
N1A N 1.1212(8) 1.1847(5) -0.1979(4)
Si1A Si 1.2437(4) 1.2551(2) -0.32993(15)
C14A C 1.2404(13) 1.1781(9) -0.4535(6)
H11A H 1.1415 1.2179 -0.4850
H12A H 1.3191 1.1973 -0.5260
H13A H 1.2589 1.0798 -0.4124
C15A C 1.1845(17) 1.4479(8) -0.4085(7)
H14A H 1.0906 1.4768 -0.4459
H15A H 1.1685 1.4899 -0.3433
H16A H 1.2640 1.4757 -0.4766
C16A C 1.4153(15) 1.1951(9) -0.2594(6)
C17A C 1.3915(12) 1.2328(11) -0.1403(8)
H17A H 1.3505 1.3313 -0.1625
H18A H 1.3204 1.1887 -0.0744
H19A H 1.4882 1.2029 -0.1069
C18A C 1.4770(17) 1.0358(11) -0.2210(11)
H20A H 1.4932 1.0102 -0.2976
H21A H 1.5727 1.0040 -0.1855
H22A H 1.4032 0.9943 -0.1562
C19A C 1.5493(13) 1.2568(11) -0.3655(8)
H23A H 1.5663 1.2306 -0.4418
H24A H 1.5174 1.3558 -0.3908
H25A H 1.6431 1.2202 -0.3262
C8A C 0.8843(15) 1.3646(8) -0.1428(6)
C9A C 0.7372(19) 1.4044(11) -0.1640(10)
H6A H 0.6978 1.3434 -0.1758
C10A C 0.6422(14) 1.5356(11) -0.1686(8)
H7A H 0.5384 1.5603 -0.1776
C11A C 0.7033(19) 1.6272(11) -0.1598(10)
H8A H 0.6421 1.7173 -0.1701
C12A C 0.8534(19) 1.5902(9) -0.1362(8)
H9A H 0.8915 1.6531 -0.1262
C13A C 0.9460(12) 1.4596(7) -0.1275(6)
H10A H 1.0478 1.4329 -0.1120
C2A C 0.9041(11) 1.1271(6) 0.1440(5)
C3A C 1.0307(12) 1.0732(6) 0.2077(7)
H1A H 1.1199 1.0160 0.1773
C4A C 1.0264(11) 1.1041(7) 0.3203(7)
H2A H 1.1130 1.0678 0.3642
C5A C 0.8963(19) 1.1864(10) 0.3643(9)
H3A H 0.8920 1.2050 0.4400
C6A C 0.7727(19) 1.2415(12) 0.2985(9)
H4A H 0.6846 1.3017 0.3264
C7A C 0.7763(16) 1.2090(9) 0.1897(7)
H5A H 0.6887 1.2446 0.1473
loop_
_geom_bond_atom_site_label_1
_geom_bond_atom_site_label_2
_geom_bond_site_symmetry_1
_geom_bond_site_symmetry_2
N1 Si1 1_555 1_555
P1 C1 1_555 1_555
Si1 C14 1_555 1_555
C1 N1 1_555 1_555
C2 P1 1_555 1_555
C3 C2 1_555 1_555
H1 C3 1_555 1_555
C4 C3 1_555 1_555
H2 C4 1_555 1_555
C5 C4 1_555 1_555
H3 C5 1_555 1_555
C6 C5 1_555 1_555
H4 C6 1_555 1_555
C7 C2 1_555 1_555
H5 C7 1_555 1_555
C8 C1 1_555 1_555
C9 C8 1_555 1_555
H6 C9 1_555 1_555
C10 C9 1_555 1_555
H7 C10 1_555 1_555
C11 C10 1_555 1_555
H8 C11 1_555 1_555
C12 C11 1_555 1_555
H9 C12 1_555 1_555
C13 C8 1_555 1_555
H10 C13 1_555 1_555
C14 H11 1_555 1_555
H12 C14 1_555 1_555
H13 C14 1_555 1_555
C15 Si1 1_555 1_555
H14 C15 1_555 1_555
H15 C15 1_555 1_555
H16 C15 1_555 1_555
C16 Si1 1_555 1_555
C17 C16 1_555 1_555
H17 C17 1_555 1_555
H18 C17 1_555 1_555
H19 C17 1_555 1_555
C18 C16 1_555 1_555
H20 C18 1_555 1_555
H21 C18 1_555 1_555
H22 C18 1_555 1_555
C19 C16 1_555 1_555
H23 C19 1_555 1_555
H24 C19 1_555 1_555
H25 C19 1_555 1_555
P1A P1 1_555 1_555
C1A P1A 1_555 1_555
N1A C1A 1_555 1_555
Si1A N1A 1_555 1_555
C14A Si1A 1_555 1_555
H11A C14A 1_555 1_555
H12A C14A 1_555 1_555
H13A C14A 1_555 1_555
C15A Si1A 1_555 1_555
H14A C15A 1_555 1_555
H15A C15A 1_555 1_555
H16A C15A 1_555 1_555
C16A Si1A 1_555 1_555
C17A C16A 1_555 1_555
H17A C17A 1_555 1_555
H18A C17A 1_555 1_555
H19A C17A 1_555 1_555
C18A C16A 1_555 1_555
H20A C18A 1_555 1_555
H21A C18A 1_555 1_555
H22A C18A 1_555 1_555
C19A C16A 1_555 1_555
H23A C19A 1_555 1_555
H24A C19A 1_555 1_555
H25A C19A 1_555 1_555
C8A C1A 1_555 1_555
C9A C8A 1_555 1_555
H6A C9A 1_555 1_555
C10A C9A 1_555 1_555
H7A C10A 1_555 1_555
C11A C10A 1_555 1_555
H8A C11A 1_555 1_555
C12A C11A 1_555 1_555
H9A C12A 1_555 1_555
C13A C8A 1_555 1_555
H10A C13A 1_555 1_555
C2A P1A 1_555 1_555
C3A C2A 1_555 1_555
H1A C3A 1_555 1_555
C4A C3A 1_555 1_555
H2A C4A 1_555 1_555
C5A C4A 1_555 1_555
H3A C5A 1_555 1_555
C6A C5A 1_555 1_555
H4A C6A 1_555 1_555
C7A C2A 1_555 1_555
H5A C7A 1_555 1_555
C6 C7 1_555 1_555
C12 C13 1_555 1_555
C12A C13A 1_555 1_555
C6A C7A 1_555 1_555

#END
