
#######################################################################
#
#                 Cambridge Crystallographic Data Centre
#                                CCDC 
#
#######################################################################
#
# If this CIF has been generated from an entry in the Cambridge 
# Structural Database, then it will include bibliographic, chemical, 
# crystal, experimental, refinement or atomic coordinate data resulting 
# from the CCDC's data processing and validation procedures.
#
#######################################################################

data_LUTXAB
_chemical_formula_moiety         'C14 H13 N3 O4'
_chemical_name_systematic        
1-Methyl-2-(methylamino)-3-nitro-1,10a-dihydro-5H-chromeno[2,3-b]pyridin-5-one
_symmetry_cell_setting           orthorhombic
_symmetry_space_group_name_H-M   'F d d 2'
_symmetry_Int_Tables_number      43
_space_group_name_Hall           'F 2 -2d'
loop_
_symmetry_equiv_pos_site_id
_symmetry_equiv_pos_as_xyz
1 x,y,z
2 -x,-y,z
3 1/4-x,1/4+y,1/4+z
4 1/4+x,1/4-y,1/4+z
5 x,1/2+y,1/2+z
6 -x,1/2-y,1/2+z
7 1/4-x,3/4+y,3/4+z
8 1/4+x,3/4-y,3/4+z
9 1/2+x,y,1/2+z
10 1/2-x,-y,1/2+z
11 3/4-x,1/4+y,3/4+z
12 3/4+x,1/4-y,3/4+z
13 1/2+x,1/2+y,z
14 1/2-x,1/2-y,z
15 3/4-x,3/4+y,1/4+z
16 3/4+x,3/4-y,1/4+z
_cell_length_a                   24.0182(13)
_cell_length_b                   26.8445(14)
_cell_length_c                   7.9140(4)
_cell_angle_alpha                90
_cell_angle_beta                 90
_cell_angle_gamma                90
_cell_volume                     5102.6
_exptl_crystal_colour            colorless
_exptl_crystal_description       block
_cell_formula_units_Z            16
loop_
_atom_site_label
_atom_site_type_symbol
_atom_site_fract_x
_atom_site_fract_y
_atom_site_fract_z
C1 C 0.03152(7) 0.07119(6) 0.5103(2)
C2 C 0.07422(7) 0.05817(6) 0.6093(2)
H1 H 0.0673 0.0483 0.7200
C3 C 0.12950(7) 0.05908(6) 0.5492(2)
C4 C 0.14101(7) 0.07284(6) 0.3758(2)
C5 C 0.21801(8) 0.07230(9) 0.1521(3)
H2 H 0.1937 0.0565 0.0723
H3 H 0.2531 0.0551 0.1543
H4 H 0.2239 0.1063 0.1193
C6 C 0.10471(8) 0.10996(8) 0.1107(2)
H5 H 0.1378 0.1300 0.1095
H6 H 0.0731 0.1305 0.0853
H7 H 0.1078 0.0841 0.0275
C7 C 0.04068(6) 0.08867(6) 0.33547(19)
H8 H 0.0273 0.1231 0.3273
C8 C -0.04681(7) 0.05675(6) 0.2547(2)
C9 C -0.08276(7) 0.04527(7) 0.1229(2)
H9 H -0.0692 0.0389 0.0149
C10 C -0.13915(8) 0.04360(7) 0.1563(3)
H10 H -0.1637 0.0361 0.0691
C11 C -0.16010(8) 0.05281(7) 0.3162(3)
H11 H -0.1983 0.0528 0.3352
C12 C -0.12390(8) 0.06192(7) 0.4459(3)
H12 H -0.1377 0.0669 0.5543
C13 C -0.06647(7) 0.06394(6) 0.4184(2)
C14 C -0.02720(8) 0.06748(6) 0.5610(2)
O1 O 0.22180(6) 0.04252(6) 0.6136(2)
O2 O 0.15774(6) 0.02632(7) 0.79971(18)
O3 O -0.04181(6) 0.06418(6) 0.70928(16)
O4 O 0.00911(5) 0.05848(4) 0.21703(15)
N1 N 0.17083(7) 0.04246(6) 0.6569(2)
N2 N 0.19283(6) 0.07078(5) 0.3198(2)
H13 H 0.2169 0.0679 0.3996
N3 N 0.09766(5) 0.08753(5) 0.27888(17)
loop_
_geom_bond_atom_site_label_1
_geom_bond_atom_site_label_2
_geom_bond_site_symmetry_1
_geom_bond_site_symmetry_2
C1 C2 1_555 1_555
C2 H1 1_555 1_555
C3 C2 1_555 1_555
C4 C3 1_555 1_555
C5 H2 1_555 1_555
H3 C5 1_555 1_555
H4 C5 1_555 1_555
C6 H5 1_555 1_555
H6 C6 1_555 1_555
H7 C6 1_555 1_555
C7 C1 1_555 1_555
H8 C7 1_555 1_555
C8 C9 1_555 1_555
C9 H9 1_555 1_555
C10 C9 1_555 1_555
H10 C10 1_555 1_555
C11 C10 1_555 1_555
H11 C11 1_555 1_555
C12 C11 1_555 1_555
H12 C12 1_555 1_555
C13 C8 1_555 1_555
C14 C1 1_555 1_555
O1 N1 1_555 1_555
O2 N1 1_555 1_555
O3 C14 1_555 1_555
O4 C7 1_555 1_555
N1 C3 1_555 1_555
N2 C4 1_555 1_555
H13 N2 1_555 1_555
N3 C4 1_555 1_555
C5 N2 1_555 1_555
C6 N3 1_555 1_555
C7 N3 1_555 1_555
C8 O4 1_555 1_555
C12 C13 1_555 1_555
C13 C14 1_555 1_555

#END
