
#######################################################################
#
#                 Cambridge Crystallographic Data Centre
#                                CCDC 
#
#######################################################################
#
# If this CIF has been generated from an entry in the Cambridge 
# Structural Database, then it will include bibliographic, chemical, 
# crystal, experimental, refinement or atomic coordinate data resulting 
# from the CCDC's data processing and validation procedures.
#
#######################################################################

data_LUVKOE
_chemical_formula_moiety         'C29 H26 N2 O2 S1'
_chemical_name_systematic        
N-methyl-2-((4-methylphenyl)sulfonyl)-N,1-diphenyl-1,2-dihydroisoquinolin-3-amine
_symmetry_cell_setting           monoclinic
_symmetry_space_group_name_H-M   'P 21/c'
_symmetry_Int_Tables_number      14
_space_group_name_Hall           '-P 2ybc'
loop_
_symmetry_equiv_pos_site_id
_symmetry_equiv_pos_as_xyz
1 x,y,z
2 -x,1/2+y,1/2-z
3 -x,-y,-z
4 x,1/2-y,1/2+z
_cell_length_a                   13.134(2)
_cell_length_b                   15.776(3)
_cell_length_c                   12.1965(19)
_cell_angle_alpha                90
_cell_angle_beta                 106.946(4)
_cell_angle_gamma                90
_cell_volume                     2417.41
_exptl_crystal_colour            yellow
_exptl_crystal_description       prismatic
_cell_formula_units_Z            4
loop_
_atom_site_label
_atom_site_type_symbol
_atom_site_fract_x
_atom_site_fract_y
_atom_site_fract_z
S1 S 0.27885(5) 1.01119(4) 0.46219(6)
N1 N 0.24516(16) 0.94047(13) 0.35499(18)
N2 N 0.05587(17) 0.93288(14) 0.3164(2)
O1 O 0.19081(17) 1.01802(13) 0.50693(17)
O2 O 0.37929(16) 0.98459(12) 0.53524(16)
C1 C 0.1412(2) 0.95140(16) 0.2741(2)
C2 C 0.1337(2) 0.98120(19) 0.1704(3)
H1 H 0.0665 0.9866 0.1181
C3 C 0.2251(3) 1.00559(19) 0.1354(3)
C4 C 0.2181(3) 1.0566(2) 0.0399(3)
H2 H 0.1519 1.0764 -0.0035
C5 C 0.3066(4) 1.0777(3) 0.0093(4)
H3 H 0.3006 1.1119 -0.0544
C6 C 0.4041(4) 1.0487(3) 0.0719(4)
H4 H 0.4641 1.0626 0.0498
C7 C 0.4146(3) 0.9989(2) 0.1681(3)
H5 H 0.4815 0.9808 0.2118
C8 C 0.3248(2) 0.97595(19) 0.1991(3)
C9 C 0.3319(2) 0.92022(18) 0.3010(2)
H6 H 0.4000 0.9326 0.3581
C10 C 0.3291(2) 0.82561(19) 0.2776(3)
C11 C 0.2924(2) 0.7920(2) 0.1681(3)
H7 H 0.2726 0.8279 0.1049
C12 C 0.2852(3) 0.7051(2) 0.1529(3)
H8 H 0.2601 0.6829 0.0792
C13 C 0.3146(3) 0.6514(2) 0.2444(4)
H9 H 0.3090 0.5930 0.2331
C14 C 0.3522(3) 0.6837(2) 0.3531(4)
H10 H 0.3725 0.6474 0.4158
C15 C 0.3599(2) 0.7707(2) 0.3693(3)
H11 H 0.3862 0.7924 0.4431
C16 C 0.05007(19) 0.85401(16) 0.3670(2)
C17 C 0.0922(2) 0.78224(18) 0.3320(3)
H12 H 0.1253 0.7862 0.2744
C18 C 0.0854(3) 0.7051(2) 0.3816(3)
H13 H 0.1153 0.6574 0.3584
C19 C 0.0357(3) 0.6978(2) 0.4639(4)
H14 H 0.0313 0.6454 0.4972
C20 C -0.0079(3) 0.7679(3) 0.4977(3)
H15 H -0.0433 0.7626 0.5532
C21 C -0.0006(2) 0.8454(2) 0.4519(3)
H16 H -0.0295 0.8927 0.4773
C22 C -0.0372(2) 0.9857(2) 0.2845(3)
H17 H -0.0190 1.0401 0.2603
H18 H -0.0641 0.9928 0.3492
H19 H -0.0907 0.9596 0.2229
C23 C 0.2958(2) 1.10781(16) 0.3975(2)
C24 C 0.3950(2) 1.13025(19) 0.3903(3)
H20 H 0.4545 1.0980 0.4267
C25 C 0.4047(2) 1.2008(2) 0.3287(3)
H21 H 0.4716 1.2163 0.3241
C26 C 0.3173(3) 1.2497(2) 0.2732(3)
C27 C 0.2191(3) 1.22651(19) 0.2844(3)
H22 H 0.1597 1.2594 0.2496
C28 C 0.2075(2) 1.15631(17) 0.3456(3)
H23 H 0.1410 1.1415 0.3521
C29 C 0.3286(4) 1.3248(3) 0.2012(4)
H24 H 0.3907 1.3177 0.1758
H25 H 0.3355 1.3756 0.2461
H26 H 0.2667 1.3289 0.1359
loop_
_geom_bond_atom_site_label_1
_geom_bond_atom_site_label_2
_geom_bond_site_symmetry_1
_geom_bond_site_symmetry_2
S1 N1 1_555 1_555
N1 C1 1_555 1_555
N2 C1 1_555 1_555
O1 S1 1_555 1_555
O2 S1 1_555 1_555
C1 C2 1_555 1_555
C2 H1 1_555 1_555
C3 C2 1_555 1_555
C4 C3 1_555 1_555
H2 C4 1_555 1_555
C5 C4 1_555 1_555
H3 C5 1_555 1_555
C6 C5 1_555 1_555
H4 C6 1_555 1_555
C7 C6 1_555 1_555
H5 C7 1_555 1_555
C8 C3 1_555 1_555
C9 N1 1_555 1_555
H6 C9 1_555 1_555
C10 C9 1_555 1_555
C11 C10 1_555 1_555
H7 C11 1_555 1_555
C12 C11 1_555 1_555
H8 C12 1_555 1_555
C13 C12 1_555 1_555
H9 C13 1_555 1_555
C14 C13 1_555 1_555
H10 C14 1_555 1_555
C15 C10 1_555 1_555
H11 C15 1_555 1_555
C16 N2 1_555 1_555
C17 C16 1_555 1_555
H12 C17 1_555 1_555
C18 C17 1_555 1_555
H13 C18 1_555 1_555
C19 C18 1_555 1_555
H14 C19 1_555 1_555
C20 C19 1_555 1_555
H15 C20 1_555 1_555
C21 C16 1_555 1_555
H16 C21 1_555 1_555
C22 N2 1_555 1_555
H17 C22 1_555 1_555
H18 C22 1_555 1_555
H19 C22 1_555 1_555
C23 S1 1_555 1_555
C24 C23 1_555 1_555
H20 C24 1_555 1_555
C25 C24 1_555 1_555
H21 C25 1_555 1_555
C26 C25 1_555 1_555
C27 C26 1_555 1_555
H22 C27 1_555 1_555
C28 C23 1_555 1_555
H23 C28 1_555 1_555
C29 C26 1_555 1_555
H24 C29 1_555 1_555
H25 C29 1_555 1_555
H26 C29 1_555 1_555
C7 C8 1_555 1_555
C8 C9 1_555 1_555
C14 C15 1_555 1_555
C20 C21 1_555 1_555
C27 C28 1_555 1_555

#END
