
#######################################################################
#
#                 Cambridge Crystallographic Data Centre
#                                CCDC 
#
#######################################################################
#
# If this CIF has been generated from an entry in the Cambridge 
# Structural Database, then it will include bibliographic, chemical, 
# crystal, experimental, refinement or atomic coordinate data resulting 
# from the CCDC's data processing and validation procedures.
#
#######################################################################

data_LUVRAX
_chemical_formula_moiety         'C12 H13 N1 S1'
_chemical_name_systematic        3-(ethylsulfanyl)-6-methylisoquinoline
_symmetry_cell_setting           monoclinic
_symmetry_space_group_name_H-M   'P 21'
_symmetry_Int_Tables_number      4
_space_group_name_Hall           'P 2yb'
loop_
_symmetry_equiv_pos_site_id
_symmetry_equiv_pos_as_xyz
1 x,y,z
2 -x,1/2+y,-z
_cell_length_a                   5.9732(9)
_cell_length_b                   7.2898(11)
_cell_length_c                   11.9181(19)
_cell_angle_alpha                90
_cell_angle_beta                 100.646(3)
_cell_angle_gamma                90
_cell_volume                     510.022
_exptl_crystal_colour            colorless
_exptl_crystal_description       block
_cell_formula_units_Z            2
loop_
_atom_site_label
_atom_site_type_symbol
_atom_site_fract_x
_atom_site_fract_y
_atom_site_fract_z
S1 S 0.93111(8) 0.40707(11) 0.90515(4)
N1 N 0.6133(3) 0.5053(2) 0.73704(17)
C1 C 0.5225(4) 0.5404(3) 0.6302(2)
H1 H 0.3731 0.5904 0.6150
C2 C 0.6316(3) 0.5091(3) 0.53604(18)
C3 C 0.5282(4) 0.5499(3) 0.42180(19)
H2 H 0.3804 0.6028 0.4060
C4 C 0.6407(4) 0.5133(3) 0.33454(19)
H3 H 0.5702 0.5419 0.2584
C5 C 0.8610(3) 0.4334(3) 0.35536(18)
C6 C 0.9639(3) 0.3944(3) 0.46578(16)
H4 H 1.1117 0.3413 0.4801
C7 C 0.8526(3) 0.4322(3) 0.55861(17)
C8 C 0.9516(3) 0.3957(4) 0.67361(16)
H5 H 1.1002 0.3446 0.6924
C9 C 0.8296(3) 0.4352(3) 0.75803(18)
C10 C 1.2319(4) 0.3642(3) 0.91323(19)
H6 H 1.2552 0.2379 0.8870
H7 H 1.2947 0.4511 0.8632
C11 C 1.3534(4) 0.3880(5) 1.03597(19)
H8 H 1.3282 0.5127 1.0617
H9 H 1.5171 0.3674 1.0408
H10 H 1.2935 0.2992 1.0847
C12 C 0.9775(4) 0.3926(4) 0.25646(17)
H11 H 1.1241 0.3328 0.2846
H12 H 1.0030 0.5074 0.2179
H13 H 0.8812 0.3111 0.2025
loop_
_geom_bond_atom_site_label_1
_geom_bond_atom_site_label_2
_geom_bond_site_symmetry_1
_geom_bond_site_symmetry_2
S1 C9 1_555 1_555
N1 C1 1_555 1_555
C1 H1 1_555 1_555
C2 C1 1_555 1_555
C3 C2 1_555 1_555
H2 C3 1_555 1_555
C4 C3 1_555 1_555
H3 C4 1_555 1_555
C5 C4 1_555 1_555
C6 C5 1_555 1_555
H4 C6 1_555 1_555
C7 C2 1_555 1_555
C8 C7 1_555 1_555
H5 C8 1_555 1_555
C9 N1 1_555 1_555
C10 S1 1_555 1_555
H6 C10 1_555 1_555
H7 C10 1_555 1_555
C11 C10 1_555 1_555
H8 C11 1_555 1_555
H9 C11 1_555 1_555
H10 C11 1_555 1_555
C12 C5 1_555 1_555
H11 C12 1_555 1_555
H12 C12 1_555 1_555
H13 C12 1_555 1_555
C6 C7 1_555 1_555
C8 C9 1_555 1_555

#END
