
#######################################################################
#
#                 Cambridge Crystallographic Data Centre
#                                CCDC 
#
#######################################################################
#
# If this CIF has been generated from an entry in the Cambridge 
# Structural Database, then it will include bibliographic, chemical, 
# crystal, experimental, refinement or atomic coordinate data resulting 
# from the CCDC's data processing and validation procedures.
#
#######################################################################

data_LUVSAY
_chemical_formula_moiety         'C23 H21 N1 O2 S2'
_chemical_name_systematic        
2-((4-methylphenyl)sulfonyl)-3-(methylsulfanyl)-1-phenyl-1,2-dihydroisoquinoline
_symmetry_cell_setting           monoclinic
_symmetry_space_group_name_H-M   'C 2/c'
_symmetry_Int_Tables_number      15
_space_group_name_Hall           '-C 2yn'
loop_
_symmetry_equiv_pos_site_id
_symmetry_equiv_pos_as_xyz
1 x,y,z
2 -x,y,1/2-z
3 1/2+x,1/2+y,z
4 1/2-x,1/2+y,1/2-z
5 -x,-y,-z
6 x,-y,1/2+z
7 1/2-x,1/2-y,-z
8 1/2+x,1/2-y,1/2+z
_cell_length_a                   32.732(2)
_cell_length_b                   9.3213(7)
_cell_length_c                   12.9047(9)
_cell_angle_alpha                90
_cell_angle_beta                 92.3470(10)
_cell_angle_gamma                90
_cell_volume                     3933.98
_exptl_crystal_colour            colorless
_exptl_crystal_description       Block
_cell_formula_units_Z            8
loop_
_atom_site_label
_atom_site_type_symbol
_atom_site_fract_x
_atom_site_fract_y
_atom_site_fract_z
S1 S 0.18153(2) 0.12793(4) 0.49452(2)
S2 S 0.11023(2) -0.00778(3) 0.65022(2)
O1 O 0.12637(3) -0.10912(10) 0.57922(8)
O2 O 0.09639(3) -0.05755(11) 0.74777(7)
N1 N 0.14642(3) 0.11219(11) 0.67809(8)
C1 C 0.15755(4) 0.20977(14) 0.59802(9)
C2 C 0.15085(4) 0.35077(14) 0.61156(10)
H1 H 0.1591 0.4156 0.5618
C3 C 0.13086(4) 0.40378(14) 0.70270(10)
C4 C 0.11425(4) 0.54192(15) 0.70728(11)
H2 H 0.1159 0.6032 0.6507
C5 C 0.09539(4) 0.58786(15) 0.79569(12)
H3 H 0.0846 0.6800 0.7983
C6 C 0.09262(4) 0.49709(15) 0.88023(12)
H4 H 0.0796 0.5279 0.9389
C7 C 0.10936(4) 0.35969(15) 0.87728(11)
H5 H 0.1075 0.2988 0.9340
C8 C 0.12879(4) 0.31406(13) 0.78956(10)
C9 C 0.15086(4) 0.17286(13) 0.78466(9)
H6 H 0.1385 0.1060 0.8329
C10 C 0.19649(4) 0.18449(13) 0.81293(9)
C11 C 0.21333(4) 0.30560(15) 0.86097(10)
H7 H 0.1966 0.3830 0.8760
C12 C 0.25506(4) 0.31179(17) 0.88674(11)
H8 H 0.2661 0.3936 0.9183
C13 C 0.28006(4) 0.19776(18) 0.86577(11)
H9 H 0.3079 0.2024 0.8828
C14 C 0.26346(4) 0.07578(18) 0.81914(11)
H10 H 0.2802 -0.0021 0.8056
C15 C 0.22202(4) 0.06957(15) 0.79271(10)
H11 H 0.2112 -0.0124 0.7611
C16 C 0.19704(5) 0.28158(18) 0.42191(12)
H12 H 0.1733 0.3335 0.3972
H13 H 0.2123 0.2506 0.3640
H14 H 0.2138 0.3427 0.4657
C17 C 0.07018(4) 0.08450(14) 0.58422(10)
C18 C 0.06469(4) 0.06749(15) 0.47786(10)
H15 H 0.0818 0.0073 0.4419
C19 C 0.03333(4) 0.14152(16) 0.42588(11)
H16 H 0.0294 0.1300 0.3546
C20 C 0.00767(4) 0.23238(16) 0.47810(11)
C21 C 0.01377(4) 0.24708(17) 0.58541(12)
H17 H -0.0033 0.3074 0.6215
C22 C 0.04461(4) 0.17369(17) 0.63884(11)
H18 H 0.0482 0.1837 0.7103
C23 C -0.02570(5) 0.3135(2) 0.41981(14)
H19 H -0.0213 0.3088 0.3468
H20 H -0.0254 0.4119 0.4418
H21 H -0.0517 0.2715 0.4336
loop_
_geom_bond_atom_site_label_1
_geom_bond_atom_site_label_2
_geom_bond_site_symmetry_1
_geom_bond_site_symmetry_2
S1 C1 1_555 1_555
S2 O1 1_555 1_555
O2 S2 1_555 1_555
N1 S2 1_555 1_555
C1 N1 1_555 1_555
C2 C1 1_555 1_555
H1 C2 1_555 1_555
C3 C2 1_555 1_555
C4 C3 1_555 1_555
H2 C4 1_555 1_555
C5 C4 1_555 1_555
H3 C5 1_555 1_555
C6 C5 1_555 1_555
H4 C6 1_555 1_555
C7 C6 1_555 1_555
H5 C7 1_555 1_555
C8 C3 1_555 1_555
C9 N1 1_555 1_555
H6 C9 1_555 1_555
C10 C9 1_555 1_555
C11 C10 1_555 1_555
H7 C11 1_555 1_555
C12 C11 1_555 1_555
H8 C12 1_555 1_555
C13 C12 1_555 1_555
H9 C13 1_555 1_555
C14 C13 1_555 1_555
H10 C14 1_555 1_555
C15 C10 1_555 1_555
H11 C15 1_555 1_555
C16 S1 1_555 1_555
H12 C16 1_555 1_555
H13 C16 1_555 1_555
H14 C16 1_555 1_555
C17 S2 1_555 1_555
C18 C17 1_555 1_555
H15 C18 1_555 1_555
C19 C18 1_555 1_555
H16 C19 1_555 1_555
C20 C19 1_555 1_555
C21 C20 1_555 1_555
H17 C21 1_555 1_555
C22 C17 1_555 1_555
H18 C22 1_555 1_555
C23 C20 1_555 1_555
H19 C23 1_555 1_555
H20 C23 1_555 1_555
H21 C23 1_555 1_555
C7 C8 1_555 1_555
C8 C9 1_555 1_555
C14 C15 1_555 1_555
C21 C22 1_555 1_555

#END
