
#######################################################################
#
#                 Cambridge Crystallographic Data Centre
#                                CCDC 
#
#######################################################################
#
# If this CIF has been generated from an entry in the Cambridge 
# Structural Database, then it will include bibliographic, chemical, 
# crystal, experimental, refinement or atomic coordinate data resulting 
# from the CCDC's data processing and validation procedures.
#
#######################################################################

data_LUVXEH
_chemical_formula_moiety         'C24 H27 B10 Cl1'
_chemical_name_systematic        
4,5-bis(2-phenylvinyl)-2-(4-chlorophenyl)-1,2-dicarba-closo-dodecaborane
_symmetry_cell_setting           monoclinic
_symmetry_space_group_name_H-M   'P 21/n'
_symmetry_Int_Tables_number      14
_space_group_name_Hall           '-P 2yn'
loop_
_symmetry_equiv_pos_site_id
_symmetry_equiv_pos_as_xyz
1 x,y,z
2 1/2-x,1/2+y,1/2-z
3 -x,-y,-z
4 1/2+x,1/2-y,1/2+z
_cell_length_a                   9.7970(4)
_cell_length_b                   24.7842(11)
_cell_length_c                   11.6723(5)
_cell_angle_alpha                90
_cell_angle_beta                 112.8316(12)
_cell_angle_gamma                90
_cell_volume                     2612.1
_exptl_crystal_colour            colorless
_exptl_crystal_description       block
_cell_formula_units_Z            4
loop_
_atom_site_label
_atom_site_type_symbol
_atom_site_fract_x
_atom_site_fract_y
_atom_site_fract_z
Cl1 Cl 1.52725(8) 0.04399(5) 0.39299(9)
C1 C 0.8431(2) 0.16198(9) 0.0747(2)
H1 H 0.9329 0.1896 0.0792
C2 C 0.8831(2) 0.10133(8) 0.14171(19)
C3 C 1.0433(2) 0.08538(9) 0.2069(2)
C4 C 1.1219(3) 0.09763(12) 0.3300(2)
H2 H 1.0749 0.1152 0.3750
C5 C 1.2702(3) 0.08405(14) 0.3878(3)
H3 H 1.3222 0.0927 0.4711
C6 C 1.3398(3) 0.05823(12) 0.3236(3)
C7 C 1.2631(3) 0.04357(13) 0.2037(3)
H4 H 1.3099 0.0244 0.1607
C8 C 1.1159(3) 0.05710(12) 0.1459(3)
H5 H 1.0642 0.0469 0.0636
C9 C 0.6882(3) 0.25272(11) 0.1066(2)
H6 H 0.7795 0.2698 0.1426
C10 C 0.5721(3) 0.28187(10) 0.0794(2)
H7 H 0.4821 0.2645 0.0386
C11 C 0.5643(3) 0.33964(9) 0.1050(2)
C12 C 0.6900(3) 0.37192(10) 0.1629(2)
H8 H 0.7838 0.3569 0.1853
C13 C 0.6761(3) 0.42547(11) 0.1870(3)
H9 H 0.7600 0.4467 0.2251
C14 C 0.5385(4) 0.44733(13) 0.1546(4)
H10 H 0.5283 0.4835 0.1708
C15 C 0.4162(4) 0.41627(14) 0.0988(4)
H11 H 0.3228 0.4314 0.0773
C16 C 0.4287(3) 0.36304(12) 0.0738(3)
H12 H 0.3436 0.3425 0.0350
C17 C 0.6818(3) 0.20251(12) -0.1642(2)
H13 H 0.7120 0.2377 -0.1394
C18 C 0.6406(3) 0.19246(12) -0.2803(2)
H14 H 0.6091 0.1574 -0.3055
C19 C 0.6376(3) 0.23026(11) -0.3781(2)
C20 C 0.7044(3) 0.28087(11) -0.3531(2)
H15 H 0.7511 0.2923 -0.2712
C21 C 0.7024(3) 0.31443(12) -0.4484(3)
H16 H 0.7477 0.3481 -0.4304
C22 C 0.6337(3) 0.29804(16) -0.5689(3)
H17 H 0.6320 0.3206 -0.6331
C23 C 0.5683(4) 0.24919(16) -0.5952(3)
H18 H 0.5220 0.2383 -0.6776
C24 C 0.5692(3) 0.21534(14) -0.5023(3)
H19 H 0.5233 0.1818 -0.5225
B1 B 0.8151(3) 0.15123(10) 0.2086(2)
H20 H 0.8799 0.1702 0.2986
B2 B 0.6881(3) 0.18959(11) 0.0837(3)
B3 B 0.6873(3) 0.16207(12) -0.0587(3)
B4 B 0.8149(3) 0.10702(11) -0.0188(2)
H21 H 0.8794 0.0974 -0.0751
B5 B 0.7517(3) 0.08358(11) 0.1974(3)
H22 H 0.7735 0.0583 0.2801
B6 B 0.6247(3) 0.13803(12) 0.1587(3)
H23 H 0.5624 0.1480 0.2166
B7 B 0.5455(3) 0.14473(13) -0.0057(3)
H24 H 0.4312 0.1590 -0.0550
B8 B 0.6247(3) 0.09362(12) -0.0693(3)
H25 H 0.5624 0.0745 -0.1597
B9 B 0.7523(3) 0.05635(11) 0.0562(3)
H26 H 0.7747 0.0134 0.0477
B10 B 0.5844(3) 0.07973(12) 0.0642(3)
H27 H 0.4952 0.0518 0.0599
loop_
_geom_bond_atom_site_label_1
_geom_bond_atom_site_label_2
_geom_bond_site_symmetry_1
_geom_bond_site_symmetry_2
Cl1 C6 1_555 1_555
C1 H1 1_555 1_555
C2 C1 1_555 1_555
C3 C2 1_555 1_555
C4 C3 1_555 1_555
H2 C4 1_555 1_555
C5 C4 1_555 1_555
H3 C5 1_555 1_555
C6 C5 1_555 1_555
C7 C6 1_555 1_555
H4 C7 1_555 1_555
C8 C3 1_555 1_555
H5 C8 1_555 1_555
C9 H6 1_555 1_555
C10 C9 1_555 1_555
H7 C10 1_555 1_555
C11 C10 1_555 1_555
C12 C11 1_555 1_555
H8 C12 1_555 1_555
C13 C12 1_555 1_555
H9 C13 1_555 1_555
C14 C13 1_555 1_555
H10 C14 1_555 1_555
C15 C14 1_555 1_555
H11 C15 1_555 1_555
C16 C11 1_555 1_555
H12 C16 1_555 1_555
C17 H13 1_555 1_555
C18 C17 1_555 1_555
H14 C18 1_555 1_555
C19 C18 1_555 1_555
C20 C19 1_555 1_555
H15 C20 1_555 1_555
C21 C20 1_555 1_555
H16 C21 1_555 1_555
C22 C21 1_555 1_555
H17 C22 1_555 1_555
C23 C22 1_555 1_555
H18 C23 1_555 1_555
C24 C19 1_555 1_555
H19 C24 1_555 1_555
B1 C1 1_555 1_555
H20 B1 1_555 1_555
B2 C1 1_555 1_555
B3 C1 1_555 1_555
B4 C1 1_555 1_555
H21 B4 1_555 1_555
B5 C2 1_555 1_555
H22 B5 1_555 1_555
B6 B1 1_555 1_555
H23 B6 1_555 1_555
B7 B2 1_555 1_555
H24 B7 1_555 1_555
B8 B3 1_555 1_555
H25 B8 1_555 1_555
B9 C2 1_555 1_555
H26 B9 1_555 1_555
B10 B5 1_555 1_555
H27 B10 1_555 1_555
C2 B1 1_555 1_555
C2 B4 1_555 1_555
C7 C8 1_555 1_555
C9 B2 1_555 1_555
C15 C16 1_555 1_555
C17 B3 1_555 1_555
C23 C24 1_555 1_555
B1 B2 1_555 1_555
B1 B5 1_555 1_555
B2 B3 1_555 1_555
B2 B6 1_555 1_555
B3 B4 1_555 1_555
B3 B7 1_555 1_555
B4 B8 1_555 1_555
B4 B9 1_555 1_555
B5 B6 1_555 1_555
B5 B9 1_555 1_555
B6 B7 1_555 1_555
B6 B10 1_555 1_555
B7 B8 1_555 1_555
B7 B10 1_555 1_555
B8 B9 1_555 1_555
B8 B10 1_555 1_555
B9 B10 1_555 1_555

#END
