
#######################################################################
#
#                 Cambridge Crystallographic Data Centre
#                                CCDC 
#
#######################################################################
#
# If this CIF has been generated from an entry in the Cambridge 
# Structural Database, then it will include bibliographic, chemical, 
# crystal, experimental, refinement or atomic coordinate data resulting 
# from the CCDC's data processing and validation procedures.
#
#######################################################################

data_LUVYUX
_chemical_formula_moiety         'C20 H21 B1 F2 O3'
_chemical_name_systematic        
(3-(4-t-Butylphenyl)-2-(4-mehoxyphenyl)propene-1,3-dioato)(difluoro)boron
_symmetry_cell_setting           orthorhombic
_symmetry_space_group_name_H-M   'P n m a'
_symmetry_Int_Tables_number      62
_space_group_name_Hall           '-P 2ac 2n'
loop_
_symmetry_equiv_pos_site_id
_symmetry_equiv_pos_as_xyz
1 x,y,z
2 1/2-x,-y,1/2+z
3 -x,1/2+y,-z
4 1/2+x,1/2-y,1/2-z
5 -x,-y,-z
6 1/2+x,y,1/2-z
7 x,1/2-y,z
8 1/2-x,1/2+y,1/2+z
_cell_length_a                   14.5159(2)
_cell_length_b                   6.9687(1)
_cell_length_c                   17.3259(2)
_cell_angle_alpha                90
_cell_angle_beta                 90
_cell_angle_gamma                90
_cell_volume                     1752.64
_exptl_crystal_colour            green
_exptl_crystal_description       block
_cell_formula_units_Z            4
loop_
_atom_site_label
_atom_site_type_symbol
_atom_site_fract_x
_atom_site_fract_y
_atom_site_fract_z
F1 F 0.20508(6) 0.09097(16) 0.29649(6)
O1 O 0.25139(7) 0.2500 0.40670(5)
O2 O 0.09175(7) 0.2500 0.36317(6)
O3 O -0.31890(6) 0.2500 0.47056(6)
C1 C 0.22236(7) 0.2500 0.47744(7)
C2 C 0.12879(8) 0.2500 0.49372(7)
C3 C 0.06494(8) 0.2500 0.43406(7)
C4 C -0.03472(8) 0.2500 0.44456(7)
C5 C -0.09154(8) 0.2500 0.37921(7)
C6 C -0.18643(8) 0.2500 0.38531(7)
C7 C -0.22685(8) 0.2500 0.45832(7)
C8 C -0.17139(9) 0.2500 0.52468(7)
C9 C -0.07664(8) 0.2500 0.51747(7)
C10 C -0.37652(9) 0.2500 0.40313(8)
C11 C 0.29535(8) 0.2500 0.53613(6)
C12 C 0.27719(8) 0.2500 0.61522(7)
C13 C 0.34874(8) 0.2500 0.66865(7)
C14 C 0.44051(8) 0.2500 0.64492(7)
C15 C 0.45813(8) 0.2500 0.56557(7)
C16 C 0.38744(8) 0.2500 0.51194(7)
C17 C 0.52150(8) 0.2500 0.70137(7)
C18 C 0.58027(9) 0.0694(2) 0.68730(7)
C19 C 0.49026(11) 0.2500 0.78515(8)
B1 B 0.18953(9) 0.2500 0.33912(8)
H1 H 0.1095(18) 0.2500 0.5452(14)
H2 H -0.067(2) 0.2500 0.3337(16)
H3 H -0.2195(17) 0.2500 0.3364(13)
H4 H -0.1954(13) 0.2500 0.5753(11)
H5 H -0.0381(16) 0.2500 0.5627(13)
H6 H -0.4402(17) 0.2500 0.4186(13)
H7 H -0.3642(10) 0.138(2) 0.3705(8)
H8 H 0.2150(13) 0.2500 0.6347(11)
H9 H 0.3305(15) 0.2500 0.7255(13)
H10 H 0.5205(15) 0.2500 0.5471(13)
H11 H 0.4011(18) 0.2500 0.4572(14)
H12 H 0.6061(12) 0.074(2) 0.6345(11)
H13 H 0.6281(13) 0.075(2) 0.7261(11)
H14 H 0.5342(14) -0.059(3) 0.7006(11)
H15 H 0.4554(11) 0.132(2) 0.7946(9)
H16 H 0.5496(17) 0.2500 0.8189(13)
F1F F 0.20508(6) 0.40903(16) 0.29649(6)
C18F C 0.58027(9) 0.4306(2) 0.68730(7)
H7F H -0.3642(10) 0.362(2) 0.3705(8)
H12F H 0.6061(12) 0.426(2) 0.6345(11)
H13F H 0.6281(13) 0.425(2) 0.7261(11)
H14F H 0.5342(14) 0.559(3) 0.7006(11)
H15F H 0.4554(11) 0.368(2) 0.7946(9)
loop_
_geom_bond_atom_site_label_1
_geom_bond_atom_site_label_2
_geom_bond_site_symmetry_1
_geom_bond_site_symmetry_2
F1 B1 1_555 1_555
O1 C1 1_555 1_555
O2 C3 1_555 1_555
O3 C7 1_555 1_555
C1 C2 1_555 1_555
C2 C3 1_555 1_555
C3 C4 1_555 1_555
C4 C5 1_555 1_555
C5 C6 1_555 1_555
C6 C7 1_555 1_555
C7 C8 1_555 1_555
C8 C9 1_555 1_555
C9 C4 1_555 1_555
C10 O3 1_555 1_555
C11 C1 1_555 1_555
C12 C11 1_555 1_555
C13 C12 1_555 1_555
C14 C13 1_555 1_555
C15 C14 1_555 1_555
C16 C11 1_555 1_555
C17 C14 1_555 1_555
C18 C17 1_555 1_555
C19 C17 1_555 1_555
B1 O1 1_555 1_555
H1 C2 1_555 1_555
H2 C5 1_555 1_555
H3 C6 1_555 1_555
H4 C8 1_555 1_555
H5 C9 1_555 1_555
H6 C10 1_555 1_555
H7 C10 1_555 1_555
H8 C12 1_555 1_555
H9 C13 1_555 1_555
H10 C15 1_555 1_555
H11 C16 1_555 1_555
H12 C18 1_555 1_555
H13 C18 1_555 1_555
H14 C18 1_555 1_555
H15 C19 1_555 1_555
H16 C19 1_555 1_555
F1F B1 1_555 1_555
C18F C17 1_555 1_555
H7F C10 1_555 1_555
H12F C18F 1_555 1_555
H13F C18F 1_555 1_555
H14F C18F 1_555 1_555
H15F C19 1_555 1_555
O2 B1 1_555 1_555
C15 C16 1_555 1_555

#END
