
#######################################################################
#
#                 Cambridge Crystallographic Data Centre
#                                CCDC 
#
#######################################################################
#
# If this CIF has been generated from an entry in the Cambridge 
# Structural Database, then it will include bibliographic, chemical, 
# crystal, experimental, refinement or atomic coordinate data resulting 
# from the CCDC's data processing and validation procedures.
#
#######################################################################

data_LUVZAF
_chemical_formula_moiety         'C19 H20 O1 S1 Si1'
_chemical_name_systematic        
(4Z,7E)-6-phenyl-7-(trimethylsilyl)cycloocta[b]thiophen-9(6H)-one
_symmetry_cell_setting           triclinic
_symmetry_space_group_name_H-M   'P -1'
_symmetry_Int_Tables_number      2
_space_group_name_Hall           '-P 1'
loop_
_symmetry_equiv_pos_site_id
_symmetry_equiv_pos_as_xyz
1 x,y,z
2 -x,-y,-z
_cell_length_a                   10.3806(11)
_cell_length_b                   11.2048(12)
_cell_length_c                   16.7575(15)
_cell_angle_alpha                70.908(9)
_cell_angle_beta                 79.237(8)
_cell_angle_gamma                69.893(10)
_cell_volume                     1723.56
_exptl_crystal_colour            colorless
_exptl_crystal_description       block
_chemical_melting_point          '385-388 K'
_cell_formula_units_Z            4
_exptl_crystal_recrystallization_method 
'Re-crystallisation from solvent: pentane'
loop_
_atom_site_label
_atom_site_type_symbol
_atom_site_fract_x
_atom_site_fract_y
_atom_site_fract_z
C1 C 0.20090(17) 0.66996(16) 0.21277(10)
C2 C 0.12405(17) 0.73682(16) 0.27749(10)
C3 C 0.15485(16) 0.84479(16) 0.29528(10)
H1 H 0.1450 0.8411 0.3535
C4 C 0.19466(16) 0.94733(16) 0.24179(10)
C5 C 0.23554(16) 0.95191(16) 0.14834(10)
H2 H 0.1814 0.9045 0.1338
C6 C 0.38358(17) 0.86947(17) 0.14400(10)
H3 H 0.4531 0.9113 0.1336
C7 C 0.42085(17) 0.73943(17) 0.15428(10)
H4 H 0.5166 0.6932 0.1541
C8 C 0.32768(17) 0.66136(16) 0.16583(10)
S1 S 0.12971(4) 0.55724(4) 0.20269(3)
C9 C 0.2665(2) 0.49988(18) 0.13656(11)
H5 H 0.2736 0.4326 0.1117
C10 C 0.36379(19) 0.56109(17) 0.12349(11)
H6 H 0.4478 0.5395 0.0895
O1 O 0.02786(13) 0.70003(13) 0.32131(8)
Si1 Si 0.20469(5) 1.07785(5) 0.28741(3)
C11 C 0.1605(2) 1.0278(2) 0.40436(12)
H7 H 0.0641 1.0288 0.4158
H8 H 0.1742 1.0900 0.4292
H9 H 0.2201 0.9382 0.4294
C12 C 0.0772(2) 1.24148(18) 0.24299(12)
H10 H 0.1041 1.2765 0.1828
H11 H 0.0747 1.3034 0.2736
H12 H -0.0142 1.2305 0.2493
C13 C 0.3835(2) 1.0883(3) 0.26797(15)
H13 H 0.4480 0.9998 0.2894
H14 H 0.3911 1.1480 0.2972
H15 H 0.4055 1.1224 0.2070
C14 C 0.20132(17) 1.09104(16) 0.08738(10)
C15 C 0.06705(18) 1.15023(18) 0.06390(11)
H16 H 0.0021 1.1024 0.0855
C16 C 0.0259(2) 1.27812(19) 0.00930(12)
H17 H -0.0662 1.3170 -0.0062
C17 C 0.1204(2) 1.34830(19) -0.02229(12)
H18 H 0.0930 1.4360 -0.0590
C18 C 0.2542(2) 1.29068(19) -0.00029(11)
H19 H 0.3187 1.3389 -0.0221
C19 C 0.29564(19) 1.16224(18) 0.05371(11)
H20 H 0.3885 1.1230 0.0677
C20 C 0.71663(16) 0.18084(17) 0.15775(10)
C21 C 0.69527(17) 0.32350(17) 0.14244(10)
C22 C 0.69906(17) 0.38639(16) 0.20702(10)
H21 H 0.7423 0.4542 0.1871
C23 C 0.65128(16) 0.36310(16) 0.28899(10)
C24 C 0.59633(16) 0.24455(16) 0.32986(10)
H22 H 0.5622 0.2291 0.2832
C25 C 0.71974(17) 0.12767(16) 0.35793(10)
H23 H 0.7458 0.1064 0.4135
C26 C 0.79457(17) 0.05221(17) 0.30813(10)
H24 H 0.8736 -0.0172 0.3304
C27 C 0.76663(16) 0.06611(16) 0.22281(10)
S2 S 0.69895(5) 0.14247(5) 0.06873(3)
C28 C 0.7566(2) -0.0239(2) 0.11801(12)
H25 H 0.7636 -0.0904 0.0925
C29 C 0.79110(19) -0.05042(19) 0.19752(12)
H26 H 0.8279 -0.1377 0.2329
O2 O 0.67772(14) 0.39637(13) 0.06962(7)
Si2 Si 0.67093(5) 0.46967(5) 0.35137(3)
C30 C 0.7699(2) 0.5822(2) 0.28164(13)
H27 H 0.7134 0.6484 0.2368
H28 H 0.8542 0.5302 0.2562
H29 H 0.7940 0.6270 0.3154
C31 C 0.5013(2) 0.57580(19) 0.38587(12)
H30 H 0.4498 0.5194 0.4263
H31 H 0.4488 0.6289 0.3364
H32 H 0.5162 0.6348 0.4130
C32 C 0.7701(2) 0.3568(2) 0.44389(12)
H33 H 0.8584 0.3022 0.4238
H34 H 0.7173 0.2993 0.4814
H35 H 0.7869 0.4096 0.4751
C33 C 0.47550(16) 0.26325(16) 0.39688(10)
C34 C 0.35331(18) 0.36129(18) 0.37176(11)
H36 H 0.3504 0.4179 0.3153
C35 C 0.23531(19) 0.37845(19) 0.42722(12)
H37 H 0.1529 0.4460 0.4086
C36 C 0.23835(19) 0.29646(19) 0.50995(12)
H38 H 0.1584 0.3077 0.5484
C37 C 0.3589(2) 0.1986(2) 0.53552(11)
H39 H 0.3615 0.1422 0.5920
C38 C 0.47711(18) 0.18119(18) 0.47953(11)
H40 H 0.5591 0.1128 0.4981
loop_
_geom_bond_atom_site_label_1
_geom_bond_atom_site_label_2
_geom_bond_site_symmetry_1
_geom_bond_site_symmetry_2
C1 C2 1_555 1_555
C2 C3 1_555 1_555
C3 H1 1_555 1_555
C4 C3 1_555 1_555
C5 C4 1_555 1_555
H2 C5 1_555 1_555
C6 C5 1_555 1_555
H3 C6 1_555 1_555
C7 C6 1_555 1_555
H4 C7 1_555 1_555
C8 C1 1_555 1_555
S1 C1 1_555 1_555
C9 S1 1_555 1_555
H5 C9 1_555 1_555
C10 C8 1_555 1_555
H6 C10 1_555 1_555
O1 C2 1_555 1_555
Si1 C4 1_555 1_555
C11 Si1 1_555 1_555
H7 C11 1_555 1_555
H8 C11 1_555 1_555
H9 C11 1_555 1_555
C12 Si1 1_555 1_555
H10 C12 1_555 1_555
H11 C12 1_555 1_555
H12 C12 1_555 1_555
C13 Si1 1_555 1_555
H13 C13 1_555 1_555
H14 C13 1_555 1_555
H15 C13 1_555 1_555
C14 C5 1_555 1_555
C15 C14 1_555 1_555
H16 C15 1_555 1_555
C16 C15 1_555 1_555
H17 C16 1_555 1_555
C17 C16 1_555 1_555
H18 C17 1_555 1_555
C18 C17 1_555 1_555
H19 C18 1_555 1_555
C19 C14 1_555 1_555
H20 C19 1_555 1_555
C20 C21 1_555 1_555
C21 C22 1_555 1_555
C22 H21 1_555 1_555
C23 C22 1_555 1_555
C24 C23 1_555 1_555
H22 C24 1_555 1_555
C25 C24 1_555 1_555
H23 C25 1_555 1_555
C26 C25 1_555 1_555
H24 C26 1_555 1_555
C27 C20 1_555 1_555
S2 C20 1_555 1_555
C28 S2 1_555 1_555
H25 C28 1_555 1_555
C29 C27 1_555 1_555
H26 C29 1_555 1_555
O2 C21 1_555 1_555
Si2 C23 1_555 1_555
C30 Si2 1_555 1_555
H27 C30 1_555 1_555
H28 C30 1_555 1_555
H29 C30 1_555 1_555
C31 Si2 1_555 1_555
H30 C31 1_555 1_555
H31 C31 1_555 1_555
H32 C31 1_555 1_555
C32 Si2 1_555 1_555
H33 C32 1_555 1_555
H34 C32 1_555 1_555
H35 C32 1_555 1_555
C33 C24 1_555 1_555
C34 C33 1_555 1_555
H36 C34 1_555 1_555
C35 C34 1_555 1_555
H37 C35 1_555 1_555
C36 C35 1_555 1_555
H38 C36 1_555 1_555
C37 C36 1_555 1_555
H39 C37 1_555 1_555
C38 C33 1_555 1_555
H40 C38 1_555 1_555
C7 C8 1_555 1_555
C9 C10 1_555 1_555
C18 C19 1_555 1_555
C26 C27 1_555 1_555
C28 C29 1_555 1_555
C37 C38 1_555 1_555

#END
