
#######################################################################
#
#                 Cambridge Crystallographic Data Centre
#                                CCDC 
#
#######################################################################
#
# If this CIF has been generated from an entry in the Cambridge 
# Structural Database, then it will include bibliographic, chemical, 
# crystal, experimental, refinement or atomic coordinate data resulting 
# from the CCDC's data processing and validation procedures.
#
#######################################################################

data_LUVZEJ
_chemical_formula_moiety         'C22 H22 O3 Si1'
_chemical_name_systematic        
(6E,9Z)-8-phenyl-7-(trimethylsilyl)cycloocta[4,5]benzo[1,2-d][1,3]dioxol-5(8H)-one
_symmetry_cell_setting           orthorhombic
_symmetry_space_group_name_H-M   'P 21 21 21'
_symmetry_Int_Tables_number      19
_space_group_name_Hall           'P 2ac 2ab'
loop_
_symmetry_equiv_pos_site_id
_symmetry_equiv_pos_as_xyz
1 x,y,z
2 1/2-x,-y,1/2+z
3 1/2+x,1/2-y,-z
4 -x,1/2+y,1/2-z
_cell_length_a                   8.6952(5)
_cell_length_b                   9.5023(6)
_cell_length_c                   22.2980(13)
_cell_angle_alpha                90
_cell_angle_beta                 90
_cell_angle_gamma                90
_cell_volume                     1842.36
_exptl_crystal_colour            colorless
_exptl_crystal_description       block
_chemical_melting_point          '428-430 K'
_cell_formula_units_Z            4
_exptl_crystal_recrystallization_method 
'Re-crystallisation from solvent: Pentane'
loop_
_atom_site_label
_atom_site_type_symbol
_atom_site_fract_x
_atom_site_fract_y
_atom_site_fract_z
C1 C 0.0726(3) 0.3060(3) 0.35575(12)
C2 C 0.0215(3) 0.1872(3) 0.38220(13)
H1 H -0.0864 0.1853 0.3887
C3 C 0.1024(3) 0.0598(3) 0.40289(12)
C4 C 0.2716(3) 0.0405(3) 0.41549(12)
C5 C 0.3691(3) 0.1378(3) 0.44489(12)
C6 C 0.3448(3) 0.2901(3) 0.45188(12)
H2 H 0.3644 0.3292 0.4903
C7 C 0.2980(3) 0.3781(3) 0.40914(12)
H3 H 0.2976 0.4762 0.4174
C8 C 0.2457(3) 0.3289(3) 0.34847(12)
H4 H 0.2929 0.2342 0.3417
Si1 Si -0.07621(8) 0.44801(8) 0.33846(3)
C9 C 0.0081(4) 0.6230(3) 0.35802(14)
H5 H 0.0517 0.6191 0.3985
H6 H -0.0724 0.6950 0.3566
H7 H 0.0894 0.6465 0.3293
C10 C -0.1410(4) 0.4436(4) 0.25833(14)
H8 H -0.2304 0.5052 0.2533
H9 H -0.1691 0.3470 0.2474
H10 H -0.0573 0.4761 0.2324
C11 C -0.2480(3) 0.4178(3) 0.38762(15)
H11 H -0.2974 0.3289 0.3765
H12 H -0.3212 0.4953 0.3824
H13 H -0.2152 0.4135 0.4296
O1 O 0.0209(2) -0.0439(2) 0.41209(11)
C12 C 0.3208(3) -0.1002(3) 0.40657(12)
H14 H 0.2584 -0.1651 0.3852
C13 C 0.4598(3) -0.1403(3) 0.42928(13)
O2 O 0.5317(3) -0.2680(2) 0.42483(10)
C14 C 0.6557(4) -0.2613(4) 0.46704(15)
H15 H 0.7505 -0.3010 0.4492
H16 H 0.6300 -0.3160 0.5035
O3 O 0.6785(2) -0.1158(2) 0.48206(10)
C15 C 0.5492(3) -0.0479(3) 0.46265(12)
C16 C 0.5082(3) 0.0893(3) 0.47092(12)
H17 H 0.5714 0.1511 0.4936
C17 C 0.2917(3) 0.4206(3) 0.29589(12)
C18 C 0.3884(3) 0.5370(3) 0.30149(14)
H18 H 0.4238 0.5648 0.3400
C19 C 0.4333(4) 0.6125(3) 0.25102(14)
H19 H 0.4979 0.6925 0.2554
C20 C 0.3846(3) 0.5720(4) 0.19461(14)
H20 H 0.4180 0.6226 0.1602
C21 C 0.2870(3) 0.4575(4) 0.18821(13)
H21 H 0.2511 0.4306 0.1496
C22 C 0.2423(3) 0.3825(3) 0.23870(13)
H22 H 0.1765 0.3034 0.2342
loop_
_geom_bond_atom_site_label_1
_geom_bond_atom_site_label_2
_geom_bond_site_symmetry_1
_geom_bond_site_symmetry_2
C1 C2 1_555 1_555
C2 H1 1_555 1_555
C3 C2 1_555 1_555
C4 C3 1_555 1_555
C5 C4 1_555 1_555
C6 C5 1_555 1_555
H2 C6 1_555 1_555
C7 C6 1_555 1_555
H3 C7 1_555 1_555
C8 C1 1_555 1_555
H4 C8 1_555 1_555
Si1 C1 1_555 1_555
C9 Si1 1_555 1_555
H5 C9 1_555 1_555
H6 C9 1_555 1_555
H7 C9 1_555 1_555
C10 Si1 1_555 1_555
H8 C10 1_555 1_555
H9 C10 1_555 1_555
H10 C10 1_555 1_555
C11 Si1 1_555 1_555
H11 C11 1_555 1_555
H12 C11 1_555 1_555
H13 C11 1_555 1_555
O1 C3 1_555 1_555
C12 C4 1_555 1_555
H14 C12 1_555 1_555
C13 C12 1_555 1_555
O2 C13 1_555 1_555
C14 O2 1_555 1_555
H15 C14 1_555 1_555
H16 C14 1_555 1_555
O3 C14 1_555 1_555
C15 C13 1_555 1_555
C16 C5 1_555 1_555
H17 C16 1_555 1_555
C17 C8 1_555 1_555
C18 C17 1_555 1_555
H18 C18 1_555 1_555
C19 C18 1_555 1_555
H19 C19 1_555 1_555
C20 C19 1_555 1_555
H20 C20 1_555 1_555
C21 C20 1_555 1_555
H21 C21 1_555 1_555
C22 C17 1_555 1_555
H22 C22 1_555 1_555
C7 C8 1_555 1_555
O3 C15 1_555 1_555
C15 C16 1_555 1_555
C21 C22 1_555 1_555

#END
