
#######################################################################
#
#                 Cambridge Crystallographic Data Centre
#                                CCDC 
#
#######################################################################
#
# If this CIF has been generated from an entry in the Cambridge 
# Structural Database, then it will include bibliographic, chemical, 
# crystal, experimental, refinement or atomic coordinate data resulting 
# from the CCDC's data processing and validation procedures.
#
#######################################################################

data_LUWJUJ01
_chemical_name_common            "1-methyl-[4,4'-bipyridin]-1-ium iodide"
_chemical_formula_moiety         'C11 H11 N2 1+,I1 1-'
_chemical_name_systematic        '1-methyl-4-(pyridin-4-yl)pyridinium iodide'
_symmetry_cell_setting           orthorhombic
_symmetry_space_group_name_H-M   'P b c a'
_symmetry_Int_Tables_number      61
_space_group_name_Hall           '-P 2ac 2ab'
loop_
_symmetry_equiv_pos_site_id
_symmetry_equiv_pos_as_xyz
1 x,y,z
2 1/2-x,-y,1/2+z
3 1/2+x,1/2-y,-z
4 -x,1/2+y,1/2-z
5 -x,-y,-z
6 1/2+x,y,1/2-z
7 1/2-x,1/2+y,z
8 x,1/2-y,1/2+z
_cell_length_a                   16.3855(2)
_cell_length_b                   7.36310(9)
_cell_length_c                   18.7465(3)
_cell_angle_alpha                90
_cell_angle_beta                 90
_cell_angle_gamma                90
_cell_volume                     2261.73
_exptl_crystal_colour            yellow
_exptl_crystal_description       plate
_cell_formula_units_Z            8
_exptl_crystal_recrystallization_method methanol
loop_
_atom_site_label
_atom_site_type_symbol
_atom_site_fract_x
_atom_site_fract_y
_atom_site_fract_z
I1 I 0.43289(2) 0.17930(3) 0.62876(2)
N1 N 0.40317(18) 0.6715(4) 0.63378(14)
C1 C 0.2053(2) 0.5555(4) 0.42740(17)
H1 H 0.1703 0.5843 0.4662
C2 C 0.28978(19) 0.5648(4) 0.43542(16)
N2 N 0.21883(18) 0.4605(4) 0.30497(15)
C3 C 0.3370(2) 0.5235(5) 0.37621(17)
H2 H 0.3948 0.5300 0.3790
C4 C 0.3252(2) 0.6113(5) 0.63257(18)
H3 H 0.2971 0.5901 0.6761
C5 C 0.4450(2) 0.6904(5) 0.70327(19)
H4 H 0.4043 0.6963 0.7415
H5 H 0.4776 0.8019 0.7034
H6 H 0.4808 0.5856 0.7110
C6 C 0.4076(2) 0.6758(5) 0.50869(18)
H7 H 0.4370 0.7000 0.4661
C7 C 0.2997(2) 0.4726(5) 0.31295(17)
H8 H 0.3334 0.4449 0.2732
C8 C 0.4432(2) 0.7061(5) 0.57294(19)
H9 H 0.4972 0.7525 0.5748
C9 C 0.1730(2) 0.5036(5) 0.36192(18)
H10 H 0.1153 0.4983 0.3572
C10 C 0.32769(19) 0.6091(4) 0.50502(17)
C11 C 0.2868(2) 0.5810(5) 0.56940(17)
H11 H 0.2318 0.5404 0.5691
loop_
_geom_bond_atom_site_label_1
_geom_bond_atom_site_label_2
_geom_bond_site_symmetry_1
_geom_bond_site_symmetry_2
N1 C4 1_555 1_555
C1 H1 1_555 1_555
C2 C1 1_555 1_555
N2 C7 1_555 1_555
C3 C2 1_555 1_555
H2 C3 1_555 1_555
C4 H3 1_555 1_555
C5 N1 1_555 1_555
H4 C5 1_555 1_555
H5 C5 1_555 1_555
H6 C5 1_555 1_555
C6 H7 1_555 1_555
C7 C3 1_555 1_555
H8 C7 1_555 1_555
C8 N1 1_555 1_555
H9 C8 1_555 1_555
C9 C1 1_555 1_555
H10 C9 1_555 1_555
C10 C2 1_555 1_555
C11 C4 1_555 1_555
H11 C11 1_555 1_555
N2 C9 1_555 1_555
C6 C8 1_555 1_555
C6 C10 1_555 1_555
C10 C11 1_555 1_555

#END
