
#######################################################################
#
#                 Cambridge Crystallographic Data Centre
#                                CCDC 
#
#######################################################################
#
# If this CIF has been generated from an entry in the Cambridge 
# Structural Database, then it will include bibliographic, chemical, 
# crystal, experimental, refinement or atomic coordinate data resulting 
# from the CCDC's data processing and validation procedures.
#
#######################################################################

data_LUWLOG
_chemical_formula_moiety         'C16 H16 O4 S4'
_chemical_name_systematic        
2,3,8,9-Tetramethoxydibenzo[c,g][1,2,5,6]tetrathiocine
_symmetry_cell_setting           monoclinic
_symmetry_space_group_name_H-M   'P 21/c'
_symmetry_Int_Tables_number      14
_space_group_name_Hall           '-P 2ybc'
loop_
_symmetry_equiv_pos_site_id
_symmetry_equiv_pos_as_xyz
1 x,y,z
2 -x,1/2+y,1/2-z
3 -x,-y,-z
4 x,1/2-y,1/2+z
_cell_length_a                   8.4741(2)
_cell_length_b                   8.3415(2)
_cell_length_c                   12.3574(3)
_cell_angle_alpha                90
_cell_angle_beta                 104.8730(10)
_cell_angle_gamma                90
_cell_volume                     844.239
_exptl_crystal_colour            red
_exptl_crystal_description       needle
_cell_formula_units_Z            2
loop_
_atom_site_label
_atom_site_type_symbol
_atom_site_fract_x
_atom_site_fract_y
_atom_site_fract_z
S1 S 0.49548(8) -0.03853(8) 0.65694(5)
S2 S 0.40492(7) -0.16758(8) 0.39015(5)
O1 O 0.8500(2) -0.5904(2) 0.53023(15)
O2 O 0.9175(2) -0.4952(2) 0.73692(16)
C1 C 0.6010(3) -0.1972(3) 0.6095(2)
C2 C 0.5640(3) -0.2495(3) 0.4985(2)
C3 C 0.6473(3) -0.3813(3) 0.4703(2)
H1 H 0.6227 -0.4165 0.3947
C4 C 0.7648(3) -0.4613(3) 0.5506(2)
C5 C 0.8014(3) -0.4087(3) 0.6629(2)
C6 C 0.7216(3) -0.2765(3) 0.6910(2)
H2 H 0.7488 -0.2391 0.7661
C7 C 0.8233(3) -0.6403(3) 0.4160(2)
H3 H 0.7092 -0.6731 0.3870
H4 H 0.8952 -0.7308 0.4118
H5 H 0.8472 -0.5510 0.3712
C8 C 0.9685(3) -0.4368(4) 0.8485(2)
H6 H 1.0047 -0.3253 0.8477
H7 H 1.0590 -0.5026 0.8913
H8 H 0.8771 -0.4422 0.8834
S1B S 0.50452(8) 0.03853(8) 0.34306(5)
S2B S 0.59508(7) 0.16758(8) 0.60985(5)
O1B O 0.1500(2) 0.5904(2) 0.46977(15)
O2B O 0.0825(2) 0.4952(2) 0.26308(16)
C1B C 0.3990(3) 0.1972(3) 0.3905(2)
C2B C 0.4360(3) 0.2495(3) 0.5015(2)
C3B C 0.3527(3) 0.3813(3) 0.5297(2)
H1B H 0.3773 0.4165 0.6053
C4B C 0.2352(3) 0.4613(3) 0.4494(2)
C5B C 0.1986(3) 0.4087(3) 0.3371(2)
C6B C 0.2784(3) 0.2765(3) 0.3090(2)
H2B H 0.2512 0.2391 0.2339
C7B C 0.1767(3) 0.6403(3) 0.5840(2)
H3B H 0.2908 0.6731 0.6130
H4B H 0.1048 0.7308 0.5882
H5B H 0.1528 0.5510 0.6288
C8B C 0.0315(3) 0.4368(4) 0.1515(2)
H6B H -0.0047 0.3253 0.1523
H7B H -0.0590 0.5026 0.1087
H8B H 0.1229 0.4422 0.1166
loop_
_geom_bond_atom_site_label_1
_geom_bond_atom_site_label_2
_geom_bond_site_symmetry_1
_geom_bond_site_symmetry_2
S1 C1 1_555 1_555
S2 C2 1_555 1_555
O1 C4 1_555 1_555
O2 C5 1_555 1_555
C1 C2 1_555 1_555
C2 C3 1_555 1_555
C3 H1 1_555 1_555
C4 C3 1_555 1_555
C5 C4 1_555 1_555
C6 C1 1_555 1_555
H2 C6 1_555 1_555
C7 O1 1_555 1_555
H3 C7 1_555 1_555
H4 C7 1_555 1_555
H5 C7 1_555 1_555
C8 O2 1_555 1_555
H6 C8 1_555 1_555
H7 C8 1_555 1_555
H8 C8 1_555 1_555
S1B S2 1_555 1_555
S2B S1 1_555 1_555
O1B C4B 1_555 1_555
O2B C5B 1_555 1_555
C1B S1B 1_555 1_555
C2B S2B 1_555 1_555
C3B C2B 1_555 1_555
H1B C3B 1_555 1_555
C4B C3B 1_555 1_555
C5B C4B 1_555 1_555
C6B C1B 1_555 1_555
H2B C6B 1_555 1_555
C7B O1B 1_555 1_555
H3B C7B 1_555 1_555
H4B C7B 1_555 1_555
H5B C7B 1_555 1_555
C8B O2B 1_555 1_555
H6B C8B 1_555 1_555
H7B C8B 1_555 1_555
H8B C8B 1_555 1_555
C5 C6 1_555 1_555
C1B C2B 1_555 1_555
C5B C6B 1_555 1_555

#END
