
#######################################################################
#
#                 Cambridge Crystallographic Data Centre
#                                CCDC 
#
#######################################################################
#
# If this CIF has been generated from an entry in the Cambridge 
# Structural Database, then it will include bibliographic, chemical, 
# crystal, experimental, refinement or atomic coordinate data resulting 
# from the CCDC's data processing and validation procedures.
#
#######################################################################

data_LUWVUW
_chemical_formula_moiety         'C18 H25 N1 O3'
_chemical_name_systematic        
't-Butyl (3-(1-phenylethyl)-6-oxa-3-azabicyclo[3.1.0]hex-2-yl)acetate'
_symmetry_cell_setting           monoclinic
_symmetry_space_group_name_H-M   'P 21'
_symmetry_Int_Tables_number      4
_space_group_name_Hall           'P 2yb'
loop_
_symmetry_equiv_pos_site_id
_symmetry_equiv_pos_as_xyz
1 x,y,z
2 -x,1/2+y,-z
_cell_length_a                   10.3864(2)
_cell_length_b                   6.08719(15)
_cell_length_c                   13.0714(4)
_cell_angle_alpha                90
_cell_angle_beta                 92.818(2)
_cell_angle_gamma                90
_cell_volume                     825.427
_exptl_crystal_colour            colorless
_exptl_crystal_description       plate
_cell_formula_units_Z            2
loop_
_atom_site_label
_atom_site_type_symbol
_atom_site_fract_x
_atom_site_fract_y
_atom_site_fract_z
O1 O 0.18360(13) 1.2659(3) 0.22390(12)
C1 C 0.2392(2) 1.0980(4) 0.17652(19)
O2 O 0.19961(16) 1.0134(3) 0.09761(15)
C2 C 0.3592(2) 1.0260(4) 0.23772(19)
C3 C 0.4420(2) 0.8628(4) 0.18019(19)
N1 N 0.55658(16) 0.7963(3) 0.24612(15)
C4 C 0.54008(19) 0.5845(4) 0.29935(18)
C5 C 0.6586(2) 0.5350(4) 0.37009(18)
C6 C 0.7088(2) 0.3256(4) 0.3757(2)
C7 C 0.8100(2) 0.2770(4) 0.4465(2)
C8 C 0.8591(2) 0.4372(5) 0.5126(2)
C9 C 0.8071(2) 0.6465(5) 0.5076(2)
C10 C 0.7082(2) 0.6961(4) 0.4361(2)
C11 C 0.4205(2) 0.5835(4) 0.3644(2)
C12 C 0.6691(2) 0.7850(4) 0.1807(2)
C13 C 0.6341(2) 0.9247(5) 0.0894(2)
C14 C 0.4975(2) 0.9672(4) 0.0882(2)
O3 O 0.59002(16) 1.1412(3) 0.11561(15)
C15 C 0.05653(19) 1.3566(4) 0.18464(19)
C16 C 0.0680(2) 1.4506(4) 0.0786(2)
C17 C 0.0322(2) 1.5386(4) 0.2616(2)
C18 C -0.0444(2) 1.1767(4) 0.1897(2)
H1 H 0.3398 0.9713 0.3049
H2 H 0.4157 1.1489 0.2512
H3 H 0.3886 0.7365 0.1559
H4 H 0.5320 0.4690 0.2475
H5 H 0.6775 0.2135 0.3312
H6 H 0.8418 0.1361 0.4516
H7 H 0.9253 0.4056 0.5606
H8 H 0.8390 0.7514 0.5534
H9 H 0.6739 0.8384 0.4336
H10 H 0.4254 0.4412 0.3950
H11 H 0.4393 0.6860 0.4174
H12 H 0.3402 0.6119 0.3258
H13 H 0.7501 0.8366 0.2185
H14 H 0.6810 0.6383 0.1566
H15 H 0.6826 0.9085 0.0268
H16 H 0.4466 0.9931 0.0254
H17 H -0.0151 1.5148 0.0549
H18 H 0.1340 1.5568 0.0815
H19 H 0.0953 1.3378 0.0342
H20 H -0.0519 1.6078 0.2478
H21 H 0.0369 1.4744 0.3285
H22 H 0.1040 1.6401 0.2588
H23 H -0.1294 1.2343 0.1739
H24 H -0.0462 1.1184 0.2589
H25 H -0.0321 1.0595 0.1418
loop_
_geom_bond_atom_site_label_1
_geom_bond_atom_site_label_2
_geom_bond_site_symmetry_1
_geom_bond_site_symmetry_2
O1 C1 1_555 1_555
C1 O2 1_555 1_555
C2 C1 1_555 1_555
C3 C2 1_555 1_555
N1 C3 1_555 1_555
C4 N1 1_555 1_555
C5 C4 1_555 1_555
C6 C5 1_555 1_555
C7 C6 1_555 1_555
C8 C7 1_555 1_555
C9 C8 1_555 1_555
C10 C5 1_555 1_555
C11 C4 1_555 1_555
C12 N1 1_555 1_555
C13 C12 1_555 1_555
C14 C3 1_555 1_555
O3 C13 1_555 1_555
C15 O1 1_555 1_555
C16 C15 1_555 1_555
C17 C15 1_555 1_555
C18 C15 1_555 1_555
H1 C2 1_555 1_555
H2 C2 1_555 1_555
H3 C3 1_555 1_555
H4 C4 1_555 1_555
H5 C6 1_555 1_555
H6 C7 1_555 1_555
H7 C8 1_555 1_555
H8 C9 1_555 1_555
H9 C10 1_555 1_555
H10 C11 1_555 1_555
H11 C11 1_555 1_555
H12 C11 1_555 1_555
H13 C12 1_555 1_555
H14 C12 1_555 1_555
H15 C13 1_555 1_555
H16 C14 1_555 1_555
H17 C16 1_555 1_555
H18 C16 1_555 1_555
H19 C16 1_555 1_555
H20 C17 1_555 1_555
H21 C17 1_555 1_555
H22 C17 1_555 1_555
H23 C18 1_555 1_555
H24 C18 1_555 1_555
H25 C18 1_555 1_555
C9 C10 1_555 1_555
C13 C14 1_555 1_555
C14 O3 1_555 1_555

#END
