
#######################################################################
#
#                 Cambridge Crystallographic Data Centre
#                                CCDC 
#
#######################################################################
#
# If this CIF has been generated from an entry in the Cambridge 
# Structural Database, then it will include bibliographic, chemical, 
# crystal, experimental, refinement or atomic coordinate data resulting 
# from the CCDC's data processing and validation procedures.
#
#######################################################################

data_LUXCUD
_chemical_formula_moiety         'C38 H46 N10 O2,3.7(C1 H2 Cl2),0.3(C1 H4 O1)'
_chemical_name_systematic        
'9,24-Di-t-butyl-3,7,9,11,15,18,22,24,26,30-decaazaheptacyclo[26.2.2.2^2,5^.2^13,16^.2^17,20^.1^7,11^.1^22,26^]tetraconta-1(30),2,4,13,15,17,19,28,31,34,36,39-dodecaene-33,38-dione dichloromethane methanol solvate'
_symmetry_cell_setting           monoclinic
_symmetry_space_group_name_H-M   'P 21/c'
_symmetry_Int_Tables_number      14
_space_group_name_Hall           '-P 2ybc'
loop_
_symmetry_equiv_pos_site_id
_symmetry_equiv_pos_as_xyz
1 x,y,z
2 -x,1/2+y,1/2-z
3 -x,-y,-z
4 x,1/2-y,1/2+z
_cell_length_a                   11.8857(5)
_cell_length_b                   15.0339(7)
_cell_length_c                   13.5999(6)
_cell_angle_alpha                90
_cell_angle_beta                 101.5610(10)
_cell_angle_gamma                90
_cell_volume                     2380.84
_exptl_crystal_colour            colorless
_exptl_crystal_description       plate
_cell_formula_units_Z            2
_exptl_crystal_recrystallization_method dichloromethane/n-hexane
loop_
_atom_site_label
_atom_site_type_symbol
_atom_site_fract_x
_atom_site_fract_y
_atom_site_fract_z
C1 C 0.74808(17) 0.45023(14) 0.22617(14)
C2 C 0.65720(19) 0.55978(15) 0.09909(15)
H1 H 0.5803 0.5710 0.1141
H2 H 0.6835 0.6153 0.0717
C3 C 0.61428(18) 0.41028(15) 0.06799(15)
H3 H 0.6140 0.3609 0.0198
H4 H 0.5350 0.4174 0.0791
C4 C 0.32158(19) 0.70196(14) 0.79471(16)
H5 H 0.2450 0.7246 0.7621
H6 H 0.3541 0.7432 0.8499
C5 C 0.39890(19) 0.69977(13) 0.71884(15)
C6 C 0.35150(19) 0.69243(15) 0.61704(16)
H7 H 0.2703 0.6956 0.5973
C7 C 0.52704(18) 0.67874(13) 0.57299(15)
C8 C 0.58269(19) 0.68999(14) 0.67227(16)
H8 H 0.6642 0.6907 0.6898
C9 C 0.51751(19) 0.70019(14) 0.74531(16)
H9 H 0.5543 0.7075 0.8136
C10 C 0.59008(17) 0.65958(14) 0.49151(15)
C11 C 0.75027(18) 0.67780(14) 0.42400(15)
H10 H 0.8233 0.7046 0.4274
C12 C 0.71004(17) 0.62213(14) 0.34313(15)
C13 C 0.60337(18) 0.58324(15) 0.34002(16)
H11 H 0.5725 0.5433 0.2874
C14 C 0.54232(18) 0.60282(15) 0.41351(16)
H12 H 0.4684 0.5778 0.4109
C15 C 0.78152(19) 0.60601(15) 0.26385(16)
H13 H 0.8607 0.5903 0.2979
H14 H 0.7856 0.6620 0.2265
C16 C 0.74166(19) 0.48326(14) -0.03446(16)
C17 C 0.8477(3) 0.4311(3) 0.0197(3)
H15 H 0.8804 0.4606 0.0833
H16 H 0.9052 0.4292 -0.0228
H17 H 0.8249 0.3703 0.0331
C18 C 0.7813(3) 0.5763(2) -0.0575(3)
H18 H 0.7144 0.6126 -0.0867
H19 H 0.8328 0.5719 -0.1052
H20 H 0.8221 0.6041 0.0047
C19 C 0.6901(3) 0.4389(3) -0.1335(2)
H21 H 0.6565 0.3816 -0.1205
H22 H 0.7503 0.4293 -0.1721
H23 H 0.6302 0.4773 -0.1717
N1 N 0.73758(15) 0.53618(12) 0.19259(12)
N2 N 0.69062(15) 0.38688(11) 0.16387(12)
N3 N 0.64860(14) 0.49086(11) 0.02510(12)
N4 N 0.41176(15) 0.68130(13) 0.54505(13)
N5 N 0.69417(15) 0.69663(12) 0.49758(13)
O1 O 0.80807(13) 0.43107(10) 0.30875(10)
C1B C 0.25192(17) 0.54977(14) 0.77383(14)
C2B C 0.34280(19) 0.44022(15) 0.90091(15)
H1B H 0.4197 0.4290 0.8859
H2B H 0.3165 0.3847 0.9283
C3B C 0.38572(18) 0.58972(15) 0.93201(15)
H3B H 0.3860 0.6391 0.9802
H4B H 0.4650 0.5826 0.9209
C4B C 0.67842(19) 0.29804(14) 0.20529(16)
H5B H 0.7550 0.2754 0.2379
H6B H 0.6459 0.2568 0.1501
C5B C 0.60110(19) 0.30023(13) 0.28116(15)
C6B C 0.64850(19) 0.30757(15) 0.38296(16)
H7B H 0.7297 0.3044 0.4027
C7B C 0.47296(18) 0.32126(13) 0.42701(15)
C8B C 0.41731(19) 0.31001(14) 0.32773(16)
H8B H 0.3358 0.3093 0.3102
C9B C 0.48249(19) 0.29981(14) 0.25469(16)
H9B H 0.4457 0.2925 0.1864
C10B C 0.40992(17) 0.34042(14) 0.50849(15)
C11B C 0.24973(18) 0.32220(14) 0.57600(15)
H10B H 0.1767 0.2954 0.5726
C12B C 0.28996(17) 0.37787(14) 0.65687(15)
C13B C 0.39663(18) 0.41676(15) 0.65998(16)
H11B H 0.4275 0.4567 0.7126
C14B C 0.45768(18) 0.39718(15) 0.58649(16)
H12B H 0.5316 0.4222 0.5891
C15B C 0.21848(19) 0.39399(15) 0.73615(16)
H13B H 0.1393 0.4097 0.7021
H14B H 0.2144 0.3380 0.7735
C16B C 0.25834(19) 0.51674(14) 1.03446(16)
C17B C 0.1523(3) 0.5689(3) 0.9803(3)
H15B H 0.1196 0.5394 0.9167
H16B H 0.0948 0.5708 1.0228
H17B H 0.1751 0.6297 0.9669
C18B C 0.2187(3) 0.4237(2) 1.0575(3)
H18B H 0.2856 0.3874 1.0867
H19B H 0.1672 0.4281 1.1052
H20B H 0.1779 0.3959 0.9953
C19B C 0.3099(3) 0.5611(3) 1.1335(2)
H21B H 0.3435 0.6184 1.1205
H22B H 0.2497 0.5707 1.1721
H23B H 0.3698 0.5227 1.1717
N1B N 0.26242(15) 0.46382(12) 0.80741(12)
N2B N 0.30938(15) 0.61312(11) 0.83613(12)
N3B N 0.35140(14) 0.50914(11) 0.97490(12)
N4B N 0.58824(15) 0.31870(13) 0.45495(13)
N5B N 0.30583(15) 0.30337(12) 0.50242(13)
O1B O 0.19193(13) 0.56893(10) 0.69125(10)
C20 C 0.0346(3) 0.3144(2) 0.3383(3)
H24 H 0.1096 0.3290 0.3818
H25 H -0.0215 0.3602 0.3492
Cl1 Cl -0.01102(9) 0.20990(8) 0.37144(11)
Cl2 Cl 0.04809(9) 0.31589(7) 0.21168(7)
C23 C 0.1640(5) 0.5408(4) 0.4600(3)
H30 H 0.2251 0.5501 0.5202
O2 O 0.0770(19) 0.5204(14) 0.4953(15)
C21? C 0.017(5) 0.299(4) 0.283(5)
H26? H -0.0165 0.3591 0.2817
H27? H 0.1012 0.3077 0.3041
Cl3? Cl -0.0292(11) 0.2389(8) 0.4109(9)
Cl4? Cl 0.0027(13) 0.2760(11) 0.1813(11)
C22? C 0.017(5) 0.272(4) 0.335(5)
H28? H 0.0768 0.2663 0.3966
H29? H -0.0441 0.3083 0.3549
Cl5? Cl 0.0882(17) 0.3588(14) 0.2568(15)
Cl6? Cl -0.0360(12) 0.1799(10) 0.3236(11)
H31? H 0.1117 0.4943 0.4763
Cl7? Cl 0.22581(11) 0.50342(7) 0.36284(8)
Cl8? Cl 0.08674(10) 0.63985(10) 0.43260(9)
C24? C 0.1672(19) 0.560(4) 0.438(3)
H32? H 0.2206 0.5386 0.4989
H33? H 0.1847 0.6223 0.4243
Cl9? Cl 0.0251(9) 0.5453(7) 0.4465(8)
Cl10? Cl 0.1699(10) 0.4909(8) 0.3344(9)
C25? C 0.130(3) 0.557(3) 0.415(2)
C26? C 0.74166(19) 0.48326(14) -0.03446(16)
C27? C 0.8631(7) 0.4853(10) 0.0246(8)
C28? C 0.7167(11) 0.5607(7) -0.1098(8)
C29? C 0.7186(9) 0.3972(6) -0.0962(9)
H34? H 0.8785 0.5432 0.0575
H35? H 0.9164 0.4756 -0.0208
H36? H 0.8734 0.4382 0.0755
H37? H 0.7235 0.6172 -0.0732
H38? H 0.6387 0.5547 -0.1496
H39? H 0.7720 0.5594 -0.1544
H40? H 0.7605 0.3990 -0.1514
H41? H 0.6362 0.3918 -0.1236
H42? H 0.7446 0.3460 -0.0530
loop_
_geom_bond_atom_site_label_1
_geom_bond_atom_site_label_2
_geom_bond_site_symmetry_1
_geom_bond_site_symmetry_2
C1 N1 1_555 1_555
C2 H1 1_555 1_555
H2 C2 1_555 1_555
C3 H3 1_555 1_555
H4 C3 1_555 1_555
C4 H5 1_555 1_555
H6 C4 1_555 1_555
C5 C4 1_555 1_555
C6 C5 1_555 1_555
H7 C6 1_555 1_555
C7 C8 1_555 1_555
C8 H8 1_555 1_555
C9 C5 1_555 1_555
H9 C9 1_555 1_555
C10 C7 1_555 1_555
C11 H10 1_555 1_555
C12 C11 1_555 1_555
C13 C12 1_555 1_555
H11 C13 1_555 1_555
C14 C10 1_555 1_555
H12 C14 1_555 1_555
C15 C12 1_555 1_555
H13 C15 1_555 1_555
H14 C15 1_555 1_555
C16 C17 1_555 1_555
C17 H15 1_555 1_555
H16 C17 1_555 1_555
H17 C17 1_555 1_555
C18 C16 1_555 1_555
H18 C18 1_555 1_555
H19 C18 1_555 1_555
H20 C18 1_555 1_555
C19 C16 1_555 1_555
H21 C19 1_555 1_555
H22 C19 1_555 1_555
H23 C19 1_555 1_555
N1 C2 1_555 1_555
N2 C1 1_555 1_555
N3 C2 1_555 1_555
N4 C6 1_555 1_555
N5 C10 1_555 1_555
O1 C1 1_555 1_555
C20 H24 1_555 1_555
H25 C20 1_555 1_555
Cl1 C20 1_555 1_555
Cl2 C20 1_555 1_555
C23 H30 1_555 1_555
O2 C23 1_555 1_555
C1B N1B 1_555 1_555
C2B H1B 1_555 1_555
H2B C2B 1_555 1_555
C3B H3B 1_555 1_555
H4B C3B 1_555 1_555
C4B N2 1_555 1_555
H5B C4B 1_555 1_555
H6B C4B 1_555 1_555
C5B C4B 1_555 1_555
C6B C5B 1_555 1_555
H7B C6B 1_555 1_555
C7B C8B 1_555 1_555
C8B H8B 1_555 1_555
C9B C5B 1_555 1_555
H9B C9B 1_555 1_555
C10B C7B 1_555 1_555
C11B H10B 1_555 1_555
C12B C11B 1_555 1_555
C13B C12B 1_555 1_555
H11B C13B 1_555 1_555
C14B C10B 1_555 1_555
H12B C14B 1_555 1_555
C15B C12B 1_555 1_555
H13B C15B 1_555 1_555
H14B C15B 1_555 1_555
C16B C17B 1_555 1_555
C17B H15B 1_555 1_555
H16B C17B 1_555 1_555
H17B C17B 1_555 1_555
C18B C16B 1_555 1_555
H18B C18B 1_555 1_555
H19B C18B 1_555 1_555
H20B C18B 1_555 1_555
C19B C16B 1_555 1_555
H21B C19B 1_555 1_555
H22B C19B 1_555 1_555
H23B C19B 1_555 1_555
N1B C2B 1_555 1_555
N2B C4 1_555 1_555
N3B C2B 1_555 1_555
N4B C6B 1_555 1_555
N5B C10B 1_555 1_555
O1B C1B 1_555 1_555
C3 N2 1_555 1_555
C3 N3 1_555 1_555
C7 N4 1_555 1_555
C8 C9 1_555 1_555
C11 N5 1_555 1_555
C13 C14 1_555 1_555
C15 N1 1_555 1_555
C16 N3 1_555 1_555
C1B N2B 1_555 1_555
C3B N2B 1_555 1_555
C3B N3B 1_555 1_555
C7B N4B 1_555 1_555
C8B C9B 1_555 1_555
C11B N5B 1_555 1_555
C13B C14B 1_555 1_555
C15B N1B 1_555 1_555
C16B N3B 1_555 1_555

#END
