
#######################################################################
#
#                 Cambridge Crystallographic Data Centre
#                                CCDC 
#
#######################################################################
#
# If this CIF has been generated from an entry in the Cambridge 
# Structural Database, then it will include bibliographic, chemical, 
# crystal, experimental, refinement or atomic coordinate data resulting 
# from the CCDC's data processing and validation procedures.
#
#######################################################################

data_LUXCIS
_chemical_compound_source        
'metabolite from endophyte Nodulisporium sp. A21 in Gingko biloba'
_chemical_name_common            Sporothriolide
_chemical_formula_moiety         'C13 H18 O4'
_chemical_name_systematic        
6-Hexyl-3-methylenetetrahydrofuro[3,4-b]furan-2,4-dione
_chemical_properties_biological  'tested for antifungal activity'
_symmetry_cell_setting           monoclinic
_symmetry_space_group_name_H-M   'P 21'
_symmetry_Int_Tables_number      4
_space_group_name_Hall           'P 2yb'
loop_
_symmetry_equiv_pos_site_id
_symmetry_equiv_pos_as_xyz
1 x,y,z
2 -x,1/2+y,-z
_cell_length_a                   9.7757(15)
_cell_length_b                   7.9601(14)
_cell_length_c                   17.195(3)
_cell_angle_alpha                90
_cell_angle_beta                 95.482(5)
_cell_angle_gamma                90
_cell_volume                     1331.92
_cell_formula_units_Z            4
loop_
_atom_site_label
_atom_site_type_symbol
_atom_site_fract_x
_atom_site_fract_y
_atom_site_fract_z
O1 O 1.1098(3) 1.2376(4) 0.82110(17)
O2 O 0.8036(3) 1.1422(4) 0.7773(2)
O3 O 0.6993(3) 1.3752(5) 0.81158(19)
O4 O 1.1968(3) 1.4949(4) 0.8162(2)
C1 C 1.1110(4) 1.4038(7) 0.8380(2)
C2 C 0.7921(4) 1.2766(7) 0.8224(3)
C3 C 0.9116(4) 1.2853(6) 0.8853(2)
H1 H 0.8824 1.2659 0.9375
C4 C 1.0073(4) 1.1505(5) 0.8620(3)
H2 H 1.0495 1.0894 0.9076
C5 C 0.9186(4) 1.0373(6) 0.8087(3)
H3 H 0.8822 0.9487 0.8405
C6 C 0.9917(4) 1.4424(6) 0.8816(3)
C7 C 0.9686(5) 1.5916(8) 0.9086(3)
H4 H 1.0286 1.6794 0.9008
H5 H 0.8922 1.6104 0.9357
C8 C 0.9822(5) 0.9566(7) 0.7437(3)
H6 H 1.0668 0.9019 0.7641
H7 H 1.0054 1.0422 0.7071
C9 C 0.8864(6) 0.8251(9) 0.7000(4)
H8 H 0.8445 0.7582 0.7384
H9 H 0.8132 0.8845 0.6693
C10 C 0.9501(9) 0.7152(12) 0.6499(5)
H10 H 1.0283 0.6632 0.6795
H11 H 0.9850 0.7813 0.6087
C11 C 0.8616(13) 0.5813(16) 0.6136(7)
H12 H 0.7677 0.6000 0.6035
C12 C 0.8484(15) 0.3154(17) 0.5634(7)
H13 H 0.7950 0.2608 0.6000
H14 H 0.9155 0.2383 0.5470
H15 H 0.7890 0.3512 0.5188
C13 C 0.9102(18) 0.445(2) 0.5964(12)
H16 H 1.0045 0.4334 0.6087
O5 O 0.3192(2) -0.1086(3) 0.84014(16)
O6 O 0.6286(2) -0.2045(4) 0.87631(19)
O7 O 0.2432(3) -0.1258(4) 0.95801(17)
C14 C 0.3196(4) -0.1740(5) 0.9116(3)
C15 C 0.5042(4) -0.3007(6) 0.8520(2)
H17 H 0.5255 -0.4121 0.8321
C16 C 0.4268(4) -0.3113(5) 0.9249(2)
H18 H 0.3858 -0.4222 0.9314
C17 C 0.6504(4) -0.1949(6) 0.9551(3)
C18 C 0.5325(4) -0.2684(5) 0.9899(3)
O8 O 0.7519(3) -0.1276(5) 0.98600(18)
C19 C 0.4097(4) -0.2012(6) 0.7934(2)
H19 H 0.3546 -0.2800 0.7596
C20 C 0.5274(5) -0.2812(6) 1.0652(3)
H20 H 0.6004 -0.2429 1.0993
H21 H 0.4508 -0.3285 1.0849
C21 C 0.4764(4) -0.0763(6) 0.7426(3)
H22 H 0.5379 -0.1362 0.7113
H23 H 0.5315 0.0012 0.7761
C22 C 0.3748(6) 0.0242(9) 0.6885(3)
H24 H 0.3275 -0.0523 0.6511
H25 H 0.3066 0.0725 0.7193
C23 C 0.4373(9) 0.1643(12) 0.6438(5)
H26 H 0.4976 0.2301 0.6801
H27 H 0.4933 0.1149 0.6062
C24 C 0.3375(11) 0.2759(16) 0.6029(6)
H28 H 0.2789 0.3210 0.6403
H29 H 0.2799 0.2105 0.5651
C25 C 0.4002(17) 0.426(2) 0.5592(9)
H30 H 0.4898 0.3964 0.5435
H31 H 0.3406 0.4565 0.5130
C26 C 0.409(3) 0.534(3) 0.6017(13)
H32 H 0.3260 0.5980 0.5968
H33 H 0.4850 0.6042 0.5909
H34 H 0.4253 0.4905 0.6540
loop_
_geom_bond_atom_site_label_1
_geom_bond_atom_site_label_2
_geom_bond_site_symmetry_1
_geom_bond_site_symmetry_2
O1 C1 1_555 1_555
O2 C2 1_555 1_555
O3 C2 1_555 1_555
O4 C1 1_555 1_555
C1 C6 1_555 1_555
C2 C3 1_555 1_555
C3 H1 1_555 1_555
C4 O1 1_555 1_555
H2 C4 1_555 1_555
C5 O2 1_555 1_555
H3 C5 1_555 1_555
C6 C3 1_555 1_555
C7 C6 1_555 1_555
H4 C7 1_555 1_555
H5 C7 1_555 1_555
C8 C5 1_555 1_555
H6 C8 1_555 1_555
H7 C8 1_555 1_555
C9 C8 1_555 1_555
H8 C9 1_555 1_555
H9 C9 1_555 1_555
C10 C9 1_555 1_555
H10 C10 1_555 1_555
H11 C10 1_555 1_555
C11 C10 1_555 1_555
H12 C11 1_555 1_555
C12 H13 1_555 1_555
H14 C12 1_555 1_555
H15 C12 1_555 1_555
C13 C11 1_555 1_555
H16 C13 1_555 1_555
O5 C14 1_555 1_555
O6 C15 1_555 1_555
O7 C14 1_555 1_555
C14 C16 1_555 1_555
C15 H17 1_555 1_555
C16 C15 1_555 1_555
H18 C16 1_555 1_555
C17 O6 1_555 1_555
C18 C16 1_555 1_555
O8 C17 1_555 1_555
C19 O5 1_555 1_555
H19 C19 1_555 1_555
C20 C18 1_555 1_555
H20 C20 1_555 1_555
H21 C20 1_555 1_555
C21 C19 1_555 1_555
H22 C21 1_555 1_555
H23 C21 1_555 1_555
C22 C21 1_555 1_555
H24 C22 1_555 1_555
H25 C22 1_555 1_555
C23 C22 1_555 1_555
H26 C23 1_555 1_555
H27 C23 1_555 1_555
C24 C23 1_555 1_555
H28 C24 1_555 1_555
H29 C24 1_555 1_555
C25 C24 1_555 1_555
H30 C25 1_555 1_555
H31 C25 1_555 1_555
C26 C25 1_555 1_555
H32 C26 1_555 1_555
H33 C26 1_555 1_555
H34 C26 1_555 1_555
C3 C4 1_555 1_555
C4 C5 1_555 1_555
C12 C13 1_555 1_555
C15 C19 1_555 1_555
C17 C18 1_555 1_555

#END
