
#######################################################################
#
#                 Cambridge Crystallographic Data Centre
#                                CCDC 
#
#######################################################################
#
# If this CIF has been generated from an entry in the Cambridge 
# Structural Database, then it will include bibliographic, chemical, 
# crystal, experimental, refinement or atomic coordinate data resulting 
# from the CCDC's data processing and validation procedures.
#
#######################################################################

data_LUXGAO
_chemical_compound_source        'deep-sea fungus Spiromastix sp.'
_chemical_name_common            'Spiromastilactone B'
_chemical_formula_moiety         'C21 H21 Cl3 O6'
_chemical_name_systematic        
(R)-4,6-Dichloro-7-(3-chloro-4,6-dimethoxy-2-propylphenoxy)-3-ethyl-5-hydroxy-2-benzofuran-1(3H)-one
_chemical_properties_biological  'Inhibitory effects against influenza virus'
_symmetry_cell_setting           triclinic
_symmetry_space_group_name_H-M   'P 1'
_symmetry_Int_Tables_number      1
_space_group_name_Hall           'P 1'
loop_
_symmetry_equiv_pos_site_id
_symmetry_equiv_pos_as_xyz
1 x,y,z
_cell_length_a                   8.7255(9)
_cell_length_b                   9.4409(10)
_cell_length_c                   13.0325(16)
_cell_angle_alpha                95.463(9)
_cell_angle_beta                 90.223(9)
_cell_angle_gamma                94.852(8)
_cell_volume                     1064.79
_chemical_melting_point          '206.2-207.8 deg.C'
_cell_formula_units_Z            2
loop_
_atom_site_label
_atom_site_type_symbol
_atom_site_fract_x
_atom_site_fract_y
_atom_site_fract_z
Cl1 Cl 0.50263(8) 0.32799(7) 0.19991(5)
Cl2 Cl 1.10396(8) 0.30006(7) -0.50266(5)
Cl3 Cl 0.65521(8) 0.40415(8) -0.19144(5)
O1 O 0.9289(3) 0.0313(2) -0.50375(15)
O2 O 0.4549(2) 0.3802(2) -0.02148(16)
H1 H 0.3957 0.3595 0.0246
O3 O 0.8312(3) 0.0748(2) -0.13565(15)
O4 O 0.9776(2) 0.3444(2) -0.12176(15)
O5 O 1.0327(3) 0.2924(2) 0.19858(16)
O6 O 1.1787(3) 0.3163(3) 0.05917(17)
C1 C 0.7933(3) 0.3162(3) 0.1267(2)
C2 C 0.9349(3) 0.1018(3) -0.4070(2)
C3 C 0.8633(3) 0.3427(3) -0.0508(2)
C4 C 0.8835(3) 0.1248(3) -0.2245(2)
C5 C 0.7114(4) 0.3643(3) -0.0712(2)
C6 C 0.5976(3) 0.3587(3) 0.0056(2)
C7 C 1.0294(3) 0.3183(3) -0.2999(2)
C8 C 0.8698(3) 0.2851(3) 0.2237(2)
H2 H 0.8516 0.3591 0.2792
C9 C 0.8656(3) 0.0462(3) -0.3213(2)
H3 H 0.8082 -0.0419 -0.3284
C10 C 1.0531(4) 0.3108(3) 0.0965(2)
C11 C 1.0029(4) 0.5792(4) -0.3156(3)
H4 H 0.9529 0.5494 -0.3817
H5 H 0.9235 0.5863 -0.2639
C12 C 0.6416(3) 0.3319(3) 0.1054(2)
C13 C 1.0886(4) 0.7232(4) -0.3201(3)
H6 H 1.1581 0.7196 -0.3770
H7 H 1.1457 0.7493 -0.2570
H8 H 1.0167 0.7928 -0.3290
C14 C 1.1099(4) 0.4662(3) -0.2895(2)
H9 H 1.1974 0.4689 -0.3351
H10 H 1.1482 0.4889 -0.2194
C15 C 0.7415(4) -0.0597(3) -0.1420(2)
H11 H 0.6503 -0.0546 -0.1825
H12 H 0.7133 -0.0823 -0.0740
H13 H 0.8008 -0.1326 -0.1739
C16 C 0.8302(4) -0.0976(3) -0.5215(2)
H14 H 0.8321 -0.1320 -0.5931
H15 H 0.7271 -0.0790 -0.5025
H16 H 0.8653 -0.1682 -0.4806
C17 C 0.9017(3) 0.3231(3) 0.0505(2)
C18 C 0.9588(3) 0.2614(3) -0.2163(2)
C19 C 1.0166(3) 0.2348(3) -0.3945(2)
C20 C 0.8217(4) 0.1376(3) 0.2580(2)
H17 H 0.8823 0.1239 0.3183
H18 H 0.7146 0.1345 0.2781
C21 C 0.8413(5) 0.0151(4) 0.1755(3)
H19 H 0.7735 0.0220 0.1184
H20 H 0.8171 -0.0742 0.2038
H21 H 0.9458 0.0203 0.1524
Cl4 Cl 1.51446(8) 0.68591(7) 0.69599(5)
Cl5 Cl 1.08727(8) 0.60943(7) 0.37947(5)
Cl6 Cl 0.94737(7) 0.70165(7) -0.00940(5)
O7 O 1.4195(2) 0.6565(2) 0.30897(15)
O8 O 1.3572(3) 0.9361(2) 0.31855(15)
O9 O 1.4333(3) 0.9723(2) 0.68984(15)
O10 O 0.8913(2) 0.6432(2) 0.21189(16)
H22 H 0.8356 0.6611 0.1648
O11 O 1.6257(3) 0.6900(2) 0.12816(17)
O12 O 1.4839(2) 0.7238(2) -0.00872(16)
C22 C 1.2403(3) 0.6971(3) 0.0622(2)
C23 C 1.3062(3) 0.6642(3) 0.2383(2)
C24 C 1.1504(3) 0.6472(3) 0.2588(2)
C25 C 1.5013(4) 0.6983(3) 0.0914(2)
C26 C 1.6744(4) 0.3345(4) 0.4832(3)
H23 H 1.6087 0.2741 0.4351
H24 H 1.6493 0.3139 0.5522
H25 H 1.7798 0.3175 0.4699
C27 C 1.4276(3) 0.9014(3) 0.5933(2)
C28 C 1.3479(3) 0.6838(3) 0.1369(2)
C29 C 1.3228(3) 0.7292(3) -0.0345(2)
H26 H 1.2920 0.6549 -0.0902
C30 C 1.6515(4) 0.4911(3) 0.4712(2)
H27 H 1.7131 0.5520 0.5226
H28 H 1.6859 0.5143 0.4036
C31 C 1.4182(3) 0.7401(3) 0.4035(2)
C32 C 1.3699(5) 1.1071(4) 0.7033(2)
H29 H 1.4242 1.1722 0.6611
H30 H 1.3797 1.1446 0.7743
H31 H 1.2632 1.0953 0.6834
C33 C 1.4643(3) 0.7605(3) 0.5849(2)
C34 C 1.4827(3) 0.5192(3) 0.4836(2)
H32 H 1.4244 0.4698 0.4254
H33 H 1.4442 0.4795 0.5454
C35 C 1.2711(4) 1.0595(3) 0.3239(2)
H34 H 1.2436 1.0786 0.2555
H35 H 1.3327 1.1403 0.3569
H36 H 1.1795 1.0420 0.3630
C36 C 1.3865(3) 0.8826(3) 0.4096(2)
C37 C 1.3878(4) 0.9629(3) 0.5051(2)
H37 H 1.3623 1.0569 0.5098
C38 C 1.0857(3) 0.6861(3) 0.0837(2)
C39 C 1.0376(3) 0.6593(3) 0.1836(2)
C40 C 1.4556(3) 0.6752(3) 0.4907(2)
C41 C 1.3014(4) 0.8772(3) -0.0701(2)
H38 H 1.3641 0.8905 -0.1303
H39 H 1.1947 0.8805 -0.0902
C42 C 1.3449(5) 0.9993(4) 0.0129(3)
H40 H 1.3251 1.0883 -0.0124
H41 H 1.4521 1.0005 0.0300
H42 H 1.2847 0.9858 0.0733
loop_
_geom_bond_atom_site_label_1
_geom_bond_atom_site_label_2
_geom_bond_site_symmetry_1
_geom_bond_site_symmetry_2
Cl1 C12 1_555 1_555
Cl2 C19 1_555 1_555
Cl3 C5 1_555 1_555
O1 C2 1_555 1_555
O2 H1 1_555 1_555
O3 C4 1_555 1_555
O4 C3 1_555 1_555
O5 C8 1_555 1_555
O6 C10 1_555 1_555
C1 C8 1_555 1_555
C2 C9 1_555 1_555
C3 C5 1_555 1_555
C4 C9 1_555 1_555
C5 C6 1_555 1_555
C6 O2 1_555 1_555
C7 C14 1_555 1_555
C8 H2 1_555 1_555
C9 H3 1_555 1_555
C10 O5 1_555 1_555
C11 H4 1_555 1_555
H5 C11 1_555 1_555
C12 C1 1_555 1_555
C13 C11 1_555 1_555
H6 C13 1_555 1_555
H7 C13 1_555 1_555
H8 C13 1_555 1_555
C14 C11 1_555 1_555
H9 C14 1_555 1_555
H10 C14 1_555 1_555
C15 O3 1_555 1_555
H11 C15 1_555 1_555
H12 C15 1_555 1_555
H13 C15 1_555 1_555
C16 O1 1_555 1_555
H14 C16 1_555 1_555
H15 C16 1_555 1_555
H16 C16 1_555 1_555
C17 C1 1_555 1_555
C18 O4 1_555 1_555
C19 C2 1_555 1_555
C20 C8 1_555 1_555
H17 C20 1_555 1_555
H18 C20 1_555 1_555
C21 C20 1_555 1_555
H19 C21 1_555 1_555
H20 C21 1_555 1_555
H21 C21 1_555 1_555
Cl4 C33 1_555 1_555
Cl5 C24 1_555 1_555
Cl6 C38 1_555 1_555
O7 C23 1_555 1_555
O8 C35 1_555 1_555
O9 C27 1_555 1_555
O10 H22 1_555 1_555
O11 C25 1_555 1_555
O12 C25 1_555 1_555
C22 C28 1_555 1_555
C23 C24 1_555 1_555
C24 C39 1_555 1_555
C25 C28 1_555 1_555
C26 H23 1_555 1_555
H24 C26 1_555 1_555
H25 C26 1_555 1_555
C27 C33 1_555 1_555
C28 C23 1_555 1_555
C29 O12 1_555 1_555
H26 C29 1_555 1_555
C30 C26 1_555 1_555
H27 C30 1_555 1_555
H28 C30 1_555 1_555
C31 O7 1_555 1_555
C32 O9 1_555 1_555
H29 C32 1_555 1_555
H30 C32 1_555 1_555
H31 C32 1_555 1_555
C33 C40 1_555 1_555
C34 C30 1_555 1_555
H32 C34 1_555 1_555
H33 C34 1_555 1_555
C35 H34 1_555 1_555
H35 C35 1_555 1_555
H36 C35 1_555 1_555
C36 O8 1_555 1_555
C37 C27 1_555 1_555
H37 C37 1_555 1_555
C38 C22 1_555 1_555
C39 O10 1_555 1_555
C40 C31 1_555 1_555
C41 C29 1_555 1_555
H38 C41 1_555 1_555
H39 C41 1_555 1_555
C42 C41 1_555 1_555
H40 C42 1_555 1_555
H41 C42 1_555 1_555
H42 C42 1_555 1_555
C3 C17 1_555 1_555
C4 C18 1_555 1_555
C6 C12 1_555 1_555
C7 C18 1_555 1_555
C7 C19 1_555 1_555
C10 C17 1_555 1_555
C22 C29 1_555 1_555
C31 C36 1_555 1_555
C34 C40 1_555 1_555
C36 C37 1_555 1_555
C38 C39 1_555 1_555

#END
