
#######################################################################
#
#                 Cambridge Crystallographic Data Centre
#                                CCDC 
#
#######################################################################
#
# If this CIF has been generated from an entry in the Cambridge 
# Structural Database, then it will include bibliographic, chemical, 
# crystal, experimental, refinement or atomic coordinate data resulting 
# from the CCDC's data processing and validation procedures.
#
#######################################################################

data_LUXGER
_chemical_formula_moiety         'C12 H23 N2 P1'
_chemical_name_systematic        
'P,P-Di-t-butyl-N-(1-cyanoprop-1-en-2-yl)phosphinous amide'
_symmetry_cell_setting           orthorhombic
_symmetry_space_group_name_H-M   'C m c 21'
_symmetry_Int_Tables_number      36
_space_group_name_Hall           'C 2n -2'
loop_
_symmetry_equiv_pos_site_id
_symmetry_equiv_pos_as_xyz
1 x,y,z
2 -x,-y,1/2+z
3 x,-y,1/2+z
4 -x,y,z
5 1/2+x,1/2+y,z
6 1/2-x,1/2-y,1/2+z
7 1/2+x,1/2-y,1/2+z
8 1/2-x,1/2+y,z
_cell_length_a                   10.9903(2)
_cell_length_b                   12.2569(3)
_cell_length_c                   10.5191(2)
_cell_angle_alpha                90
_cell_angle_beta                 90
_cell_angle_gamma                90
_cell_volume                     1417
_exptl_crystal_colour            colorless
_exptl_crystal_description       block
_cell_formula_units_Z            4
loop_
_atom_site_label
_atom_site_type_symbol
_atom_site_fract_x
_atom_site_fract_y
_atom_site_fract_z
P1 P 1.0000 0.87553(4) 0.05778(5)
N1 N 1.0000 0.73469(14) 0.0615(3)
H1 H 1.0000 0.702(3) 0.132(4)
C1 C 1.0000 0.66658(19) -0.0412(2)
C2 C 1.0000 0.7168(2) -0.1698(3)
H2 H 0.930(2) 0.7604(19) -0.184(2)
H3 H 1.0000 0.665(3) -0.239(3)
C3 C 1.0000 0.55715(19) -0.0245(2)
H4 H 1.0000 0.527(2) 0.060(4)
C4 C 1.0000 0.4823(2) -0.1248(3)
N2 N 1.0000 0.4189(2) -0.2050(2)
C5 C 0.85797(16) 0.90518(15) 0.15041(19)
C6 C 0.75566(17) 0.8617(2) 0.0670(4)
H5 H 0.7614 0.8941 -0.0169
H6 H 0.6778 0.8803 0.1048
H7 H 0.7626 0.7830 0.0601
C7 C 0.8470(2) 0.8521(3) 0.2803(2)
H8 H 0.7663 0.8653 0.3143
H9 H 0.9074 0.8829 0.3371
H10 H 0.8603 0.7741 0.2724
C8 C 0.8435(3) 1.02827(19) 0.1619(4)
H11 H 0.7610 1.0453 0.1878
H12 H 0.8601 1.0620 0.0803
H13 H 0.9002 1.0559 0.2248
H2C H 1.070(2) 0.7604(19) -0.184(2)
C5C C 1.14203(16) 0.90518(15) 0.15041(19)
C6C C 1.24434(17) 0.8617(2) 0.0670(4)
H5C H 1.2386 0.8941 -0.0169
H6C H 1.3222 0.8803 0.1048
H7C H 1.2374 0.7830 0.0601
C7C C 1.1530(2) 0.8521(3) 0.2803(2)
H8C H 1.2337 0.8653 0.3143
H9C H 1.0926 0.8829 0.3371
H10C H 1.1397 0.7741 0.2724
C8C C 1.1565(3) 1.02827(19) 0.1619(4)
H11C H 1.2390 1.0453 0.1878
H12C H 1.1399 1.0620 0.0803
H13C H 1.0998 1.0559 0.2248
loop_
_geom_bond_atom_site_label_1
_geom_bond_atom_site_label_2
_geom_bond_site_symmetry_1
_geom_bond_site_symmetry_2
P1 N1 1_555 1_555
N1 H1 1_555 1_555
C1 N1 1_555 1_555
C2 C1 1_555 1_555
H2 C2 1_555 1_555
H3 C2 1_555 1_555
C3 C1 1_555 1_555
H4 C3 1_555 1_555
C4 C3 1_555 1_555
N2 C4 1_555 1_555
C5 P1 1_555 1_555
C6 C5 1_555 1_555
H5 C6 1_555 1_555
H6 C6 1_555 1_555
H7 C6 1_555 1_555
C7 C5 1_555 1_555
H8 C7 1_555 1_555
H9 C7 1_555 1_555
H10 C7 1_555 1_555
C8 C5 1_555 1_555
H11 C8 1_555 1_555
H12 C8 1_555 1_555
H13 C8 1_555 1_555
H2C C2 1_555 1_555
C5C P1 1_555 1_555
C6C C5C 1_555 1_555
H5C C6C 1_555 1_555
H6C C6C 1_555 1_555
H7C C6C 1_555 1_555
C7C C5C 1_555 1_555
H8C C7C 1_555 1_555
H9C C7C 1_555 1_555
H10C C7C 1_555 1_555
C8C C5C 1_555 1_555
H11C C8C 1_555 1_555
H12C C8C 1_555 1_555
H13C C8C 1_555 1_555

#END
