
#######################################################################
#
#                 Cambridge Crystallographic Data Centre
#                                CCDC 
#
#######################################################################
#
# If this CIF has been generated from an entry in the Cambridge 
# Structural Database, then it will include bibliographic, chemical, 
# crystal, experimental, refinement or atomic coordinate data resulting 
# from the CCDC's data processing and validation procedures.
#
#######################################################################

data_LUXHUI
_chemical_formula_moiety         'C17 H24 N1 1+,Br1 1-'
_chemical_name_systematic        
'7a-(3-Phenylprop-2-en-1-yl)octahydro-1H-cyclopenta[b]pyridinium bromide'
_symmetry_cell_setting           orthorhombic
_symmetry_space_group_name_H-M   'P 21 21 21'
_symmetry_Int_Tables_number      19
_space_group_name_Hall           'P 2ac 2ab'
loop_
_symmetry_equiv_pos_site_id
_symmetry_equiv_pos_as_xyz
1 x,y,z
2 1/2-x,-y,1/2+z
3 -x,1/2+y,1/2-z
4 1/2+x,1/2-y,-z
_cell_length_a                   7.3944(5)
_cell_length_b                   9.7049(7)
_cell_length_c                   21.9189(15)
_cell_angle_alpha                90
_cell_angle_beta                 90
_cell_angle_gamma                90
_cell_volume                     1572.94
_exptl_crystal_colour            colorless
_exptl_crystal_description       prism
_cell_formula_units_Z            4
loop_
_atom_site_label
_atom_site_type_symbol
_atom_site_fract_x
_atom_site_fract_y
_atom_site_fract_z
Br1 Br 0.148576(19) 0.574496(15) 0.035065(8)
N1 N 0.04188(16) -0.09879(12) 0.03221(6)
C1 C 0.09845(19) -0.01372(15) 0.08639(6)
C2 C 0.1375(2) -0.07035(15) -0.02676(6)
C3 C 0.1270(2) 0.08146(15) -0.04179(6)
C4 C 0.2087(2) 0.16654(16) 0.00961(7)
C5 C 0.1130(2) 0.14080(15) 0.07055(7)
C6 C 0.2276(3) 0.19607(18) 0.12336(7)
C7 C 0.3673(3) 0.0827(2) 0.13574(8)
C8 C 0.2903(2) -0.05155(17) 0.10810(7)
C9 C -0.0451(2) -0.03625(16) 0.13634(7)
C10 C -0.0761(2) -0.18384(17) 0.15373(7)
C11 C -0.2377(2) -0.23999(17) 0.16079(7)
C12 C -0.2759(2) -0.38257(17) 0.18004(7)
C13 C -0.1415(3) -0.47765(19) 0.19295(8)
C14 C -0.1863(4) -0.6104(2) 0.21045(9)
C15 C -0.3648(4) -0.6500(2) 0.21585(8)
C16 C -0.4998(3) -0.5574(3) 0.20316(8)
C17 C -0.4573(3) -0.4250(2) 0.18506(7)
H1 H 0.057(2) -0.185(2) 0.0415(8)
H2 H -0.073(3) -0.088(2) 0.0250(9)
H3 H 0.260(3) -0.1041(19) -0.0200(7)
H4 H 0.085(2) -0.1282(19) -0.0560(8)
H5 H 0.189(3) 0.098(2) -0.0773(9)
H6 H 0.004(3) 0.106(2) -0.0492(8)
H7 H 0.322(3) 0.1438(18) 0.0123(7)
H8 H 0.195(3) 0.262(2) 0.0001(9)
H9 H -0.007(3) 0.180(2) 0.0683(9)
H10 H 0.153(3) 0.213(2) 0.1577(10)
H11 H 0.287(3) 0.285(2) 0.1139(9)
H12 H 0.386(3) 0.072(3) 0.1784(11)
H13 H 0.470(4) 0.103(3) 0.1142(12)
H14 H 0.363(3) -0.0799(19) 0.0772(9)
H15 H 0.290(2) -0.1281(19) 0.1361(8)
H16 H -0.163(3) 0.0032(19) 0.1202(8)
H17 H 0.002(3) 0.014(2) 0.1732(9)
H18 H 0.023(3) -0.238(2) 0.1605(8)
H19 H -0.351(4) -0.186(3) 0.1526(10)
H20 H -0.021(3) -0.451(2) 0.1917(10)
H21 H -0.107(3) -0.669(3) 0.2162(10)
H22 H -0.386(3) -0.739(3) 0.2275(11)
H23 H -0.617(4) -0.577(3) 0.2040(12)
H24 H -0.557(3) -0.363(3) 0.1746(11)
loop_
_geom_bond_atom_site_label_1
_geom_bond_atom_site_label_2
_geom_bond_site_symmetry_1
_geom_bond_site_symmetry_2
N1 C1 1_555 1_555
C1 C5 1_555 1_555
C2 N1 1_555 1_555
C3 C2 1_555 1_555
C4 C3 1_555 1_555
C5 C4 1_555 1_555
C6 C5 1_555 1_555
C7 C6 1_555 1_555
C8 C1 1_555 1_555
C9 C1 1_555 1_555
C10 C9 1_555 1_555
C11 C10 1_555 1_555
C12 C11 1_555 1_555
C13 C12 1_555 1_555
C14 C13 1_555 1_555
C15 C14 1_555 1_555
C16 C15 1_555 1_555
C17 C12 1_555 1_555
H1 N1 1_555 1_555
H2 N1 1_555 1_555
H3 C2 1_555 1_555
H4 C2 1_555 1_555
H5 C3 1_555 1_555
H6 C3 1_555 1_555
H7 C4 1_555 1_555
H8 C4 1_555 1_555
H9 C5 1_555 1_555
H10 C6 1_555 1_555
H11 C6 1_555 1_555
H12 C7 1_555 1_555
H13 C7 1_555 1_555
H14 C8 1_555 1_555
H15 C8 1_555 1_555
H16 C9 1_555 1_555
H17 C9 1_555 1_555
H18 C10 1_555 1_555
H19 C11 1_555 1_555
H20 C13 1_555 1_555
H21 C14 1_555 1_555
H22 C15 1_555 1_555
H23 C16 1_555 1_555
H24 C17 1_555 1_555
C7 C8 1_555 1_555
C16 C17 1_555 1_555

#END
