
#######################################################################
#
#                 Cambridge Crystallographic Data Centre
#                                CCDC 
#
#######################################################################
#
# If this CIF has been generated from an entry in the Cambridge 
# Structural Database, then it will include bibliographic, chemical, 
# crystal, experimental, refinement or atomic coordinate data resulting 
# from the CCDC's data processing and validation procedures.
#
#######################################################################

data_LUXJOF
_chemical_formula_moiety         'C18 H17 F3 N2 O1'
_chemical_name_systematic        
N-(Cyclopentoxy)-1-(pyridin-2-yl)-1-(4-(trifluoromethyl)phenyl)methanimine
_symmetry_cell_setting           triclinic
_symmetry_space_group_name_H-M   'P -1'
_symmetry_Int_Tables_number      2
_space_group_name_Hall           '-P 1'
loop_
_symmetry_equiv_pos_site_id
_symmetry_equiv_pos_as_xyz
1 x,y,z
2 -x,-y,-z
_cell_length_a                   10.5713(10)
_cell_length_b                   11.4609(11)
_cell_length_c                   14.6456(14)
_cell_angle_alpha                68.4160(10)
_cell_angle_beta                 74.4730(10)
_cell_angle_gamma                83.5590(10)
_cell_volume                     1589.58
_exptl_crystal_colour            colorless
_exptl_crystal_description       prism
_cell_formula_units_Z            4
_exptl_crystal_recrystallization_method N,N-dimethylformamide
_exptl_crystal_preparation       Luminescent
loop_
_atom_site_label
_atom_site_type_symbol
_atom_site_fract_x
_atom_site_fract_y
_atom_site_fract_z
F1 F 0.25024(7) 0.39979(7) 0.11375(6)
F2 F 0.10622(8) 0.28545(7) 0.24102(6)
F3 F 0.04575(8) 0.42192(8) 0.11280(6)
O1 O -0.06259(8) 0.88694(7) 0.24634(6)
N1 N -0.01058(10) 0.88167(9) 0.32628(7)
N2 N 0.20777(9) 0.66909(9) 0.45605(7)
C1 C 0.12925(11) 0.40241(11) 0.17220(9)
C2 C 0.11386(11) 0.49903(10) 0.22087(8)
C3 C 0.19096(12) 0.60503(11) 0.17430(9)
H1 H 0.2551 0.6155 0.1125
C4 C 0.17375(13) 0.69579(11) 0.21864(9)
H2 H 0.2271 0.7681 0.1874
C5 C 0.07894(11) 0.68162(10) 0.30841(8)
C6 C 0.05888(11) 0.78156(10) 0.35419(8)
C7 C -0.14448(11) 0.99962(10) 0.22016(9)
H3 H -0.2188 0.9992 0.2792
C8 C -0.06543(12) 1.12000(10) 0.17903(9)
H4 H 0.0151 1.1049 0.2043
H5 H -0.1185 1.1871 0.1995
C9 C -0.03073(12) 1.15621(11) 0.06378(9)
H6 H 0.0466 1.1078 0.0405
H7 H -0.0129 1.2470 0.0292
C10 C 0.02000(11) 0.48339(11) 0.31097(9)
H8 H -0.0321 0.4102 0.3428
C11 C 0.00219(11) 0.57492(11) 0.35472(9)
H9 H -0.0624 0.5645 0.4163
C12 C -0.19568(12) 0.99675(11) 0.13193(9)
H10 H -0.1562 0.9251 0.1112
H11 H -0.2924 0.9888 0.1520
C13 C -0.15491(12) 1.12158(11) 0.04513(9)
H12 H -0.1361 1.1113 -0.0215
H13 H -0.2245 1.1866 0.0477
C14 C 0.12566(11) 0.76804(10) 0.43508(8)
C15 C 0.27487(12) 0.65688(11) 0.52533(9)
H14 H 0.3335 0.5873 0.5406
C16 C 0.26291(13) 0.74061(12) 0.57553(9)
H15 H 0.3131 0.7292 0.6232
C17 C 0.17604(15) 0.84141(12) 0.55461(10)
H16 H 0.1646 0.8997 0.5886
C18 C 0.10628(14) 0.85573(12) 0.48340(10)
H17 H 0.0463 0.9240 0.4677
F4 F 0.63556(8) 0.31068(7) 0.20767(6)
F5 F 0.78581(7) 0.42416(7) 0.08604(6)
F6 F 0.58409(8) 0.44703(7) 0.07579(6)
O2 O 0.43972(8) 0.90375(7) 0.22886(6)
N3 N 0.48260(9) 0.88887(9) 0.31505(7)
N4 N 0.66359(10) 0.65938(9) 0.46870(7)
C19 C 0.66204(11) 0.42792(11) 0.13926(9)
C20 C 0.63863(11) 0.52419(10) 0.18922(8)
C21 C 0.74206(11) 0.58363(10) 0.19527(9)
H18 H 0.8301 0.5662 0.1653
C22 C 0.71556(11) 0.66906(10) 0.24572(9)
H19 H 0.7859 0.7088 0.2512
C23 C 0.58647(11) 0.69641(10) 0.28811(8)
C24 C 0.55573(11) 0.79026(10) 0.33999(8)
C25 C 0.35827(11) 1.01673(10) 0.20595(9)
H20 H 0.2822 1.0128 0.2648
C26 C 0.31125(11) 1.02215(11) 0.11357(9)
H21 H 0.3521 0.9532 0.0896
H22 H 0.2146 1.0143 0.1314
C27 C 0.35315(13) 1.14980(11) 0.03138(9)
H23 H 0.3752 1.1442 -0.0370
H24 H 0.2829 1.2140 0.0351
C28 C 0.60963(11) 0.77238(10) 0.42865(8)
C29 C 0.71245(13) 0.64062(12) 0.54895(9)
H25 H 0.7516 0.5613 0.5777
C30 C 0.70870(14) 0.73071(12) 0.59190(10)
H26 H 0.7441 0.7131 0.6488
C31 C 0.65228(13) 0.84719(12) 0.55024(10)
H27 H 0.6479 0.9106 0.5783
C32 C 0.60249(12) 0.86902(11) 0.46699(9)
H28 H 0.5642 0.9481 0.4364
C33 C 0.43727(12) 1.13594(11) 0.17187(9)
H29 H 0.3835 1.2005 0.1956
H30 H 0.5168 1.1175 0.1986
C34 C 0.47458(13) 1.18059(12) 0.05610(9)
H31 H 0.5533 1.1349 0.0311
H32 H 0.4916 1.2718 0.0260
C35 C 0.48343(11) 0.63574(12) 0.28155(10)
H33 H 0.3952 0.6538 0.3106
C36 C 0.50981(11) 0.54947(12) 0.23282(10)
H34 H 0.4397 0.5075 0.2292
loop_
_geom_bond_atom_site_label_1
_geom_bond_atom_site_label_2
_geom_bond_site_symmetry_1
_geom_bond_site_symmetry_2
F1 C1 1_555 1_555
F2 C1 1_555 1_555
F3 C1 1_555 1_555
O1 N1 1_555 1_555
N1 C6 1_555 1_555
N2 C14 1_555 1_555
C1 C2 1_555 1_555
C2 C3 1_555 1_555
C3 H1 1_555 1_555
C4 C3 1_555 1_555
H2 C4 1_555 1_555
C5 C4 1_555 1_555
C6 C5 1_555 1_555
C7 O1 1_555 1_555
H3 C7 1_555 1_555
C8 C7 1_555 1_555
H4 C8 1_555 1_555
H5 C8 1_555 1_555
C9 C8 1_555 1_555
H6 C9 1_555 1_555
H7 C9 1_555 1_555
C10 C2 1_555 1_555
H8 C10 1_555 1_555
C11 C5 1_555 1_555
H9 C11 1_555 1_555
C12 C7 1_555 1_555
H10 C12 1_555 1_555
H11 C12 1_555 1_555
C13 C9 1_555 1_555
H12 C13 1_555 1_555
H13 C13 1_555 1_555
C14 C6 1_555 1_555
C15 N2 1_555 1_555
H14 C15 1_555 1_555
C16 C15 1_555 1_555
H15 C16 1_555 1_555
C17 C16 1_555 1_555
H16 C17 1_555 1_555
C18 C14 1_555 1_555
H17 C18 1_555 1_555
F4 C19 1_555 1_555
F5 C19 1_555 1_555
F6 C19 1_555 1_555
O2 N3 1_555 1_555
N3 C24 1_555 1_555
N4 C28 1_555 1_555
C19 C20 1_555 1_555
C20 C21 1_555 1_555
C21 H18 1_555 1_555
C22 C21 1_555 1_555
H19 C22 1_555 1_555
C23 C22 1_555 1_555
C24 C23 1_555 1_555
C25 O2 1_555 1_555
H20 C25 1_555 1_555
C26 C25 1_555 1_555
H21 C26 1_555 1_555
H22 C26 1_555 1_555
C27 C26 1_555 1_555
H23 C27 1_555 1_555
H24 C27 1_555 1_555
C28 C24 1_555 1_555
C29 N4 1_555 1_555
H25 C29 1_555 1_555
C30 C29 1_555 1_555
H26 C30 1_555 1_555
C31 C30 1_555 1_555
H27 C31 1_555 1_555
C32 C28 1_555 1_555
H28 C32 1_555 1_555
C33 C25 1_555 1_555
H29 C33 1_555 1_555
H30 C33 1_555 1_555
C34 C27 1_555 1_555
H31 C34 1_555 1_555
H32 C34 1_555 1_555
C35 C23 1_555 1_555
H33 C35 1_555 1_555
C36 C20 1_555 1_555
H34 C36 1_555 1_555
C10 C11 1_555 1_555
C12 C13 1_555 1_555
C17 C18 1_555 1_555
C31 C32 1_555 1_555
C33 C34 1_555 1_555
C35 C36 1_555 1_555

#END
