
#######################################################################
#
#                 Cambridge Crystallographic Data Centre
#                                CCDC 
#
#######################################################################
#
# If this CIF has been generated from an entry in the Cambridge 
# Structural Database, then it will include bibliographic, chemical, 
# crystal, experimental, refinement or atomic coordinate data resulting 
# from the CCDC's data processing and validation procedures.
#
#######################################################################

data_LUXJUK
_chemical_name_common            
bis(mu!2$-Hydrido)-(1-t-butyl-1,2-azaboracyclohexane)-(18-crown-6)-potassium
_chemical_formula_moiety         'C20 H43 B1 K1 N1 O6'
_chemical_name_systematic        
bis(\m~2~-Hydrido)-(1-t-butyl-1,2-azaboracyclohexane)-(1,4,7,10,13,16-hexaoxacyclo-octadecane)-potassium
_symmetry_cell_setting           monoclinic
_symmetry_space_group_name_H-M   'P 21/c'
_symmetry_Int_Tables_number      14
_space_group_name_Hall           '-P 2ybc'
loop_
_symmetry_equiv_pos_site_id
_symmetry_equiv_pos_as_xyz
1 x,y,z
2 -x,1/2+y,1/2-z
3 -x,-y,-z
4 x,1/2-y,1/2+z
_cell_length_a                   9.883(5)
_cell_length_b                   11.830(6)
_cell_length_c                   22.453(10)
_cell_angle_alpha                90
_cell_angle_beta                 92.087(8)
_cell_angle_gamma                90
_cell_volume                     2623.37
_exptl_crystal_colour            colorless
_exptl_crystal_description       block
_cell_formula_units_Z            4
loop_
_atom_site_label
_atom_site_type_symbol
_atom_site_fract_x
_atom_site_fract_y
_atom_site_fract_z
K1 K 0.80293(7) 0.98707(6) 0.80070(4)
O1 O 0.9665(4) 1.0963(3) 0.89292(14)
O2 O 1.0669(3) 0.9151(3) 0.82731(17)
O3 O 0.9523(3) 0.8644(3) 0.71511(16)
O4 O 0.6903(3) 0.9488(3) 0.68541(13)
O5 O 0.6041(3) 1.1397(3) 0.74868(18)
O6 O 0.7003(4) 1.1728(2) 0.86335(17)
N1 N 0.6807(3) 0.6990(2) 0.92037(13)
B1 B 0.6931(4) 0.8016(3) 0.8782(2)
C1 C 0.6362(6) 0.7375(5) 0.9783(2)
C2 C 0.5013(6) 0.7999(5) 0.9742(3)
C3 C 0.5058(5) 0.9038(4) 0.9351(2)
C4 C 0.5479(4) 0.8690(4) 0.8733(2)
C5 C 0.7980(5) 0.6188(3) 0.9247(2)
C6 C 0.9283(7) 0.6776(5) 0.9479(4)
H1 H 0.9492 0.7409 0.9216
H2 H 1.0033 0.6234 0.9486
H3 H 0.9154 0.7059 0.9883
C7 C 0.7637(9) 0.5179(4) 0.9654(3)
H4 H 0.6807 0.4810 0.9500
H5 H 0.7502 0.5453 1.0059
H6 H 0.8385 0.4634 0.9659
C8 C 0.8212(5) 0.5688(4) 0.8642(2)
H7 H 0.8441 0.6292 0.8365
H8 H 0.7387 0.5304 0.8495
H9 H 0.8958 0.5144 0.8673
C9 C 1.0637(10) 1.0178(7) 0.9165(4)
C10 C 1.1473(7) 0.9768(7) 0.8689(5)
C11 C 1.1415(7) 0.8601(7) 0.7818(4)
C12 C 1.0439(8) 0.7921(6) 0.7462(4)
C13 C 0.8544(8) 0.8089(7) 0.6761(4)
C14 C 0.7694(9) 0.8936(9) 0.6442(3)
C15 C 0.6075(9) 1.0385(6) 0.6592(3)
C16 C 0.5215(7) 1.0863(6) 0.7053(4)
C17 C 0.5220(6) 1.1922(6) 0.7931(4)
C18 C 0.6106(8) 1.2515(5) 0.8359(5)
C19 C 0.7861(9) 1.2208(6) 0.9103(3)
C20 C 0.8732(9) 1.1318(7) 0.9358(3)
H10 H 0.634(5) 0.678(4) 1.005(2)
H11 H 0.727(3) 0.775(3) 0.8335(16)
H12 H 0.705(4) 0.794(3) 1.0001(17)
H13 H 0.431(5) 0.732(5) 0.957(2)
H14 H 0.774(3) 0.868(3) 0.8975(15)
H15 H 0.470(5) 0.824(4) 1.015(2)
H16 H 0.582(4) 0.964(3) 0.9547(18)
H17 H 0.420(6) 0.946(5) 0.938(2)
H18 H 0.548(4) 0.931(4) 0.8429(18)
H19 H 0.473(4) 0.819(3) 0.8544(17)
H20 H 1.125(9) 1.049(7) 0.949(4)
H21 H 1.015(5) 0.954(5) 0.930(2)
H22 H 1.218(7) 0.914(6) 0.877(3)
H23 H 1.186(5) 1.034(4) 0.840(2)
H24 H 1.212(7) 0.813(6) 0.809(3)
H25 H 1.179(5) 0.922(5) 0.755(2)
H26 H 1.086(5) 0.748(4) 0.719(2)
H27 H 1.000(5) 0.742(4) 0.773(2)
H28 H 0.811(6) 0.759(5) 0.707(3)
H29 H 0.900(5) 0.769(4) 0.651(2)
H30 H 0.839(6) 0.952(5) 0.626(2)
H31 H 0.710(6) 0.856(5) 0.613(3)
H32 H 0.551(6) 1.011(5) 0.627(3)
H33 H 0.665(6) 1.100(5) 0.647(2)
H34 H 0.466(4) 1.026(4) 0.726(2)
H35 H 0.457(6) 1.151(6) 0.686(3)
H36 H 0.474(5) 1.134(5) 0.811(2)
H37 H 0.460(5) 1.240(4) 0.768(2)
H38 H 0.658(5) 1.314(4) 0.815(2)
H39 H 0.565(8) 1.291(6) 0.867(4)
H40 H 0.833(5) 1.285(4) 0.894(2)
H41 H 0.742(8) 1.252(6) 0.938(4)
H42 H 0.938(5) 1.160(5) 0.971(3)
H43 H 0.815(5) 1.072(5) 0.949(2)
loop_
_geom_bond_atom_site_label_1
_geom_bond_atom_site_label_2
_geom_bond_site_symmetry_1
_geom_bond_site_symmetry_2
K1 O1 1_555 1_555
O1 C9 1_555 1_555
O2 K1 1_555 1_555
O3 K1 1_555 1_555
O4 K1 1_555 1_555
O5 K1 1_555 1_555
O6 K1 1_555 1_555
N1 B1 1_555 1_555
B1 C4 1_555 1_555
C1 N1 1_555 1_555
C2 C1 1_555 1_555
C3 C2 1_555 1_555
C4 C3 1_555 1_555
C5 N1 1_555 1_555
C6 C5 1_555 1_555
H1 C6 1_555 1_555
H2 C6 1_555 1_555
H3 C6 1_555 1_555
C7 C5 1_555 1_555
H4 C7 1_555 1_555
H5 C7 1_555 1_555
H6 C7 1_555 1_555
C8 C5 1_555 1_555
H7 C8 1_555 1_555
H8 C8 1_555 1_555
H9 C8 1_555 1_555
C9 C10 1_555 1_555
C10 O2 1_555 1_555
C11 O2 1_555 1_555
C12 O3 1_555 1_555
C13 O3 1_555 1_555
C14 O4 1_555 1_555
C15 O4 1_555 1_555
C16 O5 1_555 1_555
C17 O5 1_555 1_555
C18 O6 1_555 1_555
C19 O6 1_555 1_555
C20 O1 1_555 1_555
H10 C1 1_555 1_555
H11 K1 1_555 1_555
H12 C1 1_555 1_555
H13 C2 1_555 1_555
H14 K1 1_555 1_555
H15 C2 1_555 1_555
H16 C3 1_555 1_555
H17 C3 1_555 1_555
H18 C4 1_555 1_555
H19 C4 1_555 1_555
H20 C9 1_555 1_555
H21 C9 1_555 1_555
H22 C10 1_555 1_555
H23 C10 1_555 1_555
H24 C11 1_555 1_555
H25 C11 1_555 1_555
H26 C12 1_555 1_555
H27 C12 1_555 1_555
H28 C13 1_555 1_555
H29 C13 1_555 1_555
H30 C14 1_555 1_555
H31 C14 1_555 1_555
H32 C15 1_555 1_555
H33 C15 1_555 1_555
H34 C16 1_555 1_555
H35 C16 1_555 1_555
H36 C17 1_555 1_555
H37 C17 1_555 1_555
H38 C18 1_555 1_555
H39 C18 1_555 1_555
H40 C19 1_555 1_555
H41 C19 1_555 1_555
H42 C20 1_555 1_555
H43 C20 1_555 1_555
B1 H11 1_555 1_555
B1 H14 1_555 1_555
C11 C12 1_555 1_555
C13 C14 1_555 1_555
C15 C16 1_555 1_555
C17 C18 1_555 1_555
C19 C20 1_555 1_555

#END
