
#######################################################################
#
#                 Cambridge Crystallographic Data Centre
#                                CCDC 
#
#######################################################################
#
# If this CIF has been generated from an entry in the Cambridge 
# Structural Database, then it will include bibliographic, chemical, 
# crystal, experimental, refinement or atomic coordinate data resulting 
# from the CCDC's data processing and validation procedures.
#
#######################################################################

data_LUXRUS
_chemical_formula_moiety         
'C48 H48 N32 O16,C12 H30 N2 2+,O4 S1 2-,13.76(H2 O1)'
_chemical_name_systematic        
'1,12-dodecanediammonium cucurbit(8)uril clathrate sulfonate hydrate'
_symmetry_cell_setting           monoclinic
_symmetry_space_group_name_H-M   'P 21'
_symmetry_Int_Tables_number      4
_space_group_name_Hall           'P 2yb'
loop_
_symmetry_equiv_pos_site_id
_symmetry_equiv_pos_as_xyz
1 x,y,z
2 -x,1/2+y,-z
_cell_length_a                   13.171(3)
_cell_length_b                   20.825(4)
_cell_length_c                   15.453(3)
_cell_angle_alpha                90
_cell_angle_beta                 100.80(3)
_cell_angle_gamma                90
_cell_volume                     4163.47
_exptl_crystal_colour            colorless
_exptl_crystal_description       block
_cell_formula_units_Z            2
loop_
_atom_site_label
_atom_site_type_symbol
_atom_site_fract_x
_atom_site_fract_y
_atom_site_fract_z
O1 O -0.01923(17) 0.19489(10) 0.89720(14)
O2 O 0.22470(15) -0.03455(10) 0.78557(14)
O3 O -0.03830(17) 0.09079(11) 1.12582(15)
O4 O 0.17593(15) -0.14103(10) 0.99570(13)
O5 O 0.07063(18) 0.03854(10) 1.37263(14)
O6 O 0.27950(15) -0.19962(10) 1.24739(13)
O7 O 0.28492(17) 0.08551(10) 1.50630(14)
O8 O 0.50468(17) -0.13698(10) 1.36991(13)
O9 O 0.46592(18) 0.20179(11) 1.43937(15)
O10 O 0.70003(16) -0.02581(10) 1.29943(13)
O11 O 0.50914(17) 0.31671(10) 1.21983(14)
O12 O 0.72567(16) 0.09283(10) 1.07136(13)
O13 O 0.38927(16) 0.35826(10) 0.97874(13)
O14 O 0.64427(16) 0.14725(11) 0.83347(14)
O15 O 0.15677(15) 0.30690(10) 0.83105(13)
O16 O 0.41293(16) 0.09141(10) 0.72447(14)
N1 N 0.03770(18) 0.14809(12) 0.77907(15)
N2 N -0.0212(2) 0.08501(13) 0.87493(16)
N3 N 0.13258(19) 0.05666(12) 0.73573(16)
N4 N 0.07163(18) -0.00668(12) 0.82921(16)
N5 N -0.03992(19) 0.02468(12) 1.00537(16)
N6 N -0.02548(19) -0.01982(12) 1.13701(16)
N7 N 0.04335(19) -0.06863(12) 0.95408(15)
N8 N 0.06454(18) -0.10989(12) 1.08854(15)
N9 N 0.04335(19) -0.05220(12) 1.28642(15)
N10 N 0.14198(19) -0.05950(12) 1.41948(16)
N11 N 0.12147(19) -0.14918(12) 1.23830(15)
N12 N 0.22919(19) -0.15067(12) 1.36682(16)
N13 N 0.29882(19) -0.02495(12) 1.51602(16)
N14 N 0.4417(2) 0.03300(12) 1.52860(16)
N15 N 0.38783(19) -0.11450(13) 1.45998(16)
N16 N 0.53133(19) -0.05673(12) 1.47508(16)
N17 N 0.5576(2) 0.10793(12) 1.47755(16)
N18 N 0.6095(2) 0.17324(12) 1.38051(17)
N19 N 0.64354(19) 0.01825(12) 1.41966(16)
N20 N 0.6980(2) 0.08364(12) 1.32353(15)
N21 N 0.6335(2) 0.23784(12) 1.25707(16)
N22 N 0.62704(19) 0.29171(12) 1.13223(15)
N23 N 0.72231(19) 0.14998(12) 1.20012(16)
N24 N 0.71575(19) 0.20352(12) 1.07410(15)
N25 N 0.55448(18) 0.31988(12) 0.98093(15)
N26 N 0.44416(17) 0.32359(12) 0.85342(15)
N27 N 0.65454(18) 0.23614(12) 0.92306(16)
N28 N 0.53835(18) 0.23578(12) 0.79939(15)
N29 N 0.28966(18) 0.28296(12) 0.75806(16)
N30 N 0.14232(18) 0.22918(12) 0.72296(15)
N31 N 0.38808(18) 0.19985(12) 0.69617(15)
N32 N 0.25025(19) 0.13782(12) 0.69889(15)
C1 C -0.0023(2) 0.14739(15) 0.85520(19)
C2 C 0.0324(2) 0.08556(14) 0.73858(19)
H1 H -0.013(3) 0.0881(18) 0.686(2)
C3 C -0.0088(2) 0.04168(14) 0.80511(18)
H2 H -0.071(3) 0.0206(19) 0.777(2)
C4 C 0.1504(2) 0.00262(14) 0.78308(18)
C5 C -0.0864(3) 0.07032(15) 0.9385(2)
H3 H -0.087(3) 0.118(2) 0.974(3)
H4 H -0.152(3) 0.052(2) 0.901(3)
C6 C 0.0482(2) -0.06896(14) 0.86095(19)
H5 H -0.021(3) -0.0851(19) 0.823(3)
H6 H 0.102(3) -0.1024(18) 0.849(2)
C7 C -0.0355(2) 0.03749(15) 1.0931(2)
C8 C -0.0445(2) -0.04370(14) 0.98734(18)
H7 H -0.111(3) -0.0519(18) 0.951(2)
C9 C -0.0316(2) -0.07387(15) 1.07888(18)
H8 H -0.094(2) -0.0986(18) 1.079(3)
C10 C 0.1021(2) -0.10954(14) 1.01172(19)
C11 C -0.0447(2) -0.02650(15) 1.22571(18)
H9 H -0.063(2) 0.0148(17) 1.246(2)
H10 H -0.109(3) -0.061(2) 1.221(3)
C12 C 0.0817(2) -0.16536(14) 1.14730(18)
H11 H 0.138(3) -0.1964(18) 1.124(2)
H12 H 0.012(2) -0.1890(16) 1.142(2)
C13 C 0.0838(2) -0.01848(15) 1.36047(19)
H13 H 0.118(2) -0.1557(15) 1.435(2)
C14 C 0.0613(2) -0.12088(14) 1.29791(18)
H14 H -0.004(3) -0.1409(17) 1.296(2)
C15 C 0.1351(2) -0.12562(14) 1.38944(19)
C16 C 0.2177(2) -0.16908(13) 1.28127(18)
C17 C 0.1904(2) -0.03959(15) 1.50681(19)
H15 H 0.154(3) 0.001(2) 1.520(3)
H16 H 0.179(2) -0.0716(17) 1.550(2)
C18 C 0.3183(2) -0.16782(14) 1.43239(19)
H17 H 0.301(2) -0.1894(17) 1.480(2)
H18 H 0.354(3) -0.2020(18) 1.406(2)
C19 C 0.3365(2) 0.03574(14) 1.51510(17)
C20 C 0.3801(2) -0.07317(14) 1.53327(19)
H19 H 0.374(2) -0.1007(16) 1.593(2)
C21 C 0.4806(2) -0.03207(14) 1.54363(18)
H20 H 0.527(2) -0.0395(17) 1.6046(15)
C22 C 0.4779(2) -0.10582(14) 1.42811(18)
C23 C 0.5054(2) 0.08972(15) 1.54834(19)
H21 H 0.456(3) 0.1267(17) 1.563(2)
H22 H 0.563(3) 0.0834(19) 1.607(2)
C24 C 0.6356(2) -0.04096(15) 1.4663(2)
H23 H 0.653(3) -0.0724(19) 1.430(2)
H24 H 0.671(3) -0.0412(19) 1.524(3)
C25 C 0.5377(2) 0.16460(15) 1.4340(2)
C26 C 0.6541(2) 0.07955(15) 1.46427(19)
H25 H 0.704(2) 0.0690(18) 1.5178(17)
C27 C 0.6905(2) 0.12496(14) 1.39742(19)
H26 H 0.7596(16) 0.1409(16) 1.418(2)
C28 C 0.6821(2) 0.01993(15) 1.34267(18)
C29 C 0.6307(3) 0.23644(15) 1.3507(2)
H27 H 0.575(4) 0.269(3) 1.356(3)
H28 H 0.690(4) 0.253(2) 1.385(3)
C30 C 0.7644(2) 0.09974(15) 1.26094(19)
H29 H 0.771(2) 0.0601(17) 1.225(2)
H30 H 0.831(3) 0.1191(18) 1.303(2)
C31 C 0.5830(2) 0.28489(15) 1.20433(19)
C32 C 0.7262(2) 0.21670(15) 1.22618(19)
H31 H 0.788(2) 0.2258(16) 1.275(2)
C33 C 0.7218(2) 0.25386(14) 1.13835(18)
H32 H 0.782(2) 0.2846(15) 1.1366(19)
C34 C 0.7214(2) 0.14293(15) 1.11045(19)
C35 C 0.5987(2) 0.34260(14) 1.06817(19)
H33 H 0.560(3) 0.374(2) 1.094(3)
H34 H 0.657(3) 0.3679(19) 1.071(2)
C36 C 0.7413(2) 0.21377(16) 0.98766(18)
H35 H 0.764(2) 0.1694(11) 0.968(2)
H36 H 0.804(4) 0.240(3) 1.001(4)
C37 C 0.4551(2) 0.33550(14) 0.94034(19)
C38 C 0.6175(2) 0.30209(14) 0.91564(17)
H37 H 0.674(2) 0.3330(17) 0.913(3)
C39 C 0.5394(2) 0.30175(14) 0.82812(18)
H38 H 0.561(2) 0.3320(16) 0.789(2)
C40 C 0.6155(2) 0.20095(14) 0.85087(18)
C41 C 0.3519(2) 0.33909(14) 0.78870(19)
H39 H 0.309(3) 0.3704(17) 0.817(2)
H40 H 0.382(3) 0.3585(18) 0.739(2)
C42 C 0.4960(2) 0.21715(14) 0.70936(18)
H41 H 0.505(2) 0.2522(15) 0.667(2)
H42 H 0.535(2) 0.1762(15) 0.6919(19)
C43 C 0.1924(2) 0.27571(14) 0.77682(18)
C44 C 0.3030(2) 0.24499(14) 0.68147(18)
H43 H 0.306(2) 0.2725(17) 0.634(2)
C45 C 0.2072(2) 0.20026(14) 0.66776(18)
H44 H 0.181(2) 0.1847(15) 0.6085(14)
C46 C 0.3565(2) 0.13817(15) 0.70913(18)
C47 C 0.0397(2) 0.20633(14) 0.72807(19)
H45 H 0.006(2) 0.1959(14) 0.6622(19)
H46 H 0.009(2) 0.2413(15) 0.7586(19)
C48 C 0.1953(2) 0.07874(14) 0.67401(19)
H47 H 0.151(3) 0.0872(19) 0.618(3)
H48 H 0.242(2) 0.0410(17) 0.669(2)
N33 N 0.2416(3) 0.2875(2) 1.0426(4)
H49 H 0.268(2) 0.2995(11) 1.0985(11)
H50 H 0.239(5) 0.304(3) 0.987(2)
H51 H 0.1744(11) 0.2830(19) 1.045(3)
N34 N 0.2348(2) 0.17091(16) 1.3579(2)
H52 H 0.241(4) 0.1394(18) 1.399(3)
H53 H 0.183(2) 0.1911(19) 1.378(3)
H54 H 0.288(2) 0.1936(19) 1.345(3)
C49 C 0.3007(3) 0.2254(2) 1.0476(3)
H55 H 0.3795(17) 0.229(3) 1.065(4)
H56 H 0.270(4) 0.193(2) 1.085(3)
C50 C 0.2730(3) 0.1927(2) 0.9604(3)
H57 H 0.1937(16) 0.187(2) 0.939(3)
H58 H 0.281(13) 0.197(9) 0.897(4)
C51 C 0.3112(3) 0.12364(19) 0.9600(2)
H59 H 0.276(3) 0.1002(18) 1.003(2)
H60 H 0.277(3) 0.098(2) 0.906(2)
C52 C 0.4284(3) 0.1165(2) 0.9714(2)
H61 H 0.449(3) 0.1426(19) 1.032(3)
H62 H 0.452(3) 0.1389(19) 0.916(3)
C53 C 0.4647(3) 0.0476(2) 0.9727(2)
H63 H 0.437(3) 0.024(2) 0.9146(19)
H64 H 0.543(5) 0.034(4) 0.959(4)
C54 C 0.4343(3) 0.00587(18) 1.0451(3)
H65 H 0.364(3) 0.000(2) 1.032(3)
H66 H 0.440(6) -0.0408(14) 1.030(5)
C55 C 0.4681(3) 0.03248(17) 1.1377(2)
H67 H 0.547(3) 0.0402(16) 1.148(2)
H68 H 0.434(3) 0.078(2) 1.142(3)
C56 C 0.4426(3) -0.01107(17) 1.2107(3)
H69 H 0.466(2) 0.0053(17) 1.267(2)
H70 H 0.473(3) -0.0546(13) 1.208(3)
C57 C 0.3273(3) -0.02676(18) 1.2042(2)
H71 H 0.324(2) -0.0510(15) 1.260(2)
H72 H 0.304(4) -0.059(2) 1.151(3)
C58 C 0.2571(3) 0.03214(18) 1.1993(2)
H73 H 0.1839(18) 0.020(2) 1.190(3)
H74 H 0.256(3) 0.057(2) 1.139(3)
C59 C 0.2863(3) 0.07694(18) 1.2773(2)
H75 H 0.363(3) 0.0958(18) 1.274(2)
H76 H 0.292(3) 0.0512(18) 1.329(2)
C60 C 0.2062(3) 0.12876(18) 1.2788(2)
H77 H 0.209(3) 0.158(2) 1.233(3)
H78 H 0.144(3) 0.1088(18) 1.286(2)
S1 S 0.03708(7) 0.27418(4) 1.44978(5)
O17 O -0.0308(2) 0.32905(13) 1.41990(18)
O18 O 0.1373(2) 0.29830(14) 1.49899(17)
O19 O 0.0550(2) 0.23580(14) 1.37444(17)
O20 O -0.0117(3) 0.23483(14) 1.50911(19)
O21 O 0.3177(2) 0.26684(15) 1.25223(19)
H79 H 0.293(4) 0.2979(19) 1.278(4)
H80 H 0.376(2) 0.277(2) 1.237(3)
O22 O 0.12490(19) 0.40409(14) 1.60713(17)
H81 H 0.129(3) 0.3731(13) 1.574(2)
H82 H 0.175(2) 0.4198(16) 1.636(2)
O23 O 0.0377(2) 0.26826(14) 1.04887(17)
H83 H 0.017(4) 0.267(3) 1.095(2)
H84 H 0.020(3) 0.2392(16) 1.013(2)
O24 O -0.03823(19) 0.21758(12) 1.19314(16)
H85 H -0.036(3) 0.1809(11) 1.173(2)
H86 H -0.019(5) 0.225(3) 1.2463(17)
O25 O 0.1258(2) 0.50700(16) 1.4851(2)
H87 H 0.108(3) 0.4864(19) 1.525(2)
H88 H 0.098(4) 0.5401(16) 1.501(3)
O26 O 0.8006(2) 0.1451(2) 0.7112(2)
H89 H 0.788(5) 0.170(3) 0.666(3)
H90 H 0.756(5) 0.150(4) 0.745(4)
O27 O 0.7399(2) -0.09697(17) 0.8562(2)
H91 H 0.722(3) -0.0605(12) 0.871(3)
H92 H 0.733(3) -0.098(2) 0.8000(13)
O28 O -0.2246(2) 0.35002(13) 1.31541(18)
H93 H -0.178(4) 0.339(3) 1.355(3)
H94 H -0.216(5) 0.379(2) 1.283(4)
O29 O 0.7922(2) 0.20951(15) 0.5492(2)
H95 H 0.784(3) 0.193(2) 0.5948(19)
H96 H 0.850(2) 0.218(2) 0.538(2)
O30 O 0.0513(3) 0.43092(17) 1.3431(2)
H97 H 0.053(4) 0.4610(18) 1.379(3)
H98 H 0.026(5) 0.398(2) 1.363(4)
O31 O 0.6123(2) 0.01492(15) 0.8150(2)
H99 H 0.603(5) 0.019(3) 0.7576(15)
H100 H 0.611(5) 0.0519(16) 0.837(4)
O32 O 0.3278(3) 0.31215(17) 0.4575(3)
H101 H 0.270(3) 0.306(3) 0.472(4)
H102 H 0.343(7) 0.2728(17) 0.450(6)
O33 O 0.7228(3) 0.0220(2) 0.6859(2)
H103 H 0.696(3) 0.033(2) 0.729(2)
H104 H 0.771(2) 0.0423(17) 0.676(3)
O34 O 0.7615(3) -0.1128(2) 0.6792(3)
H105 H 0.752(6) -0.136(3) 0.632(3)
H106 H 0.786(4) -0.0747(13) 0.680(3)
O35 O 0.0031(3) 0.10626(15) 0.5026(2)
H107 H 0.003(4) 0.1454(10) 0.499(3)
H108 H 0.011(4) 0.0736(15) 0.476(3)
O36 O 0.2505(2) 0.46106(13) 0.9423(2)
H109 H 0.270(5) 0.461(3) 0.9965(13)
H110 H 0.261(4) 0.4951(17) 0.915(3)
O37 O 0.4360(2) -0.05054(12) 0.74322(17)
H111 H 0.445(4) -0.0894(11) 0.751(4)
H112 H 0.3759(19) -0.046(3) 0.746(4)
loop_
_geom_bond_atom_site_label_1
_geom_bond_atom_site_label_2
_geom_bond_site_symmetry_1
_geom_bond_site_symmetry_2
O1 C1 1_555 1_555
O2 C4 1_555 1_555
O3 C7 1_555 1_555
O4 C10 1_555 1_555
O5 C13 1_555 1_555
O6 C16 1_555 1_555
O7 C19 1_555 1_555
O8 C22 1_555 1_555
O9 C25 1_555 1_555
O10 C28 1_555 1_555
O11 C31 1_555 1_555
O12 C34 1_555 1_555
O13 C37 1_555 1_555
O14 C40 1_555 1_555
O15 C43 1_555 1_555
O16 C46 1_555 1_555
N1 C1 1_555 1_555
N2 C1 1_555 1_555
N3 C2 1_555 1_555
N4 C3 1_555 1_555
N5 C5 1_555 1_555
N6 C7 1_555 1_555
N7 C6 1_555 1_555
N8 C9 1_555 1_555
N9 C11 1_555 1_555
N10 C13 1_555 1_555
N11 C12 1_555 1_555
N12 C15 1_555 1_555
N13 C17 1_555 1_555
N14 C19 1_555 1_555
N15 C18 1_555 1_555
N16 C21 1_555 1_555
N17 C23 1_555 1_555
N18 C25 1_555 1_555
N19 C24 1_555 1_555
N20 C27 1_555 1_555
N21 C29 1_555 1_555
N22 C31 1_555 1_555
N23 C30 1_555 1_555
N24 C33 1_555 1_555
N25 C35 1_555 1_555
N26 C37 1_555 1_555
N27 C36 1_555 1_555
N28 C39 1_555 1_555
N29 C41 1_555 1_555
N30 C43 1_555 1_555
N31 C42 1_555 1_555
N32 C45 1_555 1_555
C2 N1 1_555 1_555
H1 C2 1_555 1_555
C3 N2 1_555 1_555
H2 C3 1_555 1_555
C4 N3 1_555 1_555
C5 N2 1_555 1_555
H3 C5 1_555 1_555
H4 C5 1_555 1_555
C6 N4 1_555 1_555
H5 C6 1_555 1_555
H6 C6 1_555 1_555
C7 N5 1_555 1_555
C8 N5 1_555 1_555
H7 C8 1_555 1_555
C9 N6 1_555 1_555
H8 C9 1_555 1_555
C10 N7 1_555 1_555
C11 N6 1_555 1_555
H9 C11 1_555 1_555
H10 C11 1_555 1_555
C12 N8 1_555 1_555
H11 C12 1_555 1_555
H12 C12 1_555 1_555
C13 N9 1_555 1_555
H13 C15 1_555 1_555
C14 N9 1_555 1_555
H14 C14 1_555 1_555
C15 N10 1_555 1_555
C16 N11 1_555 1_555
C17 N10 1_555 1_555
H15 C17 1_555 1_555
H16 C17 1_555 1_555
C18 N12 1_555 1_555
H17 C18 1_555 1_555
H18 C18 1_555 1_555
C19 N13 1_555 1_555
C20 N13 1_555 1_555
H19 C20 1_555 1_555
C21 N14 1_555 1_555
H20 C21 1_555 1_555
C22 N15 1_555 1_555
C23 N14 1_555 1_555
H21 C23 1_555 1_555
H22 C23 1_555 1_555
C24 N16 1_555 1_555
H23 C24 1_555 1_555
H24 C24 1_555 1_555
C25 N17 1_555 1_555
C26 N17 1_555 1_555
H25 C26 1_555 1_555
C27 N18 1_555 1_555
H26 C27 1_555 1_555
C28 N19 1_555 1_555
C29 N18 1_555 1_555
H27 C29 1_555 1_555
H28 C29 1_555 1_555
C30 N20 1_555 1_555
H29 C30 1_555 1_555
H30 C30 1_555 1_555
C31 N21 1_555 1_555
C32 N21 1_555 1_555
H31 C32 1_555 1_555
C33 N22 1_555 1_555
H32 C33 1_555 1_555
C34 N23 1_555 1_555
C35 N22 1_555 1_555
H33 C35 1_555 1_555
H34 C35 1_555 1_555
C36 N24 1_555 1_555
H35 C36 1_555 1_555
H36 C36 1_555 1_555
C37 N25 1_555 1_555
C38 N25 1_555 1_555
H37 C38 1_555 1_555
C39 N26 1_555 1_555
H38 C39 1_555 1_555
C40 N27 1_555 1_555
C41 N26 1_555 1_555
H39 C41 1_555 1_555
H40 C41 1_555 1_555
C42 N28 1_555 1_555
H41 C42 1_555 1_555
H42 C42 1_555 1_555
C43 N29 1_555 1_555
C44 N29 1_555 1_555
H43 C44 1_555 1_555
C45 N30 1_555 1_555
H44 C45 1_555 1_555
C46 N31 1_555 1_555
C47 N1 1_555 1_555
H45 C47 1_555 1_555
H46 C47 1_555 1_555
C48 N3 1_555 1_555
H47 C48 1_555 1_555
H48 C48 1_555 1_555
N33 H49 1_555 1_555
H50 N33 1_555 1_555
H51 N33 1_555 1_555
N34 H52 1_555 1_555
H53 N34 1_555 1_555
H54 N34 1_555 1_555
C49 N33 1_555 1_555
H55 C49 1_555 1_555
H56 C49 1_555 1_555
C50 C49 1_555 1_555
H57 C50 1_555 1_555
H58 C50 1_555 1_555
C51 C50 1_555 1_555
H59 C51 1_555 1_555
H60 C51 1_555 1_555
C52 C51 1_555 1_555
H61 C52 1_555 1_555
H62 C52 1_555 1_555
C53 C52 1_555 1_555
H63 C53 1_555 1_555
H64 C53 1_555 1_555
C54 C53 1_555 1_555
H65 C54 1_555 1_555
H66 C54 1_555 1_555
C55 C54 1_555 1_555
H67 C55 1_555 1_555
H68 C55 1_555 1_555
C56 C55 1_555 1_555
H69 C56 1_555 1_555
H70 C56 1_555 1_555
C57 C56 1_555 1_555
H71 C57 1_555 1_555
H72 C57 1_555 1_555
C58 C57 1_555 1_555
H73 C58 1_555 1_555
H74 C58 1_555 1_555
C59 C58 1_555 1_555
H75 C59 1_555 1_555
H76 C59 1_555 1_555
C60 N34 1_555 1_555
H77 C60 1_555 1_555
H78 C60 1_555 1_555
S1 O17 1_555 1_555
O18 S1 1_555 1_555
O19 S1 1_555 1_555
O20 S1 1_555 1_555
O21 H79 1_555 1_555
H80 O21 1_555 1_555
O22 H81 1_555 1_555
H82 O22 1_555 1_555
O23 H83 1_555 1_555
H84 O23 1_555 1_555
O24 H85 1_555 1_555
H86 O24 1_555 1_555
O25 H87 1_555 1_555
H88 O25 1_555 1_555
O26 H89 1_555 1_555
H90 O26 1_555 1_555
O27 H91 1_555 1_555
H92 O27 1_555 1_555
O28 H93 1_555 1_555
H94 O28 1_555 1_555
O29 H95 1_555 1_555
H96 O29 1_555 1_555
O30 H97 1_555 1_555
H98 O30 1_555 1_555
O31 H99 1_555 1_555
H100 O31 1_555 1_555
O32 H101 1_555 1_555
H102 O32 1_555 1_555
O33 H103 1_555 1_555
H104 O33 1_555 1_555
O34 H105 1_555 1_555
H106 O34 1_555 1_555
O35 H107 1_555 1_555
H108 O35 1_555 1_555
O36 H109 1_555 1_555
H110 O36 1_555 1_555
O37 H111 1_555 1_555
H112 O37 1_555 1_555
N4 C4 1_555 1_555
N7 C8 1_555 1_555
N8 C10 1_555 1_555
N11 C14 1_555 1_555
N12 C16 1_555 1_555
N15 C20 1_555 1_555
N16 C22 1_555 1_555
N19 C26 1_555 1_555
N20 C28 1_555 1_555
N23 C32 1_555 1_555
N24 C34 1_555 1_555
N27 C38 1_555 1_555
N28 C40 1_555 1_555
N30 C47 1_555 1_555
N31 C44 1_555 1_555
N32 C46 1_555 1_555
N32 C48 1_555 1_555
C2 C3 1_555 1_555
C8 C9 1_555 1_555
C14 C15 1_555 1_555
C20 C21 1_555 1_555
C26 C27 1_555 1_555
C32 C33 1_555 1_555
C38 C39 1_555 1_555
C44 C45 1_555 1_555
C59 C60 1_555 1_555

#END
