
#######################################################################
#
#                 Cambridge Crystallographic Data Centre
#                                CCDC 
#
#######################################################################
#
# If this CIF has been generated from an entry in the Cambridge 
# Structural Database, then it will include bibliographic, chemical, 
# crystal, experimental, refinement or atomic coordinate data resulting 
# from the CCDC's data processing and validation procedures.
#
#######################################################################

data_LUXVAB
_chemical_name_common            
"5,5':11,11':17,17':23,23'-tetrakis(Butane-1,4-dioxy)-bis(2,8,14,20-tetrakis(2-phenylethyl)-6,10:12,16:18,22:24,4-O,O'-tetramethylenecalix(4)resorcinarene) benzaldehyde bis(nitrobenzene) clathrate"
_chemical_formula_moiety         'C144 H136 O24,C7 H6 O1,2(C6 H5 N1 O2)'
_chemical_name_systematic        
'57,58,59,60,61,62,63,64-octakis(2-Phenylethyl)-2,4,6,8,10,15,17,19,21,23,25,27,29,34,36,38,39,44,45,50,51,53,54,56-tetracosaoxa-1,5,20,24(1,3,2,6,4),9(1,2,3,6,4),16,35(1,2,6,3,5),28(1,2,3,4,6)-octabenzena-tridecacyclo(22.14.6.6^5,20^,3^9,35^.3^16,28^.1^1,5^.1^1,35^.1^5,9^.1^9,35^.1^16,20^.1^16,28^.1^20,24^.1^24,28^)tetrahexacontaphane benzaldehyde bis(nitrobenzene) clathrate'
_symmetry_cell_setting           monoclinic
_symmetry_space_group_name_H-M   'P 21/c'
_symmetry_Int_Tables_number      14
_space_group_name_Hall           '-P 2ybc'
loop_
_symmetry_equiv_pos_site_id
_symmetry_equiv_pos_as_xyz
1 x,y,z
2 x,1/2-y,1/2+z
3 -x,-y,-z
4 -x,1/2+y,1/2-z
_cell_length_a                   16.736(13)
_cell_length_b                   20.479(15)
_cell_length_c                   20.138(14)
_cell_angle_alpha                90
_cell_angle_beta                 99.53(2)
_cell_angle_gamma                90
_cell_volume                     6806.77
_exptl_crystal_colour            colorless
_exptl_crystal_description       parallelepiped
_cell_formula_units_Z            2
_exptl_crystal_recrystallization_method chloroform/nitrobenzene
loop_
_atom_site_label
_atom_site_type_symbol
_atom_site_fract_x
_atom_site_fract_y
_atom_site_fract_z
C77 C 0.5116(8) 0.0571(7) 0.4202(7)
C78 C 0.5839(12) 0.0355(7) 0.4018(6)
H77 H 0.5835 0.0154 0.3603
C79 C 0.6569(8) 0.0439(8) 0.4457(10)
H78 H 0.7051 0.0295 0.4335
C80 C 0.6576(9) 0.0739(8) 0.5080(9)
H79 H 0.7062 0.0795 0.5373
C81 C 0.5853(12) 0.0955(7) 0.5264(6)
H80 H 0.5857 0.1156 0.5679
C82 C 0.5123(9) 0.0871(7) 0.4824(8)
H81 H 0.4640 0.1015 0.4947
N1 N 0.4231(16) 0.0481(12) 0.3697(14)
O13 O 0.3770(15) 0.0762(12) 0.3933(12)
O14 O 0.4444(15) 0.0228(12) 0.3238(14)
C83 C 0.032(2) -0.0037(18) 0.0430(18)
C84 C -0.030(3) -0.048(2) 0.045(3)
H82 H -0.0328 -0.0718 0.0842
C85 C -0.089(3) -0.058(3) -0.012(3)
H83 H -0.1309 -0.0877 -0.0102
C86 C 0.086(3) 0.023(3) 0.070(3)
H84 H 0.1252 0.0291 0.1079
C87 C 0.024(3) -0.022(3) 0.072(2)
H85 H 0.0214 -0.0453 0.1113
C88 C 0.035(2) 0.031(2) -0.0156(18)
H86 H -0.0767 -0.0611 0.0169
O15 O 0.153(3) 0.041(2) 0.103(2)
C89 C 0.095(3) 0.006(2) 0.1042(17)
H87 H 0.0901 -0.0149 0.1442
C86B C -0.086(3) -0.023(3) -0.070(3)
C83B C -0.032(2) 0.0037(18) -0.0430(18)
C84B C 0.030(3) 0.048(2) -0.045(3)
H82B H 0.0328 0.0718 -0.0842
C85B C 0.089(3) 0.058(3) 0.012(3)
H83B H 0.1309 0.0877 0.0102
C88B C -0.035(2) -0.031(2) 0.0156(18)
C87B C -0.024(3) 0.022(3) -0.072(2)
C89B C -0.095(3) -0.006(2) -0.1042(17)
H84B H -0.1252 -0.0291 -0.1079
O15B O -0.153(3) -0.041(2) -0.103(2)
H85B H -0.0214 0.0453 -0.1113
H86B H 0.0767 0.0611 -0.0169
H87B H -0.0901 0.0149 -0.1442
O1 O 0.2008(8) 0.2290(6) 0.0651(6)
C1 C 0.1225(11) 0.2266(9) 0.0773(9)
H1 H 0.0915 0.2577 0.0470
H2 H 0.1016 0.1836 0.0636
O2 O 0.1045(8) 0.2378(7) 0.1392(7)
C2 C 0.1123(8) 0.1852(5) 0.1831(5)
C3 C 0.1856(6) 0.1621(5) 0.2185(5)
C4 C 0.1859(5) 0.1132(5) 0.2667(5)
H3 H 0.2348 0.0979 0.2903
C5 C 0.1129(7) 0.0873(5) 0.2796(5)
C6 C 0.0396(5) 0.1104(6) 0.2443(6)
C7 C 0.0393(6) 0.1593(6) 0.1960(6)
O3 O -0.0311(8) 0.1758(6) 0.1525(6)
C8 C -0.0929(17) 0.1999(19) 0.1890(16)
H4 H -0.0741 0.2403 0.2115
H5 H -0.1006 0.1684 0.2233
C9 C -0.174(2) 0.212(2) 0.1437(17)
H6 H -0.1988 0.1707 0.1295
H7 H -0.2100 0.2343 0.1701
C10 C -0.170(3) 0.253(2) 0.0826(18)
H8 H -0.1148 0.2521 0.0729
H9 H -0.1842 0.2975 0.0903
C11 C -0.227(3) 0.2246(12) 0.024(2)
H10 H -0.2827 0.2295 0.0315
H11 H -0.2220 0.2483 -0.0170
O4 O -0.2100(9) 0.1559(7) 0.0151(7)
C16 C 0.2595(11) 0.1898(9) 0.2011(9)
H20 H 0.2466 0.2349 0.1869
C17 C 0.3266(11) 0.1939(9) 0.2665(9)
H21 H 0.3030 0.2113 0.3037
H22 H 0.3471 0.1505 0.2789
C18 C 0.3939(13) 0.2365(12) 0.2535(12)
H23 H 0.3721 0.2769 0.2328
H24 H 0.4240 0.2150 0.2226
C19 C 0.4519(10) 0.2519(10) 0.3211(7)
C20 C 0.5214(12) 0.2153(7) 0.3440(9)
H25 H 0.5328 0.1783 0.3205
C21 C 0.5737(9) 0.2343(9) 0.4021(10)
H26 H 0.6200 0.2099 0.4173
C22 C 0.5565(10) 0.2898(10) 0.4373(7)
H27 H 0.5913 0.3025 0.4760
C23 C 0.4870(12) 0.3263(7) 0.4145(9)
H28 H 0.4756 0.3634 0.4379
C24 C 0.4347(9) 0.3074(9) 0.3564(10)
H29 H 0.3884 0.3317 0.3412
C25 C 0.1119(10) 0.0334(7) 0.3290(8)
H30 H 0.0598 0.0357 0.3450
C26 C 0.1820(11) 0.0374(8) 0.3946(8)
H31 H 0.1775 0.0000 0.4234
H32 H 0.2346 0.0354 0.3805
C27 C 0.1762(12) 0.1011(10) 0.4353(10)
H33 H 0.2249 0.1056 0.4686
H34 H 0.1734 0.1381 0.4050
C28 C 0.1031(9) 0.1021(7) 0.4705(8)
C29 C 0.1101(9) 0.0750(7) 0.5348(8)
H35 H 0.1593 0.0576 0.5554
C30 C 0.0433(12) 0.0739(7) 0.5679(6)
H36 H 0.0480 0.0558 0.6108
C31 C -0.0305(9) 0.0999(8) 0.5369(9)
H37 H -0.0751 0.0992 0.5590
C32 C -0.0375(8) 0.1271(8) 0.4727(9)
H38 H -0.0867 0.1444 0.4520
C33 C 0.0293(11) 0.1282(7) 0.4395(6)
H39 H 0.0246 0.1463 0.3967
O5 O -0.0338(8) 0.0852(7) 0.2554(6)
C34 C -0.0571(12) 0.0302(9) 0.2239(10)
H40 H -0.0314 0.0260 0.1843
H41 H -0.1153 0.0309 0.2092
O6 O -0.0362(8) -0.0235(6) 0.2665(6)
C35 C 0.0381(5) -0.0538(5) 0.2630(6)
C36 C 0.1136(7) -0.0298(4) 0.2928(5)
C37 C 0.1840(5) -0.0631(5) 0.2846(5)
H42 H 0.2343 -0.0471 0.3045
C38 C 0.1791(6) -0.1203(5) 0.2466(6)
C39 C 0.1036(8) -0.1443(4) 0.2168(5)
C40 C 0.0331(6) -0.1111(6) 0.2249(5)
O7 O -0.0383(8) -0.1316(6) 0.1856(7)
C41 C -0.0950(12) -0.1631(12) 0.2217(11)
H43 H -0.0968 -0.1391 0.2630
H44 H -0.0757 -0.2068 0.2340
C42 C -0.1828(11) -0.1677(9) 0.1808(9)
H45 H -0.2228 -0.1813 0.2078
H46 H -0.2002 -0.1283 0.1558
C43 C -0.1584(11) -0.2205(9) 0.1385(9)
H47 H -0.1611 -0.2633 0.1587
H48 H -0.1051 -0.2134 0.1269
C44 C -0.2287(17) -0.2092(13) 0.0767(14)
H49 H -0.2307 -0.2458 0.0458
H50 H -0.2803 -0.2071 0.0926
O8 O -0.2162(8) -0.1489(7) 0.0411(7)
O9 O 0.0968(8) -0.2035(6) 0.1800(7)
C45 C 0.1104(11) -0.2016(9) 0.1170(9)
H51 H 0.0930 -0.1593 0.0983
H52 H 0.0765 -0.2343 0.0914
O10 O 0.1863(8) -0.2112(6) 0.1075(6)
C46 C 0.2545(10) -0.1546(9) 0.2347(8)
H53 H 0.2405 -0.2009 0.2282
C47 C 0.3247(11) -0.1509(9) 0.2959(9)
H54 H 0.3451 -0.1066 0.3013
H55 H 0.3049 -0.1633 0.3367
C48 C 0.3923(13) -0.1967(10) 0.2842(10)
H56 H 0.3719 -0.2411 0.2824
H57 H 0.4070 -0.1869 0.2407
C49 C 0.4678(8) -0.1933(9) 0.3369(7)
C50 C 0.5213(11) -0.1429(7) 0.3286(7)
H58 H 0.5074 -0.1122 0.2945
C51 C 0.5958(10) -0.1384(7) 0.3714(9)
H59 H 0.6314 -0.1047 0.3658
C52 C 0.6167(7) -0.1843(8) 0.4224(7)
H60 H 0.6663 -0.1813 0.4510
C53 C 0.5632(10) -0.2347(7) 0.4308(7)
H61 H 0.5771 -0.2653 0.4648
C54 C 0.4887(9) -0.2392(7) 0.3880(8)
H62 H 0.4531 -0.2729 0.3935
C55 C 0.2387(7) -0.1584(5) 0.1074(7)
C56 C 0.2767(7) -0.1300(6) 0.1674(5)
C57 C 0.3300(6) -0.0779(5) 0.1658(5)
H63 H 0.3553 -0.0590 0.2057
C58 C 0.3453(6) -0.0541(5) 0.1042(6)
C59 C 0.3073(8) -0.0825(6) 0.0442(5)
C60 C -0.2540(8) 0.1346(6) -0.0458(5)
O11 O 0.3226(9) -0.0603(7) -0.0185(7)
C61 C 0.2876(11) -0.0017(9) -0.0447(9)
H64 H 0.2780 -0.0050 -0.0934
H65 H 0.2352 0.0026 -0.0305
O12 O 0.3277(8) 0.0504(7) -0.0284(7)
C62 C -0.2628(7) -0.1399(6) -0.0220(4)
C63 C 0.2490(6) 0.1751(5) 0.0784(6)
C64 C 0.2866(7) 0.1562(5) 0.1425(5)
C65 C 0.3381(6) 0.1022(5) 0.1504(4)
H66 H 0.3632 0.0897 0.1931
C66 C 0.3520(6) 0.0671(5) 0.0940(6)
C67 C 0.3143(7) 0.0859(6) 0.0299(5)
C68 C 0.3996(11) 0.0049(8) 0.0993(10)
H67 H 0.4207 0.0004 0.0569
C69 C 0.4763(12) 0.0024(9) 0.1584(10)
H68 H 0.4597 0.0147 0.2006
H69 H 0.4970 -0.0419 0.1630
C70 C 0.5420(13) 0.0473(11) 0.1444(11)
H70 H 0.5214 0.0917 0.1411
H71 H 0.5568 0.0359 0.1013
C71 C 0.6186(7) 0.0446(8) 0.1992(6)
C72 C 0.6570(9) -0.0138(6) 0.2212(7)
H72 H 0.6365 -0.0533 0.2030
C73 C 0.7263(9) -0.0130(6) 0.2704(7)
H73 H 0.7519 -0.0519 0.2850
C74 C 0.7571(7) 0.0463(9) 0.2976(6)
H74 H 0.8033 0.0469 0.3304
C75 C 0.7187(10) 0.1047(6) 0.2756(8)
H75 H 0.7392 0.1442 0.2938
C76 C 0.6494(9) 0.1039(6) 0.2264(8)
H76 H 0.6238 0.1428 0.2118
C55B C -0.2387(7) 0.1584(5) -0.1074(7)
O10B O -0.1863(8) 0.2112(6) -0.1075(6)
C45B C -0.1104(11) 0.2016(9) -0.1170(9)
O9B O -0.0968(8) 0.2035(6) -0.1800(7)
C39B C -0.1036(8) 0.1443(4) -0.2168(5)
C38B C -0.1791(6) 0.1203(5) -0.2466(6)
C37B C -0.1840(5) 0.0631(5) -0.2846(5)
C36B C -0.1136(7) 0.0298(4) -0.2928(5)
C25B C -0.1119(10) -0.0334(7) -0.3290(8)
C5B C -0.1129(7) -0.0873(5) -0.2796(5)
C4B C -0.1859(5) -0.1132(5) -0.2667(5)
C3B C -0.1856(6) -0.1621(5) -0.2185(5)
C2B C -0.1123(8) -0.1852(5) -0.1831(5)
O2B O -0.1045(8) -0.2378(7) -0.1392(7)
C1B C -0.1225(11) -0.2266(9) -0.0773(9)
O1B O -0.2008(8) -0.2290(6) -0.0651(6)
C63B C -0.2490(6) -0.1751(5) -0.0784(6)
C60B C 0.2540(8) -0.1346(6) 0.0458(5)
O4B O 0.2100(9) -0.1559(7) -0.0151(7)
C11B C 0.227(3) -0.2246(12) -0.024(2)
C10B C 0.170(3) -0.253(2) -0.0826(18)
C9B C 0.174(2) -0.212(2) -0.1437(17)
C8B C 0.0929(17) -0.1999(19) -0.1890(16)
O3B O 0.0311(8) -0.1758(6) -0.1525(6)
C7B C -0.0393(6) -0.1593(6) -0.1960(6)
C6B C -0.0396(5) -0.1104(6) -0.2443(6)
O5B O 0.0338(8) -0.0852(7) -0.2554(6)
C34B C 0.0571(12) -0.0302(9) -0.2239(10)
H40B H 0.0314 -0.0260 -0.1843
H41B H 0.1153 -0.0309 -0.2092
O6B O 0.0362(8) 0.0235(6) -0.2665(6)
C35B C -0.0381(5) 0.0538(5) -0.2630(6)
C40B C -0.0331(6) 0.1111(6) -0.2249(5)
O7B O 0.0383(8) 0.1316(6) -0.1856(7)
C41B C 0.0950(12) 0.1631(12) -0.2217(11)
H43B H 0.0968 0.1391 -0.2630
H44B H 0.0757 0.2068 -0.2340
C42B C 0.1828(11) 0.1677(9) -0.1808(9)
H45B H 0.2228 0.1813 -0.2078
H46B H 0.2002 0.1283 -0.1558
C43B C 0.1584(11) 0.2205(9) -0.1385(9)
H47B H 0.1611 0.2633 -0.1587
H48B H 0.1051 0.2134 -0.1269
C44B C 0.2287(17) 0.2092(13) -0.0767(14)
H49B H 0.2307 0.2458 -0.0458
H50B H 0.2803 0.2071 -0.0926
O8B O 0.2162(8) 0.1489(7) -0.0411(7)
C62B C 0.2628(7) 0.1399(6) 0.0220(4)
H4B H 0.0741 -0.2403 -0.2115
H5B H 0.1006 -0.1684 -0.2233
H6B H 0.1988 -0.1707 -0.1295
H7B H 0.2100 -0.2343 -0.1701
H8B H 0.1148 -0.2521 -0.0729
H9B H 0.1842 -0.2975 -0.0903
H10B H 0.2827 -0.2295 -0.0315
H11B H 0.2220 -0.2483 0.0170
C67B C -0.3143(7) -0.0859(6) -0.0299(5)
O12B O -0.3277(8) -0.0504(7) 0.0284(7)
C61B C -0.2876(11) 0.0017(9) 0.0447(9)
O11B O -0.3226(9) 0.0603(7) 0.0185(7)
C59B C -0.3073(8) 0.0825(6) -0.0442(5)
C58B C -0.3453(6) 0.0541(5) -0.1042(6)
C57B C -0.3300(6) 0.0779(5) -0.1658(5)
C56B C -0.2767(7) 0.1300(6) -0.1674(5)
C46B C -0.2545(10) 0.1546(9) -0.2347(8)
H53B H -0.2405 0.2009 -0.2282
C47B C -0.3247(11) 0.1509(9) -0.2959(9)
H54B H -0.3451 0.1066 -0.3013
H55B H -0.3049 0.1633 -0.3367
C48B C -0.3923(13) 0.1967(10) -0.2842(10)
H56B H -0.3719 0.2411 -0.2824
H57B H -0.4070 0.1869 -0.2407
C49B C -0.4678(8) 0.1933(9) -0.3369(7)
C50B C -0.5213(11) 0.1429(7) -0.3286(7)
H58B H -0.5074 0.1122 -0.2945
C51B C -0.5958(10) 0.1384(7) -0.3714(9)
H59B H -0.6314 0.1047 -0.3658
C52B C -0.6167(7) 0.1843(8) -0.4224(7)
H60B H -0.6663 0.1813 -0.4510
C53B C -0.5632(10) 0.2347(7) -0.4308(7)
H61B H -0.5771 0.2653 -0.4648
C54B C -0.4887(9) 0.2392(7) -0.3880(8)
H62B H -0.4531 0.2729 -0.3935
H63B H -0.3553 0.0590 -0.2057
C68B C -0.3996(11) -0.0049(8) -0.0993(10)
C66B C -0.3520(6) -0.0671(5) -0.0940(6)
C65B C -0.3381(6) -0.1022(5) -0.1504(4)
C64B C -0.2866(7) -0.1562(5) -0.1425(5)
C16B C -0.2595(11) -0.1898(9) -0.2011(9)
H20B H -0.2466 -0.2349 -0.1869
C17B C -0.3266(11) -0.1939(9) -0.2665(9)
H21B H -0.3030 -0.2113 -0.3037
H22B H -0.3471 -0.1505 -0.2789
C18B C -0.3939(13) -0.2365(12) -0.2535(12)
H23B H -0.3721 -0.2769 -0.2328
H24B H -0.4240 -0.2150 -0.2226
C19B C -0.4519(10) -0.2519(10) -0.3211(7)
C20B C -0.5214(12) -0.2153(7) -0.3440(9)
H25B H -0.5328 -0.1783 -0.3205
C21B C -0.5737(9) -0.2343(9) -0.4021(10)
H26B H -0.6200 -0.2099 -0.4173
C22B C -0.5565(10) -0.2898(10) -0.4373(7)
H27B H -0.5913 -0.3025 -0.4760
C23B C -0.4870(12) -0.3263(7) -0.4145(9)
H28B H -0.4756 -0.3634 -0.4379
C24B C -0.4347(9) -0.3074(9) -0.3564(10)
H29B H -0.3884 -0.3317 -0.3412
H66B H -0.3632 -0.0897 -0.1931
H67B H -0.4207 -0.0004 -0.0569
C69B C -0.4763(12) -0.0024(9) -0.1584(10)
H68B H -0.4597 -0.0147 -0.2006
H69B H -0.4970 0.0419 -0.1630
C70B C -0.5420(13) -0.0473(11) -0.1444(11)
H70B H -0.5214 -0.0917 -0.1411
H71B H -0.5568 -0.0359 -0.1013
C71B C -0.6186(7) -0.0446(8) -0.1992(6)
C72B C -0.6570(9) 0.0138(6) -0.2212(7)
H72B H -0.6365 0.0533 -0.2030
C73B C -0.7263(9) 0.0130(6) -0.2704(7)
H73B H -0.7519 0.0519 -0.2850
C74B C -0.7571(7) -0.0463(9) -0.2976(6)
H74B H -0.8033 -0.0469 -0.3304
C75B C -0.7187(10) -0.1047(6) -0.2756(8)
H75B H -0.7392 -0.1442 -0.2938
C76B C -0.6494(9) -0.1039(6) -0.2264(8)
H76B H -0.6238 -0.1428 -0.2118
H64B H -0.2780 0.0050 0.0934
H65B H -0.2352 -0.0026 0.0305
H1B H -0.0915 -0.2577 -0.0470
H2B H -0.1016 -0.1836 -0.0636
H3B H -0.2348 -0.0979 -0.2903
H30B H -0.0598 -0.0357 -0.3450
C26B C -0.1820(11) -0.0374(8) -0.3946(8)
H31B H -0.1775 0.0000 -0.4234
H32B H -0.2346 -0.0354 -0.3805
C27B C -0.1762(12) -0.1011(10) -0.4353(10)
H33B H -0.2249 -0.1056 -0.4686
H34B H -0.1734 -0.1381 -0.4050
C28B C -0.1031(9) -0.1021(7) -0.4705(8)
C29B C -0.1101(9) -0.0750(7) -0.5348(8)
H35B H -0.1593 -0.0576 -0.5554
C30B C -0.0433(12) -0.0739(7) -0.5679(6)
H36B H -0.0480 -0.0558 -0.6108
C31B C 0.0305(9) -0.0999(8) -0.5369(9)
H37B H 0.0751 -0.0992 -0.5590
C32B C 0.0375(8) -0.1271(8) -0.4727(9)
H38B H 0.0867 -0.1444 -0.4520
C33B C -0.0293(11) -0.1282(7) -0.4395(6)
H39B H -0.0246 -0.1463 -0.3967
H42B H -0.2343 0.0471 -0.3045
H51B H -0.0930 0.1593 -0.0983
H52B H -0.0765 0.2343 -0.0914
C12? C -0.059(2) 0.2410(13) 0.1614(18)
H12? H -0.0195 0.2731 0.1533
H13? H -0.0714 0.2470 0.2065
C13? C -0.1368(18) 0.2464(16) 0.1084(17)
H14? H -0.1610 0.2893 0.1098
H15? H -0.1246 0.2390 0.0635
C14? C -0.194(2) 0.1942(19) 0.1264(18)
H16? H -0.1630 0.1554 0.1420
H17? H -0.2205 0.2098 0.1625
C15? C -0.2560(19) 0.1778(18) 0.0656(14)
H18? H -0.2920 0.1436 0.0761
H19? H -0.2880 0.2160 0.0500
C90? C 0.051(3) -0.015(2) 0.033(2)
C91? C 0.039(4) -0.057(3) -0.021(3)
H88? H 0.0786 -0.0883 -0.0264
C92? C -0.032(5) -0.054(4) -0.068(3)
H89? H -0.0396 -0.0825 -0.1047
C93? C -0.090(4) -0.008(4) -0.061(3)
H90? H -0.1377 -0.0055 -0.0921
C94? C -0.078(3) 0.035(4) -0.006(3)
H91? H -0.1176 0.0655 -0.0011
C95? C -0.007(3) 0.031(3) 0.041(3)
H92? H 0.0006 0.0597 0.0772
O16? O 0.137(3) 0.013(3) 0.135(3)
C96? C 0.128(3) -0.019(3) 0.084(3)
H93? H 0.1695 -0.0463 0.0758
loop_
_geom_bond_atom_site_label_1
_geom_bond_atom_site_label_2
_geom_bond_site_symmetry_1
_geom_bond_site_symmetry_2
O1 C1 1_555 1_555
C1 H1 1_555 1_555
H2 C1 1_555 1_555
O2 C1 1_555 1_555
C2 O2 1_555 1_555
C3 C2 1_555 1_555
C4 C3 1_555 1_555
H3 C4 1_555 1_555
C5 C4 1_555 1_555
C6 C5 1_555 1_555
C7 C2 1_555 1_555
O3 C7 1_555 1_555
C8 O3 1_555 1_555
H4 C8 1_555 1_555
H5 C8 1_555 1_555
C9 C8 1_555 1_555
H6 C9 1_555 1_555
H7 C9 1_555 1_555
C10 C9 1_555 1_555
H8 C10 1_555 1_555
H9 C10 1_555 1_555
C11 C10 1_555 1_555
H10 C11 1_555 1_555
H11 C11 1_555 1_555
O4 C11 1_555 1_555
C16 C3 1_555 1_555
H20 C16 1_555 1_555
C17 C16 1_555 1_555
H21 C17 1_555 1_555
H22 C17 1_555 1_555
C18 C17 1_555 1_555
H23 C18 1_555 1_555
H24 C18 1_555 1_555
C19 C18 1_555 1_555
C20 C19 1_555 1_555
H25 C20 1_555 1_555
C21 C20 1_555 1_555
H26 C21 1_555 1_555
C22 C21 1_555 1_555
H27 C22 1_555 1_555
C23 C22 1_555 1_555
H28 C23 1_555 1_555
C24 C19 1_555 1_555
H29 C24 1_555 1_555
C25 C5 1_555 1_555
H30 C25 1_555 1_555
C26 C25 1_555 1_555
H31 C26 1_555 1_555
H32 C26 1_555 1_555
C27 C26 1_555 1_555
H33 C27 1_555 1_555
H34 C27 1_555 1_555
C28 C27 1_555 1_555
C29 C28 1_555 1_555
H35 C29 1_555 1_555
C30 C29 1_555 1_555
H36 C30 1_555 1_555
C31 C30 1_555 1_555
H37 C31 1_555 1_555
C32 C31 1_555 1_555
H38 C32 1_555 1_555
C33 C28 1_555 1_555
H39 C33 1_555 1_555
O5 C6 1_555 1_555
C34 O5 1_555 1_555
H40 C34 1_555 1_555
H41 C34 1_555 1_555
O6 C34 1_555 1_555
C35 O6 1_555 1_555
C36 C25 1_555 1_555
C37 C36 1_555 1_555
H42 C37 1_555 1_555
C38 C37 1_555 1_555
C39 C38 1_555 1_555
C40 C35 1_555 1_555
O7 C40 1_555 1_555
C41 O7 1_555 1_555
H43 C41 1_555 1_555
H44 C41 1_555 1_555
C42 C41 1_555 1_555
H45 C42 1_555 1_555
H46 C42 1_555 1_555
C43 C42 1_555 1_555
H47 C43 1_555 1_555
H48 C43 1_555 1_555
C44 C43 1_555 1_555
H49 C44 1_555 1_555
H50 C44 1_555 1_555
O8 C44 1_555 1_555
O9 C39 1_555 1_555
C45 O9 1_555 1_555
H51 C45 1_555 1_555
H52 C45 1_555 1_555
O10 C45 1_555 1_555
C46 C38 1_555 1_555
H53 C46 1_555 1_555
C47 C46 1_555 1_555
H54 C47 1_555 1_555
H55 C47 1_555 1_555
C48 C47 1_555 1_555
H56 C48 1_555 1_555
H57 C48 1_555 1_555
C49 C48 1_555 1_555
C50 C49 1_555 1_555
H58 C50 1_555 1_555
C51 C50 1_555 1_555
H59 C51 1_555 1_555
C52 C51 1_555 1_555
H60 C52 1_555 1_555
C53 C52 1_555 1_555
H61 C53 1_555 1_555
C54 C49 1_555 1_555
H62 C54 1_555 1_555
C55 O10 1_555 1_555
C56 C46 1_555 1_555
C57 C56 1_555 1_555
H63 C57 1_555 1_555
C58 C57 1_555 1_555
C59 C58 1_555 1_555
C60 O4 1_555 1_555
O11 C59 1_555 1_555
C61 O11 1_555 1_555
H64 C61 1_555 1_555
H65 C61 1_555 1_555
O12 C61 1_555 1_555
C62 O8 1_555 1_555
C63 O1 1_555 1_555
C64 C16 1_555 1_555
C65 C64 1_555 1_555
H66 C65 1_555 1_555
C66 C65 1_555 1_555
C67 O12 1_555 1_555
C68 C58 1_555 1_555
H67 C68 1_555 1_555
C69 C68 1_555 1_555
H68 C69 1_555 1_555
H69 C69 1_555 1_555
C70 C69 1_555 1_555
H70 C70 1_555 1_555
H71 C70 1_555 1_555
C71 C70 1_555 1_555
C72 C71 1_555 1_555
H72 C72 1_555 1_555
C73 C72 1_555 1_555
H73 C73 1_555 1_555
C74 C73 1_555 1_555
H74 C74 1_555 1_555
C75 C74 1_555 1_555
H75 C75 1_555 1_555
C76 C71 1_555 1_555
H76 C76 1_555 1_555
C77 C78 1_555 1_555
C78 H77 1_555 1_555
C79 C78 1_555 1_555
H78 C79 1_555 1_555
C80 C79 1_555 1_555
H79 C80 1_555 1_555
C81 C80 1_555 1_555
H80 C81 1_555 1_555
C82 C77 1_555 1_555
H81 C82 1_555 1_555
N1 C77 1_555 1_555
O13 N1 1_555 1_555
O14 N1 1_555 1_555
C83 C84 1_555 1_555
C84 H82 1_555 1_555
C85 C84 1_555 1_555
H83 C85 1_555 1_555
C86 C83 1_555 1_555
H84 C86 1_555 1_555
C87 C83 1_555 1_555
H85 C87 1_555 1_555
C88 C83 1_555 1_555
H86 C84 1_555 1_555
O15 C86 1_555 1_555
C89 C83 1_555 1_555
H87 C89 1_555 1_555
C55B C60 1_555 1_555
O10B C55B 1_555 1_555
C45B O10B 1_555 1_555
O9B C45B 1_555 1_555
C39B O9B 1_555 1_555
C38B C39B 1_555 1_555
C37B C38B 1_555 1_555
C36B C37B 1_555 1_555
C25B C36B 1_555 1_555
C5B C25B 1_555 1_555
C4B C5B 1_555 1_555
C3B C4B 1_555 1_555
C2B C3B 1_555 1_555
O2B C2B 1_555 1_555
C1B O2B 1_555 1_555
O1B C1B 1_555 1_555
C63B C62 1_555 1_555
C60B C55 1_555 1_555
O4B C60B 1_555 1_555
C11B O4B 1_555 1_555
C10B C11B 1_555 1_555
C9B C10B 1_555 1_555
C8B C9B 1_555 1_555
O3B C8B 1_555 1_555
C7B C2B 1_555 1_555
C6B C5B 1_555 1_555
O5B C6B 1_555 1_555
C34B O5B 1_555 1_555
H40B C34B 1_555 1_555
H41B C34B 1_555 1_555
O6B C34B 1_555 1_555
C35B C36B 1_555 1_555
C40B C39B 1_555 1_555
O7B C40B 1_555 1_555
C41B O7B 1_555 1_555
H43B C41B 1_555 1_555
H44B C41B 1_555 1_555
C42B C41B 1_555 1_555
H45B C42B 1_555 1_555
H46B C42B 1_555 1_555
C43B C42B 1_555 1_555
H47B C43B 1_555 1_555
H48B C43B 1_555 1_555
C44B C43B 1_555 1_555
H49B C44B 1_555 1_555
H50B C44B 1_555 1_555
O8B C44B 1_555 1_555
C62B C63 1_555 1_555
H4B C8B 1_555 1_555
H5B C8B 1_555 1_555
H6B C9B 1_555 1_555
H7B C9B 1_555 1_555
H8B C10B 1_555 1_555
H9B C10B 1_555 1_555
H10B C11B 1_555 1_555
H11B C11B 1_555 1_555
C67B C62 1_555 1_555
O12B C67B 1_555 1_555
C61B O12B 1_555 1_555
O11B C61B 1_555 1_555
C59B C60 1_555 1_555
C58B C59B 1_555 1_555
C57B C58B 1_555 1_555
C56B C55B 1_555 1_555
C46B C38B 1_555 1_555
H53B C46B 1_555 1_555
C47B C46B 1_555 1_555
H54B C47B 1_555 1_555
H55B C47B 1_555 1_555
C48B C47B 1_555 1_555
H56B C48B 1_555 1_555
H57B C48B 1_555 1_555
C49B C48B 1_555 1_555
C50B C49B 1_555 1_555
H58B C50B 1_555 1_555
C51B C50B 1_555 1_555
H59B C51B 1_555 1_555
C52B C51B 1_555 1_555
H60B C52B 1_555 1_555
C53B C52B 1_555 1_555
H61B C53B 1_555 1_555
C54B C49B 1_555 1_555
H62B C54B 1_555 1_555
H63B C57B 1_555 1_555
C68B C58B 1_555 1_555
C66B C67B 1_555 1_555
C65B C66B 1_555 1_555
C64B C63B 1_555 1_555
C16B C3B 1_555 1_555
H20B C16B 1_555 1_555
C17B C16B 1_555 1_555
H21B C17B 1_555 1_555
H22B C17B 1_555 1_555
C18B C17B 1_555 1_555
H23B C18B 1_555 1_555
H24B C18B 1_555 1_555
C19B C18B 1_555 1_555
C20B C19B 1_555 1_555
H25B C20B 1_555 1_555
C21B C20B 1_555 1_555
H26B C21B 1_555 1_555
C22B C21B 1_555 1_555
H27B C22B 1_555 1_555
C23B C22B 1_555 1_555
H28B C23B 1_555 1_555
C24B C19B 1_555 1_555
H29B C24B 1_555 1_555
H66B C65B 1_555 1_555
H67B C68B 1_555 1_555
C69B C68B 1_555 1_555
H68B C69B 1_555 1_555
H69B C69B 1_555 1_555
C70B C69B 1_555 1_555
H70B C70B 1_555 1_555
H71B C70B 1_555 1_555
C71B C70B 1_555 1_555
C72B C71B 1_555 1_555
H72B C72B 1_555 1_555
C73B C72B 1_555 1_555
H73B C73B 1_555 1_555
C74B C73B 1_555 1_555
H74B C74B 1_555 1_555
C75B C74B 1_555 1_555
H75B C75B 1_555 1_555
C76B C71B 1_555 1_555
H76B C76B 1_555 1_555
H64B C61B 1_555 1_555
H65B C61B 1_555 1_555
H1B C1B 1_555 1_555
H2B C1B 1_555 1_555
H3B C4B 1_555 1_555
H30B C25B 1_555 1_555
C26B C25B 1_555 1_555
H31B C26B 1_555 1_555
H32B C26B 1_555 1_555
C27B C26B 1_555 1_555
H33B C27B 1_555 1_555
H34B C27B 1_555 1_555
C28B C27B 1_555 1_555
C29B C28B 1_555 1_555
H35B C29B 1_555 1_555
C30B C29B 1_555 1_555
H36B C30B 1_555 1_555
C31B C30B 1_555 1_555
H37B C31B 1_555 1_555
C32B C31B 1_555 1_555
H38B C32B 1_555 1_555
C33B C28B 1_555 1_555
H39B C33B 1_555 1_555
H42B C37B 1_555 1_555
H51B C45B 1_555 1_555
H52B C45B 1_555 1_555
C86B C85 1_555 1_555
C83B C88 1_555 1_555
C84B C88 1_555 1_555
H82B C84B 1_555 1_555
C85B C86 1_555 1_555
H83B C85B 1_555 1_555
C88B C83 1_555 1_555
C87B C88 1_555 1_555
C89B C86B 1_555 1_555
H84B C86B 1_555 1_555
O15B C86B 1_555 1_555
H85B C87B 1_555 1_555
H86B C88 1_555 1_555
H87B C89B 1_555 1_555
C6 C7 1_555 1_555
C23 C24 1_555 1_555
C32 C33 1_555 1_555
C35 C36 1_555 1_555
C39 C40 1_555 1_555
C53 C54 1_555 1_555
C55 C56 1_555 1_555
C59 C60B 1_555 1_555
C63 C64 1_555 1_555
C66 C67 1_555 1_555
C66 C68 1_555 1_555
C67 C62B 1_555 1_555
C75 C76 1_555 1_555
C81 C82 1_555 1_555
C84 C88B 1_555 1_555
C84 C87 1_555 1_555
C85 H86 1_555 1_555
C85 C88B 1_555 1_555
C86 C89 1_555 1_555
C86 C87 1_555 1_555
H84 O15 1_555 1_555
H84 C89 1_555 1_555
C87 C88B 1_555 1_555
C87 C89 1_555 1_555
C88 C85B 1_555 1_555
H86 C88B 1_555 1_555
O15 C89 1_555 1_555
O1B C63B 1_555 1_555
O3B C7B 1_555 1_555
C7B C6B 1_555 1_555
O6B C35B 1_555 1_555
C35B C40B 1_555 1_555
O8B C62B 1_555 1_555
O11B C59B 1_555 1_555
C57B C56B 1_555 1_555
C56B C46B 1_555 1_555
C53B C54B 1_555 1_555
C68B C66B 1_555 1_555
C65B C64B 1_555 1_555
C64B C16B 1_555 1_555
C23B C24B 1_555 1_555
C75B C76B 1_555 1_555
C32B C33B 1_555 1_555
C86B C83B 1_555 1_555
C86B C87B 1_555 1_555
C83B C84B 1_555 1_555
C83B C87B 1_555 1_555
C83B C89B 1_555 1_555
C83B C88B 1_555 1_555
C84B C85B 1_555 1_555
C84B C87B 1_555 1_555
C84B H86B 1_555 1_555
C85B H86B 1_555 1_555
C87B C89B 1_555 1_555
C89B H84B 1_555 1_555
C89B O15B 1_555 1_555
H84B O15B 1_555 1_555

#END
