
#######################################################################
#
#                 Cambridge Crystallographic Data Centre
#                                CCDC 
#
#######################################################################
#
# If this CIF has been generated from an entry in the Cambridge 
# Structural Database, then it will include bibliographic, chemical, 
# crystal, experimental, refinement or atomic coordinate data resulting 
# from the CCDC's data processing and validation procedures.
#
#######################################################################

data_LUXYOT
_chemical_formula_moiety         'C17 H26 B1 N1 O2'
_chemical_name_systematic        
2-(2-(Dimethylaminomethyl)-5-vinylphenyl)-4,4,5,5-tetramethyl-1,3,2-dioxaborolane
_symmetry_cell_setting           monoclinic
_symmetry_space_group_name_H-M   'P 21'
_symmetry_Int_Tables_number      4
_space_group_name_Hall           'P 2yb'
loop_
_symmetry_equiv_pos_site_id
_symmetry_equiv_pos_as_xyz
1 x,y,z
2 -x,1/2+y,-z
_cell_length_a                   7.5161(5)
_cell_length_b                   10.3189(5)
_cell_length_c                   10.7196(8)
_cell_angle_alpha                90
_cell_angle_beta                 89.877(6)
_cell_angle_gamma                90
_cell_volume                     831.388
_exptl_crystal_colour            colorless
_cell_formula_units_Z            2
loop_
_atom_site_label
_atom_site_type_symbol
_atom_site_fract_x
_atom_site_fract_y
_atom_site_fract_z
O1 O 0.21516(15) 0.64456(10) 0.21946(10)
O2 O 0.05932(14) 0.46543(10) 0.29002(9)
N1 N -0.03988(18) 0.69791(12) 0.36569(12)
B1 B 0.1275(2) 0.58954(16) 0.32599(17)
C1 C 0.2301(2) 0.59858(14) 0.45707(14)
C2 C 0.1882(2) 0.71220(14) 0.51985(14)
C3 C 0.2661(2) 0.74431(15) 0.63232(15)
H1 H 0.2375 0.8227 0.6723
C4 C 0.3869(2) 0.65939(15) 0.68533(15)
H2 H 0.4411 0.6809 0.7615
C5 C 0.4293(2) 0.54226(14) 0.62731(14)
C6 C 0.3512(2) 0.51451(14) 0.51290(14)
H3 H 0.3809 0.4368 0.4721
C7 C 0.2558(2) 0.54052(16) 0.13537(15)
C8 C 0.1055(2) 0.44075(15) 0.16180(14)
C9 C 0.4405(2) 0.49030(18) 0.16660(19)
H4 H 0.5256 0.5607 0.1608
H5 H 0.4730 0.4225 0.1082
H6 H 0.4406 0.4557 0.2507
C10 C 0.2576(3) 0.5952(2) 0.00334(17)
H7 H 0.1451 0.6377 -0.0134
H8 H 0.2753 0.5253 -0.0559
H9 H 0.3537 0.6575 -0.0047
C11 C 0.1616(3) 0.29937(17) 0.15254(19)
H10 H 0.2544 0.2820 0.2130
H11 H 0.2060 0.2819 0.0692
H12 H 0.0600 0.2441 0.1695
C12 C -0.0597(2) 0.4614(2) 0.08179(16)
H13 H -0.1561 0.4081 0.1133
H14 H -0.0337 0.4373 -0.0038
H15 H -0.0943 0.5519 0.0850
C13 C 0.0509(2) 0.79099(14) 0.45187(15)
H16 H -0.0345 0.8288 0.5107
H17 H 0.1075 0.8612 0.4046
C14 C -0.1826(2) 0.62945(17) 0.43507(18)
H18 H -0.2727 0.6913 0.4608
H19 H -0.1324 0.5879 0.5081
H20 H -0.2360 0.5644 0.3816
C15 C -0.1194(2) 0.76870(17) 0.26003(17)
H21 H -0.1908 0.7096 0.2107
H22 H -0.0256 0.8049 0.2084
H23 H -0.1941 0.8381 0.2915
C16 C 0.5468(2) 0.44555(16) 0.68607(15)
H24 H 0.5646 0.3683 0.6413
C17 C 0.6291(2) 0.45442(19) 0.79313(16)
H25 H 0.6163 0.5294 0.8421
H26 H 0.7010 0.3858 0.8211
loop_
_geom_bond_atom_site_label_1
_geom_bond_atom_site_label_2
_geom_bond_site_symmetry_1
_geom_bond_site_symmetry_2
O1 B1 1_555 1_555
O2 B1 1_555 1_555
N1 B1 1_555 1_555
B1 C1 1_555 1_555
C1 C2 1_555 1_555
C2 C3 1_555 1_555
C3 H1 1_555 1_555
C4 C3 1_555 1_555
H2 C4 1_555 1_555
C5 C4 1_555 1_555
C6 C1 1_555 1_555
H3 C6 1_555 1_555
C7 O1 1_555 1_555
C8 O2 1_555 1_555
C9 C7 1_555 1_555
H4 C9 1_555 1_555
H5 C9 1_555 1_555
H6 C9 1_555 1_555
C10 C7 1_555 1_555
H7 C10 1_555 1_555
H8 C10 1_555 1_555
H9 C10 1_555 1_555
C11 C8 1_555 1_555
H10 C11 1_555 1_555
H11 C11 1_555 1_555
H12 C11 1_555 1_555
C12 C8 1_555 1_555
H13 C12 1_555 1_555
H14 C12 1_555 1_555
H15 C12 1_555 1_555
C13 N1 1_555 1_555
H16 C13 1_555 1_555
H17 C13 1_555 1_555
C14 N1 1_555 1_555
H18 C14 1_555 1_555
H19 C14 1_555 1_555
H20 C14 1_555 1_555
C15 N1 1_555 1_555
H21 C15 1_555 1_555
H22 C15 1_555 1_555
H23 C15 1_555 1_555
C16 C5 1_555 1_555
H24 C16 1_555 1_555
C17 C16 1_555 1_555
H25 C17 1_555 1_555
H26 C17 1_555 1_555
C2 C13 1_555 1_555
C5 C6 1_555 1_555
C7 C8 1_555 1_555

#END
