
#######################################################################
#
#                 Cambridge Crystallographic Data Centre
#                                CCDC 
#
#######################################################################
#
# If this CIF has been generated from an entry in the Cambridge 
# Structural Database, then it will include bibliographic, chemical, 
# crystal, experimental, refinement or atomic coordinate data resulting 
# from the CCDC's data processing and validation procedures.
#
#######################################################################

data_LUXZUB
_chemical_formula_moiety         'C34 H36 Cl2 N2 O4 S2'
_chemical_name_systematic        
5,11-dichloro-2,8-dioctyl[1]benzothieno[4,5,6,7-lmn]thieno[3,2-f][3,8]phenanthroline-1,3,7,9(2H,8H)-tetrone
_symmetry_cell_setting           triclinic
_symmetry_space_group_name_H-M   'P -1'
_symmetry_Int_Tables_number      2
_space_group_name_Hall           '-P 1'
loop_
_symmetry_equiv_pos_site_id
_symmetry_equiv_pos_as_xyz
1 x,y,z
2 -x,-y,-z
_cell_length_a                   5.3741(11)
_cell_length_b                   8.3251(16)
_cell_length_c                   18.155(3)
_cell_angle_alpha                93.296(10)
_cell_angle_beta                 93.705(10)
_cell_angle_gamma                98.532(10)
_cell_volume                     799.731
_exptl_crystal_colour            red
_exptl_crystal_description       platelet
_cell_formula_units_Z            1
loop_
_atom_site_label
_atom_site_type_symbol
_atom_site_fract_x
_atom_site_fract_y
_atom_site_fract_z
S1 S 0.5115(5) 0.1727(3) 0.84406(9)
C1 C 0.622(2) 0.3109(17) 0.9808(9)
H1 H 0.7062 0.3805 1.0210
Cl1 Cl 0.9573(2) 0.41889(15) 0.87542(7)
O1 O -0.5376(6) -0.3339(4) 0.86949(15)
N1 N -0.1837(7) -0.2032(4) 0.82433(16)
O2 O 0.1464(6) -0.0544(4) 0.77707(14)
C2 C 0.1042(8) -0.0033(5) 0.9038(2)
C3 C -0.0411(7) -0.0409(5) 0.96449(19)
C4 C 0.3989(7) 0.1945(5) 0.9842(2)
C5 C 0.0278(8) -0.0861(5) 0.8305(2)
C6 C -0.2552(9) -0.2924(5) 0.7505(2)
H2 H -0.3617 -0.3974 0.7572
H3 H -0.1005 -0.3164 0.7280
C7 C -0.2598(8) -0.1573(5) 0.9555(2)
C8 C -0.3458(9) -0.2398(5) 0.8808(2)
C9 C 0.3174(7) 0.1118(5) 0.91304(19)
C10 C 0.6973(8) 0.3042(5) 0.9064(2)
C11 C -0.3974(9) -0.1960(6) 0.6982(2)
H4 H -0.5551 -0.1752 0.7198
H5 H -0.2932 -0.0895 0.6927
C12 C -0.6366(10) -0.2066(7) 0.5735(2)
H6 H -0.7950 -0.2020 0.5980
H7 H -0.5584 -0.0932 0.5674
C13 C -0.4610(10) -0.2840(6) 0.6234(2)
H8 H -0.5395 -0.3971 0.6299
H9 H -0.3027 -0.2892 0.5990
C14 C -0.8883(11) -0.2292(8) 0.4493(3)
H10 H -0.8254 -0.1137 0.4420
H11 H -1.0467 -0.2324 0.4745
C15 C -0.7007(11) -0.2921(8) 0.4985(3)
H12 H -0.5430 -0.2886 0.4730
H13 H -0.7638 -0.4079 0.5051
C16 C -0.9492(14) -0.3216(10) 0.3728(4)
H14 H -0.7938 -0.3096 0.3459
H15 H -0.9964 -0.4388 0.3802
C17 C -1.1473(14) -0.2706(9) 0.3269(4)
H16 H -1.3035 -0.2831 0.3524
H17 H -1.1738 -0.3379 0.2801
H18 H -1.0997 -0.1562 0.3168
S1A S -0.5115(5) -0.1727(3) 1.15594(9)
C1A C -0.622(2) -0.3109(17) 1.0192(9)
H1A H -0.7062 -0.3805 0.9790
Cl1A Cl -0.9573(2) -0.41889(15) 1.12458(7)
O1A O 0.5376(6) 0.3339(4) 1.13051(15)
N1A N 0.1837(7) 0.2032(4) 1.17567(16)
O2A O -0.1464(6) 0.0544(4) 1.22293(14)
C2A C -0.1042(8) 0.0033(5) 1.0962(2)
C3A C 0.0411(7) 0.0409(5) 1.03551(19)
C4A C -0.3989(7) -0.1945(5) 1.0158(2)
C5A C -0.0278(8) 0.0861(5) 1.1695(2)
C6A C 0.2552(9) 0.2924(5) 1.2495(2)
H2A H 0.3617 0.3974 1.2428
H3A H 0.1005 0.3164 1.2720
C7A C 0.2598(8) 0.1573(5) 1.0445(2)
C8A C 0.3458(9) 0.2398(5) 1.1192(2)
C9A C -0.3174(7) -0.1118(5) 1.08696(19)
C10A C -0.6973(8) -0.3042(5) 1.0936(2)
C11A C 0.3974(9) 0.1960(6) 1.3018(2)
H4A H 0.5551 0.1752 1.2802
H5A H 0.2932 0.0895 1.3073
C12A C 0.6366(10) 0.2066(7) 1.4265(2)
H6A H 0.7950 0.2020 1.4020
H7A H 0.5584 0.0932 1.4326
C13A C 0.4610(10) 0.2840(6) 1.3766(2)
H8A H 0.5395 0.3971 1.3701
H9A H 0.3027 0.2892 1.4010
C14A C 0.8883(11) 0.2292(8) 1.5507(3)
H10A H 0.8254 0.1137 1.5580
H11A H 1.0467 0.2324 1.5255
C15A C 0.7007(11) 0.2921(8) 1.5015(3)
H12A H 0.5430 0.2886 1.5270
H13A H 0.7638 0.4079 1.4949
C16A C 0.9492(14) 0.3216(10) 1.6272(4)
H14A H 0.7938 0.3096 1.6541
H15A H 0.9964 0.4388 1.6198
C17A C 1.1473(14) 0.2706(9) 1.6731(4)
H16A H 1.3035 0.2831 1.6476
H17A H 1.1738 0.3379 1.7199
H18A H 1.0997 0.1562 1.6832
C18? C 0.490(7) 0.171(5) 0.8603(19)
H19? H 0.4830 0.1387 0.8091
S2? S 0.6737(16) 0.3336(14) 0.9880(8)
loop_
_geom_bond_atom_site_label_1
_geom_bond_atom_site_label_2
_geom_bond_site_symmetry_1
_geom_bond_site_symmetry_2
S1 C9 1_555 1_555
C1 H1 1_555 1_555
Cl1 C10 1_555 1_555
O1 C8 1_555 1_555
N1 C5 1_555 1_555
O2 C5 1_555 1_555
C2 C3 1_555 1_555
C3 C7 1_555 1_555
C4 C1 1_555 1_555
C5 C2 1_555 1_555
C6 N1 1_555 1_555
H2 C6 1_555 1_555
H3 C6 1_555 1_555
C7 C8 1_555 1_555
C8 N1 1_555 1_555
C9 C2 1_555 1_555
C10 S1 1_555 1_555
C11 C6 1_555 1_555
H4 C11 1_555 1_555
H5 C11 1_555 1_555
C12 H6 1_555 1_555
H7 C12 1_555 1_555
C13 C11 1_555 1_555
H8 C13 1_555 1_555
H9 C13 1_555 1_555
C14 H10 1_555 1_555
H11 C14 1_555 1_555
C15 C12 1_555 1_555
H12 C15 1_555 1_555
H13 C15 1_555 1_555
C16 C14 1_555 1_555
H14 C16 1_555 1_555
H15 C16 1_555 1_555
C17 C16 1_555 1_555
H16 C17 1_555 1_555
H17 C17 1_555 1_555
H18 C17 1_555 1_555
S1A C9A 1_555 1_555
C1A H1A 1_555 1_555
Cl1A C10A 1_555 1_555
O1A C8A 1_555 1_555
N1A C5A 1_555 1_555
O2A C5A 1_555 1_555
C2A C3A 1_555 1_555
C3A C3 1_555 1_555
C4A C7 1_555 1_555
C5A C2A 1_555 1_555
C6A N1A 1_555 1_555
H2A C6A 1_555 1_555
H3A C6A 1_555 1_555
C7A C4 1_555 1_555
C8A N1A 1_555 1_555
C9A C2A 1_555 1_555
C10A S1A 1_555 1_555
C11A C6A 1_555 1_555
H4A C11A 1_555 1_555
H5A C11A 1_555 1_555
C12A H6A 1_555 1_555
H7A C12A 1_555 1_555
C13A C11A 1_555 1_555
H8A C13A 1_555 1_555
H9A C13A 1_555 1_555
C14A H10A 1_555 1_555
H11A C14A 1_555 1_555
C15A C12A 1_555 1_555
H12A C15A 1_555 1_555
H13A C15A 1_555 1_555
C16A C14A 1_555 1_555
H14A C16A 1_555 1_555
H15A C16A 1_555 1_555
C17A C16A 1_555 1_555
H16A C17A 1_555 1_555
H17A C17A 1_555 1_555
H18A C17A 1_555 1_555
C1 C10 1_555 1_555
C4 C9 1_555 1_555
C12 C13 1_555 1_555
C14 C15 1_555 1_555
C1A C4A 1_555 1_555
C1A C10A 1_555 1_555
C3A C7A 1_555 1_555
C4A C9A 1_555 1_555
C7A C8A 1_555 1_555
C12A C13A 1_555 1_555
C14A C15A 1_555 1_555

#END
