
#######################################################################
#
#                 Cambridge Crystallographic Data Centre
#                                CCDC 
#
#######################################################################
#
# If this CIF has been generated from an entry in the Cambridge 
# Structural Database, then it will include bibliographic, chemical, 
# crystal, experimental, refinement or atomic coordinate data resulting 
# from the CCDC's data processing and validation procedures.
#
#######################################################################

data_LUYJEW
_chemical_formula_moiety         'C27 H22 N2 O2'
_chemical_name_systematic        
'3-(2-(4-Methylphenyl)-5-phenylpyrazolo[5,1-a]isoquinolin-1-yl)propanoic acid'
_symmetry_cell_setting           triclinic
_symmetry_space_group_name_H-M   'P -1'
_symmetry_Int_Tables_number      2
_space_group_name_Hall           '-P 1'
loop_
_symmetry_equiv_pos_site_id
_symmetry_equiv_pos_as_xyz
1 x,y,z
2 -x,-y,-z
_cell_length_a                   9.458(2)
_cell_length_b                   10.741(3)
_cell_length_c                   11.550(3)
_cell_angle_alpha                72.789(4)
_cell_angle_beta                 81.884(4)
_cell_angle_gamma                68.844(4)
_cell_volume                     1044.49
_exptl_crystal_description       prism
_cell_formula_units_Z            2
loop_
_atom_site_label
_atom_site_type_symbol
_atom_site_fract_x
_atom_site_fract_y
_atom_site_fract_z
N1 N 0.07522(14) 0.57418(13) 0.20728(12)
N2 N 0.15072(14) 0.48589(14) 0.30783(12)
O1 O -0.44131(17) 0.3506(2) 0.2375(2)
H1 H -0.652(3) 0.460(3) 0.350(3)
O2 O -0.56564(14) 0.45772(15) 0.37842(13)
C1 C 0.08174(16) 0.39038(16) 0.34821(14)
C2 C -0.03839(17) 0.41622(16) 0.27471(15)
C3 C -0.03860(16) 0.53441(16) 0.18224(14)
C4 C -0.12369(17) 0.61559(17) 0.07453(15)
C5 C -0.23526(19) 0.5799(2) 0.03559(17)
H2 H -0.2579 0.5006 0.0812
C6 C -0.3115(2) 0.6607(2) -0.06910(18)
H3 H -0.3846 0.6352 -0.0948
C7 C -0.2808(2) 0.7794(2) -0.13680(18)
H4 H -0.3342 0.8342 -0.2074
C8 C -0.1726(2) 0.8175(2) -0.10123(17)
H5 H -0.1533 0.8985 -0.1468
C9 C -0.09098(19) 0.73440(18) 0.00379(15)
C10 C 0.0239(2) 0.77119(18) 0.04147(15)
H6 H 0.0433 0.8518 -0.0051
C11 C 0.10514(18) 0.69399(17) 0.14153(15)
C12 C 0.13477(16) 0.28079(16) 0.46043(14)
C13 C 0.17113(18) 0.31527(16) 0.55754(15)
H7 H 0.1631 0.4072 0.5494
C14 C 0.21869(18) 0.21586(18) 0.66535(16)
H8 H 0.2423 0.2415 0.7293
C15 C 0.2322(2) 0.07842(18) 0.68067(16)
C16 C 0.1990(2) 0.04388(18) 0.58282(18)
H9 H 0.2091 -0.0485 0.5905
C17 C 0.1513(2) 0.14266(18) 0.47455(16)
H10 H 0.1299 0.1164 0.4101
C18 C 0.2792(3) -0.0268(2) 0.80058(19)
H11 H 0.3788 -0.0327 0.8187
H12 H 0.2825 -0.1165 0.7960
H13 H 0.2064 0.0013 0.8641
C19 C -0.15484(18) 0.34548(17) 0.29951(17)
H14 H -0.1195 0.2585 0.3629
H15 H -0.1667 0.3232 0.2259
C20 C -0.30907(18) 0.43700(18) 0.34016(16)
H16 H -0.3089 0.4249 0.4276
H17 H -0.3213 0.5341 0.2996
C21 C -0.44306(18) 0.40705(18) 0.31402(17)
C22 C 0.21318(18) 0.73700(16) 0.18915(15)
C23 C 0.1842(2) 0.76436(18) 0.30293(16)
H18 H 0.1007 0.7488 0.3517
C24 C 0.2782(2) 0.8143(2) 0.34387(18)
H19 H 0.2583 0.8328 0.4203
C25 C 0.4014(2) 0.8372(2) 0.2724(2)
H20 H 0.4649 0.8713 0.3004
C26 C 0.4314(2) 0.8102(2) 0.1601(2)
H21 H 0.5157 0.8253 0.1122
C27 C 0.3370(2) 0.76072(19) 0.11765(17)
H22 H 0.3570 0.7434 0.0408
loop_
_geom_bond_atom_site_label_1
_geom_bond_atom_site_label_2
_geom_bond_site_symmetry_1
_geom_bond_site_symmetry_2
N1 N2 1_555 1_555
N2 C1 1_555 1_555
O1 C21 1_555 1_555
H1 O2 1_555 1_555
O2 C21 1_555 1_555
C1 C2 1_555 1_555
C2 C3 1_555 1_555
C3 N1 1_555 1_555
C4 C3 1_555 1_555
C5 C4 1_555 1_555
H2 C5 1_555 1_555
C6 C5 1_555 1_555
H3 C6 1_555 1_555
C7 C6 1_555 1_555
H4 C7 1_555 1_555
C8 C7 1_555 1_555
H5 C8 1_555 1_555
C9 C4 1_555 1_555
C10 C9 1_555 1_555
H6 C10 1_555 1_555
C11 N1 1_555 1_555
C12 C1 1_555 1_555
C13 C12 1_555 1_555
H7 C13 1_555 1_555
C14 C13 1_555 1_555
H8 C14 1_555 1_555
C15 C14 1_555 1_555
C16 C15 1_555 1_555
H9 C16 1_555 1_555
C17 C12 1_555 1_555
H10 C17 1_555 1_555
C18 C15 1_555 1_555
H11 C18 1_555 1_555
H12 C18 1_555 1_555
H13 C18 1_555 1_555
C19 C2 1_555 1_555
H14 C19 1_555 1_555
H15 C19 1_555 1_555
C20 C19 1_555 1_555
H16 C20 1_555 1_555
H17 C20 1_555 1_555
C21 C20 1_555 1_555
C22 C11 1_555 1_555
C23 C22 1_555 1_555
H18 C23 1_555 1_555
C24 C23 1_555 1_555
H19 C24 1_555 1_555
C25 C24 1_555 1_555
H20 C25 1_555 1_555
C26 C25 1_555 1_555
H21 C26 1_555 1_555
C27 C22 1_555 1_555
H22 C27 1_555 1_555
C8 C9 1_555 1_555
C10 C11 1_555 1_555
C16 C17 1_555 1_555
C26 C27 1_555 1_555

#END
