
#######################################################################
#
#                 Cambridge Crystallographic Data Centre
#                                CCDC 
#
#######################################################################
#
# If this CIF has been generated from an entry in the Cambridge 
# Structural Database, then it will include bibliographic, chemical, 
# crystal, experimental, refinement or atomic coordinate data resulting 
# from the CCDC's data processing and validation procedures.
#
#######################################################################

data_LUYLAT
_chemical_formula_moiety         'C18 H22 Br1 N1 O5'
_chemical_name_systematic        
't-Butyl (R)-((R)-3-acetyl-2-oxotetrahydrofuran-3-yl)(2-bromophenyl)methylcarbamate'
_symmetry_cell_setting           orthorhombic
_symmetry_space_group_name_H-M   'P 21 21 21'
_symmetry_Int_Tables_number      19
_space_group_name_Hall           'P 2ac 2ab'
loop_
_symmetry_equiv_pos_site_id
_symmetry_equiv_pos_as_xyz
1 x,y,z
2 1/2-x,-y,1/2+z
3 -x,1/2+y,1/2-z
4 1/2+x,1/2-y,-z
_cell_length_a                   7.241(3)
_cell_length_b                   11.071(4)
_cell_length_c                   24.144(10)
_cell_angle_alpha                90
_cell_angle_beta                 90
_cell_angle_gamma                90
_cell_volume                     1935.51
_exptl_crystal_colour            colorless
_exptl_crystal_description       block
_chemical_melting_point          '169 deg.C'
_cell_formula_units_Z            4
loop_
_atom_site_label
_atom_site_type_symbol
_atom_site_fract_x
_atom_site_fract_y
_atom_site_fract_z
Br1 Br -0.22838(5) 0.84886(3) 0.865206(19)
C1 C 0.3020(5) 1.0930(3) 0.96234(14)
C2 C 0.0561(6) 1.1149(3) 1.02071(16)
H1 H 0.0237 1.1987 1.0271
H2 H 0.0104 1.0669 1.0514
C3 C -0.0254(5) 1.0712(3) 0.96681(13)
H3 H -0.1332 1.1182 0.9567
H4 H -0.0596 0.9867 0.9691
C4 C 0.1323(4) 1.0903(3) 0.92521(12)
C5 C 0.1503(4) 0.9917(2) 0.87972(11)
H5 H 0.0431 1.0002 0.8553
C6 C 0.1461(4) 0.8634(3) 0.90255(11)
C7 C -0.0078(5) 0.7905(3) 0.89929(12)
C8 C -0.0117(6) 0.6736(3) 0.91971(14)
H6 H -0.1173 0.6262 0.9165
C9 C 0.1460(7) 0.6292(3) 0.94497(15)
H7 H 0.1467 0.5513 0.9594
C10 C 0.3001(6) 0.6994(3) 0.94877(14)
H8 H 0.4057 0.6691 0.9657
C11 C 0.3001(5) 0.8145(3) 0.92771(13)
H9 H 0.4069 0.8608 0.9304
C12 C 0.3246(5) 0.9794(3) 0.79381(14)
C13 C 0.5464(5) 0.9729(3) 0.71697(13)
C14 C 0.7418(7) 1.0182(4) 0.71345(16)
H10 H 0.7441 1.1033 0.7210
H11 H 0.7894 1.0036 0.6769
H12 H 0.8166 0.9766 0.7402
C15 C 0.5371(7) 0.8379(4) 0.70753(16)
H13 H 0.6192 0.7978 0.7328
H14 H 0.5732 0.8200 0.6702
H15 H 0.4132 0.8102 0.7137
C16 C 0.4195(7) 1.0418(4) 0.67805(15)
H16 H 0.2976 1.0079 0.6797
H17 H 0.4657 1.0360 0.6409
H18 H 0.4150 1.1251 0.6890
C17 C 0.1100(5) 1.2170(3) 0.89984(14)
C18 C -0.0276(6) 1.2340(3) 0.85492(18)
H19 H -0.0434 1.3187 0.8479
H20 H -0.1436 1.1996 0.8660
H21 H 0.0151 1.1947 0.8219
N1 N 0.3130(4) 1.0179(2) 0.84662(11)
O1 O 0.4615(4) 1.0878(2) 0.94953(10)
O2 O 0.2539(4) 1.10175(19) 1.01548(9)
O3 O 0.4956(3) 1.00166(19) 0.77491(8)
O4 O 0.1994(4) 0.9323(2) 0.76933(10)
O5 O 0.1959(4) 1.3004(2) 0.91864(10)
H22 H 0.398(4) 1.040(3) 0.8650(13)
loop_
_geom_bond_atom_site_label_1
_geom_bond_atom_site_label_2
_geom_bond_site_symmetry_1
_geom_bond_site_symmetry_2
Br1 C7 1_555 1_555
C1 C4 1_555 1_555
C2 H1 1_555 1_555
H2 C2 1_555 1_555
C3 C2 1_555 1_555
H3 C3 1_555 1_555
H4 C3 1_555 1_555
C4 C3 1_555 1_555
C5 C4 1_555 1_555
H5 C5 1_555 1_555
C6 C5 1_555 1_555
C7 C6 1_555 1_555
C8 C7 1_555 1_555
H6 C8 1_555 1_555
C9 C8 1_555 1_555
H7 C9 1_555 1_555
C10 C9 1_555 1_555
H8 C10 1_555 1_555
C11 C6 1_555 1_555
H9 C11 1_555 1_555
C12 N1 1_555 1_555
C13 C14 1_555 1_555
C14 H10 1_555 1_555
H11 C14 1_555 1_555
H12 C14 1_555 1_555
C15 C13 1_555 1_555
H13 C15 1_555 1_555
H14 C15 1_555 1_555
H15 C15 1_555 1_555
C16 C13 1_555 1_555
H16 C16 1_555 1_555
H17 C16 1_555 1_555
H18 C16 1_555 1_555
C17 C4 1_555 1_555
C18 C17 1_555 1_555
H19 C18 1_555 1_555
H20 C18 1_555 1_555
H21 C18 1_555 1_555
N1 C5 1_555 1_555
O1 C1 1_555 1_555
O2 C1 1_555 1_555
O3 C12 1_555 1_555
O4 C12 1_555 1_555
O5 C17 1_555 1_555
H22 N1 1_555 1_555
C2 O2 1_555 1_555
C10 C11 1_555 1_555
C13 O3 1_555 1_555

#END
