
#######################################################################
#
#                 Cambridge Crystallographic Data Centre
#                                CCDC 
#
#######################################################################
#
# If this CIF has been generated from an entry in the Cambridge 
# Structural Database, then it will include bibliographic, chemical, 
# crystal, experimental, refinement or atomic coordinate data resulting 
# from the CCDC's data processing and validation procedures.
#
#######################################################################

data_LUYZEL
_chemical_formula_moiety         'C15 H12 I2 N2,0.5(C6 H14)'
_chemical_name_systematic        
'(+)-(S,S)-2,8-Di-iodo-6H,12H-5,11-methanodibenzo(b,f)(1,5)diazocine n-hexane solvate'
_symmetry_cell_setting           tetragonal
_symmetry_space_group_name_H-M   'I 4'
_symmetry_Int_Tables_number      79
_space_group_name_Hall           'I 4'
loop_
_symmetry_equiv_pos_site_id
_symmetry_equiv_pos_as_xyz
1 x,y,z
2 -x,-y,z
3 -y,x,z
4 y,-x,z
5 1/2+x,1/2+y,1/2+z
6 1/2-x,1/2-y,1/2+z
7 1/2-y,1/2+x,1/2+z
8 1/2+y,1/2-x,1/2+z
_cell_length_a                   12.8256(9)
_cell_length_b                   12.8256(9)
_cell_length_c                   10.7457(11)
_cell_angle_alpha                90
_cell_angle_beta                 90
_cell_angle_gamma                90
_cell_volume                     1767.62
_exptl_crystal_colour            colorless
_exptl_crystal_description       plate
_cell_formula_units_Z            4
loop_
_atom_site_label
_atom_site_type_symbol
_atom_site_fract_x
_atom_site_fract_y
_atom_site_fract_z
N1 N 1.0828(2) 1.5459(3) 0.8584(3)
I1 I 1.26448(2) 1.22481(2) 1.24782(7)
C1 C 1.2024(3) 1.3302(4) 1.1172(3)
C2 C 1.1069(3) 1.3107(3) 1.0625(3)
H1 H 1.0695 1.2493 1.0836
C3 C 1.0653(3) 1.3805(3) 0.9768(4)
C4 C 1.1209(3) 1.4710(3) 0.9464(3)
C5 C 1.2173(4) 1.4914(3) 1.0043(4)
H2 H 1.2545 1.5535 0.9854
C6 C 1.2575(4) 1.4204(4) 1.0891(4)
H3 H 1.3227 1.4335 1.1280
C7 C 0.9595(3) 1.3607(4) 0.9182(4)
H4 H 0.969(4) 1.310(4) 0.854(4)
H5 H 0.922(4) 1.338(4) 0.981(4)
C8 C 1.0000 1.5000 0.7812(5)
H6 H 0.973(3) 1.559(3) 0.736(4)
N1A N 0.9172(2) 1.4541(3) 0.8584(3)
I1A I 0.73552(2) 1.77519(2) 1.24782(7)
C1A C 0.7976(3) 1.6698(4) 1.1172(3)
C2A C 0.8931(3) 1.6893(3) 1.0625(3)
H1A H 0.9305 1.7507 1.0836
C3A C 0.9347(3) 1.6195(3) 0.9768(4)
C4A C 0.8791(3) 1.5290(3) 0.9464(3)
C5A C 0.7827(4) 1.5086(3) 1.0043(4)
H2A H 0.7455 1.4465 0.9854
C6A C 0.7425(4) 1.5796(4) 1.0891(4)
H3A H 0.6773 1.5665 1.1280
C7A C 1.0405(3) 1.6393(4) 0.9182(4)
H4A H 1.031(4) 1.690(4) 0.854(4)
H5A H 1.078(4) 1.662(4) 0.981(4)
H6A H 1.027(3) 1.441(3) 0.736(4)
loop_
_geom_bond_atom_site_label_1
_geom_bond_atom_site_label_2
_geom_bond_site_symmetry_1
_geom_bond_site_symmetry_2
N1 C4 1_555 1_555
I1 C1 1_555 1_555
C1 C2 1_555 1_555
C2 H1 1_555 1_555
C3 C2 1_555 1_555
C4 C3 1_555 1_555
C5 C4 1_555 1_555
H2 C5 1_555 1_555
C6 C1 1_555 1_555
H3 C6 1_555 1_555
C7 C3 1_555 1_555
H4 C7 1_555 1_555
H5 C7 1_555 1_555
C8 N1 1_555 1_555
H6 C8 1_555 1_555
N1A C7 1_555 1_555
I1A C1A 1_555 1_555
C1A C2A 1_555 1_555
C2A H1A 1_555 1_555
C3A C2A 1_555 1_555
C4A N1A 1_555 1_555
C5A C4A 1_555 1_555
H2A C5A 1_555 1_555
C6A C1A 1_555 1_555
H3A C6A 1_555 1_555
C7A N1 1_555 1_555
H4A C7A 1_555 1_555
H5A C7A 1_555 1_555
H6A C8 1_555 1_555
C5 C6 1_555 1_555
C8 N1A 1_555 1_555
C3A C4A 1_555 1_555
C3A C7A 1_555 1_555
C5A C6A 1_555 1_555

#END
