
#######################################################################
#
#                 Cambridge Crystallographic Data Centre
#                                CCDC 
#
#######################################################################
#
# If this CIF has been generated from an entry in the Cambridge 
# Structural Database, then it will include bibliographic, chemical, 
# crystal, experimental, refinement or atomic coordinate data resulting 
# from the CCDC's data processing and validation procedures.
#
#######################################################################

data_LUZGEU
_chemical_formula_moiety         'C11 H5 F2 N3 O2 S1,H2 O1'
_chemical_name_systematic        
'5,8-dicyano-6,7-difluoro-3,4-dihydro-2H-1,4-benzothiazine-3-carboxylic acid monohydrate'
_symmetry_cell_setting           monoclinic
_symmetry_space_group_name_H-M   'C 2'
_symmetry_Int_Tables_number      5
_space_group_name_Hall           'C 2y'
loop_
_symmetry_equiv_pos_site_id
_symmetry_equiv_pos_as_xyz
1 x,y,z
2 -x,y,-z
3 1/2+x,1/2+y,z
4 1/2-x,1/2+y,-z
_cell_length_a                   26.261(3)
_cell_length_b                   5.1620(4)
_cell_length_c                   9.7804(10)
_cell_angle_alpha                90
_cell_angle_beta                 111.188(12)
_cell_angle_gamma                90
_cell_volume                     1236.2
_exptl_crystal_colour            yellow
_exptl_crystal_description       needle
_cell_formula_units_Z            4
loop_
_atom_site_label
_atom_site_type_symbol
_atom_site_fract_x
_atom_site_fract_y
_atom_site_fract_z
S1 S 0.31348(2) 0.73976(14) 0.63049(6)
F1 F 0.37977(6) 0.8027(4) 1.27194(15)
F2 F 0.30216(7) 1.1280(4) 1.09368(18)
O1 O 0.46110(8) 0.7495(5) 0.7687(2)
O2 O 0.43573(8) 0.5681(4) 0.54789(19)
H1 H 0.4567 0.6802 0.5347
N1 N 0.45395(9) 0.2716(6) 1.2457(2)
N2 N 0.23258(10) 1.2166(6) 0.7223(3)
N3 N 0.40097(9) 0.3916(5) 0.8600(2)
H2 H 0.4202 0.2704 0.9198
C1 C 0.42552(10) 0.4178(6) 1.1666(3)
C2 C 0.26654(10) 1.0832(6) 0.7953(3)
C3 C 0.43547(10) 0.5897(5) 0.6814(3)
C4 C 0.39796(10) 0.3888(5) 0.7099(3)
H3 H 0.4102 0.2141 0.6901
C5 C 0.33980(10) 0.4287(5) 0.6034(3)
H4 H 0.3162 0.2897 0.6175
H5 H 0.3390 0.4170 0.5016
C6 C 0.33397(9) 0.7413(7) 0.8222(2)
C7 C 0.37531(10) 0.5744(5) 0.9138(3)
C8 C 0.38826(9) 0.5949(6) 1.0671(3)
C9 C 0.36415(10) 0.7824(6) 1.1265(3)
C10 C 0.32500(10) 0.9444(6) 1.0373(3)
C11 C 0.30938(9) 0.9196(5) 0.8864(3)
O3 O 0.5000 0.0944(6) 1.0000
H6 H 0.5126 -0.0021 1.0752
H6A H 0.4874 -0.0021 0.9248
O4 O 0.5000 0.9367(6) 0.5000
H8 H 0.4838 1.0301 0.4252
H8A H 0.5162 1.0301 0.5748
H7? H 0.5126 -0.0021 1.0752
H9? H 0.4838 1.0301 0.4252
loop_
_geom_bond_atom_site_label_1
_geom_bond_atom_site_label_2
_geom_bond_site_symmetry_1
_geom_bond_site_symmetry_2
S1 C5 1_555 1_555
F1 C9 1_555 1_555
F2 C10 1_555 1_555
O1 C3 1_555 1_555
O2 H1 1_555 1_555
N1 C1 1_555 1_555
N2 C2 1_555 1_555
N3 H2 1_555 1_555
C1 C8 1_555 1_555
C2 C11 1_555 1_555
C3 O2 1_555 1_555
C4 N3 1_555 1_555
H3 C4 1_555 1_555
C5 C4 1_555 1_555
H4 C5 1_555 1_555
H5 C5 1_555 1_555
C6 S1 1_555 1_555
C7 N3 1_555 1_555
C8 C7 1_555 1_555
C9 C8 1_555 1_555
C10 C9 1_555 1_555
C11 C6 1_555 1_555
O3 H6 1_555 1_555
O4 H8 1_555 1_555
H6A O3 1_555 1_555
H8A O4 1_555 1_555
C3 C4 1_555 1_555
C6 C7 1_555 1_555
C10 C11 1_555 1_555

#END
