
#######################################################################
#
#                 Cambridge Crystallographic Data Centre
#                                CCDC 
#
#######################################################################
#
# If this CIF has been generated from an entry in the Cambridge 
# Structural Database, then it will include bibliographic, chemical, 
# crystal, experimental, refinement or atomic coordinate data resulting 
# from the CCDC's data processing and validation procedures.
#
#######################################################################

data_LUZHOD
_chemical_formula_moiety         'C28 H22 N6'
_chemical_name_systematic        
2,3-bis((3-(2-Pyridyl)pyrazol-1-yl)methyl)naphthalene
_symmetry_cell_setting           monoclinic
_symmetry_space_group_name_H-M   'C 2/c'
_symmetry_Int_Tables_number      15
_space_group_name_Hall           '-C 2yn'
loop_
_symmetry_equiv_pos_site_id
_symmetry_equiv_pos_as_xyz
1 x,y,z
2 1/2+x,1/2+y,z
3 x,-y,1/2+z
4 1/2+x,1/2-y,1/2+z
5 -x,-y,-z
6 1/2-x,1/2-y,-z
7 -x,y,1/2-z
8 1/2-x,1/2+y,1/2-z
_cell_length_a                   20.110(2)
_cell_length_b                   13.8852(15)
_cell_length_c                   7.7784(9)
_cell_angle_alpha                90
_cell_angle_beta                 98.902(2)
_cell_angle_gamma                90
_cell_volume                     2145.81
_exptl_crystal_colour            colorless
_exptl_crystal_description       block
_cell_formula_units_Z            4
loop_
_atom_site_label
_atom_site_type_symbol
_atom_site_fract_x
_atom_site_fract_y
_atom_site_fract_z
N1 N 0.14508(5) 0.40763(8) -0.02250(14)
C1 C 0.20656(6) 0.38055(8) -0.04991(16)
C2 C 0.21945(6) 0.34803(9) -0.21140(16)
H1 H 0.2636 0.3293 -0.2267
C3 C 0.16706(7) 0.34362(10) -0.34819(17)
H2 H 0.1744 0.3210 -0.4590
C4 C 0.10366(7) 0.37255(11) -0.32196(19)
H3 H 0.0667 0.3712 -0.4142
C5 C 0.09557(6) 0.40342(11) -0.15828(19)
H4 H 0.0519 0.4230 -0.1407
N2 N 0.35784(5) 0.38224(7) 0.25020(13)
N3 N 0.32448(5) 0.37242(7) 0.08649(13)
C6 C 0.25981(6) 0.38708(8) 0.10162(15)
C7 C 0.25226(6) 0.40723(9) 0.27448(16)
H5 H 0.2117 0.4207 0.3183
C8 C 0.31598(6) 0.40322(9) 0.36589(16)
H6 H 0.3285 0.4132 0.4874
C9 C 0.43062(6) 0.37520(9) 0.28038(17)
H7 H 0.4448 0.3298 0.1948
H8 H 0.4452 0.3481 0.3979
C10 C 0.46588(5) 0.47099(9) 0.26648(14)
C11 C 0.43468(5) 0.55672(9) 0.28819(14)
H9 H 0.3901 0.5561 0.3148
C12 C 0.46691(5) 0.64649(9) 0.27211(14)
C13 C 0.43554(6) 0.73573(9) 0.29666(16)
H10 H 0.3919 0.7365 0.3290
C14 C 0.46751(6) 0.82077(10) 0.27430(16)
H11 H 0.4460 0.8801 0.2915
C10F C 0.53412(5) 0.47099(9) 0.23352(14)
C9F C 0.56938(6) 0.37520(9) 0.21962(17)
N2F N 0.64216(5) 0.38224(7) 0.24980(13)
N3F N 0.67552(5) 0.37242(7) 0.41351(13)
C6F C 0.74019(6) 0.38708(8) 0.39838(15)
C1F C 0.79344(6) 0.38055(8) 0.54991(16)
N1F N 0.85492(5) 0.40763(8) 0.52250(14)
C5F C 0.90443(6) 0.40342(11) 0.65828(19)
C4F C 0.89634(7) 0.37255(11) 0.82196(19)
C3F C 0.83294(7) 0.34362(10) 0.84819(17)
C2F C 0.78055(6) 0.34803(9) 0.71140(16)
H1F H 0.7364 0.3293 0.7267
H2F H 0.8256 0.3210 0.9590
H3F H 0.9333 0.3712 0.9142
H4F H 0.9481 0.4230 0.6407
C7F C 0.74774(6) 0.40723(9) 0.22552(16)
H5F H 0.7883 0.4207 0.1817
C8F C 0.68402(6) 0.40322(9) 0.13411(16)
H6F H 0.6715 0.4132 0.0126
H7F H 0.5552 0.3298 0.3052
H8F H 0.5548 0.3481 0.1021
C11F C 0.56532(5) 0.55672(9) 0.21181(14)
H9F H 0.6099 0.5561 0.1852
C12F C 0.53309(5) 0.64649(9) 0.22789(14)
C14F C 0.53249(6) 0.82077(10) 0.22570(16)
C13F C 0.56446(6) 0.73573(9) 0.20334(16)
H10F H 0.6081 0.7365 0.1710
H11F H 0.5540 0.8801 0.2085
loop_
_geom_bond_atom_site_label_1
_geom_bond_atom_site_label_2
_geom_bond_site_symmetry_1
_geom_bond_site_symmetry_2
N1 C1 1_555 1_555
C1 C2 1_555 1_555
C2 H1 1_555 1_555
C3 C2 1_555 1_555
H2 C3 1_555 1_555
C4 C3 1_555 1_555
H3 C4 1_555 1_555
C5 N1 1_555 1_555
H4 C5 1_555 1_555
N2 N3 1_555 1_555
N3 C6 1_555 1_555
C6 C1 1_555 1_555
C7 C6 1_555 1_555
H5 C7 1_555 1_555
C8 N2 1_555 1_555
H6 C8 1_555 1_555
C9 N2 1_555 1_555
H7 C9 1_555 1_555
H8 C9 1_555 1_555
C10 C9 1_555 1_555
C11 C10 1_555 1_555
H9 C11 1_555 1_555
C12 C11 1_555 1_555
C13 C12 1_555 1_555
H10 C13 1_555 1_555
C14 C13 1_555 1_555
H11 C14 1_555 1_555
C10F C10 1_555 1_555
C9F C10F 1_555 1_555
N2F C9F 1_555 1_555
N3F N2F 1_555 1_555
C6F N3F 1_555 1_555
C1F C6F 1_555 1_555
N1F C1F 1_555 1_555
C5F N1F 1_555 1_555
C4F C5F 1_555 1_555
C3F C4F 1_555 1_555
C2F C1F 1_555 1_555
H1F C2F 1_555 1_555
H2F C3F 1_555 1_555
H3F C4F 1_555 1_555
H4F C5F 1_555 1_555
C7F C6F 1_555 1_555
H5F C7F 1_555 1_555
C8F N2F 1_555 1_555
H6F C8F 1_555 1_555
H7F C9F 1_555 1_555
H8F C9F 1_555 1_555
C11F C10F 1_555 1_555
H9F C11F 1_555 1_555
C12F C12 1_555 1_555
C14F C14 1_555 1_555
C13F C12F 1_555 1_555
H10F C13F 1_555 1_555
H11F C14F 1_555 1_555
C4 C5 1_555 1_555
C7 C8 1_555 1_555
C3F C2F 1_555 1_555
C7F C8F 1_555 1_555
C11F C12F 1_555 1_555
C14F C13F 1_555 1_555

#END
