
#######################################################################
#
#                 Cambridge Crystallographic Data Centre
#                                CCDC 
#
#######################################################################
#
# If this CIF has been generated from an entry in the Cambridge 
# Structural Database, then it will include bibliographic, chemical, 
# crystal, experimental, refinement or atomic coordinate data resulting 
# from the CCDC's data processing and validation procedures.
#
#######################################################################

data_LUZJIA
_chemical_formula_moiety         'C27 H27 N1 O4 S1,0.5(C4 H10 O1)'
_chemical_name_systematic        
"6-Methoxy-3-(4-methoxyphenyl)-1'-(phenylsulfonyl)spiro[indene-1,4'-piperidine] diethyl ether solvate"
_symmetry_cell_setting           monoclinic
_symmetry_space_group_name_H-M   'C 2/c'
_symmetry_Int_Tables_number      15
_space_group_name_Hall           '-C 2yn'
loop_
_symmetry_equiv_pos_site_id
_symmetry_equiv_pos_as_xyz
1 x,y,z
2 -x,y,1/2-z
3 1/2+x,1/2+y,z
4 1/2-x,1/2+y,1/2-z
5 -x,-y,-z
6 x,-y,1/2+z
7 1/2-x,1/2-y,-z
8 1/2+x,1/2-y,1/2+z
_cell_length_a                   19.0058(8)
_cell_length_b                   9.3015(4)
_cell_length_c                   29.4118(13)
_cell_angle_alpha                90
_cell_angle_beta                 97.204(2)
_cell_angle_gamma                90
_cell_volume                     5158.44
_exptl_crystal_colour            colorless
_cell_formula_units_Z            8
loop_
_atom_site_label
_atom_site_type_symbol
_atom_site_fract_x
_atom_site_fract_y
_atom_site_fract_z
C1 C 0.15887(11) 0.1118(2) 0.49991(7)
H1 H 0.1981 0.1045 0.5253
H2 H 0.1612 0.0267 0.4800
C2 C 0.08806(11) 0.1108(2) 0.51970(7)
H3 H 0.0862 0.0258 0.5398
H4 H 0.0487 0.1028 0.4944
C3 C 0.07819(12) 0.2485(2) 0.54753(8)
C4 C 0.08506(11) 0.3804(2) 0.51618(7)
H5 H 0.0457 0.3796 0.4907
H6 H 0.0812 0.4697 0.5340
C5 C 0.15595(11) 0.3794(2) 0.49655(8)
H7 H 0.1567 0.4598 0.4745
H8 H 0.1949 0.3953 0.5217
C6 C 0.06517(12) 0.2357(2) 0.39852(8)
C7 C 0.02941(12) 0.1060(3) 0.39078(8)
H9 H 0.0544 0.0174 0.3943
C8 C -0.04362(13) 0.1079(3) 0.37783(9)
H10 H -0.0686 0.0199 0.3722
C9 C -0.08014(14) 0.2368(3) 0.37314(10)
H11 H -0.1300 0.2371 0.3645
C10 C -0.04397(14) 0.3655(3) 0.38101(10)
H12 H -0.0693 0.4537 0.3777
C11 C 0.02885(13) 0.3667(3) 0.39361(9)
H13 H 0.0537 0.4550 0.3988
C12 C 0.00754(12) 0.2508(2) 0.56656(8)
C13 C -0.06037(12) 0.2460(2) 0.54337(8)
H14 H -0.0678 0.2374 0.5109
C14 C -0.11807(12) 0.2542(2) 0.56860(8)
C15 C -0.10753(12) 0.2702(2) 0.61617(8)
H15 H -0.1471 0.2775 0.6329
C16 C -0.03864(12) 0.2753(2) 0.63909(8)
H16 H -0.0312 0.2862 0.6715
C17 C 0.01885(12) 0.2645(2) 0.61457(8)
C18 C 0.09652(12) 0.2707(2) 0.62878(8)
C19 C 0.12979(12) 0.2592(2) 0.59129(8)
H17 H 0.1799 0.2580 0.5920
C20 C -0.24433(13) 0.2536(3) 0.56728(9)
H18 H -0.2427 0.1734 0.5890
H19 H -0.2876 0.2466 0.5454
H20 H -0.2444 0.3447 0.5840
C21 C 0.13072(11) 0.2939(3) 0.67622(7)
C22 C 0.10780(12) 0.2233(3) 0.71369(8)
H21 H 0.0687 0.1591 0.7089
C23 C 0.14132(13) 0.2455(2) 0.75770(8)
H22 H 0.1262 0.1945 0.7827
C24 C 0.19749(12) 0.3432(3) 0.76535(8)
C25 C 0.22129(13) 0.4137(3) 0.72847(8)
H23 H 0.2600 0.4789 0.7334
C26 C 0.18801(12) 0.3879(3) 0.68438(8)
H24 H 0.2047 0.4354 0.6592
C27 C 0.27333(13) 0.4819(3) 0.81939(8)
H25 H 0.3171 0.4622 0.8061
H26 H 0.2844 0.4950 0.8526
H27 H 0.2513 0.5695 0.8057
N1 N 0.16849(10) 0.2430(2) 0.47313(6)
O1 O 0.18579(9) 0.36815(19) 0.40180(6)
O2 O 0.18583(8) 0.1012(2) 0.40464(5)
O3 O -0.18356(8) 0.24789(17) 0.54308(6)
O4 O 0.22529(9) 0.3632(2) 0.81026(5)
S1 S 0.15743(3) 0.23653(6) 0.417330(19)
O5 O 0.0000 0.2658(7) 0.2500
C28 C 0.0627(4) 0.1615(13) 0.2680(2)
H28 H 0.0546 0.1048 0.2953
H29 H 0.0794 0.1000 0.2440
C29 C 0.1062(5) 0.2993(11) 0.2785(3)
H30 H 0.1382 0.3132 0.2552
H31 H 0.1342 0.2909 0.3088
H32 H 0.0742 0.3819 0.2784
C28A C -0.0627(4) 0.1615(13) 0.2320(2)
H28A H -0.0546 0.1048 0.2047
H29A H -0.0794 0.1000 0.2560
C29A C -0.1062(5) 0.2993(11) 0.2215(3)
H30A H -0.1382 0.3132 0.2448
H31A H -0.1342 0.2909 0.1912
H32A H -0.0742 0.3819 0.2216
loop_
_geom_bond_atom_site_label_1
_geom_bond_atom_site_label_2
_geom_bond_site_symmetry_1
_geom_bond_site_symmetry_2
C1 H1 1_555 1_555
H2 C1 1_555 1_555
C2 C1 1_555 1_555
H3 C2 1_555 1_555
H4 C2 1_555 1_555
C3 C2 1_555 1_555
C4 C3 1_555 1_555
H5 C4 1_555 1_555
H6 C4 1_555 1_555
C5 C4 1_555 1_555
H7 C5 1_555 1_555
H8 C5 1_555 1_555
C6 C7 1_555 1_555
C7 H9 1_555 1_555
C8 C7 1_555 1_555
H10 C8 1_555 1_555
C9 C8 1_555 1_555
H11 C9 1_555 1_555
C10 C9 1_555 1_555
H12 C10 1_555 1_555
C11 C6 1_555 1_555
H13 C11 1_555 1_555
C12 C3 1_555 1_555
C13 C12 1_555 1_555
H14 C13 1_555 1_555
C14 C13 1_555 1_555
C15 C14 1_555 1_555
H15 C15 1_555 1_555
C16 C15 1_555 1_555
H16 C16 1_555 1_555
C17 C12 1_555 1_555
C18 C17 1_555 1_555
C19 C3 1_555 1_555
H17 C19 1_555 1_555
C20 H18 1_555 1_555
H19 C20 1_555 1_555
H20 C20 1_555 1_555
C21 C18 1_555 1_555
C22 C21 1_555 1_555
H21 C22 1_555 1_555
C23 C22 1_555 1_555
H22 C23 1_555 1_555
C24 C23 1_555 1_555
C25 C24 1_555 1_555
H23 C25 1_555 1_555
C26 C21 1_555 1_555
H24 C26 1_555 1_555
C27 H25 1_555 1_555
H26 C27 1_555 1_555
H27 C27 1_555 1_555
N1 C1 1_555 1_555
O1 S1 1_555 1_555
O2 S1 1_555 1_555
O3 C14 1_555 1_555
O4 C24 1_555 1_555
S1 C6 1_555 1_555
O5 C28 1_555 1_555
C28 H28 1_555 1_555
H29 C28 1_555 1_555
C29 C28 1_555 1_555
H30 C29 1_555 1_555
H31 C29 1_555 1_555
H32 C29 1_555 1_555
C28A O5 1_555 1_555
H28A C28A 1_555 1_555
H29A C28A 1_555 1_555
C29A C28A 1_555 1_555
H30A C29A 1_555 1_555
H31A C29A 1_555 1_555
H32A C29A 1_555 1_555
C5 N1 1_555 1_555
C10 C11 1_555 1_555
C16 C17 1_555 1_555
C18 C19 1_555 1_555
C20 O3 1_555 1_555
C25 C26 1_555 1_555
C27 O4 1_555 1_555
N1 S1 1_555 1_555

#END
