
#######################################################################
#
#                 Cambridge Crystallographic Data Centre
#                                CCDC 
#
#######################################################################
#
# If this CIF has been generated from an entry in the Cambridge 
# Structural Database, then it will include bibliographic, chemical, 
# crystal, experimental, refinement or atomic coordinate data resulting 
# from the CCDC's data processing and validation procedures.
#
#######################################################################

data_LUZVAE
_chemical_formula_moiety         'C28 H45 Li1 N1 O2 P1'
_chemical_name_systematic        
(N-(2-(Di-isopropylphosphino)phenyl)-2,6-di-isopropylanilinato)-(1,2-dimethoxyethane)-lithium
_symmetry_cell_setting           orthorhombic
_symmetry_space_group_name_H-M   'P b n 21'
_symmetry_Int_Tables_number      33
_space_group_name_Hall           'P 2c -2ab'
loop_
_symmetry_equiv_pos_site_id
_symmetry_equiv_pos_as_xyz
1 x,y,z
2 -x,-y,1/2+z
3 1/2-x,1/2+y,z
4 1/2+x,1/2-y,1/2+z
_cell_length_a                   10.7145(3)
_cell_length_b                   15.3867(5)
_cell_length_c                   17.6868(6)
_cell_angle_alpha                90
_cell_angle_beta                 90
_cell_angle_gamma                90
_cell_volume                     2915.86
_exptl_crystal_colour            yellow
_exptl_crystal_description       prism
_cell_formula_units_Z            4
loop_
_atom_site_label
_atom_site_type_symbol
_atom_site_fract_x
_atom_site_fract_y
_atom_site_fract_z
P1 P 0.63885(13) 0.08564(8) 0.79555(8)
O1 O 0.9555(4) 0.0991(3) 0.7007(3)
O2 O 0.8515(4) 0.2501(3) 0.6752(3)
N1 N 0.6288(3) 0.1015(2) 0.6263(2)
C1 C 0.6659(5) 0.0031(4) 0.8709(3)
H1 H 0.5880 -0.0082 0.8959
C2 C 0.7138(7) -0.0799(4) 0.8363(4)
H2 H 0.7263 -0.1214 0.8761
H3 H 0.7919 -0.0686 0.8115
H4 H 0.6553 -0.1028 0.8003
C3 C 0.7591(6) 0.0413(5) 0.9274(4)
H5 H 0.7723 -0.0011 0.9664
H6 H 0.7295 0.0944 0.9495
H7 H 0.8363 0.0520 0.9014
C4 C 0.5604(10) 0.1755(5) 0.8450(4)
H8 H 0.6238 0.2009 0.8763
C5 C 0.5204(11) 0.2444(5) 0.7860(5)
H9 H 0.4833 0.2929 0.8118
H10 H 0.4599 0.2183 0.7531
H11 H 0.5904 0.2642 0.7568
C6 C 0.4681(11) 0.1581(7) 0.8956(7)
H12 H 0.4360 0.2095 0.9195
H13 H 0.4960 0.1179 0.9335
H14 H 0.4036 0.1317 0.8658
C7 C 0.5237(4) 0.0346(3) 0.7333(3)
C8 C 0.4290(5) -0.0178(3) 0.7603(3)
H15 H 0.4251 -0.0295 0.8136
C9 C 0.3423(5) -0.0559(4) 0.7139(3)
H16 H 0.2742 -0.0886 0.7347
C10 C 0.3540(5) -0.0435(4) 0.6362(3)
H17 H 0.2970 -0.0711 0.6019
C11 C 0.4476(4) 0.0070(3) 0.6066(3)
H18 H 0.4537 0.0143 0.5528
C12 C 0.5359(4) 0.0495(3) 0.6538(3)
C13 C 0.6221(4) 0.1295(3) 0.5502(3)
C14 C 0.5294(4) 0.1892(3) 0.5259(3)
C15 C 0.4258(5) 0.2205(3) 0.5783(3)
H19 H 0.4346 0.1871 0.6238
C16 C 0.4411(6) 0.3161(4) 0.5968(4)
H20 H 0.3757 0.3335 0.6307
H21 H 0.4356 0.3493 0.5510
H22 H 0.5206 0.3261 0.6203
C17 C 0.2938(5) 0.2034(5) 0.5474(4)
H23 H 0.2330 0.2245 0.5827
H24 H 0.2818 0.1422 0.5396
H25 H 0.2844 0.2334 0.5001
C18 C 0.5332(5) 0.2216(4) 0.4524(3)
H26 H 0.4708 0.2618 0.4354
C19 C 0.6267(6) 0.1984(4) 0.4029(3)
H27 H 0.6288 0.2232 0.3531
C20 C 0.7171(5) 0.1413(4) 0.4262(3)
H28 H 0.7807 0.1249 0.3907
C21 C 0.7173(4) 0.1058(3) 0.4984(3)
C22 C 0.8183(5) 0.0404(3) 0.5191(3)
H29 H 0.8102 0.0276 0.5720
C23 C 0.8007(8) -0.0427(4) 0.4733(5)
H30 H 0.8648 -0.0837 0.4860
H31 H 0.8049 -0.0294 0.4204
H32 H 0.7205 -0.0672 0.4849
C24 C 0.9484(5) 0.0772(5) 0.5093(5)
H33 H 1.0099 0.0344 0.5224
H34 H 0.9569 0.1267 0.5420
H35 H 0.9602 0.0950 0.4578
C25 C 0.8176(9) 0.3155(5) 0.6238(6)
H36 H 0.7287 0.3165 0.6169
H37 H 0.8575 0.3042 0.5762
H38 H 0.8449 0.3708 0.6429
C26 C 0.9831(8) 0.2483(8) 0.6860(7)
H39 H 1.0219 0.2452 0.6372
H40 H 1.0081 0.3010 0.7108
C27 C 1.0137(8) 0.1737(8) 0.7281(6)
H41 H 0.9883 0.1840 0.7794
H42 H 1.1025 0.1660 0.7262
C28 C 1.0069(8) 0.0192(7) 0.7234(6)
H43 H 0.9602 -0.0279 0.7019
H44 H 1.0036 0.0156 0.7776
H45 H 1.0922 0.0157 0.7070
Li1 Li 0.7753(8) 0.1351(6) 0.6857(5)
loop_
_geom_bond_atom_site_label_1
_geom_bond_atom_site_label_2
_geom_bond_site_symmetry_1
_geom_bond_site_symmetry_2
P1 C1 1_555 1_555
O1 C27 1_555 1_555
O2 C25 1_555 1_555
N1 C12 1_555 1_555
C1 H1 1_555 1_555
C2 C1 1_555 1_555
H2 C2 1_555 1_555
H3 C2 1_555 1_555
H4 C2 1_555 1_555
C3 C1 1_555 1_555
H5 C3 1_555 1_555
H6 C3 1_555 1_555
H7 C3 1_555 1_555
C4 P1 1_555 1_555
H8 C4 1_555 1_555
C5 C4 1_555 1_555
H9 C5 1_555 1_555
H10 C5 1_555 1_555
H11 C5 1_555 1_555
C6 C4 1_555 1_555
H12 C6 1_555 1_555
H13 C6 1_555 1_555
H14 C6 1_555 1_555
C7 P1 1_555 1_555
C8 C7 1_555 1_555
H15 C8 1_555 1_555
C9 C8 1_555 1_555
H16 C9 1_555 1_555
C10 C9 1_555 1_555
H17 C10 1_555 1_555
C11 C10 1_555 1_555
H18 C11 1_555 1_555
C12 C7 1_555 1_555
C13 N1 1_555 1_555
C14 C13 1_555 1_555
C15 C14 1_555 1_555
H19 C15 1_555 1_555
C16 C15 1_555 1_555
H20 C16 1_555 1_555
H21 C16 1_555 1_555
H22 C16 1_555 1_555
C17 C15 1_555 1_555
H23 C17 1_555 1_555
H24 C17 1_555 1_555
H25 C17 1_555 1_555
C18 C14 1_555 1_555
H26 C18 1_555 1_555
C19 C18 1_555 1_555
H27 C19 1_555 1_555
C20 C19 1_555 1_555
H28 C20 1_555 1_555
C21 C13 1_555 1_555
C22 C21 1_555 1_555
H29 C22 1_555 1_555
C23 C22 1_555 1_555
H30 C23 1_555 1_555
H31 C23 1_555 1_555
H32 C23 1_555 1_555
C24 C22 1_555 1_555
H33 C24 1_555 1_555
H34 C24 1_555 1_555
H35 C24 1_555 1_555
C25 H36 1_555 1_555
H37 C25 1_555 1_555
H38 C25 1_555 1_555
C26 O2 1_555 1_555
H39 C26 1_555 1_555
H40 C26 1_555 1_555
C27 C26 1_555 1_555
H41 C27 1_555 1_555
H42 C27 1_555 1_555
C28 O1 1_555 1_555
H43 C28 1_555 1_555
H44 C28 1_555 1_555
H45 C28 1_555 1_555
Li1 P1 1_555 1_555
O1 Li1 1_555 1_555
O2 Li1 1_555 1_555
N1 Li1 1_555 1_555
C11 C12 1_555 1_555
C20 C21 1_555 1_555

#END
