
#######################################################################
#
#                 Cambridge Crystallographic Data Centre
#                                CCDC 
#
#######################################################################
#
# If this CIF has been generated from an entry in the Cambridge 
# Structural Database, then it will include bibliographic, chemical, 
# crystal, experimental, refinement or atomic coordinate data resulting 
# from the CCDC's data processing and validation procedures.
#
#######################################################################

data_LUZXOU
_chemical_formula_moiety         'C4 H4 N10 O4,2(H2 O1)'
_chemical_name_systematic        
"N,N'-Dinitro-1,1',4,4'-tetrahydro-5H,5'H-3,3'-bi-1,2,4-triazole-5,5'-diimine dihydrate"
_symmetry_cell_setting           monoclinic
_symmetry_space_group_name_H-M   'P 21/n'
_symmetry_Int_Tables_number      14
_space_group_name_Hall           '-P 2yn'
loop_
_symmetry_equiv_pos_site_id
_symmetry_equiv_pos_as_xyz
1 x,y,z
2 1/2-x,1/2+y,1/2-z
3 -x,-y,-z
4 1/2+x,1/2-y,1/2+z
_cell_length_a                   5.250(4)
_cell_length_b                   17.886(10)
_cell_length_c                   6.314(4)
_cell_angle_alpha                90
_cell_angle_beta                 112.536(10)
_cell_angle_gamma                90
_cell_volume                     547.62
_exptl_crystal_colour            colorless
_exptl_crystal_description       sheet
_cell_formula_units_Z            2
loop_
_atom_site_label
_atom_site_type_symbol
_atom_site_fract_x
_atom_site_fract_y
_atom_site_fract_z
O1 O 0.1804(5) 0.21192(11) 0.6410(4)
O2 O 0.4059(5) 0.24378(11) 0.4318(4)
N1 N 0.2836(5) 0.19685(12) 0.5000(4)
N2 N 0.2511(5) 0.12543(12) 0.4283(4)
N3 N 0.5109(5) 0.14420(11) 0.1791(4)
H1 H 0.556(6) 0.1994(17) 0.184(5)
N4 N 0.5884(5) 0.09796(11) 0.0393(4)
N5 N 0.3545(5) 0.03531(11) 0.2065(4)
H2 H 0.286(7) -0.014(2) 0.255(6)
C1 C 0.3674(5) 0.10735(13) 0.2802(4)
C2 C 0.4883(5) 0.03340(12) 0.0616(4)
O1B O 0.8196(5) -0.21192(11) -0.6410(4)
O2B O 0.5941(5) -0.24378(11) -0.4318(4)
N1B N 0.7164(5) -0.19685(12) -0.5000(4)
N2B N 0.7489(5) -0.12543(12) -0.4283(4)
N3B N 0.4891(5) -0.14420(11) -0.1791(4)
H1B H 0.444(6) -0.1994(17) -0.184(5)
N4B N 0.4116(5) -0.09796(11) -0.0393(4)
N5B N 0.6455(5) -0.03531(11) -0.2065(4)
H2B H 0.714(7) 0.014(2) -0.255(6)
C1B C 0.6326(5) -0.10735(13) -0.2802(4)
C2B C 0.5117(5) -0.03340(12) -0.0616(4)
O3 O 0.1019(5) -0.08783(14) 0.2750(5)
H3 H 0.001(8) -0.120(2) 0.337(7)
H4 H 0.251(6) -0.079(2) 0.409(5)
loop_
_geom_bond_atom_site_label_1
_geom_bond_atom_site_label_2
_geom_bond_site_symmetry_1
_geom_bond_site_symmetry_2
O1 N1 1_555 1_555
O2 N1 1_555 1_555
N1 N2 1_555 1_555
N2 C1 1_555 1_555
N3 H1 1_555 1_555
N4 N3 1_555 1_555
N5 H2 1_555 1_555
C1 N3 1_555 1_555
C2 N4 1_555 1_555
O3 H3 1_555 1_555
H4 O3 1_555 1_555
O1B N1B 1_555 1_555
O2B N1B 1_555 1_555
N1B N2B 1_555 1_555
N2B C1B 1_555 1_555
N3B H1B 1_555 1_555
N4B N3B 1_555 1_555
N5B H2B 1_555 1_555
C1B N3B 1_555 1_555
C2B C2 1_555 1_555
N5 C1 1_555 1_555
N5 C2 1_555 1_555
N4B C2B 1_555 1_555
N5B C1B 1_555 1_555
N5B C2B 1_555 1_555

#END
