
#######################################################################
#
#                 Cambridge Crystallographic Data Centre
#                                CCDC 
#
#######################################################################
#
# If this CIF has been generated from an entry in the Cambridge 
# Structural Database, then it will include bibliographic, chemical, 
# crystal, experimental, refinement or atomic coordinate data resulting 
# from the CCDC's data processing and validation procedures.
#
#######################################################################

data_LYSDOL
_chemical_name_common            Lyserdol
_chemical_formula_moiety         'C25 H29 N3 O2'
_chemical_name_systematic        
'1,6-Dimethyl-8\b-((benzyloxycarbonyl) aminomethyl)-10\a-ergoline'
_chemical_properties_biological  
'analgesic, serotonin antagonist, antipyretic agent'
_symmetry_cell_setting           triclinic
_symmetry_space_group_name_H-M   'P 1'
_symmetry_Int_Tables_number      1
_space_group_name_Hall           'P 1'
loop_
_symmetry_equiv_pos_site_id
_symmetry_equiv_pos_as_xyz
1 x,y,z
_cell_length_a                   9.753(1)
_cell_length_b                   10.751(2)
_cell_length_c                   5.225(1)
_cell_angle_alpha                94.04(2)
_cell_angle_beta                 97.51(2)
_cell_angle_gamma                77.12(2)
_cell_volume                     529.015
_cell_formula_units_Z            1
loop_
_atom_site_label
_atom_site_type_symbol
_atom_site_fract_x
_atom_site_fract_y
_atom_site_fract_z
N1 N 0.07070 0.20900 -0.33000
C1 C 0.14870 0.25210 -0.49760
C2 C 0.26700 0.16200 -0.53270
C3 C 0.26360 0.05700 -0.37640
C4 C 0.36370 -0.05470 -0.34260
C5 C 0.33410 -0.13840 -0.17620
C6 C 0.21320 -0.10580 -0.04640
C7 C 0.11430 0.00720 -0.08370
C8 C 0.14060 0.09050 -0.25370
C9 C 0.39190 0.14900 -0.67970
C10 C 0.52290 0.06160 -0.53840
N2 N 0.64500 0.03660 -0.68670
C11 C 0.77180 -0.03580 -0.54070
C12 C 0.75360 -0.16600 -0.48070
C13 C 0.62580 -0.15320 -0.33750
C14 C 0.49320 -0.07090 -0.48460
C15 C -0.05360 0.28710 -0.22440
C16 C 0.67270 0.15720 -0.76940
C17 C 0.88370 -0.24110 -0.32660
N3 N 1.01180 -0.26840 -0.45900
C18 C 1.04200 -0.36730 -0.62930
O1 O 0.96640 -0.44380 -0.69390
O2 O 1.16300 -0.37060 -0.71930
C19 C 1.20560 -0.46990 -0.90660
C20 C 1.36020 -0.47980 -0.93310
C21 C 1.41550 -0.54970 -1.14560
C22 C 1.55850 -0.56390 -1.17410
C23 C 1.64620 -0.50820 -0.99020
C24 C 1.59090 -0.43830 -0.77770
C25 C 1.44790 -0.42410 -0.74910
H1 H 0.13280 0.33710 -0.56070
H2 H 0.40040 -0.21630 -0.11670
H3 H 0.19710 -0.16540 0.08090
H4 H 0.03910 0.04560 0.03400
H5 H 0.41050 0.24360 -0.68890
H6 H 0.38180 0.11020 -0.84120
H7 H 0.54050 0.10370 -0.35710
H8 H 0.79250 0.00290 -0.35850
H9 H 0.84630 -0.04530 -0.64870
H10 H 0.73570 -0.20360 -0.63830
H11 H 0.66380 -0.12450 -0.14270
H12 H 0.59270 -0.24180 -0.31800
H13 H 0.46220 -0.11680 -0.69640
H14 H -0.08600 0.37520 -0.32510
H15 H -0.02770 0.30810 -0.02100
H16 H -0.13900 0.23680 -0.25070
H17 H 0.60030 0.18430 -0.87860
H18 H 0.69080 0.20190 -0.64460
H19 H 0.76160 0.12010 -0.87170
H20 H 0.90160 -0.19660 -0.16460
H21 H 0.87970 -0.31590 -0.28540
H22 H 1.07400 -0.23110 -0.41360
H23 H 1.15330 -0.46090 -1.06610
H24 H 1.18460 -0.54430 -0.85860
H25 H 1.34760 -0.59280 -1.28800
H26 H 1.60130 -0.61800 -1.33860
H27 H 1.75680 -0.51910 -1.01230
H28 H 1.65880 -0.39520 -0.63530
H29 H 1.40510 -0.37000 -0.58460
loop_
_geom_bond_atom_site_label_1
_geom_bond_atom_site_label_2
_geom_bond_site_symmetry_1
_geom_bond_site_symmetry_2
N1 C1 1_555 1_555
C1 C2 1_555 1_555
C2 C3 1_555 1_555
C3 C4 1_555 1_555
C4 C5 1_555 1_555
C5 C6 1_555 1_555
C6 C7 1_555 1_555
C7 C8 1_555 1_555
C8 N1 1_555 1_555
C9 C2 1_555 1_555
C10 C9 1_555 1_555
N2 C10 1_555 1_555
C11 N2 1_555 1_555
C12 C11 1_555 1_555
C13 C12 1_555 1_555
C14 C4 1_555 1_555
C15 N1 1_555 1_555
C16 N2 1_555 1_555
C17 C12 1_555 1_555
N3 C17 1_555 1_555
C18 N3 1_555 1_555
O1 C18 1_555 1_555
O2 C18 1_555 1_555
C19 O2 1_555 1_555
C20 C19 1_555 1_555
C21 C20 1_555 1_555
C22 C21 1_555 1_555
C23 C22 1_555 1_555
C24 C23 1_555 1_555
C25 C20 1_555 1_555
H1 C1 1_555 1_555
H2 C5 1_555 1_555
H3 C6 1_555 1_555
H4 C7 1_555 1_555
H5 C9 1_555 1_555
H6 C9 1_555 1_555
H7 C10 1_555 1_555
H8 C11 1_555 1_555
H9 C11 1_555 1_555
H10 C12 1_555 1_555
H11 C13 1_555 1_555
H12 C13 1_555 1_555
H13 C14 1_555 1_555
H14 C15 1_555 1_555
H15 C15 1_555 1_555
H16 C15 1_555 1_555
H17 C16 1_555 1_555
H18 C16 1_555 1_555
H19 C16 1_555 1_555
H20 C17 1_555 1_555
H21 C17 1_555 1_555
H22 N3 1_555 1_555
H23 C19 1_555 1_555
H24 C19 1_555 1_555
H25 C21 1_555 1_555
H26 C22 1_555 1_555
H27 C23 1_555 1_555
H28 C24 1_555 1_555
H29 C25 1_555 1_555
C3 C8 1_555 1_555
C10 C14 1_555 1_555
C13 C14 1_555 1_555
C24 C25 1_555 1_555

#END
