
#######################################################################
#
#                 Cambridge Crystallographic Data Centre
#                                CCDC 
#
#######################################################################
#
# If this CIF has been generated from an entry in the Cambridge 
# Structural Database, then it will include bibliographic, chemical, 
# crystal, experimental, refinement or atomic coordinate data resulting 
# from the CCDC's data processing and validation procedures.
#
#######################################################################

data_MAAZCZ03
_chemical_formula_moiety         'C15 H15 N3 O2'
_chemical_name_systematic        
'(E)-2-((4-(dimethylamino)phenyl)diazenyl)benzoic acid'
_symmetry_cell_setting           triclinic
_symmetry_space_group_name_H-M   'P -1'
_symmetry_Int_Tables_number      2
_space_group_name_Hall           '-P 1'
loop_
_symmetry_equiv_pos_site_id
_symmetry_equiv_pos_as_xyz
1 x,y,z
2 -x,-y,-z
_cell_length_a                   8.252(5)
_cell_length_b                   8.511(5)
_cell_length_c                   11.230(7)
_cell_angle_alpha                92.512(4)
_cell_angle_beta                 110.205(8)
_cell_angle_gamma                113.719(4)
_cell_volume                     662.148
_exptl_crystal_colour            red
_exptl_crystal_description       Plate
_cell_formula_units_Z            2
loop_
_atom_site_label
_atom_site_type_symbol
_atom_site_fract_x
_atom_site_fract_y
_atom_site_fract_z
C1 C -0.02958(19) 0.06935(17) 0.34411(12)
C2 C -0.22871(19) 0.00585(17) 0.27886(13)
H1 H -0.2978 -0.0926 0.2082
C3 C -0.3274(2) 0.08447(19) 0.31572(13)
H2 H -0.4629 0.0403 0.2704
C4 C -0.2265(2) 0.22807(19) 0.41925(13)
H3 H -0.293 0.284 0.4433
C5 C -0.03072(19) 0.29012(18) 0.48740(13)
H4 H 0.036 0.3864 0.5596
C6 C 0.07083(18) 0.21238(17) 0.45111(12)
C7 C 0.0641(2) -0.02176(17) 0.29313(13)
C8 C 0.54896(18) 0.45926(17) 0.68604(12)
C9 C 0.65767(19) 0.36908(17) 0.68108(13)
H5 H 0.5968 0.2589 0.6226
C10 C 0.8501(2) 0.43793(18) 0.75945(13)
H6 H 0.9205 0.3747 0.7542
C11 C 0.94664(19) 0.60297(17) 0.84884(13)
C12 C 0.83410(19) 0.68904(18) 0.85692(13)
H7 H 0.8923 0.7965 0.9181
C13 C 0.64203(19) 0.61899(17) 0.77741(13)
H8 H 0.5699 0.6797 0.7841
C14 C 1.2354(2) 0.8424(2) 1.01322(14)
H9 H 1.3732 0.8747 1.0565
H10 H 1.1802 0.8353 1.0785
H11 H 1.2183 0.9315 0.9648
C15 C 1.2549(2) 0.5885(2) 0.90918(16)
H12 H 1.388 0.6558 0.9727
H13 H 1.2527 0.5844 0.8212
H14 H 1.2025 0.4687 0.9236
N1 N 0.27152(16) 0.26815(14) 0.52001(10)
N2 N 0.35496(16) 0.40476(14) 0.61063(11)
N3 N 1.13808(17) 0.67263(17) 0.92402(12)
O1 O 0.25150(14) 0.02816(13) 0.35818(10)
O2 O -0.02833(15) -0.13710(14) 0.19530(10)
H15 H 0.298(3) 0.121(3) 0.4297(19)
loop_
_geom_bond_atom_site_label_1
_geom_bond_atom_site_label_2
_geom_bond_site_symmetry_1
_geom_bond_site_symmetry_2
C1 C2 1_555 1_555
C2 H1 1_555 1_555
C3 C2 1_555 1_555
H2 C3 1_555 1_555
C4 C3 1_555 1_555
H3 C4 1_555 1_555
C5 C4 1_555 1_555
H4 C5 1_555 1_555
C6 C1 1_555 1_555
C7 C1 1_555 1_555
C8 C9 1_555 1_555
C9 H5 1_555 1_555
C10 C9 1_555 1_555
H6 C10 1_555 1_555
C11 C10 1_555 1_555
C12 C11 1_555 1_555
H7 C12 1_555 1_555
C13 C8 1_555 1_555
H8 C13 1_555 1_555
C14 H9 1_555 1_555
H10 C14 1_555 1_555
H11 C14 1_555 1_555
C15 H12 1_555 1_555
H13 C15 1_555 1_555
H14 C15 1_555 1_555
N1 C6 1_555 1_555
N2 C8 1_555 1_555
N3 C11 1_555 1_555
O1 C7 1_555 1_555
O2 C7 1_555 1_555
H15 O1 1_555 1_555
C5 C6 1_555 1_555
C12 C13 1_555 1_555
C14 N3 1_555 1_555
C15 N3 1_555 1_555
N1 N2 1_555 1_555

#END
