
#######################################################################
#
#                 Cambridge Crystallographic Data Centre
#                                CCDC 
#
#######################################################################
#
# If this CIF has been generated from an entry in the Cambridge 
# Structural Database, then it will include bibliographic, chemical, 
# crystal, experimental, refinement or atomic coordinate data resulting 
# from the CCDC's data processing and validation procedures.
#
#######################################################################

data_MABBIC
_chemical_formula_moiety         'C16 H17 N1 O4'
_chemical_name_systematic        
3-(2-Furylmethyl)-3-nitro-4-phenyltetrahydro-2H-pyran
_symmetry_cell_setting           orthorhombic
_symmetry_space_group_name_H-M   'P 21 21 21'
_symmetry_Int_Tables_number      19
_space_group_name_Hall           'P 2ac 2ab'
loop_
_symmetry_equiv_pos_site_id
_symmetry_equiv_pos_as_xyz
1 x,y,z
2 1/2-x,-y,1/2+z
3 -x,1/2+y,1/2-z
4 1/2+x,1/2-y,-z
_cell_length_a                   7.554(2)
_cell_length_b                   12.068(4)
_cell_length_c                   15.758(5)
_cell_angle_alpha                90
_cell_angle_beta                 90
_cell_angle_gamma                90
_cell_volume                     1436.53
_exptl_crystal_colour            colorless
_exptl_crystal_description       block
_cell_formula_units_Z            4
loop_
_atom_site_label
_atom_site_type_symbol
_atom_site_fract_x
_atom_site_fract_y
_atom_site_fract_z
C1 C 0.2012(2) 0.41312(14) 0.09226(10)
C2 C 0.3068(3) 0.40567(15) 0.01984(11)
H1 H 0.2850 0.4524 -0.0259
C3 C 0.4440(3) 0.32934(18) 0.01530(15)
H2 H 0.5138 0.3257 -0.0332
C4 C 0.4774(3) 0.25913(18) 0.08199(17)
H3 H 0.5695 0.2082 0.0787
C5 C 0.3746(3) 0.26444(18) 0.15307(15)
H4 H 0.3969 0.2171 0.1984
C6 C 0.2376(3) 0.33993(16) 0.15793(11)
H5 H 0.1679 0.3418 0.2065
C7 C 0.0461(2) 0.49239(14) 0.09517(11)
H6 H 0.0111 0.5027 0.0358
C8 C -0.1179(2) 0.44286(17) 0.13898(14)
H7 H -0.1477 0.3727 0.1125
H8 H -0.0914 0.4289 0.1982
C9 C -0.2732(2) 0.5204(2) 0.13264(15)
H9 H -0.3037 0.5315 0.0735
H10 H -0.3747 0.4880 0.1610
C10 C -0.0871(3) 0.67784(18) 0.13078(14)
H11 H -0.0649 0.7475 0.1596
H12 H -0.1207 0.6950 0.0728
C11 C 0.0854(2) 0.61123(13) 0.12890(9)
C12 C 0.2243(3) 0.66938(15) 0.07382(10)
H13 H 0.3283 0.6224 0.0711
H14 H 0.1776 0.6755 0.0167
C13 C 0.2811(3) 0.78189(14) 0.10202(10)
C14 C 0.4310(3) 0.82022(18) 0.13495(13)
H15 H 0.5311 0.7789 0.1482
C15 C 0.4091(4) 0.93700(19) 0.14613(14)
H16 H 0.4920 0.9864 0.1679
C16 C 0.2496(4) 0.96052(18) 0.11971(15)
H17 H 0.2004 1.0312 0.1202
N1 N 0.1600(2) 0.60440(13) 0.21877(9)
O1 O -0.23131(18) 0.62481(13) 0.17089(10)
O2 O 0.0689(8) 0.6061(6) 0.2792(4)
O3 O 0.3195(5) 0.5857(4) 0.2233(3)
O4 O 0.1640(2) 0.86706(12) 0.09102(11)
O5? O 0.0804(11) 0.6608(6) 0.2706(5)
O6? O 0.2883(11) 0.5523(7) 0.2350(6)
loop_
_geom_bond_atom_site_label_1
_geom_bond_atom_site_label_2
_geom_bond_site_symmetry_1
_geom_bond_site_symmetry_2
C1 C2 1_555 1_555
C2 H1 1_555 1_555
C3 C2 1_555 1_555
H2 C3 1_555 1_555
C4 C3 1_555 1_555
H3 C4 1_555 1_555
C5 C4 1_555 1_555
H4 C5 1_555 1_555
C6 C1 1_555 1_555
H5 C6 1_555 1_555
C7 C1 1_555 1_555
H6 C7 1_555 1_555
C8 C7 1_555 1_555
H7 C8 1_555 1_555
H8 C8 1_555 1_555
C9 C8 1_555 1_555
H9 C9 1_555 1_555
H10 C9 1_555 1_555
C10 H11 1_555 1_555
H12 C10 1_555 1_555
C11 C7 1_555 1_555
C12 C11 1_555 1_555
H13 C12 1_555 1_555
H14 C12 1_555 1_555
C13 C12 1_555 1_555
C14 C13 1_555 1_555
H15 C14 1_555 1_555
C15 C14 1_555 1_555
H16 C15 1_555 1_555
C16 C15 1_555 1_555
H17 C16 1_555 1_555
N1 C11 1_555 1_555
O1 C9 1_555 1_555
O2 N1 1_555 1_555
O3 N1 1_555 1_555
O4 C13 1_555 1_555
C5 C6 1_555 1_555
C10 C11 1_555 1_555
C10 O1 1_555 1_555
C16 O4 1_555 1_555

#END
