
#######################################################################
#
#                 Cambridge Crystallographic Data Centre
#                                CCDC 
#
#######################################################################
#
# If this CIF has been generated from an entry in the Cambridge 
# Structural Database, then it will include bibliographic, chemical, 
# crystal, experimental, refinement or atomic coordinate data resulting 
# from the CCDC's data processing and validation procedures.
#
#######################################################################

data_MABCIC
_chemical_name_common            
'Methyl 3-(1,3-benzodioxol-5-yl)-2-chloroacrylate'
_chemical_formula_moiety         'C11 H9 Cl1 O4'
_chemical_name_systematic        
'Methyl 2-chloro-3-(1,3-benzodioxol-5-yl)prop-2(Z)-enoate'
_symmetry_cell_setting           monoclinic
_symmetry_space_group_name_H-M   'P 21'
_symmetry_Int_Tables_number      4
_space_group_name_Hall           'P 2yb'
loop_
_symmetry_equiv_pos_site_id
_symmetry_equiv_pos_as_xyz
1 x,y,z
2 -x,1/2+y,-z
_cell_length_a                   3.8998(3)
_cell_length_b                   11.1155(7)
_cell_length_c                   11.9770(9)
_cell_angle_alpha                90
_cell_angle_beta                 97.460(5)
_cell_angle_gamma                90
_cell_volume                     514.787
_exptl_crystal_colour            colorless
_exptl_crystal_description       plates
_chemical_melting_point          132-134deg.C
_cell_formula_units_Z            2
loop_
_atom_site_label
_atom_site_type_symbol
_atom_site_fract_x
_atom_site_fract_y
_atom_site_fract_z
Cl1 Cl 0.2676(2) 0.20460(6) 0.24585(7)
C1 C 0.8608(11) 0.2565(4) 0.7851(3)
H1 H 0.6979 0.2683 0.8388
H2 H 1.0328 0.1984 0.8164
O1 O 1.0244(8) 0.3676(3) 0.7653(2)
C2 C 1.0237(8) 0.4883(3) 0.5935(3)
H3 H 1.1615 0.5496 0.6279
C3 C 0.8974(8) 0.4917(3) 0.4788(3)
H4 H 0.9482 0.5579 0.4364
C4 C 0.6969(7) 0.3985(3) 0.4255(2)
C5 C 0.6128(8) 0.2983(3) 0.4895(3)
H5 H 0.4809 0.2348 0.4566
O2 O 0.6838(7) 0.2123(3) 0.68139(19)
C6 C 0.9347(8) 0.3910(3) 0.6523(3)
C7 C 0.7346(9) 0.2990(3) 0.6019(3)
C8 C 0.5805(8) 0.4167(3) 0.3058(2)
H6 H 0.6395 0.4919 0.2801
C9 C 0.4093(8) 0.3496(3) 0.2261(3)
C10 C 0.3224(9) 0.3903(3) 0.1070(3)
O3 O 0.1755(9) 0.3307(3) 0.0333(2)
O4 O 0.4335(8) 0.5021(3) 0.0927(2)
C11 C 0.3751(15) 0.5491(5) -0.0201(3)
H7 H 0.4992 0.6233 -0.0236
H8 H 0.1324 0.5633 -0.0409
H9 H 0.4549 0.4920 -0.0711
loop_
_geom_bond_atom_site_label_1
_geom_bond_atom_site_label_2
_geom_bond_site_symmetry_1
_geom_bond_site_symmetry_2
Cl1 C9 1_555 1_555
C1 H1 1_555 1_555
H2 C1 1_555 1_555
O1 C1 1_555 1_555
C2 H3 1_555 1_555
C3 C2 1_555 1_555
H4 C3 1_555 1_555
C4 C3 1_555 1_555
C5 C4 1_555 1_555
H5 C5 1_555 1_555
O2 C1 1_555 1_555
C6 O1 1_555 1_555
C7 C5 1_555 1_555
C8 C4 1_555 1_555
H6 C8 1_555 1_555
C9 C8 1_555 1_555
C10 C9 1_555 1_555
O3 C10 1_555 1_555
O4 C10 1_555 1_555
C11 O4 1_555 1_555
H7 C11 1_555 1_555
H8 C11 1_555 1_555
H9 C11 1_555 1_555
C2 C6 1_555 1_555
O2 C7 1_555 1_555
C6 C7 1_555 1_555

#END
