
#######################################################################
#
#                 Cambridge Crystallographic Data Centre
#                                CCDC 
#
#######################################################################
#
# If this CIF has been generated from an entry in the Cambridge 
# Structural Database, then it will include bibliographic, chemical, 
# crystal, experimental, refinement or atomic coordinate data resulting 
# from the CCDC's data processing and validation procedures.
#
#######################################################################

data_MABCEY
_chemical_name_common            
'Methyl 3-(1,3-benzodioxol-5-yl)-2-bromoacrylate'
_chemical_formula_moiety         'C11 H9 Br1 O4'
_chemical_name_systematic        
'Methyl 2-bromo-3-(1,3-benzodioxol-5-yl)prop-2(Z)-enoate'
_symmetry_cell_setting           monoclinic
_symmetry_space_group_name_H-M   'P 21'
_symmetry_Int_Tables_number      4
_space_group_name_Hall           'P 2yb'
loop_
_symmetry_equiv_pos_site_id
_symmetry_equiv_pos_as_xyz
1 x,y,z
2 -x,1/2+y,-z
_cell_length_a                   3.9983(3)
_cell_length_b                   11.1403(7)
_cell_length_c                   12.1514(9)
_cell_angle_alpha                90
_cell_angle_beta                 98.977(6)
_cell_angle_gamma                90
_cell_volume                     534.621
_exptl_crystal_colour            colorless
_exptl_crystal_description       plates
_chemical_melting_point          107-108deg.C
_cell_formula_units_Z            2
loop_
_atom_site_label
_atom_site_type_symbol
_atom_site_fract_x
_atom_site_fract_y
_atom_site_fract_z
Br1 Br 0.23621(15) 0.20062(17) 0.24556(5)
C1 C 0.889(2) 0.2631(9) 0.7826(6)
H1 H 0.7359 0.2791 0.8354
H2 H 1.0517 0.2031 0.8146
O1 O 1.0603(16) 0.3704(5) 0.7607(4)
C2 C 1.0495(19) 0.4894(7) 0.5904(5)
H3 H 1.1923 0.5496 0.6233
C3 C 0.9122(17) 0.4918(7) 0.4781(5)
H4 H 0.9641 0.5566 0.4356
C4 C 0.7016(16) 0.4027(6) 0.4260(5)
C5 C 0.6180(17) 0.3041(6) 0.4901(5)
H5 H 0.4777 0.2427 0.4582
O2 O 0.7010(14) 0.2192(5) 0.6793(3)
C6 C 0.9628(17) 0.3939(6) 0.6492(5)
C7 C 0.7520(18) 0.3030(6) 0.6007(5)
C8 C 0.5772(17) 0.4213(5) 0.3073(5)
H6 H 0.6314 0.4967 0.2824
C9 C 0.4052(15) 0.3550(6) 0.2276(5)
C10 C 0.312(2) 0.3984(7) 0.1098(6)
O3 O 0.1656(19) 0.3414(6) 0.0347(4)
O4 O 0.4350(16) 0.5093(5) 0.0985(4)
C11 C 0.376(3) 0.5594(9) -0.0133(6)
H7 H 0.4698 0.6387 -0.0121
H8 H 0.1365 0.5631 -0.0393
H9 H 0.4815 0.5094 -0.0622
loop_
_geom_bond_atom_site_label_1
_geom_bond_atom_site_label_2
_geom_bond_site_symmetry_1
_geom_bond_site_symmetry_2
Br1 C9 1_555 1_555
C1 H1 1_555 1_555
H2 C1 1_555 1_555
O1 C1 1_555 1_555
C2 H3 1_555 1_555
C3 C2 1_555 1_555
H4 C3 1_555 1_555
C4 C3 1_555 1_555
C5 C4 1_555 1_555
H5 C5 1_555 1_555
O2 C1 1_555 1_555
C6 O1 1_555 1_555
C7 C5 1_555 1_555
C8 C4 1_555 1_555
H6 C8 1_555 1_555
C9 C8 1_555 1_555
C10 C9 1_555 1_555
O3 C10 1_555 1_555
O4 C10 1_555 1_555
C11 O4 1_555 1_555
H7 C11 1_555 1_555
H8 C11 1_555 1_555
H9 C11 1_555 1_555
C2 C6 1_555 1_555
O2 C7 1_555 1_555
C6 C7 1_555 1_555

#END
