
#######################################################################
#
#                 Cambridge Crystallographic Data Centre
#                                CCDC 
#
#######################################################################
#
# If this CIF has been generated from an entry in the Cambridge 
# Structural Database, then it will include bibliographic, chemical, 
# crystal, experimental, refinement or atomic coordinate data resulting 
# from the CCDC's data processing and validation procedures.
#
#######################################################################

data_MABPOX
_chemical_formula_moiety         'C36 H24 B1 N1'
_chemical_name_systematic        
5,6-Diphenyl-2-(phenylethynyl)-12H-[1]benzoborinino[1,2-b][1,2]benzazaborinine
_symmetry_cell_setting           triclinic
_symmetry_space_group_name_H-M   'P -1'
_symmetry_Int_Tables_number      2
_space_group_name_Hall           '-P 1'
loop_
_symmetry_equiv_pos_site_id
_symmetry_equiv_pos_as_xyz
1 x,y,z
2 -x,-y,-z
_cell_length_a                   9.942(2)
_cell_length_b                   16.900(4)
_cell_length_c                   18.738(4)
_cell_angle_alpha                105.481(6)
_cell_angle_beta                 92.118(4)
_cell_angle_gamma                92.215(5)
_cell_volume                     3028.21
_exptl_crystal_colour            colorless
_exptl_crystal_description       Prism
_cell_formula_units_Z            4
loop_
_atom_site_label
_atom_site_type_symbol
_atom_site_fract_x
_atom_site_fract_y
_atom_site_fract_z
B1 B 0.4447(4) 0.7749(2) 0.39021(19)
C1 C 0.3022(3) 0.67881(19) 0.43793(18)
C2 C 0.2886(4) 0.6078(2) 0.4612(2)
H1 H 0.3623 0.5732 0.4590
C3 C 0.1684(4) 0.5872(2) 0.4875(3)
H2 H 0.1603 0.5390 0.5043
C4 C 0.0586(4) 0.6363(2) 0.4898(3)
H3 H -0.0246 0.6212 0.5072
C5 C 0.0717(4) 0.7060(2) 0.4669(2)
H4 H -0.0040 0.7389 0.4683
C6 C 0.1930(3) 0.7312(2) 0.44144(18)
C7 C 0.2093(3) 0.8068(2) 0.42199(17)
H5 H 0.1344 0.8406 0.4248
C8 C 0.3287(3) 0.83277(19) 0.39939(17)
C9 C 0.3512(3) 0.91234(18) 0.38338(16)
C10 C 0.4742(3) 0.93554(19) 0.36296(16)
C11 C 0.5894(3) 0.88140(19) 0.35155(16)
C12 C 0.7105(3) 0.9084(2) 0.32731(18)
H6 H 0.7204 0.9629 0.3227
C13 C 0.8156(3) 0.8565(2) 0.31002(18)
H7 H 0.8964 0.8756 0.2933
C14 C 0.8044(3) 0.77606(19) 0.31686(17)
C15 C 0.6865(3) 0.75032(19) 0.34399(17)
H8 H 0.6795 0.6966 0.3507
C16 C 0.5780(3) 0.80130(18) 0.36165(16)
C17 C 0.2368(3) 0.96927(19) 0.39257(18)
C18 C 0.1551(4) 0.9730(2) 0.3318(2)
H9 H 0.1732 0.9407 0.2836
C19 C 0.0475(4) 1.0239(2) 0.3414(2)
H10 H -0.0070 1.0270 0.2996
C20 C 0.0192(4) 1.0698(2) 0.4109(3)
H11 H -0.0556 1.1040 0.4172
C21 C 0.0992(4) 1.0665(2) 0.4716(2)
H12 H 0.0798 1.0984 0.5197
C22 C 0.2076(4) 1.0166(2) 0.4623(2)
H13 H 0.2629 1.0148 0.5042
C23 C 0.5012(3) 1.01865(18) 0.35139(17)
C24 C 0.4884(4) 1.0320(2) 0.28196(19)
H14 H 0.4525 0.9889 0.2413
C25 C 0.5266(4) 1.1071(2) 0.2703(2)
H15 H 0.5160 1.1154 0.2222
C26 C 0.5800(4) 1.1696(2) 0.3286(3)
H16 H 0.6093 1.2208 0.3210
C27 C 0.5904(4) 1.1571(2) 0.3985(2)
H17 H 0.6246 1.2006 0.4394
C28 C 0.5524(4) 1.0834(2) 0.4094(2)
H18 H 0.5611 1.0760 0.4579
C29 C 0.9144(3) 0.7231(2) 0.29692(18)
C30 C 1.0091(3) 0.6813(2) 0.28001(17)
C31 C 1.1232(3) 0.6325(2) 0.26161(17)
C32 C 1.2340(3) 0.6630(2) 0.23200(18)
H19 H 1.2324 0.7153 0.2223
C33 C 1.3459(4) 0.6169(3) 0.2169(2)
H20 H 1.4220 0.6375 0.1970
C34 C 1.3473(4) 0.5406(3) 0.2308(2)
H21 H 1.4243 0.5088 0.2199
C35 C 1.2386(5) 0.5100(3) 0.2603(2)
H22 H 1.2406 0.4576 0.2699
C36 C 1.1267(4) 0.5562(2) 0.2757(2)
H23 H 1.0513 0.5355 0.2962
N1 N 0.4220(3) 0.70106(15) 0.41109(14)
H24 H 0.483(3) 0.6633(15) 0.4125(17)
B2 B 0.2625(4) 0.5141(2) 0.8647(2)
C37 C 0.1419(3) 0.4213(2) 0.9265(2)
C38 C 0.0666(4) 0.3475(2) 0.9211(2)
H25 H 0.0435 0.3102 0.8741
C39 C 0.0268(4) 0.3305(3) 0.9855(3)
H26 H -0.0238 0.2807 0.9821
C40 C 0.0581(4) 0.3836(2) 1.0548(2)
H27 H 0.0293 0.3703 1.0982
C41 C 0.1311(3) 0.4558(2) 1.0602(2)
H28 H 0.1517 0.4926 1.1077
C42 C 0.1765(3) 0.4764(2) 0.99632(19)
C43 C 0.2554(3) 0.5502(2) 1.00155(18)
H29 H 0.2766 0.5866 1.0492
C44 C 0.3018(3) 0.5708(2) 0.94034(18)
C45 C 0.3844(3) 0.6442(2) 0.94387(17)
C46 C 0.4264(3) 0.6629(2) 0.88229(18)
C47 C 0.3917(3) 0.61021(19) 0.80664(17)
C48 C 0.4377(4) 0.6329(2) 0.74461(18)
H30 H 0.4859 0.6842 0.7514
C49 C 0.4139(4) 0.5816(2) 0.67351(18)
H31 H 0.4467 0.5981 0.6324
C50 C 0.3429(3) 0.5068(2) 0.66182(17)
C51 C 0.2908(3) 0.4866(2) 0.72276(17)
H32 H 0.2373 0.4369 0.7145
C52 C 0.3129(3) 0.53546(19) 0.79567(17)
C53 C 0.4279(4) 0.6994(2) 1.01959(18)
C54 C 0.3464(4) 0.7604(2) 1.05653(19)
H33 H 0.2626 0.7679 1.0339
C55 C 0.3859(5) 0.8102(2) 1.1259(2)
H34 H 0.3301 0.8524 1.1504
C56 C 0.5062(6) 0.7986(3) 1.1594(2)
H35 H 0.5334 0.8326 1.2073
C57 C 0.5867(5) 0.7381(3) 1.1237(2)
H36 H 0.6700 0.7304 1.1468
C58 C 0.5477(4) 0.6884(2) 1.0545(2)
H37 H 0.6037 0.6460 1.0305
C59 C 0.5192(4) 0.7373(2) 0.89002(18)
C60 C 0.4718(5) 0.8157(2) 0.9086(2)
H38 H 0.3780 0.8227 0.9142
C61 C 0.5580(7) 0.8831(3) 0.9189(2)
H39 H 0.5232 0.9364 0.9320
C62 C 0.6937(7) 0.8755(3) 0.9108(3)
H40 H 0.7525 0.9229 0.9184
C63 C 0.7447(5) 0.7966(3) 0.8913(2)
H41 H 0.8385 0.7901 0.8851
C64 C 0.6571(4) 0.7284(3) 0.8810(2)
H42 H 0.6912 0.6750 0.8678
C65 C 0.3246(3) 0.4506(2) 0.58898(18)
C66 C 0.3109(3) 0.40189(19) 0.52951(17)
C67 C 0.2914(3) 0.34222(19) 0.45825(17)
C68 C 0.2754(4) 0.3662(2) 0.39357(18)
H43 H 0.2784 0.4230 0.3957
C69 C 0.2553(4) 0.3087(2) 0.32625(19)
H44 H 0.2454 0.3261 0.2822
C70 C 0.2494(4) 0.2261(2) 0.32228(19)
H45 H 0.2336 0.1865 0.2758
C71 C 0.2663(4) 0.2015(2) 0.3852(2)
H46 H 0.2647 0.1445 0.3823
C72 C 0.2856(3) 0.2585(2) 0.45347(18)
H47 H 0.2950 0.2405 0.4972
N2 N 0.1843(3) 0.44074(18) 0.86308(16)
H48 H 0.164(3) 0.4017(15) 0.8207(11)
loop_
_geom_bond_atom_site_label_1
_geom_bond_atom_site_label_2
_geom_bond_site_symmetry_1
_geom_bond_site_symmetry_2
B1 C8 1_555 1_555
C1 C2 1_555 1_555
C2 H1 1_555 1_555
C3 C2 1_555 1_555
H2 C3 1_555 1_555
C4 C3 1_555 1_555
H3 C4 1_555 1_555
C5 C4 1_555 1_555
H4 C5 1_555 1_555
C6 C1 1_555 1_555
C7 C6 1_555 1_555
H5 C7 1_555 1_555
C8 C7 1_555 1_555
C9 C8 1_555 1_555
C10 C9 1_555 1_555
C11 C10 1_555 1_555
C12 C11 1_555 1_555
H6 C12 1_555 1_555
C13 C12 1_555 1_555
H7 C13 1_555 1_555
C14 C13 1_555 1_555
C15 C14 1_555 1_555
H8 C15 1_555 1_555
C16 B1 1_555 1_555
C17 C9 1_555 1_555
C18 C17 1_555 1_555
H9 C18 1_555 1_555
C19 C18 1_555 1_555
H10 C19 1_555 1_555
C20 C19 1_555 1_555
H11 C20 1_555 1_555
C21 C20 1_555 1_555
H12 C21 1_555 1_555
C22 C17 1_555 1_555
H13 C22 1_555 1_555
C23 C10 1_555 1_555
C24 C23 1_555 1_555
H14 C24 1_555 1_555
C25 C24 1_555 1_555
H15 C25 1_555 1_555
C26 C25 1_555 1_555
H16 C26 1_555 1_555
C27 C26 1_555 1_555
H17 C27 1_555 1_555
C28 C23 1_555 1_555
H18 C28 1_555 1_555
C29 C14 1_555 1_555
C30 C29 1_555 1_555
C31 C30 1_555 1_555
C32 C31 1_555 1_555
H19 C32 1_555 1_555
C33 C32 1_555 1_555
H20 C33 1_555 1_555
C34 C33 1_555 1_555
H21 C34 1_555 1_555
C35 C34 1_555 1_555
H22 C35 1_555 1_555
C36 C31 1_555 1_555
H23 C36 1_555 1_555
N1 B1 1_555 1_555
H24 N1 1_555 1_555
B2 C44 1_555 1_555
C37 C38 1_555 1_555
C38 H25 1_555 1_555
C39 C38 1_555 1_555
H26 C39 1_555 1_555
C40 C39 1_555 1_555
H27 C40 1_555 1_555
C41 C40 1_555 1_555
H28 C41 1_555 1_555
C42 C37 1_555 1_555
C43 C42 1_555 1_555
H29 C43 1_555 1_555
C44 C43 1_555 1_555
C45 C44 1_555 1_555
C46 C45 1_555 1_555
C47 C46 1_555 1_555
C48 C47 1_555 1_555
H30 C48 1_555 1_555
C49 C48 1_555 1_555
H31 C49 1_555 1_555
C50 C49 1_555 1_555
C51 C50 1_555 1_555
H32 C51 1_555 1_555
C52 B2 1_555 1_555
C53 C45 1_555 1_555
C54 C53 1_555 1_555
H33 C54 1_555 1_555
C55 C54 1_555 1_555
H34 C55 1_555 1_555
C56 C55 1_555 1_555
H35 C56 1_555 1_555
C57 C56 1_555 1_555
H36 C57 1_555 1_555
C58 C53 1_555 1_555
H37 C58 1_555 1_555
C59 C46 1_555 1_555
C60 C59 1_555 1_555
H38 C60 1_555 1_555
C61 C60 1_555 1_555
H39 C61 1_555 1_555
C62 C61 1_555 1_555
H40 C62 1_555 1_555
C63 C62 1_555 1_555
H41 C63 1_555 1_555
C64 C59 1_555 1_555
H42 C64 1_555 1_555
C65 C50 1_555 1_555
C66 C65 1_555 1_555
C67 C66 1_555 1_555
C68 C67 1_555 1_555
H43 C68 1_555 1_555
C69 C68 1_555 1_555
H44 C69 1_555 1_555
C70 C69 1_555 1_555
H45 C70 1_555 1_555
C71 C70 1_555 1_555
H46 C71 1_555 1_555
C72 C67 1_555 1_555
H47 C72 1_555 1_555
N2 B2 1_555 1_555
H48 N2 1_555 1_555
C1 N1 1_555 1_555
C5 C6 1_555 1_555
C11 C16 1_555 1_555
C15 C16 1_555 1_555
C21 C22 1_555 1_555
C27 C28 1_555 1_555
C35 C36 1_555 1_555
C37 N2 1_555 1_555
C41 C42 1_555 1_555
C47 C52 1_555 1_555
C51 C52 1_555 1_555
C57 C58 1_555 1_555
C63 C64 1_555 1_555
C71 C72 1_555 1_555

#END
