
#######################################################################
#
#                 Cambridge Crystallographic Data Centre
#                                CCDC 
#
#######################################################################
#
# If this CIF has been generated from an entry in the Cambridge 
# Structural Database, then it will include bibliographic, chemical, 
# crystal, experimental, refinement or atomic coordinate data resulting 
# from the CCDC's data processing and validation procedures.
#
#######################################################################

data_MABPIR
_chemical_formula_moiety         'C28 H20 B1 N1'
_chemical_name_systematic        
5,6-Diphenyl-12H-[1]benzoborinino[1,2-b][1,2]benzazaborinine
_symmetry_cell_setting           triclinic
_symmetry_space_group_name_H-M   'P -1'
_symmetry_Int_Tables_number      2
_space_group_name_Hall           '-P 1'
loop_
_symmetry_equiv_pos_site_id
_symmetry_equiv_pos_as_xyz
1 x,y,z
2 -x,-y,-z
_cell_length_a                   11.899(2)
_cell_length_b                   13.110(3)
_cell_length_c                   18.036(4)
_cell_angle_alpha                73.51(3)
_cell_angle_beta                 89.05(3)
_cell_angle_gamma                64.38(3)
_cell_volume                     2414.17
_exptl_crystal_colour            yellow
_exptl_crystal_description       prism
_cell_formula_units_Z            4
loop_
_atom_site_label
_atom_site_type_symbol
_atom_site_fract_x
_atom_site_fract_y
_atom_site_fract_z
N1 N 0.64668(17) 1.13066(16) 0.17820(11)
C1 C 0.68026(19) 0.97186(18) 0.11546(12)
C2 C 0.6536(2) 0.87548(18) 0.11033(13)
C3 C 0.7281(2) 1.16140(19) 0.13187(13)
C4 C 0.7204(2) 0.80829(19) 0.05496(13)
C5 C 0.4981(2) 0.91457(19) 0.20587(13)
C6 C 0.5707(2) 0.84700(18) 0.15397(12)
C7 C 0.5199(2) 1.00641(19) 0.21892(13)
C8 C 0.7614(2) 1.00455(19) 0.07270(12)
H1 H 0.8030 0.9627 0.0374
C9 C 0.5489(2) 0.74483(19) 0.15074(12)
C10 C 0.7863(2) 1.09925(19) 0.07885(13)
C11 C 0.4563(2) 0.7583(2) 0.09766(13)
H2 H 0.4074 0.8344 0.0612
C12 C 0.3305(2) 0.9539(2) 0.28926(13)
H3 H 0.2663 0.9364 0.3129
C13 C 0.7566(2) 0.8060(2) -0.07689(14)
H4 H 0.7341 0.8438 -0.1314
C14 C 0.8679(2) 1.1347(2) 0.03279(14)
H5 H 0.9073 1.0944 -0.0036
C15 C 0.8870(2) 0.6387(2) 0.02972(14)
H6 H 0.9542 0.5609 0.0488
C16 C 0.7554(2) 1.2528(2) 0.13835(15)
H7 H 0.7184 1.2934 0.1751
C17 C 0.8922(2) 1.2254(2) 0.03882(15)
H8 H 0.9473 1.2477 0.0070
C18 C 0.4467(2) 1.0672(2) 0.26858(13)
H9 H 0.4624 1.1272 0.2792
C19 C 0.4021(2) 0.8900(2) 0.24125(13)
H10 H 0.3861 0.8292 0.2323
C20 C 0.8348(2) 1.2839(2) 0.09232(15)
H11 H 0.8511 1.3468 0.0969
C21 C 0.4334(2) 0.6633(2) 0.09657(14)
H12 H 0.3684 0.6746 0.0607
B1 B 0.6157(2) 1.0393(2) 0.17200(15)
C22 C 0.6892(2) 0.8626(2) -0.02516(13)
H13 H 0.6207 0.9396 -0.0446
C23 C 0.8199(2) 0.6953(2) 0.08204(14)
H14 H 0.8423 0.6564 0.1365
C24 C 0.5069(2) 0.5517(2) 0.14867(14)
H15 H 0.4925 0.4860 0.1483
C25 C 0.6197(2) 0.63244(19) 0.20281(13)
H16 H 0.6823 0.6215 0.2403
C26 C 0.8572(2) 0.6939(2) -0.04874(14)
H17 H 0.9052 0.6556 -0.0839
C27 C 0.6009(2) 0.5359(2) 0.20114(14)
H18 H 0.6524 0.4592 0.2359
C28 C 0.3531(2) 1.0425(2) 0.30237(14)
H19 H 0.3040 1.0865 0.3347
N2 N 1.04047(18) 0.62215(18) 0.23597(12)
C29 C 0.8925(2) 0.6451(2) 0.33856(13)
C30 C 1.0350(2) 0.3814(2) 0.24617(14)
H20 H 1.0813 0.4066 0.2080
C31 C 0.7559(2) 0.6635(2) 0.44773(14)
C32 C 0.8284(2) 0.5931(2) 0.39534(13)
C33 C 1.0352(2) 0.7327(2) 0.23100(13)
C34 C 0.9039(2) 0.4147(2) 0.34918(14)
C35 C 0.8343(2) 0.4845(2) 0.40107(14)
C36 C 0.8862(2) 0.7556(2) 0.32891(14)
H21 H 0.8335 0.8032 0.3583
C37 C 0.9563(2) 0.8008(2) 0.27601(14)
C38 C 0.9718(2) 0.4541(2) 0.29283(13)
C39 C 0.9563(2) 0.9109(2) 0.26900(15)
H22 H 0.9039 0.9589 0.2983
C40 C 1.1094(2) 0.7741(2) 0.18237(14)
H23 H 1.1619 0.7281 0.1521
C41 C 0.7699(2) 0.4308(2) 0.45953(14)
B2 B 0.9721(2) 0.5720(3) 0.28710(15)
C42 C 0.9033(2) 0.3044(2) 0.35689(15)
H24 H 0.8587 0.2765 0.3950
C43 C 1.1061(2) 0.8809(2) 0.17859(14)
H25 H 1.1574 0.9081 0.1461
C44 C 0.8228(2) 0.3718(2) 0.53621(15)
H26 H 0.8991 0.3701 0.5529
C45 C 1.0285(2) 0.9506(2) 0.22172(14)
H27 H 1.0261 1.0252 0.2181
C46 C 1.0317(2) 0.2756(2) 0.25417(15)
H28 H 1.0742 0.2293 0.2214
C47 C 0.8148(2) 0.6560(2) 0.51626(14)
H29 H 0.9011 0.6021 0.5318
C48 C 0.5636(2) 0.8121(2) 0.47304(15)
H30 H 0.4768 0.8651 0.4582
C49 C 0.7662(2) 0.3147(2) 0.58965(15)
H31 H 0.8042 0.2734 0.6420
C50 C 0.9669(3) 0.2367(2) 0.30969(16)
H32 H 0.9657 0.1628 0.3157
C51 C 0.6249(2) 0.8034(2) 0.54099(15)
H33 H 0.5803 0.8511 0.5726
C52 C 0.6299(2) 0.7427(3) 0.42672(15)
H34 H 0.5880 0.7498 0.3798
C53 C 0.7503(2) 0.7257(2) 0.56263(16)
H35 H 0.7925 0.7198 0.6090
C54 C 0.6560(2) 0.3186(2) 0.56605(16)
H36 H 0.6174 0.2791 0.6019
C55 C 0.6573(3) 0.4333(3) 0.43785(18)
H37 H 0.6187 0.4730 0.3855
C56 C 0.6009(3) 0.3788(3) 0.49125(18)
H38 H 0.5226 0.3833 0.4757
loop_
_geom_bond_atom_site_label_1
_geom_bond_atom_site_label_2
_geom_bond_site_symmetry_1
_geom_bond_site_symmetry_2
N1 C3 1_555 1_555
C1 C2 1_555 1_555
C2 C4 1_555 1_555
C3 C10 1_555 1_555
C4 C22 1_555 1_555
C5 C6 1_555 1_555
C6 C2 1_555 1_555
C7 C5 1_555 1_555
C8 C1 1_555 1_555
H1 C8 1_555 1_555
C9 C6 1_555 1_555
C10 C8 1_555 1_555
C11 C9 1_555 1_555
H2 C11 1_555 1_555
C12 H3 1_555 1_555
C13 H4 1_555 1_555
C14 C10 1_555 1_555
H5 C14 1_555 1_555
C15 H6 1_555 1_555
C16 C3 1_555 1_555
H7 C16 1_555 1_555
C17 C14 1_555 1_555
H8 C17 1_555 1_555
C18 C7 1_555 1_555
H9 C18 1_555 1_555
C19 C5 1_555 1_555
H10 C19 1_555 1_555
C20 C16 1_555 1_555
H11 C20 1_555 1_555
C21 C11 1_555 1_555
H12 C21 1_555 1_555
B1 N1 1_555 1_555
C22 C13 1_555 1_555
H13 C22 1_555 1_555
C23 C4 1_555 1_555
H14 C23 1_555 1_555
C24 C21 1_555 1_555
H15 C24 1_555 1_555
C25 C9 1_555 1_555
H16 C25 1_555 1_555
C26 C13 1_555 1_555
H17 C26 1_555 1_555
C27 C24 1_555 1_555
H18 C27 1_555 1_555
C28 C12 1_555 1_555
H19 C28 1_555 1_555
N2 C33 1_555 1_555
C29 C32 1_555 1_555
C30 H20 1_555 1_555
C31 C32 1_555 1_555
C32 C35 1_555 1_555
C33 C37 1_555 1_555
C34 C35 1_555 1_555
C35 C41 1_555 1_555
C36 C29 1_555 1_555
H21 C36 1_555 1_555
C37 C36 1_555 1_555
C38 C30 1_555 1_555
C39 C37 1_555 1_555
H22 C39 1_555 1_555
C40 C33 1_555 1_555
H23 C40 1_555 1_555
C41 C44 1_555 1_555
B2 N2 1_555 1_555
C42 C34 1_555 1_555
H24 C42 1_555 1_555
C43 C40 1_555 1_555
H25 C43 1_555 1_555
C44 H26 1_555 1_555
C45 C39 1_555 1_555
H27 C45 1_555 1_555
C46 C30 1_555 1_555
H28 C46 1_555 1_555
C47 C31 1_555 1_555
H29 C47 1_555 1_555
C48 H30 1_555 1_555
C49 C44 1_555 1_555
H31 C49 1_555 1_555
C50 C42 1_555 1_555
H32 C50 1_555 1_555
C51 C48 1_555 1_555
H33 C51 1_555 1_555
C52 C31 1_555 1_555
H34 C52 1_555 1_555
C53 C47 1_555 1_555
H35 C53 1_555 1_555
C54 C49 1_555 1_555
H36 C54 1_555 1_555
C55 C41 1_555 1_555
H37 C55 1_555 1_555
C56 C54 1_555 1_555
H38 C56 1_555 1_555
C1 B1 1_555 1_555
C7 B1 1_555 1_555
C12 C19 1_555 1_555
C15 C23 1_555 1_555
C15 C26 1_555 1_555
C17 C20 1_555 1_555
C18 C28 1_555 1_555
C25 C27 1_555 1_555
C29 B2 1_555 1_555
C34 C38 1_555 1_555
C38 B2 1_555 1_555
C43 C45 1_555 1_555
C46 C50 1_555 1_555
C48 C52 1_555 1_555
C51 C53 1_555 1_555
C55 C56 1_555 1_555

#END
