
#######################################################################
#
#                 Cambridge Crystallographic Data Centre
#                                CCDC 
#
#######################################################################
#
# If this CIF has been generated from an entry in the Cambridge 
# Structural Database, then it will include bibliographic, chemical, 
# crystal, experimental, refinement or atomic coordinate data resulting 
# from the CCDC's data processing and validation procedures.
#
#######################################################################

data_MABWET
_chemical_formula_moiety         'C32 H29 Cl1 N2 O2'
_chemical_name_systematic        
'Benzyl (3-(3-chlorophenyl)-5-phenyl-2,3,6,7-tetrahydro-1H,5H-pyrido[3,2,1-ij]quinolin-1-yl)carbamate'
_symmetry_cell_setting           monoclinic
_symmetry_space_group_name_H-M   'P 21'
_symmetry_Int_Tables_number      4
_space_group_name_Hall           'P 2yb'
loop_
_symmetry_equiv_pos_site_id
_symmetry_equiv_pos_as_xyz
1 x,y,z
2 -x,1/2+y,-z
_cell_length_a                   15.1508(17)
_cell_length_b                   6.0052(6)
_cell_length_c                   15.6364(17)
_cell_angle_alpha                90
_cell_angle_beta                 115.054(14)
_cell_angle_gamma                90
_cell_volume                     1288.8
_exptl_crystal_colour            colorless
_exptl_crystal_description       needle
_cell_formula_units_Z            2
loop_
_atom_site_label
_atom_site_type_symbol
_atom_site_fract_x
_atom_site_fract_y
_atom_site_fract_z
Cl1 Cl 0.88140(8) 0.20593(19) 0.15670(6)
N1 N 0.64184(18) -0.0814(5) -0.20949(16)
C1 C 0.8135(2) -0.1064(6) -0.0877(2)
C2 C 0.5715(2) 0.0198(5) -0.2910(2)
C3 C 0.5970(2) 0.1605(6) -0.34864(19)
C4 C 0.7665(2) 0.1540(5) -0.2237(2)
H1 H 0.8345 0.1604 -0.2122
H2 H 0.7547 0.2718 -0.1873
C5 C 0.7459(2) -0.0677(5) -0.1908(2)
H3 H 0.7587 -0.1841 -0.2280
C6 C 0.6172(2) -0.2763(6) -0.1660(2)
H4 H 0.6654 -0.3923 -0.1588
C7 C 0.6239(2) -0.2266(6) -0.0685(2)
C8 C 0.8169(2) 0.0469(6) -0.0203(2)
H5 H 0.7771 0.1721 -0.0378
C9 C 0.7038(2) 0.1927(6) -0.32721(19)
H6 H 0.7217 0.0835 -0.3637
C10 C 0.4711(2) -0.0171(6) -0.3153(2)
C11 C 0.6602(2) -0.3869(6) 0.0014(2)
H7 H 0.6816 -0.5222 -0.0118
C12 C 0.8764(2) 0.7705(6) -0.4873(2)
C13 C 0.8919(2) 0.7758(6) -0.3862(2)
H8 H 0.9481 0.6854 -0.3486
H9 H 0.9050 0.9275 -0.3628
C14 C 0.5962(2) 0.0117(6) 0.0416(3)
H10 H 0.5742 0.1458 0.0552
C15 C 0.4015(2) 0.1013(6) -0.3908(2)
H11 H 0.3358 0.0824 -0.4048
C16 C 0.8745(2) -0.2869(7) -0.0596(2)
H12 H 0.8736 -0.3890 -0.1046
C17 C 0.8368(3) 0.9514(7) -0.5434(3)
H13 H 0.8175 1.0737 -0.5190
C18 C 0.5922(2) -0.0234(6) -0.0468(2)
H14 H 0.5684 0.0876 -0.0924
C19 C 0.6650(2) -0.3491(7) 0.0901(2)
H15 H 0.6902 -0.4586 0.1362
C20 C 0.6330(3) -0.1526(8) 0.1112(3)
H16 H 0.6358 -0.1285 0.1710
C21 C 0.4274(2) 0.2446(7) -0.4447(2)
H17 H 0.3803 0.3236 -0.4942
C22 C 0.9054(3) 0.5924(6) -0.5236(3)
H18 H 0.9333 0.4693 -0.4856
C23 C 0.5252(2) 0.2690(6) -0.4240(2)
H19 H 0.5432 0.3610 -0.4618
C24 C 0.4413(2) -0.1883(6) -0.2622(2)
H20 H 0.3781 -0.2498 -0.3028
H21 H 0.4367 -0.1203 -0.2080
C25 C 0.5172(2) -0.3706(6) -0.2303(2)
H22 H 0.5203 -0.4401 -0.2850
H23 H 0.4989 -0.4837 -0.1965
C26 C 0.8801(2) 0.0124(6) 0.0735(2)
C27 C 0.9407(3) -0.1685(7) 0.1020(2)
H24 H 0.9828 -0.1882 0.1653
C28 C 0.8936(3) 0.5936(7) -0.6168(3)
H25 H 0.9129 0.4713 -0.6412
C29 C 0.9377(2) -0.3213(8) 0.0347(3)
H26 H 0.9777 -0.4463 0.0523
C30 C 0.8250(3) 0.9554(8) -0.6365(3)
H27 H 0.7978 1.0798 -0.6739
C31 C 0.8529(3) 0.7778(9) -0.6731(3)
H28 H 0.8448 0.7800 -0.7355
O1 O 0.80569(14) 0.6913(4) -0.37644(14)
N2 N 0.7208(2) 0.4163(5) -0.3544(2)
O2 O 0.87135(17) 0.3437(4) -0.34535(17)
C32 C 0.8059(3) 0.4714(7) -0.3583(2)
H29 H 0.6768(19) 0.511(5) -0.369(2)
loop_
_geom_bond_atom_site_label_1
_geom_bond_atom_site_label_2
_geom_bond_site_symmetry_1
_geom_bond_site_symmetry_2
Cl1 C26 1_555 1_555
N1 C2 1_555 1_555
C1 C5 1_555 1_555
C2 C3 1_555 1_555
C3 C9 1_555 1_555
C4 H1 1_555 1_555
H2 C4 1_555 1_555
C5 N1 1_555 1_555
H3 C5 1_555 1_555
C6 N1 1_555 1_555
H4 C6 1_555 1_555
C7 C6 1_555 1_555
C8 C1 1_555 1_555
H5 C8 1_555 1_555
C9 C4 1_555 1_555
H6 C9 1_555 1_555
C10 C2 1_555 1_555
C11 C7 1_555 1_555
H7 C11 1_555 1_555
C12 C13 1_555 1_555
C13 H8 1_555 1_555
H9 C13 1_555 1_555
C14 H10 1_555 1_555
C15 C10 1_555 1_555
H11 C15 1_555 1_555
C16 C1 1_555 1_555
H12 C16 1_555 1_555
C17 C12 1_555 1_555
H13 C17 1_555 1_555
C18 C7 1_555 1_555
H14 C18 1_555 1_555
C19 C11 1_555 1_555
H15 C19 1_555 1_555
C20 C14 1_555 1_555
H16 C20 1_555 1_555
C21 C15 1_555 1_555
H17 C21 1_555 1_555
C22 C12 1_555 1_555
H18 C22 1_555 1_555
C23 C3 1_555 1_555
H19 C23 1_555 1_555
C24 C10 1_555 1_555
H20 C24 1_555 1_555
H21 C24 1_555 1_555
C25 C6 1_555 1_555
H22 C25 1_555 1_555
H23 C25 1_555 1_555
C26 C8 1_555 1_555
C27 C26 1_555 1_555
H24 C27 1_555 1_555
C28 C22 1_555 1_555
H25 C28 1_555 1_555
C29 C16 1_555 1_555
H26 C29 1_555 1_555
C30 C17 1_555 1_555
H27 C30 1_555 1_555
C31 C28 1_555 1_555
H28 C31 1_555 1_555
O1 C13 1_555 1_555
N2 C9 1_555 1_555
O2 C32 1_555 1_555
C32 O1 1_555 1_555
H29 N2 1_555 1_555
C4 C5 1_555 1_555
C14 C18 1_555 1_555
C19 C20 1_555 1_555
C21 C23 1_555 1_555
C24 C25 1_555 1_555
C27 C29 1_555 1_555
C30 C31 1_555 1_555
N2 C32 1_555 1_555

#END
