
#######################################################################
#
#                 Cambridge Crystallographic Data Centre
#                                CCDC 
#
#######################################################################
#
# If this CIF has been generated from an entry in the Cambridge 
# Structural Database, then it will include bibliographic, chemical, 
# crystal, experimental, refinement or atomic coordinate data resulting 
# from the CCDC's data processing and validation procedures.
#
#######################################################################

data_MABZAS
_chemical_formula_moiety         'C56 H40 F18 N2 O4,C2 H6 O1'
_chemical_name_systematic        
"2,9-bis(2,6-Di-isopropylphenyl)-5,13-bis(nonafluorobutyl)isoquinolino[4',5',6':6,5,10]anthra[2,1,9-def]isoquinoline-1,3,8,10(2H,9H)-tetrone ethanol solvate"
_symmetry_cell_setting           monoclinic
_symmetry_space_group_name_H-M   'P 21/n'
_symmetry_Int_Tables_number      14
_space_group_name_Hall           '-P 2yn'
loop_
_symmetry_equiv_pos_site_id
_symmetry_equiv_pos_as_xyz
1 x,y,z
2 1/2-x,1/2+y,1/2-z
3 -x,-y,-z
4 1/2+x,1/2-y,1/2+z
_cell_length_a                   15.213(3)
_cell_length_b                   14.512(3)
_cell_length_c                   25.763(5)
_cell_angle_alpha                90
_cell_angle_beta                 104.71(3)
_cell_angle_gamma                90
_cell_volume                     5501.3
_cell_formula_units_Z            4
loop_
_atom_site_label
_atom_site_type_symbol
_atom_site_fract_x
_atom_site_fract_y
_atom_site_fract_z
F1 F 0.05738(19) 0.7825(2) 0.20838(13)
F2 F 0.05083(18) 0.6374(2) 0.22689(12)
F3 F 0.2095(2) 0.8092(2) 0.28119(13)
F4 F 0.2361(2) 0.6630(2) 0.29381(13)
F5 F 0.0356(2) 0.7670(3) 0.30800(15)
F6 F 0.1069(3) 0.6387(2) 0.33983(15)
F7 F 0.2543(3) 0.7521(3) 0.39287(15)
F8 F 0.1273(3) 0.7641(3) 0.41580(17)
F9 F 0.1665(3) 0.8694(3) 0.36834(16)
F10 F 0.2243(2) 0.3760(2) 0.00879(13)
F11 F 0.33817(19) 0.4535(2) -0.00561(13)
F12 F 0.1130(2) 0.5012(2) -0.07252(13)
F13 F 0.2419(2) 0.5364(3) -0.08923(14)
F14 F 0.1220(3) 0.3314(3) -0.09499(16)
F15 F 0.2680(2) 0.3350(3) -0.08846(17)
F16 F 0.1478(3) 0.3247(4) -0.19045(19)
F17 F 0.2446(3) 0.4348(4) -0.17614(17)
F18 F 0.1049(3) 0.4629(3) -0.17873(15)
O1 O 0.2939(2) 0.9265(2) 0.14456(15)
O2 O 0.3885(3) 0.7752(3) 0.01359(16)
O3 O 0.0196(3) 0.2401(3) 0.24692(17)
O4 O -0.0918(3) 0.1904(3) 0.06772(16)
N1 N 0.3395(3) 0.8528(3) 0.07760(18)
N2 N -0.0405(3) 0.2182(3) 0.15708(19)
C1 C 0.3902(3) 0.9349(4) 0.0690(2)
C2 C 0.3457(4) 1.0000(4) 0.0314(2)
C3 C 0.3970(4) 1.0750(4) 0.0227(2)
H1 H 0.3700 1.1201 -0.0018
C4 C 0.4877(4) 1.0840(4) 0.0500(2)
H2 H 0.5212 1.1335 0.0424
C5 C 0.5287(4) 1.0206(4) 0.0882(2)
H3 H 0.5889 1.0290 0.1072
C6 C 0.4808(3) 0.9440(4) 0.0986(2)
C7 C 0.5269(4) 0.8757(4) 0.1417(3)
H4 H 0.4805 0.8321 0.1466
C8 C 0.5653(4) 0.9239(5) 0.1953(2)
H5 H 0.6166 0.9609 0.1931
H6 H 0.5841 0.8787 0.2231
H7 H 0.5193 0.9626 0.2034
C9 C 0.6000(4) 0.8203(5) 0.1244(3)
H8 H 0.5732 0.7886 0.0915
H9 H 0.6262 0.7763 0.1518
H10 H 0.6464 0.8613 0.1190
C10 C 0.2457(4) 0.9929(4) 0.0025(3)
H11 H 0.2247 0.9314 0.0097
C11 C 0.2291(4) 1.0031(5) -0.0580(3)
H12 H 0.2406 1.0656 -0.0665
H13 H 0.1672 0.9874 -0.0750
H14 H 0.2691 0.9626 -0.0706
C12 C 0.1902(4) 1.0640(6) 0.0250(3)
H15 H 0.2086 1.1250 0.0179
H16 H 0.2007 1.0554 0.0630
H17 H 0.1268 1.0559 0.0081
C13 C 0.2943(3) 0.8569(4) 0.1185(2)
C14 C 0.2467(3) 0.7717(3) 0.1273(2)
C15 C 0.2026(3) 0.7697(4) 0.1679(2)
H18 H 0.1998 0.8234 0.1871
C16 C 0.1620(3) 0.6896(3) 0.1813(2)
C17 C 0.1645(3) 0.6083(3) 0.1527(2)
C18 C 0.1385(3) 0.5158(3) 0.1676(2)
C19 C 0.1445(3) 0.4876(4) 0.2195(2)
H19 H 0.1740 0.5252 0.2479
C20 C 0.1075(3) 0.4042(4) 0.2306(2)
H20 H 0.1143 0.3857 0.2660
C21 C 0.0610(3) 0.3494(4) 0.1894(2)
C22 C 0.0135(3) 0.2661(4) 0.2010(2)
C23 C -0.0452(4) 0.2375(4) 0.1029(2)
C24 C 0.0105(3) 0.3176(3) 0.0925(2)
C25 C 0.0117(3) 0.3393(4) 0.0409(2)
H21 H -0.0233 0.3057 0.0123
C26 C 0.0657(3) 0.4120(3) 0.0313(2)
H22 H 0.0675 0.4247 -0.0037
C27 C 0.1164(3) 0.4654(3) 0.0726(2)
C28 C 0.1049(3) 0.4520(3) 0.1253(2)
C29 C 0.0578(3) 0.3720(3) 0.1353(2)
C30 C 0.1962(3) 0.6127(4) 0.1041(2)
C31 C 0.1827(3) 0.5383(3) 0.0664(2)
C32 C 0.2342(3) 0.5391(3) 0.0278(2)
C33 C 0.2858(3) 0.6172(4) 0.0223(2)
H23 H 0.3193 0.6164 -0.0033
C34 C 0.2884(3) 0.6945(4) 0.0533(2)
C35 C 0.2428(3) 0.6930(4) 0.0948(2)
C36 C 0.3426(4) 0.7759(4) 0.0457(2)
C37 C 0.1089(3) 0.7062(4) 0.2236(2)
C38 C 0.1690(4) 0.7256(4) 0.2811(2)
C39 C 0.1185(4) 0.7267(4) 0.3264(3)
C40 C 0.1680(5) 0.7790(5) 0.3770(3)
C41 C 0.2475(4) 0.4594(4) -0.0076(2)
C42 C 0.1984(4) 0.4705(4) -0.0681(2)
C43 C 0.1905(4) 0.3840(5) -0.1034(3)
C44 C 0.1712(5) 0.4047(6) -0.1633(3)
C45 C -0.0907(4) 0.1397(4) 0.1705(2)
C46 C -0.0481(4) 0.0549(4) 0.1768(2)
C47 C -0.0943(4) -0.0193(4) 0.1923(2)
H24 H -0.0677 -0.0774 0.1968
C48 C -0.1797(4) -0.0065(4) 0.2009(2)
H25 H -0.2100 -0.0558 0.2116
C49 C -0.2201(4) 0.0792(4) 0.1935(2)
H26 H -0.2777 0.0865 0.1991
C50 C -0.1771(4) 0.1552(4) 0.1779(2)
C51 C -0.2243(4) 0.2479(4) 0.1681(2)
H27 H -0.1782 0.2948 0.1675
C52 C -0.2927(5) 0.2486(5) 0.1137(3)
H28 H -0.2618 0.2383 0.0860
H29 H -0.3229 0.3072 0.1081
H30 H -0.3367 0.2007 0.1125
C53 C -0.2728(5) 0.2756(5) 0.2116(3)
H31 H -0.3217 0.2335 0.2110
H32 H -0.2966 0.3369 0.2046
H33 H -0.2303 0.2737 0.2462
C54 C 0.0465(4) 0.0398(4) 0.1680(3)
H34 H 0.0684 0.0990 0.1578
C55 C 0.1132(4) 0.0068(5) 0.2192(3)
H35 H 0.0899 -0.0479 0.2319
H36 H 0.1209 0.0541 0.2461
H37 H 0.1707 -0.0065 0.2119
C56 C 0.0427(4) -0.0294(5) 0.1217(3)
H38 H 0.1033 -0.0425 0.1191
H39 H 0.0083 -0.0032 0.0885
H40 H 0.0142 -0.0853 0.1287
O5 O 0.4405(3) 0.6372(4) 0.15589(19)
H41 H 0.4440 0.6616 0.1851
C57 C 0.5137(6) 0.5722(6) 0.1607(3)
H42 H 0.5058 0.5213 0.1836
H43 H 0.5712 0.6019 0.1770
C58 C 0.5142(6) 0.5379(7) 0.1080(4)
H44 H 0.4579 0.5069 0.0926
H45 H 0.5638 0.4956 0.1111
H46 H 0.5213 0.5885 0.0855
loop_
_geom_bond_atom_site_label_1
_geom_bond_atom_site_label_2
_geom_bond_site_symmetry_1
_geom_bond_site_symmetry_2
F1 C37 1_555 1_555
F2 C37 1_555 1_555
F3 C38 1_555 1_555
F4 C38 1_555 1_555
F5 C39 1_555 1_555
F6 C39 1_555 1_555
F7 C40 1_555 1_555
F8 C40 1_555 1_555
F9 C40 1_555 1_555
F10 C41 1_555 1_555
F11 C41 1_555 1_555
F12 C42 1_555 1_555
F13 C42 1_555 1_555
F14 C43 1_555 1_555
F15 C43 1_555 1_555
F16 C44 1_555 1_555
F17 C44 1_555 1_555
F18 C44 1_555 1_555
O1 C13 1_555 1_555
O2 C36 1_555 1_555
O3 C22 1_555 1_555
O4 C23 1_555 1_555
N1 C1 1_555 1_555
N2 C22 1_555 1_555
C1 C2 1_555 1_555
C2 C3 1_555 1_555
C3 H1 1_555 1_555
C4 C3 1_555 1_555
H2 C4 1_555 1_555
C5 C4 1_555 1_555
H3 C5 1_555 1_555
C6 C1 1_555 1_555
C7 C6 1_555 1_555
H4 C7 1_555 1_555
C8 C7 1_555 1_555
H5 C8 1_555 1_555
H6 C8 1_555 1_555
H7 C8 1_555 1_555
C9 C7 1_555 1_555
H8 C9 1_555 1_555
H9 C9 1_555 1_555
H10 C9 1_555 1_555
C10 C2 1_555 1_555
H11 C10 1_555 1_555
C11 C10 1_555 1_555
H12 C11 1_555 1_555
H13 C11 1_555 1_555
H14 C11 1_555 1_555
C12 C10 1_555 1_555
H15 C12 1_555 1_555
H16 C12 1_555 1_555
H17 C12 1_555 1_555
C13 N1 1_555 1_555
C14 C13 1_555 1_555
C15 C14 1_555 1_555
H18 C15 1_555 1_555
C16 C15 1_555 1_555
C17 C16 1_555 1_555
C18 C17 1_555 1_555
C19 C18 1_555 1_555
H19 C19 1_555 1_555
C20 C19 1_555 1_555
H20 C20 1_555 1_555
C21 C20 1_555 1_555
C22 C21 1_555 1_555
C23 N2 1_555 1_555
C24 C23 1_555 1_555
C25 C24 1_555 1_555
H21 C25 1_555 1_555
C26 C25 1_555 1_555
H22 C26 1_555 1_555
C27 C26 1_555 1_555
C28 C18 1_555 1_555
C29 C21 1_555 1_555
C30 C17 1_555 1_555
C31 C27 1_555 1_555
C32 C31 1_555 1_555
C33 C32 1_555 1_555
H23 C33 1_555 1_555
C34 C33 1_555 1_555
C35 C14 1_555 1_555
C36 N1 1_555 1_555
C37 C16 1_555 1_555
C38 C37 1_555 1_555
C39 C38 1_555 1_555
C40 C39 1_555 1_555
C41 C32 1_555 1_555
C42 C41 1_555 1_555
C43 C42 1_555 1_555
C44 C43 1_555 1_555
C45 N2 1_555 1_555
C46 C45 1_555 1_555
C47 C46 1_555 1_555
H24 C47 1_555 1_555
C48 C47 1_555 1_555
H25 C48 1_555 1_555
C49 C48 1_555 1_555
H26 C49 1_555 1_555
C50 C45 1_555 1_555
C51 C50 1_555 1_555
H27 C51 1_555 1_555
C52 C51 1_555 1_555
H28 C52 1_555 1_555
H29 C52 1_555 1_555
H30 C52 1_555 1_555
C53 C51 1_555 1_555
H31 C53 1_555 1_555
H32 C53 1_555 1_555
H33 C53 1_555 1_555
C54 C46 1_555 1_555
H34 C54 1_555 1_555
C55 C54 1_555 1_555
H35 C55 1_555 1_555
H36 C55 1_555 1_555
H37 C55 1_555 1_555
C56 C54 1_555 1_555
H38 C56 1_555 1_555
H39 C56 1_555 1_555
H40 C56 1_555 1_555
O5 H41 1_555 1_555
C57 O5 1_555 1_555
H42 C57 1_555 1_555
H43 C57 1_555 1_555
C58 C57 1_555 1_555
H44 C58 1_555 1_555
H45 C58 1_555 1_555
H46 C58 1_555 1_555
C5 C6 1_555 1_555
C24 C29 1_555 1_555
C27 C28 1_555 1_555
C28 C29 1_555 1_555
C30 C31 1_555 1_555
C30 C35 1_555 1_555
C34 C35 1_555 1_555
C34 C36 1_555 1_555
C49 C50 1_555 1_555

#END
