
#######################################################################
#
#                 Cambridge Crystallographic Data Centre
#                                CCDC 
#
#######################################################################
#
# If this CIF has been generated from an entry in the Cambridge 
# Structural Database, then it will include bibliographic, chemical, 
# crystal, experimental, refinement or atomic coordinate data resulting 
# from the CCDC's data processing and validation procedures.
#
#######################################################################

data_MACMOT
_chemical_formula_moiety         'C16 H12 N2 S4'
_chemical_name_systematic        
2,2'-(1,2-Ethanediyldithio)bis(1,3-benzothiazole)
_symmetry_cell_setting           monoclinic
_symmetry_space_group_name_H-M   'P 21/n'
_symmetry_Int_Tables_number      14
_space_group_name_Hall           '-P 2yn'
loop_
_symmetry_equiv_pos_site_id
_symmetry_equiv_pos_as_xyz
1 x,y,z
2 1/2+x,1/2-y,1/2+z
3 -x,-y,-z
4 1/2-x,1/2+y,1/2-z
_cell_length_a                   11.513(2)
_cell_length_b                   10.711(2)
_cell_length_c                   13.998(2)
_cell_angle_alpha                90
_cell_angle_beta                 114.100(10)
_cell_angle_gamma                90
_cell_volume                     1575.71
_exptl_crystal_colour            colorless
_exptl_crystal_description       plate
_chemical_melting_point          '422-423 K'
_cell_formula_units_Z            4
loop_
_atom_site_label
_atom_site_type_symbol
_atom_site_fract_x
_atom_site_fract_y
_atom_site_fract_z
S1 S 0.21696(5) 0.46192(5) 0.11324(4)
S2 S 0.23804(5) 0.59668(6) 0.30564(5)
S3 S -0.06760(6) 0.66361(6) 0.41449(5)
S4 S -0.06197(5) 0.80194(6) 0.59981(5)
N1 N 0.05754(15) 0.42452(15) 0.19951(12)
N2 N 0.11139(16) 0.83470(15) 0.52787(13)
C1 C 0.02168(18) 0.34570(18) 0.11272(15)
C2 C -0.0795(2) 0.2617(2) 0.08144(18)
H1 H -0.1302 0.2549 0.1187
C3 C -0.1032(2) 0.1890(2) -0.00576(19)
H2 H -0.1702 0.1324 -0.0269
C4 C -0.0293(2) 0.1983(2) -0.06268(18)
H3 H -0.0480 0.1485 -0.1215
C5 C 0.0715(2) 0.2805(2) -0.03308(16)
H4 H 0.1212 0.2868 -0.0711
C6 C 0.09675(18) 0.35346(18) 0.05516(15)
C7 C 0.15677(18) 0.48878(19) 0.20800(16)
C8 C 0.1441(2) 0.5911(2) 0.38309(16)
H5 H 0.1181 0.5057 0.3862
H6 H 0.1964 0.6179 0.4539
C9 C 0.0287(2) 0.6722(2) 0.33877(16)
H7 H -0.0225 0.6468 0.2673
H8 H 0.0549 0.7580 0.3373
C10 C 0.0090(2) 0.77261(19) 0.51278(16)
C11 C 0.14153(18) 0.91434(18) 0.61384(15)
C12 C 0.2446(2) 0.9947(2) 0.65147(17)
H9 H 0.3005 0.9996 0.6189
C13 C 0.2634(2) 1.0674(2) 0.73778(18)
H10 H 0.3325 1.1216 0.7635
C14 C 0.1802(2) 1.0607(2) 0.78669(17)
H11 H 0.1947 1.1102 0.8450
C15 C 0.0768(2) 0.9822(2) 0.75050(17)
H12 H 0.0212 0.9784 0.7834
C16 C 0.05743(19) 0.90868(19) 0.66356(16)
loop_
_geom_bond_atom_site_label_1
_geom_bond_atom_site_label_2
_geom_bond_site_symmetry_1
_geom_bond_site_symmetry_2
S1 C6 1_555 1_555
S2 C7 1_555 1_555
S3 C9 1_555 1_555
S4 C10 1_555 1_555
N1 C1 1_555 1_555
N2 C10 1_555 1_555
C1 C2 1_555 1_555
C2 H1 1_555 1_555
C3 C2 1_555 1_555
H2 C3 1_555 1_555
C4 C3 1_555 1_555
H3 C4 1_555 1_555
C5 C4 1_555 1_555
H4 C5 1_555 1_555
C6 C1 1_555 1_555
C7 S1 1_555 1_555
C8 S2 1_555 1_555
H5 C8 1_555 1_555
H6 C8 1_555 1_555
C9 C8 1_555 1_555
H7 C9 1_555 1_555
H8 C9 1_555 1_555
C10 S3 1_555 1_555
C11 N2 1_555 1_555
C12 C11 1_555 1_555
H9 C12 1_555 1_555
C13 C12 1_555 1_555
H10 C13 1_555 1_555
C14 C13 1_555 1_555
H11 C14 1_555 1_555
C15 C14 1_555 1_555
H12 C15 1_555 1_555
C16 S4 1_555 1_555
N1 C7 1_555 1_555
C5 C6 1_555 1_555
C11 C16 1_555 1_555
C15 C16 1_555 1_555

#END
