
#######################################################################
#
#                 Cambridge Crystallographic Data Centre
#                                CCDC 
#
#######################################################################
#
# If this CIF has been generated from an entry in the Cambridge 
# Structural Database, then it will include bibliographic, chemical, 
# crystal, experimental, refinement or atomic coordinate data resulting 
# from the CCDC's data processing and validation procedures.
#
#######################################################################

data_MACPAJ
_chemical_formula_moiety         'C17 H14 N4 O3,H2 O1'
_chemical_name_systematic        
'N-(4-Nitrophenyl)-N^2^-quinolin-8-ylglycinamide monohydrate'
_symmetry_cell_setting           monoclinic
_symmetry_space_group_name_H-M   'P 21/c'
_symmetry_Int_Tables_number      14
_space_group_name_Hall           '-P 2ybc'
loop_
_symmetry_equiv_pos_site_id
_symmetry_equiv_pos_as_xyz
1 x,y,z
2 -x,1/2+y,1/2-z
3 -x,-y,-z
4 x,1/2-y,1/2+z
_cell_length_a                   16.023(2)
_cell_length_b                   7.5170(11)
_cell_length_c                   14.671(2)
_cell_angle_alpha                90
_cell_angle_beta                 111.957(2)
_cell_angle_gamma                90
_cell_volume                     1638.87
_exptl_crystal_colour            yellow
_exptl_crystal_description       plate
_cell_formula_units_Z            4
loop_
_atom_site_label
_atom_site_type_symbol
_atom_site_fract_x
_atom_site_fract_y
_atom_site_fract_z
C1 C 1.34487(11) 0.5584(2) 0.52884(14)
C2 C 1.28645(11) 0.5751(2) 0.43373(14)
H1 H 1.3043 0.6307 0.3873
C3 C 1.20053(11) 0.5082(3) 0.40760(13)
H2 H 1.1600 0.5192 0.3431
C4 C 1.17420(10) 0.4249(2) 0.47646(12)
C5 C 1.23421(11) 0.4107(2) 0.57263(12)
H3 H 1.2168 0.3565 0.6197
C6 C 1.32016(11) 0.4779(3) 0.59812(14)
H4 H 1.3611 0.4683 0.6625
C7 C 1.03908(10) 0.2921(2) 0.49408(13)
C8 C 0.94688(10) 0.2254(2) 0.42903(11)
H5 H 0.9101 0.3246 0.3940
H6 H 0.9526 0.1426 0.3810
C9 C 0.81533(10) 0.0886(2) 0.44964(12)
C10 C 0.76302(11) 0.0935(2) 0.35134(12)
H7 H 0.7878 0.1322 0.3068
C11 C 0.67241(12) 0.0407(3) 0.31716(14)
H8 H 0.6380 0.0458 0.2502
C12 C 0.63429(11) -0.0174(3) 0.37956(14)
H9 H 0.5740 -0.0509 0.3554
C13 C 0.68538(11) -0.0276(2) 0.48147(13)
C14 C 0.65096(13) -0.0901(2) 0.55028(16)
H10 H 0.5912 -0.1261 0.5299
C15 C 0.70484(13) -0.0981(3) 0.64631(16)
H11 H 0.6826 -0.1404 0.6924
C16 C 0.79410(13) -0.0423(3) 0.67574(14)
H12 H 0.8302 -0.0487 0.7422
C17 C 0.77671(10) 0.0258(2) 0.51695(11)
N1 N 1.43679(11) 0.6279(2) 0.55602(17)
N2 N 1.08665(9) 0.35470(19) 0.44228(10)
H13 H 1.0599(10) 0.347(2) 0.3735(12)
N3 N 0.90441(9) 0.1388(2) 0.48708(10)
H14 H 0.9272(12) 0.153(2) 0.5480(13)
N4 N 0.82998(9) 0.01868(18) 0.61478(10)
O1 O 1.45689(9) 0.6941(2) 0.49110(14)
O2 O 1.48755(9) 0.6187(2) 0.64188(13)
O3 O 1.06475(7) 0.29299(16) 0.58383(8)
O4 O 1.00375(10) 0.3425(3) 0.23488(10)
H15 H 0.9555(16) 0.386(3) 0.2039(17)
H16 H 1.0280(14) 0.290(3) 0.1918(16)
loop_
_geom_bond_atom_site_label_1
_geom_bond_atom_site_label_2
_geom_bond_site_symmetry_1
_geom_bond_site_symmetry_2
C1 C2 1_555 1_555
C2 H1 1_555 1_555
C3 C2 1_555 1_555
H2 C3 1_555 1_555
C4 C3 1_555 1_555
C5 C4 1_555 1_555
H3 C5 1_555 1_555
C6 C1 1_555 1_555
H4 C6 1_555 1_555
C7 C8 1_555 1_555
C8 H5 1_555 1_555
H6 C8 1_555 1_555
C9 C10 1_555 1_555
C10 H7 1_555 1_555
C11 C10 1_555 1_555
H8 C11 1_555 1_555
C12 C11 1_555 1_555
H9 C12 1_555 1_555
C13 C12 1_555 1_555
C14 C13 1_555 1_555
H10 C14 1_555 1_555
C15 C14 1_555 1_555
H11 C15 1_555 1_555
C16 C15 1_555 1_555
H12 C16 1_555 1_555
C17 C9 1_555 1_555
N1 C1 1_555 1_555
N2 C4 1_555 1_555
H13 N2 1_555 1_555
N3 C8 1_555 1_555
H14 N3 1_555 1_555
N4 C16 1_555 1_555
O1 N1 1_555 1_555
O2 N1 1_555 1_555
O3 C7 1_555 1_555
O4 H15 1_555 1_555
H16 O4 1_555 1_555
C5 C6 1_555 1_555
C7 N2 1_555 1_555
C9 N3 1_555 1_555
C13 C17 1_555 1_555
C17 N4 1_555 1_555

#END
