
#######################################################################
#
#                 Cambridge Crystallographic Data Centre
#                                CCDC 
#
#######################################################################
#
# If this CIF has been generated from an entry in the Cambridge 
# Structural Database, then it will include bibliographic, chemical, 
# crystal, experimental, refinement or atomic coordinate data resulting 
# from the CCDC's data processing and validation procedures.
#
#######################################################################

data_MACSUG
_chemical_formula_moiety         'C24 H24 B3 N3 O3'
_chemical_name_systematic        1,1',1''-Boroxin-2,4,6-triyltriindoline
_symmetry_cell_setting           orthorhombic
_symmetry_space_group_name_H-M   'P n a 21'
_symmetry_Int_Tables_number      33
_space_group_name_Hall           'P 2c -2n'
loop_
_symmetry_equiv_pos_site_id
_symmetry_equiv_pos_as_xyz
1 x,y,z
2 -x,-y,1/2+z
3 1/2-x,1/2+y,1/2+z
4 1/2+x,1/2-y,z
_cell_length_a                   9.4982(11)
_cell_length_b                   13.6999(16)
_cell_length_c                   16.2949(19)
_cell_angle_alpha                90
_cell_angle_beta                 90
_cell_angle_gamma                90
_cell_volume                     2120.36
_exptl_crystal_colour            colorless
_exptl_crystal_description       prism
_cell_formula_units_Z            4
loop_
_atom_site_label
_atom_site_type_symbol
_atom_site_fract_x
_atom_site_fract_y
_atom_site_fract_z
B1 B 0.71804(19) 0.58363(13) 0.10188(11)
B2 B 0.67655(18) 0.75280(14) 0.07763(10)
B3 B 0.85200(18) 0.70399(13) 0.17370(11)
O1 O 0.64223(11) 0.65700(8) 0.06416(6)
O2 O 0.77995(11) 0.77739(8) 0.13435(6)
O3 O 0.82538(10) 0.60758(8) 0.15587(7)
N1 N 0.68625(13) 0.48581(9) 0.08421(8)
N2 N 0.95524(13) 0.72407(10) 0.23363(8)
N3 N 0.60718(13) 0.82929(9) 0.03607(8)
C1 C 0.57203(17) 0.45825(12) 0.02682(10)
H1 H 0.5793 0.4962 -0.0247
H2 H 0.4788 0.4708 0.0519
C2 C 0.59130(17) 0.34953(12) 0.00986(10)
H3 H 0.5010 0.3140 0.0150
H4 H 0.6304 0.3384 -0.0457
C3 C 0.69361(17) 0.31852(12) 0.07514(10)
C4 C 0.7380(2) 0.22563(13) 0.09673(11)
H5 H 0.7006 0.1699 0.0698
C5 C 0.8377(2) 0.21529(13) 0.15808(11)
H6 H 0.8697 0.1521 0.1731
C6 C 0.8906(2) 0.29665(13) 0.19749(11)
H7 H 0.9596 0.2884 0.2391
C7 C 0.84570(17) 0.38971(13) 0.17779(10)
H8 H 0.8816 0.4452 0.2058
C8 C 0.74611(16) 0.39959(11) 0.11554(9)
C9 C 1.02860(17) 0.64337(12) 0.27644(10)
H9 H 1.0871 0.6057 0.2374
H10 H 0.9597 0.5986 0.3022
C10 C 1.12090(18) 0.69134(12) 0.34179(10)
H11 H 1.0880 0.6742 0.3976
H12 H 1.2204 0.6710 0.3358
C11 C 1.10470(16) 0.79832(12) 0.32603(9)
C12 C 1.16836(18) 0.87642(13) 0.36351(11)
H13 H 1.2351 0.8658 0.4060
C13 C 1.13554(18) 0.97071(14) 0.33954(10)
H14 H 1.1801 1.0249 0.3651
C14 C 1.03705(18) 0.98539(12) 0.27796(11)
H15 H 1.0142 1.0501 0.2619
C15 C 0.97114(17) 0.90743(12) 0.23927(10)
H16 H 0.9037 0.9183 0.1972
C16 C 1.00605(15) 0.81319(11) 0.26342(9)
C17 C 0.64789(18) 0.93262(12) 0.04668(11)
H17 H 0.7444 0.9437 0.0258
H18 H 0.6450 0.9510 0.1054
C18 C 0.54194(16) 0.99254(11) -0.00210(11)
H19 H 0.4805 1.0310 0.0348
H20 H 0.5902 1.0375 -0.0405
C19 C 0.45855(16) 0.91692(11) -0.04795(9)
C20 C 0.35197(16) 0.92862(13) -0.10522(10)
H21 H 0.3226 0.9921 -0.1213
C21 C 0.28888(19) 0.84687(13) -0.13873(11)
H22 H 0.2153 0.8541 -0.1777
C22 C 0.33264(17) 0.75463(13) -0.11565(9)
H23 H 0.2895 0.6990 -0.1398
C23 C 0.43832(17) 0.74175(12) -0.05792(10)
H24 H 0.4675 0.6782 -0.0419
C24 C 0.50031(15) 0.82417(11) -0.02412(9)
loop_
_geom_bond_atom_site_label_1
_geom_bond_atom_site_label_2
_geom_bond_site_symmetry_1
_geom_bond_site_symmetry_2
B1 O1 1_555 1_555
B2 O1 1_555 1_555
B3 O2 1_555 1_555
O2 B2 1_555 1_555
O3 B1 1_555 1_555
N1 B1 1_555 1_555
N2 B3 1_555 1_555
N3 B2 1_555 1_555
C1 N1 1_555 1_555
H1 C1 1_555 1_555
H2 C1 1_555 1_555
C2 C1 1_555 1_555
H3 C2 1_555 1_555
H4 C2 1_555 1_555
C3 C2 1_555 1_555
C4 C3 1_555 1_555
H5 C4 1_555 1_555
C5 C4 1_555 1_555
H6 C5 1_555 1_555
C6 C5 1_555 1_555
H7 C6 1_555 1_555
C7 C6 1_555 1_555
H8 C7 1_555 1_555
C8 N1 1_555 1_555
C9 N2 1_555 1_555
H9 C9 1_555 1_555
H10 C9 1_555 1_555
C10 C9 1_555 1_555
H11 C10 1_555 1_555
H12 C10 1_555 1_555
C11 C10 1_555 1_555
C12 C11 1_555 1_555
H13 C12 1_555 1_555
C13 C12 1_555 1_555
H14 C13 1_555 1_555
C14 C13 1_555 1_555
H15 C14 1_555 1_555
C15 C14 1_555 1_555
H16 C15 1_555 1_555
C16 N2 1_555 1_555
C17 N3 1_555 1_555
H17 C17 1_555 1_555
H18 C17 1_555 1_555
C18 C17 1_555 1_555
H19 C18 1_555 1_555
H20 C18 1_555 1_555
C19 C18 1_555 1_555
C20 C19 1_555 1_555
H21 C20 1_555 1_555
C21 C20 1_555 1_555
H22 C21 1_555 1_555
C22 C21 1_555 1_555
H23 C22 1_555 1_555
C23 C22 1_555 1_555
H24 C23 1_555 1_555
C24 N3 1_555 1_555
B3 O3 1_555 1_555
C3 C8 1_555 1_555
C7 C8 1_555 1_555
C11 C16 1_555 1_555
C15 C16 1_555 1_555
C19 C24 1_555 1_555
C23 C24 1_555 1_555

#END
