
#######################################################################
#
#                 Cambridge Crystallographic Data Centre
#                                CCDC 
#
#######################################################################
#
# If this CIF has been generated from an entry in the Cambridge 
# Structural Database, then it will include bibliographic, chemical, 
# crystal, experimental, refinement or atomic coordinate data resulting 
# from the CCDC's data processing and validation procedures.
#
#######################################################################

data_MACWEU
_chemical_formula_moiety         'C18 H18 O5'
_chemical_name_systematic        
'Methyl 1,7-dioxo-5-phenyl-2-oxaspiro[5.5]undec-3-ene-3-carboxylate'
_symmetry_cell_setting           orthorhombic
_symmetry_space_group_name_H-M   'P 21 21 21'
_symmetry_Int_Tables_number      19
_space_group_name_Hall           'P 2ac 2ab'
loop_
_symmetry_equiv_pos_site_id
_symmetry_equiv_pos_as_xyz
1 x,y,z
2 1/2-x,-y,1/2+z
3 1/2+x,1/2-y,-z
4 -x,1/2+y,1/2-z
_cell_length_a                   9.3739(1)
_cell_length_b                   10.2490(1)
_cell_length_c                   16.2713(2)
_cell_angle_alpha                90
_cell_angle_beta                 90
_cell_angle_gamma                90
_cell_volume                     1563.23
_exptl_crystal_colour            colorless
_exptl_crystal_description       platelet
_cell_formula_units_Z            4
loop_
_atom_site_label
_atom_site_type_symbol
_atom_site_fract_x
_atom_site_fract_y
_atom_site_fract_z
O1 O 0.16474(12) 1.09242(11) 0.09465(7)
O2 O 0.10266(11) 0.77847(10) 0.07163(6)
O3 O 0.08946(9) 0.85618(9) 0.19626(6)
O4 O 0.21208(13) 0.86834(13) 0.34347(7)
O5 O 0.07565(13) 1.03883(11) 0.37879(6)
C1 C -0.27093(17) 0.79821(15) 0.19628(11)
H1 H -0.1809 0.7640 0.2068
C2 C -0.39032(19) 0.72158(18) 0.20847(13)
H2 H -0.3802 0.6356 0.2257
C3 C -0.52456(19) 0.7725(2) 0.19506(12)
H3 H -0.6050 0.7212 0.2037
C4 C -0.53879(17) 0.8984(2) 0.16903(11)
H4 H -0.6293 0.9330 0.1605
C5 C -0.41964(15) 0.97490(18) 0.15532(9)
H5 H -0.4306 1.0603 0.1371
C6 C -0.28367(13) 0.92534(14) 0.16855(7)
C7 C -0.15375(13) 1.01244(12) 0.15547(8)
H6 H -0.1885 1.0995 0.1406
C8 C -0.04983(13) 0.96623(12) 0.08559(7)
C9 C -0.12809(15) 0.91873(15) 0.00763(8)
H7 H -0.0603 0.8746 -0.0278
H8 H -0.2004 0.8559 0.0234
C10 C -0.19826(19) 1.02855(18) -0.04015(10)
H9 H -0.2450 0.9931 -0.0884
H10 H -0.2704 1.0697 -0.0062
C11 C -0.0894(2) 1.1296(2) -0.06626(11)
H11 H -0.1367 1.1993 -0.0960
H12 H -0.0201 1.0897 -0.1028
C12 C -0.0137(2) 1.18529(16) 0.00859(12)
H13 H 0.0631 1.2416 -0.0099
H14 H -0.0806 1.2386 0.0392
C13 C 0.04689(15) 1.08389(13) 0.06494(8)
C14 C 0.05068(13) 0.85921(12) 0.11526(8)
C15 C 0.03816(13) 0.94972(12) 0.25040(8)
C16 C -0.07281(13) 1.02503(12) 0.23425(8)
H15 H -0.1011 1.0871 0.2726
C17 C 0.12001(14) 0.94659(14) 0.32825(8)
C18 C 0.1450(2) 1.04681(18) 0.45786(10)
H16 H 0.2415 1.0760 0.4507
H17 H 0.1450 0.9623 0.4833
H18 H 0.0945 1.1074 0.4922
loop_
_geom_bond_atom_site_label_1
_geom_bond_atom_site_label_2
_geom_bond_site_symmetry_1
_geom_bond_site_symmetry_2
O1 C13 1_555 1_555
O2 C14 1_555 1_555
O3 C14 1_555 1_555
O4 C17 1_555 1_555
O5 C17 1_555 1_555
C1 H1 1_555 1_555
C2 C1 1_555 1_555
H2 C2 1_555 1_555
C3 C2 1_555 1_555
H3 C3 1_555 1_555
C4 C3 1_555 1_555
H4 C4 1_555 1_555
C5 C4 1_555 1_555
H5 C5 1_555 1_555
C6 C1 1_555 1_555
C7 C6 1_555 1_555
H6 C7 1_555 1_555
C8 C7 1_555 1_555
C9 C8 1_555 1_555
H7 C9 1_555 1_555
H8 C9 1_555 1_555
C10 C9 1_555 1_555
H9 C10 1_555 1_555
H10 C10 1_555 1_555
C11 C10 1_555 1_555
H11 C11 1_555 1_555
H12 C11 1_555 1_555
C12 C11 1_555 1_555
H13 C12 1_555 1_555
H14 C12 1_555 1_555
C13 C8 1_555 1_555
C14 C8 1_555 1_555
C15 O3 1_555 1_555
C16 C7 1_555 1_555
H15 C16 1_555 1_555
C17 C15 1_555 1_555
C18 O5 1_555 1_555
H16 C18 1_555 1_555
H17 C18 1_555 1_555
H18 C18 1_555 1_555
C5 C6 1_555 1_555
C12 C13 1_555 1_555
C15 C16 1_555 1_555

#END
