
#######################################################################
#
#                 Cambridge Crystallographic Data Centre
#                                CCDC 
#
#######################################################################
#
# If this CIF has been generated from an entry in the Cambridge 
# Structural Database, then it will include bibliographic, chemical, 
# crystal, experimental, refinement or atomic coordinate data resulting 
# from the CCDC's data processing and validation procedures.
#
#######################################################################

data_MACXUM
_chemical_formula_moiety         'C20 H19 B1 N4'
_chemical_name_systematic        
6-(4-methylphenyl)-2,4-diphenyl-2,3-dihydro-1,2,4,5,3-tetrazaborinine
_symmetry_cell_setting           monoclinic
_symmetry_space_group_name_H-M   'C c'
_symmetry_Int_Tables_number      9
_space_group_name_Hall           'C -2yc'
loop_
_symmetry_equiv_pos_site_id
_symmetry_equiv_pos_as_xyz
1 x,y,z
2 x,-y,1/2+z
3 1/2+x,1/2+y,z
4 1/2+x,1/2-y,1/2+z
_cell_length_a                   4.14730(10)
_cell_length_b                   20.9249(7)
_cell_length_c                   19.0650(6)
_cell_angle_alpha                90
_cell_angle_beta                 94.7599(12)
_cell_angle_gamma                90
_cell_volume                     1648.79
_exptl_crystal_colour            purple
_exptl_crystal_description       plate
_cell_formula_units_Z            4
loop_
_atom_site_label
_atom_site_type_symbol
_atom_site_fract_x
_atom_site_fract_y
_atom_site_fract_z
N1 N 0.6399(4) 0.19628(8) 0.36864(9)
H1 H 0.578(5) 0.1988(10) 0.2531(11)
N2 N 0.7261(4) 0.32452(8) 0.35864(10)
N3 N 0.6191(4) 0.29339(8) 0.30216(9)
N4 N 0.7478(4) 0.22847(8) 0.42482(9)
H2 H 0.990(6) 0.2210(12) 0.2938(13)
C1 C 1.0210(5) 0.32320(9) 0.47329(11)
C2 C 0.8426(5) 0.28917(9) 0.41404(11)
C3 C 1.2267(5) 0.42125(10) 0.52754(12)
H3 H 1.2446 0.4655 0.5260
C4 C 0.4637(4) 0.13978(9) 0.38139(11)
C5 C 0.4412(5) 0.33023(10) 0.24950(11)
C6 C 1.3677(5) 0.38838(10) 0.58549(11)
C7 C 1.1607(5) 0.29008(10) 0.53177(12)
H4 H 1.1380 0.2459 0.5341
C8 C 1.0594(5) 0.38949(10) 0.47170(11)
H5 H 0.9723 0.4126 0.4330
C9 C 1.3333(5) 0.32225(10) 0.58661(11)
H6 H 1.4274 0.2992 0.6247
C10 C 0.1232(5) 0.02816(10) 0.40510(12)
H7 H 0.0090 -0.0091 0.4129
C11 C 1.5531(5) 0.42267(11) 0.64587(12)
H8 H 1.7715 0.4071 0.6511
H9 H 1.4512 0.4150 0.6885
H10 H 1.5545 0.4677 0.6364
C12 C 0.3448(5) 0.12897(10) 0.44658(11)
H11 H 0.3781 0.1592 0.4822
C13 C 0.1762(5) 0.07310(10) 0.45833(11)
H12 H 0.0987 0.0658 0.5020
C14 C 0.2411(5) 0.03892(10) 0.34028(12)
H13 H 0.2046 0.0088 0.3046
C15 C 0.1504(6) 0.42580(11) 0.21292(13)
H14 H 0.0610 0.4650 0.2237
C16 C 0.3040(5) 0.38877(10) 0.26619(11)
H15 H 0.3156 0.4028 0.3126
C17 C 0.4177(5) 0.30866(10) 0.18038(12)
H16 H 0.5055 0.2694 0.1694
C18 C 0.4137(5) 0.09434(10) 0.32793(11)
H17 H 0.4949 0.1010 0.2845
C19 C 0.1297(6) 0.40452(11) 0.14366(13)
H18 H 0.0272 0.4295 0.1081
C20 C 0.2618(6) 0.34618(11) 0.12773(12)
H19 H 0.2464 0.3319 0.0814
B1 B 0.7228(6) 0.22186(11) 0.29493(12)
loop_
_geom_bond_atom_site_label_1
_geom_bond_atom_site_label_2
_geom_bond_site_symmetry_1
_geom_bond_site_symmetry_2
N1 N4 1_555 1_555
H1 B1 1_555 1_555
N2 N3 1_555 1_555
N3 C5 1_555 1_555
N4 C2 1_555 1_555
H2 B1 1_555 1_555
C1 C2 1_555 1_555
C2 N2 1_555 1_555
C3 H3 1_555 1_555
C4 N1 1_555 1_555
C5 C16 1_555 1_555
C6 C3 1_555 1_555
C7 C1 1_555 1_555
H4 C7 1_555 1_555
C8 C1 1_555 1_555
H5 C8 1_555 1_555
C9 C6 1_555 1_555
H6 C9 1_555 1_555
C10 H7 1_555 1_555
C11 C6 1_555 1_555
H8 C11 1_555 1_555
H9 C11 1_555 1_555
H10 C11 1_555 1_555
C12 C4 1_555 1_555
H11 C12 1_555 1_555
C13 C10 1_555 1_555
H12 C13 1_555 1_555
C14 C10 1_555 1_555
H13 C14 1_555 1_555
C15 H14 1_555 1_555
C16 C15 1_555 1_555
H15 C16 1_555 1_555
C17 C5 1_555 1_555
H16 C17 1_555 1_555
C18 C4 1_555 1_555
H17 C18 1_555 1_555
C19 C15 1_555 1_555
H18 C19 1_555 1_555
C20 C17 1_555 1_555
H19 C20 1_555 1_555
B1 N1 1_555 1_555
N3 B1 1_555 1_555
C3 C8 1_555 1_555
C7 C9 1_555 1_555
C12 C13 1_555 1_555
C14 C18 1_555 1_555
C19 C20 1_555 1_555

#END
