
#######################################################################
#
#                 Cambridge Crystallographic Data Centre
#                                CCDC 
#
#######################################################################
#
# If this CIF has been generated from an entry in the Cambridge 
# Structural Database, then it will include bibliographic, chemical, 
# crystal, experimental, refinement or atomic coordinate data resulting 
# from the CCDC's data processing and validation procedures.
#
#######################################################################

data_MADJAF
_chemical_formula_moiety         'C39 H27 N1 O3'
_chemical_name_systematic        
4'-(bis(3'-formylbiphenyl-4-yl)amino)biphenyl-3-carbaldehyde
_symmetry_cell_setting           triclinic
_symmetry_space_group_name_H-M   'P -1'
_symmetry_Int_Tables_number      2
_space_group_name_Hall           '-P 1'
loop_
_symmetry_equiv_pos_site_id
_symmetry_equiv_pos_as_xyz
1 x,y,z
2 -x,-y,-z
_cell_length_a                   8.5877(10)
_cell_length_b                   12.6416(14)
_cell_length_c                   14.4046(16)
_cell_angle_alpha                109.408(3)
_cell_angle_beta                 101.699(3)
_cell_angle_gamma                100.565(3)
_cell_volume                     1390.06
_exptl_crystal_colour            yellow
_exptl_crystal_description       block
_cell_formula_units_Z            2
loop_
_atom_site_label
_atom_site_type_symbol
_atom_site_fract_x
_atom_site_fract_y
_atom_site_fract_z
C1 C 0.44275(19) 0.76728(15) 0.33210(12)
C2 C 0.5138(2) 0.71310(15) 0.39189(12)
H1 H 0.4738 0.6332 0.3729
C3 C 0.6436(2) 0.77670(15) 0.47944(12)
H2 H 0.6896 0.7389 0.5188
C4 C 0.7068(2) 0.89623(15) 0.50981(12)
C5 C 0.6365(2) 0.94909(15) 0.44780(12)
H3 H 0.6781 1.0286 0.4655
C6 C 0.5062(2) 0.88574(15) 0.36039(13)
H4 H 0.4609 0.9231 0.3203
C7 C 0.8425(2) 0.96610(15) 0.60589(12)
C8 C 0.8576(2) 0.93627(15) 0.69115(12)
H5 H 0.7808 0.8722 0.6884
C9 C 0.9858(2) 1.00082(15) 0.78049(13)
C10 C 1.1011(2) 1.09730(17) 0.78560(14)
H6 H 1.1873 1.1402 0.8452
C11 C 1.0870(2) 1.12895(17) 0.70249(14)
H7 H 1.1633 1.1935 0.7056
C12 C 0.9589(2) 1.06432(16) 0.61414(13)
H8 H 0.9498 1.0869 0.5585
C13 C 0.9997(2) 0.96975(18) 0.87101(14)
H9 H 1.0901 1.0138 0.9279
C14 C 0.3125(2) 0.72954(14) 0.15418(12)
C15 C 0.4513(2) 0.72587(15) 0.11902(12)
H10 H 0.5365 0.7030 0.1514
C16 C 0.4639(2) 0.75569(15) 0.03667(12)
H11 H 0.5587 0.7540 0.0151
C17 C 0.3375(2) 0.78830(14) -0.01497(12)
C18 C 0.1977(2) 0.79000(14) 0.01994(12)
H12 H 0.1108 0.8103 -0.0138
C19 C 0.1855(2) 0.76215(15) 0.10340(12)
H13 H 0.0917 0.7652 0.1260
C20 C 0.3496(2) 0.81740(15) -0.10513(13)
C21 C 0.2155(2) 0.77636(15) -0.19189(13)
H14 H 0.1167 0.7300 -0.1935
C22 C 0.2271(2) 0.80376(15) -0.27647(13)
C23 C 0.3734(2) 0.87336(16) -0.27444(14)
H15 H 0.3808 0.8924 -0.3308
C24 C 0.5081(2) 0.91449(17) -0.18908(14)
H16 H 0.6063 0.9614 -0.1876
C25 C 0.4967(2) 0.88588(16) -0.10586(14)
H17 H 0.5887 0.9127 -0.0490
C26 C 0.0883(2) 0.75624(17) -0.36977(14)
H18 H 0.0998 0.7827 -0.4217
C27 C 0.1555(2) 0.64653(15) 0.25128(12)
C28 C 0.1252(2) 0.66630(16) 0.34611(13)
H19 H 0.2071 0.7165 0.4058
C29 C -0.0245(2) 0.61251(16) 0.35268(13)
H20 H -0.0406 0.6265 0.4172
C30 C -0.1523(2) 0.53785(15) 0.26607(13)
C31 C -0.1197(2) 0.51687(15) 0.17173(13)
H21 H -0.2017 0.4666 0.1121
C32 C 0.0308(2) 0.56850(15) 0.16428(13)
H22 H 0.0493 0.5509 0.1001
C33 C -0.3147(2) 0.48385(15) 0.27461(14)
C34 C -0.4591(2) 0.45356(15) 0.19652(14)
H23 H -0.4541 0.4673 0.1375
C35 C -0.6116(2) 0.40300(16) 0.20468(15)
C36 C -0.6215(3) 0.38355(16) 0.29275(17)
H24 H -0.7233 0.3512 0.2990
C37 C -0.4793(3) 0.41239(17) 0.37116(16)
H25 H -0.4853 0.3988 0.4301
C38 C -0.3275(2) 0.46158(16) 0.36246(15)
H26 H -0.2325 0.4801 0.4157
C39 C -0.7627(2) 0.36786(18) 0.11991(18)
H27 H -0.8628 0.3447 0.1326
N1 N 0.30613(16) 0.70314(12) 0.24256(10)
O1 O 0.90320(17) 0.89153(13) 0.87754(10)
O2 O -0.04023(17) 0.68577(12) -0.38577(10)
O3 O -0.76775(18) 0.36650(16) 0.03543(13)
loop_
_geom_bond_atom_site_label_1
_geom_bond_atom_site_label_2
_geom_bond_site_symmetry_1
_geom_bond_site_symmetry_2
C1 C2 1_555 1_555
C2 H1 1_555 1_555
C3 C2 1_555 1_555
H2 C3 1_555 1_555
C4 C3 1_555 1_555
C5 C4 1_555 1_555
H3 C5 1_555 1_555
C6 C1 1_555 1_555
H4 C6 1_555 1_555
C7 C4 1_555 1_555
C8 C7 1_555 1_555
H5 C8 1_555 1_555
C9 C8 1_555 1_555
C10 C9 1_555 1_555
H6 C10 1_555 1_555
C11 C10 1_555 1_555
H7 C11 1_555 1_555
C12 C7 1_555 1_555
H8 C12 1_555 1_555
C13 C9 1_555 1_555
H9 C13 1_555 1_555
C14 C15 1_555 1_555
C15 H10 1_555 1_555
C16 C15 1_555 1_555
H11 C16 1_555 1_555
C17 C16 1_555 1_555
C18 C17 1_555 1_555
H12 C18 1_555 1_555
C19 C14 1_555 1_555
H13 C19 1_555 1_555
C20 C17 1_555 1_555
C21 C20 1_555 1_555
H14 C21 1_555 1_555
C22 C21 1_555 1_555
C23 C22 1_555 1_555
H15 C23 1_555 1_555
C24 C23 1_555 1_555
H16 C24 1_555 1_555
C25 C20 1_555 1_555
H17 C25 1_555 1_555
C26 C22 1_555 1_555
H18 C26 1_555 1_555
C27 C28 1_555 1_555
C28 H19 1_555 1_555
C29 C28 1_555 1_555
H20 C29 1_555 1_555
C30 C29 1_555 1_555
C31 C30 1_555 1_555
H21 C31 1_555 1_555
C32 C27 1_555 1_555
H22 C32 1_555 1_555
C33 C30 1_555 1_555
C34 C33 1_555 1_555
H23 C34 1_555 1_555
C35 C34 1_555 1_555
C36 C35 1_555 1_555
H24 C36 1_555 1_555
C37 C36 1_555 1_555
H25 C37 1_555 1_555
C38 C33 1_555 1_555
H26 C38 1_555 1_555
C39 C35 1_555 1_555
H27 C39 1_555 1_555
N1 C1 1_555 1_555
O1 C13 1_555 1_555
O2 C26 1_555 1_555
O3 C39 1_555 1_555
C5 C6 1_555 1_555
C11 C12 1_555 1_555
C14 N1 1_555 1_555
C18 C19 1_555 1_555
C24 C25 1_555 1_555
C27 N1 1_555 1_555
C31 C32 1_555 1_555
C37 C38 1_555 1_555

#END
