
#######################################################################
#
#                 Cambridge Crystallographic Data Centre
#                                CCDC 
#
#######################################################################
#
# If this CIF has been generated from an entry in the Cambridge 
# Structural Database, then it will include bibliographic, chemical, 
# crystal, experimental, refinement or atomic coordinate data resulting 
# from the CCDC's data processing and validation procedures.
#
#######################################################################

data_MADMUB
_chemical_name_common            'Guignardone B'
_chemical_formula_moiety         'C17 H24 O5'
_chemical_name_systematic        
12-Hydroxy-7-(2-hydroxypropan-2-yl)-4-methyl-3,14-dioxatetracyclo[10.2.1.0^2,10^.0^4,8^]pentadec-2(10)-en-11-one
_chemical_properties_biological  antibacterial
_symmetry_cell_setting           monoclinic
_symmetry_space_group_name_H-M   'P 21'
_symmetry_Int_Tables_number      4
_space_group_name_Hall           'P 2yb'
loop_
_symmetry_equiv_pos_site_id
_symmetry_equiv_pos_as_xyz
1 x,y,z
2 -x,1/2+y,-z
_cell_length_a                   11.416(2)
_cell_length_b                   9.799(2)
_cell_length_c                   14.201(3)
_cell_angle_alpha                90
_cell_angle_beta                 91.26(3)
_cell_angle_gamma                90
_cell_volume                     1588.22
_cell_formula_units_Z            4
loop_
_atom_site_label
_atom_site_type_symbol
_atom_site_fract_x
_atom_site_fract_y
_atom_site_fract_z
O1 O 0.5562(4) 0.4441(6) 0.1256(3)
O2 O 0.6978(4) 0.9512(5) 0.2294(4)
H1 H 0.7672 0.9486 0.2157
O3 O 0.7766(4) 0.7316(5) 0.3250(3)
O4 O 0.4580(4) 0.7373(6) 0.1646(4)
O5 O 0.5646(6) 0.4437(8) 0.4721(5)
H2 H 0.6361 0.4366 0.4764
C1 C 0.3891(7) 0.3016(12) 0.4603(5)
H3 H 0.3550 0.2213 0.4323
H4 H 0.3423 0.3797 0.4436
H5 H 0.3919 0.2916 0.5275
C2 C 0.5968(8) 0.2317(11) 0.4711(7)
H6 H 0.6740 0.2475 0.4480
H7 H 0.5747 0.1386 0.4593
H8 H 0.5962 0.2491 0.5376
C3 C 0.5151(6) 0.3212(8) 0.4239(5)
C4 C 0.5113(6) 0.3427(9) 0.3211(5)
H9 H 0.4906 0.4392 0.3137
C5 C 0.4281(6) 0.2698(9) 0.2548(5)
H10 H 0.3952 0.1914 0.2865
H11 H 0.3642 0.3305 0.2372
C6 C 0.4884(6) 0.2230(7) 0.1677(4)
H12 H 0.4393 0.2384 0.1120
H13 H 0.5076 0.1268 0.1716
C7 C 0.5991(7) 0.3099(8) 0.1650(5)
C8 C 0.6318(6) 0.3286(9) 0.2697(5)
H14 H 0.6710 0.2455 0.2923
C9 C 0.6971(6) 0.2606(8) 0.1049(4)
H15 H 0.6696 0.2523 0.0408
H16 H 0.7238 0.1732 0.1273
H17 H 0.7607 0.3247 0.1082
C10 C 0.6008(5) 0.5593(7) 0.1575(4)
C11 C 0.6748(5) 0.5722(6) 0.2338(4)
C12 C 0.7150(5) 0.4509(6) 0.2866(4)
H18 H 0.7188 0.4720 0.3533
H19 H 0.7932 0.4265 0.2671
C13 C 0.5504(6) 0.6806(7) 0.1071(4)
H20 H 0.5206 0.6560 0.0441
C14 C 0.6389(6) 0.7909(7) 0.1027(4)
H21 H 0.6118 0.8671 0.0644
H22 H 0.7132 0.7582 0.0797
C15 C 0.6462(5) 0.8277(7) 0.2087(5)
C16 C 0.7103(5) 0.7076(6) 0.2603(4)
C17 C 0.5159(5) 0.8229(9) 0.2334(6)
H23 H 0.5066 0.7857 0.2960
H24 H 0.4827 0.9140 0.2317
O6 O 1.0286(4) 0.0476(6) 0.1795(3)
O7 O 1.0279(4) 0.1547(6) 0.5567(3)
H25 H 1.0968 0.1729 0.5686
O8 O 1.1965(4) 0.0027(6) 0.4859(3)
O9 O 0.8624(3) 0.0662(5) 0.3543(3)
C18 C 1.1841(9) -0.4355(11) 0.1220(6)
H26 H 1.1269 -0.4279 0.0717
H27 H 1.2141 -0.5270 0.1243
H28 H 1.2472 -0.3730 0.1113
C19 C 1.2175(8) -0.4125(10) 0.2936(6)
H29 H 1.1849 -0.3895 0.3533
H30 H 1.2808 -0.3514 0.2805
H31 H 1.2464 -0.5045 0.2957
O10 O 1.0284(7) -0.4870(8) 0.2407(6)
H32 H 1.0027 -0.4648 0.2920
C20 C 1.1253(8) -0.4004(9) 0.2182(6)
C21 C 1.0790(5) -0.2536(8) 0.2134(5)
H33 H 1.0411 -0.2343 0.2733
C22 C 0.9867(6) -0.2313(10) 0.1339(7)
H34 H 0.9717 -0.3158 0.1001
H35 H 0.9137 -0.1988 0.1594
C23 C 1.0393(7) -0.1238(11) 0.0683(5)
H36 H 1.0846 -0.1669 0.0196
H37 H 0.9782 -0.0687 0.0389
C24 C 1.1155(6) -0.0396(8) 0.1309(4)
C25 C 1.1722(5) -0.1431(7) 0.1989(4)
H38 H 1.2389 -0.1850 0.1676
C26 C 1.2008(8) 0.0591(10) 0.0837(6)
H39 H 1.1576 0.1203 0.0432
H40 H 1.2554 0.0080 0.0472
H41 H 1.2426 0.1105 0.1312
C27 C 1.2168(6) -0.0767(9) 0.2887(5)
H42 H 1.2361 -0.1465 0.3349
H43 H 1.2874 -0.0253 0.2762
C28 C 1.1256(5) 0.0167(7) 0.3269(4)
C29 C 1.0403(5) 0.0684(7) 0.2726(4)
C30 C 1.1201(5) 0.0384(7) 0.4293(4)
C31 C 1.0150(5) 0.1185(7) 0.4615(4)
C32 C 0.9925(6) 0.2353(8) 0.3953(5)
H44 H 1.0636 0.2849 0.3816
H45 H 0.9342 0.2978 0.4190
C33 C 0.9469(6) 0.1554(8) 0.3108(5)
H46 H 0.9108 0.2144 0.2626
C34 C 0.9040(6) 0.0335(10) 0.4454(4)
H47 H 0.9216 -0.0632 0.4501
H48 H 0.8459 0.0561 0.4918
loop_
_geom_bond_atom_site_label_1
_geom_bond_atom_site_label_2
_geom_bond_site_symmetry_1
_geom_bond_site_symmetry_2
O1 C7 1_555 1_555
O2 H1 1_555 1_555
O3 C16 1_555 1_555
O4 C13 1_555 1_555
O5 H2 1_555 1_555
C1 H3 1_555 1_555
H4 C1 1_555 1_555
H5 C1 1_555 1_555
C2 H6 1_555 1_555
H7 C2 1_555 1_555
H8 C2 1_555 1_555
C3 O5 1_555 1_555
C4 C3 1_555 1_555
H9 C4 1_555 1_555
C5 C4 1_555 1_555
H10 C5 1_555 1_555
H11 C5 1_555 1_555
C6 C5 1_555 1_555
H12 C6 1_555 1_555
H13 C6 1_555 1_555
C7 C6 1_555 1_555
C8 C4 1_555 1_555
H14 C8 1_555 1_555
C9 C7 1_555 1_555
H15 C9 1_555 1_555
H16 C9 1_555 1_555
H17 C9 1_555 1_555
C10 O1 1_555 1_555
C11 C10 1_555 1_555
C12 C8 1_555 1_555
H18 C12 1_555 1_555
H19 C12 1_555 1_555
C13 C10 1_555 1_555
H20 C13 1_555 1_555
C14 C13 1_555 1_555
H21 C14 1_555 1_555
H22 C14 1_555 1_555
C15 O2 1_555 1_555
C16 C11 1_555 1_555
C17 O4 1_555 1_555
H23 C17 1_555 1_555
H24 C17 1_555 1_555
O6 C24 1_555 1_555
O7 H25 1_555 1_555
O8 C30 1_555 1_555
O9 C33 1_555 1_555
C18 H26 1_555 1_555
H27 C18 1_555 1_555
H28 C18 1_555 1_555
C19 H29 1_555 1_555
H30 C19 1_555 1_555
H31 C19 1_555 1_555
O10 H32 1_555 1_555
C20 C18 1_555 1_555
C21 C20 1_555 1_555
H33 C21 1_555 1_555
C22 C21 1_555 1_555
H34 C22 1_555 1_555
H35 C22 1_555 1_555
C23 C22 1_555 1_555
H36 C23 1_555 1_555
H37 C23 1_555 1_555
C24 C23 1_555 1_555
C25 C21 1_555 1_555
H38 C25 1_555 1_555
C26 C24 1_555 1_555
H39 C26 1_555 1_555
H40 C26 1_555 1_555
H41 C26 1_555 1_555
C27 C25 1_555 1_555
H42 C27 1_555 1_555
H43 C27 1_555 1_555
C28 C27 1_555 1_555
C29 O6 1_555 1_555
C30 C28 1_555 1_555
C31 O7 1_555 1_555
C32 C31 1_555 1_555
H44 C32 1_555 1_555
H45 C32 1_555 1_555
C33 C29 1_555 1_555
H46 C33 1_555 1_555
C34 O9 1_555 1_555
H47 C34 1_555 1_555
H48 C34 1_555 1_555
C1 C3 1_555 1_555
C2 C3 1_555 1_555
C7 C8 1_555 1_555
C11 C12 1_555 1_555
C14 C15 1_555 1_555
C15 C16 1_555 1_555
C15 C17 1_555 1_555
C19 C20 1_555 1_555
O10 C20 1_555 1_555
C24 C25 1_555 1_555
C28 C29 1_555 1_555
C30 C31 1_555 1_555
C31 C34 1_555 1_555
C32 C33 1_555 1_555

#END
