
#######################################################################
#
#                 Cambridge Crystallographic Data Centre
#                                CCDC 
#
#######################################################################
#
# If this CIF has been generated from an entry in the Cambridge 
# Structural Database, then it will include bibliographic, chemical, 
# crystal, experimental, refinement or atomic coordinate data resulting 
# from the CCDC's data processing and validation procedures.
#
#######################################################################

data_MAFDEF
_chemical_name_common            
3,7-bis(3-hexylthiophen-2-yl)pyrano[4,3-c]pyran-1,5-dione
_chemical_formula_moiety         'C28 H32 O4 S2'
_chemical_name_systematic        
3,7-bis(3-hexyl-2-thienyl)pyrano[4,3-c]pyran-1,5-dione
_symmetry_cell_setting           triclinic
_symmetry_space_group_name_H-M   'P -1'
_symmetry_Int_Tables_number      2
_space_group_name_Hall           '-P 1'
loop_
_symmetry_equiv_pos_site_id
_symmetry_equiv_pos_as_xyz
1 x,y,z
2 -x,-y,-z
_cell_length_a                   6.0485(7)
_cell_length_b                   6.9813(4)
_cell_length_c                   15.2806(16)
_cell_angle_alpha                94.625(6)
_cell_angle_beta                 94.955(9)
_cell_angle_gamma                95.942(7)
_cell_volume                     636.762
_exptl_crystal_colour            orange
_exptl_crystal_description       needle
_cell_formula_units_Z            1
_exptl_crystal_recrystallization_method chloroform/methanol
_exptl_crystal_preparation       Luminescent
loop_
_atom_site_label
_atom_site_type_symbol
_atom_site_fract_x
_atom_site_fract_y
_atom_site_fract_z
C1 C 1.3754(7) 0.2363(6) 0.1896(3)
H1 H 1.4849 0.1511 0.2012
C2 C 1.3783(7) 0.4166(6) 0.2317(3)
H2 H 1.4920 0.4702 0.2763
C3 C 1.1977(6) 0.5167(5) 0.2032(3)
C4 C 1.0545(6) 0.4058(5) 0.1381(2)
C5 C 1.1798(7) 0.7212(5) 0.2397(3)
H3 H 1.1483 0.7988 0.1895
H4 H 1.3267 0.7754 0.2700
C6 C 1.0036(8) 0.7468(6) 0.3035(3)
H5 H 1.0381 0.6778 0.3562
H6 H 0.8555 0.6899 0.2749
C7 C 0.9965(8) 0.9613(6) 0.3313(3)
H7 H 1.1419 1.0126 0.3639
H8 H 0.9805 1.0301 0.2774
C8 C 0.8152(8) 1.0097(7) 0.3874(3)
H9 H 0.8286 0.9416 0.4417
H10 H 0.6683 0.9631 0.3549
C9 C 0.8253(9) 1.2269(7) 0.4129(4)
H11 H 0.9704 1.2718 0.4472
H12 H 0.8189 1.2947 0.3584
C10 C 0.6411(11) 1.2825(9) 0.4662(5)
H13 H 0.4965 1.2382 0.4330
H14 H 0.6553 1.4235 0.4784
H15 H 0.6512 1.2223 0.5219
C11 C 0.8540(6) 0.4513(5) 0.0892(2)
C12 C 0.7216(7) 0.3317(6) 0.0282(3)
H16 H 0.7546 0.2043 0.0120
C13 C 0.6189(7) 0.7154(6) 0.0786(3)
C14 C 0.4784(7) 0.5911(5) 0.0124(3)
O1 O 0.8043(5) 0.6381(4) 0.11151(19)
O2 O 0.5875(6) 0.8770(4) 0.1058(2)
S1 S 1.14899(18) 0.18374(13) 0.11335(7)
C1A C -0.3754(7) 0.7637(6) -0.1896(3)
H1A H -0.4849 0.8489 -0.2012
C2A C -0.3783(7) 0.5834(6) -0.2317(3)
H2A H -0.4920 0.5298 -0.2763
C3A C -0.1977(6) 0.4833(5) -0.2032(3)
C4A C -0.0545(6) 0.5942(5) -0.1381(2)
C5A C -0.1798(7) 0.2788(5) -0.2397(3)
H3A H -0.1483 0.2012 -0.1895
H4A H -0.3267 0.2246 -0.2700
C6A C -0.0036(8) 0.2532(6) -0.3035(3)
H5A H -0.0381 0.3222 -0.3562
H6A H 0.1445 0.3101 -0.2749
C7A C 0.0035(8) 0.0387(6) -0.3313(3)
H7A H -0.1419 -0.0126 -0.3639
H8A H 0.0195 -0.0301 -0.2774
C8A C 0.1848(8) -0.0097(7) -0.3874(3)
H9A H 0.1714 0.0584 -0.4417
H10A H 0.3317 0.0369 -0.3549
C9A C 0.1747(9) -0.2269(7) -0.4129(4)
H11A H 0.0296 -0.2718 -0.4472
H12A H 0.1811 -0.2947 -0.3584
C10A C 0.3589(11) -0.2825(9) -0.4662(5)
H13A H 0.5035 -0.2382 -0.4330
H14A H 0.3447 -0.4235 -0.4784
H15A H 0.3488 -0.2223 -0.5219
C11A C 0.1460(6) 0.5487(5) -0.0892(2)
C12A C 0.2784(7) 0.6683(6) -0.0282(3)
H16A H 0.2454 0.7957 -0.0120
C13A C 0.3811(7) 0.2846(6) -0.0786(3)
C14A C 0.5216(7) 0.4089(5) -0.0124(3)
O1A O 0.1957(5) 0.3619(4) -0.11151(19)
O2A O 0.4125(6) 0.1230(4) -0.1058(2)
S1A S -0.14899(18) 0.81626(13) -0.11335(7)
loop_
_geom_bond_atom_site_label_1
_geom_bond_atom_site_label_2
_geom_bond_site_symmetry_1
_geom_bond_site_symmetry_2
C1 H1 1_555 1_555
C2 C1 1_555 1_555
H2 C2 1_555 1_555
C3 C2 1_555 1_555
C4 C3 1_555 1_555
C5 C3 1_555 1_555
H3 C5 1_555 1_555
H4 C5 1_555 1_555
C6 C5 1_555 1_555
H5 C6 1_555 1_555
H6 C6 1_555 1_555
C7 C6 1_555 1_555
H7 C7 1_555 1_555
H8 C7 1_555 1_555
C8 C7 1_555 1_555
H9 C8 1_555 1_555
H10 C8 1_555 1_555
C9 C8 1_555 1_555
H11 C9 1_555 1_555
H12 C9 1_555 1_555
C10 C9 1_555 1_555
H13 C10 1_555 1_555
H14 C10 1_555 1_555
H15 C10 1_555 1_555
C11 C4 1_555 1_555
C12 C11 1_555 1_555
H16 C12 1_555 1_555
C13 C14 1_555 1_555
C14 C12A 1_555 1_555
O1 C11 1_555 1_555
O2 C13 1_555 1_555
S1 C1 1_555 1_555
C1A H1A 1_555 1_555
C2A C1A 1_555 1_555
H2A C2A 1_555 1_555
C3A C2A 1_555 1_555
C4A C3A 1_555 1_555
C5A C3A 1_555 1_555
H3A C5A 1_555 1_555
H4A C5A 1_555 1_555
C6A C5A 1_555 1_555
H5A C6A 1_555 1_555
H6A C6A 1_555 1_555
C7A C6A 1_555 1_555
H7A C7A 1_555 1_555
H8A C7A 1_555 1_555
C8A C7A 1_555 1_555
H9A C8A 1_555 1_555
H10A C8A 1_555 1_555
C9A C8A 1_555 1_555
H11A C9A 1_555 1_555
H12A C9A 1_555 1_555
C10A C9A 1_555 1_555
H13A C10A 1_555 1_555
H14A C10A 1_555 1_555
H15A C10A 1_555 1_555
C11A C4A 1_555 1_555
C12A C11A 1_555 1_555
H16A C12A 1_555 1_555
C13A C14A 1_555 1_555
C14A C12 1_555 1_555
O1A C11A 1_555 1_555
O2A C13A 1_555 1_555
S1A C1A 1_555 1_555
C4 S1 1_555 1_555
C13 O1 1_555 1_555
C14 C14A 1_555 1_555
C4A S1A 1_555 1_555
C13A O1A 1_555 1_555

#END
