
#######################################################################
#
#                 Cambridge Crystallographic Data Centre
#                                CCDC 
#
#######################################################################
#
# If this CIF has been generated from an entry in the Cambridge 
# Structural Database, then it will include bibliographic, chemical, 
# crystal, experimental, refinement or atomic coordinate data resulting 
# from the CCDC's data processing and validation procedures.
#
#######################################################################

data_MAFJOU
_chemical_name_common            
'6,26-bis(Diethoxycarbonylmethylidene)-11,16,21-tris(pentafluorophenyl)-27-(m-benzi)pentaphyrin dimethylsulfoxide solvate'
_chemical_formula_moiety         'C59 H35 F15 N4 O8,3(C2 H6 O1 S1)'
_chemical_name_systematic        
"Tetraethyl 2,2'-(7,12,17-tris(pentafluorophenyl)-28,29,30,31-tetraazahexacyclo[21.3.1.1^3,6^.1^8,11^.1^13,16^.1^18,21^]hentriaconta-1(27),3,5,7,9,11(30),12,14,16,18,20,23,25-tridecaene-2,22-diylidene)dimalonate dimethylsulfoxide solvate"
_symmetry_cell_setting           triclinic
_symmetry_space_group_name_H-M   'P -1'
_symmetry_Int_Tables_number      2
_space_group_name_Hall           '-P 1'
loop_
_symmetry_equiv_pos_site_id
_symmetry_equiv_pos_as_xyz
1 x,y,z
2 -x,-y,-z
_cell_length_a                   14.0190(14)
_cell_length_b                   14.8954(15)
_cell_length_c                   17.1725(17)
_cell_angle_alpha                71.256(2)
_cell_angle_beta                 74.778(2)
_cell_angle_gamma                85.907(2)
_cell_volume                     3276.28
_exptl_crystal_colour            'dark brown'
_exptl_crystal_description       plate
_cell_formula_units_Z            2
loop_
_atom_site_label
_atom_site_type_symbol
_atom_site_fract_x
_atom_site_fract_y
_atom_site_fract_z
C1 C 0.9390(4) -0.0331(4) -0.1749(3)
C2 C 0.8608(4) -0.0827(4) -0.1095(3)
H1 H 0.8053 -0.0485 -0.0889
C3 C 0.8618(4) -0.1817(4) -0.0731(3)
C4 C 0.9420(4) -0.2305(4) -0.1073(3)
H2 H 0.9440 -0.2976 -0.0845
C5 C 1.0191(4) -0.1818(4) -0.1746(3)
H3 H 1.0723 -0.2156 -0.1989
C6 C 1.0176(4) -0.0828(4) -0.2060(4)
H4 H 1.0719 -0.0495 -0.2497
C7 C 0.9376(4) 0.0743(4) -0.2044(3)
C8 C 0.9202(4) 0.1111(4) -0.1331(3)
C9 C 0.9157(4) 0.0617(4) -0.0489(3)
H5 H 0.9277 -0.0042 -0.0275
C10 C 0.8913(4) 0.1213(4) -0.0014(3)
H6 H 0.8832 0.1043 0.0583
C11 C 0.8802(4) 0.2126(4) -0.0558(3)
C12 C 0.8551(4) 0.3006(4) -0.0378(3)
C13 C 0.8053(4) 0.3074(4) 0.0399(4)
C14 C 0.7863(5) 0.3901(4) 0.0656(4)
H7 H 0.8066 0.4529 0.0307
C15 C 0.7352(5) 0.3650(4) 0.1469(4)
H8 H 0.7161 0.4067 0.1800
C16 C 0.7136(4) 0.2662(4) 0.1764(4)
C17 C 0.6523(4) 0.2119(4) 0.2532(3)
C18 C 0.6183(4) 0.1178(4) 0.2700(3)
C19 C 0.5350(4) 0.0753(4) 0.3376(4)
H9 H 0.4997 0.0998 0.3816
C20 C 0.5164(4) -0.0070(4) 0.3266(3)
H10 H 0.4634 -0.0503 0.3597
C21 C 0.5931(4) -0.0165(4) 0.2541(4)
C22 C 0.6023(4) -0.0925(4) 0.2245(3)
C23 C 0.6856(4) -0.1140(4) 0.1667(3)
C24 C 0.7879(4) -0.1003(4) 0.1532(3)
H11 H 0.8176 -0.0663 0.1792
C25 C 0.8374(4) -0.1453(4) 0.0951(3)
H12 H 0.9071 -0.1490 0.0757
C26 C 0.7677(4) -0.1840(4) 0.0703(3)
C27 C 0.7818(4) -0.2282(4) 0.0033(3)
C28 C 0.9474(4) 0.1204(4) -0.2889(4)
C29 C 0.9587(5) 0.0671(5) -0.3506(4)
C30 C 0.8839(7) -0.0258(7) -0.4059(5)
H13 H 0.9225 0.0131 -0.4625
H14 H 0.8169 -0.0352 -0.4110
C31 C 0.9360(8) -0.1291(7) -0.3806(7)
H15 H 1.0080 -0.1210 -0.4007
H16 H 0.9138 -0.1700 -0.4073
H17 H 0.9174 -0.1583 -0.3187
C32 C 0.9466(5) 0.2253(5) -0.3303(4)
C33 C 0.9382(7) 0.3419(6) -0.4624(5)
H18 H 0.9016 0.3474 -0.5057
H19 H 0.9042 0.3806 -0.4262
C34 C 1.0388(9) 0.3761(7) -0.5036(6)
H20 H 1.0687 0.3879 -0.4621
H21 H 1.0387 0.4352 -0.5501
H22 H 1.0771 0.3284 -0.5264
C35 C 0.8853(4) 0.3912(4) -0.1098(4)
C36 C 0.8370(5) 0.4227(4) -0.1732(4)
C37 C 0.8593(5) 0.5070(5) -0.2369(4)
C38 C 0.9338(6) 0.5616(5) -0.2391(4)
C39 C 0.9859(5) 0.5335(5) -0.1781(4)
C40 C 0.9589(5) 0.4486(5) -0.1151(4)
C41 C 0.6038(4) 0.2617(3) 0.3155(3)
C42 C 0.5220(4) 0.3184(3) 0.3050(3)
C43 C 0.4751(3) 0.3605(3) 0.3661(3)
C44 C 0.5100(4) 0.3460(4) 0.4379(3)
C45 C 0.5918(4) 0.2894(4) 0.4484(3)
C46 C 0.6387(3) 0.2473(3) 0.3872(3)
C47 C 0.5182(4) -0.1617(4) 0.2547(3)
C48 C 0.4241(5) -0.1388(5) 0.2411(4)
C49 C 0.3511(4) -0.2041(6) 0.2629(4)
C50 C 0.3690(5) -0.2977(5) 0.3012(4)
C51 C 0.4579(5) -0.3244(5) 0.3173(4)
C52 C 0.5305(5) -0.2581(5) 0.2950(4)
C53 C 0.7293(4) -0.3003(4) 0.0062(4)
C54 C 0.6552(5) -0.3574(4) 0.0839(4)
C55 C 0.4999(5) -0.4403(5) 0.1340(4)
H23 H 0.5240 -0.4892 0.1790
H24 H 0.4634 -0.3926 0.1589
C56 C 0.4346(6) -0.4839(6) 0.1033(5)
H25 H 0.4195 -0.4379 0.0528
H26 H 0.3732 -0.5045 0.1478
H27 H 0.4669 -0.5389 0.0885
C57 C 0.7378(4) -0.3269(5) -0.0719(4)
C58 C 0.7162(5) -0.2674(5) -0.2111(4)
H28 H 0.6802 -0.3247 -0.2056
H29 H 0.7868 -0.2729 -0.2389
C59 C 0.6724(7) -0.1785(5) -0.2623(4)
H30 H 0.6032 -0.1731 -0.2329
H31 H 0.6760 -0.1827 -0.3188
H32 H 0.7099 -0.1226 -0.2682
F1 F 0.7598(3) 0.3697(2) -0.1696(2)
F2 F 0.8073(3) 0.5355(3) -0.2963(2)
F3 F 0.9568(3) 0.6453(3) -0.3013(2)
F4 F 1.0579(3) 0.5878(3) -0.1795(3)
F5 F 1.0135(3) 0.4222(2) -0.0558(2)
F6 F 0.4862(3) 0.3303(3) 0.2402(3)
F7 F 0.3954(3) 0.4104(3) 0.3600(3)
F8 F 0.4634(4) 0.3859(4) 0.4990(3)
F9 F 0.6277(4) 0.2769(4) 0.5161(4)
F10 F 0.7169(4) 0.1960(3) 0.3981(3)
F11 F 0.4075(3) -0.0479(3) 0.1981(2)
F12 F 0.2655(3) -0.1787(3) 0.2412(3)
F13 F 0.2969(3) -0.3627(3) 0.3236(2)
F14 F 0.4739(3) -0.4154(3) 0.3562(2)
F15 F 0.6177(3) -0.2860(2) 0.3135(2)
N1 N 0.9003(3) 0.2040(3) -0.1344(3)
H33 H 0.9007 0.2517 -0.1809
N2 N 0.7618(3) 0.2324(3) 0.1112(3)
H34 H 0.7648 0.1723 0.1139
N3 N 0.6556(3) 0.0628(3) 0.2209(3)
N4 N 0.6771(3) -0.1651(3) 0.1146(3)
H35 H 0.6206 -0.1832 0.1106
O1 O 1.0351(3) 0.0596(3) -0.3988(3)
O2 O 0.8753(4) 0.0272(4) -0.3465(3)
O3 O 0.9503(3) 0.2870(3) -0.3007(3)
O4 O 0.9399(4) 0.2407(3) -0.4093(3)
O5 O 0.6570(3) -0.3685(3) 0.1564(3)
O6 O 0.5851(3) -0.3942(3) 0.0633(3)
O7 O 0.7698(3) -0.4003(3) -0.0835(2)
O8 O 0.7057(3) -0.2567(3) -0.1294(3)
O9 O 0.5000(3) 0.1919(3) -0.0773(2)
S1 S 0.51771(14) 0.13480(15) 0.00656(12)
C60 C 0.5470(6) 0.2183(6) 0.0507(5)
H36 H 0.6096 0.2506 0.0156
H37 H 0.5534 0.1855 0.1085
H38 H 0.4943 0.2650 0.0525
C61 C 0.6390(5) 0.0881(5) -0.0170(5)
H39 H 0.6406 0.0455 -0.0505
H40 H 0.6566 0.0529 0.0362
H41 H 0.6866 0.1404 -0.0495
O10 O 0.3757(5) 0.1754(4) 0.4693(5)
S2 S 0.2773(2) 0.14853(18) 0.50919(16)
C62 C 0.2340(7) 0.1827(8) 0.6005(6)
H42 H 0.2795 0.1605 0.6372
H43 H 0.1683 0.1547 0.6312
H44 H 0.2300 0.2519 0.5843
C63 C 0.2748(7) 0.0292(6) 0.5631(7)
H45 H 0.3369 0.0009 0.5405
H46 H 0.2193 -0.0011 0.5559
H47 H 0.2669 0.0196 0.6237
O11 O 0.9012(6) 0.4885(6) 0.3660(5)
S3 S 0.8216(3) 0.5603(3) 0.3586(2)
C64 C 0.8410(6) 0.6281(6) 0.2584(5)
H48 H 0.9055 0.6600 0.2402
H49 H 0.7890 0.6756 0.2530
H50 H 0.8398 0.5888 0.2225
C65 C 0.7491(8) 0.4982(5) 0.3414(6)
H51 H 0.7840 0.4428 0.3294
H52 H 0.7245 0.5357 0.2925
H53 H 0.6934 0.4770 0.3917
loop_
_geom_bond_atom_site_label_1
_geom_bond_atom_site_label_2
_geom_bond_site_symmetry_1
_geom_bond_site_symmetry_2
C1 C2 1_555 1_555
C2 H1 1_555 1_555
C3 C2 1_555 1_555
C4 C3 1_555 1_555
H2 C4 1_555 1_555
C5 C4 1_555 1_555
H3 C5 1_555 1_555
C6 C1 1_555 1_555
H4 C6 1_555 1_555
C7 C1 1_555 1_555
C8 C7 1_555 1_555
C9 C8 1_555 1_555
H5 C9 1_555 1_555
C10 C9 1_555 1_555
H6 C10 1_555 1_555
C11 C10 1_555 1_555
C12 C11 1_555 1_555
C13 C12 1_555 1_555
C14 C13 1_555 1_555
H7 C14 1_555 1_555
C15 C14 1_555 1_555
H8 C15 1_555 1_555
C16 C15 1_555 1_555
C17 C16 1_555 1_555
C18 C17 1_555 1_555
C19 C18 1_555 1_555
H9 C19 1_555 1_555
C20 C19 1_555 1_555
H10 C20 1_555 1_555
C21 C20 1_555 1_555
C22 C21 1_555 1_555
C23 C22 1_555 1_555
C24 C23 1_555 1_555
H11 C24 1_555 1_555
C25 C24 1_555 1_555
H12 C25 1_555 1_555
C26 C25 1_555 1_555
C27 C3 1_555 1_555
C28 C7 1_555 1_555
C29 C28 1_555 1_555
C30 H13 1_555 1_555
H14 C30 1_555 1_555
C31 C30 1_555 1_555
H15 C31 1_555 1_555
H16 C31 1_555 1_555
H17 C31 1_555 1_555
C32 C28 1_555 1_555
C33 H18 1_555 1_555
H19 C33 1_555 1_555
C34 C33 1_555 1_555
H20 C34 1_555 1_555
H21 C34 1_555 1_555
H22 C34 1_555 1_555
C35 C12 1_555 1_555
C36 C35 1_555 1_555
C37 C36 1_555 1_555
C38 C37 1_555 1_555
C39 C38 1_555 1_555
C40 C35 1_555 1_555
C41 C17 1_555 1_555
C42 C41 1_555 1_555
C43 C42 1_555 1_555
C44 C43 1_555 1_555
C45 C44 1_555 1_555
C46 C41 1_555 1_555
C47 C22 1_555 1_555
C48 C47 1_555 1_555
C49 C48 1_555 1_555
C50 C49 1_555 1_555
C51 C50 1_555 1_555
C52 C47 1_555 1_555
C53 C27 1_555 1_555
C54 C53 1_555 1_555
C55 H23 1_555 1_555
H24 C55 1_555 1_555
C56 C55 1_555 1_555
H25 C56 1_555 1_555
H26 C56 1_555 1_555
H27 C56 1_555 1_555
C57 C53 1_555 1_555
C58 H28 1_555 1_555
H29 C58 1_555 1_555
C59 C58 1_555 1_555
H30 C59 1_555 1_555
H31 C59 1_555 1_555
H32 C59 1_555 1_555
F1 C36 1_555 1_555
F2 C37 1_555 1_555
F3 C38 1_555 1_555
F4 C39 1_555 1_555
F5 C40 1_555 1_555
F6 C42 1_555 1_555
F7 C43 1_555 1_555
F8 C44 1_555 1_555
F9 C45 1_555 1_555
F10 C46 1_555 1_555
F11 C48 1_555 1_555
F12 C49 1_555 1_555
F13 C50 1_555 1_555
F14 C51 1_555 1_555
F15 C52 1_555 1_555
N1 C8 1_555 1_555
H33 N1 1_555 1_555
N2 C13 1_555 1_555
H34 N2 1_555 1_555
N3 C18 1_555 1_555
N4 C23 1_555 1_555
H35 N4 1_555 1_555
O1 C29 1_555 1_555
O2 C29 1_555 1_555
O3 C32 1_555 1_555
O4 C32 1_555 1_555
O5 C54 1_555 1_555
O6 C54 1_555 1_555
O7 C57 1_555 1_555
O8 C57 1_555 1_555
O9 S1 1_555 1_555
S1 C60 1_555 1_555
C60 H36 1_555 1_555
H37 C60 1_555 1_555
H38 C60 1_555 1_555
C61 S1 1_555 1_555
H39 C61 1_555 1_555
H40 C61 1_555 1_555
H41 C61 1_555 1_555
O10 S2 1_555 1_555
S2 C62 1_555 1_555
C62 H42 1_555 1_555
H43 C62 1_555 1_555
H44 C62 1_555 1_555
C63 S2 1_555 1_555
H45 C63 1_555 1_555
H46 C63 1_555 1_555
H47 C63 1_555 1_555
O11 S3 1_555 1_555
S3 C64 1_555 1_555
C64 H48 1_555 1_555
H49 C64 1_555 1_555
H50 C64 1_555 1_555
C65 S3 1_555 1_555
H51 C65 1_555 1_555
H52 C65 1_555 1_555
H53 C65 1_555 1_555
C5 C6 1_555 1_555
C11 N1 1_555 1_555
C16 N2 1_555 1_555
C21 N3 1_555 1_555
C26 C27 1_555 1_555
C26 N4 1_555 1_555
C30 O2 1_555 1_555
C33 O4 1_555 1_555
C39 C40 1_555 1_555
C45 C46 1_555 1_555
C51 C52 1_555 1_555
C55 O6 1_555 1_555
C58 O8 1_555 1_555

#END
