
#######################################################################
#
#                 Cambridge Crystallographic Data Centre
#                                CCDC 
#
#######################################################################
#
# If this CIF has been generated from an entry in the Cambridge 
# Structural Database, then it will include bibliographic, chemical, 
# crystal, experimental, refinement or atomic coordinate data resulting 
# from the CCDC's data processing and validation procedures.
#
#######################################################################

data_MAFWIC
_chemical_formula_moiety         'C23 H20 N2 O2'
_chemical_name_systematic        
2-(3-(4-methoxyphenyl)-4-phenyl-1,2-oxazol-5-yl)-N-methylaniline
_symmetry_cell_setting           triclinic
_symmetry_space_group_name_H-M   'P -1'
_symmetry_Int_Tables_number      2
_space_group_name_Hall           '-P 1'
loop_
_symmetry_equiv_pos_site_id
_symmetry_equiv_pos_as_xyz
1 x,y,z
2 -x,-y,-z
_cell_length_a                   6.184(2)
_cell_length_b                   9.236(4)
_cell_length_c                   16.222(7)
_cell_angle_alpha                89.408(15)
_cell_angle_beta                 86.301(13)
_cell_angle_gamma                82.719(12)
_cell_volume                     917.139
_exptl_crystal_colour            colorless
_exptl_crystal_description       rod
_cell_formula_units_Z            2
loop_
_atom_site_label
_atom_site_type_symbol
_atom_site_fract_x
_atom_site_fract_y
_atom_site_fract_z
O1 O 0.3389(4) 0.0426(2) 0.80770(14)
O2 O 1.1757(4) 0.2746(3) 0.47786(15)
N1 N 0.5217(4) 0.0373(3) 0.74983(17)
N2 N -0.0418(5) -0.0419(3) 0.87054(17)
H1 H 0.0682 -0.0637 0.8358
C1 C 0.2419(5) 0.1832(3) 0.81572(18)
C2 C 0.3554(4) 0.2712(3) 0.76618(18)
C3 C 0.5288(5) 0.1745(3) 0.72679(18)
C4 C 0.0462(5) 0.2097(3) 0.87278(18)
C5 C -0.0113(5) 0.3515(3) 0.90414(19)
H2 H 0.0773 0.4229 0.8893
C6 C -0.1954(6) 0.3887(4) 0.9564(2)
H3 H -0.2300 0.4835 0.9762
C7 C -0.3274(6) 0.2822(4) 0.9787(2)
H4 H -0.4523 0.3061 1.0134
C8 C -0.2756(6) 0.1409(4) 0.9501(2)
H5 H -0.3666 0.0713 0.9659
C9 C -0.0880(5) 0.0999(3) 0.89751(18)
C10 C -0.1706(6) -0.1566(4) 0.8981(2)
H6 H -0.1101 -0.2470 0.8722
H7 H -0.3185 -0.1315 0.8834
H8 H -0.1680 -0.1670 0.9570
C11 C 0.3117(5) 0.4310(3) 0.75183(17)
C12 C 0.1222(5) 0.4913(3) 0.71483(18)
H9 H 0.0194 0.4313 0.7018
C13 C 0.0862(5) 0.6394(4) 0.6974(2)
H10 H -0.0403 0.6783 0.6729
C14 C 0.2392(6) 0.7291(3) 0.7164(2)
H11 H 0.2156 0.8283 0.7043
C15 C 0.4274(6) 0.6718(3) 0.7536(2)
H12 H 0.5299 0.7323 0.7662
C16 C 0.4625(5) 0.5232(3) 0.77194(19)
H13 H 0.5873 0.4853 0.7978
C17 C 0.7028(5) 0.2044(3) 0.66374(18)
C18 C 0.6721(5) 0.3190(3) 0.60662(19)
H14 H 0.5422 0.3822 0.6097
C19 C 0.8323(5) 0.3390(4) 0.54581(19)
H15 H 0.8101 0.4156 0.5084
C20 C 1.0267(5) 0.2449(3) 0.54035(19)
C21 C 1.0625(5) 0.1308(3) 0.59699(19)
H16 H 1.1927 0.0680 0.5938
C22 C 0.9000(5) 0.1127(3) 0.65841(19)
H17 H 0.9238 0.0376 0.6967
C23 C 1.3576(6) 0.1670(4) 0.4587(2)
H18 H 1.4393 0.1966 0.4105
H19 H 1.3065 0.0754 0.4483
H20 H 1.4495 0.1565 0.5044
loop_
_geom_bond_atom_site_label_1
_geom_bond_atom_site_label_2
_geom_bond_site_symmetry_1
_geom_bond_site_symmetry_2
O1 N1 1_555 1_555
O2 C20 1_555 1_555
N1 C3 1_555 1_555
N2 H1 1_555 1_555
C1 O1 1_555 1_555
C2 C1 1_555 1_555
C3 C2 1_555 1_555
C4 C1 1_555 1_555
C5 C4 1_555 1_555
H2 C5 1_555 1_555
C6 C5 1_555 1_555
H3 C6 1_555 1_555
C7 C6 1_555 1_555
H4 C7 1_555 1_555
C8 C7 1_555 1_555
H5 C8 1_555 1_555
C9 N2 1_555 1_555
C10 N2 1_555 1_555
H6 C10 1_555 1_555
H7 C10 1_555 1_555
H8 C10 1_555 1_555
C11 C2 1_555 1_555
C12 C11 1_555 1_555
H9 C12 1_555 1_555
C13 C12 1_555 1_555
H10 C13 1_555 1_555
C14 C13 1_555 1_555
H11 C14 1_555 1_555
C15 C14 1_555 1_555
H12 C15 1_555 1_555
C16 C11 1_555 1_555
H13 C16 1_555 1_555
C17 C3 1_555 1_555
C18 C17 1_555 1_555
H14 C18 1_555 1_555
C19 C18 1_555 1_555
H15 C19 1_555 1_555
C20 C19 1_555 1_555
C21 C20 1_555 1_555
H16 C21 1_555 1_555
C22 C17 1_555 1_555
H17 C22 1_555 1_555
C23 O2 1_555 1_555
H18 C23 1_555 1_555
H19 C23 1_555 1_555
H20 C23 1_555 1_555
C4 C9 1_555 1_555
C8 C9 1_555 1_555
C15 C16 1_555 1_555
C21 C22 1_555 1_555

#END
