
#######################################################################
#
#                 Cambridge Crystallographic Data Centre
#                                CCDC 
#
#######################################################################
#
# If this CIF has been generated from an entry in the Cambridge 
# Structural Database, then it will include bibliographic, chemical, 
# crystal, experimental, refinement or atomic coordinate data resulting 
# from the CCDC's data processing and validation procedures.
#
#######################################################################

data_MAGJUC
_chemical_formula_moiety         'C72 H84 N12,1.25(F6 S1),1.5(H2 O1)'
_chemical_name_systematic        
'5,12,20,27,35,42,50,57,62,69,74,81-Dodeca-azatridecacyclo[29.29.10.10^16,46^.1^3,59^.1^14,18^.1^29,33^.1^44,48^.0^6,11^.0^21,26^.0^36,41^.0^51,56^.0^63,68^.0^75,80^]tetraoctaconta-1,3(71),4,12,14(84),15,17,19,27,29(83),30,32,34,42,44(72),45,47,49,57,59,61,69,73,81-tetracosaene sulfur hexafluoride sesquihydrate'
_symmetry_cell_setting           triclinic
_symmetry_space_group_name_H-M   'P 1'
_symmetry_Int_Tables_number      1
_space_group_name_Hall           'P 1'
loop_
_symmetry_equiv_pos_site_id
_symmetry_equiv_pos_as_xyz
1 x,y,z
_cell_length_a                   17.385(5)
_cell_length_b                   17.425(6)
_cell_length_c                   17.479(6)
_cell_angle_alpha                60.384(3)
_cell_angle_beta                 60.308(3)
_cell_angle_gamma                60.168(3)
_cell_volume                     3768.38
_exptl_crystal_colour            colorless
_exptl_crystal_description       prism
_cell_formula_units_Z            2
loop_
_atom_site_label
_atom_site_type_symbol
_atom_site_fract_x
_atom_site_fract_y
_atom_site_fract_z
S1 S 0.9241(3) 0.8736(3) 0.1224(3)
F1 F 0.9830(8) 0.9381(8) 0.0607(8)
F2 F 0.9825(8) 0.8160(8) 0.1838(8)
F3 F 0.9866(8) 0.8130(8) 0.0619(7)
F4 F 0.8615(8) 0.8150(8) 0.1827(7)
F5 F 0.8588(7) 0.9344(7) 0.0629(7)
F6 F 0.8595(9) 0.9357(8) 0.1837(7)
S2 S 0.6762(3) 0.6239(3) 0.8700(3)
F7 F 0.7349(9) 0.6866(9) 0.8124(10)
F8 F 0.6146(8) 0.6848(8) 0.8069(8)
F9 F 0.6125(8) 0.5607(8) 0.9321(9)
F10 F 0.7366(9) 0.5609(8) 0.8086(8)
F11 F 0.6120(9) 0.6831(9) 0.9358(9)
F12 F 0.7336(9) 0.5632(9) 0.9360(9)
N1 N 1.1257(5) 1.1152(5) -0.1754(5)
N2 N 1.1283(5) 1.1008(5) -0.0034(5)
N3 N 0.7810(5) 1.0725(5) -0.1778(5)
N4 N 1.1683(5) 0.7268(5) -0.1757(5)
C1 C 0.9641(6) 0.9389(6) -0.1706(6)
H1 H 0.9231 0.9176 -0.1702
C2 C 0.9939(6) 1.0595(5) -0.1709(6)
H2 H 0.9731 1.1211 -0.1704
C3 C 0.8377(6) 1.0925(5) -0.1702(5)
H3 H 0.8167 1.1511 -0.1630
N5 N 0.7457(6) 1.1188(5) 0.3502(6)
C4 C 1.1466(6) 1.0319(6) -0.1691(5)
H4 H 1.2059 0.9876 -0.1633
N6 N 0.6206(5) 1.0788(5) -0.0113(5)
N7 N 0.6266(6) 0.6998(5) 0.3483(5)
N8 N 1.1658(6) 0.5803(5) 0.3514(5)
N9 N 1.1507(5) 0.5709(5) -0.0051(5)
C5 C 0.9327(6) 1.0302(6) -0.1721(6)
C6 C 1.1139(6) 0.9110(6) -0.1706(6)
H5 H 1.1762 0.8713 -0.1713
N10 N 1.1180(5) 0.7536(5) 0.3762(5)
C7 C 1.1988(7) 0.6718(6) 0.3934(6)
H6 H 1.2549 0.6753 0.3354
C8 C 1.1896(6) 0.6343(5) -0.1751(5)
H7 H 1.1323 0.6273 -0.1676
N11 N 0.5975(6) 1.0721(5) 0.3687(6)
N12 N 0.8011(5) 0.5544(6) 0.3707(5)
C9 C 1.0844(6) 0.7832(6) -0.1688(5)
H8 H 1.0395 0.7629 -0.1627
C10 C 0.9017(7) 1.0146(6) 0.2985(6)
C11 C 0.9670(7) 0.9254(6) 0.3267(6)
H9 H 0.9488 0.8827 0.3875
C12 C 1.1951(6) 1.1362(6) -0.1715(6)
H10 H 1.2517 1.0792 -0.1639
C13 C 1.0626(7) 0.5811(6) 0.2980(6)
C14 C 1.0550(6) 0.8780(6) -0.1698(5)
C15 C 1.0822(6) 1.0014(5) -0.1705(6)
C16 C 0.6254(7) 0.9205(7) 0.3204(6)
H11 H 0.6262 0.9033 0.3808
C17 C 0.9267(7) 1.0741(7) 0.2102(7)
H12 H 0.8815 1.1330 0.1908
C18 C 1.1253(7) 0.5846(6) 0.2085(6)
H13 H 1.1844 0.5903 0.1891
C19 C 1.0185(6) 1.0500(6) 0.1467(7)
C20 C 0.5785(7) 1.1541(6) 0.3877(7)
H14 H 0.5806 1.2085 0.3284
C21 C 1.2683(7) 0.6199(6) -0.2660(7)
H15 H 1.2451 0.6637 -0.3195
H16 H 1.3219 0.6334 -0.2754
C22 C 0.6878(6) 1.1404(5) -0.1769(6)
H17 H 0.6792 1.1967 -0.1676
C23 C 1.0562(6) 0.9001(6) 0.2668(6)
C24 C 0.6547(6) 1.1344(6) 0.4221(6)
H18 H 0.6562 1.0770 0.4787
C25 C 1.0828(6) 0.9622(6) 0.1752(6)
H19 H 1.1445 0.9440 0.1332
C26 C 1.0451(6) 1.1154(6) 0.0533(6)
H20 H 0.9977 1.1719 0.0340
C27 C 0.9500(6) 0.5725(6) 0.2623(5)
C28 C 1.0122(6) 0.5756(6) 0.1730(6)
H21 H 0.9947 0.5752 0.1297
C29 C 1.2260(6) 0.5630(6) -0.0926(6)
H22 H 1.2795 0.5749 -0.0983
C30 C 1.0992(6) 0.5794(6) 0.1467(6)
C31 C 0.6783(7) 1.1687(7) -0.2710(7)
H23 H 0.6950 1.1117 -0.2832
H24 H 0.7228 1.2022 -0.3213
C32 C 1.1297(6) 0.8104(6) 0.2931(7)
H25 H 1.1882 0.7944 0.2461
C33 C 1.2123(7) 1.2108(7) -0.0898(8)
H26 H 1.1794 1.2376 -0.0389
H27 H 1.2695 1.1580 -0.0783
C34 C 1.1484(6) 1.1745(5) -0.0892(6)
H28 H 1.0882 1.2268 -0.0949
C35 C 0.9762(7) 0.5774(6) 0.3250(6)
H29 H 0.9331 0.5781 0.3857
C36 C 0.6290(6) 0.9968(6) 0.0478(6)
H30 H 0.6360 0.9493 0.0305
C37 C 0.6171(6) 1.0961(5) -0.1000(6)
H31 H 0.6313 1.0354 -0.1052
C38 C 0.6299(6) 0.8541(6) 0.2943(6)
C39 C 1.2577(7) 0.4644(6) -0.0907(6)
H32 H 1.2039 0.4523 -0.0830
H33 H 1.2797 0.4195 -0.0367
C40 C 0.7199(6) 0.5341(6) 0.3896(7)
H34 H 0.7242 0.5312 0.3318
C41 C 1.3006(7) 0.5188(7) -0.2614(7)
H35 H 1.2472 0.5064 -0.2542
H36 H 1.3507 0.5104 -0.3206
C42 C 1.2216(7) 1.2150(7) -0.2645(7)
H37 H 1.2544 1.1908 -0.3174
H38 H 1.1639 1.2680 -0.2743
C43 C 0.6243(6) 1.0353(6) 0.1694(6)
H39 H 0.6246 1.0962 0.1267
C44 C 0.8605(6) 0.5649(6) 0.2881(6)
H40 H 0.8451 0.5678 0.2414
C45 C 0.6310(7) 0.7620(7) 0.3607(6)
H41 H 0.6353 0.7473 0.4187
C46 C 0.6199(7) 1.0108(6) 0.2598(7)
C47 C 0.6283(6) 0.9719(6) 0.1413(6)
C48 C 1.1669(6) 0.5812(6) 0.0531(6)
H42 H 1.2240 0.5902 0.0349
C49 C 1.1805(6) 0.5800(5) 0.4268(5)
H43 H 1.1227 0.5783 0.4831
C50 C 1.2865(7) 1.2491(7) -0.2608(8)
H44 H 1.3455 1.1967 -0.2545
H45 H 1.3026 1.2997 -0.3197
C51 C 1.2168(8) 0.6717(6) 0.4710(7)
H46 H 1.2289 0.7298 0.4507
H47 H 1.1602 0.6704 0.5275
C52 C 0.8077(7) 1.0372(6) 0.3639(6)
H48 H 0.7910 0.9888 0.4202
C53 C 0.6331(7) 1.2172(7) 0.4473(7)
H49 H 0.6373 1.2728 0.3903
H50 H 0.6804 1.2019 0.4731
C54 C 1.0852(6) 0.5864(6) 0.3666(6)
H51 H 1.0371 0.5947 0.4233
C55 C 0.6316(7) 0.8802(6) 0.2033(6)
H52 H 0.6348 0.8362 0.1839
C56 C 1.2638(7) 0.4954(6) 0.4512(6)
H53 H 1.2505 0.4374 0.4735
H54 H 1.3201 0.4951 0.3944
C57 C 1.3004(8) 0.5873(6) 0.4943(8)
H55 H 1.3103 0.5884 0.5448
H56 H 1.3577 0.5902 0.4388
C58 C 0.6106(7) 1.0843(6) 0.2872(7)
H57 H 0.6148 1.1429 0.2407
C59 C 0.5431(7) 0.5872(7) 0.4444(7)
H58 H 0.4847 0.6351 0.4678
H59 H 0.5429 0.5888 0.3870
C60 C 0.4608(7) 1.2587(9) 0.4830(9)
H60 H 0.3980 1.2706 0.5311
H61 H 0.4594 1.3155 0.4269
C61 C 1.3373(7) 0.4491(7) -0.1808(7)
H62 H 1.3924 0.4591 -0.1883
H63 H 1.3569 0.3843 -0.1786
C62 C 0.5170(7) 1.1600(7) -0.1015(7)
H64 H 0.4720 1.1271 -0.0513
H65 H 0.5006 1.2173 -0.0898
C63 C 0.4813(8) 1.1784(9) 0.4591(8)
H66 H 0.4335 1.1937 0.4339
H67 H 0.4770 1.1231 0.5164
C64 C 1.2399(7) 1.2843(7) -0.1813(9)
H68 H 1.1832 1.3394 -0.1900
H69 H 1.2832 1.3047 -0.1802
C65 C 0.5452(8) 0.4906(8) 0.5178(8)
H70 H 0.4928 0.4753 0.5272
H71 H 0.5363 0.4916 0.5779
C66 C 0.6283(6) 0.6105(6) 0.4209(6)
H72 H 0.6252 0.6137 0.4779
C67 C 0.5775(8) 1.2323(7) -0.2720(8)
H73 H 0.5632 1.2926 -0.2672
H74 H 0.5726 1.2456 -0.3318
C68 C 0.5344(8) 1.2402(8) 0.5193(8)
H75 H 0.5319 1.1872 0.5786
H76 H 0.5206 1.2962 0.5317
C69 C 0.5089(6) 1.1870(6) -0.1940(8)
H77 H 0.5191 1.1303 -0.2028
H78 H 0.4446 1.2305 -0.1941
C70 C 0.6391(7) 0.4145(7) 0.4883(8)
H79 H 0.6412 0.3538 0.5396
H80 H 0.6442 0.4071 0.4331
C71 C 1.2837(8) 0.4964(7) 0.5253(7)
H81 H 1.3400 0.4422 0.5372
H82 H 1.2299 0.4907 0.5841
C72 C 0.7215(8) 0.4416(7) 0.4647(7)
H83 H 0.7187 0.4443 0.5214
H84 H 0.7813 0.3930 0.4444
N13 N 0.4213(6) 0.9341(6) 1.0099(6)
N14 N 0.4557(6) 0.7422(5) 0.6560(6)
N15 N 0.7996(5) 0.9347(5) 0.6651(6)
N16 N 0.8432(6) 0.3984(5) 0.6330(6)
N17 N 0.9967(6) 0.3899(6) 0.6638(6)
N18 N 0.4567(5) 0.9171(5) 0.6346(5)
N19 N 0.4813(6) 0.3667(6) 1.0054(7)
C73 C 0.6237(6) 0.9197(6) 0.8015(7)
H85 H 0.6658 0.9189 0.8217
C74 C 1.0062(8) 0.3681(6) 0.5880(7)
H86 H 0.9970 0.4273 0.5342
N20 N 0.9850(6) 0.4197(6) 1.0186(6)
C75 C 0.4383(7) 0.9116(7) 0.7147(7)
H87 H 0.3802 0.9037 0.7599
N21 N 0.9743(6) 0.7760(6) 0.6466(6)
C76 C 0.5023(7) 0.9165(6) 0.7441(7)
C77 C 0.7476(7) 0.9235(6) 0.6457(7)
H88 H 0.7689 0.9166 0.5871
C78 C 0.6521(7) 0.9202(6) 0.7118(7)
C79 C 0.5037(7) 0.9223(7) 0.9554(7)
H89 H 0.5497 0.9140 0.9758
C80 C 0.9726(7) 0.4033(7) 0.9648(7)
H90 H 0.9636 0.3459 0.9851
C81 C 0.5911(7) 0.9176(7) 0.6843(7)
H91 H 0.6112 0.9166 0.6233
C82 C 0.4744(7) 0.9183(7) 0.8324(7)
H92 H 0.4130 0.9179 0.8741
C83 C 0.5339(7) 0.9205(7) 0.8611(6)
C84 C 0.6272(8) 0.4178(6) 0.8302(8)
H93 H 0.6473 0.3572 0.8725
C85 C 0.5378(7) 0.6893(6) 0.6408(6)
H94 H 0.5833 0.7094 0.5830
C86 C 0.5349(8) 0.4774(7) 0.8595(8)
C87 C 0.9727(7) 0.4427(6) 0.8074(6)
H95 H 0.9721 0.3816 0.8261
C88 C 0.4664(8) 0.4491(6) 0.9500(8)
H96 H 0.4077 0.4952 0.9680
C89 C 0.9711(7) 0.4704(7) 0.8698(7)
C90 C 0.6610(7) 0.5350(6) 0.6794(7)
H97 H 0.7034 0.5543 0.6186
C91 C 0.9821(7) 0.4747(6) 0.6482(6)
H98 H 0.9757 0.5202 0.5901
C92 C 0.9704(7) 0.5615(7) 0.8420(7)
H99 H 0.9711 0.5799 0.8844
C93 C 0.3878(7) 0.9124(6) 0.6138(6)
H100 H 0.3320 0.9047 0.6714
C94 C 0.9650(7) 0.7201(7) 0.7288(8)
H101 H 0.9555 0.7400 0.7756
C95 C 0.5058(8) 0.5677(7) 0.7968(7)
H102 H 0.4435 0.6091 0.8150
C96 C 0.3655(9) 0.8279(7) 0.5510(9)
H103 H 0.3095 0.8170 0.6056
H104 H 0.3975 0.7749 0.5269
C97 C 0.8902(7) 0.9426(7) 0.5922(7)
H105 H 0.8969 0.9344 0.5363
C98 C 0.9389(8) 0.3274(7) 0.6158(8)
H106 H 0.9425 0.2720 0.6738
C99 C 0.4059(9) 0.3477(8) 1.0884(10)
H107 H 0.3491 0.4054 1.0865
C100 C 0.9751(6) 0.5036(7) 0.7172(7)
N22 N 0.4470(7) 0.7652(9) 1.1679(7)
C101 C 0.7870(8) 0.3794(6) 0.7122(8)
H108 H 0.8068 0.3202 0.7564
C102 C 0.6891(8) 0.4439(7) 0.7431(7)
C103 C 0.4310(7) 0.8313(6) 0.5807(7)
H109 H 0.4896 0.8372 0.5264
C104 C 1.1101(9) 0.3004(9) 0.5580(8)
H110 H 1.1547 0.3334 0.5326
H111 H 1.1229 0.2455 0.6130
C105 C 0.9685(7) 0.6249(7) 0.7540(7)
C106 C 0.9737(7) 0.5933(7) 0.6907(7)
H112 H 0.9763 0.6343 0.6289
C107 C 0.5688(8) 0.5961(7) 0.7080(7)
C108 C 0.9699(7) 0.8700(7) 0.6274(8)
H113 H 0.9605 0.8754 0.6860
C109 C 0.3972(7) 0.9387(8) 1.0996(8)
H114 H 0.4539 0.9374 1.1024
N23 N 0.8107(8) 0.3991(9) 1.1722(6)
C110 C 0.3726(9) 0.8499(11) 1.1765(8)
H115 H 0.3196 0.8495 1.1687
C111 C 0.9512(11) 0.2986(10) 0.5396(12)
H116 H 0.9376 0.3548 0.4857
H117 H 0.9073 0.2651 0.5638
C112 C 1.0683(10) 0.3223(10) 1.1321(11)
H118 H 1.0736 0.3806 1.1226
H119 H 1.1252 0.2919 1.0880
C113 C 0.3577(8) 1.0050(7) 0.5388(9)
H120 H 0.4138 1.0166 0.4847
H121 H 0.3249 1.0573 0.5640
C114 C 1.1238(10) 0.2679(10) 0.4843(10)
H122 H 1.1228 0.3216 0.4257
H123 H 1.1867 0.2196 0.4719
C115 C 0.3386(12) 0.8493(14) 1.2749(10)
H124 H 0.3182 0.7942 1.3195
H125 H 0.3911 0.8436 1.2876
C116 C 0.8918(10) 1.0394(9) 0.5655(11)
H126 H 0.8418 1.0875 0.5379
H127 H 0.8779 1.0499 0.6225
C117 C 0.2600(12) 0.9351(15) 1.2890(11)
H128 H 0.2059 0.9375 1.2816
H129 H 0.2409 0.9323 1.3537
N24 N 0.4433(9) 0.3983(9) 1.1683(8)
C118 C 0.6559(10) 0.5044(12) 1.1619(9)
C119 C 0.4303(11) 0.7043(11) 1.1615(9)
H130 H 0.3717 0.7189 1.1576
C120 C 1.0575(10) 0.2316(9) 0.5082(10)
H131 H 1.0663 0.1714 0.5599
H132 H 1.0684 0.2182 0.4542
C121 C 0.2905(11) 1.0002(8) 0.5071(10)
H133 H 0.2316 0.9954 0.5599
H134 H 0.2743 1.0585 0.4559
C122 C 0.3346(11) 0.9192(10) 0.4751(11)
H135 H 0.3898 0.9272 0.4182
H136 H 0.2892 0.9161 0.4591
C123 C 0.3183(9) 1.0259(11) 1.1168(12)
H137 H 0.2656 1.0358 1.1015
H138 H 0.3400 1.0806 1.0759
C124 C 0.9825(9) 0.3456(7) 1.1127(8)
H139 H 0.9814 0.2882 1.1137
C125 C 0.3837(9) 0.2676(9) 1.0953(13)
H140 H 0.3794 0.2831 1.0346
H141 H 0.4380 0.2094 1.1038
C126 C 0.5883(11) 0.5894(12) 1.1629(9)
H142 H 0.6029 0.6336 1.1656
C127 C 0.5444(10) 0.4549(10) 1.1608(10)
C128 C 0.2816(10) 1.0170(10) 1.2273(12)
H143 H 0.3310 1.0181 1.2392
H144 H 0.2250 1.0719 1.2389
C129 C 0.3484(15) 0.2952(13) 1.2615(14)
H145 H 0.2930 0.3526 1.2667
H146 H 0.3669 0.2670 1.3174
C130 C 0.8950(10) 0.3847(9) 1.1839(8)
H147 H 0.8933 0.4452 1.1788
C131 C 0.4823(11) 0.5423(11) 1.1603(9)
H148 H 0.4221 0.5569 1.1598
C132 C 0.6317(12) 0.4347(10) 1.1625(9)
H149 H 0.6769 0.3740 1.1642
C133 C 0.2988(13) 0.2472(13) 1.1685(16)
H150 H 0.2923 0.1937 1.1687
H151 H 0.2413 0.3025 1.1633
C134 C 1.0621(11) 0.2542(11) 1.2358(11)
H152 H 1.0620 0.1939 1.2438
H153 H 1.1179 0.2413 1.2481
C135 C 0.5001(9) 0.6161(11) 1.1604(8)
C136 C 0.4311(10) 0.3207(9) 1.1719(10)
H154 H 0.4902 0.2654 1.1725
C137 C 1.0626(8) 0.8835(9) 0.5549(12)
H155 H 1.0728 0.8767 0.4973
H156 H 1.1148 0.8347 0.5788
C138 C 0.3221(14) 0.2220(13) 1.2556(13)
H157 H 0.3754 0.1622 1.2605
H158 H 0.2673 0.2099 1.3114
C139 C 0.5205(11) 0.3867(9) 1.1632(8)
H159 H 0.5681 0.3279 1.1608
C140 C 0.8895(12) 0.3148(13) 1.2838(10)
H160 H 0.8881 0.2558 1.2900
H161 H 0.8318 0.3418 1.3298
C141 C 0.9785(12) 0.2952(12) 1.3013(11)
H162 H 0.9794 0.3546 1.2946
H163 H 0.9761 0.2522 1.3656
C142 C 0.7494(11) 0.4777(14) 1.1690(8)
H164 H 0.7623 0.5234 1.1711
C143 C 0.9845(11) 1.0509(10) 0.4974(12)
H165 H 0.9957 1.0461 0.4384
H166 H 0.9825 1.1141 0.4837
C144 C 1.0619(11) 0.9808(11) 0.5325(13)
H167 H 1.0537 0.9875 0.5894
H168 H 1.1222 0.9892 0.4850
S3 S 0.7875(12) 1.2475(12) 0.0045(12)
F13 F 0.746(2) 1.204(2) -0.017(2)
F14 F 0.830(2) 1.291(2) 0.025(2)
F15 F 0.8734(18) 1.1569(17) 0.010(2)
F16 F 0.838(2) 1.286(2) -0.1007(15)
F17 F 0.738(2) 1.207(2) 0.1087(15)
F18 F 0.7020(18) 1.3372(17) -0.002(2)
O1 O 0.6596(13) 1.2194(10) -0.0029(12)
S4 S 0.7996(15) 0.7370(13) 0.0089(13)
F19 F 0.9069(17) 0.691(2) -0.010(2)
F20 F 0.800(2) 0.8189(18) 0.018(2)
F21 F 0.817(2) 0.786(2) -0.0959(16)
F22 F 0.785(2) 0.683(2) 0.1134(16)
F23 F 0.800(2) 0.6524(18) 0.000(2)
F24 F 0.6937(16) 0.779(2) 0.029(2)
O2 O 0.7989(16) 0.8865(14) -0.1523(16)
S5 S 0.7952(15) 0.7519(15) 0.5014(15)
F25 F 0.8995(17) 0.718(2) 0.459(2)
F26 F 0.796(3) 0.672(2) 0.592(2)
F27 F 0.803(3) 0.810(2) 0.541(2)
F28 F 0.787(3) 0.840(2) 0.413(2)
F29 F 0.781(3) 0.701(2) 0.463(2)
F30 F 0.6858(17) 0.794(2) 0.545(2)
S6 S 1.2956(19) 0.7449(17) 0.0089(17)
F31 F 1.204(2) 0.743(3) 0.016(3)
F32 F 1.343(3) 0.641(2) 0.023(3)
F33 F 1.257(3) 0.726(3) 0.1158(19)
F34 F 1.246(3) 0.854(2) -0.005(3)
F35 F 1.331(3) 0.770(3) -0.0978(19)
F36 F 1.384(2) 0.752(3) 0.002(3)
O3 O 1.3162(11) 0.7446(10) -0.1638(13)
O4? O 0.9491(12) 1.2560(13) -0.1571(15)
O5? O 0.9709(13) 0.5978(15) 0.0049(12)
O6? O 1.2692(10) 0.9158(10) 0.0009(11)
loop_
_geom_bond_atom_site_label_1
_geom_bond_atom_site_label_2
_geom_bond_site_symmetry_1
_geom_bond_site_symmetry_2
S1 F1 1_555 1_555
F2 S1 1_555 1_555
F3 S1 1_555 1_555
F4 S1 1_555 1_555
F5 S1 1_555 1_555
F6 S1 1_555 1_555
S2 F7 1_555 1_555
F8 S2 1_555 1_555
F9 S2 1_555 1_555
F10 S2 1_555 1_555
F11 S2 1_555 1_555
F12 S2 1_555 1_555
N1 C4 1_555 1_555
N2 C26 1_555 1_555
N3 C3 1_555 1_555
N4 C8 1_555 1_555
C1 H1 1_555 1_555
C2 H2 1_555 1_555
C3 H3 1_555 1_555
N5 C24 1_555 1_555
C4 H4 1_555 1_555
N6 C36 1_555 1_555
N7 C45 1_555 1_555
N8 C49 1_555 1_555
N9 C29 1_555 1_555
C5 C1 1_555 1_555
C6 H5 1_555 1_555
N10 C7 1_555 1_555
C7 H6 1_555 1_555
C8 H7 1_555 1_555
N11 C20 1_555 1_555
N12 C40 1_555 1_555
C9 N4 1_555 1_555
H8 C9 1_555 1_555
C10 C11 1_555 1_555
C11 H9 1_555 1_555
C12 N1 1_555 1_555
H10 C12 1_555 1_555
C13 C18 1_555 1_555
C14 C1 1_555 1_555
C15 C2 1_555 1_555
C16 H11 1_555 1_555
C17 C10 1_555 1_555
H12 C17 1_555 1_555
C18 H13 1_555 1_555
C19 C17 1_555 1_555
C20 H14 1_555 1_555
C21 C8 1_555 1_555
H15 C21 1_555 1_555
H16 C21 1_555 1_555
C22 N3 1_555 1_555
H17 C22 1_555 1_555
C23 C11 1_555 1_555
C24 C20 1_555 1_555
H18 C24 1_555 1_555
C25 C19 1_555 1_555
H19 C25 1_555 1_555
C26 C19 1_555 1_555
H20 C26 1_555 1_555
C27 C28 1_555 1_555
C28 H21 1_555 1_555
C29 C8 1_555 1_555
H22 C29 1_555 1_555
C30 C18 1_555 1_555
C31 C22 1_555 1_555
H23 C31 1_555 1_555
H24 C31 1_555 1_555
C32 N10 1_555 1_555
H25 C32 1_555 1_555
C33 H26 1_555 1_555
H27 C33 1_555 1_555
C34 N2 1_555 1_555
H28 C34 1_555 1_555
C35 C13 1_555 1_555
H29 C35 1_555 1_555
C36 H30 1_555 1_555
C37 N6 1_555 1_555
H31 C37 1_555 1_555
C38 C16 1_555 1_555
C39 C29 1_555 1_555
H32 C39 1_555 1_555
H33 C39 1_555 1_555
C40 H34 1_555 1_555
C41 C21 1_555 1_555
H35 C41 1_555 1_555
H36 C41 1_555 1_555
C42 C12 1_555 1_555
H37 C42 1_555 1_555
H38 C42 1_555 1_555
C43 H39 1_555 1_555
C44 N12 1_555 1_555
H40 C44 1_555 1_555
C45 C38 1_555 1_555
H41 C45 1_555 1_555
C46 C16 1_555 1_555
C47 C36 1_555 1_555
C48 N9 1_555 1_555
H42 C48 1_555 1_555
C49 C7 1_555 1_555
H43 C49 1_555 1_555
C50 C42 1_555 1_555
H44 C50 1_555 1_555
H45 C50 1_555 1_555
C51 C7 1_555 1_555
H46 C51 1_555 1_555
H47 C51 1_555 1_555
C52 N5 1_555 1_555
H48 C52 1_555 1_555
C53 C24 1_555 1_555
H49 C53 1_555 1_555
H50 C53 1_555 1_555
C54 N8 1_555 1_555
H51 C54 1_555 1_555
C55 C38 1_555 1_555
H52 C55 1_555 1_555
C56 C49 1_555 1_555
H53 C56 1_555 1_555
H54 C56 1_555 1_555
C57 C51 1_555 1_555
H55 C57 1_555 1_555
H56 C57 1_555 1_555
C58 N11 1_555 1_555
H57 C58 1_555 1_555
C59 H58 1_555 1_555
H59 C59 1_555 1_555
C60 H60 1_555 1_555
H61 C60 1_555 1_555
C61 C39 1_555 1_555
H62 C61 1_555 1_555
H63 C61 1_555 1_555
C62 C37 1_555 1_555
H64 C62 1_555 1_555
H65 C62 1_555 1_555
C63 C20 1_555 1_555
H66 C63 1_555 1_555
H67 C63 1_555 1_555
C64 C33 1_555 1_555
H68 C64 1_555 1_555
H69 C64 1_555 1_555
C65 C59 1_555 1_555
H70 C65 1_555 1_555
H71 C65 1_555 1_555
C66 N7 1_555 1_555
H72 C66 1_555 1_555
C67 C31 1_555 1_555
H73 C67 1_555 1_555
H74 C67 1_555 1_555
C68 C53 1_555 1_555
H75 C68 1_555 1_555
H76 C68 1_555 1_555
C69 C62 1_555 1_555
H77 C69 1_555 1_555
H78 C69 1_555 1_555
C70 C65 1_555 1_555
H79 C70 1_555 1_555
H80 C70 1_555 1_555
C71 C56 1_555 1_555
H81 C71 1_555 1_555
H82 C71 1_555 1_555
C72 C40 1_555 1_555
H83 C72 1_555 1_555
H84 C72 1_555 1_555
N13 C79 1_555 1_555
N14 C85 1_555 1_555
N15 C77 1_555 1_555
N16 C98 1_555 1_555
N17 C74 1_555 1_555
N18 C75 1_555 1_555
N19 C88 1_555 1_555
C73 H85 1_555 1_555
C74 H86 1_555 1_555
N20 C80 1_555 1_555
C75 H87 1_555 1_555
N21 C94 1_555 1_555
C76 C75 1_555 1_555
C77 H88 1_555 1_555
C78 C73 1_555 1_555
C79 H89 1_555 1_555
C80 H90 1_555 1_555
C81 C76 1_555 1_555
H91 C81 1_555 1_555
C82 C76 1_555 1_555
H92 C82 1_555 1_555
C83 C73 1_555 1_555
C84 H93 1_555 1_555
C85 H94 1_555 1_555
C86 C84 1_555 1_555
C87 H95 1_555 1_555
C88 C86 1_555 1_555
H96 C88 1_555 1_555
C89 C80 1_555 1_555
C90 H97 1_555 1_555
C91 N17 1_555 1_555
H98 C91 1_555 1_555
C92 C89 1_555 1_555
H99 C92 1_555 1_555
C93 N18 1_555 1_555
H100 C93 1_555 1_555
C94 H101 1_555 1_555
C95 C86 1_555 1_555
H102 C95 1_555 1_555
C96 H103 1_555 1_555
H104 C96 1_555 1_555
C97 N15 1_555 1_555
H105 C97 1_555 1_555
C98 C74 1_555 1_555
H106 C98 1_555 1_555
C99 N19 1_555 1_555
H107 C99 1_555 1_555
C100 C87 1_555 1_555
N22 C110 1_555 1_555
C101 N16 1_555 1_555
H108 C101 1_555 1_555
C102 C84 1_555 1_555
C103 N14 1_555 1_555
H109 C103 1_555 1_555
C104 C74 1_555 1_555
H110 C104 1_555 1_555
H111 C104 1_555 1_555
C105 C92 1_555 1_555
C106 C100 1_555 1_555
H112 C106 1_555 1_555
C107 C85 1_555 1_555
C108 N21 1_555 1_555
H113 C108 1_555 1_555
C109 N13 1_555 1_555
H114 C109 1_555 1_555
N23 C130 1_555 1_555
C110 C109 1_555 1_555
H115 C110 1_555 1_555
C111 C98 1_555 1_555
H116 C111 1_555 1_555
H117 C111 1_555 1_555
C112 H118 1_555 1_555
H119 C112 1_555 1_555
C113 C93 1_555 1_555
H120 C113 1_555 1_555
H121 C113 1_555 1_555
C114 C104 1_555 1_555
H122 C114 1_555 1_555
H123 C114 1_555 1_555
C115 C110 1_555 1_555
H124 C115 1_555 1_555
H125 C115 1_555 1_555
C116 C97 1_555 1_555
H126 C116 1_555 1_555
H127 C116 1_555 1_555
C117 C115 1_555 1_555
H128 C117 1_555 1_555
H129 C117 1_555 1_555
N24 C136 1_555 1_555
C118 C126 1_555 1_555
C119 N22 1_555 1_555
H130 C119 1_555 1_555
C120 C111 1_555 1_555
H131 C120 1_555 1_555
H132 C120 1_555 1_555
C121 C113 1_555 1_555
H133 C121 1_555 1_555
H134 C121 1_555 1_555
C122 C96 1_555 1_555
H135 C122 1_555 1_555
H136 C122 1_555 1_555
C123 C109 1_555 1_555
H137 C123 1_555 1_555
H138 C123 1_555 1_555
C124 N20 1_555 1_555
H139 C124 1_555 1_555
C125 C99 1_555 1_555
H140 C125 1_555 1_555
H141 C125 1_555 1_555
C126 H142 1_555 1_555
C127 C131 1_555 1_555
C128 C117 1_555 1_555
H143 C128 1_555 1_555
H144 C128 1_555 1_555
C129 H145 1_555 1_555
H146 C129 1_555 1_555
C130 C124 1_555 1_555
H147 C130 1_555 1_555
C131 H148 1_555 1_555
C132 C118 1_555 1_555
H149 C132 1_555 1_555
C133 C125 1_555 1_555
H150 C133 1_555 1_555
H151 C133 1_555 1_555
C134 C112 1_555 1_555
H152 C134 1_555 1_555
H153 C134 1_555 1_555
C135 C119 1_555 1_555
C136 C99 1_555 1_555
H154 C136 1_555 1_555
C137 C108 1_555 1_555
H155 C137 1_555 1_555
H156 C137 1_555 1_555
C138 C129 1_555 1_555
H157 C138 1_555 1_555
H158 C138 1_555 1_555
C139 N24 1_555 1_555
H159 C139 1_555 1_555
C140 C130 1_555 1_555
H160 C140 1_555 1_555
H161 C140 1_555 1_555
C141 C134 1_555 1_555
H162 C141 1_555 1_555
H163 C141 1_555 1_555
C142 N23 1_555 1_555
H164 C142 1_555 1_555
C143 C116 1_555 1_555
H165 C143 1_555 1_555
H166 C143 1_555 1_555
C144 C137 1_555 1_555
H167 C144 1_555 1_555
H168 C144 1_555 1_555
S3 F13 1_555 1_555
F14 S3 1_555 1_555
F15 S3 1_555 1_555
F16 S3 1_555 1_555
F17 S3 1_555 1_555
F18 S3 1_555 1_555
S4 F19 1_555 1_555
F20 S4 1_555 1_555
F21 S4 1_555 1_555
F22 S4 1_555 1_555
F23 S4 1_555 1_555
F24 S4 1_555 1_555
S5 F25 1_555 1_555
F26 S5 1_555 1_555
F27 S5 1_555 1_555
F28 S5 1_555 1_555
F29 S5 1_555 1_555
F30 S5 1_555 1_555
S6 F31 1_555 1_555
F32 S6 1_555 1_555
F33 S6 1_555 1_555
F34 S6 1_555 1_555
F35 S6 1_555 1_555
F36 S6 1_555 1_555
C2 C5 1_555 1_555
C3 C5 1_555 1_555
C4 C15 1_555 1_555
C6 C14 1_555 1_555
C6 C15 1_555 1_555
C9 C14 1_555 1_555
C10 C52 1_555 1_555
C12 C34 1_555 1_555
C13 C54 1_555 1_555
C22 C37 1_555 1_555
C23 C25 1_555 1_555
C23 C32 1_555 1_555
C27 C35 1_555 1_555
C27 C44 1_555 1_555
C28 C30 1_555 1_555
C30 C48 1_555 1_555
C33 C34 1_555 1_555
C40 C66 1_555 1_555
C41 C61 1_555 1_555
C43 C46 1_555 1_555
C43 C47 1_555 1_555
C46 C58 1_555 1_555
C47 C55 1_555 1_555
C50 C64 1_555 1_555
C57 C71 1_555 1_555
C59 C66 1_555 1_555
C60 C63 1_555 1_555
C60 C68 1_555 1_555
C67 C69 1_555 1_555
C70 C72 1_555 1_555
C77 C78 1_555 1_555
C78 C81 1_555 1_555
C79 C83 1_555 1_555
C82 C83 1_555 1_555
C87 C89 1_555 1_555
C90 C102 1_555 1_555
C90 C107 1_555 1_555
C91 C100 1_555 1_555
C93 C103 1_555 1_555
C94 C105 1_555 1_555
C95 C107 1_555 1_555
C96 C103 1_555 1_555
C97 C108 1_555 1_555
C101 C102 1_555 1_555
C105 C106 1_555 1_555
C112 C124 1_555 1_555
C114 C120 1_555 1_555
C118 C142 1_555 1_555
C121 C122 1_555 1_555
C123 C128 1_555 1_555
C126 C135 1_555 1_555
C127 C132 1_555 1_555
C127 C139 1_555 1_555
C129 C136 1_555 1_555
C131 C135 1_555 1_555
C133 C138 1_555 1_555
C140 C141 1_555 1_555
C143 C144 1_555 1_555

#END
