
#######################################################################
#
#                 Cambridge Crystallographic Data Centre
#                                CCDC 
#
#######################################################################
#
# If this CIF has been generated from an entry in the Cambridge 
# Structural Database, then it will include bibliographic, chemical, 
# crystal, experimental, refinement or atomic coordinate data resulting 
# from the CCDC's data processing and validation procedures.
#
#######################################################################

data_MAGKUD
_chemical_formula_moiety         'C20 H30 N6 O2'
_chemical_name_systematic        
't-Butyl 2-(1-(1-(2-phenylethyl)-1H-tetrazol-5-yl)cyclohexyl)hydrazinecarboxylate'
_symmetry_cell_setting           monoclinic
_symmetry_space_group_name_H-M   'P 21/a'
_symmetry_Int_Tables_number      14
_space_group_name_Hall           '-P 2yab'
loop_
_symmetry_equiv_pos_site_id
_symmetry_equiv_pos_as_xyz
1 x,y,z
2 1/2-x,1/2+y,-z
3 -x,-y,-z
4 1/2+x,1/2-y,z
_cell_length_a                   11.4080(2)
_cell_length_b                   11.6465(2)
_cell_length_c                   16.0398(3)
_cell_angle_alpha                90
_cell_angle_beta                 109.743(2)
_cell_angle_gamma                90
_cell_volume                     2005.83
_exptl_crystal_colour            white
_exptl_crystal_description       block
_cell_formula_units_Z            4
loop_
_atom_site_label
_atom_site_type_symbol
_atom_site_fract_x
_atom_site_fract_y
_atom_site_fract_z
O1 O 0.05621(9) 0.18874(8) 0.44231(6)
O2 O 0.15839(8) 0.04780(8) 0.39430(6)
N1 N -0.01935(10) 0.11362(9) 0.30269(7)
N2 N -0.22054(10) 0.13910(9) 0.08937(7)
N3 N -0.07036(10) 0.25475(9) 0.09256(7)
N4 N -0.10251(11) 0.18891(10) 0.01771(8)
N5 N -0.19248(11) 0.11988(10) 0.01516(8)
N6 N -0.13505(10) 0.17176(9) 0.28306(7)
C1 C -0.14482(11) 0.22327(10) 0.13625(8)
C2 C -0.19833(12) -0.10996(11) 0.14850(9)
C3 C -0.05916(12) 0.47433(11) 0.21076(9)
H1 H 0.0061 0.5277 0.2422
H2 H -0.0537 0.462 0.1524
C4 C -0.26963(11) 0.32964(11) 0.21398(8)
H3 H -0.3367 0.2765 0.1855
H4 H -0.2727 0.347 0.2724
C5 C 0.25414(12) 0.02465(11) 0.48123(8)
C6 C 0.06526(12) 0.12238(11) 0.38646(9)
C7 C -0.14433(11) 0.27213(10) 0.22376(8)
C8 C 0.33562(12) -0.06376(12) 0.45778(9)
H5 H 0.285 -0.1268 0.4271
H6 H 0.3973 -0.0914 0.511
H7 H 0.376 -0.0291 0.4204
C9 C -0.09867(13) -0.13690(12) 0.12052(10)
H8 H -0.1046 -0.1225 0.0622
C10 C 0.00971(13) -0.18522(12) 0.17874(10)
H9 H 0.0758 -0.2025 0.1593
C11 C -0.31468(12) -0.05396(12) 0.08627(10)
H10 H -0.3871 -0.0922 0.0921
H11 H -0.3167 -0.0644 0.0258
C12 C -0.18577(13) 0.52683(11) 0.20120(9)
H12 H -0.1873 0.5495 0.259
H13 H -0.199 0.5949 0.1644
C13 C 0.01926(14) -0.20759(12) 0.26554(10)
H14 H 0.0918 -0.2395 0.3045
C14 C -0.32253(12) 0.07436(11) 0.10398(9)
H15 H -0.4016 0.1041 0.0652
H16 H -0.3194 0.0853 0.1647
C15 C -0.03838(12) 0.35970(11) 0.26101(9)
H17 H -0.0285 0.3748 0.3225
H18 H 0.0386 0.3259 0.2596
C16 C -0.18773(14) -0.13372(12) 0.23613(10)
H19 H -0.2537 -0.1169 0.2558
C17 C 0.19219(14) -0.02579(15) 0.54312(10)
H20 H 0.1411 0.0316 0.5569
H21 H 0.2549 -0.051 0.5967
H22 H 0.1414 -0.0899 0.5149
C18 C -0.28971(12) 0.44039(11) 0.15959(9)
H23 H -0.2923 0.4227 0.0999
H24 H -0.3691 0.474 0.1559
C19 C -0.07963(15) -0.18230(12) 0.29424(10)
H25 H -0.0737 -0.1978 0.3524
C20 C 0.32810(14) 0.13240(13) 0.51824(11)
H26 H 0.36 0.1642 0.475
H27 H 0.3961 0.1136 0.571
H28 H 0.275 0.1876 0.5322
H29 H -0.1400(15) 0.1981(15) 0.3357(12)
H30 H -0.0219(17) 0.0447(17) 0.2768(12)
loop_
_geom_bond_atom_site_label_1
_geom_bond_atom_site_label_2
_geom_bond_site_symmetry_1
_geom_bond_site_symmetry_2
O1 C6 1_555 1_555
O2 C5 1_555 1_555
N1 N6 1_555 1_555
N2 N5 1_555 1_555
N3 N4 1_555 1_555
N4 N5 1_555 1_555
N6 C7 1_555 1_555
C1 N2 1_555 1_555
C2 C9 1_555 1_555
C3 H1 1_555 1_555
H2 C3 1_555 1_555
C4 H3 1_555 1_555
H4 C4 1_555 1_555
C5 C8 1_555 1_555
C6 O2 1_555 1_555
C7 C1 1_555 1_555
C8 H5 1_555 1_555
H6 C8 1_555 1_555
H7 C8 1_555 1_555
C9 H8 1_555 1_555
C10 C9 1_555 1_555
H9 C10 1_555 1_555
C11 C2 1_555 1_555
H10 C11 1_555 1_555
H11 C11 1_555 1_555
C12 C3 1_555 1_555
H12 C12 1_555 1_555
H13 C12 1_555 1_555
C13 C10 1_555 1_555
H14 C13 1_555 1_555
C14 N2 1_555 1_555
H15 C14 1_555 1_555
H16 C14 1_555 1_555
C15 C3 1_555 1_555
H17 C15 1_555 1_555
H18 C15 1_555 1_555
C16 C2 1_555 1_555
H19 C16 1_555 1_555
C17 C5 1_555 1_555
H20 C17 1_555 1_555
H21 C17 1_555 1_555
H22 C17 1_555 1_555
C18 C4 1_555 1_555
H23 C18 1_555 1_555
H24 C18 1_555 1_555
C19 C13 1_555 1_555
H25 C19 1_555 1_555
C20 C5 1_555 1_555
H26 C20 1_555 1_555
H27 C20 1_555 1_555
H28 C20 1_555 1_555
H29 N6 1_555 1_555
H30 N1 1_555 1_555
N1 C6 1_555 1_555
N3 C1 1_555 1_555
C4 C7 1_555 1_555
C7 C15 1_555 1_555
C11 C14 1_555 1_555
C12 C18 1_555 1_555
C16 C19 1_555 1_555

#END
