
#######################################################################
#
#                 Cambridge Crystallographic Data Centre
#                                CCDC 
#
#######################################################################
#
# If this CIF has been generated from an entry in the Cambridge 
# Structural Database, then it will include bibliographic, chemical, 
# crystal, experimental, refinement or atomic coordinate data resulting 
# from the CCDC's data processing and validation procedures.
#
#######################################################################

data_MAGKAJ
_chemical_formula_moiety         'C25 H19 N1 O4 S1'
_chemical_name_systematic        
"1,3-Dioxo-2'-phenyl-1,3,4',5'-tetrahydrospiro[indene-2,3'-thiophen]-4'-yl phenylcarbamate"
_symmetry_cell_setting           monoclinic
_symmetry_space_group_name_H-M   'P 21/c'
_symmetry_Int_Tables_number      14
_space_group_name_Hall           '-P 2ybc'
loop_
_symmetry_equiv_pos_site_id
_symmetry_equiv_pos_as_xyz
1 x,y,z
2 -x,1/2+y,1/2-z
3 -x,-y,-z
4 x,1/2-y,1/2+z
_cell_length_a                   18.37296(16)
_cell_length_b                   13.42545(12)
_cell_length_c                   8.57537(7)
_cell_angle_alpha                90
_cell_angle_beta                 97.1888(8)
_cell_angle_gamma                90
_cell_volume                     2098.62
_exptl_crystal_colour            colorless
_exptl_crystal_description       block
_cell_formula_units_Z            4
loop_
_atom_site_label
_atom_site_type_symbol
_atom_site_fract_x
_atom_site_fract_y
_atom_site_fract_z
S1 S 0.09598(2) 0.54338(3) 0.54292(4)
O1 O 0.15613(6) 0.61846(8) 0.17789(12)
O2 O 0.31037(5) 0.39082(7) 0.47962(11)
O3 O 0.28826(5) 0.65180(7) 0.46571(10)
O4 O 0.33866(5) 0.65808(7) 0.72122(11)
N1 N 0.37267(6) 0.76596(8) 0.53648(13)
H1 H 0.3646 0.7811 0.4384
C1 C 0.14835(7) 0.45017(10) 0.44578(16)
H2 H 0.1700 0.4045 0.5279
C2 C 0.10113(8) 0.38768(11) 0.32613(17)
C3 C 0.11409(10) 0.28558(13) 0.3243(2)
H3 H 0.1516 0.2581 0.3939
C4 C 0.07132(14) 0.22476(17) 0.2190(3)
H4 H 0.0800 0.1565 0.2185
C5 C 0.01599(13) 0.2653(2) 0.1152(3)
H5 H -0.0125 0.2244 0.0442
C6 C 0.00275(10) 0.3659(2) 0.1162(2)
H6 H -0.0347 0.3929 0.0458
C7 C 0.04502(8) 0.42786(16) 0.2218(2)
H7 H 0.0357 0.4959 0.2223
C8 C 0.21323(7) 0.50737(10) 0.38512(15)
C9 C 0.27463(7) 0.43231(10) 0.36984(15)
C10 C 0.28058(8) 0.41833(10) 0.20143(15)
C11 C 0.23400(8) 0.48441(10) 0.11256(16)
C12 C 0.19478(7) 0.54767(10) 0.21707(16)
C13 C 0.22960(10) 0.48489(12) -0.05077(17)
H8 H 0.1984 0.5285 -0.1112
C14 C 0.27333(11) 0.41821(12) -0.12019(18)
H9 H 0.2714 0.4172 -0.2291
C15 C 0.32014(11) 0.35266(12) -0.03065(19)
H10 H 0.3490 0.3090 -0.0806
C16 C 0.32432(9) 0.35157(11) 0.13146(18)
H11 H 0.3553 0.3077 0.1916
C17 C 0.23370(7) 0.58507(10) 0.51284(15)
H12 H 0.2538 0.5512 0.6100
C18 C 0.16471(8) 0.64043(10) 0.54118(18)
H13 H 0.1506 0.6880 0.4578
H14 H 0.1718 0.6754 0.6409
C19 C 0.33457(7) 0.69027(10) 0.58769(14)
C20 C 0.42546(7) 0.82287(10) 0.63292(15)
C21 C 0.47400(8) 0.78106(11) 0.75097(17)
H15 H 0.4729 0.7129 0.7695
C22 C 0.52438(8) 0.84058(13) 0.84183(18)
H16 H 0.5565 0.8121 0.9219
C23 C 0.52722(10) 0.94062(14) 0.8148(3)
H17 H 0.5605 0.9806 0.8769
C24 C 0.47998(14) 0.98148(15) 0.6941(3)
H18 H 0.4826 1.0492 0.6728
C25 C 0.42866(11) 0.92313(13) 0.6040(3)
H19 H 0.3965 0.9518 0.5242
loop_
_geom_bond_atom_site_label_1
_geom_bond_atom_site_label_2
_geom_bond_site_symmetry_1
_geom_bond_site_symmetry_2
S1 C1 1_555 1_555
O1 C12 1_555 1_555
O2 C9 1_555 1_555
O3 C17 1_555 1_555
O4 C19 1_555 1_555
N1 H1 1_555 1_555
C1 H2 1_555 1_555
C2 C1 1_555 1_555
C3 C2 1_555 1_555
H3 C3 1_555 1_555
C4 C3 1_555 1_555
H4 C4 1_555 1_555
C5 C4 1_555 1_555
H5 C5 1_555 1_555
C6 C5 1_555 1_555
H6 C6 1_555 1_555
C7 C2 1_555 1_555
H7 C7 1_555 1_555
C8 C1 1_555 1_555
C9 C8 1_555 1_555
C10 C9 1_555 1_555
C11 C10 1_555 1_555
C12 C8 1_555 1_555
C13 C11 1_555 1_555
H8 C13 1_555 1_555
C14 C13 1_555 1_555
H9 C14 1_555 1_555
C15 C14 1_555 1_555
H10 C15 1_555 1_555
C16 C10 1_555 1_555
H11 C16 1_555 1_555
C17 C8 1_555 1_555
H12 C17 1_555 1_555
C18 S1 1_555 1_555
H13 C18 1_555 1_555
H14 C18 1_555 1_555
C19 O3 1_555 1_555
C20 N1 1_555 1_555
C21 C20 1_555 1_555
H15 C21 1_555 1_555
C22 C21 1_555 1_555
H16 C22 1_555 1_555
C23 C22 1_555 1_555
H17 C23 1_555 1_555
C24 C23 1_555 1_555
H18 C24 1_555 1_555
C25 C20 1_555 1_555
H19 C25 1_555 1_555
N1 C19 1_555 1_555
C6 C7 1_555 1_555
C11 C12 1_555 1_555
C15 C16 1_555 1_555
C17 C18 1_555 1_555
C24 C25 1_555 1_555

#END
