
#######################################################################
#
#                 Cambridge Crystallographic Data Centre
#                                CCDC 
#
#######################################################################
#
# If this CIF has been generated from an entry in the Cambridge 
# Structural Database, then it will include bibliographic, chemical, 
# crystal, experimental, refinement or atomic coordinate data resulting 
# from the CCDC's data processing and validation procedures.
#
#######################################################################

data_MAGVOI
_chemical_formula_moiety         'C15 H18 Cl1 N5 O4 S1'
_chemical_name_systematic        
2-Chloro-5-isopropyl-N-((4-methoxy-6-methyl-1,3,5-triazin-2-yl)carbamoyl)benzenesulfonamide
_symmetry_cell_setting           monoclinic
_symmetry_space_group_name_H-M   'P 21/n'
_symmetry_Int_Tables_number      14
_space_group_name_Hall           '-P 2yn'
loop_
_symmetry_equiv_pos_site_id
_symmetry_equiv_pos_as_xyz
1 x,y,z
2 1/2-x,1/2+y,1/2-z
3 -x,-y,-z
4 1/2+x,1/2-y,1/2+z
_cell_length_a                   9.4336(19)
_cell_length_b                   11.524(2)
_cell_length_c                   16.608(3)
_cell_angle_alpha                90
_cell_angle_beta                 100.88(3)
_cell_angle_gamma                90
_cell_volume                     1773.05
_cell_formula_units_Z            4
loop_
_atom_site_label
_atom_site_type_symbol
_atom_site_fract_x
_atom_site_fract_y
_atom_site_fract_z
S1 S 0.42706(5) 0.82026(4) 0.23246(3)
Cl1 Cl 0.38797(5) 1.10153(4) 0.26992(3)
O1 O 0.48840(14) 0.71696(11) 0.20663(9)
O2 O 0.32635(14) 0.81189(12) 0.28642(8)
O3 O 0.52443(13) 0.91457(12) 0.08473(8)
O4 O 0.00332(15) 1.31321(12) -0.02371(9)
N1 N 0.33642(16) 0.88827(14) 0.15149(9)
N2 N 0.31988(16) 1.01957(14) 0.04308(9)
N3 N 0.15817(16) 1.16784(14) 0.00770(9)
N4 N -0.05885(16) 1.17280(13) 0.06210(9)
N5 N 0.11068(15) 1.02116(13) 0.10018(9)
C1 C 0.57050(18) 0.91313(15) 0.27632(11)
C2 C 0.55189(19) 1.02956(16) 0.29639(11)
C3 C 0.6692(2) 1.09216(16) 0.33779(11)
H1 H 0.6577 1.1713 0.3512
C4 C 0.80323(19) 1.03908(16) 0.35964(11)
H2 H 0.8822 1.0827 0.3886
C5 C 0.82472(19) 0.92396(16) 0.34027(11)
C6 C 0.70602(19) 0.86243(16) 0.29743(11)
H3 H 0.7185 0.7841 0.2824
C7 C 0.96837(19) 0.86180(17) 0.36431(13)
H4 H 0.9859 0.8169 0.3156
C8 C 0.9609(2) 0.7751(2) 0.43354(17)
H5 H 0.9441 0.8172 0.4822
H6 H 1.0521 0.7324 0.4469
H7 H 0.8816 0.7205 0.4158
C9 C 1.0965(2) 0.94274(18) 0.39075(13)
H8 H 1.0986 1.0009 0.3479
H9 H 1.1861 0.8977 0.3994
H10 H 1.0870 0.9817 0.4419
C10 C 0.40199(19) 0.93802(16) 0.09299(11)
C11 C 0.19078(18) 1.07168(16) 0.05129(10)
C12 C 0.03324(19) 1.21472(17) 0.01765(11)
C13 C -0.01408(19) 1.07524(16) 0.10263(10)
C14 C -0.1083(2) 1.02191(17) 0.15417(11)
H11 H -0.0954 0.9375 0.1549
H12 H -0.2093 1.0407 0.1315
H13 H -0.0827 1.0522 0.2102
C15 C -0.1295(2) 1.3710(2) -0.01750(14)
H14 H -0.2114 1.3220 -0.0416
H15 H -0.1352 1.4451 -0.0470
H16 H -0.1323 1.3854 0.0403
H17 H 0.2481(15) 0.912(2) 0.1564(16)
H18 H 0.366(2) 1.0508(19) 0.0061(11)
loop_
_geom_bond_atom_site_label_1
_geom_bond_atom_site_label_2
_geom_bond_site_symmetry_1
_geom_bond_site_symmetry_2
S1 O1 1_555 1_555
Cl1 C2 1_555 1_555
O2 S1 1_555 1_555
O3 C10 1_555 1_555
O4 C12 1_555 1_555
N1 S1 1_555 1_555
N2 C10 1_555 1_555
N3 C11 1_555 1_555
N4 C12 1_555 1_555
N5 C11 1_555 1_555
C1 S1 1_555 1_555
C2 C1 1_555 1_555
C3 C2 1_555 1_555
H1 C3 1_555 1_555
C4 C3 1_555 1_555
H2 C4 1_555 1_555
C5 C4 1_555 1_555
C6 C1 1_555 1_555
H3 C6 1_555 1_555
C7 C5 1_555 1_555
H4 C7 1_555 1_555
C8 C7 1_555 1_555
H5 C8 1_555 1_555
H6 C8 1_555 1_555
H7 C8 1_555 1_555
C9 C7 1_555 1_555
H8 C9 1_555 1_555
H9 C9 1_555 1_555
H10 C9 1_555 1_555
C10 N1 1_555 1_555
C11 N2 1_555 1_555
C12 N3 1_555 1_555
C13 N4 1_555 1_555
C14 C13 1_555 1_555
H11 C14 1_555 1_555
H12 C14 1_555 1_555
H13 C14 1_555 1_555
C15 O4 1_555 1_555
H14 C15 1_555 1_555
H15 C15 1_555 1_555
H16 C15 1_555 1_555
H17 N1 1_555 1_555
H18 N2 1_555 1_555
N5 C13 1_555 1_555
C5 C6 1_555 1_555

#END
