
#######################################################################
#
#                 Cambridge Crystallographic Data Centre
#                                CCDC 
#
#######################################################################
#
# If this CIF has been generated from an entry in the Cambridge 
# Structural Database, then it will include bibliographic, chemical, 
# crystal, experimental, refinement or atomic coordinate data resulting 
# from the CCDC's data processing and validation procedures.
#
#######################################################################

data_MAGWID
_chemical_formula_moiety         'C27 H24 N2 O4 S1'
_chemical_name_systematic        
'Methyl 3-cyano-1-((4-methylphenyl)sulfonyl)-2-phenyl-4-vinyl-1,2,3,4-tetrahydroquinoline-3-carboxylate'
_symmetry_cell_setting           orthorhombic
_symmetry_space_group_name_H-M   'P 21 21 21'
_symmetry_Int_Tables_number      19
_space_group_name_Hall           'P 2ac 2ab'
loop_
_symmetry_equiv_pos_site_id
_symmetry_equiv_pos_as_xyz
1 x,y,z
2 1/2-x,-y,1/2+z
3 -x,1/2+y,1/2-z
4 1/2+x,1/2-y,-z
_cell_length_a                   9.3353(13)
_cell_length_b                   14.558(2)
_cell_length_c                   18.187(3)
_cell_angle_alpha                90
_cell_angle_beta                 90
_cell_angle_gamma                90
_cell_volume                     2471.67
_exptl_crystal_colour            colorless
_exptl_crystal_description       block
_cell_formula_units_Z            4
loop_
_atom_site_label
_atom_site_type_symbol
_atom_site_fract_x
_atom_site_fract_y
_atom_site_fract_z
C1 C 0.46565(16) 0.22285(11) 0.78033(9)
H1 H 0.4543 0.1973 0.7320
H2 H 0.4578 0.2885 0.7778
H3 H 0.3924 0.1991 0.8122
C2 C 0.61065(13) 0.19720(8) 0.81018(7)
C3 C 0.65363(13) 0.22741(8) 0.87964(6)
H4 H 0.5919 0.2634 0.9076
C4 C 0.78753(12) 0.20439(7) 0.90742(6)
H5 H 0.8155 0.2246 0.9538
C5 C 0.87937(11) 0.15075(7) 0.86518(5)
C6 C 0.83867(12) 0.11996(7) 0.79547(5)
H6 H 0.9006 0.0842 0.7674
C7 C 0.70447(13) 0.14359(8) 0.76876(6)
H7 H 0.6766 0.1233 0.7224
C8 C 0.93791(10) 0.00755(6) 1.00949(5)
H8 H 0.9042 0.0702 1.0190
C9 C 0.80248(10) -0.05571(6) 1.01066(5)
C10 C 0.73036(10) -0.05409(7) 0.93282(5)
H9 H 0.7162 0.0102 0.9186
C11 C 0.83781(11) -0.09613(7) 0.88066(5)
C12 C 0.97763(10) -0.06311(6) 0.88433(5)
C13 C 1.08508(12) -0.09892(8) 0.83983(6)
H10 H 1.1781 -0.0765 0.8430
C14 C 1.05175(15) -0.16859(8) 0.79056(7)
H11 H 1.1223 -0.1922 0.7598
C15 C 0.91301(16) -0.20309(9) 0.78727(7)
H12 H 0.8913 -0.2503 0.7547
C16 C 0.80702(14) -0.16748(8) 0.83222(6)
H13 H 0.7147 -0.1914 0.8300
C17 C 0.83754(11) -0.15177(7) 1.02977(6)
C18 C 0.69505(11) -0.02095(7) 1.06824(6)
C19 C 0.5474(2) 0.10403(10) 1.09907(11)
H14 H 0.4624 0.0672 1.0953
H15 H 0.5267 0.1655 1.0833
H16 H 0.5795 0.1050 1.1492
C20 C 0.58669(11) -0.10046(8) 0.93361(6)
H17 H 0.5823 -0.1626 0.9454
C21 C 0.46641(14) -0.05688(11) 0.91837(8)
H18 H 0.4683 0.0052 0.9065
H19 H 0.3797 -0.0883 0.9195
C22 C 1.04532(12) -0.01475(7) 1.06915(5)
C23 C 1.15924(12) -0.07425(9) 1.05639(7)
H20 H 1.1683 -0.1028 1.0109
C24 C 1.25996(15) -0.09139(12) 1.11135(8)
H21 H 1.3363 -0.1309 1.1024
C25 C 1.24598(18) -0.04946(13) 1.17920(8)
H22 H 1.3137 -0.0600 1.2157
C26 C 1.1322(2) 0.00766(13) 1.19262(7)
H23 H 1.1222 0.0346 1.2387
C27 C 1.03093(16) 0.02593(9) 1.13780(6)
H24 H 0.9544 0.0651 1.1473
N1 N 1.00796(9) 0.00893(6) 0.93608(4)
N2 N 0.86157(12) -0.22688(7) 1.04281(7)
O1 O 1.07705(9) 0.16925(5) 0.96466(4)
O2 O 1.14312(8) 0.10108(6) 0.84420(4)
O3 O 0.65839(10) 0.06536(6) 1.05288(5)
O4 O 0.64863(10) -0.06544(6) 1.11814(5)
S1 S 1.04204(3) 0.112441(16) 0.902640(12)
loop_
_geom_bond_atom_site_label_1
_geom_bond_atom_site_label_2
_geom_bond_site_symmetry_1
_geom_bond_site_symmetry_2
C1 H1 1_555 1_555
H2 C1 1_555 1_555
H3 C1 1_555 1_555
C2 C1 1_555 1_555
C3 C2 1_555 1_555
H4 C3 1_555 1_555
C4 C3 1_555 1_555
H5 C4 1_555 1_555
C5 C4 1_555 1_555
C6 C5 1_555 1_555
H6 C6 1_555 1_555
C7 C2 1_555 1_555
H7 C7 1_555 1_555
C8 H8 1_555 1_555
C9 C8 1_555 1_555
C10 C9 1_555 1_555
H9 C10 1_555 1_555
C11 C10 1_555 1_555
C12 C11 1_555 1_555
C13 C12 1_555 1_555
H10 C13 1_555 1_555
C14 C13 1_555 1_555
H11 C14 1_555 1_555
C15 C14 1_555 1_555
H12 C15 1_555 1_555
C16 C11 1_555 1_555
H13 C16 1_555 1_555
C17 C9 1_555 1_555
C18 C9 1_555 1_555
C19 H14 1_555 1_555
H15 C19 1_555 1_555
H16 C19 1_555 1_555
C20 C10 1_555 1_555
H17 C20 1_555 1_555
C21 C20 1_555 1_555
H18 C21 1_555 1_555
H19 C21 1_555 1_555
C22 C8 1_555 1_555
C23 C22 1_555 1_555
H20 C23 1_555 1_555
C24 C23 1_555 1_555
H21 C24 1_555 1_555
C25 C24 1_555 1_555
H22 C25 1_555 1_555
C26 C25 1_555 1_555
H23 C26 1_555 1_555
C27 C22 1_555 1_555
H24 C27 1_555 1_555
N1 C8 1_555 1_555
N2 C17 1_555 1_555
O1 S1 1_555 1_555
O2 S1 1_555 1_555
O3 C18 1_555 1_555
O4 C18 1_555 1_555
S1 C5 1_555 1_555
C6 C7 1_555 1_555
C12 N1 1_555 1_555
C15 C16 1_555 1_555
C19 O3 1_555 1_555
C26 C27 1_555 1_555
N1 S1 1_555 1_555

#END
