
#######################################################################
#
#                 Cambridge Crystallographic Data Centre
#                                CCDC 
#
#######################################################################
#
# If this CIF has been generated from an entry in the Cambridge 
# Structural Database, then it will include bibliographic, chemical, 
# crystal, experimental, refinement or atomic coordinate data resulting 
# from the CCDC's data processing and validation procedures.
#
#######################################################################

data_MAGXOJ
_chemical_formula_moiety         'C13 H18 F1 N5'
_chemical_name_systematic        
N,N-Diethyl-3-fluoro-6,7,8,9-tetrahydropyrido[1',2':1,2]imidazo[4,5-b]pyrazin-2-amine
_symmetry_cell_setting           monoclinic
_symmetry_space_group_name_H-M   'P 21/n'
_symmetry_Int_Tables_number      14
_space_group_name_Hall           '-P 2yn'
loop_
_symmetry_equiv_pos_site_id
_symmetry_equiv_pos_as_xyz
1 x,y,z
2 1/2-x,1/2+y,1/2-z
3 -x,-y,-z
4 1/2+x,1/2-y,1/2+z
_cell_length_a                   11.2712(3)
_cell_length_b                   7.6210(2)
_cell_length_c                   14.9705(5)
_cell_angle_alpha                90
_cell_angle_beta                 96.87(1)
_cell_angle_gamma                90
_cell_volume                     1276.7
_exptl_crystal_colour            colorless
_exptl_crystal_description       block
_chemical_melting_point          '329.2-331.2 K'
_cell_formula_units_Z            4
loop_
_atom_site_label
_atom_site_type_symbol
_atom_site_fract_x
_atom_site_fract_y
_atom_site_fract_z
N1 N 0.02762(7) 0.77553(10) 0.17158(6)
N2 N 0.12121(7) 1.09299(10) 0.10559(5)
N3 N -0.08418(7) 1.18983(10) 0.10961(5)
N4 N -0.15934(7) 0.94251(10) 0.16455(6)
N5 N 0.31024(7) 0.95855(10) 0.11423(5)
F1 F 0.20907(5) 0.65321(7) 0.17162(4)
C1 C 0.13846(9) 0.79732(12) 0.15804(6)
C2 C 0.19143(8) 0.95339(11) 0.12714(6)
C3 C 0.00799(8) 1.07051(11) 0.12006(6)
C4 C -0.04071(8) 0.91940(12) 0.15390(6)
C5 C -0.18130(8) 1.10648(12) 0.13798(6)
C6 C -0.29637(9) 1.20248(13) 0.14020(7)
C7 C -0.30156(10) 1.36816(15) 0.08382(9)
C8 C -0.18625(10) 1.47275(14) 0.10546(9)
C9 C -0.07950(9) 1.37086(12) 0.07736(7)
C10 C 0.40261(8) 0.89261(12) 0.18446(6)
C11 C 0.48237(10) 0.75305(14) 0.15038(7)
C12 C 0.34796(8) 1.09874(12) 0.05681(6)
C13 C 0.36969(9) 1.27810(13) 0.10054(7)
H1 H -0.3035(12) 1.2333(18) 0.2035(10)
H2 H -0.3616(12) 1.1226(17) 0.1186(9)
H3 H -0.3711(14) 1.438(2) 0.0965(11)
H4 H -0.3110(13) 1.3370(19) 0.0205(10)
H5 H -0.1729(12) 1.4956(19) 0.1693(10)
H6 H -0.1898(13) 1.5853(19) 0.0744(10)
H7 H -0.0061(11) 1.4218(15) 0.1045(9)
H8 H -0.0781(11) 1.3676(16) 0.0125(9)
H9 H 0.3631(11) 0.8440(17) 0.2345(9)
H10 H 0.4512(11) 0.9940(17) 0.2080(8)
H11 H 0.5479(13) 0.7235(18) 0.1965(10)
H12 H 0.5162(14) 0.7936(19) 0.0976(11)
H13 H 0.4370(13) 0.6429(19) 0.1338(10)
H14 H 0.4226(11) 1.0562(15) 0.0339(8)
H15 H 0.2865(10) 1.1053(15) 0.0046(8)
H16 H 0.3986(12) 1.3600(18) 0.0541(10)
H17 H 0.2967(12) 1.3263(16) 0.1196(8)
H18 H 0.4329(13) 1.2740(18) 0.1522(10)
C14? C -0.2674(12) 1.4146(17) 0.1204(9)
C15? C -0.1915(12) 1.4525(19) 0.0509(11)
H19? H -0.3447 1.4752 0.1042
H20? H -0.2298 1.4670 0.1773
H21? H -0.2277 1.4055 -0.0078
H22? H -0.1811 1.5808 0.0449
loop_
_geom_bond_atom_site_label_1
_geom_bond_atom_site_label_2
_geom_bond_site_symmetry_1
_geom_bond_site_symmetry_2
N1 C1 1_555 1_555
N2 C2 1_555 1_555
N3 C3 1_555 1_555
N4 C4 1_555 1_555
N5 C2 1_555 1_555
F1 C1 1_555 1_555
C1 C2 1_555 1_555
C3 N2 1_555 1_555
C4 N1 1_555 1_555
C5 N3 1_555 1_555
C6 C5 1_555 1_555
C7 C6 1_555 1_555
C8 C7 1_555 1_555
C9 N3 1_555 1_555
C10 N5 1_555 1_555
C11 C10 1_555 1_555
C12 N5 1_555 1_555
C13 C12 1_555 1_555
H1 C6 1_555 1_555
H2 C6 1_555 1_555
H3 C7 1_555 1_555
H4 C7 1_555 1_555
H5 C8 1_555 1_555
H6 C8 1_555 1_555
H7 C9 1_555 1_555
H8 C9 1_555 1_555
H9 C10 1_555 1_555
H10 C10 1_555 1_555
H11 C11 1_555 1_555
H12 C11 1_555 1_555
H13 C11 1_555 1_555
H14 C12 1_555 1_555
H15 C12 1_555 1_555
H16 C13 1_555 1_555
H17 C13 1_555 1_555
H18 C13 1_555 1_555
N4 C5 1_555 1_555
C3 C4 1_555 1_555
C8 C9 1_555 1_555

#END
