
#######################################################################
#
#                 Cambridge Crystallographic Data Centre
#                                CCDC 
#
#######################################################################
#
# If this CIF has been generated from an entry in the Cambridge 
# Structural Database, then it will include bibliographic, chemical, 
# crystal, experimental, refinement or atomic coordinate data resulting 
# from the CCDC's data processing and validation procedures.
#
#######################################################################

data_MAGXIE
_chemical_formula_moiety         'C20 H16 N2 O1 S1'
_chemical_name_systematic        
3-(1H-indazol-1-yl)-3-phenyl-1-(2-thienyl)propan-1-one
_symmetry_cell_setting           orthorhombic
_symmetry_space_group_name_H-M   'P c a 21'
_symmetry_Int_Tables_number      29
_space_group_name_Hall           'P 2c -2ac'
loop_
_symmetry_equiv_pos_site_id
_symmetry_equiv_pos_as_xyz
1 x,y,z
2 -x,-y,1/2+z
3 1/2-x,y,1/2+z
4 1/2+x,-y,z
_cell_length_a                   11.2540(5)
_cell_length_b                   10.0601(3)
_cell_length_c                   15.0408(9)
_cell_angle_alpha                90
_cell_angle_beta                 90
_cell_angle_gamma                90
_cell_volume                     1702.86
_exptl_crystal_colour            colorless
_exptl_crystal_description       plate
_cell_formula_units_Z            4
loop_
_atom_site_label
_atom_site_type_symbol
_atom_site_fract_x
_atom_site_fract_y
_atom_site_fract_z
S1 S -0.15866(10) -0.47824(9) -0.88443(9)
O1 O -0.0011(2) -0.2463(2) -0.9033(3)
N1 N -0.0946(2) 0.0543(3) -0.8996(3)
N2 N -0.2139(3) 0.0363(3) -0.8858(3)
C1 C -0.2395(4) 0.1093(4) -0.8152(4)
H1 H -0.3150 0.1144 -0.7903
C2 C -0.1395(4) 0.1791(4) -0.7811(3)
C3 C -0.1161(5) 0.2682(4) -0.7123(4)
H2 H -0.1760 0.2949 -0.6737
C4 C -0.0044(5) 0.3146(4) -0.7033(4)
H3 H 0.0121 0.3740 -0.6576
C5 C 0.0877(4) 0.2761(4) -0.7607(4)
H4 H 0.1636 0.3105 -0.7523
C6 C 0.0675(4) 0.1886(4) -0.8290(3)
H5 H 0.1283 0.1626 -0.8671
C7 C -0.0476(3) 0.1403(3) -0.8391(3)
C8 C -0.0379(4) 0.0022(4) -0.9793(3)
H6 H 0.0428 -0.0252 -0.9631
C9 C -0.0277(4) 0.1077(4) -1.0518(3)
C10 C -0.0929(4) 0.2255(4) -1.0508(4)
H7 H -0.1453 0.2417 -1.0043
C11 C -0.0812(5) 0.3190(5) -1.1179(4)
H8 H -0.1241 0.3979 -1.1155
C12 C -0.0060(5) 0.2947(5) -1.1880(4)
H9 H 0.0017 0.3569 -1.2335
C13 C 0.0585(5) 0.1773(5) -1.1909(4)
H10 H 0.1086 0.1602 -1.2387
C14 C 0.0483(4) 0.0856(5) -1.1228(3)
H11 H 0.0930 0.0080 -1.1247
C15 C -0.1039(4) -0.1210(3) -1.0133(3)
H12 H -0.1880 -0.1011 -1.0180
H13 H -0.0750 -0.1434 -1.0722
C16 C -0.0869(3) -0.2385(3) -0.9525(3)
C17 C -0.1750(3) -0.3461(3) -0.9556(3)
C18 C -0.2748(3) -0.3589(3) -1.0082(4)
H14 H -0.2975 -0.2987 -1.0519
C19 C -0.3381(4) -0.4763(5) -0.9865(5)
H15 H -0.4091 -0.5009 -1.0135
C20 C -0.2844(4) -0.5486(4) -0.9225(4)
H16 H -0.3139 -0.6291 -0.9015
loop_
_geom_bond_atom_site_label_1
_geom_bond_atom_site_label_2
_geom_bond_site_symmetry_1
_geom_bond_site_symmetry_2
S1 C17 1_555 1_555
O1 C16 1_555 1_555
N1 N2 1_555 1_555
N2 C1 1_555 1_555
C1 H1 1_555 1_555
C2 C1 1_555 1_555
C3 C2 1_555 1_555
H2 C3 1_555 1_555
C4 C3 1_555 1_555
H3 C4 1_555 1_555
C5 C4 1_555 1_555
H4 C5 1_555 1_555
C6 C5 1_555 1_555
H5 C6 1_555 1_555
C7 N1 1_555 1_555
C8 N1 1_555 1_555
H6 C8 1_555 1_555
C9 C8 1_555 1_555
C10 C9 1_555 1_555
H7 C10 1_555 1_555
C11 C10 1_555 1_555
H8 C11 1_555 1_555
C12 C11 1_555 1_555
H9 C12 1_555 1_555
C13 C12 1_555 1_555
H10 C13 1_555 1_555
C14 C9 1_555 1_555
H11 C14 1_555 1_555
C15 C8 1_555 1_555
H12 C15 1_555 1_555
H13 C15 1_555 1_555
C16 C15 1_555 1_555
C17 C16 1_555 1_555
C18 C17 1_555 1_555
H14 C18 1_555 1_555
C19 C18 1_555 1_555
H15 C19 1_555 1_555
C20 S1 1_555 1_555
H16 C20 1_555 1_555
C2 C7 1_555 1_555
C6 C7 1_555 1_555
C13 C14 1_555 1_555
C19 C20 1_555 1_555

#END
