
#######################################################################
#
#                 Cambridge Crystallographic Data Centre
#                                CCDC 
#
#######################################################################
#
# If this CIF has been generated from an entry in the Cambridge 
# Structural Database, then it will include bibliographic, chemical, 
# crystal, experimental, refinement or atomic coordinate data resulting 
# from the CCDC's data processing and validation procedures.
#
#######################################################################

data_MAGXUP
_chemical_name_common            
N,N-Diethyl-3-fluoro-6-methylpyrido[1',2':1,2]imidazo[4,5-b]pyrazin-2-amine
_chemical_formula_moiety         'C14 H16 F1 N5'
_chemical_name_systematic        
N,N-diethyl-2-fluoro-6-methylpyrido[1',2':1,2]imidazo[4,5-b]pyrazine-3-amine
_symmetry_cell_setting           orthorhombic
_symmetry_space_group_name_H-M   'P 21 21 21'
_symmetry_Int_Tables_number      19
_space_group_name_Hall           'P 2ac 2ab'
loop_
_symmetry_equiv_pos_site_id
_symmetry_equiv_pos_as_xyz
1 x,y,z
2 1/2-x,-y,1/2+z
3 -x,1/2+y,1/2-z
4 1/2+x,1/2-y,-z
_cell_length_a                   7.5730(2)
_cell_length_b                   12.5894(3)
_cell_length_c                   13.6232(3)
_cell_angle_alpha                90
_cell_angle_beta                 90
_cell_angle_gamma                90
_cell_volume                     1298.83
_exptl_crystal_colour            yellow
_exptl_crystal_description       plate
_cell_formula_units_Z            4
loop_
_atom_site_label
_atom_site_type_symbol
_atom_site_fract_x
_atom_site_fract_y
_atom_site_fract_z
F1 F 0.16467(13) 0.77693(9) 0.70871(8)
N1 N 0.62086(19) 0.72176(11) 0.65238(10)
N2 N 0.27052(19) 0.66844(11) 0.59389(11)
N3 N 0.4155(2) 0.55894(11) 0.46955(10)
N4 N 0.69542(18) 0.60022(11) 0.51923(9)
N5 N 0.5104(2) 0.84306(12) 0.76527(10)
C1 C 0.4813(2) 0.76652(13) 0.69640(12)
C2 C 0.3069(2) 0.73391(13) 0.66427(12)
C3 C 0.4125(2) 0.62793(13) 0.54738(12)
C4 C 0.5877(2) 0.54375(13) 0.45373(12)
C5 C 0.6709(2) 0.47927(13) 0.38116(12)
C6 C 0.8510(2) 0.47368(14) 0.38224(13)
C7 C 0.9556(2) 0.53062(15) 0.45148(13)
C8 C 0.8775(2) 0.59433(14) 0.51886(13)
C9 C 0.5816(2) 0.65600(13) 0.57911(12)
C10 C 0.5569(3) 0.42318(16) 0.30820(14)
C11 C 0.6849(2) 0.89281(14) 0.77110(13)
C12 C 0.7923(3) 0.85693(17) 0.85937(15)
C13 C 0.3831(3) 0.87418(15) 0.84078(14)
C14 C 0.3406(3) 0.78566(18) 0.91274(15)
H1 H 0.910(3) 0.4300(18) 0.3329(15)
H2 H 1.076(4) 0.5246(18) 0.4483(16)
H3 H 0.939(3) 0.6376(17) 0.5671(14)
H4 H 0.480(4) 0.474(2) 0.2740(18)
H5 H 0.625(4) 0.381(2) 0.2607(18)
H6 H 0.475(4) 0.378(2) 0.3428(19)
H7 H 0.662(3) 0.9695(19) 0.7783(16)
H8 H 0.750(3) 0.8778(18) 0.7107(16)
H9 H 0.808(4) 0.779(2) 0.859(2)
H10 H 0.916(4) 0.891(2) 0.8599(19)
H11 H 0.735(4) 0.879(2) 0.9221(19)
H12 H 0.265(3) 0.897(2) 0.8102(16)
H13 H 0.432(3) 0.9358(19) 0.8766(17)
H14 H 0.293(3) 0.723(2) 0.8815(18)
H15 H 0.439(4) 0.758(2) 0.9463(18)
H16 H 0.245(4) 0.808(2) 0.960(2)
loop_
_geom_bond_atom_site_label_1
_geom_bond_atom_site_label_2
_geom_bond_site_symmetry_1
_geom_bond_site_symmetry_2
F1 C2 1_555 1_555
N1 C1 1_555 1_555
N2 C2 1_555 1_555
N3 C3 1_555 1_555
N4 C4 1_555 1_555
N5 C1 1_555 1_555
C1 C2 1_555 1_555
C3 N2 1_555 1_555
C4 N3 1_555 1_555
C5 C4 1_555 1_555
C6 C5 1_555 1_555
C7 C6 1_555 1_555
C8 N4 1_555 1_555
C9 N1 1_555 1_555
C10 C5 1_555 1_555
C11 N5 1_555 1_555
C12 C11 1_555 1_555
C13 N5 1_555 1_555
C14 C13 1_555 1_555
H1 C6 1_555 1_555
H2 C7 1_555 1_555
H3 C8 1_555 1_555
H4 C10 1_555 1_555
H5 C10 1_555 1_555
H6 C10 1_555 1_555
H7 C11 1_555 1_555
H8 C11 1_555 1_555
H9 C12 1_555 1_555
H10 C12 1_555 1_555
H11 C12 1_555 1_555
H12 C13 1_555 1_555
H13 C13 1_555 1_555
H14 C14 1_555 1_555
H15 C14 1_555 1_555
H16 C14 1_555 1_555
N4 C9 1_555 1_555
C3 C9 1_555 1_555
C7 C8 1_555 1_555

#END
