
#######################################################################
#
#                 Cambridge Crystallographic Data Centre
#                                CCDC 
#
#######################################################################
#
# If this CIF has been generated from an entry in the Cambridge 
# Structural Database, then it will include bibliographic, chemical, 
# crystal, experimental, refinement or atomic coordinate data resulting 
# from the CCDC's data processing and validation procedures.
#
#######################################################################

data_MAHBIH
_chemical_compound_source        'aerial part of Mikania micrantha'
_chemical_formula_moiety         'C17 H20 O7'
_chemical_name_systematic        
3\b-acetoxy-1,10-epoxy-4-germacrene-12,8;15,6-diolide
_chemical_properties_biological  'antiviral activity'
_symmetry_cell_setting           monoclinic
_symmetry_space_group_name_H-M   'P 21'
_symmetry_Int_Tables_number      4
_space_group_name_Hall           'P 2yb'
loop_
_symmetry_equiv_pos_site_id
_symmetry_equiv_pos_as_xyz
1 x,y,z
2 -x,1/2+y,-z
_cell_length_a                   6.2802(13)
_cell_length_b                   9.7024(19)
_cell_length_c                   13.448(3)
_cell_angle_alpha                90
_cell_angle_beta                 91.671(4)
_cell_angle_gamma                90
_cell_volume                     819.079
_exptl_crystal_colour            colorless
_exptl_crystal_description       'Triangle plate'
_chemical_melting_point          '271-273 deg.C'
_cell_formula_units_Z            2
_exptl_crystal_recrystallization_method chloroform/methanol
loop_
_atom_site_label
_atom_site_type_symbol
_atom_site_fract_x
_atom_site_fract_y
_atom_site_fract_z
O1 O 0.3246(3) 0.32577(18) 0.08116(12)
O2 O 0.8727(3) 0.0330(2) 0.23215(16)
O3 O 0.6764(2) 0.08174(19) 0.36436(12)
O4 O -0.1027(5) 0.3285(2) 0.53945(18)
O5 O 0.0515(3) 0.34068(17) 0.39449(13)
O6 O 0.2667(3) -0.12182(18) 0.10619(12)
O7 O 0.3991(3) -0.3182(2) 0.16973(16)
C1 C 0.3358(4) 0.1881(3) 0.12079(17)
H1 H 0.1992 0.1535 0.1439
C2 C 0.4657(4) 0.0809(3) 0.06863(18)
H2 H 0.6102 0.1143 0.0622
H3 H 0.4057 0.0658 0.0023
C3 C 0.4698(4) -0.0554(3) 0.12570(17)
H4 H 0.5858 -0.1138 0.1027
C4 C 0.5005(3) -0.0255(2) 0.23355(17)
C5 C 0.3622(3) -0.0170(2) 0.30570(16)
H5 H 0.2244 -0.0521 0.3024
C6 C 0.4589(3) 0.0567(2) 0.39275(16)
H6 H 0.4602 -0.0049 0.4505
C7 C 0.3452(4) 0.1914(2) 0.41972(16)
H7 H 0.4513 0.2580 0.4446
C8 C 0.2050(4) 0.2608(2) 0.33744(17)
H8 H 0.1277 0.1889 0.3000
C9 C 0.2947(5) 0.3634(3) 0.26421(19)
H9 H 0.1768 0.4161 0.2356
H10 H 0.3854 0.4273 0.3013
C10 C 0.4213(4) 0.3056(3) 0.17965(17)
C11 C 0.1810(5) 0.1678(3) 0.49953(18)
H11 H 0.1053 0.0820 0.4832
C12 C 0.0275(5) 0.2841(3) 0.4840(2)
C13 C 0.2688(7) 0.1553(4) 0.6065(2)
H12 H 0.1534 0.1401 0.6504
H13 H 0.3416 0.2389 0.6250
H14 H 0.3664 0.0793 0.6111
C14 C 0.6545(4) 0.3415(3) 0.1833(2)
H15 H 0.7226 0.3002 0.1277
H16 H 0.7189 0.3074 0.2441
H17 H 0.6708 0.4398 0.1805
C15 C 0.7031(4) 0.0303(3) 0.2718(2)
C16 C 0.2532(4) -0.2559(3) 0.13158(19)
C17 C 0.0376(5) -0.3116(4) 0.1065(3)
H18 H 0.0311 -0.4067 0.1259
H19 H 0.0099 -0.3041 0.0361
H20 H -0.0673 -0.2600 0.1413
loop_
_geom_bond_atom_site_label_1
_geom_bond_atom_site_label_2
_geom_bond_site_symmetry_1
_geom_bond_site_symmetry_2
O1 C1 1_555 1_555
O2 C15 1_555 1_555
O3 C6 1_555 1_555
O4 C12 1_555 1_555
O5 C8 1_555 1_555
O6 C3 1_555 1_555
O7 C16 1_555 1_555
C1 H1 1_555 1_555
C2 C1 1_555 1_555
H2 C2 1_555 1_555
H3 C2 1_555 1_555
C3 C2 1_555 1_555
H4 C3 1_555 1_555
C4 C3 1_555 1_555
C5 C4 1_555 1_555
H5 C5 1_555 1_555
C6 C5 1_555 1_555
H6 C6 1_555 1_555
C7 C6 1_555 1_555
H7 C7 1_555 1_555
C8 C7 1_555 1_555
H8 C8 1_555 1_555
C9 C8 1_555 1_555
H9 C9 1_555 1_555
H10 C9 1_555 1_555
C10 O1 1_555 1_555
C11 C7 1_555 1_555
H11 C11 1_555 1_555
C12 O5 1_555 1_555
C13 C11 1_555 1_555
H12 C13 1_555 1_555
H13 C13 1_555 1_555
H14 C13 1_555 1_555
C14 C10 1_555 1_555
H15 C14 1_555 1_555
H16 C14 1_555 1_555
H17 C14 1_555 1_555
C15 O3 1_555 1_555
C16 O6 1_555 1_555
C17 C16 1_555 1_555
H18 C17 1_555 1_555
H19 C17 1_555 1_555
H20 C17 1_555 1_555
C1 C10 1_555 1_555
C4 C15 1_555 1_555
C9 C10 1_555 1_555
C11 C12 1_555 1_555

#END
