
#######################################################################
#
#                 Cambridge Crystallographic Data Centre
#                                CCDC 
#
#######################################################################
#
# If this CIF has been generated from an entry in the Cambridge 
# Structural Database, then it will include bibliographic, chemical, 
# crystal, experimental, refinement or atomic coordinate data resulting 
# from the CCDC's data processing and validation procedures.
#
#######################################################################

data_MAHCAC
_chemical_formula_moiety         'C33 H28'
_chemical_name_systematic        
9-(1,3-bis(4-methylphenyl)prop-2-yn-1-ylidene)-1,3,7-trimethyl-9H-fluorene
_symmetry_cell_setting           triclinic
_symmetry_space_group_name_H-M   'P -1'
_symmetry_Int_Tables_number      2
_space_group_name_Hall           '-P 1'
loop_
_symmetry_equiv_pos_site_id
_symmetry_equiv_pos_as_xyz
1 x,y,z
2 -x,-y,-z
_cell_length_a                   5.8541(2)
_cell_length_b                   8.8565(3)
_cell_length_c                   22.5630(6)
_cell_angle_alpha                93.969(3)
_cell_angle_beta                 96.909(3)
_cell_angle_gamma                90.002(3)
_cell_volume                     1158.5
_exptl_crystal_colour            yellow
_cell_formula_units_Z            2
_exptl_crystal_recrystallization_method 'methanol/petroleum ether'
loop_
_atom_site_label
_atom_site_type_symbol
_atom_site_fract_x
_atom_site_fract_y
_atom_site_fract_z
C1 C 0.6451(2) 1.00400(14) 0.21853(6)
C2 C 0.5038(2) 0.94329(15) 0.24403(6)
C3 C 0.3203(2) 0.97036(14) 0.33530(6)
C4 C 0.3385(2) 0.88172(15) 0.27732(6)
C5 C 0.5119(2) 0.99740(15) 0.37818(6)
H1 H 0.6525 0.9540 0.3720
C6 C 0.0184(2) 0.68414(14) 0.28313(6)
C7 C 0.8088(2) 1.06863(15) 0.18518(6)
C8 C 0.1493(2) 0.71527(14) 0.18939(6)
C9 C 0.0034(2) 0.65093(15) 0.34257(6)
C10 C 0.1135(2) 1.03874(15) 0.34530(6)
H2 H -0.0160 1.0211 0.3175
C11 C 0.0984(2) 1.13327(16) 0.39644(6)
H3 H -0.0407 1.1797 0.4020
C12 C 0.2881(3) 1.15966(16) 0.43953(6)
C13 C 0.1925(2) 0.76520(15) 0.25405(6)
C14 C 0.4932(2) 1.08844(16) 0.42983(6)
H4 H 0.6206 1.1022 0.4586
C15 C 1.0025(3) 1.06658(16) 0.09652(6)
H5 H 1.0220 1.0228 0.0588
C16 C -0.3210(2) 0.52423(15) 0.24926(6)
H6 H -0.4260 0.4829 0.2182
C17 C -0.1805(2) 0.55928(15) 0.35312(6)
H7 H -0.1939 0.5390 0.3925
C18 C -0.0615(2) 0.63572(14) 0.17940(6)
C19 C -0.3443(2) 0.49663(15) 0.30828(6)
C20 C -0.1406(2) 0.61348(14) 0.23726(6)
C21 C -0.0369(2) 0.61587(15) 0.07408(6)
H8 H -0.1004 0.5851 0.0354
C22 C 0.8423(3) 1.00513(16) 0.12846(6)
H9 H 0.7561 0.9209 0.1121
C23 C 0.9405(2) 1.19607(15) 0.20830(6)
H10 H 0.9208 1.2407 0.2459
C24 C -0.1558(2) 0.58665(15) 0.12187(6)
H11 H -0.2960 0.5352 0.1154
C25 C 0.1758(2) 0.69042(15) 0.08302(6)
C26 C 1.0994(3) 1.25593(16) 0.17568(6)
H12 H 1.1846 1.3409 0.1917
C27 C 0.3054(3) 0.71710(18) 0.03072(6)
H13 H 0.4169 0.6387 0.0267
H14 H 0.3823 0.8136 0.0374
H15 H 0.1994 0.7160 -0.0053
C28 C 0.2689(2) 0.73995(15) 0.14105(6)
H16 H 0.4107 0.7894 0.1474
C29 C -0.5312(3) 0.39254(16) 0.32238(7)
H17 H -0.6785 0.4298 0.3066
H18 H -0.5246 0.3887 0.3650
H19 H -0.5094 0.2928 0.3045
C30 C 0.1845(3) 0.69393(16) 0.39445(6)
H20 H 0.3331 0.6948 0.3805
H21 H 0.1831 0.6216 0.4242
H22 H 0.1524 0.7927 0.4116
C31 C 0.2709(3) 1.26472(18) 0.49431(7)
H23 H 0.1271 1.3173 0.4898
H24 H 0.3955 1.3367 0.4990
H25 H 0.2791 1.2070 0.5290
C32 C 1.3141(3) 1.25626(19) 0.08527(8)
H26 H 1.4648 1.2343 0.1044
H27 H 1.2957 1.3639 0.0847
H28 H 1.2958 1.2114 0.0450
C33 C 1.1349(3) 1.19206(16) 0.11946(7)
loop_
_geom_bond_atom_site_label_1
_geom_bond_atom_site_label_2
_geom_bond_site_symmetry_1
_geom_bond_site_symmetry_2
C1 C2 1_555 1_555
C2 C4 1_555 1_555
C3 C4 1_555 1_555
C4 C13 1_555 1_555
C5 C3 1_555 1_555
H1 C5 1_555 1_555
C6 C9 1_555 1_555
C7 C1 1_555 1_555
C8 C13 1_555 1_555
C9 C17 1_555 1_555
C10 C3 1_555 1_555
H2 C10 1_555 1_555
C11 C10 1_555 1_555
H3 C11 1_555 1_555
C12 C11 1_555 1_555
C13 C6 1_555 1_555
C14 C5 1_555 1_555
H4 C14 1_555 1_555
C15 H5 1_555 1_555
C16 H6 1_555 1_555
C17 H7 1_555 1_555
C18 C8 1_555 1_555
C19 C16 1_555 1_555
C20 C6 1_555 1_555
C21 H8 1_555 1_555
C22 C7 1_555 1_555
H9 C22 1_555 1_555
C23 C7 1_555 1_555
H10 C23 1_555 1_555
C24 C18 1_555 1_555
H11 C24 1_555 1_555
C25 C21 1_555 1_555
C26 C23 1_555 1_555
H12 C26 1_555 1_555
C27 C25 1_555 1_555
H13 C27 1_555 1_555
H14 C27 1_555 1_555
H15 C27 1_555 1_555
C28 C8 1_555 1_555
H16 C28 1_555 1_555
C29 C19 1_555 1_555
H17 C29 1_555 1_555
H18 C29 1_555 1_555
H19 C29 1_555 1_555
C30 C9 1_555 1_555
H20 C30 1_555 1_555
H21 C30 1_555 1_555
H22 C30 1_555 1_555
C31 C12 1_555 1_555
H23 C31 1_555 1_555
H24 C31 1_555 1_555
H25 C31 1_555 1_555
C32 H26 1_555 1_555
H27 C32 1_555 1_555
H28 C32 1_555 1_555
C33 C15 1_555 1_555
C12 C14 1_555 1_555
C15 C22 1_555 1_555
C16 C20 1_555 1_555
C17 C19 1_555 1_555
C18 C20 1_555 1_555
C21 C24 1_555 1_555
C25 C28 1_555 1_555
C26 C33 1_555 1_555
C32 C33 1_555 1_555

#END
