
#######################################################################
#
#                 Cambridge Crystallographic Data Centre
#                                CCDC 
#
#######################################################################
#
# If this CIF has been generated from an entry in the Cambridge 
# Structural Database, then it will include bibliographic, chemical, 
# crystal, experimental, refinement or atomic coordinate data resulting 
# from the CCDC's data processing and validation procedures.
#
#######################################################################

data_MAHHUZ
_chemical_compound_source        'leaves of Aconitum sungpanense'
_chemical_formula_moiety         'C16 H16 N4 O4'
_chemical_name_systematic        
trans-2,2',4,4'-Tetramethyl-6,6'-dinitro-azobenzene
_chemical_properties_biological  'potential biological activity'
_symmetry_cell_setting           monoclinic
_symmetry_space_group_name_H-M   'P 21/c'
_symmetry_Int_Tables_number      14
_space_group_name_Hall           '-P 2ybc'
loop_
_symmetry_equiv_pos_site_id
_symmetry_equiv_pos_as_xyz
1 x,y,z
2 x,1/2-y,1/2+z
3 -x,-y,-z
4 -x,1/2+y,1/2-z
_cell_length_a                   8.544(1)
_cell_length_b                   13.997(2)
_cell_length_c                   7.161(1)
_cell_angle_alpha                90
_cell_angle_beta                 112.97(1)
_cell_angle_gamma                90
_cell_volume                     788.483
_exptl_crystal_colour            red
_exptl_crystal_description       rhombohedral
_chemical_melting_point          'sublimes at 210deg.C'
_cell_formula_units_Z            2
_exptl_crystal_recrystallization_method 'ethyl acetate'
loop_
_atom_site_label
_atom_site_type_symbol
_atom_site_fract_x
_atom_site_fract_y
_atom_site_fract_z
O1 O 0.80487(15) 0.17703(10) 0.7447(2)
O2 O 0.77276(14) 0.11645(8) 0.45433(19)
N1 N 0.43476(13) 0.01360(7) 0.42718(16)
N2 N 0.71859(14) 0.15544(8) 0.5693(2)
C1 C 0.40894(15) 0.11416(9) 0.41645(18)
C2 C 0.24083(15) 0.14674(10) 0.32490(19)
C3 C 0.21121(17) 0.24460(11) 0.3105(2)
H1 H 0.0996 0.2659 0.2487
C4 C 0.33916(18) 0.31193(10) 0.3835(2)
C5 C 0.50603(17) 0.27938(9) 0.4745(2)
H2 H 0.5952 0.3227 0.5259
C6 C 0.53817(15) 0.18290(9) 0.48807(19)
C7 C 0.09350(17) 0.07855(12) 0.2480(2)
H3 H 0.1352 0.0141 0.2688
H4 H 0.0302 0.0893 0.1059
H5 H 0.0210 0.0887 0.3203
C8 C 0.3000(2) 0.41696(11) 0.3621(2)
H9 H 0.4038 0.4526 0.4209
H10 H 0.2267 0.4325 0.4308
H11 H 0.2444 0.4329 0.2210
N1B N 0.56524(13) -0.01360(7) 0.57282(16)
C1B C 0.59106(15) -0.11416(9) 0.58355(18)
C2B C 0.75917(15) -0.14674(10) 0.67510(19)
C3B C 0.78879(17) -0.24460(11) 0.6895(2)
H1B H 0.9004 -0.2659 0.7513
C4B C 0.66084(18) -0.31193(10) 0.6165(2)
C5B C 0.49397(17) -0.27938(9) 0.5255(2)
H2B H 0.4048 -0.3227 0.4741
C6B C 0.46183(15) -0.18290(9) 0.51193(19)
N2B N 0.28141(14) -0.15544(8) 0.4307(2)
O1B O 0.19513(15) -0.17703(10) 0.2553(2)
O2B O 0.22724(14) -0.11645(8) 0.54567(19)
C8B C 0.7000(2) -0.41696(11) 0.6379(2)
H9B H 0.5962 -0.4526 0.5791
H10B H 0.7733 -0.4325 0.5692
H11B H 0.7556 -0.4329 0.7790
C7B C 0.90650(17) -0.07855(12) 0.7520(2)
H3B H 0.8648 -0.0141 0.7312
H4B H 0.9698 -0.0893 0.8941
H5B H 0.9790 -0.0887 0.6797
H6? H -0.0109 0.1140 0.1946
H7? H 0.0941 0.0387 0.3574
H8? H 0.1032 0.0394 0.1430
H12? H 0.1795 0.4260 0.2942
H13? H 0.3566 0.4462 0.2844
H14? H 0.3388 0.4458 0.4941
loop_
_geom_bond_atom_site_label_1
_geom_bond_atom_site_label_2
_geom_bond_site_symmetry_1
_geom_bond_site_symmetry_2
O1 N2 1_555 1_555
O2 N2 1_555 1_555
N1 C1 1_555 1_555
N2 C6 1_555 1_555
C1 C2 1_555 1_555
C2 C3 1_555 1_555
C3 H1 1_555 1_555
C4 C3 1_555 1_555
C5 C4 1_555 1_555
H2 C5 1_555 1_555
C6 C1 1_555 1_555
C7 C2 1_555 1_555
H3 C7 1_555 1_555
H4 C7 1_555 1_555
H5 C7 1_555 1_555
C8 C4 1_555 1_555
H9 C8 1_555 1_555
H10 C8 1_555 1_555
H11 C8 1_555 1_555
N1B N1 1_555 1_555
C1B N1B 1_555 1_555
C2B C1B 1_555 1_555
C3B C2B 1_555 1_555
H1B C3B 1_555 1_555
C4B C3B 1_555 1_555
C5B C4B 1_555 1_555
H2B C5B 1_555 1_555
C6B C1B 1_555 1_555
N2B C6B 1_555 1_555
O1B N2B 1_555 1_555
O2B N2B 1_555 1_555
C8B C4B 1_555 1_555
H9B C8B 1_555 1_555
H10B C8B 1_555 1_555
H11B C8B 1_555 1_555
C7B C2B 1_555 1_555
H3B C7B 1_555 1_555
H4B C7B 1_555 1_555
H5B C7B 1_555 1_555
C5 C6 1_555 1_555
C5B C6B 1_555 1_555

#END
