
#######################################################################
#
#                 Cambridge Crystallographic Data Centre
#                                CCDC 
#
#######################################################################
#
# If this CIF has been generated from an entry in the Cambridge 
# Structural Database, then it will include bibliographic, chemical, 
# crystal, experimental, refinement or atomic coordinate data resulting 
# from the CCDC's data processing and validation procedures.
#
#######################################################################

data_MAHVAU
_chemical_formula_moiety         'C25 H23 N1 O3'
_chemical_name_systematic        
'Methyl 3-(9-phenyl-9H-fluoren-9-yl)-1,3-oxazinane-4-carboxylate'
_symmetry_cell_setting           orthorhombic
_symmetry_space_group_name_H-M   'P 21 21 21'
_symmetry_Int_Tables_number      19
_space_group_name_Hall           'P 2ac 2ab'
loop_
_symmetry_equiv_pos_site_id
_symmetry_equiv_pos_as_xyz
1 x,y,z
2 1/2-x,-y,1/2+z
3 1/2+x,1/2-y,-z
4 -x,1/2+y,1/2-z
_cell_length_a                   14.9329(6)
_cell_length_b                   15.1590(5)
_cell_length_c                   17.2261(5)
_cell_angle_alpha                90
_cell_angle_beta                 90
_cell_angle_gamma                90
_cell_volume                     3899.43
_exptl_crystal_colour            colorless
_exptl_crystal_description       blocks
_cell_formula_units_Z            8
loop_
_atom_site_label
_atom_site_type_symbol
_atom_site_fract_x
_atom_site_fract_y
_atom_site_fract_z
C1 C 0.7564(2) 0.4793(2) 1.06200(17)
C2 C 0.7237(2) 0.57030(19) 1.09168(17)
C3 C 0.6761(2) 0.63491(19) 1.05280(18)
H1 H 0.6614 0.6277 0.9995
C4 C 0.6498(2) 0.7109(2) 1.09280(19)
H2 H 0.6163 0.7552 1.0668
C5 C 0.6726(2) 0.7218(2) 1.17038(19)
H3 H 0.6537 0.7733 1.1972
C6 C 0.7228(2) 0.6583(2) 1.20941(18)
H4 H 0.7395 0.6664 1.2621
C7 C 0.7478(2) 0.5826(2) 1.16921(17)
C8 C 0.7986(2) 0.5051(2) 1.19537(17)
C9 C 0.8383(2) 0.4884(2) 1.26700(18)
H5 H 0.8355 0.5308 1.3076
C10 C 0.8819(2) 0.4089(2) 1.27784(19)
H6 H 0.9094 0.3966 1.3264
C11 C 0.8859(2) 0.3466(2) 1.21825(19)
H7 H 0.9153 0.2918 1.2268
C12 C 0.8473(2) 0.3640(2) 1.14668(17)
H8 H 0.8502 0.3217 1.1061
C13 C 0.8042(2) 0.44435(19) 1.13510(17)
C14 C 0.6746(2) 0.42312(19) 1.03968(16)
C15 C 0.6460(2) 0.35088(19) 1.08322(16)
H9 H 0.6782 0.3346 1.1286
C16 C 0.5712(2) 0.3023(2) 1.06146(18)
H10 H 0.5529 0.2533 1.0920
C17 C 0.5234(2) 0.3247(2) 0.99553(19)
H11 H 0.4722 0.2916 0.9806
C18 C 0.5512(2) 0.3963(2) 0.95154(18)
H12 H 0.5190 0.4123 0.9061
C19 C 0.6257(2) 0.44475(19) 0.97371(17)
H13 H 0.6437 0.4938 0.9431
C20 C 0.8367(2) 0.4164(2) 0.94604(18)
H14 H 0.7840 0.3771 0.9423
H15 H 0.8516 0.4362 0.8928
C21 C 0.9895(2) 0.4199(2) 0.97820(19)
H16 H 1.0064 0.4377 0.9249
H17 H 1.0395 0.3851 1.0003
C22 C 0.9744(2) 0.5018(2) 1.02743(18)
H18 H 1.0272 0.5411 1.0235
H19 H 0.9671 0.4845 1.0825
C23 C 0.8905(2) 0.55113(19) 0.99998(18)
H20 H 0.8755 0.5961 1.0404
C24 C 0.9103(2) 0.6006(2) 0.92448(18)
N1 N 0.81221(17) 0.49272(15) 0.99144(13)
O1 O 0.91034(14) 0.36619(13) 0.97528(12)
O2 O 0.98361(16) 0.62608(16) 0.90626(14)
O3 O 0.83726(15) 0.61370(15) 0.88044(12)
C25 C 0.8533(3) 0.6563(2) 0.80656(18)
H21 H 0.7965 0.6630 0.7787
H22 H 0.8944 0.6202 0.7756
H23 H 0.8799 0.7145 0.8153
C26 C 0.2827(2) 0.4802(2) 0.75829(17)
C27 C 0.1815(2) 0.4660(2) 0.74675(17)
C28 C 0.1278(2) 0.3985(2) 0.77463(17)
H24 H 0.1521 0.3534 0.8066
C29 C 0.0369(2) 0.3984(2) 0.75467(19)
H25 H -0.0009 0.3526 0.7733
C30 C 0.0011(2) 0.4644(3) 0.7079(2)
H26 H -0.0608 0.4633 0.6951
C31 C 0.0549(2) 0.5317(2) 0.6799(2)
H27 H 0.0306 0.5767 0.6478
C32 C 0.1456(2) 0.5323(2) 0.69982(17)
C33 C 0.2171(2) 0.5940(2) 0.67792(16)
C34 C 0.2171(2) 0.6671(2) 0.62884(18)
H28 H 0.1636 0.6857 0.6038
C35 C 0.2967(2) 0.7121(2) 0.61732(18)
H29 H 0.2978 0.7611 0.5830
C36 C 0.3750(2) 0.6868(2) 0.65509(18)
H30 H 0.4285 0.7196 0.6474
C37 C 0.3752(2) 0.61423(19) 0.70386(17)
H31 H 0.4284 0.5967 0.7298
C38 C 0.2962(2) 0.56762(19) 0.71413(16)
C39 C 0.3404(2) 0.41129(19) 0.71596(16)
C40 C 0.4323(2) 0.4060(2) 0.73125(18)
H32 H 0.4574 0.4421 0.7708
C41 C 0.4874(3) 0.3493(2) 0.6899(2)
H33 H 0.5496 0.3465 0.7010
C42 C 0.4506(3) 0.2966(2) 0.6322(2)
H34 H 0.4878 0.2572 0.6039
C43 C 0.3605(3) 0.3011(2) 0.61577(19)
H35 H 0.3357 0.2649 0.5762
C44 C 0.3055(3) 0.3586(2) 0.65705(18)
H36 H 0.2436 0.3619 0.6449
C45 C 0.3149(2) 0.4097(2) 0.88665(17)
H37 H 0.3258 0.3580 0.8528
H38 H 0.3657 0.4138 0.9234
C46 C 0.2204(2) 0.4672(2) 0.98142(18)
H39 H 0.2724 0.4738 1.0166
H40 H 0.1666 0.4561 1.0135
C47 C 0.2078(2) 0.5515(2) 0.93505(18)
H41 H 0.2000 0.6021 0.9708
H42 H 0.1533 0.5467 0.9025
C48 C 0.2901(2) 0.56645(19) 0.88332(17)
H43 H 0.2749 0.6141 0.8454
C49 C 0.3730(2) 0.5963(2) 0.92852(17)
N2 N 0.31490(17) 0.48792(16) 0.83884(13)
O4 O 0.23503(14) 0.39408(14) 0.93012(12)
O5 O 0.44909(16) 0.58781(16) 0.90681(13)
O6 O 0.35115(16) 0.63643(16) 0.99496(13)
C50 C 0.4280(3) 0.6633(3) 1.0421(2)
H44 H 0.4067 0.6924 1.0894
H45 H 0.4653 0.7044 1.0124
H46 H 0.4633 0.6112 1.0560
loop_
_geom_bond_atom_site_label_1
_geom_bond_atom_site_label_2
_geom_bond_site_symmetry_1
_geom_bond_site_symmetry_2
C1 C2 1_555 1_555
C2 C3 1_555 1_555
C3 H1 1_555 1_555
C4 C3 1_555 1_555
H2 C4 1_555 1_555
C5 C4 1_555 1_555
H3 C5 1_555 1_555
C6 C5 1_555 1_555
H4 C6 1_555 1_555
C7 C2 1_555 1_555
C8 C7 1_555 1_555
C9 C8 1_555 1_555
H5 C9 1_555 1_555
C10 C9 1_555 1_555
H6 C10 1_555 1_555
C11 C10 1_555 1_555
H7 C11 1_555 1_555
C12 C11 1_555 1_555
H8 C12 1_555 1_555
C13 C1 1_555 1_555
C14 C1 1_555 1_555
C15 C14 1_555 1_555
H9 C15 1_555 1_555
C16 C15 1_555 1_555
H10 C16 1_555 1_555
C17 C16 1_555 1_555
H11 C17 1_555 1_555
C18 C17 1_555 1_555
H12 C18 1_555 1_555
C19 C14 1_555 1_555
H13 C19 1_555 1_555
C20 H14 1_555 1_555
H15 C20 1_555 1_555
C21 H16 1_555 1_555
H17 C21 1_555 1_555
C22 C21 1_555 1_555
H18 C22 1_555 1_555
H19 C22 1_555 1_555
C23 C22 1_555 1_555
H20 C23 1_555 1_555
C24 C23 1_555 1_555
N1 C1 1_555 1_555
O1 C20 1_555 1_555
O2 C24 1_555 1_555
O3 C24 1_555 1_555
C25 O3 1_555 1_555
H21 C25 1_555 1_555
H22 C25 1_555 1_555
H23 C25 1_555 1_555
C26 C27 1_555 1_555
C27 C28 1_555 1_555
C28 H24 1_555 1_555
C29 C28 1_555 1_555
H25 C29 1_555 1_555
C30 C29 1_555 1_555
H26 C30 1_555 1_555
C31 C30 1_555 1_555
H27 C31 1_555 1_555
C32 C27 1_555 1_555
C33 C32 1_555 1_555
C34 C33 1_555 1_555
H28 C34 1_555 1_555
C35 C34 1_555 1_555
H29 C35 1_555 1_555
C36 C35 1_555 1_555
H30 C36 1_555 1_555
C37 C36 1_555 1_555
H31 C37 1_555 1_555
C38 C26 1_555 1_555
C39 C26 1_555 1_555
C40 C39 1_555 1_555
H32 C40 1_555 1_555
C41 C40 1_555 1_555
H33 C41 1_555 1_555
C42 C41 1_555 1_555
H34 C42 1_555 1_555
C43 C42 1_555 1_555
H35 C43 1_555 1_555
C44 C39 1_555 1_555
H36 C44 1_555 1_555
C45 H37 1_555 1_555
H38 C45 1_555 1_555
C46 H39 1_555 1_555
H40 C46 1_555 1_555
C47 C46 1_555 1_555
H41 C47 1_555 1_555
H42 C47 1_555 1_555
C48 C47 1_555 1_555
H43 C48 1_555 1_555
C49 C48 1_555 1_555
N2 C26 1_555 1_555
O4 C45 1_555 1_555
O5 C49 1_555 1_555
O6 C49 1_555 1_555
C50 O6 1_555 1_555
H44 C50 1_555 1_555
H45 C50 1_555 1_555
H46 C50 1_555 1_555
C6 C7 1_555 1_555
C8 C13 1_555 1_555
C12 C13 1_555 1_555
C18 C19 1_555 1_555
C20 N1 1_555 1_555
C21 O1 1_555 1_555
C23 N1 1_555 1_555
C31 C32 1_555 1_555
C33 C38 1_555 1_555
C37 C38 1_555 1_555
C43 C44 1_555 1_555
C45 N2 1_555 1_555
C46 O4 1_555 1_555
C48 N2 1_555 1_555

#END
