
#######################################################################
#
#                 Cambridge Crystallographic Data Centre
#                                CCDC 
#
#######################################################################
#
# If this CIF has been generated from an entry in the Cambridge 
# Structural Database, then it will include bibliographic, chemical, 
# crystal, experimental, refinement or atomic coordinate data resulting 
# from the CCDC's data processing and validation procedures.
#
#######################################################################

data_MAHWIE
_chemical_formula_moiety         'C30 H22'
_chemical_name_systematic        
9-(2-(3-(2-phenylvinyl)phenyl)vinyl)anthracene
_symmetry_cell_setting           monoclinic
_symmetry_space_group_name_H-M   'P 2/c'
_symmetry_Int_Tables_number      13
_space_group_name_Hall           '-P 2yc'
loop_
_symmetry_equiv_pos_site_id
_symmetry_equiv_pos_as_xyz
1 x,y,z
2 -x,y,1/2-z
3 -x,-y,-z
4 x,-y,1/2+z
_cell_length_a                   22.1305(4)
_cell_length_b                   5.90728(9)
_cell_length_c                   33.8663(6)
_cell_angle_alpha                90
_cell_angle_beta                 106.7088(18)
_cell_angle_gamma                90
_cell_volume                     4240.45
_exptl_crystal_colour            yellow
_cell_formula_units_Z            8
loop_
_atom_site_label
_atom_site_type_symbol
_atom_site_fract_x
_atom_site_fract_y
_atom_site_fract_z
C1 C 1.04929(8) 0.8456(3) 0.44453(5)
C2 C 1.05172(9) 0.6595(4) 0.47160(6)
H1 H 1.0174 0.5618 0.4668
C3 C 1.10304(11) 0.6214(4) 0.50434(7)
H2 H 1.1035 0.4982 0.5215
C4 C 1.15531(10) 0.7667(4) 0.51241(7)
H3 H 1.1902 0.7387 0.5349
C5 C 1.15546(9) 0.9455(4) 0.48813(6)
H4 H 1.1904 1.0406 0.4941
C6 C 1.10268(8) 0.9926(3) 0.45313(6)
C7 C 1.10255(9) 1.1740(3) 0.42744(6)
H5 H 1.1368 1.2724 0.4337
C8 C 1.05239(9) 1.2134(3) 0.39234(6)
C9 C 1.05352(11) 1.3925(4) 0.36456(8)
H6 H 1.0872 1.4932 0.3710
C10 C 1.00700(12) 1.4201(4) 0.32924(8)
H7 H 1.0092 1.5373 0.3114
C11 C 0.95488(11) 1.2719(4) 0.31920(7)
H8 H 0.9233 1.2902 0.2945
C12 C 0.95046(9) 1.1028(3) 0.34533(6)
H9 H 0.9152 1.0093 0.3386
C13 C 0.99886(8) 1.0655(3) 0.38300(6)
C14 C 0.99719(8) 0.8851(3) 0.40999(5)
C15 C 0.94133(8) 0.7336(3) 0.40160(6)
H10 H 0.9465 0.5843 0.3944
C16 C 0.88615(8) 0.7942(3) 0.40351(6)
H11 H 0.8823 0.9438 0.4110
C17 C 0.82847(7) 0.6549(3) 0.39524(5)
C18 C 0.82247(8) 0.4454(3) 0.37529(6)
H12 H 0.8559 0.3880 0.3669
C19 C 0.76731(8) 0.3239(3) 0.36806(5)
H13 H 0.7636 0.1850 0.3546
C20 C 0.71732(8) 0.4063(3) 0.38057(5)
H14 H 0.6806 0.3212 0.3759
C21 C 0.72136(7) 0.6152(3) 0.40012(5)
C22 C 0.77766(7) 0.7351(3) 0.40705(5)
H15 H 0.7812 0.8748 0.4202
C23 C 0.66625(8) 0.7028(3) 0.41119(5)
H16 H 0.6306 0.6110 0.4051
C24 C 0.66233(8) 0.8979(3) 0.42888(5)
H17 H 0.6986 0.9863 0.4356
C25 C 0.60758(8) 0.9933(3) 0.43931(5)
C26 C 0.54804(9) 0.8949(4) 0.42816(6)
H18 H 0.5413 0.7615 0.4129
C27 C 0.49902(10) 0.9921(4) 0.43934(7)
H19 H 0.4595 0.9237 0.4316
C28 C 0.50773(11) 1.1886(4) 0.46175(7)
H20 H 0.4744 1.2534 0.4693
C29 C 0.56579(12) 1.2884(4) 0.47291(7)
H21 H 0.5720 1.4218 0.4882
C30 C 0.61520(10) 1.1930(4) 0.46175(7)
H22 H 0.6544 1.2637 0.4694
C31 C 0.19014(8) 0.5789(3) 0.31498(6)
C32 C 0.15919(9) 0.6081(4) 0.27205(6)
H23 H 0.1687 0.5101 0.2532
C33 C 0.11647(11) 0.7744(4) 0.25810(8)
H24 H 0.0963 0.7863 0.2300
C34 C 0.10207(12) 0.9302(4) 0.28563(10)
H25 H 0.0731 1.0454 0.2757
C35 C 0.13040(11) 0.9118(4) 0.32642(9)
H26 H 0.1210 1.0163 0.3443
C36 C 0.17444(9) 0.7360(3) 0.34270(6)
C37 C 0.20104(10) 0.7082(4) 0.38485(7)
H27 H 0.1921 0.8136 0.4028
C38 C 0.24040(9) 0.5285(4) 0.40090(6)
C39 C 0.26517(11) 0.4926(5) 0.44436(7)
H28 H 0.2553 0.5951 0.4624
C40 C 0.30211(12) 0.3161(5) 0.45968(7)
H29 H 0.3172 0.2966 0.4881
C41 C 0.31827(10) 0.1596(5) 0.43319(7)
H30 H 0.3438 0.0366 0.4442
C42 C 0.29684(9) 0.1863(4) 0.39154(7)
H31 H 0.3088 0.0827 0.3745
C43 C 0.25649(8) 0.3699(3) 0.37354(6)
C44 C 0.23270(8) 0.4010(3) 0.33059(5)
C45 C 0.25246(9) 0.2456(3) 0.30240(5)
H32 H 0.2404 0.0946 0.3019
C46 C 0.28591(8) 0.3087(3) 0.27815(5)
H33 H 0.2976 0.4603 0.2796
C47 C 0.30728(8) 0.1684(3) 0.24873(5)
C48 C 0.28016(9) -0.0403(3) 0.23440(5)
H34 H 0.2469 -0.0954 0.2432
C49 C 0.30262(9) -0.1649(3) 0.20723(5)
H35 H 0.2844 -0.3040 0.1978
C50 C 0.35179(9) -0.0850(3) 0.19388(5)
H36 H 0.3668 -0.1722 0.1758
C51 C 0.37948(8) 0.1236(3) 0.20688(5)
C52 C 0.35634(8) 0.2469(3) 0.23468(5)
H37 H 0.3745 0.3861 0.2440
C53 C 0.42929(8) 0.2088(3) 0.19007(5)
H38 H 0.4428 0.1115 0.1727
C54 C 0.45695(8) 0.4085(3) 0.19690(5)
H39 H 0.4439 0.5038 0.2147
C55 C 0.50591(8) 0.4984(3) 0.17970(5)
C56 C 0.52638(9) 0.3857(3) 0.14983(6)
H40 H 0.5078 0.2489 0.1393
C57 C 0.57372(10) 0.4737(4) 0.13562(7)
H41 H 0.5871 0.3947 0.1159
C58 C 0.60146(10) 0.6761(4) 0.15009(8)
H42 H 0.6336 0.7341 0.1404
C59 C 0.58133(10) 0.7925(4) 0.17905(7)
H43 H 0.5996 0.9309 0.1889
C60 C 0.53400(9) 0.7047(3) 0.19367(6)
H44 H 0.5207 0.7854 0.2132
loop_
_geom_bond_atom_site_label_1
_geom_bond_atom_site_label_2
_geom_bond_site_symmetry_1
_geom_bond_site_symmetry_2
C1 C2 1_555 1_555
C2 H1 1_555 1_555
C3 C2 1_555 1_555
H2 C3 1_555 1_555
C4 C3 1_555 1_555
H3 C4 1_555 1_555
C5 C4 1_555 1_555
H4 C5 1_555 1_555
C6 C1 1_555 1_555
C7 C6 1_555 1_555
H5 C7 1_555 1_555
C8 C7 1_555 1_555
C9 C8 1_555 1_555
H6 C9 1_555 1_555
C10 C9 1_555 1_555
H7 C10 1_555 1_555
C11 C10 1_555 1_555
H8 C11 1_555 1_555
C12 C11 1_555 1_555
H9 C12 1_555 1_555
C13 C8 1_555 1_555
C14 C1 1_555 1_555
C15 C14 1_555 1_555
H10 C15 1_555 1_555
C16 C15 1_555 1_555
H11 C16 1_555 1_555
C17 C16 1_555 1_555
C18 C17 1_555 1_555
H12 C18 1_555 1_555
C19 C18 1_555 1_555
H13 C19 1_555 1_555
C20 C19 1_555 1_555
H14 C20 1_555 1_555
C21 C20 1_555 1_555
C22 C17 1_555 1_555
H15 C22 1_555 1_555
C23 C21 1_555 1_555
H16 C23 1_555 1_555
C24 C23 1_555 1_555
H17 C24 1_555 1_555
C25 C24 1_555 1_555
C26 C25 1_555 1_555
H18 C26 1_555 1_555
C27 C26 1_555 1_555
H19 C27 1_555 1_555
C28 C27 1_555 1_555
H20 C28 1_555 1_555
C29 C28 1_555 1_555
H21 C29 1_555 1_555
C30 C25 1_555 1_555
H22 C30 1_555 1_555
C31 C32 1_555 1_555
C32 H23 1_555 1_555
C33 C32 1_555 1_555
H24 C33 1_555 1_555
C34 C33 1_555 1_555
H25 C34 1_555 1_555
C35 C34 1_555 1_555
H26 C35 1_555 1_555
C36 C31 1_555 1_555
C37 C36 1_555 1_555
H27 C37 1_555 1_555
C38 C37 1_555 1_555
C39 C38 1_555 1_555
H28 C39 1_555 1_555
C40 C39 1_555 1_555
H29 C40 1_555 1_555
C41 C40 1_555 1_555
H30 C41 1_555 1_555
C42 C41 1_555 1_555
H31 C42 1_555 1_555
C43 C38 1_555 1_555
C44 C31 1_555 1_555
C45 C44 1_555 1_555
H32 C45 1_555 1_555
C46 C45 1_555 1_555
H33 C46 1_555 1_555
C47 C46 1_555 1_555
C48 C47 1_555 1_555
H34 C48 1_555 1_555
C49 C48 1_555 1_555
H35 C49 1_555 1_555
C50 C49 1_555 1_555
H36 C50 1_555 1_555
C51 C50 1_555 1_555
C52 C47 1_555 1_555
H37 C52 1_555 1_555
C53 C51 1_555 1_555
H38 C53 1_555 1_555
C54 C53 1_555 1_555
H39 C54 1_555 1_555
C55 C54 1_555 1_555
C56 C55 1_555 1_555
H40 C56 1_555 1_555
C57 C56 1_555 1_555
H41 C57 1_555 1_555
C58 C57 1_555 1_555
H42 C58 1_555 1_555
C59 C58 1_555 1_555
H43 C59 1_555 1_555
C60 C55 1_555 1_555
H44 C60 1_555 1_555
C5 C6 1_555 1_555
C12 C13 1_555 1_555
C13 C14 1_555 1_555
C21 C22 1_555 1_555
C29 C30 1_555 1_555
C35 C36 1_555 1_555
C42 C43 1_555 1_555
C43 C44 1_555 1_555
C51 C52 1_555 1_555
C59 C60 1_555 1_555

#END
