
#######################################################################
#
#                 Cambridge Crystallographic Data Centre
#                                CCDC 
#
#######################################################################
#
# If this CIF has been generated from an entry in the Cambridge 
# Structural Database, then it will include bibliographic, chemical, 
# crystal, experimental, refinement or atomic coordinate data resulting 
# from the CCDC's data processing and validation procedures.
#
#######################################################################

data_MAHWEA
_chemical_formula_moiety         'C30 H22'
_chemical_name_systematic        
9-(2-(2-(2-phenylvinyl)phenyl)vinyl)anthracene
_symmetry_cell_setting           orthorhombic
_symmetry_space_group_name_H-M   'P c c n'
_symmetry_Int_Tables_number      56
_space_group_name_Hall           '-P 2ab 2ac'
loop_
_symmetry_equiv_pos_site_id
_symmetry_equiv_pos_as_xyz
1 x,y,z
2 1/2-x,1/2-y,z
3 1/2+x,-y,1/2-z
4 -x,1/2+y,1/2-z
5 -x,-y,-z
6 1/2+x,1/2+y,-z
7 1/2-x,y,1/2+z
8 x,1/2-y,1/2+z
_cell_length_a                   32.3617(7)
_cell_length_b                   18.5058(5)
_cell_length_c                   7.04172(13)
_cell_angle_alpha                90
_cell_angle_beta                 90
_cell_angle_gamma                90
_cell_volume                     4217.14
_exptl_crystal_colour            yellow
_cell_formula_units_Z            8
loop_
_atom_site_label
_atom_site_type_symbol
_atom_site_fract_x
_atom_site_fract_y
_atom_site_fract_z
C1 C 0.67958(5) 0.92520(12) 0.2346(3)
C2 C 0.67446(6) 0.84864(13) 0.2280(3)
H1 H 0.6592 0.8259 0.3225
C3 C 0.69141(7) 0.80830(16) 0.0870(4)
H2 H 0.6881 0.7584 0.0876
C4 C 0.71401(8) 0.8416(2) -0.0607(4)
H3 H 0.7254 0.8137 -0.1573
C5 C 0.71910(7) 0.9134(2) -0.0616(4)
H4 H 0.7334 0.9347 -0.1617
C6 C 0.70337(5) 0.95809(16) 0.0855(3)
C7 C 0.71203(6) 1.03171(16) 0.0940(3)
H5 H 0.7268 1.0531 -0.0045
C8 C 0.69930(5) 1.07387(13) 0.2451(3)
C9 C 0.70961(7) 1.14909(16) 0.2574(5)
H6 H 0.7257 1.1701 0.1628
C10 C 0.69644(8) 1.18967(16) 0.4031(5)
H7 H 0.7035 1.2383 0.4090
C11 C 0.67216(8) 1.15936(14) 0.5457(4)
H8 H 0.6630 1.1882 0.6453
C12 C 0.66167(6) 1.08849(13) 0.5417(3)
H9 H 0.6453 1.0697 0.6383
C13 C 0.67514(5) 1.04234(11) 0.3928(3)
C14 C 0.66452(5) 0.96820(11) 0.3839(2)
C15 C 0.63833(5) 0.93748(10) 0.5352(2)
H10 H 0.6477 0.9428 0.6593
C16 C 0.60312(5) 0.90338(10) 0.5125(2)
H11 H 0.5931 0.8987 0.3893
C17 C 0.57828(5) 0.87191(8) 0.6670(2)
C18 C 0.59804(6) 0.84561(10) 0.8290(2)
H12 H 0.6267 0.8482 0.8366
C19 C 0.57634(6) 0.81598(10) 0.9778(2)
H13 H 0.5902 0.7986 1.0840
C20 C 0.53392(6) 0.81226(10) 0.9685(2)
H14 H 0.5190 0.7930 1.0693
C21 C 0.51367(5) 0.83716(9) 0.8094(2)
H15 H 0.4850 0.8346 0.8048
C22 C 0.53499(5) 0.86616(8) 0.6546(2)
C23 C 0.51230(5) 0.89086(9) 0.4861(2)
H16 H 0.5235 0.9292 0.4178
C24 C 0.47711(5) 0.86282(10) 0.4238(3)
H17 H 0.4663 0.8248 0.4942
C25 C 0.45342(5) 0.88505(10) 0.2566(3)
C26 C 0.45846(7) 0.95215(11) 0.1723(3)
H18 H 0.4772 0.9849 0.2239
C27 C 0.43630(8) 0.97110(15) 0.0138(4)
H19 H 0.4400 1.0165 -0.0403
C28 C 0.40875(8) 0.92377(19) -0.0654(4)
H20 H 0.3940 0.9368 -0.1734
C29 C 0.40305(7) 0.85735(18) 0.0151(4)
H21 H 0.3843 0.8251 -0.0384
C30 C 0.42505(6) 0.83766(13) 0.1760(3)
H22 H 0.4208 0.7925 0.2303
loop_
_geom_bond_atom_site_label_1
_geom_bond_atom_site_label_2
_geom_bond_site_symmetry_1
_geom_bond_site_symmetry_2
C1 C2 1_555 1_555
C2 H1 1_555 1_555
C3 C2 1_555 1_555
H2 C3 1_555 1_555
C4 C3 1_555 1_555
H3 C4 1_555 1_555
C5 C4 1_555 1_555
H4 C5 1_555 1_555
C6 C1 1_555 1_555
C7 C6 1_555 1_555
H5 C7 1_555 1_555
C8 C7 1_555 1_555
C9 C8 1_555 1_555
H6 C9 1_555 1_555
C10 C9 1_555 1_555
H7 C10 1_555 1_555
C11 C10 1_555 1_555
H8 C11 1_555 1_555
C12 C11 1_555 1_555
H9 C12 1_555 1_555
C13 C8 1_555 1_555
C14 C1 1_555 1_555
C15 C14 1_555 1_555
H10 C15 1_555 1_555
C16 C15 1_555 1_555
H11 C16 1_555 1_555
C17 C16 1_555 1_555
C18 C17 1_555 1_555
H12 C18 1_555 1_555
C19 C18 1_555 1_555
H13 C19 1_555 1_555
C20 C19 1_555 1_555
H14 C20 1_555 1_555
C21 C20 1_555 1_555
H15 C21 1_555 1_555
C22 C17 1_555 1_555
C23 C22 1_555 1_555
H16 C23 1_555 1_555
C24 C23 1_555 1_555
H17 C24 1_555 1_555
C25 C24 1_555 1_555
C26 C25 1_555 1_555
H18 C26 1_555 1_555
C27 C26 1_555 1_555
H19 C27 1_555 1_555
C28 C27 1_555 1_555
H20 C28 1_555 1_555
C29 C28 1_555 1_555
H21 C29 1_555 1_555
C30 C25 1_555 1_555
H22 C30 1_555 1_555
C5 C6 1_555 1_555
C12 C13 1_555 1_555
C13 C14 1_555 1_555
C21 C22 1_555 1_555
C29 C30 1_555 1_555

#END
