
#######################################################################
#
#                 Cambridge Crystallographic Data Centre
#                                CCDC 
#
#######################################################################
#
# If this CIF has been generated from an entry in the Cambridge 
# Structural Database, then it will include bibliographic, chemical, 
# crystal, experimental, refinement or atomic coordinate data resulting 
# from the CCDC's data processing and validation procedures.
#
#######################################################################

data_MAHXOI
_chemical_formula_moiety         'C36 H54 N4 O6'
_chemical_name_systematic        
"Hexyl 2,4-di-isobutoxy-5-(N-(N'-(3'-hexanoylamidophenyl)carbamoylmethyl)carbamoyl)benzamide"
_symmetry_cell_setting           monoclinic
_symmetry_space_group_name_H-M   'C 2/c'
_symmetry_Int_Tables_number      15
_space_group_name_Hall           '-C 2yn'
loop_
_symmetry_equiv_pos_site_id
_symmetry_equiv_pos_as_xyz
1 x,y,z
2 -x,y,1/2-z
3 1/2+x,1/2+y,z
4 1/2-x,1/2+y,1/2-z
5 -x,-y,-z
6 x,-y,1/2+z
7 1/2-x,1/2-y,-z
8 1/2+x,1/2-y,1/2+z
_cell_length_a                   17.008(2)
_cell_length_b                   31.426(3)
_cell_length_c                   14.379(2)
_cell_angle_alpha                90
_cell_angle_beta                 111.73(1)
_cell_angle_gamma                90
_cell_volume                     7139.34
_cell_formula_units_Z            8
loop_
_atom_site_label
_atom_site_type_symbol
_atom_site_fract_x
_atom_site_fract_y
_atom_site_fract_z
C1 C 0.4340(2) 0.1192(1) 0.3385(3)
C2 C 0.4536(2) 0.1540(1) 0.4031(3)
C3 C 0.4347(2) 0.1955(1) 0.3720(3)
C4 C 0.3978(2) 0.2029(1) 0.2689(3)
C5 C 0.3795(2) 0.1692(1) 0.2008(3)
C6 C 0.3950(2) 0.1276(1) 0.2360(3)
C7 C 0.4568(3) 0.2291(1) 0.4506(3)
O1 O 0.5269(2) 0.2288(1) 0.5196(2)
N1 N 0.3968(2) 0.2572(1) 0.4447(3)
C8 C 0.4034(3) 0.2899(2) 0.5184(4)
C9 C 0.4252(7) 0.3323(2) 0.4950(10)
C10 C 0.3889(6) 0.3605(4) 0.4525(11)
C11 C 0.4126(10) 0.4053(3) 0.4371(8)
C12 C 0.4131(12) 0.4243(3) 0.3700(11)
C13 C 0.4385(6) 0.4682(2) 0.3555(6)
O2 O 0.3815(2) 0.2443(1) 0.2389(2)
C14 C 0.3565(3) 0.2538(1) 0.1349(4)
C15 C 0.3413(4) 0.3010(2) 0.1229(5)
C16 C 0.3983(7) 0.3243(2) 0.1296(13)
C17 C 0.2643(3) 0.3146(2) 0.1434(4)
O3 O 0.3730(2) 0.0939(1) 0.1720(2)
C18 C 0.3264(3) 0.1003(1) 0.0673(3)
C19 C 0.2940(3) 0.0572(1) 0.0202(3)
C20 C 0.2575(3) 0.0613(1) -0.0931(3)
C21 C 0.2287(3) 0.0390(1) 0.0584(4)
C22 C 0.4564(2) 0.0760(1) 0.3873(3)
O4 O 0.4939(2) 0.0731(1) 0.4779(2)
N2 N 0.4332(2) 0.0419(1) 0.3281(2)
C23 C 0.4494(3) -0.0011(1) 0.3666(3)
C24 C 0.4163(3) -0.0315(1) 0.2791(3)
O5 O 0.3844(2) -0.0179(1) 0.1933(2)
N3 N 0.4254(2) -0.0730(1) 0.3038(2)
C25 C 0.4003(2) -0.1083(1) 0.2385(3)
C26 C 0.4044(2) -0.1485(1) 0.2811(3)
C27 C 0.3816(2) -0.1845(1) 0.2209(3)
C28 C 0.3551(3) -0.1806(1) 0.1184(3)
C29 C 0.3507(3) -0.1409(1) 0.0763(3)
C30 C 0.3724(2) -0.1048(1) 0.1347(3)
N4 N 0.3865(2) -0.2247(1) 0.2684(2)
C31 C 0.3324(3) -0.2574(1) 0.2312(3)
O6 O 0.2768(2) -0.2573(1) 0.1475(2)
C32 C 0.3430(3) -0.2953(1) 0.2972(4)
C33 C 0.3529(4) -0.3365(1) 0.2465(4)
C34 C 0.3502(4) -0.3758(2) 0.2993(4)
C35 C 0.3686(5) -0.4160(2) 0.2556(6)
C36 C 0.3031(6) -0.4292(2) 0.1585(7)
H1 H 0.4810 0.1488 0.4713
H2 H 0.3570 0.1746 0.1323
H3 H 0.3504 0.2558 0.3932
H4 H 0.4457 0.2811 0.5818
H5 H 0.3497 0.2915 0.5274
H6 H 0.4581 0.3440 0.5603
H7 H 0.4658 0.3268 0.4637
H8 H 0.3441 0.3641 0.4783
H9 H 0.3611 0.3498 0.3849
H10 H 0.3783 0.4226 0.4635
H11 H 0.4700 0.4081 0.4851
H12 H 0.3552 0.4223 0.3227
H13 H 0.4459 0.4066 0.3423
H14 H 0.4418 0.4705 0.2905
H15 H 0.4927 0.4745 0.4060
H16 H 0.3972 0.4880 0.3606
H17 H 0.3052 0.2384 0.0967
H18 H 0.4006 0.2455 0.1109
H19 H 0.3148 0.3011 0.0497
H20 H 0.3773 0.3528 0.1149
H21 H 0.4236 0.3157 0.0830
H22 H 0.4399 0.3231 0.1964
H23 H 0.2504 0.3435 0.1217
H24 H 0.2759 0.3126 0.2138
H25 H 0.2175 0.2964 0.1075
H26 H 0.3628 0.1128 0.0362
H27 H 0.2793 0.1194 0.0576
H28 H 0.3421 0.0376 0.0386
H29 H 0.2999 0.0723 -0.1157
H30 H 0.2100 0.0804 -0.1126
H31 H 0.2393 0.0339 -0.1224
H32 H 0.2533 0.0362 0.1299
H33 H 0.2109 0.0115 0.0289
H34 H 0.1807 0.0576 0.0405
H35 H 0.4077 0.0456 0.2647
H36 H 0.4211 -0.0061 0.4130
H37 H 0.5097 -0.0053 0.4018
H38 H 0.4492 -0.0788 0.3665
H39 H 0.4225 -0.1513 0.3503
H40 H 0.3402 -0.2046 0.0779
H41 H 0.3327 -0.1384 0.0071
H42 H 0.3686 -0.0782 0.1049
H43 H 0.4270 -0.2284 0.3253
H44 H 0.2941 -0.2977 0.3163
H45 H 0.3925 -0.2913 0.3578
H46 H 0.3084 -0.3376 0.1806
H47 H 0.4065 -0.3354 0.2371
H48 H 0.2944 -0.3783 0.3024
H49 H 0.3905 -0.3734 0.3676
H50 H 0.4219 -0.4126 0.2463
H51 H 0.3759 -0.4388 0.3036
H52 H 0.3208 -0.4549 0.1359
H53 H 0.2957 -0.4071 0.1099
H54 H 0.2506 -0.4341 0.1672
loop_
_geom_bond_atom_site_label_1
_geom_bond_atom_site_label_2
_geom_bond_site_symmetry_1
_geom_bond_site_symmetry_2
C1 C2 1_555 1_555
C2 C3 1_555 1_555
C3 C4 1_555 1_555
C4 C5 1_555 1_555
C5 C6 1_555 1_555
C6 C1 1_555 1_555
C7 C3 1_555 1_555
O1 C7 1_555 1_555
N1 C7 1_555 1_555
C8 N1 1_555 1_555
C9 C8 1_555 1_555
C10 C9 1_555 1_555
C11 C10 1_555 1_555
C12 C11 1_555 1_555
C13 C12 1_555 1_555
O2 C4 1_555 1_555
C14 O2 1_555 1_555
C15 C14 1_555 1_555
C16 C15 1_555 1_555
C17 C15 1_555 1_555
O3 C6 1_555 1_555
C18 O3 1_555 1_555
C19 C18 1_555 1_555
C20 C19 1_555 1_555
C21 C19 1_555 1_555
C22 C1 1_555 1_555
O4 C22 1_555 1_555
N2 C22 1_555 1_555
C23 N2 1_555 1_555
C24 C23 1_555 1_555
O5 C24 1_555 1_555
N3 C24 1_555 1_555
C25 N3 1_555 1_555
C26 C25 1_555 1_555
C27 C26 1_555 1_555
C28 C27 1_555 1_555
C29 C28 1_555 1_555
C30 C25 1_555 1_555
N4 C27 1_555 1_555
C31 N4 1_555 1_555
O6 C31 1_555 1_555
C32 C31 1_555 1_555
C33 C32 1_555 1_555
C34 C33 1_555 1_555
C35 C34 1_555 1_555
C36 C35 1_555 1_555
H1 C2 1_555 1_555
H2 C5 1_555 1_555
H3 N1 1_555 1_555
H4 C8 1_555 1_555
H5 C8 1_555 1_555
H6 C9 1_555 1_555
H7 C9 1_555 1_555
H8 C10 1_555 1_555
H9 C10 1_555 1_555
H10 C11 1_555 1_555
H11 C11 1_555 1_555
H12 C12 1_555 1_555
H13 C12 1_555 1_555
H14 C13 1_555 1_555
H15 C13 1_555 1_555
H16 C13 1_555 1_555
H17 C14 1_555 1_555
H18 C14 1_555 1_555
H19 C15 1_555 1_555
H20 C16 1_555 1_555
H21 C16 1_555 1_555
H22 C16 1_555 1_555
H23 C17 1_555 1_555
H24 C17 1_555 1_555
H25 C17 1_555 1_555
H26 C18 1_555 1_555
H27 C18 1_555 1_555
H28 C19 1_555 1_555
H29 C20 1_555 1_555
H30 C20 1_555 1_555
H31 C20 1_555 1_555
H32 C21 1_555 1_555
H33 C21 1_555 1_555
H34 C21 1_555 1_555
H35 N2 1_555 1_555
H36 C23 1_555 1_555
H37 C23 1_555 1_555
H38 N3 1_555 1_555
H39 C26 1_555 1_555
H40 C28 1_555 1_555
H41 C29 1_555 1_555
H42 C30 1_555 1_555
H43 N4 1_555 1_555
H44 C32 1_555 1_555
H45 C32 1_555 1_555
H46 C33 1_555 1_555
H47 C33 1_555 1_555
H48 C34 1_555 1_555
H49 C34 1_555 1_555
H50 C35 1_555 1_555
H51 C35 1_555 1_555
H52 C36 1_555 1_555
H53 C36 1_555 1_555
H54 C36 1_555 1_555
C29 C30 1_555 1_555

#END
