
#######################################################################
#
#                 Cambridge Crystallographic Data Centre
#                                CCDC 
#
#######################################################################
#
# If this CIF has been generated from an entry in the Cambridge 
# Structural Database, then it will include bibliographic, chemical, 
# crystal, experimental, refinement or atomic coordinate data resulting 
# from the CCDC's data processing and validation procedures.
#
#######################################################################

data_MAJFAF
_chemical_formula_moiety         'C19 H18 N2 O4 S1'
_chemical_name_systematic        
'Methyl 2-((3-(4-methylsulfanyl)phenyl-1,2,4-oxadiazol-5-yl)methoxy)phenylacetate'
_chemical_properties_biological  'potential biological activity'
_symmetry_cell_setting           triclinic
_symmetry_space_group_name_H-M   'P -1'
_symmetry_Int_Tables_number      2
_space_group_name_Hall           '-P 1'
loop_
_symmetry_equiv_pos_site_id
_symmetry_equiv_pos_as_xyz
1 x,y,z
2 -x,-y,-z
_cell_length_a                   8.3580(17)
_cell_length_b                   10.522(2)
_cell_length_c                   10.581(2)
_cell_angle_alpha                90.13(3)
_cell_angle_beta                 102.08(3)
_cell_angle_gamma                99.73(3)
_cell_volume                     896.145
_exptl_crystal_colour            colorless
_exptl_crystal_description       block
_chemical_melting_point          '359-360 K'
_cell_formula_units_Z            2
_exptl_crystal_recrystallization_method ethanol
loop_
_atom_site_label
_atom_site_type_symbol
_atom_site_fract_x
_atom_site_fract_y
_atom_site_fract_z
S1 S 0.10592(7) -0.01231(6) 0.85337(7)
O1 O 0.84214(18) -0.42310(16) 1.09084(14)
N1 N 0.6154(2) -0.41523(16) 1.16328(15)
O2 O 0.60500(19) -0.87935(14) 1.60436(19)
O3 O 0.84235(17) -0.74158(15) 1.66992(18)
O4 O 0.73315(17) -0.57758(13) 1.37455(13)
N2 N 0.7524(2) -0.3417(2) 1.00828(18)
C1 C 0.1752(3) 0.0760(3) 0.7257(3)
H1 H 0.0988 0.1325 0.6921
H2 H 0.1807 0.0171 0.6580
H3 H 0.2834 0.1261 0.7582
C2 C 0.2567(3) -0.1099(2) 0.9043(2)
C3 C 0.4027(3) -0.1014(2) 0.8583(2)
H4 H 0.4219 -0.0440 0.7942
C4 C 0.5187(3) -0.1773(2) 0.9070(2)
H5 H 0.6153 -0.1704 0.8752
C5 C 0.4938(2) -0.26386(19) 1.00257(18)
C6 C 0.3469(3) -0.2735(2) 1.04728(19)
H6 H 0.3274 -0.3316 1.1106
C7 C 0.2297(3) -0.1976(2) 0.9987(2)
H7 H 0.1322 -0.2055 1.0295
C8 C 0.6211(2) -0.34094(18) 1.05643(18)
C9 C 0.7519(2) -0.46117(19) 1.17841(18)
C10 C 0.8221(3) -0.5517(2) 1.27483(19)
H8 H 0.8220 -0.6324 1.2302
H9 H 0.9366 -0.5151 1.3132
C11 C 0.7634(2) -0.48744(17) 1.47516(17)
C12 C 0.8581(2) -0.36543(18) 1.47633(19)
H10 H 0.9068 -0.3402 1.4069
C13 C 0.8792(2) -0.28157(18) 1.5822(2)
H11 H 0.9427 -0.1998 1.5834
C14 C 0.8075(3) -0.3176(2) 1.6855(2)
H12 H 0.8222 -0.2607 1.7560
C15 C 0.7130(2) -0.4400(2) 1.68307(19)
H13 H 0.6640 -0.4643 1.7526
C16 C 0.6901(2) -0.52673(17) 1.57939(18)
C17 C 0.5908(2) -0.66007(18) 1.5795(2)
H14 H 0.5144 -0.6591 1.6369
H15 H 0.5253 -0.6835 1.4930
C18 C 0.6967(2) -0.76086(18) 1.62162(19)
C19 C 0.6930(3) -0.9844(2) 1.6429(3)
H16 H 0.6168 -1.0647 1.6265
H17 H 0.7428 -0.9741 1.7336
H18 H 0.7781 -0.9842 1.5944
loop_
_geom_bond_atom_site_label_1
_geom_bond_atom_site_label_2
_geom_bond_site_symmetry_1
_geom_bond_site_symmetry_2
S1 C1 1_555 1_555
O1 N2 1_555 1_555
N1 C8 1_555 1_555
O2 C18 1_555 1_555
O3 C18 1_555 1_555
O4 C10 1_555 1_555
N2 C8 1_555 1_555
C1 H1 1_555 1_555
H2 C1 1_555 1_555
H3 C1 1_555 1_555
C2 S1 1_555 1_555
C3 C2 1_555 1_555
H4 C3 1_555 1_555
C4 C3 1_555 1_555
H5 C4 1_555 1_555
C5 C4 1_555 1_555
C6 C5 1_555 1_555
H6 C6 1_555 1_555
C7 C2 1_555 1_555
H7 C7 1_555 1_555
C8 C5 1_555 1_555
C9 O1 1_555 1_555
C10 C9 1_555 1_555
H8 C10 1_555 1_555
H9 C10 1_555 1_555
C11 O4 1_555 1_555
C12 C11 1_555 1_555
H10 C12 1_555 1_555
C13 C12 1_555 1_555
H11 C13 1_555 1_555
C14 C13 1_555 1_555
H12 C14 1_555 1_555
C15 C14 1_555 1_555
H13 C15 1_555 1_555
C16 C11 1_555 1_555
C17 C16 1_555 1_555
H14 C17 1_555 1_555
H15 C17 1_555 1_555
C18 C17 1_555 1_555
C19 O2 1_555 1_555
H16 C19 1_555 1_555
H17 C19 1_555 1_555
H18 C19 1_555 1_555
N1 C9 1_555 1_555
C6 C7 1_555 1_555
C15 C16 1_555 1_555

#END
