
#######################################################################
#
#                 Cambridge Crystallographic Data Centre
#                                CCDC 
#
#######################################################################
#
# If this CIF has been generated from an entry in the Cambridge 
# Structural Database, then it will include bibliographic, chemical, 
# crystal, experimental, refinement or atomic coordinate data resulting 
# from the CCDC's data processing and validation procedures.
#
#######################################################################

data_MAJGIQ
_chemical_formula_moiety         'C13 H15 F1 N2 O3 S1'
_chemical_name_systematic        
'2-Methoxyethyl (1-(6-fluoro-1,3-benzothiazol-2-yl)ethyl)carbamate'
_chemical_properties_biological  'AChE inhibitory activity'
_symmetry_cell_setting           orthorhombic
_symmetry_space_group_name_H-M   'P 21 21 21'
_symmetry_Int_Tables_number      19
_space_group_name_Hall           'P 2ac 2ab'
loop_
_symmetry_equiv_pos_site_id
_symmetry_equiv_pos_as_xyz
1 x,y,z
2 1/2-x,-y,1/2+z
3 1/2+x,1/2-y,-z
4 -x,1/2+y,1/2-z
_cell_length_a                   7.3800(6)
_cell_length_b                   14.6477(14)
_cell_length_c                   39.240(3)
_cell_angle_alpha                90
_cell_angle_beta                 90
_cell_angle_gamma                90
_cell_volume                     4241.85
_exptl_crystal_colour            colorless
_exptl_crystal_description       block
_cell_formula_units_Z            12
loop_
_atom_site_label
_atom_site_type_symbol
_atom_site_fract_x
_atom_site_fract_y
_atom_site_fract_z
S1 S 0.5497(2) 0.54815(11) 0.10715(4)
F1 F 0.8478(7) 0.3181(3) 0.02482(12)
N1 N 0.2537(7) 0.4891(4) 0.07908(16)
N2 N 0.2461(7) 0.5978(4) 0.15877(15)
H1 H 0.2879 0.5463 0.1658
C1 C 0.5703(9) 0.4668(4) 0.07506(16)
O1 O 0.1823(8) 0.7434(3) 0.17300(14)
O2 O 0.2614(7) 0.6406(3) 0.21275(13)
C2 C 0.2264(9) 0.6664(4) 0.18077(19)
C3 C 0.3140(8) 0.5456(4) 0.10174(17)
C4 C 0.5319(12) 0.3361(5) 0.02495(18)
H2 H 0.5235 0.2924 0.0078
C5 C 0.6999(11) 0.3615(6) 0.0377(2)
C6 C 0.3769(11) 0.3773(5) 0.03821(18)
H3 H 0.2623 0.3609 0.0305
C7 C 0.1992(9) 0.6087(5) 0.12296(18)
H4 H 0.2283 0.6715 0.1164
O3 O 0.2681(9) 0.5989(5) 0.28319(15)
C8 C 0.3420(13) 0.6772(6) 0.2698(2)
H5 H 0.4676 0.6667 0.2636
H6 H 0.3388 0.7248 0.2869
C9 C 0.7248(9) 0.4275(5) 0.06242(19)
H7 H 0.8394 0.4440 0.0701
C10 C -0.0020(9) 0.5934(5) 0.11649(19)
H8 H -0.0332 0.5315 0.1220
H9 H -0.0282 0.6048 0.0929
H10 H -0.0714 0.6343 0.1304
C11 C 0.3351(13) 0.5775(7) 0.3155(2)
H11 H 0.4652 0.5779 0.3151
H12 H 0.2932 0.5181 0.3222
H13 H 0.2924 0.6222 0.3315
C12 C 0.3979(9) 0.4441(5) 0.06359(17)
C13 C 0.2391(12) 0.7088(6) 0.2392(2)
H14 H 0.1117 0.7154 0.2448
H15 H 0.2843 0.7675 0.2315
S2 S 0.5230(2) 0.87905(11) 0.10636(5)
C14 C 0.3761(9) 0.7739(4) 0.06205(16)
O4 O 0.1402(7) 1.0767(3) 0.16894(14)
C15 C 0.5478(9) 0.7988(4) 0.07436(17)
N3 N 0.2318(7) 0.8196(4) 0.07726(16)
C16 C 0.1695(9) 0.9373(4) 0.12111(17)
H16 H 0.1921 1.0001 0.1137
F2 F 0.8342(7) 0.6499(3) 0.02527(12)
O5 O 0.2213(7) 0.9780(4) 0.21048(14)
N4 N 0.2202(7) 0.9308(4) 0.15694(15)
H17 H 0.2701 0.8818 0.1646
C17 C 0.1902(8) 1.0015(5) 0.17790(19)
C18 C 0.2884(8) 0.8753(5) 0.10024(18)
C19 C 0.6819(11) 0.6939(5) 0.0374(2)
C20 C 0.3625(12) 0.7071(5) 0.03659(19)
H18 H 0.2502 0.6904 0.0278
C21 C 0.7059(10) 0.7576(5) 0.06195(19)
H19 H 0.8200 0.7725 0.0703
C22 C 0.5178(12) 0.6671(5) 0.02455(19)
H20 H 0.5123 0.6219 0.0079
C23 C -0.0300(9) 0.9170(5) 0.1157(2)
H21 H -0.0559 0.8553 0.1224
H22 H -0.0593 0.9248 0.0920
H23 H -0.1012 0.9583 0.1292
C24 C 0.1704(11) 1.0459(6) 0.2353(2)
H24 H 0.0412 1.0577 0.2340
H25 H 0.2333 1.1025 0.2303
O6 O 0.1889(13) 0.9311(5) 0.27850(17)
C25 C 0.2242(18) 1.0171(6) 0.2694(2)
H26 H 0.3522 1.0292 0.2727
H27 H 0.1589 1.0559 0.2852
C26 C 0.2253(15) 0.9118(8) 0.3130(2)
H28 H 0.3532 0.9160 0.3172
H29 H 0.1843 0.8511 0.3181
H30 H 0.1625 0.9548 0.3271
S3 S 0.5267(2) 0.21607(11) 0.10725(5)
F3 F 0.8337(7) -0.0139(3) 0.02619(12)
N5 N 0.2100(7) 0.2633(4) 0.15850(16)
H31 H 0.2082 0.2091 0.1669
C27 C 0.2918(9) 0.2115(5) 0.10143(19)
C28 C 0.1739(9) 0.2743(5) 0.12253(19)
H32 H 0.2049 0.3373 0.1164
O7 O 0.2479(7) 0.3066(3) 0.21188(14)
N6 N 0.2334(7) 0.1556(4) 0.07879(16)
O8 O 0.2811(8) 0.4097(4) 0.16952(16)
C29 C 0.3790(10) 0.1094(4) 0.06312(18)
C30 C 0.6837(11) 0.0284(5) 0.03857(19)
C31 C 0.5503(10) 0.1341(4) 0.07556(17)
C32 C 0.2469(9) 0.3325(5) 0.1788(2)
C33 C 0.7076(10) 0.0933(5) 0.0629(2)
H33 H 0.8221 0.1097 0.0707
C34 C 0.5175(12) 0.0024(6) 0.0258(2)
H34 H 0.5114 -0.0424 0.0090
C35 C -0.0264(10) 0.2602(5) 0.1145(2)
H35 H -0.0620 0.1994 0.1206
H36 H -0.0462 0.2692 0.0905
H37 H -0.0972 0.3035 0.1271
C36 C 0.3005(14) 0.3748(6) 0.2362(2)
H38 H 0.2421 0.4323 0.2307
H39 H 0.4306 0.3838 0.2357
O9 O 0.3302(9) 0.2621(5) 0.27969(14)
C37 C 0.3615(11) 0.0420(5) 0.03781(19)
H40 H 0.2485 0.0249 0.0295
C38 C 0.3057(14) 0.2396(9) 0.3141(2)
H41 H 0.3663 0.2844 0.3279
H42 H 0.3552 0.1803 0.3188
H43 H 0.1786 0.2398 0.3193
C39 C 0.2434(15) 0.3442(7) 0.2705(2)
H44 H 0.2717 0.3909 0.2872
H45 H 0.1132 0.3350 0.2706
loop_
_geom_bond_atom_site_label_1
_geom_bond_atom_site_label_2
_geom_bond_site_symmetry_1
_geom_bond_site_symmetry_2
S1 C1 1_555 1_555
F1 C5 1_555 1_555
N1 C3 1_555 1_555
N2 H1 1_555 1_555
C1 C9 1_555 1_555
O1 C2 1_555 1_555
O2 C2 1_555 1_555
C2 N2 1_555 1_555
C3 S1 1_555 1_555
C4 H2 1_555 1_555
C5 C4 1_555 1_555
C6 C4 1_555 1_555
H3 C6 1_555 1_555
C7 N2 1_555 1_555
H4 C7 1_555 1_555
O3 C8 1_555 1_555
C8 H5 1_555 1_555
H6 C8 1_555 1_555
C9 C5 1_555 1_555
H7 C9 1_555 1_555
C10 C7 1_555 1_555
H8 C10 1_555 1_555
H9 C10 1_555 1_555
H10 C10 1_555 1_555
C11 O3 1_555 1_555
H11 C11 1_555 1_555
H12 C11 1_555 1_555
H13 C11 1_555 1_555
C12 N1 1_555 1_555
C13 O2 1_555 1_555
H14 C13 1_555 1_555
H15 C13 1_555 1_555
S2 C15 1_555 1_555
C14 C15 1_555 1_555
O4 C17 1_555 1_555
C15 C21 1_555 1_555
N3 C14 1_555 1_555
C16 H16 1_555 1_555
F2 C19 1_555 1_555
O5 C17 1_555 1_555
N4 C16 1_555 1_555
H17 N4 1_555 1_555
C17 N4 1_555 1_555
C18 S2 1_555 1_555
C19 C21 1_555 1_555
C20 C14 1_555 1_555
H18 C20 1_555 1_555
C21 H19 1_555 1_555
C22 C19 1_555 1_555
H20 C22 1_555 1_555
C23 C16 1_555 1_555
H21 C23 1_555 1_555
H22 C23 1_555 1_555
H23 C23 1_555 1_555
C24 O5 1_555 1_555
H24 C24 1_555 1_555
H25 C24 1_555 1_555
O6 C25 1_555 1_555
C25 C24 1_555 1_555
H26 C25 1_555 1_555
H27 C25 1_555 1_555
C26 O6 1_555 1_555
H28 C26 1_555 1_555
H29 C26 1_555 1_555
H30 C26 1_555 1_555
S3 C27 1_555 1_555
F3 C30 1_555 1_555
N5 H31 1_555 1_555
C27 C28 1_555 1_555
C28 N5 1_555 1_555
H32 C28 1_555 1_555
O7 C32 1_555 1_555
N6 C27 1_555 1_555
O8 C32 1_555 1_555
C29 N6 1_555 1_555
C30 C33 1_555 1_555
C31 S3 1_555 1_555
C32 N5 1_555 1_555
C33 C31 1_555 1_555
H33 C33 1_555 1_555
C34 C30 1_555 1_555
H34 C34 1_555 1_555
C35 C28 1_555 1_555
H35 C35 1_555 1_555
H36 C35 1_555 1_555
H37 C35 1_555 1_555
C36 O7 1_555 1_555
H38 C36 1_555 1_555
H39 C36 1_555 1_555
O9 C38 1_555 1_555
C37 C29 1_555 1_555
H40 C37 1_555 1_555
C38 H41 1_555 1_555
H42 C38 1_555 1_555
H43 C38 1_555 1_555
C39 C36 1_555 1_555
H44 C39 1_555 1_555
H45 C39 1_555 1_555
C1 C12 1_555 1_555
C3 C7 1_555 1_555
C6 C12 1_555 1_555
C8 C13 1_555 1_555
N3 C18 1_555 1_555
C16 C18 1_555 1_555
C20 C22 1_555 1_555
C29 C31 1_555 1_555
C34 C37 1_555 1_555
O9 C39 1_555 1_555

#END
