
#######################################################################
#
#                 Cambridge Crystallographic Data Centre
#                                CCDC 
#
#######################################################################
#
# If this CIF has been generated from an entry in the Cambridge 
# Structural Database, then it will include bibliographic, chemical, 
# crystal, experimental, refinement or atomic coordinate data resulting 
# from the CCDC's data processing and validation procedures.
#
#######################################################################

data_MAJGUC
_chemical_formula_moiety         'C25 H28 N2 O1 S2'
_chemical_name_systematic        
5-(2-(3-Butyl-1,1-dimethyl-1,3-dihydro-2H-benzo[e]indol-2-ylidene)ethylidene)-3-ethyl-2-sulfanylidene-1,3-thiazolidin-4-one
_symmetry_cell_setting           monoclinic
_symmetry_space_group_name_H-M   'P 21/c'
_symmetry_Int_Tables_number      14
_space_group_name_Hall           '-P 2ybc'
loop_
_symmetry_equiv_pos_site_id
_symmetry_equiv_pos_as_xyz
1 x,y,z
2 -x,1/2+y,1/2-z
3 -x,-y,-z
4 x,1/2-y,1/2+z
_cell_length_a                   10.789(5)
_cell_length_b                   19.824(9)
_cell_length_c                   10.880(5)
_cell_angle_alpha                90
_cell_angle_beta                 94.378(11)
_cell_angle_gamma                90
_cell_volume                     2320.24
_exptl_crystal_description       block
_cell_formula_units_Z            4
loop_
_atom_site_label
_atom_site_type_symbol
_atom_site_fract_x
_atom_site_fract_y
_atom_site_fract_z
S1 S 0.63926(16) 0.04114(7) 0.97720(15)
S2 S 0.6875(2) -0.10518(8) 1.01856(18)
N1 N 0.8143(5) -0.0018(2) 1.1290(4)
N2 N 0.5625(4) 0.3063(2) 0.8596(4)
O1 O 0.9053(4) 0.0950(2) 1.2098(4)
C1 C 0.8184(6) 0.4807(3) 1.0470(5)
H1 H 0.8645 0.4485 1.0929
C2 C 0.8514(6) 0.5471(3) 1.0588(6)
H2 H 0.9191 0.5594 1.1121
C3 C 0.7844(7) 0.5961(3) 0.9917(6)
H3 H 0.8084 0.6411 0.9986
C4 C 0.6825(7) 0.5783(3) 0.9149(6)
H4 H 0.6366 0.6118 0.8724
C5 C 0.6460(6) 0.5098(3) 0.8993(5)
C6 C 0.5464(6) 0.4915(3) 0.8161(6)
H5 H 0.5014 0.5252 0.7733
C7 C 0.5132(6) 0.4261(3) 0.7957(6)
H6 H 0.4480 0.4145 0.7388
C8 C 0.5816(6) 0.3766(3) 0.8642(5)
C9 C 0.6786(6) 0.3919(3) 0.9476(5)
C10 C 0.7169(6) 0.4594(3) 0.9678(5)
C11 C 0.7298(6) 0.3264(3) 1.0056(5)
C12 C 0.6405(5) 0.2735(3) 0.9422(5)
C13 C 0.4658(6) 0.2760(3) 0.7739(5)
H7 H 0.4856 0.2287 0.7625
H8 H 0.4669 0.2981 0.6945
C14 C 0.3365(5) 0.2811(3) 0.8174(6)
H9 H 0.3157 0.3283 0.8282
H10 H 0.3345 0.2589 0.8966
C15 C 0.2405(6) 0.2491(3) 0.7263(6)
H11 H 0.2598 0.2016 0.7180
H12 H 0.2452 0.2701 0.6462
C16 C 0.1077(7) 0.2563(4) 0.7662(8)
H13 H 0.1034 0.2372 0.8469
H14 H 0.0510 0.2329 0.7088
H15 H 0.0857 0.3032 0.7680
C17 C 0.7172(6) 0.3272(3) 1.1464(5)
H16 H 0.7725 0.3604 1.1843
H17 H 0.7380 0.2836 1.1802
H18 H 0.6331 0.3382 1.1621
C18 C 0.8648(5) 0.3137(3) 0.9701(6)
H19 H 0.8671 0.3166 0.8822
H20 H 0.8913 0.2696 0.9973
H21 H 0.9193 0.3470 1.0088
C19 C 0.6400(6) 0.2054(3) 0.9619(5)
H22 H 0.5780 0.1805 0.9185
C20 C 0.7255(6) 0.1695(3) 1.0425(5)
H23 H 0.7825 0.1951 1.0908
C21 C 0.7330(6) 0.1011(3) 1.0569(5)
C22 C 0.8261(6) 0.0689(3) 1.1402(6)
C23 C 0.7223(6) -0.0251(3) 1.0475(6)
C24 C 0.9002(6) -0.0465(3) 1.2004(5)
H24 H 0.8579 -0.0883 1.2178
H25 H 0.9264 -0.0253 1.2784
C25 C 1.0125(6) -0.0621(3) 1.1316(6)
H26 H 0.9864 -0.0800 1.0519
H27 H 1.0636 -0.0946 1.1771
H28 H 1.0593 -0.0215 1.1220
loop_
_geom_bond_atom_site_label_1
_geom_bond_atom_site_label_2
_geom_bond_site_symmetry_1
_geom_bond_site_symmetry_2
S1 C21 1_555 1_555
S2 C23 1_555 1_555
N1 C22 1_555 1_555
N2 C8 1_555 1_555
O1 C22 1_555 1_555
C1 H1 1_555 1_555
C2 C1 1_555 1_555
H2 C2 1_555 1_555
C3 C2 1_555 1_555
H3 C3 1_555 1_555
C4 C3 1_555 1_555
H4 C4 1_555 1_555
C5 C4 1_555 1_555
C6 C5 1_555 1_555
H5 C6 1_555 1_555
C7 C6 1_555 1_555
H6 C7 1_555 1_555
C8 C7 1_555 1_555
C9 C8 1_555 1_555
C10 C1 1_555 1_555
C11 C9 1_555 1_555
C12 N2 1_555 1_555
C13 N2 1_555 1_555
H7 C13 1_555 1_555
H8 C13 1_555 1_555
C14 C13 1_555 1_555
H9 C14 1_555 1_555
H10 C14 1_555 1_555
C15 C14 1_555 1_555
H11 C15 1_555 1_555
H12 C15 1_555 1_555
C16 C15 1_555 1_555
H13 C16 1_555 1_555
H14 C16 1_555 1_555
H15 C16 1_555 1_555
C17 C11 1_555 1_555
H16 C17 1_555 1_555
H17 C17 1_555 1_555
H18 C17 1_555 1_555
C18 C11 1_555 1_555
H19 C18 1_555 1_555
H20 C18 1_555 1_555
H21 C18 1_555 1_555
C19 C12 1_555 1_555
H22 C19 1_555 1_555
C20 C19 1_555 1_555
H23 C20 1_555 1_555
C21 C20 1_555 1_555
C22 C21 1_555 1_555
C23 S1 1_555 1_555
C24 N1 1_555 1_555
H24 C24 1_555 1_555
H25 C24 1_555 1_555
C25 C24 1_555 1_555
H26 C25 1_555 1_555
H27 C25 1_555 1_555
H28 C25 1_555 1_555
N1 C23 1_555 1_555
C5 C10 1_555 1_555
C9 C10 1_555 1_555
C11 C12 1_555 1_555

#END
