
#######################################################################
#
#                 Cambridge Crystallographic Data Centre
#                                CCDC 
#
#######################################################################
#
# If this CIF has been generated from an entry in the Cambridge 
# Structural Database, then it will include bibliographic, chemical, 
# crystal, experimental, refinement or atomic coordinate data resulting 
# from the CCDC's data processing and validation procedures.
#
#######################################################################

data_MAJHEN
_chemical_formula_moiety         'C23 H24 N2 O1 S2'
_chemical_name_systematic        
5-(2-(1,1-Dimethyl-3-propyl-1,3-dihydro-2H-benzo[e]indol-2-ylidene)ethylidene)-3-methyl-2-sulfanylidene-1,3-thiazolidin-4-one
_symmetry_cell_setting           monoclinic
_symmetry_space_group_name_H-M   'C c'
_symmetry_Int_Tables_number      9
_space_group_name_Hall           'C -2yc'
loop_
_symmetry_equiv_pos_site_id
_symmetry_equiv_pos_as_xyz
1 x,y,z
2 x,-y,1/2+z
3 1/2+x,1/2+y,z
4 1/2+x,1/2-y,1/2+z
_cell_length_a                   20.934(6)
_cell_length_b                   8.943(3)
_cell_length_c                   11.894(4)
_cell_angle_alpha                90
_cell_angle_beta                 94.152(7)
_cell_angle_gamma                90
_cell_volume                     2220.86
_exptl_crystal_colour            colorless
_exptl_crystal_description       block
_cell_formula_units_Z            4
loop_
_atom_site_label
_atom_site_type_symbol
_atom_site_fract_x
_atom_site_fract_y
_atom_site_fract_z
S1 S 0.23371(17) 0.4606(3) 0.9191(3)
S2 S 0.36960(17) 0.5335(5) 0.9846(3)
C1 C -0.0833(6) 0.3193(11) 0.7872(10)
N1 N 0.2673(5) 0.6354(13) 1.0858(10)
C2 C -0.1647(5) 0.4392(12) 0.8783(11)
O1 O 0.1715(4) 0.7012(13) 1.1526(10)
C3 C 0.1093(6) 0.5152(11) 0.9673(11)
H1 H 0.0830 0.5660 1.0141
C4 C -0.0415(5) 0.4919(11) 0.9244(9)
N2 N -0.0149(5) 0.3156(10) 0.7899(8)
C5 C -0.0382(6) 0.4483(13) 1.0517(10)
H2 H 0.0031 0.4743 1.0865
H3 H -0.0448 0.3426 1.0586
H4 H -0.0708 0.5012 1.0882
C6 C -0.1850(7) 0.2495(12) 0.7346(10)
H5 H -0.2145 0.1948 0.6891
C7 C -0.2117(6) 0.3476(13) 0.8168(10)
C8 C -0.1244(6) 0.2284(16) 0.7165(11)
H6 H -0.1103 0.1618 0.6636
C9 C -0.1010(5) 0.4210(12) 0.8634(12)
C10 C -0.1922(7) 0.5361(16) 0.9610(15)
H7 H -0.1644 0.5937 1.0076
C11 C 0.2928(6) 0.5512(11) 1.0027(11)
C12 C -0.2773(6) 0.3600(16) 0.8320(14)
H8 H -0.3068 0.3053 0.7865
C13 C 0.1730(6) 0.5414(14) 0.9916(12)
C14 C 0.1986(7) 0.6370(17) 1.0859(10)
C15 C 0.0117(7) 0.4063(13) 0.8663(11)
C16 C -0.2982(8) 0.4525(18) 0.9137(18)
H9 H -0.3412 0.4516 0.9286
C17 C 0.0765(6) 0.4284(13) 0.8874(12)
H10 H 0.1021 0.3765 0.8399
C18 C -0.2562(8) 0.5473(19) 0.9742(15)
H11 H -0.2715 0.6177 1.0232
C19 C 0.0271(8) 0.0567(18) 0.7657(16)
H12 H -0.0142 0.0153 0.7811
H13 H 0.0536 0.0611 0.8360
C20 C 0.3038(6) 0.7218(17) 1.1688(13)
H14 H 0.3443 0.6741 1.1868
H15 H 0.2808 0.7291 1.2355
H16 H 0.3107 0.8201 1.1397
C21 C -0.0396(7) 0.6586(11) 0.9065(12)
H17 H -0.0018 0.6991 0.9458
H18 H -0.0769 0.7035 0.9348
H19 H -0.0389 0.6795 0.8274
C22 C 0.0185(7) 0.2152(12) 0.7151(10)
H20 H 0.0602 0.2568 0.7026
H21 H -0.0059 0.2087 0.6428
C23 C 0.0608(13) -0.047(3) 0.676(3)
H22 H 0.0361 -0.0438 0.6049
H23 H 0.0629 -0.1483 0.7031
H24 H 0.1033 -0.0110 0.6670
loop_
_geom_bond_atom_site_label_1
_geom_bond_atom_site_label_2
_geom_bond_site_symmetry_1
_geom_bond_site_symmetry_2
S1 C11 1_555 1_555
S2 C11 1_555 1_555
C1 N2 1_555 1_555
N1 C11 1_555 1_555
C2 C7 1_555 1_555
O1 C14 1_555 1_555
C3 H1 1_555 1_555
C4 C5 1_555 1_555
N2 C15 1_555 1_555
C5 H2 1_555 1_555
H3 C5 1_555 1_555
H4 C5 1_555 1_555
C6 H5 1_555 1_555
C7 C6 1_555 1_555
C8 C1 1_555 1_555
H6 C8 1_555 1_555
C9 C1 1_555 1_555
C10 C2 1_555 1_555
H7 C10 1_555 1_555
C12 C7 1_555 1_555
H8 C12 1_555 1_555
C13 S1 1_555 1_555
C14 N1 1_555 1_555
C15 C4 1_555 1_555
C16 C12 1_555 1_555
H9 C16 1_555 1_555
C17 C3 1_555 1_555
H10 C17 1_555 1_555
C18 C10 1_555 1_555
H11 C18 1_555 1_555
C19 H12 1_555 1_555
H13 C19 1_555 1_555
C20 N1 1_555 1_555
H14 C20 1_555 1_555
H15 C20 1_555 1_555
H16 C20 1_555 1_555
C21 C4 1_555 1_555
H17 C21 1_555 1_555
H18 C21 1_555 1_555
H19 C21 1_555 1_555
C22 N2 1_555 1_555
H20 C22 1_555 1_555
H21 C22 1_555 1_555
C23 C19 1_555 1_555
H22 C23 1_555 1_555
H23 C23 1_555 1_555
H24 C23 1_555 1_555
C2 C9 1_555 1_555
C3 C13 1_555 1_555
C4 C9 1_555 1_555
C6 C8 1_555 1_555
C13 C14 1_555 1_555
C15 C17 1_555 1_555
C16 C18 1_555 1_555
C19 C22 1_555 1_555

#END
