
#######################################################################
#
#                 Cambridge Crystallographic Data Centre
#                                CCDC 
#
#######################################################################
#
# If this CIF has been generated from an entry in the Cambridge 
# Structural Database, then it will include bibliographic, chemical, 
# crystal, experimental, refinement or atomic coordinate data resulting 
# from the CCDC's data processing and validation procedures.
#
#######################################################################

data_MAJHIR
_chemical_formula_moiety         'C22 H22 N2 O1 S2'
_chemical_name_systematic        
3-Ethyl-2-sulfanylidene-5-(2-(1,1,3-trimethyl-1,3-dihydro-2H-benzo[e]indol-2-ylidene)ethylidene)-1,3-thiazolidin-4-one
_symmetry_cell_setting           monoclinic
_symmetry_space_group_name_H-M   'P 21/c'
_symmetry_Int_Tables_number      14
_space_group_name_Hall           '-P 2ybc'
loop_
_symmetry_equiv_pos_site_id
_symmetry_equiv_pos_as_xyz
1 x,y,z
2 -x,1/2+y,1/2-z
3 -x,-y,-z
4 x,1/2-y,1/2+z
_cell_length_a                   7.2800(17)
_cell_length_b                   16.132(4)
_cell_length_c                   16.514(4)
_cell_angle_alpha                90
_cell_angle_beta                 92.758(5)
_cell_angle_gamma                90
_cell_volume                     1937.17
_exptl_crystal_description       block
_cell_formula_units_Z            4
loop_
_atom_site_label
_atom_site_type_symbol
_atom_site_fract_x
_atom_site_fract_y
_atom_site_fract_z
S1 S 0.1065(2) 0.81221(9) 0.48771(10)
S2 S -0.1036(3) 0.66751(11) 0.54727(14)
N1 N 0.2094(7) 0.6613(3) 0.4659(3)
N2 N 0.4365(6) 1.0852(3) 0.3721(3)
O1 O 0.4715(7) 0.6754(3) 0.3976(4)
C1 C 0.3115(11) 0.5437(4) 0.5484(4)
H1 H 0.4289 0.5705 0.5558
H2 H 0.3285 0.4847 0.5472
H3 H 0.2361 0.5580 0.5924
C2 C 0.2216(8) 0.5711(4) 0.4718(4)
H4 H 0.2900 0.5502 0.4272
H5 H 0.0988 0.5478 0.4669
C3 C 0.0738(8) 0.7061(4) 0.5010(4)
C4 C 0.3496(9) 0.7075(4) 0.4283(4)
C5 C 0.3040(8) 0.7962(4) 0.4338(4)
C6 C 0.4099(9) 0.8560(4) 0.3989(4)
H6 H 0.5123 0.8382 0.3721
C7 C 0.3755(8) 0.9419(4) 0.4006(4)
H7 H 0.2710 0.9587 0.4264
C8 C 0.4806(7) 1.0044(4) 0.3678(4)
C9 C 0.6555(7) 0.9966(3) 0.3209(3)
C10 C 0.7006(7) 1.0868(3) 0.3039(3)
C11 C 0.5676(7) 1.1356(3) 0.3362(4)
C12 C 0.5699(8) 1.2222(4) 0.3361(4)
H8 H 0.4790 1.2530 0.3598
C13 C 0.7146(9) 1.2596(4) 0.2988(4)
H9 H 0.7192 1.3171 0.2956
C14 C 0.8562(8) 1.2118(4) 0.2653(4)
C15 C 0.8491(7) 1.1239(4) 0.2668(4)
C16 C 0.9958(8) 1.0807(4) 0.2310(4)
H10 H 0.9954 1.0230 0.2304
C17 C 1.1384(9) 1.1229(5) 0.1972(4)
H11 H 1.2311 1.0932 0.1735
C18 C 1.1460(10) 1.2089(5) 0.1978(5)
H12 H 1.2443 1.2364 0.1758
C19 C 1.0088(9) 1.2527(4) 0.2309(4)
H13 H 1.0141 1.3103 0.2311
C20 C 0.8127(8) 0.9559(4) 0.3733(4)
H14 H 0.9217 0.9535 0.3429
H15 H 0.7773 0.9008 0.3879
H16 H 0.8366 0.9882 0.4214
C21 C 0.6181(10) 0.9478(4) 0.2406(4)
H17 H 0.5224 0.9750 0.2085
H18 H 0.5805 0.8924 0.2527
H19 H 0.7283 0.9462 0.2109
C22 C 0.2768(8) 1.1191(4) 0.4121(4)
H20 H 0.1764 1.0806 0.4066
H21 H 0.2414 1.1708 0.3872
H22 H 0.3085 1.1279 0.4685
loop_
_geom_bond_atom_site_label_1
_geom_bond_atom_site_label_2
_geom_bond_site_symmetry_1
_geom_bond_site_symmetry_2
S1 C3 1_555 1_555
S2 C3 1_555 1_555
N1 C2 1_555 1_555
N2 C8 1_555 1_555
O1 C4 1_555 1_555
C1 H1 1_555 1_555
H2 C1 1_555 1_555
H3 C1 1_555 1_555
C2 C1 1_555 1_555
H4 C2 1_555 1_555
H5 C2 1_555 1_555
C3 N1 1_555 1_555
C4 N1 1_555 1_555
C5 S1 1_555 1_555
C6 C5 1_555 1_555
H6 C6 1_555 1_555
C7 C6 1_555 1_555
H7 C7 1_555 1_555
C8 C7 1_555 1_555
C9 C8 1_555 1_555
C10 C9 1_555 1_555
C11 N2 1_555 1_555
C12 C11 1_555 1_555
H8 C12 1_555 1_555
C13 C12 1_555 1_555
H9 C13 1_555 1_555
C14 C13 1_555 1_555
C15 C10 1_555 1_555
C16 C15 1_555 1_555
H10 C16 1_555 1_555
C17 C16 1_555 1_555
H11 C17 1_555 1_555
C18 C17 1_555 1_555
H12 C18 1_555 1_555
C19 C14 1_555 1_555
H13 C19 1_555 1_555
C20 C9 1_555 1_555
H14 C20 1_555 1_555
H15 C20 1_555 1_555
H16 C20 1_555 1_555
C21 C9 1_555 1_555
H17 C21 1_555 1_555
H18 C21 1_555 1_555
H19 C21 1_555 1_555
C22 N2 1_555 1_555
H20 C22 1_555 1_555
H21 C22 1_555 1_555
H22 C22 1_555 1_555
C4 C5 1_555 1_555
C10 C11 1_555 1_555
C14 C15 1_555 1_555
C18 C19 1_555 1_555

#END
