
#######################################################################
#
#                 Cambridge Crystallographic Data Centre
#                                CCDC 
#
#######################################################################
#
# If this CIF has been generated from an entry in the Cambridge 
# Structural Database, then it will include bibliographic, chemical, 
# crystal, experimental, refinement or atomic coordinate data resulting 
# from the CCDC's data processing and validation procedures.
#
#######################################################################

data_MAJHAH
_chemical_formula_moiety         'C20 H26 S2'
_chemical_name_systematic        1,8-bis(Phenylsulfanyl)octane
_symmetry_cell_setting           triclinic
_symmetry_space_group_name_H-M   'P -1'
_symmetry_Int_Tables_number      2
_space_group_name_Hall           '-P 1'
loop_
_symmetry_equiv_pos_site_id
_symmetry_equiv_pos_as_xyz
1 x,y,z
2 -x,-y,-z
_cell_length_a                   5.579(2)
_cell_length_b                   7.857(3)
_cell_length_c                   20.590(7)
_cell_angle_alpha                84.044(5)
_cell_angle_beta                 87.890(6)
_cell_angle_gamma                89.572(6)
_cell_volume                     897.059
_exptl_crystal_colour            colorless
_exptl_crystal_description       block
_cell_formula_units_Z            2
_exptl_crystal_recrystallization_method acetone/chloroform
loop_
_atom_site_label
_atom_site_type_symbol
_atom_site_fract_x
_atom_site_fract_y
_atom_site_fract_z
S1 S 0.41169(12) 0.37995(10) 0.27985(3)
C1 C 0.2811(4) 0.2671(3) 0.16848(12)
H1 H 0.1509 0.2221 0.1939
C2 C 0.2972(5) 0.2463(3) 0.10329(12)
H2 H 0.1771 0.1876 0.0849
C3 C 0.4880(5) 0.3109(3) 0.06473(12)
H3 H 0.4986 0.2963 0.0205
C4 C 0.6620(5) 0.3973(3) 0.09272(12)
H4 H 0.7918 0.4419 0.0670
C5 C 0.6494(4) 0.4197(3) 0.15782(11)
H5 H 0.7700 0.4786 0.1759
C6 C 0.4567(4) 0.3543(3) 0.19671(10)
C7 C 0.7015(4) 0.4241(3) 0.30811(11)
H6 H 0.8130 0.3338 0.2988
H7 H 0.7613 0.5313 0.2860
C8 C 0.6797(5) 0.4353(3) 0.38063(11)
H8 H 0.5657 0.5251 0.3888
H9 H 0.6146 0.3283 0.4015
C9 C 0.9090(5) 0.4703(3) 0.41183(11)
H10 H 0.9751 0.5765 0.3906
H11 H 1.0222 0.3797 0.4042
C10 C 0.8865(4) 0.4836(3) 0.48367(11)
H12 H 0.7742 0.5750 0.4911
H13 H 0.8177 0.3780 0.5046
C10A C 1.1135(4) 0.5164(3) 0.51633(11)
C9A C 1.0910(5) 0.5297(3) 0.58817(11)
C8A C 1.3203(5) 0.5647(3) 0.61937(11)
C7A C 1.2985(4) 0.5759(3) 0.69189(11)
S1A S 1.58831(12) 0.62005(10) 0.72015(3)
C6A C 1.5433(4) 0.6457(3) 0.80329(10)
C1A C 1.7189(4) 0.7329(3) 0.83152(12)
H1A H 1.8491 0.7779 0.8061
C2A C 1.7028(5) 0.7537(3) 0.89671(12)
H2A H 1.8229 0.8124 0.9151
C3A C 1.5120(5) 0.6891(3) 0.93527(12)
H3A H 1.5014 0.7037 0.9795
C4A C 1.3380(5) 0.6027(3) 0.90728(12)
H4A H 1.2082 0.5581 0.9330
C5A C 1.3506(4) 0.5803(3) 0.84218(11)
H5A H 1.2300 0.5214 0.8241
H6A H 1.1870 0.6662 0.7012
H7A H 1.2387 0.4687 0.7140
H8A H 1.4343 0.4749 0.6112
H9A H 1.3854 0.6717 0.5985
H10A H 1.0249 0.4235 0.6094
H11A H 0.9778 0.6203 0.5958
H12A H 1.2258 0.4250 0.5089
H13A H 1.1823 0.6220 0.4954
S2 S 1.10101(12) 0.07884(9) 0.72325(3)
C11 C 0.8569(4) 0.2254(3) 0.82348(11)
H14 H 0.7449 0.2673 0.7934
C12 C 0.8309(5) 0.2589(3) 0.88731(12)
H15 H 0.6999 0.3226 0.9004
C13 C 0.9954(5) 0.1997(3) 0.93226(12)
H16 H 0.9768 0.2231 0.9755
C14 C 1.1875(5) 0.1058(3) 0.91261(12)
H17 H 1.3002 0.0655 0.9427
C15 C 1.2150(4) 0.0706(3) 0.84923(12)
H18 H 1.3462 0.0066 0.8366
C16 C 1.0496(4) 0.1292(3) 0.80372(11)
C17 C 0.8136(4) 0.1033(3) 0.68718(11)
H19 H 0.6945 0.0369 0.7142
H20 H 0.7648 0.2226 0.6838
C18 C 0.8322(5) 0.0418(3) 0.61991(11)
H21 H 0.9529 0.1087 0.5937
H22 H 0.8848 -0.0766 0.6240
C19 C 0.5986(5) 0.0555(3) 0.58507(11)
H23 H 0.5461 0.1739 0.5810
H24 H 0.4780 -0.0113 0.6114
C20 C 0.6157(5) -0.0059(3) 0.51775(11)
H25 H 0.7363 0.0611 0.4916
H26 H 0.6694 -0.1242 0.5219
C20A C 0.3843(5) 0.0059(3) 0.48225(11)
C19A C 0.4014(5) -0.0555(3) 0.41493(11)
C18A C 0.1678(5) -0.0418(3) 0.38009(11)
C17A C 0.1864(4) -0.1033(3) 0.31282(11)
S2A S -0.10101(12) -0.07884(9) 0.27675(3)
C16A C -0.0496(4) -0.1292(3) 0.19628(11)
C11A C 0.1431(4) -0.2254(3) 0.17652(11)
H14A H 0.2551 -0.2673 0.2066
C12A C 0.1691(5) -0.2589(3) 0.11269(12)
H15A H 0.3001 -0.3226 0.0996
C13A C 0.0046(5) -0.1997(3) 0.06774(12)
H16A H 0.0232 -0.2231 0.0245
C14A C -0.1875(5) -0.1058(3) 0.08739(12)
H17A H -0.3002 -0.0655 0.0573
C15A C -0.2150(4) -0.0706(3) 0.15077(12)
H18A H -0.3462 -0.0066 0.1634
H19A H 0.3055 -0.0369 0.2858
H20A H 0.2352 -0.2226 0.3162
H21A H 0.0471 -0.1087 0.4063
H22A H 0.1152 0.0766 0.3760
H23A H 0.4539 -0.1739 0.4190
H24A H 0.5220 0.0113 0.3886
H25A H 0.2637 -0.0611 0.5084
H26A H 0.3306 0.1242 0.4781
loop_
_geom_bond_atom_site_label_1
_geom_bond_atom_site_label_2
_geom_bond_site_symmetry_1
_geom_bond_site_symmetry_2
S1 C6 1_555 1_555
S2 C16 1_555 1_555
C1 H1 1_555 1_555
C2 C1 1_555 1_555
H2 C2 1_555 1_555
C3 C2 1_555 1_555
H3 C3 1_555 1_555
C4 C3 1_555 1_555
H4 C4 1_555 1_555
C5 C4 1_555 1_555
H5 C5 1_555 1_555
C6 C1 1_555 1_555
C7 S1 1_555 1_555
H6 C7 1_555 1_555
H7 C7 1_555 1_555
C8 C7 1_555 1_555
H8 C8 1_555 1_555
H9 C8 1_555 1_555
C9 C8 1_555 1_555
H10 C9 1_555 1_555
H11 C9 1_555 1_555
C10 C9 1_555 1_555
H12 C10 1_555 1_555
H13 C10 1_555 1_555
C11 H14 1_555 1_555
C12 C11 1_555 1_555
H15 C12 1_555 1_555
C13 C12 1_555 1_555
H16 C13 1_555 1_555
C14 C13 1_555 1_555
H17 C14 1_555 1_555
C15 C14 1_555 1_555
H18 C15 1_555 1_555
C16 C11 1_555 1_555
C17 S2 1_555 1_555
H19 C17 1_555 1_555
H20 C17 1_555 1_555
C18 C17 1_555 1_555
H21 C18 1_555 1_555
H22 C18 1_555 1_555
C19 C18 1_555 1_555
H23 C19 1_555 1_555
H24 C19 1_555 1_555
C20 C19 1_555 1_555
H25 C20 1_555 1_555
H26 C20 1_555 1_555
C10A C10 1_555 1_555
C9A C10A 1_555 1_555
C8A C9A 1_555 1_555
C7A C8A 1_555 1_555
S1A C7A 1_555 1_555
C6A S1A 1_555 1_555
C1A C6A 1_555 1_555
H1A C1A 1_555 1_555
C2A C1A 1_555 1_555
H2A C2A 1_555 1_555
C3A C2A 1_555 1_555
H3A C3A 1_555 1_555
C4A C3A 1_555 1_555
H4A C4A 1_555 1_555
C5A C6A 1_555 1_555
H5A C5A 1_555 1_555
H6A C7A 1_555 1_555
H7A C7A 1_555 1_555
H8A C8A 1_555 1_555
H9A C8A 1_555 1_555
H10A C9A 1_555 1_555
H11A C9A 1_555 1_555
H12A C10A 1_555 1_555
H13A C10A 1_555 1_555
C20A C20 1_555 1_555
C19A C20A 1_555 1_555
C18A C19A 1_555 1_555
C17A C18A 1_555 1_555
S2A C17A 1_555 1_555
C16A S2A 1_555 1_555
C11A C16A 1_555 1_555
H14A C11A 1_555 1_555
C12A C11A 1_555 1_555
H15A C12A 1_555 1_555
C13A C12A 1_555 1_555
H16A C13A 1_555 1_555
C14A C13A 1_555 1_555
H17A C14A 1_555 1_555
C15A C16A 1_555 1_555
H18A C15A 1_555 1_555
H19A C17A 1_555 1_555
H20A C17A 1_555 1_555
H21A C18A 1_555 1_555
H22A C18A 1_555 1_555
H23A C19A 1_555 1_555
H24A C19A 1_555 1_555
H25A C20A 1_555 1_555
H26A C20A 1_555 1_555
C5 C6 1_555 1_555
C15 C16 1_555 1_555
C4A C5A 1_555 1_555
C14A C15A 1_555 1_555

#END
