
#######################################################################
#
#                 Cambridge Crystallographic Data Centre
#                                CCDC 
#
#######################################################################
#
# If this CIF has been generated from an entry in the Cambridge 
# Structural Database, then it will include bibliographic, chemical, 
# crystal, experimental, refinement or atomic coordinate data resulting 
# from the CCDC's data processing and validation procedures.
#
#######################################################################

data_MAJLEQ
_chemical_formula_moiety         'C44 H47 N4 P1,2(C1 H1 Cl3)'
_chemical_name_systematic        
"5-(bis(Adamantan-1-yl)phosphino)-1',3',5'-triphenyl-1'H-1,4'-bipyrazole chloroform solvate"
_symmetry_cell_setting           triclinic
_symmetry_space_group_name_H-M   'P -1'
_symmetry_Int_Tables_number      2
_space_group_name_Hall           '-P 1'
loop_
_symmetry_equiv_pos_site_id
_symmetry_equiv_pos_as_xyz
1 x,y,z
2 -x,-y,-z
_cell_length_a                   10.4647(4)
_cell_length_b                   10.7052(4)
_cell_length_c                   20.1070(7)
_cell_angle_alpha                92.141(3)
_cell_angle_beta                 101.427(3)
_cell_angle_gamma                96.844(3)
_cell_volume                     2187.83
_exptl_crystal_colour            colorless
_exptl_crystal_description       prism
_cell_formula_units_Z            2
loop_
_atom_site_label
_atom_site_type_symbol
_atom_site_fract_x
_atom_site_fract_y
_atom_site_fract_z
C1 C 1.08256(15) 0.50407(14) 0.19951(8)
C2 C 1.18874(16) 0.52237(16) 0.16800(8)
H1 H 1.2353 0.6007 0.1607
C3 C 1.21361(17) 0.40225(17) 0.14919(9)
H2 H 1.2815 0.3868 0.1260
C4 C 0.94785(16) 0.30420(14) 0.22131(8)
C5 C 0.95765(16) 0.24785(14) 0.28263(8)
C6 C 0.81649(16) 0.27598(15) 0.18634(8)
C7 C 1.11565(15) 0.68320(14) 0.31344(8)
C8 C 1.06706(16) 0.79875(16) 0.34337(8)
H3 H 1.0662 0.8666 0.3112
H4 H 0.9761 0.7757 0.3499
C9 C 1.15650(17) 0.84649(17) 0.41159(9)
H5 H 1.1232 0.9214 0.4302
C10 C 1.29546(18) 0.88499(18) 0.40025(10)
H6 H 1.2946 0.9524 0.3678
H7 H 1.3540 0.9181 0.4438
C11 C 1.34657(17) 0.77091(19) 0.37208(10)
H8 H 1.4377 0.7962 0.3649
C12 C 1.3488(2) 0.6685(2) 0.42215(11)
H9 H 1.4075 0.6999 0.4659
H10 H 1.3831 0.5946 0.4043
C13 C 1.2093(2) 0.62957(19) 0.43323(10)
H11 H 1.2106 0.5616 0.4661
C14 C 1.1201(2) 0.58044(17) 0.36524(9)
H12 H 1.0302 0.5535 0.3723
H13 H 1.1533 0.5062 0.3471
C15 C 1.25667(16) 0.72102(17) 0.30381(9)
H14 H 1.2573 0.7871 0.2707
H15 H 1.2901 0.6470 0.2855
C16 C 1.1573(2) 0.7433(2) 0.46164(9)
H16 H 1.0671 0.7185 0.4689
H17 H 1.2141 0.7748 0.5060
C17 C 0.95114(15) 0.72843(15) 0.17129(8)
C18 C 0.88329(19) 0.65102(17) 0.10476(9)
H18 H 0.9467 0.6012 0.0890
H19 H 0.8091 0.5916 0.1133
C19 C 0.8322(2) 0.7382(2) 0.04964(10)
H20 H 0.7891 0.6864 0.0069
C20 C 0.7325(2) 0.8142(2) 0.07283(11)
H21 H 0.6988 0.8696 0.0368
H22 H 0.6572 0.7565 0.0816
C21 C 0.79953(19) 0.89340(19) 0.13744(10)
H23 H 0.7347 0.9433 0.1529
C22 C 0.9153(2) 0.98353(19) 0.12442(12)
H24 H 0.8836 1.0410 0.0891
H25 H 0.9577 1.0352 0.1666
C23 C 1.0139(2) 0.9082(2) 0.10107(11)
H26 H 1.0891 0.9671 0.0918
C24 C 1.06556(18) 0.82108(17) 0.15708(10)
H27 H 1.1316 0.7734 0.1423
H28 H 1.1087 0.8726 0.1992
C25 C 0.9470(2) 0.8285(2) 0.03603(11)
H29 H 0.9146 0.8842 -0.0001
H30 H 1.0112 0.7799 0.0201
C26 C 0.84863(17) 0.80560(17) 0.19298(9)
H31 H 0.7734 0.7475 0.2014
H32 H 0.8888 0.8563 0.2358
C27 C 1.07085(16) 0.25372(15) 0.33945(9)
C28 C 1.05982(18) 0.28305(17) 0.40625(9)
H33 H 0.9762 0.2936 0.4158
C29 C 1.1689(2) 0.2969(2) 0.45846(11)
H34 H 1.1603 0.3158 0.5038
C30 C 1.2907(2) 0.2830(2) 0.44474(13)
H35 H 1.3662 0.2938 0.4806
C31 C 1.3033(2) 0.2537(2) 0.37922(15)
H36 H 1.3875 0.2442 0.3702
C32 C 1.19392(19) 0.23773(19) 0.32618(11)
H37 H 1.2030 0.2161 0.2812
C33 C 0.78729(17) 0.11349(15) 0.33131(8)
C34 C 0.86508(18) 0.03303(16) 0.36719(9)
H38 H 0.9503 0.0266 0.3587
C35 C 0.8186(2) -0.03870(16) 0.41586(10)
H39 H 0.8729 -0.0915 0.4422
C36 C 0.6914(2) -0.03185(17) 0.42539(10)
H40 H 0.6583 -0.0823 0.4576
C37 C 0.61251(19) 0.04691(18) 0.38886(10)
H41 H 0.5261 0.0511 0.3962
C38 C 0.66051(17) 0.12040(17) 0.34107(10)
H42 H 0.6070 0.1747 0.3154
C39 C 0.75385(17) 0.30990(16) 0.11873(9)
C40 C 0.62137(19) 0.3268(2) 0.10520(9)
H43 H 0.5721 0.3177 0.1401
C41 C 0.5616(2) 0.3567(2) 0.04141(9)
H44 H 0.4710 0.3670 0.0324
C42 C 0.63239(18) 0.3719(2) -0.00947(10)
H45 H 0.5910 0.3935 -0.0532
C43 C 0.76364(19) 0.3555(2) 0.00358(9)
H46 H 0.8126 0.3659 -0.0313
C44 C 0.82413(19) 0.32413(18) 0.06700(8)
H47 H 0.9143 0.3122 0.0754
N1 N 1.05178(13) 0.37601(12) 0.19840(7)
N2 N 1.13149(15) 0.31221(14) 0.16744(8)
N3 N 0.83398(13) 0.18954(13) 0.28188(7)
N4 N 0.74758(14) 0.20636(13) 0.22386(7)
P1 P 0.98856(4) 0.61083(4) 0.23759(2)
C45 C 0.6764(2) 0.5253(2) 0.31082(11)
H48 H 0.7402 0.5195 0.2801
Cl1 Cl 0.72516(9) 0.44184(7) 0.38276(4)
Cl2 Cl 0.51871(7) 0.45962(9) 0.26687(4)
Cl3 Cl 0.67739(7) 0.68406(5) 0.33583(4)
C46 C 0.4687(2) 1.0130(2) 0.16263(12)
H49 H 0.5566 1.0659 0.1738
Cl4 Cl 0.48009(8) 0.87586(8) 0.20638(4)
Cl5 Cl 0.43001(10) 0.97610(10) 0.07564(4)
Cl6 Cl 0.35326(7) 1.10082(8) 0.18683(6)
loop_
_geom_bond_atom_site_label_1
_geom_bond_atom_site_label_2
_geom_bond_site_symmetry_1
_geom_bond_site_symmetry_2
C1 C2 1_555 1_555
C2 H1 1_555 1_555
C3 C2 1_555 1_555
H2 C3 1_555 1_555
C4 C5 1_555 1_555
C5 C27 1_555 1_555
C6 C4 1_555 1_555
C7 C8 1_555 1_555
C8 H3 1_555 1_555
H4 C8 1_555 1_555
C9 C8 1_555 1_555
H5 C9 1_555 1_555
C10 C9 1_555 1_555
H6 C10 1_555 1_555
H7 C10 1_555 1_555
C11 C10 1_555 1_555
H8 C11 1_555 1_555
C12 C11 1_555 1_555
H9 C12 1_555 1_555
H10 C12 1_555 1_555
C13 C12 1_555 1_555
H11 C13 1_555 1_555
C14 C7 1_555 1_555
H12 C14 1_555 1_555
H13 C14 1_555 1_555
C15 C7 1_555 1_555
H14 C15 1_555 1_555
H15 C15 1_555 1_555
C16 C9 1_555 1_555
H16 C16 1_555 1_555
H17 C16 1_555 1_555
C17 C18 1_555 1_555
C18 H18 1_555 1_555
H19 C18 1_555 1_555
C19 C18 1_555 1_555
H20 C19 1_555 1_555
C20 C19 1_555 1_555
H21 C20 1_555 1_555
H22 C20 1_555 1_555
C21 C20 1_555 1_555
H23 C21 1_555 1_555
C22 C21 1_555 1_555
H24 C22 1_555 1_555
H25 C22 1_555 1_555
C23 C22 1_555 1_555
H26 C23 1_555 1_555
C24 C17 1_555 1_555
H27 C24 1_555 1_555
H28 C24 1_555 1_555
C25 C19 1_555 1_555
H29 C25 1_555 1_555
H30 C25 1_555 1_555
C26 C17 1_555 1_555
H31 C26 1_555 1_555
H32 C26 1_555 1_555
C27 C28 1_555 1_555
C28 H33 1_555 1_555
C29 C28 1_555 1_555
H34 C29 1_555 1_555
C30 C29 1_555 1_555
H35 C30 1_555 1_555
C31 C30 1_555 1_555
H36 C31 1_555 1_555
C32 C27 1_555 1_555
H37 C32 1_555 1_555
C33 C34 1_555 1_555
C34 H38 1_555 1_555
C35 C34 1_555 1_555
H39 C35 1_555 1_555
C36 C35 1_555 1_555
H40 C36 1_555 1_555
C37 C36 1_555 1_555
H41 C37 1_555 1_555
C38 C33 1_555 1_555
H42 C38 1_555 1_555
C39 C6 1_555 1_555
C40 C39 1_555 1_555
H43 C40 1_555 1_555
C41 C40 1_555 1_555
H44 C41 1_555 1_555
C42 C41 1_555 1_555
H45 C42 1_555 1_555
C43 C42 1_555 1_555
H46 C43 1_555 1_555
C44 C39 1_555 1_555
H47 C44 1_555 1_555
C45 H48 1_555 1_555
C46 H49 1_555 1_555
Cl1 C45 1_555 1_555
Cl2 C45 1_555 1_555
Cl3 C45 1_555 1_555
Cl4 C46 1_555 1_555
Cl5 C46 1_555 1_555
Cl6 C46 1_555 1_555
N1 C1 1_555 1_555
N2 C3 1_555 1_555
N3 C5 1_555 1_555
N4 C6 1_555 1_555
P1 C1 1_555 1_555
C4 N1 1_555 1_555
C7 P1 1_555 1_555
C11 C15 1_555 1_555
C13 C14 1_555 1_555
C13 C16 1_555 1_555
C17 P1 1_555 1_555
C21 C26 1_555 1_555
C23 C24 1_555 1_555
C23 C25 1_555 1_555
C31 C32 1_555 1_555
C33 N3 1_555 1_555
C37 C38 1_555 1_555
C43 C44 1_555 1_555
N1 N2 1_555 1_555
N3 N4 1_555 1_555

#END
