
#######################################################################
#
#                 Cambridge Crystallographic Data Centre
#                                CCDC 
#
#######################################################################
#
# If this CIF has been generated from an entry in the Cambridge 
# Structural Database, then it will include bibliographic, chemical, 
# crystal, experimental, refinement or atomic coordinate data resulting 
# from the CCDC's data processing and validation procedures.
#
#######################################################################

data_MAJRUN
_chemical_formula_moiety         'C66 H42 B2 N6 O2,C2 H3 N1'
_chemical_name_systematic        
"9c,9c'-Peroxybis(3,6,9-triphenyl-9cH-8b\l^5^,9b,9d-triaza-9\L^5^-boratricyclopenta[cd,gh,kl]phenalene) acetonitrile solvate"
_symmetry_cell_setting           monoclinic
_symmetry_space_group_name_H-M   'P 21/n'
_symmetry_Int_Tables_number      14
_space_group_name_Hall           '-P 2yn'
loop_
_symmetry_equiv_pos_site_id
_symmetry_equiv_pos_as_xyz
1 x,y,z
2 1/2-x,1/2+y,1/2-z
3 -x,-y,-z
4 1/2+x,1/2-y,1/2+z
_cell_length_a                   17.558(3)
_cell_length_b                   13.547(3)
_cell_length_c                   21.786(4)
_cell_angle_alpha                90
_cell_angle_beta                 92.192(5)
_cell_angle_gamma                90
_cell_volume                     5178.19
_exptl_crystal_colour            yellow
_exptl_crystal_description       Prism
_cell_formula_units_Z            4
loop_
_atom_site_label
_atom_site_type_symbol
_atom_site_fract_x
_atom_site_fract_y
_atom_site_fract_z
B1 B 0.02147(11) 0.69088(14) 0.14438(9)
N1 N 0.07465(8) 0.62682(10) 0.11035(6)
N2 N -0.05558(8) 0.66863(10) 0.11710(6)
N3 N 0.03996(8) 0.79402(10) 0.12590(6)
O1 O 0.01769(6) 0.67326(9) 0.20992(5)
O2 O 0.09419(7) 0.69768(8) 0.23700(5)
B2 B 0.11234(11) 0.61726(14) 0.27876(8)
N4 N 0.18521(8) 0.64297(10) 0.31286(6)
N5 N 0.12560(8) 0.51812(10) 0.25054(6)
N6 N 0.05526(8) 0.59742(10) 0.32651(6)
C1 C 0.14690(10) 0.65275(13) 0.09658(7)
C2 C 0.18141(10) 0.56373(13) 0.07479(8)
H1 H 0.2318 0.5568 0.0638
C3 C 0.12741(10) 0.49136(13) 0.07300(8)
H2 H 0.1348 0.4265 0.0607
C4 C 0.05710(10) 0.53204(12) 0.09333(7)
C5 C -0.02067(10) 0.50216(13) 0.09167(7)
C6 C -0.07712(10) 0.57611(13) 0.09903(7)
C7 C -0.15644(10) 0.58514(13) 0.08032(8)
H3 H -0.1882 0.5338 0.0671
C8 C -0.17711(10) 0.68280(13) 0.08538(8)
H4 H -0.2252 0.7089 0.0763
C9 C -0.11150(10) 0.73698(13) 0.10703(8)
C10 C -0.09202(10) 0.83830(13) 0.11078(7)
C11 C -0.01418(10) 0.86558(12) 0.11609(7)
C12 C 0.02662(10) 0.95236(13) 0.09819(8)
H5 H 0.0057 1.0145 0.0908
C13 C 0.10179(10) 0.92726(13) 0.09391(8)
H6 H 0.1408 0.9695 0.0830
C14 C 0.11018(9) 0.82483(13) 0.10917(7)
C15 C 0.16769(10) 0.75391(13) 0.09843(7)
C16 C -0.04467(10) 0.39934(13) 0.07893(7)
C17 C -0.00735(10) 0.33724(13) 0.03850(8)
H7 H 0.0339 0.3611 0.0175
C18 C -0.03116(11) 0.24060(13) 0.02941(8)
H8 H -0.0052 0.1998 0.0030
C19 C -0.09354(11) 0.20461(14) 0.05950(9)
H9 H -0.1097 0.1399 0.0532
C20 C -0.13158(11) 0.26565(14) 0.09896(9)
H10 H -0.1739 0.2421 0.1188
C21 C -0.10706(11) 0.36140(14) 0.10911(8)
H11 H -0.1325 0.4012 0.1365
C22 C -0.15174(10) 0.91498(12) 0.10135(8)
C23 C -0.19584(11) 0.92106(14) 0.04706(9)
H12 H -0.1877 0.8764 0.0156
C24 C -0.25191(12) 0.99295(16) 0.03916(10)
H13 H -0.2805 0.9967 0.0024
C25 C -0.26503(11) 1.05839(15) 0.08582(11)
H14 H -0.3027 1.1062 0.0808
C26 C -0.22223(12) 1.05298(14) 0.14010(10)
H15 H -0.2317 1.0968 0.1718
C27 C -0.16521(11) 0.98297(13) 0.14790(8)
H16 H -0.1358 0.9812 0.1843
C28 C 0.24531(10) 0.78631(13) 0.08422(7)
C29 C 0.28583(11) 0.74393(14) 0.03673(8)
H17 H 0.2624 0.6968 0.0113
C30 C 0.36033(11) 0.77150(15) 0.02730(9)
H18 H 0.3872 0.7415 -0.0036
C31 C 0.39501(11) 0.84369(16) 0.06369(9)
H19 H 0.4454 0.8613 0.0578
C32 C 0.35445(11) 0.88945(15) 0.10885(8)
H20 H 0.3769 0.9399 0.1321
C33 C 0.28039(10) 0.86028(14) 0.11954(8)
H21 H 0.2539 0.8904 0.1506
C34 C 0.18859(10) 0.68865(12) 0.36872(7)
C35 C 0.26815(10) 0.69759(13) 0.38535(8)
H22 H 0.2886 0.7286 0.4203
C36 C 0.30881(10) 0.65235(13) 0.34056(8)
H23 H 0.3616 0.6470 0.3400
C37 C 0.25535(10) 0.61490(12) 0.29478(8)
C38 C 0.26089(10) 0.54347(12) 0.24755(8)
C39 C 0.19476(10) 0.49007(13) 0.22987(8)
C40 C 0.18272(11) 0.39563(13) 0.20116(8)
H24 H 0.2189 0.3594 0.1808
C41 C 0.10869(10) 0.36830(13) 0.20903(8)
H25 H 0.0858 0.3104 0.1947
C42 C 0.07235(10) 0.44497(13) 0.24335(7)
C43 C 0.00471(10) 0.45068(13) 0.27674(8)
C44 C 0.00054(9) 0.52612(13) 0.32195(8)
C45 C -0.04211(10) 0.53412(14) 0.37685(8)
H26 H -0.0847 0.4969 0.3861
C46 C -0.00889(10) 0.60634(14) 0.41308(8)
H27 H -0.0257 0.6274 0.4509
C47 C 0.05629(10) 0.64382(13) 0.38265(7)
C48 C 0.12178(10) 0.69770(13) 0.40255(8)
C49 C 0.33542(10) 0.52028(13) 0.22091(8)
C50 C 0.36921(11) 0.59080(14) 0.18391(9)
H28 H 0.3464 0.6523 0.1784
C51 C 0.43622(11) 0.57002(15) 0.15539(9)
H29 H 0.4578 0.6170 0.1302
C52 C 0.47153(11) 0.47923(15) 0.16414(10)
H30 H 0.5167 0.4653 0.1450
C53 C 0.43905(11) 0.40948(14) 0.20160(10)
H31 H 0.4630 0.3489 0.2081
C54 C 0.37111(11) 0.42940(14) 0.22941(9)
H32 H 0.3492 0.3817 0.2539
C55 C -0.05487(10) 0.37384(14) 0.27345(8)
C56 C -0.13159(11) 0.40029(16) 0.27564(9)
H33 H -0.1448 0.4667 0.2768
C57 C -0.18835(12) 0.32914(17) 0.27614(10)
H34 H -0.2391 0.3480 0.2786
C58 C -0.16971(12) 0.23026(17) 0.27305(9)
H35 H -0.2078 0.1825 0.2733
C59 C -0.09422(12) 0.20258(15) 0.26963(9)
H36 H -0.0816 0.1361 0.2666
C60 C -0.03728(11) 0.27329(14) 0.27064(8)
H37 H 0.0134 0.2537 0.2694
C61 C 0.12367(10) 0.75487(14) 0.46078(8)
C62 C 0.14359(11) 0.85442(15) 0.46027(9)
H38 H 0.1578 0.8838 0.4239
C63 C 0.14234(12) 0.91022(16) 0.51381(9)
H39 H 0.1550 0.9768 0.5130
C64 C 0.12219(11) 0.86656(17) 0.56838(9)
H40 H 0.1211 0.9039 0.6041
C65 C 0.10381(11) 0.76754(17) 0.56962(9)
H41 H 0.0909 0.7381 0.6064
C66 C 0.10447(10) 0.71176(15) 0.51627(8)
H42 H 0.0920 0.6451 0.5175
C67 C 0.61891(13) 0.2498(2) 0.21107(12)
H43 H 0.6123 0.2899 0.2468
H44 H 0.6551 0.1984 0.2206
H45 H 0.5709 0.2210 0.1983
C68 C 0.64718(14) 0.3117(2) 0.16097(13)
N7 N 0.6661(2) 0.3592(3) 0.12375(18)
loop_
_geom_bond_atom_site_label_1
_geom_bond_atom_site_label_2
_geom_bond_site_symmetry_1
_geom_bond_site_symmetry_2
B1 N1 1_555 1_555
N1 C1 1_555 1_555
N2 B1 1_555 1_555
N3 B1 1_555 1_555
O1 B1 1_555 1_555
O2 O1 1_555 1_555
B2 O2 1_555 1_555
N4 B2 1_555 1_555
N5 B2 1_555 1_555
N6 B2 1_555 1_555
C1 C2 1_555 1_555
C2 H1 1_555 1_555
C3 C2 1_555 1_555
H2 C3 1_555 1_555
C4 N1 1_555 1_555
C5 C4 1_555 1_555
C6 N2 1_555 1_555
C7 C6 1_555 1_555
H3 C7 1_555 1_555
C8 C7 1_555 1_555
H4 C8 1_555 1_555
C9 N2 1_555 1_555
C10 C9 1_555 1_555
C11 N3 1_555 1_555
C12 C11 1_555 1_555
H5 C12 1_555 1_555
C13 C12 1_555 1_555
H6 C13 1_555 1_555
C14 N3 1_555 1_555
C15 C1 1_555 1_555
C16 C5 1_555 1_555
C17 C16 1_555 1_555
H7 C17 1_555 1_555
C18 C17 1_555 1_555
H8 C18 1_555 1_555
C19 C18 1_555 1_555
H9 C19 1_555 1_555
C20 C19 1_555 1_555
H10 C20 1_555 1_555
C21 C16 1_555 1_555
H11 C21 1_555 1_555
C22 C10 1_555 1_555
C23 C22 1_555 1_555
H12 C23 1_555 1_555
C24 C23 1_555 1_555
H13 C24 1_555 1_555
C25 C24 1_555 1_555
H14 C25 1_555 1_555
C26 C25 1_555 1_555
H15 C26 1_555 1_555
C27 C22 1_555 1_555
H16 C27 1_555 1_555
C28 C15 1_555 1_555
C29 C28 1_555 1_555
H17 C29 1_555 1_555
C30 C29 1_555 1_555
H18 C30 1_555 1_555
C31 C30 1_555 1_555
H19 C31 1_555 1_555
C32 C31 1_555 1_555
H20 C32 1_555 1_555
C33 C28 1_555 1_555
H21 C33 1_555 1_555
C34 N4 1_555 1_555
C35 C34 1_555 1_555
H22 C35 1_555 1_555
C36 C35 1_555 1_555
H23 C36 1_555 1_555
C37 N4 1_555 1_555
C38 C37 1_555 1_555
C39 N5 1_555 1_555
C40 C39 1_555 1_555
H24 C40 1_555 1_555
C41 C40 1_555 1_555
H25 C41 1_555 1_555
C42 N5 1_555 1_555
C43 C42 1_555 1_555
C44 N6 1_555 1_555
C45 C44 1_555 1_555
H26 C45 1_555 1_555
C46 C45 1_555 1_555
H27 C46 1_555 1_555
C47 N6 1_555 1_555
C48 C34 1_555 1_555
C49 C38 1_555 1_555
C50 C49 1_555 1_555
H28 C50 1_555 1_555
C51 C50 1_555 1_555
H29 C51 1_555 1_555
C52 C51 1_555 1_555
H30 C52 1_555 1_555
C53 C52 1_555 1_555
H31 C53 1_555 1_555
C54 C49 1_555 1_555
H32 C54 1_555 1_555
C55 C43 1_555 1_555
C56 C55 1_555 1_555
H33 C56 1_555 1_555
C57 C56 1_555 1_555
H34 C57 1_555 1_555
C58 C57 1_555 1_555
H35 C58 1_555 1_555
C59 C58 1_555 1_555
H36 C59 1_555 1_555
C60 C55 1_555 1_555
H37 C60 1_555 1_555
C61 C48 1_555 1_555
C62 C61 1_555 1_555
H38 C62 1_555 1_555
C63 C62 1_555 1_555
H39 C63 1_555 1_555
C64 C63 1_555 1_555
H40 C64 1_555 1_555
C65 C64 1_555 1_555
H41 C65 1_555 1_555
C66 C61 1_555 1_555
H42 C66 1_555 1_555
C67 H43 1_555 1_555
H44 C67 1_555 1_555
H45 C67 1_555 1_555
C68 C67 1_555 1_555
N7 C68 1_555 1_555
C3 C4 1_555 1_555
C5 C6 1_555 1_555
C8 C9 1_555 1_555
C10 C11 1_555 1_555
C13 C14 1_555 1_555
C14 C15 1_555 1_555
C20 C21 1_555 1_555
C26 C27 1_555 1_555
C32 C33 1_555 1_555
C36 C37 1_555 1_555
C38 C39 1_555 1_555
C41 C42 1_555 1_555
C43 C44 1_555 1_555
C46 C47 1_555 1_555
C47 C48 1_555 1_555
C53 C54 1_555 1_555
C59 C60 1_555 1_555
C65 C66 1_555 1_555

#END
