
#######################################################################
#
#                 Cambridge Crystallographic Data Centre
#                                CCDC 
#
#######################################################################
#
# If this CIF has been generated from an entry in the Cambridge 
# Structural Database, then it will include bibliographic, chemical, 
# crystal, experimental, refinement or atomic coordinate data resulting 
# from the CCDC's data processing and validation procedures.
#
#######################################################################

data_MAJSAU
_chemical_formula_moiety         'C33 H22 B1 N3 O1,0.15(C6 H14),0.09(C1 H2 Cl2)'
_chemical_name_systematic        
'3,6,9-Triphenyl-9cH-8b\l^5^,9b,9d-triaza-9\L^5^-boratricyclopenta[cd,gh,kl]phenalen-9c-ol dichloromethane n-hexane solvate'
_symmetry_cell_setting           monoclinic
_symmetry_space_group_name_H-M   'P 21/c'
_symmetry_Int_Tables_number      14
_space_group_name_Hall           '-P 2ybc'
loop_
_symmetry_equiv_pos_site_id
_symmetry_equiv_pos_as_xyz
1 x,y,z
2 -x,1/2+y,1/2-z
3 -x,-y,-z
4 x,1/2-y,1/2+z
_cell_length_a                   9.696(3)
_cell_length_b                   25.267(7)
_cell_length_c                   22.112(6)
_cell_angle_alpha                90
_cell_angle_beta                 97.771(10)
_cell_angle_gamma                90
_cell_volume                     5367.44
_exptl_crystal_colour            yellow
_exptl_crystal_description       Prism
_cell_formula_units_Z            8
loop_
_atom_site_label
_atom_site_type_symbol
_atom_site_fract_x
_atom_site_fract_y
_atom_site_fract_z
B2 B 0.1699(5) 0.72346(19) 0.2452(2)
O2 O 0.2742(3) 0.72209(11) 0.20441(14)
H23 H 0.3324 0.6994 0.2159
N4 N 0.2240(4) 0.73768(14) 0.31074(16)
N5 N 0.0609(4) 0.76375(13) 0.22675(16)
N6 N 0.0924(4) 0.67256(14) 0.24992(16)
C34 C 0.2618(5) 0.70174(18) 0.3561(2)
C35 C 0.3181(5) 0.73281(18) 0.4085(2)
H24 H 0.3579 0.7196 0.4461
C36 C 0.3025(5) 0.78480(18) 0.3930(2)
H25 H 0.3291 0.8133 0.4186
C37 C 0.2380(5) 0.78856(17) 0.3306(2)
C38 C 0.1697(4) 0.83007(17) 0.2953(2)
C39 C 0.0708(5) 0.81607(18) 0.24429(19)
C40 C -0.0459(5) 0.84169(18) 0.2097(2)
H26 H -0.0645 0.8778 0.2097
C41 C -0.1249(5) 0.80455(17) 0.1771(2)
H27 H -0.2071 0.8108 0.1512
C42 C -0.0600(5) 0.75366(17) 0.18949(19)
C43 C -0.1046(4) 0.70056(17) 0.17900(19)
C44 C -0.0290(4) 0.65997(16) 0.21368(19)
C45 C -0.0648(5) 0.60799(17) 0.2313(2)
H28 H -0.1398 0.5881 0.2132
C46 C 0.0304(5) 0.59233(17) 0.2798(2)
H29 H 0.0314 0.5600 0.3001
C47 C 0.1282(4) 0.63486(17) 0.2935(2)
C48 C 0.2232(5) 0.64773(18) 0.3459(2)
C49 C 0.1952(5) 0.88562(17) 0.31576(19)
C50 C 0.3323(5) 0.90134(17) 0.3373(2)
H30 H 0.4047 0.8771 0.3380
C51 C 0.3604(5) 0.95249(19) 0.3574(2)
H31 H 0.4514 0.9624 0.3717
C52 C 0.2531(5) 0.98933(18) 0.3564(2)
H32 H 0.2724 1.0238 0.3697
C53 C 0.1180(5) 0.97446(17) 0.3357(2)
H33 H 0.0462 0.9990 0.3348
C54 C 0.0891(5) 0.92274(17) 0.3159(2)
H34 H -0.0024 0.9129 0.3027
C55 C -0.2359(5) 0.68711(17) 0.1389(2)
C56 C -0.3606(5) 0.71294(19) 0.1449(2)
H35 H -0.3620 0.7387 0.1749
C57 C -0.4816(5) 0.70087(18) 0.1073(2)
H36 H -0.5634 0.7190 0.1112
C58 C -0.4808(5) 0.66158(19) 0.0634(2)
H37 H -0.5622 0.6532 0.0380
C59 C -0.3583(5) 0.63483(19) 0.0576(2)
H38 H -0.3580 0.6084 0.0284
C60 C -0.2371(5) 0.64733(18) 0.0950(2)
H39 H -0.1555 0.6291 0.0910
C61 C 0.2651(5) 0.60638(18) 0.3923(2)
C62 C 0.3180(5) 0.55885(19) 0.3745(2)
H40 H 0.3282 0.5537 0.3337
C63 C 0.3559(5) 0.5190(2) 0.4159(2)
H41 H 0.3907 0.4873 0.4029
C64 C 0.3423(5) 0.5260(2) 0.4762(2)
H42 H 0.3685 0.4992 0.5042
C65 C 0.2895(6) 0.5733(2) 0.4957(2)
H43 H 0.2810 0.5783 0.5367
C66 C 0.2497(6) 0.6130(2) 0.4538(2)
H44 H 0.2124 0.6442 0.4667
C67 C 0.2973(13) 0.3148(7) 0.4918(7)
H45 H 0.3269 0.2801 0.4798
H46 H 0.3208 0.3176 0.5357
C68 C 0.1399(11) 0.3188(3) 0.4757(4)
H47 H 0.1114 0.3298 0.4338
H48 H 0.0973 0.3413 0.5035
C69 C -0.1296(8) 0.2947(3) 0.4362(3)
H49 H -0.1499 0.3304 0.4466
H50 H -0.2148 0.2750 0.4283
H51 H -0.0835 0.2946 0.4004
C70 C 0.1147(14) 0.2580(4) 0.4862(8)
H52 H 0.1320 0.2357 0.4523
H53 H 0.1626 0.2446 0.5245
C71 C -0.0378(13) 0.2699(6) 0.4878(7)
H54 H -0.0812 0.2366 0.4963
H55 H -0.0422 0.2923 0.5230
C72 C 0.3803(19) 0.3580(7) 0.4608(10)
H56 H 0.4700 0.3629 0.4843
H57 H 0.3298 0.3908 0.4587
H58 H 0.3918 0.3468 0.4203
B1 B 0.3264(5) 0.4475(2) 0.2408(2)
O1 O 0.2176(3) 0.45145(12) 0.27949(14)
H1 H 0.1616 0.4743 0.2660
N1 N 0.4327(4) 0.40684(14) 0.26298(16)
N2 N 0.2757(4) 0.43066(14) 0.17617(16)
N3 N 0.4058(4) 0.49722(14) 0.23390(16)
C1 C 0.5523(4) 0.41796(17) 0.30140(19)
C2 C 0.6125(5) 0.36779(18) 0.3191(2)
H2 H 0.6919 0.3623 0.3470
C3 C 0.5326(5) 0.32901(18) 0.2876(2)
H3 H 0.5485 0.2928 0.2908
C4 C 0.4211(5) 0.35401(16) 0.2492(2)
C5 C 0.3242(4) 0.33865(17) 0.1981(2)
C6 C 0.2600(4) 0.37889(16) 0.1591(2)
C7 C 0.1958(5) 0.37955(17) 0.0966(2)
H4 H 0.1698 0.3501 0.0725
C8 C 0.1797(5) 0.43199(18) 0.0787(2)
H5 H 0.1389 0.4440 0.0406
C9 C 0.2367(5) 0.46457(17) 0.1289(2)
C10 C 0.2755(4) 0.51893(17) 0.1365(2)
C11 C 0.3712(4) 0.53349(16) 0.1882(2)
C12 C 0.4704(5) 0.57570(17) 0.1999(2)
H6 H 0.4705 0.6072 0.1781
C13 C 0.5652(4) 0.56113(17) 0.2489(2)
H7 H 0.6415 0.5810 0.2658
C14 C 0.5270(5) 0.51041(18) 0.26972(19)
C15 C 0.5996(5) 0.47093(17) 0.3075(2)
C16 C 0.2957(5) 0.28223(17) 0.1821(2)
C17 C 0.4012(5) 0.24456(18) 0.1856(2)
H8 H 0.4932 0.2548 0.1967
C18 C 0.3703(5) 0.19217(19) 0.1727(2)
H9 H 0.4418 0.1674 0.1757
C19 C 0.2339(5) 0.17584(18) 0.1553(2)
H10 H 0.2136 0.1404 0.1467
C20 C 0.1291(5) 0.21317(18) 0.1509(2)
H11 H 0.0372 0.2029 0.1392
C21 C 0.1601(5) 0.26588(19) 0.1640(2)
H12 H 0.0886 0.2907 0.1604
C22 C 0.2282(4) 0.55982(17) 0.0906(2)
C23 C 0.2268(5) 0.55302(18) 0.0284(2)
H13 H 0.2578 0.5213 0.0137
C24 C 0.1798(5) 0.59292(19) -0.0123(2)
H14 H 0.1798 0.5878 -0.0540
C25 C 0.1327(5) 0.64054(19) 0.0088(2)
H15 H 0.1000 0.6671 -0.0185
C26 C 0.1350(5) 0.6480(2) 0.0709(2)
H16 H 0.1047 0.6799 0.0854
C27 C 0.1820(5) 0.60828(18) 0.1114(2)
H17 H 0.1830 0.6137 0.1531
C28 C 0.7310(5) 0.48518(18) 0.3462(2)
C29 C 0.7376(5) 0.52878(19) 0.3849(2)
H18 H 0.6591 0.5497 0.3862
C30 C 0.8606(5) 0.5411(2) 0.4216(2)
H19 H 0.8640 0.5702 0.4476
C31 C 0.9778(5) 0.5108(2) 0.4199(2)
H20 H 1.0600 0.5194 0.4447
C32 C 0.9739(5) 0.4677(2) 0.3816(2)
H21 H 1.0532 0.4472 0.3806
C33 C 0.8521(5) 0.45501(18) 0.3445(2)
H22 H 0.8501 0.4262 0.3182
Cl1? Cl 0.0696(8) 0.2822(4) 0.4828(4)
C73? C 0.2589(14) 0.2846(7) 0.5031(7)
H59? H 0.2774 0.2724 0.5451
H60? H 0.2959 0.2576 0.4785
Cl2? Cl 0.3617(6) 0.3395(3) 0.4988(3)
loop_
_geom_bond_atom_site_label_1
_geom_bond_atom_site_label_2
_geom_bond_site_symmetry_1
_geom_bond_site_symmetry_2
B1 O1 1_555 1_555
O1 H1 1_555 1_555
N1 B1 1_555 1_555
N2 B1 1_555 1_555
N3 B1 1_555 1_555
C1 N1 1_555 1_555
C2 C1 1_555 1_555
H2 C2 1_555 1_555
C3 C2 1_555 1_555
H3 C3 1_555 1_555
C4 N1 1_555 1_555
C5 C4 1_555 1_555
C6 N2 1_555 1_555
C7 C6 1_555 1_555
H4 C7 1_555 1_555
C8 C7 1_555 1_555
H5 C8 1_555 1_555
C9 N2 1_555 1_555
C10 C9 1_555 1_555
C11 N3 1_555 1_555
C12 C11 1_555 1_555
H6 C12 1_555 1_555
C13 C12 1_555 1_555
H7 C13 1_555 1_555
C14 N3 1_555 1_555
C15 C1 1_555 1_555
C16 C5 1_555 1_555
C17 C16 1_555 1_555
H8 C17 1_555 1_555
C18 C17 1_555 1_555
H9 C18 1_555 1_555
C19 C18 1_555 1_555
H10 C19 1_555 1_555
C20 C19 1_555 1_555
H11 C20 1_555 1_555
C21 C16 1_555 1_555
H12 C21 1_555 1_555
C22 C10 1_555 1_555
C23 C22 1_555 1_555
H13 C23 1_555 1_555
C24 C23 1_555 1_555
H14 C24 1_555 1_555
C25 C24 1_555 1_555
H15 C25 1_555 1_555
C26 C25 1_555 1_555
H16 C26 1_555 1_555
C27 C22 1_555 1_555
H17 C27 1_555 1_555
C28 C15 1_555 1_555
C29 C28 1_555 1_555
H18 C29 1_555 1_555
C30 C29 1_555 1_555
H19 C30 1_555 1_555
C31 C30 1_555 1_555
H20 C31 1_555 1_555
C32 C31 1_555 1_555
H21 C32 1_555 1_555
C33 C28 1_555 1_555
H22 C33 1_555 1_555
B2 O2 1_555 1_555
O2 H23 1_555 1_555
N4 B2 1_555 1_555
N5 B2 1_555 1_555
N6 B2 1_555 1_555
C34 N4 1_555 1_555
C35 C34 1_555 1_555
H24 C35 1_555 1_555
C36 C35 1_555 1_555
H25 C36 1_555 1_555
C37 N4 1_555 1_555
C38 C37 1_555 1_555
C39 N5 1_555 1_555
C40 C39 1_555 1_555
H26 C40 1_555 1_555
C41 C40 1_555 1_555
H27 C41 1_555 1_555
C42 N5 1_555 1_555
C43 C42 1_555 1_555
C44 N6 1_555 1_555
C45 C44 1_555 1_555
H28 C45 1_555 1_555
C46 C45 1_555 1_555
H29 C46 1_555 1_555
C47 N6 1_555 1_555
C48 C34 1_555 1_555
C49 C38 1_555 1_555
C50 C49 1_555 1_555
H30 C50 1_555 1_555
C51 C50 1_555 1_555
H31 C51 1_555 1_555
C52 C51 1_555 1_555
H32 C52 1_555 1_555
C53 C52 1_555 1_555
H33 C53 1_555 1_555
C54 C49 1_555 1_555
H34 C54 1_555 1_555
C55 C43 1_555 1_555
C56 C55 1_555 1_555
H35 C56 1_555 1_555
C57 C56 1_555 1_555
H36 C57 1_555 1_555
C58 C57 1_555 1_555
H37 C58 1_555 1_555
C59 C58 1_555 1_555
H38 C59 1_555 1_555
C60 C55 1_555 1_555
H39 C60 1_555 1_555
C61 C48 1_555 1_555
C62 C61 1_555 1_555
H40 C62 1_555 1_555
C63 C62 1_555 1_555
H41 C63 1_555 1_555
C64 C63 1_555 1_555
H42 C64 1_555 1_555
C65 C64 1_555 1_555
H43 C65 1_555 1_555
C66 C61 1_555 1_555
H44 C66 1_555 1_555
C67 H45 1_555 1_555
H46 C67 1_555 1_555
C68 C67 1_555 1_555
H47 C68 1_555 1_555
H48 C68 1_555 1_555
C69 H49 1_555 1_555
H50 C69 1_555 1_555
H51 C69 1_555 1_555
C70 C68 1_555 1_555
H52 C70 1_555 1_555
H53 C70 1_555 1_555
C71 C69 1_555 1_555
H54 C71 1_555 1_555
H55 C71 1_555 1_555
C72 C67 1_555 1_555
H56 C72 1_555 1_555
H57 C72 1_555 1_555
H58 C72 1_555 1_555
C3 C4 1_555 1_555
C5 C6 1_555 1_555
C8 C9 1_555 1_555
C10 C11 1_555 1_555
C13 C14 1_555 1_555
C14 C15 1_555 1_555
C20 C21 1_555 1_555
C26 C27 1_555 1_555
C32 C33 1_555 1_555
C36 C37 1_555 1_555
C38 C39 1_555 1_555
C41 C42 1_555 1_555
C43 C44 1_555 1_555
C46 C47 1_555 1_555
C47 C48 1_555 1_555
C53 C54 1_555 1_555
C59 C60 1_555 1_555
C65 C66 1_555 1_555
C70 C71 1_555 1_555

#END
