
#######################################################################
#
#                 Cambridge Crystallographic Data Centre
#                                CCDC 
#
#######################################################################
#
# If this CIF has been generated from an entry in the Cambridge 
# Structural Database, then it will include bibliographic, chemical, 
# crystal, experimental, refinement or atomic coordinate data resulting 
# from the CCDC's data processing and validation procedures.
#
#######################################################################

data_MAJSOI
_chemical_formula_moiety         'C40 H25 B1 Cl1 N3 O2,0.5(C1 H2 Cl2)'
_chemical_name_systematic        
'9c-((3-Chlorobenzoyl)oxy)-3,6,9-triphenyl-9cH-8b\l^5^,9b,9d-triaza-9\L^5^-boratricyclopenta[cd,gh,kl]phenalene dichloromethane solvate'
_symmetry_cell_setting           monoclinic
_symmetry_space_group_name_H-M   'P 21/n'
_symmetry_Int_Tables_number      14
_space_group_name_Hall           '-P 2yn'
loop_
_symmetry_equiv_pos_site_id
_symmetry_equiv_pos_as_xyz
1 x,y,z
2 1/2-x,1/2+y,1/2-z
3 -x,-y,-z
4 1/2+x,1/2-y,1/2+z
_cell_length_a                   13.8885(15)
_cell_length_b                   13.3309(17)
_cell_length_c                   34.242(4)
_cell_angle_alpha                90
_cell_angle_beta                 95.353(3)
_cell_angle_gamma                90
_cell_volume                     6312.13
_exptl_crystal_colour            yellow
_exptl_crystal_description       Prism
_cell_formula_units_Z            8
loop_
_atom_site_label
_atom_site_type_symbol
_atom_site_fract_x
_atom_site_fract_y
_atom_site_fract_z
C1 C -0.04671(17) 0.2234(2) 0.30185(7)
C2 C 0.00635(18) 0.2347(2) 0.33981(7)
H1 H 0.0669 0.2075 0.3474
C3 C -0.04736(18) 0.2923(2) 0.36290(7)
H2 H -0.0294 0.3111 0.3887
C4 C -0.13646(18) 0.31845(19) 0.34022(7)
C5 C -0.22680(18) 0.35267(19) 0.35056(7)
C6 C -0.31073(18) 0.32984(19) 0.32504(7)
C7 C -0.41247(18) 0.32402(19) 0.32904(7)
H3 H -0.4437 0.3496 0.3497
C8 C -0.45584(18) 0.27392(19) 0.29693(7)
H4 H -0.5214 0.2592 0.2923
C9 C -0.38259(17) 0.24841(19) 0.27185(7)
C10 C -0.37825(17) 0.18272(19) 0.23960(7)
C11 C -0.28664(17) 0.14905(19) 0.23013(7)
C12 C -0.25155(17) 0.06985(19) 0.20685(7)
H5 H -0.2890 0.0302 0.1890
C13 C -0.15321(18) 0.06270(19) 0.21549(7)
H6 H -0.1126 0.0174 0.2045
C14 C -0.12399(17) 0.1374(2) 0.24441(7)
C15 C -0.03928(17) 0.1566(2) 0.27004(7)
C16 C -0.23313(19) 0.4066(2) 0.38821(7)
C17 C -0.17108(19) 0.4877(2) 0.39764(7)
H7 H -0.1246 0.5049 0.3809
C18 C -0.1784(2) 0.5426(2) 0.43169(8)
H8 H -0.1375 0.5969 0.4375
C19 C -0.2463(2) 0.5171(2) 0.45707(7)
H9 H -0.2513 0.5543 0.4798
C20 C -0.3067(2) 0.4357(2) 0.44854(7)
H10 H -0.3516 0.4175 0.4658
C21 C -0.30041(19) 0.3813(2) 0.41431(7)
H11 H -0.3417 0.3272 0.4087
C22 C -0.46931(17) 0.1478(2) 0.21785(7)
C23 C -0.53864(18) 0.2196(2) 0.20555(7)
H12 H -0.5264 0.2872 0.2107
C24 C -0.62584(19) 0.1906(2) 0.18562(8)
H13 H -0.6724 0.2386 0.1779
C25 C -0.64350(19) 0.0904(2) 0.17728(8)
H14 H -0.7020 0.0711 0.1640
C26 C -0.57427(19) 0.0186(2) 0.18870(8)
H15 H -0.5860 -0.0486 0.1827
C27 C -0.48735(18) 0.0469(2) 0.20914(7)
H16 H -0.4412 -0.0014 0.2170
C28 C 0.05211(17) 0.1015(2) 0.26639(7)
C29 C 0.14005(18) 0.1540(2) 0.27124(8)
H17 H 0.1403 0.2222 0.2771
C30 C 0.22695(19) 0.1045(2) 0.26739(8)
H18 H 0.2849 0.1397 0.2709
C31 C 0.22761(19) 0.0038(2) 0.25846(8)
H19 H 0.2858 -0.0287 0.2557
C32 C 0.14117(18) -0.0491(2) 0.25364(7)
H20 H 0.1414 -0.1171 0.2475
C33 C 0.05406(18) -0.0003(2) 0.25800(7)
H21 H -0.0035 -0.0364 0.2552
N1 N -0.12839(14) 0.28009(16) 0.30360(6)
N2 N -0.29900(14) 0.28890(16) 0.28928(6)
N3 N -0.20598(14) 0.18993(16) 0.24985(6)
B1 B -0.20661(19) 0.2871(2) 0.27102(8)
O1 O -0.18590(12) 0.37340(13) 0.24530(5)
C34 C -0.24864(17) 0.41259(19) 0.21740(7)
O2 O -0.33482(12) 0.39782(14) 0.21393(5)
C35 C -0.19987(17) 0.47845(19) 0.18976(7)
C36 C -0.09964(18) 0.4809(2) 0.19046(7)
H22 H -0.0613 0.4435 0.2088
C37 C -0.05823(18) 0.5396(2) 0.16356(7)
C38 C -0.11353(19) 0.59421(19) 0.13513(7)
H23 H -0.0841 0.6314 0.1166
C39 C -0.21317(19) 0.5924(2) 0.13490(7)
H24 H -0.2510 0.6295 0.1163
C40 C -0.25713(18) 0.5355(2) 0.16224(7)
H25 H -0.3241 0.5353 0.1622
Cl1 Cl 0.06772(4) 0.54750(5) 0.166306(19)
C41 C -0.06765(16) 0.38469(18) 0.07400(6)
C42 C 0.02517(17) 0.42902(19) 0.07006(7)
H26 H 0.0845 0.4032 0.0802
C43 C 0.01160(16) 0.51584(19) 0.04886(7)
H27 H 0.0601 0.5587 0.0420
C44 C -0.09081(16) 0.52932(18) 0.03903(6)
C45 C -0.15192(17) 0.60920(18) 0.02437(6)
C46 C -0.25240(17) 0.60172(18) 0.02893(6)
C47 C -0.32648(17) 0.67505(19) 0.03241(7)
H28 H -0.3231 0.7425 0.0257
C48 C -0.40355(17) 0.62869(19) 0.04741(7)
H29 H -0.4614 0.6592 0.0524
C49 C -0.37919(16) 0.52503(19) 0.05406(6)
C50 C -0.41596(16) 0.44995(18) 0.07810(6)
C51 C -0.35341(16) 0.37130(19) 0.09203(6)
C52 C -0.35140(17) 0.30122(19) 0.12418(7)
H30 H -0.4027 0.2865 0.1389
C53 C -0.26074(17) 0.26016(19) 0.12929(7)
H31 H -0.2396 0.2131 0.1482
C54 C -0.20381(17) 0.30214(18) 0.10046(6)
C55 C -0.10311(17) 0.30710(18) 0.09695(7)
C56 C -0.11299(17) 0.70117(19) 0.00739(7)
C57 C -0.02721(18) 0.7464(2) 0.02346(8)
H32 H 0.0051 0.7203 0.0462
C58 C 0.0101(2) 0.8297(2) 0.00587(9)
H33 H 0.0674 0.8586 0.0167
C59 C -0.0377(2) 0.8699(2) -0.02779(9)
H34 H -0.0121 0.9252 -0.0397
C60 C -0.1231(2) 0.8278(2) -0.04361(8)
H35 H -0.1557 0.8556 -0.0660
C61 C -0.16094(19) 0.7437(2) -0.02625(7)
H36 H -0.2186 0.7157 -0.0372
C62 C -0.51490(16) 0.46167(18) 0.09024(7)
C63 C -0.59155(17) 0.47911(19) 0.06152(7)
H37 H -0.5793 0.4836 0.0353
C64 C -0.68546(17) 0.4898(2) 0.07152(7)
H38 H -0.7357 0.5004 0.0521
C65 C -0.70458(18) 0.4845(2) 0.11061(7)
H39 H -0.7674 0.4921 0.1174
C66 C -0.62884(18) 0.4678(2) 0.13936(7)
H40 H -0.6413 0.4641 0.1655
C67 C -0.53502(17) 0.45651(19) 0.12951(7)
H41 H -0.4851 0.4454 0.1491
C68 C -0.03717(17) 0.2376(2) 0.12032(7)
C69 C 0.04137(19) 0.2734(2) 0.14480(8)
H42 H 0.0531 0.3420 0.1468
C70 C 0.1021(2) 0.2058(3) 0.16616(9)
H43 H 0.1540 0.2298 0.1827
C71 C 0.0867(2) 0.1048(3) 0.16315(10)
H44 H 0.1281 0.0604 0.1773
C72 C 0.0093(2) 0.0689(3) 0.13898(10)
H45 H -0.0011 0.0001 0.1368
C73 C -0.05307(19) 0.1349(2) 0.11790(8)
H46 H -0.1058 0.1101 0.1021
N4 N -0.13275(14) 0.44560(15) 0.05290(5)
N5 N -0.29067(13) 0.51219(15) 0.03987(5)
N6 N -0.26553(14) 0.36268(15) 0.07760(5)
O3 O -0.23967(11) 0.35647(13) 0.00575(4)
C74 C -0.31658(18) 0.3032(2) -0.00701(7)
O4 O -0.39291(13) 0.30542(17) 0.00703(6)
C75 C -0.30061(18) 0.2373(2) -0.04134(7)
C76 C -0.22692(19) 0.2563(2) -0.06497(8)
H47 H -0.1859 0.3109 -0.0599
C77 C -0.2154(2) 0.1932(2) -0.09596(9)
C78 C -0.2739(2) 0.1104(2) -0.10379(9)
H48 H -0.2643 0.0680 -0.1247
C79 C -0.3469(2) 0.0916(2) -0.08009(9)
H49 H -0.3867 0.0359 -0.0848
C80 C -0.3613(2) 0.1557(2) -0.04921(8)
H50 H -0.4117 0.1438 -0.0337
Cl2 Cl -0.12400(6) 0.21804(7) -0.12648(3)
B2 B -0.23540(18) 0.4172(2) 0.04295(7)
C81 C -0.5521(2) 0.2136(2) 0.04877(9)
H51 H -0.4839 0.2307 0.0523
H52 H -0.5867 0.2706 0.0368
Cl3 Cl -0.56857(5) 0.10861(5) 0.01706(2)
Cl4 Cl -0.59331(7) 0.18961(7) 0.09454(2)
loop_
_geom_bond_atom_site_label_1
_geom_bond_atom_site_label_2
_geom_bond_site_symmetry_1
_geom_bond_site_symmetry_2
C1 C2 1_555 1_555
C2 H1 1_555 1_555
C3 C2 1_555 1_555
H2 C3 1_555 1_555
C4 C3 1_555 1_555
C5 C4 1_555 1_555
C6 C5 1_555 1_555
C7 C6 1_555 1_555
H3 C7 1_555 1_555
C8 C7 1_555 1_555
H4 C8 1_555 1_555
C9 C8 1_555 1_555
C10 C9 1_555 1_555
C11 C10 1_555 1_555
C12 C11 1_555 1_555
H5 C12 1_555 1_555
C13 C12 1_555 1_555
H6 C13 1_555 1_555
C14 C13 1_555 1_555
C15 C1 1_555 1_555
C16 C5 1_555 1_555
C17 C16 1_555 1_555
H7 C17 1_555 1_555
C18 C17 1_555 1_555
H8 C18 1_555 1_555
C19 C18 1_555 1_555
H9 C19 1_555 1_555
C20 C19 1_555 1_555
H10 C20 1_555 1_555
C21 C16 1_555 1_555
H11 C21 1_555 1_555
C22 C10 1_555 1_555
C23 C22 1_555 1_555
H12 C23 1_555 1_555
C24 C23 1_555 1_555
H13 C24 1_555 1_555
C25 C24 1_555 1_555
H14 C25 1_555 1_555
C26 C25 1_555 1_555
H15 C26 1_555 1_555
C27 C22 1_555 1_555
H16 C27 1_555 1_555
C28 C15 1_555 1_555
C29 C28 1_555 1_555
H17 C29 1_555 1_555
C30 C29 1_555 1_555
H18 C30 1_555 1_555
C31 C30 1_555 1_555
H19 C31 1_555 1_555
C32 C31 1_555 1_555
H20 C32 1_555 1_555
C33 C28 1_555 1_555
H21 C33 1_555 1_555
N1 C1 1_555 1_555
N2 C6 1_555 1_555
N3 C11 1_555 1_555
B1 N1 1_555 1_555
O1 B1 1_555 1_555
C34 O1 1_555 1_555
O2 C34 1_555 1_555
C35 C34 1_555 1_555
C36 C35 1_555 1_555
H22 C36 1_555 1_555
C37 C36 1_555 1_555
C38 C37 1_555 1_555
H23 C38 1_555 1_555
C39 C38 1_555 1_555
H24 C39 1_555 1_555
C40 C35 1_555 1_555
H25 C40 1_555 1_555
Cl1 C37 1_555 1_555
C41 C42 1_555 1_555
C42 H26 1_555 1_555
C43 C42 1_555 1_555
H27 C43 1_555 1_555
C44 C43 1_555 1_555
C45 C44 1_555 1_555
C46 C45 1_555 1_555
C47 C46 1_555 1_555
H28 C47 1_555 1_555
C48 C47 1_555 1_555
H29 C48 1_555 1_555
C49 C48 1_555 1_555
C50 C49 1_555 1_555
C51 C50 1_555 1_555
C52 C51 1_555 1_555
H30 C52 1_555 1_555
C53 C52 1_555 1_555
H31 C53 1_555 1_555
C54 C53 1_555 1_555
C55 C41 1_555 1_555
C56 C45 1_555 1_555
C57 C56 1_555 1_555
H32 C57 1_555 1_555
C58 C57 1_555 1_555
H33 C58 1_555 1_555
C59 C58 1_555 1_555
H34 C59 1_555 1_555
C60 C59 1_555 1_555
H35 C60 1_555 1_555
C61 C56 1_555 1_555
H36 C61 1_555 1_555
C62 C50 1_555 1_555
C63 C62 1_555 1_555
H37 C63 1_555 1_555
C64 C63 1_555 1_555
H38 C64 1_555 1_555
C65 C64 1_555 1_555
H39 C65 1_555 1_555
C66 C65 1_555 1_555
H40 C66 1_555 1_555
C67 C62 1_555 1_555
H41 C67 1_555 1_555
C68 C55 1_555 1_555
C69 C68 1_555 1_555
H42 C69 1_555 1_555
C70 C69 1_555 1_555
H43 C70 1_555 1_555
C71 C70 1_555 1_555
H44 C71 1_555 1_555
C72 C71 1_555 1_555
H45 C72 1_555 1_555
C73 C68 1_555 1_555
H46 C73 1_555 1_555
N4 C41 1_555 1_555
N5 C46 1_555 1_555
N6 C51 1_555 1_555
O3 C74 1_555 1_555
C74 O4 1_555 1_555
C75 C74 1_555 1_555
C76 C75 1_555 1_555
H47 C76 1_555 1_555
C77 C76 1_555 1_555
C78 C77 1_555 1_555
H48 C78 1_555 1_555
C79 C78 1_555 1_555
H49 C79 1_555 1_555
C80 C75 1_555 1_555
H50 C80 1_555 1_555
Cl2 C77 1_555 1_555
B2 N4 1_555 1_555
C81 H51 1_555 1_555
H52 C81 1_555 1_555
Cl3 C81 1_555 1_555
Cl4 C81 1_555 1_555
C4 N1 1_555 1_555
C9 N2 1_555 1_555
C14 C15 1_555 1_555
C14 N3 1_555 1_555
C20 C21 1_555 1_555
C26 C27 1_555 1_555
C32 C33 1_555 1_555
N2 B1 1_555 1_555
N3 B1 1_555 1_555
C39 C40 1_555 1_555
C44 N4 1_555 1_555
C49 N5 1_555 1_555
C54 C55 1_555 1_555
C54 N6 1_555 1_555
C60 C61 1_555 1_555
C66 C67 1_555 1_555
C72 C73 1_555 1_555
N5 B2 1_555 1_555
N6 B2 1_555 1_555
O3 B2 1_555 1_555
C79 C80 1_555 1_555

#END
