
#######################################################################
#
#                 Cambridge Crystallographic Data Centre
#                                CCDC 
#
#######################################################################
#
# If this CIF has been generated from an entry in the Cambridge 
# Structural Database, then it will include bibliographic, chemical, 
# crystal, experimental, refinement or atomic coordinate data resulting 
# from the CCDC's data processing and validation procedures.
#
#######################################################################

data_MAJTOI
_chemical_formula_moiety         'C11 H10 Cl1 N5 O2'
_chemical_name_systematic        
(1-((6-Chloropyridin-3-yl)methyl)imidazolidin-2-ylidene)(nitro)acetonitrile
_symmetry_cell_setting           orthorhombic
_symmetry_space_group_name_H-M   'P b c a'
_symmetry_Int_Tables_number      61
_space_group_name_Hall           '-P 2ac 2ab'
loop_
_symmetry_equiv_pos_site_id
_symmetry_equiv_pos_as_xyz
1 x,y,z
2 1/2-x,-y,1/2+z
3 -x,1/2+y,1/2-z
4 1/2+x,1/2-y,-z
5 -x,-y,-z
6 1/2+x,y,1/2-z
7 x,1/2-y,1/2+z
8 1/2-x,1/2+y,z
_cell_length_a                   11.7507(4)
_cell_length_b                   8.3557(3)
_cell_length_c                   25.0122(9)
_cell_angle_alpha                90
_cell_angle_beta                 90
_cell_angle_gamma                90
_cell_volume                     2455.83
_cell_formula_units_Z            8
loop_
_atom_site_label
_atom_site_type_symbol
_atom_site_fract_x
_atom_site_fract_y
_atom_site_fract_z
Cl1 Cl 0.73687(7) 0.10576(10) 0.58355(3)
O1 O 0.36461(14) -0.03138(17) 0.25906(7)
N1 N 0.36924(15) 0.1160(2) 0.26653(8)
N2 N 0.37847(15) 0.4489(2) 0.30080(8)
H1 H 0.3243 0.4297 0.2786
N3 N 0.52630(15) 0.40206(19) 0.35172(7)
C1 C 0.45087(16) 0.3397(2) 0.31766(8)
C2 C 0.65426(17) 0.2895(2) 0.42159(8)
O2 O 0.30597(15) 0.2080(2) 0.24145(7)
C3 C 0.7020(2) 0.1805(3) 0.52040(9)
C4 C 0.5074(2) 0.0548(3) 0.33123(10)
C5 C 0.44611(17) 0.1739(2) 0.30383(8)
N4 N 0.78830(18) 0.2280(3) 0.49126(9)
C6 C 0.63905(18) 0.3416(3) 0.36419(9)
H2 H 0.6944 0.4244 0.3563
H3 H 0.6551 0.2513 0.3410
C7 C 0.4004(2) 0.6052(2) 0.32387(10)
H4 H 0.3357 0.6429 0.3444
H5 H 0.4185 0.6832 0.2964
C8 C 0.56616(18) 0.2417(3) 0.45454(9)
H6 H 0.4913 0.2474 0.4427
C9 C 0.5901(2) 0.1853(3) 0.50523(10)
H7 H 0.5325 0.1519 0.5281
C10 C 0.76262(19) 0.2829(3) 0.44249(10)
H8 H 0.8221 0.3192 0.4212
C11 C 0.5024(2) 0.5733(3) 0.35980(11)
H9 H 0.5670 0.6383 0.3493
H10 H 0.4842 0.5953 0.3969
N5 N 0.5555(2) -0.0421(3) 0.35415(12)
loop_
_geom_bond_atom_site_label_1
_geom_bond_atom_site_label_2
_geom_bond_site_symmetry_1
_geom_bond_site_symmetry_2
Cl1 C3 1_555 1_555
O1 N1 1_555 1_555
N1 O2 1_555 1_555
N2 H1 1_555 1_555
N3 C1 1_555 1_555
C1 N2 1_555 1_555
C2 C6 1_555 1_555
C3 N4 1_555 1_555
C4 C5 1_555 1_555
C5 N1 1_555 1_555
N4 C10 1_555 1_555
C6 N3 1_555 1_555
H2 C6 1_555 1_555
H3 C6 1_555 1_555
C7 N2 1_555 1_555
H4 C7 1_555 1_555
H5 C7 1_555 1_555
C8 C2 1_555 1_555
H6 C8 1_555 1_555
C9 C3 1_555 1_555
H7 C9 1_555 1_555
C10 C2 1_555 1_555
H8 C10 1_555 1_555
C11 N3 1_555 1_555
H9 C11 1_555 1_555
H10 C11 1_555 1_555
N5 C4 1_555 1_555
C1 C5 1_555 1_555
C7 C11 1_555 1_555
C8 C9 1_555 1_555

#END
