
#######################################################################
#
#                 Cambridge Crystallographic Data Centre
#                                CCDC 
#
#######################################################################
#
# If this CIF has been generated from an entry in the Cambridge 
# Structural Database, then it will include bibliographic, chemical, 
# crystal, experimental, refinement or atomic coordinate data resulting 
# from the CCDC's data processing and validation procedures.
#
#######################################################################

data_MAJYEE
_chemical_formula_moiety         'C17 H13 Cl1 N2 O2'
_chemical_name_systematic        
2-(4-chlorophenyl)-1,11b-dihydropyrazolo[1,5-d][1,4]benzoxazepin-5(6H)-one
_chemical_properties_biological  'hMAO-B inhibitor activity'
_symmetry_cell_setting           monoclinic
_symmetry_space_group_name_H-M   'P 21/c'
_symmetry_Int_Tables_number      14
_space_group_name_Hall           '-P 2ybc'
loop_
_symmetry_equiv_pos_site_id
_symmetry_equiv_pos_as_xyz
1 x,y,z
2 -x,1/2+y,1/2-z
3 -x,-y,-z
4 x,1/2-y,1/2+z
_cell_length_a                   13.3672(9)
_cell_length_b                   14.2568(10)
_cell_length_c                   7.7793(6)
_cell_angle_alpha                90
_cell_angle_beta                 97.002(7)
_cell_angle_gamma                90
_cell_volume                     1471.47
_exptl_crystal_colour            'light colorless'
_exptl_crystal_description       plate
_cell_formula_units_Z            4
loop_
_atom_site_label
_atom_site_type_symbol
_atom_site_fract_x
_atom_site_fract_y
_atom_site_fract_z
Cl1 Cl 0.52620(5) 0.65857(6) 0.05722(14)
O1 O -0.08482(11) 0.89192(11) -0.3527(2)
O2 O -0.23629(10) 0.70926(11) -0.57271(17)
N1 N -0.04709(12) 0.73655(12) -0.3553(2)
N2 N 0.04965(12) 0.75369(12) -0.2711(2)
C1 C -0.24365(16) 0.63219(16) -0.4651(3)
C2 C -0.33714(18) 0.5953(2) -0.4471(3)
H1 H -0.3955 0.6229 -0.5020
C3 C -0.3420(2) 0.5157(2) -0.3445(4)
H2 H -0.4044 0.4898 -0.3305
C4 C -0.2559(2) 0.47539(19) -0.2641(4)
H3 H -0.2601 0.4224 -0.1956
C5 C -0.16315(19) 0.51272(16) -0.2840(3)
H4 H -0.1050 0.4843 -0.2301
C6 C -0.15551(15) 0.59291(15) -0.3843(2)
C7 C -0.05819(15) 0.63730(15) -0.4199(3)
H5 H -0.0565 0.6379 -0.5455
C8 C -0.10838(16) 0.81165(16) -0.3947(3)
C9 C -0.21379(15) 0.79592(16) -0.4837(3)
H6 H -0.2598 0.8023 -0.3972
H7 H -0.2290 0.8463 -0.5667
C10 C 0.03963(17) 0.59337(17) -0.3351(4)
H8 H 0.0269 0.5493 -0.2453
H9 H 0.0748 0.5613 -0.4199
C11 C 0.09806(15) 0.67562(15) -0.2608(3)
C12 C 0.20243(15) 0.67062(16) -0.1797(3)
C13 C 0.24774(15) 0.74636(17) -0.0893(3)
H10 H 0.2104 0.8004 -0.0770
C14 C 0.34673(16) 0.74302(18) -0.0174(3)
H11 H 0.3763 0.7942 0.0430
C15 C 0.40154(17) 0.66264(19) -0.0362(3)
C16 C 0.35965(17) 0.58661(19) -0.1256(3)
H12 H 0.3981 0.5333 -0.1387
C17 C 0.25980(17) 0.58997(17) -0.1960(3)
H13 H 0.2305 0.5381 -0.2548
loop_
_geom_bond_atom_site_label_1
_geom_bond_atom_site_label_2
_geom_bond_site_symmetry_1
_geom_bond_site_symmetry_2
Cl1 C15 1_555 1_555
O1 C8 1_555 1_555
O2 C1 1_555 1_555
N1 N2 1_555 1_555
N2 C11 1_555 1_555
C1 C2 1_555 1_555
C2 H1 1_555 1_555
C3 C2 1_555 1_555
H2 C3 1_555 1_555
C4 C3 1_555 1_555
H3 C4 1_555 1_555
C5 C4 1_555 1_555
H4 C5 1_555 1_555
C6 C1 1_555 1_555
C7 N1 1_555 1_555
H5 C7 1_555 1_555
C8 N1 1_555 1_555
C9 O2 1_555 1_555
H6 C9 1_555 1_555
H7 C9 1_555 1_555
C10 C7 1_555 1_555
H8 C10 1_555 1_555
H9 C10 1_555 1_555
C11 C10 1_555 1_555
C12 C11 1_555 1_555
C13 C12 1_555 1_555
H10 C13 1_555 1_555
C14 C13 1_555 1_555
H11 C14 1_555 1_555
C15 C14 1_555 1_555
C16 C15 1_555 1_555
H12 C16 1_555 1_555
C17 C12 1_555 1_555
H13 C17 1_555 1_555
C5 C6 1_555 1_555
C6 C7 1_555 1_555
C8 C9 1_555 1_555
C16 C17 1_555 1_555

#END
