
#######################################################################
#
#                 Cambridge Crystallographic Data Centre
#                                CCDC 
#
#######################################################################
#
# If this CIF has been generated from an entry in the Cambridge 
# Structural Database, then it will include bibliographic, chemical, 
# crystal, experimental, refinement or atomic coordinate data resulting 
# from the CCDC's data processing and validation procedures.
#
#######################################################################

data_MAJYIG
_chemical_formula_moiety         'C22 H28 O5'
_chemical_name_systematic        
'dimethyl 13-oxopentacyclo[13.2.1.0^2,14^.0^3,12^.0^6,11^]octadec-11-ene-4,5-dicarboxylate'
_symmetry_cell_setting           monoclinic
_symmetry_space_group_name_H-M   'P 21/n'
_symmetry_Int_Tables_number      14
_space_group_name_Hall           '-P 2yn'
loop_
_symmetry_equiv_pos_site_id
_symmetry_equiv_pos_as_xyz
1 x,y,z
2 1/2-x,1/2+y,1/2-z
3 -x,-y,-z
4 1/2+x,1/2-y,1/2+z
_cell_length_a                   10.8847(4)
_cell_length_b                   9.8634(5)
_cell_length_c                   18.9142(5)
_cell_angle_alpha                90
_cell_angle_beta                 103.398(2)
_cell_angle_gamma                90
_cell_volume                     1975.37
_cell_formula_units_Z            4
loop_
_atom_site_label
_atom_site_type_symbol
_atom_site_fract_x
_atom_site_fract_y
_atom_site_fract_z
C1 C 0.3294(2) 0.8146(2) 0.32058(11)
H1 H 0.3789 0.7401 0.3460
H2 H 0.2497 0.8196 0.3351
C2 C 0.4028(2) 0.9505(2) 0.33530(10)
H3 H 0.3578 1.0156 0.3584
H4 H 0.4865 0.9367 0.3660
C3 C 0.41002(16) 0.99853(18) 0.25886(9)
H5 H 0.4233 1.0962 0.2548
C4 C 0.50554(14) 0.90899(17) 0.23216(8)
H6 H 0.5855 0.9033 0.2688
C5 C 0.52835(14) 0.94965(16) 0.15702(8)
H7 H 0.4599 1.0105 0.1334
C6 C 0.65424(14) 1.02102(17) 0.15845(8)
H8 H 0.7231 0.9646 0.1859
C7 C 0.66739(14) 1.03105(17) 0.07937(8)
H9 H 0.5900 1.0732 0.0510
C8 C 0.67755(15) 0.88877(18) 0.04696(8)
H10 H 0.6579 0.8990 -0.0060
C9 C 0.81009(16) 0.8245(2) 0.06943(10)
H11 H 0.8714 0.8848 0.0560
H12 H 0.8330 0.8129 0.1218
C10 C 0.8139(2) 0.6875(2) 0.03283(11)
H13 H 0.7999 0.7005 -0.0193
H14 H 0.8969 0.6476 0.0500
C11 C 0.71486(19) 0.5911(2) 0.04850(11)
H15 H 0.7356 0.5679 0.0997
H16 H 0.7153 0.5082 0.0209
C12 C 0.58289(18) 0.65428(19) 0.02851(10)
H17 H 0.5565 0.6648 -0.0238
H18 H 0.5232 0.5947 0.0440
C13 C 0.58323(15) 0.79021(18) 0.06450(8)
C14 C 0.51602(14) 0.81988(16) 0.11355(8)
C15 C 0.43404(15) 0.72580(17) 0.14390(9)
C16 C 0.43789(15) 0.76934(17) 0.22135(9)
H19 H 0.4847 0.7030 0.2558
C17 C 0.30839(17) 0.79871(19) 0.23821(10)
H20 H 0.2414 0.7348 0.2163
C18 C 0.28398(17) 0.9458(2) 0.21255(11)
H21 H 0.2112 0.9854 0.2262
H22 H 0.2771 0.9565 0.1608
C19 C 0.65703(15) 1.15567(17) 0.19664(8)
C20 C 0.5653(2) 1.3748(2) 0.18795(12)
H23 H 0.5478 1.3616 0.2349
H24 H 0.4970 1.4237 0.1574
H25 H 0.6422 1.4255 0.1930
C21 C 0.77688(16) 1.1198(2) 0.07190(9)
C22 C 0.8805(2) 1.2197(3) -0.01141(13)
H26 H 0.8686 1.3122 0.0013
H27 H 0.8809 1.2144 -0.0620
H28 H 0.9596 1.1870 0.0172
O1 O 0.37306(12) 0.63024(14) 0.11391(7)
O2 O 0.71575(13) 1.17959(15) 0.25724(7)
O3 O 0.57895(12) 1.24467(12) 0.15562(6)
O4 O 0.85353(16) 1.1672(2) 0.12104(8)
O5 O 0.77916(12) 1.13773(15) 0.00262(7)
loop_
_geom_bond_atom_site_label_1
_geom_bond_atom_site_label_2
_geom_bond_site_symmetry_1
_geom_bond_site_symmetry_2
C1 H1 1_555 1_555
H2 C1 1_555 1_555
C2 C1 1_555 1_555
H3 C2 1_555 1_555
H4 C2 1_555 1_555
C3 C2 1_555 1_555
H5 C3 1_555 1_555
C4 C3 1_555 1_555
H6 C4 1_555 1_555
C5 C4 1_555 1_555
H7 C5 1_555 1_555
C6 C5 1_555 1_555
H8 C6 1_555 1_555
C7 C6 1_555 1_555
H9 C7 1_555 1_555
C8 C7 1_555 1_555
H10 C8 1_555 1_555
C9 C8 1_555 1_555
H11 C9 1_555 1_555
H12 C9 1_555 1_555
C10 C9 1_555 1_555
H13 C10 1_555 1_555
H14 C10 1_555 1_555
C11 C10 1_555 1_555
H15 C11 1_555 1_555
H16 C11 1_555 1_555
C12 C11 1_555 1_555
H17 C12 1_555 1_555
H18 C12 1_555 1_555
C13 C8 1_555 1_555
C14 C5 1_555 1_555
C15 C14 1_555 1_555
C16 C4 1_555 1_555
H19 C16 1_555 1_555
C17 C1 1_555 1_555
H20 C17 1_555 1_555
C18 C3 1_555 1_555
H21 C18 1_555 1_555
H22 C18 1_555 1_555
C19 C6 1_555 1_555
C20 H23 1_555 1_555
H24 C20 1_555 1_555
H25 C20 1_555 1_555
C21 C7 1_555 1_555
C22 H26 1_555 1_555
H27 C22 1_555 1_555
H28 C22 1_555 1_555
O1 C15 1_555 1_555
O2 C19 1_555 1_555
O3 C19 1_555 1_555
O4 C21 1_555 1_555
O5 C21 1_555 1_555
C12 C13 1_555 1_555
C13 C14 1_555 1_555
C15 C16 1_555 1_555
C16 C17 1_555 1_555
C17 C18 1_555 1_555
C20 O3 1_555 1_555
C22 O5 1_555 1_555

#END
