
#######################################################################
#
#                 Cambridge Crystallographic Data Centre
#                                CCDC 
#
#######################################################################
#
# If this CIF has been generated from an entry in the Cambridge 
# Structural Database, then it will include bibliographic, chemical, 
# crystal, experimental, refinement or atomic coordinate data resulting 
# from the CCDC's data processing and validation procedures.
#
#######################################################################

data_MAKBEI
_chemical_formula_moiety         'C53 H48 B1 P1'
_chemical_name_systematic        
(4-(8-(4-(dimesitylboryl)phenyl)-1-naphthyl)phenyl)(methylene)diphenylphosphorane
_symmetry_cell_setting           orthorhombic
_symmetry_space_group_name_H-M   'P n a 21'
_symmetry_Int_Tables_number      33
_space_group_name_Hall           'P 2c -2n'
loop_
_symmetry_equiv_pos_site_id
_symmetry_equiv_pos_as_xyz
1 x,y,z
2 -x,-y,1/2+z
3 1/2+x,1/2-y,z
4 1/2-x,1/2+y,1/2+z
_cell_length_a                   37.242(2)
_cell_length_b                   9.0653(5)
_cell_length_c                   24.2757(16)
_cell_angle_alpha                90
_cell_angle_beta                 90
_cell_angle_gamma                90
_cell_volume                     8195.72
_exptl_crystal_colour            yellow
_exptl_crystal_description       plate
_cell_formula_units_Z            8
loop_
_atom_site_label
_atom_site_type_symbol
_atom_site_fract_x
_atom_site_fract_y
_atom_site_fract_z
P1 P 0.16859(5) 0.2546(2) 0.48263(8)
C1 C 0.1754(2) 0.4056(9) 0.4460(3)
H1 H 0.1844 0.3988 0.4090
H2 H 0.1698 0.5008 0.4614
C2 C 0.12082(18) 0.2373(8) 0.4972(3)
C3 C 0.1065(2) 0.2406(8) 0.5501(3)
H3 H 0.1223 0.2432 0.5809
C4 C 0.0698(3) 0.2399(9) 0.5585(4)
H4 H 0.0605 0.2393 0.5950
C5 C 0.0468(2) 0.2400(9) 0.5144(4)
H5 H 0.0215 0.2433 0.5195
C6 C 0.0611(2) 0.2354(9) 0.4641(4)
H6 H 0.0449 0.2323 0.4338
C7 C 0.0973(2) 0.2347(9) 0.4523(3)
H7 H 0.1058 0.2326 0.4154
C8 C 0.17862(18) 0.0725(8) 0.4537(3)
C9 C 0.1999(2) 0.0658(10) 0.4066(3)
H8 H 0.2094 0.1532 0.3906
C10 C 0.2071(2) -0.0718(11) 0.3834(4)
H9 H 0.2213 -0.0786 0.3509
C11 C 0.1938(2) -0.1971(10) 0.4073(4)
H10 H 0.1989 -0.2899 0.3909
C12 C 0.1733(2) -0.1924(10) 0.4546(4)
H11 H 0.1648 -0.2806 0.4713
C13 C 0.1654(2) -0.0552(10) 0.4772(4)
H12 H 0.1507 -0.0492 0.5092
C14 C 0.19324(19) 0.2593(8) 0.5474(3)
C15 C 0.21158(19) 0.1371(9) 0.5692(3)
H13 H 0.2138 0.0500 0.5477
C16 C 0.22622(18) 0.1414(8) 0.6205(3)
H14 H 0.2385 0.0568 0.6339
C17 C 0.22387(19) 0.2654(8) 0.6541(3)
C18 C 0.2072(2) 0.3905(9) 0.6317(3)
H15 H 0.2061 0.4790 0.6526
C19 C 0.19205(19) 0.3862(8) 0.5788(3)
H16 H 0.1808 0.4719 0.5644
C20 C 0.33545(19) 0.5824(8) 0.4866(3)
C21 C 0.3599(2) 0.6977(9) 0.4731(3)
C22 C 0.3474(2) 0.8346(10) 0.4587(3)
H17 H 0.3641 0.9100 0.4496
C23 C 0.3103(2) 0.8660(10) 0.4571(3)
C24 C 0.2872(2) 0.7536(10) 0.4695(3)
H18 H 0.2621 0.7726 0.4677
C25 C 0.2984(2) 0.6118(10) 0.4848(3)
C26 C 0.2693(2) 0.4990(9) 0.4932(4)
H19 H 0.2488 0.5227 0.4696
H20 H 0.2617 0.4997 0.5319
H21 H 0.2785 0.4010 0.4837
C27 C 0.2970(3) 1.0148(9) 0.4393(4)
H22 H 0.2819 1.0571 0.4684
H23 H 0.2829 1.0047 0.4054
H24 H 0.3175 1.0799 0.4325
C28 C 0.40002(19) 0.6706(10) 0.4711(4)
H25 H 0.4126 0.7648 0.4666
H26 H 0.4057 0.6058 0.4400
H27 H 0.4078 0.6238 0.5055
C29 C 0.3766(2) 0.3293(9) 0.4669(3)
C30 C 0.40769(19) 0.2673(9) 0.4892(3)
C31 C 0.4299(2) 0.1773(10) 0.4574(4)
H28 H 0.4514 0.1399 0.4730
C32 C 0.4212(2) 0.1407(10) 0.4029(4)
C33 C 0.3911(2) 0.2038(10) 0.3802(4)
H29 H 0.3851 0.1822 0.3430
C34 C 0.3687(2) 0.2996(9) 0.4104(3)
C35 C 0.3362(2) 0.3658(11) 0.3810(4)
H30 H 0.3314 0.3103 0.3471
H31 H 0.3411 0.4691 0.3718
H32 H 0.3151 0.3604 0.4052
C36 C 0.4444(3) 0.0363(11) 0.3693(4)
H33 H 0.4497 0.0811 0.3335
H34 H 0.4316 -0.0569 0.3638
H35 H 0.4669 0.0175 0.3890
C37 C 0.4193(2) 0.2982(10) 0.5478(4)
H36 H 0.4451 0.2798 0.5514
H37 H 0.4061 0.2333 0.5730
H38 H 0.4141 0.4013 0.5569
C38 C 0.33382(19) 0.3444(8) 0.5563(3)
C39 C 0.3321(2) 0.1939(9) 0.5606(3)
H39 H 0.3408 0.1359 0.5310
C40 C 0.3180(2) 0.1219(9) 0.6065(3)
H40 H 0.3173 0.0171 0.6074
C41 C 0.30496(18) 0.2021(9) 0.6511(3)
C42 C 0.3059(2) 0.3570(9) 0.6473(3)
H41 H 0.2969 0.4152 0.6767
C43 C 0.32000(19) 0.4252(9) 0.6011(3)
H42 H 0.3204 0.5300 0.5996
C44 C 0.29413(19) 0.1262(8) 0.7024(3)
C45 C 0.31801(19) 0.0251(8) 0.7243(3)
H43 H 0.3384 -0.0032 0.7033
C46 C 0.3128(2) -0.0364(9) 0.7764(4)
H44 H 0.3290 -0.1098 0.7892
C47 C 0.2851(2) 0.0063(9) 0.8092(3)
H45 H 0.2826 -0.0331 0.8453
C48 C 0.2601(2) 0.1100(9) 0.7890(3)
C49 C 0.2325(2) 0.1591(10) 0.8239(3)
H46 H 0.2303 0.1194 0.8600
C50 C 0.2086(2) 0.2637(10) 0.8063(4)
H47 H 0.1924 0.3074 0.8317
C51 C 0.20813(19) 0.3072(9) 0.7499(3)
H48 H 0.1904 0.3741 0.7369
C52 C 0.23379(19) 0.2511(8) 0.7139(3)
C53 C 0.26267(19) 0.1644(9) 0.7335(3)
B1 B 0.3490(2) 0.4219(11) 0.5030(4)
P2 P 0.13361(5) 0.7638(2) 0.68505(8)
C54 C 0.1269(2) 0.6164(8) 0.7235(3)
H49 H 0.1116 0.5365 0.7107
H50 H 0.1383 0.6060 0.7591
C55 C 0.1810(2) 0.7735(8) 0.6676(3)
C56 C 0.1938(2) 0.7665(8) 0.6143(3)
H51 H 0.1772 0.7667 0.5845
C57 C 0.2300(2) 0.7592(8) 0.6033(4)
H52 H 0.2382 0.7549 0.5662
C58 C 0.2546(2) 0.7581(9) 0.6464(5)
H53 H 0.2797 0.7511 0.6397
C59 C 0.2414(2) 0.7675(10) 0.6985(5)
H54 H 0.2580 0.7667 0.7282
C60 C 0.2057(2) 0.7780(9) 0.7105(3)
H55 H 0.1979 0.7882 0.7475
C61 C 0.1237(2) 0.9460(8) 0.7124(3)
C62 C 0.1349(2) 1.0760(8) 0.6877(3)
H56 H 0.1486 1.0707 0.6548
C63 C 0.1266(2) 1.2155(9) 0.7098(4)
H57 H 0.1342 1.3035 0.6919
C64 C 0.1072(2) 1.2206(10) 0.7582(4)
H58 H 0.1006 1.3137 0.7731
C65 C 0.0971(2) 1.0956(10) 0.7850(4)
H59 H 0.0853 1.1020 0.8195
C66 C 0.1043(2) 0.9570(9) 0.7616(3)
H60 H 0.0959 0.8702 0.7794
C67 C 0.1089(2) 0.7518(8) 0.6201(3)
C68 C 0.10912(19) 0.6186(9) 0.5922(3)
H61 H 0.1192 0.5335 0.6091
C69 C 0.0947(2) 0.6093(8) 0.5395(3)
H62 H 0.0952 0.5172 0.5208
C70 C 0.07956(18) 0.7302(8) 0.5134(3)
C71 C 0.07752(18) 0.8614(8) 0.5427(3)
H63 H 0.0661 0.9445 0.5265
C72 C 0.09218(19) 0.8733(8) 0.5961(3)
H64 H 0.0907 0.9639 0.6157
C73 C -0.0731(2) 0.6616(8) 0.6984(3)
C74 C -0.1039(2) 0.7265(9) 0.6745(3)
C75 C -0.1255(2) 0.8199(10) 0.7057(4)
H65 H -0.1464 0.8610 0.6892
C76 C -0.1179(3) 0.8550(11) 0.7596(4)
C77 C -0.0875(3) 0.7890(10) 0.7832(4)
H66 H -0.0813 0.8123 0.8202
C78 C -0.0661(2) 0.6902(10) 0.7540(3)
C79 C -0.0336(2) 0.6244(11) 0.7839(4)
H67 H -0.0353 0.6463 0.8234
H68 H -0.0115 0.6676 0.7691
H69 H -0.0332 0.5173 0.7785
C80 C -0.1416(3) 0.9614(13) 0.7912(5)
H70 H -0.1444 1.0525 0.7699
H71 H -0.1304 0.9840 0.8268
H72 H -0.1651 0.9164 0.7972
C81 C -0.1153(2) 0.6975(10) 0.6154(4)
H73 H -0.1409 0.6740 0.6144
H74 H -0.1015 0.6143 0.6006
H75 H -0.1107 0.7855 0.5930
C82 C -0.03141(18) 0.4128(9) 0.6767(3)
C83 C -0.05509(19) 0.2909(8) 0.6859(3)
C84 C -0.04188(19) 0.1506(9) 0.6954(3)
H76 H -0.0582 0.0711 0.7003
C85 C -0.0049(2) 0.1241(9) 0.6977(3)
C86 C 0.0184(2) 0.2402(10) 0.6912(4)
H77 H 0.0435 0.2235 0.6940
C87 C 0.00586(19) 0.3815(9) 0.6806(3)
C88 C 0.0341(2) 0.5006(10) 0.6763(4)
H78 H 0.0569 0.4636 0.6910
H79 H 0.0265 0.5871 0.6975
H80 H 0.0373 0.5285 0.6376
C89 C 0.0093(2) -0.0327(9) 0.7099(3)
H81 H 0.0259 -0.0290 0.7411
H82 H 0.0218 -0.0708 0.6774
H83 H -0.0109 -0.0977 0.7189
C90 C -0.0949(2) 0.3136(9) 0.6879(4)
H84 H -0.1071 0.2189 0.6826
H85 H -0.1021 0.3820 0.6586
H86 H -0.1016 0.3550 0.7237
C91 C -0.0306(2) 0.6456(9) 0.6086(3)
C92 C -0.0306(2) 0.8008(8) 0.6027(3)
H87 H -0.0411 0.8597 0.6308
C93 C -0.01569(19) 0.8701(8) 0.5565(3)
H88 H -0.0151 0.9747 0.5546
C94 C -0.0018(2) 0.7876(9) 0.5134(3)
C95 C -0.00178(19) 0.6357(8) 0.5185(3)
H89 H 0.0077 0.5772 0.4895
C96 C -0.01529(19) 0.5669(9) 0.5652(3)
H90 H -0.0141 0.4624 0.5677
C97 C 0.00981(19) 0.8598(8) 0.4605(3)
C98 C -0.01292(19) 0.9612(8) 0.4379(3)
H91 H -0.0321 0.9994 0.4594
C99 C -0.0083(2) 1.0102(10) 0.3835(3)
H92 H -0.0231 1.0862 0.3690
C100 C 0.0173(2) 0.9481(10) 0.3521(3)
H93 H 0.0188 0.9749 0.3143
C101 C 0.0423(2) 0.8438(10) 0.3734(3)
C102 C 0.0679(2) 0.7744(10) 0.3394(3)
H94 H 0.0685 0.7946 0.3010
C103 C 0.0921(2) 0.6776(11) 0.3621(4)
H95 H 0.1081 0.6246 0.3390
C104 C 0.0930(2) 0.6576(10) 0.4180(4)
H96 H 0.1107 0.5932 0.4327
C105 C 0.0700(2) 0.7248(8) 0.4539(3)
C106 C 0.0408(2) 0.8098(8) 0.4306(3)
B2 B -0.0454(2) 0.5700(10) 0.6616(4)
loop_
_geom_bond_atom_site_label_1
_geom_bond_atom_site_label_2
_geom_bond_site_symmetry_1
_geom_bond_site_symmetry_2
P1 C1 1_555 1_555
C1 H1 1_555 1_555
H2 C1 1_555 1_555
C2 P1 1_555 1_555
C3 C2 1_555 1_555
H3 C3 1_555 1_555
C4 C3 1_555 1_555
H4 C4 1_555 1_555
C5 C4 1_555 1_555
H5 C5 1_555 1_555
C6 C5 1_555 1_555
H6 C6 1_555 1_555
C7 C2 1_555 1_555
H7 C7 1_555 1_555
C8 P1 1_555 1_555
C9 C8 1_555 1_555
H8 C9 1_555 1_555
C10 C9 1_555 1_555
H9 C10 1_555 1_555
C11 C10 1_555 1_555
H10 C11 1_555 1_555
C12 C11 1_555 1_555
H11 C12 1_555 1_555
C13 C8 1_555 1_555
H12 C13 1_555 1_555
C14 P1 1_555 1_555
C15 C14 1_555 1_555
H13 C15 1_555 1_555
C16 C15 1_555 1_555
H14 C16 1_555 1_555
C17 C16 1_555 1_555
C18 C17 1_555 1_555
H15 C18 1_555 1_555
C19 C14 1_555 1_555
H16 C19 1_555 1_555
C20 C21 1_555 1_555
C21 C22 1_555 1_555
C22 H17 1_555 1_555
C23 C22 1_555 1_555
C24 C23 1_555 1_555
H18 C24 1_555 1_555
C25 C20 1_555 1_555
C26 C25 1_555 1_555
H19 C26 1_555 1_555
H20 C26 1_555 1_555
H21 C26 1_555 1_555
C27 C23 1_555 1_555
H22 C27 1_555 1_555
H23 C27 1_555 1_555
H24 C27 1_555 1_555
C28 C21 1_555 1_555
H25 C28 1_555 1_555
H26 C28 1_555 1_555
H27 C28 1_555 1_555
C29 C30 1_555 1_555
C30 C31 1_555 1_555
C31 H28 1_555 1_555
C32 C31 1_555 1_555
C33 C32 1_555 1_555
H29 C33 1_555 1_555
C34 C29 1_555 1_555
C35 C34 1_555 1_555
H30 C35 1_555 1_555
H31 C35 1_555 1_555
H32 C35 1_555 1_555
C36 C32 1_555 1_555
H33 C36 1_555 1_555
H34 C36 1_555 1_555
H35 C36 1_555 1_555
C37 C30 1_555 1_555
H36 C37 1_555 1_555
H37 C37 1_555 1_555
H38 C37 1_555 1_555
C38 C39 1_555 1_555
C39 H39 1_555 1_555
C40 C39 1_555 1_555
H40 C40 1_555 1_555
C41 C40 1_555 1_555
C42 C41 1_555 1_555
H41 C42 1_555 1_555
C43 C38 1_555 1_555
H42 C43 1_555 1_555
C44 C41 1_555 1_555
C45 C44 1_555 1_555
H43 C45 1_555 1_555
C46 C45 1_555 1_555
H44 C46 1_555 1_555
C47 C46 1_555 1_555
H45 C47 1_555 1_555
C48 C47 1_555 1_555
C49 C48 1_555 1_555
H46 C49 1_555 1_555
C50 C49 1_555 1_555
H47 C50 1_555 1_555
C51 C50 1_555 1_555
H48 C51 1_555 1_555
C52 C17 1_555 1_555
C53 C44 1_555 1_555
B1 C20 1_555 1_555
P2 C54 1_555 1_555
C54 H49 1_555 1_555
H50 C54 1_555 1_555
C55 P2 1_555 1_555
C56 C55 1_555 1_555
H51 C56 1_555 1_555
C57 C56 1_555 1_555
H52 C57 1_555 1_555
C58 C57 1_555 1_555
H53 C58 1_555 1_555
C59 C58 1_555 1_555
H54 C59 1_555 1_555
C60 C55 1_555 1_555
H55 C60 1_555 1_555
C61 P2 1_555 1_555
C62 C61 1_555 1_555
H56 C62 1_555 1_555
C63 C62 1_555 1_555
H57 C63 1_555 1_555
C64 C63 1_555 1_555
H58 C64 1_555 1_555
C65 C64 1_555 1_555
H59 C65 1_555 1_555
C66 C61 1_555 1_555
H60 C66 1_555 1_555
C67 P2 1_555 1_555
C68 C67 1_555 1_555
H61 C68 1_555 1_555
C69 C68 1_555 1_555
H62 C69 1_555 1_555
C70 C69 1_555 1_555
C71 C70 1_555 1_555
H63 C71 1_555 1_555
C72 C67 1_555 1_555
H64 C72 1_555 1_555
C73 C74 1_555 1_555
C74 C75 1_555 1_555
C75 H65 1_555 1_555
C76 C75 1_555 1_555
C77 C76 1_555 1_555
H66 C77 1_555 1_555
C78 C73 1_555 1_555
C79 C78 1_555 1_555
H67 C79 1_555 1_555
H68 C79 1_555 1_555
H69 C79 1_555 1_555
C80 C76 1_555 1_555
H70 C80 1_555 1_555
H71 C80 1_555 1_555
H72 C80 1_555 1_555
C81 C74 1_555 1_555
H73 C81 1_555 1_555
H74 C81 1_555 1_555
H75 C81 1_555 1_555
C82 C83 1_555 1_555
C83 C84 1_555 1_555
C84 H76 1_555 1_555
C85 C84 1_555 1_555
C86 C85 1_555 1_555
H77 C86 1_555 1_555
C87 C82 1_555 1_555
C88 C87 1_555 1_555
H78 C88 1_555 1_555
H79 C88 1_555 1_555
H80 C88 1_555 1_555
C89 C85 1_555 1_555
H81 C89 1_555 1_555
H82 C89 1_555 1_555
H83 C89 1_555 1_555
C90 C83 1_555 1_555
H84 C90 1_555 1_555
H85 C90 1_555 1_555
H86 C90 1_555 1_555
C91 C92 1_555 1_555
C92 H87 1_555 1_555
C93 C92 1_555 1_555
H88 C93 1_555 1_555
C94 C93 1_555 1_555
C95 C94 1_555 1_555
H89 C95 1_555 1_555
C96 C91 1_555 1_555
H90 C96 1_555 1_555
C97 C94 1_555 1_555
C98 C97 1_555 1_555
H91 C98 1_555 1_555
C99 C98 1_555 1_555
H92 C99 1_555 1_555
C100 C99 1_555 1_555
H93 C100 1_555 1_555
C101 C100 1_555 1_555
C102 C101 1_555 1_555
H94 C102 1_555 1_555
C103 C102 1_555 1_555
H95 C103 1_555 1_555
C104 C103 1_555 1_555
H96 C104 1_555 1_555
C105 C70 1_555 1_555
C106 C97 1_555 1_555
B2 C73 1_555 1_555
C6 C7 1_555 1_555
C12 C13 1_555 1_555
C18 C19 1_555 1_555
C24 C25 1_555 1_555
C29 B1 1_555 1_555
C33 C34 1_555 1_555
C38 B1 1_555 1_555
C42 C43 1_555 1_555
C48 C53 1_555 1_555
C51 C52 1_555 1_555
C52 C53 1_555 1_555
C59 C60 1_555 1_555
C65 C66 1_555 1_555
C71 C72 1_555 1_555
C77 C78 1_555 1_555
C82 B2 1_555 1_555
C86 C87 1_555 1_555
C91 B2 1_555 1_555
C95 C96 1_555 1_555
C101 C106 1_555 1_555
C104 C105 1_555 1_555
C105 C106 1_555 1_555

#END
