
#######################################################################
#
#                 Cambridge Crystallographic Data Centre
#                                CCDC 
#
#######################################################################
#
# If this CIF has been generated from an entry in the Cambridge 
# Structural Database, then it will include bibliographic, chemical, 
# crystal, experimental, refinement or atomic coordinate data resulting 
# from the CCDC's data processing and validation procedures.
#
#######################################################################

data_MAKHOX
_chemical_formula_moiety         'C31 H34 N2,0.5(H2 O1)'
_chemical_name_systematic        
"2,2'-(2-Phenylpropane-1,3-diylidene)bis(1,3,3-trimethylindoline) hemihydrate"
_symmetry_cell_setting           triclinic
_symmetry_space_group_name_H-M   'P -1'
_symmetry_Int_Tables_number      2
_space_group_name_Hall           '-P 1'
loop_
_symmetry_equiv_pos_site_id
_symmetry_equiv_pos_as_xyz
1 x,y,z
2 -x,-y,-z
_cell_length_a                   8.3642(5)
_cell_length_b                   13.0783(7)
_cell_length_c                   13.2056(7)
_cell_angle_alpha                106.1230(10)
_cell_angle_beta                 100.7900(10)
_cell_angle_gamma                93.8030(10)
_cell_volume                     1352.44
_exptl_crystal_colour            colorless
_exptl_crystal_description       block
_cell_formula_units_Z            2
loop_
_atom_site_label
_atom_site_type_symbol
_atom_site_fract_x
_atom_site_fract_y
_atom_site_fract_z
O1 O 0.5000 1.50000 1.00000
N1 N 0.1360(3) 0.72639(17) 0.52915(17)
N2 N 0.8846(3) 0.92873(19) 0.80994(19)
C1 C 0.3595(3) 1.0151(2) 0.6752(2)
C2 C 0.2608(4) 1.0395(3) 0.5903(3)
H1 H 0.238 0.9901 0.5209
C3 C 0.1950(5) 1.1364(3) 0.6068(3)
H2 H 0.1292 1.1521 0.5484
C4 C 0.2257(4) 1.2085(3) 0.7070(3)
H3 H 0.1806 1.2736 0.7177
C5 C 0.3219(4) 1.1864(3) 0.7920(3)
H4 H 0.3431 1.2361 0.8612
C6 C 0.3883(4) 1.0899(2) 0.7757(2)
H5 H 0.4545 1.0753 0.8346
C7 C 0.4361(3) 0.9097(2) 0.6615(2)
H6 H 0.3922 0.8712 0.7072
C8 C 0.3997(3) 0.8353(2) 0.5483(2)
H7 H 0.4764 0.8455 0.5072
C9 C 0.2767(3) 0.7571(2) 0.4962(2)
C10 C 0.2716(3) 0.6803(2) 0.3831(2)
C11 C 0.1130(4) 0.6072(2) 0.3618(2)
C12 C 0.0384(3) 0.6385(2) 0.4500(2)
C13 C 0.4194(4) 0.6187(3) 0.3846(3)
H8 H 0.4246 0.5823 0.4397
H9 H 0.5186 0.6682 0.4004
H10 H 0.4092 0.5662 0.3147
C14 C 0.2647(5) 0.7426(3) 0.2999(3)
H11 H 0.2546 0.6927 0.2286
H12 H 0.3643 0.7922 0.3178
H13 H 0.1707 0.7822 0.3006
C15 C 0.0840(4) 0.7792(2) 0.6267(2)
H14 H 0.1331 0.7511 0.6843
H15 H -0.0346 0.7663 0.6146
H16 H 0.1185 0.8558 0.6468
C16 C 0.0393(4) 0.5212(3) 0.2748(3)
H17 H 0.0891 0.499 0.2155
C17 C -0.1089(5) 0.4678(3) 0.2752(3)
H18 H -0.16 0.4092 0.2157
C18 C -0.1810(4) 0.4993(3) 0.3611(3)
H19 H -0.282 0.4622 0.3596
C19 C -0.1083(4) 0.5862(2) 0.4521(3)
H20 H -0.158 0.6074 0.5116
C20 C 0.6196(3) 0.9367(2) 0.7046(2)
H21 H 0.6719 0.9888 0.6809
C21 C 0.7159(3) 0.8961(2) 0.7714(2)
C22 C 0.6709(3) 0.8053(2) 0.8191(2)
C23 C 0.8387(3) 0.7959(2) 0.8834(2)
C24 C 0.9556(3) 0.8707(2) 0.8747(2)
C25 C 0.6005(4) 0.7008(2) 0.7318(3)
H22 H 0.6769 0.6812 0.6848
H23 H 0.497 0.71 0.69
H24 H 0.5828 0.6447 0.7649
C26 C 0.5544(4) 0.8382(3) 0.8975(3)
H25 H 0.4471 0.8428 0.857
H26 H 0.5983 0.9075 0.9493
H27 H 0.5448 0.785 0.9353
C27 C 0.9673(4) 1.0197(2) 0.7888(3)
H28 H 1.0789 1.0361 0.8312
H29 H 0.909 1.0815 0.8086
H30 H 0.9691 1.002 0.7127
C28 C 0.8815(4) 0.7265(3) 0.9423(3)
H31 H 0.8016 0.6752 0.9474
C29 C 1.0433(5) 0.7328(4) 0.9940(3)
H32 H 1.0742 0.6855 1.0343
C30 C 1.1588(4) 0.8085(4) 0.9864(3)
H33 H 1.2681 0.813 1.0229
C31 C 1.1186(4) 0.8783(3) 0.9265(3)
H34 H 1.1989 0.9292 0.9211
loop_
_geom_bond_atom_site_label_1
_geom_bond_atom_site_label_2
_geom_bond_site_symmetry_1
_geom_bond_site_symmetry_2
N1 C9 1_555 1_555
N2 C21 1_555 1_555
C1 C2 1_555 1_555
C2 H1 1_555 1_555
C3 C2 1_555 1_555
H2 C3 1_555 1_555
C4 C3 1_555 1_555
H3 C4 1_555 1_555
C5 C4 1_555 1_555
H4 C5 1_555 1_555
C6 C1 1_555 1_555
H5 C6 1_555 1_555
C7 C1 1_555 1_555
H6 C7 1_555 1_555
C8 C7 1_555 1_555
H7 C8 1_555 1_555
C9 C8 1_555 1_555
C10 C9 1_555 1_555
C11 C10 1_555 1_555
C12 N1 1_555 1_555
C13 C10 1_555 1_555
H8 C13 1_555 1_555
H9 C13 1_555 1_555
H10 C13 1_555 1_555
C14 C10 1_555 1_555
H11 C14 1_555 1_555
H12 C14 1_555 1_555
H13 C14 1_555 1_555
C15 N1 1_555 1_555
H14 C15 1_555 1_555
H15 C15 1_555 1_555
H16 C15 1_555 1_555
C16 C11 1_555 1_555
H17 C16 1_555 1_555
C17 C16 1_555 1_555
H18 C17 1_555 1_555
C18 C17 1_555 1_555
H19 C18 1_555 1_555
C19 C12 1_555 1_555
H20 C19 1_555 1_555
C20 C7 1_555 1_555
H21 C20 1_555 1_555
C21 C20 1_555 1_555
C22 C21 1_555 1_555
C23 C22 1_555 1_555
C24 N2 1_555 1_555
C25 C22 1_555 1_555
H22 C25 1_555 1_555
H23 C25 1_555 1_555
H24 C25 1_555 1_555
C26 C22 1_555 1_555
H25 C26 1_555 1_555
H26 C26 1_555 1_555
H27 C26 1_555 1_555
C27 N2 1_555 1_555
H28 C27 1_555 1_555
H29 C27 1_555 1_555
H30 C27 1_555 1_555
C28 C23 1_555 1_555
H31 C28 1_555 1_555
C29 C28 1_555 1_555
H32 C29 1_555 1_555
C30 C29 1_555 1_555
H33 C30 1_555 1_555
C31 C24 1_555 1_555
H34 C31 1_555 1_555
C5 C6 1_555 1_555
C11 C12 1_555 1_555
C18 C19 1_555 1_555
C23 C24 1_555 1_555
C30 C31 1_555 1_555

#END
