
#######################################################################
#
#                 Cambridge Crystallographic Data Centre
#                                CCDC 
#
#######################################################################
#
# If this CIF has been generated from an entry in the Cambridge 
# Structural Database, then it will include bibliographic, chemical, 
# crystal, experimental, refinement or atomic coordinate data resulting 
# from the CCDC's data processing and validation procedures.
#
#######################################################################

data_MAKMIX
_chemical_formula_moiety         'C21 H22 Cl2 O6,C3 H6 O1'
_chemical_name_systematic        
'3-(3,5-dichloro-2-hydroxy-6-methoxy-4-methylphenyl)-5,7-dihydroxy-2-(2-hydroxypropan-2-yl)indane-4-carbaldehyde acetone solvate'
_symmetry_cell_setting           monoclinic
_symmetry_space_group_name_H-M   'C 2/c'
_symmetry_Int_Tables_number      15
_space_group_name_Hall           '-C 2yn'
loop_
_symmetry_equiv_pos_site_id
_symmetry_equiv_pos_as_xyz
1 x,y,z
2 -x,y,1/2-z
3 1/2+x,1/2+y,z
4 1/2-x,1/2+y,1/2-z
5 -x,-y,-z
6 x,-y,1/2+z
7 1/2-x,1/2-y,-z
8 1/2+x,1/2-y,1/2+z
_cell_length_a                   19.1983(8)
_cell_length_b                   10.9513(4)
_cell_length_c                   22.9245(9)
_cell_angle_alpha                90
_cell_angle_beta                 96.2213(16)
_cell_angle_gamma                90
_cell_volume                     4791.41
_cell_formula_units_Z            8
loop_
_atom_site_label
_atom_site_type_symbol
_atom_site_fract_x
_atom_site_fract_y
_atom_site_fract_z
Cl1 Cl 1.10545(4) 0.38126(9) 0.19398(4)
Cl2 Cl 0.87594(6) 0.09626(8) 0.14936(5)
O1 O 1.00321(12) 0.5809(2) 0.16910(10)
H1 H 1.0427 0.5773 0.1866
O2 O 0.80378(12) 0.3330(2) 0.12766(9)
O3 O 0.89996(12) 0.6710(2) 0.25024(9)
H2 H 0.9272 0.6696 0.2250
O4 O 0.79757(15) 0.5622(3) -0.08560(9)
H3 H 0.8398 0.5517 -0.0857
O5 O 0.62778(13) 0.6233(3) 0.04615(11)
H4 H 0.6023 0.6289 0.0151
O6 O 0.92721(15) 0.5385(4) -0.04122(11)
C1 C 0.97611(16) 0.4664(3) 0.16233(11)
C2 C 0.90451(15) 0.4569(3) 0.14356(11)
C3 C 0.91629(18) 0.2380(3) 0.15122(13)
C4 C 0.98825(18) 0.2455(3) 0.16738(13)
C5 C 0.87509(16) 0.3405(3) 0.13910(12)
C6 C 1.01668(17) 0.3618(3) 0.17281(12)
C7 C 1.0346(2) 0.1349(4) 0.17763(19)
H5 H 1.0061 0.0633 0.1794
H6 H 1.0640 0.1441 0.2140
H7 H 1.0632 0.1268 0.1460
C8 C 0.7761(2) 0.2797(4) 0.07282(16)
H8 H 0.8112 0.2816 0.0460
H9 H 0.7358 0.3251 0.0567
H10 H 0.7628 0.1966 0.0791
C9 C 0.80800(16) 0.5899(3) 0.18009(12)
H11 H 0.8079 0.5145 0.2032
C10 C 0.74562(17) 0.5949(3) 0.08362(13)
C11 C 0.83514(17) 0.5646(3) 0.01775(13)
C12 C 0.81390(16) 0.5749(3) 0.07464(12)
C13 C 0.71304(19) 0.5922(3) -0.02118(14)
H12 H 0.6790 0.5976 -0.0532
C14 C 0.73453(18) 0.6044(3) 0.14680(14)
H13 H 0.7035 0.5403 0.1576
H14 H 0.7145 0.6829 0.1552
C15 C 0.86064(15) 0.5711(3) 0.13285(12)
H15 H 0.8922 0.6415 0.1344
C16 C 0.78214(18) 0.5726(3) -0.03002(13)
C17 C 0.69423(17) 0.6040(3) 0.03488(14)
C18 C 0.90726(19) 0.5487(4) 0.00794(14)
H16 H 0.9407 0.5460 0.0404
C19 C 0.8298(2) 0.8188(3) 0.19386(17)
H17 H 0.8457 0.8795 0.2225
H18 H 0.7831 0.8384 0.1772
H19 H 0.8604 0.8173 0.1634
C20 C 0.7840(2) 0.6945(4) 0.27316(15)
H20 H 0.7883 0.6173 0.2930
H21 H 0.7360 0.7073 0.2578
H22 H 0.7986 0.7587 0.3003
C21 C 0.82993(17) 0.6949(3) 0.22301(13)
O7 O 0.54031(17) 0.6551(4) 0.94504(13)
C22 C 0.4791(2) 0.6734(4) 0.94731(16)
C23 C 0.4293(3) 0.6787(5) 0.8934(2)
H23 H 0.4086 0.7585 0.8898
H24 H 0.3933 0.6187 0.8956
H25 H 0.4538 0.6624 0.8599
C24 C 0.4512(3) 0.6929(7) 1.0047(2)
H26 H 0.4893 0.6940 1.0355
H27 H 0.4196 0.6278 1.0116
H28 H 0.4267 0.7694 1.0040
loop_
_geom_bond_atom_site_label_1
_geom_bond_atom_site_label_2
_geom_bond_site_symmetry_1
_geom_bond_site_symmetry_2
Cl1 C6 1_555 1_555
Cl2 C3 1_555 1_555
O1 H1 1_555 1_555
O2 C5 1_555 1_555
O3 H2 1_555 1_555
O4 H3 1_555 1_555
O5 H4 1_555 1_555
O6 C18 1_555 1_555
C1 O1 1_555 1_555
C2 C1 1_555 1_555
C3 C4 1_555 1_555
C4 C6 1_555 1_555
C5 C2 1_555 1_555
C6 C1 1_555 1_555
C7 C4 1_555 1_555
H5 C7 1_555 1_555
H6 C7 1_555 1_555
H7 C7 1_555 1_555
C8 O2 1_555 1_555
H8 C8 1_555 1_555
H9 C8 1_555 1_555
H10 C8 1_555 1_555
C9 H11 1_555 1_555
C10 C12 1_555 1_555
C11 C12 1_555 1_555
C12 C15 1_555 1_555
C13 H12 1_555 1_555
C14 C9 1_555 1_555
H13 C14 1_555 1_555
H14 C14 1_555 1_555
C15 C2 1_555 1_555
H15 C15 1_555 1_555
C16 O4 1_555 1_555
C17 O5 1_555 1_555
C18 C11 1_555 1_555
H16 C18 1_555 1_555
C19 H17 1_555 1_555
H18 C19 1_555 1_555
H19 C19 1_555 1_555
C20 H20 1_555 1_555
H21 C20 1_555 1_555
H22 C20 1_555 1_555
C21 O3 1_555 1_555
O7 C22 1_555 1_555
C22 C23 1_555 1_555
C23 H23 1_555 1_555
H24 C23 1_555 1_555
H25 C23 1_555 1_555
C24 C22 1_555 1_555
H26 C24 1_555 1_555
H27 C24 1_555 1_555
H28 C24 1_555 1_555
C3 C5 1_555 1_555
C9 C15 1_555 1_555
C9 C21 1_555 1_555
C10 C14 1_555 1_555
C10 C17 1_555 1_555
C11 C16 1_555 1_555
C13 C16 1_555 1_555
C13 C17 1_555 1_555
C19 C21 1_555 1_555
C20 C21 1_555 1_555

#END
