
#######################################################################
#
#                 Cambridge Crystallographic Data Centre
#                                CCDC 
#
#######################################################################
#
# If this CIF has been generated from an entry in the Cambridge 
# Structural Database, then it will include bibliographic, chemical, 
# crystal, experimental, refinement or atomic coordinate data resulting 
# from the CCDC's data processing and validation procedures.
#
#######################################################################

data_MAKMIW
_chemical_formula_moiety         'C40 H42 N2 O2 2+,2(Cl1 O4 1-)'
_chemical_name_systematic        
"(2S,2'S,3R,3'R)-3,3'-bis(Benzyloxy)-1,1'-bis(-3-phenylallylidene)-2,2'-bipyrrolidine-1,1'-di-ium diperchlorate"
_symmetry_cell_setting           orthorhombic
_symmetry_space_group_name_H-M   'P 21 21 21'
_symmetry_Int_Tables_number      19
_space_group_name_Hall           'P 2ac 2ab'
loop_
_symmetry_equiv_pos_site_id
_symmetry_equiv_pos_as_xyz
1 x,y,z
2 1/2-x,-y,1/2+z
3 -x,1/2+y,1/2-z
4 1/2+x,1/2-y,-z
_cell_length_a                   9.2327(15)
_cell_length_b                   17.133(3)
_cell_length_c                   31.196(5)
_cell_angle_alpha                90
_cell_angle_beta                 90
_cell_angle_gamma                90
_cell_volume                     4934.7
_exptl_crystal_colour            colorless
_cell_formula_units_Z            4
_exptl_crystal_recrystallization_method 'methanol/ethyl acetate'
loop_
_atom_site_label
_atom_site_type_symbol
_atom_site_fract_x
_atom_site_fract_y
_atom_site_fract_z
O1 O 0.7587(5) 0.1864(3) 0.56643(13)
O2 O 1.07456(4) -0.0889(2) 0.54672(11)
N1 N 0.8394(4) 0.1094(2) 0.64369(13)
N2 N 1.0589(4) -0.0164(2) 0.63266(12)
C1 C 0.6753(5) 0.1017(3) 0.64326(18)
C2 C 0.6417(5) 0.0781(4) 0.59642(19)
C3 C 0.7717(6) 0.1063(4) 0.57114(17)
C4 C 0.9005(5) 0.0888(3) 0.60186(14)
C5 C 0.9147(6) 0.1348(3) 0.67517(16)
C6 C 0.8605(6) 0.1568(3) 0.71696(17)
C7 C 0.9495(6) 0.1849(3) 0.74502(16)
C8 C 0.9210(6) 0.2123(3) 0.78879(18)
C9 C 1.0353(7) 0.2372(3) 0.81455(19)
C10 C 1.0121(9) 0.2628(4) 0.8555(2)
C11 C 0.8772(11) 0.2669(4) 0.8711(2)
C12 C 0.7631(10) 0.2459(4) 0.8469(3)
C13 C 0.7802(7) 0.2160(3) 0.80406(17)
C14 C 0.8250(14) 0.2171(5) 0.5310(3)
C15 C 0.8068(19) 0.2995(8) 0.5321(3)
C16 C 0.6779(18) 0.3346(9) 0.5386(3)
C17 C 0.663(2) 0.4208(13) 0.5428(3)
C18 C 0.789(3) 0.4655(9) 0.5371(4)
C19 C 0.909(2) 0.4243(14) 0.5289(4)
C20 C 0.9058(19) 0.3469(10) 0.5277(3)
C21 C 1.2086(5) -0.0116(3) 0.61622(17)
C22 C 1.1940(5) 0.0114(3) 0.57101(16)
C23 C 1.0424(5) -0.0104(3) 0.55835(15)
C24 C 0.9515(5) 0.0034(3) 0.59890(14)
C25 C 1.0223(5) -0.0416(3) 0.67015(17)
C26 C 1.1170(5) -0.0660(3) 0.70280(16)
C27 C 1.0665(5) -0.0931(3) 0.73987(15)
C28 C 1.1485(5) -0.1194(3) 0.77602(14)
C29 C 1.2982(6) -0.1326(4) 0.77455(17)
C30 C 1.3695(7) -0.1603(4) 0.8100(2)
C31 C 1.2995(10) -0.1769(4) 0.8465(2)
C32 C 1.1528(9) -0.1691(4) 0.84880(19)
C33 C 1.0755(7) -0.1399(3) 0.81321(18)
C34 C 0.9096(7) -0.1130(5) 0.5268(3)
C35 C 0.9379(8) -0.1862(5) 0.5002(3)
C36 C 1.0060(12) -0.1833(7) 0.4634(4)
C37 C 1.0279(11) -0.2473(11) 0.4378(3)
C38 C 0.9783(14) -0.3198(8) 0.4512(5)
C39 C 0.906(3) -0.3215(8) 0.4855(6)
C40 C 0.8846(16) -0.2546(10) 0.5120(4)
Cl3 Cl 0.88673(15) 0.11923(12) 0.17561(6)
O11 O 0.9127(7) 0.1987(4) 0.1846(3)
O12 O 0.8067(6) 0.0845(5) 0.20741(18)
O13 O 0.8065(6) 0.1114(4) 0.13726(18)
O14 O 1.0206(4) 0.0822(4) 0.1707(2)
Cl1? Cl 0.2757(15) 0.2323(11) 0.6214(6)
O3? O 0.392(3) 0.2060(19) 0.6209(13)
O4? O 0.1445(14) 0.2222(13) 0.6140(9)
O5? O 0.2666(18) 0.2964(11) 0.6471(7)
O6? O 0.284(5) 0.299(3) 0.578(3)
Cl2? Cl 0.2693(11) 0.2456(6) 0.61343(19)
O7? O 0.257(4) 0.1601(13) 0.6415(9)
O8? O 0.177(3) 0.2312(14) 0.5816(8)
O9? O 0.376(4) 0.228(3) 0.5816(12)
O10? O 0.362(5) 0.292(4) 0.6101(19)
loop_
_geom_bond_atom_site_label_1
_geom_bond_atom_site_label_2
_geom_bond_site_symmetry_1
_geom_bond_site_symmetry_2
O1 C3 1_555 1_555
O2 C23 1_555 1_555
N1 C1 1_555 1_555
N2 C21 1_555 1_555
C1 C2 1_555 1_555
C2 C3 1_555 1_555
C3 C4 1_555 1_555
C4 N1 1_555 1_555
C5 N1 1_555 1_555
C6 C5 1_555 1_555
C7 C6 1_555 1_555
C8 C7 1_555 1_555
C9 C8 1_555 1_555
C10 C9 1_555 1_555
C11 C10 1_555 1_555
C12 C11 1_555 1_555
C13 C8 1_555 1_555
C14 O1 1_555 1_555
C15 C14 1_555 1_555
C16 C15 1_555 1_555
C17 C16 1_555 1_555
C18 C17 1_555 1_555
C19 C18 1_555 1_555
C20 C15 1_555 1_555
C21 C22 1_555 1_555
C22 C23 1_555 1_555
C23 C24 1_555 1_555
C24 N2 1_555 1_555
C25 N2 1_555 1_555
C26 C25 1_555 1_555
C27 C26 1_555 1_555
C28 C27 1_555 1_555
C29 C28 1_555 1_555
C30 C29 1_555 1_555
C31 C30 1_555 1_555
C32 C31 1_555 1_555
C33 C28 1_555 1_555
C34 O2 1_555 1_555
C35 C34 1_555 1_555
C36 C35 1_555 1_555
C37 C36 1_555 1_555
C38 C37 1_555 1_555
C39 C38 1_555 1_555
C40 C35 1_555 1_555
Cl3 O11 1_555 1_555
O12 Cl3 1_555 1_555
O13 Cl3 1_555 1_555
O14 Cl3 1_555 1_555
C4 C24 1_555 1_555
C12 C13 1_555 1_555
C19 C20 1_555 1_555
C32 C33 1_555 1_555
C39 C40 1_555 1_555

#END
