
#######################################################################
#
#                 Cambridge Crystallographic Data Centre
#                                CCDC 
#
#######################################################################
#
# If this CIF has been generated from an entry in the Cambridge 
# Structural Database, then it will include bibliographic, chemical, 
# crystal, experimental, refinement or atomic coordinate data resulting 
# from the CCDC's data processing and validation procedures.
#
#######################################################################

data_MAKMES
_chemical_name_common            NPS2143:SB-262470A
_chemical_formula_moiety         'C24 H26 Cl1 N2 O2 1+,Cl1 1-'
_chemical_name_systematic        
'2-Chloro-6-(((2R)-3-((1,1-dimethyl-2-(2-naphthalenyl)ethyl)amino)-2-hydroxypropyl)oxy)benzonitrile hydrochloride'
_chemical_properties_biological  'a potent and orally active CaR antagonist'
_symmetry_cell_setting           triclinic
_symmetry_space_group_name_H-M   'P 1'
_symmetry_Int_Tables_number      1
_space_group_name_Hall           'P 1'
loop_
_symmetry_equiv_pos_site_id
_symmetry_equiv_pos_as_xyz
1 x,y,z
_cell_length_a                   8.6008(3)
_cell_length_b                   8.6792(3)
_cell_length_c                   17.4477(4)
_cell_angle_alpha                94.811(2)
_cell_angle_beta                 99.094(2)
_cell_angle_gamma                116.733(3)
_cell_volume                     1130.73
_exptl_crystal_colour            colorless
_exptl_crystal_description       plate
_cell_formula_units_Z            2
_exptl_crystal_recrystallization_method ethanol
loop_
_atom_site_label
_atom_site_type_symbol
_atom_site_fract_x
_atom_site_fract_y
_atom_site_fract_z
Cl1 Cl -0.30346(5) 0.66153(4) 1.18348(2)
O1 O -0.18024(13) 0.52017(13) 0.92334(6)
O2 O 0.01050(13) 0.48154(13) 0.75733(6)
N1 N -0.14896(18) 0.88961(16) 1.02459(8)
N2 N 0.11381(14) 0.85891(14) 0.79093(7)
C1 C -0.23459(17) 0.57339(18) 1.04580(9)
C2 C -0.28390(18) 0.51911(19) 1.11534(9)
C3 C -0.31474(19) 0.35365(19) 1.12936(9)
C4 C -0.2956(2) 0.2443(2) 1.07417(9)
C5 C -0.25157(19) 0.29125(19) 1.00407(9)
C6 C -0.22173(18) 0.45673(19) 0.98992(9)
C7 C -0.18841(18) 0.74888(19) 1.03340(8)
C8 C -0.11830(18) 0.43423(17) 0.87090(8)
C9 C -0.06577(18) 0.54950(18) 0.80899(9)
C10 C 0.07418(19) 0.73146(17) 0.84719(8)
C11 C 0.12160(17) 1.03427(17) 0.81852(8)
C12 C -0.05948(18) 1.0010(2) 0.83311(10)
C13 C 0.1638(2) 1.13475(19) 0.75082(9)
C14 C 0.27142(18) 1.12365(17) 0.89403(9)
C15 C 0.29478(17) 1.29646(18) 0.93287(9)
C16 C 0.38724(18) 1.45139(18) 0.90278(10)
C17 C 0.4059(2) 1.60816(19) 0.93677(10)
C18 C 0.3380(2) 1.62242(19) 1.00354(10)
C19 C 0.3506(2) 1.7813(2) 1.03867(12)
C20 C 0.2812(2) 1.7899(3) 1.10243(13)
C21 C 0.1975(2) 1.6402(3) 1.13641(12)
C22 C 0.1821(2) 1.4831(2) 1.10397(11)
C23 C 0.24971(19) 1.4699(2) 1.03602(10)
C24 C 0.22977(18) 1.30816(19) 0.99897(9)
Cl2 Cl 0.10943(5) 1.05000(5) 0.21324(2)
O3 O 0.48207(13) 1.10918(13) 0.47762(6)
O4 O 0.72305(16) 1.16823(14) 0.67295(7)
N3 N 0.1102(2) 0.77035(18) 0.36040(9)
N4 N 0.52505(14) 0.77618(14) 0.62309(7)
C25 C 0.32268(19) 1.09145(18) 0.35353(9)
C26 C 0.29799(19) 1.16755(19) 0.28826(9)
C27 C 0.4212(2) 1.33215(19) 0.28245(9)
C28 C 0.5720(2) 1.4251(2) 0.34214(10)
C29 C 0.59809(19) 1.35707(19) 0.40959(9)
C30 C 0.47255(19) 1.19264(19) 0.41524(9)
C31 C 0.2015(2) 0.9144(2) 0.35797(10)
C32 C 0.6297(2) 1.20072(19) 0.54316(9)
C33 C 0.5898(2) 1.07982(18) 0.60369(9)
C34 C 0.58534(19) 0.91078(18) 0.57145(9)
C35 C 0.34531(18) 0.61263(18) 0.59293(9)
C36 C 0.20029(19) 0.6675(2) 0.57275(11)
C37 C 0.3181(2) 0.5122(2) 0.66050(9)
C38 C 0.36258(18) 0.51118(19) 0.52052(9)
C39 C 0.19397(18) 0.34346(18) 0.48340(9)
C40 C 0.1489(2) 0.19002(19) 0.51623(9)
C41 C -0.0070(2) 0.0394(2) 0.48452(10)
C42 C -0.12569(19) 0.0346(2) 0.41715(10)
C43 C -0.2914(2) -0.1183(2) 0.38306(11)
C44 C -0.3994(2) -0.1192(2) 0.31590(11)
C45 C -0.3471(2) 0.0296(2) 0.27868(12)
C46 C -0.1918(2) 0.1755(2) 0.31076(11)
C47 C -0.07696(19) 0.18395(19) 0.38073(9)
C48 C 0.08234(19) 0.3381(2) 0.41585(9)
Cl3 Cl 0.50875(4) 0.95846(4) 0.78595(2)
Cl4 Cl 0.82695(4) 0.68330(4) 0.62896(2)
loop_
_geom_bond_atom_site_label_1
_geom_bond_atom_site_label_2
_geom_bond_site_symmetry_1
_geom_bond_site_symmetry_2
Cl1 C2 1_555 1_555
O1 C6 1_555 1_555
O2 C9 1_555 1_555
N1 C7 1_555 1_555
N2 C10 1_555 1_555
C1 C2 1_555 1_555
C2 C3 1_555 1_555
C3 C4 1_555 1_555
C4 C5 1_555 1_555
C5 C6 1_555 1_555
C6 C1 1_555 1_555
C7 C1 1_555 1_555
C8 O1 1_555 1_555
C9 C8 1_555 1_555
C10 C9 1_555 1_555
C11 N2 1_555 1_555
C12 C11 1_555 1_555
C13 C11 1_555 1_555
C14 C11 1_555 1_555
C15 C14 1_555 1_555
C16 C15 1_555 1_555
C17 C16 1_555 1_555
C18 C17 1_555 1_555
C19 C18 1_555 1_555
C20 C19 1_555 1_555
C21 C20 1_555 1_555
C22 C21 1_555 1_555
C23 C18 1_555 1_555
C24 C15 1_555 1_555
Cl2 C26 1_555 1_555
O3 C30 1_555 1_555
O4 C33 1_555 1_555
N3 C31 1_555 1_555
N4 C34 1_555 1_555
C25 C26 1_555 1_555
C26 C27 1_555 1_555
C27 C28 1_555 1_555
C28 C29 1_555 1_555
C29 C30 1_555 1_555
C30 C25 1_555 1_555
C31 C25 1_555 1_555
C32 O3 1_555 1_555
C33 C32 1_555 1_555
C34 C33 1_555 1_555
C35 N4 1_555 1_555
C36 C35 1_555 1_555
C37 C35 1_555 1_555
C38 C35 1_555 1_555
C39 C38 1_555 1_555
C40 C39 1_555 1_555
C41 C40 1_555 1_555
C42 C41 1_555 1_555
C43 C42 1_555 1_555
C44 C43 1_555 1_555
C45 C44 1_555 1_555
C46 C45 1_555 1_555
C47 C42 1_555 1_555
C48 C39 1_555 1_555
C22 C23 1_555 1_555
C23 C24 1_555 1_555
C46 C47 1_555 1_555
C47 C48 1_555 1_555

#END
