
#######################################################################
#
#                 Cambridge Crystallographic Data Centre
#                                CCDC 
#
#######################################################################
#
# If this CIF has been generated from an entry in the Cambridge 
# Structural Database, then it will include bibliographic, chemical, 
# crystal, experimental, refinement or atomic coordinate data resulting 
# from the CCDC's data processing and validation procedures.
#
#######################################################################

data_MAKPUL
_chemical_name_common            
1,13-Dimethyl-2,12,14,24-tetraoxa-5,9,17,21-tetrathia-1,13-disilatricyclo[11.11.4.2$25,28!]triaconta-25,27,29-triene
_chemical_formula_moiety         'C22 H38 O4 S4 Si2'
_chemical_name_systematic        
anti-1,13-dimethyl-1,13-(\m~2~-1,4-phenylene)-2,12,14,24-tetraoxa-5,9,17,21-tetrathio-1,13-disilacyclotetracosane
_symmetry_cell_setting           triclinic
_symmetry_space_group_name_H-M   'P -1'
_symmetry_Int_Tables_number      2
_space_group_name_Hall           '-P 1'
loop_
_symmetry_equiv_pos_site_id
_symmetry_equiv_pos_as_xyz
1 x,y,z
2 -x,-y,-z
_cell_length_a                   5.9439(14)
_cell_length_b                   11.325(3)
_cell_length_c                   11.539(3)
_cell_angle_alpha                112.305(4)
_cell_angle_beta                 95.880(4)
_cell_angle_gamma                95.423(4)
_cell_volume                     707.296
_cell_formula_units_Z            1
loop_
_atom_site_label
_atom_site_type_symbol
_atom_site_fract_x
_atom_site_fract_y
_atom_site_fract_z
Si1 Si 0.2937(2) 0.57080(13) -0.23653(12)
S1 S 0.2132(3) 0.98640(15) 0.15359(15)
S2 S 0.6442(3) 0.78310(18) 0.45685(17)
O1 O 0.1366(5) 0.6838(3) -0.1811(3)
C1 C 0.4133(7) 0.5280(4) -0.1047(4)
O3 O 0.129(3) 0.4729(12) -0.3537(11)
C5 C 0.011(2) 0.3613(11) -0.3767(16)
H5 H 0.0376 0.3421 -0.3017
H6 H -0.1498 0.3679 -0.3912
C6 C 0.280(3) 0.5103(15) -0.0206(16)
H7 H 0.1260 0.5183 -0.0325
C7 C 0.6402(17) 0.5185(15) -0.0796(17)
H8 H 0.7410 0.5319 -0.1314
C8 C 0.2247(9) 0.8058(5) -0.0857(6)
H9 H 0.2077 0.8718 -0.1190
H10 H 0.3864 0.8088 -0.0601
C9 C 0.1043(9) 0.8329(5) 0.0263(5)
H11 H 0.1180 0.7651 0.0575
H12 H -0.0569 0.8310 0.0003
C10 C 0.4809(11) 0.9571(5) 0.2191(5)
H13 H 0.5647 0.9145 0.1507
H14 H 0.5719 1.0391 0.2735
C11 C 0.4491(11) 0.8768(5) 0.2927(5)
H15 H 0.3585 0.7946 0.2389
H16 H 0.3674 0.9194 0.3621
C12 C 0.6827(12) 0.8542(5) 0.3456(5)
H17 H 0.7837 0.9357 0.3864
H18 H 0.7523 0.7978 0.2769
C13 C 0.0664(10) 0.2447(5) -0.4931(5)
H21 H -0.0401 0.1674 -0.5110
H22 H 0.0522 0.2664 -0.5669
C14 C 0.5207(9) 0.6211(6) -0.3121(5)
H23 H 0.6070 0.5515 -0.3465
H24 H 0.6201 0.6947 -0.2504
H25 H 0.4535 0.6432 -0.3790
Si1A Si 0.7063(2) 0.42920(13) 0.23653(12)
S1A S 0.7868(3) 0.01360(15) -0.15359(15)
S2A S 0.3558(3) 0.21690(18) -0.45685(17)
O1A O 0.8634(5) 0.3162(3) 0.1811(3)
C1A C 0.5867(7) 0.4720(4) 0.1047(4)
O3A O 0.871(3) 0.5271(12) 0.3537(11)
C5A C 0.989(2) 0.6387(11) 0.3767(16)
H5A H 0.9624 0.6579 0.3017
H6A H 1.1498 0.6321 0.3912
C6A C 0.720(3) 0.4897(15) 0.0206(16)
H7A H 0.8740 0.4817 0.0325
C7A C 0.3598(17) 0.4815(15) 0.0796(17)
H8A H 0.2590 0.4681 0.1314
C8A C 0.7753(9) 0.1942(5) 0.0857(6)
H9A H 0.7923 0.1282 0.1190
H10A H 0.6136 0.1912 0.0601
C9A C 0.8957(9) 0.1671(5) -0.0263(5)
H11A H 0.8820 0.2349 -0.0575
H12A H 1.0569 0.1690 -0.0003
C10A C 0.5191(11) 0.0429(5) -0.2191(5)
H13A H 0.4353 0.0855 -0.1507
H14A H 0.4281 -0.0391 -0.2735
C11A C 0.5509(11) 0.1232(5) -0.2927(5)
H15A H 0.6415 0.2054 -0.2389
H16A H 0.6326 0.0806 -0.3621
C12A C 0.3173(12) 0.1458(5) -0.3456(5)
H17A H 0.2163 0.0643 -0.3864
H18A H 0.2477 0.2022 -0.2769
C13A C 0.9336(10) 0.7553(5) 0.4931(5)
H21A H 1.0401 0.8326 0.5110
H22A H 0.9478 0.7336 0.5669
C14A C 0.4793(9) 0.3789(6) 0.3121(5)
H23A H 0.3930 0.4485 0.3465
H24A H 0.3799 0.3053 0.2504
H25A H 0.5465 0.3568 0.3790
O2? O 0.102(2) 0.4370(12) -0.3187(10)
C2? C 0.959(2) 0.6189(11) 0.4577(11)
H1? H 1.1144 0.6093 0.4829
H2? H 0.8559 0.5783 0.4963
C3? C 0.285(3) 0.4520(13) -0.0587(16)
H3? H 0.1373 0.4152 -0.0999
C4? C 0.6330(18) 0.5718(15) -0.0464(18)
H4? H 0.7299 0.6183 -0.0773
H19? H 1.0327 0.7913 0.4493
H20? H 0.9846 0.8011 0.5833
loop_
_geom_bond_atom_site_label_1
_geom_bond_atom_site_label_2
_geom_bond_site_symmetry_1
_geom_bond_site_symmetry_2
Si1 O1 1_555 1_555
S1 C9 1_555 1_555
S2 C12 1_555 1_555
O1 C8 1_555 1_555
C1 Si1 1_555 1_555
O3 Si1 1_555 1_555
C5 O3 1_555 1_555
H5 C5 1_555 1_555
H6 C5 1_555 1_555
C6 C1 1_555 1_555
H7 C6 1_555 1_555
C7 C1 1_555 1_555
H8 C7 1_555 1_555
C8 H9 1_555 1_555
H10 C8 1_555 1_555
C9 C8 1_555 1_555
H11 C9 1_555 1_555
H12 C9 1_555 1_555
C10 S1 1_555 1_555
H13 C10 1_555 1_555
H14 C10 1_555 1_555
C11 C10 1_555 1_555
H15 C11 1_555 1_555
H16 C11 1_555 1_555
C12 C11 1_555 1_555
H17 C12 1_555 1_555
H18 C12 1_555 1_555
C13 C5 1_555 1_555
H21 C13 1_555 1_555
H22 C13 1_555 1_555
C14 Si1 1_555 1_555
H23 C14 1_555 1_555
H24 C14 1_555 1_555
H25 C14 1_555 1_555
Si1A O1A 1_555 1_555
S1A C9A 1_555 1_555
S2A C13 1_555 1_555
O1A C8A 1_555 1_555
C1A Si1A 1_555 1_555
O3A Si1A 1_555 1_555
C5A O3A 1_555 1_555
H5A C5A 1_555 1_555
H6A C5A 1_555 1_555
C6A C7 1_555 1_555
H7A C6A 1_555 1_555
C7A C6 1_555 1_555
H8A C7A 1_555 1_555
C8A H9A 1_555 1_555
H10A C8A 1_555 1_555
C9A C8A 1_555 1_555
H11A C9A 1_555 1_555
H12A C9A 1_555 1_555
C10A S1A 1_555 1_555
H13A C10A 1_555 1_555
H14A C10A 1_555 1_555
C11A C10A 1_555 1_555
H15A C11A 1_555 1_555
H16A C11A 1_555 1_555
C12A S2A 1_555 1_555
H17A C12A 1_555 1_555
H18A C12A 1_555 1_555
C13A S2 1_555 1_555
H21A C13A 1_555 1_555
H22A C13A 1_555 1_555
C14A Si1A 1_555 1_555
H23A C14A 1_555 1_555
H24A C14A 1_555 1_555
H25A C14A 1_555 1_555
C1A C6A 1_555 1_555
C1A C7A 1_555 1_555
C5A C13A 1_555 1_555
C11A C12A 1_555 1_555

#END
