
#######################################################################
#
#                 Cambridge Crystallographic Data Centre
#                                CCDC 
#
#######################################################################
#
# If this CIF has been generated from an entry in the Cambridge 
# Structural Database, then it will include bibliographic, chemical, 
# crystal, experimental, refinement or atomic coordinate data resulting 
# from the CCDC's data processing and validation procedures.
#
#######################################################################

data_MAKQAS
_chemical_name_common            
1,13-Dimethyl-2,12,14,24-tetraoxa-5,9,17,21-tetrathia-1,13-disilatricyclo[11.11.4.2$25,28!]triaconta-25,27,29-triene
_chemical_formula_moiety         'C22 H38 O4 S4 Si2'
_chemical_name_systematic        
'syn-1,13-dimethyl-1,13-(\m~2~-1,4-phenylene)-2,12 14,24-tetraoxa-5,9,17,21-tetrathio-1,13-disilacyclotetracosane'
_symmetry_cell_setting           triclinic
_symmetry_space_group_name_H-M   'P -1'
_symmetry_Int_Tables_number      2
_space_group_name_Hall           '-P 1'
loop_
_symmetry_equiv_pos_site_id
_symmetry_equiv_pos_as_xyz
1 x,y,z
2 -x,-y,-z
_cell_length_a                   12.034(7)
_cell_length_b                   12.110(7)
_cell_length_c                   12.494(7)
_cell_angle_alpha                62.491(10)
_cell_angle_beta                 67.101(9)
_cell_angle_gamma                65.495(9)
_cell_volume                     1424.76
_cell_formula_units_Z            2
loop_
_atom_site_label
_atom_site_type_symbol
_atom_site_fract_x
_atom_site_fract_y
_atom_site_fract_z
Si1 Si 0.93911(11) -0.23460(11) 1.01182(10)
Si2 Si 0.66767(11) 0.35074(10) 0.66899(10)
S1 S 0.61460(14) -0.37434(13) 0.95003(13)
S2 S 0.40258(12) 0.12221(13) 0.63952(14)
S3 S 1.05122(12) 0.40923(12) 0.36189(13)
S4 S 1.17181(11) -0.12169(11) 0.61873(10)
O1 O 0.8663(3) -0.3445(3) 1.0667(3)
O2 O 0.5322(3) 0.3755(3) 0.6483(3)
O3 O 0.7791(3) 0.3524(3) 0.5409(3)
O4 O 1.0706(3) -0.2786(2) 0.9136(3)
C1 C 0.8229(4) -0.3749(4) 0.9955(4)
H1 H 0.8543 -0.4697 1.0133
H2 H 0.8556 -0.3300 0.9056
C2 C 0.6781(5) -0.3313(5) 1.0286(4)
H3 H 0.6479 -0.2358 1.0065
H4 H 0.6465 -0.3716 1.1196
C3 C 0.6281(5) -0.2458(4) 0.7991(4)
H5 H 0.7093 -0.2279 0.7753
H6 H 0.6309 -0.2772 0.7375
C4 C 0.5247(5) -0.1206(5) 0.7907(4)
H7 H 0.5271 -0.0833 0.8452
H8 H 0.4424 -0.1386 0.8213
C5 C 0.5355(5) -0.0224(4) 0.6594(4)
H9 H 0.5457 -0.0646 0.6033
H10 H 0.6126 0.0038 0.6334
C6 C 0.4349(4) 0.2146(4) 0.6995(4)
H11 H 0.3545 0.2704 0.7340
H12 H 0.4777 0.1540 0.7677
C7 C 0.5155(4) 0.2968(4) 0.5996(4)
H13 H 0.5984 0.2411 0.5691
H14 H 0.4755 0.3538 0.5290
C8 C 0.7901(4) 0.4503(4) 0.4224(4)
H15 H 0.7828 0.5316 0.4289
H16 H 0.7215 0.4677 0.3867
C9 C 0.9132(4) 0.4078(4) 0.3410(4)
H17 H 0.9087 0.4634 0.2539
H18 H 0.9250 0.3180 0.3509
C10 C 1.0757(5) 0.2767(4) 0.5058(5)
H19 H 1.1479 0.2771 0.5250
H20 H 1.0003 0.2925 0.5733
C11 C 1.1009(4) 0.1423(4) 0.5065(4)
H21 H 1.0234 0.1351 0.5032
H22 H 1.1673 0.1308 0.4315
C12 C 1.1422(4) 0.0363(4) 0.6212(4)
H23 H 1.0758 0.0470 0.6964
H24 H 1.2198 0.0431 0.6248
C13 C 1.2490(4) -0.2285(5) 0.7434(4)
H25 H 1.2759 -0.3183 0.7451
H26 H 1.3262 -0.2052 0.7241
C14 C 1.1728(4) -0.2281(4) 0.8723(4)
H27 H 1.2277 -0.2809 0.9311
H28 H 1.1405 -0.1379 0.8711
C15 C 0.8469(4) -0.0717(4) 0.9221(3)
C16 C 0.7765(4) 0.0265(4) 0.9706(4)
H29 H 0.7675 0.0080 1.0557
C17 C 0.7193(4) 0.1496(4) 0.8992(4)
H30 H 0.6724 0.2140 0.9360
C18 C 0.7283(3) 0.1821(4) 0.7744(3)
C19 C 0.7947(4) 0.0821(4) 0.7271(4)
H31 H 0.8010 0.0998 0.6429
C20 C 0.8515(4) -0.0413(4) 0.7986(4)
H32 H 0.8945 -0.1071 0.7632
C21 C 0.9669(5) -0.2318(5) 1.1456(4)
H33 H 1.0229 -0.3160 1.1849
H34 H 0.8865 -0.2148 1.2061
H35 H 1.0060 -0.1631 1.1167
C22 C 0.6417(5) 0.4782(4) 0.7250(5)
H36 H 0.7223 0.4764 0.7286
H37 H 0.5845 0.4626 0.8083
H38 H 0.6043 0.5634 0.6680
loop_
_geom_bond_atom_site_label_1
_geom_bond_atom_site_label_2
_geom_bond_site_symmetry_1
_geom_bond_site_symmetry_2
Si1 O1 1_555 1_555
Si2 O2 1_555 1_555
S1 C2 1_555 1_555
S2 C5 1_555 1_555
S3 C9 1_555 1_555
S4 C12 1_555 1_555
O1 C1 1_555 1_555
O2 C7 1_555 1_555
O3 Si2 1_555 1_555
O4 Si1 1_555 1_555
C1 H1 1_555 1_555
H2 C1 1_555 1_555
C2 C1 1_555 1_555
H3 C2 1_555 1_555
H4 C2 1_555 1_555
C3 S1 1_555 1_555
H5 C3 1_555 1_555
H6 C3 1_555 1_555
C4 C3 1_555 1_555
H7 C4 1_555 1_555
H8 C4 1_555 1_555
C5 C4 1_555 1_555
H9 C5 1_555 1_555
H10 C5 1_555 1_555
C6 S2 1_555 1_555
H11 C6 1_555 1_555
H12 C6 1_555 1_555
C7 C6 1_555 1_555
H13 C7 1_555 1_555
H14 C7 1_555 1_555
C8 O3 1_555 1_555
H15 C8 1_555 1_555
H16 C8 1_555 1_555
C9 C8 1_555 1_555
H17 C9 1_555 1_555
H18 C9 1_555 1_555
C10 S3 1_555 1_555
H19 C10 1_555 1_555
H20 C10 1_555 1_555
C11 C10 1_555 1_555
H21 C11 1_555 1_555
H22 C11 1_555 1_555
C12 C11 1_555 1_555
H23 C12 1_555 1_555
H24 C12 1_555 1_555
C13 S4 1_555 1_555
H25 C13 1_555 1_555
H26 C13 1_555 1_555
C14 O4 1_555 1_555
H27 C14 1_555 1_555
H28 C14 1_555 1_555
C15 Si1 1_555 1_555
C16 C15 1_555 1_555
H29 C16 1_555 1_555
C17 C16 1_555 1_555
H30 C17 1_555 1_555
C18 Si2 1_555 1_555
C19 C18 1_555 1_555
H31 C19 1_555 1_555
C20 C15 1_555 1_555
H32 C20 1_555 1_555
C21 Si1 1_555 1_555
H33 C21 1_555 1_555
H34 C21 1_555 1_555
H35 C21 1_555 1_555
C22 Si2 1_555 1_555
H36 C22 1_555 1_555
H37 C22 1_555 1_555
H38 C22 1_555 1_555
C13 C14 1_555 1_555
C17 C18 1_555 1_555
C19 C20 1_555 1_555

#END
