
#######################################################################
#
#                 Cambridge Crystallographic Data Centre
#                                CCDC 
#
#######################################################################
#
# If this CIF has been generated from an entry in the Cambridge 
# Structural Database, then it will include bibliographic, chemical, 
# crystal, experimental, refinement or atomic coordinate data resulting 
# from the CCDC's data processing and validation procedures.
#
#######################################################################

data_MAKYUT
_chemical_formula_moiety         'C26 H22 N4 O2,C1 H1 Cl3'
_chemical_name_systematic        
"N-((N',N'-bis(2-Quinolinylmethyl)amino)ethyl)maleimide chloroform solvate"
_symmetry_cell_setting           triclinic
_symmetry_space_group_name_H-M   'P -1'
_symmetry_Int_Tables_number      2
_space_group_name_Hall           '-P 1'
loop_
_symmetry_equiv_pos_site_id
_symmetry_equiv_pos_as_xyz
1 x,y,z
2 -x,-y,-z
_cell_length_a                   9.2492(8)
_cell_length_b                   11.1750(10)
_cell_length_c                   13.0963(11)
_cell_angle_alpha                101.983(2)
_cell_angle_beta                 90.707(2)
_cell_angle_gamma                101.991(2)
_cell_volume                     1293.06
_exptl_crystal_colour            colorless
_exptl_crystal_description       plate
_cell_formula_units_Z            2
loop_
_atom_site_label
_atom_site_type_symbol
_atom_site_fract_x
_atom_site_fract_y
_atom_site_fract_z
Cl1 Cl 0.83557(4) 0.29650(3) 0.22181(3)
Cl2 Cl 0.71287(5) 0.06102(4) 0.28026(3)
Cl3 Cl 0.54306(6) 0.15938(6) 0.14405(7)
C27 C 0.71945(16) 0.14624(14) 0.18105(11)
H23 H 0.7616 0.1001 0.1188
O1 O -0.08990(14) 0.87847(11) 0.35890(9)
O2 O 0.07381(14) 0.52329(10) 0.36855(9)
N1 N 0.16074(13) 0.78312(11) 0.16661(9)
N2 N 0.19614(13) 1.02201(11) 0.02672(9)
N3 N 0.46055(13) 0.68365(11) 0.24728(9)
N4 N -0.01614(13) 0.68958(11) 0.33409(9)
C1 C 0.39061(15) 0.77654(13) 0.25758(11)
C2 C 0.37669(17) 0.85487(14) 0.35572(12)
H1 H 0.3235 0.9197 0.3599
C3 C 0.44042(17) 0.83592(15) 0.44371(12)
H2 H 0.4323 0.8878 0.5098
C4 C 0.51883(16) 0.73843(14) 0.43613(11)
C5 C 0.59008(18) 0.71267(16) 0.52314(13)
H3 H 0.5875 0.7630 0.5909
C6 C 0.66252(18) 0.61594(17) 0.51029(14)
H4 H 0.7108 0.6000 0.5689
C7 C 0.66562(17) 0.54011(16) 0.41058(14)
H5 H 0.7150 0.4724 0.4026
C8 C 0.59826(16) 0.56263(15) 0.32469(12)
H6 H 0.6011 0.5105 0.2578
C9 C 0.52457(15) 0.66325(13) 0.33547(11)
C10 C 0.32158(15) 0.79787(13) 0.15986(11)
H7 H 0.3653 0.8833 0.1504
H8 H 0.3429 0.7371 0.0984
C11 C 0.09655(16) 0.83166(13) 0.08513(11)
H9 H -0.0127 0.8049 0.0825
H10 H 0.1306 0.7954 0.0165
C12 C 0.13885(15) 0.97234(13) 0.10402(11)
C13 C 0.11274(17) 1.04468(14) 0.20183(12)
H11 H 0.0710 1.0048 0.2553
C14 C 0.14827(17) 1.17217(14) 0.21825(11)
H12 H 0.1313 1.2220 0.2833
C15 C 0.21077(15) 1.22978(13) 0.13758(11)
C16 C 0.25379(18) 1.36126(14) 0.14881(12)
H13 H 0.2384 1.4152 0.2122
C17 C 0.31745(17) 1.41118(13) 0.06876(12)
H14 H 0.3464 1.4995 0.0771
C18 C 0.34031(15) 1.33228(13) -0.02590(11)
H15 H 0.3845 1.3678 -0.0809
C19 C 0.29914(15) 1.20443(13) -0.03905(11)
H16 H 0.3150 1.1520 -0.1031
C20 C 0.23314(14) 1.15038(12) 0.04228(10)
C21 C 0.08716(16) 0.65240(12) 0.16133(11)
H17 H 0.1561 0.6092 0.1902
H18 H 0.0608 0.6096 0.0874
C22 C -0.05243(15) 0.64366(13) 0.22257(11)
H19 H -0.1172 0.6936 0.1982
H20 H -0.1074 0.5554 0.2094
C23 C -0.03571(16) 0.80335(13) 0.39218(11)
C24 C 0.02198(18) 0.81263(14) 0.50112(12)
H21 H 0.0249 0.8811 0.5585
C25 C 0.06864(18) 0.70853(15) 0.50397(11)
H22 H 0.1098 0.6898 0.5641
C26 C 0.04571(16) 0.62582(13) 0.39723(11)
loop_
_geom_bond_atom_site_label_1
_geom_bond_atom_site_label_2
_geom_bond_site_symmetry_1
_geom_bond_site_symmetry_2
Cl1 C27 1_555 1_555
Cl2 C27 1_555 1_555
Cl3 C27 1_555 1_555
O1 C23 1_555 1_555
O2 C26 1_555 1_555
N1 C10 1_555 1_555
N2 C12 1_555 1_555
N3 C1 1_555 1_555
N4 C22 1_555 1_555
C1 C2 1_555 1_555
C2 H1 1_555 1_555
C3 C2 1_555 1_555
H2 C3 1_555 1_555
C4 C3 1_555 1_555
C5 C4 1_555 1_555
H3 C5 1_555 1_555
C6 C5 1_555 1_555
H4 C6 1_555 1_555
C7 C6 1_555 1_555
H5 C7 1_555 1_555
C8 C7 1_555 1_555
H6 C8 1_555 1_555
C9 N3 1_555 1_555
C10 C1 1_555 1_555
H7 C10 1_555 1_555
H8 C10 1_555 1_555
C11 N1 1_555 1_555
H9 C11 1_555 1_555
H10 C11 1_555 1_555
C12 C11 1_555 1_555
C13 C12 1_555 1_555
H11 C13 1_555 1_555
C14 C13 1_555 1_555
H12 C14 1_555 1_555
C15 C14 1_555 1_555
C16 C15 1_555 1_555
H13 C16 1_555 1_555
C17 C16 1_555 1_555
H14 C17 1_555 1_555
C18 C17 1_555 1_555
H15 C18 1_555 1_555
C19 C18 1_555 1_555
H16 C19 1_555 1_555
C20 N2 1_555 1_555
C21 N1 1_555 1_555
H17 C21 1_555 1_555
H18 C21 1_555 1_555
C22 C21 1_555 1_555
H19 C22 1_555 1_555
H20 C22 1_555 1_555
C23 N4 1_555 1_555
C24 C23 1_555 1_555
H21 C24 1_555 1_555
C25 C24 1_555 1_555
H22 C25 1_555 1_555
C26 N4 1_555 1_555
C27 H23 1_555 1_555
C4 C9 1_555 1_555
C8 C9 1_555 1_555
C15 C20 1_555 1_555
C19 C20 1_555 1_555
C25 C26 1_555 1_555

#END
