
#######################################################################
#
#                 Cambridge Crystallographic Data Centre
#                                CCDC 
#
#######################################################################
#
# If this CIF has been generated from an entry in the Cambridge 
# Structural Database, then it will include bibliographic, chemical, 
# crystal, experimental, refinement or atomic coordinate data resulting 
# from the CCDC's data processing and validation procedures.
#
#######################################################################

data_MAKZUW
_chemical_formula_moiety         'C42 H46 Si2'
_chemical_name_systematic        
((2,6-diphenylanthracene-9,10-diyl)diethyne-2,1-diyl)bis(triethylsilane)
_symmetry_cell_setting           monoclinic
_symmetry_space_group_name_H-M   'P 21/c'
_symmetry_Int_Tables_number      14
_space_group_name_Hall           '-P 2ybc'
loop_
_symmetry_equiv_pos_site_id
_symmetry_equiv_pos_as_xyz
1 x,y,z
2 -x,1/2+y,1/2-z
3 -x,-y,-z
4 x,1/2-y,1/2+z
_cell_length_a                   26.848(2)
_cell_length_b                   34.169(2)
_cell_length_c                   7.6508(6)
_cell_angle_alpha                90
_cell_angle_beta                 90.500(5)
_cell_angle_gamma                90
_cell_volume                     7018.34
_exptl_crystal_colour            orange
_exptl_crystal_description       prism
_cell_formula_units_Z            8
loop_
_atom_site_label
_atom_site_type_symbol
_atom_site_fract_x
_atom_site_fract_y
_atom_site_fract_z
Si1 Si 0.38742(3) 0.60104(2) 0.66644(10)
Si2 Si 0.60098(3) 0.89446(2) 0.36468(12)
C1 C 0.43866(9) 0.67854(7) 0.5884(3)
C2 C 0.41693(10) 0.64862(8) 0.6231(4)
C3 C 0.46458(9) 0.71402(7) 0.5475(3)
C4 C 0.44185(9) 0.75068(7) 0.5796(3)
C5 C 0.39204(9) 0.75371(8) 0.6421(3)
H1 H 0.3732 0.7305 0.6592
C6 C 0.37061(9) 0.78905(7) 0.6779(3)
C7 C 0.39954(9) 0.82372(7) 0.6572(3)
H2 H 0.3858 0.8483 0.6898
C8 C 0.44623(10) 0.82224(7) 0.5917(3)
H3 H 0.4642 0.8459 0.5754
C9 C 0.46900(9) 0.78595(7) 0.5468(3)
C10 C 0.51705(9) 0.78408(7) 0.4746(3)
C11 C 0.53942(9) 0.74747(7) 0.4390(3)
C12 C 0.58834(9) 0.74487(8) 0.3700(3)
H4 H 0.6058 0.7683 0.3446
C13 C 0.61104(9) 0.70974(8) 0.3390(3)
C14 C 0.58416(10) 0.67489(8) 0.3759(3)
H5 H 0.5992 0.6503 0.3533
C15 C 0.53742(10) 0.67597(7) 0.4427(3)
H6 H 0.5206 0.6521 0.4661
C16 C 0.51320(9) 0.71219(7) 0.4782(3)
C17 C 0.54332(9) 0.81966(7) 0.4374(3)
C18 C 0.56546(10) 0.84950(8) 0.4052(4)
C19 C 0.31788(10) 0.79209(7) 0.7339(3)
C20 C 0.28106(10) 0.77014(9) 0.6507(4)
H7 H 0.2899 0.7526 0.5596
C21 C 0.23147(11) 0.77347(10) 0.6992(4)
H8 H 0.2067 0.7583 0.6412
C22 C 0.21805(10) 0.79881(9) 0.8313(4)
H9 H 0.1841 0.8012 0.8642
C23 C 0.25421(10) 0.82069(8) 0.9152(4)
H10 H 0.2451 0.8380 1.0066
C24 C 0.30380(10) 0.81754(8) 0.8671(4)
H11 H 0.3284 0.8328 0.9255
C25 C 0.66346(10) 0.70800(8) 0.2757(3)
C26 C 0.68315(10) 0.73780(9) 0.1735(4)
H12 H 0.6625 0.7591 0.1394
C27 C 0.73260(10) 0.73691(9) 0.1203(4)
H13 H 0.7454 0.7575 0.0506
C28 C 0.76309(11) 0.70614(9) 0.1684(4)
H14 H 0.7969 0.7056 0.1329
C29 C 0.74390(11) 0.67600(9) 0.2691(5)
H15 H 0.7646 0.6547 0.3027
C30 C 0.69460(10) 0.67686(9) 0.3209(4)
H16 H 0.6818 0.6559 0.3883
C31 C 0.42056(12) 0.57787(8) 0.8562(4)
H17 H 0.4567 0.5827 0.8447
H18 H 0.4095 0.5907 0.9651
C32 C 0.41186(16) 0.53375(9) 0.8728(5)
H19 H 0.3760 0.5285 0.8750
H20 H 0.4273 0.5242 0.9812
H21 H 0.4267 0.5203 0.7728
C33 C 0.32005(10) 0.60774(8) 0.7175(4)
H22 H 0.3017 0.6133 0.6074
H23 H 0.3069 0.5829 0.7652
C34 C 0.30938(12) 0.64077(10) 0.8485(4)
H24 H 0.3257 0.6349 0.9604
H25 H 0.2734 0.6430 0.8658
H26 H 0.3222 0.6656 0.8028
C35 C 0.39246(12) 0.57130(9) 0.4602(4)
H27 H 0.3795 0.5447 0.4832
H28 H 0.3709 0.5833 0.3693
C36 C 0.44499(13) 0.56786(11) 0.3893(5)
H29 H 0.4585 0.5941 0.3681
H30 H 0.4442 0.5531 0.2794
H31 H 0.4661 0.5542 0.4745
C37 C 0.60800(12) 0.91993(9) 0.5794(4)
H32 H 0.6289 0.9036 0.6579
H33 H 0.6256 0.9450 0.5611
C38 C 0.55878(15) 0.92809(10) 0.6685(5)
H34 H 0.5383 0.9450 0.5936
H35 H 0.5650 0.9412 0.7805
H36 H 0.5413 0.9034 0.6888
C39 C 0.56552(16) 0.92626(10) 0.2076(5)
H37 H 0.5580 0.9109 0.1008
H38 H 0.5334 0.9337 0.2611
C40 C 0.59318(18) 0.96359(10) 0.1552(5)
H39 H 0.5985 0.9800 0.2587
H40 H 0.5733 0.9780 0.0685
H41 H 0.6254 0.9566 0.1048
C41 C 0.65990(15) 0.88158(12) 0.2511(6)
H42 H 0.6521 0.8760 0.1268
H43 H 0.6824 0.9045 0.2548
C42 C 0.68703(19) 0.84665(16) 0.3284(8)
H44 H 0.6983 0.8529 0.4473
H45 H 0.7159 0.8403 0.2560
H46 H 0.6645 0.8241 0.3317
Si3 Si 0.10029(3) 0.64983(3) 0.86561(14)
C45 C 0.04774(10) 0.57240(8) 0.9270(4)
C46 C 0.06782(11) 0.60336(9) 0.8993(4)
C47 C 0.02393(10) 0.53591(8) 0.9628(3)
C48 C -0.02468(9) 0.53589(8) 1.0344(3)
C49 C -0.05046(10) 0.57126(8) 1.0718(3)
H52 H -0.0348 0.5957 1.0500
C50 C -0.09743(10) 0.57056(8) 1.1385(3)
H53 H -0.1138 0.5946 1.1626
C51 C -0.12254(9) 0.53479(8) 1.1727(3)
C52 C -0.09784(9) 0.50041(8) 1.1405(3)
H54 H -0.1141 0.4763 1.1642
C53 C -0.04853(9) 0.49969(8) 1.0725(3)
C54 C -0.17501(10) 0.53490(8) 1.2356(3)
C55 C -0.19346(10) 0.50454(9) 1.3368(4)
H55 H -0.1719 0.4838 1.3707
C56 C -0.24301(11) 0.50385(10) 1.3894(4)
H56 H -0.2550 0.4829 1.4588
C57 C -0.27478(11) 0.53394(10) 1.3402(4)
H57 H -0.3087 0.5335 1.3744
C58 C -0.25689(11) 0.56454(10) 1.2413(4)
H58 H -0.2785 0.5853 1.2087
C59 C -0.20766(10) 0.56514(9) 1.1890(4)
H59 H -0.1959 0.5864 1.1207
C60 C 0.0775(2) 0.67165(15) 0.6633(6)
H60 H 0.0888 0.6555 0.5638
H61 H 0.0407 0.6713 0.6632
C61 C 0.0951(3) 0.71345(19) 0.6363(16)
H62 H 0.0812 0.7302 0.7277
H63 H 0.0837 0.7228 0.5214
H64 H 0.1315 0.7143 0.6422
C62 C 0.16955(14) 0.63970(13) 0.8597(7)
H65 H 0.1865 0.6610 0.7961
H66 H 0.1830 0.6390 0.9805
C63 C 0.1801(5) 0.6005(3) 0.769(2)
H67 H 0.1739 0.5790 0.8510
H68 H 0.2150 0.5998 0.7323
H69 H 0.1582 0.5977 0.6668
C64 C 0.08971(18) 0.68039(17) 1.0663(6)
H70 H 0.1067 0.6675 1.1662
H71 H 0.1061 0.7060 1.0488
C65 C 0.0369(2) 0.6877(2) 1.1159(11)
H72 H 0.0198 0.7016 1.0209
H73 H 0.0360 0.7035 1.2225
H74 H 0.0202 0.6626 1.1368
Si3B Si -0.10029(3) 0.35017(3) 1.13439(14)
C45B C -0.04774(10) 0.42760(8) 1.0730(4)
C46B C -0.06782(11) 0.39664(9) 1.1007(4)
C47B C -0.02393(10) 0.46409(8) 1.0372(3)
C48B C 0.02468(9) 0.46411(8) 0.9656(3)
C49B C 0.05046(10) 0.42874(8) 0.9282(3)
H52B H 0.0348 0.4043 0.9500
C50B C 0.09743(10) 0.42944(8) 0.8615(3)
H53B H 0.1138 0.4054 0.8374
C51B C 0.12254(9) 0.46521(8) 0.8273(3)
C52B C 0.09784(9) 0.49959(8) 0.8595(3)
H54B H 0.1141 0.5237 0.8358
C53B C 0.04853(9) 0.50031(8) 0.9275(3)
C54B C 0.17501(10) 0.46510(8) 0.7644(3)
C55B C 0.19346(10) 0.49546(9) 0.6632(4)
H55B H 0.1719 0.5162 0.6293
C56B C 0.24301(11) 0.49615(10) 0.6106(4)
H56B H 0.2550 0.5171 0.5412
C57B C 0.27478(11) 0.46606(10) 0.6598(4)
H57B H 0.3087 0.4665 0.6256
C58B C 0.25689(11) 0.43546(10) 0.7587(4)
H58B H 0.2785 0.4147 0.7913
C59B C 0.20766(10) 0.43486(9) 0.8110(4)
H59B H 0.1959 0.4136 0.8793
C60B C -0.0775(2) 0.32835(15) 1.3367(6)
H60B H -0.0888 0.3445 1.4362
H61B H -0.0407 0.3287 1.3368
C61B C -0.0951(3) 0.28655(19) 1.3637(16)
H62B H -0.0812 0.2698 1.2723
H63B H -0.0837 0.2772 1.4786
H64B H -0.1315 0.2857 1.3578
C62B C -0.16955(14) 0.36030(13) 1.1403(7)
H65B H -0.1865 0.3390 1.2039
H66B H -0.1830 0.3610 1.0195
C63B C -0.1801(5) 0.3995(3) 1.231(2)
H67B H -0.1739 0.4210 1.1490
H68B H -0.2150 0.4002 1.2677
H69B H -0.1582 0.4023 1.3332
C64B C -0.08971(18) 0.31961(17) 0.9337(6)
H70B H -0.1067 0.3325 0.8338
H71B H -0.1061 0.2940 0.9512
C65B C -0.0369(2) 0.3123(2) 0.8841(11)
H72B H -0.0198 0.2984 0.9791
H73B H -0.0360 0.2965 0.7775
H74B H -0.0202 0.3374 0.8632
Si4 Si 0.11360(3) 0.35648(2) 0.35534(13)
C72 C 0.02703(9) 0.46538(7) 0.4624(3)
C73 C -0.02123(9) 0.46279(7) 0.5358(3)
C74 C -0.04375(10) 0.42608(8) 0.5749(3)
H90 H -0.0261 0.4026 0.5522
C75 C -0.08989(10) 0.42422(8) 0.6439(3)
H91 H -0.1036 0.3993 0.6707
C76 C -0.11859(10) 0.45859(8) 0.6776(3)
C77 C -0.09725(9) 0.49415(8) 0.6424(3)
H92 H -0.1157 0.5173 0.6651
C78 C -0.04846(9) 0.49765(7) 0.5730(3)
C79 C 0.05406(10) 0.43033(8) 0.4249(4)
C80 C 0.07672(10) 0.40080(8) 0.3933(4)
C81 C -0.17050(10) 0.45548(8) 0.7447(3)
C82 C -0.19924(10) 0.42179(9) 0.7149(4)
H93 H -0.1850 0.4002 0.6546
C83 C -0.24811(11) 0.41945(9) 0.7721(4)
H94 H -0.2670 0.3964 0.7507
C84 C -0.26931(11) 0.45037(9) 0.8596(4)
H95 H -0.3028 0.4487 0.8984
C85 C -0.24162(11) 0.48390(9) 0.8908(4)
H96 H -0.2561 0.5053 0.9515
C86 C -0.19303(10) 0.48633(8) 0.8337(3)
H97 H -0.1745 0.5095 0.8556
C87 C 0.07860(17) 0.32333(10) 0.2060(5)
H98 H 0.0459 0.3174 0.2586
H99 H 0.0723 0.3372 0.0944
C88 C 0.1054(2) 0.28452(11) 0.1669(6)
H100 H 0.1396 0.2899 0.1305
H101 H 0.0876 0.2707 0.0729
H102 H 0.1059 0.2682 0.2722
C89 C 0.12329(15) 0.33249(11) 0.5714(5)
H103 H 0.1418 0.3077 0.5540
H104 H 0.1442 0.3497 0.6458
C90 C 0.07530(19) 0.32362(12) 0.6664(5)
H105 H 0.0569 0.3480 0.6852
H106 H 0.0830 0.3115 0.7794
H107 H 0.0550 0.3057 0.5959
C91 C 0.17133(14) 0.37075(13) 0.2346(6)
H108 H 0.1933 0.3476 0.2251
H109 H 0.1619 0.3789 0.1147
C92 C 0.20049(15) 0.40394(13) 0.3219(7)
H110 H 0.1786 0.4266 0.3377
H111 H 0.2286 0.4114 0.2480
H112 H 0.2130 0.3952 0.4360
Si4B Si -0.11360(3) 0.64352(2) 0.64466(13)
C72B C -0.02703(9) 0.53462(7) 0.5376(3)
C73B C 0.02123(9) 0.53721(7) 0.4642(3)
C74B C 0.04375(10) 0.57392(8) 0.4251(3)
H90B H 0.0261 0.5974 0.4478
C75B C 0.08989(10) 0.57578(8) 0.3561(3)
H91B H 0.1036 0.6007 0.3293
C76B C 0.11859(10) 0.54141(8) 0.3224(3)
C77B C 0.09725(9) 0.50585(8) 0.3576(3)
H92B H 0.1157 0.4827 0.3349
C78B C 0.04846(9) 0.50235(7) 0.4270(3)
C79B C -0.05406(10) 0.56967(8) 0.5751(4)
C80B C -0.07672(10) 0.59920(8) 0.6067(4)
C81B C 0.17050(10) 0.54452(8) 0.2553(3)
C82B C 0.19924(10) 0.57821(9) 0.2851(4)
H93B H 0.1850 0.5998 0.3454
C83B C 0.24811(11) 0.58055(9) 0.2279(4)
H94B H 0.2670 0.6036 0.2493
C84B C 0.26931(11) 0.54963(9) 0.1404(4)
H95B H 0.3028 0.5513 0.1016
C85B C 0.24162(11) 0.51610(9) 0.1092(4)
H96B H 0.2561 0.4947 0.0485
C86B C 0.19303(10) 0.51367(8) 0.1663(3)
H97B H 0.1745 0.4905 0.1444
C87B C -0.07860(17) 0.67667(10) 0.7940(5)
H98B H -0.0459 0.6826 0.7414
H99B H -0.0723 0.6628 0.9056
C88B C -0.1054(2) 0.71548(11) 0.8331(6)
H100B H -0.1396 0.7101 0.8695
H101B H -0.0876 0.7293 0.9271
H102B H -0.1059 0.7318 0.7278
C89B C -0.12329(15) 0.66751(11) 0.4286(5)
H103B H -0.1418 0.6923 0.4460
H104B H -0.1442 0.6503 0.3542
C90B C -0.07530(19) 0.67638(12) 0.3336(5)
H105B H -0.0569 0.6520 0.3148
H106B H -0.0830 0.6885 0.2206
H107B H -0.0550 0.6943 0.4041
C91B C -0.17133(14) 0.62925(13) 0.7654(6)
H108B H -0.1933 0.6524 0.7749
H109B H -0.1619 0.6211 0.8853
C92B C -0.20049(15) 0.59606(13) 0.6781(7)
H110B H -0.1786 0.5734 0.6623
H111B H -0.2286 0.5886 0.7520
H112B H -0.2130 0.6048 0.5640
C43? C 0.6692(4) 0.8796(6) 0.378(3)
H47? H 0.6902 0.9030 0.3607
H48? H 0.6764 0.8691 0.4965
C44? C 0.6828(11) 0.8487(8) 0.242(3)
H49? H 0.6573 0.8281 0.2407
H50? H 0.7152 0.8372 0.2727
H51? H 0.6846 0.8609 0.1268
C66? C 0.0563(4) 0.6800(4) 0.7233(16)
H75? H 0.0453 0.6628 0.6261
H76? H 0.0264 0.6854 0.7944
C67? C 0.0719(8) 0.7189(6) 0.642(5)
H77? H 0.1084 0.7206 0.6409
H78? H 0.0583 0.7406 0.7102
H79? H 0.0591 0.7204 0.5215
C68? C 0.1577(3) 0.6406(3) 0.7332(15)
H80? H 0.1483 0.6402 0.6077
H81? H 0.1813 0.6625 0.7516
C69? C 0.1842(18) 0.6020(8) 0.779(6)
H82? H 0.1959 0.6028 0.9005
H83? H 0.2127 0.5983 0.7013
H84? H 0.1610 0.5801 0.7638
C70? C 0.1132(5) 0.6745(5) 1.0726(13)
H85? H 0.1392 0.6600 1.1380
H86? H 0.1258 0.7012 1.0495
C71? C 0.0662(7) 0.6770(7) 1.182(3)
H87? H 0.0528 0.6507 1.2007
H88? H 0.0413 0.6931 1.1212
H89? H 0.0742 0.6890 1.2955
C93? C 0.1811(4) 0.3721(5) 0.379(2)
H113? H 0.1861 0.3882 0.4850
H114? H 0.2034 0.3491 0.3849
C94? C 0.1914(8) 0.3963(6) 0.213(2)
H115? H 0.2021 0.3788 0.1192
H116? H 0.2177 0.4154 0.2381
H117? H 0.1609 0.4100 0.1773
loop_
_geom_bond_atom_site_label_1
_geom_bond_atom_site_label_2
_geom_bond_site_symmetry_1
_geom_bond_site_symmetry_2
Si1 C2 1_555 1_555
Si2 C18 1_555 1_555
C1 C2 1_555 1_555
C3 C1 1_555 1_555
C4 C3 1_555 1_555
C5 C4 1_555 1_555
H1 C5 1_555 1_555
C6 C5 1_555 1_555
C7 C6 1_555 1_555
H2 C7 1_555 1_555
C8 C7 1_555 1_555
H3 C8 1_555 1_555
C9 C4 1_555 1_555
C10 C9 1_555 1_555
C11 C10 1_555 1_555
C12 C11 1_555 1_555
H4 C12 1_555 1_555
C13 C12 1_555 1_555
C14 C13 1_555 1_555
H5 C14 1_555 1_555
C15 C14 1_555 1_555
H6 C15 1_555 1_555
C16 C3 1_555 1_555
C17 C10 1_555 1_555
C18 C17 1_555 1_555
C19 C6 1_555 1_555
C20 C19 1_555 1_555
H7 C20 1_555 1_555
C21 C20 1_555 1_555
H8 C21 1_555 1_555
C22 C21 1_555 1_555
H9 C22 1_555 1_555
C23 C22 1_555 1_555
H10 C23 1_555 1_555
C24 C19 1_555 1_555
H11 C24 1_555 1_555
C25 C13 1_555 1_555
C26 C25 1_555 1_555
H12 C26 1_555 1_555
C27 C26 1_555 1_555
H13 C27 1_555 1_555
C28 C27 1_555 1_555
H14 C28 1_555 1_555
C29 C28 1_555 1_555
H15 C29 1_555 1_555
C30 C25 1_555 1_555
H16 C30 1_555 1_555
C31 Si1 1_555 1_555
H17 C31 1_555 1_555
H18 C31 1_555 1_555
C32 C31 1_555 1_555
H19 C32 1_555 1_555
H20 C32 1_555 1_555
H21 C32 1_555 1_555
C33 Si1 1_555 1_555
H22 C33 1_555 1_555
H23 C33 1_555 1_555
C34 C33 1_555 1_555
H24 C34 1_555 1_555
H25 C34 1_555 1_555
H26 C34 1_555 1_555
C35 Si1 1_555 1_555
H27 C35 1_555 1_555
H28 C35 1_555 1_555
C36 C35 1_555 1_555
H29 C36 1_555 1_555
H30 C36 1_555 1_555
H31 C36 1_555 1_555
C37 Si2 1_555 1_555
H32 C37 1_555 1_555
H33 C37 1_555 1_555
C38 C37 1_555 1_555
H34 C38 1_555 1_555
H35 C38 1_555 1_555
H36 C38 1_555 1_555
C39 Si2 1_555 1_555
H37 C39 1_555 1_555
H38 C39 1_555 1_555
C40 C39 1_555 1_555
H39 C40 1_555 1_555
H40 C40 1_555 1_555
H41 C40 1_555 1_555
C41 Si2 1_555 1_555
H42 C41 1_555 1_555
H43 C41 1_555 1_555
C42 C41 1_555 1_555
H44 C42 1_555 1_555
H45 C42 1_555 1_555
H46 C42 1_555 1_555
Si3 C46 1_555 1_555
C45 C46 1_555 1_555
C47 C45 1_555 1_555
C48 C47 1_555 1_555
C49 C48 1_555 1_555
H52 C49 1_555 1_555
C50 C49 1_555 1_555
H53 C50 1_555 1_555
C51 C50 1_555 1_555
C52 C51 1_555 1_555
H54 C52 1_555 1_555
C53 C48 1_555 1_555
C54 C51 1_555 1_555
C55 C54 1_555 1_555
H55 C55 1_555 1_555
C56 C55 1_555 1_555
H56 C56 1_555 1_555
C57 C56 1_555 1_555
H57 C57 1_555 1_555
C58 C57 1_555 1_555
H58 C58 1_555 1_555
C59 C54 1_555 1_555
H59 C59 1_555 1_555
C60 Si3 1_555 1_555
H60 C60 1_555 1_555
H61 C60 1_555 1_555
C61 C60 1_555 1_555
H62 C61 1_555 1_555
H63 C61 1_555 1_555
H64 C61 1_555 1_555
C62 Si3 1_555 1_555
H65 C62 1_555 1_555
H66 C62 1_555 1_555
C63 C62 1_555 1_555
H67 C63 1_555 1_555
H68 C63 1_555 1_555
H69 C63 1_555 1_555
C64 Si3 1_555 1_555
H70 C64 1_555 1_555
H71 C64 1_555 1_555
C65 C64 1_555 1_555
H72 C65 1_555 1_555
H73 C65 1_555 1_555
H74 C65 1_555 1_555
Si4 C80 1_555 1_555
C72 C73 1_555 1_555
C73 C74 1_555 1_555
C74 H90 1_555 1_555
C75 C74 1_555 1_555
H91 C75 1_555 1_555
C76 C75 1_555 1_555
C77 C76 1_555 1_555
H92 C77 1_555 1_555
C78 C73 1_555 1_555
C79 C72 1_555 1_555
C80 C79 1_555 1_555
C81 C76 1_555 1_555
C82 C81 1_555 1_555
H93 C82 1_555 1_555
C83 C82 1_555 1_555
H94 C83 1_555 1_555
C84 C83 1_555 1_555
H95 C84 1_555 1_555
C85 C84 1_555 1_555
H96 C85 1_555 1_555
C86 C81 1_555 1_555
H97 C86 1_555 1_555
C87 Si4 1_555 1_555
H98 C87 1_555 1_555
H99 C87 1_555 1_555
C88 C87 1_555 1_555
H100 C88 1_555 1_555
H101 C88 1_555 1_555
H102 C88 1_555 1_555
C89 Si4 1_555 1_555
H103 C89 1_555 1_555
H104 C89 1_555 1_555
C90 C89 1_555 1_555
H105 C90 1_555 1_555
H106 C90 1_555 1_555
H107 C90 1_555 1_555
C91 Si4 1_555 1_555
H108 C91 1_555 1_555
H109 C91 1_555 1_555
C92 C91 1_555 1_555
H110 C92 1_555 1_555
H111 C92 1_555 1_555
H112 C92 1_555 1_555
Si3B C46B 1_555 1_555
C45B C46B 1_555 1_555
C47B C53 1_555 1_555
C48B C47B 1_555 1_555
C49B C48B 1_555 1_555
H52B C49B 1_555 1_555
C50B C49B 1_555 1_555
H53B C50B 1_555 1_555
C51B C50B 1_555 1_555
C52B C51B 1_555 1_555
H54B C52B 1_555 1_555
C53B C47 1_555 1_555
C54B C51B 1_555 1_555
C55B C54B 1_555 1_555
H55B C55B 1_555 1_555
C56B C55B 1_555 1_555
H56B C56B 1_555 1_555
C57B C56B 1_555 1_555
H57B C57B 1_555 1_555
C58B C57B 1_555 1_555
H58B C58B 1_555 1_555
C59B C54B 1_555 1_555
H59B C59B 1_555 1_555
C60B Si3B 1_555 1_555
H60B C60B 1_555 1_555
H61B C60B 1_555 1_555
C61B C60B 1_555 1_555
H62B C61B 1_555 1_555
H63B C61B 1_555 1_555
H64B C61B 1_555 1_555
C62B Si3B 1_555 1_555
H65B C62B 1_555 1_555
H66B C62B 1_555 1_555
C63B C62B 1_555 1_555
H67B C63B 1_555 1_555
H68B C63B 1_555 1_555
H69B C63B 1_555 1_555
C64B Si3B 1_555 1_555
H70B C64B 1_555 1_555
H71B C64B 1_555 1_555
C65B C64B 1_555 1_555
H72B C65B 1_555 1_555
H73B C65B 1_555 1_555
H74B C65B 1_555 1_555
Si4B C80B 1_555 1_555
C72B C78 1_555 1_555
C73B C72B 1_555 1_555
C74B C73B 1_555 1_555
H90B C74B 1_555 1_555
C75B C74B 1_555 1_555
H91B C75B 1_555 1_555
C76B C75B 1_555 1_555
C77B C76B 1_555 1_555
H92B C77B 1_555 1_555
C78B C72 1_555 1_555
C79B C72B 1_555 1_555
C80B C79B 1_555 1_555
C81B C76B 1_555 1_555
C82B C81B 1_555 1_555
H93B C82B 1_555 1_555
C83B C82B 1_555 1_555
H94B C83B 1_555 1_555
C84B C83B 1_555 1_555
H95B C84B 1_555 1_555
C85B C84B 1_555 1_555
H96B C85B 1_555 1_555
C86B C81B 1_555 1_555
H97B C86B 1_555 1_555
C87B Si4B 1_555 1_555
H98B C87B 1_555 1_555
H99B C87B 1_555 1_555
C88B C87B 1_555 1_555
H100B C88B 1_555 1_555
H101B C88B 1_555 1_555
H102B C88B 1_555 1_555
C89B Si4B 1_555 1_555
H103B C89B 1_555 1_555
H104B C89B 1_555 1_555
C90B C89B 1_555 1_555
H105B C90B 1_555 1_555
H106B C90B 1_555 1_555
H107B C90B 1_555 1_555
C91B Si4B 1_555 1_555
H108B C91B 1_555 1_555
H109B C91B 1_555 1_555
C92B C91B 1_555 1_555
H110B C92B 1_555 1_555
H111B C92B 1_555 1_555
H112B C92B 1_555 1_555
C8 C9 1_555 1_555
C11 C16 1_555 1_555
C15 C16 1_555 1_555
C23 C24 1_555 1_555
C29 C30 1_555 1_555
C52 C53 1_555 1_555
C58 C59 1_555 1_555
C77 C78 1_555 1_555
C85 C86 1_555 1_555
C45B C47B 1_555 1_555
C48B C53B 1_555 1_555
C52B C53B 1_555 1_555
C58B C59B 1_555 1_555
C73B C78B 1_555 1_555
C77B C78B 1_555 1_555
C85B C86B 1_555 1_555

#END
