
#######################################################################
#
#                 Cambridge Crystallographic Data Centre
#                                CCDC 
#
#######################################################################
#
# If this CIF has been generated from an entry in the Cambridge 
# Structural Database, then it will include bibliographic, chemical, 
# crystal, experimental, refinement or atomic coordinate data resulting 
# from the CCDC's data processing and validation procedures.
#
#######################################################################

data_MALFIR
_chemical_formula_moiety         'C23 H22 Cl2 N5 O4 P1'
_chemical_name_systematic        
'diethyl (4-((1-(2,4-dichlorophenyl)-1H-pyrazolo[3,4-d]pyrimidin-4-yl)carbamoyl)benzyl)phosphonate'
_symmetry_cell_setting           monoclinic
_symmetry_space_group_name_H-M   'P 21/n'
_symmetry_Int_Tables_number      14
_space_group_name_Hall           '-P 2yn'
loop_
_symmetry_equiv_pos_site_id
_symmetry_equiv_pos_as_xyz
1 x,y,z
2 1/2-x,1/2+y,1/2-z
3 -x,-y,-z
4 1/2+x,1/2-y,1/2+z
_cell_length_a                   10.943(2)
_cell_length_b                   18.806(4)
_cell_length_c                   12.033(2)
_cell_angle_alpha                90
_cell_angle_beta                 95.58(3)
_cell_angle_gamma                90
_cell_volume                     2464.59
_exptl_crystal_colour            colorless
_exptl_crystal_description       prism
_cell_formula_units_Z            4
loop_
_atom_site_label
_atom_site_type_symbol
_atom_site_fract_x
_atom_site_fract_y
_atom_site_fract_z
P1 P 0.71690(6) 0.16639(3) 0.58890(6)
Cl1 Cl -0.58522(7) -0.08407(5) -0.29093(7)
Cl2 Cl -0.38415(7) 0.12588(4) -0.03418(7)
O1 O 0.09153(17) 0.15448(10) 0.28442(19)
O2 O 0.74038(17) 0.09137(9) 0.5687(2)
O3 O 0.81398(15) 0.20269(8) 0.67642(16)
O4 O 0.71766(15) 0.21642(10) 0.48501(17)
N1 N -0.11129(19) 0.07168(12) 0.0155(2)
N2 N -0.19021(18) 0.01759(11) 0.04109(18)
N3 N -0.22120(17) -0.05695(10) 0.19771(18)
N4 N -0.07970(18) -0.03253(11) 0.35904(18)
N5 N 0.07832(18) 0.04725(11) 0.3684(2)
C1 C -0.2846(2) -0.00662(14) -0.0393(2)
C2 C -0.2868(2) -0.07633(15) -0.0749(3)
H1 H -0.2256 -0.1073 -0.0458
C3 C -0.3777(3) -0.10115(16) -0.1524(3)
H2 H -0.3778 -0.1482 -0.1761
C4 C -0.4695(2) -0.05433(15) -0.1946(2)
C5 C -0.4701(2) 0.01502(14) -0.1589(2)
H3 H -0.5322 0.0457 -0.1869
C6 C -0.3786(2) 0.03898(13) -0.0813(2)
C7 C -0.16344(19) -0.00421(12) 0.1480(2)
C8 C -0.1743(2) -0.06647(13) 0.3016(2)
H4 H -0.2117 -0.1016 0.3409
C9 C -0.0232(2) 0.01888(12) 0.3056(2)
C10 C -0.06494(19) 0.03634(12) 0.1952(2)
C11 C -0.0384(2) 0.08207(14) 0.1059(2)
H5 H 0.0243 0.1157 0.1117
C12 C 0.1338(2) 0.11139(13) 0.3541(2)
C13 C 0.24651(19) 0.12661(12) 0.4292(2)
C14 C 0.3278(2) 0.07462(12) 0.4719(2)
H6 H 0.3118 0.0270 0.4554
C15 C 0.4332(2) 0.09348(12) 0.5392(2)
H7 H 0.4875 0.0581 0.5665
C16 C 0.4591(2) 0.16377(12) 0.5664(2)
C17 C 0.3754(2) 0.21543(13) 0.5244(2)
H8 H 0.3895 0.2629 0.5430
C18 C 0.2724(2) 0.19712(12) 0.4561(2)
H9 H 0.2191 0.2326 0.4273
C19 C 0.5727(2) 0.18437(13) 0.6410(2)
H10 H 0.5708 0.1597 0.7116
H11 H 0.5685 0.2349 0.6562
C20 C 0.8807(3) 0.16356(16) 0.7649(3)
H12 H 0.8953 0.1154 0.7406
H13 H 0.8337 0.1613 0.8291
C21 C 0.9986(3) 0.20000(19) 0.7951(3)
H14 H 1.0441 0.1748 0.8549
H15 H 0.9833 0.2477 0.8185
H16 H 1.0451 0.2012 0.7315
C22 C 0.8347(5) 0.2122(5) 0.4298(6)
H17 H 0.9004 0.2350 0.4768
H18 H 0.8568 0.1628 0.4204
C23 C 0.8195(6) 0.2471(4) 0.3219(6)
H19 H 0.8985 0.2605 0.3004
H20 H 0.7696 0.2887 0.3266
H21 H 0.7805 0.2150 0.2674
H22 H 0.098(3) 0.0237(16) 0.4321(16)
C24? C 0.7947(15) 0.2025(9) 0.3916(14)
H23? H 0.7464 0.1997 0.3197
H24? H 0.8448 0.1602 0.4038
C25? C 0.8690(14) 0.2696(8) 0.4046(18)
H25? H 0.9372 0.2664 0.3604
H26? H 0.8988 0.2758 0.4817
H27? H 0.8184 0.3094 0.3800
loop_
_geom_bond_atom_site_label_1
_geom_bond_atom_site_label_2
_geom_bond_site_symmetry_1
_geom_bond_site_symmetry_2
P1 O2 1_555 1_555
Cl1 C4 1_555 1_555
Cl2 C6 1_555 1_555
O1 C12 1_555 1_555
O3 P1 1_555 1_555
O4 P1 1_555 1_555
N1 N2 1_555 1_555
N2 C1 1_555 1_555
N3 C7 1_555 1_555
N4 C8 1_555 1_555
N5 C9 1_555 1_555
C1 C2 1_555 1_555
C2 H1 1_555 1_555
C3 C2 1_555 1_555
H2 C3 1_555 1_555
C4 C3 1_555 1_555
C5 C4 1_555 1_555
H3 C5 1_555 1_555
C6 C1 1_555 1_555
C7 N2 1_555 1_555
C8 N3 1_555 1_555
H4 C8 1_555 1_555
C9 N4 1_555 1_555
C10 C7 1_555 1_555
C11 N1 1_555 1_555
H5 C11 1_555 1_555
C12 N5 1_555 1_555
C13 C12 1_555 1_555
C14 C13 1_555 1_555
H6 C14 1_555 1_555
C15 C14 1_555 1_555
H7 C15 1_555 1_555
C16 C15 1_555 1_555
C17 C16 1_555 1_555
H8 C17 1_555 1_555
C18 C13 1_555 1_555
H9 C18 1_555 1_555
C19 P1 1_555 1_555
H10 C19 1_555 1_555
H11 C19 1_555 1_555
C20 O3 1_555 1_555
H12 C20 1_555 1_555
H13 C20 1_555 1_555
C21 C20 1_555 1_555
H14 C21 1_555 1_555
H15 C21 1_555 1_555
H16 C21 1_555 1_555
C22 O4 1_555 1_555
H17 C22 1_555 1_555
H18 C22 1_555 1_555
C23 C22 1_555 1_555
H19 C23 1_555 1_555
H20 C23 1_555 1_555
H21 C23 1_555 1_555
H22 N5 1_555 1_555
C5 C6 1_555 1_555
C9 C10 1_555 1_555
C10 C11 1_555 1_555
C16 C19 1_555 1_555
C17 C18 1_555 1_555

#END
