
#######################################################################
#
#                 Cambridge Crystallographic Data Centre
#                                CCDC 
#
#######################################################################
#
# If this CIF has been generated from an entry in the Cambridge 
# Structural Database, then it will include bibliographic, chemical, 
# crystal, experimental, refinement or atomic coordinate data resulting 
# from the CCDC's data processing and validation procedures.
#
#######################################################################

data_MALGUD
_chemical_formula_moiety         'C21 H6 Cl3 N9 O6,2(H2 O1)'
_chemical_name_systematic        
'7,19,28-Trichloro-4,10,16,22,25,31-hexaoxa-6,8,18,20,27,29,32,34,36-nonaaza-heptacyclo[11.11.7.1^3,23^.1^5,9^.1^11,15^.1^17,21^.1^26,30^]hexatriaconta-1,3(33),5(36),6,8,11(35),12,14,17(34),18,20,23,26(32),27,29-pentadecaene dihydrate'
_symmetry_cell_setting           rhombohedral
_symmetry_space_group_name_H-M   'R -3 c'
_symmetry_Int_Tables_number      167
_space_group_name_Hall           '-R 3 2"c'
loop_
_symmetry_equiv_pos_site_id
_symmetry_equiv_pos_as_xyz
1 x,y,z
2 -y,x-y,z
3 -x+y,-x,z
4 y,x,1/2-z
5 x-y,-y,1/2-z
6 -x,-x+y,1/2-z
7 2/3+x,1/3+y,1/3+z
8 2/3-y,1/3+x-y,1/3+z
9 2/3-x+y,1/3-x,1/3+z
10 2/3+y,1/3+x,5/6-z
11 2/3+x-y,1/3-y,5/6-z
12 2/3-x,1/3-x+y,5/6-z
13 1/3+x,2/3+y,2/3+z
14 1/3-y,2/3+x-y,2/3+z
15 1/3-x+y,2/3-x,2/3+z
16 1/3+y,2/3+x,1/6-z
17 1/3+x-y,2/3-y,1/6-z
18 1/3-x,2/3-x+y,1/6-z
19 -x,-y,-z
20 y,-x+y,-z
21 x-y,x,-z
22 -y,-x,1/2+z
23 -x+y,y,1/2+z
24 x,x-y,1/2+z
25 1/3-x,2/3-y,2/3-z
26 1/3+y,2/3-x+y,2/3-z
27 1/3+x-y,2/3+x,2/3-z
28 1/3-y,2/3-x,1/6+z
29 1/3-x+y,2/3+y,1/6+z
30 1/3+x,2/3+x-y,1/6+z
31 2/3-x,1/3-y,1/3-z
32 2/3+y,1/3-x+y,1/3-z
33 2/3+x-y,1/3+x,1/3-z
34 2/3-y,1/3-x,5/6+z
35 2/3-x+y,1/3+y,5/6+z
36 2/3+x,1/3+x-y,5/6+z
_cell_length_a                   11.3135(16)
_cell_length_b                   11.3135(16)
_cell_length_c                   36.700(7)
_cell_angle_alpha                90
_cell_angle_beta                 90
_cell_angle_gamma                120
_cell_volume                     4068.09
_exptl_crystal_colour            colorless
_exptl_crystal_description       block
_cell_formula_units_Z            6
loop_
_atom_site_label
_atom_site_type_symbol
_atom_site_fract_x
_atom_site_fract_y
_atom_site_fract_z
Cl1 Cl 0.04726(11) 0.3333 0.0833
O1 O 0.42430(18) 0.3379(2) 0.02087(5)
N1 N 0.2522(3) 0.3370(4) 0.05086(7)
N2 N 0.4315(2) 0.3333 0.0833
C1 C 0.2003(3) 0.3333 0.0833
C2 C 0.3685(3) 0.3361(3) 0.05315(7)
C3 C 0.5479(2) 0.3355(2) 0.02150(6)
C4 C 0.6689(2) 0.4579(2) 0.02133(6)
H1 H 0.6704 0.5409 0.0211
Cl1A Cl 0.6667 -0.28604(11) 0.0833
Cl1B Cl 1.28604(11) 0.95274(11) 0.0833
O1A O 0.6621(2) 0.08640(27) 0.02087(5)
O1B O 0.91360(27) 0.57570(18) 0.02087(5)
O1P O 0.41973(27) 0.3288(2) 0.14580(5)
O1O O 0.6712(2) 0.09097(18) 0.14580(5)
O1Q O 0.90903(18) 0.58027(27) 0.14580(5)
N1A N 0.6630(4) -0.0848(5) 0.05086(7)
N1B N 1.0848(5) 0.7478(3) 0.05086(7)
N1P N 0.2485(5) 0.3297(4) 0.11581(7)
N1O N 0.6703(4) -0.0811(3) 0.11581(7)
N1Q N 1.0811(3) 0.7515(5) 0.11581(7)
N2A N 0.6667 0.0982(2) 0.0833
N2B N 0.9018(2) 0.5685(2) 0.0833
C1A C 0.6667 -0.1330(3) 0.0833
C1B C 1.1330(3) 0.7997(3) 0.0833
C2A C 0.6639(3) 0.0324(4) 0.05315(7)
C2B C 0.9676(4) 0.6315(3) 0.05315(7)
C2P C 0.3657(4) 0.3306(3) 0.11352(7)
C2O C 0.6694(3) 0.0352(3) 0.11352(7)
C2Q C 0.9648(3) 0.6343(4) 0.11352(7)
C3A C 0.6645(2) 0.2124(3) 0.02150(6)
C3B C 0.7876(3) 0.4521(2) 0.02150(6)
C3P C 0.5457(3) 0.3312(2) 0.14517(6)
C3O C 0.6688(2) 0.2146(2) 0.14517(6)
C3Q C 0.7854(2) 0.4543(3) 0.14517(6)
C4A C 0.5421(2) 0.2110(3) 0.02133(6)
C4B C 0.7890(3) 0.3311(2) 0.02133(6)
C4P C 0.5443(3) 0.2088(2) 0.14534(6)
C4O C 0.7912(2) 0.3356(2) 0.14534(6)
C4Q C 0.6644(2) 0.4557(3) 0.14534(6)
H1A H 0.4591 0.1295 0.0211
H1B H 0.8705 0.3296 0.0211
H1P H 0.4628 0.1258 0.1456
H1O H 0.8742 0.3371 0.1456
H1Q H 0.6629 0.5372 0.1456
O2 O 0.0000 0.0000 0.0682(2)
loop_
_geom_bond_atom_site_label_1
_geom_bond_atom_site_label_2
_geom_bond_site_symmetry_1
_geom_bond_site_symmetry_2
Cl1 C1 1_555 1_555
O1 C2 1_555 1_555
N1 C1 1_555 1_555
N2 C2 1_555 1_555
C1 N1P 1_555 1_555
C2 N1 1_555 1_555
C3 O1 1_555 1_555
C4 C3 1_555 1_555
H1 C4 1_555 1_555
Cl1A C1A 1_555 1_555
Cl1B C1B 1_555 1_555
O1A C2A 1_555 1_555
O1B C2B 1_555 1_555
O1P C2P 1_555 1_555
O1O C2O 1_555 1_555
O1Q C2Q 1_555 1_555
N1A C1A 1_555 1_555
N1B C1B 1_555 1_555
N1P C2P 1_555 1_555
N1O C1A 1_555 1_555
N1Q C1B 1_555 1_555
N2A C2A 1_555 1_555
N2B C2B 1_555 1_555
C2A N1A 1_555 1_555
C2B N1B 1_555 1_555
C2P N2 1_555 1_555
C2O N1O 1_555 1_555
C2Q N1Q 1_555 1_555
C3A O1A 1_555 1_555
C3B C4 1_555 1_555
C3P O1P 1_555 1_555
C3O O1O 1_555 1_555
C3Q O1Q 1_555 1_555
C4A C3 1_555 1_555
C4B C3A 1_555 1_555
C4P C3P 1_555 1_555
C4O C3O 1_555 1_555
C4Q C3P 1_555 1_555
H1A C4A 1_555 1_555
H1B C4B 1_555 1_555
H1P C4P 1_555 1_555
H1O C4O 1_555 1_555
H1Q C4Q 1_555 1_555
O1B C3B 1_555 1_555
N2A C2O 1_555 1_555
N2B C2Q 1_555 1_555
C3A C4A 1_555 1_555
C3B C4B 1_555 1_555
C3O C4P 1_555 1_555
C3Q C4O 1_555 1_555
C3Q C4Q 1_555 1_555

#END
