
#######################################################################
#
#                 Cambridge Crystallographic Data Centre
#                                CCDC 
#
#######################################################################
#
# If this CIF has been generated from an entry in the Cambridge 
# Structural Database, then it will include bibliographic, chemical, 
# crystal, experimental, refinement or atomic coordinate data resulting 
# from the CCDC's data processing and validation procedures.
#
#######################################################################

data_MALHEO
_chemical_formula_moiety         
'C21 H6 Cl3 N9 O6,3(C8 H20 N1 1+),3(H2 O1),3(Cl1 1-)'
_chemical_name_systematic        
'tris(tetraethylammonium) trichloride 7,19,28-trichloro-4,10,16,22,25,31-hexaoxa-6,8,18,20,27,29,32,34,36-nonaaza-heptacyclo[11.11.7.1^3,23^.1^5,9^.1^11,15^.1^17,21^.1^26,30^]hexatriaconta-1,3(33),5(36),6,8,11(35),12,14,17(34),18,20,23,26(32),27,29-pentadecaene unknown solvate trihydrate'
_symmetry_cell_setting           rhombohedral
_symmetry_space_group_name_H-M   'R -3'
_symmetry_Int_Tables_number      148
_space_group_name_Hall           '-R 3'
loop_
_symmetry_equiv_pos_site_id
_symmetry_equiv_pos_as_xyz
1 x,y,z
2 -y,x-y,z
3 -x+y,-x,z
4 2/3+x,1/3+y,1/3+z
5 2/3-y,1/3+x-y,1/3+z
6 2/3-x+y,1/3-x,1/3+z
7 1/3+x,2/3+y,2/3+z
8 1/3-y,2/3+x-y,2/3+z
9 1/3-x+y,2/3-x,2/3+z
10 -x,-y,-z
11 y,-x+y,-z
12 x-y,x,-z
13 1/3-x,2/3-y,2/3-z
14 1/3+y,2/3-x+y,2/3-z
15 1/3+x-y,2/3+x,2/3-z
16 2/3-x,1/3-y,1/3-z
17 2/3+y,1/3-x+y,1/3-z
18 2/3+x-y,1/3+x,1/3-z
_cell_length_a                   20.5900(3)
_cell_length_b                   20.5900(3)
_cell_length_c                   24.9772(5)
_cell_angle_alpha                90
_cell_angle_beta                 90
_cell_angle_gamma                120
_cell_volume                     9170.37
_exptl_crystal_colour            colorless
_exptl_crystal_description       block
_cell_formula_units_Z            6
loop_
_atom_site_label
_atom_site_type_symbol
_atom_site_fract_x
_atom_site_fract_y
_atom_site_fract_z
Cl1 Cl 0.82508(4) 0.10040(4) 0.01345(3)
O1 O 0.74114(9) 0.25239(9) 0.10505(6)
O2 O 0.71944(9) 0.23313(9) -0.07741(6)
N1 N 0.77959(11) 0.18226(11) 0.06124(8)
N2 N 0.72640(10) 0.24498(10) 0.01407(7)
N3 N 0.76582(12) 0.17051(12) -0.03346(8)
C1 C 0.78521(13) 0.15741(13) 0.01399(10)
C2 C 0.74794(12) 0.22525(12) 0.05794(9)
C3 C 0.73717(12) 0.21625(12) -0.03003(9)
C4 C 0.70333(12) 0.29374(12) 0.10446(8)
C5 C 0.74535(12) 0.37103(12) 0.10461(8)
H3 H 0.7986 0.3966 0.1048
C6 C 0.69253(13) 0.28457(12) -0.07708(8)
C7 C 0.74419(12) 0.36013(12) -0.07725(8)
H4 H 0.7966 0.3783 -0.0775
Cl1A Cl 0.89960(4) 0.72468(6) 0.01345(3)
Cl1B Cl 0.27532(6) 0.17492(4) 0.01345(3)
O1A O 0.74761(9) 0.48875(13) 0.10505(6)
O1B O 0.51125(13) 0.25886(9) 0.10505(6)
O2A O 0.76687(9) 0.48631(13) -0.07741(6)
O2B O 0.51369(13) 0.28056(9) -0.07741(6)
N1A N 0.81774(11) 0.59733(16) 0.06124(8)
N1B N 0.40267(16) 0.22041(11) 0.06124(8)
N2A N 0.75502(10) 0.48142(14) 0.01407(7)
N2B N 0.51858(14) 0.27360(10) 0.01407(7)
N3A N 0.82949(12) 0.59531(17) -0.03346(8)
N3B N 0.40469(17) 0.23418(12) -0.03346(8)
C1A C 0.84259(13) 0.62780(18) 0.01399(10)
C1B C 0.37220(18) 0.21479(13) 0.01399(10)
C2A C 0.77475(12) 0.52269(17) 0.05794(9)
C2B C 0.47731(17) 0.25206(12) 0.05794(9)
C3A C 0.78375(12) 0.52092(17) -0.03003(9)
C3B C 0.47908(17) 0.26283(12) -0.03003(9)
C4A C 0.70626(12) 0.40959(17) 0.10446(8)
C4B C 0.59041(17) 0.29667(12) 0.10446(8)
C5A C 0.62897(12) 0.37432(17) 0.10461(8)
C5B C 0.62568(17) 0.25465(12) 0.10461(8)
H3A H 0.6034 0.4020 0.1048
H3B H 0.5980 0.2014 0.1048
C6A C 0.71543(12) 0.40796(18) -0.07708(8)
C6B C 0.59204(18) 0.30747(13) -0.07708(8)
C7A C 0.63987(12) 0.38406(17) -0.07725(8)
C7B C 0.61594(17) 0.25581(12) -0.07725(8)
H4A H 0.6217 0.4183 -0.0775
H4B H 0.5817 0.2034 -0.0775
Cl2 Cl 0.58360(4) 0.06876(3) 0.07752(3)
O3 O 0.53942(14) 0.09255(11) -0.03915(8)
H1 H 0.4996 0.0511 -0.0421
H2 H 0.5537 0.0872 -0.0088
N4 N 0.99403(11) 0.35133(11) 0.14173(8)
C8 C 0.95721(16) 0.33676(16) 0.19643(11)
H5 H 0.9121 0.2862 0.1964
H6 H 0.9924 0.3367 0.2234
C9 C 0.9343(2) 0.3932(2) 0.21327(15)
H7 H 0.9793 0.4424 0.2184
H8 H 0.9062 0.3770 0.2469
H9 H 0.9028 0.3968 0.1854
C10 C 1.02352(16) 0.29785(15) 0.13316(11)
H10 H 1.0594 0.3055 0.1622
H11 H 1.0515 0.3107 0.0990
C11 C 0.9637(2) 0.21547(17) 0.13181(13)
H12 H 0.9378 0.2010 0.1664
H13 H 0.9872 0.1851 0.1247
H14 H 0.9274 0.2072 0.1035
C12 C 0.93679(14) 0.34075(15) 0.09928(11)
H15 H 0.8901 0.2928 0.1063
H16 H 0.9249 0.3816 0.1030
C13 C 0.96063(17) 0.33999(17) 0.04228(11)
H17 H 1.0082 0.3860 0.0352
H18 H 0.9221 0.3371 0.0177
H19 H 0.9670 0.2964 0.0369
C14 C 1.05929(14) 0.43113(14) 0.13760(11)
H20 H 1.0833 0.4375 0.1022
H21 H 1.0393 0.4660 0.1392
C15 C 1.11879(17) 0.45337(18) 0.18051(12)
H22 H 1.0958 0.4472 0.2159
H23 H 1.1577 0.5059 0.1755
H24 H 1.1414 0.4214 0.1779
loop_
_geom_bond_atom_site_label_1
_geom_bond_atom_site_label_2
_geom_bond_site_symmetry_1
_geom_bond_site_symmetry_2
Cl1 C1 1_555 1_555
O1 C2 1_555 1_555
O2 C3 1_555 1_555
O3 H1 1_555 1_555
H2 O3 1_555 1_555
N1 C1 1_555 1_555
N2 C2 1_555 1_555
N3 C1 1_555 1_555
N4 C8 1_555 1_555
C2 N1 1_555 1_555
C3 N2 1_555 1_555
C4 O1 1_555 1_555
C5 C4 1_555 1_555
H3 C5 1_555 1_555
C6 O2 1_555 1_555
C7 C6 1_555 1_555
H4 C7 1_555 1_555
C8 H5 1_555 1_555
H6 C8 1_555 1_555
C9 C8 1_555 1_555
H7 C9 1_555 1_555
H8 C9 1_555 1_555
H9 C9 1_555 1_555
C10 N4 1_555 1_555
H10 C10 1_555 1_555
H11 C10 1_555 1_555
C11 C10 1_555 1_555
H12 C11 1_555 1_555
H13 C11 1_555 1_555
H14 C11 1_555 1_555
C12 N4 1_555 1_555
H15 C12 1_555 1_555
H16 C12 1_555 1_555
C13 C12 1_555 1_555
H17 C13 1_555 1_555
H18 C13 1_555 1_555
H19 C13 1_555 1_555
C14 N4 1_555 1_555
H20 C14 1_555 1_555
H21 C14 1_555 1_555
C15 C14 1_555 1_555
H22 C15 1_555 1_555
H23 C15 1_555 1_555
H24 C15 1_555 1_555
Cl1A C1A 1_555 1_555
Cl1B C1B 1_555 1_555
O1A C2A 1_555 1_555
O1B C2B 1_555 1_555
O2A C3A 1_555 1_555
O2B C3B 1_555 1_555
N1A C1A 1_555 1_555
N1B C1B 1_555 1_555
N2A C2A 1_555 1_555
N2B C2B 1_555 1_555
N3A C1A 1_555 1_555
N3B C1B 1_555 1_555
C2A N1A 1_555 1_555
C2B N1B 1_555 1_555
C3A N2A 1_555 1_555
C3B N2B 1_555 1_555
C4A C5 1_555 1_555
C4B O1B 1_555 1_555
C5A C4A 1_555 1_555
C5B C4 1_555 1_555
H3A C5A 1_555 1_555
H3B C5B 1_555 1_555
C6A C7 1_555 1_555
C6B O2B 1_555 1_555
C7A C6A 1_555 1_555
C7B C6 1_555 1_555
H4A C7A 1_555 1_555
H4B C7B 1_555 1_555
N3 C3 1_555 1_555
O1A C4A 1_555 1_555
O2A C6A 1_555 1_555
N3A C3A 1_555 1_555
N3B C3B 1_555 1_555
C4B C5A 1_555 1_555
C4B C5B 1_555 1_555
C6B C7A 1_555 1_555
C6B C7B 1_555 1_555

#END
