
#######################################################################
#
#                 Cambridge Crystallographic Data Centre
#                                CCDC 
#
#######################################################################
#
# If this CIF has been generated from an entry in the Cambridge 
# Structural Database, then it will include bibliographic, chemical, 
# crystal, experimental, refinement or atomic coordinate data resulting 
# from the CCDC's data processing and validation procedures.
#
#######################################################################

data_MALHAK
_chemical_formula_moiety         
'C21 H6 Cl3 N9 O6,2(C8 H20 N1 1+),H2 O1,2(Br1 1-)'
_chemical_name_systematic        
'bis(tetraethylammonium) dibromide 7,19,28-trichloro-4,10,16,22,25,31-hexaoxa-6,8,18,20,27,29,32,34,36-nonaaza-heptacyclo[11.11.7.1^3,23^.1^5,9^.1^11,15^.1^17,21^.1^26,30^]hexatriaconta-1,3(33),5(36),6,8,11(35),12,14,17(34),18,20,23,26(32),27,29-pentadecaene unknown solvate monohydrate'
_symmetry_cell_setting           monoclinic
_symmetry_space_group_name_H-M   'C 2/m'
_symmetry_Int_Tables_number      12
_space_group_name_Hall           '-C 2y'
loop_
_symmetry_equiv_pos_site_id
_symmetry_equiv_pos_as_xyz
1 x,y,z
2 -x,y,-z
3 1/2+x,1/2+y,z
4 1/2-x,1/2+y,-z
5 -x,-y,-z
6 x,-y,z
7 1/2-x,1/2-y,-z
8 1/2+x,1/2-y,z
_cell_length_a                   23.483(5)
_cell_length_b                   16.693(3)
_cell_length_c                   13.011(3)
_cell_angle_alpha                90
_cell_angle_beta                 117.10(3)
_cell_angle_gamma                90
_cell_volume                     4540.38
_exptl_crystal_colour            colorless
_exptl_crystal_description       block
_cell_formula_units_Z            4
loop_
_atom_site_label
_atom_site_type_symbol
_atom_site_fract_x
_atom_site_fract_y
_atom_site_fract_z
Br1 Br 0.45577(2) 0.5000 0.14906(5)
Br2 Br 0.10601(3) 0.5000 0.48482(5)
Cl1 Cl 0.05343(5) 0.0000 0.44710(9)
Cl2 Cl 0.59872(5) 0.0000 1.17241(10)
Cl3 Cl 0.22168(6) 0.0000 1.52419(11)
O1 O 0.18032(10) 0.13742(12) 0.80716(17)
O2 O 0.40110(9) 0.13758(12) 1.08577(18)
O3 O 0.23909(10) 0.13738(12) 1.21262(17)
N1 N 0.11993(12) 0.07111(15) 0.6431(2)
N2 N 0.18610(16) 0.0000 0.8147(3)
N3 N 0.39566(17) 0.0000 1.0833(3)
N4 N 0.49214(11) 0.07123(15) 1.1281(2)
N5 N 0.24384(17) 0.0000 1.2092(3)
N6 N 0.23034(12) 0.07157(15) 1.3558(2)
C1 C 0.22725(14) 0.13576(16) 0.9236(3)
C2 C 0.29041(14) 0.13702(16) 0.9465(3)
H1 H 0.3023 0.1384 0.8858
C3 C 0.33576(14) 0.13627(17) 1.0599(3)
C4 C 0.31994(15) 0.13571(16) 1.1497(3)
H2 H 0.3519 0.1355 1.2279
C5 C 0.25608(14) 0.13547(17) 1.1214(3)
C6 C 0.20828(14) 0.13504(17) 1.0093(3)
H3 H 0.1644 0.1343 0.9920
C7 C 0.1030(2) 0.0000 0.5940(4)
C8 C 0.16136(14) 0.06587(18) 0.7537(3)
C9 C 0.43007(14) 0.06613(18) 1.1000(3)
C10 C 0.51819(19) 0.0000 1.1395(3)
C11 C 0.23786(14) 0.06576(18) 1.2602(3)
C12 C 0.2281(2) 0.0000 1.3967(4)
O1E O 0.18032(10) -0.13742(12) 0.80716(17)
O2E O 0.40110(9) -0.13758(12) 1.08577(18)
O3E O 0.23909(10) -0.13738(12) 1.21262(17)
N1E N 0.11993(12) -0.07111(15) 0.6431(2)
N4E N 0.49214(11) -0.07123(15) 1.1281(2)
N6E N 0.23034(12) -0.07157(15) 1.3558(2)
C1E C 0.22725(14) -0.13576(16) 0.9236(3)
C2E C 0.29041(14) -0.13702(16) 0.9465(3)
H1E H 0.3023 -0.1384 0.8858
C3E C 0.33576(14) -0.13627(17) 1.0599(3)
C4E C 0.31994(15) -0.13571(16) 1.1497(3)
H2E H 0.3519 -0.1355 1.2279
C5E C 0.25608(14) -0.13547(17) 1.1214(3)
C6E C 0.20828(14) -0.13504(17) 1.0093(3)
H3E H 0.1644 -0.1343 0.9920
C8E C 0.16136(14) -0.06587(18) 0.7537(3)
C9E C 0.43007(14) -0.06613(18) 1.1000(3)
C11E C 0.23786(14) -0.06576(18) 1.2602(3)
N7 N 0.09082(11) 0.24264(15) 0.3401(2)
C13 C 0.14045(19) 0.2673(2) 0.5577(3)
H4 H 0.1642 0.2402 0.6320
H5 H 0.0998 0.2873 0.5515
H6 H 0.1658 0.3123 0.5524
C14 C 0.12754(16) 0.20913(19) 0.4610(3)
H7 H 0.1033 0.1632 0.4693
H8 H 0.1690 0.1883 0.4699
C15 C -0.01834(17) 0.2044(2) 0.3254(4)
H9 H -0.0603 0.2272 0.3073
H10 H 0.0011 0.1828 0.4040
H11 H -0.0234 0.1614 0.2706
C16 C 0.02445(15) 0.2694(2) 0.3164(3)
H12 H 0.0031 0.2924 0.2378
H13 H 0.0286 0.3126 0.3714
C17 C 0.12338(16) 0.31593(18) 0.3231(3)
H14 H 0.0977 0.3357 0.2433
H15 H 0.1235 0.3584 0.3763
C18 C 0.19126(15) 0.3031(2) 0.3428(3)
H16 H 0.2083 0.3534 0.3295
H17 H 0.1918 0.2621 0.2893
H18 H 0.2177 0.2853 0.4225
C19 C 0.08778(16) 0.1759(2) 0.2585(3)
H19 H 0.1319 0.1576 0.2799
H20 H 0.0642 0.1301 0.2692
C20 C 0.0560(2) 0.1990(3) 0.1325(3)
H21 H 0.0558 0.1529 0.0857
H22 H 0.0797 0.2432 0.1202
H23 H 0.0119 0.2160 0.1097
O4 O 0.09948(16) 0.0000 1.1415(3)
H24 H 0.0604 0.0000 1.1245
H25 H 0.0963 0.0000 1.0746
loop_
_geom_bond_atom_site_label_1
_geom_bond_atom_site_label_2
_geom_bond_site_symmetry_1
_geom_bond_site_symmetry_2
Cl1 C7 1_555 1_555
Cl2 C10 1_555 1_555
Cl3 C12 1_555 1_555
O1 C1 1_555 1_555
O2 C3 1_555 1_555
O3 C5 1_555 1_555
N1 C7 1_555 1_555
N2 C8 1_555 1_555
N3 C9 1_555 1_555
N4 C9 1_555 1_555
N5 C11 1_555 1_555
N6 C11 1_555 1_555
N7 C14 1_555 1_555
C1 C2 1_555 1_555
C2 H1 1_555 1_555
C3 C2 1_555 1_555
C4 C3 1_555 1_555
H2 C4 1_555 1_555
C5 C4 1_555 1_555
C6 C1 1_555 1_555
H3 C6 1_555 1_555
C7 N1E 1_555 1_555
C8 O1 1_555 1_555
C9 O2 1_555 1_555
C10 N4 1_555 1_555
C11 O3 1_555 1_555
C12 N6 1_555 1_555
C13 H4 1_555 1_555
H5 C13 1_555 1_555
H6 C13 1_555 1_555
C14 C13 1_555 1_555
H7 C14 1_555 1_555
H8 C14 1_555 1_555
C15 H9 1_555 1_555
H10 C15 1_555 1_555
H11 C15 1_555 1_555
C16 N7 1_555 1_555
H12 C16 1_555 1_555
H13 C16 1_555 1_555
C17 N7 1_555 1_555
H14 C17 1_555 1_555
H15 C17 1_555 1_555
C18 C17 1_555 1_555
H16 C18 1_555 1_555
H17 C18 1_555 1_555
H18 C18 1_555 1_555
C19 N7 1_555 1_555
H19 C19 1_555 1_555
H20 C19 1_555 1_555
C20 C19 1_555 1_555
H21 C20 1_555 1_555
H22 C20 1_555 1_555
H23 C20 1_555 1_555
O4 H24 1_555 1_555
H25 O4 1_555 1_555
O1E C1E 1_555 1_555
O2E C3E 1_555 1_555
O3E C5E 1_555 1_555
N1E C8E 1_555 1_555
N4E C10 1_555 1_555
N6E C12 1_555 1_555
C1E C2E 1_555 1_555
C2E H1E 1_555 1_555
C3E C2E 1_555 1_555
C4E C3E 1_555 1_555
H2E C4E 1_555 1_555
C5E C4E 1_555 1_555
C6E C1E 1_555 1_555
H3E C6E 1_555 1_555
C8E N2 1_555 1_555
C9E N3 1_555 1_555
C11E N5 1_555 1_555
N1 C8 1_555 1_555
C5 C6 1_555 1_555
C15 C16 1_555 1_555
O1E C8E 1_555 1_555
O2E C9E 1_555 1_555
O3E C11E 1_555 1_555
N4E C9E 1_555 1_555
N6E C11E 1_555 1_555
C5E C6E 1_555 1_555

#END
