
#######################################################################
#
#                 Cambridge Crystallographic Data Centre
#                                CCDC 
#
#######################################################################
#
# If this CIF has been generated from an entry in the Cambridge 
# Structural Database, then it will include bibliographic, chemical, 
# crystal, experimental, refinement or atomic coordinate data resulting 
# from the CCDC's data processing and validation procedures.
#
#######################################################################

data_MALPAT
_chemical_formula_moiety         'C30 H25 B1 F2 N2'
_chemical_name_systematic        
5,5-difluoro-10-mesityl-3,7-diphenyl-5H-4\l^5^,5\l^5^-dipyrrolo[1,2-c:2',1'-f][1,3,2]diazaborinine
_symmetry_cell_setting           triclinic
_symmetry_space_group_name_H-M   'P -1'
_symmetry_Int_Tables_number      2
_space_group_name_Hall           '-P 1'
loop_
_symmetry_equiv_pos_site_id
_symmetry_equiv_pos_as_xyz
1 x,y,z
2 -x,-y,-z
_cell_length_a                   13.1430(18)
_cell_length_b                   13.3965(19)
_cell_length_c                   15.473(2)
_cell_angle_alpha                67.831(2)
_cell_angle_beta                 78.640(2)
_cell_angle_gamma                87.648(2)
_cell_volume                     2471.85
_exptl_crystal_colour            colorless
_exptl_crystal_description       block
_cell_formula_units_Z            4
loop_
_atom_site_label
_atom_site_type_symbol
_atom_site_fract_x
_atom_site_fract_y
_atom_site_fract_z
C1 C 0.3948(3) 0.2572(3) 0.6681(2)
C2 C 0.4609(3) 0.3371(3) 0.5964(2)
H1 H 0.4691 0.3427 0.5336
C3 C 0.5147(4) 0.4086(4) 0.6184(3)
H2 H 0.5589 0.4621 0.5704
C4 C 0.5024(4) 0.4003(4) 0.7122(4)
H3 H 0.5384 0.4481 0.7269
C5 C 0.4363(4) 0.3204(5) 0.7840(3)
H4 H 0.4281 0.3148 0.8467
C6 C 0.3825(4) 0.2488(4) 0.7619(2)
H5 H 0.3383 0.1954 0.8100
B1 B 0.3018(5) 0.2806(4) 0.4831(4)
C7 C 0.3465(3) 0.1755(4) 0.6524(3)
C8 C 0.3332(3) 0.0670(5) 0.7169(3)
H6 H 0.3459 0.0409 0.7786
C9 C 0.2991(3) 0.0078(4) 0.6740(4)
H7 H 0.2851 -0.0663 0.7007
C10 C 0.2885(3) 0.0761(3) 0.5830(3)
C11 C 0.2544(3) 0.0522(3) 0.5154(3)
C12 C 0.2402(3) 0.1346(3) 0.4309(3)
C13 C 0.2125(3) 0.1309(3) 0.3505(3)
H8 H 0.2002 0.0686 0.3404
C14 C 0.2061(3) 0.2338(3) 0.2888(3)
H9 H 0.1883 0.2543 0.2293
C15 C 0.2309(3) 0.3029(3) 0.3304(3)
C16 C 0.2296(3) -0.0624(3) 0.5326(3)
C17 C 0.3060(3) -0.1259(3) 0.5042(4)
C18 C 0.2780(5) -0.2313(4) 0.5188(4)
H10 H 0.3283 -0.2744 0.5009
C19 C 0.1786(5) -0.2736(4) 0.5585(5)
C20 C 0.1073(5) -0.2103(4) 0.5888(5)
H11 H 0.0403 -0.2386 0.6181
C21 C 0.1310(4) -0.1069(4) 0.5776(4)
C22 C 0.4155(3) -0.0822(4) 0.4613(4)
H12 H 0.4147 -0.0097 0.4162
H13 H 0.4518 -0.1264 0.4297
H14 H 0.4499 -0.0825 0.5107
C23 C 0.1498(7) -0.3897(5) 0.5723(6)
H15 H 0.0782 -0.3942 0.5685
H16 H 0.1605 -0.4385 0.6335
H17 H 0.1928 -0.4088 0.5234
C24 C 0.0491(4) -0.0428(4) 0.6144(5)
H18 H 0.0580 -0.0468 0.6757
H19 H -0.0185 -0.0718 0.6199
H20 H 0.0556 0.0312 0.5710
C25 C 0.2319(3) 0.4207(3) 0.2879(3)
C26 C 0.2727(3) 0.4712(3) 0.1899(3)
H21 H 0.3019 0.4302 0.1551
C27 C 0.2692(3) 0.5814(4) 0.1458(4)
H22 H 0.2960 0.6142 0.0809
C28 C 0.2273(4) 0.6433(4) 0.1950(4)
H23 H 0.2264 0.7178 0.1643
C29 C 0.1869(4) 0.5954(4) 0.2890(4)
H24 H 0.1578 0.6375 0.3229
C30 C 0.1883(3) 0.4839(3) 0.3359(3)
H25 H 0.1593 0.4523 0.4003
F1 F 0.2367(4) 0.3464(2) 0.5165(2)
F2 F 0.3940(3) 0.3316(3) 0.4314(2)
N1 N 0.3172(2) 0.1808(3) 0.5705(2)
N2 N 0.2519(2) 0.2432(2) 0.4177(2)
B2 B 0.2235(3) 0.1664(3) 0.0622(3)
C31 C 0.2401(3) -0.0216(3) 0.2000(3)
C32 C 0.3201(3) -0.0730(3) 0.2464(3)
H26 H 0.3159 -0.1425 0.2924
C33 C 0.4050(3) -0.0044(3) 0.2131(3)
H27 H 0.4686 -0.0186 0.2321
C34 C 0.3792(2) 0.0905(3) 0.1455(3)
C35 C 0.4368(2) 0.1872(3) 0.0955(3)
C36 C 0.3922(3) 0.2776(3) 0.0381(3)
C37 C 0.4310(3) 0.3841(3) -0.0091(3)
H28 H 0.4966 0.4095 -0.0112
C38 C 0.3560(3) 0.4432(3) -0.0509(3)
H29 H 0.3605 0.5172 -0.0857
C39 C 0.2696(3) 0.3743(3) -0.0332(3)
C40 C 0.1361(3) -0.0694(3) 0.2167(3)
C41 C 0.0794(3) -0.0534(3) 0.1460(4)
H30 H 0.1059 -0.0077 0.0838
C42 C -0.0165(4) -0.1054(4) 0.1682(5)
H31 H -0.0538 -0.0942 0.1203
C43 C -0.0576(4) -0.1728(4) 0.2589(6)
H32 H -0.1225 -0.2065 0.2726
C44 C -0.0025(4) -0.1908(4) 0.3303(5)
H33 H -0.0301 -0.2370 0.3921
C45 C 0.0944(3) -0.1399(3) 0.3100(4)
H34 H 0.1316 -0.1525 0.3581
C46 C 0.5485(3) 0.1939(3) 0.1017(3)
C47 C 0.5783(3) 0.2343(3) 0.1627(3)
C48 C 0.6846(3) 0.2403(3) 0.1626(3)
H35 H 0.7058 0.2709 0.2013
C49 C 0.7587(3) 0.2024(3) 0.1073(3)
C50 C 0.7262(3) 0.1606(3) 0.0492(3)
H36 H 0.7754 0.1341 0.0119
C51 C 0.6227(3) 0.1560(3) 0.0434(3)
C52 C 0.5020(3) 0.2711(4) 0.2291(3)
H37 H 0.4665 0.3319 0.1930
H38 H 0.5381 0.2915 0.2685
H39 H 0.4525 0.2135 0.2685
C53 C 0.8722(3) 0.2036(4) 0.1137(4)
H40 H 0.8991 0.1334 0.1230
H41 H 0.8788 0.2226 0.1663
H42 H 0.9106 0.2556 0.0558
C54 C 0.5942(4) 0.1132(4) -0.0256(4)
H43 H 0.6538 0.1185 -0.0745
H44 H 0.5396 0.1547 -0.0538
H45 H 0.5708 0.0391 0.0073
C55 C 0.1753(3) 0.4070(3) -0.0733(3)
C56 C 0.1359(4) 0.5059(4) -0.0802(4)
H46 H 0.1668 0.5479 -0.0558
C57 C 0.0519(4) 0.5442(5) -0.1224(6)
H47 H 0.0264 0.6112 -0.1264
C58 C 0.0057(4) 0.4816(5) -0.1588(5)
H48 H -0.0508 0.5065 -0.1881
C59 C 0.0435(4) 0.3846(4) -0.1514(4)
H49 H 0.0123 0.3423 -0.1754
C60 C 0.1269(4) 0.3471(4) -0.1093(3)
H50 H 0.1513 0.2796 -0.1050
F3 F 0.22454(18) 0.13130(18) -0.01212(17)
F4 F 0.12525(15) 0.18278(17) 0.10155(17)
N3 N 0.2766(2) 0.0793(2) 0.1374(2)
N4 N 0.2915(2) 0.2731(2) 0.0227(2)
loop_
_geom_bond_atom_site_label_1
_geom_bond_atom_site_label_2
_geom_bond_site_symmetry_1
_geom_bond_site_symmetry_2
C1 C2 1_555 1_555
C2 H1 1_555 1_555
C3 C2 1_555 1_555
H2 C3 1_555 1_555
C4 C3 1_555 1_555
H3 C4 1_555 1_555
C5 C4 1_555 1_555
H4 C5 1_555 1_555
C6 C1 1_555 1_555
H5 C6 1_555 1_555
B1 F1 1_555 1_555
C7 C1 1_555 1_555
C8 C7 1_555 1_555
H6 C8 1_555 1_555
C9 C8 1_555 1_555
H7 C9 1_555 1_555
C10 C9 1_555 1_555
C11 C10 1_555 1_555
C12 C11 1_555 1_555
C13 C12 1_555 1_555
H8 C13 1_555 1_555
C14 C13 1_555 1_555
H9 C14 1_555 1_555
C15 C14 1_555 1_555
C16 C11 1_555 1_555
C17 C16 1_555 1_555
C18 C17 1_555 1_555
H10 C18 1_555 1_555
C19 C18 1_555 1_555
C20 C19 1_555 1_555
H11 C20 1_555 1_555
C21 C16 1_555 1_555
C22 C17 1_555 1_555
H12 C22 1_555 1_555
H13 C22 1_555 1_555
H14 C22 1_555 1_555
C23 C19 1_555 1_555
H15 C23 1_555 1_555
H16 C23 1_555 1_555
H17 C23 1_555 1_555
C24 C21 1_555 1_555
H18 C24 1_555 1_555
H19 C24 1_555 1_555
H20 C24 1_555 1_555
C25 C15 1_555 1_555
C26 C25 1_555 1_555
H21 C26 1_555 1_555
C27 C26 1_555 1_555
H22 C27 1_555 1_555
C28 C27 1_555 1_555
H23 C28 1_555 1_555
C29 C28 1_555 1_555
H24 C29 1_555 1_555
C30 C25 1_555 1_555
H25 C30 1_555 1_555
F2 B1 1_555 1_555
N1 B1 1_555 1_555
N2 B1 1_555 1_555
B2 F3 1_555 1_555
C31 C32 1_555 1_555
C32 H26 1_555 1_555
C33 C32 1_555 1_555
H27 C33 1_555 1_555
C34 C33 1_555 1_555
C35 C34 1_555 1_555
C36 C35 1_555 1_555
C37 C36 1_555 1_555
H28 C37 1_555 1_555
C38 C37 1_555 1_555
H29 C38 1_555 1_555
C39 C38 1_555 1_555
C40 C31 1_555 1_555
C41 C40 1_555 1_555
H30 C41 1_555 1_555
C42 C41 1_555 1_555
H31 C42 1_555 1_555
C43 C42 1_555 1_555
H32 C43 1_555 1_555
C44 C43 1_555 1_555
H33 C44 1_555 1_555
C45 C40 1_555 1_555
H34 C45 1_555 1_555
C46 C35 1_555 1_555
C47 C46 1_555 1_555
C48 C47 1_555 1_555
H35 C48 1_555 1_555
C49 C48 1_555 1_555
C50 C49 1_555 1_555
H36 C50 1_555 1_555
C51 C46 1_555 1_555
C52 C47 1_555 1_555
H37 C52 1_555 1_555
H38 C52 1_555 1_555
H39 C52 1_555 1_555
C53 C49 1_555 1_555
H40 C53 1_555 1_555
H41 C53 1_555 1_555
H42 C53 1_555 1_555
C54 C51 1_555 1_555
H43 C54 1_555 1_555
H44 C54 1_555 1_555
H45 C54 1_555 1_555
C55 C39 1_555 1_555
C56 C55 1_555 1_555
H46 C56 1_555 1_555
C57 C56 1_555 1_555
H47 C57 1_555 1_555
C58 C57 1_555 1_555
H48 C58 1_555 1_555
C59 C58 1_555 1_555
H49 C59 1_555 1_555
C60 C55 1_555 1_555
H50 C60 1_555 1_555
F4 B2 1_555 1_555
N3 B2 1_555 1_555
N4 B2 1_555 1_555
C5 C6 1_555 1_555
C7 N1 1_555 1_555
C10 N1 1_555 1_555
C12 N2 1_555 1_555
C15 N2 1_555 1_555
C20 C21 1_555 1_555
C29 C30 1_555 1_555
C31 N3 1_555 1_555
C34 N3 1_555 1_555
C36 N4 1_555 1_555
C39 N4 1_555 1_555
C44 C45 1_555 1_555
C50 C51 1_555 1_555
C59 C60 1_555 1_555

#END
