
#######################################################################
#
#                 Cambridge Crystallographic Data Centre
#                                CCDC 
#
#######################################################################
#
# If this CIF has been generated from an entry in the Cambridge 
# Structural Database, then it will include bibliographic, chemical, 
# crystal, experimental, refinement or atomic coordinate data resulting 
# from the CCDC's data processing and validation procedures.
#
#######################################################################

data_MALQIA
_chemical_formula_moiety         'C20 H13 N1 O5,H2 O1'
_chemical_name_systematic        
"N-(3-(4'-Oxidocoumarin-3'-yl)hydroquinon-2-yl)pyridinium monohydrate"
_symmetry_cell_setting           monoclinic
_symmetry_space_group_name_H-M   'P 21/c'
_symmetry_Int_Tables_number      14
_space_group_name_Hall           '-P 2ybc'
loop_
_symmetry_equiv_pos_site_id
_symmetry_equiv_pos_as_xyz
1 x,y,z
2 -x,1/2+y,1/2-z
3 -x,-y,-z
4 x,1/2-y,1/2+z
_cell_length_a                   7.1420(10)
_cell_length_b                   16.314(2)
_cell_length_c                   16.054(2)
_cell_angle_alpha                90
_cell_angle_beta                 111.453(3)
_cell_angle_gamma                90
_cell_volume                     1740.93
_exptl_crystal_colour            yellow
_cell_formula_units_Z            4
loop_
_atom_site_label
_atom_site_type_symbol
_atom_site_fract_x
_atom_site_fract_y
_atom_site_fract_z
C1 C 0.4329(3) 0.1987(1) 0.3978(2)
C2 C 0.6264(4) 0.1961(2) 0.4580(2)
C3 C 0.6709(4) 0.1539(2) 0.5364(2)
C4 C 0.5211(4) 0.1143(2) 0.5538(2)
C5 C 0.3278(3) 0.1197(1) 0.4934(1)
C6 C 0.0803(3) 0.1656(1) 0.3530(1)
C7 C -0.0077(3) 0.0927(1) 0.3134(1)
C8 C -0.2026(3) 0.0966(1) 0.2514(2)
C9 C -0.3020(3) 0.1702(1) 0.2309(2)
C10 C -0.2132(3) 0.2423(1) 0.2726(1)
C11 C -0.0171(3) 0.2413(1) 0.3356(1)
C12 C 0.0746(3) 0.3168(1) 0.3861(1)
C13 C 0.1153(3) 0.3202(1) 0.4789(1)
C14 C 0.1886(3) 0.4000(1) 0.5223(1)
C15 C 0.2241(3) 0.4156(2) 0.6122(2)
C16 C 0.2935(3) 0.4915(2) 0.6485(2)
C17 C 0.3271(3) 0.5532(2) 0.5961(2)
C18 C 0.2880(3) 0.5403(2) 0.5081(2)
C19 C 0.2163(3) 0.4641(1) 0.4709(2)
C20 C 0.1006(3) 0.3844(1) 0.3382(1)
N1 N 0.2871(2) 0.1612(1) 0.4167(1)
O1 O 0.1011(2) 0.0223(1) 0.3361(1)
O2 O -0.3155(2) 0.3145(1) 0.2567(1)
O3 O 0.0885(2) 0.2604(1) 0.5225(1)
O4 O 0.1761(2) 0.4558(1) 0.3817(1)
O5 O 0.0658(2) 0.3883(1) 0.2561(1)
H1 H 0.4030 0.2266 0.3439
H2 H 0.7279 0.2230 0.4456
H3 H 0.8023 0.1523 0.5775
H4 H 0.5499 0.0841 0.6062
H5 H 0.2240 0.0943 0.5056
H6 H -0.2665 0.0489 0.2234
H7 H -0.4317 0.1718 0.1882
H8 H 0.2011 0.3748 0.6478
H9 H 0.3179 0.5013 0.7086
H10 H 0.3767 0.6036 0.6216
H11 H 0.3088 0.5819 0.4728
H12 H 0.0380 -0.0152 0.3040
H13 H -0.4361 0.3055 0.2312
O6 O 0.2899(3) 0.2909(1) 0.1908(1)
H14 H 0.2270(40) 0.2752(16) 0.1350(20)
H15 H 0.2240(50) 0.3229(19) 0.2110(20)
loop_
_geom_bond_atom_site_label_1
_geom_bond_atom_site_label_2
_geom_bond_site_symmetry_1
_geom_bond_site_symmetry_2
C1 C2 1_555 1_555
C2 C3 1_555 1_555
C3 C4 1_555 1_555
C4 C5 1_555 1_555
C5 N1 1_555 1_555
C6 C7 1_555 1_555
C7 C8 1_555 1_555
C8 C9 1_555 1_555
C9 C10 1_555 1_555
C10 C11 1_555 1_555
C11 C6 1_555 1_555
C12 C11 1_555 1_555
C13 C12 1_555 1_555
C14 C13 1_555 1_555
C15 C14 1_555 1_555
C16 C15 1_555 1_555
C17 C16 1_555 1_555
C18 C17 1_555 1_555
C19 C14 1_555 1_555
C20 C12 1_555 1_555
N1 C1 1_555 1_555
O1 C7 1_555 1_555
O2 C10 1_555 1_555
O3 C13 1_555 1_555
O4 C19 1_555 1_555
O5 C20 1_555 1_555
O6 H14 1_555 1_555
H1 C1 1_555 1_555
H2 C2 1_555 1_555
H3 C3 1_555 1_555
H4 C4 1_555 1_555
H5 C5 1_555 1_555
H6 C8 1_555 1_555
H7 C9 1_555 1_555
H8 C15 1_555 1_555
H9 C16 1_555 1_555
H10 C17 1_555 1_555
H11 C18 1_555 1_555
H12 O1 1_555 1_555
H13 O2 1_555 1_555
H15 O6 1_555 1_555
C6 N1 1_555 1_555
C18 C19 1_555 1_555
C20 O4 1_555 1_555

#END
