
#######################################################################
#
#                 Cambridge Crystallographic Data Centre
#                                CCDC 
#
#######################################################################
#
# If this CIF has been generated from an entry in the Cambridge 
# Structural Database, then it will include bibliographic, chemical, 
# crystal, experimental, refinement or atomic coordinate data resulting 
# from the CCDC's data processing and validation procedures.
#
#######################################################################

data_MAMBZA02
_chemical_formula_moiety         'C7 H8 N1 O2 1+,Cl1 1-'
_chemical_name_systematic        '3-carboxyanilinium chloride'
_symmetry_cell_setting           triclinic
_symmetry_space_group_name_H-M   'P -1'
_symmetry_Int_Tables_number      2
_space_group_name_Hall           '-P 1'
loop_
_symmetry_equiv_pos_site_id
_symmetry_equiv_pos_as_xyz
1 x,y,z
2 -x,-y,-z
_cell_length_a                   4.5677(9)
_cell_length_b                   5.8533(12)
_cell_length_c                   14.734(3)
_cell_angle_alpha                98.72(3)
_cell_angle_beta                 91.12(3)
_cell_angle_gamma                96.16(3)
_cell_volume                     386.871
_exptl_crystal_colour            colorless
_exptl_crystal_description       Prism
_cell_formula_units_Z            2
loop_
_atom_site_label
_atom_site_type_symbol
_atom_site_fract_x
_atom_site_fract_y
_atom_site_fract_z
O1 O 0.7837(3) -0.2748(3) 0.01543(9)
O2 O 1.1234(3) -0.3681(2) 0.10933(9)
H1 H 1.1387 -0.4689 0.0650
N1 N 1.0906(3) 0.1936(3) 0.40688(9)
H2 H 1.1938 0.0750 0.4116
H3 H 0.9535 0.1994 0.4490
H4 H 1.2107 0.3258 0.4158
C1 C 0.9485(4) 0.1614(3) 0.31493(11)
C2 C 0.7680(4) 0.3250(3) 0.29557(12)
H5 H 0.7374 0.4502 0.3400
C3 C 1.0016(4) -0.0246(3) 0.25027(11)
H6 H 1.1235 -0.1326 0.2646
C4 C 0.6833(4) 0.1138(3) 0.14261(12)
H7 H 0.5930 0.0972 0.0845
C5 C 0.8679(4) -0.0470(3) 0.16290(11)
C6 C 0.9282(4) -0.2425(3) 0.09118(11)
C7 C 0.6341(4) 0.2985(3) 0.20878(13)
H8 H 0.5103 0.4057 0.1950
Cl1 Cl 0.35581(10) 0.72479(7) 0.43308(3)
loop_
_geom_bond_atom_site_label_1
_geom_bond_atom_site_label_2
_geom_bond_site_symmetry_1
_geom_bond_site_symmetry_2
O1 C6 1_555 1_555
O2 H1 1_555 1_555
N1 H2 1_555 1_555
H3 N1 1_555 1_555
H4 N1 1_555 1_555
C1 N1 1_555 1_555
C2 C1 1_555 1_555
H5 C2 1_555 1_555
C3 C1 1_555 1_555
H6 C3 1_555 1_555
C4 H7 1_555 1_555
C5 C3 1_555 1_555
C6 O2 1_555 1_555
C7 C2 1_555 1_555
H8 C7 1_555 1_555
C4 C5 1_555 1_555
C4 C7 1_555 1_555
C5 C6 1_555 1_555

#END
