
#######################################################################
#
#                 Cambridge Crystallographic Data Centre
#                                CCDC 
#
#######################################################################
#
# If this CIF has been generated from an entry in the Cambridge 
# Structural Database, then it will include bibliographic, chemical, 
# crystal, experimental, refinement or atomic coordinate data resulting 
# from the CCDC's data processing and validation procedures.
#
#######################################################################

data_MAMFOV
_chemical_formula_moiety         'C36 H32 N4 O6'
_chemical_name_systematic        
3,11-Dibenzoyl-6,13-dimethyl-7,14-dioxo-2,10-diphenyl-1,9-dioxa-2,6,10,13-tetra-azadispiro(4.2.4.2)tetradecane
_symmetry_cell_setting           triclinic
_symmetry_space_group_name_H-M   'P -1'
_symmetry_Int_Tables_number      2
_space_group_name_Hall           '-P 1'
loop_
_symmetry_equiv_pos_site_id
_symmetry_equiv_pos_as_xyz
1 x,y,z
2 -x,-y,-z
_cell_length_a                   8.932(2)
_cell_length_b                   9.670(3)
_cell_length_c                   10.105(2)
_cell_angle_alpha                100.95(2)
_cell_angle_beta                 105.61(2)
_cell_angle_gamma                106.37(2)
_cell_volume                     772.442
_exptl_crystal_colour            colorless
_exptl_crystal_description       prism
_chemical_melting_point          205-206deg.C
_cell_formula_units_Z            1
_exptl_crystal_recrystallization_method '95% ethanol'
loop_
_atom_site_label
_atom_site_type_symbol
_atom_site_fract_x
_atom_site_fract_y
_atom_site_fract_z
C1 C 0.4904(3) 0.3530(2) 0.4323(2)
N1 N 0.5074(2) 0.4567(2) 0.3607(2)
C2 C 0.5025(2) 0.3969(2) 0.5888(2)
O1 O 0.6640(2) 0.3985(2) 0.6653(2)
N2 N 0.6428(2) 0.3022(2) 0.7607(2)
C3 C 0.4812(2) 0.1831(2) 0.6825(2)
H1 H 0.4881(2) 0.1065(2) 0.6077(2)
C4 C 0.3775(3) 0.2710(2) 0.6177(3)
H2 H 0.2885(3) 0.2073(2) 0.5294(3)
H3 H 0.3300(3) 0.3124(2) 0.6844(3)
C5 C 0.4900(5) 0.4036(3) 0.2088(3)
H4 H 0.5044(5) 0.4869(3) 0.1689(3)
H5 H 0.3814(5) 0.3293(3) 0.1568(3)
H6 H 0.5727(5) 0.3599(3) 0.2017(3)
O2 O 0.4733(3) 0.2227(2) 0.3787(2)
C6 C 0.7853(2) 0.2603(2) 0.7949(2)
C7 C 0.7743(3) 0.1137(2) 0.7931(2)
H7 H 0.6711(3) 0.0373(2) 0.7609(2)
C8 C 0.9180(3) 0.0823(3) 0.8395(3)
H8 H 0.9105(3) -0.0156(3) 0.8397(3)
C9 C 1.0715(3) 0.1928(3) 0.8853(3)
H9 H 1.1673(3) 0.1701(3) 0.9156(3)
C10 C 1.0821(3) 0.3377(3) 0.8857(3)
H10 H 1.1858(3) 0.4132(3) 0.9166(3)
C11 C 0.9408(3) 0.3718(2) 0.8410(2)
H11 H 0.9495(3) 0.4701(2) 0.8416(2)
C12 C 0.4144(2) 0.1140(2) 0.7885(2)
O3 O 0.4669(2) 0.1842(2) 0.9140(2)
C13 C 0.2816(2) -0.0367(2) 0.7335(2)
C14 C 0.2384(3) -0.1050(3) 0.8332(3)
H12 H 0.2953(3) -0.0576(3) 0.9306(3)
C15 C 0.1125(4) -0.2417(3) 0.7897(3)
H13 H 0.0841(4) -0.2862(3) 0.8577(3)
C16 C 0.0284(4) -0.3132(3) 0.6463(4)
H14 H -0.0574(4) -0.4056(3) 0.6173(4)
C17 C 0.0704(3) -0.2487(3) 0.5457(3)
H15 H 0.0138(3) -0.2977(3) 0.4485(3)
C18 C 0.1974(3) -0.1103(2) 0.5887(2)
H16 H 0.2261(3) -0.0668(2) 0.5204(2)
C2A C 0.4975(2) 0.6031(2) 0.4112(2)
C1A C 0.5096(3) 0.6470(2) 0.5677(2)
N1A N 0.4926(2) 0.5433(2) 0.6393(2)
C5A C 0.5100(5) 0.5964(3) 0.7912(3)
H4A H 0.4956(5) 0.5131(3) 0.8311(3)
H5A H 0.6186(5) 0.6707(3) 0.8432(3)
H6A H 0.4273(5) 0.6401(3) 0.7983(3)
O2A O 0.5267(3) 0.7773(2) 0.6213(2)
O1A O 0.3360(2) 0.6015(2) 0.3347(2)
N2A N 0.3572(2) 0.6978(2) 0.2393(2)
C3A C 0.5188(2) 0.8169(2) 0.3175(2)
H1A H 0.5119(2) 0.8935(2) 0.3923(2)
C4A C 0.6225(3) 0.7290(2) 0.3823(3)
H2A H 0.7115(3) 0.7927(2) 0.4706(3)
H3A H 0.6700(3) 0.6876(2) 0.3156(3)
C12A C 0.5856(2) 0.8860(2) 0.2115(2)
O3A O 0.5331(2) 0.8158(2) 0.0860(2)
C13A C 0.7184(2) 1.0367(2) 0.2665(2)
C14A C 0.7616(3) 1.1050(3) 0.1668(3)
H12A H 0.7047(3) 1.0576(3) 0.0694(3)
C15A C 0.8875(4) 1.2417(3) 0.2103(3)
H13A H 0.9159(4) 1.2862(3) 0.1423(3)
C16A C 0.9716(4) 1.3132(3) 0.3537(4)
H14A H 1.0574(4) 1.4056(3) 0.3827(4)
C17A C 0.9296(3) 1.2487(3) 0.4543(3)
H15A H 0.9862(3) 1.2977(3) 0.5515(3)
C18A C 0.8026(3) 1.1103(2) 0.4113(2)
H16A H 0.7739(3) 1.0668(2) 0.4796(2)
C6A C 0.2147(2) 0.7397(2) 0.2051(2)
C7A C 0.2257(3) 0.8863(2) 0.2069(2)
H7A H 0.3289(3) 0.9627(2) 0.2391(2)
C8A C 0.0820(3) 0.9177(3) 0.1605(3)
H8A H 0.0895(3) 1.0156(3) 0.1603(3)
C9A C -0.0715(3) 0.8072(3) 0.1147(3)
H9A H -0.1673(3) 0.8299(3) 0.0844(3)
C10A C -0.0821(3) 0.6623(3) 0.1143(3)
H10A H -0.1858(3) 0.5868(3) 0.0834(3)
C11A C 0.0592(3) 0.6282(2) 0.1590(2)
H11A H 0.0505(3) 0.5299(2) 0.1584(2)
loop_
_geom_bond_atom_site_label_1
_geom_bond_atom_site_label_2
_geom_bond_site_symmetry_1
_geom_bond_site_symmetry_2
C1 N1 1_555 1_555
N1 C5 1_555 1_555
C2 C1 1_555 1_555
O1 C2 1_555 1_555
N2 O1 1_555 1_555
C3 N2 1_555 1_555
H1 C3 1_555 1_555
C4 C2 1_555 1_555
H2 C4 1_555 1_555
H3 C4 1_555 1_555
C5 H4 1_555 1_555
H5 C5 1_555 1_555
H6 C5 1_555 1_555
O2 C1 1_555 1_555
C6 N2 1_555 1_555
C7 C6 1_555 1_555
H7 C7 1_555 1_555
C8 C7 1_555 1_555
H8 C8 1_555 1_555
C9 C8 1_555 1_555
H9 C9 1_555 1_555
C10 C9 1_555 1_555
H10 C10 1_555 1_555
C11 C6 1_555 1_555
H11 C11 1_555 1_555
C12 C3 1_555 1_555
O3 C12 1_555 1_555
C13 C12 1_555 1_555
C14 C13 1_555 1_555
H12 C14 1_555 1_555
C15 C14 1_555 1_555
H13 C15 1_555 1_555
C16 C15 1_555 1_555
H14 C16 1_555 1_555
C17 C16 1_555 1_555
H15 C17 1_555 1_555
C18 C13 1_555 1_555
H16 C18 1_555 1_555
C2A N1 1_555 1_555
C1A C2A 1_555 1_555
N1A C2 1_555 1_555
C5A N1A 1_555 1_555
H4A C5A 1_555 1_555
H5A C5A 1_555 1_555
H6A C5A 1_555 1_555
O2A C1A 1_555 1_555
O1A C2A 1_555 1_555
N2A O1A 1_555 1_555
C3A N2A 1_555 1_555
H1A C3A 1_555 1_555
C4A C2A 1_555 1_555
H2A C4A 1_555 1_555
H3A C4A 1_555 1_555
C12A C3A 1_555 1_555
O3A C12A 1_555 1_555
C13A C12A 1_555 1_555
C14A C13A 1_555 1_555
H12A C14A 1_555 1_555
C15A C14A 1_555 1_555
H13A C15A 1_555 1_555
C16A C15A 1_555 1_555
H14A C16A 1_555 1_555
C17A C16A 1_555 1_555
H15A C17A 1_555 1_555
C18A C13A 1_555 1_555
H16A C18A 1_555 1_555
C6A N2A 1_555 1_555
C7A C6A 1_555 1_555
H7A C7A 1_555 1_555
C8A C7A 1_555 1_555
H8A C8A 1_555 1_555
C9A C8A 1_555 1_555
H9A C9A 1_555 1_555
C10A C9A 1_555 1_555
H10A C10A 1_555 1_555
C11A C6A 1_555 1_555
H11A C11A 1_555 1_555
C3 C4 1_555 1_555
C10 C11 1_555 1_555
C17 C18 1_555 1_555
C1A N1A 1_555 1_555
C3A C4A 1_555 1_555
C17A C18A 1_555 1_555
C10A C11A 1_555 1_555

#END
