
#######################################################################
#
#                 Cambridge Crystallographic Data Centre
#                                CCDC 
#
#######################################################################
#
# If this CIF has been generated from an entry in the Cambridge 
# Structural Database, then it will include bibliographic, chemical, 
# crystal, experimental, refinement or atomic coordinate data resulting 
# from the CCDC's data processing and validation procedures.
#
#######################################################################

data_MAMFUB
_chemical_formula_moiety         'C9 H8 F1 N3 O5'
_chemical_name_systematic        
1-(N-(2-Fluoroethyl)aminocarbonyl)-3,5-dinitrobenzene
_symmetry_cell_setting           monoclinic
_symmetry_space_group_name_H-M   'P 21/n'
_symmetry_Int_Tables_number      14
_space_group_name_Hall           '-P 2yn'
loop_
_symmetry_equiv_pos_site_id
_symmetry_equiv_pos_as_xyz
1 x,y,z
2 1/2+x,1/2-y,1/2+z
3 -x,-y,-z
4 1/2-x,1/2+y,1/2-z
_cell_length_a                   10.114(2)
_cell_length_b                   4.824(1)
_cell_length_c                   20.996(4)
_cell_angle_alpha                90
_cell_angle_beta                 93.60(3)
_cell_angle_gamma                90
_cell_volume                     1022.37
_exptl_crystal_colour            colorless
_exptl_crystal_description       plate
_cell_formula_units_Z            4
loop_
_atom_site_label
_atom_site_type_symbol
_atom_site_fract_x
_atom_site_fract_y
_atom_site_fract_z
C1 C 0.86353(15) 0.4920(3) 0.19343(7)
H1 H 0.8331(19) 0.352(4) 0.2193(9)
C2 C 0.98839(15) 0.6076(3) 0.20677(7)
N1 N 1.07359(13) 0.4934(3) 0.26000(6)
O1 O 1.04489(12) 0.2639(3) 0.28054(6)
O2 O 1.16869(11) 0.6333(3) 0.28059(6)
C3 C 1.03887(15) 0.8196(3) 0.17104(7)
H2 H 1.122(2) 0.893(4) 0.1826(9)
C4 C 0.95799(14) 0.9118(3) 0.11931(7)
N2 N 1.00763(13) 1.1366(3) 0.07946(6)
O3 O 1.11877(11) 1.2298(3) 0.09392(6)
O4 O 0.93527(12) 1.2204(3) 0.03458(6)
C5 C 0.83226(15) 0.8055(3) 0.10396(7)
H3 H 0.7834(19) 0.874(4) 0.0672(9)
C6 C 0.78434(14) 0.5945(3) 0.14190(7)
C7 C 0.64977(15) 0.4641(3) 0.12760(7)
O5 O 0.62850(11) 0.2218(2) 0.14401(6)
N3 N 0.55871(12) 0.6239(3) 0.09633(6)
H4 H 0.576(2) 0.800(5) 0.0940(10)
C8 C 0.42467(15) 0.5171(3) 0.08121(8)
H5 H 0.4282(19) 0.384(4) 0.0470(9)
H6 H 0.3940(17) 0.418(4) 0.1174(9)
C9 C 0.32961(16) 0.7467(4) 0.06335(8)
H7 H 0.2374(19) 0.673(4) 0.0541(9)
H8 H 0.3317(19) 0.893(4) 0.0961(9)
F1 F 0.36597(10) 0.8761(2) 0.00666(5)
loop_
_geom_bond_atom_site_label_1
_geom_bond_atom_site_label_2
_geom_bond_site_symmetry_1
_geom_bond_site_symmetry_2
C1 H1 1_555 1_555
C2 C1 1_555 1_555
N1 C2 1_555 1_555
O1 N1 1_555 1_555
O2 N1 1_555 1_555
C3 C2 1_555 1_555
H2 C3 1_555 1_555
C4 C3 1_555 1_555
N2 C4 1_555 1_555
O3 N2 1_555 1_555
O4 N2 1_555 1_555
C5 C4 1_555 1_555
H3 C5 1_555 1_555
C6 C1 1_555 1_555
C7 C6 1_555 1_555
O5 C7 1_555 1_555
N3 C7 1_555 1_555
H4 N3 1_555 1_555
C8 N3 1_555 1_555
H5 C8 1_555 1_555
H6 C8 1_555 1_555
C9 C8 1_555 1_555
H7 C9 1_555 1_555
H8 C9 1_555 1_555
F1 C9 1_555 1_555
C5 C6 1_555 1_555

#END
