
#######################################################################
#
#                 Cambridge Crystallographic Data Centre
#                                CCDC 
#
#######################################################################
#
# If this CIF has been generated from an entry in the Cambridge 
# Structural Database, then it will include bibliographic, chemical, 
# crystal, experimental, refinement or atomic coordinate data resulting 
# from the CCDC's data processing and validation procedures.
#
#######################################################################

data_MAMGEM
_chemical_formula_moiety         'C14 H10 N2 O4'
_chemical_name_systematic        1,1-Diphenyl-2,2-dinitroethylene
_symmetry_cell_setting           monoclinic
_symmetry_space_group_name_H-M   'P 21/c'
_symmetry_Int_Tables_number      14
_space_group_name_Hall           '-P 2ybc'
loop_
_symmetry_equiv_pos_site_id
_symmetry_equiv_pos_as_xyz
1 x,y,z
2 x,1/2-y,1/2+z
3 -x,-y,-z
4 -x,1/2+y,1/2-z
_cell_length_a                   9.637(2)
_cell_length_b                   15.251(3)
_cell_length_c                   9.109(2)
_cell_angle_alpha                90
_cell_angle_beta                 96.86(3)
_cell_angle_gamma                90
_cell_volume                     1329.2
_exptl_crystal_colour            yellow
_exptl_crystal_description       plate
_cell_formula_units_Z            4
loop_
_atom_site_label
_atom_site_type_symbol
_atom_site_fract_x
_atom_site_fract_y
_atom_site_fract_z
O1 O 0.07350(10) 0.66308(6) 0.11343(11)
O2 O 0.16457(17) 0.60055(7) 0.31455(15)
O3 O 0.42540(12) 0.68739(9) 0.32018(12)
O4 O 0.36622(11) 0.76513(7) 0.49764(11)
C1 C 0.14520(11) 0.82696(7) 0.26766(11)
C2 C 0.20503(12) 0.74715(7) 0.29032(13)
C3 C -0.00459(11) 0.83575(7) 0.20771(12)
C4 C -0.04375(13) 0.89162(8) 0.08935(14)
H1 H 0.0239 0.9238 0.0483
C5 C -0.18313(15) 0.89955(9) 0.03225(17)
H2 H -0.2083 0.9361 -0.0483
C6 C -0.28341(15) 0.85400(10) 0.09379(17)
H3 H -0.3766 0.8591 0.0545
C7 C -0.24703(14) 0.80042(10) 0.21407(18)
H4 H -0.3161 0.7708 0.2573
C8 C -0.10760(13) 0.79039(8) 0.27102(15)
H5 H -0.0833 0.7535 0.3512
C9 C 0.22754(11) 0.90837(7) 0.30112(12)
C10 C 0.16973(13) 0.97838(8) 0.37057(14)
H6 H 0.0790 0.9743 0.3952
C11 C 0.24678(15) 1.05438(8) 0.40343(16)
H7 H 0.2088 1.1000 0.4533
C12 C 0.37885(14) 1.06229(9) 0.36254(16)
H8 H 0.4300 1.1133 0.3848
C13 C 0.43607(14) 0.99477(9) 0.28840(16)
H9 H 0.5246 1.0008 0.2587
C14 C 0.36092(12) 0.91802(8) 0.25842(15)
H10 H 0.3999 0.8724 0.2093
N1 N 0.14226(12) 0.66378(7) 0.23500(13)
N2 N 0.34195(11) 0.73214(7) 0.37595(12)
loop_
_geom_bond_atom_site_label_1
_geom_bond_atom_site_label_2
_geom_bond_site_symmetry_1
_geom_bond_site_symmetry_2
O1 N1 1_555 1_555
O2 N1 1_555 1_555
O3 N2 1_555 1_555
O4 N2 1_555 1_555
C1 C2 1_555 1_555
C2 N1 1_555 1_555
C3 C1 1_555 1_555
C4 C3 1_555 1_555
H1 C4 1_555 1_555
C5 C4 1_555 1_555
H2 C5 1_555 1_555
C6 C5 1_555 1_555
H3 C6 1_555 1_555
C7 C6 1_555 1_555
H4 C7 1_555 1_555
C8 C3 1_555 1_555
H5 C8 1_555 1_555
C9 C1 1_555 1_555
C10 C9 1_555 1_555
H6 C10 1_555 1_555
C11 C10 1_555 1_555
H7 C11 1_555 1_555
C12 C11 1_555 1_555
H8 C12 1_555 1_555
C13 C12 1_555 1_555
H9 C13 1_555 1_555
C14 C9 1_555 1_555
H10 C14 1_555 1_555
N2 C2 1_555 1_555
C7 C8 1_555 1_555
C13 C14 1_555 1_555

#END
