
#######################################################################
#
#                 Cambridge Crystallographic Data Centre
#                                CCDC 
#
#######################################################################
#
# If this CIF has been generated from an entry in the Cambridge 
# Structural Database, then it will include bibliographic, chemical, 
# crystal, experimental, refinement or atomic coordinate data resulting 
# from the CCDC's data processing and validation procedures.
#
#######################################################################

data_MAMJIU
_chemical_formula_moiety         'C17 H27 N1 O4 S2'
_chemical_name_systematic        
(2R*,3R*)-1-(t-Butylsulfonyl)-2-pentyl-3-(phenylsulfonyl)aziridine
_symmetry_cell_setting           monoclinic
_symmetry_space_group_name_H-M   'P 21/n'
_symmetry_Int_Tables_number      14
_space_group_name_Hall           '-P 2yn'
loop_
_symmetry_equiv_pos_site_id
_symmetry_equiv_pos_as_xyz
1 x,y,z
2 1/2-x,1/2+y,1/2-z
3 -x,-y,-z
4 1/2+x,1/2-y,1/2+z
_cell_length_a                   9.9296(2)
_cell_length_b                   18.0326(4)
_cell_length_c                   10.7716(3)
_cell_angle_alpha                90
_cell_angle_beta                 90.5944(9)
_cell_angle_gamma                90
_cell_volume                     1928.62
_exptl_crystal_colour            colorless
_exptl_crystal_description       prism
_cell_formula_units_Z            4
loop_
_atom_site_label
_atom_site_type_symbol
_atom_site_fract_x
_atom_site_fract_y
_atom_site_fract_z
N1 N 0.30237(12) 0.49818(6) 0.58338(11)
C1 C 0.23624(14) 0.43162(7) 0.53417(13)
C2 C 0.34839(14) 0.46495(8) 0.46375(13)
C3 C 0.32549(15) 0.49731(8) 0.33650(13)
C4 C 0.32882(16) 0.43415(9) 0.24140(14)
C5 C 0.32386(17) 0.46093(10) 0.10750(15)
C6 C 0.3418(2) 0.39838(12) 0.01296(16)
C7 C 0.2304(3) 0.34120(14) 0.01500(19)
S1 S 0.21730(3) 0.578414(19) 0.58173(3)
O1 O 0.31489(12) 0.63371(6) 0.54956(11)
O2 O 0.09580(11) 0.57378(6) 0.50790(10)
C8 C 0.17132(16) 0.58783(9) 0.74319(14)
C9 C 0.0884(2) 0.65957(10) 0.74793(18)
C10 C 0.08738(18) 0.52089(10) 0.78149(17)
C11 C 0.29896(19) 0.59487(11) 0.82193(16)
S2 S 0.27022(4) 0.349239(19) 0.62103(3)
O3 O 0.40292(13) 0.35561(6) 0.67357(11)
O4 O 0.15860(13) 0.33547(7) 0.70132(11)
C12 C 0.27106(15) 0.28309(8) 0.50109(13)
C13 C 0.39204(17) 0.26674(9) 0.44367(17)
C14 C 0.3890(2) 0.21875(10) 0.3427(2)
C15 C 0.2680(3) 0.18925(11) 0.30132(18)
C16 C 0.1488(2) 0.20537(10) 0.36014(18)
C17 C 0.14959(17) 0.25276(9) 0.46140(15)
H1 H 0.1446(19) 0.4357(10) 0.5016(17)
H2 H 0.434(2) 0.4417(10) 0.4783(17)
H3 H 0.3980 0.5340 0.3179
H4 H 0.2358 0.5225 0.3329
H5 H 0.4138 0.4053 0.2544
H6 H 0.2496 0.4011 0.2557
H7 H 0.3974 0.4981 0.0956
H8 H 0.2346 0.4851 0.0919
H9 H 0.3447 0.4207 -0.0719
H10 H 0.4291 0.3728 0.0312
H11 H 0.2484 0.3022 -0.0487
H12 H 0.1423 0.3658 -0.0041
H13 H 0.2267 0.3178 0.0991
H14 H 0.0589 0.6688 0.8351
H15 H 0.1448 0.7021 0.7193
H16 H 0.0074 0.6546 0.6925
H17 H 0.0618 0.5259 0.8706
H18 H 0.0041 0.5184 0.7287
H19 H 0.1413 0.4746 0.7702
H20 H 0.2743 0.6001 0.9113
H21 H 0.3507 0.6396 0.7951
H22 H 0.3557 0.5496 0.8111
H23 H 0.4787 0.2888 0.4740
H24 H 0.4746 0.2055 0.2998
H25 H 0.2670 0.1557 0.2275
H26 H 0.0623 0.1830 0.3299
H27 H 0.0640 0.2649 0.5052
loop_
_geom_bond_atom_site_label_1
_geom_bond_atom_site_label_2
_geom_bond_site_symmetry_1
_geom_bond_site_symmetry_2
N1 C1 1_555 1_555
C1 C2 1_555 1_555
C2 N1 1_555 1_555
C3 C2 1_555 1_555
C4 C3 1_555 1_555
C5 C4 1_555 1_555
C6 C5 1_555 1_555
C7 C6 1_555 1_555
S1 N1 1_555 1_555
O1 S1 1_555 1_555
O2 S1 1_555 1_555
C8 S1 1_555 1_555
C9 C8 1_555 1_555
C10 C8 1_555 1_555
C11 C8 1_555 1_555
S2 C1 1_555 1_555
O3 S2 1_555 1_555
O4 S2 1_555 1_555
C12 S2 1_555 1_555
C13 C12 1_555 1_555
C14 C13 1_555 1_555
C15 C14 1_555 1_555
C16 C15 1_555 1_555
C17 C12 1_555 1_555
H1 C1 1_555 1_555
H2 C2 1_555 1_555
H3 C3 1_555 1_555
H4 C3 1_555 1_555
H5 C4 1_555 1_555
H6 C4 1_555 1_555
H7 C5 1_555 1_555
H8 C5 1_555 1_555
H9 C6 1_555 1_555
H10 C6 1_555 1_555
H11 C7 1_555 1_555
H12 C7 1_555 1_555
H13 C7 1_555 1_555
H14 C9 1_555 1_555
H15 C9 1_555 1_555
H16 C9 1_555 1_555
H17 C10 1_555 1_555
H18 C10 1_555 1_555
H19 C10 1_555 1_555
H20 C11 1_555 1_555
H21 C11 1_555 1_555
H22 C11 1_555 1_555
H23 C13 1_555 1_555
H24 C14 1_555 1_555
H25 C15 1_555 1_555
H26 C16 1_555 1_555
H27 C17 1_555 1_555
C16 C17 1_555 1_555

#END
