
#######################################################################
#
#                 Cambridge Crystallographic Data Centre
#                                CCDC 
#
#######################################################################
#
# If this CIF has been generated from an entry in the Cambridge 
# Structural Database, then it will include bibliographic, chemical, 
# crystal, experimental, refinement or atomic coordinate data resulting 
# from the CCDC's data processing and validation procedures.
#
#######################################################################

data_MAMMAQ
_chemical_formula_moiety         'C26 H22 N2 O2'
_chemical_name_systematic        
(Z,S)-4-Benzyl-5-methyl-4-(3-oxo-3-phenylprop-1-en-1-yl)-2-phenyl-2,4-dihydro-3H-pyrazol-3-one
_symmetry_cell_setting           orthorhombic
_symmetry_space_group_name_H-M   'P 21 21 21'
_symmetry_Int_Tables_number      19
_space_group_name_Hall           'P 2ac 2ab'
loop_
_symmetry_equiv_pos_site_id
_symmetry_equiv_pos_as_xyz
1 x,y,z
2 1/2-x,-y,1/2+z
3 -x,1/2+y,1/2-z
4 1/2+x,1/2-y,-z
_cell_length_a                   10.4577(16)
_cell_length_b                   12.0383(18)
_cell_length_c                   16.440(3)
_cell_angle_alpha                90
_cell_angle_beta                 90
_cell_angle_gamma                90
_cell_volume                     2069.68
_exptl_crystal_colour            yellow
_exptl_crystal_description       block
_cell_formula_units_Z            4
loop_
_atom_site_label
_atom_site_type_symbol
_atom_site_fract_x
_atom_site_fract_y
_atom_site_fract_z
O1 O 0.58474(17) 0.87844(14) 0.91627(12)
O2 O 0.4253(2) 0.97860(15) 1.05165(12)
N1 N 0.53152(19) 1.06445(17) 0.89689(13)
N2 N 0.4203(2) 1.12630(19) 0.87995(14)
C1 C 0.3711(2) 0.9382(2) 0.87062(16)
C2 C 0.5089(2) 0.9522(2) 0.89997(15)
C3 C 0.3294(2) 1.0580(2) 0.86827(17)
C4 C 0.2854(2) 0.8647(2) 0.92106(18)
H1 H 0.2162 0.8322 0.8922
C5 C 0.2910(3) 0.8384(2) 0.99898(18)
H2 H 0.2300 0.7866 1.0188
C6 C 0.3859(2) 0.8837(2) 1.05832(17)
C7 C 0.4318(3) 0.8112(2) 1.12614(17)
C8 C 0.3817(3) 0.7052(2) 1.1394(2)
H3 H 0.3161 0.6775 1.1050
C9 C 0.4275(3) 0.6404(3) 1.2027(2)
H4 H 0.3940 0.5680 1.2112
C10 C 0.5217(3) 0.6811(3) 1.25334(18)
H5 H 0.5521 0.6368 1.2971
C11 C 0.5720(3) 0.7857(3) 1.24073(18)
H6 H 0.6369 0.8134 1.2757
C12 C 0.5275(3) 0.8502(2) 1.17693(17)
H7 H 0.5630 0.9218 1.1679
C13 C 0.3776(3) 0.8896(3) 0.78215(17)
H8 H 0.4053 0.8110 0.7854
H9 H 0.2905 0.8906 0.7585
C14 C 0.4666(3) 0.9509(2) 0.72569(17)
C15 C 0.5905(3) 0.9120(2) 0.71158(18)
H10 H 0.6186 0.8463 0.7381
C16 C 0.6726(3) 0.9670(3) 0.6601(2)
H11 H 0.7561 0.9385 0.6508
C17 C 0.6339(3) 1.0638(3) 0.6216(2)
H12 H 0.6911 1.1030 0.5871
C18 C 0.5116(3) 1.1026(3) 0.63406(19)
H13 H 0.4840 1.1684 0.6074
C19 C 0.4290(3) 1.0467(2) 0.68490(18)
H14 H 0.3447 1.0742 0.6923
C20 C 0.1959(3) 1.0969(3) 0.8517(2)
H15 H 0.1943 1.1783 0.8504
H16 H 0.1389 1.0702 0.8948
H17 H 0.1673 1.0678 0.7991
C21 C 0.6445(2) 1.1247(2) 0.91568(15)
C22 C 0.7548(3) 1.0706(2) 0.94081(19)
H18 H 0.7565 0.9920 0.9459
C23 C 0.8630(3) 1.1334(3) 0.95845(18)
H19 H 0.9387 1.0968 0.9760
C24 C 0.8631(3) 1.2470(3) 0.95117(18)
H20 H 0.9382 1.2885 0.9626
C25 C 0.7522(3) 1.3000(3) 0.92702(19)
H21 H 0.7506 1.3788 0.9232
C26 C 0.6432(3) 1.2395(2) 0.90839(18)
H22 H 0.5680 1.2766 0.8907
loop_
_geom_bond_atom_site_label_1
_geom_bond_atom_site_label_2
_geom_bond_site_symmetry_1
_geom_bond_site_symmetry_2
O1 C2 1_555 1_555
O2 C6 1_555 1_555
N1 N2 1_555 1_555
N2 C3 1_555 1_555
C1 C2 1_555 1_555
C2 N1 1_555 1_555
C3 C1 1_555 1_555
C4 C1 1_555 1_555
H1 C4 1_555 1_555
C5 C4 1_555 1_555
H2 C5 1_555 1_555
C6 C5 1_555 1_555
C7 C6 1_555 1_555
C8 C7 1_555 1_555
H3 C8 1_555 1_555
C9 C8 1_555 1_555
H4 C9 1_555 1_555
C10 C9 1_555 1_555
H5 C10 1_555 1_555
C11 C10 1_555 1_555
H6 C11 1_555 1_555
C12 C7 1_555 1_555
H7 C12 1_555 1_555
C13 C1 1_555 1_555
H8 C13 1_555 1_555
H9 C13 1_555 1_555
C14 C13 1_555 1_555
C15 C14 1_555 1_555
H10 C15 1_555 1_555
C16 C15 1_555 1_555
H11 C16 1_555 1_555
C17 C16 1_555 1_555
H12 C17 1_555 1_555
C18 C17 1_555 1_555
H13 C18 1_555 1_555
C19 C14 1_555 1_555
H14 C19 1_555 1_555
C20 C3 1_555 1_555
H15 C20 1_555 1_555
H16 C20 1_555 1_555
H17 C20 1_555 1_555
C21 N1 1_555 1_555
C22 C21 1_555 1_555
H18 C22 1_555 1_555
C23 C22 1_555 1_555
H19 C23 1_555 1_555
C24 C23 1_555 1_555
H20 C24 1_555 1_555
C25 C24 1_555 1_555
H21 C25 1_555 1_555
C26 C21 1_555 1_555
H22 C26 1_555 1_555
C11 C12 1_555 1_555
C18 C19 1_555 1_555
C25 C26 1_555 1_555

#END
