
#######################################################################
#
#                 Cambridge Crystallographic Data Centre
#                                CCDC 
#
#######################################################################
#
# If this CIF has been generated from an entry in the Cambridge 
# Structural Database, then it will include bibliographic, chemical, 
# crystal, experimental, refinement or atomic coordinate data resulting 
# from the CCDC's data processing and validation procedures.
#
#######################################################################

data_MAMMUK
_chemical_formula_moiety         'C28 H40 N8 O2,3(C2 D6 O1 S1)'
_chemical_name_systematic        
'11,23-Di-t-butyl-1,9,11,13,21,23,26,28-octaazapentacyclo[19.3.1.1^3,7^.1^9,13^.1^15,19^]octacosa-3(28),4,6,15(26),16,18-hexaene-25,27-dione hexadeuterodimethylsulfoxide solvate'
_symmetry_cell_setting           orthorhombic
_symmetry_space_group_name_H-M   'A b a 2'
_symmetry_Int_Tables_number      41
_space_group_name_Hall           'A 2 -2ab'
loop_
_symmetry_equiv_pos_site_id
_symmetry_equiv_pos_as_xyz
1 x,y,z
2 -x,-y,z
3 1/2+x,1/2-y,z
4 1/2-x,1/2+y,z
5 x,1/2+y,1/2+z
6 -x,1/2-y,1/2+z
7 1/2+x,-y,1/2+z
8 1/2-x,y,1/2+z
_cell_length_a                   25.3621(14)
_cell_length_b                   16.7341(9)
_cell_length_c                   18.5947(10)
_cell_angle_alpha                90
_cell_angle_beta                 90
_cell_angle_gamma                90
_cell_volume                     7891.81
_exptl_crystal_colour            colorless
_exptl_crystal_description       plate
_cell_formula_units_Z            8
loop_
_atom_site_label
_atom_site_type_symbol
_atom_site_fract_x
_atom_site_fract_y
_atom_site_fract_z
C1 C 0.36969(8) 0.25121(11) 0.27680(11)
C2 C 0.45739(9) 0.27831(13) 0.33213(14)
H1 H 0.4932 0.2614 0.3175
H2 H 0.4592 0.3353 0.3463
C3 C 0.38671(9) 0.25025(13) 0.40722(12)
H3 H 0.3837 0.3072 0.4210
H4 H 0.3743 0.2177 0.4483
C4 C 0.44045(9) 0.29681(13) 0.20025(13)
H5 H 0.4302 0.2566 0.1638
H6 H 0.4794 0.2992 0.2013
C5 C 0.41946(8) 0.37743(13) 0.17721(11)
C6 C 0.39930(10) 0.38909(16) 0.10856(13)
H7 H 0.3982 0.3462 0.0751
C7 C 0.38085(11) 0.46347(17) 0.08948(14)
H8 H 0.3669 0.4727 0.0428
C8 C 0.38295(10) 0.52425(15) 0.13939(13)
H9 H 0.3708 0.5763 0.1276
C9 C 0.40310(9) 0.50815(13) 0.20693(12)
C10 C 0.40698(11) 0.57382(14) 0.26286(14)
H10 H 0.4438 0.5934 0.2643
H11 H 0.3843 0.6190 0.2476
C11 C 0.33925(8) 0.54140(12) 0.35016(11)
C12 C 0.43313(9) 0.52778(15) 0.38545(15)
H12 H 0.4459 0.4735 0.3734
H13 H 0.4630 0.5652 0.3796
C13 C 0.36900(9) 0.48141(12) 0.46424(14)
H14 H 0.3560 0.4821 0.5144
H15 H 0.3773 0.4254 0.4515
C14 C 0.27282(8) 0.49581(13) 0.43441(12)
H16 H 0.2512 0.5410 0.4170
H17 H 0.2697 0.4944 0.4875
C15 C 0.24982(8) 0.41873(11) 0.40441(11)
C16 C 0.19531(8) 0.41326(13) 0.39350(11)
H18 H 0.1731 0.4575 0.4037
C17 C 0.17441(8) 0.34283(14) 0.36783(12)
H19 H 0.1375 0.3378 0.3601
C18 C 0.20796(8) 0.27954(13) 0.35353(11)
H20 H 0.1947 0.2306 0.3350
C19 C 0.26149(7) 0.28904(12) 0.36690(10)
C20 C 0.29755(8) 0.21757(12) 0.35728(11)
H21 H 0.2949 0.1838 0.4009
H22 H 0.2843 0.1855 0.3163
C21 C 0.45746(8) 0.14572(13) 0.39441(13)
C22 C 0.44186(13) 0.09869(15) 0.32668(19)
H23 H 0.4033 0.0965 0.3230
H24 H 0.4560 0.0443 0.3298
H25 H 0.4563 0.1253 0.2841
C23 C 0.51768(9) 0.14429(16) 0.40017(18)
H26 H 0.5331 0.1681 0.3569
H27 H 0.5298 0.0889 0.4049
H28 H 0.5287 0.1749 0.4425
C24 C 0.43452(14) 0.10641(18) 0.4605(2)
H29 H 0.4430 0.1385 0.5030
H30 H 0.4496 0.0528 0.4660
H31 H 0.3962 0.1024 0.4554
C25 C 0.41746(8) 0.60818(12) 0.49644(12)
C26 C 0.38853(10) 0.67541(14) 0.45576(16)
H32 H 0.4048 0.6829 0.4084
H33 H 0.3910 0.7252 0.4833
H34 H 0.3514 0.6609 0.4496
C27 C 0.47512(10) 0.63260(17) 0.50486(18)
H35 H 0.4952 0.5879 0.5249
H36 H 0.4775 0.6786 0.5373
H37 H 0.4896 0.6470 0.4577
C28 C 0.39222(14) 0.59993(17) 0.56971(16)
H38 H 0.3546 0.5880 0.5640
H39 H 0.3963 0.6500 0.5964
H40 H 0.4093 0.5564 0.5962
N1 N 0.42172(7) 0.27039(11) 0.27029(10)
N2 N 0.44118(7) 0.23178(10) 0.39312(10)
N3 N 0.35259(6) 0.23499(10) 0.34468(9)
N4 N 0.42101(7) 0.43613(10) 0.22622(10)
N5 N 0.39162(7) 0.54981(11) 0.33517(10)
N6 N 0.41632(7) 0.52873(10) 0.45953(11)
N7 N 0.32726(6) 0.51136(10) 0.41608(9)
N8 N 0.28234(6) 0.35736(10) 0.39167(8)
O1 O 0.34060(6) 0.24546(9) 0.22356(8)
O2 O 0.30478(6) 0.56281(9) 0.30723(8)
C29 C 0.26646(9) 0.40780(13) 0.21221(12)
D1 D 0.2407 0.3736 0.2366
D2 D 0.2877 0.4360 0.2481
D3 D 0.2895 0.3748 0.1821
C30 C 0.19523(10) 0.52590(15) 0.22704(13)
D4 D 0.1742 0.5693 0.2065
D5 D 0.2192 0.5476 0.2635
D6 D 0.1718 0.4865 0.2494
O3 O 0.19392(8) 0.43252(11) 0.11237(9)
S1 S 0.23276(2) 0.47878(3) 0.15730(3)
C31 C 0.22544(9) 0.19117(14) 0.16775(11)
D7 D 0.2009 0.2364 0.1685
D8 D 0.2573 0.2051 0.1948
D9 D 0.2086 0.1445 0.1898
C32 C 0.26839(9) 0.26503(13) 0.05491(13)
D10 D 0.2790 0.2660 0.0042
D11 D 0.2991 0.2765 0.0853
D12 D 0.2412 0.3055 0.0632
O4 O 0.19230(7) 0.15778(10) 0.03611(9)
S2 S 0.24279(2) 0.16846(3) 0.07687(3)
C33 C 0.10067(11) 0.29342(19) 0.10096(16)
D13 D 0.1155 0.2400 0.0938
D14 D 0.1213 0.3325 0.0737
D15 D 0.0641 0.2942 0.0842
C34 C 0.06919(13) 0.41115(16) 0.18797(19)
D16 D 0.0339 0.4025 0.1678
D17 D 0.0891 0.4470 0.1564
D18 D 0.0660 0.4352 0.2358
O5 O 0.06724(9) 0.26408(12) 0.23458(15)
S3 S 0.10263(2) 0.31824(4) 0.19488(3)
loop_
_geom_bond_atom_site_label_1
_geom_bond_atom_site_label_2
_geom_bond_site_symmetry_1
_geom_bond_site_symmetry_2
C1 N1 1_555 1_555
C2 H1 1_555 1_555
H2 C2 1_555 1_555
C3 H3 1_555 1_555
H4 C3 1_555 1_555
C4 H5 1_555 1_555
H6 C4 1_555 1_555
C5 C4 1_555 1_555
C6 C5 1_555 1_555
H7 C6 1_555 1_555
C7 C6 1_555 1_555
H8 C7 1_555 1_555
C8 C7 1_555 1_555
H9 C8 1_555 1_555
C9 C8 1_555 1_555
C10 C9 1_555 1_555
H10 C10 1_555 1_555
H11 C10 1_555 1_555
C11 N5 1_555 1_555
C12 H12 1_555 1_555
H13 C12 1_555 1_555
C13 H14 1_555 1_555
H15 C13 1_555 1_555
C14 H16 1_555 1_555
H17 C14 1_555 1_555
C15 C14 1_555 1_555
C16 C15 1_555 1_555
H18 C16 1_555 1_555
C17 C16 1_555 1_555
H19 C17 1_555 1_555
C18 C17 1_555 1_555
H20 C18 1_555 1_555
C19 C18 1_555 1_555
C20 C19 1_555 1_555
H21 C20 1_555 1_555
H22 C20 1_555 1_555
C21 C22 1_555 1_555
C22 H23 1_555 1_555
H24 C22 1_555 1_555
H25 C22 1_555 1_555
C23 C21 1_555 1_555
H26 C23 1_555 1_555
H27 C23 1_555 1_555
H28 C23 1_555 1_555
C24 C21 1_555 1_555
H29 C24 1_555 1_555
H30 C24 1_555 1_555
H31 C24 1_555 1_555
C25 C26 1_555 1_555
C26 H32 1_555 1_555
H33 C26 1_555 1_555
H34 C26 1_555 1_555
C27 C25 1_555 1_555
H35 C27 1_555 1_555
H36 C27 1_555 1_555
H37 C27 1_555 1_555
C28 C25 1_555 1_555
H38 C28 1_555 1_555
H39 C28 1_555 1_555
H40 C28 1_555 1_555
C29 D1 1_555 1_555
D2 C29 1_555 1_555
D3 C29 1_555 1_555
C30 D4 1_555 1_555
D5 C30 1_555 1_555
D6 C30 1_555 1_555
C31 D7 1_555 1_555
D8 C31 1_555 1_555
D9 C31 1_555 1_555
C32 D10 1_555 1_555
D11 C32 1_555 1_555
D12 C32 1_555 1_555
C33 D13 1_555 1_555
D14 C33 1_555 1_555
D15 C33 1_555 1_555
C34 D16 1_555 1_555
D17 C34 1_555 1_555
D18 C34 1_555 1_555
N1 C2 1_555 1_555
N2 C2 1_555 1_555
N3 C1 1_555 1_555
N4 C5 1_555 1_555
N5 C10 1_555 1_555
N6 C12 1_555 1_555
N7 C11 1_555 1_555
N8 C15 1_555 1_555
O1 C1 1_555 1_555
O2 C11 1_555 1_555
O3 S1 1_555 1_555
O4 S2 1_555 1_555
O5 S3 1_555 1_555
S1 C29 1_555 1_555
S2 C31 1_555 1_555
S3 C33 1_555 1_555
C3 N2 1_555 1_555
C3 N3 1_555 1_555
C4 N1 1_555 1_555
C9 N4 1_555 1_555
C12 N5 1_555 1_555
C13 N6 1_555 1_555
C13 N7 1_555 1_555
C14 N7 1_555 1_555
C19 N8 1_555 1_555
C20 N3 1_555 1_555
C21 N2 1_555 1_555
C25 N6 1_555 1_555
C30 S1 1_555 1_555
C32 S2 1_555 1_555
C34 S3 1_555 1_555

#END
