
#######################################################################
#
#                 Cambridge Crystallographic Data Centre
#                                CCDC 
#
#######################################################################
#
# If this CIF has been generated from an entry in the Cambridge 
# Structural Database, then it will include bibliographic, chemical, 
# crystal, experimental, refinement or atomic coordinate data resulting 
# from the CCDC's data processing and validation procedures.
#
#######################################################################

data_MAMNAR
_chemical_formula_moiety         'C28 H40 N8 O2,0.75(C8 H10),H2 O1'
_chemical_name_systematic        
'11,23-Di-t-butyl-1,9,11,13,21,23,26,28-octaazapentacyclo[19.3.1.1^3,7^.1^9,13^.1^15,19^]octacosa-3(28),4,6,15(26),16,18-hexaene-25,27-dione xylene solvate monohydrate'
_symmetry_cell_setting           monoclinic
_symmetry_space_group_name_H-M   'P 21/n'
_symmetry_Int_Tables_number      14
_space_group_name_Hall           '-P 2yn'
loop_
_symmetry_equiv_pos_site_id
_symmetry_equiv_pos_as_xyz
1 x,y,z
2 1/2-x,1/2+y,1/2-z
3 -x,-y,-z
4 1/2+x,1/2-y,1/2+z
_cell_length_a                   11.7784(8)
_cell_length_b                   22.3560(15)
_cell_length_c                   27.7304(19)
_cell_angle_alpha                90
_cell_angle_beta                 99.2990(10)
_cell_angle_gamma                90
_cell_volume                     7205.95
_exptl_crystal_colour            colorless
_exptl_crystal_description       bar
_cell_formula_units_Z            8
loop_
_atom_site_label
_atom_site_type_symbol
_atom_site_fract_x
_atom_site_fract_y
_atom_site_fract_z
C29 C 0.58646(18) 0.29006(10) 0.30099(9)
C30 C 0.74323(17) 0.23046(10) 0.34978(8)
H41 H 0.7538 0.1866 0.3525
H42 H 0.8191 0.2486 0.3479
C31 C 0.67287(19) 0.31399(9) 0.38426(9)
H43 H 0.7421 0.3366 0.3790
H44 H 0.6463 0.3307 0.4136
C32 C 0.68013(18) 0.21189(10) 0.26169(8)
H45 H 0.6142 0.2203 0.2356
H46 H 0.6791 0.1686 0.2690
C33 C 0.78963(17) 0.22590(9) 0.24237(7)
C34 C 0.8351(2) 0.18359(10) 0.21503(9)
H47 H 0.7985 0.1459 0.2088
C35 C 0.9336(2) 0.19633(11) 0.19687(10)
H48 H 0.9666 0.1676 0.1780
C36 C 0.98414(19) 0.25145(11) 0.20634(8)
H49 H 1.0529 0.2613 0.1943
C37 C 0.93356(16) 0.29233(9) 0.23363(7)
C38 C 0.98748(17) 0.35315(9) 0.24214(7)
H50 H 1.0720 0.3486 0.2458
H51 H 0.9627 0.3779 0.2127
C39 C 0.90055(16) 0.43713(9) 0.27784(8)
C40 C 1.00388(18) 0.36036(9) 0.33255(7)
H52 H 0.9472 0.3311 0.3411
H53 H 1.0764 0.3385 0.3312
C41 C 0.92167(17) 0.44022(10) 0.36764(7)
H54 H 0.9345 0.4722 0.3926
H55 H 0.8583 0.4146 0.3751
C42 C 0.80150(18) 0.51492(9) 0.31475(8)
H56 H 0.8194 0.5444 0.2904
H57 H 0.8072 0.5358 0.3465
C43 C 0.67979(18) 0.49352(9) 0.29973(7)
C44 C 0.60571(18) 0.52105(9) 0.26248(7)
H58 H 0.6312 0.5542 0.2457
C45 C 0.49526(18) 0.50024(9) 0.24991(8)
H59 H 0.4431 0.5189 0.2247
C46 C 0.46211(18) 0.45198(9) 0.27463(8)
H60 H 0.3864 0.4363 0.2666
C47 C 0.53991(18) 0.42624(9) 0.31141(8)
C48 C 0.5054(2) 0.37301(10) 0.34000(10)
H61 H 0.5012 0.3861 0.3738
H62 H 0.4275 0.3598 0.3249
C49 C 0.621(4) 0.212(2) 0.4134(14)
C50 C 0.5210(3) 0.18511(16) 0.37537(12)
H63 H 0.4756 0.2177 0.3582
H64 H 0.4715 0.1604 0.3925
H65 H 0.5533 0.1605 0.3517
C51 C 0.6920(3) 0.16180(18) 0.43965(17)
H66 H 0.7362 0.1421 0.4171
H67 H 0.6406 0.1326 0.4514
H68 H 0.7449 0.1781 0.4675
C52 C 0.5639(3) 0.24656(16) 0.45029(14)
H69 H 0.6220 0.2700 0.4716
H70 H 0.5274 0.2184 0.4701
H71 H 0.5056 0.2735 0.4329
C53 C 1.13890(17) 0.43519(11) 0.37611(8)
C54 C 1.1730(2) 0.45700(12) 0.32812(8)
H72 H 1.1730 0.4231 0.3057
H73 H 1.2501 0.4747 0.3346
H74 H 1.1177 0.4871 0.3133
C55 C 1.2272(2) 0.38945(13) 0.39952(10)
H75 H 1.2055 0.3750 0.4301
H76 H 1.3033 0.4082 0.4063
H77 H 1.2296 0.3557 0.3771
C56 C 1.1402(2) 0.48729(13) 0.41110(9)
H78 H 1.0884 0.5187 0.3959
H79 H 1.2185 0.5032 0.4189
H80 H 1.1146 0.4737 0.4412
N9 N 0.66350(13) 0.24421(8) 0.30463(6)
N10 N 0.70324(14) 0.25223(7) 0.39299(6)
N11 N 0.58319(15) 0.32218(8) 0.34217(7)
N12 N 0.83806(13) 0.27982(7) 0.25202(6)
N13 N 0.96100(13) 0.38522(7) 0.28415(6)
N14 N 1.02463(13) 0.40481(8) 0.37043(6)
N15 N 0.88747(14) 0.46751(7) 0.31927(6)
N16 N 0.64758(15) 0.44649(8) 0.32450(6)
O3 O 0.51924(12) 0.30017(7) 0.26249(6)
O4 O 0.86287(11) 0.45741(6) 0.23684(5)
O5 O 0.82059(13) 0.56656(7) 0.18569(6)
H81 H 0.7477(12) 0.5719(12) 0.1792(10)
H82 H 0.829(2) 0.5334(8) 0.2022(9)
O6 O 0.2818(3) 0.3162(3) 0.2373(4)
C1 C 0.50271(16) 0.60319(8) 0.12538(7)
C2 C 0.31348(16) 0.64714(10) 0.09047(7)
H1 H 0.2514 0.6183 0.0938
H2 H 0.2825 0.6879 0.0933
C3 C 0.40258(16) 0.58396(8) 0.04215(7)
H3 H 0.4269 0.5786 0.0099
H4 H 0.3475 0.5516 0.0462
C4 C 0.40205(17) 0.66410(9) 0.17749(7)
H5 H 0.4043 0.7082 0.1741
H6 H 0.4701 0.6520 0.2013
C5 C 0.29436(16) 0.64715(9) 0.19781(7)
C6 C 0.24288(18) 0.68889(10) 0.22351(8)
H7 H 0.2729 0.7283 0.2278
C7 C 0.1465(2) 0.67246(12) 0.24301(10)
H8 H 0.1098 0.7004 0.2613
C8 C 0.10455(18) 0.61530(11) 0.23561(8)
H9 H 0.0381 0.6031 0.2484
C9 C 0.16073(16) 0.57603(9) 0.20923(7)
C10 C 0.11774(18) 0.51269(10) 0.20239(7)
H10 H 0.1607 0.4875 0.2286
H11 H 0.0356 0.5118 0.2062
C11 C 0.20345(16) 0.44138(9) 0.15337(8)
C12 C 0.06251(18) 0.51465(9) 0.11228(7)
H12 H -0.0149 0.5250 0.1193
H13 H 0.1007 0.5523 0.1050
C13 C 0.16260(16) 0.45470(10) 0.06542(7)
H14 H 0.2128 0.4890 0.0607
H15 H 0.1569 0.4289 0.0361
C14 C 0.30599(16) 0.37777(9) 0.10408(9)
H16 H 0.2968 0.3633 0.0699
H17 H 0.2968 0.3429 0.1251
C15 C 0.42630(16) 0.40253(9) 0.11827(8)
C16 C 0.50366(17) 0.37640(9) 0.15499(8)
H18 H 0.4816 0.3428 0.1723
C17 C 0.61288(17) 0.39948(9) 0.16614(8)
H19 H 0.6680 0.3818 0.1909
C18 C 0.64055(16) 0.44883(9) 0.14060(7)
H20 H 0.7155 0.4657 0.1474
C19 C 0.55827(15) 0.47365(8) 0.10487(7)
C20 C 0.58422(16) 0.52953(8) 0.07748(7)
H21 H 0.6629 0.5433 0.0907
H22 H 0.5827 0.5192 0.0427
C21 C 0.39490(16) 0.69474(9) 0.02209(7)
C22 C 0.48642(19) 0.72733(10) 0.05821(9)
H23 H 0.4529 0.7403 0.0866
H24 H 0.5139 0.7624 0.0422
H25 H 0.5510 0.7002 0.0689
C23 C 0.2953(2) 0.73716(10) 0.00614(9)
H26 H 0.2392 0.7179 -0.0190
H27 H 0.3241 0.7737 -0.0072
H28 H 0.2584 0.7473 0.0343
C24 C 0.4465(2) 0.67691(11) -0.02236(9)
H29 H 0.5126 0.6506 -0.0124
H30 H 0.4716 0.7128 -0.0379
H31 H 0.3886 0.6558 -0.0456
C25 C -0.04788(15) 0.43334(9) 0.06377(7)
C26 C -0.05497(18) 0.39446(10) 0.10873(8)
H32 H 0.0144 0.3697 0.1160
H33 H -0.1229 0.3686 0.1022
H34 H -0.0609 0.4202 0.1368
C27 C -0.15735(17) 0.47043(10) 0.05300(8)
H35 H -0.1636 0.4961 0.0811
H36 H -0.2241 0.4437 0.0468
H37 H -0.1548 0.4954 0.0241
C28 C -0.04155(19) 0.39467(11) 0.01953(8)
H38 H -0.0276 0.4200 -0.0078
H39 H -0.1144 0.3732 0.0104
H40 H 0.0214 0.3658 0.0273
N1 N 0.41034(13) 0.63734(7) 0.13070(5)
N2 N 0.34584(13) 0.64043(7) 0.04297(6)
N3 N 0.50390(12) 0.57843(7) 0.08057(5)
N4 N 0.25470(13) 0.59116(7) 0.19036(5)
N5 N 0.12921(13) 0.48696(7) 0.15559(6)
N6 N 0.05031(13) 0.47644(7) 0.06993(5)
N7 N 0.21474(13) 0.42080(7) 0.10816(6)
N8 N 0.45202(13) 0.45062(7) 0.09301(6)
O1 O 0.58469(11) 0.59648(6) 0.15929(5)
O2 O 0.25610(12) 0.41775(7) 0.19081(5)
C57? C 0.628(9) 0.215(5) 0.420(3)
C58? C 0.5097(7) 0.2198(4) 0.4011(3)
C59? C 0.6699(6) 0.1494(3) 0.4193(3)
C60? C 0.6547(7) 0.2361(3) 0.4742(3)
H83? H 0.4799 0.2577 0.4116
H84? H 0.4686 0.1864 0.4135
H85? H 0.4984 0.2183 0.3654
H86? H 0.6439 0.1272 0.4460
H87? H 0.7542 0.1486 0.4236
H88? H 0.6382 0.1308 0.3880
H89? H 0.6297 0.2777 0.4766
H90? H 0.7376 0.2333 0.4858
H91? H 0.6136 0.2105 0.4943
O7? O 0.2869(4) 0.2983(3) 0.2139(3)
O8? O 0.2790(4) 0.3309(3) 0.2623(3)
loop_
_geom_bond_atom_site_label_1
_geom_bond_atom_site_label_2
_geom_bond_site_symmetry_1
_geom_bond_site_symmetry_2
C1 N1 1_555 1_555
C2 H1 1_555 1_555
H2 C2 1_555 1_555
C3 H3 1_555 1_555
H4 C3 1_555 1_555
C4 H5 1_555 1_555
H6 C4 1_555 1_555
C5 C4 1_555 1_555
C6 C5 1_555 1_555
H7 C6 1_555 1_555
C7 C6 1_555 1_555
H8 C7 1_555 1_555
C8 C7 1_555 1_555
H9 C8 1_555 1_555
C9 C8 1_555 1_555
C10 C9 1_555 1_555
H10 C10 1_555 1_555
H11 C10 1_555 1_555
C11 N5 1_555 1_555
C12 H12 1_555 1_555
H13 C12 1_555 1_555
C13 H14 1_555 1_555
H15 C13 1_555 1_555
C14 H16 1_555 1_555
H17 C14 1_555 1_555
C15 C14 1_555 1_555
C16 C15 1_555 1_555
H18 C16 1_555 1_555
C17 C16 1_555 1_555
H19 C17 1_555 1_555
C18 C17 1_555 1_555
H20 C18 1_555 1_555
C19 C18 1_555 1_555
C20 C19 1_555 1_555
H21 C20 1_555 1_555
H22 C20 1_555 1_555
C21 C22 1_555 1_555
C22 H23 1_555 1_555
H24 C22 1_555 1_555
H25 C22 1_555 1_555
C23 C21 1_555 1_555
H26 C23 1_555 1_555
H27 C23 1_555 1_555
H28 C23 1_555 1_555
C24 C21 1_555 1_555
H29 C24 1_555 1_555
H30 C24 1_555 1_555
H31 C24 1_555 1_555
C25 C26 1_555 1_555
C26 H32 1_555 1_555
H33 C26 1_555 1_555
H34 C26 1_555 1_555
C27 C25 1_555 1_555
H35 C27 1_555 1_555
H36 C27 1_555 1_555
H37 C27 1_555 1_555
C28 C25 1_555 1_555
H38 C28 1_555 1_555
H39 C28 1_555 1_555
H40 C28 1_555 1_555
C29 N9 1_555 1_555
C30 H41 1_555 1_555
H42 C30 1_555 1_555
C31 H43 1_555 1_555
H44 C31 1_555 1_555
C32 H45 1_555 1_555
H46 C32 1_555 1_555
C33 C32 1_555 1_555
C34 C33 1_555 1_555
H47 C34 1_555 1_555
C35 C34 1_555 1_555
H48 C35 1_555 1_555
C36 C35 1_555 1_555
H49 C36 1_555 1_555
C37 C36 1_555 1_555
C38 C37 1_555 1_555
H50 C38 1_555 1_555
H51 C38 1_555 1_555
C39 N13 1_555 1_555
C40 H52 1_555 1_555
H53 C40 1_555 1_555
C41 H54 1_555 1_555
H55 C41 1_555 1_555
C42 H56 1_555 1_555
H57 C42 1_555 1_555
C43 C42 1_555 1_555
C44 C43 1_555 1_555
H58 C44 1_555 1_555
C45 C44 1_555 1_555
H59 C45 1_555 1_555
C46 C45 1_555 1_555
H60 C46 1_555 1_555
C47 C46 1_555 1_555
C48 C47 1_555 1_555
H61 C48 1_555 1_555
H62 C48 1_555 1_555
C49 C50 1_555 1_555
C50 H63 1_555 1_555
H64 C50 1_555 1_555
H65 C50 1_555 1_555
C51 C49 1_555 1_555
H66 C51 1_555 1_555
H67 C51 1_555 1_555
H68 C51 1_555 1_555
C52 C49 1_555 1_555
H69 C52 1_555 1_555
H70 C52 1_555 1_555
H71 C52 1_555 1_555
C53 C54 1_555 1_555
C54 H72 1_555 1_555
H73 C54 1_555 1_555
H74 C54 1_555 1_555
C55 C53 1_555 1_555
H75 C55 1_555 1_555
H76 C55 1_555 1_555
H77 C55 1_555 1_555
C56 C53 1_555 1_555
H78 C56 1_555 1_555
H79 C56 1_555 1_555
H80 C56 1_555 1_555
N1 C2 1_555 1_555
N2 C2 1_555 1_555
N3 C1 1_555 1_555
N4 C5 1_555 1_555
N5 C10 1_555 1_555
N6 C12 1_555 1_555
N7 C11 1_555 1_555
N8 C15 1_555 1_555
N9 C30 1_555 1_555
N10 C30 1_555 1_555
N11 C29 1_555 1_555
N12 C33 1_555 1_555
N13 C38 1_555 1_555
N14 C40 1_555 1_555
N15 C39 1_555 1_555
N16 C43 1_555 1_555
O1 C1 1_555 1_555
O2 C11 1_555 1_555
O3 C29 1_555 1_555
O4 C39 1_555 1_555
O5 H81 1_555 1_555
H82 O5 1_555 1_555
C3 N2 1_555 1_555
C3 N3 1_555 1_555
C4 N1 1_555 1_555
C9 N4 1_555 1_555
C12 N5 1_555 1_555
C13 N6 1_555 1_555
C13 N7 1_555 1_555
C14 N7 1_555 1_555
C19 N8 1_555 1_555
C20 N3 1_555 1_555
C21 N2 1_555 1_555
C25 N6 1_555 1_555
C31 N10 1_555 1_555
C31 N11 1_555 1_555
C32 N9 1_555 1_555
C37 N12 1_555 1_555
C40 N13 1_555 1_555
C41 N14 1_555 1_555
C41 N15 1_555 1_555
C42 N15 1_555 1_555
C47 N16 1_555 1_555
C48 N11 1_555 1_555
C49 N10 1_555 1_555
C53 N14 1_555 1_555

#END
