
#######################################################################
#
#                 Cambridge Crystallographic Data Centre
#                                CCDC 
#
#######################################################################
#
# If this CIF has been generated from an entry in the Cambridge 
# Structural Database, then it will include bibliographic, chemical, 
# crystal, experimental, refinement or atomic coordinate data resulting 
# from the CCDC's data processing and validation procedures.
#
#######################################################################

data_MAMNIZ
_chemical_formula_moiety         'C56 H80 N16 O4,2(C1 H1 Cl3)'
_chemical_name_systematic        
'11,23,35,47-Tetra-t-butyl-1,9,11,13,21,23,25,33,35,37,45,47,50,52,54,56-hexadecaazanonacyclo[43.3.1.1^3,7^.1^9,13^.1^15,19^.1^21,25^.1^27,31^.1^33,37^.1^39,43^]hexapentaconta-3(56),4,6,15(54),16,18,27(52),28,30,39(50),40,42-dodecaene-49,51,53,55-tetrone chloroform solvate'
_symmetry_cell_setting           triclinic
_symmetry_space_group_name_H-M   'P -1'
_symmetry_Int_Tables_number      2
_space_group_name_Hall           '-P 1'
loop_
_symmetry_equiv_pos_site_id
_symmetry_equiv_pos_as_xyz
1 x,y,z
2 -x,-y,-z
_cell_length_a                   9.0435(5)
_cell_length_b                   10.8574(6)
_cell_length_c                   17.0752(10)
_cell_angle_alpha                79.582(1)
_cell_angle_beta                 87.561(1)
_cell_angle_gamma                72.068(1)
_cell_volume                     1568.7
_exptl_crystal_colour            colorless
_exptl_crystal_description       plate
_cell_formula_units_Z            1
loop_
_atom_site_label
_atom_site_type_symbol
_atom_site_fract_x
_atom_site_fract_y
_atom_site_fract_z
C1 C 0.3666(5) 0.1943(4) 0.5651(2)
C2 C 0.1249(4) 0.3111(4) 0.4830(2)
H1 H 0.1234 0.4010 0.4575
H2 H 0.0726 0.2768 0.4461
C3 C 0.1334(4) 0.3417(4) 0.6135(2)
H3 H 0.0756 0.3502 0.6638
H4 H 0.1556 0.4256 0.5938
C4 C -0.0448(4) 0.2178(4) 0.5798(2)
C5 C 0.0591(4) 0.0739(3) 0.5864(2)
H5 H 0.1090 0.0606 0.5352
H6 H -0.0048 0.0149 0.6004
H7 H 0.1389 0.0547 0.6277
C6 C -0.1735(4) 0.2463(4) 0.5174(2)
H8 H -0.2339 0.3396 0.5098
H9 H -0.2422 0.1928 0.5358
H10 H -0.1269 0.2245 0.4669
C7 C -0.1234(4) 0.2385(4) 0.6596(2)
H11 H -0.0448 0.2057 0.7025
H12 H -0.2000 0.1905 0.6693
H13 H -0.1756 0.3325 0.6582
C8 C 0.3632(4) 0.2160(3) 0.7039(2)
H14 H 0.3946 0.2950 0.7059
H15 H 0.4589 0.1404 0.7055
C9 C 0.2673(4) 0.1910(4) 0.7761(2)
C10 C 0.2555(4) 0.0680(4) 0.8046(2)
H16 H 0.3086 -0.0037 0.7790
C11 C 0.1666(4) 0.0490(4) 0.8701(2)
H17 H 0.1573 -0.0356 0.8905
C12 C 0.0909(4) 0.1556(4) 0.9058(2)
H18 H 0.0277 0.1461 0.9509
C13 C 0.1093(4) 0.2768(4) 0.8741(2)
C14 C 0.0352(4) 0.3944(3) 0.9143(2)
H19 H -0.0682 0.3907 0.9339
H20 H 0.0998 0.3879 0.9611
C15 C 0.1421(5) 0.5667(4) 0.8526(2)
C16 C -0.1059(4) 0.5644(4) 0.8017(2)
H21 H -0.0721 0.5133 0.7581
H22 H -0.2009 0.5463 0.8248
C17 C -0.0011(4) 0.7219(4) 0.7363(2)
H23 H -0.0185 0.8175 0.7193
H24 H 0.0242 0.6805 0.6883
C18 C -0.2298(4) 0.7988(4) 0.8195(2)
C19 C -0.1323(4) 0.8284(4) 0.8801(2)
H25 H -0.0752 0.7463 0.9146
H26 H -0.2005 0.8880 0.9125
H27 H -0.0584 0.8701 0.8521
C20 C -0.3543(4) 0.7471(4) 0.8637(3)
H28 H -0.4126 0.7210 0.8260
H29 H -0.4253 0.8162 0.8891
H30 H -0.3050 0.6708 0.9046
C21 C -0.3090(5) 0.9249(4) 0.7632(2)
H31 H -0.2302 0.9587 0.7337
H32 H -0.3720 0.9902 0.7938
H33 H -0.3761 0.9075 0.7258
C22 C 0.7404(4) 0.2783(4) 0.2245(2)
H34 H 0.6749 0.3018 0.1758
H35 H 0.7824 0.1812 0.2368
C23 C 0.6390(4) 0.3257(4) 0.2927(2)
C24 C 0.6280(4) 0.4445(4) 0.3140(2)
H36 H 0.6863 0.4983 0.2871
C25 C 0.5302(4) 0.4838(4) 0.3753(2)
H37 H 0.5202 0.5652 0.3915
C26 C 0.4480(4) 0.4031(4) 0.4124(2)
H38 H 0.3804 0.4277 0.4549
C27 C 0.4646(4) 0.2864(4) 0.3875(2)
C28 C 0.3752(4) 0.1939(4) 0.4239(2)
H39 H 0.4495 0.1044 0.4379
H40 H 0.3022 0.1911 0.3831
N1 N 0.2879(3) 0.2273(3) 0.49415(19)
N2 N 0.0376(3) 0.3189(3) 0.55555(18)
N3 N 0.2809(3) 0.2352(3) 0.62955(18)
N4 N 0.1955(3) 0.2954(3) 0.81020(18)
N5 N 0.0167(3) 0.5205(3) 0.86322(17)
N6 N -0.1420(3) 0.7016(3) 0.76946(17)
N7 N 0.8686(3) 0.3318(3) 0.20834(18)
N8 N 0.5592(3) 0.2460(3) 0.32870(17)
O1 O 0.5047(3) 0.1297(2) 0.57154(15)
O2 O 0.2549(3) 0.5223(2) 0.89886(15)
C1A C 0.6334(5) 0.8057(4) 0.4349(2)
C2A C 0.8751(4) 0.6889(4) 0.5170(2)
H1A H 0.8766 0.5990 0.5425
H2A H 0.9274 0.7232 0.5539
C3A C 0.8666(4) 0.6583(4) 0.3865(2)
H3A H 0.9244 0.6498 0.3362
H4A H 0.8444 0.5744 0.4062
C4A C 1.0448(4) 0.7822(4) 0.4202(2)
C5A C 0.9409(4) 0.9261(3) 0.4136(2)
H5A H 0.8910 0.9394 0.4648
H6A H 1.0048 0.9851 0.3996
H7A H 0.8611 0.9453 0.3723
C6A C 1.1735(4) 0.7537(4) 0.4826(2)
H8A H 1.2339 0.6604 0.4902
H9A H 1.2422 0.8072 0.4642
H10A H 1.1269 0.7755 0.5331
C7A C 1.1234(4) 0.7615(4) 0.3404(2)
H11A H 1.0448 0.7943 0.2975
H12A H 1.2000 0.8095 0.3307
H13A H 1.1756 0.6675 0.3418
C8A C 0.6368(4) 0.7840(3) 0.2961(2)
H14A H 0.6054 0.7050 0.2941
H15A H 0.5411 0.8596 0.2945
C9A C 0.7327(4) 0.8090(4) 0.2239(2)
C10A C 0.7445(4) 0.9320(4) 0.1954(2)
H16A H 0.6914 1.0037 0.2210
C11A C 0.8334(4) 0.9510(4) 0.1299(2)
H17A H 0.8427 1.0356 0.1095
C12A C 0.9091(4) 0.8444(4) 0.0942(2)
H18A H 0.9723 0.8539 0.0491
C13A C 0.8907(4) 0.7232(4) 0.1259(2)
C14A C 0.9648(4) 0.6056(3) 0.0857(2)
H19A H 1.0682 0.6093 0.0661
H20A H 0.9002 0.6121 0.0389
C15A C 0.8579(5) 0.4333(4) 0.1474(2)
C16A C 1.1059(4) 0.4356(4) 0.1983(2)
H21A H 1.0721 0.4867 0.2419
H22A H 1.2009 0.4537 0.1752
C17A C 1.0011(4) 0.2781(4) 0.2637(2)
H23A H 1.0185 0.1825 0.2807
H24A H 0.9758 0.3195 0.3117
C18A C 1.2298(4) 0.2012(4) 0.1805(2)
C19A C 1.1323(4) 0.1716(4) 0.1199(2)
H25A H 1.0752 0.2537 0.0854
H26A H 1.2005 0.1120 0.0875
H27A H 1.0584 0.1299 0.1479
C20A C 1.3543(4) 0.2529(4) 0.1363(3)
H28A H 1.4126 0.2790 0.1740
H29A H 1.4253 0.1838 0.1109
H30A H 1.3050 0.3292 0.0954
C21A C 1.3090(5) 0.0751(4) 0.2368(2)
H31A H 1.2302 0.0413 0.2663
H32A H 1.3720 0.0098 0.2062
H33A H 1.3761 0.0925 0.2742
C22A C 0.2596(4) 0.7217(4) 0.7755(2)
H34A H 0.3251 0.6982 0.8242
H35A H 0.2176 0.8188 0.7632
C23A C 0.3610(4) 0.6743(4) 0.7073(2)
C24A C 0.3720(4) 0.5555(4) 0.6860(2)
H36A H 0.3137 0.5017 0.7129
C25A C 0.4698(4) 0.5162(4) 0.6247(2)
H37A H 0.4798 0.4348 0.6085
C26A C 0.5520(4) 0.5969(4) 0.5876(2)
H38A H 0.6196 0.5723 0.5451
C27A C 0.5354(4) 0.7136(4) 0.6125(2)
C28A C 0.6248(4) 0.8061(4) 0.5761(2)
H39A H 0.5505 0.8956 0.5621
H40A H 0.6978 0.8089 0.6169
N1A N 0.7121(3) 0.7727(3) 0.50585(19)
N2A N 0.9624(3) 0.6811(3) 0.44445(18)
N3A N 0.7191(3) 0.7648(3) 0.37045(18)
N4A N 0.8045(3) 0.7046(3) 0.18980(18)
N5A N 0.9833(3) 0.4795(3) 0.13678(17)
N6A N 1.1420(3) 0.2984(3) 0.23054(17)
N7A N 0.1314(3) 0.6682(3) 0.79166(18)
N8A N 0.4408(3) 0.7540(3) 0.67130(17)
O1A O 0.4953(3) 0.8703(2) 0.42846(15)
O2A O 0.7451(3) 0.4777(2) 0.10114(15)
C29 C 0.5548(4) 0.2915(3) 0.9147(2)
H41 H 0.4491 0.3563 0.9028
Cl1 Cl 0.53350(13) 0.13502(11) 0.94592(7)
Cl2 Cl 0.64203(12) 0.33831(10) 0.98901(6)
Cl3 Cl 0.66371(13) 0.29406(12) 0.82703(7)
loop_
_geom_bond_atom_site_label_1
_geom_bond_atom_site_label_2
_geom_bond_site_symmetry_1
_geom_bond_site_symmetry_2
C1 N1 1_555 1_555
C2 H1 1_555 1_555
H2 C2 1_555 1_555
C3 H3 1_555 1_555
H4 C3 1_555 1_555
C4 C5 1_555 1_555
C5 H5 1_555 1_555
H6 C5 1_555 1_555
H7 C5 1_555 1_555
C6 C4 1_555 1_555
H8 C6 1_555 1_555
H9 C6 1_555 1_555
H10 C6 1_555 1_555
C7 C4 1_555 1_555
H11 C7 1_555 1_555
H12 C7 1_555 1_555
H13 C7 1_555 1_555
C8 H14 1_555 1_555
H15 C8 1_555 1_555
C9 C8 1_555 1_555
C10 C9 1_555 1_555
H16 C10 1_555 1_555
C11 C10 1_555 1_555
H17 C11 1_555 1_555
C12 C11 1_555 1_555
H18 C12 1_555 1_555
C13 C12 1_555 1_555
C14 C13 1_555 1_555
H19 C14 1_555 1_555
H20 C14 1_555 1_555
C15 N5 1_555 1_555
C16 H21 1_555 1_555
H22 C16 1_555 1_555
C17 H23 1_555 1_555
H24 C17 1_555 1_555
C18 C19 1_555 1_555
C19 H25 1_555 1_555
H26 C19 1_555 1_555
H27 C19 1_555 1_555
C20 C18 1_555 1_555
H28 C20 1_555 1_555
H29 C20 1_555 1_555
H30 C20 1_555 1_555
C21 C18 1_555 1_555
H31 C21 1_555 1_555
H32 C21 1_555 1_555
H33 C21 1_555 1_555
C22 H34 1_555 1_555
H35 C22 1_555 1_555
C23 C22 1_555 1_555
C24 C23 1_555 1_555
H36 C24 1_555 1_555
C25 C24 1_555 1_555
H37 C25 1_555 1_555
C26 C25 1_555 1_555
H38 C26 1_555 1_555
C27 C26 1_555 1_555
C28 C27 1_555 1_555
H39 C28 1_555 1_555
H40 C28 1_555 1_555
N1 C2 1_555 1_555
N2 C2 1_555 1_555
N3 C1 1_555 1_555
N4 C9 1_555 1_555
N5 C14 1_555 1_555
N6 C16 1_555 1_555
N7 C22 1_555 1_555
N8 C23 1_555 1_555
O1 C1 1_555 1_555
O2 C15 1_555 1_555
C29 H41 1_555 1_555
Cl1 C29 1_555 1_555
Cl2 C29 1_555 1_555
Cl3 C29 1_555 1_555
C1A N1A 1_555 1_555
C2A H1A 1_555 1_555
H2A C2A 1_555 1_555
C3A H3A 1_555 1_555
H4A C3A 1_555 1_555
C4A C5A 1_555 1_555
C5A H5A 1_555 1_555
H6A C5A 1_555 1_555
H7A C5A 1_555 1_555
C6A C4A 1_555 1_555
H8A C6A 1_555 1_555
H9A C6A 1_555 1_555
H10A C6A 1_555 1_555
C7A C4A 1_555 1_555
H11A C7A 1_555 1_555
H12A C7A 1_555 1_555
H13A C7A 1_555 1_555
C8A H14A 1_555 1_555
H15A C8A 1_555 1_555
C9A C8A 1_555 1_555
C10A C9A 1_555 1_555
H16A C10A 1_555 1_555
C11A C10A 1_555 1_555
H17A C11A 1_555 1_555
C12A C11A 1_555 1_555
H18A C12A 1_555 1_555
C13A C12A 1_555 1_555
C14A C13A 1_555 1_555
H19A C14A 1_555 1_555
H20A C14A 1_555 1_555
C15A N7 1_555 1_555
C16A H21A 1_555 1_555
H22A C16A 1_555 1_555
C17A N7 1_555 1_555
H23A C17A 1_555 1_555
H24A C17A 1_555 1_555
C18A C19A 1_555 1_555
C19A H25A 1_555 1_555
H26A C19A 1_555 1_555
H27A C19A 1_555 1_555
C20A C18A 1_555 1_555
H28A C20A 1_555 1_555
H29A C20A 1_555 1_555
H30A C20A 1_555 1_555
C21A C18A 1_555 1_555
H31A C21A 1_555 1_555
H32A C21A 1_555 1_555
H33A C21A 1_555 1_555
C22A H34A 1_555 1_555
H35A C22A 1_555 1_555
C23A C22A 1_555 1_555
C24A C23A 1_555 1_555
H36A C24A 1_555 1_555
C25A C24A 1_555 1_555
H37A C25A 1_555 1_555
C26A C25A 1_555 1_555
H38A C26A 1_555 1_555
C27A C26A 1_555 1_555
C28A C27A 1_555 1_555
H39A C28A 1_555 1_555
H40A C28A 1_555 1_555
N1A C2A 1_555 1_555
N2A C2A 1_555 1_555
N3A C1A 1_555 1_555
N4A C9A 1_555 1_555
N5A C14A 1_555 1_555
N6A C16A 1_555 1_555
N7A C15 1_555 1_555
N8A C23A 1_555 1_555
O1A C1A 1_555 1_555
O2A C15A 1_555 1_555
C3 N2 1_555 1_555
C3 N3 1_555 1_555
C4 N2 1_555 1_555
C8 N3 1_555 1_555
C13 N4 1_555 1_555
C16 N5 1_555 1_555
C17 N6 1_555 1_555
C17 N7A 1_555 1_555
C18 N6 1_555 1_555
C27 N8 1_555 1_555
C28 N1 1_555 1_555
C3A N2A 1_555 1_555
C3A N3A 1_555 1_555
C4A N2A 1_555 1_555
C8A N3A 1_555 1_555
C13A N4A 1_555 1_555
C15A N5A 1_555 1_555
C16A N5A 1_555 1_555
C17A N6A 1_555 1_555
C18A N6A 1_555 1_555
C22A N7A 1_555 1_555
C27A N8A 1_555 1_555
C28A N1A 1_555 1_555

#END
