
#######################################################################
#
#                 Cambridge Crystallographic Data Centre
#                                CCDC 
#
#######################################################################
#
# If this CIF has been generated from an entry in the Cambridge 
# Structural Database, then it will include bibliographic, chemical, 
# crystal, experimental, refinement or atomic coordinate data resulting 
# from the CCDC's data processing and validation procedures.
#
#######################################################################

data_MAMPOI
_chemical_formula_moiety         'C30 H23 Cl1 N2 O3 S1'
_chemical_name_systematic        
(3-(4-chlorophenyl)-4-((4-methylphenyl)sulfonyl)-6-phenyl-3,4-dihydropyrazin-2-yl)(phenyl)methanone
_symmetry_cell_setting           monoclinic
_symmetry_space_group_name_H-M   'P 21/n'
_symmetry_Int_Tables_number      14
_space_group_name_Hall           '-P 2yn'
loop_
_symmetry_equiv_pos_site_id
_symmetry_equiv_pos_as_xyz
1 x,y,z
2 1/2-x,1/2+y,1/2-z
3 -x,-y,-z
4 1/2+x,1/2-y,1/2+z
_cell_length_a                   8.105(3)
_cell_length_b                   20.282(8)
_cell_length_c                   16.109(7)
_cell_angle_alpha                90
_cell_angle_beta                 96.727(7)
_cell_angle_gamma                90
_cell_volume                     2629.86
_cell_formula_units_Z            4
loop_
_atom_site_label
_atom_site_type_symbol
_atom_site_fract_x
_atom_site_fract_y
_atom_site_fract_z
S1 S 0.7299(4) 0.07582(14) 0.25109(18)
Cl1 Cl 1.4350(6) -0.1531(3) 0.4744(3)
N1 N 0.9341(10) 0.0617(4) 0.2596(5)
O1 O 1.1259(10) 0.1792(4) 0.4559(5)
O2 O 0.6779(10) 0.0569(4) 0.3277(5)
C1 C 1.1399(12) 0.0242(5) 0.3730(6)
C2 C 1.0359(12) 0.0823(5) 0.3393(6)
N2 N 1.1877(10) 0.1518(4) 0.2490(5)
C3 C 1.2388(12) 0.1127(5) 0.1123(6)
C4 C 1.1595(11) 0.1955(5) 0.3865(6)
O3 O 0.6673(11) 0.0460(4) 0.1768(5)
C5 C 1.2310(12) 0.2582(5) 0.3697(6)
C6 C 1.0114(12) 0.0685(5) 0.1869(6)
C7 C 1.1307(11) 0.1423(5) 0.3203(6)
C8 C 0.7134(13) 0.1622(5) 0.2427(7)
C9 C 1.1469(12) 0.1064(5) 0.1848(6)
C10 C 1.0653(13) -0.0278(6) 0.4081(7)
C11 C 1.1523(14) -0.0838(6) 0.4396(7)
C12 C 1.3117(12) 0.0205(5) 0.3718(6)
C13 C 1.3190(13) -0.0842(5) 0.4362(7)
C14 C 0.6942(14) 0.1975(6) 0.3145(8)
C15 C 1.3957(16) 0.1784(6) 0.0250(9)
C16 C 1.3432(16) 0.0604(6) -0.0096(8)
C17 C 1.4030(14) -0.0329(6) 0.4041(7)
C18 C 1.3278(13) 0.2899(5) 0.4371(7)
C19 C 1.2605(15) 0.0544(6) 0.0612(8)
C20 C 0.7277(14) 0.2982(6) 0.2347(8)
C21 C 1.1939(14) 0.2922(6) 0.2946(7)
C22 C 1.3093(15) 0.1698(6) 0.0905(7)
C23 C 0.7301(14) 0.1930(6) 0.1686(8)
C24 C 0.7465(16) 0.2617(6) 0.1647(8)
C25 C 0.7062(17) 0.2698(7) 0.3085(9)
C26 C 1.2515(19) 0.3542(8) 0.2861(10)
C27 C 1.367(2) 0.3838(7) 0.3514(10)
C28 C 0.743(2) 0.3720(8) 0.2364(10)
C29 C 1.4094(16) 0.1204(6) -0.0267(9)
C30 C 1.4017(17) 0.3536(7) 0.4258(9)
loop_
_geom_bond_atom_site_label_1
_geom_bond_atom_site_label_2
_geom_bond_site_symmetry_1
_geom_bond_site_symmetry_2
S1 N1 1_555 1_555
Cl1 C13 1_555 1_555
N1 C2 1_555 1_555
O1 C4 1_555 1_555
O2 S1 1_555 1_555
C1 C2 1_555 1_555
C2 C7 1_555 1_555
N2 C7 1_555 1_555
C3 C9 1_555 1_555
C4 C5 1_555 1_555
O3 S1 1_555 1_555
C5 C18 1_555 1_555
C6 N1 1_555 1_555
C7 C4 1_555 1_555
C8 S1 1_555 1_555
C9 N2 1_555 1_555
C10 C1 1_555 1_555
C11 C10 1_555 1_555
C12 C1 1_555 1_555
C13 C11 1_555 1_555
C14 C8 1_555 1_555
C15 C22 1_555 1_555
C16 C19 1_555 1_555
C17 C12 1_555 1_555
C18 C30 1_555 1_555
C19 C3 1_555 1_555
C20 C24 1_555 1_555
C21 C5 1_555 1_555
C22 C3 1_555 1_555
C23 C8 1_555 1_555
C24 C23 1_555 1_555
C25 C14 1_555 1_555
C26 C21 1_555 1_555
C27 C26 1_555 1_555
C28 C20 1_555 1_555
C29 C15 1_555 1_555
C30 C27 1_555 1_555
C6 C9 1_555 1_555
C13 C17 1_555 1_555
C16 C29 1_555 1_555
C20 C25 1_555 1_555

#END
