
#######################################################################
#
#                 Cambridge Crystallographic Data Centre
#                                CCDC 
#
#######################################################################
#
# If this CIF has been generated from an entry in the Cambridge 
# Structural Database, then it will include bibliographic, chemical, 
# crystal, experimental, refinement or atomic coordinate data resulting 
# from the CCDC's data processing and validation procedures.
#
#######################################################################

data_MAMPOL02
_chemical_formula_moiety         'C6 H7 N1 O1'
_chemical_name_systematic        3-Aminophenol
_symmetry_cell_setting           orthorhombic
_symmetry_space_group_name_H-M   'P c a 21'
_symmetry_Int_Tables_number      29
_space_group_name_Hall           'P 2c -2ac'
loop_
_symmetry_equiv_pos_site_id
_symmetry_equiv_pos_as_xyz
1 x,y,z
2 -x,-y,1/2+z
3 1/2-x,y,1/2+z
4 1/2+x,-y,z
_cell_length_a                   11.226(2)
_cell_length_b                   6.101(2)
_cell_length_c                   8.282(2)
_cell_angle_alpha                90
_cell_angle_beta                 90
_cell_angle_gamma                90
_cell_volume                     567.233
_cell_formula_units_Z            4
loop_
_atom_site_label
_atom_site_type_symbol
_atom_site_fract_x
_atom_site_fract_y
_atom_site_fract_z
C1 C -0.0657(2) 0.3777(3) 0.0947(3)
C2 C 0.0188(2) 0.2701(4) 0.1927(3)
C3 C -0.1777(2) 0.2817(3) 0.0674(3)
C4 C -0.0095(2) 0.0701(4) 0.2675(3)
C5 C -0.1209(2) -0.0264(4) 0.2370(3)
C6 C -0.2046(2) 0.0786(4) 0.1363(3)
N1 N -0.2659(1) 0.3987(3) -0.0211(2)
O1 O 0.1291(2) 0.3575(4) 0.2197(4)
H1 H -0.0451(5) 0.5359(8) 0.0403(6)
H2 H 0.0558(5) -0.0094(11) 0.3450(8)
H3 H -0.1430(6) -0.1850(9) 0.2917(8)
H4 H -0.2913(5) 0.0021(10) 0.1146(9)
H5 H 0.1565(4) 0.4503(9) 0.1259(6)
H6 H -0.2291(5) 0.5025(10) -0.1050(7)
H7 H -0.3226(5) 0.2955(11) -0.0815(7)
loop_
_geom_bond_atom_site_label_1
_geom_bond_atom_site_label_2
_geom_bond_site_symmetry_1
_geom_bond_site_symmetry_2
C1 C2 1_555 1_555
C2 C4 1_555 1_555
C3 C1 1_555 1_555
C4 C5 1_555 1_555
C5 C6 1_555 1_555
C6 C3 1_555 1_555
N1 C3 1_555 1_555
O1 C2 1_555 1_555
H1 C1 1_555 1_555
H2 C4 1_555 1_555
H3 C5 1_555 1_555
H4 C6 1_555 1_555
H5 O1 1_555 1_555
H6 N1 1_555 1_555
H7 N1 1_555 1_555

#END
