
#######################################################################
#
#                 Cambridge Crystallographic Data Centre
#                                CCDC 
#
#######################################################################
#
# If this CIF has been generated from an entry in the Cambridge 
# Structural Database, then it will include bibliographic, chemical, 
# crystal, experimental, refinement or atomic coordinate data resulting 
# from the CCDC's data processing and validation procedures.
#
#######################################################################

data_MAMQUM
_chemical_formula_moiety         'C16 H20 B10 F4 O1'
_chemical_name_systematic        
1-(4-Ethoxy-tetrafluorophenyl)-12-phenyl-1,12-dicarba-closo-dodecaborane
_symmetry_cell_setting           monoclinic
_symmetry_space_group_name_H-M   'P 21/n'
_symmetry_Int_Tables_number      14
_space_group_name_Hall           '-P 2yn'
loop_
_symmetry_equiv_pos_site_id
_symmetry_equiv_pos_as_xyz
1 x,y,z
2 1/2+x,1/2-y,1/2+z
3 -x,-y,-z
4 1/2-x,1/2+y,1/2-z
_cell_length_a                   10.594(1)
_cell_length_b                   19.072(1)
_cell_length_c                   19.879(1)
_cell_angle_alpha                90
_cell_angle_beta                 96.67(1)
_cell_angle_gamma                90
_cell_volume                     3989.34
_exptl_crystal_colour            colorless
_exptl_crystal_description       block
_cell_formula_units_Z            8
loop_
_atom_site_label
_atom_site_type_symbol
_atom_site_fract_x
_atom_site_fract_y
_atom_site_fract_z
C1 C 0.2211(2) 0.19305(14) 0.12965(13)
B1 B 0.3205(3) 0.1469(2) 0.0821(2)
H1 H 0.3873(3) 0.1726(2) 0.0500(2)
B2 B 0.3498(3) 0.1471(2) 0.1719(2)
H2 H 0.4368(3) 0.1724(2) 0.1988(2)
B3 B 0.2003(3) 0.1510(2) 0.2042(2)
H3 H 0.1883(3) 0.1794(2) 0.2524(2)
B4 B 0.0787(3) 0.1506(2) 0.1348(2)
H4 H -0.0139(3) 0.1783(2) 0.1371(2)
B5 B 0.1546(3) 0.1476(2) 0.0585(2)
H5 H 0.1123(3) 0.1731(2) 0.0104(2)
B6 B 0.3579(3) 0.0689(2) 0.1276(2)
H6 H 0.4503(3) 0.0410(2) 0.1251(2)
B7 B 0.2847(3) 0.0712(2) 0.2032(2)
H7 H 0.3278(3) 0.0452(2) 0.2509(2)
B8 B 0.1175(3) 0.0725(2) 0.1801(2)
H8 H 0.0505(3) 0.0472(2) 0.2124(2)
B9 B 0.0893(3) 0.0710(2) 0.0907(2)
H9 H 0.0031(3) 0.0449(2) 0.0639(2)
B10 B 0.2388(4) 0.0684(2) 0.0584(2)
H10 H 0.2518(4) 0.0401(2) 0.0103(2)
C2 C 0.2163(2) 0.02671(14) 0.13290(13)
C3 C 0.2184(3) 0.27310(14) 0.12847(13)
C4 C 0.1219(2) 0.31122(15) 0.09132(13)
C5 C 0.1170(3) 0.38365(15) 0.09085(14)
C6 C 0.2103(3) 0.42419(15) 0.12660(14)
C7 C 0.3054(3) 0.3877(2) 0.16416(15)
C8 C 0.3097(3) 0.3152(2) 0.16560(14)
F1 F 0.02313(14) 0.27923(8) 0.05436(8)
F2 F 0.01471(15) 0.41455(8) 0.05536(8)
F3 F 0.3994(2) 0.42297(9) 0.20177(9)
F4 F 0.4090(2) 0.28742(9) 0.20462(9)
O1 O 0.2085(2) 0.49569(10) 0.12957(10)
C9 C 0.2041(4) 0.5334(2) 0.0676(2)
H11 H 0.1243(4) 0.5223(2) 0.0385(2)
H12 H 0.2764(4) 0.5195(2) 0.0432(2)
C10 C 0.2104(3) 0.6099(2) 0.0824(2)
H13 H 0.2119(24) 0.6360(2) 0.0400(2)
H14 H 0.2878(13) 0.6202(2) 0.1128(10)
H15 H 0.1358(12) 0.6240(3) 0.1040(12)
C11 C 0.2170(2) -0.05265(14) 0.13526(13)
C12 C 0.3154(3) -0.0880(2) 0.1732(2)
H16 H 0.3827(3) -0.0621(2) 0.1973(2)
C13 C 0.3170(3) -0.1608(2) 0.1763(2)
H17 H 0.3849(3) -0.1843(2) 0.2026(2)
C14 C 0.2206(3) -0.1990(2) 0.1414(2)
H18 H 0.2217(3) -0.2487(2) 0.1436(2)
C15 C 0.1225(3) -0.1649(2) 0.1032(2)
H19 H 0.0559(3) -0.1912(2) 0.0789(2)
C16 C 0.1205(3) -0.0918(2) 0.09997(14)
H20 H 0.0527(3) -0.0687(2) 0.07341(14)
C17 C 0.7743(2) 0.04980(15) 0.35409(13)
B11 B 0.6779(3) 0.0957(2) 0.4035(2)
H21 H 0.6124(3) 0.0700(2) 0.4363(2)
B12 B 0.6447(3) 0.0961(2) 0.3135(2)
H22 H 0.5571(3) 0.0709(2) 0.2870(2)
B13 B 0.7923(3) 0.0931(2) 0.2792(2)
H23 H 0.8022(3) 0.0656(2) 0.2303(2)
B14 B 0.9161(3) 0.0925(2) 0.3472(2)
H24 H 1.0080(3) 0.0648(2) 0.3429(2)
B15 B 0.8446(3) 0.0942(2) 0.4246(2)
H25 H 0.8892(3) 0.0677(2) 0.4718(2)
B16 B 0.6376(3) 0.1744(2) 0.3593(2)
H26 H 0.5457(3) 0.2023(2) 0.3632(2)
B17 B 0.7089(3) 0.1730(2) 0.2829(2)
H27 H 0.6642(3) 0.2000(2) 0.2361(2)
B18 B 0.8754(3) 0.1712(2) 0.3037(2)
H28 H 0.9405(3) 0.1972(2) 0.2707(2)
B19 B 0.9089(3) 0.1710(2) 0.3931(2)
H29 H 0.9965(3) 0.1964(2) 0.4191(2)
B20 B 0.7618(3) 0.1734(2) 0.4277(2)
H30 H 0.7521(3) 0.2007(2) 0.4767(2)
C18 C 0.7799(3) 0.21603(15) 0.35326(14)
C19 C 0.7763(3) -0.02978(14) 0.35837(13)
C20 C 0.6768(3) -0.07345(15) 0.33112(13)
C21 C 0.6778(3) -0.14521(15) 0.33842(14)
C22 C 0.7777(3) -0.18075(15) 0.37435(14)
C23 C 0.8791(3) -0.1391(2) 0.40009(14)
C24 C 0.8780(3) -0.06701(15) 0.39234(14)
F5 F 0.57115(15) -0.04658(9) 0.29600(9)
F6 F 0.57629(15) -0.18204(9) 0.31008(8)
F7 F 0.9852(2) -0.16906(9) 0.43298(9)
F8 F 0.9844(2) -0.03408(8) 0.42008(9)
O2 O 0.7764(2) -0.25185(10) 0.37926(10)
C25 C 0.7914(4) -0.2817(2) 0.4467(2)
H31 H 0.7194(4) -0.2677(2) 0.4713(2)
H32 H 0.8712(4) -0.2646(2) 0.4724(2)
C26 C 0.7951(3) -0.3596(2) 0.4400(2)
H33 H 0.8033(22) -0.3810(2) 0.4851(2)
H34 H 0.8680(13) -0.3730(2) 0.4166(11)
H35 H 0.7165(10) -0.3759(2) 0.4138(10)
C27 C 0.7799(3) 0.29578(14) 0.35357(14)
C28 C 0.6803(3) 0.3331(2) 0.3192(2)
H36 H 0.6122(3) 0.3088(2) 0.2939(2)
C29 C 0.6798(3) 0.4062(2) 0.3216(2)
H37 H 0.6111(3) 0.4316(2) 0.2980(2)
C30 C 0.7781(3) 0.4416(2) 0.3578(2)
H38 H 0.7774(3) 0.4914(2) 0.3591(2)
C31 C 0.8772(3) 0.4055(2) 0.3920(2)
H39 H 0.9450(3) 0.4301(2) 0.4171(2)
C32 C 0.8786(3) 0.3326(2) 0.3900(2)
H40 H 0.9476(3) 0.3077(2) 0.4138(2)
loop_
_geom_bond_atom_site_label_1
_geom_bond_atom_site_label_2
_geom_bond_site_symmetry_1
_geom_bond_site_symmetry_2
C1 B1 1_555 1_555
B1 H1 1_555 1_555
B2 C1 1_555 1_555
H2 B2 1_555 1_555
B3 C1 1_555 1_555
H3 B3 1_555 1_555
B4 C1 1_555 1_555
H4 B4 1_555 1_555
B5 C1 1_555 1_555
H5 B5 1_555 1_555
B6 B1 1_555 1_555
H6 B6 1_555 1_555
B7 B2 1_555 1_555
H7 B7 1_555 1_555
B8 B3 1_555 1_555
H8 B8 1_555 1_555
B9 B4 1_555 1_555
H9 B9 1_555 1_555
B10 B1 1_555 1_555
H10 B10 1_555 1_555
C2 B6 1_555 1_555
C3 C1 1_555 1_555
C4 C3 1_555 1_555
C5 C4 1_555 1_555
C6 C5 1_555 1_555
C7 C6 1_555 1_555
C8 C3 1_555 1_555
F1 C4 1_555 1_555
F2 C5 1_555 1_555
F3 C7 1_555 1_555
F4 C8 1_555 1_555
O1 C6 1_555 1_555
C9 O1 1_555 1_555
H11 C9 1_555 1_555
H12 C9 1_555 1_555
C10 C9 1_555 1_555
H13 C10 1_555 1_555
H14 C10 1_555 1_555
H15 C10 1_555 1_555
C11 C2 1_555 1_555
C12 C11 1_555 1_555
H16 C12 1_555 1_555
C13 C12 1_555 1_555
H17 C13 1_555 1_555
C14 C13 1_555 1_555
H18 C14 1_555 1_555
C15 C14 1_555 1_555
H19 C15 1_555 1_555
C16 C11 1_555 1_555
H20 C16 1_555 1_555
C17 B11 1_555 1_555
B11 H21 1_555 1_555
B12 C17 1_555 1_555
H22 B12 1_555 1_555
B13 C17 1_555 1_555
H23 B13 1_555 1_555
B14 C17 1_555 1_555
H24 B14 1_555 1_555
B15 C17 1_555 1_555
H25 B15 1_555 1_555
B16 B11 1_555 1_555
H26 B16 1_555 1_555
B17 B12 1_555 1_555
H27 B17 1_555 1_555
B18 B13 1_555 1_555
H28 B18 1_555 1_555
B19 B14 1_555 1_555
H29 B19 1_555 1_555
B20 B11 1_555 1_555
H30 B20 1_555 1_555
C18 B16 1_555 1_555
C19 C17 1_555 1_555
C20 C19 1_555 1_555
C21 C20 1_555 1_555
C22 C21 1_555 1_555
C23 C22 1_555 1_555
C24 C19 1_555 1_555
F5 C20 1_555 1_555
F6 C21 1_555 1_555
F7 C23 1_555 1_555
F8 C24 1_555 1_555
O2 C22 1_555 1_555
C25 O2 1_555 1_555
H31 C25 1_555 1_555
H32 C25 1_555 1_555
C26 C25 1_555 1_555
H33 C26 1_555 1_555
H34 C26 1_555 1_555
H35 C26 1_555 1_555
C27 C18 1_555 1_555
C28 C27 1_555 1_555
H36 C28 1_555 1_555
C29 C28 1_555 1_555
H37 C29 1_555 1_555
C30 C29 1_555 1_555
H38 C30 1_555 1_555
C31 C30 1_555 1_555
H39 C31 1_555 1_555
C32 C27 1_555 1_555
H40 C32 1_555 1_555
B1 B2 1_555 1_555
B1 B5 1_555 1_555
B2 B6 1_555 1_555
B2 B3 1_555 1_555
B3 B7 1_555 1_555
B3 B4 1_555 1_555
B4 B8 1_555 1_555
B4 B5 1_555 1_555
B5 B10 1_555 1_555
B5 B9 1_555 1_555
B6 B10 1_555 1_555
B6 B7 1_555 1_555
B7 C2 1_555 1_555
B7 B8 1_555 1_555
B8 B9 1_555 1_555
B8 C2 1_555 1_555
B9 B10 1_555 1_555
B9 C2 1_555 1_555
B10 C2 1_555 1_555
C7 C8 1_555 1_555
C15 C16 1_555 1_555
B11 B12 1_555 1_555
B11 B15 1_555 1_555
B12 B16 1_555 1_555
B12 B13 1_555 1_555
B13 B17 1_555 1_555
B13 B14 1_555 1_555
B14 B18 1_555 1_555
B14 B15 1_555 1_555
B15 B20 1_555 1_555
B15 B19 1_555 1_555
B16 B20 1_555 1_555
B16 B17 1_555 1_555
B17 C18 1_555 1_555
B17 B18 1_555 1_555
B18 B19 1_555 1_555
B18 C18 1_555 1_555
B19 B20 1_555 1_555
B19 C18 1_555 1_555
B20 C18 1_555 1_555
C23 C24 1_555 1_555
C31 C32 1_555 1_555

#END
