
#######################################################################
#
#                 Cambridge Crystallographic Data Centre
#                                CCDC 
#
#######################################################################
#
# If this CIF has been generated from an entry in the Cambridge 
# Structural Database, then it will include bibliographic, chemical, 
# crystal, experimental, refinement or atomic coordinate data resulting 
# from the CCDC's data processing and validation procedures.
#
#######################################################################

data_MAMSOK
_chemical_formula_moiety         'C14 H16 Br1 N1 O4'
_chemical_name_systematic        
(R)-4-((4S,5R)-5-(4-bromophenyl)-2,2-dimethyl-1,3-dioxolan-4-yl)oxazolidin-2-one
_symmetry_cell_setting           orthorhombic
_symmetry_space_group_name_H-M   'P 21 21 21'
_symmetry_Int_Tables_number      19
_space_group_name_Hall           'P 2ac 2ab'
loop_
_symmetry_equiv_pos_site_id
_symmetry_equiv_pos_as_xyz
1 x,y,z
2 1/2-x,-y,1/2+z
3 -x,1/2+y,1/2-z
4 1/2+x,1/2-y,-z
_cell_length_a                   5.9069(5)
_cell_length_b                   7.8185(9)
_cell_length_c                   30.936(3)
_cell_angle_alpha                90
_cell_angle_beta                 90
_cell_angle_gamma                90
_cell_volume                     1428.72
_exptl_crystal_colour            colorless
_exptl_crystal_description       prism
_cell_formula_units_Z            4
loop_
_atom_site_label
_atom_site_type_symbol
_atom_site_fract_x
_atom_site_fract_y
_atom_site_fract_z
Br1 Br 0.88258(9) -0.00524(10) 0.812044(14)
N1 N 0.5872(7) 0.2762(6) 0.55297(12)
H1 H 0.5318 0.2411 0.5281
O1 O 0.4500(6) -0.1735(5) 0.61230(11)
O2 O 0.2304(6) 0.0363(4) 0.58251(12)
O3 O 0.8354(6) 0.3723(5) 0.60063(10)
O4 O 0.9582(6) 0.3239(5) 0.53341(10)
C1 C 0.7854(8) -0.0148(10) 0.75342(14)
C2 C 0.5825(10) -0.0900(8) 0.74300(16)
H2 H 0.4909 -0.1395 0.7649
C3 C 0.5124(9) -0.0929(8) 0.70015(15)
H3 H 0.3723 -0.1450 0.6928
C4 C 0.6453(7) -0.0205(8) 0.66807(14)
C5 C 0.8474(9) 0.0541(7) 0.67905(15)
H4 H 0.9400 0.1025 0.6571
C6 C 0.9186(9) 0.0596(7) 0.72204(17)
H5 H 1.0569 0.1140 0.7296
C7 C 0.5648(8) -0.0163(8) 0.62157(13)
H6 H 0.6966 -0.0016 0.6016
C8 C 0.2926(9) -0.1402(7) 0.57769(16)
C9 C 0.3804(10) 0.1197(7) 0.61153(16)
H7 H 0.2957 0.1430 0.6389
C10 C 0.4507(9) 0.2897(7) 0.59252(15)
H8 H 0.3126 0.3597 0.5864
C11 C 0.8015(9) 0.3218(7) 0.55822(16)
C12 C 0.6145(9) 0.3939(6) 0.62084(14)
H9 H 0.5704 0.5160 0.6214
H10 H 0.6159 0.3498 0.6508
C13 C 0.0879(9) -0.2498(7) 0.58407(16)
H11 H 0.0323 -0.2364 0.6137
H12 H 0.1278 -0.3698 0.5790
H13 H -0.0305 -0.2152 0.5637
C14 C 0.4050(11) -0.1686(9) 0.53379(15)
H14 H 0.5420 -0.0984 0.5318
H15 H 0.2996 -0.1361 0.5107
H16 H 0.4453 -0.2895 0.5307
loop_
_geom_bond_atom_site_label_1
_geom_bond_atom_site_label_2
_geom_bond_site_symmetry_1
_geom_bond_site_symmetry_2
Br1 C1 1_555 1_555
N1 H1 1_555 1_555
O1 C7 1_555 1_555
O2 C8 1_555 1_555
O3 C11 1_555 1_555
O4 C11 1_555 1_555
C1 C2 1_555 1_555
C2 H2 1_555 1_555
C3 C2 1_555 1_555
H3 C3 1_555 1_555
C4 C3 1_555 1_555
C5 C4 1_555 1_555
H4 C5 1_555 1_555
C6 C1 1_555 1_555
H5 C6 1_555 1_555
C7 C4 1_555 1_555
H6 C7 1_555 1_555
C8 O1 1_555 1_555
C9 O2 1_555 1_555
H7 C9 1_555 1_555
C10 N1 1_555 1_555
H8 C10 1_555 1_555
C11 N1 1_555 1_555
C12 O3 1_555 1_555
H9 C12 1_555 1_555
H10 C12 1_555 1_555
C13 C8 1_555 1_555
H11 C13 1_555 1_555
H12 C13 1_555 1_555
H13 C13 1_555 1_555
C14 C8 1_555 1_555
H14 C14 1_555 1_555
H15 C14 1_555 1_555
H16 C14 1_555 1_555
C5 C6 1_555 1_555
C7 C9 1_555 1_555
C9 C10 1_555 1_555
C10 C12 1_555 1_555

#END
