
#######################################################################
#
#                 Cambridge Crystallographic Data Centre
#                                CCDC 
#
#######################################################################
#
# If this CIF has been generated from an entry in the Cambridge 
# Structural Database, then it will include bibliographic, chemical, 
# crystal, experimental, refinement or atomic coordinate data resulting 
# from the CCDC's data processing and validation procedures.
#
#######################################################################

data_MAMSIF
_chemical_formula_moiety         'C20 H21 B1 F2 N2 O3'
_chemical_name_systematic        
(N-[3-(t-butylamino)-1-(hydroxy)-3-(oxo)-1-phenylprop-1-en-2-yl]benzamide)-difluoro-boron
_symmetry_cell_setting           orthorhombic
_symmetry_space_group_name_H-M   'P b c a'
_symmetry_Int_Tables_number      61
_space_group_name_Hall           '-P 2ac 2ab'
loop_
_symmetry_equiv_pos_site_id
_symmetry_equiv_pos_as_xyz
1 x,y,z
2 1/2-x,-y,1/2+z
3 -x,1/2+y,1/2-z
4 1/2+x,1/2-y,-z
5 -x,-y,-z
6 1/2+x,y,1/2-z
7 x,1/2-y,1/2+z
8 1/2-x,1/2+y,z
_cell_length_a                   9.7206(3)
_cell_length_b                   19.3307(6)
_cell_length_c                   20.8111(4)
_cell_angle_alpha                90
_cell_angle_beta                 90
_cell_angle_gamma                90
_cell_volume                     3910.53
_exptl_crystal_colour            colorless
_exptl_crystal_description       block
_cell_formula_units_Z            8
loop_
_atom_site_label
_atom_site_type_symbol
_atom_site_fract_x
_atom_site_fract_y
_atom_site_fract_z
F1 F 0.79219(16) 0.45551(7) 0.59542(6)
F2 F 0.89402(14) 0.35809(8) 0.63522(6)
O1 O 0.73583(18) 0.41833(9) 0.69826(7)
O2 O 0.66363(18) 0.35489(9) 0.60382(7)
O3 O 0.76436(18) 0.23588(10) 0.78852(8)
N1 N 0.6490(2) 0.39164(11) 0.79492(9)
N2 N 0.5535(2) 0.26285(10) 0.74943(9)
C1 C 0.6675(2) 0.37519(13) 0.73398(11)
C2 C 0.6123(2) 0.31251(13) 0.70667(11)
C3 C 0.6110(2) 0.30521(13) 0.64138(11)
C4 C 0.7101(3) 0.45223(13) 0.82965(11)
C5 C 0.6529(4) 0.51885(15) 0.80232(14)
H1 H 0.6832 0.5241 0.7577
H2 H 0.6863 0.5581 0.8278
H3 H 0.5522 0.5176 0.8038
C6 C 0.8664(3) 0.44882(18) 0.82465(14)
H4 H 0.8988 0.4043 0.8415
H5 H 0.9070 0.4866 0.8497
H6 H 0.8939 0.4534 0.7795
C7 C 0.6678(3) 0.44439(15) 0.89966(12)
H7 H 0.5673 0.4464 0.9030
H8 H 0.7083 0.4819 0.9250
H9 H 0.7005 0.3998 0.9161
C8 C 0.5515(3) 0.24696(13) 0.60464(11)
C9 C 0.5750(3) 0.17829(14) 0.62172(12)
H10 H 0.6213 0.1679 0.6607
C10 C 0.5314(3) 0.12530(14) 0.58217(13)
H11 H 0.5499 0.0786 0.5936
C11 C 0.4608(3) 0.13994(15) 0.52583(12)
H12 H 0.4302 0.1033 0.4989
C12 C 0.4350(3) 0.20796(16) 0.50893(12)
H13 H 0.3855 0.2180 0.4707
C13 C 0.4812(3) 0.26133(15) 0.54757(11)
H14 H 0.4650 0.3080 0.5353
C14 C 0.6392(3) 0.22657(13) 0.78897(11)
C15 C 0.5730(3) 0.17645(13) 0.83457(11)
C16 C 0.6442(3) 0.16164(14) 0.89108(11)
H15 H 0.7305 0.1829 0.8992
C17 C 0.5890(3) 0.11581(14) 0.93534(12)
H16 H 0.6365 0.1067 0.9743
C18 C 0.4648(3) 0.08328(14) 0.92294(13)
H17 H 0.4277 0.0515 0.9532
C19 C 0.3947(3) 0.09721(14) 0.86626(13)
H18 H 0.3099 0.0747 0.8575
C20 C 0.4484(3) 0.14407(14) 0.82230(12)
H19 H 0.3997 0.1540 0.7838
B1 B 0.7735(3) 0.39647(15) 0.63133(12)
H20 H 0.594(2) 0.3632(12) 0.8158(11)
H21 H 0.4650(12) 0.2544(14) 0.7483(12)
loop_
_geom_bond_atom_site_label_1
_geom_bond_atom_site_label_2
_geom_bond_site_symmetry_1
_geom_bond_site_symmetry_2
F1 B1 1_555 1_555
F2 B1 1_555 1_555
O1 C1 1_555 1_555
O2 C3 1_555 1_555
O3 C14 1_555 1_555
N1 C1 1_555 1_555
N2 C2 1_555 1_555
C1 C2 1_555 1_555
C2 C3 1_555 1_555
C3 C8 1_555 1_555
C4 N1 1_555 1_555
C5 C4 1_555 1_555
H1 C5 1_555 1_555
H2 C5 1_555 1_555
H3 C5 1_555 1_555
C6 C4 1_555 1_555
H4 C6 1_555 1_555
H5 C6 1_555 1_555
H6 C6 1_555 1_555
C7 C4 1_555 1_555
H7 C7 1_555 1_555
H8 C7 1_555 1_555
H9 C7 1_555 1_555
C8 C9 1_555 1_555
C9 H10 1_555 1_555
C10 C9 1_555 1_555
H11 C10 1_555 1_555
C11 C10 1_555 1_555
H12 C11 1_555 1_555
C12 C11 1_555 1_555
H13 C12 1_555 1_555
C13 C8 1_555 1_555
H14 C13 1_555 1_555
C14 N2 1_555 1_555
C15 C14 1_555 1_555
C16 C15 1_555 1_555
H15 C16 1_555 1_555
C17 C16 1_555 1_555
H16 C17 1_555 1_555
C18 C17 1_555 1_555
H17 C18 1_555 1_555
C19 C18 1_555 1_555
H18 C19 1_555 1_555
C20 C15 1_555 1_555
H19 C20 1_555 1_555
B1 O1 1_555 1_555
H20 N1 1_555 1_555
H21 N2 1_555 1_555
O2 B1 1_555 1_555
C12 C13 1_555 1_555
C19 C20 1_555 1_555

#END
