
#######################################################################
#
#                 Cambridge Crystallographic Data Centre
#                                CCDC 
#
#######################################################################
#
# If this CIF has been generated from an entry in the Cambridge 
# Structural Database, then it will include bibliographic, chemical, 
# crystal, experimental, refinement or atomic coordinate data resulting 
# from the CCDC's data processing and validation procedures.
#
#######################################################################

data_MAMVUS
_chemical_formula_moiety         'C5 H11 N3 O2'
_chemical_name_systematic        
'trans-(E)-4-Isopropyl-5,6-dihydro-4H-1,2,3,4-oxatriazine 3-oxide'
_symmetry_cell_setting           orthorhombic
_symmetry_space_group_name_H-M   'P 21 21 21'
_symmetry_Int_Tables_number      19
_space_group_name_Hall           'P 2ac 2ab'
loop_
_symmetry_equiv_pos_site_id
_symmetry_equiv_pos_as_xyz
1 x,y,z
2 1/2-x,-y,1/2+z
3 -x,1/2+y,1/2-z
4 1/2+x,1/2-y,-z
_cell_length_a                   6.314(3)
_cell_length_b                   7.148(3)
_cell_length_c                   16.263(6)
_cell_angle_alpha                90
_cell_angle_beta                 90
_cell_angle_gamma                90
_cell_volume                     733.989
_exptl_crystal_colour            colorless
_exptl_crystal_description       prism
_chemical_melting_point          155-156deg.C
_cell_formula_units_Z            4
_exptl_crystal_recrystallization_method 'ether/petroleum ether'
loop_
_atom_site_label
_atom_site_type_symbol
_atom_site_fract_x
_atom_site_fract_y
_atom_site_fract_z
N1 N 1.1091(4) 0.1385(3) 0.88457(13)
N2 N 1.1741(4) 0.0262(4) 0.94149(15)
N3 N 0.9136(3) 0.1291(3) 0.84775(13)
O1 O 1.0226(4) -0.1076(3) 0.96211(16)
C1 C 0.8177(5) -0.0262(5) 0.9729(2)
H1 H 0.8275 0.0797 1.0090
H2 H 0.7217 -0.1155 0.9965
C2 C 0.7420(5) 0.0369(5) 0.89266(19)
H3 H 0.6967 -0.0702 0.8617
H4 H 0.6246 0.1216 0.8975
C3 C 0.8616(4) 0.2887(4) 0.79295(15)
H5 H 0.9862 0.3160 0.7613
C4 C 0.6928(4) 0.2254(5) 0.73249(17)
H6 H 0.7398 0.1151 0.7042
H7 H 0.5679 0.1969 0.7637
H8 H 0.6612 0.3217 0.6932
C5 C 0.7974(5) 0.4609(4) 0.84104(19)
H9 H 0.9106 0.4992 0.8767
H10 H 0.7669 0.5594 0.8027
H11 H 0.6735 0.4347 0.8732
O2 O 1.2391(3) 0.2593(3) 0.85858(12)
loop_
_geom_bond_atom_site_label_1
_geom_bond_atom_site_label_2
_geom_bond_site_symmetry_1
_geom_bond_site_symmetry_2
N1 N2 1_555 1_555
N2 O1 1_555 1_555
N3 N1 1_555 1_555
O1 C1 1_555 1_555
C1 H1 1_555 1_555
H2 C1 1_555 1_555
C2 N3 1_555 1_555
H3 C2 1_555 1_555
H4 C2 1_555 1_555
C3 N3 1_555 1_555
H5 C3 1_555 1_555
C4 C3 1_555 1_555
H6 C4 1_555 1_555
H7 C4 1_555 1_555
H8 C4 1_555 1_555
C5 C3 1_555 1_555
H9 C5 1_555 1_555
H10 C5 1_555 1_555
H11 C5 1_555 1_555
O2 N1 1_555 1_555
C1 C2 1_555 1_555

#END
