
#######################################################################
#
#                 Cambridge Crystallographic Data Centre
#                                CCDC 
#
#######################################################################
#
# If this CIF has been generated from an entry in the Cambridge 
# Structural Database, then it will include bibliographic, chemical, 
# crystal, experimental, refinement or atomic coordinate data resulting 
# from the CCDC's data processing and validation procedures.
#
#######################################################################

data_MANCIQ
_chemical_formula_moiety         
'C44 H52 N24 O12,Cs1 1+,4(C7 H5 O3 1-),3(H3 O1 1+),8(H2 O1)'
_chemical_name_systematic        
'octamethylcucurbit(6)uril cesium trioxonium tetrakis(4-hydroxybenzoate) octahydrate'
_symmetry_cell_setting           monoclinic
_symmetry_space_group_name_H-M   'C 2/c'
_symmetry_Int_Tables_number      15
_space_group_name_Hall           '-C 2yn'
loop_
_symmetry_equiv_pos_site_id
_symmetry_equiv_pos_as_xyz
1 x,y,z
2 -x,y,1/2-z
3 1/2+x,1/2+y,z
4 1/2-x,1/2+y,1/2-z
5 -x,-y,-z
6 x,-y,1/2+z
7 1/2-x,1/2-y,-z
8 1/2+x,1/2-y,1/2+z
_cell_length_a                   36.424(5)
_cell_length_b                   17.532(2)
_cell_length_c                   13.6510(18)
_cell_angle_alpha                90
_cell_angle_beta                 93.591(4)
_cell_angle_gamma                90
_cell_volume                     8700.22
_exptl_crystal_colour            colorless
_exptl_crystal_description       prism
_cell_formula_units_Z            4
loop_
_atom_site_label
_atom_site_type_symbol
_atom_site_fract_x
_atom_site_fract_y
_atom_site_fract_z
C1 C 0.84166(19) 0.1948(4) 0.8031(5)
C2 C 0.88713(16) 0.1603(4) 0.9240(5)
C3 C 0.86439(18) 0.0879(4) 0.8894(5)
C4 C 0.8566(2) 0.1080(4) 1.0579(5)
C5 C 0.81165(19) 0.0763(4) 0.7528(5)
H1 H 0.8223 0.0267 0.7375
H2 H 0.8068 0.1038 0.6909
C6 C 0.82404(19) -0.0028(4) 0.9899(6)
H3 H 0.8260 -0.0180 1.0592
H4 H 0.8338 -0.0447 0.9518
C7 C 0.74450(18) 0.0950(4) 0.7599(5)
C8 C 0.77056(19) -0.0009(4) 0.8583(5)
H5 H 0.7792 -0.0487 0.8288
C9 C 0.72872(18) -0.0015(4) 0.8678(5)
H6 H 0.7176 -0.0509 0.8472
C10 C 0.75887(18) 0.0149(4) 1.0235(6)
C11 C 0.67818(19) 0.0737(4) 0.7751(5)
H7 H 0.6664 0.0247 0.7591
H8 H 0.6766 0.1048 0.7154
C12 C 0.6919(2) -0.0032(4) 1.0172(6)
H9 H 0.6981 -0.0160 1.0861
H10 H 0.6802 -0.0481 0.9859
C13 C 0.64979(18) 0.1871(4) 0.8397(5)
C14 C 0.64015(19) 0.0742(4) 0.9274(5)
C15 C 0.61552(18) 0.1414(4) 0.9674(5)
C16 C 0.65883(18) 0.1014(4) 1.0947(5)
C17 C 0.6062(2) 0.2790(4) 0.9026(5)
H11 H 0.6073 0.2990 0.8358
H12 H 0.5802 0.2702 0.9141
C18 C 0.6174(2) 0.2019(4) 1.1406(5)
H13 H 0.6243 0.1828 1.2066
H14 H 0.5904 0.2033 1.1334
C19 C 0.9280(2) 0.1565(5) 0.9083(6)
H15 H 0.9316 0.1550 0.8385
H16 H 0.9384 0.1109 0.9393
H17 H 0.9401 0.2011 0.9371
C20 C 0.8870(2) 0.0224(5) 0.8493(7)
H18 H 0.8988 0.0396 0.7915
H19 H 0.8709 -0.0202 0.8319
H20 H 0.9056 0.0064 0.8990
C21 C 0.6186(2) 0.0045(6) 0.8947(8)
H21 H 0.6019 0.0174 0.8389
H22 H 0.6046 -0.0137 0.9481
H23 H 0.6353 -0.0351 0.8758
C22 C 0.5746(2) 0.1255(6) 0.9619(7)
H24 H 0.5658 0.1190 0.8938
H25 H 0.5618 0.1680 0.9901
H26 H 0.5699 0.0794 0.9982
N1 N 0.86911(15) 0.2213(3) 0.8669(4)
N2 N 0.83787(15) 0.1184(3) 0.8136(4)
N3 N 0.87968(16) 0.1641(4) 1.0297(4)
N4 N 0.84677(16) 0.0644(4) 0.9780(4)
N5 N 0.77718(15) 0.0641(3) 0.7980(4)
N6 N 0.71642(14) 0.0601(3) 0.8029(4)
N7 N 0.78505(15) 0.0079(4) 0.9592(4)
N8 N 0.72504(15) 0.0132(3) 0.9704(4)
N9 N 0.65758(16) 0.1115(3) 0.8486(4)
N10 N 0.62519(16) 0.2064(3) 0.9080(4)
N11 N 0.66550(16) 0.0592(4) 1.0132(4)
N12 N 0.63023(16) 0.1487(3) 1.0704(4)
O2 O 0.82314(16) 0.2335(3) 0.7432(4)
O3 O 0.74174(15) 0.1460(3) 0.6978(4)
O4 O 0.66165(14) 0.2301(3) 0.7807(4)
O5 O 0.84717(16) 0.0974(3) 1.1408(4)
O6 O 0.76354(15) 0.0221(3) 1.1124(4)
O7 O 0.67581(16) 0.0966(3) 1.1740(4)
C1F C 0.65834(19) 0.3052(4) 1.1969(5)
C2F C 0.61287(16) 0.3397(4) 1.0760(5)
C3F C 0.63561(18) 0.4121(4) 1.1106(5)
C4F C 0.6434(2) 0.3920(4) 0.9421(5)
C5F C 0.68835(19) 0.4237(4) 1.2472(5)
H1F H 0.6777 0.4733 1.2625
H2F H 0.6932 0.3962 1.3091
C6F C 0.67596(19) 0.5028(4) 1.0101(6)
H3F H 0.6740 0.5180 0.9408
H4F H 0.6662 0.5447 1.0482
C7F C 0.75550(18) 0.4050(4) 1.2401(5)
C8F C 0.72944(19) 0.5009(4) 1.1417(5)
H5F H 0.7208 0.5487 1.1712
C9F C 0.77128(18) 0.5015(4) 1.1322(5)
H6F H 0.7824 0.5509 1.1528
C10F C 0.74113(18) 0.4851(4) 0.9765(6)
C11F C 0.82182(19) 0.4263(4) 1.2249(5)
H7F H 0.8336 0.4753 1.2409
H8F H 0.8234 0.3952 1.2846
C12F C 0.8081(2) 0.5032(4) 0.9828(6)
H9F H 0.8019 0.5160 0.9139
H10F H 0.8198 0.5481 1.0141
C13F C 0.85021(18) 0.3129(4) 1.1603(5)
C14F C 0.85985(19) 0.4258(4) 1.0726(5)
C15F C 0.88448(18) 0.3586(4) 1.0326(5)
C16F C 0.84117(18) 0.3986(4) 0.9053(5)
C17F C 0.8938(2) 0.2210(4) 1.0974(5)
H11F H 0.8927 0.2010 1.1642
H12F H 0.9198 0.2298 1.0859
C18F C 0.8826(2) 0.2981(4) 0.8594(5)
H13F H 0.8757 0.3172 0.7934
H14F H 0.9096 0.2967 0.8666
C19F C 0.5720(2) 0.3435(5) 1.0917(6)
H15F H 0.5684 0.3450 1.1615
H16F H 0.5616 0.3891 1.0607
H17F H 0.5599 0.2989 1.0629
C20F C 0.6130(2) 0.4776(5) 1.1507(7)
H18F H 0.6012 0.4604 1.2085
H19F H 0.6291 0.5202 1.1681
H20F H 0.5944 0.4936 1.1010
C21F C 0.8814(2) 0.4955(6) 1.1053(8)
H21F H 0.8981 0.4826 1.1611
H22F H 0.8954 0.5137 1.0519
H23F H 0.8647 0.5351 1.1242
C22F C 0.9254(2) 0.3745(6) 1.0381(7)
H24F H 0.9342 0.3810 1.1062
H25F H 0.9382 0.3320 1.0099
H26F H 0.9301 0.4206 1.0018
N1F N 0.63089(15) 0.2787(3) 1.1331(4)
N2F N 0.66213(15) 0.3816(3) 1.1864(4)
N3F N 0.62032(16) 0.3359(4) 0.9703(4)
N4F N 0.65323(16) 0.4356(4) 1.0220(4)
N5F N 0.72282(15) 0.4359(3) 1.2020(4)
N6F N 0.78358(14) 0.4399(3) 1.1971(4)
N7F N 0.71495(15) 0.4921(4) 1.0408(4)
N8F N 0.77496(15) 0.4868(3) 1.0296(4)
N9F N 0.84242(16) 0.3885(3) 1.1514(4)
N10F N 0.87481(16) 0.2936(3) 1.0920(4)
N11F N 0.83450(16) 0.4408(4) 0.9868(4)
N12F N 0.86977(16) 0.3513(3) 0.9296(4)
O2F O 0.67686(16) 0.2665(3) 1.2568(4)
O3F O 0.75826(15) 0.3540(3) 1.3022(4)
O4F O 0.83835(14) 0.2699(3) 1.2193(4)
O5F O 0.65283(16) 0.4026(3) 0.8592(4)
O6F O 0.73646(15) 0.4779(3) 0.8876(4)
O7F O 0.82419(16) 0.4034(3) 0.8260(4)
C23 C 0.5754(3) 0.2675(6) 1.3766(7)
C24 C 0.5383(3) 0.2750(7) 1.3640(8)
H27 H 0.5232 0.2316 1.3565
C25 C 0.5231(3) 0.3462(6) 1.3623(7)
H28 H 0.4975 0.3511 1.3498
C26 C 0.5439(2) 0.4106(6) 1.3784(6)
C27 C 0.5823(3) 0.4012(6) 1.3927(7)
H29 H 0.5977 0.4439 1.4022
C28 C 0.5972(3) 0.3283(7) 1.3926(7)
H30 H 0.6228 0.3217 1.4039
C29 C 0.5270(3) 0.4861(7) 1.3760(7)
O8 O 0.5890(2) 0.1934(5) 1.3773(6)
H31 H 0.6114 0.1940 1.3925
O9 O 0.49267(18) 0.4919(4) 1.3692(7)
O10 O 0.54800(18) 0.5450(4) 1.3819(5)
C30 C 0.5719(3) 0.0976(8) 0.6413(7)
C31 C 0.5346(3) 0.1058(8) 0.6439(9)
H32 H 0.5196 0.0624 0.6479
C32 C 0.5190(3) 0.1770(7) 0.6405(10)
H33 H 0.4933 0.1810 0.6423
C33 C 0.5393(2) 0.2425(6) 0.6347(7)
C34 C 0.5772(3) 0.2359(7) 0.6313(7)
H34 H 0.5922 0.2795 0.6284
C35 C 0.5928(3) 0.1619(8) 0.6324(7)
H35 H 0.6183 0.1568 0.6269
C36 C 0.5211(2) 0.3156(6) 0.6328(7)
O11 O 0.5889(2) 0.0287(5) 0.6449(6)
H36 H 0.5734 -0.0054 0.6517
O12 O 0.48639(16) 0.3249(4) 0.6273(6)
O13 O 0.54262(17) 0.3760(5) 0.6365(5)
O1 O 0.7532(8) 0.3116(11) 0.6635(11)
Cs1? Cs 0.74372(3) 0.30868(6) 0.81282(10)
loop_
_geom_bond_atom_site_label_1
_geom_bond_atom_site_label_2
_geom_bond_site_symmetry_1
_geom_bond_site_symmetry_2
C1 N1 1_555 1_555
C2 C3 1_555 1_555
C3 C20 1_555 1_555
C4 N3 1_555 1_555
C5 H1 1_555 1_555
H2 C5 1_555 1_555
C6 H3 1_555 1_555
H4 C6 1_555 1_555
C7 N5 1_555 1_555
C8 H5 1_555 1_555
C9 C8 1_555 1_555
H6 C9 1_555 1_555
C10 N7 1_555 1_555
C11 H7 1_555 1_555
H8 C11 1_555 1_555
C12 H9 1_555 1_555
H10 C12 1_555 1_555
C13 N9 1_555 1_555
C14 C15 1_555 1_555
C15 C22 1_555 1_555
C16 N11 1_555 1_555
C17 H11 1_555 1_555
H12 C17 1_555 1_555
C18 H13 1_555 1_555
H14 C18 1_555 1_555
C19 C2 1_555 1_555
H15 C19 1_555 1_555
H16 C19 1_555 1_555
H17 C19 1_555 1_555
C20 H18 1_555 1_555
H19 C20 1_555 1_555
H20 C20 1_555 1_555
C21 C14 1_555 1_555
H21 C21 1_555 1_555
H22 C21 1_555 1_555
H23 C21 1_555 1_555
C22 H24 1_555 1_555
H25 C22 1_555 1_555
H26 C22 1_555 1_555
N1 C2 1_555 1_555
N2 C1 1_555 1_555
N3 C2 1_555 1_555
N4 C3 1_555 1_555
N5 C5 1_555 1_555
N6 C7 1_555 1_555
N7 C6 1_555 1_555
N8 C9 1_555 1_555
N9 C11 1_555 1_555
N10 C13 1_555 1_555
N11 C12 1_555 1_555
N12 C15 1_555 1_555
O2 C1 1_555 1_555
O3 C7 1_555 1_555
O4 C13 1_555 1_555
O5 C4 1_555 1_555
O6 C10 1_555 1_555
O7 C16 1_555 1_555
C23 C24 1_555 1_555
C24 H27 1_555 1_555
C25 C24 1_555 1_555
H28 C25 1_555 1_555
C26 C25 1_555 1_555
C27 C26 1_555 1_555
H29 C27 1_555 1_555
C28 C23 1_555 1_555
H30 C28 1_555 1_555
C29 C26 1_555 1_555
O8 C23 1_555 1_555
H31 O8 1_555 1_555
O9 C29 1_555 1_555
O10 C29 1_555 1_555
C30 C31 1_555 1_555
C31 H32 1_555 1_555
C32 C31 1_555 1_555
H33 C32 1_555 1_555
C33 C32 1_555 1_555
C34 C33 1_555 1_555
H34 C34 1_555 1_555
C35 C30 1_555 1_555
H35 C35 1_555 1_555
C36 C33 1_555 1_555
O11 C30 1_555 1_555
H36 O11 1_555 1_555
O12 C36 1_555 1_555
O13 C36 1_555 1_555
C1F N1F 1_555 1_555
C2F C3F 1_555 1_555
C3F C20F 1_555 1_555
C4F N3F 1_555 1_555
C5F H1F 1_555 1_555
H2F C5F 1_555 1_555
C6F H3F 1_555 1_555
H4F C6F 1_555 1_555
C7F N5F 1_555 1_555
C8F H5F 1_555 1_555
C9F C8F 1_555 1_555
H6F C9F 1_555 1_555
C10F N7F 1_555 1_555
C11F H7F 1_555 1_555
H8F C11F 1_555 1_555
C12F H9F 1_555 1_555
H10F C12F 1_555 1_555
C13F N9F 1_555 1_555
C14F C15F 1_555 1_555
C15F C22F 1_555 1_555
C16F N11F 1_555 1_555
C17F N3 1_555 1_555
H11F C17F 1_555 1_555
H12F C17F 1_555 1_555
C18F N1 1_555 1_555
H13F C18F 1_555 1_555
H14F C18F 1_555 1_555
C19F C2F 1_555 1_555
H15F C19F 1_555 1_555
H16F C19F 1_555 1_555
H17F C19F 1_555 1_555
C20F H18F 1_555 1_555
H19F C20F 1_555 1_555
H20F C20F 1_555 1_555
C21F C14F 1_555 1_555
H21F C21F 1_555 1_555
H22F C21F 1_555 1_555
H23F C21F 1_555 1_555
C22F H24F 1_555 1_555
H25F C22F 1_555 1_555
H26F C22F 1_555 1_555
N1F C18 1_555 1_555
N2F C1F 1_555 1_555
N3F C17 1_555 1_555
N4F C3F 1_555 1_555
N5F C5F 1_555 1_555
N6F C7F 1_555 1_555
N7F C6F 1_555 1_555
N8F C9F 1_555 1_555
N9F C11F 1_555 1_555
N10F C13F 1_555 1_555
N11F C12F 1_555 1_555
N12F C15F 1_555 1_555
O2F C1F 1_555 1_555
O3F C7F 1_555 1_555
O4F C13F 1_555 1_555
O5F C4F 1_555 1_555
O6F C10F 1_555 1_555
O7F C16F 1_555 1_555
C3 N2 1_555 1_555
C4 N4 1_555 1_555
C5 N2 1_555 1_555
C6 N4 1_555 1_555
C8 N5 1_555 1_555
C8 N7 1_555 1_555
C9 N6 1_555 1_555
C10 N8 1_555 1_555
C11 N6 1_555 1_555
C12 N8 1_555 1_555
C14 N9 1_555 1_555
C14 N11 1_555 1_555
C15 N10 1_555 1_555
C16 N12 1_555 1_555
C17 N10 1_555 1_555
C18 N12 1_555 1_555
C27 C28 1_555 1_555
C34 C35 1_555 1_555
C2F N1F 1_555 1_555
C2F N3F 1_555 1_555
C3F N2F 1_555 1_555
C4F N4F 1_555 1_555
C5F N2F 1_555 1_555
C6F N4F 1_555 1_555
C8F N5F 1_555 1_555
C8F N7F 1_555 1_555
C9F N6F 1_555 1_555
C10F N8F 1_555 1_555
C11F N6F 1_555 1_555
C12F N8F 1_555 1_555
C14F N9F 1_555 1_555
C14F N11F 1_555 1_555
C15F N10F 1_555 1_555
C16F N12F 1_555 1_555
C17F N10F 1_555 1_555
C18F N12F 1_555 1_555

#END
