
#######################################################################
#
#                 Cambridge Crystallographic Data Centre
#                                CCDC 
#
#######################################################################
#
# If this CIF has been generated from an entry in the Cambridge 
# Structural Database, then it will include bibliographic, chemical, 
# crystal, experimental, refinement or atomic coordinate data resulting 
# from the CCDC's data processing and validation procedures.
#
#######################################################################

data_MANDOV
_chemical_formula_moiety         'C30 H28 N2 O2,C1 H1 Cl3'
_chemical_name_systematic        
"Biphenyl-2,2'-dicarboxylic acid bis((1R-phenylethyl)amide) chloroform solvate"
_symmetry_cell_setting           orthorhombic
_symmetry_space_group_name_H-M   'P 21 21 21'
_symmetry_Int_Tables_number      19
_space_group_name_Hall           'P 2ac 2ab'
loop_
_symmetry_equiv_pos_site_id
_symmetry_equiv_pos_as_xyz
1 x,y,z
2 1/2-x,-y,1/2+z
3 -x,1/2+y,1/2-z
4 1/2+x,1/2-y,-z
_cell_length_a                   11.7763(7)
_cell_length_b                   14.4974(12)
_cell_length_c                   17.4072(17)
_cell_angle_alpha                90
_cell_angle_beta                 90
_cell_angle_gamma                90
_cell_volume                     2971.86
_exptl_crystal_colour            colorless
_exptl_crystal_description       block
_cell_formula_units_Z            4
loop_
_atom_site_label
_atom_site_type_symbol
_atom_site_fract_x
_atom_site_fract_y
_atom_site_fract_z
O1 O 0.26207(16) 0.92603(14) 0.96909(10)
N1 N 0.29648(18) 0.86935(15) 0.85096(12)
H1 H 0.3179 0.8813 0.8048
C1 C 0.2945(2) 0.93740(19) 0.90203(14)
C2 C 0.2636(2) 0.77449(19) 0.87030(16)
H2 H 0.3008 0.7579 0.9187
C3 C 0.3087(3) 0.7106(2) 0.8079(2)
H3 H 0.3898 0.7162 0.8049
H4 H 0.2758 0.7273 0.7594
H5 H 0.2889 0.6480 0.8200
C4 C 0.3402(2) 1.0283(2) 0.87541(14)
C5 C 0.3056(2) 1.0712(2) 0.80725(14)
C6 C 0.3566(2) 1.1540(2) 0.78693(17)
H6 H 0.3343 1.1832 0.7418
C7 C 0.4395(3) 1.1943(2) 0.83180(18)
H7 H 0.4729 1.2495 0.8167
C8 C 0.4723(3) 1.1525(2) 0.89889(18)
H8 H 0.5275 1.1796 0.9297
C9 C 0.4231(2) 1.0700(2) 0.92064(15)
H9 H 0.4457 1.0420 0.9662
C10 C 0.1374(2) 0.76345(19) 0.88100(16)
C11 C 0.0967(3) 0.7101(2) 0.94061(18)
H10 H 0.1477 0.6837 0.9750
C12 C -0.0179(3) 0.6954(3) 0.9501(2)
H11 H -0.0437 0.6595 0.9908
C13 C -0.0936(3) 0.7333(3) 0.9000(2)
H12 H -0.1710 0.7231 0.9063
C14 C -0.0558(3) 0.7860(3) 0.8406(2)
H13 H -0.1075 0.8116 0.8064
C15 C 0.0605(3) 0.8018(2) 0.83080(18)
H14 H 0.0859 0.8383 0.7903
O2 O 0.40712(15) 0.92626(14) 0.70662(10)
N2 N 0.37255(18) 0.98977(17) 0.59067(12)
H15 H 0.3247 1.0197 0.5629
C16 C 0.3428(2) 0.96871(19) 0.66257(14)
C17 C 0.4813(2) 0.9650(2) 0.55651(15)
H16 H 0.5328 0.9475 0.5983
C18 C 0.5310(3) 1.0500(3) 0.5171(2)
H17 H 0.5354 1.0998 0.5533
H18 H 0.4832 1.0676 0.4749
H19 H 0.6057 1.0359 0.4983
C19 C 0.2260(2) 0.99606(18) 0.68713(14)
C20 C 0.2092(2) 1.03717(18) 0.75894(14)
C21 C 0.0990(2) 1.0555(2) 0.78192(16)
H20 H 0.0864 1.0820 0.8298
C22 C 0.0076(2) 1.0356(2) 0.73570(18)
H21 H -0.0657 1.0482 0.7526
C23 C 0.0247(2) 0.9969(2) 0.66451(17)
H22 H -0.0368 0.9847 0.6326
C24 C 0.1336(2) 0.9764(2) 0.64071(16)
H23 H 0.1450 0.9491 0.5930
C25 C 0.4713(3) 0.8829(2) 0.50227(15)
C26 C 0.3691(3) 0.8417(2) 0.48407(17)
H24 H 0.3028 0.8629 0.5071
C27 C 0.3633(4) 0.7693(2) 0.4321(2)
H25 H 0.2935 0.7430 0.4201
C28 C 0.4600(5) 0.7367(3) 0.3985(2)
H26 H 0.4562 0.6883 0.3636
C29 C 0.5623(5) 0.7755(3) 0.4164(3)
H27 H 0.6282 0.7533 0.3934
C30 C 0.5686(3) 0.8474(3) 0.4682(2)
H28 H 0.6390 0.8725 0.4804
C31 C 0.6407(3) 0.9545(2) 0.79824(18)
H29 H 0.5708 0.9873 0.7845
Cl1 Cl 0.71123(8) 0.92358(8) 0.71372(5)
Cl2 Cl 0.60408(9) 0.85559(8) 0.85100(6)
Cl3 Cl 0.72574(9) 1.02786(8) 0.85307(6)
loop_
_geom_bond_atom_site_label_1
_geom_bond_atom_site_label_2
_geom_bond_site_symmetry_1
_geom_bond_site_symmetry_2
O1 C1 1_555 1_555
N1 H1 1_555 1_555
C1 N1 1_555 1_555
C2 N1 1_555 1_555
H2 C2 1_555 1_555
C3 C2 1_555 1_555
H3 C3 1_555 1_555
H4 C3 1_555 1_555
H5 C3 1_555 1_555
C4 C1 1_555 1_555
C5 C4 1_555 1_555
C6 C5 1_555 1_555
H6 C6 1_555 1_555
C7 C6 1_555 1_555
H7 C7 1_555 1_555
C8 C7 1_555 1_555
H8 C8 1_555 1_555
C9 C4 1_555 1_555
H9 C9 1_555 1_555
C10 C2 1_555 1_555
C11 C10 1_555 1_555
H10 C11 1_555 1_555
C12 C11 1_555 1_555
H11 C12 1_555 1_555
C13 C12 1_555 1_555
H12 C13 1_555 1_555
C14 C13 1_555 1_555
H13 C14 1_555 1_555
C15 C10 1_555 1_555
H14 C15 1_555 1_555
O2 C16 1_555 1_555
N2 H15 1_555 1_555
C16 N2 1_555 1_555
C17 N2 1_555 1_555
H16 C17 1_555 1_555
C18 C17 1_555 1_555
H17 C18 1_555 1_555
H18 C18 1_555 1_555
H19 C18 1_555 1_555
C19 C16 1_555 1_555
C20 C5 1_555 1_555
C21 C20 1_555 1_555
H20 C21 1_555 1_555
C22 C21 1_555 1_555
H21 C22 1_555 1_555
C23 C22 1_555 1_555
H22 C23 1_555 1_555
C24 C19 1_555 1_555
H23 C24 1_555 1_555
C25 C17 1_555 1_555
C26 C25 1_555 1_555
H24 C26 1_555 1_555
C27 C26 1_555 1_555
H25 C27 1_555 1_555
C28 C27 1_555 1_555
H26 C28 1_555 1_555
C29 C28 1_555 1_555
H27 C29 1_555 1_555
C30 C25 1_555 1_555
H28 C30 1_555 1_555
C31 H29 1_555 1_555
Cl1 C31 1_555 1_555
Cl2 C31 1_555 1_555
Cl3 C31 1_555 1_555
C8 C9 1_555 1_555
C14 C15 1_555 1_555
C19 C20 1_555 1_555
C23 C24 1_555 1_555
C29 C30 1_555 1_555

#END
