
#######################################################################
#
#                 Cambridge Crystallographic Data Centre
#                                CCDC 
#
#######################################################################
#
# If this CIF has been generated from an entry in the Cambridge 
# Structural Database, then it will include bibliographic, chemical, 
# crystal, experimental, refinement or atomic coordinate data resulting 
# from the CCDC's data processing and validation procedures.
#
#######################################################################

data_MANDIP
_chemical_formula_moiety         'C26 H20 N2 O2'
_chemical_name_systematic        
"Biphenyl-2,2'-dicarboxylic acid bis(phenylamide)"
_symmetry_cell_setting           tetragonal
_symmetry_space_group_name_H-M   'P 43 21 2'
_symmetry_Int_Tables_number      96
_space_group_name_Hall           'P 4nw 2abw'
loop_
_symmetry_equiv_pos_site_id
_symmetry_equiv_pos_as_xyz
1 x,y,z
2 -x,-y,1/2+z
3 1/2-y,1/2+x,3/4+z
4 1/2+y,1/2-x,1/4+z
5 1/2-x,1/2+y,3/4-z
6 1/2+x,1/2-y,1/4-z
7 y,x,-z
8 -y,-x,1/2-z
_cell_length_a                   10.7822(9)
_cell_length_b                   10.7822(9)
_cell_length_c                   35.902(4)
_cell_angle_alpha                90
_cell_angle_beta                 90
_cell_angle_gamma                90
_cell_volume                     4173.82
_exptl_crystal_colour            colorless
_exptl_crystal_description       plate
_chemical_melting_point          228-229deg.C
_cell_formula_units_Z            8
loop_
_atom_site_label
_atom_site_type_symbol
_atom_site_fract_x
_atom_site_fract_y
_atom_site_fract_z
O1 O 0.8372(4) 0.1068(4) 0.03773(13)
C1 C 0.8457(5) 0.2038(5) 0.01977(17)
N1 N 0.7662(4) 0.3001(4) 0.02382(14)
H1 H 0.7792 0.3628 0.0095
C2 C 0.9424(5) 0.2213(5) -0.00927(16)
C3 C 1.0111(5) 0.3323(5) -0.01349(16)
C4 C 1.0912(5) 0.3402(6) -0.04345(17)
H2 H 1.1366 0.4127 -0.0467
C5 C 1.1068(6) 0.2442(6) -0.06896(18)
H3 H 1.1585 0.2535 -0.0895
C6 C 1.0433(6) 0.1347(6) -0.06291(19)
H4 H 1.0554 0.0677 -0.0788
C7 C 0.9636(6) 0.1245(6) -0.03394(19)
H5 H 0.9216 0.0501 -0.0304
C8 C 0.6650(5) 0.3109(5) 0.04844(18)
C9 C 0.6522(6) 0.2431(6) 0.08042(17)
H6 H 0.7109 0.1833 0.0865
C10 C 0.5513(7) 0.2638(8) 0.1039(2)
H7 H 0.5435 0.2190 0.1259
C11 C 0.4618(7) 0.3518(7) 0.0942(2)
H8 H 0.3935 0.3652 0.1095
C12 C 0.4759(7) 0.4170(7) 0.0625(2)
H9 H 0.4171 0.4764 0.0562
C13 C 0.5744(6) 0.3979(6) 0.0395(2)
H10 H 0.5812 0.4433 0.0176
O2 O 0.7888(4) 0.4954(4) -0.02954(13)
C14 C 0.8745(5) 0.5707(5) -0.02291(19)
N2 N 0.8916(4) 0.6740(5) -0.04337(14)
H11 H 0.9552 0.7179 -0.0375
C15 C 0.9612(5) 0.5507(5) 0.00846(16)
C16 C 1.0150(5) 0.4337(5) 0.01443(17)
C17 C 1.0883(6) 0.4181(6) 0.04550(18)
H12 H 1.1240 0.3410 0.0499
C18 C 1.1106(7) 0.5129(7) 0.0703(2)
H13 H 1.1602 0.4996 0.0911
C19 C 1.0585(6) 0.6284(6) 0.06398(19)
H14 H 1.0739 0.6937 0.0803
C20 C 0.9845(6) 0.6453(6) 0.03365(18)
H15 H 0.9485 0.7226 0.0297
C21 C 0.8201(6) 0.7200(5) -0.07299(16)
C22 C 0.8711(6) 0.8072(6) -0.09622(18)
H16 H 0.9520 0.8338 -0.0921
C23 C 0.8048(7) 0.8563(6) -0.12552(19)
H17 H 0.8414 0.9144 -0.1412
C24 C 0.6841(8) 0.8190(7) -0.1316(2)
H18 H 0.6388 0.8514 -0.1514
C25 C 0.6328(7) 0.7348(7) -0.1084(2)
H19 H 0.5513 0.7101 -0.1125
C26 C 0.6971(6) 0.6842(6) -0.07877(19)
H20 H 0.6591 0.6273 -0.0630
loop_
_geom_bond_atom_site_label_1
_geom_bond_atom_site_label_2
_geom_bond_site_symmetry_1
_geom_bond_site_symmetry_2
O1 C1 1_555 1_555
C1 N1 1_555 1_555
N1 H1 1_555 1_555
C2 C1 1_555 1_555
C3 C2 1_555 1_555
C4 C3 1_555 1_555
H2 C4 1_555 1_555
C5 C4 1_555 1_555
H3 C5 1_555 1_555
C6 C5 1_555 1_555
H4 C6 1_555 1_555
C7 C2 1_555 1_555
H5 C7 1_555 1_555
C8 N1 1_555 1_555
C9 C8 1_555 1_555
H6 C9 1_555 1_555
C10 C9 1_555 1_555
H7 C10 1_555 1_555
C11 C10 1_555 1_555
H8 C11 1_555 1_555
C12 C11 1_555 1_555
H9 C12 1_555 1_555
C13 C8 1_555 1_555
H10 C13 1_555 1_555
O2 C14 1_555 1_555
C14 N2 1_555 1_555
N2 H11 1_555 1_555
C15 C14 1_555 1_555
C16 C3 1_555 1_555
C17 C16 1_555 1_555
H12 C17 1_555 1_555
C18 C17 1_555 1_555
H13 C18 1_555 1_555
C19 C18 1_555 1_555
H14 C19 1_555 1_555
C20 C15 1_555 1_555
H15 C20 1_555 1_555
C21 N2 1_555 1_555
C22 C21 1_555 1_555
H16 C22 1_555 1_555
C23 C22 1_555 1_555
H17 C23 1_555 1_555
C24 C23 1_555 1_555
H18 C24 1_555 1_555
C25 C24 1_555 1_555
H19 C25 1_555 1_555
C26 C21 1_555 1_555
H20 C26 1_555 1_555
C6 C7 1_555 1_555
C12 C13 1_555 1_555
C15 C16 1_555 1_555
C19 C20 1_555 1_555
C25 C26 1_555 1_555

#END
