
#######################################################################
#
#                 Cambridge Crystallographic Data Centre
#                                CCDC 
#
#######################################################################
#
# If this CIF has been generated from an entry in the Cambridge 
# Structural Database, then it will include bibliographic, chemical, 
# crystal, experimental, refinement or atomic coordinate data resulting 
# from the CCDC's data processing and validation procedures.
#
#######################################################################

data_MANGIU
_chemical_formula_moiety         'C17 H20 O4'
_chemical_name_systematic        
'methyl 8-methoxy-3,4,10,11-tetrahydrobenzo[4,5]cyclohepta[1,2-b]pyran-11a(2H)-carboxylate'
_symmetry_cell_setting           monoclinic
_symmetry_space_group_name_H-M   'P 21/c'
_symmetry_Int_Tables_number      14
_space_group_name_Hall           '-P 2ybc'
loop_
_symmetry_equiv_pos_site_id
_symmetry_equiv_pos_as_xyz
1 x,y,z
2 -x,1/2+y,1/2-z
3 -x,-y,-z
4 x,1/2-y,1/2+z
_cell_length_a                   16.9366(7)
_cell_length_b                   6.0450(3)
_cell_length_c                   15.1906(7)
_cell_angle_alpha                90
_cell_angle_beta                 114.0409(11)
_cell_angle_gamma                90
_cell_volume                     1420.33
_exptl_crystal_colour            colorless
_exptl_crystal_description       plate
_cell_formula_units_Z            4
loop_
_atom_site_label
_atom_site_type_symbol
_atom_site_fract_x
_atom_site_fract_y
_atom_site_fract_z
C1 C 0.38607(8) 0.6260(2) 0.32241(9)
C2 C 0.31559(8) 0.7496(2) 0.34340(9)
C3 C 0.26732(8) 0.5884(2) 0.38061(9)
C4 C 0.32438(9) 0.4978(2) 0.47885(9)
H1 H 0.3716 0.4085 0.4743
H2 H 0.2901 0.4009 0.5025
C5 C 0.36245(9) 0.6898(2) 0.54909(9)
H3 H 0.3156 0.7710 0.5582
H4 H 0.4029 0.6322 0.6125
C6 C 0.41003(9) 0.8444(2) 0.50863(9)
H5 H 0.4314 0.9739 0.5518
H6 H 0.4607 0.7666 0.5067
C7 C 0.26223(8) 0.8752(2) 0.25030(9)
H7 H 0.2972 0.9998 0.2434
H8 H 0.2501 0.7747 0.1948
C8 C 0.17649(8) 0.9663(2) 0.24621(9)
H9 H 0.1829 1.0052 0.3121
H10 H 0.1613 1.1027 0.2067
C9 C 0.10525(8) 0.7999(2) 0.20371(9)
C10 C 0.11190(8) 0.5917(2) 0.24829(8)
C11 C 0.18400(8) 0.5276(2) 0.33896(9)
H11 H 0.1684 0.4219 0.3753
C12 C 0.03312(8) 0.8478(2) 0.11983(9)
H12 H 0.0287 0.9880 0.0899
C13 C -0.03293(8) 0.6930(2) 0.07882(9)
C14 C -0.02762(8) 0.4875(2) 0.12239(9)
H13 H -0.0721 0.3807 0.0948
C15 C 0.04419(8) 0.4417(2) 0.20711(9)
H14 H 0.0472 0.3033 0.2380
C16 C -0.16670(9) 0.5989(2) -0.04933(10)
H15 H -0.1947 0.5584 -0.0065
H16 H -0.1405 0.4671 -0.0639
H17 H -0.2098 0.6605 -0.1093
C17 C 0.41127(9) 0.3282(2) 0.23666(10)
H18 H 0.4452 0.2247 0.2877
H19 H 0.4503 0.4321 0.2248
H20 H 0.3782 0.2458 0.1775
O1 O 0.35538(6) 0.91931(15) 0.41327(6)
O2 O 0.45997(6) 0.68509(18) 0.34833(7)
O3 O 0.35259(6) 0.44927(15) 0.26612(7)
O4 O -0.10136(6) 0.75983(16) -0.00320(6)
loop_
_geom_bond_atom_site_label_1
_geom_bond_atom_site_label_2
_geom_bond_site_symmetry_1
_geom_bond_site_symmetry_2
C1 C2 1_555 1_555
C2 C3 1_555 1_555
C3 C4 1_555 1_555
C4 H1 1_555 1_555
H2 C4 1_555 1_555
C5 C4 1_555 1_555
H3 C5 1_555 1_555
H4 C5 1_555 1_555
C6 C5 1_555 1_555
H5 C6 1_555 1_555
H6 C6 1_555 1_555
C7 C2 1_555 1_555
H7 C7 1_555 1_555
H8 C7 1_555 1_555
C8 C7 1_555 1_555
H9 C8 1_555 1_555
H10 C8 1_555 1_555
C9 C8 1_555 1_555
C10 C9 1_555 1_555
C11 C3 1_555 1_555
H11 C11 1_555 1_555
C12 C9 1_555 1_555
H12 C12 1_555 1_555
C13 C12 1_555 1_555
C14 C13 1_555 1_555
H13 C14 1_555 1_555
C15 C10 1_555 1_555
H14 C15 1_555 1_555
C16 H15 1_555 1_555
H16 C16 1_555 1_555
H17 C16 1_555 1_555
C17 H18 1_555 1_555
H19 C17 1_555 1_555
H20 C17 1_555 1_555
O1 C2 1_555 1_555
O2 C1 1_555 1_555
O3 C1 1_555 1_555
O4 C13 1_555 1_555
C6 O1 1_555 1_555
C10 C11 1_555 1_555
C14 C15 1_555 1_555
C16 O4 1_555 1_555
C17 O3 1_555 1_555

#END
