
#######################################################################
#
#                 Cambridge Crystallographic Data Centre
#                                CCDC 
#
#######################################################################
#
# If this CIF has been generated from an entry in the Cambridge 
# Structural Database, then it will include bibliographic, chemical, 
# crystal, experimental, refinement or atomic coordinate data resulting 
# from the CCDC's data processing and validation procedures.
#
#######################################################################

data_MANKIY
_chemical_formula_moiety         'C18 H14 Cl1 N1 O3'
_chemical_name_systematic        
'methyl 3-(4-chlorobenzene-1-carbonyl)-1-methylindolizine-7-carboxylate'
_symmetry_cell_setting           triclinic
_symmetry_space_group_name_H-M   'P -1'
_symmetry_Int_Tables_number      2
_space_group_name_Hall           '-P 1'
loop_
_symmetry_equiv_pos_site_id
_symmetry_equiv_pos_as_xyz
1 x,y,z
2 -x,-y,-z
_cell_length_a                   7.517(3)
_cell_length_b                   9.801(4)
_cell_length_c                   11.650(5)
_cell_angle_alpha                113.325(7)
_cell_angle_beta                 97.507(7)
_cell_angle_gamma                97.595(7)
_cell_volume                     765.294
_exptl_crystal_colour            yellow
_exptl_crystal_description       block
_cell_formula_units_Z            2
loop_
_atom_site_label
_atom_site_type_symbol
_atom_site_fract_x
_atom_site_fract_y
_atom_site_fract_z
Cl1 Cl 0.33378(10) 1.15387(7) 0.05842(6)
N1 N 0.2215(2) 0.60010(16) 0.42538(14)
C1 C 0.2200(2) 0.5920(2) 0.62913(17)
H1 H 0.2056 0.6367 0.7133
C2 C 0.2598(3) 0.4561(2) 0.37730(19)
H2 H 0.2723 0.4099 0.2928
O1 O 0.2760(2) 0.44279(16) 0.78035(14)
C3 C 0.2609(2) 0.4509(2) 0.58193(18)
O2 O 0.3227(3) 0.23999(17) 0.62025(15)
C4 C 0.1995(2) 0.66985(19) 0.55199(17)
C5 C 0.2788(3) 0.3835(2) 0.45292(19)
H3 H 0.3042 0.2866 0.4199
C6 C 0.3909(3) 1.0346(2) 0.22816(19)
H4 H 0.4743 1.1249 0.2781
C7 C 0.2049(3) 0.6998(2) 0.37010(17)
C8 C 0.2124(3) 0.6618(2) 0.23792(18)
C9 C 0.2894(3) 0.3651(2) 0.6602(2)
C10 C 0.3612(3) 0.9235(2) 0.27169(18)
H5 H 0.4234 0.9398 0.3519
O3 O 0.1965(3) 0.52995(17) 0.15942(13)
C11 C 0.1634(3) 0.8135(2) 0.57394(17)
C12 C 0.2391(3) 0.7875(2) 0.19700(17)
C13 C 0.1235(3) 0.9239(2) 0.69472(18)
H6 H 0.1147 1.0173 0.6879
H7 H 0.2204 0.9426 0.7648
H8 H 0.0098 0.8826 0.7091
C14 C 0.1697(3) 0.8311(2) 0.46292(17)
H9 H 0.1530 0.9175 0.4513
C15 C 0.1488(3) 0.7652(2) 0.07710(18)
H10 H 0.0697 0.6732 0.0250
C16 C 0.2963(3) 1.0111(2) 0.11023(19)
C17 C 0.1748(3) 0.8772(3) 0.03434(19)
H11 H 0.1109 0.8625 -0.0449
C18 C 0.3032(4) 0.3687(3) 0.8638(2)
H12 H 0.2111 0.2778 0.8336
H13 H 0.2945 0.4354 0.9485
H14 H 0.4222 0.3432 0.8653
loop_
_geom_bond_atom_site_label_1
_geom_bond_atom_site_label_2
_geom_bond_site_symmetry_1
_geom_bond_site_symmetry_2
Cl1 C16 1_555 1_555
N1 C2 1_555 1_555
C1 H1 1_555 1_555
C2 H2 1_555 1_555
O1 C9 1_555 1_555
C3 C1 1_555 1_555
O2 C9 1_555 1_555
C4 N1 1_555 1_555
C5 C2 1_555 1_555
H3 C5 1_555 1_555
C6 H4 1_555 1_555
C7 N1 1_555 1_555
C8 C7 1_555 1_555
C9 C3 1_555 1_555
C10 C6 1_555 1_555
H5 C10 1_555 1_555
O3 C8 1_555 1_555
C11 C4 1_555 1_555
C12 C8 1_555 1_555
C13 C11 1_555 1_555
H6 C13 1_555 1_555
H7 C13 1_555 1_555
H8 C13 1_555 1_555
C14 C7 1_555 1_555
H9 C14 1_555 1_555
C15 C12 1_555 1_555
H10 C15 1_555 1_555
C16 C6 1_555 1_555
C17 C15 1_555 1_555
H11 C17 1_555 1_555
C18 O1 1_555 1_555
H12 C18 1_555 1_555
H13 C18 1_555 1_555
H14 C18 1_555 1_555
C1 C4 1_555 1_555
C3 C5 1_555 1_555
C10 C12 1_555 1_555
C11 C14 1_555 1_555
C16 C17 1_555 1_555

#END
