
#######################################################################
#
#                 Cambridge Crystallographic Data Centre
#                                CCDC 
#
#######################################################################
#
# If this CIF has been generated from an entry in the Cambridge 
# Structural Database, then it will include bibliographic, chemical, 
# crystal, experimental, refinement or atomic coordinate data resulting 
# from the CCDC's data processing and validation procedures.
#
#######################################################################

data_MANQIE
_chemical_formula_moiety         'C25 H28 O5'
_chemical_name_systematic        
5,5,7',8a,10'-pentamethyl-3,4,4a,8a-tetrahydro-1H,4'H,8'H-spiro[naphthalene-2,11'-[3]oxatricyclo[5.3.2.0^1,5^]dodeca[5,9]diene]-1,4',6,8'(5H)-tetrone
_symmetry_cell_setting           monoclinic
_symmetry_space_group_name_H-M   'P 21'
_symmetry_Int_Tables_number      4
_space_group_name_Hall           'P 2yb'
loop_
_symmetry_equiv_pos_site_id
_symmetry_equiv_pos_as_xyz
1 x,y,z
2 -x,1/2+y,-z
_cell_length_a                   11.1054(3)
_cell_length_b                   13.0801(4)
_cell_length_c                   14.4592(4)
_cell_angle_alpha                90
_cell_angle_beta                 92.4620(10)
_cell_angle_gamma                90
_cell_volume                     2098.4
_exptl_crystal_colour            colorless
_exptl_crystal_description       block
_cell_formula_units_Z            4
loop_
_atom_site_label
_atom_site_type_symbol
_atom_site_fract_x
_atom_site_fract_y
_atom_site_fract_z
O1 O 0.61349(12) 0.75524(12) 0.31495(9)
O2 O 0.55820(11) 0.77000(11) -0.10780(9)
O3 O 0.66266(11) 0.62387(10) -0.09997(8)
O4 O 0.91064(12) 0.48748(10) 0.11583(10)
O5 O 1.42072(12) 0.55663(12) -0.00865(11)
C1 C 0.74889(18) 0.89449(16) 0.22380(14)
H1 H 0.7926 0.9374 0.1810
H2 H 0.7961 0.8881 0.2823
H3 H 0.6708 0.9259 0.2353
C2 C 0.72881(16) 0.78857(15) 0.18129(12)
C3 C 0.85433(16) 0.73510(14) 0.16841(12)
H4 H 0.9163 0.7889 0.1626
H5 H 0.8756 0.6954 0.2250
C4 C 0.85990(15) 0.66258(14) 0.08365(12)
C5 C 0.94818(16) 0.57272(14) 0.10295(11)
C6 C 1.08479(16) 0.59366(14) 0.10282(12)
C7 C 1.11089(15) 0.65106(14) 0.01207(12)
H6 H 1.0776 0.6063 -0.0390
C8 C 1.24673(16) 0.66452(14) -0.00716(12)
C9 C 1.30863(17) 0.75228(15) 0.04710(13)
H7 H 1.3154 0.7345 0.1130
H8 H 1.2607 0.8148 0.0390
H9 H 1.3892 0.7635 0.0240
C10 C 0.65805(16) 0.72074(16) 0.24578(12)
C11 C 0.72793(15) 0.61939(14) 0.06179(12)
C12 C 0.65481(15) 0.71308(14) 0.03639(12)
C13 C 0.61536(15) 0.70897(15) -0.06211(12)
C14 C 0.71731(16) 0.55710(15) -0.02942(12)
H10 H 0.7980 0.5346 -0.0477
H11 H 0.6665 0.4958 -0.0212
C15 C 0.65596(16) 0.79463(14) 0.09076(12)
H12 H 0.6126 0.8547 0.0735
C16 C 0.67545(16) 0.56355(15) 0.14480(13)
C17 C 0.64680(16) 0.61190(16) 0.22283(13)
H13 H 0.6149 0.5699 0.2695
C18 C 0.64551(18) 0.45249(15) 0.13608(14)
H14 H 0.6317 0.4242 0.1975
H15 H 0.7126 0.4163 0.1088
H16 H 0.5726 0.4441 0.0962
C19 C 1.12187(17) 0.64985(16) 0.19354(12)
H17 H 1.0851 0.6159 0.2457
H18 H 1.0943 0.7210 0.1898
H19 H 1.2098 0.6484 0.2027
C20 C 1.03727(15) 0.74920(14) 0.00509(12)
H20 H 1.0589 0.7878 -0.0507
H21 H 1.0561 0.7925 0.0600
C21 C 0.90298(16) 0.72466(14) -0.00047(12)
H22 H 0.8843 0.6853 -0.0578
H23 H 0.8571 0.7895 -0.0049
C22 C 1.31746(16) 0.56667(16) 0.01562(13)
C23 C 1.26077(17) 0.48462(15) 0.06803(13)
H24 H 1.3021 0.4214 0.0752
C24 C 1.15404(16) 0.49485(15) 0.10595(13)
H25 H 1.1205 0.4376 0.1360
C25 C 1.25764(16) 0.68433(15) -0.11139(12)
H26 H 1.3427 0.6932 -0.1250
H27 H 1.2128 0.7464 -0.1290
H28 H 1.2244 0.6260 -0.1466
O6 O 0.14587(13) 0.75732(13) 0.51352(10)
O7 O 0.97525(13) 0.52796(13) 0.81524(10)
O8 O 0.99339(13) 0.57051(12) 0.38575(9)
O9 O 0.88805(12) 0.71265(11) 0.41196(9)
O10 O 0.66015(13) 0.80585(11) 0.63965(11)
C26 C 0.25012(17) 0.74030(16) 0.53894(13)
C27 C 0.31670(16) 0.64622(16) 0.50330(13)
C28 C 0.45432(16) 0.65562(15) 0.52484(12)
H29 H 0.4825 0.7102 0.4825
C29 C 0.52706(16) 0.56115(15) 0.50212(13)
H30 H 0.4988 0.5339 0.4411
H31 H 0.5147 0.5077 0.5493
C30 C 0.66097(16) 0.58718(15) 0.50005(12)
H32 H 0.6734 0.6342 0.4477
H33 H 0.7066 0.5237 0.4886
C31 C 0.71332(15) 0.63777(15) 0.59101(12)
C32 C 0.83983(16) 0.68950(14) 0.57222(12)
C33 C 0.90235(16) 0.73610(15) 0.65955(13)
C34 C 0.94147(17) 0.67891(16) 0.73198(13)
H34 H 0.9805 0.7154 0.7815
C35 C 0.93244(17) 0.56824(17) 0.74525(13)
C36 C 0.73282(16) 0.55328(15) 0.66510(13)
H35 H 0.6739 0.4979 0.6518
H36 H 0.7152 0.5824 0.7263
C37 C 0.86307(17) 0.50516(15) 0.67152(13)
C38 C 0.85629(19) 0.39409(17) 0.70127(14)
H37 H 0.8105 0.3549 0.6539
H38 H 0.8160 0.3896 0.7601
H39 H 0.9379 0.3661 0.7090
C39 C 0.92288(16) 0.51517(15) 0.58024(13)
H40 H 0.9664 0.4597 0.5554
C40 C 0.91305(16) 0.60325(15) 0.53573(12)
C41 C 0.94059(16) 0.62324(16) 0.43841(13)
C42 C 0.83270(17) 0.76364(15) 0.48874(13)
H41 H 0.7476 0.7805 0.4720
H42 H 0.8761 0.8279 0.5044
C43 C 0.48993(16) 0.69343(15) 0.62421(13)
C44 C 0.62521(17) 0.72036(15) 0.62234(12)
C45 C 0.46631(17) 0.61687(18) 0.70321(13)
H43 H 0.5084 0.6400 0.7604
H44 H 0.4960 0.5491 0.6865
H45 H 0.3796 0.6132 0.7127
C46 C 0.42043(18) 0.78848(18) 0.64479(15)
H46 H 0.4556 0.8367 0.6870
C47 C 0.31185(19) 0.80834(17) 0.60672(15)
H47 H 0.2723 0.8693 0.6241
C48 C 0.25791(18) 0.55089(17) 0.54450(15)
H48 H 0.2561 0.5582 0.6119
H49 H 0.3048 0.4901 0.5294
H50 H 0.1754 0.5437 0.5184
C49 C 0.29462(18) 0.64287(19) 0.39754(13)
H51 H 0.2082 0.6497 0.3823
H52 H 0.3235 0.5776 0.3737
H53 H 0.3381 0.6992 0.3692
C50 C 0.93177(19) 0.84780(16) 0.66138(14)
H54 H 0.9638 0.8667 0.7232
H55 H 0.8586 0.8874 0.6464
H56 H 0.9921 0.8624 0.6157
loop_
_geom_bond_atom_site_label_1
_geom_bond_atom_site_label_2
_geom_bond_site_symmetry_1
_geom_bond_site_symmetry_2
O1 C10 1_555 1_555
O2 C13 1_555 1_555
O3 C13 1_555 1_555
O4 C5 1_555 1_555
O5 C22 1_555 1_555
C1 H1 1_555 1_555
H2 C1 1_555 1_555
H3 C1 1_555 1_555
C2 C1 1_555 1_555
C3 C2 1_555 1_555
H4 C3 1_555 1_555
H5 C3 1_555 1_555
C4 C3 1_555 1_555
C5 C4 1_555 1_555
C6 C5 1_555 1_555
C7 C6 1_555 1_555
H6 C7 1_555 1_555
C8 C7 1_555 1_555
C9 C8 1_555 1_555
H7 C9 1_555 1_555
H8 C9 1_555 1_555
H9 C9 1_555 1_555
C10 C2 1_555 1_555
C11 C4 1_555 1_555
C12 C11 1_555 1_555
C13 C12 1_555 1_555
C14 O3 1_555 1_555
H10 C14 1_555 1_555
H11 C14 1_555 1_555
C15 C2 1_555 1_555
H12 C15 1_555 1_555
C16 C11 1_555 1_555
C17 C10 1_555 1_555
H13 C17 1_555 1_555
C18 C16 1_555 1_555
H14 C18 1_555 1_555
H15 C18 1_555 1_555
H16 C18 1_555 1_555
C19 C6 1_555 1_555
H17 C19 1_555 1_555
H18 C19 1_555 1_555
H19 C19 1_555 1_555
C20 C7 1_555 1_555
H20 C20 1_555 1_555
H21 C20 1_555 1_555
C21 C4 1_555 1_555
H22 C21 1_555 1_555
H23 C21 1_555 1_555
C22 C8 1_555 1_555
C23 C22 1_555 1_555
H24 C23 1_555 1_555
C24 C6 1_555 1_555
H25 C24 1_555 1_555
C25 C8 1_555 1_555
H26 C25 1_555 1_555
H27 C25 1_555 1_555
H28 C25 1_555 1_555
O6 C26 1_555 1_555
O7 C35 1_555 1_555
O8 C41 1_555 1_555
O9 C41 1_555 1_555
O10 C44 1_555 1_555
C26 C27 1_555 1_555
C27 C28 1_555 1_555
C28 H29 1_555 1_555
C29 C28 1_555 1_555
H30 C29 1_555 1_555
H31 C29 1_555 1_555
C30 C29 1_555 1_555
H32 C30 1_555 1_555
H33 C30 1_555 1_555
C31 C30 1_555 1_555
C32 C31 1_555 1_555
C33 C32 1_555 1_555
C34 C33 1_555 1_555
H34 C34 1_555 1_555
C35 C34 1_555 1_555
C36 C31 1_555 1_555
H35 C36 1_555 1_555
H36 C36 1_555 1_555
C37 C35 1_555 1_555
C38 C37 1_555 1_555
H37 C38 1_555 1_555
H38 C38 1_555 1_555
H39 C38 1_555 1_555
C39 C37 1_555 1_555
H40 C39 1_555 1_555
C40 C32 1_555 1_555
C41 C40 1_555 1_555
C42 O9 1_555 1_555
H41 C42 1_555 1_555
H42 C42 1_555 1_555
C43 C28 1_555 1_555
C44 C31 1_555 1_555
C45 C43 1_555 1_555
H43 C45 1_555 1_555
H44 C45 1_555 1_555
H45 C45 1_555 1_555
C46 C43 1_555 1_555
H46 C46 1_555 1_555
C47 C26 1_555 1_555
H47 C47 1_555 1_555
C48 C27 1_555 1_555
H48 C48 1_555 1_555
H49 C48 1_555 1_555
H50 C48 1_555 1_555
C49 C27 1_555 1_555
H51 C49 1_555 1_555
H52 C49 1_555 1_555
H53 C49 1_555 1_555
C50 C33 1_555 1_555
H54 C50 1_555 1_555
H55 C50 1_555 1_555
H56 C50 1_555 1_555
C11 C14 1_555 1_555
C12 C15 1_555 1_555
C16 C17 1_555 1_555
C20 C21 1_555 1_555
C23 C24 1_555 1_555
C32 C42 1_555 1_555
C36 C37 1_555 1_555
C39 C40 1_555 1_555
C43 C44 1_555 1_555
C46 C47 1_555 1_555

#END
