
#######################################################################
#
#                 Cambridge Crystallographic Data Centre
#                                CCDC 
#
#######################################################################
#
# If this CIF has been generated from an entry in the Cambridge 
# Structural Database, then it will include bibliographic, chemical, 
# crystal, experimental, refinement or atomic coordinate data resulting 
# from the CCDC's data processing and validation procedures.
#
#######################################################################

data_MANQOK
_chemical_formula_moiety         'C25 H32 O5,0.667(C1 H4 O1)'
_chemical_name_systematic        
'15-hydroxy-5,5,9,12,14-pentamethyl-18-oxahexacyclo[12.6.1.0^1,10^.0^4,9^.0^12,20^.0^16,20^]henicos-7-ene-6,13,17-trione methanol solvate'
_symmetry_cell_setting           triclinic
_symmetry_space_group_name_H-M   'P 1'
_symmetry_Int_Tables_number      1
_space_group_name_Hall           'P 1'
loop_
_symmetry_equiv_pos_site_id
_symmetry_equiv_pos_as_xyz
1 x,y,z
_cell_length_a                   7.3400(15)
_cell_length_b                   15.440(3)
_cell_length_c                   16.480(3)
_cell_angle_alpha                114.57(3)
_cell_angle_beta                 97.75(3)
_cell_angle_gamma                94.55(3)
_cell_volume                     1663.94
_exptl_crystal_colour            colorless
_exptl_crystal_description       prism
_cell_formula_units_Z            3
loop_
_atom_site_label
_atom_site_type_symbol
_atom_site_fract_x
_atom_site_fract_y
_atom_site_fract_z
O1 O 0.0785(5) -0.0417(3) 0.2753(3)
O2 O 0.3558(5) 0.0864(3) 0.4654(2)
H1 H 0.4054 0.1166 0.5204
O3 O 0.4529(5) 0.3068(3) 0.5728(2)
O4 O 0.3032(5) 0.3433(2) 0.4672(2)
O5 O -0.1820(5) 0.3461(3) 0.0787(2)
C1 C 0.4681(6) 0.1098(4) 0.4118(3)
H2 H 0.6011 0.1067 0.4320
C2 C 0.0010(6) 0.1547(4) 0.3852(3)
H3 H -0.0530 0.2119 0.3887
H4 H 0.0747 0.1683 0.4446
H5 H -0.0990 0.1009 0.3681
C3 C 0.1253(5) 0.1282(3) 0.3146(3)
C4 C 0.0285(6) 0.1172(3) 0.2214(3)
H6 H -0.0684 0.0596 0.1922
H7 H -0.0297 0.1747 0.2274
C5 C 0.3992(7) 0.0336(3) 0.3132(3)
C6 C 0.4591(9) -0.0630(4) 0.2993(4)
H8 H 0.4050 -0.0862 0.3391
H9 H 0.5950 -0.0553 0.3139
H10 H 0.4157 -0.1096 0.2358
C7 C 0.1896(7) 0.0306(3) 0.2991(3)
C8 C 0.4722(6) 0.0718(4) 0.2484(3)
H11 H 0.6067 0.0966 0.2705
H12 H 0.4575 0.0177 0.1873
C9 C 0.1852(6) 0.1063(3) 0.1664(3)
H13 H 0.1900 0.0359 0.1333
C10 C 0.3705(5) 0.1528(3) 0.2404(3)
C11 C 0.5095(6) 0.2181(3) 0.2201(3)
H14 H 0.5828 0.1764 0.1774
H15 H 0.5971 0.2594 0.2773
C12 C 0.2765(7) 0.0950(4) 0.0209(3)
H16 H 0.2311 0.0257 -0.0083
H17 H 0.4076 0.1064 0.0495
H18 H 0.2643 0.1203 -0.0249
C13 C 0.1600(6) 0.1470(3) 0.0944(3)
C14 C -0.1467(6) 0.1851(3) 0.0404(3)
H19 H -0.2737 0.1627 0.0123
C15 C -0.0407(6) 0.1225(3) 0.0486(3)
H20 H -0.0960 0.0569 0.0234
C16 C -0.0751(6) 0.2883(3) 0.0733(3)
C17 C 0.1369(6) 0.3157(3) 0.0941(3)
C18 C 0.1920(6) 0.4245(3) 0.1533(3)
H21 H 0.1148 0.4597 0.1281
H22 H 0.3233 0.4435 0.1544
H23 H 0.1731 0.4398 0.2153
C19 C 0.1968(6) 0.2925(4) 0.0017(3)
H24 H 0.1266 0.2308 -0.0441
H25 H 0.3301 0.2884 0.0075
H26 H 0.1715 0.3436 -0.0170
C20 C 0.2165(6) 0.2578(3) 0.1447(3)
H27 H 0.1597 0.2782 0.2004
C21 C 0.4041(6) 0.2879(3) 0.4923(3)
C22 C 0.4269(6) 0.2843(3) 0.1797(3)
H28 H 0.4542 0.3516 0.2270
H29 H 0.4895 0.2808 0.1291
C23 C 0.4509(6) 0.2081(3) 0.4115(3)
H30 H 0.5731 0.2320 0.4019
C24 C 0.2674(6) 0.3061(3) 0.3682(3)
H31 H 0.3523 0.3436 0.3486
H32 H 0.1375 0.3093 0.3454
C25 C 0.3031(5) 0.2004(3) 0.3326(3)
C26 C 0.4793(6) 0.2343(3) 0.7138(3)
C27 C 0.6717(6) 0.2898(3) 0.7635(3)
C28 C 0.7310(9) 0.2512(4) 0.8335(4)
H33 H 0.6321 0.2532 0.8683
H34 H 0.8451 0.2912 0.8747
H35 H 0.7538 0.1847 0.8021
C29 C 0.8035(7) 0.2641(3) 0.6946(4)
H36 H 0.9312 0.2933 0.7264
H37 H 0.7665 0.2886 0.6497
H38 H 0.7968 0.1939 0.6639
C30 C 0.6616(5) 0.3988(3) 0.8018(3)
H39 H 0.6231 0.4109 0.7474
O6 O 0.4576(5) 0.1537(2) 0.6513(2)
C31 C 0.5117(6) 0.4340(3) 0.8610(3)
C32 C 0.3358(7) 0.3651(4) 0.8183(4)
H40 H 0.2265 0.3852 0.8410
O7 O 0.7323(5) 0.6066(2) 0.6536(2)
O8 O 0.7814(5) 0.7602(2) 0.6800(2)
C33 C 0.5673(9) 0.4466(4) 0.9596(3)
H41 H 0.4685 0.4717 0.9935
H42 H 0.6833 0.4919 0.9888
H43 H 0.5854 0.3842 0.9591
C34 C 0.4756(7) 0.5340(3) 0.8643(3)
H44 H 0.4156 0.5668 0.9179
O9 O 0.5532(5) 0.8458(3) 0.8202(3)
H45 H 0.6209 0.8866 0.8117
C35 C 0.3455(6) 0.5279(4) 0.7804(4)
H46 H 0.2149 0.5275 0.7895
H47 H 0.3537 0.4692 0.7258
C36 C 0.8501(6) 0.4628(3) 0.8492(3)
H48 H 0.9302 0.4532 0.8033
H49 H 0.9106 0.4415 0.8938
C37 C 0.8390(7) 0.5712(3) 0.8987(3)
H50 H 0.9396 0.6071 0.8855
H51 H 0.8641 0.5901 0.9649
C38 C 0.6534(6) 0.6037(3) 0.8750(3)
C39 C 0.6531(9) 0.7059(3) 0.9532(3)
H52 H 0.5978 0.6983 1.0018
H53 H 0.7831 0.7382 0.9794
C40 C 0.6288(5) 0.6191(3) 0.7871(3)
O10 O 0.2167(6) 0.7204(3) 0.8612(4)
C41 C 0.3193(6) 0.2767(3) 0.7502(4)
H54 H 0.1988 0.2400 0.7244
C42 C 0.6971(6) 0.5509(3) 0.7047(3)
H55 H 0.8124 0.5292 0.7230
H56 H 0.6017 0.4937 0.6678
C43 C 0.7399(5) 0.7151(3) 0.8036(3)
H57 H 0.8687 0.7175 0.8343
C44 C 0.7524(6) 0.7018(3) 0.7085(3)
C45 C 0.6648(6) 0.8041(3) 0.8667(3)
H58 H 0.7712 0.8535 0.9096
C46 C 0.5442(8) 0.7701(3) 0.9208(4)
C47 C 0.4995(11) 0.8569(4) 1.0004(4)
H59 H 0.4459 0.9007 0.9781
H60 H 0.6139 0.8908 1.0448
H61 H 0.4101 0.8347 1.0294
C48 C 0.3238(7) 0.6200(4) 0.6825(4)
H62 H 0.3728 0.6795 0.6799
H63 H 0.1891 0.6164 0.6801
H64 H 0.3498 0.5644 0.6309
C49 C 0.3750(8) 0.7070(4) 0.8530(4)
C50 C 0.4167(6) 0.6194(3) 0.7710(3)
C51 C 0.6600(9) 0.6808(4) 0.1664(3)
H65 H 0.6018 0.7390 0.1790
H66 H 0.5670 0.6237 0.1293
H67 H 0.7614 0.6818 0.1336
C52 C 0.7364(7) 0.6777(3) 0.2550(3)
C53 C 0.5869(6) 0.6735(3) 0.3095(3)
C54 C 0.8260(6) 0.5854(3) 0.2392(3)
H68 H 0.9105 0.5759 0.1944
C55 C 0.9399(6) 0.6021(3) 0.3311(3)
H69 H 1.0718 0.6251 0.3321
C56 C 0.9409(6) 0.5194(3) 0.3561(3)
C57 C 0.9651(6) 0.6586(3) 0.4894(3)
H70 H 1.0939 0.6931 0.5143
H71 H 0.8924 0.6781 0.5390
C58 C 0.8758(5) 0.6809(3) 0.4121(3)
C59 C 0.6603(5) 0.6727(3) 0.4011(3)
C60 C 0.6398(5) 0.7708(3) 0.4753(3)
H72 H 0.5115 0.7851 0.4660
H73 H 0.6696 0.7721 0.5362
C61 C 0.5540(6) 0.5883(3) 0.4081(3)
H74 H 0.5979 0.5897 0.4675
H75 H 0.5746 0.5279 0.3601
H76 H 0.4209 0.5930 0.4011
C62 C 0.8906(6) 0.7640(3) 0.3148(3)
H77 H 0.8542 0.8227 0.3108
H78 H 1.0072 0.7519 0.2907
C63 C 0.9276(5) 0.7822(3) 0.4161(3)
C64 C 0.7794(5) 0.8436(3) 0.4654(3)
H79 H 0.7128 0.8672 0.4233
C65 C 1.1299(5) 0.8303(3) 0.4570(3)
H80 H 1.1591 0.8773 0.4325
H81 H 1.2109 0.7802 0.4354
C66 C 1.1828(5) 0.8832(3) 0.5623(3)
H82 H 1.2590 0.8447 0.5846
H83 H 1.2593 0.9462 0.5799
C67 C 1.0113(5) 0.8998(3) 0.6080(3)
H84 H 0.9548 0.8341 0.5976
C68 C 0.8642(5) 0.9327(3) 0.5558(3)
C69 C 0.9399(6) 1.0159(3) 0.5343(3)
H85 H 0.8356 1.0412 0.5125
H86 H 1.0162 0.9916 0.4874
H87 H 1.0158 1.0673 0.5895
C70 C 0.7096(5) 0.9655(3) 0.6071(3)
H88 H 0.6028 0.9783 0.5770
C71 C 0.7127(6) 0.9778(3) 0.6929(3)
H89 H 0.6050 0.9942 0.7186
C72 C 0.8744(6) 0.9671(3) 0.7484(3)
C73 C 1.0570(6) 0.9580(3) 0.7127(3)
C74 C 1.1503(6) 1.0636(3) 0.7468(3)
H90 H 1.0585 1.1017 0.7351
H91 H 1.2528 1.0653 0.7148
H92 H 1.1987 1.0906 0.8122
C75 C 1.1824(6) 0.9069(3) 0.7547(3)
H93 H 1.1999 0.9404 0.8211
H94 H 1.3033 0.9075 0.7359
H95 H 1.1241 0.8401 0.7342
O11 O 0.8649(5) 0.9722(2) 0.8241(2)
O12 O 0.4237(5) 0.6731(2) 0.2852(2)
O13 O 0.6799(5) 0.5063(2) 0.2036(2)
H96 H 0.7173 0.4568 0.1682
O14 O 0.9308(5) 0.4339(2) 0.3103(2)
O15 O 0.9640(5) 0.5542(2) 0.4488(2)
O16 O 0.8030(7) 0.3569(3) 0.4307(4)
H97 H 0.8506 0.3867 0.4043
C76 C 0.8879(9) 0.3987(4) 0.5226(4)
H98 H 1.0171 0.3866 0.5281
H99 H 0.8203 0.3703 0.5553
H100 H 0.8855 0.4683 0.5488
O17 O 0.1642(12) 0.6312(6) 0.1127(7)
H101 H 0.2467 0.6326 0.1541
C77 C 0.1778(13) 0.7162(7) 0.1113(8)
H102 H 0.0614 0.7424 0.1219
H103 H 0.2015 0.7094 0.0519
H104 H 0.2806 0.7600 0.1589
loop_
_geom_bond_atom_site_label_1
_geom_bond_atom_site_label_2
_geom_bond_site_symmetry_1
_geom_bond_site_symmetry_2
O1 C7 1_555 1_555
O2 H1 1_555 1_555
O3 C21 1_555 1_555
O4 C21 1_555 1_555
O5 C16 1_555 1_555
C1 O2 1_555 1_555
H2 C1 1_555 1_555
C2 H3 1_555 1_555
H4 C2 1_555 1_555
H5 C2 1_555 1_555
C3 C2 1_555 1_555
C4 C3 1_555 1_555
H6 C4 1_555 1_555
H7 C4 1_555 1_555
C5 C1 1_555 1_555
C6 C5 1_555 1_555
H8 C6 1_555 1_555
H9 C6 1_555 1_555
H10 C6 1_555 1_555
C7 C3 1_555 1_555
C8 C5 1_555 1_555
H11 C8 1_555 1_555
H12 C8 1_555 1_555
C9 C4 1_555 1_555
H13 C9 1_555 1_555
C10 C8 1_555 1_555
C11 C10 1_555 1_555
H14 C11 1_555 1_555
H15 C11 1_555 1_555
C12 H16 1_555 1_555
H17 C12 1_555 1_555
H18 C12 1_555 1_555
C13 C9 1_555 1_555
C14 H19 1_555 1_555
C15 C13 1_555 1_555
H20 C15 1_555 1_555
C16 C14 1_555 1_555
C17 C16 1_555 1_555
C18 C17 1_555 1_555
H21 C18 1_555 1_555
H22 C18 1_555 1_555
H23 C18 1_555 1_555
C19 C17 1_555 1_555
H24 C19 1_555 1_555
H25 C19 1_555 1_555
H26 C19 1_555 1_555
C20 C13 1_555 1_555
H27 C20 1_555 1_555
C21 C23 1_555 1_555
C22 C11 1_555 1_555
H28 C22 1_555 1_555
H29 C22 1_555 1_555
C23 C1 1_555 1_555
H30 C23 1_555 1_555
C24 O4 1_555 1_555
H31 C24 1_555 1_555
H32 C24 1_555 1_555
C25 C3 1_555 1_555
C26 C27 1_555 1_555
C27 C28 1_555 1_555
C28 H33 1_555 1_555
H34 C28 1_555 1_555
H35 C28 1_555 1_555
C29 C27 1_555 1_555
H36 C29 1_555 1_555
H37 C29 1_555 1_555
H38 C29 1_555 1_555
C30 C27 1_555 1_555
H39 C30 1_555 1_555
O6 C26 1_555 1_555
C31 C30 1_555 1_555
C32 C31 1_555 1_555
H40 C32 1_555 1_555
O7 C42 1_555 1_555
O8 C44 1_555 1_555
C33 C31 1_555 1_555
H41 C33 1_555 1_555
H42 C33 1_555 1_555
H43 C33 1_555 1_555
C34 C31 1_555 1_555
H44 C34 1_555 1_555
O9 H45 1_555 1_555
C35 C34 1_555 1_555
H46 C35 1_555 1_555
H47 C35 1_555 1_555
C36 C30 1_555 1_555
H48 C36 1_555 1_555
H49 C36 1_555 1_555
C37 C36 1_555 1_555
H50 C37 1_555 1_555
H51 C37 1_555 1_555
C38 C34 1_555 1_555
C39 C38 1_555 1_555
H52 C39 1_555 1_555
H53 C39 1_555 1_555
C40 C38 1_555 1_555
O10 C49 1_555 1_555
C41 C26 1_555 1_555
H54 C41 1_555 1_555
C42 C40 1_555 1_555
H55 C42 1_555 1_555
H56 C42 1_555 1_555
C43 C40 1_555 1_555
H57 C43 1_555 1_555
C44 O7 1_555 1_555
C45 O9 1_555 1_555
H58 C45 1_555 1_555
C46 C39 1_555 1_555
C47 C46 1_555 1_555
H59 C47 1_555 1_555
H60 C47 1_555 1_555
H61 C47 1_555 1_555
C48 H62 1_555 1_555
H63 C48 1_555 1_555
H64 C48 1_555 1_555
C49 C46 1_555 1_555
C50 C35 1_555 1_555
C51 H65 1_555 1_555
H66 C51 1_555 1_555
H67 C51 1_555 1_555
C52 C51 1_555 1_555
C53 C52 1_555 1_555
C54 C52 1_555 1_555
H68 C54 1_555 1_555
C55 C54 1_555 1_555
H69 C55 1_555 1_555
C56 C55 1_555 1_555
C57 H70 1_555 1_555
H71 C57 1_555 1_555
C58 C55 1_555 1_555
C59 C53 1_555 1_555
C60 C59 1_555 1_555
H72 C60 1_555 1_555
H73 C60 1_555 1_555
C61 C59 1_555 1_555
H74 C61 1_555 1_555
H75 C61 1_555 1_555
H76 C61 1_555 1_555
C62 C52 1_555 1_555
H77 C62 1_555 1_555
H78 C62 1_555 1_555
C63 C58 1_555 1_555
C64 C60 1_555 1_555
H79 C64 1_555 1_555
C65 C63 1_555 1_555
H80 C65 1_555 1_555
H81 C65 1_555 1_555
C66 C65 1_555 1_555
H82 C66 1_555 1_555
H83 C66 1_555 1_555
C67 C66 1_555 1_555
H84 C67 1_555 1_555
C68 C64 1_555 1_555
C69 C68 1_555 1_555
H85 C69 1_555 1_555
H86 C69 1_555 1_555
H87 C69 1_555 1_555
C70 C68 1_555 1_555
H88 C70 1_555 1_555
C71 C70 1_555 1_555
H89 C71 1_555 1_555
C72 C71 1_555 1_555
C73 C67 1_555 1_555
C74 C73 1_555 1_555
H90 C74 1_555 1_555
H91 C74 1_555 1_555
H92 C74 1_555 1_555
C75 C73 1_555 1_555
H93 C75 1_555 1_555
H94 C75 1_555 1_555
H95 C75 1_555 1_555
O11 C72 1_555 1_555
O12 C53 1_555 1_555
O13 C54 1_555 1_555
H96 O13 1_555 1_555
O14 C56 1_555 1_555
O15 C56 1_555 1_555
O16 H97 1_555 1_555
C76 O16 1_555 1_555
H98 C76 1_555 1_555
H99 C76 1_555 1_555
H100 C76 1_555 1_555
O17 H101 1_555 1_555
C77 O17 1_555 1_555
H102 C77 1_555 1_555
H103 C77 1_555 1_555
H104 C77 1_555 1_555
C5 C7 1_555 1_555
C9 C10 1_555 1_555
C10 C25 1_555 1_555
C12 C13 1_555 1_555
C14 C15 1_555 1_555
C17 C20 1_555 1_555
C20 C22 1_555 1_555
C23 C25 1_555 1_555
C24 C25 1_555 1_555
C32 C41 1_555 1_555
C37 C38 1_555 1_555
C40 C50 1_555 1_555
C43 C44 1_555 1_555
C43 C45 1_555 1_555
C45 C46 1_555 1_555
C48 C50 1_555 1_555
C49 C50 1_555 1_555
C57 C58 1_555 1_555
C57 O15 1_555 1_555
C58 C59 1_555 1_555
C62 C63 1_555 1_555
C63 C64 1_555 1_555
C67 C68 1_555 1_555
C72 C73 1_555 1_555

#END
