
#######################################################################
#
#                 Cambridge Crystallographic Data Centre
#                                CCDC 
#
#######################################################################
#
# If this CIF has been generated from an entry in the Cambridge 
# Structural Database, then it will include bibliographic, chemical, 
# crystal, experimental, refinement or atomic coordinate data resulting 
# from the CCDC's data processing and validation procedures.
#
#######################################################################

data_MANTON
_chemical_formula_moiety         'C26 H22 N4 O2'
_chemical_name_systematic        
4-((E)-(4-methoxyphenyl)diazenyl)-2-((E)-((4-(phenylamino)phenyl)imino)methyl)phenol
_symmetry_cell_setting           monoclinic
_symmetry_space_group_name_H-M   'C c'
_symmetry_Int_Tables_number      9
_space_group_name_Hall           'C -2yc'
loop_
_symmetry_equiv_pos_site_id
_symmetry_equiv_pos_as_xyz
1 x,y,z
2 x,-y,1/2+z
3 1/2+x,1/2+y,z
4 1/2+x,1/2-y,1/2+z
_cell_length_a                   47.514(8)
_cell_length_b                   7.1015(11)
_cell_length_c                   6.1289(10)
_cell_angle_alpha                90
_cell_angle_beta                 96.037(9)
_cell_angle_gamma                90
_cell_volume                     2056.55
_exptl_crystal_colour            yellow
_exptl_crystal_description       needle
_cell_formula_units_Z            4
loop_
_atom_site_label
_atom_site_type_symbol
_atom_site_fract_x
_atom_site_fract_y
_atom_site_fract_z
O1 O 0.28294(6) 0.2453(3) 0.6349(4)
O2 O 0.50798(5) 0.1833(4) 0.0205(4)
H1 H 0.522153 0.205011 0.110889
N1 N 0.53540(7) 0.2769(4) 0.3861(5)
N2 N 0.40918(6) 0.2985(4) 0.4118(5)
N3 N 0.38790(6) 0.2203(4) 0.3130(5)
N4 N 0.63876(6) 0.2375(4) 0.9183(6)
H2 H 0.637112 0.227085 1.059477
C1 C 0.30982(8) 0.2495(5) 0.5727(6)
C2 C 0.56120(8) 0.2689(5) 0.5255(6)
C3 C 0.48504(8) 0.2851(5) 0.3316(7)
C4 C 0.31294(8) 0.1601(5) 0.3748(6)
H3 H 0.297072 0.102594 0.293763
C5 C 0.66649(8) 0.2465(5) 0.8587(7)
C6 C 0.43388(8) 0.2748(5) 0.3011(7)
C7 C 0.33303(7) 0.3314(5) 0.6933(6)
H4 H 0.330948 0.391784 0.828941
C8 C 0.58894(8) 0.1733(5) 0.8577(7)
H5 H 0.590094 0.115840 0.998308
C9 C 0.45831(8) 0.1758(5) -0.0035(7)
H6 H 0.457845 0.129159 -0.149129
C10 C 0.33910(8) 0.1549(5) 0.2963(6)
H7 H 0.341187 0.094179 0.160816
C11 C 0.61148(8) 0.3222(5) 0.5708(6)
H8 H 0.628009 0.369191 0.514943
C12 C 0.58566(7) 0.3329(5) 0.4447(6)
H9 H 0.584655 0.384689 0.301109
C13 C 0.48417(7) 0.2153(5) 0.1163(6)
C14 C 0.67385(8) 0.1688(5) 0.6654(6)
H10 H 0.659660 0.114073 0.564225
C15 C 0.61336(8) 0.2431(5) 0.7787(6)
C16 C 0.56306(8) 0.1873(5) 0.7325(7)
H11 H 0.546485 0.140993 0.788315
C17 C 0.35935(8) 0.3240(5) 0.6135(7)
H12 H 0.375353 0.378276 0.696228
C18 C 0.36240(8) 0.2382(5) 0.4144(6)
C19 C 0.70172(8) 0.1701(5) 0.6184(7)
H13 H 0.706527 0.117276 0.484792
C20 C 0.51190(8) 0.3059(5) 0.4672(7)
H14 H 0.512070 0.341299 0.616818
C21 C 0.68741(8) 0.3266(5) 1.0056(6)
H15 H 0.682584 0.381772 1.137828
C22 C 0.45950(7) 0.3168(5) 0.4183(6)
H16 H 0.459738 0.368589 0.561428
C23 C 0.43349(9) 0.2041(5) 0.0877(7)
H17 H 0.415930 0.175520 0.005503
C24 C 0.27780(9) 0.3453(5) 0.8274(7)
H18 H 0.289393 0.291821 0.954070
H19 H 0.257743 0.334788 0.849766
H20 H 0.282725 0.478167 0.811095
C25 C 0.71541(8) 0.3256(5) 0.9584(7)
H21 H 0.729705 0.378741 1.060064
C26 C 0.72263(8) 0.2483(5) 0.7655(7)
H22 H 0.741771 0.248696 0.733733
loop_
_geom_bond_atom_site_label_1
_geom_bond_atom_site_label_2
_geom_bond_site_symmetry_1
_geom_bond_site_symmetry_2
O1 C1 1_555 1_555
O2 H1 1_555 1_555
N1 C2 1_555 1_555
N2 N3 1_555 1_555
N3 C18 1_555 1_555
N4 H2 1_555 1_555
C1 C4 1_555 1_555
C2 C12 1_555 1_555
C3 C13 1_555 1_555
C4 H3 1_555 1_555
C5 N4 1_555 1_555
C6 N2 1_555 1_555
C7 C1 1_555 1_555
H4 C7 1_555 1_555
C8 H5 1_555 1_555
C9 H6 1_555 1_555
C10 C4 1_555 1_555
H7 C10 1_555 1_555
C11 H8 1_555 1_555
C12 C11 1_555 1_555
H9 C12 1_555 1_555
C13 O2 1_555 1_555
C14 C5 1_555 1_555
H10 C14 1_555 1_555
C15 N4 1_555 1_555
C16 C2 1_555 1_555
H11 C16 1_555 1_555
C17 C7 1_555 1_555
H12 C17 1_555 1_555
C18 C10 1_555 1_555
C19 C14 1_555 1_555
H13 C19 1_555 1_555
C20 N1 1_555 1_555
H14 C20 1_555 1_555
C21 C5 1_555 1_555
H15 C21 1_555 1_555
C22 C3 1_555 1_555
H16 C22 1_555 1_555
C23 C6 1_555 1_555
H17 C23 1_555 1_555
C24 O1 1_555 1_555
H18 C24 1_555 1_555
H19 C24 1_555 1_555
H20 C24 1_555 1_555
C25 C21 1_555 1_555
H21 C25 1_555 1_555
C26 C19 1_555 1_555
H22 C26 1_555 1_555
C3 C20 1_555 1_555
C6 C22 1_555 1_555
C8 C15 1_555 1_555
C8 C16 1_555 1_555
C9 C13 1_555 1_555
C9 C23 1_555 1_555
C11 C15 1_555 1_555
C17 C18 1_555 1_555
C25 C26 1_555 1_555

#END
