
#######################################################################
#
#                 Cambridge Crystallographic Data Centre
#                                CCDC 
#
#######################################################################
#
# If this CIF has been generated from an entry in the Cambridge 
# Structural Database, then it will include bibliographic, chemical, 
# crystal, experimental, refinement or atomic coordinate data resulting 
# from the CCDC's data processing and validation procedures.
#
#######################################################################

data_MANXUX
_chemical_formula_moiety         'C17 H15 N1 O2'
_chemical_name_systematic        'ethyl 2-phenyl-1H-indole-3-carboxylate'
_symmetry_cell_setting           monoclinic
_symmetry_space_group_name_H-M   'P 21/c'
_symmetry_Int_Tables_number      14
_space_group_name_Hall           '-P 2ybc'
loop_
_symmetry_equiv_pos_site_id
_symmetry_equiv_pos_as_xyz
1 x,y,z
2 -x,1/2+y,1/2-z
3 -x,-y,-z
4 x,1/2-y,1/2+z
_cell_length_a                   13.865(4)
_cell_length_b                   10.825(2)
_cell_length_c                   9.0227(14)
_cell_angle_alpha                90
_cell_angle_beta                 90.53(2)
_cell_angle_gamma                90
_cell_volume                     1354.15
_exptl_crystal_colour            'light white'
_exptl_crystal_description       block
_cell_formula_units_Z            4
loop_
_atom_site_label
_atom_site_type_symbol
_atom_site_fract_x
_atom_site_fract_y
_atom_site_fract_z
O1 O 0.72932(9) 0.49303(11) 0.20905(12)
N1 N 0.77197(10) 0.25516(13) -0.16572(14)
H1 H 0.7538 0.1839 -0.1974
O2 O 0.79568(10) 0.62981(10) 0.05176(13)
C1 C 0.99647(13) 0.48459(17) -0.28148(19)
H2 H 1.0466 0.5387 -0.3028
C2 C 0.93247(12) 0.51369(16) -0.17002(18)
H3 H 0.9397 0.5863 -0.1160
C3 C 0.77823(11) 0.42966(15) -0.03320(17)
C4 C 0.84958(11) 0.32109(15) -0.22010(17)
C5 C 0.76381(12) 0.51702(15) 0.08788(18)
C6 C 0.85625(12) 0.43198(15) -0.13941(17)
C7 C 0.72835(11) 0.31966(15) -0.05433(17)
C8 C 0.63684(13) 0.14252(17) 0.04952(19)
H4 H 0.6871 0.0906 0.0221
C9 C 0.64208(12) 0.26828(16) 0.01939(17)
C10 C 0.91401(12) 0.29171(16) -0.33329(18)
H5 H 0.9079 0.2187 -0.3868
C11 C 0.98697(12) 0.37472(17) -0.36282(18)
H6 H 1.0305 0.3575 -0.4378
C12 C 0.56485(12) 0.34340(18) 0.0591(2)
H7 H 0.5671 0.4276 0.0391
C13 C 0.48456(14) 0.2939(2) 0.1281(2)
H8 H 0.4333 0.3449 0.1533
C14 C 0.74205(16) 0.83399(19) 0.1088(2)
H9 H 0.7730 0.8645 0.0214
H10 H 0.7418 0.8974 0.1833
H11 H 0.6769 0.8108 0.0851
C15 C 0.48080(14) 0.1693(2) 0.1594(2)
H12 H 0.4273 0.1362 0.2065
C16 C 0.55684(14) 0.09418(19) 0.1205(2)
H13 H 0.5545 0.0102 0.1420
C17 C 0.79492(17) 0.72574(17) 0.1651(2)
H14 H 0.8606 0.7490 0.1906
H15 H 0.7642 0.6948 0.2538
loop_
_geom_bond_atom_site_label_1
_geom_bond_atom_site_label_2
_geom_bond_site_symmetry_1
_geom_bond_site_symmetry_2
O1 C5 1_555 1_555
N1 H1 1_555 1_555
O2 C5 1_555 1_555
C1 H2 1_555 1_555
C2 C1 1_555 1_555
H3 C2 1_555 1_555
C3 C5 1_555 1_555
C4 N1 1_555 1_555
C6 C2 1_555 1_555
C7 N1 1_555 1_555
C8 H4 1_555 1_555
C9 C7 1_555 1_555
C10 C4 1_555 1_555
H5 C10 1_555 1_555
C11 C1 1_555 1_555
H6 C11 1_555 1_555
C12 C9 1_555 1_555
H7 C12 1_555 1_555
C13 C12 1_555 1_555
H8 C13 1_555 1_555
C14 H9 1_555 1_555
H10 C14 1_555 1_555
H11 C14 1_555 1_555
C15 C13 1_555 1_555
H12 C15 1_555 1_555
C16 C8 1_555 1_555
H13 C16 1_555 1_555
C17 O2 1_555 1_555
H14 C17 1_555 1_555
H15 C17 1_555 1_555
C3 C6 1_555 1_555
C3 C7 1_555 1_555
C4 C6 1_555 1_555
C8 C9 1_555 1_555
C10 C11 1_555 1_555
C14 C17 1_555 1_555
C15 C16 1_555 1_555

#END
