
#######################################################################
#
#                 Cambridge Crystallographic Data Centre
#                                CCDC 
#
#######################################################################
#
# If this CIF has been generated from an entry in the Cambridge 
# Structural Database, then it will include bibliographic, chemical, 
# crystal, experimental, refinement or atomic coordinate data resulting 
# from the CCDC's data processing and validation procedures.
#
#######################################################################

data_MAPCEM
_chemical_formula_moiety         'C16 H16 N2 O2'
_chemical_name_systematic        5-(4-Methoxyphenyl)-1-phenylpyrazolidin-3-one
_symmetry_cell_setting           monoclinic
_symmetry_space_group_name_H-M   'P 21/n'
_symmetry_Int_Tables_number      14
_space_group_name_Hall           '-P 2yn'
loop_
_symmetry_equiv_pos_site_id
_symmetry_equiv_pos_as_xyz
1 x,y,z
2 1/2-x,1/2+y,1/2-z
3 -x,-y,-z
4 1/2+x,1/2-y,1/2+z
_cell_length_a                   13.151(3)
_cell_length_b                   7.1660(14)
_cell_length_c                   14.700(3)
_cell_angle_alpha                90
_cell_angle_beta                 97.53(3)
_cell_angle_gamma                90
_cell_volume                     1373.38
_exptl_crystal_colour            colorless
_exptl_crystal_description       block
_chemical_melting_point          '435-437 K'
_cell_formula_units_Z            4
_exptl_crystal_recrystallization_method 'ethyl acetate'
loop_
_atom_site_label
_atom_site_type_symbol
_atom_site_fract_x
_atom_site_fract_y
_atom_site_fract_z
O1 O -0.42726(12) -0.1472(2) 0.19555(10)
O2 O 0.02326(10) 0.2540(2) 0.54039(11)
N1 N -0.23060(12) 0.4101(2) 0.51635(11)
N2 N -0.12304(13) 0.4277(2) 0.51878(13)
C1 C -0.4476(2) -0.3424(4) 0.19620(17)
H1 H -0.4755 -0.3820 0.1357
H2 H -0.4960 -0.3681 0.2382
H3 H -0.3850 -0.4087 0.2152
C2 C -0.38687(15) -0.0664(3) 0.27700(14)
C3 C -0.34966(16) 0.1142(3) 0.27207(14)
H4 H -0.3535 0.1743 0.2156
C4 C -0.30681(15) 0.2052(3) 0.35118(14)
H5 H -0.2821 0.3262 0.3472
C5 C -0.30028(14) 0.1190(3) 0.43571(13)
C6 C -0.3398(2) -0.0591(3) 0.43935(16)
H6 H -0.3378 -0.1177 0.4960
C7 C -0.3824(2) -0.1534(3) 0.36084(17)
H7 H -0.4075 -0.2739 0.3650
C8 C -0.25044(14) 0.2052(3) 0.52459(13)
H8 H -0.2956 0.1863 0.5718
C9 C -0.14450(15) 0.1220(3) 0.55899(14)
H9 H -0.1383 0.0951 0.6241
H10 H -0.1329 0.0081 0.5262
C10 C -0.07017(15) 0.2715(3) 0.53951(13)
C11 C -0.27256(14) 0.5280(2) 0.58005(13)
C12 C -0.37790(15) 0.5230(3) 0.58120(14)
H11 H -0.4178 0.4380 0.5444
C13 C -0.42353(17) 0.6437(3) 0.63674(17)
H12 H -0.4942 0.6399 0.6366
C14 C -0.36558(19) 0.7702(3) 0.69259(16)
H13 H -0.3968 0.8514 0.7298
C15 C -0.26149(19) 0.7741(3) 0.69224(15)
H14 H -0.2220 0.8586 0.7297
C16 C -0.21375(16) 0.6534(3) 0.63662(13)
H15 H -0.1429 0.6568 0.6374
H16 H -0.0975(18) 0.528(4) 0.4929(16)
loop_
_geom_bond_atom_site_label_1
_geom_bond_atom_site_label_2
_geom_bond_site_symmetry_1
_geom_bond_site_symmetry_2
O1 C1 1_555 1_555
O2 C10 1_555 1_555
N1 N2 1_555 1_555
N2 C10 1_555 1_555
C1 H1 1_555 1_555
H2 C1 1_555 1_555
H3 C1 1_555 1_555
C2 O1 1_555 1_555
C3 C2 1_555 1_555
H4 C3 1_555 1_555
C4 C3 1_555 1_555
H5 C4 1_555 1_555
C5 C4 1_555 1_555
C6 C5 1_555 1_555
H6 C6 1_555 1_555
C7 C2 1_555 1_555
H7 C7 1_555 1_555
C8 N1 1_555 1_555
H8 C8 1_555 1_555
C9 C8 1_555 1_555
H9 C9 1_555 1_555
H10 C9 1_555 1_555
C10 C9 1_555 1_555
C11 N1 1_555 1_555
C12 C11 1_555 1_555
H11 C12 1_555 1_555
C13 C12 1_555 1_555
H12 C13 1_555 1_555
C14 C13 1_555 1_555
H13 C14 1_555 1_555
C15 C14 1_555 1_555
H14 C15 1_555 1_555
C16 C11 1_555 1_555
H15 C16 1_555 1_555
H16 N2 1_555 1_555
C5 C8 1_555 1_555
C6 C7 1_555 1_555
C15 C16 1_555 1_555

#END
