
#######################################################################
#
#                 Cambridge Crystallographic Data Centre
#                                CCDC 
#
#######################################################################
#
# If this CIF has been generated from an entry in the Cambridge 
# Structural Database, then it will include bibliographic, chemical, 
# crystal, experimental, refinement or atomic coordinate data resulting 
# from the CCDC's data processing and validation procedures.
#
#######################################################################

data_MAPCIR
_chemical_formula_moiety         'C20 H16 B1 F2 N3'
_chemical_name_systematic        
5,5-Difluoro-10-(4-methylphenyl)-3-(1H-pyrrol-2-yl)-5H-4\l^5^,5\l^5^-dipyrrolo[1,2-c:2',1'-f][1,3,2]diazaborinine
_symmetry_cell_setting           triclinic
_symmetry_space_group_name_H-M   'P -1'
_symmetry_Int_Tables_number      2
_space_group_name_Hall           '-P 1'
loop_
_symmetry_equiv_pos_site_id
_symmetry_equiv_pos_as_xyz
1 x,y,z
2 -x,-y,-z
_cell_length_a                   8.162(3)
_cell_length_b                   8.550(3)
_cell_length_c                   12.743(5)
_cell_angle_alpha                82.561(4)
_cell_angle_beta                 81.071(4)
_cell_angle_gamma                72.465(4)
_cell_volume                     834.439
_exptl_crystal_colour            colorless
_exptl_crystal_description       block
_cell_formula_units_Z            2
loop_
_atom_site_label
_atom_site_type_symbol
_atom_site_fract_x
_atom_site_fract_y
_atom_site_fract_z
B1 B 0.3624(8) 0.2014(7) 0.8507(5)
C1 C 0.6864(7) 0.0516(7) 0.8211(5)
H1 H 0.6802 -0.0443 0.8632
C2 C 0.8367(8) 0.0807(8) 0.7693(5)
H2 H 0.9480 0.0093 0.7700
C3 C 0.7915(7) 0.2356(7) 0.7164(5)
H3 H 0.8671 0.2881 0.6751
C4 C 0.6118(7) 0.2997(6) 0.7358(4)
C5 C 0.4956(7) 0.4550(6) 0.7080(4)
C6 C 0.5686(6) 0.5809(6) 0.6427(4)
C7 C 0.6747(8) 0.5481(7) 0.5472(4)
H4 H 0.6967 0.4463 0.5209
C8 C 0.7488(8) 0.6651(8) 0.4900(5)
H5 H 0.8206 0.6403 0.4265
C9 C 0.7166(8) 0.8179(7) 0.5267(5)
C10 C 0.6084(8) 0.8521(7) 0.6201(5)
H6 H 0.5842 0.9552 0.6449
C11 C 0.5347(7) 0.7371(7) 0.6779(4)
H7 H 0.4620 0.7636 0.7408
C12 C 0.7984(9) 0.9449(9) 0.4647(6)
H8 H 0.9203 0.9109 0.4701
H9 H 0.7462 1.0494 0.4936
H10 H 0.7804 0.9550 0.3912
C13 C 0.3225(6) 0.4896(6) 0.7444(4)
C14 C 0.1822(7) 0.6292(7) 0.7206(5)
H11 H 0.1907 0.7220 0.6757
C15 C 0.0345(7) 0.6043(7) 0.7741(5)
H12 H -0.0763 0.6760 0.7720
C16 C 0.0795(6) 0.4477(6) 0.8347(4)
C17 C -0.0426(6) 0.3822(6) 0.9057(4)
C18 C -0.2209(7) 0.4480(8) 0.9218(5)
H13 H -0.2841 0.5463 0.8887
C19 C -0.2887(8) 0.3438(8) 0.9948(5)
H14 H -0.4054 0.3580 1.0189
C20 C -0.1551(8) 0.2170(8) 1.0252(5)
H15 H -0.1639 0.1294 1.0751
F1 F 0.3523(4) 0.1799(5) 0.9611(3)
F2 F 0.2978(4) 0.0866(4) 0.8165(3)
N1 N 0.5490(5) 0.1828(5) 0.8019(3)
N2 N 0.2539(5) 0.3777(5) 0.8147(3)
N3 N -0.0060(6) 0.2387(6) 0.9707(4)
H16 H 0.0958 0.1726 0.9762
loop_
_geom_bond_atom_site_label_1
_geom_bond_atom_site_label_2
_geom_bond_site_symmetry_1
_geom_bond_site_symmetry_2
B1 F1 1_555 1_555
C1 H1 1_555 1_555
C2 C1 1_555 1_555
H2 C2 1_555 1_555
C3 C2 1_555 1_555
H3 C3 1_555 1_555
C4 C3 1_555 1_555
C5 C4 1_555 1_555
C6 C5 1_555 1_555
C7 C6 1_555 1_555
H4 C7 1_555 1_555
C8 C7 1_555 1_555
H5 C8 1_555 1_555
C9 C8 1_555 1_555
C10 C9 1_555 1_555
H6 C10 1_555 1_555
C11 C6 1_555 1_555
H7 C11 1_555 1_555
C12 C9 1_555 1_555
H8 C12 1_555 1_555
H9 C12 1_555 1_555
H10 C12 1_555 1_555
C13 C5 1_555 1_555
C14 C13 1_555 1_555
H11 C14 1_555 1_555
C15 C14 1_555 1_555
H12 C15 1_555 1_555
C16 C15 1_555 1_555
C17 C16 1_555 1_555
C18 C17 1_555 1_555
H13 C18 1_555 1_555
C19 C18 1_555 1_555
H14 C19 1_555 1_555
C20 C19 1_555 1_555
H15 C20 1_555 1_555
F2 B1 1_555 1_555
N1 B1 1_555 1_555
N2 B1 1_555 1_555
N3 C17 1_555 1_555
H16 N3 1_555 1_555
C1 N1 1_555 1_555
C4 N1 1_555 1_555
C10 C11 1_555 1_555
C13 N2 1_555 1_555
C16 N2 1_555 1_555
C20 N3 1_555 1_555

#END
