
#######################################################################
#
#                 Cambridge Crystallographic Data Centre
#                                CCDC 
#
#######################################################################
#
# If this CIF has been generated from an entry in the Cambridge 
# Structural Database, then it will include bibliographic, chemical, 
# crystal, experimental, refinement or atomic coordinate data resulting 
# from the CCDC's data processing and validation procedures.
#
#######################################################################

data_MAPCOX
_chemical_formula_moiety         'C22 H20 B1 F2 N3'
_chemical_name_systematic        
5,5-Difluoro-10-mesityl-3-(1H-pyrrol-2-yl)-5H-4\l^5^,5\l^5^-dipyrrolo[1,2-c:2',1'-f][1,3,2]diazaborinine
_symmetry_cell_setting           monoclinic
_symmetry_space_group_name_H-M   'P 21/c'
_symmetry_Int_Tables_number      14
_space_group_name_Hall           '-P 2ybc'
loop_
_symmetry_equiv_pos_site_id
_symmetry_equiv_pos_as_xyz
1 x,y,z
2 -x,1/2+y,1/2-z
3 -x,-y,-z
4 x,1/2-y,1/2+z
_cell_length_a                   10.0277(7)
_cell_length_b                   17.2775(12)
_cell_length_c                   11.1652(8)
_cell_angle_alpha                90
_cell_angle_beta                 94.161(1)
_cell_angle_gamma                90
_cell_volume                     1929.31
_exptl_crystal_colour            colorless
_exptl_crystal_description       block
_cell_formula_units_Z            4
loop_
_atom_site_label
_atom_site_type_symbol
_atom_site_fract_x
_atom_site_fract_y
_atom_site_fract_z
B1 B 0.32433(18) 0.25561(11) 0.96702(18)
C1 C 0.23551(19) 0.13489(10) 0.85252(16)
H1 H 0.3076 0.1030 0.8754
C2 C 0.1234(2) 0.11242(11) 0.78102(16)
H2 H 0.1068 0.0636 0.7482
C3 C 0.04117(19) 0.17611(11) 0.76783(14)
H3 H -0.0413 0.1782 0.7241
C4 C 0.10409(16) 0.23715(10) 0.83204(14)
C5 C 0.06629(15) 0.31431(9) 0.84796(13)
C6 C 0.14708(15) 0.36380(9) 0.91883(13)
C7 C 0.13214(16) 0.44296(10) 0.94275(14)
H4 H 0.0618 0.4743 0.9135
C8 C 0.23903(18) 0.46553(10) 1.01642(15)
H5 H 0.2552 0.5152 1.0462
C9 C 0.32125(16) 0.39988(9) 1.03964(13)
C10 C 0.44205(16) 0.40018(10) 1.11702(14)
C11 C 0.5148(2) 0.46372(12) 1.15837(17)
H6 H 0.4951 0.5151 1.1398
C12 C 0.6228(2) 0.43750(15) 1.23274(17)
H7 H 0.6886 0.4680 1.2722
C13 C 0.6146(2) 0.35938(14) 1.23709(18)
H8 H 0.6732 0.3267 1.2812
C14 C -0.06089(15) 0.34320(9) 0.78539(13)
C15 C -0.05760(17) 0.38076(10) 0.67476(14)
C16 C -0.17730(19) 0.40370(10) 0.61546(14)
H9 H -0.1752 0.4288 0.5419
C17 C -0.29938(17) 0.39072(9) 0.66134(15)
C18 C -0.30005(16) 0.35457(9) 0.77221(15)
H10 H -0.3814 0.3460 0.8050
C19 C -0.18293(16) 0.33073(9) 0.83593(14)
C20 C 0.0724(2) 0.39704(16) 0.61879(19)
H11 H 0.1164 0.4402 0.6588
H12 H 0.0542 0.4090 0.5352
H13 H 0.1290 0.3523 0.6269
C21 C -0.4261(2) 0.41529(13) 0.5921(2)
H14 H -0.4159 0.4670 0.5626
H15 H -0.4985 0.4139 0.6438
H16 H -0.4449 0.3807 0.5258
C22 C -0.1894(2) 0.29361(14) 0.95754(16)
H17 H -0.1485 0.2434 0.9570
H18 H -0.2811 0.2885 0.9756
H19 H -0.1426 0.3253 1.0174
F1 F 0.33876(11) 0.22028(6) 1.07930(9)
F2 F 0.44731(10) 0.25947(7) 0.92024(12)
N1 N 0.22463(13) 0.20976(8) 0.88402(11)
N2 N 0.26611(12) 0.33855(8) 0.97977(11)
N3 N 0.50680(15) 0.33716(10) 1.16644(14)
H20 H 0.4823 0.2899 1.1542
loop_
_geom_bond_atom_site_label_1
_geom_bond_atom_site_label_2
_geom_bond_site_symmetry_1
_geom_bond_site_symmetry_2
B1 F1 1_555 1_555
C1 H1 1_555 1_555
C2 C1 1_555 1_555
H2 C2 1_555 1_555
C3 C2 1_555 1_555
H3 C3 1_555 1_555
C4 C3 1_555 1_555
C5 C4 1_555 1_555
C6 C5 1_555 1_555
C7 C6 1_555 1_555
H4 C7 1_555 1_555
C8 C7 1_555 1_555
H5 C8 1_555 1_555
C9 C8 1_555 1_555
C10 C9 1_555 1_555
C11 C10 1_555 1_555
H6 C11 1_555 1_555
C12 C11 1_555 1_555
H7 C12 1_555 1_555
C13 C12 1_555 1_555
H8 C13 1_555 1_555
C14 C5 1_555 1_555
C15 C14 1_555 1_555
C16 C15 1_555 1_555
H9 C16 1_555 1_555
C17 C16 1_555 1_555
C18 C17 1_555 1_555
H10 C18 1_555 1_555
C19 C14 1_555 1_555
C20 C15 1_555 1_555
H11 C20 1_555 1_555
H12 C20 1_555 1_555
H13 C20 1_555 1_555
C21 C17 1_555 1_555
H14 C21 1_555 1_555
H15 C21 1_555 1_555
H16 C21 1_555 1_555
C22 C19 1_555 1_555
H17 C22 1_555 1_555
H18 C22 1_555 1_555
H19 C22 1_555 1_555
F2 B1 1_555 1_555
N1 B1 1_555 1_555
N2 B1 1_555 1_555
N3 C10 1_555 1_555
H20 N3 1_555 1_555
C1 N1 1_555 1_555
C4 N1 1_555 1_555
C6 N2 1_555 1_555
C9 N2 1_555 1_555
C13 N3 1_555 1_555
C18 C19 1_555 1_555

#END
