
#######################################################################
#
#                 Cambridge Crystallographic Data Centre
#                                CCDC 
#
#######################################################################
#
# If this CIF has been generated from an entry in the Cambridge 
# Structural Database, then it will include bibliographic, chemical, 
# crystal, experimental, refinement or atomic coordinate data resulting 
# from the CCDC's data processing and validation procedures.
#
#######################################################################

data_MAPHIX
_chemical_formula_moiety         'C47 H37 B2 F20 O2 P1'
_chemical_name_systematic        
'2,2,8,8-tetrakis(pentafluorophenyl)-5-(2,4,6-tri-t-butylphenyl)-3,4,7,8-tetrahydro-2H,6H-[1,5,2]oxaphosphaborinino[5,6-e][1,5,2]oxaphosphaborinine unknown solvate'
_symmetry_cell_setting           monoclinic
_symmetry_space_group_name_H-M   'P 21/n'
_symmetry_Int_Tables_number      14
_space_group_name_Hall           '-P 2yn'
loop_
_symmetry_equiv_pos_site_id
_symmetry_equiv_pos_as_xyz
1 x,y,z
2 1/2-x,1/2+y,1/2-z
3 -x,-y,-z
4 1/2+x,1/2-y,1/2+z
_cell_length_a                   13.2824(2)
_cell_length_b                   16.3939(3)
_cell_length_c                   23.7894(4)
_cell_angle_alpha                90
_cell_angle_beta                 95.038(1)
_cell_angle_gamma                90
_cell_volume                     5160.14
_exptl_crystal_colour            colorless
_exptl_crystal_description       prism
_cell_formula_units_Z            4
loop_
_atom_site_label
_atom_site_type_symbol
_atom_site_fract_x
_atom_site_fract_y
_atom_site_fract_z
P1 P 0.19227(7) 0.95150(5) 0.24014(4)
O1 O 0.28396(17) 1.07857(13) 0.19716(9)
O2 O 0.35870(17) 1.04247(13) 0.27941(9)
C1 C 0.2476(3) 0.8994(2) 0.18244(14)
H1 H 0.3145 0.8786 0.1962
H2 H 0.2052 0.8524 0.1706
C2 C 0.2584(3) 0.9547(2) 0.13093(14)
H3 H 0.1905 0.9712 0.1157
H4 H 0.2874 0.9219 0.1019
C3 C 0.2223(3) 0.8981(2) 0.30607(14)
H5 H 0.1911 0.9260 0.3366
H6 H 0.1957 0.8424 0.3032
C4 C 0.3376(3) 0.8960(2) 0.31914(15)
H7 H 0.3666 0.8691 0.2875
H8 H 0.3527 0.8615 0.3525
C5 C 0.2878(3) 1.03485(19) 0.24133(14)
C6 C 0.0699(2) 0.9911(2) 0.21324(14)
C7 C 0.0486(2) 1.0759(2) 0.21801(14)
C8 C -0.0028(3) 1.1137(2) 0.17201(15)
H9 H -0.0119 1.1705 0.1732
C9 C -0.0417(3) 1.0719(2) 0.12411(15)
C10 C -0.0388(3) 0.9880(2) 0.12652(15)
H10 H -0.0743 0.9584 0.0973
C11 C 0.0142(2) 0.9446(2) 0.17023(14)
C12 C 0.0653(3) 1.1276(2) 0.27224(15)
C13 C 0.1353(3) 1.2007(2) 0.26506(16)
H11 H 0.1378 1.2346 0.2986
H12 H 0.1095 1.2324 0.2325
H13 H 0.2027 1.1812 0.2596
C14 C 0.1034(3) 1.0782(2) 0.32421(14)
H14 H 0.1720 1.0600 0.3203
H15 H 0.0601 1.0311 0.3277
H16 H 0.1025 1.1119 0.3576
C15 C -0.0397(3) 1.1607(3) 0.28447(17)
H17 H -0.0868 1.1157 0.2857
H18 H -0.0639 1.1984 0.2549
H19 H -0.0342 1.1888 0.3205
C16 C -0.0937(3) 1.1199(2) 0.07387(15)
C17 C -0.0177(4) 1.1810(4) 0.0533(2)
H20 H -0.0492 1.2115 0.0216
H21 H 0.0406 1.1518 0.0418
H22 H 0.0038 1.2183 0.0837
C18 C -0.1295(5) 1.0647(3) 0.0250(2)
H23 H -0.1783 1.0260 0.0373
H24 H -0.0722 1.0354 0.0123
H25 H -0.1607 1.0973 -0.0057
C19 C -0.1837(4) 1.1661(3) 0.0933(2)
H26 H -0.2322 1.1275 0.1060
H27 H -0.2152 1.1977 0.0621
H28 H -0.1610 1.2023 0.1240
C20 C -0.0074(3) 0.8517(2) 0.17125(15)
C21 C 0.0187(3) 0.8098(2) 0.11613(15)
H29 H 0.0899 0.8175 0.1115
H30 H -0.0214 0.8338 0.0843
H31 H 0.0041 0.7520 0.1181
C22 C -0.1223(3) 0.8437(2) 0.17515(18)
H32 H -0.1408 0.7865 0.1747
H33 H -0.1581 0.8711 0.1432
H34 H -0.1402 0.8685 0.2099
C23 C 0.0402(3) 0.8050(2) 0.22277(15)
H35 H 0.0290 0.8348 0.2569
H36 H 0.1123 0.7992 0.2199
H37 H 0.0095 0.7514 0.2241
B1 B 0.3260(3) 1.0359(3) 0.14096(17)
C24 C 0.3058(3) 1.0987(2) 0.08867(14)
F1 F 0.2352(2) 1.20944(14) 0.13596(9)
C25 C 0.2641(3) 1.1755(2) 0.08825(15)
F2 F 0.2079(2) 1.29743(17) 0.04321(12)
C26 C 0.2487(3) 1.2227(3) 0.04008(18)
F3 F 0.2564(2) 1.23867(18) -0.05755(10)
C27 C 0.2741(3) 1.1933(3) -0.01048(16)
F4 F 0.3435(3) 1.08830(18) -0.06160(10)
C28 C 0.3175(4) 1.1180(3) -0.01222(16)
F5 F 0.3780(2) 0.99942(15) 0.03200(9)
C29 C 0.3328(3) 1.0730(2) 0.03630(16)
C30 C 0.4466(3) 1.0265(2) 0.15945(14)
F6 F 0.45775(16) 0.88274(14) 0.14815(10)
C31 C 0.5021(3) 0.9553(2) 0.16199(15)
F7 F 0.65198(18) 0.87913(16) 0.18226(11)
C32 C 0.6041(3) 0.9511(3) 0.17908(16)
F8 F 0.75573(17) 1.01968(19) 0.20835(11)
C33 C 0.6557(3) 1.0220(3) 0.19221(16)
F9 F 0.65473(19) 1.16444(18) 0.20467(12)
C34 C 0.6052(3) 1.0950(3) 0.19038(17)
F10 F 0.45697(17) 1.16925(14) 0.17344(10)
C35 C 0.5029(3) 1.0959(2) 0.17404(16)
B2 B 0.3954(3) 0.9814(2) 0.33044(16)
C36 C 0.3702(3) 1.0265(2) 0.38941(14)
F11 F 0.31709(16) 1.15596(12) 0.35234(9)
C37 C 0.3341(3) 1.1046(2) 0.39655(15)
F12 F 0.2777(2) 1.21346(18) 0.45127(11)
C38 C 0.3131(3) 1.1375(3) 0.44755(18)
F13 F 0.3091(2) 1.1197(2) 0.54628(11)
C39 C 0.3288(4) 1.0904(4) 0.49554(19)
F14 F 0.3862(2) 0.9665(2) 0.53782(10)
C40 C 0.3671(3) 1.0139(4) 0.49159(16)
F15 F 0.43281(18) 0.90919(15) 0.43866(9)
C41 C 0.3886(3) 0.9832(3) 0.43976(16)
C42 C 0.5186(3) 0.9785(2) 0.32808(14)
F16 F 0.53311(18) 0.83400(13) 0.32203(12)
C43 C 0.5760(3) 0.9088(2) 0.32477(16)
F17 F 0.73177(19) 0.83842(15) 0.32316(13)
C44 C 0.6805(3) 0.9087(3) 0.32644(17)
F18 F 0.83325(17) 0.98189(17) 0.33275(13)
C45 C 0.7318(3) 0.9805(3) 0.33140(18)
F19 F 0.72810(18) 1.12399(15) 0.33910(13)
C46 C 0.6789(3) 1.0519(2) 0.33436(16)
F20 F 0.52729(16) 1.12168(13) 0.33571(10)
C47 C 0.5742(3) 1.0492(2) 0.33240(15)
loop_
_geom_bond_atom_site_label_1
_geom_bond_atom_site_label_2
_geom_bond_site_symmetry_1
_geom_bond_site_symmetry_2
P1 C1 1_555 1_555
O1 C5 1_555 1_555
O2 C5 1_555 1_555
C1 H1 1_555 1_555
H2 C1 1_555 1_555
C2 C1 1_555 1_555
H3 C2 1_555 1_555
H4 C2 1_555 1_555
C3 P1 1_555 1_555
H5 C3 1_555 1_555
H6 C3 1_555 1_555
C4 C3 1_555 1_555
H7 C4 1_555 1_555
H8 C4 1_555 1_555
C5 P1 1_555 1_555
C6 P1 1_555 1_555
C7 C6 1_555 1_555
C8 C7 1_555 1_555
H9 C8 1_555 1_555
C9 C8 1_555 1_555
C10 C9 1_555 1_555
H10 C10 1_555 1_555
C11 C6 1_555 1_555
C12 C7 1_555 1_555
C13 C12 1_555 1_555
H11 C13 1_555 1_555
H12 C13 1_555 1_555
H13 C13 1_555 1_555
C14 C12 1_555 1_555
H14 C14 1_555 1_555
H15 C14 1_555 1_555
H16 C14 1_555 1_555
C15 C12 1_555 1_555
H17 C15 1_555 1_555
H18 C15 1_555 1_555
H19 C15 1_555 1_555
C16 C9 1_555 1_555
C17 C16 1_555 1_555
H20 C17 1_555 1_555
H21 C17 1_555 1_555
H22 C17 1_555 1_555
C18 C16 1_555 1_555
H23 C18 1_555 1_555
H24 C18 1_555 1_555
H25 C18 1_555 1_555
C19 C16 1_555 1_555
H26 C19 1_555 1_555
H27 C19 1_555 1_555
H28 C19 1_555 1_555
C20 C11 1_555 1_555
C21 C20 1_555 1_555
H29 C21 1_555 1_555
H30 C21 1_555 1_555
H31 C21 1_555 1_555
C22 C20 1_555 1_555
H32 C22 1_555 1_555
H33 C22 1_555 1_555
H34 C22 1_555 1_555
C23 C20 1_555 1_555
H35 C23 1_555 1_555
H36 C23 1_555 1_555
H37 C23 1_555 1_555
B1 O1 1_555 1_555
C24 B1 1_555 1_555
F1 C25 1_555 1_555
C25 C24 1_555 1_555
F2 C26 1_555 1_555
C26 C25 1_555 1_555
F3 C27 1_555 1_555
C27 C26 1_555 1_555
F4 C28 1_555 1_555
C28 C27 1_555 1_555
F5 C29 1_555 1_555
C29 C24 1_555 1_555
C30 B1 1_555 1_555
F6 C31 1_555 1_555
C31 C30 1_555 1_555
F7 C32 1_555 1_555
C32 C31 1_555 1_555
F8 C33 1_555 1_555
C33 C32 1_555 1_555
F9 C34 1_555 1_555
C34 C33 1_555 1_555
F10 C35 1_555 1_555
C35 C30 1_555 1_555
B2 O2 1_555 1_555
C36 B2 1_555 1_555
F11 C37 1_555 1_555
C37 C36 1_555 1_555
F12 C38 1_555 1_555
C38 C37 1_555 1_555
F13 C39 1_555 1_555
C39 C38 1_555 1_555
F14 C40 1_555 1_555
C40 C39 1_555 1_555
F15 C41 1_555 1_555
C41 C36 1_555 1_555
C42 B2 1_555 1_555
F16 C43 1_555 1_555
C43 C42 1_555 1_555
F17 C44 1_555 1_555
C44 C43 1_555 1_555
F18 C45 1_555 1_555
C45 C44 1_555 1_555
F19 C46 1_555 1_555
C46 C45 1_555 1_555
F20 C47 1_555 1_555
C47 C42 1_555 1_555
C2 B1 1_555 1_555
C4 B2 1_555 1_555
C10 C11 1_555 1_555
C28 C29 1_555 1_555
C34 C35 1_555 1_555
C40 C41 1_555 1_555
C46 C47 1_555 1_555

#END
