
#######################################################################
#
#                 Cambridge Crystallographic Data Centre
#                                CCDC 
#
#######################################################################
#
# If this CIF has been generated from an entry in the Cambridge 
# Structural Database, then it will include bibliographic, chemical, 
# crystal, experimental, refinement or atomic coordinate data resulting 
# from the CCDC's data processing and validation procedures.
#
#######################################################################

data_MAPJOF
_chemical_formula_moiety         'C55 H48 B2 F20 N1 P1,1.5(C1 H2 Cl2)'
_chemical_name_systematic        
'(2-((2,6-dimethylphenyl)isocyano)(bis(pentafluorophenyl)boranyl)ethyl)(2-(bis(pentafluorophenyl)boranyl)ethyl)(2,4,6-tri-t-butylphenyl)phosphanium dichloromethane solvate'
_symmetry_cell_setting           triclinic
_symmetry_space_group_name_H-M   'P -1'
_symmetry_Int_Tables_number      2
_space_group_name_Hall           '-P 1'
loop_
_symmetry_equiv_pos_site_id
_symmetry_equiv_pos_as_xyz
1 x,y,z
2 -x,-y,-z
_cell_length_a                   12.5829(4)
_cell_length_b                   13.9854(5)
_cell_length_c                   17.6337(6)
_cell_angle_alpha                78.257(2)
_cell_angle_beta                 81.650(2)
_cell_angle_gamma                71.145(2)
_cell_volume                     2864.56
_exptl_crystal_colour            colorless
_exptl_crystal_description       plate
_cell_formula_units_Z            2
loop_
_atom_site_label
_atom_site_type_symbol
_atom_site_fract_x
_atom_site_fract_y
_atom_site_fract_z
P1 P 0.71832(7) 0.80136(5) 0.71186(4)
H1 H 0.652(2) 0.8632(19) 0.6601(15)
N1 N 0.61309(18) 0.50838(16) 0.61654(12)
C1 C 0.6944(2) 0.6791(2) 0.71858(16)
H2 H 0.7194 0.6551 0.668
H3 H 0.7412 0.6285 0.758
C2 C 0.5700(2) 0.6827(2) 0.74051(15)
H4 H 0.5246 0.7229 0.6968
H5 H 0.5404 0.7172 0.7864
C3 C 0.8608(3) 0.8013(2) 0.67497(17)
H6 H 0.8599 0.8724 0.6525
H7 H 0.909 0.7777 0.7189
C4 C 0.9136(2) 0.7321(2) 0.61216(16)
H8 H 0.915 0.6609 0.635
H9 H 0.9926 0.7322 0.5979
C5 C 0.5984(2) 0.52503(19) 0.67951(15)
C6 C 0.6519(2) 0.8509(2) 0.80062(15)
C7 C 0.6829(2) 0.7936(2) 0.87517(16)
C8 C 0.5975(2) 0.7979(2) 0.93514(16)
H10 H 0.6161 0.758 0.9846
C9 C 0.4865(2) 0.8575(2) 0.92664(16)
C10 C 0.4651(2) 0.9262(2) 0.85739(16)
H11 H 0.3923 0.9747 0.8531
C11 C 0.5459(3) 0.9273(2) 0.79374(16)
C12 C 0.8062(2) 0.7397(2) 0.89627(17)
C13 C 0.8130(3) 0.7016(3) 0.98397(18)
H12 H 0.8922 0.6723 0.9951
H13 H 0.7746 0.6491 1.0007
H14 H 0.7765 0.7592 1.012
C14 C 0.8689(3) 0.6445(2) 0.85827(19)
H15 H 0.877 0.665 0.8017
H16 H 0.8259 0.5952 0.8713
H17 H 0.9437 0.6127 0.8776
C15 C 0.8699(3) 0.8202(2) 0.87446(18)
H18 H 0.8642 0.85 0.8193
H19 H 0.9494 0.7874 0.8841
H20 H 0.8366 0.8744 0.9061
C16 C 0.3911(2) 0.8547(2) 0.99137(17)
C17 C 0.4303(3) 0.7704(2) 1.06098(17)
H21 H 0.4879 0.7848 1.0849
H22 H 0.4621 0.704 1.0433
H23 H 0.3659 0.7685 1.0993
C18 C 0.2956(3) 0.8341(3) 0.9585(2)
H24 H 0.3247 0.7691 0.9386
H25 H 0.266 0.8898 0.9161
H26 H 0.2351 0.8302 0.9997
C19 C 0.3478(3) 0.9581(2) 1.0199(2)
H27 H 0.2855 0.9574 1.0603
H28 H 0.3212 1.0129 0.9763
H29 H 0.409 0.9702 1.0414
C20 C 0.5135(3) 1.0157(2) 0.72449(17)
C21 C 0.4476(3) 0.9926(2) 0.66680(18)
H30 H 0.4955 0.9334 0.6435
H31 H 0.4256 1.0523 0.6258
H32 H 0.3801 0.9773 0.6944
C22 C 0.6163(3) 1.0488(2) 0.68249(18)
H33 H 0.6577 1.0607 0.7209
H34 H 0.5901 1.1121 0.6453
H35 H 0.6661 0.9946 0.6548
C23 C 0.4333(4) 1.1140(2) 0.7555(2)
H36 H 0.3594 1.1044 0.7735
H37 H 0.4246 1.1733 0.7137
H38 H 0.4657 1.1257 0.7988
B1 B 0.5587(3) 0.5671(2) 0.76020(17)
C24 C 0.4331(2) 0.5532(2) 0.78171(14)
F1 F 0.51574(12) 0.37565(11) 0.78079(9)
C25 C 0.4223(2) 0.4551(2) 0.79249(14)
F2 F 0.32022(14) 0.33494(12) 0.82628(9)
C26 C 0.3224(2) 0.4324(2) 0.81349(15)
F3 F 0.12676(14) 0.49103(14) 0.84400(10)
C27 C 0.2252(2) 0.5110(2) 0.82337(16)
F4 F 0.13400(14) 0.68762(14) 0.81900(10)
C28 C 0.2291(2) 0.6102(2) 0.81101(16)
F5 F 0.32969(13) 0.72871(12) 0.78172(9)
C29 C 0.3323(2) 0.6298(2) 0.79144(15)
C30 C 0.6392(2) 0.4997(2) 0.82889(15)
F6 F 0.77571(14) 0.38991(12) 0.75192(9)
C31 C 0.7402(2) 0.4223(2) 0.82153(15)
F7 F 0.90610(17) 0.30223(15) 0.86944(12)
C32 C 0.8083(3) 0.3749(2) 0.88122(18)
F8 F 0.84296(17) 0.36109(14) 1.01180(11)
C33 C 0.7769(3) 0.4046(2) 0.95309(17)
F9 F 0.64605(15) 0.51150(13) 1.03345(9)
C34 C 0.6772(3) 0.4805(2) 0.96368(15)
F10 F 0.51484(13) 0.60064(12) 0.91715(8)
C35 C 0.6117(2) 0.5254(2) 0.90313(15)
B2 B 0.8484(3) 0.7663(3) 0.53415(19)
H39 H 0.749(2) 0.772(2) 0.5496(15)
C36 C 0.9017(2) 0.6939(2) 0.46591(16)
F11 F 1.07450(13) 0.59644(13) 0.52062(9)
C37 C 1.0065(2) 0.6196(2) 0.46243(16)
F12 F 1.15135(13) 0.49373(13) 0.40284(9)
C38 C 1.0487(2) 0.5654(2) 0.40171(16)
F13 F 1.02573(14) 0.53041(13) 0.28054(9)
C39 C 0.9866(2) 0.5834(2) 0.34014(16)
F14 F 0.81842(15) 0.67450(15) 0.27980(9)
C40 C 0.8814(3) 0.6558(2) 0.33997(16)
F15 F 0.74128(14) 0.78081(13) 0.39582(9)
C41 C 0.8433(2) 0.7085(2) 0.40153(16)
C42 C 0.8477(3) 0.8822(2) 0.49108(16)
F16 F 1.04624(15) 0.82753(14) 0.46401(10)
C43 C 0.9467(3) 0.9033(2) 0.45741(17)
F17 F 1.05218(19) 1.00755(16) 0.38258(11)
C44 C 0.9515(3) 0.9959(3) 0.41493(18)
F18 F 0.8577(2) 1.16710(14) 0.36340(12)
C45 C 0.8546(4) 1.0761(3) 0.40564(19)
F19 F 0.6576(2) 1.14064(14) 0.43049(12)
C46 C 0.7529(3) 1.0625(2) 0.43886(19)
F20 F 0.64957(15) 0.95883(13) 0.51072(10)
C47 C 0.7529(3) 0.9668(2) 0.48061(17)
C48 C 0.6355(2) 0.4900(2) 0.53973(14)
C49 C 0.6784(2) 0.3881(2) 0.52856(16)
C50 C 0.7039(3) 0.3738(2) 0.45125(17)
H40 H 0.7334 0.3061 0.4398
C51 C 0.6873(3) 0.4555(3) 0.39133(17)
H41 H 0.7072 0.4431 0.3393
C52 C 0.6421(3) 0.5558(3) 0.40500(17)
H42 H 0.6299 0.611 0.3625
C53 C 0.6146(2) 0.5754(2) 0.48065(15)
C54 C 0.6988(3) 0.3013(2) 0.59590(18)
H43 H 0.7585 0.304 0.6247
H44 H 0.7219 0.236 0.5766
H45 H 0.6294 0.3071 0.6304
C55 C 0.5666(3) 0.6817(2) 0.49917(18)
H46 H 0.5461 0.7305 0.4513
H47 H 0.6228 0.6985 0.5226
H48 H 0.4993 0.6856 0.5357
loop_
_geom_bond_atom_site_label_1
_geom_bond_atom_site_label_2
_geom_bond_site_symmetry_1
_geom_bond_site_symmetry_2
P1 H1 1_555 1_555
N1 C5 1_555 1_555
C1 P1 1_555 1_555
H2 C1 1_555 1_555
H3 C1 1_555 1_555
C2 C1 1_555 1_555
H4 C2 1_555 1_555
H5 C2 1_555 1_555
C3 P1 1_555 1_555
H6 C3 1_555 1_555
H7 C3 1_555 1_555
C4 C3 1_555 1_555
H8 C4 1_555 1_555
H9 C4 1_555 1_555
C5 B1 1_555 1_555
C6 P1 1_555 1_555
C7 C6 1_555 1_555
C8 C7 1_555 1_555
H10 C8 1_555 1_555
C9 C8 1_555 1_555
C10 C9 1_555 1_555
H11 C10 1_555 1_555
C11 C6 1_555 1_555
C12 C7 1_555 1_555
C13 C12 1_555 1_555
H12 C13 1_555 1_555
H13 C13 1_555 1_555
H14 C13 1_555 1_555
C14 C12 1_555 1_555
H15 C14 1_555 1_555
H16 C14 1_555 1_555
H17 C14 1_555 1_555
C15 C12 1_555 1_555
H18 C15 1_555 1_555
H19 C15 1_555 1_555
H20 C15 1_555 1_555
C16 C9 1_555 1_555
C17 C16 1_555 1_555
H21 C17 1_555 1_555
H22 C17 1_555 1_555
H23 C17 1_555 1_555
C18 C16 1_555 1_555
H24 C18 1_555 1_555
H25 C18 1_555 1_555
H26 C18 1_555 1_555
C19 C16 1_555 1_555
H27 C19 1_555 1_555
H28 C19 1_555 1_555
H29 C19 1_555 1_555
C20 C11 1_555 1_555
C21 C20 1_555 1_555
H30 C21 1_555 1_555
H31 C21 1_555 1_555
H32 C21 1_555 1_555
C22 C20 1_555 1_555
H33 C22 1_555 1_555
H34 C22 1_555 1_555
H35 C22 1_555 1_555
C23 C20 1_555 1_555
H36 C23 1_555 1_555
H37 C23 1_555 1_555
H38 C23 1_555 1_555
B1 C2 1_555 1_555
C24 B1 1_555 1_555
F1 C25 1_555 1_555
C25 C24 1_555 1_555
F2 C26 1_555 1_555
C26 C25 1_555 1_555
F3 C27 1_555 1_555
C27 C26 1_555 1_555
F4 C28 1_555 1_555
C28 C27 1_555 1_555
F5 C29 1_555 1_555
C29 C24 1_555 1_555
C30 B1 1_555 1_555
F6 C31 1_555 1_555
C31 C30 1_555 1_555
F7 C32 1_555 1_555
C32 C31 1_555 1_555
F8 C33 1_555 1_555
C33 C32 1_555 1_555
F9 C34 1_555 1_555
C34 C33 1_555 1_555
F10 C35 1_555 1_555
C35 C30 1_555 1_555
B2 C4 1_555 1_555
H39 B2 1_555 1_555
C36 B2 1_555 1_555
F11 C37 1_555 1_555
C37 C36 1_555 1_555
F12 C38 1_555 1_555
C38 C37 1_555 1_555
F13 C39 1_555 1_555
C39 C38 1_555 1_555
F14 C40 1_555 1_555
C40 C39 1_555 1_555
F15 C41 1_555 1_555
C41 C36 1_555 1_555
C42 B2 1_555 1_555
F16 C43 1_555 1_555
C43 C42 1_555 1_555
F17 C44 1_555 1_555
C44 C43 1_555 1_555
F18 C45 1_555 1_555
C45 C44 1_555 1_555
F19 C46 1_555 1_555
C46 C45 1_555 1_555
F20 C47 1_555 1_555
C47 C42 1_555 1_555
C48 N1 1_555 1_555
C49 C48 1_555 1_555
C50 C49 1_555 1_555
H40 C50 1_555 1_555
C51 C50 1_555 1_555
H41 C51 1_555 1_555
C52 C51 1_555 1_555
H42 C52 1_555 1_555
C53 C48 1_555 1_555
C54 C49 1_555 1_555
H43 C54 1_555 1_555
H44 C54 1_555 1_555
H45 C54 1_555 1_555
C55 C53 1_555 1_555
H46 C55 1_555 1_555
H47 C55 1_555 1_555
H48 C55 1_555 1_555
C10 C11 1_555 1_555
C28 C29 1_555 1_555
C34 C35 1_555 1_555
C40 C41 1_555 1_555
C46 C47 1_555 1_555
C52 C53 1_555 1_555

#END
