
#######################################################################
#
#                 Cambridge Crystallographic Data Centre
#                                CCDC 
#
#######################################################################
#
# If this CIF has been generated from an entry in the Cambridge 
# Structural Database, then it will include bibliographic, chemical, 
# crystal, experimental, refinement or atomic coordinate data resulting 
# from the CCDC's data processing and validation procedures.
#
#######################################################################

data_MAPJAR
_chemical_formula_moiety         'C41 H38 B2 F15 O1 P1,C1 H2 Cl2'
_chemical_name_systematic        
'2,8,8-tris(pentafluorophenyl)-5-(2,4,6-tri-t-butylphenyl)-2H-[1,3]phosphaborolo[1,2-e][1,5,2]oxaphosphaborinine dichloromethane solvate'
_symmetry_cell_setting           triclinic
_symmetry_space_group_name_H-M   'P -1'
_symmetry_Int_Tables_number      2
_space_group_name_Hall           '-P 1'
loop_
_symmetry_equiv_pos_site_id
_symmetry_equiv_pos_as_xyz
1 x,y,z
2 -x,-y,-z
_cell_length_a                   11.2486(7)
_cell_length_b                   14.9232(9)
_cell_length_c                   15.8287(8)
_cell_angle_alpha                63.327(2)
_cell_angle_beta                 69.289(2)
_cell_angle_gamma                69.458(2)
_cell_volume                     2161.41
_exptl_crystal_colour            colorless
_exptl_crystal_description       plate
_cell_formula_units_Z            2
loop_
_atom_site_label
_atom_site_type_symbol
_atom_site_fract_x
_atom_site_fract_y
_atom_site_fract_z
P1 P 0.67785(8) 0.33804(6) 0.32653(5)
B1 B 0.4105(3) 0.4013(3) 0.3923(2)
B2 B 0.5645(3) 0.1941(3) 0.2990(2)
O1 O 0.50311(19) 0.29382(14) 0.27444(13)
C1 C 0.6355(3) 0.4210(2) 0.3942(2)
H1 H 0.6526 0.3801 0.4599
H2 H 0.687 0.4744 0.3596
C2 C 0.4872(3) 0.4713(2) 0.4011(2)
H3 H 0.4764 0.5401 0.3485
H4 H 0.4471 0.4808 0.464
C3 C 0.6878(3) 0.2038(2) 0.40669(19)
H5 H 0.7726 0.1744 0.4254
H6 H 0.6175 0.1992 0.4667
C4 C 0.6744(3) 0.1408(2) 0.3565(2)
H7 H 0.6572 0.0739 0.4066
H8 H 0.7589 0.1262 0.311
C5 C 0.5184(3) 0.3691(2) 0.30070(19)
H9 H 0.5155 0.4341 0.2417
C6 C 0.8175(3) 0.3362(2) 0.22386(19)
C7 C 0.9308(3) 0.2549(2) 0.24063(19)
C8 C 0.9914(3) 0.2073(2) 0.17324(19)
H10 H 1.0639 0.1504 0.1857
C9 C 0.9513(3) 0.2389(2) 0.08828(19)
C10 C 0.8615(3) 0.3326(2) 0.06462(19)
H11 H 0.843 0.3619 0.0023
C11 C 0.7967(3) 0.3862(2) 0.12716(19)
C12 C 1.0059(3) 0.2262(2) 0.31841(19)
C13 C 1.1379(3) 0.2573(2) 0.2593(2)
H12 H 1.1216 0.3316 0.2216
H13 H 1.1836 0.22 0.2149
H14 H 1.1917 0.2398 0.3039
C14 C 1.0364(3) 0.1097(2) 0.3795(2)
H15 H 1.0874 0.0961 0.4247
H16 H 1.0867 0.0716 0.3363
H17 H 0.9545 0.0874 0.4163
C15 C 0.9439(3) 0.2876(2) 0.3854(2)
H18 H 0.8653 0.2648 0.4314
H19 H 0.9203 0.3611 0.3463
H20 H 1.0064 0.2761 0.4215
C16 C 1.0151(3) 0.1782(2) 0.0204(2)
C17 C 1.0509(4) 0.0626(2) 0.0780(2)
H21 H 0.9724 0.0398 0.1243
H22 H 1.1155 0.0481 0.1135
H23 H 1.0877 0.0257 0.0332
C18 C 1.1389(4) 0.2147(3) -0.0480(3)
H24 H 1.1799 0.1779 -0.093
H25 H 1.2 0.2006 -0.0098
H26 H 1.116 0.2889 -0.0851
C19 C 0.9225(4) 0.1970(3) -0.0405(2)
H27 H 0.9021 0.2704 -0.081
H28 H 0.8418 0.176 0.0028
H29 H 0.9647 0.1567 -0.0823
C20 C 0.7221(3) 0.4986(2) 0.08393(19)
C21 C 0.8203(3) 0.5547(2) -0.0057(2)
H30 H 0.8936 0.5529 0.0152
H31 H 0.7764 0.6264 -0.0368
H32 H 0.8529 0.5201 -0.0523
C22 C 0.6071(3) 0.5064(2) 0.0475(2)
H33 H 0.6406 0.4796 -0.0049
H34 H 0.5605 0.5787 0.0229
H35 H 0.5473 0.466 0.1013
C23 C 0.6788(3) 0.5603(2) 0.1500(2)
H36 H 0.607 0.5361 0.2045
H37 H 0.6494 0.6336 0.1125
H38 H 0.7525 0.5506 0.175
C24 C 0.3738(3) 0.3019(2) 0.49288(19)
C25 C 0.3983(3) 0.2732(2) 0.5829(2)
F1 F 0.46974(17) 0.32330(13) 0.59353(11)
C26 C 0.3544(3) 0.1962(2) 0.66675(19)
F2 F 0.38342(18) 0.17507(14) 0.75095(11)
C27 C 0.2816(3) 0.1409(2) 0.6651(2)
F3 F 0.23567(18) 0.06600(13) 0.74688(12)
C28 C 0.2537(3) 0.1636(2) 0.5788(2)
F4 F 0.18001(18) 0.11178(13) 0.57507(12)
C29 C 0.3000(3) 0.2417(2) 0.49677(19)
F5 F 0.26574(16) 0.26045(12) 0.41530(11)
C30 C 0.2703(3) 0.4732(2) 0.36430(19)
C31 C 0.1812(3) 0.5285(2) 0.42144(19)
F6 F 0.21154(16) 0.52216(13) 0.50061(11)
C32 C 0.0605(3) 0.5897(2) 0.40629(19)
F7 F -0.01817(16) 0.64115(13) 0.46520(11)
C33 C 0.0199(3) 0.5963(2) 0.3309(2)
F8 F -0.09825(17) 0.65430(13) 0.31451(12)
C34 C 0.1020(3) 0.5427(2) 0.2727(2)
F9 F 0.06167(17) 0.54727(13) 0.19923(12)
C35 C 0.2230(3) 0.4851(2) 0.28868(19)
F10 F 0.29727(16) 0.43873(12) 0.22465(11)
C36 C 0.5150(3) 0.1354(2) 0.25987(19)
C37 C 0.5196(3) 0.1668(2) 0.1625(2)
F11 F 0.57608(19) 0.24555(13) 0.09658(11)
C38 C 0.4686(3) 0.1220(2) 0.1277(2)
F12 F 0.4747(2) 0.15550(15) 0.03243(12)
C39 C 0.4105(3) 0.0417(2) 0.1921(2)
F13 F 0.3598(2) -0.00364(14) 0.16004(13)
C40 C 0.4029(3) 0.0077(2) 0.2897(2)
F14 F 0.34514(18) -0.07090(13) 0.35309(12)
C41 C 0.4543(3) 0.0544(2) 0.3214(2)
F15 F 0.44411(17) 0.01963(13) 0.41840(11)
C42 C 0.7058(4) 0.2355(3) 0.7154(3)
H39 H 0.6431 0.1948 0.7299
H40 H 0.6862 0.3013 0.6608
Cl1 Cl 0.86413(11) 0.16759(8) 0.67996(8)
Cl2 Cl 0.68382(11) 0.26205(9) 0.81855(7)
loop_
_geom_bond_atom_site_label_1
_geom_bond_atom_site_label_2
_geom_bond_site_symmetry_1
_geom_bond_site_symmetry_2
P1 C1 1_555 1_555
B1 C2 1_555 1_555
B2 O1 1_555 1_555
O1 C5 1_555 1_555
C1 H1 1_555 1_555
H2 C1 1_555 1_555
C2 C1 1_555 1_555
H3 C2 1_555 1_555
H4 C2 1_555 1_555
C3 P1 1_555 1_555
H5 C3 1_555 1_555
H6 C3 1_555 1_555
C4 B2 1_555 1_555
H7 C4 1_555 1_555
H8 C4 1_555 1_555
C5 P1 1_555 1_555
H9 C5 1_555 1_555
C6 P1 1_555 1_555
C7 C6 1_555 1_555
C8 C7 1_555 1_555
H10 C8 1_555 1_555
C9 C8 1_555 1_555
C10 C9 1_555 1_555
H11 C10 1_555 1_555
C11 C6 1_555 1_555
C12 C7 1_555 1_555
C13 C12 1_555 1_555
H12 C13 1_555 1_555
H13 C13 1_555 1_555
H14 C13 1_555 1_555
C14 C12 1_555 1_555
H15 C14 1_555 1_555
H16 C14 1_555 1_555
H17 C14 1_555 1_555
C15 C12 1_555 1_555
H18 C15 1_555 1_555
H19 C15 1_555 1_555
H20 C15 1_555 1_555
C16 C9 1_555 1_555
C17 C16 1_555 1_555
H21 C17 1_555 1_555
H22 C17 1_555 1_555
H23 C17 1_555 1_555
C18 C16 1_555 1_555
H24 C18 1_555 1_555
H25 C18 1_555 1_555
H26 C18 1_555 1_555
C19 C16 1_555 1_555
H27 C19 1_555 1_555
H28 C19 1_555 1_555
H29 C19 1_555 1_555
C20 C11 1_555 1_555
C21 C20 1_555 1_555
H30 C21 1_555 1_555
H31 C21 1_555 1_555
H32 C21 1_555 1_555
C22 C20 1_555 1_555
H33 C22 1_555 1_555
H34 C22 1_555 1_555
H35 C22 1_555 1_555
C23 C20 1_555 1_555
H36 C23 1_555 1_555
H37 C23 1_555 1_555
H38 C23 1_555 1_555
C24 B1 1_555 1_555
C25 C24 1_555 1_555
F1 C25 1_555 1_555
C26 C25 1_555 1_555
F2 C26 1_555 1_555
C27 C26 1_555 1_555
F3 C27 1_555 1_555
C28 C27 1_555 1_555
F4 C28 1_555 1_555
C29 C24 1_555 1_555
F5 C29 1_555 1_555
C30 B1 1_555 1_555
C31 C30 1_555 1_555
F6 C31 1_555 1_555
C32 C31 1_555 1_555
F7 C32 1_555 1_555
C33 C32 1_555 1_555
F8 C33 1_555 1_555
C34 C33 1_555 1_555
F9 C34 1_555 1_555
C35 C30 1_555 1_555
F10 C35 1_555 1_555
C36 B2 1_555 1_555
C37 C36 1_555 1_555
F11 C37 1_555 1_555
C38 C37 1_555 1_555
F12 C38 1_555 1_555
C39 C38 1_555 1_555
F13 C39 1_555 1_555
C40 C39 1_555 1_555
F14 C40 1_555 1_555
C41 C36 1_555 1_555
F15 C41 1_555 1_555
C42 H39 1_555 1_555
H40 C42 1_555 1_555
Cl1 C42 1_555 1_555
Cl2 C42 1_555 1_555
B1 C5 1_555 1_555
C3 C4 1_555 1_555
C10 C11 1_555 1_555
C28 C29 1_555 1_555
C34 C35 1_555 1_555
C40 C41 1_555 1_555

#END
