
#######################################################################
#
#                 Cambridge Crystallographic Data Centre
#                                CCDC 
#
#######################################################################
#
# If this CIF has been generated from an entry in the Cambridge 
# Structural Database, then it will include bibliographic, chemical, 
# crystal, experimental, refinement or atomic coordinate data resulting 
# from the CCDC's data processing and validation procedures.
#
#######################################################################

data_MAPKOF
_chemical_formula_moiety         'C32 H20 I2 N2 O8,2(C4 H8 O1)'
_chemical_name_systematic        
"2,2'-(1,3,6,8-Tetraoxo-1,3,6,8-tetrahydrobenzo[lmn][3,8]phenanthroline-2,7-diyl)bis(3-(4-iodophenyl)propanoic acid) tetrahydrofuran solvate"
_symmetry_cell_setting           monoclinic
_symmetry_space_group_name_H-M   'P 21'
_symmetry_Int_Tables_number      4
_space_group_name_Hall           'P 2yb'
loop_
_symmetry_equiv_pos_site_id
_symmetry_equiv_pos_as_xyz
1 x,y,z
2 -x,1/2+y,-z
_cell_length_a                   12.7594(4)
_cell_length_b                   9.2119(3)
_cell_length_c                   16.3278(6)
_cell_angle_alpha                90
_cell_angle_beta                 103.4340(10)
_cell_angle_gamma                90
_cell_volume                     1866.63
_exptl_crystal_colour            colorless
_exptl_crystal_description       needle
_cell_formula_units_Z            2
loop_
_atom_site_label
_atom_site_type_symbol
_atom_site_fract_x
_atom_site_fract_y
_atom_site_fract_z
I1 I 0.88643(4) 0.69477(4) 0.37613(3)
I2 I 0.01699(3) 1.73665(4) 0.00998(3)
N1 N 0.6037(4) 1.1021(5) 0.0408(3)
N2 N 0.2475(4) 1.2257(6) 0.3049(3)
O1 O 0.6496(4) 1.0333(5) -0.1626(3)
O2 O 0.5596(3) 1.2144(5) -0.1182(2)
H1 H 0.5406 1.2350 -0.1696
O3 O 0.4824(4) 0.9508(4) -0.0394(3)
O4 O 0.1319(4) 1.0611(5) 0.2321(3)
O5 O 0.3704(4) 1.3788(6) 0.3860(3)
O6 O 0.7264(3) 1.2534(5) 0.1223(3)
O7 O 0.0885(4) 1.0754(5) 0.4374(3)
O8 O 0.2572(4) 1.0311(5) 0.4268(4)
H2 H 0.2491 0.9550 0.4530
C1 C 0.8334(5) 0.7743(6) 0.2522(4)
C2 C 0.8939(6) 0.8790(7) 0.2229(5)
H3 H 0.9581 0.9166 0.2581
C3 C 0.8578(6) 0.9270(6) 0.1407(5)
H4 H 0.8981 0.9990 0.1197
C4 C 0.7649(5) 0.8730(6) 0.0885(4)
C5 C 0.7053(5) 0.7692(7) 0.1200(4)
H5 H 0.6405 0.7323 0.0853
C6 C 0.7402(5) 0.7195(7) 0.2018(4)
H6 H 0.6999 0.6480 0.2231
C7 C 0.7275(6) 0.9202(6) -0.0024(4)
H7 H 0.6734 0.8496 -0.0323
H8 H 0.7896 0.9171 -0.0291
C8 C 0.6780(5) 1.0729(6) -0.0141(4)
H9 H 0.7390 1.1431 0.0025
C9 C 0.6258(6) 1.1017(7) -0.1077(4)
C10 C 0.5046(5) 1.0305(7) 0.0210(4)
C11 C 0.4289(5) 1.0602(6) 0.0753(4)
C12 C 0.3274(5) 0.9979(7) 0.0568(4)
H10 H 0.3053 0.9391 0.0081
C13 C 0.2562(5) 1.0217(6) 0.1106(4)
H11 H 0.1866 0.9789 0.0977
C14 C 0.2881(5) 1.1072(6) 0.1815(4)
C15 C 0.3898(5) 1.1743(6) 0.2001(4)
C16 C 0.4618(5) 1.1493(6) 0.1471(4)
C17 C 0.2151(5) 1.1275(7) 0.2389(4)
C18 C 0.3474(5) 1.2954(7) 0.3255(4)
C19 C 0.4238(5) 1.2647(6) 0.2720(4)
C20 C 0.5227(5) 1.3266(7) 0.2898(4)
H12 H 0.5444 1.3866 0.3381
C21 C 0.5939(5) 1.3020(7) 0.2363(4)
H13 H 0.6630 1.3462 0.2489
C22 C 0.5642(4) 1.2151(6) 0.1663(3)
C23 C 0.6393(4) 1.1940(7) 0.1101(3)
C24 C 0.1727(5) 1.2466(7) 0.3619(4)
H14 H 0.2075 1.3207 0.4044
C25 C 0.1666(6) 1.1071(7) 0.4113(4)
C26 C 0.0612(5) 1.3053(7) 0.3218(4)
H15 H 0.0143 1.2217 0.2998
H16 H 0.0319 1.3503 0.3668
C27 C 0.0513(6) 1.4144(7) 0.2516(4)
C28 C 0.1306(6) 1.5196(7) 0.2490(5)
H17 H 0.1930 1.5245 0.2939
C29 C 0.1195(6) 1.6159(7) 0.1824(5)
H18 H 0.1737 1.6862 0.1814
C30 C 0.0279(6) 1.6080(6) 0.1171(4)
C31 C -0.0541(6) 1.5123(7) 0.1208(5)
H19 H -0.1186 1.5119 0.0778
C32 C -0.0408(6) 1.4153(8) 0.1890(5)
H20 H -0.0970 1.3490 0.1915
O9 O 0.7530(5) 0.2949(5) 0.4847(4)
C33 C 0.8225(7) 0.2904(7) 0.4259(5)
H21 H 0.8964 0.3224 0.4532
H22 H 0.7939 0.3527 0.3764
C34 C 0.8210(7) 0.1344(7) 0.4014(5)
H23 H 0.8844 0.1095 0.3789
H24 H 0.7545 0.1100 0.3588
C35 C 0.8246(7) 0.0579(8) 0.4832(5)
H25 H 0.7830 -0.0337 0.4735
H26 H 0.8999 0.0353 0.5124
C36 C 0.7757(10) 0.1607(9) 0.5337(7)
H27 H 0.7083 0.1196 0.5442
H28 H 0.8261 0.1799 0.5886
O10 O 0.4830(6) -0.2007(8) 0.2771(4)
C37 C 0.4166(8) -0.2510(14) 0.3300(5)
H29 H 0.4008 -0.3557 0.3208
H30 H 0.3478 -0.1968 0.3190
C38 C 0.4812(9) -0.2237(13) 0.4179(6)
H31 H 0.5357 -0.3004 0.4372
H32 H 0.4347 -0.2142 0.4584
C39 C 0.5344(13) -0.0751(15) 0.4031(9)
H33 H 0.4821 0.0061 0.3948
H34 H 0.5972 -0.0514 0.4494
C40 C 0.5671(7) -0.1142(9) 0.3233(5)
H35 H 0.5763 -0.0257 0.2913
H36 H 0.6358 -0.1688 0.3360
C41? C 0.586(2) -0.214(4) 0.3983(17)
H37? H 0.4608 -0.1315 0.4412
H38? H 0.4758 -0.3048 0.4565
H39? H 0.6113 -0.3104 0.3842
H40? H 0.6402 -0.1726 0.4462
H41? H 0.5430 -0.0163 0.3362
H42? H 0.6292 -0.1069 0.2968
loop_
_geom_bond_atom_site_label_1
_geom_bond_atom_site_label_2
_geom_bond_site_symmetry_1
_geom_bond_site_symmetry_2
I1 C1 1_555 1_555
I2 C30 1_555 1_555
N1 C8 1_555 1_555
N2 C17 1_555 1_555
O1 C9 1_555 1_555
O2 H1 1_555 1_555
O3 C10 1_555 1_555
O4 C17 1_555 1_555
O5 C18 1_555 1_555
O6 C23 1_555 1_555
O7 C25 1_555 1_555
O8 H2 1_555 1_555
C1 C2 1_555 1_555
C2 H3 1_555 1_555
C3 C2 1_555 1_555
H4 C3 1_555 1_555
C4 C3 1_555 1_555
C5 C4 1_555 1_555
H5 C5 1_555 1_555
C6 C1 1_555 1_555
H6 C6 1_555 1_555
C7 C4 1_555 1_555
H7 C7 1_555 1_555
H8 C7 1_555 1_555
C8 C7 1_555 1_555
H9 C8 1_555 1_555
C9 O2 1_555 1_555
C10 N1 1_555 1_555
C11 C10 1_555 1_555
C12 C11 1_555 1_555
H10 C12 1_555 1_555
C13 C12 1_555 1_555
H11 C13 1_555 1_555
C14 C13 1_555 1_555
C15 C14 1_555 1_555
C16 C11 1_555 1_555
C17 C14 1_555 1_555
C18 N2 1_555 1_555
C19 C15 1_555 1_555
C20 C19 1_555 1_555
H12 C20 1_555 1_555
C21 C20 1_555 1_555
H13 C21 1_555 1_555
C22 C16 1_555 1_555
C23 N1 1_555 1_555
C24 N2 1_555 1_555
H14 C24 1_555 1_555
C25 O8 1_555 1_555
C26 C24 1_555 1_555
H15 C26 1_555 1_555
H16 C26 1_555 1_555
C27 C26 1_555 1_555
C28 C27 1_555 1_555
H17 C28 1_555 1_555
C29 C28 1_555 1_555
H18 C29 1_555 1_555
C30 C29 1_555 1_555
C31 C30 1_555 1_555
H19 C31 1_555 1_555
C32 C27 1_555 1_555
H20 C32 1_555 1_555
O9 C33 1_555 1_555
C33 H21 1_555 1_555
H22 C33 1_555 1_555
C34 C33 1_555 1_555
H23 C34 1_555 1_555
H24 C34 1_555 1_555
C35 C34 1_555 1_555
H25 C35 1_555 1_555
H26 C35 1_555 1_555
C36 O9 1_555 1_555
H27 C36 1_555 1_555
H28 C36 1_555 1_555
O10 C37 1_555 1_555
C37 H29 1_555 1_555
H30 C37 1_555 1_555
C38 C37 1_555 1_555
H31 C38 1_555 1_555
H32 C38 1_555 1_555
C39 C38 1_555 1_555
H33 C39 1_555 1_555
H34 C39 1_555 1_555
C40 O10 1_555 1_555
H35 C40 1_555 1_555
H36 C40 1_555 1_555
C5 C6 1_555 1_555
C8 C9 1_555 1_555
C15 C16 1_555 1_555
C18 C19 1_555 1_555
C21 C22 1_555 1_555
C22 C23 1_555 1_555
C24 C25 1_555 1_555
C31 C32 1_555 1_555
C35 C36 1_555 1_555
C39 C40 1_555 1_555

#END
