
#######################################################################
#
#                 Cambridge Crystallographic Data Centre
#                                CCDC 
#
#######################################################################
#
# If this CIF has been generated from an entry in the Cambridge 
# Structural Database, then it will include bibliographic, chemical, 
# crystal, experimental, refinement or atomic coordinate data resulting 
# from the CCDC's data processing and validation procedures.
#
#######################################################################

data_MAPKUL
_chemical_formula_moiety         'C28 H30 N2 O3 S1'
_chemical_name_systematic        
'anti-Ethyl (3,3-dimethyl-1-((4-methylphenyl)sulfinyl)aziridin-2-yl)((diphenylmethylene)amino)acetate'
_symmetry_cell_setting           orthorhombic
_symmetry_space_group_name_H-M   'P 21 21 21'
_symmetry_Int_Tables_number      19
_space_group_name_Hall           'P 2ac 2ab'
loop_
_symmetry_equiv_pos_site_id
_symmetry_equiv_pos_as_xyz
1 x,y,z
2 1/2-x,-y,1/2+z
3 1/2+x,1/2-y,-z
4 -x,1/2+y,1/2-z
_cell_length_a                   11.0113(3)
_cell_length_b                   11.4153(3)
_cell_length_c                   20.0862(6)
_cell_angle_alpha                90
_cell_angle_beta                 90
_cell_angle_gamma                90
_cell_volume                     2524.78
_exptl_crystal_colour            colorless
_exptl_crystal_description       block
_cell_formula_units_Z            4
loop_
_atom_site_label
_atom_site_type_symbol
_atom_site_fract_x
_atom_site_fract_y
_atom_site_fract_z
S1 S 0.61829(5) 0.66354(4) 0.12236(3)
O1 O 0.85266(16) 0.37174(18) 0.06464(9)
O2 O 0.68458(14) 0.33552(14) 0.00539(8)
O3 O 0.72947(18) 0.67979(16) 0.16258(9)
N1 N 0.73267(17) 0.24255(16) 0.16927(9)
N2 N 0.56844(16) 0.52106(15) 0.12480(10)
C1 C 0.7473(2) 0.34567(19) 0.06153(11)
C2 C 0.6695(2) 0.32068(18) 0.12236(11)
H1 H 0.5903 0.2852 0.1085
C3 C 0.6477(2) 0.43495(19) 0.15848(11)
H2 H 0.7216 0.4693 0.1798
C4 C 0.5299(2) 0.4702(2) 0.19024(12)
C5 C 0.76215(18) 0.13920(18) 0.15010(11)
C6 C 0.7325(2) 0.08589(18) 0.08390(11)
C7 C 0.6137(2) 0.0588(2) 0.06625(12)
H3 H 0.5495 0.0728 0.0968
C8 C 0.5887(2) 0.0117(2) 0.00440(14)
H4 H 0.5072 -0.0061 -0.0073
C9 C 0.6808(3) -0.0097(2) -0.04057(13)
H5 H 0.6632 -0.0425 -0.0829
C10 C 0.7995(2) 0.0173(2) -0.02319(13)
H6 H 0.8635 0.0035 -0.0539
C11 C 0.8250(2) 0.0644(2) 0.03899(12)
H7 H 0.9065 0.082 0.0507
C12 C 0.83533(19) 0.06627(19) 0.19703(11)
C13 C 0.8300(2) -0.0557(2) 0.19528(12)
H8 H 0.78 -0.0933 0.1632
C14 C 0.8965(2) -0.1227(2) 0.23961(12)
H9 H 0.8903 -0.2057 0.2388
C15 C 0.9722(2) -0.0682(2) 0.28520(12)
H10 H 1.0186 -0.1139 0.3155
C16 C 0.9803(2) 0.0523(2) 0.28665(13)
H11 H 1.0331 0.0893 0.3176
C17 C 0.9118(2) 0.1198(2) 0.24329(12)
H12 H 0.9169 0.2028 0.2451
C18 C 0.6679(2) 0.65923(18) 0.03734(11)
C19 C 0.7893(2) 0.6791(2) 0.02319(13)
H13 H 0.8466 0.6891 0.0581
C20 C 0.8257(2) 0.6841(2) -0.04232(13)
H14 H 0.9094 0.6951 -0.0521
C21 C 0.7440(2) 0.6735(2) -0.09452(13)
C22 C 0.6221(2) 0.6543(2) -0.07893(13)
H15 H 0.5643 0.6465 -0.1138
C23 C 0.5845(2) 0.6464(2) -0.01354(12)
H16 H 0.5015 0.6322 -0.0035
C24 C 0.7848(3) 0.6837(4) -0.16524(16)
H17 H 0.7657 0.7622 -0.182
H18 H 0.7427 0.625 -0.1924
H19 H 0.8726 0.6706 -0.1677
C25 C 0.7543(2) 0.3518(2) -0.05548(12)
H20 H 0.8248 0.2981 -0.0561
H21 H 0.7845 0.4333 -0.0583
C26 C 0.6721(3) 0.3262(3) -0.11243(13)
H22 H 0.6398 0.2466 -0.108
H23 H 0.7176 0.3326 -0.1542
H24 H 0.6049 0.3824 -0.1126
C27 C 0.5323(3) 0.5476(3) 0.25135(14)
H25 H 0.6107 0.5878 0.254
H26 H 0.5206 0.4995 0.2912
H27 H 0.467 0.6057 0.2484
C28 C 0.4194(2) 0.3938(3) 0.18567(15)
H28 H 0.3464 0.4428 0.1858
H29 H 0.4172 0.3404 0.2239
H30 H 0.4224 0.3482 0.1444
loop_
_geom_bond_atom_site_label_1
_geom_bond_atom_site_label_2
_geom_bond_site_symmetry_1
_geom_bond_site_symmetry_2
S1 O3 1_555 1_555
O1 C1 1_555 1_555
O2 C1 1_555 1_555
N1 C2 1_555 1_555
N2 S1 1_555 1_555
C1 C2 1_555 1_555
C2 H1 1_555 1_555
C3 N2 1_555 1_555
H2 C3 1_555 1_555
C4 N2 1_555 1_555
C5 N1 1_555 1_555
C6 C5 1_555 1_555
C7 C6 1_555 1_555
H3 C7 1_555 1_555
C8 C7 1_555 1_555
H4 C8 1_555 1_555
C9 C8 1_555 1_555
H5 C9 1_555 1_555
C10 C9 1_555 1_555
H6 C10 1_555 1_555
C11 C6 1_555 1_555
H7 C11 1_555 1_555
C12 C5 1_555 1_555
C13 C12 1_555 1_555
H8 C13 1_555 1_555
C14 C13 1_555 1_555
H9 C14 1_555 1_555
C15 C14 1_555 1_555
H10 C15 1_555 1_555
C16 C15 1_555 1_555
H11 C16 1_555 1_555
C17 C12 1_555 1_555
H12 C17 1_555 1_555
C18 S1 1_555 1_555
C19 C18 1_555 1_555
H13 C19 1_555 1_555
C20 C19 1_555 1_555
H14 C20 1_555 1_555
C21 C20 1_555 1_555
C22 C21 1_555 1_555
H15 C22 1_555 1_555
C23 C18 1_555 1_555
H16 C23 1_555 1_555
C24 C21 1_555 1_555
H17 C24 1_555 1_555
H18 C24 1_555 1_555
H19 C24 1_555 1_555
C25 O2 1_555 1_555
H20 C25 1_555 1_555
H21 C25 1_555 1_555
C26 C25 1_555 1_555
H22 C26 1_555 1_555
H23 C26 1_555 1_555
H24 C26 1_555 1_555
C27 C4 1_555 1_555
H25 C27 1_555 1_555
H26 C27 1_555 1_555
H27 C27 1_555 1_555
C28 C4 1_555 1_555
H28 C28 1_555 1_555
H29 C28 1_555 1_555
H30 C28 1_555 1_555
C2 C3 1_555 1_555
C3 C4 1_555 1_555
C10 C11 1_555 1_555
C16 C17 1_555 1_555
C22 C23 1_555 1_555

#END
