
#######################################################################
#
#                 Cambridge Crystallographic Data Centre
#                                CCDC 
#
#######################################################################
#
# If this CIF has been generated from an entry in the Cambridge 
# Structural Database, then it will include bibliographic, chemical, 
# crystal, experimental, refinement or atomic coordinate data resulting 
# from the CCDC's data processing and validation procedures.
#
#######################################################################

data_MAPLAS
_chemical_formula_moiety         'C28 H31 Cl1 N2 O3 S1'
_chemical_name_systematic        
'syn-Ethyl 4-chloro-N-(diphenylmethylene)-3-(((4-methylphenyl)sulfinyl)amino)leucinate'
_symmetry_cell_setting           monoclinic
_symmetry_space_group_name_H-M   'P 21'
_symmetry_Int_Tables_number      4
_space_group_name_Hall           'P 2yb'
loop_
_symmetry_equiv_pos_site_id
_symmetry_equiv_pos_as_xyz
1 x,y,z
2 -x,1/2+y,-z
_cell_length_a                   9.9428(3)
_cell_length_b                   8.5931(3)
_cell_length_c                   16.3220(6)
_cell_angle_alpha                90
_cell_angle_beta                 107.418(2)
_cell_angle_gamma                90
_cell_volume                     1330.6
_exptl_crystal_colour            colorless
_exptl_crystal_description       needle
_cell_formula_units_Z            2
loop_
_atom_site_label
_atom_site_type_symbol
_atom_site_fract_x
_atom_site_fract_y
_atom_site_fract_z
S1 S 0.84317(10) 0.19327(14) 0.73720(6)
Cl1 Cl 0.55759(13) -0.08566(15) 0.73129(9)
O1 O 0.5780(3) 0.4214(4) 0.53989(19)
O2 O 0.6502(3) 0.5794(4) 0.65432(19)
O3 O 0.9039(3) 0.3254(4) 0.70225(19)
N1 N 0.4732(3) 0.4577(4) 0.7330(2)
N2 N 0.6940(3) 0.2374(5) 0.7576(2)
C1 C 0.5778(4) 0.4614(5) 0.6106(3)
C2 C 0.4907(4) 0.3744(5) 0.6583(2)
H1 H 0.395 0.3547 0.6173
C3 C 0.5615(4) 0.2160(5) 0.6878(2)
H2 H 0.5863 0.1699 0.638
C4 C 0.4643(4) 0.0974(5) 0.7148(3)
C5 C 0.3631(4) 0.5403(5) 0.7230(3)
C6 C 0.2546(4) 0.5662(5) 0.6372(3)
C7 C 0.2904(4) 0.6554(5) 0.5750(3)
H3 H 0.3795 0.7057 0.5885
C8 C 0.1953(4) 0.6698(6) 0.4937(3)
H4 H 0.2182 0.7325 0.4518
C9 C 0.0669(5) 0.5931(6) 0.4732(3)
H5 H 0.0034 0.5998 0.4168
C10 C 0.0317(5) 0.5068(6) 0.5352(3)
H6 H -0.0573 0.4563 0.5216
C11 C 0.1249(4) 0.4933(5) 0.6169(3)
H7 H 0.0998 0.4337 0.6591
C12 C 0.3376(5) 0.6094(6) 0.8005(3)
C13 C 0.2381(5) 0.7261(6) 0.7932(3)
H8 H 0.1839 0.7609 0.738
C14 C 0.2171(6) 0.7928(7) 0.8667(4)
H9 H 0.1499 0.8738 0.8613
C15 C 0.2939(7) 0.7410(8) 0.9467(4)
H10 H 0.2804 0.7867 0.9966
C16 C 0.3903(7) 0.6229(8) 0.9544(4)
H11 H 0.4424 0.5865 1.0098
C17 C 0.4120(5) 0.5567(7) 0.8818(3)
H12 H 0.4782 0.4746 0.8879
C18 C 0.9500(4) 0.1782(6) 0.8473(2)
C19 C 0.9076(5) 0.0901(7) 0.9054(3)
H13 H 0.8183 0.0399 0.8882
C20 C 0.9954(6) 0.0741(7) 0.9894(3)
H14 H 0.9648 0.0156 1.0299
C21 C 1.1272(5) 0.1435(7) 1.0140(3)
C22 C 1.1696(5) 0.2279(7) 0.9540(3)
H15 H 1.2599 0.2756 0.9702
C23 C 1.0824(4) 0.2440(6) 0.8707(3)
H16 H 1.1137 0.3004 0.8298
C24 C 1.2186(7) 0.1280(8) 1.1062(3)
H17 H 1.2636 0.2281 1.1263
H18 H 1.2913 0.049 1.1098
H19 H 1.1601 0.0968 1.1422
C25 C 0.7366(5) 0.6664(7) 0.6109(3)
H20 H 0.6792 0.7481 0.5736
H21 H 0.7727 0.5953 0.5746
C26 C 0.8551(5) 0.7376(7) 0.6774(4)
H22 H 0.8183 0.8092 0.7122
H23 H 0.915 0.7951 0.6499
H24 H 0.9107 0.6559 0.7142
C27 C 0.3255(4) 0.0722(6) 0.6430(3)
H25 H 0.2682 0.1669 0.6356
H26 H 0.2738 -0.0146 0.6582
H27 H 0.346 0.0482 0.5892
C28 C 0.4362(4) 0.1375(5) 0.8033(2)
H28 H 0.3744 0.2286 0.7958
H29 H 0.526 0.1603 0.8469
H30 H 0.391 0.0485 0.8219
H31 H 0.699(5) 0.318(6) 0.784(3)
loop_
_geom_bond_atom_site_label_1
_geom_bond_atom_site_label_2
_geom_bond_site_symmetry_1
_geom_bond_site_symmetry_2
S1 O3 1_555 1_555
Cl1 C4 1_555 1_555
O1 C1 1_555 1_555
O2 C1 1_555 1_555
N1 C2 1_555 1_555
N2 S1 1_555 1_555
C1 C2 1_555 1_555
C2 H1 1_555 1_555
C3 N2 1_555 1_555
H2 C3 1_555 1_555
C4 C3 1_555 1_555
C5 N1 1_555 1_555
C6 C5 1_555 1_555
C7 C6 1_555 1_555
H3 C7 1_555 1_555
C8 C7 1_555 1_555
H4 C8 1_555 1_555
C9 C8 1_555 1_555
H5 C9 1_555 1_555
C10 C9 1_555 1_555
H6 C10 1_555 1_555
C11 C6 1_555 1_555
H7 C11 1_555 1_555
C12 C5 1_555 1_555
C13 C12 1_555 1_555
H8 C13 1_555 1_555
C14 C13 1_555 1_555
H9 C14 1_555 1_555
C15 C14 1_555 1_555
H10 C15 1_555 1_555
C16 C15 1_555 1_555
H11 C16 1_555 1_555
C17 C12 1_555 1_555
H12 C17 1_555 1_555
C18 S1 1_555 1_555
C19 C18 1_555 1_555
H13 C19 1_555 1_555
C20 C19 1_555 1_555
H14 C20 1_555 1_555
C21 C20 1_555 1_555
C22 C21 1_555 1_555
H15 C22 1_555 1_555
C23 C18 1_555 1_555
H16 C23 1_555 1_555
C24 C21 1_555 1_555
H17 C24 1_555 1_555
H18 C24 1_555 1_555
H19 C24 1_555 1_555
C25 O2 1_555 1_555
H20 C25 1_555 1_555
H21 C25 1_555 1_555
C26 C25 1_555 1_555
H22 C26 1_555 1_555
H23 C26 1_555 1_555
H24 C26 1_555 1_555
C27 C4 1_555 1_555
H25 C27 1_555 1_555
H26 C27 1_555 1_555
H27 C27 1_555 1_555
C28 C4 1_555 1_555
H28 C28 1_555 1_555
H29 C28 1_555 1_555
H30 C28 1_555 1_555
H31 N2 1_555 1_555
C2 C3 1_555 1_555
C10 C11 1_555 1_555
C16 C17 1_555 1_555
C22 C23 1_555 1_555

#END
