
#######################################################################
#
#                 Cambridge Crystallographic Data Centre
#                                CCDC 
#
#######################################################################
#
# If this CIF has been generated from an entry in the Cambridge 
# Structural Database, then it will include bibliographic, chemical, 
# crystal, experimental, refinement or atomic coordinate data resulting 
# from the CCDC's data processing and validation procedures.
#
#######################################################################

data_MAPLOF
_chemical_formula_moiety         'C18 H22 N1 O3 P1'
_chemical_name_systematic        
'2-(Benzylamino)-4-phenyl-5,5-dimethyl-1,3,2-dioxaphosphorinane 2-oxide'
_symmetry_cell_setting           triclinic
_symmetry_space_group_name_H-M   'P -1'
_symmetry_Int_Tables_number      2
_space_group_name_Hall           '-P 1'
loop_
_symmetry_equiv_pos_site_id
_symmetry_equiv_pos_as_xyz
1 x,y,z
2 -x,-y,-z
_cell_length_a                   9.1916(10)
_cell_length_b                   9.9676(11)
_cell_length_c                   10.0055(11)
_cell_angle_alpha                86.049(2)
_cell_angle_beta                 72.405(2)
_cell_angle_gamma                79.700(2)
_cell_volume                     859.611
_exptl_crystal_colour            colorless
_exptl_crystal_description       block
_chemical_melting_point          '453 K'
_cell_formula_units_Z            2
_exptl_crystal_recrystallization_method dioxane/dimethylformamide
loop_
_atom_site_label
_atom_site_type_symbol
_atom_site_fract_x
_atom_site_fract_y
_atom_site_fract_z
C1 C 0.7514(2) 0.76324(18) 1.12149(18)
C2 C 0.8227(3) 0.8756(2) 1.1123(2)
H1 H 0.7682 0.9623 1.1037
C3 C 0.9736(3) 0.8611(3) 1.1157(2)
H2 H 1.0197 0.9379 1.1107
C4 C 1.0560(3) 0.7335(3) 1.1264(3)
H3 H 1.1583 0.7234 1.1270
C5 C 0.9858(3) 0.6209(3) 1.1363(3)
H4 H 1.0406 0.5343 1.1444
C6 C 0.8346(3) 0.6359(2) 1.1343(3)
H5 H 0.7880 0.5591 1.1417
C7 C 0.5850(2) 0.78199(19) 1.1211(2)
H6 H 0.5199 0.7794 1.2174
H7 H 0.5584 0.8720 1.0830
C8 C 0.5651(2) 0.87176(19) 0.6900(2)
H8 H 0.5128 0.9632 0.6775
H9 H 0.5392 0.8113 0.6318
C9 C 0.73971(19) 0.87015(17) 0.64041(18)
C10 C 0.7832(2) 0.97418(19) 0.7202(2)
H10 H 0.7484 0.9547 0.8190
H11 H 0.7350 1.0641 0.7012
H12 H 0.8935 0.9693 0.6906
C11 C 0.7829(3) 0.9061(2) 0.4838(2)
H13 H 0.7264 0.9940 0.4696
H14 H 0.7575 0.8387 0.4344
H15 H 0.8920 0.9082 0.4490
C12 C 0.81955(18) 0.72366(16) 0.66185(17)
H16 H 0.7906 0.6622 0.6055
C13 C 0.99396(19) 0.70126(16) 0.62436(18)
C14 C 1.0826(2) 0.6551(2) 0.4926(2)
H17 H 1.0345 0.6394 0.4269
C15 C 1.2432(3) 0.6319(2) 0.4579(3)
H18 H 1.3024 0.6021 0.3687
C16 C 1.3144(2) 0.6532(2) 0.5550(3)
H19 H 1.4218 0.6369 0.5318
C17 C 1.2279(2) 0.6981(2) 0.6859(3)
H20 H 1.2769 0.7124 0.7513
C18 C 1.0681(2) 0.7225(2) 0.7214(2)
H21 H 1.0100 0.7532 0.8105
N1 N 0.54762(17) 0.68160(15) 1.04174(16)
H22 H 0.5030 0.6170 1.0887
O1 O 0.76194(12) 0.68402(11) 0.80907(12)
O2 O 0.52944(15) 0.57087(13) 0.82421(13)
O3 O 0.50851(13) 0.83011(12) 0.83543(13)
P1 P 0.58277(5) 0.68198(4) 0.87492(4)
loop_
_geom_bond_atom_site_label_1
_geom_bond_atom_site_label_2
_geom_bond_site_symmetry_1
_geom_bond_site_symmetry_2
C1 C2 1_555 1_555
C2 H1 1_555 1_555
C3 C2 1_555 1_555
H2 C3 1_555 1_555
C4 C3 1_555 1_555
H3 C4 1_555 1_555
C5 C4 1_555 1_555
H4 C5 1_555 1_555
C6 C1 1_555 1_555
H5 C6 1_555 1_555
C7 C1 1_555 1_555
H6 C7 1_555 1_555
H7 C7 1_555 1_555
C8 H8 1_555 1_555
H9 C8 1_555 1_555
C9 C8 1_555 1_555
C10 C9 1_555 1_555
H10 C10 1_555 1_555
H11 C10 1_555 1_555
H12 C10 1_555 1_555
C11 C9 1_555 1_555
H13 C11 1_555 1_555
H14 C11 1_555 1_555
H15 C11 1_555 1_555
C12 C9 1_555 1_555
H16 C12 1_555 1_555
C13 C12 1_555 1_555
C14 C13 1_555 1_555
H17 C14 1_555 1_555
C15 C14 1_555 1_555
H18 C15 1_555 1_555
C16 C15 1_555 1_555
H19 C16 1_555 1_555
C17 C16 1_555 1_555
H20 C17 1_555 1_555
C18 C13 1_555 1_555
H21 C18 1_555 1_555
N1 C7 1_555 1_555
H22 N1 1_555 1_555
O1 C12 1_555 1_555
O2 P1 1_555 1_555
O3 C8 1_555 1_555
P1 N1 1_555 1_555
C5 C6 1_555 1_555
C17 C18 1_555 1_555
O1 P1 1_555 1_555
O3 P1 1_555 1_555

#END
