
#######################################################################
#
#                 Cambridge Crystallographic Data Centre
#                                CCDC 
#
#######################################################################
#
# If this CIF has been generated from an entry in the Cambridge 
# Structural Database, then it will include bibliographic, chemical, 
# crystal, experimental, refinement or atomic coordinate data resulting 
# from the CCDC's data processing and validation procedures.
#
#######################################################################

data_MAPMEW
_chemical_formula_moiety         'C20 H16 N2 O2'
_chemical_name_systematic        2,5-Dibenzoyl-1,4-phenylenediamine
_symmetry_cell_setting           orthorhombic
_symmetry_space_group_name_H-M   'P c a b'
_symmetry_Int_Tables_number      61
_space_group_name_Hall           '-P 2bc 2ac'
loop_
_symmetry_equiv_pos_site_id
_symmetry_equiv_pos_as_xyz
1 x,y,z
2 -x,1/2-y,1/2+z
3 1/2+x,-y,1/2-z
4 1/2-x,1/2+y,-z
5 -x,-y,-z
6 x,1/2+y,1/2-z
7 1/2-x,y,1/2+z
8 1/2+x,1/2-y,z
_cell_length_a                   7.4651(15)
_cell_length_b                   13.0034(16)
_cell_length_c                   15.9759(18)
_cell_angle_alpha                90
_cell_angle_beta                 90
_cell_angle_gamma                90
_cell_volume                     1550.81
_exptl_crystal_colour            brown
_exptl_crystal_description       prism
_chemical_melting_point          '492 K'
_cell_formula_units_Z            4
_exptl_crystal_recrystallization_method benzene
loop_
_atom_site_label
_atom_site_type_symbol
_atom_site_fract_x
_atom_site_fract_y
_atom_site_fract_z
O1 O -0.1312(4) 0.2506(2) 0.08228(16)
N1 N -0.3402(5) 0.0911(3) 0.0079(2)
H1 H -0.349(5) 0.154(3) 0.025(2)
H2 H -0.421(7) 0.066(3) -0.034(3)
C1 C -0.1691(5) 0.0489(3) 0.0026(2)
C2 C 0.1372(5) 0.0349(3) 0.0494(2)
H3 H 0.2299 0.0592 0.0828
C3 C -0.0277(5) 0.0833(2) 0.0531(2)
C4 C -0.0501(5) 0.1747(3) 0.1084(2)
C5 C 0.0523(5) 0.2689(3) 0.2348(2)
H4 H 0.0280 0.3302 0.2071
C6 C 0.1164(6) 0.2708(3) 0.3154(3)
H5 H 0.1365 0.3337 0.3416
C7 C 0.1508(6) 0.1818(4) 0.3577(2)
H6 H 0.1957 0.1841 0.4120
C8 C 0.1191(6) 0.0889(4) 0.3199(2)
H7 H 0.1390 0.0281 0.3490
C9 C 0.0576(6) 0.0860(3) 0.2386(2)
H8 H 0.0385 0.0227 0.2130
C10 C 0.0236(5) 0.1754(3) 0.1943(2)
O1D O 0.1312(4) -0.2506(2) -0.08228(16)
N1D N 0.3402(5) -0.0911(3) -0.0079(2)
H1D H 0.349(5) -0.154(3) -0.025(2)
H2D H 0.421(7) -0.066(3) 0.034(3)
C1D C 0.1691(5) -0.0489(3) -0.0026(2)
C2D C -0.1372(5) -0.0349(3) -0.0494(2)
H3D H -0.2299 -0.0592 -0.0828
C3D C 0.0277(5) -0.0833(2) -0.0531(2)
C4D C 0.0501(5) -0.1747(3) -0.1084(2)
C5D C -0.0523(5) -0.2689(3) -0.2348(2)
H4D H -0.0280 -0.3302 -0.2071
C6D C -0.1164(6) -0.2708(3) -0.3154(3)
H5D H -0.1365 -0.3337 -0.3416
C7D C -0.1508(6) -0.1818(4) -0.3577(2)
H6D H -0.1957 -0.1841 -0.4120
C8D C -0.1191(6) -0.0889(4) -0.3199(2)
H7D H -0.1390 -0.0281 -0.3490
C9D C -0.0576(6) -0.0860(3) -0.2386(2)
H8D H -0.0385 -0.0227 -0.2130
C10D C -0.0236(5) -0.1754(3) -0.1943(2)
loop_
_geom_bond_atom_site_label_1
_geom_bond_atom_site_label_2
_geom_bond_site_symmetry_1
_geom_bond_site_symmetry_2
O1 C4 1_555 1_555
N1 H1 1_555 1_555
H2 N1 1_555 1_555
C1 N1 1_555 1_555
C2 H3 1_555 1_555
C3 C1 1_555 1_555
C4 C3 1_555 1_555
C5 H4 1_555 1_555
C6 C5 1_555 1_555
H5 C6 1_555 1_555
C7 C6 1_555 1_555
H6 C7 1_555 1_555
C8 C7 1_555 1_555
H7 C8 1_555 1_555
C9 C8 1_555 1_555
H8 C9 1_555 1_555
C10 C4 1_555 1_555
O1D C4D 1_555 1_555
N1D H1D 1_555 1_555
H2D N1D 1_555 1_555
C1D C2 1_555 1_555
C2D C1 1_555 1_555
H3D C2D 1_555 1_555
C3D C1D 1_555 1_555
C4D C3D 1_555 1_555
C5D H4D 1_555 1_555
C6D C5D 1_555 1_555
H5D C6D 1_555 1_555
C7D C6D 1_555 1_555
H6D C7D 1_555 1_555
C8D C7D 1_555 1_555
H7D C8D 1_555 1_555
C9D C8D 1_555 1_555
H8D C9D 1_555 1_555
C10D C4D 1_555 1_555
C2 C3 1_555 1_555
C5 C10 1_555 1_555
C9 C10 1_555 1_555
N1D C1D 1_555 1_555
C2D C3D 1_555 1_555
C5D C10D 1_555 1_555
C9D C10D 1_555 1_555

#END
