
#######################################################################
#
#                 Cambridge Crystallographic Data Centre
#                                CCDC 
#
#######################################################################
#
# If this CIF has been generated from an entry in the Cambridge 
# Structural Database, then it will include bibliographic, chemical, 
# crystal, experimental, refinement or atomic coordinate data resulting 
# from the CCDC's data processing and validation procedures.
#
#######################################################################

data_MAPMOG
_chemical_formula_moiety         'C22 H18 F1 N1 O3'
_chemical_name_systematic        
'Ethyl 2-amino-4-(3-fluorophenyl)-4H-benzo(h)chromene-3-carboxylate'
_symmetry_cell_setting           monoclinic
_symmetry_space_group_name_H-M   'P 21/n'
_symmetry_Int_Tables_number      14
_space_group_name_Hall           '-P 2yn'
loop_
_symmetry_equiv_pos_site_id
_symmetry_equiv_pos_as_xyz
1 x,y,z
2 1/2-x,1/2+y,1/2-z
3 -x,-y,-z
4 1/2+x,1/2-y,1/2+z
_cell_length_a                   9.069(2)
_cell_length_b                   6.1360(10)
_cell_length_c                   32.537(7)
_cell_angle_alpha                90
_cell_angle_beta                 96.87(3)
_cell_angle_gamma                90
_cell_volume                     1797.6
_exptl_crystal_colour            colorless
_exptl_crystal_description       block
_chemical_melting_point          '406-409 K'
_cell_formula_units_Z            4
_exptl_crystal_recrystallization_method ethanol
loop_
_atom_site_label
_atom_site_type_symbol
_atom_site_fract_x
_atom_site_fract_y
_atom_site_fract_z
F1 F 1.2082(4) 0.1597(8) 0.10104(15)
O1 O 0.6146(5) 0.7810(8) 0.00781(13)
O2 O 0.7413(4) 0.4730(8) 0.02520(11)
O3 O 0.5441(4) 0.8428(7) 0.13299(11)
N1 N 0.5103(6) 0.9974(9) 0.07181(15)
H1 H 0.5180 1.0137 0.0459
H2 H 0.4622 1.0916 0.0846
C1 C 0.8548(9) 0.2435(14) -0.0199(2)
H3 H 0.8688 0.2154 -0.0482
H4 H 0.8078 0.1200 -0.0089
H5 H 0.9493 0.2687 -0.0040
C2 C 0.7590(8) 0.4396(13) -0.01787(18)
H6 H 0.8054 0.5659 -0.0288
H7 H 0.6631 0.4165 -0.0339
C3 C 0.6643(6) 0.6496(11) 0.03450(17)
C4 C 0.6515(6) 0.6628(10) 0.07833(15)
C5 C 0.5723(6) 0.8276(10) 0.09204(16)
C6 C 0.7208(6) 0.4859(10) 0.10656(16)
H8 H 0.6920 0.3449 0.0939
C7 C 0.8909(6) 0.4960(10) 0.11317(15)
C8 C 0.9745(6) 0.3210(11) 0.10331(17)
H9 H 0.9291 0.1972 0.0911
C9 C 1.1263(7) 0.3325(12) 0.11181(19)
C10 C 1.1987(7) 0.5058(14) 0.1304(2)
H10 H 1.3016 0.5067 0.1361
C11 C 1.1159(7) 0.6788(14) 0.1403(2)
H11 H 1.1627 0.8005 0.1529
C12 C 0.9627(6) 0.6755(11) 0.13183(18)
H12 H 0.9077 0.7950 0.1387
C13 C 0.6616(5) 0.4966(10) 0.14768(16)
C14 C 0.6927(6) 0.3249(11) 0.17630(18)
H13 H 0.7466 0.2050 0.1690
C15 C 0.6445(7) 0.3323(12) 0.21466(19)
H14 H 0.6669 0.2178 0.2331
C16 C 0.5617(6) 0.5111(12) 0.22652(17)
C17 C 0.5099(7) 0.5236(14) 0.2659(2)
H15 H 0.5293 0.4092 0.2845
C18 C 0.4339(8) 0.6959(15) 0.2767(2)
H16 H 0.4027 0.7014 0.3029
C19 C 0.4010(7) 0.8681(15) 0.2492(2)
H17 H 0.3472 0.9866 0.2572
C20 C 0.4468(6) 0.8664(12) 0.20984(18)
H18 H 0.4241 0.9813 0.1915
C21 C 0.5282(6) 0.6864(11) 0.19866(17)
C22 C 0.5814(6) 0.6669(10) 0.15884(16)
loop_
_geom_bond_atom_site_label_1
_geom_bond_atom_site_label_2
_geom_bond_site_symmetry_1
_geom_bond_site_symmetry_2
F1 C9 1_555 1_555
O1 C3 1_555 1_555
O2 C2 1_555 1_555
O3 C5 1_555 1_555
N1 H1 1_555 1_555
H2 N1 1_555 1_555
C1 H3 1_555 1_555
H4 C1 1_555 1_555
H5 C1 1_555 1_555
C2 C1 1_555 1_555
H6 C2 1_555 1_555
H7 C2 1_555 1_555
C3 O2 1_555 1_555
C4 C3 1_555 1_555
C5 N1 1_555 1_555
C6 C4 1_555 1_555
H8 C6 1_555 1_555
C7 C6 1_555 1_555
C8 C7 1_555 1_555
H9 C8 1_555 1_555
C9 C8 1_555 1_555
C10 C9 1_555 1_555
H10 C10 1_555 1_555
C11 C10 1_555 1_555
H11 C11 1_555 1_555
C12 C7 1_555 1_555
H12 C12 1_555 1_555
C13 C6 1_555 1_555
C14 C13 1_555 1_555
H13 C14 1_555 1_555
C15 C14 1_555 1_555
H14 C15 1_555 1_555
C16 C15 1_555 1_555
C17 C16 1_555 1_555
H15 C17 1_555 1_555
C18 C17 1_555 1_555
H16 C18 1_555 1_555
C19 C18 1_555 1_555
H17 C19 1_555 1_555
C20 C19 1_555 1_555
H18 C20 1_555 1_555
C21 C16 1_555 1_555
C22 O3 1_555 1_555
C4 C5 1_555 1_555
C11 C12 1_555 1_555
C13 C22 1_555 1_555
C20 C21 1_555 1_555
C21 C22 1_555 1_555

#END
