
#######################################################################
#
#                 Cambridge Crystallographic Data Centre
#                                CCDC 
#
#######################################################################
#
# If this CIF has been generated from an entry in the Cambridge 
# Structural Database, then it will include bibliographic, chemical, 
# crystal, experimental, refinement or atomic coordinate data resulting 
# from the CCDC's data processing and validation procedures.
#
#######################################################################

data_MAPNUP
_chemical_formula_moiety         'C18 H15 N1 O5,C2 H6 O1 S1'
_chemical_name_systematic        
'3-methyl-3-nitro-4-oxo-2-phenyl-1,2,3,4-tetrahydronaphthalene-1-carboxylic acid dimethyl sulfoxide solvate'
_symmetry_cell_setting           orthorhombic
_symmetry_space_group_name_H-M   'P 21 21 21'
_symmetry_Int_Tables_number      19
_space_group_name_Hall           'P 2ac 2ab'
loop_
_symmetry_equiv_pos_site_id
_symmetry_equiv_pos_as_xyz
1 x,y,z
2 1/2-x,-y,1/2+z
3 1/2+x,1/2-y,-z
4 -x,1/2+y,1/2-z
_cell_length_a                   20.392(2)
_cell_length_b                   10.2856(10)
_cell_length_c                   9.7344(15)
_cell_angle_alpha                90
_cell_angle_beta                 90
_cell_angle_gamma                90
_cell_volume                     2041.73
_cell_formula_units_Z            4
loop_
_atom_site_label
_atom_site_type_symbol
_atom_site_fract_x
_atom_site_fract_y
_atom_site_fract_z
O1 O 0.5445(3) 0.4118(6) 0.1771(11)
N1 N 0.6191(4) 0.2015(8) 0.1843(11)
O2 O 0.5937(4) 0.1084(7) 0.2384(11)
O3 O 0.8430(3) 0.5467(7) 0.3659(8)
H1 H 0.8657 0.4888 0.3986
O4 O 0.8237(3) 0.4890(8) 0.1495(7)
C1 C 0.8060(4) 0.4983(8) 0.2661(10)
O5 O 0.6301(4) 0.2105(8) 0.0613(9)
C2 C 0.5992(4) 0.4303(8) 0.2266(12)
C3 C 0.7571(4) 0.2245(8) 0.2708(9)
C4 C 0.7140(4) 0.3425(7) 0.2428(8)
H2 H 0.7173 0.3596 0.1440
C5 C 0.6907(4) 0.5805(8) 0.2862(8)
C6 C 0.6412(4) 0.3182(7) 0.2721(10)
C7 C 0.7786(5) 0.1910(9) 0.4018(10)
H3 H 0.7685 0.2436 0.4766
C8 C 0.6257(4) 0.5616(8) 0.2455(10)
C9 C 0.7365(3) 0.4667(7) 0.3146(9)
H4 H 0.7375 0.4510 0.4138
C10 C 0.5846(4) 0.6688(8) 0.2276(11)
H5 H 0.5413 0.6549 0.2016
C11 C 0.7756(4) 0.1464(9) 0.1612(10)
H6 H 0.7624 0.1678 0.0726
C12 C 0.8152(5) 0.0787(10) 0.4202(11)
H7 H 0.8276 0.0550 0.5087
C13 C 0.8333(5) 0.0025(10) 0.3133(13)
H8 H 0.8585 -0.0715 0.3281
C14 C 0.6059(4) 0.7934(9) 0.2468(11)
H9 H 0.5778 0.8636 0.2344
C15 C 0.7127(4) 0.7085(8) 0.3054(9)
H10 H 0.7558 0.7237 0.3318
C16 C 0.6707(5) 0.8118(9) 0.2854(11)
H11 H 0.6862 0.8960 0.2981
C17 C 0.8140(5) 0.0358(11) 0.1830(13)
H12 H 0.8266 -0.0154 0.1088
C18 C 0.6242(5) 0.2885(11) 0.4203(10)
H13 H 0.6386 0.3587 0.4778
H14 H 0.6456 0.2096 0.4480
H15 H 0.5776 0.2783 0.4290
S1 S 0.4861(3) 0.7597(6) 0.7124(5)
O6 O 0.4535(5) 0.8631(13) 0.7226(13)
C19 C 0.5364(6) 0.7230(18) 0.8497(15)
H16 H 0.5456 0.8008 0.9006
H17 H 0.5767 0.6863 0.8165
H18 H 0.5148 0.6614 0.9085
C20 C 0.5285(8) 0.709(2) 0.5834(14)
H19 H 0.5083 0.7371 0.4995
H20 H 0.5304 0.6156 0.5850
H21 H 0.5722 0.7435 0.5890
loop_
_geom_bond_atom_site_label_1
_geom_bond_atom_site_label_2
_geom_bond_site_symmetry_1
_geom_bond_site_symmetry_2
O1 C2 1_555 1_555
N1 O2 1_555 1_555
O3 H1 1_555 1_555
O4 C1 1_555 1_555
C1 O3 1_555 1_555
O5 N1 1_555 1_555
C2 C6 1_555 1_555
C3 C4 1_555 1_555
C4 H2 1_555 1_555
C5 C8 1_555 1_555
C6 N1 1_555 1_555
C7 C3 1_555 1_555
H3 C7 1_555 1_555
C8 C2 1_555 1_555
C9 C1 1_555 1_555
H4 C9 1_555 1_555
C10 C8 1_555 1_555
H5 C10 1_555 1_555
C11 C3 1_555 1_555
H6 C11 1_555 1_555
C12 C7 1_555 1_555
H7 C12 1_555 1_555
C13 C12 1_555 1_555
H8 C13 1_555 1_555
C14 C10 1_555 1_555
H9 C14 1_555 1_555
C15 C5 1_555 1_555
H10 C15 1_555 1_555
C16 C14 1_555 1_555
H11 C16 1_555 1_555
C17 C11 1_555 1_555
H12 C17 1_555 1_555
C18 C6 1_555 1_555
H13 C18 1_555 1_555
H14 C18 1_555 1_555
H15 C18 1_555 1_555
S1 O6 1_555 1_555
C19 S1 1_555 1_555
H16 C19 1_555 1_555
H17 C19 1_555 1_555
H18 C19 1_555 1_555
C20 S1 1_555 1_555
H19 C20 1_555 1_555
H20 C20 1_555 1_555
H21 C20 1_555 1_555
C4 C6 1_555 1_555
C4 C9 1_555 1_555
C5 C9 1_555 1_555
C13 C17 1_555 1_555
C15 C16 1_555 1_555

#END
