
#######################################################################
#
#                 Cambridge Crystallographic Data Centre
#                                CCDC 
#
#######################################################################
#
# If this CIF has been generated from an entry in the Cambridge 
# Structural Database, then it will include bibliographic, chemical, 
# crystal, experimental, refinement or atomic coordinate data resulting 
# from the CCDC's data processing and validation procedures.
#
#######################################################################

data_MAPNIC
_chemical_formula_moiety         'C4 H8 N10,2(H2 O1)'
_chemical_name_systematic        
"2,2'-(1,2,4,5-Tetrazine-3,6-diyl)diguanidine dihydrate"
_symmetry_cell_setting           monoclinic
_symmetry_space_group_name_H-M   'C 2/c'
_symmetry_Int_Tables_number      15
_space_group_name_Hall           '-C 2yn'
loop_
_symmetry_equiv_pos_site_id
_symmetry_equiv_pos_as_xyz
1 x,y,z
2 -x,y,1/2-z
3 1/2+x,1/2+y,z
4 1/2-x,1/2+y,1/2-z
5 -x,-y,-z
6 x,-y,1/2+z
7 1/2-x,1/2-y,-z
8 1/2+x,1/2-y,1/2+z
_cell_length_a                   13.077(5)
_cell_length_b                   3.6935(14)
_cell_length_c                   19.823(8)
_cell_angle_alpha                90
_cell_angle_beta                 95.158(7)
_cell_angle_gamma                90
_cell_volume                     953.572
_exptl_crystal_colour            red
_exptl_crystal_description       prism
_cell_formula_units_Z            4
loop_
_atom_site_label
_atom_site_type_symbol
_atom_site_fract_x
_atom_site_fract_y
_atom_site_fract_z
O1 O 0.42098(8) 1.1523(3) 0.31181(6)
H5 H 0.4636(18) 0.992(7) 0.3355(12)
H6 H 0.454(2) 1.360(8) 0.3138(13)
N1 N 0.55976(10) 0.3153(3) 0.54778(6)
N2 N 0.59843(9) 0.4080(4) 0.49096(6)
N3 N 0.56892(9) 0.6984(3) 0.38246(6)
N4 N 0.68718(11) 0.7868(4) 0.30571(7)
N5 N 0.74438(10) 0.5466(4) 0.40826(7)
C1 C 0.53812(11) 0.5922(4) 0.44353(7)
C2 C 0.66645(11) 0.6737(4) 0.36766(7)
H1 H 0.7535(16) 0.804(5) 0.2978(9)
H2 H 0.6408(17) 0.898(6) 0.2817(11)
H3 H 0.8026(15) 0.528(5) 0.3946(10)
H4 H 0.7288(14) 0.436(5) 0.4458(10)
N1D N 0.44024(10) 0.6847(3) 0.45222(6)
N2D N 0.40157(9) 0.5920(4) 0.50904(6)
N3D N 0.43108(9) 0.3016(3) 0.61754(6)
N4D N 0.31282(11) 0.2132(4) 0.69429(7)
N5D N 0.25562(10) 0.4534(4) 0.59174(7)
C1D C 0.46188(11) 0.4078(4) 0.55647(7)
C2D C 0.33355(11) 0.3263(4) 0.63234(7)
H1D H 0.2465(16) 0.196(5) 0.7022(9)
H2D H 0.3592(17) 0.102(6) 0.7183(11)
H3D H 0.1974(15) 0.472(5) 0.6054(10)
H4D H 0.2712(14) 0.564(5) 0.5542(10)
loop_
_geom_bond_atom_site_label_1
_geom_bond_atom_site_label_2
_geom_bond_site_symmetry_1
_geom_bond_site_symmetry_2
O1 H5 1_555 1_555
N1 N2 1_555 1_555
N2 C1 1_555 1_555
N3 C1 1_555 1_555
N4 C2 1_555 1_555
N5 C2 1_555 1_555
C1 N1D 1_555 1_555
C2 N3 1_555 1_555
H1 N4 1_555 1_555
H2 N4 1_555 1_555
H3 N5 1_555 1_555
H4 N5 1_555 1_555
H6 O1 1_555 1_555
N1D N2D 1_555 1_555
N2D C1D 1_555 1_555
N3D C1D 1_555 1_555
N4D C2D 1_555 1_555
N5D C2D 1_555 1_555
C1D N1 1_555 1_555
C2D N3D 1_555 1_555
H1D N4D 1_555 1_555
H2D N4D 1_555 1_555
H3D N5D 1_555 1_555
H4D N5D 1_555 1_555

#END
