
#######################################################################
#
#                 Cambridge Crystallographic Data Centre
#                                CCDC 
#
#######################################################################
#
# If this CIF has been generated from an entry in the Cambridge 
# Structural Database, then it will include bibliographic, chemical, 
# crystal, experimental, refinement or atomic coordinate data resulting 
# from the CCDC's data processing and validation procedures.
#
#######################################################################

data_MAPSOO
_chemical_formula_moiety         'C20 H16 N2 O4'
_chemical_name_systematic        
5-methoxy-2-methyl-3a,8a-dihydro-1H-spiro[indeno[1,2-c]pyrrole-8,1'-isoindole]-1,3,3'(2H,2'H)-trione
_symmetry_cell_setting           monoclinic
_symmetry_space_group_name_H-M   'P 21/n'
_symmetry_Int_Tables_number      14
_space_group_name_Hall           '-P 2yn'
loop_
_symmetry_equiv_pos_site_id
_symmetry_equiv_pos_as_xyz
1 x,y,z
2 1/2-x,1/2+y,1/2-z
3 -x,-y,-z
4 1/2+x,1/2-y,1/2+z
_cell_length_a                   11.3545(3)
_cell_length_b                   9.1635(3)
_cell_length_c                   16.9529(5)
_cell_angle_alpha                90
_cell_angle_beta                 105.5115(16)
_cell_angle_gamma                90
_cell_volume                     1699.65
_exptl_crystal_colour            colorless
_exptl_crystal_description       block
_cell_formula_units_Z            4
loop_
_atom_site_label
_atom_site_type_symbol
_atom_site_fract_x
_atom_site_fract_y
_atom_site_fract_z
C1 C 0.80282(13) 0.72156(16) 1.08326(9)
C2 C 0.90656(14) 0.80514(18) 1.11348(11)
H1 H 0.9375 0.8643 1.0792
C3 C 0.96277(17) 0.7975(2) 1.19691(12)
H2 H 1.0318 0.854 1.2189
C4 C 0.91836(17) 0.7078(2) 1.24791(11)
H3 H 0.9566 0.7072 1.3038
C5 C 0.81833(16) 0.6193(2) 1.21735(10)
H4 H 0.7901 0.5561 1.2512
C6 C 0.76153(14) 0.62822(17) 1.13436(9)
C7 C 0.65288(14) 0.55057(17) 1.08507(9)
C8 C 0.71778(13) 0.71322(16) 0.99719(9)
C9 C 0.64364(13) 0.85799(17) 0.96708(9)
H5 H 0.5567 0.8361 0.9441
C10 C 0.66004(14) 0.97307(18) 1.03267(10)
C11 C 0.7869(2) 1.1976(2) 1.07341(16)
H6 H 0.8519 1.1614 1.1177
H7 H 0.7233 1.237 1.0947
H8 H 0.8179 1.2727 1.0449
C12 C 0.76781(16) 1.05664(18) 0.94368(11)
C13 C 0.69761(14) 0.92499(17) 0.90159(9)
H9 H 0.6325 0.9548 0.8537
C14 C 0.77436(14) 0.80582(17) 0.87936(9)
C15 C 0.78297(14) 0.68783(17) 0.93106(9)
C16 C 0.84880(17) 0.56498(19) 0.92009(11)
H10 H 0.8551 0.485 0.9547
C17 C 0.90451(18) 0.5635(2) 0.85716(12)
H11 H 0.9484 0.4816 0.8493
C18 C 0.89593(16) 0.6829(2) 0.80512(10)
C19 C 0.83049(16) 0.80605(18) 0.81553(10)
H12 H 0.8243 0.8862 0.781
C20 C 0.9567(3) 0.7865(3) 0.69261(14)
H13 H 0.8744 0.8141 0.6651
H14 H 0.999 0.7591 0.6528
H15 H 0.9979 0.8674 0.7242
N1 N 0.63628(12) 0.59588(15) 1.00701(7)
H16 H 0.5822 0.5586 0.9665
N2 N 0.73779(13) 1.07843(15) 1.01702(9)
O1 O 0.58847(11) 0.46157(14) 1.10885(7)
O2 O 0.61573(12) 0.97534(15) 1.09014(7)
O3 O 0.83635(15) 1.13365(16) 0.91899(11)
O4 O 0.95487(14) 0.66670(15) 0.74519(9)
loop_
_geom_bond_atom_site_label_1
_geom_bond_atom_site_label_2
_geom_bond_site_symmetry_1
_geom_bond_site_symmetry_2
C1 C2 1_555 1_555
C2 H1 1_555 1_555
C3 C2 1_555 1_555
H2 C3 1_555 1_555
C4 C3 1_555 1_555
H3 C4 1_555 1_555
C5 C4 1_555 1_555
H4 C5 1_555 1_555
C6 C1 1_555 1_555
C7 C6 1_555 1_555
C8 C1 1_555 1_555
C9 C8 1_555 1_555
H5 C9 1_555 1_555
C10 C9 1_555 1_555
C11 H6 1_555 1_555
H7 C11 1_555 1_555
H8 C11 1_555 1_555
C12 C13 1_555 1_555
C13 C9 1_555 1_555
H9 C13 1_555 1_555
C14 C13 1_555 1_555
C15 C8 1_555 1_555
C16 C15 1_555 1_555
H10 C16 1_555 1_555
C17 C16 1_555 1_555
H11 C17 1_555 1_555
C18 C17 1_555 1_555
C19 C14 1_555 1_555
H12 C19 1_555 1_555
C20 H13 1_555 1_555
H14 C20 1_555 1_555
H15 C20 1_555 1_555
N1 C7 1_555 1_555
H16 N1 1_555 1_555
N2 C10 1_555 1_555
O1 C7 1_555 1_555
O2 C10 1_555 1_555
O3 C12 1_555 1_555
O4 C18 1_555 1_555
C5 C6 1_555 1_555
C8 N1 1_555 1_555
C11 N2 1_555 1_555
C12 N2 1_555 1_555
C14 C15 1_555 1_555
C18 C19 1_555 1_555
C20 O4 1_555 1_555

#END
