
#######################################################################
#
#                 Cambridge Crystallographic Data Centre
#                                CCDC 
#
#######################################################################
#
# If this CIF has been generated from an entry in the Cambridge 
# Structural Database, then it will include bibliographic, chemical, 
# crystal, experimental, refinement or atomic coordinate data resulting 
# from the CCDC's data processing and validation procedures.
#
#######################################################################

data_MAPTOP
_chemical_formula_moiety         'C24 H19 F1 O2'
_chemical_name_systematic        
4-(4-fluorophenyl)-1,2-dimethoxy-7-phenylnaphthalene
_symmetry_cell_setting           monoclinic
_symmetry_space_group_name_H-M   'C 2/c'
_symmetry_Int_Tables_number      15
_space_group_name_Hall           '-C 2yn'
loop_
_symmetry_equiv_pos_site_id
_symmetry_equiv_pos_as_xyz
1 x,y,z
2 -x,y,1/2-z
3 1/2+x,1/2+y,z
4 1/2-x,1/2+y,1/2-z
5 -x,-y,-z
6 x,-y,1/2+z
7 1/2-x,1/2-y,-z
8 1/2+x,1/2-y,1/2+z
_cell_length_a                   53.153(6)
_cell_length_b                   5.7648(6)
_cell_length_c                   26.264(3)
_cell_angle_alpha                90
_cell_angle_beta                 116.484(3)
_cell_angle_gamma                90
_cell_volume                     7203.18
_exptl_crystal_colour            colorless
_cell_formula_units_Z            16
loop_
_atom_site_label
_atom_site_type_symbol
_atom_site_fract_x
_atom_site_fract_y
_atom_site_fract_z
F1 F 0.04182(2) 0.30990(17) -0.19355(4)
O1 O 0.12826(2) 0.04678(19) 0.17233(4)
O2 O 0.11198(2) 0.39556(18) 0.21869(4)
C1 C 0.04984(4) 0.3123(3) -0.13645(7)
C2 C 0.04248(3) 0.1291(3) -0.11260(7)
H1 H 0.0319 0.0027 -0.1353
C3 C 0.05084(3) 0.1329(3) -0.05446(7)
H2 H 0.0461 0.0068 -0.0371
C4 C 0.06606(3) 0.3193(3) -0.02128(6)
C5 C 0.07562(3) 0.3246(3) 0.04140(6)
C6 C 0.06486(3) 0.4952(3) 0.06580(6)
C7 C 0.07709(3) 0.5178(3) 0.12611(6)
C8 C 0.06689(3) 0.6922(3) 0.15033(6)
H3 H 0.0759 0.7147 0.1904
C9 C 0.04430(3) 0.8292(3) 0.11738(6)
C10 C 0.03278(3) 1.0035(3) 0.14301(6)
C11 C 0.01980(3) 1.2056(3) 0.11351(7)
H4 H 0.0181 1.2302 0.0763
C12 C 0.00943(3) 1.3702(3) 0.13755(7)
H5 H 0.0004 1.5049 0.1166
C13 C 0.01224(3) 1.3391(3) 0.19221(7)
H6 H 0.0056 1.4539 0.2091
C14 C 0.06487(4) 0.4999(3) -0.10547(7)
H7 H 0.0697 0.6240 -0.1232
C15 C 0.07275(3) 0.5029(3) -0.04773(7)
H8 H 0.0829 0.6320 -0.0256
C16 C 0.09594(3) 0.1724(3) 0.07615(6)
H9 H 0.1022 0.0531 0.0596
C17 C 0.10758(3) 0.1902(3) 0.13585(6)
C18 C 0.13815(4) -0.1327(3) 0.14820(7)
H10 H 0.1224 -0.2321 0.1240
H11 H 0.1523 -0.2258 0.1788
H12 H 0.1465 -0.0630 0.1253
C19 C 0.09892(3) 0.3652(3) 0.16027(6)
C20 C 0.09912(4) 0.2633(3) 0.24724(7)
H13 H 0.0795 0.3111 0.2334
H14 H 0.1092 0.2909 0.2883
H15 H 0.0999 0.0979 0.2395
C21 C 0.04152(3) 0.6379(3) 0.03268(7)
H16 H 0.0328 0.6236 -0.0076
C22 C 0.03137(3) 0.7952(3) 0.05765(7)
H17 H 0.0153 0.8843 0.0345
C23 C 0.03482(3) 0.9717(3) 0.19737(7)
H18 H 0.0431 0.8339 0.2178
C24 C 0.02489(3) 1.1385(3) 0.22203(7)
H19 H 0.0268 1.1156 0.2594
F2 F 0.30957(2) 0.09504(19) 0.78833(4)
O3 O 0.14169(2) -0.23460(19) 0.52931(5)
O4 O 0.12809(2) 0.10886(19) 0.45117(5)
C25 C 0.28558(3) 0.0920(3) 0.73819(7)
C26 C 0.26731(4) 0.2754(3) 0.72616(7)
H20 H 0.2713 0.4018 0.7518
C27 C 0.24285(4) 0.2701(3) 0.67539(7)
H21 H 0.2300 0.3958 0.6660
C28 C 0.23674(3) 0.0840(3) 0.63785(7)
C29 C 0.20955(3) 0.0772(3) 0.58523(6)
C30 C 0.20355(3) 0.2367(3) 0.53992(6)
C31 C 0.22417(3) 0.3872(3) 0.53748(7)
H22 H 0.2428 0.3844 0.5675
C32 C 0.21778(3) 0.5351(3) 0.49300(7)
H23 H 0.2321 0.6309 0.4922
C33 C 0.19014(3) 0.5497(3) 0.44781(7)
C34 C 0.18377(3) 0.7134(3) 0.39979(7)
C35 C 0.16288(3) 0.6618(3) 0.34517(7)
H24 H 0.1533 0.5174 0.3384
C36 C 0.15593(3) 0.8176(3) 0.30078(7)
H25 H 0.1414 0.7809 0.2642
C37 C 0.17011(3) 1.0272(3) 0.30939(7)
H26 H 0.1653 1.1342 0.2790
C38 C 0.18932(3) -0.0809(3) 0.58138(7)
H27 H 0.1937 -0.1921 0.6108
C39 C 0.16238(3) -0.0813(3) 0.53485(7)
C40 C 0.14930(4) -0.4238(3) 0.56879(7)
H28 H 0.1660 -0.5017 0.5701
H29 H 0.1337 -0.5345 0.5565
H30 H 0.1534 -0.3647 0.6067
C41 C 0.15539(3) 0.0854(3) 0.49310(7)
C42 C 0.12010(4) -0.0584(3) 0.40626(7)
H31 H 0.1324 -0.0436 0.3876
H32 H 0.1006 -0.0309 0.3784
H33 H 0.1218 -0.2149 0.4221
C43 C 0.17594(3) 0.2432(3) 0.49376(7)
C44 C 0.19144(3) 1.0788(3) 0.36297(7)
H34 H 0.2016 1.2200 0.3690
C45 C 0.19799(3) 0.9245(3) 0.40782(7)
H35 H 0.2123 0.9631 0.4445
C46 C 0.16985(3) 0.4059(3) 0.44943(7)
H36 H 0.1512 0.4161 0.4199
C47 C 0.25600(3) -0.0971(3) 0.65218(7)
H37 H 0.2522 -0.2251 0.6270
C48 C 0.28065(4) -0.0941(3) 0.70245(7)
H38 H 0.2938 -0.2177 0.7119
loop_
_geom_bond_atom_site_label_1
_geom_bond_atom_site_label_2
_geom_bond_site_symmetry_1
_geom_bond_site_symmetry_2
F1 C1 1_555 1_555
O1 C17 1_555 1_555
O2 C19 1_555 1_555
C1 C2 1_555 1_555
C2 H1 1_555 1_555
C3 C2 1_555 1_555
H2 C3 1_555 1_555
C4 C3 1_555 1_555
C5 C4 1_555 1_555
C6 C5 1_555 1_555
C7 C6 1_555 1_555
C8 C7 1_555 1_555
H3 C8 1_555 1_555
C9 C8 1_555 1_555
C10 C9 1_555 1_555
C11 C10 1_555 1_555
H4 C11 1_555 1_555
C12 C11 1_555 1_555
H5 C12 1_555 1_555
C13 C12 1_555 1_555
H6 C13 1_555 1_555
C14 C1 1_555 1_555
H7 C14 1_555 1_555
C15 C4 1_555 1_555
H8 C15 1_555 1_555
C16 C5 1_555 1_555
H9 C16 1_555 1_555
C17 C16 1_555 1_555
C18 O1 1_555 1_555
H10 C18 1_555 1_555
H11 C18 1_555 1_555
H12 C18 1_555 1_555
C19 C7 1_555 1_555
C20 O2 1_555 1_555
H13 C20 1_555 1_555
H14 C20 1_555 1_555
H15 C20 1_555 1_555
C21 C6 1_555 1_555
H16 C21 1_555 1_555
C22 C9 1_555 1_555
H17 C22 1_555 1_555
C23 C10 1_555 1_555
H18 C23 1_555 1_555
C24 C13 1_555 1_555
H19 C24 1_555 1_555
F2 C25 1_555 1_555
O3 C39 1_555 1_555
O4 C41 1_555 1_555
C25 C26 1_555 1_555
C26 H20 1_555 1_555
C27 C26 1_555 1_555
H21 C27 1_555 1_555
C28 C27 1_555 1_555
C29 C28 1_555 1_555
C30 C29 1_555 1_555
C31 C30 1_555 1_555
H22 C31 1_555 1_555
C32 C31 1_555 1_555
H23 C32 1_555 1_555
C33 C32 1_555 1_555
C34 C33 1_555 1_555
C35 C34 1_555 1_555
H24 C35 1_555 1_555
C36 C35 1_555 1_555
H25 C36 1_555 1_555
C37 C36 1_555 1_555
H26 C37 1_555 1_555
C38 C29 1_555 1_555
H27 C38 1_555 1_555
C39 C38 1_555 1_555
C40 O3 1_555 1_555
H28 C40 1_555 1_555
H29 C40 1_555 1_555
H30 C40 1_555 1_555
C41 C39 1_555 1_555
C42 O4 1_555 1_555
H31 C42 1_555 1_555
H32 C42 1_555 1_555
H33 C42 1_555 1_555
C43 C30 1_555 1_555
C44 C37 1_555 1_555
H34 C44 1_555 1_555
C45 C34 1_555 1_555
H35 C45 1_555 1_555
C46 C33 1_555 1_555
H36 C46 1_555 1_555
C47 C28 1_555 1_555
H37 C47 1_555 1_555
C48 C25 1_555 1_555
H38 C48 1_555 1_555
C14 C15 1_555 1_555
C17 C19 1_555 1_555
C21 C22 1_555 1_555
C23 C24 1_555 1_555
C41 C43 1_555 1_555
C43 C46 1_555 1_555
C44 C45 1_555 1_555
C47 C48 1_555 1_555

#END
