
#######################################################################
#
#                 Cambridge Crystallographic Data Centre
#                                CCDC 
#
#######################################################################
#
# If this CIF has been generated from an entry in the Cambridge 
# Structural Database, then it will include bibliographic, chemical, 
# crystal, experimental, refinement or atomic coordinate data resulting 
# from the CCDC's data processing and validation procedures.
#
#######################################################################

data_MAPTUV
_chemical_formula_moiety         'C23 H20 O3'
_chemical_name_systematic        
3-((2-(biphenyl-4-yl)prop-2-en-1-yl)oxy)-4-methoxybenzaldehyde
_symmetry_cell_setting           monoclinic
_symmetry_space_group_name_H-M   'P 21/c'
_symmetry_Int_Tables_number      14
_space_group_name_Hall           '-P 2ybc'
loop_
_symmetry_equiv_pos_site_id
_symmetry_equiv_pos_as_xyz
1 x,y,z
2 -x,1/2+y,1/2-z
3 -x,-y,-z
4 x,1/2-y,1/2+z
_cell_length_a                   5.7601(3)
_cell_length_b                   29.9866(16)
_cell_length_c                   10.0387(5)
_cell_angle_alpha                90
_cell_angle_beta                 92.8580(10)
_cell_angle_gamma                90
_cell_volume                     1731.79
_exptl_crystal_colour            colorless
_cell_formula_units_Z            4
loop_
_atom_site_label
_atom_site_type_symbol
_atom_site_fract_x
_atom_site_fract_y
_atom_site_fract_z
O1 O -0.2497(2) 0.26015(4) 0.38968(11)
O2 O -0.04680(17) 0.11242(3) 0.14390(10)
O3 O 0.28672(18) 0.13398(3) -0.00053(10)
C1 C -0.0757(3) 0.26455(5) 0.32760(15)
H1 H -0.0006 0.2927 0.3322
C2 C 0.0281(3) 0.23009(5) 0.24615(14)
C3 C -0.0681(2) 0.18708(5) 0.23867(14)
H2 H -0.1987 0.1799 0.2887
C4 C 0.0272(2) 0.15544(5) 0.15871(14)
C5 C -0.2368(2) 0.09896(5) 0.22223(15)
H3 H -0.3745 0.1178 0.2004
H4 H -0.1936 0.1024 0.3184
C6 C -0.2922(3) 0.05106(5) 0.19140(14)
C7 C -0.1168(3) 0.01616(5) 0.22719(15)
C8 C 0.0459(3) 0.02167(6) 0.3310(2)
H5 H 0.0608 0.0500 0.3731
C9 C 0.1885(3) -0.01300(6) 0.3755(2)
H6 H 0.2975 -0.0080 0.4482
C10 C 0.1760(2) -0.05469(5) 0.31691(15)
C11 C 0.3093(2) -0.09276(5) 0.37591(14)
C12 C 0.5275(3) -0.08741(6) 0.4388(2)
H7 H 0.6004 -0.0590 0.4385
C13 C 0.6408(3) -0.12296(6) 0.5019(2)
H8 H 0.7892 -0.1184 0.5455
C14 C 0.5417(3) -0.16469(6) 0.50251(17)
H9 H 0.6191 -0.1888 0.5471
C15 C 0.4744(3) 0.14323(6) -0.08485(16)
H10 H 0.4304 0.1677 -0.1456
H11 H 0.5085 0.1166 -0.1368
H12 H 0.6126 0.1517 -0.0298
C16 C 0.2170(2) 0.16709(5) 0.08060(14)
C17 C -0.5041(3) 0.04064(5) 0.14317(17)
H13 H -0.5466 0.0103 0.1308
H14 H -0.6131 0.0636 0.1210
C18 C 0.0252(3) -0.05942(5) 0.20647(17)
H15 H 0.0191 -0.0870 0.1599
C19 C -0.1167(4) -0.02478(6) 0.16263(17)
H16 H -0.2174 -0.0291 0.0859
C20 C 0.3283(3) -0.17087(5) 0.43726(16)
H17 H 0.2596 -0.1997 0.4346
C21 C 0.2128(3) -0.13524(5) 0.37525(16)
H18 H 0.0648 -0.1400 0.3315
C22 C 0.2195(3) 0.24046(5) 0.17437(15)
H19 H 0.2870 0.2693 0.1825
C23 C 0.3145(3) 0.20918(5) 0.09030(15)
H20 H 0.4447 0.2167 0.0402
loop_
_geom_bond_atom_site_label_1
_geom_bond_atom_site_label_2
_geom_bond_site_symmetry_1
_geom_bond_site_symmetry_2
O1 C1 1_555 1_555
O2 C4 1_555 1_555
O3 C15 1_555 1_555
C1 H1 1_555 1_555
C2 C1 1_555 1_555
C3 C2 1_555 1_555
H2 C3 1_555 1_555
C4 C3 1_555 1_555
C5 O2 1_555 1_555
H3 C5 1_555 1_555
H4 C5 1_555 1_555
C6 C5 1_555 1_555
C7 C6 1_555 1_555
C8 C7 1_555 1_555
H5 C8 1_555 1_555
C9 C8 1_555 1_555
H6 C9 1_555 1_555
C10 C9 1_555 1_555
C11 C10 1_555 1_555
C12 C11 1_555 1_555
H7 C12 1_555 1_555
C13 C12 1_555 1_555
H8 C13 1_555 1_555
C14 C13 1_555 1_555
H9 C14 1_555 1_555
C15 H10 1_555 1_555
H11 C15 1_555 1_555
H12 C15 1_555 1_555
C16 O3 1_555 1_555
C17 C6 1_555 1_555
H13 C17 1_555 1_555
H14 C17 1_555 1_555
C18 C10 1_555 1_555
H15 C18 1_555 1_555
C19 C7 1_555 1_555
H16 C19 1_555 1_555
C20 C14 1_555 1_555
H17 C20 1_555 1_555
C21 C11 1_555 1_555
H18 C21 1_555 1_555
C22 C2 1_555 1_555
H19 C22 1_555 1_555
C23 C16 1_555 1_555
H20 C23 1_555 1_555
C4 C16 1_555 1_555
C18 C19 1_555 1_555
C20 C21 1_555 1_555
C22 C23 1_555 1_555

#END
