
#######################################################################
#
#                 Cambridge Crystallographic Data Centre
#                                CCDC 
#
#######################################################################
#
# If this CIF has been generated from an entry in the Cambridge 
# Structural Database, then it will include bibliographic, chemical, 
# crystal, experimental, refinement or atomic coordinate data resulting 
# from the CCDC's data processing and validation procedures.
#
#######################################################################

data_MAPTIJ
_chemical_formula_moiety         'C30 H24 O2'
_chemical_name_systematic        4-(7,8-dimethoxy-5-phenyl-2-naphthyl)biphenyl
_symmetry_cell_setting           orthorhombic
_symmetry_space_group_name_H-M   'P 21 21 21'
_symmetry_Int_Tables_number      19
_space_group_name_Hall           'P 2ac 2ab'
loop_
_symmetry_equiv_pos_site_id
_symmetry_equiv_pos_as_xyz
1 x,y,z
2 1/2+x,1/2-y,-z
3 -x,1/2+y,1/2-z
4 1/2-x,-y,1/2+z
_cell_length_a                   7.7664(8)
_cell_length_b                   8.1366(9)
_cell_length_c                   34.746(4)
_cell_angle_alpha                90
_cell_angle_beta                 90
_cell_angle_gamma                90
_cell_volume                     2195.67
_exptl_crystal_colour            colorless
_cell_formula_units_Z            4
loop_
_atom_site_label
_atom_site_type_symbol
_atom_site_fract_x
_atom_site_fract_y
_atom_site_fract_z
O1 O 0.2878(3) -0.3419(3) 0.02680(6)
O2 O 0.4845(3) -0.3320(3) 0.09028(6)
C1 C -0.3200(5) 0.3404(5) 0.04916(10)
H1 H -0.4173 0.4058 0.0428
C2 C -0.1646(5) 0.3673(6) 0.03174(13)
H2 H -0.1537 0.4534 0.0134
C3 C -0.0227(5) 0.2709(5) 0.04042(12)
H3 H 0.0840 0.2913 0.0279
C4 C -0.0347(4) 0.1470(4) 0.06670(9)
C5 C 0.1108(4) 0.0306(4) 0.07317(9)
C6 C 0.2198(4) 0.0409(4) 0.10600(9)
C7 C 0.3512(4) -0.0803(4) 0.11081(9)
C8 C 0.4620(4) -0.0706(4) 0.14332(9)
H4 H 0.5485 -0.1520 0.1467
C9 C 0.4476(4) 0.0529(4) 0.17000(9)
C10 C 0.5685(4) 0.0622(4) 0.20296(9)
C11 C 0.7379(4) 0.0051(4) 0.19929(9)
H5 H 0.7752 -0.0378 0.1753
C12 C 0.8521(4) 0.0099(4) 0.22978(9)
H6 H 0.9655 -0.0315 0.2264
C13 C 0.8049(4) 0.0739(4) 0.26527(9)
C14 C 0.9277(4) 0.0771(4) 0.29829(9)
C15 C 1.0510(4) -0.0458(4) 0.30246(10)
H7 H 1.0601 -0.1298 0.2836
C16 C 1.1610(5) -0.0465(5) 0.33400(10)
H8 H 1.2455 -0.1302 0.3365
C17 C 1.1477(4) 0.0743(4) 0.36178(10)
H9 H 1.2218 0.0730 0.3835
C18 C -0.1915(4) 0.1221(4) 0.08446(10)
H10 H -0.2025 0.0373 0.1031
C19 C -0.3326(4) 0.2180(4) 0.07569(10)
H11 H -0.4392 0.1984 0.0883
C20 C 0.1344(4) -0.0925(4) 0.04670(9)
H12 H 0.0632 -0.0961 0.0245
C21 C 0.2621(4) -0.2138(4) 0.05178(9)
C22 C 0.1814(5) -0.3506(5) -0.00655(10)
H13 H 0.0601 -0.3482 0.0012
H14 H 0.2052 -0.4529 -0.0204
H15 H 0.2057 -0.2567 -0.0233
C23 C 0.3650(4) -0.2088(4) 0.08385(9)
C24 C 0.4053(4) -0.4701(4) 0.10949(10)
H16 H 0.3459 -0.4318 0.1327
H17 H 0.4942 -0.5500 0.1167
H18 H 0.3222 -0.5223 0.0921
C25 C 0.2050(4) 0.1647(4) 0.13448(9)
H19 H 0.1171 0.2453 0.1322
C26 C 0.3149(4) 0.1701(4) 0.16519(9)
H20 H 0.3018 0.2548 0.1838
C27 C 0.5211(4) 0.1272(4) 0.23853(9)
H21 H 0.4077 0.1682 0.2421
C28 C 0.6369(4) 0.1330(4) 0.26879(10)
H22 H 0.6010 0.1786 0.2927
C29 C 0.9187(4) 0.1992(4) 0.32608(9)
H23 H 0.8376 0.2859 0.3234
C30 C 1.0273(4) 0.1958(4) 0.35778(9)
H24 H 1.0180 0.2787 0.3769
loop_
_geom_bond_atom_site_label_1
_geom_bond_atom_site_label_2
_geom_bond_site_symmetry_1
_geom_bond_site_symmetry_2
O1 C21 1_555 1_555
O2 C23 1_555 1_555
C1 H1 1_555 1_555
C2 C1 1_555 1_555
H2 C2 1_555 1_555
C3 C2 1_555 1_555
H3 C3 1_555 1_555
C4 C3 1_555 1_555
C5 C4 1_555 1_555
C6 C5 1_555 1_555
C7 C6 1_555 1_555
C8 C7 1_555 1_555
H4 C8 1_555 1_555
C9 C8 1_555 1_555
C10 C9 1_555 1_555
C11 C10 1_555 1_555
H5 C11 1_555 1_555
C12 C11 1_555 1_555
H6 C12 1_555 1_555
C13 C12 1_555 1_555
C14 C13 1_555 1_555
C15 C14 1_555 1_555
H7 C15 1_555 1_555
C16 C15 1_555 1_555
H8 C16 1_555 1_555
C17 C16 1_555 1_555
H9 C17 1_555 1_555
C18 C4 1_555 1_555
H10 C18 1_555 1_555
C19 C1 1_555 1_555
H11 C19 1_555 1_555
C20 C5 1_555 1_555
H12 C20 1_555 1_555
C21 C20 1_555 1_555
C22 O1 1_555 1_555
H13 C22 1_555 1_555
H14 C22 1_555 1_555
H15 C22 1_555 1_555
C23 C7 1_555 1_555
C24 O2 1_555 1_555
H16 C24 1_555 1_555
H17 C24 1_555 1_555
H18 C24 1_555 1_555
C25 C6 1_555 1_555
H19 C25 1_555 1_555
C26 C9 1_555 1_555
H20 C26 1_555 1_555
C27 C10 1_555 1_555
H21 C27 1_555 1_555
C28 C13 1_555 1_555
H22 C28 1_555 1_555
C29 C14 1_555 1_555
H23 C29 1_555 1_555
C30 C17 1_555 1_555
H24 C30 1_555 1_555
C18 C19 1_555 1_555
C21 C23 1_555 1_555
C25 C26 1_555 1_555
C27 C28 1_555 1_555
C29 C30 1_555 1_555

#END
