
#######################################################################
#
#                 Cambridge Crystallographic Data Centre
#                                CCDC 
#
#######################################################################
#
# If this CIF has been generated from an entry in the Cambridge 
# Structural Database, then it will include bibliographic, chemical, 
# crystal, experimental, refinement or atomic coordinate data resulting 
# from the CCDC's data processing and validation procedures.
#
#######################################################################

data_MAPTEF
_chemical_formula_moiety         'C29 H24 O3'
_chemical_name_systematic        
4-((2-(biphenyl-4-yl)prop-2-en-1-yl)oxy)-5-methoxybiphenyl-2-carbaldehyde
_symmetry_cell_setting           monoclinic
_symmetry_space_group_name_H-M   'C c'
_symmetry_Int_Tables_number      9
_space_group_name_Hall           'C -2yc'
loop_
_symmetry_equiv_pos_site_id
_symmetry_equiv_pos_as_xyz
1 x,y,z
2 x,-y,1/2+z
3 1/2+x,1/2+y,z
4 1/2+x,1/2-y,1/2+z
_cell_length_a                   17.9825(12)
_cell_length_b                   7.8621(5)
_cell_length_c                   31.386(2)
_cell_angle_alpha                90
_cell_angle_beta                 99.609(2)
_cell_angle_gamma                90
_cell_volume                     4375.1
_exptl_crystal_colour            colorless
_cell_formula_units_Z            8
loop_
_atom_site_label
_atom_site_type_symbol
_atom_site_fract_x
_atom_site_fract_y
_atom_site_fract_z
O1 O 0.46398(13) 0.7921(3) 0.00476(7)
O2 O 0.32893(13) 0.8090(3) 0.02093(7)
O3 O 0.44123(14) 0.5560(3) -0.14795(8)
C1 C 0.0899(2) 0.4937(5) -0.18017(13)
H1 H 0.0461 0.4640 -0.2001
C2 C 0.1019(2) 0.4236(5) -0.13918(12)
H2 H 0.0666 0.3452 -0.1311
C3 C 0.16593(19) 0.4681(4) -0.10974(12)
H3 H 0.1735 0.4215 -0.0814
C4 C 0.21894(19) 0.5807(4) -0.12161(11)
C5 C 0.28614(18) 0.6293(4) -0.08953(11)
C6 C 0.27519(19) 0.6902(4) -0.04896(11)
H4 H 0.2256 0.6943 -0.0423
C7 C 0.33501(19) 0.7443(4) -0.01858(10)
C8 C 0.40933(19) 0.7377(4) -0.02763(11)
C9 C 0.54023(19) 0.7979(5) -0.00458(12)
H5 H 0.5446 0.8873 -0.0263
H6 H 0.5538 0.6872 -0.0162
C10 C 0.59165(19) 0.8369(4) 0.03719(11)
C11 C 0.61672(18) 0.6931(4) 0.06629(11)
C12 C 0.57550(19) 0.5416(4) 0.06415(11)
H7 H 0.5305 0.5313 0.0436
C13 C 0.59898(19) 0.4058(4) 0.09148(11)
H8 H 0.5693 0.3052 0.0896
C14 C 0.66525(19) 0.4146(4) 0.12156(11)
C15 C 0.69159(19) 0.2672(4) 0.14972(11)
C16 C 0.7685(2) 0.2365(4) 0.16313(12)
H9 H 0.8047 0.3099 0.1539
C17 C 0.7926(2) 0.1001(4) 0.18980(13)
H10 H 0.8450 0.0805 0.1985
C18 C 0.7412(2) -0.0078(5) 0.20398(13)
H11 H 0.7580 -0.1002 0.2226
C19 C 0.2055(2) 0.6503(4) -0.16313(11)
H12 H 0.2406 0.7283 -0.1716
C20 C 0.1415(2) 0.6069(5) -0.19212(12)
H13 H 0.1331 0.6550 -0.2203
C21 C 0.2549(2) 0.8255(5) 0.03113(12)
H14 H 0.2249 0.9012 0.0101
H15 H 0.2581 0.8733 0.0602
H16 H 0.2309 0.7133 0.0301
C22 C 0.6649(2) 0.0205(5) 0.19066(13)
H17 H 0.6291 -0.0532 0.2001
C23 C 0.6405(2) 0.1553(4) 0.16370(12)
H18 H 0.5879 0.1720 0.1545
C24 C 0.70592(19) 0.5665(4) 0.12427(11)
H19 H 0.7508 0.5767 0.1449
C25 C 0.68189(19) 0.7028(4) 0.09738(11)
H20 H 0.7104 0.8050 0.1002
C26 C 0.6116(2) 0.9969(5) 0.04628(12)
H21 H 0.6437 1.0236 0.0727
H22 H 0.5939 1.0849 0.0264
C27 C 0.42061(19) 0.6782(4) -0.06726(11)
H23 H 0.4703 0.6736 -0.0737
C28 C 0.35971(19) 0.6238(4) -0.09834(10)
C29 C 0.3789(2) 0.5486(4) -0.13797(11)
H24 H 0.3403 0.4909 -0.1569
O4 O 0.40040(13) 0.2885(3) 0.01784(8)
O5 O 0.50247(13) 0.2791(3) -0.03007(7)
O6 O 0.15895(14) 0.0800(3) -0.07613(8)
C30 C 0.2970(2) -0.0266(5) -0.24230(12)
H25 H 0.2863 -0.0627 -0.2716
C31 C 0.3548(2) -0.1023(5) -0.21410(12)
H26 H 0.3841 -0.1896 -0.2241
C32 C 0.3700(2) -0.0509(4) -0.17122(11)
H27 H 0.4107 -0.1007 -0.1521
C33 C 0.32584(19) 0.0734(4) -0.15606(11)
C34 C 0.34179(19) 0.1249(4) -0.10971(11)
C35 C 0.28601(19) 0.1304(4) -0.08351(11)
C36 C 0.30437(19) 0.1866(4) -0.04051(11)
H28 H 0.2661 0.1923 -0.0230
C37 C 0.3768(2) 0.2334(4) -0.02347(11)
C38 C 0.34329(19) 0.3022(5) 0.04472(11)
H29 H 0.3153 0.1937 0.0445
H30 H 0.3071 0.3932 0.0338
C39 C 0.38153(19) 0.3430(4) 0.08979(11)
C40 C 0.41278(18) 0.1979(4) 0.11774(11)
C41 C 0.42176(19) 0.2092(4) 0.16256(11)
H31 H 0.4088 0.3120 0.1755
C42 C 0.44907(19) 0.0740(4) 0.18868(11)
H32 H 0.4550 0.0859 0.2192
C43 C 0.46811(18) -0.0796(4) 0.17106(11)
C44 C 0.49412(18) -0.2270(4) 0.19946(11)
C45 C 0.4682(2) -0.2504(5) 0.23856(11)
H33 H 0.4340 -0.1704 0.2472
C46 C 0.4914(2) -0.3876(5) 0.26490(12)
H34 H 0.4731 -0.4012 0.2914
C47 C 0.5412(2) -0.5052(5) 0.25297(13)
H35 H 0.5573 -0.5994 0.2711
C48 C 0.2681(2) 0.1494(5) -0.18503(12)
H36 H 0.2378 0.2349 -0.1752
C49 C 0.2548(2) 0.1012(5) -0.22801(12)
H37 H 0.2164 0.1563 -0.2477
C50 C 0.3864(2) 0.5030(5) 0.10259(12)
H38 H 0.4109 0.5306 0.1310
H39 H 0.3655 0.5907 0.0834
C51 C 0.46135(19) -0.0890(4) 0.12613(11)
H40 H 0.4760 -0.1903 0.1132
C52 C 0.43393(18) 0.0457(4) 0.10023(11)
H41 H 0.4293 0.0349 0.0698
C53 C 0.5674(2) -0.4843(5) 0.21443(12)
H42 H 0.6017 -0.5647 0.2061
C54 C 0.5441(2) -0.3468(4) 0.18777(12)
H43 H 0.5624 -0.3343 0.1613
C55 C 0.43291(18) 0.2267(4) -0.04974(11)
C56 C 0.5590(2) 0.2953(5) -0.05702(12)
H44 H 0.5703 0.1830 -0.0679
H45 H 0.6050 0.3437 -0.0402
H46 H 0.5406 0.3703 -0.0814
C57 C 0.4156(2) 0.1726(4) -0.09201(11)
H47 H 0.4541 0.1676 -0.1093
C58 C 0.2091(2) 0.0669(4) -0.09765(12)
H48 H 0.1979 0.0126 -0.1250
loop_
_geom_bond_atom_site_label_1
_geom_bond_atom_site_label_2
_geom_bond_site_symmetry_1
_geom_bond_site_symmetry_2
O1 C8 1_555 1_555
O2 C7 1_555 1_555
O3 C29 1_555 1_555
C1 H1 1_555 1_555
C2 C1 1_555 1_555
H2 C2 1_555 1_555
C3 C2 1_555 1_555
H3 C3 1_555 1_555
C4 C3 1_555 1_555
C5 C4 1_555 1_555
C6 C5 1_555 1_555
H4 C6 1_555 1_555
C7 C6 1_555 1_555
C8 C7 1_555 1_555
C9 O1 1_555 1_555
H5 C9 1_555 1_555
H6 C9 1_555 1_555
C10 C9 1_555 1_555
C11 C10 1_555 1_555
C12 C11 1_555 1_555
H7 C12 1_555 1_555
C13 C12 1_555 1_555
H8 C13 1_555 1_555
C14 C13 1_555 1_555
C15 C14 1_555 1_555
C16 C15 1_555 1_555
H9 C16 1_555 1_555
C17 C16 1_555 1_555
H10 C17 1_555 1_555
C18 C17 1_555 1_555
H11 C18 1_555 1_555
C19 C4 1_555 1_555
H12 C19 1_555 1_555
C20 C1 1_555 1_555
H13 C20 1_555 1_555
C21 O2 1_555 1_555
H14 C21 1_555 1_555
H15 C21 1_555 1_555
H16 C21 1_555 1_555
C22 C18 1_555 1_555
H17 C22 1_555 1_555
C23 C15 1_555 1_555
H18 C23 1_555 1_555
C24 C14 1_555 1_555
H19 C24 1_555 1_555
C25 C11 1_555 1_555
H20 C25 1_555 1_555
C26 C10 1_555 1_555
H21 C26 1_555 1_555
H22 C26 1_555 1_555
C27 C8 1_555 1_555
H23 C27 1_555 1_555
C28 C5 1_555 1_555
C29 C28 1_555 1_555
H24 C29 1_555 1_555
O4 C37 1_555 1_555
O5 C55 1_555 1_555
O6 C58 1_555 1_555
C30 H25 1_555 1_555
C31 C30 1_555 1_555
H26 C31 1_555 1_555
C32 C31 1_555 1_555
H27 C32 1_555 1_555
C33 C32 1_555 1_555
C34 C33 1_555 1_555
C35 C34 1_555 1_555
C36 C35 1_555 1_555
H28 C36 1_555 1_555
C37 C36 1_555 1_555
C38 O4 1_555 1_555
H29 C38 1_555 1_555
H30 C38 1_555 1_555
C39 C38 1_555 1_555
C40 C39 1_555 1_555
C41 C40 1_555 1_555
H31 C41 1_555 1_555
C42 C41 1_555 1_555
H32 C42 1_555 1_555
C43 C42 1_555 1_555
C44 C43 1_555 1_555
C45 C44 1_555 1_555
H33 C45 1_555 1_555
C46 C45 1_555 1_555
H34 C46 1_555 1_555
C47 C46 1_555 1_555
H35 C47 1_555 1_555
C48 C33 1_555 1_555
H36 C48 1_555 1_555
C49 C30 1_555 1_555
H37 C49 1_555 1_555
C50 C39 1_555 1_555
H38 C50 1_555 1_555
H39 C50 1_555 1_555
C51 C43 1_555 1_555
H40 C51 1_555 1_555
C52 C40 1_555 1_555
H41 C52 1_555 1_555
C53 C47 1_555 1_555
H42 C53 1_555 1_555
C54 C44 1_555 1_555
H43 C54 1_555 1_555
C55 C37 1_555 1_555
C56 O5 1_555 1_555
H44 C56 1_555 1_555
H45 C56 1_555 1_555
H46 C56 1_555 1_555
C57 C34 1_555 1_555
H47 C57 1_555 1_555
C58 C35 1_555 1_555
H48 C58 1_555 1_555
C19 C20 1_555 1_555
C22 C23 1_555 1_555
C24 C25 1_555 1_555
C27 C28 1_555 1_555
C48 C49 1_555 1_555
C51 C52 1_555 1_555
C53 C54 1_555 1_555
C55 C57 1_555 1_555

#END
