
#######################################################################
#
#                 Cambridge Crystallographic Data Centre
#                                CCDC 
#
#######################################################################
#
# If this CIF has been generated from an entry in the Cambridge 
# Structural Database, then it will include bibliographic, chemical, 
# crystal, experimental, refinement or atomic coordinate data resulting 
# from the CCDC's data processing and validation procedures.
#
#######################################################################

data_MAPTAZ
_chemical_formula_moiety         'C21 H24 N4'
_chemical_name_systematic        tetrakis((Pyrrol-1-yl)methyl)methane
_symmetry_cell_setting           monoclinic
_symmetry_space_group_name_H-M   'P 21/n'
_symmetry_Int_Tables_number      14
_space_group_name_Hall           '-P 2yn'
loop_
_symmetry_equiv_pos_site_id
_symmetry_equiv_pos_as_xyz
1 x,y,z
2 1/2-x,1/2+y,1/2-z
3 -x,-y,-z
4 1/2+x,1/2-y,1/2+z
_cell_length_a                   9.284(3)
_cell_length_b                   10.950(6)
_cell_length_c                   18.749(8)
_cell_angle_alpha                90
_cell_angle_beta                 103.63(3)
_cell_angle_gamma                90
_cell_volume                     1852.34
_exptl_crystal_colour            colorless
_exptl_crystal_description       parallelepiped
_chemical_melting_point          168-170deg.C
_cell_formula_units_Z            4
_exptl_crystal_recrystallization_method ethanol/dmf(1:1)
loop_
_atom_site_label
_atom_site_type_symbol
_atom_site_fract_x
_atom_site_fract_y
_atom_site_fract_z
N1 N -0.0086(4) 0.5348(3) 0.1601(2)
N2 N 0.0631(4) 0.7589(4) 0.3293(2)
N3 N 0.3366(4) 0.7861(3) 0.1778(2)
N4 N -0.0680(4) 0.9163(3) 0.1145(2)
C1 C 0.0755(5) 0.7516(4) 0.1958(2)
C2 C 0.1139(5) 0.6137(4) 0.1924(3)
H1 H 0.1894 0.6053 0.1647
H2 H 0.1565 0.5856 0.2420
C3 C -0.0126(5) 0.7781(4) 0.2539(2)
H3 H -0.0451 0.8625 0.2485
H4 H -0.1007 0.7274 0.2433
C4 C 0.2234(5) 0.8221(4) 0.2160(3)
H5 H 0.2023 0.9082 0.2067
H6 H 0.2645 0.8130 0.2683
C5 C -0.0197(5) 0.7894(4) 0.1212(2)
H7 H 0.0359 0.7736 0.0844
H8 H -0.1070 0.7377 0.1100
C6 C -0.0424(7) 0.5012(5) 0.0892(3)
H9 H 0.0121 0.5213 0.0551
C7 C -0.1679(7) 0.4338(5) 0.0749(4)
H10 H -0.2153 0.4001 0.0300
C8 C -0.2116(6) 0.4248(5) 0.1398(4)
H11 H -0.2945 0.3832 0.1468
C9 C -0.1148(7) 0.4860(5) 0.1909(3)
H12 H -0.1188 0.4941 0.2397
C10 C 0.0844(6) 0.6517(5) 0.3670(3)
H13 H 0.0526 0.5754 0.3479
C11 C 0.1587(7) 0.6738(6) 0.4364(3)
H14 H 0.1872 0.6159 0.4734
C12 C 0.1856(7) 0.7986(7) 0.4431(3)
H15 H 0.2357 0.8393 0.4852
C13 C 0.1256(6) 0.8500(6) 0.3773(3)
H16 H 0.1264 0.9328 0.3663
C14 C 0.4513(6) 0.7120(5) 0.2070(4)
H17 H 0.4749 0.6826 0.2549
C15 C 0.5268(7) 0.6873(6) 0.1544(5)
H18 H 0.6124 0.6407 0.1601
C16 C 0.4504(7) 0.7458(6) 0.0905(4)
H19 H 0.4744 0.7439 0.0451
C17 C 0.3362(6) 0.8051(5) 0.1067(3)
H20 H 0.2672 0.8522 0.0741
C18 C -0.2015(6) 0.9597(5) 0.1228(3)
H21 H -0.2762 0.9133 0.1349
C19 C -0.2062(7) 1.0816(6) 0.1104(3)
H22 H -0.2840 1.1336 0.1130
C20 C -0.0742(7) 1.1155(5) 0.0930(3)
H23 H -0.0490 1.1937 0.0808
C21 C 0.0117(6) 1.0135(5) 0.0969(3)
H24 H 0.1069 1.0101 0.0892
loop_
_geom_bond_atom_site_label_1
_geom_bond_atom_site_label_2
_geom_bond_site_symmetry_1
_geom_bond_site_symmetry_2
N1 C2 1_555 1_555
N2 C3 1_555 1_555
N3 C4 1_555 1_555
N4 C5 1_555 1_555
C1 C2 1_555 1_555
C2 H1 1_555 1_555
H2 C2 1_555 1_555
C3 C1 1_555 1_555
H3 C3 1_555 1_555
H4 C3 1_555 1_555
C4 C1 1_555 1_555
H5 C4 1_555 1_555
H6 C4 1_555 1_555
C5 C1 1_555 1_555
H7 C5 1_555 1_555
H8 C5 1_555 1_555
C6 N1 1_555 1_555
H9 C6 1_555 1_555
C7 C6 1_555 1_555
H10 C7 1_555 1_555
C8 C7 1_555 1_555
H11 C8 1_555 1_555
C9 N1 1_555 1_555
H12 C9 1_555 1_555
C10 N2 1_555 1_555
H13 C10 1_555 1_555
C11 C10 1_555 1_555
H14 C11 1_555 1_555
C12 C11 1_555 1_555
H15 C12 1_555 1_555
C13 N2 1_555 1_555
H16 C13 1_555 1_555
C14 N3 1_555 1_555
H17 C14 1_555 1_555
C15 C14 1_555 1_555
H18 C15 1_555 1_555
C16 C15 1_555 1_555
H19 C16 1_555 1_555
C17 N3 1_555 1_555
H20 C17 1_555 1_555
C18 N4 1_555 1_555
H21 C18 1_555 1_555
C19 C18 1_555 1_555
H22 C19 1_555 1_555
C20 C19 1_555 1_555
H23 C20 1_555 1_555
C21 N4 1_555 1_555
H24 C21 1_555 1_555
C8 C9 1_555 1_555
C12 C13 1_555 1_555
C16 C17 1_555 1_555
C20 C21 1_555 1_555

#END
