
#######################################################################
#
#                 Cambridge Crystallographic Data Centre
#                                CCDC 
#
#######################################################################
#
# If this CIF has been generated from an entry in the Cambridge 
# Structural Database, then it will include bibliographic, chemical, 
# crystal, experimental, refinement or atomic coordinate data resulting 
# from the CCDC's data processing and validation procedures.
#
#######################################################################

data_MAPVAD
_chemical_formula_moiety         'C31 H26 O2'
_chemical_name_systematic        
4-(7,8-dimethoxy-5-(4-methylphenyl)-2-naphthyl)biphenyl
_symmetry_cell_setting           monoclinic
_symmetry_space_group_name_H-M   'C 2/c'
_symmetry_Int_Tables_number      15
_space_group_name_Hall           '-C 2yn'
loop_
_symmetry_equiv_pos_site_id
_symmetry_equiv_pos_as_xyz
1 x,y,z
2 -x,y,1/2-z
3 1/2+x,1/2+y,z
4 1/2-x,1/2+y,1/2-z
5 -x,-y,-z
6 x,-y,1/2+z
7 1/2-x,1/2-y,-z
8 1/2+x,1/2-y,1/2+z
_cell_length_a                   16.4015(13)
_cell_length_b                   10.9309(10)
_cell_length_c                   25.431(2)
_cell_angle_alpha                90
_cell_angle_beta                 101.801(3)
_cell_angle_gamma                90
_cell_volume                     4462.98
_exptl_crystal_colour            colorless
_exptl_crystal_description       Tabular
_cell_formula_units_Z            8
loop_
_atom_site_label
_atom_site_type_symbol
_atom_site_fract_x
_atom_site_fract_y
_atom_site_fract_z
O1 O 0.40599(5) 0.21301(8) 0.62242(3)
O2 O 0.54704(5) 0.33259(8) 0.66679(4)
C1 C -0.27180(8) 0.01752(12) 0.43601(5)
H1 H -0.3196 -0.0221 0.4157
C2 C -0.23938(8) 0.11966(13) 0.41577(6)
H2 H -0.2652 0.1506 0.3815
C3 C -0.16942(8) 0.17727(13) 0.44517(6)
H3 H -0.1479 0.2478 0.4309
C4 C -0.12995(7) 0.13303(11) 0.49569(5)
C5 C -0.05401(7) 0.19417(12) 0.52620(5)
C6 C -0.04677(8) 0.32140(12) 0.52573(5)
H4 H -0.0920 0.3692 0.5072
C7 C 0.02554(8) 0.37912(12) 0.55192(5)
H5 H 0.0291 0.4658 0.5506
C8 C 0.09357(7) 0.31235(11) 0.58032(5)
C9 C 0.17084(7) 0.37684(11) 0.60692(5)
C10 C 0.24806(7) 0.32207(11) 0.61385(5)
H6 H 0.2519 0.2398 0.6025
C11 C 0.32218(7) 0.38573(11) 0.63757(5)
C12 C 0.31707(7) 0.50877(11) 0.65564(5)
C13 C 0.39219(7) 0.57346(11) 0.67776(5)
C14 C 0.39035(7) 0.70348(11) 0.69525(5)
C15 C 0.43431(7) 0.79211(12) 0.67277(5)
H7 H 0.4671 0.7684 0.6477
C16 C 0.43045(8) 0.91487(12) 0.68667(5)
H8 H 0.4604 0.9739 0.6708
C17 C 0.38332(8) 0.95265(12) 0.72355(5)
C18 C 0.37818(9) 1.08611(12) 0.73780(6)
H9 H 0.4173 1.1333 0.7214
H10 H 0.3925 1.0957 0.7769
H11 H 0.3214 1.1160 0.7243
C19 C -0.16329(8) 0.03015(12) 0.51569(5)
H12 H -0.1375 -0.0015 0.5498
C20 C -0.23386(8) -0.02684(12) 0.48634(5)
H13 H -0.2563 -0.0964 0.5007
C21 C 0.01340(8) 0.12708(12) 0.55497(5)
H14 H 0.0096 0.0405 0.5564
C22 C 0.08562(7) 0.18487(11) 0.58149(5)
H15 H 0.1303 0.1371 0.6007
C23 C 0.16663(8) 0.49999(11) 0.62440(5)
H16 H 0.1140 0.5392 0.6199
C24 C 0.23674(7) 0.56290(11) 0.64755(5)
H17 H 0.2316 0.6451 0.6585
C25 C 0.40171(8) 0.33092(11) 0.64140(5)
C26 C 0.43530(9) 0.20898(13) 0.57293(5)
H18 H 0.3984 0.2579 0.5457
H19 H 0.4356 0.1241 0.5606
H20 H 0.4919 0.2423 0.5787
C27 C 0.47348(7) 0.39403(12) 0.66389(5)
C28 C 0.62138(8) 0.38893(13) 0.69594(6)
H21 H 0.6318 0.4648 0.6778
H22 H 0.6685 0.3330 0.6974
H23 H 0.6147 0.4076 0.7325
C29 C 0.46801(8) 0.51580(12) 0.68134(5)
H24 H 0.5177 0.5591 0.6959
C30 C 0.34519(7) 0.74079(12) 0.73337(5)
H25 H 0.3166 0.6816 0.7501
C31 C 0.34160(7) 0.86362(12) 0.74709(5)
H26 H 0.3102 0.8872 0.7729
loop_
_geom_bond_atom_site_label_1
_geom_bond_atom_site_label_2
_geom_bond_site_symmetry_1
_geom_bond_site_symmetry_2
O1 C25 1_555 1_555
O2 C27 1_555 1_555
C1 H1 1_555 1_555
C2 C1 1_555 1_555
H2 C2 1_555 1_555
C3 C2 1_555 1_555
H3 C3 1_555 1_555
C4 C3 1_555 1_555
C5 C4 1_555 1_555
C6 C5 1_555 1_555
H4 C6 1_555 1_555
C7 C6 1_555 1_555
H5 C7 1_555 1_555
C8 C7 1_555 1_555
C9 C8 1_555 1_555
C10 C9 1_555 1_555
H6 C10 1_555 1_555
C11 C10 1_555 1_555
C12 C11 1_555 1_555
C13 C12 1_555 1_555
C14 C13 1_555 1_555
C15 C14 1_555 1_555
H7 C15 1_555 1_555
C16 C15 1_555 1_555
H8 C16 1_555 1_555
C17 C16 1_555 1_555
C18 C17 1_555 1_555
H9 C18 1_555 1_555
H10 C18 1_555 1_555
H11 C18 1_555 1_555
C19 C4 1_555 1_555
H12 C19 1_555 1_555
C20 C1 1_555 1_555
H13 C20 1_555 1_555
C21 C5 1_555 1_555
H14 C21 1_555 1_555
C22 C8 1_555 1_555
H15 C22 1_555 1_555
C23 C9 1_555 1_555
H16 C23 1_555 1_555
C24 C12 1_555 1_555
H17 C24 1_555 1_555
C25 C11 1_555 1_555
C26 O1 1_555 1_555
H18 C26 1_555 1_555
H19 C26 1_555 1_555
H20 C26 1_555 1_555
C27 C25 1_555 1_555
C28 O2 1_555 1_555
H21 C28 1_555 1_555
H22 C28 1_555 1_555
H23 C28 1_555 1_555
C29 C13 1_555 1_555
H24 C29 1_555 1_555
C30 C14 1_555 1_555
H25 C30 1_555 1_555
C31 C17 1_555 1_555
H26 C31 1_555 1_555
C19 C20 1_555 1_555
C21 C22 1_555 1_555
C23 C24 1_555 1_555
C27 C29 1_555 1_555
C30 C31 1_555 1_555

#END
