
#######################################################################
#
#                 Cambridge Crystallographic Data Centre
#                                CCDC 
#
#######################################################################
#
# If this CIF has been generated from an entry in the Cambridge 
# Structural Database, then it will include bibliographic, chemical, 
# crystal, experimental, refinement or atomic coordinate data resulting 
# from the CCDC's data processing and validation procedures.
#
#######################################################################

data_MAPVAC
_chemical_formula_moiety         'C65 H48 O5,0.07(C1 H2 Cl2)'
_chemical_name_systematic        
'2-t-Butyl-4,5,7,9,10-pentakis((4-methoxyphenyl)ethynyl)pyrene dichloromethane solvate'
_symmetry_cell_setting           triclinic
_symmetry_space_group_name_H-M   'P -1'
_symmetry_Int_Tables_number      2
_space_group_name_Hall           '-P 1'
loop_
_symmetry_equiv_pos_site_id
_symmetry_equiv_pos_as_xyz
1 x,y,z
2 -x,-y,-z
_cell_length_a                   10.0392(8)
_cell_length_b                   15.7261(12)
_cell_length_c                   16.0211(11)
_cell_angle_alpha                81.667(5)
_cell_angle_beta                 82.511(5)
_cell_angle_gamma                79.608(6)
_cell_volume                     2447.47
_exptl_crystal_colour            yellow
_exptl_crystal_description       needle
_cell_formula_units_Z            2
loop_
_atom_site_label
_atom_site_type_symbol
_atom_site_fract_x
_atom_site_fract_y
_atom_site_fract_z
C1 C 0.6791(4) 0.7059(3) 0.3562(2)
C2 C 0.7967(4) 0.6504(3) 0.3335(2)
H1 H 0.8533 0.6673 0.2838
C3 C 0.8359(4) 0.5695(3) 0.3819(2)
C4 C 0.9578(4) 0.5114(3) 0.3573(2)
C5 C 0.9944(4) 0.4325(2) 0.4060(2)
C6 C 0.9109(4) 0.4075(3) 0.4839(2)
C7 C 0.9474(4) 0.3281(3) 0.5348(2)
H2 H 1.0276 0.2895 0.5182
C8 C 0.8662(4) 0.3060(3) 0.6095(2)
C9 C 0.7486(4) 0.3620(3) 0.6331(2)
H3 H 0.6937 0.3462 0.6840
C10 C 0.7087(4) 0.4412(3) 0.5838(2)
C11 C 0.5864(4) 0.4997(3) 0.6080(2)
C12 C 0.5481(4) 0.5772(3) 0.5584(2)
C13 C 0.6324(4) 0.6017(3) 0.4807(2)
C14 C 0.5976(4) 0.6804(3) 0.4294(2)
H4 H 0.5155 0.7178 0.4450
C15 C 0.7533(4) 0.5452(3) 0.4569(2)
C16 C 0.7910(4) 0.4644(3) 0.5077(2)
C17 C 0.6365(4) 0.7948(3) 0.3049(3)
C18 C 0.4898(4) 0.8017(3) 0.2812(3)
H5 H 0.4860 0.7541 0.2487
H6 H 0.4641 0.8577 0.2468
H7 H 0.4265 0.7976 0.3331
C19 C 0.6448(5) 0.8667(3) 0.3583(3)
H8 H 0.5805 0.8622 0.4097
H9 H 0.6218 0.9238 0.3252
H10 H 0.7375 0.8601 0.3742
C20 C 0.7294(4) 0.8069(3) 0.2217(3)
H11 H 0.8236 0.8026 0.2342
H12 H 0.7000 0.8644 0.1908
H13 H 0.7241 0.7616 0.1868
C21 C 1.0419(4) 0.5350(3) 0.2811(2)
C22 C 1.1080(4) 0.5592(3) 0.2167(2)
C23 C 1.1786(4) 0.5917(3) 0.1386(2)
C24 C 1.1692(4) 0.6821(3) 0.1154(2)
H14 H 1.1228 0.7208 0.1541
C25 C 1.2269(4) 0.7155(3) 0.0367(2)
H15 H 1.2198 0.7768 0.0217
C26 C 1.2942(4) 0.6598(3) -0.0197(2)
C27 C 1.3087(4) 0.5702(3) 0.0022(2)
H16 H 1.3572 0.5318 -0.0361
C28 C 1.2509(4) 0.5375(3) 0.0816(2)
H17 H 1.2615 0.4762 0.0971
O1 O 1.3438(3) 0.69973(19) -0.09675(16)
C29 C 1.3942(5) 0.6452(3) -0.1622(3)
H18 H 1.4762 0.6053 -0.1462
H19 H 1.4164 0.6816 -0.2155
H20 H 1.3244 0.6116 -0.1697
C30 C 1.1133(4) 0.3737(3) 0.3797(2)
C31 C 1.2099(4) 0.3223(3) 0.3554(2)
C32 C 1.3142(4) 0.2613(3) 0.3172(3)
C33 C 1.3137(4) 0.2517(3) 0.2313(3)
H21 H 1.2478 0.2886 0.1992
C34 C 1.4067(4) 0.1900(3) 0.1930(3)
H22 H 1.4045 0.1845 0.1349
C35 C 1.5037(4) 0.1357(3) 0.2388(3)
C36 C 1.5091(5) 0.1463(3) 0.3231(3)
H23 H 1.5788 0.1115 0.3537
C37 C 1.4133(5) 0.2072(3) 0.3627(3)
H24 H 1.4153 0.2121 0.4209
O2 O 1.5993(3) 0.0721(2) 0.2071(2)
C38 C 1.6010(5) 0.0598(4) 0.1212(3)
H25 H 1.5174 0.0391 0.1137
H26 H 1.6801 0.0166 0.1055
H27 H 1.6065 0.1152 0.0851
C39 C 0.9021(4) 0.2267(3) 0.6642(2)
C40 C 0.9229(4) 0.1638(3) 0.7155(2)
C41 C 0.9409(4) 0.0887(3) 0.7785(2)
C42 C 1.0524(4) 0.0213(3) 0.7707(2)
H28 H 1.1200 0.0256 0.7236
C43 C 1.0649(4) -0.0509(3) 0.8304(2)
H29 H 1.1400 -0.0967 0.8238
C44 C 0.9687(4) -0.0574(3) 0.9001(2)
C45 C 0.8582(4) 0.0089(3) 0.9101(2)
H30 H 0.7922 0.0046 0.9581
C46 C 0.8451(4) 0.0814(3) 0.8494(2)
H31 H 0.7696 0.1269 0.8562
O3 O 0.9901(3) -0.13261(18) 0.95547(16)
C47 C 0.8933(4) -0.1415(3) 1.0281(3)
H32 H 0.8889 -0.0931 1.0611
H33 H 0.9209 -0.1968 1.0632
H34 H 0.8036 -0.1407 1.0100
C48 C 0.5056(4) 0.4748(3) 0.6854(2)
C49 C 0.4416(4) 0.4500(3) 0.7498(2)
C50 C 0.3695(4) 0.4176(3) 0.8282(2)
C51 C 0.4419(4) 0.3641(3) 0.8908(2)
H35 H 0.5382 0.3496 0.8810
C52 C 0.3745(4) 0.3323(3) 0.9667(2)
H36 H 0.4247 0.2964 1.0087
C53 C 0.2340(4) 0.3527(3) 0.9815(2)
C54 C 0.1614(4) 0.4063(3) 0.9197(2)
H37 H 0.0651 0.4207 0.9293
C55 C 0.2292(4) 0.4385(3) 0.8447(2)
H38 H 0.1788 0.4757 0.8035
O4 O 0.1767(3) 0.3194(2) 1.05828(16)
C56 C 0.0348(4) 0.3448(3) 1.0786(3)
H39 H 0.0145 0.4078 1.0810
H40 H 0.0059 0.3141 1.1339
H41 H -0.0143 0.3302 1.0350
C57 C 0.4281(4) 0.6354(3) 0.5812(2)
C58 C 0.3288(4) 0.6892(3) 0.5961(2)
C59 C 0.2164(4) 0.7575(3) 0.6078(2)
C60 C 0.2151(6) 0.8339(4) 0.5513(3)
H42 H 0.2868 0.8380 0.5067
C61 C 0.1117(6) 0.9028(4) 0.5594(3)
H43 H 0.1140 0.9561 0.5231
C62 C 0.0046(5) 0.8938(3) 0.6208(3)
C63 C 0.0046(5) 0.8211(3) 0.6786(3)
H44 H -0.0681 0.8172 0.7225
C64 C 0.1138(4) 0.7524(3) 0.6719(3)
H45 H 0.1164 0.7019 0.7125
O5 O -0.0940(4) 0.9678(2) 0.6231(2)
C65 C -0.2115(5) 0.9605(4) 0.6802(3)
H46 H -0.2614 0.9191 0.6626
H47 H -0.2699 1.0176 0.6803
H48 H -0.1853 0.9396 0.7373
Cl1? Cl 0.4942(16) 0.0943(10) -0.0366(9)
loop_
_geom_bond_atom_site_label_1
_geom_bond_atom_site_label_2
_geom_bond_site_symmetry_1
_geom_bond_site_symmetry_2
C1 C2 1_555 1_555
C2 H1 1_555 1_555
C3 C2 1_555 1_555
C4 C3 1_555 1_555
C5 C4 1_555 1_555
C6 C5 1_555 1_555
C7 C6 1_555 1_555
H2 C7 1_555 1_555
C8 C7 1_555 1_555
C9 C8 1_555 1_555
H3 C9 1_555 1_555
C10 C9 1_555 1_555
C11 C10 1_555 1_555
C12 C11 1_555 1_555
C13 C12 1_555 1_555
C14 C1 1_555 1_555
H4 C14 1_555 1_555
C15 C3 1_555 1_555
C16 C6 1_555 1_555
C17 C1 1_555 1_555
C18 C17 1_555 1_555
H5 C18 1_555 1_555
H6 C18 1_555 1_555
H7 C18 1_555 1_555
C19 C17 1_555 1_555
H8 C19 1_555 1_555
H9 C19 1_555 1_555
H10 C19 1_555 1_555
C20 C17 1_555 1_555
H11 C20 1_555 1_555
H12 C20 1_555 1_555
H13 C20 1_555 1_555
C21 C4 1_555 1_555
C22 C21 1_555 1_555
C23 C22 1_555 1_555
C24 C23 1_555 1_555
H14 C24 1_555 1_555
C25 C24 1_555 1_555
H15 C25 1_555 1_555
C26 C25 1_555 1_555
C27 C26 1_555 1_555
H16 C27 1_555 1_555
C28 C23 1_555 1_555
H17 C28 1_555 1_555
O1 C26 1_555 1_555
C29 O1 1_555 1_555
H18 C29 1_555 1_555
H19 C29 1_555 1_555
H20 C29 1_555 1_555
C30 C5 1_555 1_555
C31 C30 1_555 1_555
C32 C31 1_555 1_555
C33 C32 1_555 1_555
H21 C33 1_555 1_555
C34 C33 1_555 1_555
H22 C34 1_555 1_555
C35 C34 1_555 1_555
C36 C35 1_555 1_555
H23 C36 1_555 1_555
C37 C32 1_555 1_555
H24 C37 1_555 1_555
O2 C35 1_555 1_555
C38 O2 1_555 1_555
H25 C38 1_555 1_555
H26 C38 1_555 1_555
H27 C38 1_555 1_555
C39 C8 1_555 1_555
C40 C39 1_555 1_555
C41 C40 1_555 1_555
C42 C41 1_555 1_555
H28 C42 1_555 1_555
C43 C42 1_555 1_555
H29 C43 1_555 1_555
C44 C43 1_555 1_555
C45 C44 1_555 1_555
H30 C45 1_555 1_555
C46 C41 1_555 1_555
H31 C46 1_555 1_555
O3 C44 1_555 1_555
C47 O3 1_555 1_555
H32 C47 1_555 1_555
H33 C47 1_555 1_555
H34 C47 1_555 1_555
C48 C11 1_555 1_555
C49 C48 1_555 1_555
C50 C49 1_555 1_555
C51 C50 1_555 1_555
H35 C51 1_555 1_555
C52 C51 1_555 1_555
H36 C52 1_555 1_555
C53 C52 1_555 1_555
C54 C53 1_555 1_555
H37 C54 1_555 1_555
C55 C50 1_555 1_555
H38 C55 1_555 1_555
O4 C53 1_555 1_555
C56 O4 1_555 1_555
H39 C56 1_555 1_555
H40 C56 1_555 1_555
H41 C56 1_555 1_555
C57 C12 1_555 1_555
C58 C57 1_555 1_555
C59 C58 1_555 1_555
C60 C59 1_555 1_555
H42 C60 1_555 1_555
C61 C60 1_555 1_555
H43 C61 1_555 1_555
C62 C61 1_555 1_555
C63 C62 1_555 1_555
H44 C63 1_555 1_555
C64 C59 1_555 1_555
H45 C64 1_555 1_555
O5 C62 1_555 1_555
C65 O5 1_555 1_555
H46 C65 1_555 1_555
H47 C65 1_555 1_555
H48 C65 1_555 1_555
C10 C16 1_555 1_555
C13 C14 1_555 1_555
C13 C15 1_555 1_555
C15 C16 1_555 1_555
C27 C28 1_555 1_555
C36 C37 1_555 1_555
C45 C46 1_555 1_555
C54 C55 1_555 1_555
C63 C64 1_555 1_555

#END
