
#######################################################################
#
#                 Cambridge Crystallographic Data Centre
#                                CCDC 
#
#######################################################################
#
# If this CIF has been generated from an entry in the Cambridge 
# Structural Database, then it will include bibliographic, chemical, 
# crystal, experimental, refinement or atomic coordinate data resulting 
# from the CCDC's data processing and validation procedures.
#
#######################################################################

data_MAPWIM
_chemical_formula_moiety         'C18 H22 O5'
_chemical_name_systematic        
2-(2-furyl)-4-(2,4,5-trimethoxyphenyl)tetrahydro-2H-pyran
_symmetry_cell_setting           triclinic
_symmetry_space_group_name_H-M   'P -1'
_symmetry_Int_Tables_number      2
_space_group_name_Hall           '-P 1'
loop_
_symmetry_equiv_pos_site_id
_symmetry_equiv_pos_as_xyz
1 x,y,z
2 -x,-y,-z
_cell_length_a                   6.9484(11)
_cell_length_b                   9.9740(15)
_cell_length_c                   11.9674(18)
_cell_angle_alpha                80.017(6)
_cell_angle_beta                 86.243(8)
_cell_angle_gamma                86.393(8)
_cell_volume                     813.946
_exptl_crystal_colour            colorless
_exptl_crystal_description       Block
_cell_formula_units_Z            2
loop_
_atom_site_label
_atom_site_type_symbol
_atom_site_fract_x
_atom_site_fract_y
_atom_site_fract_z
O1 O 0.66628(11) 0.16373(8) 1.06861(6)
O2 O 0.32814(12) 0.13301(8) 1.23298(7)
O3 O 0.09057(11) 0.07029(8) 0.60211(7)
O4 O -0.14925(11) 0.28066(8) 0.56596(7)
O5 O 0.18697(11) 0.50283(8) 0.82370(7)
C1 C 0.51593(16) 0.26730(11) 1.07919(9)
H1 H 0.5741 0.3583 1.0622
C2 C 0.35903(16) 0.26511(11) 0.99513(9)
H2 H 0.2605 0.3398 1.0020
H3 H 0.2946 0.1776 1.0139
C3 C 0.44697(15) 0.28214(11) 0.87219(9)
H4 H 0.5068 0.3726 0.8549
C4 C 0.60926(16) 0.17174(12) 0.86726(9)
H5 H 0.5545 0.0807 0.8825
H6 H 0.6747 0.1843 0.7904
C5 C 0.75495(16) 0.18060(12) 0.95560(9)
H7 H 0.8595 0.1091 0.9518
H8 H 0.8135 0.2703 0.9377
C6 C 0.43684(16) 0.24494(11) 1.19928(9)
C7 C 0.44343(16) 0.31457(11) 1.28639(9)
H9 H 0.5093 0.3955 1.2853
C8 C 0.33219(16) 0.24302(12) 1.38063(9)
H10 H 0.3092 0.2673 1.4539
C9 C 0.26657(16) 0.13415(12) 1.34435(9)
H11 H 0.1889 0.0678 1.3894
C10 C 0.29068(15) 0.28373(11) 0.78866(9)
C11 C 0.26760(16) 0.17294(11) 0.73370(9)
H12 H 0.3544 0.0952 0.7472
C12 C 0.12051(16) 0.17413(11) 0.65975(9)
C13 C -0.00845(15) 0.28851(11) 0.63971(9)
C14 C 0.01064(15) 0.39952(11) 0.69336(9)
H13 H -0.0769 0.4769 0.6800
C15 C 0.16014(15) 0.39655(11) 0.76745(9)
C16 C 0.22181(18) -0.04657(12) 0.62109(10)
H14 H 0.1864 -0.1143 0.5768
H15 H 0.2156 -0.0861 0.7020
H16 H 0.3534 -0.0194 0.5975
C17 C -0.29202(17) 0.39041(12) 0.54976(10)
H17 H -0.3855 0.3718 0.4973
H18 H -0.2297 0.4752 0.5180
H19 H -0.3589 0.3996 0.6229
C18 C 0.06114(18) 0.62164(12) 0.80007(11)
H20 H 0.0732 0.6590 0.7188
H21 H 0.0963 0.6899 0.8439
H22 H -0.0725 0.5976 0.8213
loop_
_geom_bond_atom_site_label_1
_geom_bond_atom_site_label_2
_geom_bond_site_symmetry_1
_geom_bond_site_symmetry_2
O1 C1 1_555 1_555
O2 C6 1_555 1_555
O3 C12 1_555 1_555
O4 C13 1_555 1_555
O5 C15 1_555 1_555
C1 H1 1_555 1_555
C2 C1 1_555 1_555
H2 C2 1_555 1_555
H3 C2 1_555 1_555
C3 C2 1_555 1_555
H4 C3 1_555 1_555
C4 C3 1_555 1_555
H5 C4 1_555 1_555
H6 C4 1_555 1_555
C5 O1 1_555 1_555
H7 C5 1_555 1_555
H8 C5 1_555 1_555
C6 C1 1_555 1_555
C7 C6 1_555 1_555
H9 C7 1_555 1_555
C8 C7 1_555 1_555
H10 C8 1_555 1_555
C9 O2 1_555 1_555
H11 C9 1_555 1_555
C10 C3 1_555 1_555
C11 C10 1_555 1_555
H12 C11 1_555 1_555
C12 C11 1_555 1_555
C13 C12 1_555 1_555
C14 C13 1_555 1_555
H13 C14 1_555 1_555
C15 C10 1_555 1_555
C16 O3 1_555 1_555
H14 C16 1_555 1_555
H15 C16 1_555 1_555
H16 C16 1_555 1_555
C17 O4 1_555 1_555
H17 C17 1_555 1_555
H18 C17 1_555 1_555
H19 C17 1_555 1_555
C18 O5 1_555 1_555
H20 C18 1_555 1_555
H21 C18 1_555 1_555
H22 C18 1_555 1_555
C4 C5 1_555 1_555
C8 C9 1_555 1_555
C14 C15 1_555 1_555

#END
