
#######################################################################
#
#                 Cambridge Crystallographic Data Centre
#                                CCDC 
#
#######################################################################
#
# If this CIF has been generated from an entry in the Cambridge 
# Structural Database, then it will include bibliographic, chemical, 
# crystal, experimental, refinement or atomic coordinate data resulting 
# from the CCDC's data processing and validation procedures.
#
#######################################################################

data_MAPWEI
_chemical_formula_moiety         'C19 H24 O6'
_chemical_name_systematic        
(6-(2-furyl)-4-(2,4,5-trimethoxyphenyl)tetrahydro-2H-pyran-3-yl)methanol
_symmetry_cell_setting           monoclinic
_symmetry_space_group_name_H-M   'P 21/c'
_symmetry_Int_Tables_number      14
_space_group_name_Hall           '-P 2ybc'
loop_
_symmetry_equiv_pos_site_id
_symmetry_equiv_pos_as_xyz
1 x,y,z
2 -x,1/2+y,1/2-z
3 -x,-y,-z
4 x,1/2-y,1/2+z
_cell_length_a                   17.481(6)
_cell_length_b                   7.270(2)
_cell_length_c                   14.959(4)
_cell_angle_alpha                90
_cell_angle_beta                 114.170(5)
_cell_angle_gamma                90
_cell_volume                     1734.43
_exptl_crystal_colour            colorless
_exptl_crystal_description       Plate
_cell_formula_units_Z            4
loop_
_atom_site_label
_atom_site_type_symbol
_atom_site_fract_x
_atom_site_fract_y
_atom_site_fract_z
O1 O 0.15451(5) 0.63815(13) -0.09600(6)
O2 O 0.00739(6) 0.41314(13) -0.16534(6)
O3 O 0.43811(6) 0.59523(13) 0.40036(7)
O4 O 0.42226(6) 0.87331(13) 0.49869(6)
O5 O 0.19275(6) 1.11338(13) 0.20742(7)
O6 O 0.32768(6) 1.08133(14) -0.02339(7)
H1 H 0.3654(10) 1.001(2) -0.0127(13)
C1 C 0.10593(8) 0.60908(18) -0.03966(9)
H2 H 0.0617 0.7064 -0.0572
C2 C 0.16192(8) 0.62315(18) 0.06975(9)
H3 H 0.2053 0.5259 0.0885
H4 H 0.1278 0.6045 0.1080
C3 C 0.20422(8) 0.81329(18) 0.09351(9)
H5 H 0.1587 0.9073 0.0768
C4 C 0.25079(8) 0.84897(18) 0.02668(9)
H6 H 0.2976 0.7582 0.0440
C5 C 0.19067(8) 0.81849(18) -0.08036(9)
H7 H 0.1453 0.9114 -0.0995
H8 H 0.2214 0.8357 -0.1226
C6 C 0.06432(7) 0.42690(18) -0.06881(9)
C7 C 0.06924(8) 0.26504(19) -0.02246(10)
H9 H 0.1034 0.2382 0.0443
C8 C 0.01255(8) 0.14126(19) -0.09398(10)
H10 H 0.0019 0.0166 -0.0837
C9 C -0.02255(8) 0.23653(19) -0.17833(10)
H11 H -0.0624 0.1881 -0.2383
C10 C 0.26112(8) 0.83624(18) 0.20159(9)
C11 C 0.32429(8) 0.70590(18) 0.24912(10)
H12 H 0.3307 0.6043 0.2128
C12 C 0.37743(8) 0.72146(18) 0.34736(10)
C13 C 0.36926(8) 0.87342(18) 0.40069(9)
C14 C 0.30891(8) 1.00695(18) 0.35508(9)
H13 H 0.3045 1.1116 0.3907
C15 C 0.25454(8) 0.98608(18) 0.25610(9)
C16 C 0.44524(9) 0.4351(2) 0.34908(11)
H14 H 0.4630 0.4710 0.2973
H15 H 0.3908 0.3730 0.3198
H16 H 0.4868 0.3514 0.3949
C17 C 0.41996(8) 1.0307(2) 0.55485(10)
H17 H 0.4323 1.1415 0.5258
H18 H 0.4619 1.0168 0.6223
H19 H 0.3641 1.0416 0.5549
C18 C 0.17306(9) 1.2458(2) 0.26594(10)
H20 H 0.1230 1.3151 0.2244
H21 H 0.2203 1.3306 0.2959
H22 H 0.1624 1.1822 0.3175
C19 C 0.28792(8) 1.04176(19) 0.04072(10)
H23 H 0.2427 1.1326 0.0294
H24 H 0.3294 1.0554 0.1093
loop_
_geom_bond_atom_site_label_1
_geom_bond_atom_site_label_2
_geom_bond_site_symmetry_1
_geom_bond_site_symmetry_2
O1 C1 1_555 1_555
O2 C6 1_555 1_555
O3 C12 1_555 1_555
O4 C13 1_555 1_555
O5 C15 1_555 1_555
O6 H1 1_555 1_555
C1 H2 1_555 1_555
C2 C1 1_555 1_555
H3 C2 1_555 1_555
H4 C2 1_555 1_555
C3 C2 1_555 1_555
H5 C3 1_555 1_555
C4 C3 1_555 1_555
H6 C4 1_555 1_555
C5 O1 1_555 1_555
H7 C5 1_555 1_555
H8 C5 1_555 1_555
C6 C1 1_555 1_555
C7 C6 1_555 1_555
H9 C7 1_555 1_555
C8 C7 1_555 1_555
H10 C8 1_555 1_555
C9 O2 1_555 1_555
H11 C9 1_555 1_555
C10 C3 1_555 1_555
C11 C10 1_555 1_555
H12 C11 1_555 1_555
C12 C11 1_555 1_555
C13 C12 1_555 1_555
C14 C13 1_555 1_555
H13 C14 1_555 1_555
C15 C10 1_555 1_555
C16 O3 1_555 1_555
H14 C16 1_555 1_555
H15 C16 1_555 1_555
H16 C16 1_555 1_555
C17 O4 1_555 1_555
H17 C17 1_555 1_555
H18 C17 1_555 1_555
H19 C17 1_555 1_555
C18 O5 1_555 1_555
H20 C18 1_555 1_555
H21 C18 1_555 1_555
H22 C18 1_555 1_555
C19 O6 1_555 1_555
H23 C19 1_555 1_555
H24 C19 1_555 1_555
C4 C5 1_555 1_555
C4 C19 1_555 1_555
C8 C9 1_555 1_555
C14 C15 1_555 1_555

#END
