
#######################################################################
#
#                 Cambridge Crystallographic Data Centre
#                                CCDC 
#
#######################################################################
#
# If this CIF has been generated from an entry in the Cambridge 
# Structural Database, then it will include bibliographic, chemical, 
# crystal, experimental, refinement or atomic coordinate data resulting 
# from the CCDC's data processing and validation procedures.
#
#######################################################################

data_MAPXOT
_chemical_formula_moiety         'C7 H12 N2 O3 S1,0.5(C1 H4 O1)'
_chemical_name_systematic        
'3-(1-methyl-1H-imidazol-3-ium-3-yl)propane-1-sulfonate methanol solvate'
_symmetry_cell_setting           monoclinic
_symmetry_space_group_name_H-M   'P 21/c'
_symmetry_Int_Tables_number      14
_space_group_name_Hall           '-P 2ybc'
loop_
_symmetry_equiv_pos_site_id
_symmetry_equiv_pos_as_xyz
1 x,y,z
2 -x,1/2+y,1/2-z
3 -x,-y,-z
4 x,1/2-y,1/2+z
_cell_length_a                   7.8403(2)
_cell_length_b                   12.7512(3)
_cell_length_c                   10.5247(2)
_cell_angle_alpha                90
_cell_angle_beta                 91.486(2)
_cell_angle_gamma                90
_cell_volume                     1051.83
_exptl_crystal_colour            colorless
_exptl_crystal_description       block
_cell_formula_units_Z            4
loop_
_atom_site_label
_atom_site_type_symbol
_atom_site_fract_x
_atom_site_fract_y
_atom_site_fract_z
S1 S 0.37901(6) 0.73265(4) 0.02187(4)
O1 O 0.3353(2) 0.65694(12) -0.07693(13)
O2 O 0.5511(2) 0.77198(13) 0.00987(15)
O3 O 0.2528(2) 0.81532(13) 0.03154(15)
N1 N 0.3412(2) 0.45231(13) 0.29908(16)
N2 N 0.1572(2) 0.33258(15) 0.25064(19)
C1 C 0.3098(3) 0.37028(17) 0.2257(2)
H1 H 0.3833 0.3433 0.1659
C2 C 0.2044(3) 0.4677(2) 0.3748(2)
H2 H 0.1931 0.5199 0.4358
C3 C 0.0893(3) 0.3931(2) 0.3442(2)
H3 H -0.0169 0.3842 0.3800
C4 C 0.4991(3) 0.51452(17) 0.2999(2)
H4 H 0.5965 0.4678 0.3064
H5 H 0.5021 0.5599 0.3739
C5 C 0.5123(3) 0.58096(17) 0.1805(2)
H6 H 0.6227 0.6152 0.1811
H7 H 0.5056 0.5354 0.1067
C6 C 0.3737(3) 0.66358(16) 0.16839(18)
H8 H 0.3870 0.7131 0.2379
H9 H 0.2633 0.6301 0.1756
C7 C 0.0765(4) 0.2428(2) 0.1883(3)
H10 H 0.1428 0.2217 0.1172
H11 H -0.0364 0.2616 0.1590
H12 H 0.0699 0.1857 0.2475
C8? C 0.0323(13) 0.4742(13) 0.9732(11)
H13? H 0.0366 0.4040 1.0062
H14? H 0.1448 0.5038 0.9733
H15? H -0.0122 0.4736 0.8873
O4? O -0.0894(13) 0.5098(9) 1.0527(12)
H16? H -0.1633 0.4604 1.0590
loop_
_geom_bond_atom_site_label_1
_geom_bond_atom_site_label_2
_geom_bond_site_symmetry_1
_geom_bond_site_symmetry_2
S1 O1 1_555 1_555
O2 S1 1_555 1_555
O3 S1 1_555 1_555
N1 C1 1_555 1_555
N2 C1 1_555 1_555
C1 H1 1_555 1_555
C2 N1 1_555 1_555
H2 C2 1_555 1_555
C3 N2 1_555 1_555
H3 C3 1_555 1_555
C4 N1 1_555 1_555
H4 C4 1_555 1_555
H5 C4 1_555 1_555
C5 C4 1_555 1_555
H6 C5 1_555 1_555
H7 C5 1_555 1_555
C6 S1 1_555 1_555
H8 C6 1_555 1_555
H9 C6 1_555 1_555
C7 N2 1_555 1_555
H10 C7 1_555 1_555
H11 C7 1_555 1_555
H12 C7 1_555 1_555
C2 C3 1_555 1_555
C5 C6 1_555 1_555

#END
