
#######################################################################
#
#                 Cambridge Crystallographic Data Centre
#                                CCDC 
#
#######################################################################
#
# If this CIF has been generated from an entry in the Cambridge 
# Structural Database, then it will include bibliographic, chemical, 
# crystal, experimental, refinement or atomic coordinate data resulting 
# from the CCDC's data processing and validation procedures.
#
#######################################################################

data_MAQBIQ
_chemical_formula_moiety         'C3 H7 N6 1+,C10 H7 O6 1-,H2 O1'
_chemical_name_systematic        
'2,4,6-Triamino-1,3,5-triazin-1-ium 2-methoxycarbonyl-5-carboxybenzoate monohydrate'
_symmetry_cell_setting           monoclinic
_symmetry_space_group_name_H-M   'P 21/c'
_symmetry_Int_Tables_number      14
_space_group_name_Hall           '-P 2ybc'
loop_
_symmetry_equiv_pos_site_id
_symmetry_equiv_pos_as_xyz
1 x,y,z
2 -x,1/2+y,1/2-z
3 -x,-y,-z
4 x,1/2-y,1/2+z
_cell_length_a                   13.139(3)
_cell_length_b                   8.164(2)
_cell_length_c                   14.947(3)
_cell_angle_alpha                90
_cell_angle_beta                 93.80(3)
_cell_angle_gamma                90
_cell_volume                     1599.79
_exptl_crystal_colour            colorless
_exptl_crystal_description       plate
_cell_formula_units_Z            4
loop_
_atom_site_label
_atom_site_type_symbol
_atom_site_fract_x
_atom_site_fract_y
_atom_site_fract_z
O1 O 0.42440(10) 0.4523(2) 0.28644(11)
H1 H 0.3717 0.5007 0.2634
O2 O 0.34388(10) 0.4565(2) 0.42287(12)
O3 O 0.67573(11) -0.0203(2) 0.67493(11)
O4 O 0.74258(10) -0.05618(19) 0.52940(11)
O5 O 0.78377(9) 0.25699(17) 0.41781(9)
O6 O 0.71615(9) 0.09554(19) 0.30204(10)
C1 C 0.41028(13) 0.4163(2) 0.38180(14)
C2 C 0.68569(13) 0.0073(2) 0.57667(14)
C3 C 0.71699(12) 0.1787(2) 0.38236(12)
C4 C 0.48386(12) 0.3177(2) 0.43374(13)
C5 C 0.47255(14) 0.2526(2) 0.52995(14)
H9 H 0.4125 0.2857 0.5585
C6 C 0.53854(13) 0.1554(2) 0.57745(13)
H10 H 0.5294 0.1151 0.6367
C7 C 0.61753(12) 0.1237(2) 0.53058(12)
C8 C 0.63086(12) 0.1942(2) 0.43547(12)
C9 C 0.56354(13) 0.2888(2) 0.38769(13)
H11 H 0.5722 0.3289 0.3283
C10 C 0.7417(2) -0.1272(4) 0.72718(19)
H12 H 0.7229 -0.1277 0.7882
H13 H 0.7353 -0.2359 0.7029
H14 H 0.8110 -0.0908 0.7253
N1 N 1.01236(13) 0.3329(2) 0.41861(12)
H2 H 1.0716 0.3685 0.4455
H3 H 0.9625 0.2960 0.4519
N2 N 0.91454(10) 0.2871(2) 0.27891(11)
H4 H 0.8634 0.2550 0.3121
N3 N 0.82038(11) 0.2216(2) 0.13975(12)
H5 H 0.7717 0.1817 0.1733
H6 H 0.8118 0.2184 0.0795
N4 N 0.95805(11) 0.3326(2) 0.11285(11)
N5 N 1.09802(12) 0.4406(2) 0.09973(13)
H7 H 1.1589 0.4837 0.1181
H8 H 1.0788 0.4362 0.0408
N6 N 1.05971(11) 0.3844(2) 0.25964(12)
C11 C 0.99674(13) 0.3359(2) 0.31859(13)
C12 C 0.89798(13) 0.2801(2) 0.17540(13)
C13 C 1.03692(13) 0.3844(2) 0.15889(13)
O7 O 1.18130(12) 0.3924(2) 0.52445(13)
H15 H 1.2368 0.4166 0.5014
H16 H 1.1793 0.3870 0.5811
loop_
_geom_bond_atom_site_label_1
_geom_bond_atom_site_label_2
_geom_bond_site_symmetry_1
_geom_bond_site_symmetry_2
O1 H1 1_555 1_555
O2 C1 1_555 1_555
O3 C2 1_555 1_555
O4 C2 1_555 1_555
O5 C3 1_555 1_555
O6 C3 1_555 1_555
N1 H2 1_555 1_555
H3 N1 1_555 1_555
N2 H4 1_555 1_555
N3 H5 1_555 1_555
H6 N3 1_555 1_555
N4 C12 1_555 1_555
N5 H7 1_555 1_555
H8 N5 1_555 1_555
N6 C11 1_555 1_555
C1 O1 1_555 1_555
C2 C7 1_555 1_555
C3 C8 1_555 1_555
C4 C1 1_555 1_555
C5 C4 1_555 1_555
H9 C5 1_555 1_555
C6 C5 1_555 1_555
H10 C6 1_555 1_555
C7 C6 1_555 1_555
C8 C7 1_555 1_555
C9 C4 1_555 1_555
H11 C9 1_555 1_555
C10 O3 1_555 1_555
H12 C10 1_555 1_555
H13 C10 1_555 1_555
H14 C10 1_555 1_555
C11 N1 1_555 1_555
C12 N2 1_555 1_555
C13 N4 1_555 1_555
O7 H15 1_555 1_555
H16 O7 1_555 1_555
N2 C11 1_555 1_555
N3 C12 1_555 1_555
N5 C13 1_555 1_555
N6 C13 1_555 1_555
C8 C9 1_555 1_555

#END
