
#######################################################################
#
#                 Cambridge Crystallographic Data Centre
#                                CCDC 
#
#######################################################################
#
# If this CIF has been generated from an entry in the Cambridge 
# Structural Database, then it will include bibliographic, chemical, 
# crystal, experimental, refinement or atomic coordinate data resulting 
# from the CCDC's data processing and validation procedures.
#
#######################################################################

data_MAQJUM
_chemical_formula_moiety         'C21 H24 Cl1 N5 O5 S1'
_chemical_name_systematic        
'5-{2-[4-chloro-3-cyano-5-(dimethoxymethyl)thiophen-2-yl]hydrazinylidene}-4-methyl-2,6-dioxo-1-{3-[(propan-2-yl)oxy]propyl}-1,2,5,6-tetrahydropyridine-3-carbonitrile unknown solvate'
_symmetry_cell_setting           triclinic
_symmetry_space_group_name_H-M   'P -1'
_symmetry_Int_Tables_number      2
_space_group_name_Hall           '-P 1'
loop_
_symmetry_equiv_pos_site_id
_symmetry_equiv_pos_as_xyz
1 x,y,z
2 -x,-y,-z
_cell_length_a                   7.762(4)
_cell_length_b                   13.293(7)
_cell_length_c                   14.225(7)
_cell_angle_alpha                110.394(7)
_cell_angle_beta                 100.655(7)
_cell_angle_gamma                103.706(8)
_cell_volume                     1277.61
_exptl_crystal_colour            red
_exptl_crystal_description       block
_cell_formula_units_Z            2
loop_
_atom_site_label
_atom_site_type_symbol
_atom_site_fract_x
_atom_site_fract_y
_atom_site_fract_z
C1 C 0.9188(7) 1.1366(5) 0.4585(4)
C2 C 0.7883(7) 1.0385(4) 0.3926(3)
C3 C 0.7017(6) 0.9706(4) 0.4412(3)
C4 C 0.7815(6) 1.0268(4) 0.5495(3)
C5 C 1.0309(7) 1.2294(5) 0.4348(4)
H1 H 1.0581 1.1890 0.3702
C6 C 0.8619(10) 1.3539(5) 0.4891(6)
H2 H 0.9642 1.3915 0.5522
H3 H 0.7638 1.3027 0.4989
H4 H 0.8177 1.4093 0.4731
C7 C 1.3322(8) 1.3596(5) 0.4928(6)
H5 H 1.2930 1.4244 0.4991
H6 H 1.3452 1.3258 0.4240
H7 H 1.4492 1.3832 0.5446
C8 C 0.5661(8) 0.8637(6) 0.3913(4)
C9 C 0.7704(6) 1.0162(4) 0.7923(3)
C10 C 0.8730(6) 1.0908(4) 0.8989(3)
C11 C 0.8288(6) 1.0598(4) 0.9750(3)
C12 C 0.6828(6) 0.9565(4) 0.9534(3)
C13 C 0.6277(6) 0.9113(4) 0.7668(3)
C14 C 1.0238(8) 1.1976(4) 0.9232(4)
H8 H 1.0693 1.2413 0.9977
H9 H 0.9760 1.2411 0.8901
H10 H 1.1232 1.1791 0.8974
C15 C 0.9355(7) 1.1241(4) 1.0837(4)
C16 C 0.4310(7) 0.7843(5) 0.8237(4)
H11 H 0.3330 0.7727 0.7638
H12 H 0.3808 0.7941 0.8826
C17 C 0.4907(9) 0.6801(5) 0.7988(5)
H13 H 0.5373 0.6693 0.7385
H14 H 0.5920 0.6933 0.8578
C18 C 0.3446(12) 0.5765(6) 0.7767(6)
H15 H 0.2534 0.5556 0.7106
H16 H 0.3973 0.5159 0.7688
C19 C 0.033(2) 0.4988(12) 0.7852(12)
H17 H 0.0300 0.4396 0.7198
C20 C -0.004(3) 0.4466(13) 0.8555(13)
H18 H -0.1208 0.3862 0.8228
H19 H -0.0090 0.5022 0.9189
H20 H 0.0928 0.4166 0.8718
C21 C -0.138(3) 0.5299(12) 0.7647(15)
H21 H -0.1207 0.5811 0.7308
H22 H -0.1616 0.5662 0.8299
H23 H -0.2410 0.4627 0.7201
Cl1 Cl 0.72950(18) 0.99029(12) 0.25775(9)
H24 H 0.664(4) 0.927(3) 0.601(3)
N1 N 0.4519(8) 0.7795(6) 0.3519(5)
N2 N 0.7320(6) 0.9868(4) 0.6212(3)
N3 N 0.8176(5) 1.0511(3) 0.7215(3)
N4 N 0.5839(5) 0.8882(3) 0.8492(3)
N5 N 1.0209(6) 1.1720(4) 1.1681(3)
O1 O 0.9318(6) 1.2926(4) 0.4090(4)
O2 O 1.1957(5) 1.2777(3) 0.5090(3)
O3 O 0.5401(4) 0.8430(3) 0.6758(2)
O4 O 0.6444(5) 0.9306(3) 1.0233(2)
O5 O 0.2618(13) 0.5857(5) 0.8493(7)
S1 S 0.94649(16) 1.15440(11) 0.58792(9)
O6? O 1.021(2) 1.3526(14) 0.5179(13)
loop_
_geom_bond_atom_site_label_1
_geom_bond_atom_site_label_2
_geom_bond_site_symmetry_1
_geom_bond_site_symmetry_2
C1 C2 1_555 1_555
C2 C3 1_555 1_555
C3 C4 1_555 1_555
C4 N2 1_555 1_555
C5 C1 1_555 1_555
H1 C5 1_555 1_555
C6 H2 1_555 1_555
H3 C6 1_555 1_555
H4 C6 1_555 1_555
C7 H5 1_555 1_555
H6 C7 1_555 1_555
H7 C7 1_555 1_555
C8 C3 1_555 1_555
C9 C10 1_555 1_555
C10 C11 1_555 1_555
C11 C12 1_555 1_555
C12 N4 1_555 1_555
C13 C9 1_555 1_555
C14 C10 1_555 1_555
H8 C14 1_555 1_555
H9 C14 1_555 1_555
H10 C14 1_555 1_555
C15 C11 1_555 1_555
C16 H11 1_555 1_555
H12 C16 1_555 1_555
C17 C16 1_555 1_555
H13 C17 1_555 1_555
H14 C17 1_555 1_555
C18 C17 1_555 1_555
H15 C18 1_555 1_555
H16 C18 1_555 1_555
C19 H17 1_555 1_555
C20 C19 1_555 1_555
H18 C20 1_555 1_555
H19 C20 1_555 1_555
H20 C20 1_555 1_555
C21 C19 1_555 1_555
H21 C21 1_555 1_555
H22 C21 1_555 1_555
H23 C21 1_555 1_555
Cl1 C2 1_555 1_555
H24 N2 1_555 1_555
N1 C8 1_555 1_555
N2 N3 1_555 1_555
N3 C9 1_555 1_555
N4 C13 1_555 1_555
N5 C15 1_555 1_555
O1 C5 1_555 1_555
O2 C5 1_555 1_555
O3 C13 1_555 1_555
O4 C12 1_555 1_555
O5 C18 1_555 1_555
S1 C1 1_555 1_555
C4 S1 1_555 1_555
C6 O1 1_555 1_555
C7 O2 1_555 1_555
C16 N4 1_555 1_555
C19 O5 1_555 1_555

#END
