
#######################################################################
#
#                 Cambridge Crystallographic Data Centre
#                                CCDC 
#
#######################################################################
#
# If this CIF has been generated from an entry in the Cambridge 
# Structural Database, then it will include bibliographic, chemical, 
# crystal, experimental, refinement or atomic coordinate data resulting 
# from the CCDC's data processing and validation procedures.
#
#######################################################################

data_MAQJOG
_chemical_formula_moiety         'C17 H16 Cl1 N5 O5 S1,C1 H4 O1'
_chemical_name_systematic        
'5-{2-[4-chloro-3-cyano-5-(dimethoxymethyl)thiophen-2-yl]hydrazinylidene}-1-(2-hydroxyethyl)-4-methyl-2,6-dioxo-1,2,5,6-tetrahydropyridine-3-carbonitrile methanol solvate'
_symmetry_cell_setting           triclinic
_symmetry_space_group_name_H-M   'P -1'
_symmetry_Int_Tables_number      2
_space_group_name_Hall           '-P 1'
loop_
_symmetry_equiv_pos_site_id
_symmetry_equiv_pos_as_xyz
1 x,y,z
2 -x,-y,-z
_cell_length_a                   7.7268(6)
_cell_length_b                   10.2650(8)
_cell_length_c                   14.2681(10)
_cell_angle_alpha                86.9960(10)
_cell_angle_beta                 79.7200(10)
_cell_angle_gamma                77.0780(10)
_cell_volume                     1085.22
_exptl_crystal_colour            red
_exptl_crystal_description       block
_cell_formula_units_Z            2
loop_
_atom_site_label
_atom_site_type_symbol
_atom_site_fract_x
_atom_site_fract_y
_atom_site_fract_z
C1 C 0.2005(3) 0.3298(3) -0.09565(16)
C2 C 0.2461(3) 0.4463(3) -0.12726(16)
C3 C 0.2717(3) 0.5257(2) -0.05344(16)
C4 C 0.2416(3) 0.4636(2) 0.03380(16)
C5 C 0.1648(4) 0.2210(3) -0.15194(18)
H1 H 0.0927 0.2643 -0.1995
C6 C 0.4488(5) 0.0747(3) -0.1424(3)
H2 H 0.5014 0.1399 -0.1188
H3 H 0.5416 0.0105 -0.1798
H4 H 0.3891 0.0300 -0.0898
C7 C -0.0153(5) 0.0580(4) -0.1265(3)
H5 H -0.0580 0.0937 -0.1838
H6 H -0.1134 0.0369 -0.0814
H7 H 0.0768 -0.0215 -0.1410
C8 C 0.3170(4) 0.6530(3) -0.06612(19)
C9 C 0.2346(3) 0.4786(2) 0.28062(16)
C10 C 0.2874(3) 0.6041(2) 0.29475(16)
C11 C 0.2778(3) 0.5466(2) 0.46378(16)
C12 C 0.2172(3) 0.4257(2) 0.44660(16)
C13 C 0.1960(3) 0.3897(2) 0.35967(16)
C14 C 0.3748(4) 0.7513(3) 0.39879(19)
H8 H 0.4557 0.7699 0.3420
H9 H 0.4416 0.7367 0.4513
C15 C 0.2183(5) 0.8713(3) 0.4200(3)
H10 H 0.1571 0.8910 0.3656
H11 H 0.1326 0.8510 0.4742
C16 C 0.1754(3) 0.3469(3) 0.53076(17)
C17 C 0.1319(4) 0.2682(3) 0.3436(2)
H12 H 0.1384 0.2102 0.3984
H13 H 0.2064 0.2224 0.2887
H14 H 0.0094 0.2934 0.3331
Cl1 Cl 0.26578(9) 0.49907(7) -0.24424(4)
H15 H 0.273(4) 0.584(3) 0.129(2)
N1 N 0.3561(5) 0.7535(3) -0.0741(2)
N2 N 0.2518(3) 0.5138(2) 0.12004(14)
N3 N 0.2202(3) 0.4391(2) 0.19645(14)
N4 N 0.3127(3) 0.6291(2) 0.38451(13)
N5 N 0.1392(4) 0.2871(3) 0.59789(17)
O1 O 0.3209(3) 0.1398(2) -0.20035(16)
O2 O 0.0573(3) 0.1548(3) -0.08696(15)
O3 O 0.3107(3) 0.68406(19) 0.22875(13)
O4 O 0.2964(3) 0.5756(2) 0.54218(13)
O5 O 0.2811(5) 0.9814(3) 0.4398(2)
H16 H 0.3236 0.9663 0.4995
S1 S 0.18521(9) 0.31286(7) 0.02716(4)
C18 C 0.3500(8) 0.8564(5) 0.6719(4)
H17 H 0.4597 0.8606 0.6931
H18 H 0.3716 0.7812 0.6309
H19 H 0.2598 0.8469 0.7259
O6 O 0.2980(14) 0.9588(6) 0.6283(4)
H20 H 0.3085 1.0315 0.6650
loop_
_geom_bond_atom_site_label_1
_geom_bond_atom_site_label_2
_geom_bond_site_symmetry_1
_geom_bond_site_symmetry_2
C1 C2 1_555 1_555
C2 C3 1_555 1_555
C3 C4 1_555 1_555
C4 N2 1_555 1_555
C5 C1 1_555 1_555
H1 C5 1_555 1_555
C6 H2 1_555 1_555
H3 C6 1_555 1_555
H4 C6 1_555 1_555
C7 H5 1_555 1_555
H6 C7 1_555 1_555
H7 C7 1_555 1_555
C8 C3 1_555 1_555
C9 C10 1_555 1_555
C10 N4 1_555 1_555
C11 C12 1_555 1_555
C12 C13 1_555 1_555
C13 C9 1_555 1_555
C14 H8 1_555 1_555
H9 C14 1_555 1_555
C15 C14 1_555 1_555
H10 C15 1_555 1_555
H11 C15 1_555 1_555
C16 C12 1_555 1_555
C17 C13 1_555 1_555
H12 C17 1_555 1_555
H13 C17 1_555 1_555
H14 C17 1_555 1_555
Cl1 C2 1_555 1_555
H15 N2 1_555 1_555
N1 C8 1_555 1_555
N2 N3 1_555 1_555
N3 C9 1_555 1_555
N4 C11 1_555 1_555
N5 C16 1_555 1_555
O1 C5 1_555 1_555
O2 C5 1_555 1_555
O3 C10 1_555 1_555
O4 C11 1_555 1_555
O5 C15 1_555 1_555
H16 O5 1_555 1_555
S1 C1 1_555 1_555
C18 H17 1_555 1_555
H18 C18 1_555 1_555
H19 C18 1_555 1_555
O6 C18 1_555 1_555
H20 O6 1_555 1_555
C4 S1 1_555 1_555
C6 O1 1_555 1_555
C7 O2 1_555 1_555
C14 N4 1_555 1_555

#END
