
#######################################################################
#
#                 Cambridge Crystallographic Data Centre
#                                CCDC 
#
#######################################################################
#
# If this CIF has been generated from an entry in the Cambridge 
# Structural Database, then it will include bibliographic, chemical, 
# crystal, experimental, refinement or atomic coordinate data resulting 
# from the CCDC's data processing and validation procedures.
#
#######################################################################

data_MAQKUL01
_chemical_formula_moiety         'C21 H14 F5 N1 O2 S1'
_chemical_name_systematic        
1-((4-Methylphenyl)sulfonyl)-2-(pentafluorophenyl)-3-phenylaziridine
_symmetry_cell_setting           triclinic
_symmetry_space_group_name_H-M   'P -1'
_symmetry_Int_Tables_number      2
_space_group_name_Hall           '-P 1'
loop_
_symmetry_equiv_pos_site_id
_symmetry_equiv_pos_as_xyz
1 x,y,z
2 -x,-y,-z
_cell_length_a                   7.7472(19)
_cell_length_b                   9.419(2)
_cell_length_c                   14.952(3)
_cell_angle_alpha                74.701(5)
_cell_angle_beta                 76.265(5)
_cell_angle_gamma                66.196(4)
_cell_volume                     952.213
_exptl_crystal_colour            colorless
_chemical_melting_point          '139-141 deg.C'
_cell_formula_units_Z            2
loop_
_atom_site_label
_atom_site_type_symbol
_atom_site_fract_x
_atom_site_fract_y
_atom_site_fract_z
S1 S -0.0161(2) 0.92451(17) 0.22655(9)
O1 O 0.1831(5) 0.9036(4) 0.1957(2)
O2 O -0.1475(5) 1.0754(4) 0.2467(2)
N1 N -0.0506(6) 0.7965(5) 0.3249(3)
F1 F 0.2180(5) 0.5227(4) 0.2045(2)
F2 F 0.5841(5) 0.4094(4) 0.1194(2)
F3 F 0.8643(5) 0.4200(4) 0.1964(3)
F4 F 0.7804(5) 0.5354(4) 0.3522(3)
F5 F 0.4163(4) 0.6541(4) 0.4344(2)
C1 C 0.3569(8) 0.5294(6) 0.2392(3)
C2 C 0.5408(9) 0.4706(6) 0.2006(4)
C3 C 0.6829(9) 0.4737(7) 0.2346(4)
C4 C 0.6435(9) 0.5334(7) 0.3110(5)
C5 C 0.4546(9) 0.5950(6) 0.3556(4)
C6 C 0.3060(7) 0.5951(6) 0.3171(3)
C7 C 0.1024(8) 0.6502(7) 0.3656(4)
C8 C 0.0188(7) 0.7983(6) 0.4073(3)
C9 C -0.1181(8) 0.8091(6) 0.4945(3)
C10 C -0.2947(8) 0.7996(6) 0.5009(4)
H1 H -0.3318 0.7845 0.4504
C11 C -0.4214(8) 0.8145(7) 0.5918(4)
H2 H -0.5422 0.8114 0.5982
C12 C -0.3661(10) 0.8324(7) 0.6653(4)
H3 H -0.4477 0.8383 0.7221
C13 C -0.1943(10) 0.8418(7) 0.6581(4)
H4 H -0.1599 0.8561 0.7097
C14 C -0.0719(8) 0.8310(6) 0.5775(4)
H5 H 0.0458 0.8377 0.5747
C15 C -0.0971(7) 0.8686(6) 0.1470(3)
C16 C -0.2805(8) 0.8775(6) 0.1613(3)
H6 H -0.3600 0.9120 0.2147
C17 C -0.3528(8) 0.8388(6) 0.1019(4)
H7 H -0.4794 0.8464 0.1142
C18 C -0.2263(9) 0.7833(6) 0.0158(4)
C19 C -0.0422(9) 0.7742(6) 0.0023(4)
H8 H 0.0412 0.7395 -0.0502
C20 C 0.0231(8) 0.8187(6) 0.0699(4)
H9 H 0.1485 0.8131 0.0604
C21 C -0.3022(8) 0.7400(7) -0.0519(3)
H10 H -0.2907 0.8063 -0.1122
H11 H -0.4341 0.7545 -0.0299
H12 H -0.2308 0.6315 -0.0569
H13 H -0.005(13) 0.617(10) 0.424(5)
H14 H 0.101(5) 0.863(4) 0.396(2)
loop_
_geom_bond_atom_site_label_1
_geom_bond_atom_site_label_2
_geom_bond_site_symmetry_1
_geom_bond_site_symmetry_2
S1 O1 1_555 1_555
O2 S1 1_555 1_555
N1 S1 1_555 1_555
F1 C1 1_555 1_555
F2 C2 1_555 1_555
F3 C3 1_555 1_555
F4 C4 1_555 1_555
F5 C5 1_555 1_555
C1 C2 1_555 1_555
C2 C3 1_555 1_555
C3 C4 1_555 1_555
C4 C5 1_555 1_555
C5 C6 1_555 1_555
C6 C1 1_555 1_555
C7 N1 1_555 1_555
C8 N1 1_555 1_555
C9 C8 1_555 1_555
C10 C9 1_555 1_555
H1 C10 1_555 1_555
C11 C10 1_555 1_555
H2 C11 1_555 1_555
C12 C11 1_555 1_555
H3 C12 1_555 1_555
C13 C12 1_555 1_555
H4 C13 1_555 1_555
C14 C9 1_555 1_555
H5 C14 1_555 1_555
C15 S1 1_555 1_555
C16 C15 1_555 1_555
H6 C16 1_555 1_555
C17 C16 1_555 1_555
H7 C17 1_555 1_555
C18 C17 1_555 1_555
C19 C18 1_555 1_555
H8 C19 1_555 1_555
C20 C15 1_555 1_555
H9 C20 1_555 1_555
C21 C18 1_555 1_555
H10 C21 1_555 1_555
H11 C21 1_555 1_555
H12 C21 1_555 1_555
H13 C7 1_555 1_555
H14 C8 1_555 1_555
C6 C7 1_555 1_555
C7 C8 1_555 1_555
C13 C14 1_555 1_555
C19 C20 1_555 1_555

#END
