
#######################################################################
#
#                 Cambridge Crystallographic Data Centre
#                                CCDC 
#
#######################################################################
#
# If this CIF has been generated from an entry in the Cambridge 
# Structural Database, then it will include bibliographic, chemical, 
# crystal, experimental, refinement or atomic coordinate data resulting 
# from the CCDC's data processing and validation procedures.
#
#######################################################################

data_MAQTOQ
_chemical_formula_moiety         'C28 H24 N6,2(H2 O1)'
_chemical_name_systematic        
'N-(4-((bis(pyridin-4-yl)amino)methyl)benzyl)-N-(pyridin-4-yl)pyridin-4-amine dihydrate'
_symmetry_cell_setting           triclinic
_symmetry_space_group_name_H-M   'P -1'
_symmetry_Int_Tables_number      2
_space_group_name_Hall           '-P 1'
loop_
_symmetry_equiv_pos_site_id
_symmetry_equiv_pos_as_xyz
1 x,y,z
2 -x,-y,-z
_cell_length_a                   9.4430(19)
_cell_length_b                   9.5600(19)
_cell_length_c                   14.059(3)
_cell_angle_alpha                102.97(3)
_cell_angle_beta                 100.14(3)
_cell_angle_gamma                96.18(3)
_cell_volume                     1203.07
_exptl_crystal_colour            colorless
_exptl_crystal_description       needle
_cell_formula_units_Z            2
_exptl_crystal_preparation       ', Luminescent'
loop_
_atom_site_label
_atom_site_type_symbol
_atom_site_fract_x
_atom_site_fract_y
_atom_site_fract_z
N1 N 0.10895(11) 0.77969(11) 0.68843(8)
N2 N -0.24238(13) 0.67354(13) 0.82109(9)
N3 N 0.37662(13) 0.47360(12) 0.59170(9)
C1 C -0.21480(16) 0.58340(15) 0.74062(11)
H1 H -0.2777 0.4934 0.7132
C2 C -0.10084(15) 0.61351(14) 0.69543(10)
H2 H -0.0868 0.5459 0.6383
C3 C -0.00612(13) 0.74495(13) 0.73484(9)
C4 C -0.03236(14) 0.83940(14) 0.81907(9)
H3 H 0.0295 0.9296 0.8487
C5 C -0.15055(14) 0.79912(15) 0.85873(10)
H4 H -0.1675 0.8643 0.9159
C6 C 0.30952(15) 0.46860(14) 0.66797(10)
H5 H 0.3270 0.3950 0.7021
C7 C 0.21717(14) 0.56280(14) 0.70002(10)
H6 H 0.1710 0.5517 0.7533
C8 C 0.19238(13) 0.67505(13) 0.65298(9)
C9 C 0.26267(14) 0.68364(14) 0.57445(10)
H7 H 0.2503 0.7583 0.5405
C10 C 0.35083(15) 0.58097(15) 0.54704(11)
H8 H 0.3962 0.5872 0.4927
C11 C 0.14702(14) 0.92788(13) 0.67973(9)
H9 H 0.2533 0.9471 0.6838
H10 H 0.1248 0.9960 0.7375
C12 C 0.06978(13) 0.96045(13) 0.58482(9)
C13 C -0.04895(13) 0.86860(13) 0.51911(9)
H11 H -0.0829 0.7784 0.5314
C14 C -0.11786(14) 0.90849(13) 0.43563(9)
H12 H -0.1992 0.8453 0.3917
N1A N -0.10895(11) 1.22031(11) 0.31157(8)
N2A N 0.24238(13) 1.32646(13) 0.17891(9)
N3A N -0.37662(13) 1.52640(12) 0.40830(9)
C1A C 0.21480(16) 1.41660(15) 0.25938(11)
H1A H 0.2777 1.5066 0.2868
C2A C 0.10084(15) 1.38649(14) 0.30457(10)
H2A H 0.0868 1.4541 0.3617
C3A C 0.00612(13) 1.25505(13) 0.26516(9)
C4A C 0.03236(14) 1.16060(14) 0.18093(9)
H3A H -0.0295 1.0704 0.1513
C5A C 0.15055(14) 1.20088(15) 0.14127(10)
H4A H 0.1675 1.1357 0.0841
C6A C -0.30952(15) 1.53140(14) 0.33203(10)
H5A H -0.3270 1.6050 0.2979
C7A C -0.21717(14) 1.43720(14) 0.29998(10)
H6A H -0.1710 1.4483 0.2467
C8A C -0.19238(13) 1.32495(13) 0.34702(9)
C9A C -0.26267(14) 1.31636(14) 0.42555(10)
H7A H -0.2503 1.2417 0.4595
C10A C -0.35083(15) 1.41903(15) 0.45296(11)
H8A H -0.3962 1.4128 0.5073
C11A C -0.14702(14) 1.07212(13) 0.32027(9)
H9A H -0.2533 1.0529 0.3162
H10A H -0.1248 1.0040 0.2625
C12A C -0.06978(13) 1.03955(13) 0.41518(9)
C13A C 0.04895(13) 1.13140(13) 0.48089(9)
H11A H 0.0829 1.2216 0.4686
C14A C 0.11786(14) 1.09151(13) 0.56437(9)
H12A H 0.1992 1.1547 0.6083
N4 N 0.65877(11) 0.02199(11) 0.77156(8)
N5 N 0.31159(12) 0.01610(13) 0.92595(8)
N6 N 1.03180(12) 0.34421(12) 0.86611(9)
C15 C 0.36401(14) -0.10501(14) 0.88879(9)
H13 H 0.3200 -0.1941 0.8975
C16 C 0.47802(14) -0.10903(14) 0.83858(9)
H14 H 0.5103 -0.1984 0.8140
C17 C 0.54448(13) 0.02055(13) 0.82484(8)
C18 C 0.49152(14) 0.14803(14) 0.86272(9)
H15 H 0.5330 0.2387 0.8548
C19 C 0.37741(14) 0.13964(14) 0.91201(9)
H16 H 0.3432 0.2274 0.9378
C20 C 0.98526(15) 0.26989(14) 0.77084(10)
H17 H 1.0403 0.2913 0.7240
C21 C 0.86342(14) 0.16438(14) 0.73513(9)
H18 H 0.8373 0.1154 0.6664
C22 C 0.77884(13) 0.13081(13) 0.80213(9)
C23 C 0.82673(14) 0.20724(14) 0.90243(9)
H19 H 0.7745 0.1883 0.9512
C24 C 0.95032(15) 0.31015(14) 0.92962(10)
H20 H 0.9801 0.3606 0.9980
C25 C 0.64119(14) -0.08473(13) 0.67620(9)
H21 H 0.5835 -0.1756 0.6795
H22 H 0.7385 -0.1068 0.6665
C26 C 0.56767(13) -0.03764(13) 0.58612(9)
C27 C 0.51625(13) 0.09501(13) 0.59306(9)
H23 H 0.5271 0.1606 0.6565
C28 C 0.44942(13) 0.13184(13) 0.50797(9)
H24 H 0.4148 0.2225 0.5139
N4A N 0.34123(11) -0.02199(11) 0.22844(8)
N5A N 0.68841(12) -0.01610(13) 0.07405(8)
N6A N -0.03180(12) -0.34421(12) 0.13389(9)
C15A C 0.63599(14) 0.10501(14) 0.11121(9)
H13A H 0.6800 0.1941 0.1025
C16A C 0.52198(14) 0.10903(14) 0.16142(9)
H14A H 0.4897 0.1984 0.1860
C17A C 0.45552(13) -0.02055(13) 0.17516(8)
C18A C 0.50848(14) -0.14803(14) 0.13728(9)
H15A H 0.4670 -0.2387 0.1452
C19A C 0.62259(14) -0.13964(14) 0.08799(9)
H16A H 0.6568 -0.2274 0.0622
C20A C 0.01474(15) -0.26989(14) 0.22916(10)
H17A H -0.0403 -0.2913 0.2760
C21A C 0.13658(14) -0.16438(14) 0.26487(9)
H18A H 0.1627 -0.1154 0.3336
C22A C 0.22116(13) -0.13081(13) 0.19787(9)
C23A C 0.17327(14) -0.20724(14) 0.09757(9)
H19A H 0.2255 -0.1883 0.0488
C24A C 0.04968(15) -0.31015(14) 0.07038(10)
H20A H 0.0199 -0.3606 0.0020
C25A C 0.35881(14) 0.08473(13) 0.32380(9)
H21A H 0.4165 0.1756 0.3205
H22A H 0.2615 0.1068 0.3335
C26A C 0.43233(13) 0.03764(13) 0.41388(9)
C27A C 0.48375(13) -0.09501(13) 0.40694(9)
H23A H 0.4729 -0.1606 0.3435
C28A C 0.55058(13) -0.13184(13) 0.49203(9)
H24A H 0.5852 -0.2225 0.4861
O1 O 0.56027(12) 0.49092(11) 0.88242(7)
H25 H 0.6130(19) 0.5665(19) 0.8682(13)
H26 H 0.476(2) 0.5167(19) 0.8958(13)
O2 O 0.29713(11) 0.54422(11) 0.93519(8)
H27 H 0.3344(19) 0.5379(18) 0.9956(14)
H28 H 0.213(2) 0.4723(19) 0.9140(13)
loop_
_geom_bond_atom_site_label_1
_geom_bond_atom_site_label_2
_geom_bond_site_symmetry_1
_geom_bond_site_symmetry_2
N1 C3 1_555 1_555
N2 C1 1_555 1_555
N3 C6 1_555 1_555
C1 H1 1_555 1_555
C2 C1 1_555 1_555
H2 C2 1_555 1_555
C3 C2 1_555 1_555
C4 C3 1_555 1_555
H3 C4 1_555 1_555
C5 N2 1_555 1_555
H4 C5 1_555 1_555
C6 H5 1_555 1_555
C7 C6 1_555 1_555
H6 C7 1_555 1_555
C8 N1 1_555 1_555
C9 C8 1_555 1_555
H7 C9 1_555 1_555
C10 N3 1_555 1_555
H8 C10 1_555 1_555
C11 N1 1_555 1_555
H9 C11 1_555 1_555
H10 C11 1_555 1_555
C12 C11 1_555 1_555
C13 C12 1_555 1_555
H11 C13 1_555 1_555
C14 C13 1_555 1_555
H12 C14 1_555 1_555
N4 C17 1_555 1_555
N5 C15 1_555 1_555
N6 C20 1_555 1_555
C15 H13 1_555 1_555
C16 C15 1_555 1_555
H14 C16 1_555 1_555
C17 C16 1_555 1_555
C18 C17 1_555 1_555
H15 C18 1_555 1_555
C19 N5 1_555 1_555
H16 C19 1_555 1_555
C20 H17 1_555 1_555
C21 C20 1_555 1_555
H18 C21 1_555 1_555
C22 N4 1_555 1_555
C23 C22 1_555 1_555
H19 C23 1_555 1_555
C24 N6 1_555 1_555
H20 C24 1_555 1_555
C25 N4 1_555 1_555
H21 C25 1_555 1_555
H22 C25 1_555 1_555
C26 C25 1_555 1_555
C27 C26 1_555 1_555
H23 C27 1_555 1_555
C28 C27 1_555 1_555
H24 C28 1_555 1_555
O1 H25 1_555 1_555
H26 O1 1_555 1_555
O2 H27 1_555 1_555
H28 O2 1_555 1_555
N1A C3A 1_555 1_555
N2A C1A 1_555 1_555
N3A C6A 1_555 1_555
C1A H1A 1_555 1_555
C2A C1A 1_555 1_555
H2A C2A 1_555 1_555
C3A C2A 1_555 1_555
C4A C3A 1_555 1_555
H3A C4A 1_555 1_555
C5A N2A 1_555 1_555
H4A C5A 1_555 1_555
C6A H5A 1_555 1_555
C7A C6A 1_555 1_555
H6A C7A 1_555 1_555
C8A N1A 1_555 1_555
C9A C8A 1_555 1_555
H7A C9A 1_555 1_555
C10A N3A 1_555 1_555
H8A C10A 1_555 1_555
C11A N1A 1_555 1_555
H9A C11A 1_555 1_555
H10A C11A 1_555 1_555
C12A C14 1_555 1_555
C13A C12A 1_555 1_555
H11A C13A 1_555 1_555
C14A C12 1_555 1_555
H12A C14A 1_555 1_555
N4A C17A 1_555 1_555
N5A C15A 1_555 1_555
N6A C20A 1_555 1_555
C15A H13A 1_555 1_555
C16A C15A 1_555 1_555
H14A C16A 1_555 1_555
C17A C16A 1_555 1_555
C18A C17A 1_555 1_555
H15A C18A 1_555 1_555
C19A N5A 1_555 1_555
H16A C19A 1_555 1_555
C20A H17A 1_555 1_555
C21A C20A 1_555 1_555
H18A C21A 1_555 1_555
C22A N4A 1_555 1_555
C23A C22A 1_555 1_555
H19A C23A 1_555 1_555
C24A N6A 1_555 1_555
H20A C24A 1_555 1_555
C25A N4A 1_555 1_555
H21A C25A 1_555 1_555
H22A C25A 1_555 1_555
C26A C28 1_555 1_555
C27A C26A 1_555 1_555
H23A C27A 1_555 1_555
C28A C26 1_555 1_555
H24A C28A 1_555 1_555
C4 C5 1_555 1_555
C7 C8 1_555 1_555
C9 C10 1_555 1_555
C18 C19 1_555 1_555
C21 C22 1_555 1_555
C23 C24 1_555 1_555
C4A C5A 1_555 1_555
C7A C8A 1_555 1_555
C9A C10A 1_555 1_555
C11A C12A 1_555 1_555
C13A C14A 1_555 1_555
C18A C19A 1_555 1_555
C21A C22A 1_555 1_555
C23A C24A 1_555 1_555
C25A C26A 1_555 1_555
C27A C28A 1_555 1_555

#END
