
#######################################################################
#
#                 Cambridge Crystallographic Data Centre
#                                CCDC 
#
#######################################################################
#
# If this CIF has been generated from an entry in the Cambridge 
# Structural Database, then it will include bibliographic, chemical, 
# crystal, experimental, refinement or atomic coordinate data resulting 
# from the CCDC's data processing and validation procedures.
#
#######################################################################

data_MAQWIM05
_chemical_formula_moiety         'C10 H12 N2 O2'
_chemical_name_systematic        4-Hydroxy-N'-isopropylidenebenzohydrazide
_symmetry_cell_setting           monoclinic
_symmetry_space_group_name_H-M   'P 21/c'
_symmetry_Int_Tables_number      14
_space_group_name_Hall           '-P 2ybc'
loop_
_symmetry_equiv_pos_site_id
_symmetry_equiv_pos_as_xyz
1 x,y,z
2 -x,1/2+y,1/2-z
3 -x,-y,-z
4 x,1/2-y,1/2+z
_cell_length_a                   7.6315(11)
_cell_length_b                   12.0996(17)
_cell_length_c                   10.2473(14)
_cell_angle_alpha                90
_cell_angle_beta                 97.950(2)
_cell_angle_gamma                90
_cell_volume                     937.122
_exptl_crystal_colour            colorless
_exptl_crystal_description       block
_cell_formula_units_Z            4
loop_
_atom_site_label
_atom_site_type_symbol
_atom_site_fract_x
_atom_site_fract_y
_atom_site_fract_z
O1 O -0.37970(12) 0.38857(8) 0.16362(9)
H1 H -0.4056 0.3639 0.0889
O2 O 0.33920(12) 0.26236(8) 0.51872(8)
C1 C 0.12141(15) 0.28556(9) 0.33031(11)
C2 C 0.64083(15) 0.07973(10) 0.31861(12)
C3 C 0.29529(15) 0.24698(9) 0.39958(11)
C4 C -0.21604(15) 0.35404(10) 0.21368(11)
C5 C 0.04195(15) 0.23933(10) 0.21162(12)
H2 H 0.1012 0.1845 0.1714
C6 C -0.12398(16) 0.27389(10) 0.15273(12)
H3 H -0.1736 0.2436 0.0727
C7 C -0.13733(16) 0.40128(10) 0.33204(11)
H4 H -0.1969 0.4556 0.3727
C8 C 0.79964(17) 0.02188(11) 0.39002(13)
H5 H 0.8119 0.0402 0.4820
H6 H 0.9036 0.0449 0.3543
H7 H 0.7851 -0.0566 0.3795
C9 C 0.02920(16) 0.36727(10) 0.38875(11)
H8 H 0.0805 0.3995 0.4672
C10 C 0.59795(17) 0.05482(11) 0.17434(12)
H9 H 0.5360 -0.0143 0.1628
H10 H 0.7055 0.0502 0.1359
H11 H 0.5248 0.1126 0.1320
N1 N 0.55273(13) 0.14145(9) 0.38771(10)
N2 N 0.39932(13) 0.19098(9) 0.32456(10)
H12 H 0.3712 0.1863 0.2405
loop_
_geom_bond_atom_site_label_1
_geom_bond_atom_site_label_2
_geom_bond_site_symmetry_1
_geom_bond_site_symmetry_2
O1 H1 1_555 1_555
O2 C3 1_555 1_555
C1 C3 1_555 1_555
C2 C8 1_555 1_555
C3 N2 1_555 1_555
C4 O1 1_555 1_555
C5 C1 1_555 1_555
H2 C5 1_555 1_555
C6 C4 1_555 1_555
H3 C6 1_555 1_555
C7 C4 1_555 1_555
H4 C7 1_555 1_555
C8 H5 1_555 1_555
H6 C8 1_555 1_555
H7 C8 1_555 1_555
C9 C1 1_555 1_555
H8 C9 1_555 1_555
C10 C2 1_555 1_555
H9 C10 1_555 1_555
H10 C10 1_555 1_555
H11 C10 1_555 1_555
N1 C2 1_555 1_555
N2 N1 1_555 1_555
H12 N2 1_555 1_555
C5 C6 1_555 1_555
C7 C9 1_555 1_555

#END
