
#######################################################################
#
#                 Cambridge Crystallographic Data Centre
#                                CCDC 
#
#######################################################################
#
# If this CIF has been generated from an entry in the Cambridge 
# Structural Database, then it will include bibliographic, chemical, 
# crystal, experimental, refinement or atomic coordinate data resulting 
# from the CCDC's data processing and validation procedures.
#
#######################################################################

data_MAQWIM17
_chemical_formula_moiety         'C10 H12 N2 O2'
_chemical_name_systematic        4-hydroxy-N'-isopropylidenebenzohydrazide
_symmetry_cell_setting           orthorhombic
_symmetry_space_group_name_H-M   'P n a 21'
_symmetry_Int_Tables_number      33
_space_group_name_Hall           'P 2c -2n'
loop_
_symmetry_equiv_pos_site_id
_symmetry_equiv_pos_as_xyz
1 x,y,z
2 -x,-y,1/2+z
3 1/2+x,1/2-y,z
4 1/2-x,1/2+y,1/2+z
_cell_length_a                   9.1888(18)
_cell_length_b                   7.2293(15)
_cell_length_c                   15.588(3)
_cell_angle_alpha                90
_cell_angle_beta                 90
_cell_angle_gamma                90
_cell_volume                     1035.49
_exptl_crystal_colour            colorless
_exptl_crystal_description       Prismatic
_cell_formula_units_Z            4
loop_
_atom_site_label
_atom_site_type_symbol
_atom_site_fract_x
_atom_site_fract_y
_atom_site_fract_z
O1 O 0.67740(17) 0.9135(2) 0.55850(11)
O2 O 0.25327(17) 1.1459(3) 0.25445(11)
H1 H 0.3098 1.1921 0.2198
N1 N 0.5644(2) 0.6381(2) 0.64990(12)
N2 N 0.49370(18) 0.7118(2) 0.57822(11)
H2 H 0.4133 0.6655 0.5599
C1 C 0.4725(2) 0.9408(3) 0.46625(13)
C2 C 0.5561(2) 0.8587(3) 0.53865(13)
C3 C 0.3283(2) 1.0859(3) 0.32365(13)
C4 C 0.5495(2) 1.0214(3) 0.39947(15)
H3 H 0.6504 1.0278 0.4025
C5 C 0.3212(2) 0.9421(3) 0.46208(15)
H4 H 0.2674 0.8936 0.5073
C6 C 0.5421(2) 0.4676(3) 0.66638(15)
C7 C 0.4791(2) 1.0921(3) 0.32878(14)
H5 H 0.5327 1.1443 0.2843
C8 C 0.2503(2) 1.0142(3) 0.39206(16)
H6 H 0.1491 1.0150 0.3906
C9 C 0.6128(4) 0.3941(4) 0.7462(2)
H7 H 0.6675 0.4910 0.7733
H8 H 0.6768 0.2942 0.7314
H9 H 0.5392 0.3503 0.7849
C10 C 0.4551(4) 0.3373(4) 0.6134(2)
H10 H 0.3533 0.3614 0.6218
H11 H 0.4765 0.2125 0.6303
H12 H 0.4792 0.3537 0.5540
loop_
_geom_bond_atom_site_label_1
_geom_bond_atom_site_label_2
_geom_bond_site_symmetry_1
_geom_bond_site_symmetry_2
O1 C2 1_555 1_555
O2 H1 1_555 1_555
N1 N2 1_555 1_555
N2 H2 1_555 1_555
C1 C2 1_555 1_555
C2 N2 1_555 1_555
C3 O2 1_555 1_555
C4 C1 1_555 1_555
H3 C4 1_555 1_555
C5 C1 1_555 1_555
H4 C5 1_555 1_555
C6 N1 1_555 1_555
C7 C3 1_555 1_555
H5 C7 1_555 1_555
C8 C3 1_555 1_555
H6 C8 1_555 1_555
C9 C6 1_555 1_555
H7 C9 1_555 1_555
H8 C9 1_555 1_555
H9 C9 1_555 1_555
C10 C6 1_555 1_555
H10 C10 1_555 1_555
H11 C10 1_555 1_555
H12 C10 1_555 1_555
C4 C7 1_555 1_555
C5 C8 1_555 1_555

#END
