
#######################################################################
#
#                 Cambridge Crystallographic Data Centre
#                                CCDC 
#
#######################################################################
#
# If this CIF has been generated from an entry in the Cambridge 
# Structural Database, then it will include bibliographic, chemical, 
# crystal, experimental, refinement or atomic coordinate data resulting 
# from the CCDC's data processing and validation procedures.
#
#######################################################################

data_MAQWIM22
_chemical_formula_moiety         'C10 H12 N2 O2'
_chemical_name_systematic        4-hydroxy-N'-isopropylidenebenzohydrazide
_symmetry_cell_setting           orthorhombic
_symmetry_space_group_name_H-M   'P n a 21'
_symmetry_Int_Tables_number      33
_space_group_name_Hall           'P 2c -2n'
loop_
_symmetry_equiv_pos_site_id
_symmetry_equiv_pos_as_xyz
1 x,y,z
2 -x,-y,1/2+z
3 1/2+x,1/2-y,z
4 1/2-x,1/2+y,1/2+z
_cell_length_a                   9.388(3)
_cell_length_b                   7.395(2)
_cell_length_c                   15.171(5)
_cell_angle_alpha                90
_cell_angle_beta                 90
_cell_angle_gamma                90
_cell_volume                     1053.24
_exptl_crystal_colour            colorless
_exptl_crystal_description       Prismatic
_cell_formula_units_Z            4
loop_
_atom_site_label
_atom_site_type_symbol
_atom_site_fract_x
_atom_site_fract_y
_atom_site_fract_z
O1 O 0.6708(4) 0.9038(6) 0.5588(3)
O2 O 0.2535(4) 1.1606(7) 0.2547(3)
H1 H 0.3084 1.1968 0.2165
N1 N 0.5623(5) 0.6282(5) 0.6477(3)
N2 N 0.4910(4) 0.7068(5) 0.5762(3)
H2 H 0.4114 0.6643 0.5574
C1 C 0.4696(5) 0.9388(6) 0.4654(3)
C2 C 0.5520(5) 0.8513(6) 0.5384(3)
C3 C 0.3293(5) 1.0937(7) 0.3238(3)
C4 C 0.5442(5) 1.0217(7) 0.3992(4)
H3 H 0.6430 1.0269 0.4023
C5 C 0.5356(9) 0.4647(9) 0.6641(5)
C6 C 0.3229(5) 0.9412(8) 0.4615(4)
H4 H 0.2705 0.8892 0.5069
C7 C 0.4745(6) 1.0985(7) 0.3276(3)
H5 H 0.5264 1.1527 0.2825
C8 C 0.2533(5) 1.0184(8) 0.3924(4)
H6 H 0.1543 1.0204 0.3914
C9 C 0.6067(8) 0.3878(9) 0.7447(6)
H7 H 0.6801 0.4688 0.7642
H8 H 0.6479 0.2725 0.7306
H9 H 0.5375 0.3729 0.7907
C10 C 0.4438(8) 0.3417(9) 0.6124(5)
H10 H 0.3456 0.3700 0.6233
H11 H 0.4623 0.2189 0.6294
H12 H 0.4639 0.3564 0.5507
loop_
_geom_bond_atom_site_label_1
_geom_bond_atom_site_label_2
_geom_bond_site_symmetry_1
_geom_bond_site_symmetry_2
O1 C2 1_555 1_555
O2 H1 1_555 1_555
N1 N2 1_555 1_555
N2 H2 1_555 1_555
C1 C2 1_555 1_555
C2 N2 1_555 1_555
C3 O2 1_555 1_555
C4 C1 1_555 1_555
H3 C4 1_555 1_555
C5 N1 1_555 1_555
C6 C1 1_555 1_555
H4 C6 1_555 1_555
C7 C3 1_555 1_555
H5 C7 1_555 1_555
C8 C3 1_555 1_555
H6 C8 1_555 1_555
C9 C5 1_555 1_555
H7 C9 1_555 1_555
H8 C9 1_555 1_555
H9 C9 1_555 1_555
C10 C5 1_555 1_555
H10 C10 1_555 1_555
H11 C10 1_555 1_555
H12 C10 1_555 1_555
C4 C7 1_555 1_555
C6 C8 1_555 1_555

#END
