
#######################################################################
#
#                 Cambridge Crystallographic Data Centre
#                                CCDC 
#
#######################################################################
#
# If this CIF has been generated from an entry in the Cambridge 
# Structural Database, then it will include bibliographic, chemical, 
# crystal, experimental, refinement or atomic coordinate data resulting 
# from the CCDC's data processing and validation procedures.
#
#######################################################################

data_MAQWIM10
_chemical_formula_moiety         'C10 H10 D2 N2 O2'
_chemical_name_systematic        
4-deuteroxy-N'-isopropylidene-deuterobenzohydrazide
_symmetry_cell_setting           orthorhombic
_symmetry_space_group_name_H-M   'P n a 21'
_symmetry_Int_Tables_number      33
_space_group_name_Hall           'P 2c -2n'
loop_
_symmetry_equiv_pos_site_id
_symmetry_equiv_pos_as_xyz
1 x,y,z
2 -x,-y,1/2+z
3 1/2+x,1/2-y,z
4 1/2-x,1/2+y,1/2+z
_cell_length_a                   9.334(9)
_cell_length_b                   7.372(7)
_cell_length_c                   15.221(14)
_cell_angle_alpha                90
_cell_angle_beta                 90
_cell_angle_gamma                90
_cell_volume                     1047.36
_exptl_crystal_colour            colorless
_exptl_crystal_description       Prismatic
_cell_formula_units_Z            4
loop_
_atom_site_label
_atom_site_type_symbol
_atom_site_fract_x
_atom_site_fract_y
_atom_site_fract_z
O1 O 0.67166(17) 0.5945(2) 0.44101(11)
O2 O 0.25330(16) 0.3401(3) 0.74476(12)
D1 D 0.3092 0.2976 0.7808
N1 N 0.49212(18) 0.7932(2) 0.42324(12)
D2 D 0.4127 0.8371 0.4423
N2 N 0.56210(19) 0.8705(2) 0.35179(12)
C1 C 0.4704(2) 0.5618(3) 0.53424(13)
C2 C 0.5527(2) 0.6469(3) 0.46180(14)
C3 C 0.3277(2) 0.4072(3) 0.67566(14)
C4 C 0.5444(2) 0.4780(3) 0.60119(16)
H1 H 0.6438 0.4724 0.5985
C5 C 0.3228(2) 0.5588(3) 0.53782(15)
H2 H 0.2701 0.6096 0.4921
C6 C 0.5364(2) 1.0360(3) 0.33536(16)
C7 C 0.4749(2) 0.4027(3) 0.67164(15)
H3 H 0.5272 0.3487 0.7166
C8 C 0.2526(2) 0.4825(3) 0.60732(17)
H4 H 0.1530 0.4816 0.6083
C9 C 0.6084(4) 1.1132(5) 0.2555(2)
H5 H 0.6692 1.0228 0.2296
H6 H 0.6650 1.2164 0.2721
H7 H 0.5371 1.1499 0.2136
C10 C 0.4455(4) 1.1591(4) 0.3878(3)
H8 H 0.3465 1.1284 0.3791
H9 H 0.4616 1.2820 0.3694
H10 H 0.4692 1.1469 0.4488
loop_
_geom_bond_atom_site_label_1
_geom_bond_atom_site_label_2
_geom_bond_site_symmetry_1
_geom_bond_site_symmetry_2
O1 C2 1_555 1_555
O2 D1 1_555 1_555
N1 D2 1_555 1_555
N2 N1 1_555 1_555
C1 C2 1_555 1_555
C2 N1 1_555 1_555
C3 O2 1_555 1_555
C4 C1 1_555 1_555
H1 C4 1_555 1_555
C5 C1 1_555 1_555
H2 C5 1_555 1_555
C6 N2 1_555 1_555
C7 C3 1_555 1_555
H3 C7 1_555 1_555
C8 C3 1_555 1_555
H4 C8 1_555 1_555
C9 C6 1_555 1_555
H5 C9 1_555 1_555
H6 C9 1_555 1_555
H7 C9 1_555 1_555
C10 C6 1_555 1_555
H8 C10 1_555 1_555
H9 C10 1_555 1_555
H10 C10 1_555 1_555
C4 C7 1_555 1_555
C5 C8 1_555 1_555

#END
