
#######################################################################
#
#                 Cambridge Crystallographic Data Centre
#                                CCDC 
#
#######################################################################
#
# If this CIF has been generated from an entry in the Cambridge 
# Structural Database, then it will include bibliographic, chemical, 
# crystal, experimental, refinement or atomic coordinate data resulting 
# from the CCDC's data processing and validation procedures.
#
#######################################################################

data_MAQWIM24
_chemical_formula_moiety         'C10 H6 D6 N2 O2'
_chemical_name_systematic        
4-hydroxy-N'-(hexadeuteropropan-2-ylidene)benzohydrazide
_symmetry_cell_setting           orthorhombic
_symmetry_space_group_name_H-M   'P n a 21'
_symmetry_Int_Tables_number      33
_space_group_name_Hall           'P 2c -2n'
loop_
_symmetry_equiv_pos_site_id
_symmetry_equiv_pos_as_xyz
1 x,y,z
2 -x,-y,1/2+z
3 1/2-x,1/2+y,1/2+z
4 1/2+x,1/2-y,z
_cell_length_a                   8.9425(4)
_cell_length_b                   6.9773(2)
_cell_length_c                   15.9432(5)
_cell_angle_alpha                90
_cell_angle_beta                 90
_cell_angle_gamma                90
_cell_volume                     994.768
_exptl_crystal_colour            colorless
_exptl_crystal_description       Prismatic
_cell_formula_units_Z            4
loop_
_atom_site_label
_atom_site_type_symbol
_atom_site_fract_x
_atom_site_fract_y
_atom_site_fract_z
O1 O 0.75134(10) 0.37171(14) 0.54281(6)
H1 H 0.8105 0.3219 0.5774
O2 O 1.18601(9) 0.57558(13) 0.23883(6)
N1 N 0.99565(11) 0.78388(14) 0.21615(7)
H2 H 0.9118 0.8358 0.2340
N2 N 1.06785(11) 0.85199(15) 0.14437(7)
C1 C 0.82743(13) 0.42336(16) 0.47308(8)
C2 C 0.98370(13) 0.41532(18) 0.46828(8)
H3 H 1.0401 0.3656 0.5138
C3 C 1.05567(12) 0.48042(18) 0.39662(8)
H4 H 1.1616 0.4738 0.3933
C4 C 0.97488(12) 0.55541(16) 0.32943(8)
C5 C 1.05979(11) 0.63434(16) 0.25737(8)
C6 C 1.04736(13) 1.02967(17) 0.12575(8)
C7 C 0.81834(12) 0.55436(18) 0.33313(8)
H5 H 0.7619 0.5994 0.2866
C8 C 0.74516(12) 0.48818(18) 0.40412(8)
H6 H 0.6390 0.4869 0.4059
C9 C 1.11700(16) 1.0996(2) 0.04637(10)
D1 D 1.1704 0.9940 0.0191
D2 D 1.1875 1.2032 0.0591
D3 D 1.0389 1.1477 0.0087
C10 C 0.96141(16) 1.1699(2) 0.17780(10)
D4 D 0.8541 1.1453 0.1717
D5 D 0.9839 1.3005 0.1590
D6 D 0.9899 1.1558 0.2368
loop_
_geom_bond_atom_site_label_1
_geom_bond_atom_site_label_2
_geom_bond_site_symmetry_1
_geom_bond_site_symmetry_2
O1 H1 1_555 1_555
O2 C5 1_555 1_555
N1 H2 1_555 1_555
N2 N1 1_555 1_555
C1 O1 1_555 1_555
C2 C1 1_555 1_555
H3 C2 1_555 1_555
C3 C2 1_555 1_555
H4 C3 1_555 1_555
C4 C3 1_555 1_555
C5 N1 1_555 1_555
C6 N2 1_555 1_555
C7 C4 1_555 1_555
H5 C7 1_555 1_555
C8 C1 1_555 1_555
H6 C8 1_555 1_555
C9 C6 1_555 1_555
D1 C9 1_555 1_555
D2 C9 1_555 1_555
D3 C9 1_555 1_555
C10 C6 1_555 1_555
D4 C10 1_555 1_555
D5 C10 1_555 1_555
D6 C10 1_555 1_555
C4 C5 1_555 1_555
C7 C8 1_555 1_555

#END
