
#######################################################################
#
#                 Cambridge Crystallographic Data Centre
#                                CCDC 
#
#######################################################################
#
# If this CIF has been generated from an entry in the Cambridge 
# Structural Database, then it will include bibliographic, chemical, 
# crystal, experimental, refinement or atomic coordinate data resulting 
# from the CCDC's data processing and validation procedures.
#
#######################################################################

data_MAQWIM09
_chemical_formula_moiety         'C10 H10 D2 N2 O2'
_chemical_name_systematic        
4-deuteroxy-N'-isopropylidene-deuterobenzohydrazide
_symmetry_cell_setting           orthorhombic
_symmetry_space_group_name_H-M   'P n a 21'
_symmetry_Int_Tables_number      33
_space_group_name_Hall           'P 2c -2n'
loop_
_symmetry_equiv_pos_site_id
_symmetry_equiv_pos_as_xyz
1 x,y,z
2 -x,-y,1/2+z
3 1/2+x,1/2-y,z
4 1/2-x,1/2+y,1/2+z
_cell_length_a                   9.3069(18)
_cell_length_b                   7.3194(14)
_cell_length_c                   15.364(3)
_cell_angle_alpha                90
_cell_angle_beta                 90
_cell_angle_gamma                90
_cell_volume                     1046.61
_exptl_crystal_colour            colorless
_exptl_crystal_description       Prismatic
_cell_formula_units_Z            4
loop_
_atom_site_label
_atom_site_type_symbol
_atom_site_fract_x
_atom_site_fract_y
_atom_site_fract_z
O1 O 0.32656(17) 0.0914(2) 0.55862(10)
O2 O 0.74704(16) -0.1547(3) 0.25474(11)
D1 D 0.6915 -0.2021 0.2200
N1 N 0.50705(18) 0.2914(2) 0.57706(11)
D2 D 0.5867 0.3362 0.5583
N2 N 0.43689(19) 0.3675(2) 0.64856(12)
C1 C 0.52878(19) 0.0611(3) 0.46574(13)
C2 C 0.4461(2) 0.1450(3) 0.53812(13)
C3 C 0.6722(2) -0.0903(3) 0.32392(13)
C4 C 0.45417(19) -0.0219(3) 0.39888(15)
H1 H 0.3545 -0.0280 0.4017
C5 C 0.6777(2) 0.0586(3) 0.46188(14)
H2 H 0.7305 0.1086 0.5074
C6 C 0.4614(2) 0.5347(3) 0.66495(15)
C7 C 0.5239(2) -0.0957(3) 0.32833(14)
H3 H 0.4713 -0.1492 0.2836
C8 C 0.7481(2) -0.0159(3) 0.39239(16)
H4 H 0.8480 -0.0165 0.3913
C9 C 0.3895(4) 0.6105(4) 0.7449(2)
H5 H 0.3310 0.5175 0.7711
H6 H 0.3303 0.7125 0.7289
H7 H 0.4613 0.6499 0.7856
C10 C 0.5510(4) 0.6605(4) 0.6123(2)
H8 H 0.6507 0.6317 0.6208
H9 H 0.5334 0.7841 0.6302
H10 H 0.5270 0.6471 0.5519
loop_
_geom_bond_atom_site_label_1
_geom_bond_atom_site_label_2
_geom_bond_site_symmetry_1
_geom_bond_site_symmetry_2
O1 C2 1_555 1_555
O2 D1 1_555 1_555
N1 D2 1_555 1_555
N2 N1 1_555 1_555
C1 C2 1_555 1_555
C2 N1 1_555 1_555
C3 O2 1_555 1_555
C4 C1 1_555 1_555
H1 C4 1_555 1_555
C5 C1 1_555 1_555
H2 C5 1_555 1_555
C6 N2 1_555 1_555
C7 C3 1_555 1_555
H3 C7 1_555 1_555
C8 C3 1_555 1_555
H4 C8 1_555 1_555
C9 C6 1_555 1_555
H5 C9 1_555 1_555
H6 C9 1_555 1_555
H7 C9 1_555 1_555
C10 C6 1_555 1_555
H8 C10 1_555 1_555
H9 C10 1_555 1_555
H10 C10 1_555 1_555
C4 C7 1_555 1_555
C5 C8 1_555 1_555

#END
