
#######################################################################
#
#                 Cambridge Crystallographic Data Centre
#                                CCDC 
#
#######################################################################
#
# If this CIF has been generated from an entry in the Cambridge 
# Structural Database, then it will include bibliographic, chemical, 
# crystal, experimental, refinement or atomic coordinate data resulting 
# from the CCDC's data processing and validation procedures.
#
#######################################################################

data_MAQWIM12
_chemical_formula_moiety         'C10 H10 D2 N2 O2'
_chemical_name_systematic        
4-deuteroxy-N'-isopropylidene-deuterobenzohydrazide
_symmetry_cell_setting           orthorhombic
_symmetry_space_group_name_H-M   'P n a 21'
_symmetry_Int_Tables_number      33
_space_group_name_Hall           'P 2c -2n'
loop_
_symmetry_equiv_pos_site_id
_symmetry_equiv_pos_as_xyz
1 x,y,z
2 -x,-y,1/2+z
3 1/2+x,1/2-y,z
4 1/2-x,1/2+y,1/2+z
_cell_length_a                   9.900(3)
_cell_length_b                   8.134(3)
_cell_length_c                   13.270(4)
_cell_angle_alpha                90
_cell_angle_beta                 90
_cell_angle_gamma                90
_cell_volume                     1068.59
_exptl_crystal_colour            colorless
_exptl_crystal_description       Prismatic
_cell_formula_units_Z            4
loop_
_atom_site_label
_atom_site_type_symbol
_atom_site_fract_x
_atom_site_fract_y
_atom_site_fract_z
C1 C 0.3297(5) 0.6393(7) 0.6722(5)
C2 C 0.2570(4) 0.5563(8) 0.6018(6)
H1 H 0.1637 0.5685 0.5993
C3 C 0.3200(5) 0.4558(7) 0.5350(5)
H2 H 0.2686 0.4009 0.4870
C4 C 0.4595(4) 0.4324(6) 0.5364(4)
C5 C 0.5323(4) 0.5208(6) 0.6075(5)
H3 H 0.6259 0.5115 0.6090
C6 C 0.4681(5) 0.6223(7) 0.6761(5)
H4 H 0.5180 0.6787 0.7244
C7 C 0.5342(4) 0.3251(6) 0.4673(4)
C8 C 0.4931(8) -0.0483(9) 0.3463(9)
C9 C 0.3784(9) -0.1276(9) 0.4008(9)
H5 H 0.3666 -0.2378 0.3765
H6 H 0.3976 -0.1300 0.4717
H7 H 0.2972 -0.0658 0.3892
C10 C 0.5664(10) -0.1467(9) 0.2646(9)
H8 H 0.5274 -0.2545 0.2598
H9 H 0.5576 -0.0914 0.2011
H10 H 0.6603 -0.1561 0.2818
N1 N 0.4683(4) 0.1931(5) 0.4311(4)
D1 D 0.3879 0.1693 0.4510
N2 N 0.5347(5) 0.0967(5) 0.3605(4)
O1 O 0.2640(4) 0.7406(7) 0.7375(4)
D2 D 0.3150 0.7661 0.7836
O2 O 0.6515(4) 0.3505(5) 0.4467(4)
loop_
_geom_bond_atom_site_label_1
_geom_bond_atom_site_label_2
_geom_bond_site_symmetry_1
_geom_bond_site_symmetry_2
C1 C2 1_555 1_555
C2 H1 1_555 1_555
C3 C2 1_555 1_555
H2 C3 1_555 1_555
C4 C3 1_555 1_555
C5 C4 1_555 1_555
H3 C5 1_555 1_555
C6 C1 1_555 1_555
H4 C6 1_555 1_555
C7 C4 1_555 1_555
C8 C9 1_555 1_555
C9 H5 1_555 1_555
H6 C9 1_555 1_555
H7 C9 1_555 1_555
C10 C8 1_555 1_555
H8 C10 1_555 1_555
H9 C10 1_555 1_555
H10 C10 1_555 1_555
N1 C7 1_555 1_555
D1 N1 1_555 1_555
N2 C8 1_555 1_555
O1 C1 1_555 1_555
D2 O1 1_555 1_555
O2 C7 1_555 1_555
C5 C6 1_555 1_555
N1 N2 1_555 1_555

#END
