
#######################################################################
#
#                 Cambridge Crystallographic Data Centre
#                                CCDC 
#
#######################################################################
#
# If this CIF has been generated from an entry in the Cambridge 
# Structural Database, then it will include bibliographic, chemical, 
# crystal, experimental, refinement or atomic coordinate data resulting 
# from the CCDC's data processing and validation procedures.
#
#######################################################################

data_MAQWIM23
_chemical_formula_moiety         'C10 H12 N2 O2'
_chemical_name_systematic        4-hydroxy-N'-isopropylidenebenzohydrazide
_symmetry_cell_setting           orthorhombic
_symmetry_space_group_name_H-M   'P n a 21'
_symmetry_Int_Tables_number      33
_space_group_name_Hall           'P 2c -2n'
loop_
_symmetry_equiv_pos_site_id
_symmetry_equiv_pos_as_xyz
1 x,y,z
2 -x,-y,1/2+z
3 1/2+x,1/2-y,z
4 1/2-x,1/2+y,1/2+z
_cell_length_a                   9.406(3)
_cell_length_b                   7.407(3)
_cell_length_c                   15.066(5)
_cell_angle_alpha                90
_cell_angle_beta                 90
_cell_angle_gamma                90
_cell_volume                     1049.65
_exptl_crystal_colour            colorless
_exptl_crystal_description       Prismatic
_cell_formula_units_Z            4
loop_
_atom_site_label
_atom_site_type_symbol
_atom_site_fract_x
_atom_site_fract_y
_atom_site_fract_z
O1 O 0.6699(4) 0.5980(6) 0.5577(3)
O2 O 0.2539(4) 0.3356(7) 0.2543(3)
H1 H 0.3081 0.3100 0.2136
C1 C 0.4687(5) 0.5624(6) 0.4643(3)
N1 N 0.5613(5) 0.8732(6) 0.6464(3)
N2 N 0.4905(4) 0.7941(5) 0.5752(3)
H2 H 0.4108 0.8363 0.5564
C2 C 0.5511(5) 0.6493(6) 0.5366(3)
C3 C 0.3289(5) 0.4049(7) 0.3227(3)
C4 C 0.5426(5) 0.4786(8) 0.3983(4)
H3 H 0.6413 0.4734 0.4014
C5 C 0.5343(9) 1.0367(9) 0.6629(6)
C6 C 0.3236(5) 0.5583(8) 0.4604(4)
H4 H 0.2713 0.6104 0.5061
C7 C 0.4732(6) 0.4006(8) 0.3263(4)
H5 H 0.5251 0.3461 0.2811
C8 C 0.2538(5) 0.4802(8) 0.3914(4)
H6 H 0.1550 0.4778 0.3907
C9 C 0.6050(9) 1.1138(9) 0.7433(6)
H7 H 0.6922 1.0503 0.7543
H8 H 0.5431 1.1014 0.7936
H9 H 0.6250 1.2394 0.7335
C10 C 0.4414(9) 1.1572(9) 0.6103(5)
H10 H 0.4544 1.1328 0.5482
H11 H 0.4656 1.2807 0.6223
H12 H 0.3439 1.1363 0.6261
loop_
_geom_bond_atom_site_label_1
_geom_bond_atom_site_label_2
_geom_bond_site_symmetry_1
_geom_bond_site_symmetry_2
O1 C2 1_555 1_555
O2 H1 1_555 1_555
C1 C2 1_555 1_555
N1 N2 1_555 1_555
N2 H2 1_555 1_555
C2 N2 1_555 1_555
C3 O2 1_555 1_555
C4 C1 1_555 1_555
H3 C4 1_555 1_555
C5 N1 1_555 1_555
C6 C1 1_555 1_555
H4 C6 1_555 1_555
C7 C3 1_555 1_555
H5 C7 1_555 1_555
C8 C3 1_555 1_555
H6 C8 1_555 1_555
C9 C5 1_555 1_555
H7 C9 1_555 1_555
H8 C9 1_555 1_555
H9 C9 1_555 1_555
C10 C5 1_555 1_555
H10 C10 1_555 1_555
H11 C10 1_555 1_555
H12 C10 1_555 1_555
C4 C7 1_555 1_555
C6 C8 1_555 1_555

#END
