
#######################################################################
#
#                 Cambridge Crystallographic Data Centre
#                                CCDC 
#
#######################################################################
#
# If this CIF has been generated from an entry in the Cambridge 
# Structural Database, then it will include bibliographic, chemical, 
# crystal, experimental, refinement or atomic coordinate data resulting 
# from the CCDC's data processing and validation procedures.
#
#######################################################################

data_MAQWIM16
_chemical_formula_moiety         'C10 H12 N2 O2'
_chemical_name_systematic        4-hydroxy-N'-isopropylidenebenzohydrazide
_symmetry_cell_setting           orthorhombic
_symmetry_space_group_name_H-M   'P n a 21'
_symmetry_Int_Tables_number      33
_space_group_name_Hall           'P 2c -2n'
loop_
_symmetry_equiv_pos_site_id
_symmetry_equiv_pos_as_xyz
1 x,y,z
2 -x,-y,1/2+z
3 1/2+x,1/2-y,z
4 1/2-x,1/2+y,1/2+z
_cell_length_a                   9.184(4)
_cell_length_b                   7.224(3)
_cell_length_c                   15.646(7)
_cell_angle_alpha                90
_cell_angle_beta                 90
_cell_angle_gamma                90
_cell_volume                     1038.04
_exptl_crystal_colour            colorless
_exptl_crystal_description       Prismatic
_cell_formula_units_Z            4
loop_
_atom_site_label
_atom_site_type_symbol
_atom_site_fract_x
_atom_site_fract_y
_atom_site_fract_z
O1 O 0.67802(17) 0.0856(2) 0.44173(10)
O2 O 0.25303(17) -0.1448(3) 0.74571(10)
H1 H 0.3096 -0.1902 0.7804
N1 N 0.49384(18) 0.2879(2) 0.42179(11)
H2 H 0.4134 0.3344 0.4400
N2 N 0.5647(2) 0.3612(2) 0.35025(12)
C1 C 0.4730(2) 0.0590(3) 0.53385(13)
C2 C 0.5564(2) 0.1407(3) 0.46152(13)
C3 C 0.3283(2) -0.0852(3) 0.67641(13)
C4 C 0.5498(2) -0.0216(3) 0.60058(15)
H3 H 0.6508 -0.0283 0.5975
C5 C 0.3211(2) 0.0577(3) 0.53789(14)
H4 H 0.2672 0.1058 0.4927
C6 C 0.5425(2) 0.5317(3) 0.33347(14)
C7 C 0.4794(2) -0.0919(3) 0.67143(14)
H5 H 0.5330 -0.1438 0.7158
C8 C 0.2500(2) -0.0140(3) 0.60809(16)
H6 H 0.1488 -0.0147 0.6096
C9 C 0.6130(4) 0.6056(4) 0.2538(2)
H7 H 0.6691 0.5093 0.2272
H8 H 0.6758 0.7070 0.2683
H9 H 0.5391 0.6476 0.2149
C10 C 0.4557(4) 0.6632(4) 0.3864(2)
H10 H 0.3538 0.6417 0.3770
H11 H 0.4794 0.7880 0.3706
H12 H 0.4780 0.6445 0.4457
loop_
_geom_bond_atom_site_label_1
_geom_bond_atom_site_label_2
_geom_bond_site_symmetry_1
_geom_bond_site_symmetry_2
O1 C2 1_555 1_555
O2 H1 1_555 1_555
N1 H2 1_555 1_555
N2 N1 1_555 1_555
C1 C2 1_555 1_555
C2 N1 1_555 1_555
C3 O2 1_555 1_555
C4 C1 1_555 1_555
H3 C4 1_555 1_555
C5 C1 1_555 1_555
H4 C5 1_555 1_555
C6 N2 1_555 1_555
C7 C3 1_555 1_555
H5 C7 1_555 1_555
C8 C3 1_555 1_555
H6 C8 1_555 1_555
C9 C6 1_555 1_555
H7 C9 1_555 1_555
H8 C9 1_555 1_555
H9 C9 1_555 1_555
C10 C6 1_555 1_555
H10 C10 1_555 1_555
H11 C10 1_555 1_555
H12 C10 1_555 1_555
C4 C7 1_555 1_555
C5 C8 1_555 1_555

#END
