
#######################################################################
#
#                 Cambridge Crystallographic Data Centre
#                                CCDC 
#
#######################################################################
#
# If this CIF has been generated from an entry in the Cambridge 
# Structural Database, then it will include bibliographic, chemical, 
# crystal, experimental, refinement or atomic coordinate data resulting 
# from the CCDC's data processing and validation procedures.
#
#######################################################################

data_MAQWIM13
_chemical_formula_moiety         'C10 H10 D2 N2 O2'
_chemical_name_systematic        
4-deuteroxy-N'-isopropylidene-deuterobenzohydrazide
_symmetry_cell_setting           orthorhombic
_symmetry_space_group_name_H-M   'P n a 21'
_symmetry_Int_Tables_number      33
_space_group_name_Hall           'P 2c -2n'
loop_
_symmetry_equiv_pos_site_id
_symmetry_equiv_pos_as_xyz
1 x,y,z
2 -x,-y,1/2+z
3 1/2+x,1/2-y,z
4 1/2-x,1/2+y,1/2+z
_cell_length_a                   9.1680(6)
_cell_length_b                   7.2146(5)
_cell_length_c                   15.5688(10)
_cell_angle_alpha                90
_cell_angle_beta                 90
_cell_angle_gamma                90
_cell_volume                     1029.77
_exptl_crystal_colour            colorless
_exptl_crystal_description       Prismatic
_cell_formula_units_Z            4
loop_
_atom_site_label
_atom_site_type_symbol
_atom_site_fract_x
_atom_site_fract_y
_atom_site_fract_z
O1 O -0.1772(2) 0.4135(3) 0.59242(15)
O2 O 0.2470(2) 0.6462(4) 0.28858(15)
D1 D 0.1902 0.6912 0.2537
N1 N 0.0063(2) 0.2124(4) 0.61228(17)
D2 D 0.0871 0.1665 0.5940
N2 N -0.0640(3) 0.1380(4) 0.68386(18)
C1 C 0.1718(3) 0.5851(4) 0.3578(2)
C2 C 0.0209(3) 0.5917(5) 0.3627(2)
H1 H -0.0328 0.6436 0.3181
C3 C -0.0487(3) 0.5215(5) 0.4334(2)
H2 H -0.1498 0.5284 0.4366
C4 C 0.0273(3) 0.4408(4) 0.5001(2)
C5 C 0.1789(3) 0.4421(5) 0.4960(2)
H3 H 0.2330 0.3937 0.5413
C6 C 0.2494(3) 0.5138(5) 0.4260(2)
H4 H 0.3508 0.5145 0.4244
C7 C -0.0560(3) 0.3587(4) 0.5725(2)
C8 C -0.0419(3) -0.0318(5) 0.7004(2)
C9 C 0.0449(5) -0.1632(6) 0.6476(3)
H5 H 0.0188 -0.1495 0.5882
H6 H 0.0251 -0.2879 0.6657
H7 H 0.1469 -0.1373 0.6546
C10 C -0.1120(5) -0.1060(7) 0.7800(3)
H8 H -0.0379 -0.1455 0.8195
H9 H -0.1730 -0.2095 0.7654
H10 H -0.1701 -0.0107 0.8061
loop_
_geom_bond_atom_site_label_1
_geom_bond_atom_site_label_2
_geom_bond_site_symmetry_1
_geom_bond_site_symmetry_2
O1 C7 1_555 1_555
O2 D1 1_555 1_555
N1 D2 1_555 1_555
N2 N1 1_555 1_555
C1 O2 1_555 1_555
C2 C1 1_555 1_555
H1 C2 1_555 1_555
C3 C2 1_555 1_555
H2 C3 1_555 1_555
C4 C3 1_555 1_555
C5 C4 1_555 1_555
H3 C5 1_555 1_555
C6 C1 1_555 1_555
H4 C6 1_555 1_555
C7 N1 1_555 1_555
C8 N2 1_555 1_555
C9 C8 1_555 1_555
H5 C9 1_555 1_555
H6 C9 1_555 1_555
H7 C9 1_555 1_555
C10 C8 1_555 1_555
H8 C10 1_555 1_555
H9 C10 1_555 1_555
H10 C10 1_555 1_555
C4 C7 1_555 1_555
C5 C6 1_555 1_555

#END
