
#######################################################################
#
#                 Cambridge Crystallographic Data Centre
#                                CCDC 
#
#######################################################################
#
# If this CIF has been generated from an entry in the Cambridge 
# Structural Database, then it will include bibliographic, chemical, 
# crystal, experimental, refinement or atomic coordinate data resulting 
# from the CCDC's data processing and validation procedures.
#
#######################################################################

data_MARFIV
_chemical_formula_moiety         'C12 H12 O4 S6'
_chemical_name_systematic        
'Dimethyl 2-(4,5-bis(methylthio)-1,3-dithiol-2-ylidene)-1,3-dithiole-4,5-dicarboxylate'
_symmetry_cell_setting           monoclinic
_symmetry_space_group_name_H-M   'P 21/c'
_symmetry_Int_Tables_number      14
_space_group_name_Hall           '-P 2ybc'
loop_
_symmetry_equiv_pos_site_id
_symmetry_equiv_pos_as_xyz
1 x,y,z
2 -x,1/2+y,1/2-z
3 -x,-y,-z
4 x,1/2-y,1/2+z
_cell_length_a                   14.3706(16)
_cell_length_b                   4.2903(4)
_cell_length_c                   27.876(3)
_cell_angle_alpha                90
_cell_angle_beta                 94.023(5)
_cell_angle_gamma                90
_cell_volume                     1714.44
_exptl_crystal_colour            'dark red'
_exptl_crystal_description       platelet
_chemical_melting_point          86-87deg.C
_cell_formula_units_Z            4
loop_
_atom_site_label
_atom_site_type_symbol
_atom_site_fract_x
_atom_site_fract_y
_atom_site_fract_z
S1 S 0.32895(6) 0.3150(3) 0.14598(3)
S2 S 0.12920(5) 0.6581(2) 0.15659(3)
S3 S 0.35901(5) 0.3644(2) 0.25474(2)
S4 S 0.17596(5) 0.6576(2) 0.26360(3)
S5 S 0.36729(5) 0.1713(2) 0.36809(2)
S6 S 0.18176(5) 0.45847(19) 0.37554(2)
O1 O 0.44076(15) -0.1947(6) 0.44836(8)
O2 O 0.32298(14) -0.1336(5) 0.49646(7)
O3 O 0.18087(14) 0.3474(6) 0.50132(7)
O4 O 0.1013(6) -0.0248(17) 0.4585(4)
C1 C 0.28783(18) 0.4144(7) 0.20138(9)
C2 C 0.20423(19) 0.5486(7) 0.20544(9)
C3 C 0.26921(18) 0.4522(7) 0.29236(10)
C4 C 0.27279(18) 0.3685(7) 0.33866(9)
C5 C 0.31093(18) 0.1067(7) 0.42123(9)
C6 C 0.22642(18) 0.2350(7) 0.42414(9)
C7 C 0.4368(2) 0.1261(9) 0.16174(12)
H1 H 0.4770 0.2650 0.1820
H2 H 0.4676 0.0749 0.1325
H3 H 0.4253 -0.0657 0.1795
C8 C 0.0233(2) 0.4600(9) 0.16913(15)
H4 H 0.0366 0.2391 0.1753
H5 H -0.0222 0.4795 0.1414
H6 H -0.0023 0.5536 0.1975
C9 C 0.3656(2) -0.0910(7) 0.45633(10)
C10 C 0.3729(2) -0.3189(8) 0.53337(11)
H7 H 0.3889 -0.5215 0.5200
H8 H 0.3334 -0.3504 0.5602
H9 H 0.4302 -0.2101 0.5449
C11 C 0.15931(19) 0.1870(8) 0.46265(10)
C12 C 0.1192(2) 0.3170(10) 0.54024(11)
H10 H 0.0589 0.4136 0.5307
H11 H 0.1472 0.4211 0.5690
H12 H 0.1100 0.0957 0.5472
O5? O 0.0801(9) 0.112(3) 0.4529(5)
loop_
_geom_bond_atom_site_label_1
_geom_bond_atom_site_label_2
_geom_bond_site_symmetry_1
_geom_bond_site_symmetry_2
S1 C1 1_555 1_555
S2 C2 1_555 1_555
S3 C1 1_555 1_555
S4 C2 1_555 1_555
S5 C4 1_555 1_555
S6 C4 1_555 1_555
O1 C9 1_555 1_555
O2 C9 1_555 1_555
O3 C11 1_555 1_555
O4 C11 1_555 1_555
C1 C2 1_555 1_555
C3 S3 1_555 1_555
C4 C3 1_555 1_555
C5 S5 1_555 1_555
C6 S6 1_555 1_555
C7 S1 1_555 1_555
H1 C7 1_555 1_555
H2 C7 1_555 1_555
H3 C7 1_555 1_555
C8 S2 1_555 1_555
H4 C8 1_555 1_555
H5 C8 1_555 1_555
H6 C8 1_555 1_555
C9 C5 1_555 1_555
C10 O2 1_555 1_555
H7 C10 1_555 1_555
H8 C10 1_555 1_555
H9 C10 1_555 1_555
C11 C6 1_555 1_555
C12 O3 1_555 1_555
H10 C12 1_555 1_555
H11 C12 1_555 1_555
H12 C12 1_555 1_555
S4 C3 1_555 1_555
C5 C6 1_555 1_555

#END
