
#######################################################################
#
#                 Cambridge Crystallographic Data Centre
#                                CCDC 
#
#######################################################################
#
# If this CIF has been generated from an entry in the Cambridge 
# Structural Database, then it will include bibliographic, chemical, 
# crystal, experimental, refinement or atomic coordinate data resulting 
# from the CCDC's data processing and validation procedures.
#
#######################################################################

data_MARREE
_chemical_formula_moiety         'C11 H20 O4'
_chemical_name_systematic        
1,5-Dioxaspiro[5.5]undecane-3,3-diyldimethanol
_symmetry_cell_setting           triclinic
_symmetry_space_group_name_H-M   'P -1'
_symmetry_Int_Tables_number      2
_space_group_name_Hall           '-P 1'
loop_
_symmetry_equiv_pos_site_id
_symmetry_equiv_pos_as_xyz
1 x,y,z
2 -x,-y,-z
_cell_length_a                   6.014(2)
_cell_length_b                   9.566(3)
_cell_length_c                   10.135(4)
_cell_angle_alpha                96.669(6)
_cell_angle_beta                 94.985(6)
_cell_angle_gamma                97.419(6)
_cell_volume                     571.191
_exptl_crystal_colour            colorless
_exptl_crystal_description       prism
_cell_formula_units_Z            2
loop_
_atom_site_label
_atom_site_type_symbol
_atom_site_fract_x
_atom_site_fract_y
_atom_site_fract_z
O1 O 0.1740(2) 1.02217(13) 0.15941(12)
O2 O 0.4111(2) 0.91990(13) 0.30414(13)
O3 O 0.2559(2) 0.58279(14) 0.08787(15)
H1 H 0.2181 0.5567 0.1579
C1 C 0.0686(3) 0.77411(18) 0.19176(16)
C2 C 0.3306(3) 1.04851(18) 0.27611(16)
C3 C -0.0117(3) 0.91377(19) 0.16452(18)
H2 H -0.1064 0.8990 0.0802
H3 H -0.1017 0.9447 0.2343
C4 C 0.2385(3) 0.80689(19) 0.31623(17)
H4 H 0.1606 0.8324 0.3935
H5 H 0.3062 0.7224 0.3304
O4 O -0.2933(2) 0.62755(15) 0.11168(15)
H6 H -0.2472 0.5718 0.0563
C5 C -0.1262(3) 0.6690(2) 0.22218(19)
H7 H -0.0682 0.5851 0.2482
H8 H -0.1952 0.7116 0.2971
C6 C 0.5352(3) 1.1422(2) 0.2417(2)
H9 H 0.6560 1.1492 0.3132
H10 H 0.5862 1.0977 0.1610
C7 C 0.1761(3) 0.7144(2) 0.07064(18)
H11 H 0.0661 0.7002 -0.0073
H12 H 0.3011 0.7830 0.0546
C8 C 0.2292(3) 1.1207(2) 0.39492(18)
H13 H 0.0898 1.0635 0.4086
H14 H 0.3328 1.1270 0.4750
C9 C 0.1825(4) 1.2690(2) 0.3720(2)
H15 H 0.0664 1.2617 0.2979
H16 H 0.1265 1.3138 0.4509
C10 C 0.3926(4) 1.3610(2) 0.3420(2)
H17 H 0.5047 1.3753 0.4189
H18 H 0.3555 1.4533 0.3244
C11 C 0.4886(4) 1.2903(2) 0.2210(2)
H19 H 0.3823 1.2850 0.1424
H20 H 0.6274 1.3474 0.2061
loop_
_geom_bond_atom_site_label_1
_geom_bond_atom_site_label_2
_geom_bond_site_symmetry_1
_geom_bond_site_symmetry_2
O1 C2 1_555 1_555
O2 C2 1_555 1_555
O3 H1 1_555 1_555
C1 C3 1_555 1_555
C2 C6 1_555 1_555
C3 O1 1_555 1_555
H2 C3 1_555 1_555
H3 C3 1_555 1_555
C4 O2 1_555 1_555
H4 C4 1_555 1_555
H5 C4 1_555 1_555
O4 H6 1_555 1_555
C5 C1 1_555 1_555
H7 C5 1_555 1_555
H8 C5 1_555 1_555
C6 H9 1_555 1_555
H10 C6 1_555 1_555
C7 O3 1_555 1_555
H11 C7 1_555 1_555
H12 C7 1_555 1_555
C8 C2 1_555 1_555
H13 C8 1_555 1_555
H14 C8 1_555 1_555
C9 C8 1_555 1_555
H15 C9 1_555 1_555
H16 C9 1_555 1_555
C10 C9 1_555 1_555
H17 C10 1_555 1_555
H18 C10 1_555 1_555
C11 C6 1_555 1_555
H19 C11 1_555 1_555
H20 C11 1_555 1_555
C1 C4 1_555 1_555
C1 C7 1_555 1_555
O4 C5 1_555 1_555
C10 C11 1_555 1_555

#END
