
#######################################################################
#
#                 Cambridge Crystallographic Data Centre
#                                CCDC 
#
#######################################################################
#
# If this CIF has been generated from an entry in the Cambridge 
# Structural Database, then it will include bibliographic, chemical, 
# crystal, experimental, refinement or atomic coordinate data resulting 
# from the CCDC's data processing and validation procedures.
#
#######################################################################

data_MARSEG
_chemical_formula_moiety         'C22 H25 Br1 F3 N1 O6'
_chemical_name_systematic        
'diethyl 4-(4-bromophenyl)-3-(3-ethoxy-3-oxoprop-1-en-1-yl)-5-(trifluoromethyl)pyrrolidine-2,2-dicarboxylate'
_symmetry_cell_setting           orthorhombic
_symmetry_space_group_name_H-M   'P 21 21 21'
_symmetry_Int_Tables_number      19
_space_group_name_Hall           'P 2ac 2ab'
loop_
_symmetry_equiv_pos_site_id
_symmetry_equiv_pos_as_xyz
1 x,y,z
2 1/2-x,-y,1/2+z
3 1/2+x,1/2-y,-z
4 -x,1/2+y,1/2-z
_cell_length_a                   10.5559(4)
_cell_length_b                   10.8496(5)
_cell_length_c                   21.9254(8)
_cell_angle_alpha                90
_cell_angle_beta                 90
_cell_angle_gamma                90
_cell_volume                     2511.06
_cell_formula_units_Z            4
loop_
_atom_site_label
_atom_site_type_symbol
_atom_site_fract_x
_atom_site_fract_y
_atom_site_fract_z
Br1 Br -0.10719(7) -0.69844(7) -0.00878(4)
F1 F -0.6895(4) -0.4505(5) -0.05562(17)
F2 F -0.7720(4) -0.3499(4) -0.12868(19)
F3 F -0.8654(4) -0.5092(5) -0.0945(2)
O1 O -0.6452(3) -0.2832(3) -0.25128(18)
O2 O -0.8202(4) -0.3610(3) -0.29432(19)
O3 O -0.7253(5) -0.6834(4) -0.31762(19)
O4 O -0.6428(4) -0.5190(3) -0.36503(17)
O5 O -0.2307(4) -0.3242(4) -0.3338(2)
O6 O -0.1802(4) -0.5093(4) -0.3706(2)
N1 N -0.7484(4) -0.5528(5) -0.2103(2)
H1 H -0.761(6) -0.622(5) -0.216(3)
C1 C -0.6803(5) -0.5448(5) -0.1520(2)
H2 H -0.6729 -0.6275 -0.1344
C2 C -0.5460(5) -0.4940(5) -0.1658(2)
H3 H -0.5477 -0.4044 -0.1603
C3 C -0.5308(5) -0.5211(4) -0.2347(2)
H4 H -0.5101 -0.6088 -0.2387
C4 C -0.6683(5) -0.5037(4) -0.2589(2)
C5 C -0.4397(5) -0.5452(5) -0.1277(2)
C6 C -0.3411(6) -0.4700(5) -0.1099(3)
H5 H -0.3416 -0.3874 -0.1213
C7 C -0.2410(6) -0.5146(6) -0.0751(3)
H6 H -0.1750 -0.4628 -0.0636
C8 C -0.2411(5) -0.6354(6) -0.0583(3)
C9 C -0.3358(6) -0.7129(5) -0.0763(3)
H7 H -0.3340 -0.7955 -0.0650
C10 C -0.4338(5) -0.6684(5) -0.1112(2)
H8 H -0.4974 -0.7220 -0.1239
C11 C -0.7535(6) -0.4628(8) -0.1084(3)
C12 C -0.7069(5) -0.3693(5) -0.2680(2)
C13 C -0.8784(6) -0.2378(5) -0.2973(3)
H9 H -0.9315 -0.2319 -0.3333
H10 H -0.8127 -0.1755 -0.3003
C14 C -0.9552(7) -0.2157(7) -0.2423(4)
H11 H -0.9964 -0.1371 -0.2456
H12 H -0.9014 -0.2162 -0.2070
H13 H -1.0178 -0.2793 -0.2385
C15 C -0.6846(5) -0.5802(5) -0.3167(3)
C16 C -0.6407(8) -0.5843(6) -0.4240(3)
H14 H -0.7043 -0.6489 -0.4239
H15 H -0.6611 -0.5271 -0.4566
C17 C -0.5157(8) -0.6384(8) -0.4351(4)
H16 H -0.5176 -0.6852 -0.4722
H17 H -0.4937 -0.6917 -0.4017
H18 H -0.4539 -0.5739 -0.4384
C18 C -0.4284(5) -0.4503(5) -0.2667(2)
H19 H -0.4238 -0.3655 -0.2607
C19 C -0.3457(5) -0.5024(5) -0.3024(3)
H20 H -0.3483 -0.5876 -0.3071
C20 C -0.2480(6) -0.4325(6) -0.3359(3)
C21 C -0.0782(7) -0.4575(7) -0.4063(3)
H21 H -0.1115 -0.3989 -0.4356
H22 H -0.0188 -0.4149 -0.3800
C22 C -0.0160(9) -0.5570(9) -0.4373(4)
H23 H -0.0758 -0.5990 -0.4629
H24 H 0.0178 -0.6136 -0.4079
H25 H 0.0517 -0.5248 -0.4619
loop_
_geom_bond_atom_site_label_1
_geom_bond_atom_site_label_2
_geom_bond_site_symmetry_1
_geom_bond_site_symmetry_2
Br1 C8 1_555 1_555
F1 C11 1_555 1_555
F2 C11 1_555 1_555
F3 C11 1_555 1_555
O1 C12 1_555 1_555
O2 C12 1_555 1_555
O3 C15 1_555 1_555
O4 C15 1_555 1_555
O5 C20 1_555 1_555
O6 C20 1_555 1_555
N1 H1 1_555 1_555
C1 N1 1_555 1_555
H2 C1 1_555 1_555
C2 C1 1_555 1_555
H3 C2 1_555 1_555
C3 C2 1_555 1_555
H4 C3 1_555 1_555
C4 N1 1_555 1_555
C5 C2 1_555 1_555
C6 C5 1_555 1_555
H5 C6 1_555 1_555
C7 C6 1_555 1_555
H6 C7 1_555 1_555
C8 C7 1_555 1_555
C9 C8 1_555 1_555
H7 C9 1_555 1_555
C10 C5 1_555 1_555
H8 C10 1_555 1_555
C11 C1 1_555 1_555
C12 C4 1_555 1_555
C13 O2 1_555 1_555
H9 C13 1_555 1_555
H10 C13 1_555 1_555
C14 C13 1_555 1_555
H11 C14 1_555 1_555
H12 C14 1_555 1_555
H13 C14 1_555 1_555
C15 C4 1_555 1_555
C16 O4 1_555 1_555
H14 C16 1_555 1_555
H15 C16 1_555 1_555
C17 C16 1_555 1_555
H16 C17 1_555 1_555
H17 C17 1_555 1_555
H18 C17 1_555 1_555
C18 C3 1_555 1_555
H19 C18 1_555 1_555
C19 C18 1_555 1_555
H20 C19 1_555 1_555
C20 C19 1_555 1_555
C21 O6 1_555 1_555
H21 C21 1_555 1_555
H22 C21 1_555 1_555
C22 C21 1_555 1_555
H23 C22 1_555 1_555
H24 C22 1_555 1_555
H25 C22 1_555 1_555
C3 C4 1_555 1_555
C9 C10 1_555 1_555

#END
