
#######################################################################
#
#                 Cambridge Crystallographic Data Centre
#                                CCDC 
#
#######################################################################
#
# If this CIF has been generated from an entry in the Cambridge 
# Structural Database, then it will include bibliographic, chemical, 
# crystal, experimental, refinement or atomic coordinate data resulting 
# from the CCDC's data processing and validation procedures.
#
#######################################################################

data_MARWEJ
_chemical_formula_moiety         'C20 H22 O5'
_chemical_name_systematic        
3,3-Dimethyl-10'-methylene-2',6,11'-trioxo-3'-oxaspiro[cyclohexane-1,5'-tricyclo[7.2.1.0^1,6^]dodecane]-4-ene-2-carbaldehyde
_symmetry_cell_setting           orthorhombic
_symmetry_space_group_name_H-M   'P 21 21 21'
_symmetry_Int_Tables_number      19
_space_group_name_Hall           'P 2ac 2ab'
loop_
_symmetry_equiv_pos_site_id
_symmetry_equiv_pos_as_xyz
1 x,y,z
2 1/2-x,-y,1/2+z
3 1/2+x,1/2-y,-z
4 -x,1/2+y,1/2-z
_cell_length_a                   7.7703(18)
_cell_length_b                   13.761(3)
_cell_length_c                   16.008(4)
_cell_angle_alpha                90
_cell_angle_beta                 90
_cell_angle_gamma                90
_cell_volume                     1711.69
_exptl_crystal_colour            colorless
_cell_formula_units_Z            4
loop_
_atom_site_label
_atom_site_type_symbol
_atom_site_fract_x
_atom_site_fract_y
_atom_site_fract_z
C1 C 0.6614(3) 0.23124(16) 0.58731(13)
C2 C 0.7047(3) 0.33221(15) 0.60409(14)
H1 H 0.6463 0.3803 0.5747
C3 C 0.8226(3) 0.35931(15) 0.65877(13)
H2 H 0.8355 0.4257 0.6676
C4 C 0.9366(3) 0.29342(14) 0.70750(12)
C5 C 0.9155(2) 0.18658(13) 0.67614(12)
H3 H 0.9877 0.1822 0.6261
C6 C 0.7324(3) 0.15456(14) 0.64712(12)
C7 C 0.7420(3) 0.05245(14) 0.60636(12)
H4 H 0.7993 0.0103 0.6472
C8 C 0.5573(3) 0.00716(14) 0.59189(13)
C9 C 0.4074(3) 0.06119(16) 0.62856(15)
O1 O 0.43260(18) 0.12653(11) 0.68937(10)
C10 C 0.6042(3) 0.14641(17) 0.71924(14)
H5 H 0.6402 0.0947 0.7565
H6 H 0.6038 0.2067 0.7507
C11 C 0.5661(3) -0.09510(15) 0.63078(15)
C12 C 0.6388(3) -0.15967(17) 0.56544(16)
C13 C 0.6658(3) -0.09969(16) 0.48793(14)
H7 H 0.6433 -0.1376 0.4373
C14 C 0.5316(3) -0.01954(16) 0.49972(13)
H8 H 0.4160 -0.0434 0.4894
H9 H 0.5541 0.0355 0.4634
C15 C 0.8465(3) -0.05339(18) 0.48589(14)
H10 H 0.9267 -0.0957 0.5147
H11 H 0.8840 -0.0478 0.4283
C16 C 0.8508(3) 0.04726(16) 0.52665(13)
H12 H 0.8086 0.0950 0.4870
H13 H 0.9689 0.0637 0.5401
C17 C 0.9003(3) 0.30762(16) 0.80154(13)
H14 H 0.9735 0.2654 0.8334
H15 H 0.7821 0.2923 0.8130
H16 H 0.9227 0.3739 0.8167
C18 C 1.1251(3) 0.32475(16) 0.68974(15)
H17 H 1.2025 0.2835 0.7202
H18 H 1.1411 0.3910 0.7070
H19 H 1.1482 0.3192 0.6310
C19 C 1.0007(3) 0.12134(15) 0.73928(13)
H20 H 1.1197 0.1268 0.7438
C20 C 0.6679(4) -0.25337(18) 0.5776(2)
H21 H 0.6425 -0.2815 0.6290
H22 H 0.7136 -0.2911 0.5348
O2 O 0.5219(2) -0.11687(12) 0.70087(10)
O3 O 0.2613(2) 0.04467(12) 0.60670(12)
O4 O 0.5645(2) 0.20885(11) 0.53045(10)
O5 O 0.9338(2) 0.06369(12) 0.78400(10)
loop_
_geom_bond_atom_site_label_1
_geom_bond_atom_site_label_2
_geom_bond_site_symmetry_1
_geom_bond_site_symmetry_2
C1 C2 1_555 1_555
C2 H1 1_555 1_555
C3 C2 1_555 1_555
H2 C3 1_555 1_555
C4 C3 1_555 1_555
C5 C4 1_555 1_555
H3 C5 1_555 1_555
C6 C1 1_555 1_555
C7 C6 1_555 1_555
H4 C7 1_555 1_555
C8 C7 1_555 1_555
C9 C8 1_555 1_555
O1 C9 1_555 1_555
C10 C6 1_555 1_555
H5 C10 1_555 1_555
H6 C10 1_555 1_555
C11 C8 1_555 1_555
C12 C11 1_555 1_555
C13 C12 1_555 1_555
H7 C13 1_555 1_555
C14 C8 1_555 1_555
H8 C14 1_555 1_555
H9 C14 1_555 1_555
C15 C13 1_555 1_555
H10 C15 1_555 1_555
H11 C15 1_555 1_555
C16 C7 1_555 1_555
H12 C16 1_555 1_555
H13 C16 1_555 1_555
C17 C4 1_555 1_555
H14 C17 1_555 1_555
H15 C17 1_555 1_555
H16 C17 1_555 1_555
C18 C4 1_555 1_555
H17 C18 1_555 1_555
H18 C18 1_555 1_555
H19 C18 1_555 1_555
C19 C5 1_555 1_555
H20 C19 1_555 1_555
C20 C12 1_555 1_555
H21 C20 1_555 1_555
H22 C20 1_555 1_555
O2 C11 1_555 1_555
O3 C9 1_555 1_555
O4 C1 1_555 1_555
O5 C19 1_555 1_555
C5 C6 1_555 1_555
O1 C10 1_555 1_555
C13 C14 1_555 1_555
C15 C16 1_555 1_555

#END
