
#######################################################################
#
#                 Cambridge Crystallographic Data Centre
#                                CCDC 
#
#######################################################################
#
# If this CIF has been generated from an entry in the Cambridge 
# Structural Database, then it will include bibliographic, chemical, 
# crystal, experimental, refinement or atomic coordinate data resulting 
# from the CCDC's data processing and validation procedures.
#
#######################################################################

data_MARXUA
_chemical_formula_moiety         'C32 H30 N4 O4'
_chemical_name_systematic        
N,N'-(Ethane-1,2-diylbis(oxy-2,1-phenylenemethylylidene))bis(3-(N-hydroxyethanimidoyl)aniline)
_symmetry_cell_setting           monoclinic
_symmetry_space_group_name_H-M   'C 2/c'
_symmetry_Int_Tables_number      15
_space_group_name_Hall           '-C 2yn'
loop_
_symmetry_equiv_pos_site_id
_symmetry_equiv_pos_as_xyz
1 x,y,z
2 -x,y,1/2-z
3 1/2+x,1/2+y,z
4 1/2-x,1/2+y,1/2-z
5 -x,-y,-z
6 x,-y,1/2+z
7 1/2-x,1/2-y,-z
8 1/2+x,1/2-y,1/2+z
_cell_length_a                   15.2832(17)
_cell_length_b                   8.8951(7)
_cell_length_c                   19.931(2)
_cell_angle_alpha                90
_cell_angle_beta                 93.7450(10)
_cell_angle_gamma                90
_cell_volume                     2703.75
_exptl_crystal_colour            colorless
_exptl_crystal_description       prismatic
_cell_formula_units_Z            4
loop_
_atom_site_label
_atom_site_type_symbol
_atom_site_fract_x
_atom_site_fract_y
_atom_site_fract_z
N1 N 0.63795(13) 0.0637(2) 0.18800(10)
N2 N 0.50646(13) 0.1845(2) 0.40679(9)
O1 O 0.66582(11) 0.0675(2) 0.12220(8)
H1 H 0.6276 0.1063 0.0970
O2 O 0.48962(12) 0.58699(18) 0.32008(9)
C1 C 0.78035(18) -0.0593(4) 0.21217(15)
H2 H 0.7717 -0.1570 0.1924
H3 H 0.8189 -0.0672 0.2520
H4 H 0.8059 0.0064 0.1806
C2 C 0.69375(16) 0.0032(3) 0.23009(12)
C3 C 0.66556(15) -0.0047(3) 0.29969(12)
C4 C 0.60085(15) 0.0921(3) 0.32002(11)
H5 H 0.5773 0.1636 0.2900
C5 C 0.57077(15) 0.0842(3) 0.38383(12)
C6 C 0.60300(18) -0.0278(3) 0.42723(13)
H6 H 0.5810 -0.0385 0.4694
C7 C 0.66757(18) -0.1230(3) 0.40776(15)
H7 H 0.6899 -0.1962 0.4375
C8 C 0.69959(17) -0.1118(3) 0.34526(14)
H8 H 0.7441 -0.1758 0.3333
C9 C 0.51088(16) 0.3213(3) 0.38882(12)
H9 H 0.5546 0.3494 0.3610
C10 C 0.45038(15) 0.4361(3) 0.40988(11)
C11 C 0.44247(16) 0.5730(3) 0.37584(12)
C12 C 0.38938(18) 0.6856(3) 0.39869(14)
H10 H 0.3842 0.7768 0.3759
C13 C 0.3444(2) 0.6618(4) 0.45522(15)
H11 H 0.3092 0.7380 0.4707
C14 C 0.35029(19) 0.5270(4) 0.48951(14)
H12 H 0.3189 0.5114 0.5273
C15 C 0.40351(17) 0.4164(3) 0.46664(13)
H13 H 0.4083 0.3257 0.4898
C16 C 0.47156(18) 0.7154(3) 0.27849(12)
H14 H 0.4816 0.8063 0.3048
H15 H 0.4106 0.7140 0.2617
N1A N 0.36205(13) 0.0637(2) 0.31200(10)
N2A N 0.49354(13) 0.1845(2) 0.09321(9)
O1A O 0.33418(11) 0.0675(2) 0.37780(8)
H1A H 0.3724 0.1063 0.4030
O2A O 0.51038(12) 0.58699(18) 0.17992(9)
C1A C 0.21965(18) -0.0593(4) 0.28783(15)
H2A H 0.2283 -0.1570 0.3076
H3A H 0.1811 -0.0672 0.2480
H4A H 0.1941 0.0064 0.3194
C2A C 0.30625(16) 0.0032(3) 0.26991(12)
C3A C 0.33444(15) -0.0047(3) 0.20031(12)
C4A C 0.39915(15) 0.0921(3) 0.17998(11)
H5A H 0.4227 0.1636 0.2100
C5A C 0.42923(15) 0.0842(3) 0.11617(12)
C6A C 0.39700(18) -0.0278(3) 0.07277(13)
H6A H 0.4190 -0.0385 0.0306
C7A C 0.33243(18) -0.1230(3) 0.09224(15)
H7A H 0.3101 -0.1962 0.0625
C8A C 0.30041(17) -0.1118(3) 0.15474(14)
H8A H 0.2559 -0.1758 0.1667
C9A C 0.48912(16) 0.3213(3) 0.11118(12)
H9A H 0.4454 0.3494 0.1390
C10A C 0.54962(15) 0.4361(3) 0.09012(11)
C11A C 0.55753(16) 0.5730(3) 0.12416(12)
C12A C 0.61062(18) 0.6856(3) 0.10131(14)
H10A H 0.6158 0.7768 0.1241
C13A C 0.6556(2) 0.6618(4) 0.04478(15)
H11A H 0.6908 0.7380 0.0293
C14A C 0.64971(19) 0.5270(4) 0.01049(14)
H12A H 0.6811 0.5114 -0.0273
C15A C 0.59649(17) 0.4164(3) 0.03336(13)
H13A H 0.5917 0.3257 0.0102
C16A C 0.52844(18) 0.7154(3) 0.22151(12)
H14A H 0.5184 0.8063 0.1952
H15A H 0.5894 0.7140 0.2383
loop_
_geom_bond_atom_site_label_1
_geom_bond_atom_site_label_2
_geom_bond_site_symmetry_1
_geom_bond_site_symmetry_2
N1 O1 1_555 1_555
N2 C5 1_555 1_555
O1 H1 1_555 1_555
O2 C11 1_555 1_555
C1 H2 1_555 1_555
H3 C1 1_555 1_555
H4 C1 1_555 1_555
C2 N1 1_555 1_555
C3 C2 1_555 1_555
C4 C3 1_555 1_555
H5 C4 1_555 1_555
C5 C4 1_555 1_555
C6 C5 1_555 1_555
H6 C6 1_555 1_555
C7 C6 1_555 1_555
H7 C7 1_555 1_555
C8 C3 1_555 1_555
H8 C8 1_555 1_555
C9 N2 1_555 1_555
H9 C9 1_555 1_555
C10 C9 1_555 1_555
C11 C10 1_555 1_555
C12 C11 1_555 1_555
H10 C12 1_555 1_555
C13 C12 1_555 1_555
H11 C13 1_555 1_555
C14 C13 1_555 1_555
H12 C14 1_555 1_555
C15 C10 1_555 1_555
H13 C15 1_555 1_555
C16 O2 1_555 1_555
H14 C16 1_555 1_555
H15 C16 1_555 1_555
N1A O1A 1_555 1_555
N2A C5A 1_555 1_555
O1A H1A 1_555 1_555
O2A C11A 1_555 1_555
C1A H2A 1_555 1_555
H3A C1A 1_555 1_555
H4A C1A 1_555 1_555
C2A N1A 1_555 1_555
C3A C2A 1_555 1_555
C4A C3A 1_555 1_555
H5A C4A 1_555 1_555
C5A C4A 1_555 1_555
C6A C5A 1_555 1_555
H6A C6A 1_555 1_555
C7A C6A 1_555 1_555
H7A C7A 1_555 1_555
C8A C3A 1_555 1_555
H8A C8A 1_555 1_555
C9A N2A 1_555 1_555
H9A C9A 1_555 1_555
C10A C9A 1_555 1_555
C11A C10A 1_555 1_555
C12A C11A 1_555 1_555
H10A C12A 1_555 1_555
C13A C12A 1_555 1_555
H11A C13A 1_555 1_555
C14A C13A 1_555 1_555
H12A C14A 1_555 1_555
C15A C10A 1_555 1_555
H13A C15A 1_555 1_555
C16A C16 1_555 1_555
H14A C16A 1_555 1_555
H15A C16A 1_555 1_555
C1 C2 1_555 1_555
C7 C8 1_555 1_555
C14 C15 1_555 1_555
O2A C16A 1_555 1_555
C1A C2A 1_555 1_555
C7A C8A 1_555 1_555
C14A C15A 1_555 1_555

#END
