
#######################################################################
#
#                 Cambridge Crystallographic Data Centre
#                                CCDC 
#
#######################################################################
#
# If this CIF has been generated from an entry in the Cambridge 
# Structural Database, then it will include bibliographic, chemical, 
# crystal, experimental, refinement or atomic coordinate data resulting 
# from the CCDC's data processing and validation procedures.
#
#######################################################################

data_MARZEK
_chemical_formula_moiety         'C12 H12 F12 O2'
_chemical_name_systematic        
cis-1,3-bis(1,1,2,3,3,3-Hexafluoropropyl)cyclohexane-1,3-diol
_symmetry_cell_setting           monoclinic
_symmetry_space_group_name_H-M   'P 21/n'
_symmetry_Int_Tables_number      14
_space_group_name_Hall           '-P 2yn'
loop_
_symmetry_equiv_pos_site_id
_symmetry_equiv_pos_as_xyz
1 x,y,z
2 1/2+x,1/2-y,1/2+z
3 -x,-y,-z
4 1/2-x,1/2+y,1/2-z
_cell_length_a                   10.590(2)
_cell_length_b                   39.347(3)
_cell_length_c                   15.135(5)
_cell_angle_alpha                90
_cell_angle_beta                 94.60(1)
_cell_angle_gamma                90
_cell_volume                     6286.21
_exptl_crystal_colour            colorless
_exptl_crystal_description       plate
_chemical_melting_point          357-359K
_cell_formula_units_Z            16
loop_
_atom_site_label
_atom_site_type_symbol
_atom_site_fract_x
_atom_site_fract_y
_atom_site_fract_z
C1 C 0.4581(9) 0.0712(2) 0.3602(6)
C2 C 0.4005(8) 0.1024(2) 0.4009(6)
H1 H 0.3139(8) 0.0966(2) 0.4163(6)
H2 H 0.3936(8) 0.1210(2) 0.3570(6)
C3 C 0.4806(8) 0.1141(2) 0.4849(6)
C4 C 0.5015(10) 0.0855(3) 0.5518(7)
H3 H 0.5568(10) 0.0932(3) 0.6038(7)
H4 H 0.4185(10) 0.0791(3) 0.5727(7)
C5 C 0.5571(10) 0.0545(3) 0.5124(7)
H5 H 0.6425(10) 0.0605(3) 0.4953(7)
H6 H 0.5667(10) 0.0361(3) 0.5573(7)
C6 C 0.4775(10) 0.0417(3) 0.4286(7)
H7 H 0.3940(10) 0.0340(3) 0.4459(7)
H8 H 0.5202(10) 0.0221(3) 0.4026(7)
C7 C 0.3736(9) 0.0583(3) 0.2777(6)
C8 C 0.3577(10) 0.0847(3) 0.2051(6)
H9 H 0.4372(10) 0.0983(3) 0.2031(6)
C9 C 0.3214(12) 0.0672(4) 0.1106(7)
C10 C 0.4247(8) 0.1461(2) 0.5282(6)
C11 C 0.4057(9) 0.1779(3) 0.4679(6)
C12 C 0.3787(12) 0.2104(3) 0.5129(8)
O1 O 0.5771(6) 0.0795(2) 0.3250(4)
H10 H 0.6124(49) 0.0954(19) 0.3548(45)
O2 O 0.5992(5) 0.1257(2) 0.4537(4)
H11 H 0.6585(14) 0.1219(23) 0.4927(27)
F1 F 0.2589(6) 0.0488(2) 0.3021(4)
F2 F 0.4306(6) 0.0296(2) 0.2455(4)
F3 F 0.2605(7) 0.1051(2) 0.2198(4)
F4 F 0.2860(7) 0.0922(2) 0.0536(4)
F5 F 0.2272(7) 0.0454(2) 0.1109(4)
F6 F 0.4197(7) 0.0525(2) 0.0803(4)
F7 F 0.3122(5) 0.13765(15) 0.5617(3)
F8 F 0.5074(5) 0.15494(14) 0.5992(3)
F9 F 0.2983(7) 0.1725(2) 0.4098(5)
F11 F 0.3509(6) 0.2349(2) 0.4579(4)
F12 F 0.2950(12) 0.2093(2) 0.5693(6)
F13 F 0.4899(9) 0.2208(2) 0.5591(6)
C13 C 0.9078(8) 0.1439(2) 0.5534(6)
C14 C 0.9971(8) 0.1553(2) 0.6321(6)
H12 H 1.0804(8) 0.1614(2) 0.6112(6)
H13 H 1.0105(8) 0.1361(2) 0.6741(6)
C15 C 0.9448(8) 0.1856(2) 0.6815(6)
C16 C 0.9121(9) 0.2152(2) 0.6164(6)
H14 H 0.8739(9) 0.2340(2) 0.6484(6)
H15 H 0.9908(9) 0.2237(2) 0.5930(6)
C17 C 0.8211(9) 0.2036(3) 0.5395(7)
H16 H 0.8034(9) 0.2229(3) 0.4984(7)
H17 H 0.7402(9) 0.1967(3) 0.5627(7)
C18 C 0.8753(9) 0.1743(2) 0.4900(6)
H18 H 0.9519(9) 0.1817(2) 0.4619(6)
H19 H 0.8116(9) 0.1667(2) 0.4427(6)
C19 C 0.9647(9) 0.1143(3) 0.5020(6)
C20 C 0.9970(10) 0.0825(3) 0.5572(6)
C21 C 1.0132(18) 0.0511(4) 0.5059(11)
C23 C 1.0368(8) 0.1964(2) 0.7592(6)
C24 C 1.0690(10) 0.1692(3) 0.8283(6)
H20 H 0.9952(10) 0.1536(3) 0.8317(6)
C25 C 1.1089(10) 0.1835(3) 0.9210(7)
O3 O 0.7938(5) 0.1291(2) 0.5841(4)
H21 H 0.7441(41) 0.1447(2) 0.5968(64)
O4 O 0.8322(5) 0.1729(2) 0.7196(4)
H22 H 0.7895(51) 0.1893(2) 0.7364(63)
F14 F 1.0684(5) 0.1252(2) 0.4636(4)
F15 F 0.8776(5) 0.1053(2) 0.4340(3)
F16 F 1.1188(8) 0.0899(2) 0.6011(5)
F18 F 1.0677(8) 0.0267(2) 0.5608(5)
F19 F 1.0801(8) 0.0528(2) 0.4373(5)
F20 F 0.9005(10) 0.0402(2) 0.4750(7)
F22 F 1.1459(5) 0.20889(15) 0.7286(3)
F23 F 0.9829(5) 0.22424(14) 0.8000(4)
F24 F 1.1730(6) 0.1512(2) 0.8036(4)
F25 F 1.1557(6) 0.1582(2) 0.9725(4)
F26 F 1.1957(7) 0.2074(2) 0.9230(4)
F27 F 1.0045(7) 0.1948(2) 0.9583(4)
C26 C 0.5801(8) 0.2137(2) -0.1420(5)
C27 C 0.5549(8) 0.2093(2) -0.0444(6)
H23 H 0.6123(8) 0.2243(2) -0.0073(6)
H24 H 0.4667(8) 0.2162(2) -0.0363(6)
C28 C 0.5733(8) 0.1729(2) -0.0127(5)
C29 C 0.4947(9) 0.1476(2) -0.0713(6)
H25 H 0.4035(9) 0.1511(2) -0.0640(6)
H26 H 0.5171(9) 0.1241(2) -0.0528(6)
C30 C 0.5221(9) 0.1528(2) -0.1709(6)
H27 H 0.6109(9) 0.1466(2) -0.1792(6)
H28 H 0.4660(9) 0.1378(2) -0.2089(6)
C31 C 0.4996(9) 0.1891(2) -0.1998(6)
H29 H 0.5187(9) 0.1919(2) -0.2624(6)
H30 H 0.4092(9) 0.1948(2) -0.1957(6)
C32 C 0.5490(10) 0.2510(3) -0.1667(6)
C33 C 0.6246(17) 0.2660(3) -0.2423(8)
C34 C 0.5776(20) 0.3005(4) -0.2783(10)
C35 C 0.5404(9) 0.1694(2) 0.0851(6)
C36 C 0.6225(11) 0.1896(2) 0.1532(6)
C37 C 0.6111(13) 0.1799(3) 0.2505(6)
O5 O 0.7099(6) 0.2094(2) -0.1533(4)
H31 H 0.7426(23) 0.1968(22) -0.1130(42)
O6 O 0.7067(6) 0.1656(2) -0.0111(4)
H32 H 0.7179(9) 0.1444(2) -0.0091(73)
F28 F 0.5872(7) 0.27258(15) -0.0986(4)
F29 F 0.4242(6) 0.2559(2) -0.1821(5)
F30 F 0.6334(8) 0.2444(2) -0.3074(4)
F32 F 0.5511(14) 0.3218(2) -0.2208(6)
F33 F 0.4675(12) 0.2964(3) -0.3293(7)
F34 F 0.6561(13) 0.3115(3) -0.3341(7)
F35 F 0.4165(5) 0.1781(2) 0.0912(4)
F36 F 0.5497(6) 0.13588(14) 0.1102(4)
F37 F 0.5944(10) 0.2226(2) 0.1478(4)
F39 F 0.6667(8) 0.2022(2) 0.3049(4)
F40 F 0.4974(8) 0.1741(3) 0.2698(4)
F41 F 0.6758(9) 0.1501(2) 0.2673(4)
C38 C 0.8555(9) 0.0782(2) 0.0397(6)
C39 C 0.8388(9) 0.0425(2) 0.0756(6)
H33 H 0.9184(9) 0.0295(2) 0.0721(6)
H34 H 0.7713(9) 0.0306(2) 0.0384(6)
C40 C 0.8056(8) 0.0430(2) 0.1740(6)
C41 C 0.9056(9) 0.0629(2) 0.2309(7)
H35 H 0.9873(9) 0.0506(2) 0.2325(7)
H36 H 0.8798(9) 0.0644(2) 0.2922(7)
C42 C 0.9220(11) 0.0985(3) 0.1947(8)
H37 H 0.8430(11) 0.1116(3) 0.1999(8)
H38 H 0.9911(11) 0.1102(3) 0.2307(8)
C43 C 0.9548(11) 0.0987(3) 0.0975(7)
H39 H 1.0401(11) 0.0889(3) 0.0934(7)
H40 H 0.9563(11) 0.1224(3) 0.0753(7)
C44 C 0.8958(10) 0.0766(3) -0.0574(7)
C45 C 0.8025(14) 0.0574(3) -0.1218(7)
C46 C 0.8085(17) 0.0655(4) -0.2193(9)
C47 C 0.7923(10) 0.0071(3) 0.2095(6)
C48 C 0.6901(15) -0.0146(3) 0.1606(7)
C49 C 0.6514(21) -0.0468(4) 0.2066(11)
O7 O 0.7368(6) 0.0958(2) 0.0308(4)
H41 H 0.6847(33) 0.0858(17) 0.0609(63)
O8 O 0.6831(6) 0.0590(2) 0.1722(4)
H42 H 0.6709(42) 0.0661(24) 0.2231(15)
F42 F 1.0118(7) 0.0639(2) -0.0586(5)
F43 F 0.8985(8) 0.1095(2) -0.0875(5)
F44 F 0.8419(12) 0.0229(2) -0.1130(5)
F46 F 0.7538(12) 0.0421(2) -0.2708(5)
F47 F 0.9273(9) 0.0694(2) -0.2417(5)
F48 F 0.7481(10) 0.0943(2) -0.2370(5)
F49 F 0.9035(7) -0.0092(2) 0.2150(4)
F50 F 0.7541(7) 0.0094(2) 0.2947(3)
F51 F 0.7314(10) -0.0259(2) 0.0837(4)
F53 F 0.5739(14) -0.0664(2) 0.1525(7)
F54 F 0.7443(13) -0.0656(2) 0.2379(7)
F55 F 0.5829(12) -0.0388(2) 0.2759(6)
F10? F 0.5242(30) 0.1901(8) 0.4640(21)
C22? C 1.0859(36) 0.0537(8) 0.5235(22)
F17? F 0.8659(27) 0.0610(7) 0.5491(20)
F21? F 1.1948(26) 0.0661(7) 0.5419(18)
F31? F 0.7391(41) 0.2709(10) -0.2351(26)
F38? F 0.7222(66) 0.1905(16) 0.1501(42)
F45? F 0.6819(40) 0.0558(10) -0.1079(27)
F52? F 0.6114(35) -0.0060(9) 0.1159(26)
loop_
_geom_bond_atom_site_label_1
_geom_bond_atom_site_label_2
_geom_bond_site_symmetry_1
_geom_bond_site_symmetry_2
C1 C2 1_555 1_555
C2 H1 1_555 1_555
H2 C2 1_555 1_555
C3 C2 1_555 1_555
C4 C3 1_555 1_555
H3 C4 1_555 1_555
H4 C4 1_555 1_555
C5 C4 1_555 1_555
H5 C5 1_555 1_555
H6 C5 1_555 1_555
C6 C1 1_555 1_555
H7 C6 1_555 1_555
H8 C6 1_555 1_555
C7 C1 1_555 1_555
C8 C7 1_555 1_555
H9 C8 1_555 1_555
C9 C8 1_555 1_555
C10 C3 1_555 1_555
C11 C10 1_555 1_555
C12 C11 1_555 1_555
O1 C1 1_555 1_555
H10 O1 1_555 1_555
O2 C3 1_555 1_555
H11 O2 1_555 1_555
F1 C7 1_555 1_555
F2 C7 1_555 1_555
F3 C8 1_555 1_555
F4 C9 1_555 1_555
F5 C9 1_555 1_555
F6 C9 1_555 1_555
F7 C10 1_555 1_555
F8 C10 1_555 1_555
F9 C11 1_555 1_555
F11 C12 1_555 1_555
F12 C12 1_555 1_555
F13 C12 1_555 1_555
C13 C14 1_555 1_555
C14 H12 1_555 1_555
H13 C14 1_555 1_555
C15 C14 1_555 1_555
C16 C15 1_555 1_555
H14 C16 1_555 1_555
H15 C16 1_555 1_555
C17 C16 1_555 1_555
H16 C17 1_555 1_555
H17 C17 1_555 1_555
C18 C13 1_555 1_555
H18 C18 1_555 1_555
H19 C18 1_555 1_555
C19 C13 1_555 1_555
C20 C19 1_555 1_555
C21 C20 1_555 1_555
C23 C15 1_555 1_555
C24 C23 1_555 1_555
H20 C24 1_555 1_555
C25 C24 1_555 1_555
O3 C13 1_555 1_555
H21 O3 1_555 1_555
O4 C15 1_555 1_555
H22 O4 1_555 1_555
F14 C19 1_555 1_555
F15 C19 1_555 1_555
F16 C20 1_555 1_555
F18 C21 1_555 1_555
F19 C21 1_555 1_555
F20 C21 1_555 1_555
F22 C23 1_555 1_555
F23 C23 1_555 1_555
F24 C24 1_555 1_555
F25 C25 1_555 1_555
F26 C25 1_555 1_555
F27 C25 1_555 1_555
C26 C27 1_555 1_555
C27 H23 1_555 1_555
H24 C27 1_555 1_555
C28 C27 1_555 1_555
C29 C28 1_555 1_555
H25 C29 1_555 1_555
H26 C29 1_555 1_555
C30 C29 1_555 1_555
H27 C30 1_555 1_555
H28 C30 1_555 1_555
C31 C26 1_555 1_555
H29 C31 1_555 1_555
H30 C31 1_555 1_555
C32 C26 1_555 1_555
C33 C32 1_555 1_555
C34 C33 1_555 1_555
C35 C28 1_555 1_555
C36 C35 1_555 1_555
C37 C36 1_555 1_555
O5 C26 1_555 1_555
H31 O5 1_555 1_555
O6 C28 1_555 1_555
H32 O6 1_555 1_555
F28 C32 1_555 1_555
F29 C32 1_555 1_555
F30 C33 1_555 1_555
F32 C34 1_555 1_555
F33 C34 1_555 1_555
F34 C34 1_555 1_555
F35 C35 1_555 1_555
F36 C35 1_555 1_555
F37 C36 1_555 1_555
F39 C37 1_555 1_555
F40 C37 1_555 1_555
F41 C37 1_555 1_555
C38 C39 1_555 1_555
C39 H33 1_555 1_555
H34 C39 1_555 1_555
C40 C39 1_555 1_555
C41 C40 1_555 1_555
H35 C41 1_555 1_555
H36 C41 1_555 1_555
C42 C41 1_555 1_555
H37 C42 1_555 1_555
H38 C42 1_555 1_555
C43 C38 1_555 1_555
H39 C43 1_555 1_555
H40 C43 1_555 1_555
C44 C38 1_555 1_555
C45 C44 1_555 1_555
C46 C45 1_555 1_555
C47 C40 1_555 1_555
C48 C47 1_555 1_555
C49 C48 1_555 1_555
O7 C38 1_555 1_555
H41 O7 1_555 1_555
O8 C40 1_555 1_555
H42 O8 1_555 1_555
F42 C44 1_555 1_555
F43 C44 1_555 1_555
F44 C45 1_555 1_555
F46 C46 1_555 1_555
F47 C46 1_555 1_555
F48 C46 1_555 1_555
F49 C47 1_555 1_555
F50 C47 1_555 1_555
F51 C48 1_555 1_555
F53 C49 1_555 1_555
F54 C49 1_555 1_555
F55 C49 1_555 1_555
C5 C6 1_555 1_555
C17 C18 1_555 1_555
C30 C31 1_555 1_555
C42 C43 1_555 1_555

#END
