
#######################################################################
#
#                 Cambridge Crystallographic Data Centre
#                                CCDC 
#
#######################################################################
#
# If this CIF has been generated from an entry in the Cambridge 
# Structural Database, then it will include bibliographic, chemical, 
# crystal, experimental, refinement or atomic coordinate data resulting 
# from the CCDC's data processing and validation procedures.
#
#######################################################################

data_MARZAG
_chemical_formula_moiety         'C11 H10 F12 O2'
_chemical_name_systematic        
trans-1,3-bis(1,1,2,3,3,3-Hexafluoropropyl)cyclopentane-1,3-diol
_symmetry_cell_setting           monoclinic
_symmetry_space_group_name_H-M   'P 21/n'
_symmetry_Int_Tables_number      14
_space_group_name_Hall           '-P 2yn'
loop_
_symmetry_equiv_pos_site_id
_symmetry_equiv_pos_as_xyz
1 x,y,z
2 1/2+x,1/2-y,1/2+z
3 -x,-y,-z
4 1/2-x,1/2+y,1/2-z
_cell_length_a                   12.651(1)
_cell_length_b                   10.436(1)
_cell_length_c                   22.301(2)
_cell_angle_alpha                90
_cell_angle_beta                 103.69(1)
_cell_angle_gamma                90
_cell_volume                     2860.66
_exptl_crystal_colour            colorless
_exptl_crystal_description       plate
_cell_formula_units_Z            8
_exptl_crystal_recrystallization_method acetone
loop_
_atom_site_label
_atom_site_type_symbol
_atom_site_fract_x
_atom_site_fract_y
_atom_site_fract_z
O1 O 0.2405(4) 0.2566(4) 0.2191(2)
H1 H 0.2505(4) 0.2160(4) 0.1883(2)
O2 O 0.5439(3) 0.4617(4) 0.1979(2)
H2 H 0.5908(3) 0.4314(4) 0.2279(2)
C1 C 0.3316(6) 0.3390(7) 0.2422(3)
C2 C 0.4380(5) 0.2857(7) 0.2294(3)
H3 H 0.4285(5) 0.1946(7) 0.2170(3)
H4 H 0.4990(5) 0.2922(7) 0.2665(3)
C3 C 0.4609(5) 0.3684(6) 0.1756(3)
C4 C 0.3548(5) 0.4398(6) 0.1497(3)
H5 H 0.3033(5) 0.3870(6) 0.1192(3)
H6 H 0.3685(5) 0.5211(6) 0.1299(3)
C5 C 0.3122(6) 0.4649(7) 0.2078(3)
H7 H 0.2336(6) 0.4858(7) 0.1965(3)
H8 H 0.3521(6) 0.5361(7) 0.2326(3)
C6 C 0.3522(8) 0.3382(10) 0.3146(5)
C7 C 0.2514(8) 0.3700(9) 0.3388(4)
H9 H 0.1925(8) 0.3096(9) 0.3183(4)
C10 C 0.2682(9) 0.3510(11) 0.4072(4)
C11 C 0.5018(5) 0.2820(6) 0.1301(3)
C12 C 0.5342(7) 0.3490(8) 0.0777(4)
H11 H 0.5857(7) 0.4198(8) 0.0951(4)
C13 C 0.5850(6) 0.2673(8) 0.0348(4)
F3 F 0.3842(3) 0.2129(4) 0.3399(2)
F4 F 0.4345(6) 0.4221(8) 0.3394(3)
F5 F 0.2255(5) 0.4953(6) 0.3221(5)
F6 F 0.2742(5) 0.2286(6) 0.4278(2)
F7 F 0.1820(5) 0.4039(6) 0.4204(3)
F8 F 0.3585(5) 0.4051(6) 0.4397(2)
F9 F 0.5933(3) 0.2160(3) 0.1613(2)
F10 F 0.4248(3) 0.1913(3) 0.1070(2)
F11 F 0.4423(4) 0.4028(5) 0.0407(2)
F13 F 0.5243(4) 0.1624(5) 0.0148(2)
F14 F 0.6806(4) 0.2200(5) 0.0632(2)
F15 F 0.5943(5) 0.3297(5) -0.0137(2)
O3 O 1.0050(3) 0.2225(4) 0.2940(2)
H12 H 0.9998(3) 0.1417(4) 0.2972(2)
O4 O 0.6952(3) 0.4100(4) 0.3080(2)
H13 H 0.6825(3) 0.4658(4) 0.3333(2)
C14 C 0.9104(5) 0.2987(6) 0.2712(3)
C15 C 0.8070(5) 0.2403(6) 0.2871(3)
H14 H 0.7451(5) 0.2403(6) 0.2504(3)
H15 H 0.8208(5) 0.1513(6) 0.3023(3)
C16 C 0.7826(5) 0.3261(6) 0.3379(3)
C17 C 0.8868(5) 0.4015(6) 0.3631(3)
H16 H 0.9400(5) 0.3503(6) 0.3934(3)
H17 H 0.8718(5) 0.4824(6) 0.3828(3)
C18 C 0.9265(5) 0.4279(6) 0.3047(3)
H18 H 1.0043(5) 0.4526(6) 0.3153(3)
H19 H 0.8836(5) 0.4964(6) 0.2793(3)
C19 C 0.8918(6) 0.3064(6) 0.2009(3)
C20 C 0.9871(6) 0.3490(8) 0.1773(4)
H20 H 1.0507(6) 0.2939(8) 0.1966(4)
C21 C 0.9728(8) 0.3475(10) 0.1067(4)
C22 C 0.7429(5) 0.2468(7) 0.3874(3)
C23 C 0.7344(7) 0.3206(8) 0.4453(3)
H21 H 0.8095(7) 0.3354(8) 0.4712(3)
C24 C 0.6674(7) 0.2521(10) 0.4850(4)
F16 F 0.8639(3) 0.1808(4) 0.1754(2)
F17 F 0.8038(3) 0.3821(4) 0.1774(2)
F18 F 1.0106(4) 0.4718(4) 0.1971(2)
F19 F 0.9639(5) 0.2286(6) 0.0853(2)
F20 F 1.0569(4) 0.3991(6) 0.0927(2)
F21 F 0.8822(5) 0.4051(7) 0.0766(2)
F22 F 0.8185(3) 0.1526(4) 0.4083(2)
F23 F 0.6489(3) 0.1855(4) 0.3598(2)
F24 F 0.6864(5) 0.4358(5) 0.4293(2)
F25 F 0.5648(4) 0.2436(6) 0.4594(2)
F26 F 0.7062(4) 0.1346(6) 0.4990(2)
F27 F 0.6796(5) 0.3144(6) 0.5383(2)
C8? C 0.3066(18) 0.3950(21) 0.2991(10)
C9? C 0.2943(18) 0.2844(22) 0.3439(9)
H10? H 0.2284(18) 0.2341(22) 0.3232(9)
F1? F 0.3936(17) 0.4701(19) 0.3249(9)
F2? F 0.2174(18) 0.4754(21) 0.2928(11)
F12? F 0.5754(35) 0.4607(30) 0.0869(20)
loop_
_geom_bond_atom_site_label_1
_geom_bond_atom_site_label_2
_geom_bond_site_symmetry_1
_geom_bond_site_symmetry_2
O1 H1 1_555 1_555
O2 H2 1_555 1_555
C1 O1 1_555 1_555
C2 C1 1_555 1_555
H3 C2 1_555 1_555
H4 C2 1_555 1_555
C3 O2 1_555 1_555
C4 C3 1_555 1_555
H5 C4 1_555 1_555
H6 C4 1_555 1_555
C5 C1 1_555 1_555
H7 C5 1_555 1_555
H8 C5 1_555 1_555
C6 C1 1_555 1_555
C7 C6 1_555 1_555
H9 C7 1_555 1_555
C10 C7 1_555 1_555
C11 C3 1_555 1_555
C12 C11 1_555 1_555
H11 C12 1_555 1_555
C13 C12 1_555 1_555
F3 C6 1_555 1_555
F4 C6 1_555 1_555
F5 C7 1_555 1_555
F6 C10 1_555 1_555
F7 C10 1_555 1_555
F8 C10 1_555 1_555
F9 C11 1_555 1_555
F10 C11 1_555 1_555
F11 C12 1_555 1_555
F13 C13 1_555 1_555
F14 C13 1_555 1_555
F15 C13 1_555 1_555
O3 H12 1_555 1_555
O4 H13 1_555 1_555
C14 O3 1_555 1_555
C15 C14 1_555 1_555
H14 C15 1_555 1_555
H15 C15 1_555 1_555
C16 O4 1_555 1_555
C17 C16 1_555 1_555
H16 C17 1_555 1_555
H17 C17 1_555 1_555
C18 C14 1_555 1_555
H18 C18 1_555 1_555
H19 C18 1_555 1_555
C19 C14 1_555 1_555
C20 C19 1_555 1_555
H20 C20 1_555 1_555
C21 C20 1_555 1_555
C22 C16 1_555 1_555
C23 C22 1_555 1_555
H21 C23 1_555 1_555
C24 C23 1_555 1_555
F16 C19 1_555 1_555
F17 C19 1_555 1_555
F18 C20 1_555 1_555
F19 C21 1_555 1_555
F20 C21 1_555 1_555
F21 C21 1_555 1_555
F22 C22 1_555 1_555
F23 C22 1_555 1_555
F24 C23 1_555 1_555
F25 C24 1_555 1_555
F26 C24 1_555 1_555
F27 C24 1_555 1_555
C2 C3 1_555 1_555
C4 C5 1_555 1_555
C15 C16 1_555 1_555
C17 C18 1_555 1_555

#END
