
#######################################################################
#
#                 Cambridge Crystallographic Data Centre
#                                CCDC 
#
#######################################################################
#
# If this CIF has been generated from an entry in the Cambridge 
# Structural Database, then it will include bibliographic, chemical, 
# crystal, experimental, refinement or atomic coordinate data resulting 
# from the CCDC's data processing and validation procedures.
#
#######################################################################

data_MARZOU
_chemical_formula_moiety         '3(C12 H12 F12 O2),2(C6 H12 O2)'
_chemical_name_systematic        
'tris(trans-1,4-bis(1,1,2,3,3,3-Hexafluoropropyl)cyclohexane-1,4-diol) bis(4-hydroxy-4-methylpentan-2-one)'
_symmetry_cell_setting           triclinic
_symmetry_space_group_name_H-M   'P -1'
_symmetry_Int_Tables_number      2
_space_group_name_Hall           '-P 1'
loop_
_symmetry_equiv_pos_site_id
_symmetry_equiv_pos_as_xyz
1 x,y,z
2 -x,-y,-z
_cell_length_a                   10.709(4)
_cell_length_b                   10.853(3)
_cell_length_c                   13.926(4)
_cell_angle_alpha                106.98(1)
_cell_angle_beta                 99.83(2)
_cell_angle_gamma                91.33(1)
_cell_volume                     1520.67
_exptl_crystal_colour            colorless
_exptl_crystal_description       plate
_cell_formula_units_Z            1
loop_
_atom_site_label
_atom_site_type_symbol
_atom_site_fract_x
_atom_site_fract_y
_atom_site_fract_z
O1 O 0.5318(3) 0.4070(3) 0.1290(3)
H1 H 0.5693 0.3231 0.1121
C1 C 0.5971(5) 0.4920(4) 0.0883(4)
C2 C 0.5170(5) 0.6095(5) 0.0946(4)
H2 H 0.5037 0.6474 0.1656
H3 H 0.5644 0.6759 0.0760
C3 C 0.6116(5) 0.4268(5) -0.0220(4)
H4 H 0.6622 0.4867 -0.0448
H5 H 0.6584 0.3484 -0.0254
C4 C 0.7273(5) 0.5328(5) 0.1569(4)
C5 C 0.7261(7) 0.6038(8) 0.2698(5)
H6 H 0.6418 0.5866 0.2938
C6 C 0.8470(7) 0.6029(8) 0.3446(6)
F1 F 0.7954(3) 0.4256(3) 0.1501(3)
F2 F 0.7966(3) 0.6137(3) 0.1233(3)
F3 F 0.7101(4) 0.7344(4) 0.2804(3)
F4 F 0.8578(5) 0.4836(4) 0.3552(4)
F7 F 0.9522(3) 0.6367(4) 0.3174(3)
F8 F 0.8411(4) 0.6821(4) 0.4371(3)
C3A C 0.3884(5) 0.5732(5) 0.0220(4)
C1A C 0.4029(5) 0.5080(4) -0.0883(4)
O1A O 0.4682(3) 0.5930(3) -0.1290(3)
H1A H 0.4307 0.6769 -0.1121
C2A C 0.4830(5) 0.3905(5) -0.0946(4)
H2A H 0.4963 0.3526 -0.1656
H3A H 0.4356 0.3241 -0.0760
C4A C 0.2727(5) 0.4672(5) -0.1569(4)
C5A C 0.2739(7) 0.3962(8) -0.2698(5)
H6A H 0.3582 0.4134 -0.2938
C6A C 0.1530(7) 0.3971(8) -0.3446(6)
F4A F 0.1422(5) 0.5164(4) -0.3552(4)
F7A F 0.0478(3) 0.3633(4) -0.3174(3)
F8A F 0.1589(4) 0.3179(4) -0.4371(3)
F3A F 0.2899(4) 0.2656(4) -0.2804(3)
F1A F 0.2046(3) 0.5744(3) -0.1501(3)
F2A F 0.2034(3) 0.3863(3) -0.1233(3)
H4A H 0.3378 0.5133 0.0448
H5A H 0.3416 0.6516 0.0254
O2 O 0.3525(4) 0.8255(3) 0.4618(3)
H7 H 0.3332 0.8417 0.5206
C9 C 0.3723(6) 0.9434(5) 0.4365(4)
C10 C 0.4938(6) 0.9344(5) 0.3899(4)
H8 H 0.4869 0.8534 0.3327
H9 H 0.5014 1.0080 0.3622
C11 C 0.3869(6) 1.0621(5) 0.5312(4)
H10 H 0.3109 1.0637 0.5632
H11 H 0.3912 1.1406 0.5090
C12 C 0.2517(6) 0.9502(5) 0.3589(5)
C13 C 0.2088(7) 0.8329(7) 0.2684(5)
H12 H 0.2306 0.7240 0.2618
C14 C 0.0884(7) 0.8416(7) 0.1939(6)
F9 F 0.2676(4) 1.0573(3) 0.3291(3)
F10 F 0.1493(4) 0.9702(4) 0.4101(3)
F11 F 0.3037(5) 0.8123(5) 0.2100(4)
F12 F 0.0946(4) 0.9431(4) 0.1596(3)
F13 F 0.0673(5) 0.7365(5) 0.1152(4)
F14 F -0.0137(4) 0.8548(5) 0.2396(4)
C11A C 0.6131(6) 0.9379(5) 0.4688(4)
C9A C 0.6277(6) 1.0566(5) 0.5635(4)
O2A O 0.6475(4) 1.1745(3) 0.5382(3)
H7A H 0.6668 1.1583 0.4794
C10A C 0.5062(6) 1.0656(5) 0.6101(4)
H8A H 0.5131 1.1466 0.6673
H9A H 0.4986 0.9920 0.6378
C12A C 0.7483(6) 1.0498(5) 0.6411(5)
C13A C 0.7912(7) 1.1671(7) 0.7316(5)
H12A H 0.7694 1.2760 0.7382
C14A C 0.9116(7) 1.1584(7) 0.8061(6)
F12A F 0.9054(4) 1.0569(4) 0.8404(3)
F13A F 0.9327(5) 1.2635(5) 0.8848(4)
F14A F 1.0137(4) 1.1452(5) 0.7604(4)
F11A F 0.6963(5) 1.1877(5) 0.7900(4)
F9A F 0.7324(4) 0.9427(3) 0.6709(3)
F10A F 0.8507(4) 1.0298(4) 0.5899(3)
H10A H 0.6891 0.9363 0.4368
H11A H 0.6088 0.8594 0.4910
O3 O 0.4512(4) 0.5922(3) 0.3717(3)
H13 H 0.4154 0.6607 0.3923
C15 C 0.4018(5) 0.4927(5) 0.4072(4)
C16 C 0.3768(5) 0.5453(5) 0.5162(4)
H14 H 0.3136 0.6108 0.5183
H15 H 0.3394 0.4733 0.5350
C17 C 0.5038(5) 0.3946(5) 0.4043(4)
H16 H 0.5254 0.3654 0.3352
H17 H 0.4695 0.3181 0.4194
C18 C 0.2780(6) 0.4330(5) 0.3348(5)
C19 C 0.2894(7) 0.3685(8) 0.2209(6)
H18 H 0.3728 0.4353 0.2087
C20 C 0.1646(9) 0.3458(11) 0.1433(7)
F15 F 0.2258(3) 0.3368(3) 0.3636(3)
F16 F 0.1917(3) 0.5246(3) 0.3404(3)
F17 F 0.3353(4) 0.2464(4) 0.2092(3)
F19 F 0.0704(4) 0.2922(5) 0.1704(3)
F20 F 0.1257(5) 0.4577(5) 0.1318(4)
F22 F 0.1815(4) 0.2780(4) 0.0528(3)
C17A C 0.4962(5) 0.6054(5) 0.5957(4)
C15A C 0.5982(5) 0.5073(5) 0.5928(4)
O3A O 0.5488(4) 0.4078(3) 0.6283(3)
H13A H 0.5846 0.3393 0.6077
C16A C 0.6232(5) 0.4547(5) 0.4838(4)
H14A H 0.6864 0.3892 0.4817
H15A H 0.6606 0.5267 0.4650
C18A C 0.7220(6) 0.5670(5) 0.6652(5)
C19A C 0.7106(7) 0.6315(8) 0.7791(6)
H18A H 0.6272 0.5647 0.7913
C20A C 0.8354(9) 0.6542(11) 0.8567(7)
F19A F 0.9296(4) 0.7078(5) 0.8296(3)
F20A F 0.8743(5) 0.5423(5) 0.8682(4)
F22A F 0.8185(4) 0.7220(4) 0.9472(3)
F17A F 0.6647(4) 0.7536(4) 0.7908(3)
F15A F 0.7742(3) 0.6632(3) 0.6364(3)
F16A F 0.8083(3) 0.4754(3) 0.6596(3)
H16A H 0.4746 0.6346 0.6648
H17A H 0.5305 0.6819 0.5806
O4 O 0.3067(4) 0.8534(4) 0.6592(3)
O5 O 0.4014(4) 0.8384(3) 0.8632(3)
H19 H 0.4233 0.8166 0.8057
C23 C 0.0840(7) 0.8085(8) 0.6006(6)
H20 H 0.0432 0.8871 0.5962
H21 H 0.0247 0.7512 0.6175
H22 H 0.1073 0.7640 0.5348
C24 C 0.2014(6) 0.8436(5) 0.6818(5)
C25 C 0.1837(6) 0.8645(5) 0.7893(5)
H23 H 0.1558 0.7827 0.7951
H24 H 0.1159 0.9203 0.8011
C26 C 0.2980(6) 0.9213(5) 0.8755(4)
C27 C 0.3434(7) 1.0583(5) 0.8779(5)
H25 H 0.4148 1.0904 0.9327
H26 H 0.3686 1.0544 0.8142
H27 H 0.2762 1.1151 0.8883
C28 C 0.2634(7) 0.9239(7) 0.9774(5)
H28 H 0.2340 0.8388 0.9756
H29 H 0.3376 0.9538 1.0299
H30 H 0.1978 0.9816 0.9917
C7? C 0.736(4) 0.556(2) 0.2723(15)
C8? C 0.835(2) 0.664(2) 0.3385(15)
F5? F 0.7591(18) 0.4510(16) 0.3038(14)
F6? F 0.805(2) 0.7763(17) 0.3247(15)
C21? C 0.277(2) 0.4205(18) 0.2227(12)
C22? C 0.1869(18) 0.309(2) 0.1530(14)
F18? F 0.2413(16) 0.5290(15) 0.2010(13)
F21? F 0.222(2) 0.198(2) 0.1640(17)
loop_
_geom_bond_atom_site_label_1
_geom_bond_atom_site_label_2
_geom_bond_site_symmetry_1
_geom_bond_site_symmetry_2
O1 H1 1_555 1_555
C1 O1 1_555 1_555
C2 C1 1_555 1_555
H2 C2 1_555 1_555
H3 C2 1_555 1_555
C3 C1 1_555 1_555
H4 C3 1_555 1_555
H5 C3 1_555 1_555
C4 C1 1_555 1_555
C5 C4 1_555 1_555
H6 C5 1_555 1_555
C6 C5 1_555 1_555
F1 C4 1_555 1_555
F2 C4 1_555 1_555
F3 C5 1_555 1_555
F4 C6 1_555 1_555
F7 C6 1_555 1_555
F8 C6 1_555 1_555
O2 H7 1_555 1_555
C9 O2 1_555 1_555
C10 C9 1_555 1_555
H8 C10 1_555 1_555
H9 C10 1_555 1_555
C11 C9 1_555 1_555
H10 C11 1_555 1_555
H11 C11 1_555 1_555
C12 C9 1_555 1_555
C13 C12 1_555 1_555
H12 C13 1_555 1_555
C14 C13 1_555 1_555
F9 C12 1_555 1_555
F10 C12 1_555 1_555
F11 C13 1_555 1_555
F12 C14 1_555 1_555
F13 C14 1_555 1_555
F14 C14 1_555 1_555
O3 H13 1_555 1_555
C15 O3 1_555 1_555
C16 C15 1_555 1_555
H14 C16 1_555 1_555
H15 C16 1_555 1_555
C17 C15 1_555 1_555
H16 C17 1_555 1_555
H17 C17 1_555 1_555
C18 C15 1_555 1_555
C19 C18 1_555 1_555
H18 C19 1_555 1_555
C20 C19 1_555 1_555
F15 C18 1_555 1_555
F16 C18 1_555 1_555
F17 C19 1_555 1_555
F19 C20 1_555 1_555
F20 C20 1_555 1_555
F22 C20 1_555 1_555
O4 C24 1_555 1_555
O5 H19 1_555 1_555
C23 H20 1_555 1_555
H21 C23 1_555 1_555
H22 C23 1_555 1_555
C24 C23 1_555 1_555
C25 C24 1_555 1_555
H23 C25 1_555 1_555
H24 C25 1_555 1_555
C26 O5 1_555 1_555
C27 C26 1_555 1_555
H25 C27 1_555 1_555
H26 C27 1_555 1_555
H27 C27 1_555 1_555
C28 C26 1_555 1_555
H28 C28 1_555 1_555
H29 C28 1_555 1_555
H30 C28 1_555 1_555
C3A C2 1_555 1_555
C1A C3A 1_555 1_555
O1A C1A 1_555 1_555
H1A O1A 1_555 1_555
C2A C3 1_555 1_555
H2A C2A 1_555 1_555
H3A C2A 1_555 1_555
C4A C1A 1_555 1_555
C5A C4A 1_555 1_555
H6A C5A 1_555 1_555
C6A C5A 1_555 1_555
F4A C6A 1_555 1_555
F7A C6A 1_555 1_555
F8A C6A 1_555 1_555
F3A C5A 1_555 1_555
F1A C4A 1_555 1_555
F2A C4A 1_555 1_555
H4A C3A 1_555 1_555
H5A C3A 1_555 1_555
C11A C10 1_555 1_555
C9A C11A 1_555 1_555
O2A C9A 1_555 1_555
H7A O2A 1_555 1_555
C10A C11 1_555 1_555
H8A C10A 1_555 1_555
H9A C10A 1_555 1_555
C12A C9A 1_555 1_555
C13A C12A 1_555 1_555
H12A C13A 1_555 1_555
C14A C13A 1_555 1_555
F12A C14A 1_555 1_555
F13A C14A 1_555 1_555
F14A C14A 1_555 1_555
F11A C13A 1_555 1_555
F9A C12A 1_555 1_555
F10A C12A 1_555 1_555
H10A C11A 1_555 1_555
H11A C11A 1_555 1_555
C17A C16 1_555 1_555
C15A C17A 1_555 1_555
O3A C15A 1_555 1_555
H13A O3A 1_555 1_555
C16A C17 1_555 1_555
H14A C16A 1_555 1_555
H15A C16A 1_555 1_555
C18A C15A 1_555 1_555
C19A C18A 1_555 1_555
H18A C19A 1_555 1_555
C20A C19A 1_555 1_555
F19A C20A 1_555 1_555
F20A C20A 1_555 1_555
F22A C20A 1_555 1_555
F17A C19A 1_555 1_555
F15A C18A 1_555 1_555
F16A C18A 1_555 1_555
H16A C17A 1_555 1_555
H17A C17A 1_555 1_555
C25 C26 1_555 1_555
C1A C2A 1_555 1_555
C9A C10A 1_555 1_555
C15A C16A 1_555 1_555

#END
