
#######################################################################
#
#                 Cambridge Crystallographic Data Centre
#                                CCDC 
#
#######################################################################
#
# If this CIF has been generated from an entry in the Cambridge 
# Structural Database, then it will include bibliographic, chemical, 
# crystal, experimental, refinement or atomic coordinate data resulting 
# from the CCDC's data processing and validation procedures.
#
#######################################################################

data_MARZIO
_chemical_formula_moiety         'C12 H12 F12 O2'
_chemical_name_systematic        
trans-1,4-bis(1,1,2,3,3,3-Hexafluoropropyl)cyclohexane-1,4-diol
_symmetry_cell_setting           monoclinic
_symmetry_space_group_name_H-M   'P n'
_symmetry_Int_Tables_number      7
_space_group_name_Hall           'P -2yac'
loop_
_symmetry_equiv_pos_site_id
_symmetry_equiv_pos_as_xyz
1 x,y,z
2 1/2+x,-y,1/2+z
_cell_length_a                   14.6732(16)
_cell_length_b                   10.8011(19)
_cell_length_c                   18.8818(17)
_cell_angle_alpha                90
_cell_angle_beta                 90.904(8)
_cell_angle_gamma                90
_cell_volume                     2992.14
_exptl_crystal_colour            colorless
_exptl_crystal_description       plate
_chemical_melting_point          378-380K
_cell_formula_units_Z            8
loop_
_atom_site_label
_atom_site_type_symbol
_atom_site_fract_x
_atom_site_fract_y
_atom_site_fract_z
O1 O 0.6902(9) 0.9065(12) 0.2292(7)
H1 H 0.6678 0.9012 0.1882
O2 O 0.8796(9) 0.6195(12) 0.3270(7)
H2 H 0.9063 0.5634 0.3045
C1 C 0.6870(15) 0.787(2) 0.2660(11)
C2 C 0.7424(15) 0.701(2) 0.2172(11)
H3 H 0.7183 0.7061 0.1697
H4 H 0.7314 0.6187 0.2339
C3 C 0.8451(13) 0.7160(19) 0.2155(10)
H5 H 0.8725 0.6445 0.1943
H6 H 0.8574 0.7858 0.1856
C4 C 0.8855(15) 0.738(2) 0.2882(11)
C5 C 0.8390(14) 0.8216(19) 0.3326(11)
H7 H 0.8490 0.9050 0.3170
H8 H 0.8628 0.8149 0.3801
C6 C 0.7390(12) 0.8073(17) 0.3344(9)
H9 H 0.7113 0.8733 0.3605
H10 H 0.7298 0.7327 0.3610
C7 C 0.5903(14) 0.756(2) 0.2685(11)
C8 C 0.5301(17) 0.824(3) 0.3079(14)
C9 C 0.4314(17) 0.8052(14) 0.3072(7)
C10 C 0.9921(13) 0.7571(18) 0.2818(10)
C11 C 1.0462(13) 0.7749(16) 0.3450(8)
H11 H 1.0302 0.7075 0.3789
C12 C 1.1480(19) 0.7706(14) 0.3358(8)
F1 F 0.5528(9) 0.7218(15) 0.2061(7)
F2 F 0.5816(9) 0.6494(16) 0.3084(9)
F3 F 0.5553(19) 0.826(2) 0.3825(14)
F4 F 0.3926(15) 0.771(2) 0.2469(10)
F5 F 0.4036(19) 0.721(3) 0.3521(14)
F6 F 0.3828(19) 0.904(3) 0.3247(18)
F11 F 1.0263(10) 0.6807(17) 0.2366(7)
F12 F 0.9958(10) 0.8717(11) 0.2433(6)
F13 F 1.0270(9) 0.8882(11) 0.3780(7)
F14 F 1.1749(10) 0.6562(14) 0.3219(8)
F15 F 1.1941(9) 0.8026(15) 0.3929(6)
F16 F 1.1767(10) 0.8402(16) 0.2849(7)
O3 O 0.1018(9) 0.8372(12) 0.0973(6)
H12 H 0.0730 0.8368 0.1354
O4 O 0.3067(11) 1.1282(12) 0.0265(7)
H13 H 0.3088 1.1862 0.0562
C13 C 0.1038(14) 0.9691(18) 0.0698(10)
C14 C 0.1585(13) 0.9437(18) 0.0002(10)
H14 H 0.1506 1.0142 -0.0303
H15 H 0.1308 0.8739 -0.0230
C15 C 0.2568(14) 0.9213(18) 0.0097(10)
H16 H 0.2851 0.9265 -0.0357
H17 H 0.2650 0.8383 0.0269
C16 C 0.3054(13) 1.0072(18) 0.0632(10)
C17 C 0.2550(14) 1.0195(19) 0.1316(10)
H18 H 0.2820 1.0824 0.1612
H19 H 0.2596 0.9420 0.1563
C18 C 0.1591(16) 1.045(2) 0.1205(12)
H20 H 0.1277 1.0394 0.1647
H21 H 0.1553 1.1291 0.1048
C19 C 0.0132(14) 0.9975(19) 0.0596(10)
C20 C -0.0548(17) 0.9316(19) 0.0046(11)
H22 H -0.0486 0.8421 0.0173
C21 C -0.1505(16) 0.9523(14) 0.0090(7)
C22 C 0.4026(15) 0.971(2) 0.0794(11)
C23 C 0.4701(14) 0.9603(16) 0.0180(9)
H23 H 0.4595 1.0352 -0.0121
C24 C 0.5705(19) 0.9581(14) 0.0337(8)
F17 F -0.0330(10) 1.0126(17) 0.1187(7)
F18 F 0.0058(9) 1.1237(13) 0.0336(7)
F19 F -0.0259(9) 0.9349(17) -0.0589(7)
F20 F -0.1943(9) 0.9073(16) -0.0466(8)
F21 F -0.1873(11) 0.8980(15) 0.0639(8)
F22 F -0.1729(8) 1.0694(13) 0.0128(7)
F23 F 0.4071(9) 0.8551(11) 0.1091(7)
F24 F 0.4418(8) 1.0468(12) 0.1289(5)
F25 F 0.4503(9) 0.8611(13) -0.0247(6)
F26 F 0.6144(7) 0.9372(14) -0.0232(6)
F27 F 0.5928(9) 0.8807(18) 0.0801(7)
F28 F 0.5983(10) 1.0643(15) 0.0558(10)
O5 O 0.7055(9) 0.1232(12) 0.3144(6)
H24 H 0.6790 0.0705 0.2886
O6 O 0.9101(10) 0.4099(12) 0.2406(7)
H25 H 0.9385 0.4054 0.2024
C25 C 0.7045(14) 0.2453(19) 0.2780(10)
C26 C 0.7582(13) 0.2291(19) 0.2079(10)
H26 H 0.7537 0.3029 0.1796
H27 H 0.7296 0.1633 0.1816
C27 C 0.8571(11) 0.1994(16) 0.2199(8)
H28 H 0.8866 0.2008 0.1748
H29 H 0.8621 0.1169 0.2385
C28 C 0.9039(13) 0.2890(17) 0.2740(9)
C29 C 0.8543(12) 0.2954(17) 0.3407(9)
H30 H 0.8814 0.3567 0.3712
H31 H 0.8597 0.2168 0.3642
C30 C 0.7509(11) 0.3280(16) 0.3303(9)
H32 H 0.7205 0.3166 0.3745
H33 H 0.7446 0.4134 0.3170
C31 C 0.6033(15) 0.268(2) 0.2636(11)
C32 C 0.5414(15) 0.268(2) 0.3240(11)
H34 H 0.5531 0.1949 0.3554
C33 C 0.4397(6) 0.2836(9) 0.3077(4)
F32 F 0.4265(6) 0.3632(10) 0.2585(6)
F33 F 0.3967(6) 0.3165(9) 0.3630(6)
F34 F 0.4143(6) 0.1561(13) 0.2844(5)
C34 C 1.0032(12) 0.2456(17) 0.2875(9)
C35 C 1.0604(15) 0.3075(17) 0.3408(10)
H35 H 1.0421 0.2723 0.3875
C36 C 1.162(2) 0.2868(15) 0.3374(8)
F35 F 0.6040(8) 0.3832(12) 0.2284(6)
F36 F 0.5675(10) 0.1903(14) 0.2133(8)
F37 F 0.5604(11) 0.387(3) 0.3585(10)
F38 F 1.0041(9) 0.1275(9) 0.3067(7)
F39 F 1.0495(8) 0.2494(11) 0.2220(6)
F40 F 1.0461(10) 0.4236(16) 0.3475(10)
F41 F 1.1808(10) 0.1683(13) 0.3332(7)
F42 F 1.2025(10) 0.3285(15) 0.3948(6)
F43 F 1.1976(9) 0.3414(15) 0.2825(7)
O7 O 0.3258(11) 0.3407(11) 0.1114(7)
H36 H 0.3209 0.3520 0.1552
O8 O 0.1353(10) 0.6290(12) 0.0152(7)
H37 H 0.1348 0.6870 0.0448
C37 C 0.3278(13) 0.4619(17) 0.0762(10)
C38 C 0.2779(13) 0.5558(17) 0.1211(10)
H38 H 0.2846 0.6376 0.1021
H39 H 0.3041 0.5554 0.1680
C39 C 0.1780(13) 0.5211(19) 0.1260(10)
H40 H 0.1709 0.4430 0.1496
H41 H 0.1479 0.5832 0.1535
C40 C 0.1300(12) 0.5139(16) 0.0534(9)
C41 C 0.1796(12) 0.4165(16) 0.0084(9)
H42 H 0.1539 0.4152 -0.0387
H43 H 0.1691 0.3370 0.0295
C42 C 0.2815(13) 0.4442(18) 0.0045(10)
H44 H 0.2919 0.5133 -0.0262
H45 H 0.3095 0.3729 -0.0163
C43 C 0.4241(16) 0.492(2) 0.0737(12)
C44 C 0.4953(14) 0.3881(18) 0.0560(10)
H46 H 0.4979 0.3315 0.0979
C45 C 0.598(2) 0.4321(14) 0.0374(7)
C46 C 0.0290(13) 0.4857(19) 0.0629(10)
C47 C -0.0330(18) 0.4682(19) -0.0038(11)
H47 H -0.0221 0.5434 -0.0333
C48 C -0.1326(18) 0.4725(14) 0.0063(7)
F44 F 0.4364(13) 0.5989(15) 0.0272(8)
F45 F 0.4548(10) 0.5364(12) 0.1340(6)
F46 F 0.4642(9) 0.3288(17) -0.0015(10)
F47 F 0.6470(10) 0.3261(13) 0.0427(8)
F48 F 0.6250(10) 0.5031(13) 0.0884(7)
F49 F 0.6010(11) 0.4729(14) -0.0235(7)
F53 F 0.0209(9) 0.3783(15) 0.0995(7)
F54 F -0.0083(7) 0.5741(12) 0.1040(5)
F55 F -0.0126(10) 0.388(2) -0.0433(10)
F56 F -0.1792(8) 0.4385(13) -0.0497(7)
F57 F -0.1611(10) 0.5858(14) 0.0199(8)
F58 F -0.1601(11) 0.4069(16) 0.0596(7)
F7? F 0.5493(15) 0.934(2) 0.3348(11)
F8? F 0.4058(19) 0.692(2) 0.2882(16)
F9? F 0.3912(14) 0.821(2) 0.3675(10)
F10? F 0.3878(18) 0.877(3) 0.2619(14)
F29? F 0.4294(6) 0.3979(12) 0.2918(4)
F30? F 0.3977(6) 0.2660(9) 0.3656(6)
F31? F 0.4009(6) 0.2251(10) 0.2632(5)
F50? F 0.5942(19) 0.5545(16) 0.0338(16)
F51? F 0.621(3) 0.393(3) 0.0957(11)
F52? F 0.631(3) 0.389(3) -0.0192(12)
loop_
_geom_bond_atom_site_label_1
_geom_bond_atom_site_label_2
_geom_bond_site_symmetry_1
_geom_bond_site_symmetry_2
O1 H1 1_555 1_555
O2 H2 1_555 1_555
C1 O1 1_555 1_555
C2 C1 1_555 1_555
H3 C2 1_555 1_555
H4 C2 1_555 1_555
C3 C2 1_555 1_555
H5 C3 1_555 1_555
H6 C3 1_555 1_555
C4 O2 1_555 1_555
C5 C4 1_555 1_555
H7 C5 1_555 1_555
H8 C5 1_555 1_555
C6 C1 1_555 1_555
H9 C6 1_555 1_555
H10 C6 1_555 1_555
C7 C1 1_555 1_555
C8 C7 1_555 1_555
C9 C8 1_555 1_555
C10 C4 1_555 1_555
C11 C10 1_555 1_555
H11 C11 1_555 1_555
C12 C11 1_555 1_555
F1 C7 1_555 1_555
F2 C7 1_555 1_555
F3 C8 1_555 1_555
F4 C9 1_555 1_555
F5 C9 1_555 1_555
F6 C9 1_555 1_555
F11 C10 1_555 1_555
F12 C10 1_555 1_555
F13 C11 1_555 1_555
F14 C12 1_555 1_555
F15 C12 1_555 1_555
F16 C12 1_555 1_555
O3 H12 1_555 1_555
O4 H13 1_555 1_555
C13 O3 1_555 1_555
C14 C13 1_555 1_555
H14 C14 1_555 1_555
H15 C14 1_555 1_555
C15 C14 1_555 1_555
H16 C15 1_555 1_555
H17 C15 1_555 1_555
C16 O4 1_555 1_555
C17 C16 1_555 1_555
H18 C17 1_555 1_555
H19 C17 1_555 1_555
C18 C13 1_555 1_555
H20 C18 1_555 1_555
H21 C18 1_555 1_555
C19 C13 1_555 1_555
C20 C19 1_555 1_555
H22 C20 1_555 1_555
C21 C20 1_555 1_555
C22 C16 1_555 1_555
C23 C22 1_555 1_555
H23 C23 1_555 1_555
C24 C23 1_555 1_555
F17 C19 1_555 1_555
F18 C19 1_555 1_555
F19 C20 1_555 1_555
F20 C21 1_555 1_555
F21 C21 1_555 1_555
F22 C21 1_555 1_555
F23 C22 1_555 1_555
F24 C22 1_555 1_555
F25 C23 1_555 1_555
F26 C24 1_555 1_555
F27 C24 1_555 1_555
F28 C24 1_555 1_555
O5 H24 1_555 1_555
O6 H25 1_555 1_555
C25 O5 1_555 1_555
C26 C25 1_555 1_555
H26 C26 1_555 1_555
H27 C26 1_555 1_555
C27 C26 1_555 1_555
H28 C27 1_555 1_555
H29 C27 1_555 1_555
C28 O6 1_555 1_555
C29 C28 1_555 1_555
H30 C29 1_555 1_555
H31 C29 1_555 1_555
C30 C25 1_555 1_555
H32 C30 1_555 1_555
H33 C30 1_555 1_555
C31 C25 1_555 1_555
C32 C31 1_555 1_555
H34 C32 1_555 1_555
C33 C32 1_555 1_555
F32 C33 1_555 1_555
F33 C33 1_555 1_555
F34 C33 1_555 1_555
C34 C28 1_555 1_555
C35 C34 1_555 1_555
H35 C35 1_555 1_555
C36 C35 1_555 1_555
F35 C31 1_555 1_555
F36 C31 1_555 1_555
F37 C32 1_555 1_555
F38 C34 1_555 1_555
F39 C34 1_555 1_555
F40 C35 1_555 1_555
F41 C36 1_555 1_555
F42 C36 1_555 1_555
F43 C36 1_555 1_555
O7 H36 1_555 1_555
O8 H37 1_555 1_555
C37 O7 1_555 1_555
C38 C37 1_555 1_555
H38 C38 1_555 1_555
H39 C38 1_555 1_555
C39 C38 1_555 1_555
H40 C39 1_555 1_555
H41 C39 1_555 1_555
C40 O8 1_555 1_555
C41 C40 1_555 1_555
H42 C41 1_555 1_555
H43 C41 1_555 1_555
C42 C37 1_555 1_555
H44 C42 1_555 1_555
H45 C42 1_555 1_555
C43 C37 1_555 1_555
C44 C43 1_555 1_555
H46 C44 1_555 1_555
C45 C44 1_555 1_555
C46 C40 1_555 1_555
C47 C46 1_555 1_555
H47 C47 1_555 1_555
C48 C47 1_555 1_555
F44 C43 1_555 1_555
F45 C43 1_555 1_555
F46 C44 1_555 1_555
F47 C45 1_555 1_555
F48 C45 1_555 1_555
F49 C45 1_555 1_555
F53 C46 1_555 1_555
F54 C46 1_555 1_555
F55 C47 1_555 1_555
F56 C48 1_555 1_555
F57 C48 1_555 1_555
F58 C48 1_555 1_555
C3 C4 1_555 1_555
C5 C6 1_555 1_555
C15 C16 1_555 1_555
C17 C18 1_555 1_555
C27 C28 1_555 1_555
C29 C30 1_555 1_555
C39 C40 1_555 1_555
C41 C42 1_555 1_555

#END
