
#######################################################################
#
#                 Cambridge Crystallographic Data Centre
#                                CCDC 
#
#######################################################################
#
# If this CIF has been generated from an entry in the Cambridge 
# Structural Database, then it will include bibliographic, chemical, 
# crystal, experimental, refinement or atomic coordinate data resulting 
# from the CCDC's data processing and validation procedures.
#
#######################################################################

data_MASMUR
_chemical_compound_source        
'leaves of Myrtus communis Variegata (Myrtaceae)'
_chemical_name_common            'myrtucomvalone A'
_chemical_formula_moiety         'C29 H44 O3'
_chemical_name_systematic        
(2S,3a'R,3b'R,4R,4'S,7'R,7a'R)-6,6,7',8,8-pentamethyl-4,4'-di-isopropyl-1',2',3a',3b',4,4',5',6',7',8-decahydrospiro[1-benzopyran-2,3'-cyclopenta[1,3]cyclopropa[1,2]benzene]-5,7(3H,6H)-dione
_chemical_properties_biological  
'inhibitory activity against respiratory syncytial virus (RSV)'
_symmetry_cell_setting           orthorhombic
_symmetry_space_group_name_H-M   'P 21 21 21'
_symmetry_Int_Tables_number      19
_space_group_name_Hall           'P 2ac 2ab'
loop_
_symmetry_equiv_pos_site_id
_symmetry_equiv_pos_as_xyz
1 x,y,z
2 1/2-x,-y,1/2+z
3 -x,1/2+y,1/2-z
4 1/2+x,1/2-y,-z
_cell_length_a                   6.00560(10)
_cell_length_b                   18.0532(4)
_cell_length_c                   23.3138(5)
_cell_angle_alpha                90
_cell_angle_beta                 90
_cell_angle_gamma                90
_cell_volume                     2527.69
_exptl_crystal_colour            colorless
_exptl_crystal_description       block
_cell_formula_units_Z            4
loop_
_atom_site_label
_atom_site_type_symbol
_atom_site_fract_x
_atom_site_fract_y
_atom_site_fract_z
O1 O 0.5196(2) 0.93158(7) 0.94419(5)
O2 O 0.4939(3) 0.70027(8) 0.85182(7)
O3 O 0.9183(2) 0.88853(8) 0.77661(6)
C1 C 0.6851(3) 1.01465(11) 1.05645(8)
C2 C 0.8748(3) 0.96694(12) 1.03467(8)
H1 H 0.846111 0.915044 1.042499
H2 H 1.013800 0.980897 1.052920
C3 C 0.8860(3) 0.98095(11) 0.96967(8)
H3 H 0.986677 1.021499 0.961139
H4 H 0.936895 0.937002 0.949649
C4 C 0.6466(3) 1.00060(10) 0.95186(8)
C5 C 0.5468(3) 1.03597(10) 1.00460(8)
H5 H 0.384381 1.038149 1.008332
C6 C 0.6874(3) 1.09389(11) 1.03484(8)
H6 H 0.823153 1.108307 1.014370
C7 C 0.5738(3) 1.15655(11) 1.06778(8)
H7 H 0.429449 1.165198 1.049370
C8 C 0.5266(4) 1.13441(12) 1.13006(9)
H8 H 0.664665 1.135254 1.151642
H9 H 0.426318 1.170308 1.147122
C9 C 0.4232(4) 1.05747(12) 1.13426(9)
H10 H 0.290111 1.055658 1.110712
H11 H 0.379614 1.048075 1.173661
C10 C 0.5845(4) 0.99733(12) 1.11469(9)
H12 H 0.707425 0.996599 1.142342
C11 C 0.7086(3) 1.22856(11) 1.06199(8)
H13 H 0.730963 1.237015 1.020866
C12 C 0.5828(4) 1.29577(12) 1.08515(10)
H14 H 0.663682 1.340089 1.076024
H15 H 0.567996 1.291527 1.126022
H16 H 0.437668 1.297906 1.067970
C13 C 0.9391(4) 1.22506(12) 1.08926(10)
H17 H 0.924593 1.224625 1.130266
H18 H 1.024132 1.267561 1.077743
H19 H 1.013670 1.180800 1.076943
C14 C 0.4768(5) 0.92063(13) 1.11620(11)
H20 H 0.588080 0.883523 1.109279
H21 H 0.363977 0.917637 1.087118
H22 H 0.410598 0.912561 1.153162
C15 C 0.6281(3) 1.04467(10) 0.89696(8)
H23 H 0.701660 1.092086 0.901861
H24 H 0.472381 1.054025 0.888668
C16 C 0.6730(3) 0.92193(10) 0.85037(8)
C17 C 0.7578(3) 0.87167(10) 0.80614(8)
C18 C 0.6369(3) 0.79878(11) 0.79541(8)
C19 C 0.5383(3) 0.76542(10) 0.84979(8)
C20 C 0.4850(3) 0.81389(10) 0.90193(8)
C21 C 0.5652(3) 0.89286(10) 0.89573(8)
C22 C 0.7338(3) 1.00341(10) 0.84643(8)
H25 H 0.895884 1.007406 0.850317
C23 C 0.6685(4) 1.03690(11) 0.78765(9)
H26 H 0.737595 1.006069 0.757982
C24 C 0.4178(4) 1.03682(13) 0.77640(11)
H27 H 0.390024 1.051357 0.737441
H28 H 0.346333 1.071068 0.801954
H29 H 0.359593 0.987973 0.782729
C25 C 0.7625(4) 1.11467(12) 0.78101(10)
H30 H 0.695962 1.146751 0.809030
H31 H 0.729922 1.132848 0.743234
H32 H 0.920801 1.113495 0.786584
C26 C 0.4371(4) 0.81780(12) 0.75600(9)
H33 H 0.361422 0.773021 0.745352
H34 H 0.490075 0.842373 0.722132
H35 H 0.336021 0.849775 0.776112
C27 C 0.7904(4) 0.74252(11) 0.76659(10)
H36 H 0.708269 0.698211 0.758211
H37 H 0.911795 0.730933 0.791838
H38 H 0.847718 0.763070 0.731590
C28 C 0.5966(4) 0.77768(11) 0.95410(9)
H39 H 0.559243 0.804994 0.988089
H40 H 0.755228 0.777831 0.948970
H41 H 0.545187 0.727566 0.957863
C29 C 0.2306(3) 0.81368(12) 0.91004(9)
H42 H 0.161418 0.838246 0.878173
H43 H 0.193499 0.839150 0.944902
H44 H 0.178300 0.763500 0.912122
loop_
_geom_bond_atom_site_label_1
_geom_bond_atom_site_label_2
_geom_bond_site_symmetry_1
_geom_bond_site_symmetry_2
O1 C4 1_555 1_555
O2 C19 1_555 1_555
O3 C17 1_555 1_555
C1 C2 1_555 1_555
C2 H1 1_555 1_555
H2 C2 1_555 1_555
C3 C2 1_555 1_555
H3 C3 1_555 1_555
H4 C3 1_555 1_555
C4 C3 1_555 1_555
C5 C1 1_555 1_555
H5 C5 1_555 1_555
C6 C1 1_555 1_555
H6 C6 1_555 1_555
C7 C6 1_555 1_555
H7 C7 1_555 1_555
C8 C7 1_555 1_555
H8 C8 1_555 1_555
H9 C8 1_555 1_555
C9 C8 1_555 1_555
H10 C9 1_555 1_555
H11 C9 1_555 1_555
C10 C1 1_555 1_555
H12 C10 1_555 1_555
C11 C7 1_555 1_555
H13 C11 1_555 1_555
C12 C11 1_555 1_555
H14 C12 1_555 1_555
H15 C12 1_555 1_555
H16 C12 1_555 1_555
C13 C11 1_555 1_555
H17 C13 1_555 1_555
H18 C13 1_555 1_555
H19 C13 1_555 1_555
C14 C10 1_555 1_555
H20 C14 1_555 1_555
H21 C14 1_555 1_555
H22 C14 1_555 1_555
C15 C4 1_555 1_555
H23 C15 1_555 1_555
H24 C15 1_555 1_555
C16 C17 1_555 1_555
C17 C18 1_555 1_555
C18 C19 1_555 1_555
C19 C20 1_555 1_555
C20 C21 1_555 1_555
C21 O1 1_555 1_555
C22 C15 1_555 1_555
H25 C22 1_555 1_555
C23 C22 1_555 1_555
H26 C23 1_555 1_555
C24 C23 1_555 1_555
H27 C24 1_555 1_555
H28 C24 1_555 1_555
H29 C24 1_555 1_555
C25 C23 1_555 1_555
H30 C25 1_555 1_555
H31 C25 1_555 1_555
H32 C25 1_555 1_555
C26 C18 1_555 1_555
H33 C26 1_555 1_555
H34 C26 1_555 1_555
H35 C26 1_555 1_555
C27 C18 1_555 1_555
H36 C27 1_555 1_555
H37 C27 1_555 1_555
H38 C27 1_555 1_555
C28 C20 1_555 1_555
H39 C28 1_555 1_555
H40 C28 1_555 1_555
H41 C28 1_555 1_555
C29 C20 1_555 1_555
H42 C29 1_555 1_555
H43 C29 1_555 1_555
H44 C29 1_555 1_555
C4 C5 1_555 1_555
C5 C6 1_555 1_555
C9 C10 1_555 1_555
C16 C21 1_555 1_555
C16 C22 1_555 1_555

#END
