
#######################################################################
#
#                 Cambridge Crystallographic Data Centre
#                                CCDC 
#
#######################################################################
#
# If this CIF has been generated from an entry in the Cambridge 
# Structural Database, then it will include bibliographic, chemical, 
# crystal, experimental, refinement or atomic coordinate data resulting 
# from the CCDC's data processing and validation procedures.
#
#######################################################################

data_MASNIG
_chemical_name_common            '(7S)-(+)-crassalactone D'
_chemical_formula_moiety         'C13 H12 O4'
_chemical_name_systematic        
8-hydroxy-7-phenyl-1,6-dioxaspiro[4.4]non-3-en-2-one
_chemical_properties_biological  'cytotoxic activity'
_symmetry_cell_setting           orthorhombic
_symmetry_space_group_name_H-M   'P 21 21 21'
_symmetry_Int_Tables_number      19
_space_group_name_Hall           'P 2ac 2ab'
loop_
_symmetry_equiv_pos_site_id
_symmetry_equiv_pos_as_xyz
1 x,y,z
2 1/2-x,-y,1/2+z
3 1/2+x,1/2-y,-z
4 -x,1/2+y,1/2-z
_cell_length_a                   9.4219(8)
_cell_length_b                   10.2405(8)
_cell_length_c                   11.9593(11)
_cell_angle_alpha                90
_cell_angle_beta                 90
_cell_angle_gamma                90
_cell_volume                     1153.89
_exptl_crystal_colour            colorless
_exptl_crystal_description       needle
_chemical_melting_point          '170-175 deg.C'
_cell_formula_units_Z            4
loop_
_atom_site_label
_atom_site_type_symbol
_atom_site_fract_x
_atom_site_fract_y
_atom_site_fract_z
O1 O 0.35949(16) 0.94171(13) 0.16309(13)
O2 O 0.55195(15) 0.80214(15) 0.17005(13)
O3 O 0.51424(17) 0.95359(14) 0.38754(14)
H1 H 0.4487 0.9704 0.4303
O4 O 0.21596(18) 1.04100(16) 0.04186(15)
C1 C 0.2659(2) 0.9403(2) 0.0776(2)
C2 C 0.4055(2) 0.8073(2) 0.1866(2)
C3 C 0.7569(2) 0.87158(19) 0.2786(2)
C4 C 0.6257(2) 0.7888(2) 0.27556(18)
H2 H 0.6546 0.6973 0.2837
C5 C 0.5153(3) 0.8181(2) 0.36443(19)
H3 H 0.5334 0.7675 0.4325
C6 C 0.7960(3) 0.9522(2) 0.1916(2)
H4 H 0.7409 0.9553 0.1271
C7 C 0.3806(3) 0.7728(2) 0.3076(2)
H5 H 0.2983 0.8182 0.3370
H6 H 0.3672 0.6795 0.3168
C8 C 0.3262(3) 0.7302(2) 0.1017(2)
H7 H 0.3335 0.6403 0.0927
C9 C 0.8413(3) 0.8680(3) 0.3728(3)
H8 H 0.8167 0.8137 0.4320
C10 C 0.2446(3) 0.8063(2) 0.0414(2)
H9 H 0.1834 0.7791 -0.0150
C11 C 0.9624(3) 0.9441(3) 0.3800(3)
H10 H 1.0190 0.9404 0.4436
C12 C 0.9166(3) 1.0286(3) 0.1996(3)
H11 H 0.9420 1.0828 0.1405
C13 C 0.9985(3) 1.0249(3) 0.2934(3)
H12 H 1.0789 1.0772 0.2986
loop_
_geom_bond_atom_site_label_1
_geom_bond_atom_site_label_2
_geom_bond_site_symmetry_1
_geom_bond_site_symmetry_2
O1 C1 1_555 1_555
O2 C2 1_555 1_555
O3 H1 1_555 1_555
O4 C1 1_555 1_555
C1 C10 1_555 1_555
C2 O1 1_555 1_555
C3 C4 1_555 1_555
C4 O2 1_555 1_555
H2 C4 1_555 1_555
C5 O3 1_555 1_555
H3 C5 1_555 1_555
C6 C3 1_555 1_555
H4 C6 1_555 1_555
C7 C2 1_555 1_555
H5 C7 1_555 1_555
H6 C7 1_555 1_555
C8 C2 1_555 1_555
H7 C8 1_555 1_555
C9 C3 1_555 1_555
H8 C9 1_555 1_555
C10 C8 1_555 1_555
H9 C10 1_555 1_555
C11 C9 1_555 1_555
H10 C11 1_555 1_555
C12 C6 1_555 1_555
H11 C12 1_555 1_555
C13 C11 1_555 1_555
H12 C13 1_555 1_555
C4 C5 1_555 1_555
C5 C7 1_555 1_555
C12 C13 1_555 1_555

#END
