
#######################################################################
#
#                 Cambridge Crystallographic Data Centre
#                                CCDC 
#
#######################################################################
#
# If this CIF has been generated from an entry in the Cambridge 
# Structural Database, then it will include bibliographic, chemical, 
# crystal, experimental, refinement or atomic coordinate data resulting 
# from the CCDC's data processing and validation procedures.
#
#######################################################################

data_MASNEC
_chemical_name_common            '(4R,7S)-(+)-crassalactone D'
_chemical_formula_moiety         'C13 H12 O4'
_chemical_name_systematic        
8-hydroxy-7-phenyl-1,6-dioxaspiro[4.4]non-3-en-2-one
_chemical_properties_biological  'cytotoxic activity'
_symmetry_cell_setting           orthorhombic
_symmetry_space_group_name_H-M   'P 21 21 21'
_symmetry_Int_Tables_number      19
_space_group_name_Hall           'P 2ac 2ab'
loop_
_symmetry_equiv_pos_site_id
_symmetry_equiv_pos_as_xyz
1 x,y,z
2 1/2-x,-y,1/2+z
3 1/2+x,1/2-y,-z
4 -x,1/2+y,1/2-z
_cell_length_a                   5.886(6)
_cell_length_b                   10.601(8)
_cell_length_c                   17.834(19)
_cell_angle_alpha                90
_cell_angle_beta                 90
_cell_angle_gamma                90
_cell_volume                     1112.8
_exptl_crystal_colour            colorless
_exptl_crystal_description       prism
_chemical_melting_point          '139-141 deg.C'
_cell_formula_units_Z            4
loop_
_atom_site_label
_atom_site_type_symbol
_atom_site_fract_x
_atom_site_fract_y
_atom_site_fract_z
O1 O 0.0495(2) 0.64569(15) 0.32018(8)
O2 O 0.3414(3) 0.62879(14) 0.23424(8)
O3 O 0.6163(3) 0.40204(16) 0.25737(11)
H1 H 0.654(5) 0.333(2) 0.2682(15)
O4 O -0.0869(3) 0.7774(2) 0.40732(10)
C1 C 0.5316(4) 0.5555(2) 0.12252(14)
C2 C 0.3914(4) 0.4093(2) 0.23192(14)
H2 H 0.3452 0.3311 0.2069
C3 C 0.3583(4) 0.5235(2) 0.18092(12)
H3 H 0.2109 0.5146 0.1559
C4 C 0.4886(5) 0.5265(2) 0.04756(14)
H4 H 0.3543 0.4856 0.0347
C5 C 0.2311(4) 0.4421(2) 0.29603(14)
H5 H 0.2734 0.3982 0.3417
H6 H 0.0752 0.4212 0.2835
C6 C 0.2620(4) 0.5841(2) 0.30444(13)
C7 C 0.4094(4) 0.6290(2) 0.36646(14)
H7 H 0.5607 0.606 0.3727
C8 C 0.7316(4) 0.6163(2) 0.14019(14)
H8 H 0.7651 0.6353 0.1899
C9 C 0.0708(4) 0.7190(2) 0.38364(13)
C10 C 0.8814(4) 0.6489(2) 0.08429(15)
H9 H 1.0148 0.6913 0.0965
C11 C 0.2991(4) 0.7052(3) 0.41130(13)
H10 H 0.3583 0.7439 0.4538
C12 C 0.8364(5) 0.6197(3) 0.01051(15)
H11 H 0.939 0.6425 -0.0268
C13 C 0.6425(6) 0.5576(3) -0.00784(14)
H12 H 0.6135 0.5362 -0.0575
loop_
_geom_bond_atom_site_label_1
_geom_bond_atom_site_label_2
_geom_bond_site_symmetry_1
_geom_bond_site_symmetry_2
O1 C6 1_555 1_555
O2 C3 1_555 1_555
O3 H1 1_555 1_555
O4 C9 1_555 1_555
C1 C3 1_555 1_555
C2 O3 1_555 1_555
H2 C2 1_555 1_555
C3 C2 1_555 1_555
H3 C3 1_555 1_555
C4 C1 1_555 1_555
H4 C4 1_555 1_555
C5 C2 1_555 1_555
H5 C5 1_555 1_555
H6 C5 1_555 1_555
C6 O2 1_555 1_555
C7 C6 1_555 1_555
H7 C7 1_555 1_555
C8 C1 1_555 1_555
H8 C8 1_555 1_555
C9 O1 1_555 1_555
C10 C8 1_555 1_555
H9 C10 1_555 1_555
C11 C7 1_555 1_555
H10 C11 1_555 1_555
C12 C10 1_555 1_555
H11 C12 1_555 1_555
C13 C4 1_555 1_555
H12 C13 1_555 1_555
C5 C6 1_555 1_555
C9 C11 1_555 1_555
C12 C13 1_555 1_555

#END
