
#######################################################################
#
#                 Cambridge Crystallographic Data Centre
#                                CCDC 
#
#######################################################################
#
# If this CIF has been generated from an entry in the Cambridge 
# Structural Database, then it will include bibliographic, chemical, 
# crystal, experimental, refinement or atomic coordinate data resulting 
# from the CCDC's data processing and validation procedures.
#
#######################################################################

data_MASNUS
_chemical_name_common            '6-O-(4-nitrocinnamoyl)-(+)-crassalactone D'
_chemical_formula_moiety         'C22 H17 N1 O7'
_chemical_name_systematic        
'7-oxo-2-phenyl-1,6-dioxaspiro[4.4]non-8-en-3-yl 3-(4-nitrophenyl)prop-2-enoate'
_chemical_properties_biological  'cytotoxic activity'
_symmetry_cell_setting           triclinic
_symmetry_space_group_name_H-M   'P 1'
_symmetry_Int_Tables_number      1
_space_group_name_Hall           'P 1'
loop_
_symmetry_equiv_pos_site_id
_symmetry_equiv_pos_as_xyz
1 x,y,z
_cell_length_a                   4.909(5)
_cell_length_b                   8.920(5)
_cell_length_c                   11.316(5)
_cell_angle_alpha                77.784(5)
_cell_angle_beta                 83.953(5)
_cell_angle_gamma                86.583(5)
_cell_volume                     481.239
_exptl_crystal_colour            colorless
_exptl_crystal_description       plate
_chemical_melting_point          '189-191 deg.C'
_cell_formula_units_Z            1
loop_
_atom_site_label
_atom_site_type_symbol
_atom_site_fract_x
_atom_site_fract_y
_atom_site_fract_z
O1 O 0.6184(6) 0.6648(3) 0.5029(3)
O2 O 0.7045(6) 0.6758(4) 0.2136(3)
O3 O 0.6894(6) 0.4360(3) 0.4415(3)
O4 O 0.7133(8) 0.5699(5) 0.0505(3)
O5 O 0.4682(9) 0.7605(5) 0.6662(4)
O6 O -0.5991(10) 1.3445(6) -0.1575(5)
O7 O -0.6060(10) 1.2305(5) -0.3059(4)
N1 N -0.5177(10) 1.2438(6) -0.2108(5)
C1 C 0.7958(9) 0.4124(5) 0.3229(4)
H1 H 0.6440 0.3926 0.2793
C2 C 0.6270(11) 0.6649(6) 0.1073(5)
C3 C 0.9156(9) 0.5660(5) 0.2604(4)
H2 H 1.0633 0.5543 0.1973
C4 C 1.0029(9) 0.2799(5) 0.3300(4)
C5 C 0.2950(10) 0.8025(6) -0.0280(5)
H3 H 0.3506 0.7317 -0.0762
C6 C 1.0274(13) 0.1771(6) 0.4385(5)
H4 H 0.9156 0.1906 0.5074
C7 C -0.1934(11) 1.1500(6) -0.0604(5)
H5 H -0.2470 1.2318 -0.0231
C8 C 0.0859(9) 0.9192(5) -0.0719(4)
C9 C -0.3040(10) 1.1324(6) -0.1631(5)
C10 C 0.0006(11) 1.0404(6) -0.0152(5)
H6 H 0.0767 1.0477 0.0551
C11 C -0.2294(10) 1.0164(6) -0.2215(5)
H7 H -0.3100 1.0089 -0.2907
C12 C 1.0196(10) 0.6202(5) 0.3640(4)
H8 H 1.2073 0.5835 0.3745
H9 H 1.0115 0.7314 0.3500
C13 C -0.0324(10) 0.9103(6) -0.1765(4)
H10 H 0.0230 0.8310 -0.2165
C14 C 0.8296(9) 0.5524(5) 0.4736(4)
C15 C 1.1667(10) 0.2547(6) 0.2284(5)
H11 H 1.1495 0.3195 0.1533
C16 C 0.8359(13) 0.5675(6) 0.6737(5)
H12 H 0.8808 0.5519 0.7533
C17 C 1.3567(11) 0.1323(7) 0.2391(6)
H13 H 1.4716 0.1176 0.1714
C18 C 0.6227(12) 0.6733(6) 0.6220(5)
C19 C 0.4083(11) 0.7892(6) 0.0709(5)
H14 H 0.3553 0.8574 0.1217
C20 C 1.3772(14) 0.0318(7) 0.3496(7)
H15 H 1.5031 -0.0510 0.3562
C21 C 0.9539(11) 0.4980(6) 0.5908(5)
H16 H 1.0963 0.4245 0.6028
C22 C 1.2135(15) 0.0556(7) 0.4466(6)
H17 H 1.2262 -0.0117 0.5210
loop_
_geom_bond_atom_site_label_1
_geom_bond_atom_site_label_2
_geom_bond_site_symmetry_1
_geom_bond_site_symmetry_2
O1 C14 1_555 1_555
O2 C2 1_555 1_555
O3 C1 1_555 1_555
O4 C2 1_555 1_555
O5 C18 1_555 1_555
O6 N1 1_555 1_555
O7 N1 1_555 1_555
N1 C9 1_555 1_555
C1 H1 1_555 1_555
C2 C19 1_555 1_555
C3 O2 1_555 1_555
H2 C3 1_555 1_555
C4 C1 1_555 1_555
C5 H3 1_555 1_555
C6 C4 1_555 1_555
H4 C6 1_555 1_555
C7 H5 1_555 1_555
C8 C5 1_555 1_555
C9 C7 1_555 1_555
C10 C7 1_555 1_555
H6 C10 1_555 1_555
C11 C9 1_555 1_555
H7 C11 1_555 1_555
C12 C3 1_555 1_555
H8 C12 1_555 1_555
H9 C12 1_555 1_555
C13 C8 1_555 1_555
H10 C13 1_555 1_555
C14 O3 1_555 1_555
C15 C4 1_555 1_555
H11 C15 1_555 1_555
C16 H12 1_555 1_555
C17 C15 1_555 1_555
H13 C17 1_555 1_555
C18 O1 1_555 1_555
C19 C5 1_555 1_555
H14 C19 1_555 1_555
C20 C17 1_555 1_555
H15 C20 1_555 1_555
C21 C14 1_555 1_555
H16 C21 1_555 1_555
C22 C6 1_555 1_555
H17 C22 1_555 1_555
C1 C3 1_555 1_555
C8 C10 1_555 1_555
C11 C13 1_555 1_555
C12 C14 1_555 1_555
C16 C18 1_555 1_555
C16 C21 1_555 1_555
C20 C22 1_555 1_555

#END
