
#######################################################################
#
#                 Cambridge Crystallographic Data Centre
#                                CCDC 
#
#######################################################################
#
# If this CIF has been generated from an entry in the Cambridge 
# Structural Database, then it will include bibliographic, chemical, 
# crystal, experimental, refinement or atomic coordinate data resulting 
# from the CCDC's data processing and validation procedures.
#
#######################################################################

data_MASNAY
_chemical_compound_source        
'leaves of Myrtus communis Variegata (Myrtaceae)'
_chemical_name_common            'myrtucomvalone B'
_chemical_formula_moiety         'C29 H44 O3'
_chemical_name_systematic        
(2R*,3a'R*,3b'R*,4S*,4'S*,7'R*,7a'R*)-6,6,7',8,8-pentamethyl-4,4'-bis(propan-2-yl)-1',2',3a',3b',4,4',5',6',7',8-decahydrospiro[1-benzopyran-2,3'-cyclopenta[1,3]cyclopropa[1,2]benzene]-5,7(3H,6H)-dione
_chemical_properties_biological  
'inhibitory activity against respiratory syncytial virus (RSV)'
_symmetry_cell_setting           triclinic
_symmetry_space_group_name_H-M   'P -1'
_symmetry_Int_Tables_number      2
_space_group_name_Hall           '-P 1'
loop_
_symmetry_equiv_pos_site_id
_symmetry_equiv_pos_as_xyz
1 x,y,z
2 -x,-y,-z
_cell_length_a                   9.7468(7)
_cell_length_b                   10.0413(9)
_cell_length_c                   14.7257(9)
_cell_angle_alpha                107.318(7)
_cell_angle_beta                 95.676(6)
_cell_angle_gamma                104.090(7)
_cell_volume                     1311.43
_exptl_crystal_colour            colorless
_exptl_crystal_description       block
_cell_formula_units_Z            2
loop_
_atom_site_label
_atom_site_type_symbol
_atom_site_fract_x
_atom_site_fract_y
_atom_site_fract_z
O1 O 0.3393(2) 0.3097(2) 0.69319(15)
O2 O 0.2443(3) 0.4019(3) 1.00772(16)
O3 O -0.0982(3) 0.0584(3) 0.74931(19)
C1 C 0.2810(3) 0.3812(4) 0.8500(2)
C2 C 0.2537(3) 0.2898(4) 0.7573(2)
C3 C 0.7061(3) 0.4218(4) 0.6648(2)
C4 C 0.5534(3) 0.4307(3) 0.6505(2)
H1 H 0.5335 0.5057 0.6255
C5 C 0.3957(3) 0.5264(4) 0.8848(2)
H2 H 0.4649 0.5265 0.9379
C6 C 0.5786(4) 0.3296(4) 0.7785(2)
H3 H 0.5403 0.2247 0.7493
H4 H 0.5815 0.3560 0.8478
C7 C 0.5941(3) 0.3058(4) 0.5833(2)
H5 H 0.5599 0.2118 0.5932
C8 C 0.2055(4) 0.3342(4) 0.9209(2)
C9 C 0.5925(4) 0.2982(4) 0.4782(2)
H6 H 0.5327 0.3584 0.4651
C10 C 0.7300(4) 0.3831(4) 0.7565(2)
H7 H 0.7886 0.4677 0.8096
H8 H 0.7777 0.3070 0.7462
C11 C 0.4776(4) 0.5489(3) 0.8038(2)
H9 H 0.4295 0.5967 0.7680
H10 H 0.5742 0.6125 0.8327
C12 C 0.0239(4) 0.1326(4) 0.7803(2)
C13 C 0.4872(3) 0.4068(3) 0.7341(2)
C14 C 0.5206(4) 0.1419(4) 0.4091(2)
H11 H 0.5761 0.0789 0.4234
C15 C 0.3284(4) 0.6524(4) 0.9249(2)
H12 H 0.2833 0.6345 0.9784
C16 C 0.1240(4) 0.1595(4) 0.7091(2)
C17 C 0.3664(4) 0.0862(4) 0.4244(3)
H13 H 0.3682 0.0907 0.4905
H14 H 0.3246 -0.0127 0.3825
H15 H 0.3100 0.1459 0.4097
C18 C 0.8328(4) 0.5236(4) 0.6428(3)
H16 H 0.9162 0.4872 0.6510
C19 C 0.0807(4) 0.1939(4) 0.8885(2)
C20 C 0.8068(4) 0.5212(4) 0.5380(3)
H17 H 0.7404 0.5772 0.5316
H18 H 0.8970 0.5678 0.5230
C21 C 0.7457(4) 0.3672(4) 0.4650(3)
H19 H 0.8074 0.3079 0.4744
H20 H 0.7429 0.3707 0.3998
C22 C 0.0395(4) 0.1868(5) 0.6260(2)
H21 H 0.0119 0.2743 0.6511
H22 H -0.0451 0.1060 0.5961
H23 H 0.0990 0.1972 0.5789
C23 C 0.5160(5) 0.1298(4) 0.3023(2)
H24 H 0.4678 0.1960 0.2881
H25 H 0.4649 0.0320 0.2619
H26 H 0.6124 0.1538 0.2902
C24 C 0.2114(5) 0.6590(5) 0.8516(3)
H27 H 0.2503 0.6710 0.7962
H28 H 0.1758 0.7399 0.8805
H29 H 0.1341 0.5703 0.8319
C25 C 0.1677(5) 0.0199(4) 0.6669(3)
H30 H 0.2268 0.0318 0.6198
H31 H 0.0830 -0.0605 0.6366
H32 H 0.2208 0.0012 0.7179
C26 C 0.4457(5) 0.7978(4) 0.9674(3)
H33 H 0.5169 0.7909 1.0144
H34 H 0.4038 0.8728 0.9980
H35 H 0.4902 0.8211 0.9166
C27 C 0.8714(4) 0.6780(4) 0.7143(3)
H36 H 0.7923 0.7178 0.7079
H37 H 0.9550 0.7373 0.7010
H38 H 0.8913 0.6763 0.7790
C28 C 0.1378(6) 0.0772(5) 0.9163(4)
H39 H 0.2166 0.0623 0.8843
H40 H 0.0620 -0.0127 0.8968
H41 H 0.1700 0.1097 0.9851
C29 C -0.0413(5) 0.2213(7) 0.9413(3)
H42 H -0.0076 0.2521 1.0099
H43 H -0.1193 0.1332 0.9219
H44 H -0.0740 0.2959 0.9256
loop_
_geom_bond_atom_site_label_1
_geom_bond_atom_site_label_2
_geom_bond_site_symmetry_1
_geom_bond_site_symmetry_2
O1 C2 1_555 1_555
O2 C8 1_555 1_555
O3 C12 1_555 1_555
C1 C2 1_555 1_555
C2 C16 1_555 1_555
C3 C4 1_555 1_555
C4 H1 1_555 1_555
C5 C1 1_555 1_555
H2 C5 1_555 1_555
C6 H3 1_555 1_555
H4 C6 1_555 1_555
C7 C3 1_555 1_555
H5 C7 1_555 1_555
C8 C1 1_555 1_555
C9 C7 1_555 1_555
H6 C9 1_555 1_555
C10 C3 1_555 1_555
H7 C10 1_555 1_555
H8 C10 1_555 1_555
C11 C5 1_555 1_555
H9 C11 1_555 1_555
H10 C11 1_555 1_555
C12 C16 1_555 1_555
C13 O1 1_555 1_555
C14 C9 1_555 1_555
H11 C14 1_555 1_555
C15 C5 1_555 1_555
H12 C15 1_555 1_555
C16 C22 1_555 1_555
C17 C14 1_555 1_555
H13 C17 1_555 1_555
H14 C17 1_555 1_555
H15 C17 1_555 1_555
C18 C3 1_555 1_555
H16 C18 1_555 1_555
C19 C8 1_555 1_555
C20 C18 1_555 1_555
H17 C20 1_555 1_555
H18 C20 1_555 1_555
C21 C9 1_555 1_555
H19 C21 1_555 1_555
H20 C21 1_555 1_555
C22 H21 1_555 1_555
H22 C22 1_555 1_555
H23 C22 1_555 1_555
C23 C14 1_555 1_555
H24 C23 1_555 1_555
H25 C23 1_555 1_555
H26 C23 1_555 1_555
C24 C15 1_555 1_555
H27 C24 1_555 1_555
H28 C24 1_555 1_555
H29 C24 1_555 1_555
C25 C16 1_555 1_555
H30 C25 1_555 1_555
H31 C25 1_555 1_555
H32 C25 1_555 1_555
C26 C15 1_555 1_555
H33 C26 1_555 1_555
H34 C26 1_555 1_555
H35 C26 1_555 1_555
C27 C18 1_555 1_555
H36 C27 1_555 1_555
H37 C27 1_555 1_555
H38 C27 1_555 1_555
C28 C19 1_555 1_555
H39 C28 1_555 1_555
H40 C28 1_555 1_555
H41 C28 1_555 1_555
C29 C19 1_555 1_555
H42 C29 1_555 1_555
H43 C29 1_555 1_555
H44 C29 1_555 1_555
C4 C7 1_555 1_555
C4 C13 1_555 1_555
C6 C10 1_555 1_555
C6 C13 1_555 1_555
C11 C13 1_555 1_555
C12 C19 1_555 1_555
C20 C21 1_555 1_555

#END
