
#######################################################################
#
#                 Cambridge Crystallographic Data Centre
#                                CCDC 
#
#######################################################################
#
# If this CIF has been generated from an entry in the Cambridge 
# Structural Database, then it will include bibliographic, chemical, 
# crystal, experimental, refinement or atomic coordinate data resulting 
# from the CCDC's data processing and validation procedures.
#
#######################################################################

data_MASQAR
_chemical_formula_moiety         'C8 H3 O8 1-,C2 H8 N1 1+'
_chemical_name_systematic        
'Dimethylammonium hydrogen-bis(hydrogen squarate)'
_symmetry_cell_setting           orthorhombic
_symmetry_space_group_name_H-M   'P c c n'
_symmetry_Int_Tables_number      56
_space_group_name_Hall           '-P 2ab 2ac'
loop_
_symmetry_equiv_pos_site_id
_symmetry_equiv_pos_as_xyz
1 x,y,z
2 1/2-x,1/2-y,z
3 1/2+x,-y,1/2-z
4 -x,1/2+y,1/2-z
5 -x,-y,-z
6 1/2+x,1/2+y,-z
7 1/2-x,y,1/2+z
8 x,1/2-y,1/2+z
_cell_length_a                   6.080(3)
_cell_length_b                   15.739(14)
_cell_length_c                   11.883(9)
_cell_angle_alpha                90
_cell_angle_beta                 90
_cell_angle_gamma                90
_cell_volume                     1137.12
_cell_formula_units_Z            4
loop_
_atom_site_label
_atom_site_type_symbol
_atom_site_fract_x
_atom_site_fract_y
_atom_site_fract_z
C1 C 0.43230 -0.08660 0.35050
C2 C 0.20810 -0.11970 0.34150
C3 C 0.12170 -0.03970 0.36780
C4 C 0.34050 -0.00110 0.37810
H1 H -0.18240 -0.05350 0.36690
H2 H 0.25000 -0.25000 0.31420
O1 O 0.61980 -0.11630 0.33630
O2 O 0.11970 -0.19120 0.31690
O3 O -0.07510 -0.00690 0.37770
O4 O 0.41660 0.06910 0.39580
O2A O 0.38030 -0.30880 0.31690
C2A C 0.29190 -0.38030 0.34150
C1A C 0.06770 -0.41340 0.35050
C3A C 0.37830 -0.46030 0.36780
C4A C 0.15950 -0.49890 0.37810
O1A O -0.11980 -0.38370 0.33630
O3A O 0.57510 -0.49310 0.37770
O4A O 0.08340 -0.56910 0.39580
H1A H 0.68240 -0.44650 0.36690
C5 C 0.06110 0.22150 0.41620
H3 H 0.29230 0.20820 0.30000
H4 H -0.04680 0.19800 0.36570
H5 H 0.10950 0.17890 0.47300
H6 H 0.01170 0.27070 0.45520
N1 N 0.25000 0.25000 0.34760
C5A C 0.43890 0.27850 0.41620
H3A H 0.20770 0.29180 0.30000
H4A H 0.54680 0.30200 0.36570
H5A H 0.39050 0.32110 0.47300
H6A H 0.48830 0.22930 0.45520
loop_
_geom_bond_atom_site_label_1
_geom_bond_atom_site_label_2
_geom_bond_site_symmetry_1
_geom_bond_site_symmetry_2
C1 C2 1_555 1_555
C2 C3 1_555 1_555
C3 C4 1_555 1_555
C4 C1 1_555 1_555
H1 O3 1_555 1_555
H2 O2 1_555 1_555
O1 C1 1_555 1_555
O2 C2 1_555 1_555
O3 C3 1_555 1_555
O4 C4 1_555 1_555
C5 H4 1_555 1_555
H3 N1 1_555 1_555
H5 C5 1_555 1_555
H6 C5 1_555 1_555
N1 C5 1_555 1_555
O2A H2 1_555 1_555
C2A O2A 1_555 1_555
C1A C2A 1_555 1_555
C3A C2A 1_555 1_555
C4A C1A 1_555 1_555
O1A C1A 1_555 1_555
O3A C3A 1_555 1_555
O4A C4A 1_555 1_555
H1A O3A 1_555 1_555
C5A N1 1_555 1_555
H3A N1 1_555 1_555
H4A C5A 1_555 1_555
H5A C5A 1_555 1_555
H6A C5A 1_555 1_555
C3A C4A 1_555 1_555

#END
