
#######################################################################
#
#                 Cambridge Crystallographic Data Centre
#                                CCDC 
#
#######################################################################
#
# If this CIF has been generated from an entry in the Cambridge 
# Structural Database, then it will include bibliographic, chemical, 
# crystal, experimental, refinement or atomic coordinate data resulting 
# from the CCDC's data processing and validation procedures.
#
#######################################################################

data_MASZUC
_chemical_formula_moiety         'C7 H9 N1 O1'
_chemical_name_systematic        2-Amino-6-methylphenol
_symmetry_cell_setting           triclinic
_symmetry_space_group_name_H-M   'P -1'
_symmetry_Int_Tables_number      2
_space_group_name_Hall           '-P 1'
loop_
_symmetry_equiv_pos_site_id
_symmetry_equiv_pos_as_xyz
1 x,y,z
2 -x,-y,-z
_cell_length_a                   8.0069(2)
_cell_length_b                   8.0094(2)
_cell_length_c                   20.3862(5)
_cell_angle_alpha                83.8860(10)
_cell_angle_beta                 84.7190(10)
_cell_angle_gamma                89.1200(10)
_cell_volume                     1294.4
_exptl_crystal_colour            brown
_exptl_crystal_description       cube
_chemical_melting_point          '362.4 K'
_cell_formula_units_Z            8
_exptl_crystal_recrystallization_method methanol/benzene
loop_
_atom_site_label
_atom_site_type_symbol
_atom_site_fract_x
_atom_site_fract_y
_atom_site_fract_z
O1 O 0.40760(10) 0.17685(10) 0.47100(4)
N1 N 0.74407(12) 0.12955(12) 0.44614(5)
C2 C 0.65576(14) 0.23509(13) 0.40042(5)
C3 C 0.65049(15) 0.42339(15) 0.30027(5)
C5 C 0.48302(13) 0.26048(13) 0.41385(5)
C7 C 0.39115(14) 0.35748(13) 0.36835(5)
C8 C 0.73850(15) 0.31889(15) 0.34371(5)
C9 C 0.47811(15) 0.44049(14) 0.31188(5)
C12 C 0.20299(15) 0.36397(16) 0.37855(6)
H2 H 0.8572(19) 0.3027(18) 0.3356(7)
H9 H 0.4148(18) 0.5127(18) 0.2803(7)
H12 H 0.7070(18) 0.4847(18) 0.2611(7)
H13 H 0.825(2) 0.0718(19) 0.4238(8)
H14 H 0.677(2) 0.055(2) 0.4717(8)
H19 H 0.158(2) 0.435(2) 0.3416(8)
H24 H 0.156(2) 0.250(2) 0.3830(8)
H31 H 0.164(2) 0.412(2) 0.4183(8)
H33 H 0.344(2) 0.246(2) 0.4944(8)
O2 O 0.90030(10) 0.32028(10) 0.52589(4)
N2 N 1.21948(12) 0.36605(12) 0.55478(4)
C1 C 1.10762(13) 0.26791(13) 0.60110(5)
C4 C 1.15916(14) 0.19221(14) 0.66074(5)
C6 C 0.88319(15) 0.07861(14) 0.69019(5)
C10 C 0.94369(14) 0.24281(12) 0.58551(5)
C11 C 0.82744(14) 0.15371(13) 0.63096(5)
C13 C 0.64620(15) 0.14632(16) 0.61798(6)
C14 C 1.04726(15) 0.09574(15) 0.70471(5)
H3 H 1.2708(18) 0.2056(17) 0.6709(7)
H7 H 0.8035(18) 0.0187(18) 0.7214(7)
H8 H 1.0823(19) 0.0463(19) 0.7459(7)
H18 H 1.2887(18) 0.4189(18) 0.5758(7)
H20 H 1.1646(19) 0.4456(19) 0.5283(7)
H25 H 0.575(2) 0.097(2) 0.6554(9)
H26 H 0.846(2) 0.250(2) 0.5045(8)
H28 H 0.631(2) 0.080(2) 0.5834(9)
H35 H 0.604(3) 0.258(3) 0.6054(10)
O3 O 0.31792(10) 0.58028(10) 0.02453(4)
N3 N 0.37840(12) 0.24622(12) 0.05092(4)
C15 C 0.27744(13) 0.33224(13) 0.09769(5)
C16 C 0.20595(14) 0.24729(14) 0.15647(5)
C17 C 0.24547(12) 0.50394(13) 0.08366(5)
C18 C 0.08460(14) 0.50592(15) 0.18907(5)
C19 C 0.10772(15) 0.33380(15) 0.20136(5)
C20 C 0.15503(13) 0.59421(14) 0.13040(5)
C21 C 0.14237(16) 0.78247(15) 0.11927(6)
H4 H 0.0202(18) 0.5673(18) 0.2214(7)
H5 H 0.2292(17) 0.1247(18) 0.1647(7)
H10 H 0.0575(19) 0.274(2) 0.2404(8)
H15 H 0.436(2) 0.165(2) 0.0709(8)
H16 H 0.449(2) 0.316(2) 0.0261(8)
H22 H 0.100(2) 0.828(2) 0.1585(9)
H32 H 0.069(2) 0.819(2) 0.0859(9)
H34 H 0.254(3) 0.833(3) 0.1047(10)
H36 H 0.245(2) 0.646(2) 0.0026(8)
O4 O 0.18347(10) 0.09742(10) -0.02945(4)
N4 N 0.12036(12) -0.22087(12) -0.05445(5)
C22 C 0.22438(13) -0.11560(13) -0.10126(5)
C23 C 0.29703(14) -0.17358(14) -0.15935(5)
C24 C 0.25912(13) 0.04753(13) -0.08750(5)
C25 C 0.35665(13) 0.15629(14) -0.13351(5)
C26 C 0.42977(14) 0.09373(15) -0.19093(5)
C27 C 0.40145(15) -0.06969(15) -0.20364(5)
C28 C 0.37459(16) 0.33745(15) -0.12242(6)
H1 H 0.4504(19) -0.1078(19) -0.2433(8)
H6 H 0.2738(18) -0.2880(19) -0.1693(7)
H11 H 0.5006(18) 0.1700(18) -0.2232(7)
H17 H 0.438(2) 0.398(2) -0.1599(8)
H21 H 0.0629(19) -0.290(2) -0.0753(7)
H23 H 0.253(2) 0.151(2) -0.0082(8)
H27 H 0.048(2) -0.1624(19) -0.0288(7)
H29 H 0.432(2) 0.351(2) -0.0842(9)
H30 H 0.263(3) 0.389(2) -0.1145(9)
loop_
_geom_bond_atom_site_label_1
_geom_bond_atom_site_label_2
_geom_bond_site_symmetry_1
_geom_bond_site_symmetry_2
O1 C5 1_555 1_555
O2 C10 1_555 1_555
N1 C2 1_555 1_555
N2 C1 1_555 1_555
C1 C4 1_555 1_555
C2 C5 1_555 1_555
C3 C8 1_555 1_555
C4 C14 1_555 1_555
C5 C7 1_555 1_555
C6 C11 1_555 1_555
C7 C9 1_555 1_555
C8 C2 1_555 1_555
C9 C3 1_555 1_555
C10 C1 1_555 1_555
C11 C10 1_555 1_555
C12 C7 1_555 1_555
C13 C11 1_555 1_555
C14 C6 1_555 1_555
O3 C17 1_555 1_555
N3 C15 1_555 1_555
C15 C16 1_555 1_555
C16 C19 1_555 1_555
C17 C15 1_555 1_555
C18 C19 1_555 1_555
C19 H10 1_555 1_555
C20 C17 1_555 1_555
C21 C20 1_555 1_555
O4 C24 1_555 1_555
N4 C22 1_555 1_555
C22 C23 1_555 1_555
C23 C27 1_555 1_555
C24 C22 1_555 1_555
C25 C24 1_555 1_555
C26 C25 1_555 1_555
C27 C26 1_555 1_555
C28 C25 1_555 1_555
H1 C27 1_555 1_555
H2 C8 1_555 1_555
H3 C4 1_555 1_555
H4 C18 1_555 1_555
H5 C16 1_555 1_555
H6 C23 1_555 1_555
H7 C6 1_555 1_555
H8 C14 1_555 1_555
H9 C9 1_555 1_555
H11 C26 1_555 1_555
H12 C3 1_555 1_555
H13 N1 1_555 1_555
H14 N1 1_555 1_555
H15 N3 1_555 1_555
H16 N3 1_555 1_555
H17 C28 1_555 1_555
H18 N2 1_555 1_555
H19 C12 1_555 1_555
H20 N2 1_555 1_555
H21 N4 1_555 1_555
H22 C21 1_555 1_555
H23 O4 1_555 1_555
H24 C12 1_555 1_555
H25 C13 1_555 1_555
H26 O2 1_555 1_555
H27 N4 1_555 1_555
H28 C13 1_555 1_555
H29 C28 1_555 1_555
H30 C28 1_555 1_555
H31 C12 1_555 1_555
H32 C21 1_555 1_555
H33 O1 1_555 1_555
H34 C21 1_555 1_555
H35 C13 1_555 1_555
H36 O3 1_555 1_555
C18 C20 1_555 1_555

#END
