
#######################################################################
#
#                 Cambridge Crystallographic Data Centre
#                                CCDC 
#
#######################################################################
#
# If this CIF has been generated from an entry in the Cambridge 
# Structural Database, then it will include bibliographic, chemical, 
# crystal, experimental, refinement or atomic coordinate data resulting 
# from the CCDC's data processing and validation procedures.
#
#######################################################################

data_MASZIQ
_chemical_formula_moiety         'C7 H9 N1 O1'
_chemical_name_systematic        2-Amino-3-methylphenol
_symmetry_cell_setting           orthorhombic
_symmetry_space_group_name_H-M   'I b a 2'
_symmetry_Int_Tables_number      45
_space_group_name_Hall           'I 2 -2c'
loop_
_symmetry_equiv_pos_site_id
_symmetry_equiv_pos_as_xyz
1 x,y,z
2 -x,-y,z
3 1/2+x,1/2-y,z
4 1/2-x,1/2+y,z
5 1/2+x,1/2+y,1/2+z
6 1/2-x,1/2-y,1/2+z
7 x,-y,1/2+z
8 -x,y,1/2+z
_cell_length_a                   21.6090(7)
_cell_length_b                   7.4822(2)
_cell_length_c                   8.2703(3)
_cell_angle_alpha                90
_cell_angle_beta                 90
_cell_angle_gamma                90
_cell_volume                     1337.17
_exptl_crystal_colour            orange
_exptl_crystal_description       cube
_chemical_melting_point          '424 K'
_cell_formula_units_Z            8
_exptl_crystal_recrystallization_method ethanol
loop_
_atom_site_label
_atom_site_type_symbol
_atom_site_fract_x
_atom_site_fract_y
_atom_site_fract_z
O1 O 0.24487(5) 0.24680(15) 0.04976(13)
N1 N 0.20478(6) 0.05980(17) -0.20344(16)
C1 C 0.16250(6) 0.17676(16) -0.12372(15)
C2 C 0.06312(6) 0.31720(18) -0.09673(17)
C3 C 0.14522(6) 0.39502(17) 0.08911(17)
C4 C 0.08446(6) 0.41362(19) 0.03607(18)
C5 C 0.18452(6) 0.27650(16) 0.00872(15)
C6 C 0.10193(7) 0.19927(17) -0.17928(16)
C7 C 0.08016(9) 0.0990(2) -0.3277(2)
H1 H 0.1619(8) 0.457(2) 0.178(2)
H2 H 0.1850(10) -0.034(3) -0.256(3)
H3 H 0.0583(8) 0.493(3) 0.096(2)
H4 H 0.0794(10) -0.032(3) -0.313(3)
H5 H 0.0208(8) 0.333(2) -0.1381(19)
H6 H 0.2322(10) 0.022(3) -0.135(3)
H7 H 0.0382(9) 0.139(3) -0.356(2)
H8 H 0.1081(10) 0.130(3) -0.426(3)
H9 H 0.2567(10) 0.317(3) 0.126(3)
loop_
_geom_bond_atom_site_label_1
_geom_bond_atom_site_label_2
_geom_bond_site_symmetry_1
_geom_bond_site_symmetry_2
O1 C5 1_555 1_555
N1 C1 1_555 1_555
C1 C5 1_555 1_555
C2 C4 1_555 1_555
C3 C4 1_555 1_555
C4 H3 1_555 1_555
C5 C3 1_555 1_555
C6 C1 1_555 1_555
C7 C6 1_555 1_555
H1 C3 1_555 1_555
H2 N1 1_555 1_555
H4 C7 1_555 1_555
H5 C2 1_555 1_555
H6 N1 1_555 1_555
H7 C7 1_555 1_555
H8 C7 1_555 1_555
H9 O1 1_555 1_555
C2 C6 1_555 1_555

#END
