
#######################################################################
#
#                 Cambridge Crystallographic Data Centre
#                                CCDC 
#
#######################################################################
#
# If this CIF has been generated from an entry in the Cambridge 
# Structural Database, then it will include bibliographic, chemical, 
# crystal, experimental, refinement or atomic coordinate data resulting 
# from the CCDC's data processing and validation procedures.
#
#######################################################################

data_MATBAL
_chemical_formula_moiety         'C7 H9 N1 O1'
_chemical_name_systematic        3-Amino-2-methylphenol
_symmetry_cell_setting           monoclinic
_symmetry_space_group_name_H-M   'P 21/n'
_symmetry_Int_Tables_number      14
_space_group_name_Hall           '-P 2yn'
loop_
_symmetry_equiv_pos_site_id
_symmetry_equiv_pos_as_xyz
1 x,y,z
2 1/2-x,1/2+y,1/2-z
3 -x,-y,-z
4 1/2+x,1/2-y,1/2+z
_cell_length_a                   6.6782(6)
_cell_length_b                   8.1351(7)
_cell_length_c                   11.9301(10)
_cell_angle_alpha                90
_cell_angle_beta                 101.661(2)
_cell_angle_gamma                90
_cell_volume                     634.759
_exptl_crystal_colour            brown
_exptl_crystal_description       block
_chemical_melting_point          '402.5 K'
_cell_formula_units_Z            4
_exptl_crystal_recrystallization_method 'ethyl acetate'
loop_
_atom_site_label
_atom_site_type_symbol
_atom_site_fract_x
_atom_site_fract_y
_atom_site_fract_z
O1 O 0.22308(12) 0.65733(11) 0.05766(7)
C1 C 0.42655(15) 0.81950(13) 0.20077(8)
C2 C 0.53494(17) 0.77346(13) 0.01952(9)
C3 C 0.59782(15) 0.92073(13) 0.23559(9)
N1 N 0.63310(15) 0.99547(12) 0.34571(8)
C4 C 0.73738(17) 0.94533(14) 0.16432(9)
C5 C 0.39614(16) 0.74962(13) 0.09111(9)
C6 C 0.70596(17) 0.87122(14) 0.05745(9)
C7 C 0.27778(19) 0.78457(15) 0.27709(10)
H1 H 0.508(2) 0.7230(18) -0.0558(13)
H2 H 0.856(3) 1.0154(18) 0.1896(14)
H3 H 0.810(2) 0.8873(18) 0.0067(13)
H4 H 0.728(2) 1.070(2) 0.3509(13)
H5 H 0.515(3) 1.044(2) 0.3606(14)
H6 H 0.208(3) 0.616(2) -0.0191(18)
H7 H 0.262(3) 0.668(2) 0.2918(15)
H8 H 0.141(4) 0.816(3) 0.2456(19)
H9 H 0.314(3) 0.832(3) 0.347(2)
loop_
_geom_bond_atom_site_label_1
_geom_bond_atom_site_label_2
_geom_bond_site_symmetry_1
_geom_bond_site_symmetry_2
O1 C5 1_555 1_555
C1 C3 1_555 1_555
C2 C5 1_555 1_555
C3 N1 1_555 1_555
N1 H4 1_555 1_555
C4 C3 1_555 1_555
C5 C1 1_555 1_555
C6 C2 1_555 1_555
C7 C1 1_555 1_555
H1 C2 1_555 1_555
H2 C4 1_555 1_555
H3 C6 1_555 1_555
H5 N1 1_555 1_555
H6 O1 1_555 1_555
H7 C7 1_555 1_555
H8 C7 1_555 1_555
H9 C7 1_555 1_555
C4 C6 1_555 1_555

#END
