
#######################################################################
#
#                 Cambridge Crystallographic Data Centre
#                                CCDC 
#
#######################################################################
#
# If this CIF has been generated from an entry in the Cambridge 
# Structural Database, then it will include bibliographic, chemical, 
# crystal, experimental, refinement or atomic coordinate data resulting 
# from the CCDC's data processing and validation procedures.
#
#######################################################################

data_MATBUF
_chemical_name_common            'PDB Chemical Component code: 4ZE'
_chemical_formula_moiety         'C7 H9 N1 O1'
_chemical_name_systematic        4-Amino-2-methylphenol
_symmetry_cell_setting           monoclinic
_symmetry_space_group_name_H-M   'P 21/c'
_symmetry_Int_Tables_number      14
_space_group_name_Hall           '-P 2ybc'
loop_
_symmetry_equiv_pos_site_id
_symmetry_equiv_pos_as_xyz
1 x,y,z
2 -x,1/2+y,1/2-z
3 -x,-y,-z
4 x,1/2-y,1/2+z
_cell_length_a                   4.48940(10)
_cell_length_b                   10.4759(3)
_cell_length_c                   14.3300(4)
_cell_angle_alpha                90
_cell_angle_beta                 93.1740(10)
_cell_angle_gamma                90
_cell_volume                     672.913
_exptl_crystal_colour            orange
_exptl_crystal_description       plate
_chemical_melting_point          '448.4 K'
_cell_formula_units_Z            4
_exptl_crystal_recrystallization_method 'ethyl acetate/acetonitrile'
loop_
_atom_site_label
_atom_site_type_symbol
_atom_site_fract_x
_atom_site_fract_y
_atom_site_fract_z
O1 O 0.14135(18) 0.38083(7) 0.40654(5)
N1 N 0.3118(2) 0.05270(8) 0.10642(6)
C1 C 0.1792(2) 0.30155(9) 0.33108(6)
C2 C 0.3738(2) 0.19797(9) 0.34452(7)
C3 C 0.4199(2) 0.11874(9) 0.26862(7)
C4 C 0.0362(2) 0.32409(9) 0.24430(7)
C5 C 0.0827(2) 0.24314(9) 0.16970(7)
C6 C 0.2757(2) 0.14007(9) 0.18119(6)
C7 C 0.5303(3) 0.17392(11) 0.43852(7)
H1 H -0.100(3) 0.3968(13) 0.2365(9)
H2 H 0.561(3) 0.0479(12) 0.2770(8)
H3 H 0.388(3) 0.1578(13) 0.4867(10)
H4 H -0.022(3) 0.2590(12) 0.1070(9)
H5 H 0.492(4) 0.0127(13) 0.1112(9)
H6 H 0.664(3) 0.0988(15) 0.4356(10)
H7 H 0.285(3) 0.0929(14) 0.0509(11)
H8 H -0.022(4) 0.4382(17) 0.3973(10)
H9 H 0.655(3) 0.2466(15) 0.4586(10)
loop_
_geom_bond_atom_site_label_1
_geom_bond_atom_site_label_2
_geom_bond_site_symmetry_1
_geom_bond_site_symmetry_2
O1 C1 1_555 1_555
N1 C6 1_555 1_555
C1 C2 1_555 1_555
C2 C3 1_555 1_555
C3 C6 1_555 1_555
C4 C1 1_555 1_555
C5 C4 1_555 1_555
C6 C5 1_555 1_555
C7 C2 1_555 1_555
H1 C4 1_555 1_555
H2 C3 1_555 1_555
H3 C7 1_555 1_555
H4 C5 1_555 1_555
H5 N1 1_555 1_555
H6 C7 1_555 1_555
H7 N1 1_555 1_555
H8 O1 1_555 1_555
H9 C7 1_555 1_555

#END
