
#######################################################################
#
#                 Cambridge Crystallographic Data Centre
#                                CCDC 
#
#######################################################################
#
# If this CIF has been generated from an entry in the Cambridge 
# Structural Database, then it will include bibliographic, chemical, 
# crystal, experimental, refinement or atomic coordinate data resulting 
# from the CCDC's data processing and validation procedures.
#
#######################################################################

data_MATBEP
_chemical_formula_moiety         'C7 H9 N1 O1'
_chemical_name_systematic        3-Amino-4-methylphenol
_symmetry_cell_setting           monoclinic
_symmetry_space_group_name_H-M   'P 21/n'
_symmetry_Int_Tables_number      14
_space_group_name_Hall           '-P 2yn'
loop_
_symmetry_equiv_pos_site_id
_symmetry_equiv_pos_as_xyz
1 x,y,z
2 1/2-x,1/2+y,1/2-z
3 -x,-y,-z
4 1/2+x,1/2-y,1/2+z
_cell_length_a                   7.5998(2)
_cell_length_b                   18.3860(5)
_cell_length_c                   9.9035(3)
_cell_angle_alpha                90
_cell_angle_beta                 110.1720(10)
_cell_angle_gamma                90
_cell_volume                     1298.93
_exptl_crystal_colour            colorless
_exptl_crystal_description       plate
_chemical_melting_point          '433.3 K'
_cell_formula_units_Z            8
_exptl_crystal_recrystallization_method 'ethyl acetate/acetonitrile'
loop_
_atom_site_label
_atom_site_type_symbol
_atom_site_fract_x
_atom_site_fract_y
_atom_site_fract_z
O1 O -0.46317(11) 0.66762(5) 0.26130(9)
C1 C -0.12823(15) 0.67690(6) 0.31432(11)
N1 N 0.21227(13) 0.68368(6) 0.38089(11)
C2 C 0.04449(15) 0.64215(6) 0.34242(11)
C5 C -0.29097(15) 0.63595(6) 0.28791(12)
C6 C -0.10869(16) 0.52716(7) 0.31781(12)
C7 C 0.05642(15) 0.56629(6) 0.34347(12)
C8 C -0.28116(16) 0.56060(7) 0.29007(12)
C12 C 0.24174(17) 0.52875(7) 0.37081(15)
H1 H -0.1035(16) 0.4744(7) 0.3216(13)
H2 H -0.3920(19) 0.5331(8) 0.2722(14)
H5 H -0.1363(17) 0.7281(7) 0.3111(12)
H6 H 0.1866(19) 0.7298(8) 0.3594(14)
H7 H 0.228(2) 0.4770(9) 0.3819(16)
H10 H 0.297(2) 0.6670(8) 0.3427(16)
H12 H 0.340(2) 0.5455(8) 0.4622(16)
H15 H 0.289(2) 0.5361(9) 0.2902(18)
H16 H -0.464(2) 0.7131(9) 0.2364(17)
O2 O 0.34962(10) 0.64542(5) 0.66838(9)
C3 C 0.85708(15) 0.66137(6) 0.74339(12)
C4 C 0.66424(15) 0.66492(6) 0.66937(12)
N2 N 0.98144(14) 0.68773(6) 0.67592(11)
C9 C 0.53987(15) 0.64238(6) 0.73637(12)
C10 C 0.60699(16) 0.61626(7) 0.87630(13)
C11 C 0.79920(16) 0.61335(7) 0.94819(13)
C13 C 1.13590(17) 0.63196(9) 0.96596(15)
C14 C 0.92767(16) 0.63569(7) 0.88487(12)
H3 H 0.5190(19) 0.6007(7) 0.9233(14)
H4 H 0.6207(17) 0.6844(7) 0.5716(14)
H8 H 0.844(2) 0.5948(7) 1.0465(16)
H9 H 0.9303(18) 0.6866(7) 0.5775(16)
H11 H 1.092(2) 0.6662(8) 0.7051(15)
H13 H 1.193(2) 0.5961(9) 0.9227(17)
H14 H 1.159(2) 0.6167(8) 1.0644(18)
H17 H 0.321(2) 0.6630(9) 0.5787(19)
H18 H 1.198(2) 0.6808(10) 0.9686(17)
loop_
_geom_bond_atom_site_label_1
_geom_bond_atom_site_label_2
_geom_bond_site_symmetry_1
_geom_bond_site_symmetry_2
O1 C5 1_555 1_555
O2 C9 1_555 1_555
C1 C2 1_555 1_555
N1 C2 1_555 1_555
C2 C7 1_555 1_555
C3 C4 1_555 1_555
C4 C9 1_555 1_555
C5 C1 1_555 1_555
C6 C7 1_555 1_555
N2 C3 1_555 1_555
C7 C12 1_555 1_555
C8 C5 1_555 1_555
C9 C10 1_555 1_555
C10 C11 1_555 1_555
C11 C14 1_555 1_555
C12 H7 1_555 1_555
C13 C14 1_555 1_555
C14 C3 1_555 1_555
H1 C6 1_555 1_555
H2 C8 1_555 1_555
H3 C10 1_555 1_555
H4 C4 1_555 1_555
H5 C1 1_555 1_555
H6 N1 1_555 1_555
H8 C11 1_555 1_555
H9 N2 1_555 1_555
H10 N1 1_555 1_555
H11 N2 1_555 1_555
H12 C12 1_555 1_555
H13 C13 1_555 1_555
H14 C13 1_555 1_555
H15 C12 1_555 1_555
H16 O1 1_555 1_555
H17 O2 1_555 1_555
H18 C13 1_555 1_555
C6 C8 1_555 1_555

#END
