
#######################################################################
#
#                 Cambridge Crystallographic Data Centre
#                                CCDC 
#
#######################################################################
#
# If this CIF has been generated from an entry in the Cambridge 
# Structural Database, then it will include bibliographic, chemical, 
# crystal, experimental, refinement or atomic coordinate data resulting 
# from the CCDC's data processing and validation procedures.
#
#######################################################################

data_MATCEQ
_chemical_formula_moiety         'C10 H9 N1 O1'
_chemical_name_systematic        8-Amino-2-naphthol
_symmetry_cell_setting           monoclinic
_symmetry_space_group_name_H-M   'P 21/n'
_symmetry_Int_Tables_number      14
_space_group_name_Hall           '-P 2yn'
loop_
_symmetry_equiv_pos_site_id
_symmetry_equiv_pos_as_xyz
1 x,y,z
2 1/2-x,1/2+y,1/2-z
3 -x,-y,-z
4 1/2+x,1/2-y,1/2+z
_cell_length_a                   12.415(2)
_cell_length_b                   4.1719(7)
_cell_length_c                   15.511(3)
_cell_angle_alpha                90
_cell_angle_beta                 108.804(3)
_cell_angle_gamma                90
_cell_volume                     760.5
_exptl_crystal_colour            pink
_exptl_crystal_description       block
_chemical_melting_point          '477 K'
_cell_formula_units_Z            4
loop_
_atom_site_label
_atom_site_type_symbol
_atom_site_fract_x
_atom_site_fract_y
_atom_site_fract_z
O1 O 0.36016(11) 0.1949(3) 0.45681(9)
H1 H 0.380(2) 0.063(7) 0.4177(18)
N1 N 0.05429(14) 0.2746(4) 0.13945(11)
H2 H 0.096(2) 0.094(6) 0.1588(16)
H3 H -0.005(2) 0.223(6) 0.090(2)
C1 C 0.19127(15) 0.3010(4) 0.33028(12)
H4 H 0.2221 0.1945 0.2894
C2 C 0.25308(15) 0.3193(5) 0.42104(12)
C3 C 0.20918(16) 0.4775(5) 0.48232(12)
H5 H 0.2527 0.4872 0.5451
C4 C 0.10466(16) 0.6172(5) 0.45231(13)
H6 H 0.0765 0.7253 0.4945
C5 C -0.07220(16) 0.7483(5) 0.32727(14)
H7 H -0.1017 0.8561 0.3687
C6 C -0.13489(15) 0.7322(4) 0.23709(13)
H8 H -0.2074 0.8326 0.2158
C7 C -0.09293(15) 0.5688(4) 0.17587(13)
H9 H -0.1381 0.5573 0.1135
C8 C 0.01198(15) 0.4250(4) 0.20384(12)
C9 C 0.08089(15) 0.4414(4) 0.29722(12)
C10 C 0.03676(15) 0.6045(4) 0.35898(13)
loop_
_geom_bond_atom_site_label_1
_geom_bond_atom_site_label_2
_geom_bond_site_symmetry_1
_geom_bond_site_symmetry_2
O1 H1 1_555 1_555
N1 H2 1_555 1_555
H3 N1 1_555 1_555
C1 H4 1_555 1_555
C2 O1 1_555 1_555
C3 C2 1_555 1_555
H5 C3 1_555 1_555
C4 C3 1_555 1_555
H6 C4 1_555 1_555
C5 H7 1_555 1_555
C6 C5 1_555 1_555
H8 C6 1_555 1_555
C7 C6 1_555 1_555
H9 C7 1_555 1_555
C8 N1 1_555 1_555
C9 C1 1_555 1_555
C10 C4 1_555 1_555
C1 C2 1_555 1_555
C5 C10 1_555 1_555
C7 C8 1_555 1_555
C8 C9 1_555 1_555
C9 C10 1_555 1_555

#END
