
#######################################################################
#
#                 Cambridge Crystallographic Data Centre
#                                CCDC 
#
#######################################################################
#
# If this CIF has been generated from an entry in the Cambridge 
# Structural Database, then it will include bibliographic, chemical, 
# crystal, experimental, refinement or atomic coordinate data resulting 
# from the CCDC's data processing and validation procedures.
#
#######################################################################

data_MATDUG
_chemical_formula_moiety         'C12 H11 Cl1 O1'
_chemical_name_systematic        
7-Chloro-3,6-dimethyl-1H-indene-2-carbaldehyde
_symmetry_cell_setting           monoclinic
_symmetry_space_group_name_H-M   'I a'
_symmetry_Int_Tables_number      9
_space_group_name_Hall           'I -2ya'
loop_
_symmetry_equiv_pos_site_id
_symmetry_equiv_pos_as_xyz
1 x,y,z
2 1/2+x,-y,z
3 1/2+x,1/2+y,1/2+z
4 x,1/2-y,1/2+z
_cell_length_a                   7.146(2)
_cell_length_b                   19.751(4)
_cell_length_c                   7.4080(10)
_cell_angle_alpha                90
_cell_angle_beta                 106.12(2)
_cell_angle_gamma                90
_cell_volume                     1004.46
_exptl_crystal_colour            'light yellow'
_exptl_crystal_description       'trapezoidal irregular prism'
_chemical_melting_point          438K
_cell_formula_units_Z            4
_exptl_crystal_recrystallization_method cyclohexane
loop_
_atom_site_label
_atom_site_type_symbol
_atom_site_fract_x
_atom_site_fract_y
_atom_site_fract_z
Cl1 Cl 0.36884(9) 0.11600(2) 0.79279(8)
O1 O 0.3884(3) -0.18294(9) 0.8798(2)
C1 C 0.3474(3) -0.04515(8) 0.7241(2)
C2 C 0.3109(3) -0.11074(7) 0.6173(2)
C3 C 0.2481(2) -0.10016(8) 0.4295(2)
C4 C 0.1791(3) 0.00951(9) 0.2304(2)
C5 C 0.1818(3) 0.07970(10) 0.2410(3)
C6 C 0.2408(3) 0.11439(8) 0.4112(3)
C7 C 0.2969(2) 0.07580(8) 0.5758(2)
C8 C 0.2949(2) 0.00606(8) 0.5699(2)
C9 C 0.2364(2) -0.02702(8) 0.3967(2)
C10 C 0.3394(3) -0.17630(10) 0.7102(3)
C11 C 0.1960(3) -0.15020(10) 0.2743(3)
C12 C 0.2417(4) 0.19030(10) 0.4146(4)
H1 H 0.263(4) -0.0426(12) 0.796(4)
H2 H 0.490(4) -0.0399(11) 0.788(4)
H3 H 0.133(4) -0.0193(14) 0.112(4)
H4 H 0.138(4) 0.1051(14) 0.130(4)
H5 H 0.319(4) -0.2159(16) 0.627(4)
H6 H 0.223 -0.195 0.325
H7 H 0.271 -0.142 0.188
H8 H 0.060 -0.146 0.210
H9 H 0.204 0.207 0.288
H10 H 0.370 0.206 0.478
H11 H 0.152 0.206 0.480
loop_
_geom_bond_atom_site_label_1
_geom_bond_atom_site_label_2
_geom_bond_site_symmetry_1
_geom_bond_site_symmetry_2
Cl1 C7 1_555 1_555
O1 C10 1_555 1_555
C1 C2 1_555 1_555
C2 C3 1_555 1_555
C3 C9 1_555 1_555
C4 C5 1_555 1_555
C5 C6 1_555 1_555
C6 C7 1_555 1_555
C7 C8 1_555 1_555
C8 C1 1_555 1_555
C9 C4 1_555 1_555
C10 C2 1_555 1_555
C11 C3 1_555 1_555
C12 C6 1_555 1_555
H1 C1 1_555 1_555
H2 C1 1_555 1_555
H3 C4 1_555 1_555
H4 C5 1_555 1_555
H5 C10 1_555 1_555
H6 C11 1_555 1_555
H7 C11 1_555 1_555
H8 C11 1_555 1_555
H9 C12 1_555 1_555
H10 C12 1_555 1_555
H11 C12 1_555 1_555
C8 C9 1_555 1_555

#END
