
#######################################################################
#
#                 Cambridge Crystallographic Data Centre
#                                CCDC 
#
#######################################################################
#
# If this CIF has been generated from an entry in the Cambridge 
# Structural Database, then it will include bibliographic, chemical, 
# crystal, experimental, refinement or atomic coordinate data resulting 
# from the CCDC's data processing and validation procedures.
#
#######################################################################

data_MATFET
_chemical_formula_moiety         'C48 H54 N4 O4'
_chemical_name_systematic        
4,5-Dihexyl-1,2-bis(2'-hydroxy-3'-(N-p-tolylcarbamoyl)benzylideneamino)benzene
_symmetry_cell_setting           monoclinic
_symmetry_space_group_name_H-M   'P 21'
_symmetry_Int_Tables_number      4
_space_group_name_Hall           'P 2yb'
loop_
_symmetry_equiv_pos_site_id
_symmetry_equiv_pos_as_xyz
1 x,y,z
2 -x,1/2+y,-z
_cell_length_a                   12.3731(15)
_cell_length_b                   10.3810(13)
_cell_length_c                   16.608(2)
_cell_angle_alpha                90
_cell_angle_beta                 93.254(2)
_cell_angle_gamma                90
_cell_volume                     2129.78
_exptl_crystal_colour            red
_exptl_crystal_description       rod
_cell_formula_units_Z            2
_exptl_crystal_recrystallization_method ethanol
loop_
_atom_site_label
_atom_site_type_symbol
_atom_site_fract_x
_atom_site_fract_y
_atom_site_fract_z
N1 N 0.7816(3) -0.0755(4) 0.3175(3)
H1 H 0.7169 -0.0505 0.3259
N2 N 0.4237(3) 0.1587(3) 0.2287(2)
N3 N 0.2487(2) -0.0029(3) 0.2110(2)
N4 N 0.5147(3) -0.3047(4) 0.0767(2)
H2 H 0.4945 -0.2300 0.0925
O1 O 0.9178(2) -0.0454(4) 0.2354(2)
O2 O 0.5925(2) 0.0293(3) 0.2700(2)
H3 H 0.5298 0.0550 0.2698
O3 O 0.3844(2) -0.1477(3) 0.1506(2)
H4 H 0.3581 -0.0838 0.1710
O4 O 0.4568(3) -0.5112(3) 0.0592(2)
C1 C 0.7678(4) -0.1966(6) 0.4381(3)
H5 H 0.7025 -0.1548 0.4449
C2 C 0.8025(5) -0.2900(7) 0.4930(3)
H6 H 0.7599 -0.3097 0.5357
C3 C 0.8978(4) -0.3540(5) 0.4859(3)
C4 C 0.9592(4) -0.3155(5) 0.4239(4)
H7 H 1.0268 -0.3532 0.4197
C5 C 0.9264(4) -0.2250(5) 0.3680(4)
H8 H 0.9701 -0.2041 0.3262
C6 C 0.8271(3) -0.1643(5) 0.3743(3)
C7 C 0.9369(6) -0.4586(7) 0.5424(4)
H9 H 1.0057 -0.4897 0.5267
H10 H 0.8856 -0.5281 0.5404
H11 H 0.9445 -0.4252 0.5963
C8 C 0.8242(3) -0.0251(4) 0.2529(3)
C9 C 0.7546(3) 0.0658(4) 0.2028(3)
C10 C 0.8038(3) 0.1317(5) 0.1400(3)
H12 H 0.8762 0.1153 0.1317
C11 C 0.7495(4) 0.2177(6) 0.0915(3)
H13 H 0.7842 0.2587 0.0503
C12 C 0.6416(3) 0.2439(5) 0.1037(3)
H14 H 0.6048 0.3045 0.0712
C13 C 0.5883(3) 0.1826(4) 0.1625(3)
C14 C 0.6443(3) 0.0908(4) 0.2130(3)
C15 C 0.4770(3) 0.2161(4) 0.1757(3)
H15 H 0.4436 0.2811 0.1449
C16 C 0.3193(3) 0.2041(4) 0.2486(3)
C17 C 0.3086(3) 0.3268(4) 0.2789(3)
H16 H 0.3679 0.3819 0.2812
C18 C 0.2103(3) 0.3696(5) 0.3059(3)
C19 C 0.1188(3) 0.2894(5) 0.2972(3)
C20 C 0.1314(3) 0.1677(5) 0.2640(3)
H17 H 0.0711 0.1145 0.2567
C21 C 0.2316(3) 0.1226(4) 0.2414(3)
C22 C 0.1780(3) -0.0942(5) 0.2017(3)
H18 H 0.1079 -0.0797 0.2169
C23 C 0.2039(3) -0.2142(4) 0.1696(3)
C24 C 0.1255(4) -0.3129(5) 0.1618(3)
H19 H 0.0558 -0.2971 0.1775
C25 C 0.1501(4) -0.4313(5) 0.1315(3)
H20 H 0.0980 -0.4959 0.1275
C26 C 0.2527(4) -0.4535(5) 0.1071(3)
H21 H 0.2680 -0.5342 0.0863
C27 C 0.3341(3) -0.3627(4) 0.1119(3)
C28 C 0.3115(3) -0.2391(4) 0.1439(3)
C29 C 0.4410(4) -0.3997(5) 0.0806(3)
C30 C 0.6216(4) -0.3121(5) 0.0500(3)
C31 C 0.6890(4) -0.2095(5) 0.0682(3)
H22 H 0.6630 -0.1409 0.0974
C32 C 0.7937(4) -0.2052(6) 0.0444(3)
H23 H 0.8371 -0.1342 0.0571
C33 C 0.8343(4) -0.3075(7) 0.0012(3)
C34 C 0.7645(5) -0.4109(7) -0.0161(3)
H24 H 0.7898 -0.4810 -0.0444
C35 C 0.6610(4) -0.4123(5) 0.0071(3)
H25 H 0.6166 -0.4822 -0.0063
C36 C 0.9496(4) -0.2996(8) -0.0289(4)
H26 H 0.9644 -0.3758 -0.0591
H27 H 1.0009 -0.2928 0.0165
H28 H 0.9554 -0.2253 -0.0627
C37 C 0.2005(4) 0.4993(5) 0.3475(4)
H29 H 0.1458 0.5490 0.3171
H30 H 0.1738 0.4839 0.4004
C38 C 0.2978(5) 0.5792(6) 0.3580(5)
H31 H 0.3242 0.5972 0.3053
H32 H 0.3533 0.5305 0.3882
C39 C 0.2812(5) 0.7069(7) 0.4013(5)
H33 H 0.2198 0.7512 0.3751
H34 H 0.2637 0.6891 0.4564
C40 C 0.3793(7) 0.7958(8) 0.4026(6)
H35 H 0.4414 0.7490 0.4258
H36 H 0.3941 0.8166 0.3474
C41 C 0.3694(11) 0.9161(11) 0.4472(10)
H37 H 0.3194 0.9707 0.4158
H38 H 0.3353 0.8956 0.4968
C42 C 0.4584(11) 0.9877(18) 0.4674(11)
H39 H 0.4379 1.0617 0.4977
H40 H 0.4911 1.0153 0.4193
H41 H 0.5093 0.9368 0.4995
C43 C 0.0078(4) 0.3288(6) 0.3229(3)
H42 H -0.0322 0.2513 0.3347
H43 H 0.0171 0.3777 0.3726
C44 C -0.0598(4) 0.4074(7) 0.2630(4)
H44 H -0.0656 0.3623 0.2117
H45 H -0.0241 0.4891 0.2546
C45 C -0.1756(4) 0.4330(8) 0.2920(4)
H46 H -0.2158 0.3527 0.2910
H47 H -0.1698 0.4634 0.3473
C46 C -0.2358(6) 0.5291(12) 0.2412(6)
H48 H -0.2542 0.4885 0.1896
H49 H -0.1860 0.5987 0.2311
C47 C -0.3521(10) 0.5977(12) 0.2736(8)
H50 H -0.3421 0.6366 0.3266
H51 H -0.3847 0.6590 0.2353
C48 C -0.3985(11) 0.5001(14) 0.2743(9)
H52 H -0.4700 0.5142 0.2921
H53 H -0.3604 0.4414 0.3104
H54 H -0.4033 0.4642 0.2209
loop_
_geom_bond_atom_site_label_1
_geom_bond_atom_site_label_2
_geom_bond_site_symmetry_1
_geom_bond_site_symmetry_2
N1 H1 1_555 1_555
N2 C15 1_555 1_555
N3 C21 1_555 1_555
N4 H2 1_555 1_555
O1 C8 1_555 1_555
O2 H3 1_555 1_555
O3 H4 1_555 1_555
O4 C29 1_555 1_555
C1 H5 1_555 1_555
C2 C1 1_555 1_555
H6 C2 1_555 1_555
C3 C2 1_555 1_555
C4 C3 1_555 1_555
H7 C4 1_555 1_555
C5 C4 1_555 1_555
H8 C5 1_555 1_555
C6 N1 1_555 1_555
C7 C3 1_555 1_555
H9 C7 1_555 1_555
H10 C7 1_555 1_555
H11 C7 1_555 1_555
C8 N1 1_555 1_555
C9 C8 1_555 1_555
C10 C9 1_555 1_555
H12 C10 1_555 1_555
C11 C10 1_555 1_555
H13 C11 1_555 1_555
C12 C11 1_555 1_555
H14 C12 1_555 1_555
C13 C12 1_555 1_555
C14 O2 1_555 1_555
C15 C13 1_555 1_555
H15 C15 1_555 1_555
C16 N2 1_555 1_555
C17 C16 1_555 1_555
H16 C17 1_555 1_555
C18 C17 1_555 1_555
C19 C18 1_555 1_555
C20 C19 1_555 1_555
H17 C20 1_555 1_555
C21 C16 1_555 1_555
C22 N3 1_555 1_555
H18 C22 1_555 1_555
C23 C22 1_555 1_555
C24 C23 1_555 1_555
H19 C24 1_555 1_555
C25 C24 1_555 1_555
H20 C25 1_555 1_555
C26 C25 1_555 1_555
H21 C26 1_555 1_555
C27 C26 1_555 1_555
C28 O3 1_555 1_555
C29 N4 1_555 1_555
C30 N4 1_555 1_555
C31 C30 1_555 1_555
H22 C31 1_555 1_555
C32 C31 1_555 1_555
H23 C32 1_555 1_555
C33 C32 1_555 1_555
C34 C33 1_555 1_555
H24 C34 1_555 1_555
C35 C30 1_555 1_555
H25 C35 1_555 1_555
C36 C33 1_555 1_555
H26 C36 1_555 1_555
H27 C36 1_555 1_555
H28 C36 1_555 1_555
C37 C18 1_555 1_555
H29 C37 1_555 1_555
H30 C37 1_555 1_555
C38 C37 1_555 1_555
H31 C38 1_555 1_555
H32 C38 1_555 1_555
C39 C38 1_555 1_555
H33 C39 1_555 1_555
H34 C39 1_555 1_555
C40 C39 1_555 1_555
H35 C40 1_555 1_555
H36 C40 1_555 1_555
C41 C40 1_555 1_555
H37 C41 1_555 1_555
H38 C41 1_555 1_555
C42 C41 1_555 1_555
H39 C42 1_555 1_555
H40 C42 1_555 1_555
H41 C42 1_555 1_555
C43 C19 1_555 1_555
H42 C43 1_555 1_555
H43 C43 1_555 1_555
C44 C43 1_555 1_555
H44 C44 1_555 1_555
H45 C44 1_555 1_555
C45 C44 1_555 1_555
H46 C45 1_555 1_555
H47 C45 1_555 1_555
C46 C45 1_555 1_555
H48 C46 1_555 1_555
H49 C46 1_555 1_555
C47 C46 1_555 1_555
H50 C47 1_555 1_555
H51 C47 1_555 1_555
C48 C47 1_555 1_555
H52 C48 1_555 1_555
H53 C48 1_555 1_555
H54 C48 1_555 1_555
C1 C6 1_555 1_555
C5 C6 1_555 1_555
C9 C14 1_555 1_555
C13 C14 1_555 1_555
C20 C21 1_555 1_555
C23 C28 1_555 1_555
C27 C28 1_555 1_555
C27 C29 1_555 1_555
C34 C35 1_555 1_555

#END
