
#######################################################################
#
#                 Cambridge Crystallographic Data Centre
#                                CCDC 
#
#######################################################################
#
# If this CIF has been generated from an entry in the Cambridge 
# Structural Database, then it will include bibliographic, chemical, 
# crystal, experimental, refinement or atomic coordinate data resulting 
# from the CCDC's data processing and validation procedures.
#
#######################################################################

data_MATGOD
_chemical_formula_moiety         'C18 H20 N4 O4'
_chemical_name_systematic        rac-trans-1,2-bis(2-Nitroanilino)cyclohexane
_symmetry_cell_setting           monoclinic
_symmetry_space_group_name_H-M   'P 21/n'
_symmetry_Int_Tables_number      14
_space_group_name_Hall           '-P 2yn'
loop_
_symmetry_equiv_pos_site_id
_symmetry_equiv_pos_as_xyz
1 x,y,z
2 1/2+x,1/2-y,1/2+z
3 -x,-y,-z
4 1/2-x,1/2+y,1/2-z
_cell_length_a                   13.1140(10)
_cell_length_b                   12.7121(19)
_cell_length_c                   20.959(3)
_cell_angle_alpha                90
_cell_angle_beta                 105.594(7)
_cell_angle_gamma                90
_cell_volume                     3365.39
_exptl_crystal_colour            'bright orange'
_exptl_crystal_description       needle
_chemical_melting_point          493-494K
_cell_formula_units_Z            8
_exptl_crystal_recrystallization_method ethanol
loop_
_atom_site_label
_atom_site_type_symbol
_atom_site_fract_x
_atom_site_fract_y
_atom_site_fract_z
O1 O -0.0423(2) 0.0934(3) 0.18727(18)
O2 O -0.0812(2) 0.0784(3) 0.07987(18)
O3 O 0.4292(2) 0.2568(3) 0.18483(17)
O4 O 0.3822(2) 0.2938(3) 0.0798(2)
N1 N 0.1558(2) 0.0794(3) 0.2596(2)
N2 N 0.2899(2) 0.2593(3) 0.2538(2)
N3 N -0.0155(3) 0.0787(3) 0.1349(2)
N4 N 0.3605(3) 0.2822(3) 0.1335(2)
C1 C 0.2376(3) 0.1133(4) 0.3184(2)
C2 C 0.2623(3) 0.2320(4) 0.3147(2)
C3 C 0.3509(3) 0.2620(4) 0.3748(2)
C4 C 0.3212(3) 0.2395(4) 0.4389(2)
C5 C 0.2907(3) 0.1241(4) 0.4418(2)
C6 C 0.2043(3) 0.0915(4) 0.3808(2)
C7 C 0.1741(3) 0.0554(4) 0.2005(3)
C8 C 0.0941(3) 0.0568(4) 0.1390(3)
C9 C 0.1182(3) 0.0397(3) 0.0787(3)
C10 C 0.2195(4) 0.0147(4) 0.0777(3)
C11 C 0.2972(4) 0.0066(4) 0.1367(3)
C12 C 0.2767(3) 0.0263(4) 0.1961(3)
C13 C 0.2224(3) 0.2896(4) 0.1960(3)
C14 C 0.2540(3) 0.3003(4) 0.1367(3)
C15 C 0.1811(3) 0.3276(4) 0.0765(3)
C16 C 0.0777(3) 0.3478(4) 0.0739(3)
C17 C 0.0464(3) 0.3407(4) 0.1318(3)
C18 C 0.1153(3) 0.3127(4) 0.1906(3)
H1 H 0.0904 0.0742 0.2627
H2 H 0.3574 0.2555 0.2549
H3 H 0.3037 0.0727 0.3205
H4 H 0.1977 0.2728 0.3160
H5 H 0.3669 0.3378 0.3726
H6 H 0.4155 0.2219 0.3745
H7 H 0.2610 0.2848 0.4415
H8 H 0.3819 0.2561 0.4773
H9 H 0.3540 0.0796 0.4454
H10 H 0.2658 0.1122 0.4818
H11 H 0.1893 0.0155 0.3834
H12 H 0.1385 0.1308 0.3794
H13 H 0.0641 0.0455 0.0383
H14 H 0.2359 0.0032 0.0368
H15 H 0.3667 -0.0133 0.1360
H16 H 0.3327 0.0205 0.2356
H17 H 0.2039 0.3319 0.0372
H18 H 0.0284 0.3664 0.0333
H19 H -0.0250 0.3557 0.1306
H20 H 0.0904 0.3087 0.2291
O5 O 0.5095(2) 0.0850(3) 0.30688(17)
O6 O 0.5671(2) 0.0848(3) 0.41390(18)
O7 O 0.9749(2) 0.2546(3) 0.29533(18)
O8 O 1.0252(2) 0.2997(3) 0.39799(17)
N5 N 0.6430(3) 0.0703(3) 0.2333(2)
N6 N 0.7745(2) 0.2553(3) 0.2315(2)
N7 N 0.5837(3) 0.0761(3) 0.3592(2)
N8 N 0.9540(3) 0.2818(3) 0.3474(2)
C19 C 0.6707(3) 0.1031(4) 0.1734(2)
C20 C 0.6915(3) 0.2228(4) 0.1734(2)
C21 C 0.7222(3) 0.2526(4) 0.1105(2)
C22 C 0.6342(3) 0.2244(4) 0.0494(2)
C23 C 0.6088(3) 0.1071(4) 0.0496(2)
C24 C 0.5809(3) 0.0754(4) 0.1126(2)
C25 C 0.7146(3) 0.0511(4) 0.2936(3)
C26 C 0.6895(3) 0.0560(4) 0.3547(3)
C27 C 0.7663(3) 0.0433(3) 0.4147(3)
C28 C 0.8681(4) 0.0229(4) 0.4156(3)
C29 C 0.8946(3) 0.0138(4) 0.3561(3)
C30 C 0.8210(3) 0.0270(3) 0.2973(3)
C31 C 0.7611(3) 0.2838(4) 0.2900(3)
C32 C 0.8450(3) 0.2950(4) 0.3485(3)
C33 C 0.8279(4) 0.3155(4) 0.4103(3)
C34 C 0.7284(3) 0.3330(4) 0.4165(3)
C35 C 0.6436(3) 0.3301(4) 0.3583(3)
C36 C 0.6593(3) 0.3073(4) 0.2987(2)
H21 H 0.5754 0.0622 0.2307
H22 H 0.8396 0.2561 0.2277
H23 H 0.7361 0.0649 0.1708
H24 H 0.6247 0.2606 0.1736
H25 H 0.7363 0.3291 0.1107
H26 H 0.7878 0.2151 0.1094
H27 H 0.6564 0.2419 0.0090
H28 H 0.5700 0.2660 0.0487
H29 H 0.5487 0.0905 0.0109
H30 H 0.6709 0.0659 0.0455
H31 H 0.5674 -0.0012 0.1120
H32 H 0.5155 0.1122 0.1150
H33 H 0.7472 0.0488 0.4552
H34 H 0.9206 0.0149 0.4565
H35 H 0.9656 -0.0019 0.3565
H36 H 0.8418 0.0199 0.2575
H37 H 0.8864 0.3174 0.4486
H38 H 0.7165 0.3467 0.4584
H39 H 0.5739 0.3445 0.3611
H40 H 0.5999 0.3069 0.2608
loop_
_geom_bond_atom_site_label_1
_geom_bond_atom_site_label_2
_geom_bond_site_symmetry_1
_geom_bond_site_symmetry_2
O1 N3 1_555 1_555
O2 N3 1_555 1_555
O3 N4 1_555 1_555
O4 N4 1_555 1_555
N1 C1 1_555 1_555
N2 C2 1_555 1_555
N3 C8 1_555 1_555
N4 C14 1_555 1_555
C1 C2 1_555 1_555
C2 C3 1_555 1_555
C3 C4 1_555 1_555
C4 C5 1_555 1_555
C5 C6 1_555 1_555
C6 C1 1_555 1_555
C7 N1 1_555 1_555
C8 C7 1_555 1_555
C9 C8 1_555 1_555
C10 C9 1_555 1_555
C11 C10 1_555 1_555
C12 C7 1_555 1_555
C13 N2 1_555 1_555
C14 C13 1_555 1_555
C15 C14 1_555 1_555
C16 C15 1_555 1_555
C17 C16 1_555 1_555
C18 C13 1_555 1_555
O5 N7 1_555 1_555
O6 N7 1_555 1_555
O7 N8 1_555 1_555
O8 N8 1_555 1_555
N5 C19 1_555 1_555
N6 C20 1_555 1_555
N7 C26 1_555 1_555
N8 C32 1_555 1_555
C19 C20 1_555 1_555
C20 C21 1_555 1_555
C21 C22 1_555 1_555
C22 C23 1_555 1_555
C23 C24 1_555 1_555
C24 C19 1_555 1_555
C25 N5 1_555 1_555
C26 C25 1_555 1_555
C27 C26 1_555 1_555
C28 C27 1_555 1_555
C29 C28 1_555 1_555
C30 C25 1_555 1_555
C31 N6 1_555 1_555
C32 C31 1_555 1_555
C33 C32 1_555 1_555
C34 C33 1_555 1_555
C35 C34 1_555 1_555
C36 C31 1_555 1_555
H1 N1 1_555 1_555
H2 N2 1_555 1_555
H3 C1 1_555 1_555
H4 C2 1_555 1_555
H5 C3 1_555 1_555
H6 C3 1_555 1_555
H7 C4 1_555 1_555
H8 C4 1_555 1_555
H9 C5 1_555 1_555
H10 C5 1_555 1_555
H11 C6 1_555 1_555
H12 C6 1_555 1_555
H13 C9 1_555 1_555
H14 C10 1_555 1_555
H15 C11 1_555 1_555
H16 C12 1_555 1_555
H17 C15 1_555 1_555
H18 C16 1_555 1_555
H19 C17 1_555 1_555
H20 C18 1_555 1_555
H21 N5 1_555 1_555
H22 N6 1_555 1_555
H23 C19 1_555 1_555
H24 C20 1_555 1_555
H25 C21 1_555 1_555
H26 C21 1_555 1_555
H27 C22 1_555 1_555
H28 C22 1_555 1_555
H29 C23 1_555 1_555
H30 C23 1_555 1_555
H31 C24 1_555 1_555
H32 C24 1_555 1_555
H33 C27 1_555 1_555
H34 C28 1_555 1_555
H35 C29 1_555 1_555
H36 C30 1_555 1_555
H37 C33 1_555 1_555
H38 C34 1_555 1_555
H39 C35 1_555 1_555
H40 C36 1_555 1_555
C11 C12 1_555 1_555
C17 C18 1_555 1_555
C29 C30 1_555 1_555
C35 C36 1_555 1_555

#END
