
#######################################################################
#
#                 Cambridge Crystallographic Data Centre
#                                CCDC 
#
#######################################################################
#
# If this CIF has been generated from an entry in the Cambridge 
# Structural Database, then it will include bibliographic, chemical, 
# crystal, experimental, refinement or atomic coordinate data resulting 
# from the CCDC's data processing and validation procedures.
#
#######################################################################

data_MATKOH
_chemical_formula_moiety         'C18 H13 N5'
_chemical_name_systematic        4-Phenyl-3,5-bis(2-pyridyl)-4H-1,2,4-triazole
_symmetry_cell_setting           monoclinic
_symmetry_space_group_name_H-M   'P 21/n'
_symmetry_Int_Tables_number      14
_space_group_name_Hall           '-P 2yn'
loop_
_symmetry_equiv_pos_site_id
_symmetry_equiv_pos_as_xyz
1 x,y,z
2 1/2+x,1/2-y,1/2+z
3 -x,-y,-z
4 1/2-x,1/2+y,1/2-z
_cell_length_a                   5.9217(8)
_cell_length_b                   15.3265(15)
_cell_length_c                   15.9824(14)
_cell_angle_alpha                90
_cell_angle_beta                 95.188(10)
_cell_angle_gamma                90
_cell_volume                     1444.6
_exptl_crystal_colour            colorless
_exptl_crystal_description       block
_cell_formula_units_Z            4
_exptl_crystal_recrystallization_method acetone
loop_
_atom_site_label
_atom_site_type_symbol
_atom_site_fract_x
_atom_site_fract_y
_atom_site_fract_z
N1 N 0.3306(3) 0.84246(11) 0.49567(10)
N2 N -0.2020(3) 0.60687(11) 0.69336(10)
N3 N 0.1859(3) 0.86351(12) 0.70647(10)
N4 N 0.0210(3) 0.81881(12) 0.74456(10)
N5 N 0.0770(2) 0.75137(10) 0.62623(9)
C1 C 0.7260(4) 0.92555(15) 0.55923(15)
C2 C 0.6804(4) 0.91365(15) 0.47415(15)
C3 C 0.4824(4) 0.87269(15) 0.44526(14)
C4 C 0.5745(4) 0.89531(13) 0.61220(14)
C5 C 0.3807(3) 0.85378(12) 0.57871(12)
C6 C 0.2171(3) 0.82263(13) 0.63602(11)
C7 C -0.0421(3) 0.75221(13) 0.69594(11)
C8 C -0.2166(3) 0.69029(13) 0.71807(11)
C9 C -0.3842(4) 0.71994(15) 0.76649(13)
C10 C -0.3624(4) 0.55241(16) 0.71603(14)
C11 C -0.5364(4) 0.57694(17) 0.76219(14)
C12 C -0.5461(4) 0.66227(17) 0.78824(15)
C13 C 0.0534(3) 0.69175(12) 0.55562(11)
C14 C 0.2325(4) 0.63951(14) 0.53913(13)
C15 C 0.2099(4) 0.58560(15) 0.46972(14)
C16 C 0.0108(5) 0.58402(16) 0.41804(14)
C17 C -0.1670(4) 0.63640(15) 0.43552(13)
C18 C -0.1470(4) 0.69085(14) 0.50468(12)
H1 H 0.372(4) 0.6405(13) 0.5774(12)
H2 H -0.661(4) 0.6824(14) 0.8235(13)
H3 H -0.269(3) 0.7255(13) 0.5178(12)
H4 H -0.351(4) 0.4903(15) 0.6970(13)
H5 H -0.306(4) 0.6379(15) 0.3991(14)
H6 H 0.442(4) 0.8658(16) 0.3838(15)
H7 H 0.864(4) 0.9566(15) 0.5813(13)
H8 H -0.652(4) 0.5338(16) 0.7744(14)
H9 H 0.783(4) 0.9357(16) 0.4375(14)
H10 H 0.341(5) 0.5464(17) 0.4575(15)
H11 H -0.006(4) 0.5442(16) 0.3670(15)
H12 H 0.602(4) 0.9031(14) 0.6713(14)
H13 H -0.385(3) 0.7822(15) 0.7848(12)
loop_
_geom_bond_atom_site_label_1
_geom_bond_atom_site_label_2
_geom_bond_site_symmetry_1
_geom_bond_site_symmetry_2
N1 C3 1_555 1_555
N2 C8 1_555 1_555
N3 N4 1_555 1_555
N4 C7 1_555 1_555
N5 C6 1_555 1_555
C1 C2 1_555 1_555
C2 C3 1_555 1_555
C3 H6 1_555 1_555
C4 C1 1_555 1_555
C5 N1 1_555 1_555
C6 N3 1_555 1_555
C7 N5 1_555 1_555
C8 C7 1_555 1_555
C9 C8 1_555 1_555
C10 N2 1_555 1_555
C11 C10 1_555 1_555
C12 C9 1_555 1_555
C13 N5 1_555 1_555
C14 C13 1_555 1_555
C15 C14 1_555 1_555
C16 C15 1_555 1_555
C17 C16 1_555 1_555
C18 C13 1_555 1_555
H1 C14 1_555 1_555
H2 C12 1_555 1_555
H3 C18 1_555 1_555
H4 C10 1_555 1_555
H5 C17 1_555 1_555
H7 C1 1_555 1_555
H8 C11 1_555 1_555
H9 C2 1_555 1_555
H10 C15 1_555 1_555
H11 C16 1_555 1_555
H12 C4 1_555 1_555
H13 C9 1_555 1_555
C4 C5 1_555 1_555
C5 C6 1_555 1_555
C11 C12 1_555 1_555
C17 C18 1_555 1_555

#END
