
#######################################################################
#
#                 Cambridge Crystallographic Data Centre
#                                CCDC 
#
#######################################################################
#
# If this CIF has been generated from an entry in the Cambridge 
# Structural Database, then it will include bibliographic, chemical, 
# crystal, experimental, refinement or atomic coordinate data resulting 
# from the CCDC's data processing and validation procedures.
#
#######################################################################

data_MATZOZ
_chemical_formula_moiety         'C20 H17 N1 S1'
_chemical_name_systematic        
2-[(4-methylphenyl)sulfanyl]-2-(naphthalen-2-yl)propanenitrile
_symmetry_cell_setting           monoclinic
_symmetry_space_group_name_H-M   'P 21/c'
_symmetry_Int_Tables_number      14
_space_group_name_Hall           '-P 2ybc'
loop_
_symmetry_equiv_pos_site_id
_symmetry_equiv_pos_as_xyz
1 x,y,z
2 -x,1/2+y,1/2-z
3 -x,-y,-z
4 x,1/2-y,1/2+z
_cell_length_a                   11.18234(17)
_cell_length_b                   5.96601(10)
_cell_length_c                   23.6894(4)
_cell_angle_alpha                90
_cell_angle_beta                 94.8227(14)
_cell_angle_gamma                90
_cell_volume                     1574.82
_exptl_crystal_colour            yellow
_exptl_crystal_description       block
_cell_formula_units_Z            4
loop_
_atom_site_label
_atom_site_type_symbol
_atom_site_fract_x
_atom_site_fract_y
_atom_site_fract_z
S1 S 0.55582(3) 0.66742(6) 0.301498(13)
C1 C 0.78134(11) 0.8937(2) 0.22743(5)
H1 H 0.7401 1.0289 0.2280
C2 C 0.84200(11) 0.5422(2) 0.27119(5)
H2 H 0.8417 0.4443 0.3017
C3 C 0.70405(11) 0.8008(2) 0.32191(6)
N1 N 0.79076(12) 0.6070(3) 0.41565(5)
C4 C 0.46729(12) 0.5901(2) 0.40471(6)
H3 H 0.5059 0.4522 0.4041
C5 C 0.90363(11) 0.4854(2) 0.22579(6)
H4 H 0.9435 0.3487 0.2256
C6 C 0.69159(12) 1.0510(2) 0.33445(6)
H5 H 0.6530 1.1248 0.3018
H6 H 0.7697 1.1148 0.3433
H7 H 0.6442 1.0703 0.3661
C7 C 0.85093(12) 0.9906(2) 0.13412(6)
H8 H 0.8114 1.1276 0.1346
C8 C 0.84608(11) 0.8404(2) 0.18027(6)
C9 C 0.41271(12) 0.9436(2) 0.36084(6)
H9 H 0.4131 1.0414 0.3303
C10 C 0.91363(13) 0.9349(3) 0.08883(6)
H10 H 0.9166 1.0348 0.0588
C11 C 0.97055(12) 0.5785(3) 0.13121(6)
H11 H 1.0099 0.4416 0.1297
C12 C 0.90739(11) 0.6324(2) 0.17909(6)
C13 C 0.77865(11) 0.7477(2) 0.27246(5)
C14 C 0.35213(12) 1.0010(3) 0.40744(6)
H12 H 0.3138 1.1392 0.4083
C15 C 0.34773(12) 0.8545(3) 0.45318(6)
C16 C 0.47309(11) 0.7390(2) 0.35982(5)
C17 C 0.75435(12) 0.6885(2) 0.37432(6)
C18 C 0.28435(16) 0.9220(4) 0.50409(7)
H13 H 0.3366 1.0141 0.5285
H14 H 0.2629 0.7904 0.5242
H15 H 0.2131 1.0048 0.4920
C19 C 0.40366(12) 0.6478(3) 0.45047(6)
H16 H 0.3985 0.5459 0.4799
C20 C 0.97355(13) 0.7275(3) 0.08742(6)
H17 H 1.0156 0.6915 0.0564
loop_
_geom_bond_atom_site_label_1
_geom_bond_atom_site_label_2
_geom_bond_site_symmetry_1
_geom_bond_site_symmetry_2
S1 C3 1_555 1_555
C1 H1 1_555 1_555
C2 H2 1_555 1_555
C3 C6 1_555 1_555
N1 C17 1_555 1_555
C4 H3 1_555 1_555
C5 C2 1_555 1_555
H4 C5 1_555 1_555
C6 H5 1_555 1_555
H6 C6 1_555 1_555
H7 C6 1_555 1_555
C7 H8 1_555 1_555
C8 C1 1_555 1_555
C9 H9 1_555 1_555
C10 C7 1_555 1_555
H10 C10 1_555 1_555
C11 H11 1_555 1_555
C12 C5 1_555 1_555
C13 C1 1_555 1_555
C14 C9 1_555 1_555
H12 C14 1_555 1_555
C15 C14 1_555 1_555
C16 S1 1_555 1_555
C17 C3 1_555 1_555
C18 C15 1_555 1_555
H13 C18 1_555 1_555
H14 C18 1_555 1_555
H15 C18 1_555 1_555
C19 C4 1_555 1_555
H16 C19 1_555 1_555
C20 C10 1_555 1_555
H17 C20 1_555 1_555
C2 C13 1_555 1_555
C3 C13 1_555 1_555
C4 C16 1_555 1_555
C7 C8 1_555 1_555
C8 C12 1_555 1_555
C9 C16 1_555 1_555
C11 C12 1_555 1_555
C11 C20 1_555 1_555
C15 C19 1_555 1_555

#END
