
#######################################################################
#
#                 Cambridge Crystallographic Data Centre
#                                CCDC 
#
#######################################################################
#
# If this CIF has been generated from an entry in the Cambridge 
# Structural Database, then it will include bibliographic, chemical, 
# crystal, experimental, refinement or atomic coordinate data resulting 
# from the CCDC's data processing and validation procedures.
#
#######################################################################

data_MAVBOB
_chemical_formula_moiety         'C24 H20 F1 N1 O3'
_chemical_name_systematic        
"4-Cyano-3-fluorophenyl 4'-isobutoxybiphenyl-4-carboxylate"
_symmetry_cell_setting           orthorhombic
_symmetry_space_group_name_H-M   'P 21 21 21'
_symmetry_Int_Tables_number      19
_space_group_name_Hall           'P 2ac 2ab'
loop_
_symmetry_equiv_pos_site_id
_symmetry_equiv_pos_as_xyz
1 x,y,z
2 1/2-x,-y,1/2+z
3 -x,1/2+y,1/2-z
4 1/2+x,1/2-y,-z
_cell_length_a                   7.1969(12)
_cell_length_b                   7.8499(13)
_cell_length_c                   35.797(6)
_cell_angle_alpha                90
_cell_angle_beta                 90
_cell_angle_gamma                90
_cell_volume                     2022.35
_exptl_crystal_colour            colorless
_exptl_crystal_description       block
_cell_formula_units_Z            4
_exptl_crystal_recrystallization_method 'ethyl acetate/petroleum ether 1:7'
loop_
_atom_site_label
_atom_site_type_symbol
_atom_site_fract_x
_atom_site_fract_y
_atom_site_fract_z
F1 F 0.7228(2) 0.9655(3) 0.11394(5)
O1 O 0.1278(2) 0.8971(2) 0.16705(4)
O2 O 0.0380(3) 1.1606(2) 0.15092(4)
O3 O -0.8116(2) 1.0226(2) 0.39293(4)
N1 N 0.7152(4) 0.8320(4) 0.02146(7)
C1 C 0.6132(4) 0.8454(4) 0.04557(7)
C2 C 0.4836(3) 0.8616(3) 0.07614(6)
C3 C 0.5430(3) 0.9221(3) 0.11004(6)
C4 C 0.4276(3) 0.9383(3) 0.14045(6)
H1 H 0.4711 0.9793 0.1632
C5 C 0.2446(3) 0.8911(3) 0.13570(6)
C6 C 0.1793(3) 0.8300(4) 0.10246(6)
H2 H 0.0554 0.7980 0.1001
C7 C 0.2987(3) 0.8161(4) 0.07248(6)
H3 H 0.2548 0.7760 0.0497
C8 C 0.0276(3) 1.0433(3) 0.17180(5)
C9 C -0.0908(3) 1.0356(3) 0.20576(5)
C10 C -0.2386(3) 1.1480(3) 0.20845(6)
H4 H -0.2617 1.2246 0.1892
C11 C -0.3518(3) 1.1467(3) 0.23963(6)
H5 H -0.4510 1.2224 0.2409
C12 C -0.3213(3) 1.0352(3) 0.26921(5)
C13 C -0.1701(3) 0.9260(3) 0.26618(6)
H6 H -0.1435 0.8523 0.2858
C14 C -0.0582(3) 0.9240(3) 0.23490(5)
H7 H 0.0397 0.8470 0.2334
C15 C -0.4462(3) 1.0315(3) 0.30235(5)
C16 C -0.3923(3) 0.9600(3) 0.33602(5)
H8 H -0.2730 0.9153 0.3381
C17 C -0.5091(3) 0.9526(3) 0.36663(6)
H9 H -0.4690 0.9025 0.3887
C18 C -0.6863(3) 1.0202(3) 0.36414(6)
C19 C -0.7442(3) 1.0917(3) 0.33092(6)
H10 H -0.8633 1.1370 0.3290
C20 C -0.6270(3) 1.0965(3) 0.30059(6)
H11 H -0.6690 1.1442 0.2783
C21 C -0.7725(3) 0.9223(3) 0.42536(6)
H12 H -0.6622 0.9652 0.4377
H13 H -0.7501 0.8050 0.4182
C22 C -0.9366(3) 0.9315(3) 0.45154(6)
H14 H -0.9595 1.0515 0.4575
C23 C -1.1093(4) 0.8599(5) 0.43381(7)
H15 H -1.1362 0.9213 0.4113
H16 H -1.2117 0.8708 0.4508
H17 H -1.0901 0.7417 0.4280
C24 C -0.8860(4) 0.8395(5) 0.48754(6)
H18 H -0.9892 0.8440 0.5045
H19 H -0.7801 0.8936 0.4987
H20 H -0.8568 0.7228 0.4821
loop_
_geom_bond_atom_site_label_1
_geom_bond_atom_site_label_2
_geom_bond_site_symmetry_1
_geom_bond_site_symmetry_2
F1 C3 1_555 1_555
O1 C5 1_555 1_555
O2 C8 1_555 1_555
O3 C18 1_555 1_555
N1 C1 1_555 1_555
C1 C2 1_555 1_555
C2 C3 1_555 1_555
C3 C4 1_555 1_555
C4 H1 1_555 1_555
C5 C4 1_555 1_555
C6 C5 1_555 1_555
H2 C6 1_555 1_555
C7 C2 1_555 1_555
H3 C7 1_555 1_555
C8 O1 1_555 1_555
C9 C8 1_555 1_555
C10 C9 1_555 1_555
H4 C10 1_555 1_555
C11 C10 1_555 1_555
H5 C11 1_555 1_555
C12 C11 1_555 1_555
C13 C12 1_555 1_555
H6 C13 1_555 1_555
C14 C9 1_555 1_555
H7 C14 1_555 1_555
C15 C12 1_555 1_555
C16 C15 1_555 1_555
H8 C16 1_555 1_555
C17 C16 1_555 1_555
H9 C17 1_555 1_555
C18 C17 1_555 1_555
C19 C18 1_555 1_555
H10 C19 1_555 1_555
C20 C15 1_555 1_555
H11 C20 1_555 1_555
C21 O3 1_555 1_555
H12 C21 1_555 1_555
H13 C21 1_555 1_555
C22 C21 1_555 1_555
H14 C22 1_555 1_555
C23 C22 1_555 1_555
H15 C23 1_555 1_555
H16 C23 1_555 1_555
H17 C23 1_555 1_555
C24 C22 1_555 1_555
H18 C24 1_555 1_555
H19 C24 1_555 1_555
H20 C24 1_555 1_555
C6 C7 1_555 1_555
C13 C14 1_555 1_555
C19 C20 1_555 1_555

#END
