
#######################################################################
#
#                 Cambridge Crystallographic Data Centre
#                                CCDC 
#
#######################################################################
#
# If this CIF has been generated from an entry in the Cambridge 
# Structural Database, then it will include bibliographic, chemical, 
# crystal, experimental, refinement or atomic coordinate data resulting 
# from the CCDC's data processing and validation procedures.
#
#######################################################################

data_MAVBOD
_chemical_formula_moiety         'C32 H29 Cl1 N2 O5'
_chemical_name_systematic        
'(2-benzoyl-4-(4-chlorophenyl)-6,6-dimethyl-8-oxo-3a-phenyl-4,5,6,7,8,8b-hexahydro-2H-[1,3]oxazolo[5,4-b]indol-1(3aH)-yl)acetic acid'
_symmetry_cell_setting           triclinic
_symmetry_space_group_name_H-M   'P -1'
_symmetry_Int_Tables_number      2
_space_group_name_Hall           '-P 1'
loop_
_symmetry_equiv_pos_site_id
_symmetry_equiv_pos_as_xyz
1 x,y,z
2 -x,-y,-z
_cell_length_a                   10.4540(10)
_cell_length_b                   11.4769(12)
_cell_length_c                   12.4781(15)
_cell_angle_alpha                95.6550(10)
_cell_angle_beta                 109.758(2)
_cell_angle_gamma                94.3230(10)
_cell_volume                     1392.65
_exptl_crystal_colour            white
_exptl_crystal_description       block
_cell_formula_units_Z            2
loop_
_atom_site_label
_atom_site_type_symbol
_atom_site_fract_x
_atom_site_fract_y
_atom_site_fract_z
Cl1 Cl -0.26383(12) 0.34962(12) 0.94984(12)
N1 N 0.3108(3) 0.0948(3) 0.5899(3)
N2 N 0.1778(3) 0.2609(3) 0.7632(3)
O1 O 0.3380(3) -0.0608(3) 0.4100(3)
O2 O 0.4317(3) -0.1858(3) 0.5340(2)
H1 H 0.4371 -0.2236 0.4767
O3 O 0.1222(2) 0.0713(2) 0.6475(2)
O4 O 0.5217(3) 0.3410(2) 0.6166(2)
O5 O -0.0122(3) 0.2083(3) 0.5009(3)
C1 C 0.3745(4) -0.0886(4) 0.5055(4)
C2 C 0.3641(4) -0.0194(3) 0.6107(3)
H2 H 0.3046 -0.0664 0.6393
H3 H 0.4541 -0.0055 0.6700
C3 C 0.1622(4) 0.0814(3) 0.5472(3)
H4 H 0.1292 0.0075 0.4947
C4 C 0.2217(4) 0.1429(3) 0.7431(3)
C5 C 0.3455(4) 0.1738(3) 0.6997(3)
H5 H 0.4327 0.1590 0.7554
C6 C 0.3427(4) 0.3022(3) 0.6879(3)
C7 C 0.2459(4) 0.3452(3) 0.7278(3)
C8 C 0.2173(4) 0.4708(3) 0.7291(3)
H6 H 0.1925 0.4942 0.7956
H7 H 0.1403 0.4783 0.6609
C9 C 0.3422(4) 0.5538(3) 0.7330(4)
C10 C 0.3977(4) 0.5020(3) 0.6402(3)
H8 H 0.3309 0.5062 0.5650
H9 H 0.4807 0.5507 0.6469
C11 C 0.4288(4) 0.3754(3) 0.6475(3)
C12 C 0.0931(4) 0.1820(4) 0.4855(3)
C13 C 0.1433(4) 0.2448(4) 0.4058(3)
C14 C 0.0971(5) 0.3540(4) 0.3813(4)
H10 H 0.0362 0.3839 0.4135
C15 C 0.1417(5) 0.4172(5) 0.3095(5)
H11 H 0.1131 0.4908 0.2955
C16 C 0.2284(5) 0.3717(6) 0.2588(4)
H12 H 0.2583 0.4143 0.2104
C17 C 0.2703(5) 0.2639(5) 0.2794(4)
H13 H 0.3258 0.2320 0.2424
C18 C 0.2312(4) 0.2010(4) 0.3551(4)
H14 H 0.2644 0.1294 0.3716
C19 C 0.2476(4) 0.0828(3) 0.8501(4)
C20 C 0.1549(5) -0.0057(4) 0.8557(5)
H15 H 0.0792 -0.0346 0.7908
C21 C 0.1741(7) -0.0527(5) 0.9587(6)
H16 H 0.1100 -0.1111 0.9630
C22 C 0.2875(7) -0.0121(5) 1.0531(5)
H17 H 0.3015 -0.0440 1.1213
C23 C 0.3795(6) 0.0745(5) 1.0472(4)
H18 H 0.4565 0.1017 1.1114
C24 C 0.3595(5) 0.1224(4) 0.9468(4)
H19 H 0.4228 0.1825 0.9443
C25 C 0.0708(4) 0.2802(3) 0.8101(3)
C26 C -0.0638(4) 0.2500(4) 0.7417(4)
H20 H -0.0864 0.2154 0.6661
C27 C -0.1667(4) 0.2717(4) 0.7867(4)
H21 H -0.2581 0.2521 0.7407
C28 C -0.1339(4) 0.3207(4) 0.8959(4)
C29 C -0.0008(5) 0.3480(5) 0.9650(4)
H22 H 0.0213 0.3806 1.0412
C30 C 0.1019(4) 0.3267(4) 0.9210(4)
H23 H 0.1931 0.3446 0.9682
C31 C 0.4548(4) 0.5655(4) 0.8515(4)
H24 H 0.4209 0.5985 0.9090
H25 H 0.5324 0.6163 0.8521
H26 H 0.4817 0.4891 0.8677
C32 C 0.2989(4) 0.6760(3) 0.7092(4)
H27 H 0.2637 0.7071 0.7665
H28 H 0.2292 0.6697 0.6346
H29 H 0.3766 0.7277 0.7115
loop_
_geom_bond_atom_site_label_1
_geom_bond_atom_site_label_2
_geom_bond_site_symmetry_1
_geom_bond_site_symmetry_2
Cl1 C28 1_555 1_555
N1 C2 1_555 1_555
N2 C4 1_555 1_555
O1 C1 1_555 1_555
O2 H1 1_555 1_555
O3 C3 1_555 1_555
O4 C11 1_555 1_555
O5 C12 1_555 1_555
C1 O2 1_555 1_555
C2 C1 1_555 1_555
H2 C2 1_555 1_555
H3 C2 1_555 1_555
C3 N1 1_555 1_555
H4 C3 1_555 1_555
C4 O3 1_555 1_555
C5 N1 1_555 1_555
H5 C5 1_555 1_555
C6 C5 1_555 1_555
C7 N2 1_555 1_555
C8 C7 1_555 1_555
H6 C8 1_555 1_555
H7 C8 1_555 1_555
C9 C8 1_555 1_555
C10 C9 1_555 1_555
H8 C10 1_555 1_555
H9 C10 1_555 1_555
C11 C6 1_555 1_555
C12 C3 1_555 1_555
C13 C12 1_555 1_555
C14 C13 1_555 1_555
H10 C14 1_555 1_555
C15 C14 1_555 1_555
H11 C15 1_555 1_555
C16 C15 1_555 1_555
H12 C16 1_555 1_555
C17 C16 1_555 1_555
H13 C17 1_555 1_555
C18 C13 1_555 1_555
H14 C18 1_555 1_555
C19 C4 1_555 1_555
C20 C19 1_555 1_555
H15 C20 1_555 1_555
C21 C20 1_555 1_555
H16 C21 1_555 1_555
C22 C21 1_555 1_555
H17 C22 1_555 1_555
C23 C22 1_555 1_555
H18 C23 1_555 1_555
C24 C19 1_555 1_555
H19 C24 1_555 1_555
C25 N2 1_555 1_555
C26 C25 1_555 1_555
H20 C26 1_555 1_555
C27 C26 1_555 1_555
H21 C27 1_555 1_555
C28 C27 1_555 1_555
C29 C28 1_555 1_555
H22 C29 1_555 1_555
C30 C25 1_555 1_555
H23 C30 1_555 1_555
C31 C9 1_555 1_555
H24 C31 1_555 1_555
H25 C31 1_555 1_555
H26 C31 1_555 1_555
C32 C9 1_555 1_555
H27 C32 1_555 1_555
H28 C32 1_555 1_555
H29 C32 1_555 1_555
C4 C5 1_555 1_555
C6 C7 1_555 1_555
C10 C11 1_555 1_555
C17 C18 1_555 1_555
C23 C24 1_555 1_555
C29 C30 1_555 1_555

#END
