
#######################################################################
#
#                 Cambridge Crystallographic Data Centre
#                                CCDC 
#
#######################################################################
#
# If this CIF has been generated from an entry in the Cambridge 
# Structural Database, then it will include bibliographic, chemical, 
# crystal, experimental, refinement or atomic coordinate data resulting 
# from the CCDC's data processing and validation procedures.
#
#######################################################################

data_MAVGAU
_chemical_formula_moiety         'C21 H14 N2 S1'
_chemical_name_systematic        2,3-diphenyl[1,3]thiazolo[3,2-a]benzimidazole
_symmetry_cell_setting           monoclinic
_symmetry_space_group_name_H-M   'P 21/n'
_symmetry_Int_Tables_number      14
_space_group_name_Hall           '-P 2yn'
loop_
_symmetry_equiv_pos_site_id
_symmetry_equiv_pos_as_xyz
1 x,y,z
2 1/2-x,1/2+y,1/2-z
3 -x,-y,-z
4 1/2+x,1/2-y,1/2+z
_cell_length_a                   6.1447(9)
_cell_length_b                   15.0655(19)
_cell_length_c                   17.331(2)
_cell_angle_alpha                90
_cell_angle_beta                 97.341(11)
_cell_angle_gamma                90
_cell_volume                     1591.23
_exptl_crystal_colour            colorless
_exptl_crystal_description       block
_cell_formula_units_Z            4
loop_
_atom_site_label
_atom_site_type_symbol
_atom_site_fract_x
_atom_site_fract_y
_atom_site_fract_z
S1 S 1.0595(2) 0.40827(9) 0.83016(8)
N1 N 0.7293(8) 0.3470(3) 0.9140(2)
N2 N 0.8105(7) 0.2721(3) 0.8068(2)
C1 C 0.5951(9) 0.2720(3) 0.9012(3)
C2 C 0.4262(10) 0.2428(4) 0.9407(3)
H1 H 0.3867 0.2750 0.9826
C3 C 0.3179(10) 0.1656(4) 0.9172(3)
H2 H 0.2039 0.1460 0.9434
C4 C 0.3758(10) 0.1159(4) 0.8546(3)
H3 H 0.3021 0.0632 0.8410
C5 C 0.5402(9) 0.1436(3) 0.8126(3)
H4 H 0.5797 0.1107 0.7712
C6 C 0.6437(8) 0.2234(3) 0.8355(3)
C7 C 0.8545(9) 0.3429(3) 0.8578(3)
C8 C 0.9337(8) 0.2709(3) 0.7436(3)
C9 C 0.8802(9) 0.2032(3) 0.6820(3)
C10 C 0.6694(9) 0.2013(3) 0.6415(3)
H5 H 0.5663 0.2432 0.6523
C11 C 0.6130(9) 0.1373(4) 0.5855(3)
H6 H 0.4719 0.1360 0.5587
C12 C 0.7647(11) 0.0758(4) 0.5695(3)
H7 H 0.7259 0.0323 0.5322
C13 C 0.9737(11) 0.0781(4) 0.6081(3)
H8 H 1.0758 0.0363 0.5963
C14 C 1.0352(9) 0.1418(3) 0.6645(3)
H9 H 1.1777 0.1434 0.6901
C15 C 1.0774(9) 0.3392(3) 0.7480(3)
C16 C 1.2312(8) 0.3686(3) 0.6937(3)
C17 C 1.1755(9) 0.3613(4) 0.6134(3)
H10 H 1.0427 0.3357 0.5932
C18 C 1.3177(10) 0.3921(4) 0.5641(3)
H11 H 1.2809 0.3862 0.5106
C19 C 1.5137(10) 0.4316(4) 0.5930(4)
H12 H 1.6092 0.4516 0.5593
C20 C 1.5670(9) 0.4411(3) 0.6721(4)
H13 H 1.6980 0.4686 0.6918
C21 C 1.4271(9) 0.4101(3) 0.7225(3)
H14 H 1.4641 0.4170 0.7758
loop_
_geom_bond_atom_site_label_1
_geom_bond_atom_site_label_2
_geom_bond_site_symmetry_1
_geom_bond_site_symmetry_2
S1 C7 1_555 1_555
N1 C1 1_555 1_555
N2 C6 1_555 1_555
C1 C2 1_555 1_555
C2 H1 1_555 1_555
C3 C2 1_555 1_555
H2 C3 1_555 1_555
C4 C3 1_555 1_555
H3 C4 1_555 1_555
C5 C4 1_555 1_555
H4 C5 1_555 1_555
C6 C1 1_555 1_555
C7 N1 1_555 1_555
C8 N2 1_555 1_555
C9 C8 1_555 1_555
C10 C9 1_555 1_555
H5 C10 1_555 1_555
C11 C10 1_555 1_555
H6 C11 1_555 1_555
C12 C11 1_555 1_555
H7 C12 1_555 1_555
C13 C12 1_555 1_555
H8 C13 1_555 1_555
C14 C9 1_555 1_555
H9 C14 1_555 1_555
C15 S1 1_555 1_555
C16 C15 1_555 1_555
C17 C16 1_555 1_555
H10 C17 1_555 1_555
C18 C17 1_555 1_555
H11 C18 1_555 1_555
C19 C18 1_555 1_555
H12 C19 1_555 1_555
C20 C19 1_555 1_555
H13 C20 1_555 1_555
C21 C16 1_555 1_555
H14 C21 1_555 1_555
N2 C7 1_555 1_555
C5 C6 1_555 1_555
C8 C15 1_555 1_555
C13 C14 1_555 1_555
C20 C21 1_555 1_555

#END
