
#######################################################################
#
#                 Cambridge Crystallographic Data Centre
#                                CCDC 
#
#######################################################################
#
# If this CIF has been generated from an entry in the Cambridge 
# Structural Database, then it will include bibliographic, chemical, 
# crystal, experimental, refinement or atomic coordinate data resulting 
# from the CCDC's data processing and validation procedures.
#
#######################################################################

data_MAVKIE
_chemical_formula_moiety         'C20 H12 N2 O1 S1'
_chemical_name_systematic        
2-((Z)-(1-Naphthyl)methylene)benzimidazo(2,1-b)thiazol-3(2H)-one
_symmetry_cell_setting           monoclinic
_symmetry_space_group_name_H-M   'P 21/c'
_symmetry_Int_Tables_number      14
_space_group_name_Hall           '-P 2ybc'
loop_
_symmetry_equiv_pos_site_id
_symmetry_equiv_pos_as_xyz
1 x,y,z
2 -x,1/2+y,1/2-z
3 -x,-y,-z
4 x,1/2-y,1/2+z
_cell_length_a                   6.8627(16)
_cell_length_b                   7.9031(19)
_cell_length_c                   27.010(6)
_cell_angle_alpha                90
_cell_angle_beta                 95.406(4)
_cell_angle_gamma                90
_cell_volume                     1458.41
_exptl_crystal_colour            yellow
_exptl_crystal_description       plate
_chemical_melting_point          '486-488 K'
_cell_formula_units_Z            4
_exptl_crystal_recrystallization_method chloroform
loop_
_atom_site_label
_atom_site_type_symbol
_atom_site_fract_x
_atom_site_fract_y
_atom_site_fract_z
C1 C -0.1244(4) 0.3340(3) -0.02914(9)
C2 C -0.3138(4) 0.3939(3) -0.03455(10)
H1 H -0.4016 0.3755 -0.0099
C3 C -0.3695(4) 0.4823(3) -0.07788(10)
H2 H -0.4989 0.5257 -0.0833
C4 C -0.2387(4) 0.5086(3) -0.11379(10)
H3 H -0.2811 0.5710 -0.1429
C5 C -0.0492(4) 0.4466(3) -0.10822(10)
H4 H 0.0378 0.4639 -0.1331
C6 C 0.0087(4) 0.3581(3) -0.06499(9)
C7 C 0.1659(4) 0.2148(3) -0.00776(9)
C8 C -0.0527(4) 0.1745(3) 0.05420(9)
C9 C 0.1285(3) 0.0860(3) 0.07529(9)
C10 C 0.1329(4) 0.0146(3) 0.12013(9)
H5 H 0.0130 0.0217 0.1349
C11 C 0.2890(4) -0.0722(3) 0.15048(9)
C12 C 0.4650(3) -0.1119(3) 0.13241(9)
H6 H 0.4853 -0.0806 0.0993
C13 C 0.6139(4) -0.1967(3) 0.16119(10)
H7 H 0.7330 -0.2221 0.1475
C14 C 0.5897(4) -0.2433(3) 0.20888(10)
H8 H 0.6913 -0.3020 0.2281
C15 C 0.4137(4) -0.2045(3) 0.22993(9)
C16 C 0.3897(4) -0.2469(3) 0.28003(10)
H9 H 0.4924 -0.3041 0.2993
C17 C 0.2235(4) -0.2077(3) 0.30112(10)
H10 H 0.2111 -0.2353 0.3349
C18 C 0.0699(4) -0.1259(3) 0.27235(10)
H11 H -0.0477 -0.1003 0.2867
C19 C 0.0878(4) -0.0830(3) 0.22412(9)
H12 H -0.0179 -0.0272 0.2056
C20 C 0.2595(4) -0.1192(3) 0.20084(9)
N1 N 0.1914(3) 0.2805(3) -0.05031(8)
N2 N -0.0187(3) 0.2406(3) 0.00826(7)
O1 O -0.2052(2) 0.1884(2) 0.07316(6)
S1 S 0.31774(9) 0.09958(8) 0.03509(2)
loop_
_geom_bond_atom_site_label_1
_geom_bond_atom_site_label_2
_geom_bond_site_symmetry_1
_geom_bond_site_symmetry_2
C1 C2 1_555 1_555
C2 H1 1_555 1_555
C3 C2 1_555 1_555
H2 C3 1_555 1_555
C4 C3 1_555 1_555
H3 C4 1_555 1_555
C5 C4 1_555 1_555
H4 C5 1_555 1_555
C6 C1 1_555 1_555
C7 N1 1_555 1_555
C8 C9 1_555 1_555
C9 C10 1_555 1_555
C10 H5 1_555 1_555
C11 C10 1_555 1_555
C12 C11 1_555 1_555
H6 C12 1_555 1_555
C13 C12 1_555 1_555
H7 C13 1_555 1_555
C14 C13 1_555 1_555
H8 C14 1_555 1_555
C15 C14 1_555 1_555
C16 C15 1_555 1_555
H9 C16 1_555 1_555
C17 C16 1_555 1_555
H10 C17 1_555 1_555
C18 C17 1_555 1_555
H11 C18 1_555 1_555
C19 C18 1_555 1_555
H12 C19 1_555 1_555
C20 C11 1_555 1_555
N1 C6 1_555 1_555
N2 C1 1_555 1_555
O1 C8 1_555 1_555
S1 C7 1_555 1_555
C5 C6 1_555 1_555
C7 N2 1_555 1_555
C8 N2 1_555 1_555
C9 S1 1_555 1_555
C15 C20 1_555 1_555
C19 C20 1_555 1_555

#END
