
#######################################################################
#
#                 Cambridge Crystallographic Data Centre
#                                CCDC 
#
#######################################################################
#
# If this CIF has been generated from an entry in the Cambridge 
# Structural Database, then it will include bibliographic, chemical, 
# crystal, experimental, refinement or atomic coordinate data resulting 
# from the CCDC's data processing and validation procedures.
#
#######################################################################

data_MAVLIF
_chemical_formula_moiety         'C22 H30 O8'
_chemical_name_systematic        
"Tetraethyl 2,2'-(p-phenylenedimethylene)dimalonate"
_symmetry_cell_setting           monoclinic
_symmetry_space_group_name_H-M   'P 21/n'
_symmetry_Int_Tables_number      14
_space_group_name_Hall           '-P 2yn'
loop_
_symmetry_equiv_pos_site_id
_symmetry_equiv_pos_as_xyz
1 x,y,z
2 1/2-x,1/2+y,1/2-z
3 -x,-y,-z
4 1/2+x,1/2-y,1/2+z
_cell_length_a                   9.461(2)
_cell_length_b                   8.3944(17)
_cell_length_c                   14.601(3)
_cell_angle_alpha                90
_cell_angle_beta                 94.069(4)
_cell_angle_gamma                90
_cell_volume                     1156.68
_exptl_crystal_colour            colorless
_exptl_crystal_description       block
_chemical_melting_point          '326-329 K'
_cell_formula_units_Z            2
_exptl_crystal_recrystallization_method acetone
loop_
_atom_site_label
_atom_site_type_symbol
_atom_site_fract_x
_atom_site_fract_y
_atom_site_fract_z
C1 C 0.6168(3) 0.0600(3) 0.46213(18)
H1 H 0.6965 0.1022 0.4373
C2 C 0.5309(3) -0.0454(3) 0.41066(15)
C3 C 0.5860(3) 0.1034(3) 0.54960(17)
H2 H 0.6460 0.1738 0.5826
C4 C 0.5649(3) -0.1023(3) 0.31665(17)
H3 H 0.4816 -0.1543 0.2879
H4 H 0.6395 -0.1814 0.3239
C5 C 0.4968(3) 0.1520(3) 0.23399(16)
C6 C 0.4511(5) 0.4295(5) 0.2205(3)
H5 H 0.3546 0.4001 0.2315
H6 H 0.4765 0.5227 0.2574
C7 C 0.4606(5) 0.4662(6) 0.1240(4)
H7 H 0.5569 0.4918 0.1131
H8 H 0.4007 0.5555 0.1075
H9 H 0.4305 0.3756 0.0875
C8 C 0.6466(3) -0.0445(3) 0.16142(17)
C11 C 0.7133(13) 0.0081(9) 0.0115(4)
H15 H 0.7744 -0.0848 0.0148
H16 H 0.6231 -0.0228 -0.0192
C12 C 0.7742(16) 0.1262(12) -0.0386(5)
H17 H 0.7271 0.2256 -0.0293
H18 H 0.7650 0.0991 -0.1026
H19 H 0.8727 0.1360 -0.0187
C13 C 0.6115(3) 0.0279(3) 0.25239(15)
H20 H 0.6964 0.0800 0.2807
O1 O 0.3770(2) 0.1213(3) 0.21006(16)
O2 O 0.5466(2) 0.2984(2) 0.24678(14)
O3 O 0.6350(2) -0.1816(2) 0.14195(14)
O4 O 0.6906(3) 0.0642(3) 0.10625(14)
C1B C 0.3832(3) -0.0600(3) 0.53787(18)
H1B H 0.3035 -0.1022 0.5627
C2B C 0.4691(3) 0.0454(3) 0.58934(15)
C3B C 0.4140(3) -0.1034(3) 0.45040(17)
H2B H 0.3540 -0.1738 0.4174
C4B C 0.4351(3) 0.1023(3) 0.68335(17)
H3B H 0.5184 0.1543 0.7121
H4B H 0.3605 0.1814 0.6761
C5B C 0.5032(3) -0.1520(3) 0.76601(16)
C6B C 0.5489(5) -0.4295(5) 0.7795(3)
H5B H 0.6454 -0.4001 0.7685
H6B H 0.5235 -0.5227 0.7426
C7B C 0.5394(5) -0.4662(6) 0.8760(4)
H7B H 0.4431 -0.4918 0.8869
H8B H 0.5993 -0.5555 0.8925
H9B H 0.5695 -0.3756 0.9125
C8B C 0.3534(3) 0.0445(3) 0.83858(17)
C11B C 0.2867(13) -0.0081(9) 0.9885(4)
H15B H 0.2256 0.0848 0.9852
H16B H 0.3769 0.0228 1.0192
C12B C 0.2258(16) -0.1262(12) 1.0386(5)
H17B H 0.2729 -0.2256 1.0293
H18B H 0.2350 -0.0991 1.1026
H19B H 0.1273 -0.1360 1.0187
C13B C 0.3885(3) -0.0279(3) 0.74761(15)
H20B H 0.3036 -0.0800 0.7193
O1B O 0.6230(2) -0.1213(3) 0.78994(16)
O2B O 0.4534(2) -0.2984(2) 0.75322(14)
O3B O 0.3650(2) 0.1816(2) 0.85805(14)
O4B O 0.3094(3) -0.0642(3) 0.89375(14)
C9? C 0.780(3) 0.022(3) 0.0280(14)
H10? H 0.7635 -0.0853 0.0045
H11? H 0.8804 0.0411 0.0414
C10? C 0.704(4) 0.1531(19) -0.032(2)
H12? H 0.7030 0.1234 -0.0955
H13? H 0.7537 0.2522 -0.0227
H14? H 0.6085 0.1650 -0.0149
loop_
_geom_bond_atom_site_label_1
_geom_bond_atom_site_label_2
_geom_bond_site_symmetry_1
_geom_bond_site_symmetry_2
C1 H1 1_555 1_555
C2 C1 1_555 1_555
C3 C1 1_555 1_555
H2 C3 1_555 1_555
C4 C2 1_555 1_555
H3 C4 1_555 1_555
H4 C4 1_555 1_555
C5 C13 1_555 1_555
C6 H5 1_555 1_555
H6 C6 1_555 1_555
C7 C6 1_555 1_555
H7 C7 1_555 1_555
H8 C7 1_555 1_555
H9 C7 1_555 1_555
C8 C13 1_555 1_555
C11 H15 1_555 1_555
H16 C11 1_555 1_555
C12 C11 1_555 1_555
H17 C12 1_555 1_555
H18 C12 1_555 1_555
H19 C12 1_555 1_555
C13 C4 1_555 1_555
H20 C13 1_555 1_555
O1 C5 1_555 1_555
O2 C5 1_555 1_555
O3 C8 1_555 1_555
O4 C8 1_555 1_555
C1B H1B 1_555 1_555
C2B C3 1_555 1_555
C3B C2 1_555 1_555
H2B C3B 1_555 1_555
C4B C2B 1_555 1_555
H3B C4B 1_555 1_555
H4B C4B 1_555 1_555
C5B C13B 1_555 1_555
C6B H5B 1_555 1_555
H6B C6B 1_555 1_555
C7B C6B 1_555 1_555
H7B C7B 1_555 1_555
H8B C7B 1_555 1_555
H9B C7B 1_555 1_555
C8B C13B 1_555 1_555
C11B H15B 1_555 1_555
H16B C11B 1_555 1_555
C12B C11B 1_555 1_555
H17B C12B 1_555 1_555
H18B C12B 1_555 1_555
H19B C12B 1_555 1_555
C13B C4B 1_555 1_555
H20B C13B 1_555 1_555
O1B C5B 1_555 1_555
O2B C5B 1_555 1_555
O3B C8B 1_555 1_555
O4B C8B 1_555 1_555
C6 O2 1_555 1_555
C11 O4 1_555 1_555
C1B C2B 1_555 1_555
C1B C3B 1_555 1_555
C6B O2B 1_555 1_555
C11B O4B 1_555 1_555

#END
