
#######################################################################
#
#                 Cambridge Crystallographic Data Centre
#                                CCDC 
#
#######################################################################
#
# If this CIF has been generated from an entry in the Cambridge 
# Structural Database, then it will include bibliographic, chemical, 
# crystal, experimental, refinement or atomic coordinate data resulting 
# from the CCDC's data processing and validation procedures.
#
#######################################################################

data_MAVTUB
_chemical_formula_moiety         'C20 H20 O5 S1'
_chemical_name_systematic        
'ethyl 3-{[(4-methylphenyl)sulfonyl]oxy}-5-phenylpenta-2,4-dienoate'
_symmetry_cell_setting           monoclinic
_symmetry_space_group_name_H-M   'P 21/c'
_symmetry_Int_Tables_number      14
_space_group_name_Hall           '-P 2ybc'
loop_
_symmetry_equiv_pos_site_id
_symmetry_equiv_pos_as_xyz
1 x,y,z
2 -x,1/2+y,1/2-z
3 -x,-y,-z
4 x,1/2-y,1/2+z
_cell_length_a                   10.141(2)
_cell_length_b                   17.015(4)
_cell_length_c                   14.611(2)
_cell_angle_alpha                90
_cell_angle_beta                 132.351(8)
_cell_angle_gamma                90
_cell_volume                     1863.18
_exptl_crystal_colour            colorless
_exptl_crystal_description       block
_cell_formula_units_Z            4
loop_
_atom_site_label
_atom_site_type_symbol
_atom_site_fract_x
_atom_site_fract_y
_atom_site_fract_z
S1 S 0.21747(6) 0.23522(3) 0.21219(5)
O1 O 0.1778(2) 0.17738(8) 0.12703(15)
O2 O 0.38690(19) 0.23724(8) 0.33407(14)
O3 O 0.41171(17) 0.53369(8) 0.35223(13)
O4 O 0.66718(15) 0.47076(7) 0.44479(11)
C1 C 0.9545(3) 0.51636(16) 0.6186(2)
H1 H 0.9665 0.4741 0.6672
H2 H 1.0224 0.5607 0.6711
H3 H 0.9980 0.4998 0.5802
C2 C 0.7649(3) 0.53861(12) 0.52207(19)
H4 H 0.7196 0.5555 0.5599
H5 H 0.7514 0.5816 0.4728
C3 C 0.4895(2) 0.47628(10) 0.36296(16)
C4 C 0.4120(2) 0.40265(10) 0.29344(15)
H6 H 0.4902 0.3625 0.3140
C5 C 0.2374(2) 0.38878(9) 0.20264(14)
C6 C 0.0908(2) 0.44127(10) 0.14947(15)
H7 H 0.1171 0.4920 0.1814
O5 O 0.18641(15) 0.31521(7) 0.14273(10)
C7 C -0.0794(2) 0.42283(10) 0.05819(15)
H8 H -0.1033 0.3716 0.0284
C8 C -0.2334(2) 0.47397(9) -0.00079(15)
C9 C -0.2199(2) 0.55142(10) 0.03401(16)
H9 H -0.1081 0.5732 0.0971
C10 C -0.3699(2) 0.59618(11) -0.02368(18)
H10 H -0.3590 0.6478 0.0016
C11 C -0.5370(2) 0.56542(12) -0.11888(18)
H11 H -0.6384 0.5961 -0.1580
C12 C -0.5519(2) 0.48944(12) -0.15516(18)
H12 H -0.6639 0.4684 -0.2199
C13 C -0.4020(2) 0.44398(11) -0.09631(17)
H13 H -0.4140 0.3921 -0.1211
C14 C 0.0526(2) 0.23501(9) 0.21872(16)
C15 C -0.1123(3) 0.20297(13) 0.12303(18)
H14 H -0.1373 0.1832 0.0534
C16 C -0.2390(3) 0.20043(14) 0.1309(2)
H15 H -0.3499 0.1785 0.0662
C17 C -0.2060(3) 0.22960(11) 0.2327(2)
C18 C -0.0413(4) 0.26173(12) 0.3267(2)
H16 H -0.0173 0.2820 0.3958
C19 C 0.0893(3) 0.26478(11) 0.32149(19)
H17 H 0.2003 0.2866 0.3863
C20 C -0.3464(4) 0.22478(16) 0.2399(3)
H18 H -0.4571 0.2447 0.1646
H19 H -0.3104 0.2555 0.3086
H20 H -0.3617 0.1710 0.2510
loop_
_geom_bond_atom_site_label_1
_geom_bond_atom_site_label_2
_geom_bond_site_symmetry_1
_geom_bond_site_symmetry_2
S1 O1 1_555 1_555
O2 S1 1_555 1_555
O3 C3 1_555 1_555
O4 C2 1_555 1_555
C1 H1 1_555 1_555
H2 C1 1_555 1_555
H3 C1 1_555 1_555
C2 C1 1_555 1_555
H4 C2 1_555 1_555
H5 C2 1_555 1_555
C3 O4 1_555 1_555
C4 C3 1_555 1_555
H6 C4 1_555 1_555
C5 C4 1_555 1_555
C6 C5 1_555 1_555
H7 C6 1_555 1_555
O5 S1 1_555 1_555
C7 C6 1_555 1_555
H8 C7 1_555 1_555
C8 C7 1_555 1_555
C9 C8 1_555 1_555
H9 C9 1_555 1_555
C10 C9 1_555 1_555
H10 C10 1_555 1_555
C11 C10 1_555 1_555
H11 C11 1_555 1_555
C12 C11 1_555 1_555
H12 C12 1_555 1_555
C13 C8 1_555 1_555
H13 C13 1_555 1_555
C14 S1 1_555 1_555
C15 C14 1_555 1_555
H14 C15 1_555 1_555
C16 C15 1_555 1_555
H15 C16 1_555 1_555
C17 C16 1_555 1_555
C18 C17 1_555 1_555
H16 C18 1_555 1_555
C19 C14 1_555 1_555
H17 C19 1_555 1_555
C20 C17 1_555 1_555
H18 C20 1_555 1_555
H19 C20 1_555 1_555
H20 C20 1_555 1_555
C5 O5 1_555 1_555
C12 C13 1_555 1_555
C18 C19 1_555 1_555

#END
