
#######################################################################
#
#                 Cambridge Crystallographic Data Centre
#                                CCDC 
#
#######################################################################
#
# If this CIF has been generated from an entry in the Cambridge 
# Structural Database, then it will include bibliographic, chemical, 
# crystal, experimental, refinement or atomic coordinate data resulting 
# from the CCDC's data processing and validation procedures.
#
#######################################################################

data_MAVVOW
_chemical_formula_moiety         'C18 H23 N1 O6'
_chemical_name_systematic        
't-Butyl 2,3-diacetoxy-5-methylindoline-1-carboxylate'
_symmetry_cell_setting           triclinic
_symmetry_space_group_name_H-M   'P -1'
_symmetry_Int_Tables_number      2
_space_group_name_Hall           '-P 1'
loop_
_symmetry_equiv_pos_site_id
_symmetry_equiv_pos_as_xyz
1 x,y,z
2 -x,-y,-z
_cell_length_a                   9.1850(7)
_cell_length_b                   13.9246(11)
_cell_length_c                   16.2335(13)
_cell_angle_alpha                75.704(2)
_cell_angle_beta                 87.418(2)
_cell_angle_gamma                72.161(2)
_cell_volume                     1914.14
_exptl_crystal_colour            colorless
_exptl_crystal_description       block
_cell_formula_units_Z            4
loop_
_atom_site_label
_atom_site_type_symbol
_atom_site_fract_x
_atom_site_fract_y
_atom_site_fract_z
O1 O 0.7216(2) 0.71559(14) 0.21332(12)
O2 O 0.8615(3) 0.5927(2) 0.31995(15)
O3 O 0.7774(2) 0.63653(14) 0.01639(12)
O4 O 0.5982(4) 0.5675(2) 0.07337(19)
O5 O 0.7549(3) 0.94128(17) -0.08573(14)
O6 O 0.5885(3) 0.84665(16) -0.06866(13)
N1 N 0.7802(3) 0.79996(18) 0.02463(15)
C1 C 0.9224(4) 0.7916(2) 0.0620(2)
C2 C 0.9537(3) 0.7120(2) 0.13497(19)
C3 C 1.0893(4) 0.6855(3) 0.1803(2)
H1 H 1.1115 0.6307 0.2287
C4 C 1.1929(4) 0.7405(3) 0.1538(3)
C5 C 1.1550(4) 0.8220(3) 0.0829(3)
H2 H 1.2228 0.8604 0.0664
C6 C 1.0205(4) 0.8503(3) 0.0342(2)
H3 H 0.9981 0.9053 -0.0141
C7 C 1.3441(4) 0.7117(4) 0.2024(2)
H4 H 1.3796 0.7716 0.1926
H5 H 1.4184 0.6571 0.1831
H6 H 1.3298 0.6883 0.2621
C8 C 0.7316(3) 0.7114(2) 0.06765(17)
H7 H 0.6210 0.7314 0.0760
C9 C 0.8216(3) 0.6696(2) 0.15175(18)
H8 H 0.8548 0.5933 0.1690
C10 C 0.7100(4) 0.8709(2) -0.0479(2)
C11 C 0.4914(4) 0.9065(3) -0.1450(2)
C12 C 0.3779(4) 0.8483(3) -0.1435(2)
H9 H 0.4314 0.7760 -0.1389
H10 H 0.3161 0.8763 -0.1951
H11 H 0.3136 0.8551 -0.0957
C13 C 0.4159(6) 1.0153(3) -0.1375(3)
H12 H 0.3686 1.0139 -0.0834
H13 H 0.3394 1.0508 -0.1822
H14 H 0.4910 1.0513 -0.1420
C14 C 0.5866(5) 0.9004(4) -0.2226(2)
H15 H 0.6613 0.9359 -0.2227
H16 H 0.5216 0.9327 -0.2728
H17 H 0.6377 0.8288 -0.2218
C15 C 0.6953(4) 0.5705(3) 0.0231(2)
C16 C 0.7433(5) 0.5033(3) -0.0373(2)
H18 H 0.7004 0.4468 -0.0216
H19 H 0.8529 0.4761 -0.0357
H20 H 0.7077 0.5434 -0.0938
C17 C 0.7538(4) 0.6682(3) 0.2956(2)
C18 C 0.6438(4) 0.7229(3) 0.3515(2)
H21 H 0.5803 0.6810 0.3774
H22 H 0.5809 0.7885 0.3183
H23 H 0.6992 0.7344 0.3950
O7 O 0.2631(3) 0.07630(18) 0.57286(15)
O8 O 0.0035(3) 0.13296(16) 0.55675(13)
O9 O -0.0410(2) 0.35931(15) 0.47960(12)
O10 O -0.2867(3) 0.3830(3) 0.4604(2)
O11 O 0.0080(2) 0.28623(14) 0.28056(12)
O12 O -0.0020(3) 0.42208(18) 0.17266(14)
N2 N 0.1387(3) 0.20856(18) 0.46228(16)
C19 C 0.2651(4) 0.2367(2) 0.42074(19)
C20 C 0.2110(3) 0.3179(2) 0.34999(19)
C21 C 0.3112(4) 0.3623(3) 0.3015(2)
H24 H 0.2743 0.4175 0.2543
C22 C 0.4665(5) 0.3256(3) 0.3222(2)
C23 C 0.5154(4) 0.2434(3) 0.3917(3)
H25 H 0.6197 0.2176 0.4055
C24 C 0.4190(4) 0.1964(3) 0.4429(2)
H26 H 0.4561 0.1407 0.4897
C25 C 0.5777(4) 0.3769(4) 0.2709(2)
H27 H 0.6009 0.4226 0.3003
H28 H 0.5320 0.4161 0.2160
H29 H 0.6702 0.3242 0.2641
C26 C -0.0018(3) 0.2867(2) 0.42650(18)
H30 H -0.0838 0.2566 0.4223
C27 C 0.0420(3) 0.3405(2) 0.33939(17)
H31 H -0.0123 0.4153 0.3236
C28 C 0.1458(5) 0.1326(3) 0.5354(2)
C29 C -0.0282(5) 0.0657(3) 0.6364(2)
C30 C -0.2009(5) 0.0927(4) 0.6287(3)
H32 H -0.2466 0.1659 0.6237
H33 H -0.2372 0.0542 0.6785
H34 H -0.2281 0.0751 0.5792
C31 C 0.0518(6) -0.0471(3) 0.6385(3)
H35 H 0.0264 -0.0619 0.5873
H36 H 0.0196 -0.0905 0.6867
H37 H 0.1605 -0.0605 0.6429
C32 C 0.0228(5) 0.0963(3) 0.7101(2)
H38 H 0.1321 0.0808 0.7107
H39 H -0.0072 0.0581 0.7623
H40 H -0.0240 0.1695 0.7045
C33 C -0.1894(5) 0.4015(3) 0.4920(2)
C34 C -0.2134(4) 0.4732(3) 0.5486(2)
H41 H -0.3199 0.4956 0.5612
H42 H -0.1820 0.5326 0.5208
H43 H -0.1540 0.4379 0.6004
C35 C -0.0117(4) 0.3361(3) 0.1987(2)
C36 C -0.0447(4) 0.2723(3) 0.1448(2)
H44 H -0.1502 0.2743 0.1495
H45 H 0.0195 0.2016 0.1636
H46 H -0.0249 0.2998 0.0865
loop_
_geom_bond_atom_site_label_1
_geom_bond_atom_site_label_2
_geom_bond_site_symmetry_1
_geom_bond_site_symmetry_2
O1 C9 1_555 1_555
O2 C17 1_555 1_555
O3 C8 1_555 1_555
O4 C15 1_555 1_555
O5 C10 1_555 1_555
O6 C10 1_555 1_555
N1 C1 1_555 1_555
C1 C2 1_555 1_555
C2 C3 1_555 1_555
C3 H1 1_555 1_555
C4 C3 1_555 1_555
C5 C4 1_555 1_555
H2 C5 1_555 1_555
C6 C1 1_555 1_555
H3 C6 1_555 1_555
C7 C4 1_555 1_555
H4 C7 1_555 1_555
H5 C7 1_555 1_555
H6 C7 1_555 1_555
C8 N1 1_555 1_555
H7 C8 1_555 1_555
C9 C2 1_555 1_555
H8 C9 1_555 1_555
C10 N1 1_555 1_555
C11 O6 1_555 1_555
C12 C11 1_555 1_555
H9 C12 1_555 1_555
H10 C12 1_555 1_555
H11 C12 1_555 1_555
C13 C11 1_555 1_555
H12 C13 1_555 1_555
H13 C13 1_555 1_555
H14 C13 1_555 1_555
C14 C11 1_555 1_555
H15 C14 1_555 1_555
H16 C14 1_555 1_555
H17 C14 1_555 1_555
C15 O3 1_555 1_555
C16 C15 1_555 1_555
H18 C16 1_555 1_555
H19 C16 1_555 1_555
H20 C16 1_555 1_555
C17 O1 1_555 1_555
C18 C17 1_555 1_555
H21 C18 1_555 1_555
H22 C18 1_555 1_555
H23 C18 1_555 1_555
O7 C28 1_555 1_555
O8 C28 1_555 1_555
O9 C26 1_555 1_555
O10 C33 1_555 1_555
O11 C27 1_555 1_555
O12 C35 1_555 1_555
N2 C19 1_555 1_555
C19 C20 1_555 1_555
C20 C21 1_555 1_555
C21 H24 1_555 1_555
C22 C21 1_555 1_555
C23 C22 1_555 1_555
H25 C23 1_555 1_555
C24 C19 1_555 1_555
H26 C24 1_555 1_555
C25 C22 1_555 1_555
H27 C25 1_555 1_555
H28 C25 1_555 1_555
H29 C25 1_555 1_555
C26 N2 1_555 1_555
H30 C26 1_555 1_555
C27 C20 1_555 1_555
H31 C27 1_555 1_555
C28 N2 1_555 1_555
C29 O8 1_555 1_555
C30 C29 1_555 1_555
H32 C30 1_555 1_555
H33 C30 1_555 1_555
H34 C30 1_555 1_555
C31 C29 1_555 1_555
H35 C31 1_555 1_555
H36 C31 1_555 1_555
H37 C31 1_555 1_555
C32 C29 1_555 1_555
H38 C32 1_555 1_555
H39 C32 1_555 1_555
H40 C32 1_555 1_555
C33 O9 1_555 1_555
C34 C33 1_555 1_555
H41 C34 1_555 1_555
H42 C34 1_555 1_555
H43 C34 1_555 1_555
C35 O11 1_555 1_555
C36 C35 1_555 1_555
H44 C36 1_555 1_555
H45 C36 1_555 1_555
H46 C36 1_555 1_555
C5 C6 1_555 1_555
C8 C9 1_555 1_555
C23 C24 1_555 1_555
C26 C27 1_555 1_555

#END
