
#######################################################################
#
#                 Cambridge Crystallographic Data Centre
#                                CCDC 
#
#######################################################################
#
# If this CIF has been generated from an entry in the Cambridge 
# Structural Database, then it will include bibliographic, chemical, 
# crystal, experimental, refinement or atomic coordinate data resulting 
# from the CCDC's data processing and validation procedures.
#
#######################################################################

data_MAVVUC
_chemical_formula_moiety         'C14 H15 N1 O5'
_chemical_name_systematic        
'1-Acetyl-2,3-dihydro-1H-indole-2,3-diyl diacetate'
_symmetry_cell_setting           monoclinic
_symmetry_space_group_name_H-M   'P 21/c'
_symmetry_Int_Tables_number      14
_space_group_name_Hall           '-P 2ybc'
loop_
_symmetry_equiv_pos_site_id
_symmetry_equiv_pos_as_xyz
1 x,y,z
2 -x,1/2+y,1/2-z
3 -x,-y,-z
4 x,1/2-y,1/2+z
_cell_length_a                   8.8633(10)
_cell_length_b                   18.912(2)
_cell_length_c                   8.4229(9)
_cell_angle_alpha                90
_cell_angle_beta                 94.108(2)
_cell_angle_gamma                90
_cell_volume                     1408.24
_exptl_crystal_colour            colorless
_exptl_crystal_description       block
_cell_formula_units_Z            4
loop_
_atom_site_label
_atom_site_type_symbol
_atom_site_fract_x
_atom_site_fract_y
_atom_site_fract_z
C1 C 0.2466(3) 0.66894(11) 0.7012(2)
C2 C 0.2136(3) 0.73129(12) 0.7773(3)
H1 H 0.2853 0.7670 0.7923
C3 C 0.0712(4) 0.73862(14) 0.8299(3)
H2 H 0.0467 0.7802 0.8812
C4 C -0.0359(3) 0.68621(15) 0.8088(3)
H3 H -0.1321 0.6932 0.8433
C5 C -0.0012(3) 0.62317(14) 0.7366(3)
H4 H -0.0728 0.5873 0.7238
C6 C 0.1408(3) 0.61446(11) 0.6841(2)
C7 C 0.2102(3) 0.55326(10) 0.6041(2)
H5 H 0.1409 0.5326 0.5208
C8 C 0.3493(3) 0.58524(10) 0.5364(2)
H6 H 0.4357 0.5528 0.5455
C9 C 0.1703(4) 0.44988(13) 0.7576(3)
C10 C 0.2423(4) 0.39972(15) 0.8768(3)
H7 H 0.2156 0.4127 0.9814
H8 H 0.3502 0.4016 0.8730
H9 H 0.2075 0.3526 0.8529
C11 C 0.3145(3) 0.55680(12) 0.2608(2)
C12 C 0.2788(4) 0.58745(16) 0.0995(3)
H10 H 0.2996 0.5531 0.0201
H11 H 0.3400 0.6287 0.0867
H12 H 0.1738 0.6003 0.0878
C13 C 0.5083(3) 0.68959(13) 0.6217(3)
C14 C 0.6273(3) 0.66338(14) 0.5196(3)
H13 H 0.7168 0.6917 0.5377
H14 H 0.5910 0.6666 0.4097
H15 H 0.6506 0.6150 0.5457
N1 N 0.3791(2) 0.64957(9) 0.62680(19)
O1 O 0.26771(19) 0.50044(8) 0.71903(16)
O2 O 0.0431(3) 0.44725(12) 0.7023(3)
O3 O 0.31356(18) 0.60737(7) 0.37345(15)
O4 O 0.3394(2) 0.49612(9) 0.29147(19)
O5 O 0.5237(3) 0.74419(12) 0.6960(3)
loop_
_geom_bond_atom_site_label_1
_geom_bond_atom_site_label_2
_geom_bond_site_symmetry_1
_geom_bond_site_symmetry_2
C1 C2 1_555 1_555
C2 H1 1_555 1_555
C3 C2 1_555 1_555
H2 C3 1_555 1_555
C4 C3 1_555 1_555
H3 C4 1_555 1_555
C5 C4 1_555 1_555
H4 C5 1_555 1_555
C6 C1 1_555 1_555
C7 C6 1_555 1_555
H5 C7 1_555 1_555
C8 C7 1_555 1_555
H6 C8 1_555 1_555
C9 C10 1_555 1_555
C10 H7 1_555 1_555
H8 C10 1_555 1_555
H9 C10 1_555 1_555
C11 C12 1_555 1_555
C12 H10 1_555 1_555
H11 C12 1_555 1_555
H12 C12 1_555 1_555
C13 C14 1_555 1_555
C14 H13 1_555 1_555
H14 C14 1_555 1_555
H15 C14 1_555 1_555
N1 C1 1_555 1_555
O1 C7 1_555 1_555
O2 C9 1_555 1_555
O3 C8 1_555 1_555
O4 C11 1_555 1_555
O5 C13 1_555 1_555
C5 C6 1_555 1_555
C8 N1 1_555 1_555
C9 O1 1_555 1_555
C11 O3 1_555 1_555
C13 N1 1_555 1_555

#END
