
#######################################################################
#
#                 Cambridge Crystallographic Data Centre
#                                CCDC 
#
#######################################################################
#
# If this CIF has been generated from an entry in the Cambridge 
# Structural Database, then it will include bibliographic, chemical, 
# crystal, experimental, refinement or atomic coordinate data resulting 
# from the CCDC's data processing and validation procedures.
#
#######################################################################

data_MAVXEP
_chemical_formula_moiety         'C21 H19 Cl1 N2 O4 S1'
_chemical_name_systematic        
N-benzyl-N-(2-chloro-1-(2,5-dioxo-2,5-dihydro-1H-pyrrol-1-yl)prop-2-en-1-yl)-4-methylbenzenesulfonamide
_symmetry_cell_setting           monoclinic
_symmetry_space_group_name_H-M   'P 21/n'
_symmetry_Int_Tables_number      14
_space_group_name_Hall           '-P 2yn'
loop_
_symmetry_equiv_pos_site_id
_symmetry_equiv_pos_as_xyz
1 x,y,z
2 1/2-x,1/2+y,1/2-z
3 -x,-y,-z
4 1/2+x,1/2-y,1/2+z
_cell_length_a                   8.53511(16)
_cell_length_b                   13.4671(2)
_cell_length_c                   18.5695(3)
_cell_angle_alpha                90
_cell_angle_beta                 103.0325(18)
_cell_angle_gamma                90
_cell_volume                     2079.46
_exptl_crystal_colour            'light colorless'
_cell_formula_units_Z            4
loop_
_atom_site_label
_atom_site_type_symbol
_atom_site_fract_x
_atom_site_fract_y
_atom_site_fract_z
S1 S 0.71336(6) 0.34290(4) 0.52711(2)
Cl1 Cl 1.25973(7) 0.44360(6) 0.67032(4)
O1 O 0.8353(2) 0.28985(13) 0.50142(8)
O2 O 0.6441(2) 0.42919(13) 0.48780(9)
O3 O 1.0189(2) 0.47441(13) 0.78208(9)
N1 N 0.7902(2) 0.37061(12) 0.61413(9)
N2 N 0.9991(2) 0.32703(13) 0.71832(10)
O4 O 0.9806(3) 0.16373(13) 0.68533(13)
C1 C 0.5554(3) 0.26122(16) 0.53132(10)
C2 C 0.9633(2) 0.36134(15) 0.64208(11)
H1 H 0.9992 0.3088 0.6130
C3 C 0.6950(3) 0.43193(15) 0.65433(12)
H2 H 0.5974 0.4527 0.6199
H3 H 0.7561 0.4913 0.6720
C4 C 0.5909(3) 0.16295(16) 0.55010(12)
H4 H 0.6958 0.1396 0.5569
C5 C 0.6490(2) 0.38095(16) 0.71955(11)
C6 C 1.0558(3) 0.45414(16) 0.63111(12)
C7 C 0.9985(4) 0.53116(19) 0.59099(14)
C8 C 0.4008(3) 0.29677(19) 0.52052(13)
H5 H 0.3778 0.3628 0.5077
C9 C 1.0238(3) 0.38558(19) 0.78148(12)
C10 C 0.4688(3) 0.10007(19) 0.55862(13)
H6 H 0.4919 0.0340 0.5712
C11 C 0.6105(3) 0.28203(18) 0.72029(13)
H7 H 0.6189 0.2423 0.6804
C12 C 0.6364(3) 0.4388(2) 0.77967(14)
H8 H 0.6629 0.5059 0.7806
C13 C 0.2801(3) 0.2324(2) 0.52902(15)
H9 H 0.1750 0.2556 0.5213
C14 C 0.5591(4) 0.2398(2) 0.77933(15)
H10 H 0.5341 0.1726 0.7791
C15 C 1.0047(4) 0.22632(19) 0.73314(15)
C16 C 0.3121(3) 0.1341(2) 0.54871(14)
C17 C 1.0549(5) 0.3158(3) 0.84743(15)
H11 H 1.0776 0.3332 0.8972
C18 C 0.5844(4) 0.3972(3) 0.83848(16)
H12 H 0.5758 0.4367 0.8785
C19 C 0.5455(4) 0.2989(3) 0.83823(16)
H13 H 0.5100 0.2718 0.8778
C20 C 0.1824(4) 0.0653(3) 0.5608(2)
H14 H 0.1893 0.0037 0.5356
H15 H 0.0792 0.0951 0.5417
H16 H 0.1957 0.0530 0.6127
C21 C 1.0417(5) 0.2130(2) 0.81567(18)
H17 H 1.0538 0.1533 0.8416
H18 H 0.896(4) 0.534(2) 0.5687(16)
H19 H 1.061(4) 0.576(3) 0.5870(18)
loop_
_geom_bond_atom_site_label_1
_geom_bond_atom_site_label_2
_geom_bond_site_symmetry_1
_geom_bond_site_symmetry_2
S1 O1 1_555 1_555
Cl1 C6 1_555 1_555
O2 S1 1_555 1_555
O3 C9 1_555 1_555
N1 S1 1_555 1_555
N2 C2 1_555 1_555
O4 C15 1_555 1_555
C1 S1 1_555 1_555
C2 N1 1_555 1_555
H1 C2 1_555 1_555
C3 N1 1_555 1_555
H2 C3 1_555 1_555
H3 C3 1_555 1_555
C4 C1 1_555 1_555
H4 C4 1_555 1_555
C5 C3 1_555 1_555
C6 C2 1_555 1_555
C7 C6 1_555 1_555
C8 C1 1_555 1_555
H5 C8 1_555 1_555
C9 N2 1_555 1_555
C10 C4 1_555 1_555
H6 C10 1_555 1_555
C11 C5 1_555 1_555
H7 C11 1_555 1_555
C12 C5 1_555 1_555
H8 C12 1_555 1_555
C13 C8 1_555 1_555
H9 C13 1_555 1_555
C14 C11 1_555 1_555
H10 C14 1_555 1_555
C15 N2 1_555 1_555
C16 C10 1_555 1_555
C17 C9 1_555 1_555
H11 C17 1_555 1_555
C18 C12 1_555 1_555
H12 C18 1_555 1_555
C19 C14 1_555 1_555
H13 C19 1_555 1_555
C20 C16 1_555 1_555
H14 C20 1_555 1_555
H15 C20 1_555 1_555
H16 C20 1_555 1_555
C21 C15 1_555 1_555
H17 C21 1_555 1_555
H18 C7 1_555 1_555
H19 C7 1_555 1_555
C13 C16 1_555 1_555
C17 C21 1_555 1_555
C18 C19 1_555 1_555

#END
