
#######################################################################
#
#                 Cambridge Crystallographic Data Centre
#                                CCDC 
#
#######################################################################
#
# If this CIF has been generated from an entry in the Cambridge 
# Structural Database, then it will include bibliographic, chemical, 
# crystal, experimental, refinement or atomic coordinate data resulting 
# from the CCDC's data processing and validation procedures.
#
#######################################################################

data_MAVXUF
_chemical_formula_moiety         'H4 B4 O9 2-,H2 O1,2(K1 1+)'
_chemical_name_systematic        
'di-potassium 2,4,6,8,9-pentaoxa-3,7-dibora-1,5-diboratabicyclo[3.3.1]nonane-1,3,5,7-tetrol monohydrate'
_symmetry_cell_setting           triclinic
_symmetry_space_group_name_H-M   'P -1'
_symmetry_Int_Tables_number      2
_space_group_name_Hall           '-P 1'
loop_
_symmetry_equiv_pos_site_id
_symmetry_equiv_pos_as_xyz
1 x,y,z
2 -x,-y,-z
_cell_length_a                   7.1742(3)
_cell_length_b                   7.8472(4)
_cell_length_c                   8.9702(4)
_cell_angle_alpha                68.551(2)
_cell_angle_beta                 88.368(2)
_cell_angle_gamma                74.877(2)
_cell_volume                     452.486
_exptl_crystal_description       block
_cell_formula_units_Z            2
loop_
_atom_site_label
_atom_site_type_symbol
_atom_site_fract_x
_atom_site_fract_y
_atom_site_fract_z
B1 B 0.5434(2) 0.2327(2) 0.34782(18)
B2 B 0.7419(2) 0.3829(2) 0.14919(19)
B3 B 0.7095(2) 0.0684(2) 0.17250(19)
B4 B 0.8518(2) 0.2625(2) 0.43229(19)
O1 O 0.74835(6) 0.55161(13) 0.01373(9)
O2 O 0.74261(5) -0.07817(12) 0.11603(13)
O3 O 0.58991(14) 0.06616(13) 0.29473(12)
O4 O 0.79740(14) 0.21007(14) 0.10377(12)
O5 O 0.54812(13) 0.40078(13) 0.21010(11)
O6 O 0.69367(14) 0.19671(15) 0.47594(12)
O7 O 0.88756(14) 0.35243(15) 0.27766(12)
O8 O 0.35511(14) 0.25189(8) 0.41312(10)
O9 O 0.98174(5) 0.23434(17) 0.55594(13)
H1 H 0.376(3) 0.1515(7) 0.5068(5)
H2 H 0.6579(4) -0.1499(8) 0.161(2)
H3 H 0.64495(19) 0.62288(15) -0.06845(9)
H4 H 1.0969(3) 0.2600(18) 0.5098(14)
K1 K 0.20675(4) 0.09022(5) 0.19990(4)
O10 O 0.45708(10) -0.26685(6) 0.24948(6)
H5 H 0.5199 -0.3554 0.2050
H6 H 0.4940 -0.3064 0.3484
K2 K 0.90756(5) 0.38227(5) -0.19963(4)
B1A B 0.4566(2) 0.7673(2) -0.34782(18)
B2A B 0.2581(2) 0.6171(2) -0.14919(19)
B3A B 0.2905(2) 0.9316(2) -0.17250(19)
B4A B 0.1482(2) 0.7375(2) -0.43229(19)
O1A O 0.25165(6) 0.44839(13) -0.01373(9)
O2A O 0.25739(5) 1.07817(12) -0.11603(13)
O3A O 0.41009(14) 0.93384(13) -0.29473(12)
O4A O 0.20260(14) 0.78993(14) -0.10377(12)
O5A O 0.45188(13) 0.59922(13) -0.21010(11)
O6A O 0.30633(14) 0.80329(15) -0.47594(12)
O7A O 0.11244(14) 0.64757(15) -0.27766(12)
O8A O 0.64489(14) 0.74811(8) -0.41312(10)
O9A O 0.01826(5) 0.76566(17) -0.55594(13)
H1A H 0.624(3) 0.8485(7) -0.5068(5)
H2A H 0.3421(4) 1.1499(8) -0.161(2)
H3A H 0.35505(19) 0.37712(15) 0.06845(9)
H4A H -0.0969(3) 0.7400(18) -0.5098(14)
O10A O 0.54292(10) 1.26685(6) -0.24948(6)
H5A H 0.4801 1.3554 -0.2050
H6A H 0.5060 1.3064 -0.3484
loop_
_geom_bond_atom_site_label_1
_geom_bond_atom_site_label_2
_geom_bond_site_symmetry_1
_geom_bond_site_symmetry_2
B1 O3 1_555 1_555
B2 O1 1_555 1_555
B3 O2 1_555 1_555
B4 O6 1_555 1_555
O1 H3 1_555 1_555
O2 H2 1_555 1_555
O3 B3 1_555 1_555
O4 B2 1_555 1_555
O5 B1 1_555 1_555
O6 B1 1_555 1_555
O7 B2 1_555 1_555
O8 B1 1_555 1_555
O9 B4 1_555 1_555
H1 O8 1_555 1_555
H4 O9 1_555 1_555
O10 H5 1_555 1_555
H6 O10 1_555 1_555
B1A O3A 1_555 1_555
B2A O1A 1_555 1_555
B3A O2A 1_555 1_555
B4A O6A 1_555 1_555
O1A H3A 1_555 1_555
O2A H2A 1_555 1_555
O3A B3A 1_555 1_555
O4A B2A 1_555 1_555
O5A B1A 1_555 1_555
O6A B1A 1_555 1_555
O7A B2A 1_555 1_555
O8A B1A 1_555 1_555
O9A B4A 1_555 1_555
H1A O8A 1_555 1_555
H4A O9A 1_555 1_555
O10A H5A 1_555 1_555
H6A O10A 1_555 1_555
B2 O5 1_555 1_555
B3 O4 1_555 1_555
B4 O7 1_555 1_555
B2A O5A 1_555 1_555
B3A O4A 1_555 1_555
B4A O7A 1_555 1_555

#END
