
#######################################################################
#
#                 Cambridge Crystallographic Data Centre
#                                CCDC 
#
#######################################################################
#
# If this CIF has been generated from an entry in the Cambridge 
# Structural Database, then it will include bibliographic, chemical, 
# crystal, experimental, refinement or atomic coordinate data resulting 
# from the CCDC's data processing and validation procedures.
#
#######################################################################

data_MAVXOZ
_chemical_formula_moiety         'H4 B4 O9 2-,3.63(H2 O1),2(K1 1+)'
_chemical_name_systematic        
'di-potassium 2,4,6,8,9-pentaoxa-3,7-dibora-1,5-diboratabicyclo[3.3.1]nonane-1,3,5,7-tetrol hydrate'
_symmetry_cell_setting           orthorhombic
_symmetry_space_group_name_H-M   'P b c n'
_symmetry_Int_Tables_number      60
_space_group_name_Hall           '-P 2n 2ab'
loop_
_symmetry_equiv_pos_site_id
_symmetry_equiv_pos_as_xyz
1 x,y,z
2 1/2-x,1/2-y,1/2+z
3 -x,y,1/2-z
4 1/2+x,1/2-y,-z
5 -x,-y,-z
6 1/2+x,1/2+y,1/2-z
7 x,-y,1/2+z
8 1/2-x,1/2+y,z
_cell_length_a                   11.150(3)
_cell_length_b                   13.064(3)
_cell_length_c                   16.411(4)
_cell_angle_alpha                90
_cell_angle_beta                 90
_cell_angle_gamma                90
_cell_volume                     2390.49
_exptl_crystal_colour            colorless
_exptl_crystal_description       block
_cell_formula_units_Z            4
loop_
_atom_site_label
_atom_site_type_symbol
_atom_site_fract_x
_atom_site_fract_y
_atom_site_fract_z
B1 B 0.2561(2) 0.7228(2) 0.57132(18)
B2 B 0.1391(2) 0.5645(2) 0.56147(19)
B3 B 0.3733(2) 0.6856(2) 0.44825(18)
B4 B 0.1553(2) 0.6846(2) 0.44491(18)
O1 O 0.17005(15) 0.75948(13) 0.51096(11)
O2 O 0.07106(15) 0.71739(14) 0.38353(11)
H1 H 0.0446 0.7765 0.3955
O3 O 0.11211(16) 0.58589(13) 0.48190(11)
O4 O 0.47888(16) 0.68180(16) 0.40581(12)
H2 H 0.5373 0.6890 0.4386
O5 O 0.27159(15) 0.66707(14) 0.40510(11)
O6 O 0.37261(15) 0.70586(14) 0.53008(11)
O7 O 0.27113(17) 0.79225(15) 0.63922(11)
H3 H 0.3044 0.8512 0.6278
O8 O 0.21324(16) 0.62381(14) 0.60659(11)
O9 O 0.09168(18) 0.47780(15) 0.59740(13)
H4 H 0.0247 0.4511 0.5722
K1 K -0.05504(7) 0.97479(6) 0.36944(5)
K2 K 0.07312(15) 1.24785(13) 0.24403(9)
O10 O 0.1487(2) 0.95934(17) 0.46751(17)
H5 H 0.2081 0.9188 0.4642
H6 H 0.0904 0.9262 0.4879
O11 O -0.1461(4) 0.8408(2) 0.2359(2)
H7 H -0.2015 0.8236 0.2688
H8 H -0.1682 0.8953 0.2120
O12 O -0.1286(4) 1.1100(4) 0.2492(3)
H9 H -0.1883 1.1035 0.1969
H10 H -0.1715 1.1559 0.2877
K3 K 0.5000 0.91522(10) 0.7500
B1B B -0.2561(2) 0.7228(2) -0.07132(18)
B2B B -0.1391(2) 0.5645(2) -0.06147(19)
B3B B -0.3733(2) 0.6856(2) 0.05175(18)
B4B B -0.1553(2) 0.6846(2) 0.05509(18)
O1B O -0.17005(15) 0.75948(13) -0.01096(11)
O2B O -0.07106(15) 0.71739(14) 0.11647(11)
H1B H -0.0446 0.7765 0.1045
O3B O -0.11211(16) 0.58589(13) 0.01810(11)
O4B O -0.47888(16) 0.68180(16) 0.09419(12)
H2B H -0.5373 0.6890 0.0614
O5B O -0.27159(15) 0.66707(14) 0.09490(11)
O6B O -0.37261(15) 0.70586(14) -0.03008(11)
O7B O -0.27113(17) 0.79225(15) -0.13922(11)
H3B H -0.3044 0.8512 -0.1278
O8B O -0.21324(16) 0.62381(14) -0.10659(11)
O9B O -0.09168(18) 0.47780(15) -0.09740(13)
H4B H -0.0247 0.4511 -0.0722
O10B O -0.1487(2) 0.95934(17) 0.03249(17)
H5B H -0.2081 0.9188 0.0358
H6B H -0.0904 0.9262 0.0121
O11B O 0.1461(4) 0.8408(2) 0.2641(2)
H7B H 0.2015 0.8236 0.2312
H8B H 0.1682 0.8953 0.2880
O12B O 0.1286(4) 1.1100(4) 0.2508(3)
H9B H 0.1883 1.1035 0.3031
H10B H 0.1715 1.1559 0.2123
O13? O 0.3124(8) 0.4551(5) 0.7693(3)
O14? O -0.1380(9) 1.4406(8) 0.1823(7)
H11? H -0.1027 1.3999 0.1651
O15? O -0.1073(10) 1.3862(8) 0.2305(7)
H12? H -0.1501 1.4372 0.2249
H13? H -0.1487 1.4355 0.2109
H14? H -0.1631 1.3644 0.2153
H15? H -0.2648 1.0389 0.2220
loop_
_geom_bond_atom_site_label_1
_geom_bond_atom_site_label_2
_geom_bond_site_symmetry_1
_geom_bond_site_symmetry_2
B1 O1 1_555 1_555
B2 O3 1_555 1_555
B3 O4 1_555 1_555
B4 O1 1_555 1_555
O2 B4 1_555 1_555
H1 O2 1_555 1_555
O3 B4 1_555 1_555
O4 H2 1_555 1_555
O5 B3 1_555 1_555
O6 B1 1_555 1_555
O7 B1 1_555 1_555
H3 O7 1_555 1_555
O8 B1 1_555 1_555
O9 B2 1_555 1_555
H4 O9 1_555 1_555
O10 H5 1_555 1_555
H6 O10 1_555 1_555
O11 H7 1_555 1_555
H8 O11 1_555 1_555
O12 H9 1_555 1_555
H10 O12 1_555 1_555
B1B O1B 1_555 1_555
B2B O3B 1_555 1_555
B3B O4B 1_555 1_555
B4B O1B 1_555 1_555
O2B B4B 1_555 1_555
H1B O2B 1_555 1_555
O3B B4B 1_555 1_555
O4B H2B 1_555 1_555
O5B B3B 1_555 1_555
O6B B1B 1_555 1_555
O7B B1B 1_555 1_555
H3B O7B 1_555 1_555
O8B B1B 1_555 1_555
O9B B2B 1_555 1_555
H4B O9B 1_555 1_555
O10B H5B 1_555 1_555
H6B O10B 1_555 1_555
O11B H7B 1_555 1_555
H8B O11B 1_555 1_555
O12B H9B 1_555 1_555
H10B O12B 1_555 1_555
B2 O8 1_555 1_555
B3 O6 1_555 1_555
B4 O5 1_555 1_555
B2B O8B 1_555 1_555
B3B O6B 1_555 1_555
B4B O5B 1_555 1_555

#END
