
#######################################################################
#
#                 Cambridge Crystallographic Data Centre
#                                CCDC 
#
#######################################################################
#
# If this CIF has been generated from an entry in the Cambridge 
# Structural Database, then it will include bibliographic, chemical, 
# crystal, experimental, refinement or atomic coordinate data resulting 
# from the CCDC's data processing and validation procedures.
#
#######################################################################

data_MAVYEQ
_chemical_formula_moiety         'C12 H10 N2'
_chemical_name_systematic        3-(2-(pyridin-4-yl)vinyl)pyridine
_symmetry_cell_setting           monoclinic
_symmetry_space_group_name_H-M   'P c'
_symmetry_Int_Tables_number      7
_space_group_name_Hall           'P -2yc'
loop_
_symmetry_equiv_pos_site_id
_symmetry_equiv_pos_as_xyz
1 x,y,z
2 x,-y,1/2+z
_cell_length_a                   7.3773(15)
_cell_length_b                   5.7410(11)
_cell_length_c                   12.670(4)
_cell_angle_alpha                90
_cell_angle_beta                 115.92(2)
_cell_angle_gamma                90
_cell_volume                     482.633
_exptl_crystal_colour            colorless
_exptl_crystal_description       block
_cell_formula_units_Z            2
loop_
_atom_site_label
_atom_site_type_symbol
_atom_site_fract_x
_atom_site_fract_y
_atom_site_fract_z
N1 N -0.3380(5) 0.4999(7) 0.3488(3)
N2 N 0.4361(5) 0.8313(6) -0.0039(3)
C1 C -0.3097(5) 0.6777(6) 0.4289(3)
H1 H -0.3697 0.6721 0.4808
C2 C -0.1965(5) 0.8528(7) 0.4293(3)
H2 H -0.1845 0.9785 0.4795
C3 C -0.0936(5) 0.8665(6) 0.3615(3)
H3 H -0.0104 0.9950 0.3680
C4 C -0.1145(4) 0.6885(5) 0.2837(2)
C5 C -0.2439(5) 0.5078(8) 0.2775(3)
H4 H -0.2670 0.3879 0.2226
C6 C -0.0119(4) 0.6801(6) 0.2061(2)
H5 H -0.0555 0.5654 0.1473
C7 C 0.1341(5) 0.8175(6) 0.2117(3)
H6 H 0.1769 0.9318 0.2708
C8 C 0.2374(4) 0.8127(5) 0.1364(2)
C9 C 0.2130(5) 0.6352(6) 0.0569(3)
H7 H 0.1299 0.5074 0.0519
C10 C 0.3100(5) 0.6451(6) -0.0147(3)
H8 H 0.2906 0.5271 -0.0700
C11 C 0.4590(5) 0.9992(7) 0.0686(3)
H9 H 0.5432 1.1255 0.0730
C12 C 0.3627(5) 0.9945(7) 0.1381(3)
H10 H 0.3814 1.1196 0.1897
loop_
_geom_bond_atom_site_label_1
_geom_bond_atom_site_label_2
_geom_bond_site_symmetry_1
_geom_bond_site_symmetry_2
N1 C1 1_555 1_555
N2 C10 1_555 1_555
C1 H1 1_555 1_555
C2 C1 1_555 1_555
H2 C2 1_555 1_555
C3 C2 1_555 1_555
H3 C3 1_555 1_555
C4 C3 1_555 1_555
C5 N1 1_555 1_555
H4 C5 1_555 1_555
C6 C4 1_555 1_555
H5 C6 1_555 1_555
C7 C6 1_555 1_555
H6 C7 1_555 1_555
C8 C7 1_555 1_555
C9 C8 1_555 1_555
H7 C9 1_555 1_555
C10 C9 1_555 1_555
H8 C10 1_555 1_555
C11 N2 1_555 1_555
H9 C11 1_555 1_555
C12 C8 1_555 1_555
H10 C12 1_555 1_555
C4 C5 1_555 1_555
C11 C12 1_555 1_555

#END
