
#######################################################################
#
#                 Cambridge Crystallographic Data Centre
#                                CCDC 
#
#######################################################################
#
# If this CIF has been generated from an entry in the Cambridge 
# Structural Database, then it will include bibliographic, chemical, 
# crystal, experimental, refinement or atomic coordinate data resulting 
# from the CCDC's data processing and validation procedures.
#
#######################################################################

data_MAVZIU
_chemical_formula_moiety         'C22 H15 N1 O2'
_chemical_name_systematic        
(4,5-Diphenyl-1,3-oxazol-2-yl)(phenyl)methanone
_symmetry_cell_setting           monoclinic
_symmetry_space_group_name_H-M   'P 21/n'
_symmetry_Int_Tables_number      14
_space_group_name_Hall           '-P 2yn'
loop_
_symmetry_equiv_pos_site_id
_symmetry_equiv_pos_as_xyz
1 x,y,z
2 1/2-x,1/2+y,1/2-z
3 -x,-y,-z
4 1/2+x,1/2-y,1/2+z
_cell_length_a                   17.224(5)
_cell_length_b                   5.1542(15)
_cell_length_c                   20.107(6)
_cell_angle_alpha                90
_cell_angle_beta                 113.663(5)
_cell_angle_gamma                90
_cell_volume                     1634.94
_exptl_crystal_colour            colorless
_exptl_crystal_description       needle
_cell_formula_units_Z            4
loop_
_atom_site_label
_atom_site_type_symbol
_atom_site_fract_x
_atom_site_fract_y
_atom_site_fract_z
C1 C 0.4565(3) 0.9516(9) 0.1183(2)
C2 C 0.4699(3) 1.1309(9) 0.0726(2)
H1 H 0.5220 1.1324 0.0689
C3 C 0.4093(3) 1.3055(10) 0.0327(2)
H2 H 0.4198 1.4215 0.0019
C4 C 0.3322(3) 1.3074(10) 0.0389(2)
H3 H 0.2903 1.4250 0.0122
C5 C 0.3180(3) 1.1338(10) 0.0848(3)
H4 H 0.2664 1.1367 0.0895
C6 C 0.3788(3) 0.9557(10) 0.1238(2)
H5 H 0.3677 0.8378 0.1539
C7 C 0.5268(3) 0.7687(9) 0.1580(2)
C8 C 0.5210(2) 0.5784(8) 0.2115(2)
C9 C 0.4935(2) 0.3511(8) 0.2877(2)
C10 C 0.5691(2) 0.2681(8) 0.2892(2)
C11 C 0.6322(2) 0.0681(8) 0.3274(2)
C12 C 0.7080(3) 0.0534(9) 0.3179(2)
H6 H 0.7189 0.1732 0.2882
C13 C 0.7667(3) -0.1367(9) 0.3521(2)
H7 H 0.8167 -0.1452 0.3448
C14 C 0.7521(3) -0.3134(9) 0.3967(2)
H8 H 0.7918 -0.4421 0.4194
C15 C 0.6785(3) -0.2993(9) 0.4077(2)
H9 H 0.6687 -0.4171 0.4385
C16 C 0.6189(3) -0.1112(9) 0.3732(2)
H10 H 0.5691 -0.1045 0.3807
C17 C 0.4440(2) 0.2729(8) 0.3302(2)
C18 C 0.4805(5) 0.2664(19) 0.4049(3)
H11 H 0.5379 0.3031 0.4295
C19 C 0.4323(5) 0.206(2) 0.4434(4)
H12 H 0.4575 0.2070 0.4939
C20 C 0.3113(5) 0.156(2) 0.3339(4)
H13 H 0.2539 0.1186 0.3095
C21 C 0.3590(4) 0.222(2) 0.2949(4)
H14 H 0.3332 0.2318 0.2445
C22 C 0.3494(4) 0.1441(12) 0.4096(3)
H15 H 0.3183 0.0953 0.4361
N1 N 0.4635(2) 0.5486(7) 0.23759(17)
O1 O 0.5915(2) 0.7687(7) 0.14713(18)
O2 O 0.58700(16) 0.4125(5) 0.24014(14)
C23? C 0.4336(9) 0.448(2) 0.3785(7)
C24? C 0.3888(10) 0.382(2) 0.4199(8)
C25? C 0.3641(9) -0.0416(19) 0.3671(8)
C26? C 0.4082(7) 0.0288(19) 0.3257(7)
H16? H 0.4571 0.6132 0.3830
H17? H 0.3855 0.4971 0.4543
H18? H 0.3449 -0.2107 0.3662
H19? H 0.4141 -0.0919 0.2937
loop_
_geom_bond_atom_site_label_1
_geom_bond_atom_site_label_2
_geom_bond_site_symmetry_1
_geom_bond_site_symmetry_2
C1 C2 1_555 1_555
C2 H1 1_555 1_555
C3 C2 1_555 1_555
H2 C3 1_555 1_555
C4 C3 1_555 1_555
H3 C4 1_555 1_555
C5 C4 1_555 1_555
H4 C5 1_555 1_555
C6 C1 1_555 1_555
H5 C6 1_555 1_555
C7 C1 1_555 1_555
C8 C7 1_555 1_555
C9 C10 1_555 1_555
C10 C11 1_555 1_555
C11 C12 1_555 1_555
C12 H6 1_555 1_555
C13 C12 1_555 1_555
H7 C13 1_555 1_555
C14 C13 1_555 1_555
H8 C14 1_555 1_555
C15 C14 1_555 1_555
H9 C15 1_555 1_555
C16 C11 1_555 1_555
H10 C16 1_555 1_555
C17 C9 1_555 1_555
C18 C17 1_555 1_555
H11 C18 1_555 1_555
C19 C18 1_555 1_555
H12 C19 1_555 1_555
C20 H13 1_555 1_555
C21 C17 1_555 1_555
H14 C21 1_555 1_555
C22 C19 1_555 1_555
H15 C22 1_555 1_555
N1 C8 1_555 1_555
O1 C7 1_555 1_555
O2 C8 1_555 1_555
C5 C6 1_555 1_555
C9 N1 1_555 1_555
C10 O2 1_555 1_555
C15 C16 1_555 1_555
C20 C21 1_555 1_555
C20 C22 1_555 1_555

#END
