
#######################################################################
#
#                 Cambridge Crystallographic Data Centre
#                                CCDC 
#
#######################################################################
#
# If this CIF has been generated from an entry in the Cambridge 
# Structural Database, then it will include bibliographic, chemical, 
# crystal, experimental, refinement or atomic coordinate data resulting 
# from the CCDC's data processing and validation procedures.
#
#######################################################################

data_MAWBUH
_chemical_formula_moiety         'C44 H40 O2 S6'
_chemical_name_systematic        
9-(4,5-Anthraquinone-1,3-dithiol-2-ylidene)-10-(4,5-bis(n-hexylthiolato)-1,3-dithiol-2-ylidene)-9,10-dihydroanthracene
_symmetry_cell_setting           triclinic
_symmetry_space_group_name_H-M   'P -1'
_symmetry_Int_Tables_number      2
_space_group_name_Hall           '-P 1'
loop_
_symmetry_equiv_pos_site_id
_symmetry_equiv_pos_as_xyz
1 x,y,z
2 -x,-y,-z
_cell_length_a                   9.925(2)
_cell_length_b                   12.940(3)
_cell_length_c                   15.319(5)
_cell_angle_alpha                94.16(1)
_cell_angle_beta                 94.13(1)
_cell_angle_gamma                99.06(1)
_cell_volume                     1930.78
_exptl_crystal_colour            black
_exptl_crystal_description       plate
_chemical_melting_point          '229-230 deg.C'
_cell_formula_units_Z            2
loop_
_atom_site_label
_atom_site_type_symbol
_atom_site_fract_x
_atom_site_fract_y
_atom_site_fract_z
S1 S 0.30878(7) 0.54504(5) 0.12221(4)
S2 S 0.53966(7) 0.43195(5) 0.10516(5)
S3 S -0.00704(7) 0.18244(5) 0.35898(4)
S4 S 0.22808(7) 0.06787(5) 0.35859(4)
S5 S 0.49087(8) 0.75684(5) 0.16131(5)
S6 S 0.75409(8) 0.62251(6) 0.13966(5)
O1 O -0.0825(2) 0.23837(15) 0.70157(12)
O2 O 0.3289(2) 0.01605(15) 0.70487(12)
C1 C 0.0464(3) 0.3765(2) 0.07216(17)
H1 H 0.090(2) 0.4282(18) 0.0338(15)
C2 C -0.0945(3) 0.3610(2) 0.07350(18)
H2 H -0.149(3) 0.3975(18) 0.0384(15)
C3 C -0.1594(3) 0.2844(2) 0.12241(19)
H3 H -0.254(3) 0.274(2) 0.1259(17)
C4 C -0.0815(3) 0.2243(2) 0.17027(17)
H4 H -0.126(3) 0.169(2) 0.2031(16)
C5 C 0.3111(3) 0.0522(2) 0.17044(17)
H5 H 0.265(2) 0.0036(18) 0.2015(15)
C6 C 0.4211(3) 0.0322(2) 0.12461(18)
H6 H 0.452(3) -0.037(2) 0.1276(16)
C7 C 0.4833(3) 0.1073(2) 0.07382(18)
H7 H 0.555(3) 0.0921(19) 0.0399(16)
C8 C 0.4356(3) 0.2020(2) 0.06937(18)
H8 H 0.470(3) 0.251(2) 0.0305(17)
C9 C 0.2764(3) 0.32645(19) 0.11594(16)
C10 C 0.1480(3) 0.17350(18) 0.21689(16)
C11 C 0.0613(3) 0.23953(19) 0.17042(16)
C12 C 0.1270(3) 0.31754(19) 0.12010(16)
C13 C 0.3289(3) 0.22555(19) 0.11725(16)
C14 C 0.2637(3) 0.14820(19) 0.16930(16)
C15 C 0.3614(3) 0.42016(19) 0.11358(16)
C16 C 0.4743(3) 0.62000(19) 0.14308(16)
C17 C 0.5803(3) 0.5676(2) 0.13433(17)
C18 C 0.1249(3) 0.14367(19) 0.29833(17)
C19 C 0.0577(3) 0.15060(19) 0.46104(17)
C20 C 0.1673(3) 0.09574(19) 0.46126(16)
C21 C 0.3985(3) 0.7754(2) 0.25868(19)
H9 H 0.403(3) 0.850(2) 0.2645(19)
H10 H 0.305(3) 0.7460(19) 0.2447(16)
C22 C 0.4609(3) 0.7400(2) 0.34199(19)
H11 H 0.558(3) 0.768(2) 0.3495(18)
H12 H 0.459(3) 0.661(2) 0.3368(16)
C23 C 0.3891(4) 0.7715(3) 0.4219(2)
H13 H 0.391(3) 0.850(2) 0.4273(18)
H14 H 0.291(4) 0.739(3) 0.410(2)
C24 C 0.4445(4) 0.7359(3) 0.5081(2)
H15 H 0.440(3) 0.658(2) 0.5020(17)
H16 H 0.537(3) 0.766(2) 0.5169(19)
C25 C 0.3692(5) 0.7669(3) 0.5864(2)
H17 H 0.269(4) 0.737(3) 0.574(3)
H18 H 0.378(3) 0.842(3) 0.591(2)
C26 C 0.4218(5) 0.7310(4) 0.6730(3)
H19 H 0.424(4) 0.647(3) 0.666(2)
H20 H 0.375(5) 0.749(3) 0.718(3)
H21 H 0.518(4) 0.755(3) 0.686(2)
C27 C 0.8205(3) 0.5600(2) 0.2334(2)
H22 H 0.805(3) 0.484(2) 0.2199(18)
H23 H 0.912(3) 0.588(2) 0.2386(17)
C28 C 0.7544(3) 0.5849(2) 0.3167(2)
H24 H 0.657(3) 0.551(2) 0.3095(16)
H25 H 0.764(3) 0.664(2) 0.3237(19)
C29 C 0.8197(4) 0.5438(3) 0.3974(2)
H26 H 0.915(3) 0.576(2) 0.4071(19)
H27 H 0.815(3) 0.465(3) 0.3858(19)
C30 C 0.7477(4) 0.5671(3) 0.4800(2)
H28 H 0.750(3) 0.643(2) 0.4865(17)
H29 H 0.643(3) 0.531(2) 0.4703(19)
C31 C 0.8112(4) 0.5305(3) 0.5638(2)
H30 H 0.807(3) 0.451(3) 0.553(2)
H31 H 0.910(3) 0.563(2) 0.572(2)
C32 C 0.7384(6) 0.5555(4) 0.6442(3)
H32 H 0.730(4) 0.632(3) 0.652(2)
H33 H 0.781(4) 0.531(3) 0.690(3)
H34 H 0.638(4) 0.523(3) 0.635(2)
C33 C 0.0001(3) 0.1773(2) 0.53960(19)
H35 H -0.061(3) 0.214(2) 0.5411(19)
C34 C 0.0577(3) 0.1454(2) 0.61871(17)
C35 C 0.0001(3) 0.1774(2) 0.70168(18)
C36 C 0.0485(3) 0.1357(2) 0.78404(18)
C37 C -0.0110(3) 0.1568(2) 0.86169(19)
H36 H -0.081(3) 0.1935(18) 0.8592(15)
C38 C 0.0372(3) 0.1223(2) 0.9393(2)
H37 H 0.000(3) 0.139(2) 0.9928(19)
C39 C 0.1460(3) 0.0667(2) 0.9399(2)
H38 H 0.173(3) 0.047(2) 0.9918(19)
C40 C 0.2066(3) 0.0460(2) 0.86358(19)
H39 H 0.281(3) 0.0098(19) 0.8631(16)
C41 C 0.1585(3) 0.07932(19) 0.78499(18)
C42 C 0.2261(3) 0.0578(2) 0.70343(18)
C43 C 0.1668(3) 0.0899(2) 0.61926(17)
C44 C 0.2258(3) 0.0640(2) 0.54018(18)
H40 H 0.292(3) 0.026(2) 0.5397(17)
loop_
_geom_bond_atom_site_label_1
_geom_bond_atom_site_label_2
_geom_bond_site_symmetry_1
_geom_bond_site_symmetry_2
S1 C15 1_555 1_555
S2 C15 1_555 1_555
S3 C18 1_555 1_555
S4 C18 1_555 1_555
S5 C16 1_555 1_555
S6 C17 1_555 1_555
O1 C35 1_555 1_555
O2 C42 1_555 1_555
C1 H1 1_555 1_555
C2 C1 1_555 1_555
H2 C2 1_555 1_555
C3 C2 1_555 1_555
H3 C3 1_555 1_555
C4 C3 1_555 1_555
H4 C4 1_555 1_555
C5 H5 1_555 1_555
C6 C5 1_555 1_555
H6 C6 1_555 1_555
C7 C6 1_555 1_555
H7 C7 1_555 1_555
C8 C7 1_555 1_555
H8 C8 1_555 1_555
C9 C12 1_555 1_555
C10 C11 1_555 1_555
C11 C4 1_555 1_555
C12 C1 1_555 1_555
C13 C8 1_555 1_555
C14 C5 1_555 1_555
C15 C9 1_555 1_555
C16 S1 1_555 1_555
C17 S2 1_555 1_555
C18 C10 1_555 1_555
C19 S3 1_555 1_555
C20 S4 1_555 1_555
C21 S5 1_555 1_555
H9 C21 1_555 1_555
H10 C21 1_555 1_555
C22 C21 1_555 1_555
H11 C22 1_555 1_555
H12 C22 1_555 1_555
C23 C22 1_555 1_555
H13 C23 1_555 1_555
H14 C23 1_555 1_555
C24 C23 1_555 1_555
H15 C24 1_555 1_555
H16 C24 1_555 1_555
C25 C24 1_555 1_555
H17 C25 1_555 1_555
H18 C25 1_555 1_555
C26 C25 1_555 1_555
H19 C26 1_555 1_555
H20 C26 1_555 1_555
H21 C26 1_555 1_555
C27 S6 1_555 1_555
H22 C27 1_555 1_555
H23 C27 1_555 1_555
C28 C27 1_555 1_555
H24 C28 1_555 1_555
H25 C28 1_555 1_555
C29 C28 1_555 1_555
H26 C29 1_555 1_555
H27 C29 1_555 1_555
C30 C29 1_555 1_555
H28 C30 1_555 1_555
H29 C30 1_555 1_555
C31 C30 1_555 1_555
H30 C31 1_555 1_555
H31 C31 1_555 1_555
C32 C31 1_555 1_555
H32 C32 1_555 1_555
H33 C32 1_555 1_555
H34 C32 1_555 1_555
C33 C19 1_555 1_555
H35 C33 1_555 1_555
C34 C33 1_555 1_555
C35 C34 1_555 1_555
C36 C35 1_555 1_555
C37 C36 1_555 1_555
H36 C37 1_555 1_555
C38 C37 1_555 1_555
H37 C38 1_555 1_555
C39 C38 1_555 1_555
H38 C39 1_555 1_555
C40 C39 1_555 1_555
H39 C40 1_555 1_555
C41 C36 1_555 1_555
C42 C41 1_555 1_555
C43 C34 1_555 1_555
C44 C20 1_555 1_555
H40 C44 1_555 1_555
C9 C13 1_555 1_555
C10 C14 1_555 1_555
C11 C12 1_555 1_555
C13 C14 1_555 1_555
C16 C17 1_555 1_555
C19 C20 1_555 1_555
C40 C41 1_555 1_555
C42 C43 1_555 1_555
C43 C44 1_555 1_555

#END
