
#######################################################################
#
#                 Cambridge Crystallographic Data Centre
#                                CCDC 
#
#######################################################################
#
# If this CIF has been generated from an entry in the Cambridge 
# Structural Database, then it will include bibliographic, chemical, 
# crystal, experimental, refinement or atomic coordinate data resulting 
# from the CCDC's data processing and validation procedures.
#
#######################################################################

data_MAWGAU
_chemical_name_common            '(-)-Onchidiol ethanol solvate'
_chemical_formula_moiety         'C32 H46 O8,0.5(C2 H6 O1)'
_chemical_name_systematic        
'2-((1S)-1-((2S,3S,4S,5S)-6-((1R)-1-(3,5-Dimethyl-4-oxo-6-((2R)-3-oxopentan-2-yl)-4H-pyran-2-yl)ethyl)-2,4-dihydroxy-3,5-dimethyltetrahydro-2H-pyran-2-yl)ethyl)-6-ethyl-3,5-dimethyl-4H-pyran-4-one ethanol solvate'
_symmetry_cell_setting           orthorhombic
_symmetry_space_group_name_H-M   'P 21 21 21'
_symmetry_Int_Tables_number      19
_space_group_name_Hall           'P 2ac 2ab'
loop_
_symmetry_equiv_pos_site_id
_symmetry_equiv_pos_as_xyz
1 x,y,z
2 1/2-x,-y,1/2+z
3 -x,1/2+y,1/2-z
4 1/2+x,1/2-y,-z
_cell_length_a                   10.2559(10)
_cell_length_b                   18.2004(17)
_cell_length_c                   37.880(3)
_cell_angle_alpha                90
_cell_angle_beta                 90
_cell_angle_gamma                90
_cell_volume                     7070.74
_exptl_crystal_colour            colorless
_exptl_crystal_description       prismatic
_chemical_melting_point          '158-159 deg.C'
_cell_formula_units_Z            8
loop_
_atom_site_label
_atom_site_type_symbol
_atom_site_fract_x
_atom_site_fract_y
_atom_site_fract_z
O1 O 0.5673(7) 1.1627(4) 0.0486(2)
O2 O 0.3873(4) 1.0193(2) 0.07419(13)
O3 O 0.2107(5) 0.8489(3) 0.02628(16)
O4 O 0.6195(4) 0.9253(2) 0.11505(9)
O5 O 0.7597(5) 1.0823(2) 0.14861(13)
H1 H 0.8342 1.0978 0.1511
O6 O 0.7682(4) 1.0012(2) 0.08739(11)
H2 H 0.7785 1.0382 0.0994
O7 O 0.6440(4) 0.8151(2) 0.05596(11)
O8 O 0.7321(5) 0.9102(3) -0.03697(14)
C1 C 0.7074(12) 1.1195(6) -0.0148(3)
H6 H 0.6671 1.1536 -0.0308
H7 H 0.7624 1.0865 -0.0278
H8 H 0.7589 1.1459 0.0021
C2 C 0.6065(10) 1.0774(5) 0.0036(3)
H9 H 0.6486 1.0380 0.0165
H10 H 0.5505 1.0549 -0.0140
C3 C 0.5239(8) 1.1186(4) 0.0283(2)
C4 C 0.3799(8) 1.1029(4) 0.0271(2)
H11 H 0.3523 1.1067 0.0024
C5 C 0.3498(6) 1.0242(4) 0.0395(2)
C6 C 0.2951(7) 0.9695(4) 0.0223(2)
C7 C 0.2644(7) 0.9024(4) 0.0414(2)
C8 C 0.2984(6) 0.8988(4) 0.0783(2)
C9 C 0.3613(6) 0.9567(4) 0.09269(18)
C10 C 0.4047(7) 0.9660(4) 0.13054(19)
H12 H 0.3898 0.9198 0.1432
C11 C 0.5487(6) 0.9846(3) 0.13220(16)
H13 H 0.5632 1.0297 0.1187
C12 C 0.6047(7) 0.9959(4) 0.16963(16)
H14 H 0.5624 1.0395 0.1797
C13 C 0.7474(8) 1.0129(4) 0.16604(18)
H15 H 0.7858 1.0168 0.1897
C14 C 0.8204(6) 0.9523(3) 0.14516(17)
H16 H 0.8131 0.9064 0.1585
C15 C 0.7535(6) 0.9408(3) 0.10937(16)
C16 C 0.8105(6) 0.8733(3) 0.08924(16)
H17 H 0.9024 0.8843 0.0845
C17 C 0.7451(6) 0.8644(3) 0.05403(19)
C18 C 0.7816(7) 0.8940(3) 0.0231(2)
C19 C 0.7036(7) 0.8790(4) -0.0074(2)
C20 C 0.5993(8) 0.8271(4) -0.00471(19)
C21 C 0.5768(7) 0.7944(4) 0.0261(2)
C22 C 0.4825(8) 0.7344(4) 0.03399(19)
H18 H 0.4711 0.7054 0.0127
H19 H 0.3989 0.7567 0.0394
C23 C 0.5169(9) 0.6836(4) 0.0634(2)
H20 H 0.6073 0.6705 0.0617
H21 H 0.4643 0.6401 0.0618
H22 H 0.5012 0.7075 0.0855
C24 C 0.3027(10) 1.1605(5) 0.0482(3)
H23 H 0.3307 1.1598 0.0724
H24 H 0.2113 1.1492 0.0470
H25 H 0.3178 1.2083 0.0384
C25 C 0.2612(8) 0.9736(4) -0.0159(2)
H26 H 0.1689 0.9670 -0.0188
H27 H 0.3067 0.9358 -0.0286
H28 H 0.2861 1.0208 -0.0251
C26 C 0.2603(9) 0.8321(4) 0.0988(2)
H29 H 0.2166 0.8468 0.1201
H30 H 0.3369 0.8044 0.1047
H31 H 0.2028 0.8024 0.0849
C27 C 0.3231(8) 1.0282(5) 0.1487(2)
H32 H 0.3423 1.0744 0.1377
H33 H 0.3452 1.0306 0.1733
H34 H 0.2318 1.0176 0.1462
C28 C 0.5776(9) 0.9316(5) 0.19449(19)
H35 H 0.6038 0.8866 0.1834
H36 H 0.4861 0.9297 0.1997
H37 H 0.6258 0.9382 0.2160
C29 C 0.9656(7) 0.9708(4) 0.1416(2)
H38 H 1.0117 0.9288 0.1328
H39 H 0.9999 0.9840 0.1644
H40 H 0.9762 1.0113 0.1256
C30 C 0.8076(8) 0.8013(3) 0.11124(18)
H41 H 0.7260 0.7978 0.1235
H42 H 0.8778 0.8018 0.1280
H43 H 0.8172 0.7599 0.0958
C31 C 0.8986(7) 0.9429(4) 0.01945(18)
H44 H 0.8787 0.9907 0.0288
H45 H 0.9214 0.9473 -0.0050
H46 H 0.9705 0.9222 0.0323
C32 C 0.5197(9) 0.8063(4) -0.03619(19)
H47 H 0.4326 0.8248 -0.0335
H48 H 0.5171 0.7538 -0.0383
H49 H 0.5582 0.8269 -0.0571
O9 O 1.040(3) 0.3021(11) 0.6805(6)
H3 H 1.1128 0.2948 0.6889
C33 C 0.934(2) 0.3032(9) 0.7115(5)
H50 H 1.0006 0.3075 0.7297
H51 H 0.9201 0.2506 0.7101
C34 C 0.813(3) 0.3148(18) 0.7403(7)
H52 H 0.8454 0.3081 0.7639
H53 H 0.7458 0.2794 0.7357
H54 H 0.7782 0.3635 0.7379
O10 O 0.3157(9) 0.1641(4) 0.9492(2)
O11 O 0.1959(4) 0.0949(2) 0.87363(12)
O12 O 0.0250(8) 0.1741(4) 0.7866(2)
O13 O 0.4684(4) 0.0338(2) 0.83698(10)
O14 O 0.5921(6) -0.0142(3) 0.91739(13)
H4 H 0.6427 -0.0295 0.9324
O15 O 0.5803(5) 0.1083(2) 0.87614(12)
H5 H 0.6042 0.0889 0.8946
O16 O 0.4754(7) 0.1493(3) 0.78176(15)
O17 O 0.4669(6) 0.3513(3) 0.82399(15)
C35 C 0.4489(14) 0.2937(8) 0.9290(3)
H55 H 0.4024 0.3184 0.9475
H56 H 0.4952 0.3292 0.9150
H57 H 0.5097 0.2596 0.9391
C36 C 0.3575(10) 0.2545(5) 0.9069(3)
H58 H 0.4062 0.2299 0.8884
H59 H 0.3008 0.2901 0.8956
C37 C 0.2754(10) 0.1995(5) 0.9249(2)
C38 C 0.1386(8) 0.1908(4) 0.9123(2)
H60 H 0.0996 0.2400 0.9119
C39 C 0.1376(6) 0.1629(4) 0.8752(2)
C40 C 0.0847(7) 0.1928(4) 0.8465(3)
C41 C 0.0782(9) 0.1497(5) 0.8132(3)
C42 C 0.1385(8) 0.0773(4) 0.8149(2)
C43 C 0.1961(7) 0.0540(4) 0.8432(2)
C44 C 0.2613(7) -0.0176(3) 0.85007(17)
H61 H 0.2665 -0.0445 0.8277
C45 C 0.3988(7) -0.0071(3) 0.86392(16)
H62 H 0.3941 0.0236 0.8851
C46 C 0.4765(7) -0.0761(3) 0.87301(17)
H63 H 0.4320 -0.1000 0.8928
C47 C 0.6085(8) -0.0554(4) 0.88548(18)
H64 H 0.6597 -0.0997 0.8902
C48 C 0.6808(7) -0.0065(4) 0.8585(2)
H65 H 0.6933 -0.0361 0.8371
C49 C 0.5943(7) 0.0587(3) 0.84835(17)
C50 C 0.6497(7) 0.1038(4) 0.8173(2)
H66 H 0.7335 0.1245 0.8247
C51 C 0.5607(7) 0.1668(4) 0.8074(2)
C52 C 0.5660(7) 0.2341(5) 0.8212(2)
C53 C 0.4712(9) 0.2877(5) 0.8094(3)
C54 C 0.3822(10) 0.2667(6) 0.7817(2)
C55 C 0.3931(11) 0.1981(6) 0.7691(2)
C56 C 0.3173(13) 0.1686(6) 0.7394(3)
H67 H 0.2996 0.1169 0.7433
H68 H 0.2345 0.1942 0.7378
C57 C 0.3888(18) 0.1775(8) 0.7065(4)
H69 H 0.4791 0.1660 0.7104
H70 H 0.3810 0.2273 0.6985
H71 H 0.3536 0.1450 0.6890
C58 C 0.0543(11) 0.1438(6) 0.9360(3)
H72 H -0.0339 0.1443 0.9275
H73 H 0.0567 0.1630 0.9596
H74 H 0.0866 0.0943 0.9360
C59 C 0.0259(9) 0.2696(4) 0.8445(3)
H75 H -0.0325 0.2767 0.8641
H76 H -0.0211 0.2749 0.8228
H77 H 0.0944 0.3055 0.8455
C60 C 0.1259(12) 0.0297(5) 0.7821(2)
H78 H 0.1765 0.0507 0.7633
H79 H 0.0361 0.0272 0.7751
H80 H 0.1573 -0.0188 0.7871
C61 C 0.1803(8) -0.0640(4) 0.8763(2)
H81 H 0.1803 -0.0406 0.8990
H82 H 0.2180 -0.1121 0.8783
H83 H 0.0924 -0.0681 0.8678
C62 C 0.4816(8) -0.1328(4) 0.84219(19)
H84 H 0.5120 -0.1089 0.8211
H85 H 0.3959 -0.1523 0.8382
H86 H 0.5400 -0.1720 0.8483
C63 C 0.8150(8) 0.0157(5) 0.8714(3)
H87 H 0.8671 0.0313 0.8517
H88 H 0.8560 -0.0255 0.8827
H89 H 0.8069 0.0554 0.8879
C64 C 0.6747(10) 0.0545(4) 0.7832(2)
H90 H 0.6041 0.0203 0.7804
H91 H 0.7550 0.0280 0.7859
H92 H 0.6799 0.0854 0.7627
C65 C 0.6652(8) 0.2598(4) 0.8482(3)
H93 H 0.7146 0.2184 0.8565
H94 H 0.6208 0.2823 0.8677
H95 H 0.7229 0.2948 0.8375
C66 C 0.2855(13) 0.3261(6) 0.7679(2)
H96 H 0.2506 0.3109 0.7455
H97 H 0.3306 0.3719 0.7651
H98 H 0.2156 0.3320 0.7845
loop_
_geom_bond_atom_site_label_1
_geom_bond_atom_site_label_2
_geom_bond_site_symmetry_1
_geom_bond_site_symmetry_2
O1 C3 1_555 1_555
O2 C5 1_555 1_555
O3 C7 1_555 1_555
O4 C11 1_555 1_555
O5 H1 1_555 1_555
O6 H2 1_555 1_555
O7 C17 1_555 1_555
O8 C19 1_555 1_555
O9 H3 1_555 1_555
O10 C37 1_555 1_555
O11 C39 1_555 1_555
O12 C41 1_555 1_555
O13 C45 1_555 1_555
O14 H4 1_555 1_555
O15 H5 1_555 1_555
O16 C51 1_555 1_555
O17 C53 1_555 1_555
C1 H6 1_555 1_555
H7 C1 1_555 1_555
H8 C1 1_555 1_555
C2 C1 1_555 1_555
H9 C2 1_555 1_555
H10 C2 1_555 1_555
C3 C2 1_555 1_555
C4 C3 1_555 1_555
H11 C4 1_555 1_555
C5 C4 1_555 1_555
C6 C5 1_555 1_555
C7 C6 1_555 1_555
C8 C7 1_555 1_555
C9 O2 1_555 1_555
C10 C9 1_555 1_555
H12 C10 1_555 1_555
C11 C10 1_555 1_555
H13 C11 1_555 1_555
C12 C11 1_555 1_555
H14 C12 1_555 1_555
C13 O5 1_555 1_555
H15 C13 1_555 1_555
C14 C13 1_555 1_555
H16 C14 1_555 1_555
C15 O4 1_555 1_555
C16 C15 1_555 1_555
H17 C16 1_555 1_555
C17 C16 1_555 1_555
C18 C17 1_555 1_555
C19 C18 1_555 1_555
C20 C19 1_555 1_555
C21 O7 1_555 1_555
C22 C21 1_555 1_555
H18 C22 1_555 1_555
H19 C22 1_555 1_555
C23 C22 1_555 1_555
H20 C23 1_555 1_555
H21 C23 1_555 1_555
H22 C23 1_555 1_555
C24 C4 1_555 1_555
H23 C24 1_555 1_555
H24 C24 1_555 1_555
H25 C24 1_555 1_555
C25 C6 1_555 1_555
H26 C25 1_555 1_555
H27 C25 1_555 1_555
H28 C25 1_555 1_555
C26 C8 1_555 1_555
H29 C26 1_555 1_555
H30 C26 1_555 1_555
H31 C26 1_555 1_555
C27 C10 1_555 1_555
H32 C27 1_555 1_555
H33 C27 1_555 1_555
H34 C27 1_555 1_555
C28 C12 1_555 1_555
H35 C28 1_555 1_555
H36 C28 1_555 1_555
H37 C28 1_555 1_555
C29 C14 1_555 1_555
H38 C29 1_555 1_555
H39 C29 1_555 1_555
H40 C29 1_555 1_555
C30 C16 1_555 1_555
H41 C30 1_555 1_555
H42 C30 1_555 1_555
H43 C30 1_555 1_555
C31 C18 1_555 1_555
H44 C31 1_555 1_555
H45 C31 1_555 1_555
H46 C31 1_555 1_555
C32 C20 1_555 1_555
H47 C32 1_555 1_555
H48 C32 1_555 1_555
H49 C32 1_555 1_555
C33 O9 1_555 1_555
H50 C33 1_555 1_555
H51 C33 1_555 1_555
C34 C33 1_555 1_555
H52 C34 1_555 1_555
H53 C34 1_555 1_555
H54 C34 1_555 1_555
C35 H55 1_555 1_555
H56 C35 1_555 1_555
H57 C35 1_555 1_555
C36 C35 1_555 1_555
H58 C36 1_555 1_555
H59 C36 1_555 1_555
C37 C36 1_555 1_555
C38 C37 1_555 1_555
H60 C38 1_555 1_555
C39 C38 1_555 1_555
C40 C39 1_555 1_555
C41 C40 1_555 1_555
C42 C41 1_555 1_555
C43 O11 1_555 1_555
C44 C43 1_555 1_555
H61 C44 1_555 1_555
C45 C44 1_555 1_555
H62 C45 1_555 1_555
C46 C45 1_555 1_555
H63 C46 1_555 1_555
C47 O14 1_555 1_555
H64 C47 1_555 1_555
C48 C47 1_555 1_555
H65 C48 1_555 1_555
C49 O13 1_555 1_555
C50 C49 1_555 1_555
H66 C50 1_555 1_555
C51 C50 1_555 1_555
C52 C51 1_555 1_555
C53 C52 1_555 1_555
C54 C53 1_555 1_555
C55 O16 1_555 1_555
C56 C55 1_555 1_555
H67 C56 1_555 1_555
H68 C56 1_555 1_555
C57 C56 1_555 1_555
H69 C57 1_555 1_555
H70 C57 1_555 1_555
H71 C57 1_555 1_555
C58 C38 1_555 1_555
H72 C58 1_555 1_555
H73 C58 1_555 1_555
H74 C58 1_555 1_555
C59 C40 1_555 1_555
H75 C59 1_555 1_555
H76 C59 1_555 1_555
H77 C59 1_555 1_555
C60 C42 1_555 1_555
H78 C60 1_555 1_555
H79 C60 1_555 1_555
H80 C60 1_555 1_555
C61 C44 1_555 1_555
H81 C61 1_555 1_555
H82 C61 1_555 1_555
H83 C61 1_555 1_555
C62 C46 1_555 1_555
H84 C62 1_555 1_555
H85 C62 1_555 1_555
H86 C62 1_555 1_555
C63 C48 1_555 1_555
H87 C63 1_555 1_555
H88 C63 1_555 1_555
H89 C63 1_555 1_555
C64 C50 1_555 1_555
H90 C64 1_555 1_555
H91 C64 1_555 1_555
H92 C64 1_555 1_555
C65 C52 1_555 1_555
H93 C65 1_555 1_555
H94 C65 1_555 1_555
H95 C65 1_555 1_555
C66 C54 1_555 1_555
H96 C66 1_555 1_555
H97 C66 1_555 1_555
H98 C66 1_555 1_555
O6 C15 1_555 1_555
O15 C49 1_555 1_555
C8 C9 1_555 1_555
C12 C13 1_555 1_555
C14 C15 1_555 1_555
C20 C21 1_555 1_555
C42 C43 1_555 1_555
C46 C47 1_555 1_555
C48 C49 1_555 1_555
C54 C55 1_555 1_555

#END
