
#######################################################################
#
#                 Cambridge Crystallographic Data Centre
#                                CCDC 
#
#######################################################################
#
# If this CIF has been generated from an entry in the Cambridge 
# Structural Database, then it will include bibliographic, chemical, 
# crystal, experimental, refinement or atomic coordinate data resulting 
# from the CCDC's data processing and validation procedures.
#
#######################################################################

data_MAWQIL
_chemical_formula_moiety         'C25 H20 N2 O6'
_chemical_name_systematic        
'Trimethyl 2-(2-naphthalen-2-ylvinyl)pyrrolo(1,2-b)pyridazine-5,6,7-tricarboxylate'
_symmetry_cell_setting           monoclinic
_symmetry_space_group_name_H-M   'P c'
_symmetry_Int_Tables_number      7
_space_group_name_Hall           'P -2yc'
loop_
_symmetry_equiv_pos_site_id
_symmetry_equiv_pos_as_xyz
1 x,y,z
2 x,-y,1/2+z
_cell_length_a                   15.4378(17)
_cell_length_b                   6.9604(8)
_cell_length_c                   19.482(2)
_cell_angle_alpha                90
_cell_angle_beta                 96.325(2)
_cell_angle_gamma                90
_cell_volume                     2080.66
_exptl_crystal_colour            colorless
_exptl_crystal_description       needle
_chemical_melting_point          '191-192 deg.C'
_cell_formula_units_Z            4
_exptl_crystal_recrystallization_method dichloromethane/methanol
loop_
_atom_site_label
_atom_site_type_symbol
_atom_site_fract_x
_atom_site_fract_y
_atom_site_fract_z
C1 C 1.1331(4) 0.6262(9) 0.0428(3)
H1 H 1.0733 0.6098 0.0323
C2 C 1.1849(5) 0.6288(10) -0.0092(4)
H2 H 1.1606 0.6191 -0.0549
C3 C 1.2781(4) 0.6468(9) 0.0072(4)
H3 H 1.3139 0.6467 -0.0282
C4 C 1.3132(4) 0.6636(8) 0.0729(3)
H4 H 1.3734 0.6743 0.0826
C5 C 1.2598(4) 0.6655(9) 0.1283(3)
C6 C 1.2944(4) 0.6873(10) 0.1978(4)
H5 H 1.3543 0.6987 0.2091
C7 C 1.2395(4) 0.6919(10) 0.2492(3)
H6 H 1.2637 0.7077 0.2947
C8 C 1.1500(4) 0.6739(9) 0.2357(3)
C9 C 1.1165(4) 0.6517(9) 0.1673(4)
H7 H 1.0566 0.6386 0.1569
C10 C 1.1685(4) 0.6482(8) 0.1139(3)
C11 C 1.0959(4) 0.6823(9) 0.2939(3)
H8 H 1.1251 0.6977 0.3379
C12 C 1.0100(4) 0.6701(9) 0.2892(3)
H9 H 0.9792 0.6561 0.2457
C13 C 0.9602(4) 0.6779(9) 0.3507(3)
C14 C 1.0000(4) 0.6821(9) 0.4196(3)
H10 H 1.0602 0.6906 0.4290
C15 C 0.9480(4) 0.6734(9) 0.4724(3)
H11 H 0.9722 0.6699 0.5183
C16 C 0.8603(4) 0.6702(8) 0.4556(3)
C17 C 0.7880(4) 0.6623(8) 0.4961(3)
C18 C 0.7104(4) 0.6695(9) 0.4469(3)
C19 C 0.7354(3) 0.6828(8) 0.3848(3)
N1 N 0.8272(3) 0.6851(7) 0.3880(2)
N2 N 0.8733(3) 0.6792(7) 0.3323(3)
C20 C 0.7987(4) 0.6543(9) 0.5691(3)
C21 C 0.6221(4) 0.6712(9) 0.4640(3)
C22 C 0.6786(4) 0.7060(9) 0.3166(3)
O1 O 0.8663(3) 0.6405(7) 0.6068(2)
O2 O 0.7201(3) 0.6517(6) 0.5957(2)
O3 O 0.5764(3) 0.8144(7) 0.4664(2)
O4 O 0.5919(3) 0.4932(6) 0.4763(2)
O5 O 0.6969(3) 0.7848(8) 0.2660(2)
O6 O 0.6015(3) 0.6291(6) 0.3242(2)
C23 C 0.7218(5) 0.6443(10) 0.6699(3)
H12 H 0.7616 0.5460 0.6880
H13 H 0.6645 0.6159 0.6818
H14 H 0.7405 0.7663 0.6893
C24 C 0.5040(4) 0.4784(7) 0.4920(3)
H15 H 0.4966 0.5547 0.5320
H16 H 0.4909 0.3466 0.5011
H17 H 0.4653 0.5238 0.4535
C25 C 0.5332(4) 0.6588(11) 0.2670(3)
H18 H 0.5177 0.7924 0.2644
H19 H 0.4830 0.5838 0.2746
H20 H 0.5542 0.6198 0.2245
C26 C -0.0793(4) 0.1260(9) 0.5705(3)
H21 H -0.0195 0.1130 0.5817
C27 C -0.1330(5) 0.1238(9) 0.6217(4)
H22 H -0.1091 0.1070 0.6672
C28 C -0.2213(5) 0.1457(9) 0.6076(3)
H23 H -0.2566 0.1478 0.6433
C29 C -0.2578(4) 0.1649(8) 0.5395(4)
H24 H -0.3179 0.1761 0.5298
C30 C -0.2055(4) 0.1678(8) 0.4854(3)
C31 C -0.2394(4) 0.1876(10) 0.4158(3)
H25 H -0.2994 0.1988 0.4051
C32 C -0.1893(4) 0.1911(10) 0.3646(3)
H26 H -0.2147 0.2051 0.3193
C33 C -0.0949(4) 0.1730(8) 0.3788(3)
C34 C -0.0596(4) 0.1505(9) 0.4462(3)
H27 H 0.0004 0.1368 0.4560
C35 C -0.1134(4) 0.1477(9) 0.5016(3)
C36 C -0.0434(4) 0.1794(8) 0.3219(3)
H28 H -0.0746 0.1918 0.2785
C37 C 0.0445(4) 0.1699(9) 0.3227(3)
H29 H 0.0759 0.1567 0.3660
C38 C 0.0950(4) 0.1774(9) 0.2659(3)
C39 C 0.0547(4) 0.1762(9) 0.1950(3)
H30 H -0.0057 0.1798 0.1860
C40 C 0.1028(3) 0.1702(8) 0.1435(3)
H31 H 0.0759 0.1657 0.0984
C41 C 0.1976(4) 0.1706(8) 0.1558(3)
C42 C 0.2663(4) 0.1593(8) 0.1195(3)
C43 C 0.3410(4) 0.1658(8) 0.1645(3)
C44 C 0.3183(4) 0.1815(8) 0.2340(3)
N3 N 0.2291(3) 0.1813(7) 0.2271(2)
N4 N 0.1794(3) 0.1806(8) 0.2802(2)
C45 C 0.2579(4) 0.1462(8) 0.0413(3)
C46 C 0.4359(3) 0.1674(9) 0.1482(3)
C47 C 0.3738(4) 0.2038(9) 0.2968(3)
O7 O 0.1879(3) 0.1416(7) 0.0066(2)
O8 O 0.3349(3) 0.1507(6) 0.0184(2)
O9 O 0.4782(3) 0.3104(7) 0.1476(2)
O10 O 0.4622(3) -0.0090(6) 0.1375(2)
O11 O 0.3570(3) 0.2796(8) 0.3492(2)
O12 O 0.4535(3) 0.1268(7) 0.2893(2)
C48 C 0.3306(4) 0.1375(9) -0.0560(3)
H32 H 0.3008 0.0217 -0.0713
H33 H 0.3886 0.1357 -0.0694
H34 H 0.2996 0.2464 -0.0765
C49 C 0.5526(4) -0.0218(10) 0.1212(4)
H35 H 0.5582 0.0463 0.0791
H36 H 0.5679 -0.1542 0.1158
H37 H 0.5908 0.0342 0.1581
C50 C 0.5212(4) 0.1530(10) 0.3442(3)
H38 H 0.5213 0.2839 0.3597
H39 H 0.5763 0.1236 0.3283
H40 H 0.5116 0.0691 0.3818
loop_
_geom_bond_atom_site_label_1
_geom_bond_atom_site_label_2
_geom_bond_site_symmetry_1
_geom_bond_site_symmetry_2
C1 H1 1_555 1_555
C2 C1 1_555 1_555
H2 C2 1_555 1_555
C3 C2 1_555 1_555
H3 C3 1_555 1_555
C4 C3 1_555 1_555
H4 C4 1_555 1_555
C5 C4 1_555 1_555
C6 C5 1_555 1_555
H5 C6 1_555 1_555
C7 C6 1_555 1_555
H6 C7 1_555 1_555
C8 C7 1_555 1_555
C9 C8 1_555 1_555
H7 C9 1_555 1_555
C10 C1 1_555 1_555
C11 C8 1_555 1_555
H8 C11 1_555 1_555
C12 C11 1_555 1_555
H9 C12 1_555 1_555
C13 C12 1_555 1_555
C14 C13 1_555 1_555
H10 C14 1_555 1_555
C15 C14 1_555 1_555
H11 C15 1_555 1_555
C16 C15 1_555 1_555
C17 C16 1_555 1_555
C18 C17 1_555 1_555
C19 C18 1_555 1_555
N1 C16 1_555 1_555
N2 C13 1_555 1_555
C20 C17 1_555 1_555
C21 C18 1_555 1_555
C22 C19 1_555 1_555
O1 C20 1_555 1_555
O2 C20 1_555 1_555
O3 C21 1_555 1_555
O4 C21 1_555 1_555
O5 C22 1_555 1_555
O6 C22 1_555 1_555
C23 O2 1_555 1_555
H12 C23 1_555 1_555
H13 C23 1_555 1_555
H14 C23 1_555 1_555
C24 O4 1_555 1_555
H15 C24 1_555 1_555
H16 C24 1_555 1_555
H17 C24 1_555 1_555
C25 O6 1_555 1_555
H18 C25 1_555 1_555
H19 C25 1_555 1_555
H20 C25 1_555 1_555
C26 H21 1_555 1_555
C27 C26 1_555 1_555
H22 C27 1_555 1_555
C28 C27 1_555 1_555
H23 C28 1_555 1_555
C29 C28 1_555 1_555
H24 C29 1_555 1_555
C30 C29 1_555 1_555
C31 C30 1_555 1_555
H25 C31 1_555 1_555
C32 C31 1_555 1_555
H26 C32 1_555 1_555
C33 C32 1_555 1_555
C34 C33 1_555 1_555
H27 C34 1_555 1_555
C35 C26 1_555 1_555
C36 C33 1_555 1_555
H28 C36 1_555 1_555
C37 C36 1_555 1_555
H29 C37 1_555 1_555
C38 C37 1_555 1_555
C39 C38 1_555 1_555
H30 C39 1_555 1_555
C40 C39 1_555 1_555
H31 C40 1_555 1_555
C41 C40 1_555 1_555
C42 C41 1_555 1_555
C43 C42 1_555 1_555
C44 C43 1_555 1_555
N3 C41 1_555 1_555
N4 C38 1_555 1_555
C45 C42 1_555 1_555
C46 C43 1_555 1_555
C47 C44 1_555 1_555
O7 C45 1_555 1_555
O8 C45 1_555 1_555
O9 C46 1_555 1_555
O10 C46 1_555 1_555
O11 C47 1_555 1_555
O12 C47 1_555 1_555
C48 O8 1_555 1_555
H32 C48 1_555 1_555
H33 C48 1_555 1_555
H34 C48 1_555 1_555
C49 O10 1_555 1_555
H35 C49 1_555 1_555
H36 C49 1_555 1_555
H37 C49 1_555 1_555
C50 O12 1_555 1_555
H38 C50 1_555 1_555
H39 C50 1_555 1_555
H40 C50 1_555 1_555
C5 C10 1_555 1_555
C9 C10 1_555 1_555
C19 N1 1_555 1_555
N1 N2 1_555 1_555
C30 C35 1_555 1_555
C34 C35 1_555 1_555
C44 N3 1_555 1_555
N3 N4 1_555 1_555

#END
