
#######################################################################
#
#                 Cambridge Crystallographic Data Centre
#                                CCDC 
#
#######################################################################
#
# If this CIF has been generated from an entry in the Cambridge 
# Structural Database, then it will include bibliographic, chemical, 
# crystal, experimental, refinement or atomic coordinate data resulting 
# from the CCDC's data processing and validation procedures.
#
#######################################################################

data_MAWROS
_chemical_compound_source        'dried fruits of Diospyros ehretioides'
_chemical_formula_moiety         'C20 H14 O5'
_chemical_name_systematic        'Palmarumycin JC1'
_chemical_properties_biological  
'no antimalarial, antifungal, antimycobacterial or cytotoxic activities'
_symmetry_cell_setting           monoclinic
_symmetry_space_group_name_H-M   'P 21'
_symmetry_Int_Tables_number      4
_space_group_name_Hall           'P 2yb'
loop_
_symmetry_equiv_pos_site_id
_symmetry_equiv_pos_as_xyz
1 x,y,z
2 -x,1/2+y,-z
_cell_length_a                   9.0276(2)
_cell_length_b                   8.24430(10)
_cell_length_c                   10.0741(2)
_cell_angle_alpha                90
_cell_angle_beta                 92.9211(9)
_cell_angle_gamma                90
_cell_volume                     748.803
_exptl_crystal_colour            colorless
_exptl_crystal_description       Needle
_cell_formula_units_Z            2
loop_
_atom_site_label
_atom_site_type_symbol
_atom_site_fract_x
_atom_site_fract_y
_atom_site_fract_z
O1 O -0.06671(15) 0.05062(17) -0.28138(14)
O2 O 0.09246(15) -0.17654(18) -0.27767(14)
O3 O 0.05578(16) -0.1666(2) 0.02502(14)
C1 C -0.1503(2) -0.2020(2) -0.1997(2)
O4 O -0.43966(19) -0.2878(3) 0.02784(17)
C2 C 0.2137(2) -0.0821(3) -0.3058(2)
O5 O -0.28514(17) 0.0791(2) -0.00423(18)
C3 C 0.0478(2) -0.0399(3) -0.0738(2)
C4 C -0.0461(2) -0.0345(3) 0.0405(2)
C5 C -0.1831(2) -0.3136(3) -0.3012(2)
C6 C 0.3099(2) 0.1866(3) -0.3603(2)
C7 C 0.1899(2) 0.0851(3) -0.32818(19)
C8 C 0.0470(2) 0.1516(3) -0.3189(2)
C9 C -0.2384(2) -0.1928(3) -0.08988(19)
C10 C -0.0180(2) -0.0910(2) -0.2079(2)
C11 C 0.4704(3) -0.0477(3) -0.3437(2)
C12 C 0.0188(3) 0.3103(3) -0.3489(2)
C13 C -0.2078(2) -0.0723(3) 0.0207(2)
C14 C 0.1372(3) 0.4101(3) -0.3831(2)
C15 C -0.3011(2) -0.4193(3) -0.2892(2)
C16 C 0.4509(3) 0.1141(3) -0.3664(2)
C17 C -0.3865(2) -0.4156(3) -0.1801(2)
C18 C 0.3506(2) -0.1491(3) -0.3132(2)
C19 C -0.3577(2) -0.3003(3) -0.0817(2)
C20 C 0.2792(3) 0.3522(3) -0.3862(2)
H1 H -0.5418 -0.3545 0.0109
H2 H -0.2282 0.1452 -0.0349
H3 H 0.0986 0.0617 -0.0811
H4 H -0.0335 0.0679 0.0851
H5 H -0.1244 -0.3154 -0.3780
H6 H 0.5672 -0.0945 -0.3494
H7 H -0.0802 0.3520 -0.3455
H8 H -0.2428 -0.1208 0.0999
H9 H 0.1197 0.5220 -0.4053
H10 H -0.3226 -0.4976 -0.3580
H11 H 0.5355 0.1776 -0.3879
H12 H -0.4664 -0.4913 -0.1718
H13 H 0.3653 -0.2628 -0.2964
H14 H 0.3582 0.4246 -0.4065
loop_
_geom_bond_atom_site_label_1
_geom_bond_atom_site_label_2
_geom_bond_site_symmetry_1
_geom_bond_site_symmetry_2
O1 C8 1_555 1_555
O2 C2 1_555 1_555
O3 C3 1_555 1_555
C1 C5 1_555 1_555
O4 C19 1_555 1_555
C2 C7 1_555 1_555
O5 C13 1_555 1_555
C3 C4 1_555 1_555
C4 O3 1_555 1_555
C5 C15 1_555 1_555
C6 C7 1_555 1_555
C7 C8 1_555 1_555
C8 C12 1_555 1_555
C9 C1 1_555 1_555
C10 O1 1_555 1_555
C11 C16 1_555 1_555
C12 C14 1_555 1_555
C13 C4 1_555 1_555
C14 C20 1_555 1_555
C15 C17 1_555 1_555
C16 C6 1_555 1_555
C17 C19 1_555 1_555
C18 C2 1_555 1_555
C19 C9 1_555 1_555
C20 C6 1_555 1_555
H1 O4 1_555 1_555
H2 O5 1_555 1_555
H3 C3 1_555 1_555
H4 C4 1_555 1_555
H5 C5 1_555 1_555
H6 C11 1_555 1_555
H7 C12 1_555 1_555
H8 C13 1_555 1_555
H9 C14 1_555 1_555
H10 C15 1_555 1_555
H11 C16 1_555 1_555
H12 C17 1_555 1_555
H13 C18 1_555 1_555
H14 C20 1_555 1_555
O2 C10 1_555 1_555
C1 C10 1_555 1_555
C3 C10 1_555 1_555
C9 C13 1_555 1_555
C11 C18 1_555 1_555

#END
