
#######################################################################
#
#                 Cambridge Crystallographic Data Centre
#                                CCDC 
#
#######################################################################
#
# If this CIF has been generated from an entry in the Cambridge 
# Structural Database, then it will include bibliographic, chemical, 
# crystal, experimental, refinement or atomic coordinate data resulting 
# from the CCDC's data processing and validation procedures.
#
#######################################################################

data_MAWSOV
_chemical_formula_moiety         'C22 H24 N2 O7 S1,0.5(C7 H8)'
_chemical_name_systematic        
'(S)-2-[1-(3-Ethoxy-4-methoxyphenyl)-2-(methylsulfonyl)ethyl]-4-acetamidoisoindoline-1,3-dione toluene solvate'
_chemical_properties_biological  'inhibitor of phosphodieasterase-4 (PDE4)'
_symmetry_cell_setting           tetragonal
_symmetry_space_group_name_H-M   'P 41 21 2'
_symmetry_Int_Tables_number      92
_space_group_name_Hall           'P 4abw 2nw'
loop_
_symmetry_equiv_pos_site_id
_symmetry_equiv_pos_as_xyz
1 x,y,z
2 1/2-y,1/2+x,1/4+z
3 -x,-y,1/2+z
4 1/2+y,1/2-x,3/4+z
5 1/2+x,1/2-y,3/4-z
6 y,x,-z
7 1/2-x,1/2+y,1/4-z
8 -y,-x,1/2-z
_cell_length_a                   12.980(3)
_cell_length_b                   12.980(3)
_cell_length_c                   29.734(6)
_cell_angle_alpha                90
_cell_angle_beta                 90
_cell_angle_gamma                90
_cell_volume                     5009.6
_exptl_crystal_colour            colorless
_exptl_crystal_description       block
_cell_formula_units_Z            8
loop_
_atom_site_label
_atom_site_type_symbol
_atom_site_fract_x
_atom_site_fract_y
_atom_site_fract_z
S1 S 0.1605(2) 0.5996(2) 0.71358(10)
O1 O 0.2073(5) 0.6918(5) 0.6956(2)
O2 O 0.0732(5) 0.5572(5) 0.6882(3)
O3 O 0.5370(5) 0.2469(5) 0.7659(2)
O4 O 0.5544(5) 0.1111(5) 0.7012(3)
O5 O 0.4666(5) 0.6011(6) 0.6956(2)
O6 O 0.2364(5) 0.5239(5) 0.5839(2)
O7 O 0.3242(5) 0.7975(5) 0.4604(3)
N1 N 0.3419(5) 0.5391(6) 0.6464(3)
N2 N 0.2963(6) 0.6819(6) 0.5156(3)
H1 H 0.2590 0.6293 0.5223
C1 C 0.2935(7) 0.4604(7) 0.6750(4)
H2 H 0.2328 0.4347 0.6589
C2 C 0.2560(7) 0.5033(7) 0.7203(3)
H3 H 0.3142 0.5321 0.7365
H4 H 0.2282 0.4474 0.7382
C3 C 0.1219(9) 0.6235(8) 0.7696(4)
H5 H 0.1816 0.6369 0.7877
H6 H 0.0862 0.5644 0.7811
H7 H 0.0770 0.6823 0.7703
C4 C 0.3668(3) 0.3676(3) 0.68242(18)
C5 C 0.4197(4) 0.3525(4) 0.72254(17)
H8 H 0.4129 0.3999 0.7458
C6 C 0.4827(5) 0.2668(4) 0.72783(19)
C7 C 0.4929(4) 0.1961(3) 0.6930(2)
C8 C 0.4400(5) 0.2111(4) 0.6529(2)
H9 H 0.4468 0.1638 0.6296
C9 C 0.3770(4) 0.2968(4) 0.64759(16)
H10 H 0.3416 0.3069 0.6208
C10 C 0.5370(8) 0.3212(8) 0.8012(4)
H11 H 0.4688 0.3254 0.8145
H12 H 0.5544 0.3884 0.7892
C11 C 0.6137(10) 0.2914(9) 0.8365(4)
H13 H 0.6797 0.2806 0.8228
H14 H 0.5916 0.2291 0.8510
H15 H 0.6188 0.3455 0.8584
C12 C 0.5718(11) 0.0421(9) 0.6639(4)
H16 H 0.6046 0.0789 0.6398
H17 H 0.5071 0.0151 0.6536
H18 H 0.6153 -0.0136 0.6734
C13 C 0.4202(7) 0.6045(8) 0.6600(4)
C14 C 0.4363(4) 0.6793(4) 0.62356(17)
C15 C 0.5047(4) 0.7609(4) 0.6183(2)
H19 H 0.5510 0.7768 0.6411
C16 C 0.5038(4) 0.8185(4) 0.5789(2)
H20 H 0.5495 0.8731 0.5753
C17 C 0.4346(5) 0.7946(5) 0.54477(19)
H21 H 0.4340 0.8332 0.5184
C18 C 0.3662(4) 0.7131(5) 0.55005(18)
C19 C 0.3671(4) 0.6554(4) 0.58945(19)
C20 C 0.3052(7) 0.5686(7) 0.6042(3)
C21 C 0.2791(7) 0.7213(8) 0.4743(4)
C22 C 0.2084(8) 0.6592(8) 0.4454(4)
H22 H 0.1902 0.6983 0.4192
H23 H 0.1472 0.6425 0.4620
H24 H 0.2424 0.5968 0.4364
C23? C 0.5776(13) 0.5377(13) 0.5355(7)
H25? H 0.6262 0.5619 0.5560
C24? C 0.5124(16) 0.4572(14) 0.5474(7)
H26? H 0.5173 0.4276 0.5758
C25? C 0.440(2) 0.421(2) 0.5168(8)
H27? H 0.3962 0.3673 0.5248
C26? C 0.4325(19) 0.465(2) 0.4744(8)
H28? H 0.3840 0.4413 0.4540
C27? C 0.4978(17) 0.5459(17) 0.4625(7)
H29? H 0.4929 0.5756 0.4342
C28? C 0.5703(15) 0.5820(14) 0.4931(8)
C29? C 0.630(2) 0.669(2) 0.4782(10)
H30? H 0.6307 0.7207 0.5011
H31? H 0.6006 0.6964 0.4512
H32? H 0.6997 0.6469 0.4722
loop_
_geom_bond_atom_site_label_1
_geom_bond_atom_site_label_2
_geom_bond_site_symmetry_1
_geom_bond_site_symmetry_2
S1 O1 1_555 1_555
O2 S1 1_555 1_555
O3 C6 1_555 1_555
O4 C7 1_555 1_555
O5 C13 1_555 1_555
O6 C20 1_555 1_555
O7 C21 1_555 1_555
N1 C1 1_555 1_555
N2 H1 1_555 1_555
C1 H2 1_555 1_555
C2 S1 1_555 1_555
H3 C2 1_555 1_555
H4 C2 1_555 1_555
C3 S1 1_555 1_555
H5 C3 1_555 1_555
H6 C3 1_555 1_555
H7 C3 1_555 1_555
C4 C1 1_555 1_555
C5 C4 1_555 1_555
H8 C5 1_555 1_555
C6 C5 1_555 1_555
C7 C6 1_555 1_555
C8 C7 1_555 1_555
H9 C8 1_555 1_555
C9 C4 1_555 1_555
H10 C9 1_555 1_555
C10 O3 1_555 1_555
H11 C10 1_555 1_555
H12 C10 1_555 1_555
C11 C10 1_555 1_555
H13 C11 1_555 1_555
H14 C11 1_555 1_555
H15 C11 1_555 1_555
C12 O4 1_555 1_555
H16 C12 1_555 1_555
H17 C12 1_555 1_555
H18 C12 1_555 1_555
C13 N1 1_555 1_555
C14 C13 1_555 1_555
C15 C14 1_555 1_555
H19 C15 1_555 1_555
C16 C15 1_555 1_555
H20 C16 1_555 1_555
C17 C16 1_555 1_555
H21 C17 1_555 1_555
C18 N2 1_555 1_555
C19 C14 1_555 1_555
C20 N1 1_555 1_555
C21 N2 1_555 1_555
C22 C21 1_555 1_555
H22 C22 1_555 1_555
H23 C22 1_555 1_555
H24 C22 1_555 1_555
C1 C2 1_555 1_555
C8 C9 1_555 1_555
C17 C18 1_555 1_555
C18 C19 1_555 1_555
C19 C20 1_555 1_555

#END
