
#######################################################################
#
#                 Cambridge Crystallographic Data Centre
#                                CCDC 
#
#######################################################################
#
# If this CIF has been generated from an entry in the Cambridge 
# Structural Database, then it will include bibliographic, chemical, 
# crystal, experimental, refinement or atomic coordinate data resulting 
# from the CCDC's data processing and validation procedures.
#
#######################################################################

data_MAWSUB
_chemical_formula_moiety         'C22 H24 N2 O7 S1,C1 H2 Cl2'
_chemical_name_systematic        
'(S)-2-[1-(3-Ethoxy-4-methoxyphenyl)-2-(methylsulfonyl)ethyl]-4-acetamidoisoindoline-1,3-dione dichloromethane solvate'
_chemical_properties_biological  'inhibitor of phosphodieasterase-4 (PDE4)'
_symmetry_cell_setting           tetragonal
_symmetry_space_group_name_H-M   'P 41 21 2'
_symmetry_Int_Tables_number      92
_space_group_name_Hall           'P 4abw 2nw'
loop_
_symmetry_equiv_pos_site_id
_symmetry_equiv_pos_as_xyz
1 x,y,z
2 1/2-y,1/2+x,1/4+z
3 -x,-y,1/2+z
4 1/2+y,1/2-x,3/4+z
5 1/2+x,1/2-y,3/4-z
6 y,x,-z
7 1/2-x,1/2+y,1/4-z
8 -y,-x,1/2-z
_cell_length_a                   13.171(3)
_cell_length_b                   13.171(3)
_cell_length_c                   29.524(6)
_cell_angle_alpha                90
_cell_angle_beta                 90
_cell_angle_gamma                90
_cell_volume                     5121.68
_exptl_crystal_colour            colorless
_exptl_crystal_description       block
_cell_formula_units_Z            8
loop_
_atom_site_label
_atom_site_type_symbol
_atom_site_fract_x
_atom_site_fract_y
_atom_site_fract_z
S1 S 0.39269(12) 0.15616(12) 0.46154(6)
O1 O 0.4345(3) 0.0717(3) 0.43754(16)
O2 O 0.3043(3) 0.2042(3) 0.44290(14)
O3 O 0.4667(3) 0.2359(3) 0.33258(14)
O4 O 0.1944(4) 0.3254(4) 0.20964(15)
O5 O 0.3921(3) 0.4565(3) 0.44678(14)
O6 O 0.7385(3) 0.5276(3) 0.51867(14)
O7 O 0.8730(3) 0.5441(3) 0.45520(15)
N1 N 0.4514(3) 0.3376(3) 0.39610(16)
N2 N 0.3115(4) 0.2972(4) 0.26482(16)
H1 H 0.3637 0.2605 0.2710
C1 C 0.4881(4) 0.2491(4) 0.4687(2)
H2 H 0.4602 0.3054 0.4858
H3 H 0.5430 0.2201 0.4863
C2 C 0.5314(4) 0.2898(4) 0.42417(19)
H4 H 0.5572 0.2313 0.4072
C3 C 0.4243(4) 0.3038(4) 0.35334(19)
C4 C 0.3362(4) 0.3651(4) 0.3388(2)
C5 C 0.2816(4) 0.3646(4) 0.2989(2)
C6 C 0.2709(5) 0.2823(5) 0.2225(2)
C7 C 0.3289(5) 0.2122(5) 0.1929(2)
H5 H 0.3408 0.1496 0.2086
H6 H 0.3927 0.2427 0.1850
H7 H 0.2906 0.1989 0.1658
C8 C 0.2003(4) 0.4329(4) 0.2954(2)
H8 H 0.1618 0.4350 0.2691
C9 C 0.1774(5) 0.4966(5) 0.3307(3)
H9 H 0.1221 0.5400 0.3278
C10 C 0.2328(4) 0.4993(5) 0.3706(2)
H10 H 0.2173 0.5438 0.3940
C11 C 0.3126(4) 0.4316(4) 0.37335(19)
C12 C 0.3859(5) 0.4141(4) 0.4104(2)
C13 C 0.6208(4) 0.3604(4) 0.4324(2)
C14 C 0.6344(4) 0.4129(4) 0.4729(2)
H11 H 0.5859 0.4067 0.4956
C15 C 0.7186(4) 0.4741(4) 0.4801(2)
C16 C 0.6667(5) 0.5196(5) 0.5547(2)
H12 H 0.6590 0.4492 0.5637
H13 H 0.6011 0.5449 0.5450
C17 C 0.7052(6) 0.5811(7) 0.5937(3)
H14 H 0.6598 0.5741 0.6189
H15 H 0.7090 0.6512 0.5850
H16 H 0.7715 0.5575 0.6021
C18 C 0.7910(4) 0.4842(4) 0.4452(2)
C19 C 0.9460(5) 0.5585(6) 0.4200(2)
H17 H 0.9996 0.6017 0.4307
H18 H 0.9137 0.5895 0.3943
H19 H 0.9737 0.4940 0.4113
C20 C 0.7766(4) 0.4332(5) 0.4049(2)
H20 H 0.8241 0.4400 0.3818
C21 C 0.6917(4) 0.3715(4) 0.3985(2)
H21 H 0.6830 0.3376 0.3711
C22 C 0.3660(6) 0.1209(6) 0.5174(2)
H22 H 0.3401 0.1784 0.5336
H23 H 0.4270 0.0972 0.5317
H24 H 0.3163 0.0676 0.5174
Cl1 Cl 0.8600(2) 0.81065(19) 0.45348(11)
C23 C 0.7849(7) 0.7849(7) 0.5000
H25 H 0.7940 0.7143 0.5084
H25E H 0.7143 0.7940 0.4916
Cl1E Cl 0.81065(19) 0.8600(2) 0.54652(11)
Cl2 Cl 0.5832(2) 0.4681(3) 0.29535(14)
C24 C 0.5070(6) 0.4930(6) 0.2500
H27 H 0.4366 0.4841 0.2589
H27G H 0.5159 0.5634 0.2411
Cl2G Cl 0.5319(3) 0.4168(2) 0.20465(14)
H26? H 0.7940 0.7143 0.5084
H28? H 0.4366 0.4841 0.2589
loop_
_geom_bond_atom_site_label_1
_geom_bond_atom_site_label_2
_geom_bond_site_symmetry_1
_geom_bond_site_symmetry_2
S1 O1 1_555 1_555
O2 S1 1_555 1_555
O3 C3 1_555 1_555
O4 C6 1_555 1_555
O5 C12 1_555 1_555
O6 C15 1_555 1_555
O7 C18 1_555 1_555
N1 C2 1_555 1_555
N2 H1 1_555 1_555
C1 S1 1_555 1_555
H2 C1 1_555 1_555
H3 C1 1_555 1_555
C2 C1 1_555 1_555
H4 C2 1_555 1_555
C3 N1 1_555 1_555
C4 C3 1_555 1_555
C5 N2 1_555 1_555
C6 N2 1_555 1_555
C7 C6 1_555 1_555
H5 C7 1_555 1_555
H6 C7 1_555 1_555
H7 C7 1_555 1_555
C8 C5 1_555 1_555
H8 C8 1_555 1_555
C9 C8 1_555 1_555
H9 C9 1_555 1_555
C10 C9 1_555 1_555
H10 C10 1_555 1_555
C11 C4 1_555 1_555
C12 N1 1_555 1_555
C13 C2 1_555 1_555
C14 C13 1_555 1_555
H11 C14 1_555 1_555
C15 C14 1_555 1_555
C16 O6 1_555 1_555
H12 C16 1_555 1_555
H13 C16 1_555 1_555
C17 C16 1_555 1_555
H14 C17 1_555 1_555
H15 C17 1_555 1_555
H16 C17 1_555 1_555
C18 C15 1_555 1_555
C19 O7 1_555 1_555
H17 C19 1_555 1_555
H18 C19 1_555 1_555
H19 C19 1_555 1_555
C20 C18 1_555 1_555
H20 C20 1_555 1_555
C21 C13 1_555 1_555
H21 C21 1_555 1_555
C22 S1 1_555 1_555
H22 C22 1_555 1_555
H23 C22 1_555 1_555
H24 C22 1_555 1_555
Cl1 C23 1_555 1_555
C23 H25 1_555 1_555
Cl2 C24 1_555 1_555
C24 H27 1_555 1_555
H25E C23 1_555 1_555
Cl1E C23 1_555 1_555
H27G C24 1_555 1_555
Cl2G C24 1_555 1_555
C4 C5 1_555 1_555
C10 C11 1_555 1_555
C11 C12 1_555 1_555
C20 C21 1_555 1_555

#END
