
#######################################################################
#
#                 Cambridge Crystallographic Data Centre
#                                CCDC 
#
#######################################################################
#
# If this CIF has been generated from an entry in the Cambridge 
# Structural Database, then it will include bibliographic, chemical, 
# crystal, experimental, refinement or atomic coordinate data resulting 
# from the CCDC's data processing and validation procedures.
#
#######################################################################

data_MAWWIT
_chemical_formula_moiety         'C30 H45 B1 F2 N2 Si2'
_chemical_name_systematic        
{2-(1-{3,5-dimethyl-4-[(trimethylsilyl)ethynyl]-2H-pyrrol-2-ylidene}octyl)-3,5-dimethyl-4-[(trimethylsilyl)ethynyl]-1H-pyrrolato}(difluoro)boron
_symmetry_cell_setting           triclinic
_symmetry_space_group_name_H-M   'P -1'
_symmetry_Int_Tables_number      2
_space_group_name_Hall           '-P 1'
loop_
_symmetry_equiv_pos_site_id
_symmetry_equiv_pos_as_xyz
1 x,y,z
2 -x,-y,-z
_cell_length_a                   14.8182(16)
_cell_length_b                   15.3372(16)
_cell_length_c                   17.1281(18)
_cell_angle_alpha                80.755(2)
_cell_angle_beta                 77.263(2)
_cell_angle_gamma                61.2810(10)
_cell_volume                     3323.02
_exptl_crystal_colour            yellow
_exptl_crystal_description       block
_cell_formula_units_Z            4
_exptl_crystal_preparation       ', Luminescent'
loop_
_atom_site_label
_atom_site_type_symbol
_atom_site_fract_x
_atom_site_fract_y
_atom_site_fract_z
B1 B 1.2036(4) 0.3337(3) 0.1266(3)
C1 C 1.0823(3) 0.2655(3) 0.1083(2)
C2 C 0.9784(3) 0.3027(3) 0.0980(2)
C3 C 0.9303(3) 0.4066(3) 0.0973(2)
C4 C 1.0075(3) 0.4324(3) 0.1077(2)
C5 C 1.0045(3) 0.5240(3) 0.1125(2)
C6 C 1.0909(3) 0.5283(3) 0.1277(2)
C7 C 1.1096(3) 0.6094(3) 0.1360(2)
C8 C 1.2117(3) 0.5677(3) 0.1486(3)
C9 C 1.2562(3) 0.4631(3) 0.1490(2)
C10 C 1.1631(3) 0.1590(3) 0.1120(3)
H1 H 1.2181 0.1478 0.0669
H2 H 1.1320 0.1170 0.1107
H3 H 1.1912 0.1437 0.1607
C11 C 0.9301(4) 0.2437(3) 0.0916(3)
C12 C 0.8869(4) 0.1958(4) 0.0869(3)
C13 C 0.6735(4) 0.2306(5) 0.0876(4)
H4 H 0.6472 0.2555 0.1402
H5 H 0.6320 0.2030 0.0764
H6 H 0.6701 0.2841 0.0485
C14 C 0.8289(7) 0.0403(6) 0.1698(5)
H7 H 0.9018 -0.0050 0.1677
H8 H 0.7918 0.0039 0.1680
H9 H 0.8024 0.0741 0.2186
C15 C 0.8533(5) 0.0720(5) -0.0119(4)
H10 H 0.8644 0.1158 -0.0552
H11 H 0.8005 0.0571 -0.0208
H12 H 0.9171 0.0114 -0.0093
C16 C 0.8175(3) 0.4700(3) 0.0889(3)
H13 H 0.8124 0.5142 0.0417
H14 H 0.7805 0.5082 0.1352
H15 H 0.7876 0.4280 0.0844
C17 C 0.9070(3) 0.6190(3) 0.1012(2)
H16 H 0.8740 0.6104 0.0621
H17 H 0.9257 0.6718 0.0799
C18 C 0.8289(3) 0.6504(3) 0.1792(2)
H18 H 0.8204 0.5933 0.2056
H19 H 0.8572 0.6709 0.2146
C19 C 0.7223(3) 0.7352(4) 0.1662(3)
H20 H 0.6969 0.7165 0.1275
H21 H 0.6742 0.7436 0.2164
C20 C 0.7213(4) 0.8297(4) 0.1384(4)
H22 H 0.7673 0.8226 0.0873
H23 H 0.7478 0.8485 0.1764
C21 C 0.6092(5) 0.9141(5) 0.1287(5)
H24 H 0.5844 0.8929 0.0911
H25 H 0.5644 0.9176 0.1800
C22 C 0.5945(6) 1.0047(6) 0.1048(7)
H26 H 0.6374 1.0014 0.0525
H27 H 0.6220 1.0247 0.1411
C23 C 0.4885(5) 1.0858(5) 0.0981(6)
H28 H 0.4492 1.0599 0.0807
H29 H 0.4931 1.1372 0.0599
H30 H 0.4543 1.1129 0.1495
C24 C 1.0391(3) 0.7200(3) 0.1328(3)
H31 H 1.0729 0.7534 0.1476
H32 H 0.9751 0.7342 0.1695
H33 H 1.0241 0.7429 0.0794
C25 C 1.2702(4) 0.6174(4) 0.1568(3)
C26 C 1.3255(4) 0.6541(4) 0.1609(3)
C27 C 1.3696(7) 0.8280(6) 0.1216(5)
H34 H 1.3528 0.8349 0.0692
H35 H 1.4214 0.8495 0.1186
H36 H 1.3079 0.8682 0.1573
C28 C 1.4523(6) 0.6801(6) 0.2609(4)
H37 H 1.3935 0.7263 0.2952
H38 H 1.5111 0.6918 0.2580
H39 H 1.4691 0.6132 0.2822
C29 C 1.5356(5) 0.6209(7) 0.0904(5)
H40 H 1.5655 0.5531 0.1122
H41 H 1.5859 0.6453 0.0828
H42 H 1.5163 0.6239 0.0397
C30 C 1.3641(3) 0.3883(4) 0.1613(3)
H43 H 1.3622 0.3571 0.2144
H44 H 1.4069 0.4211 0.1544
H45 H 1.3928 0.3387 0.1227
F1 F 1.27828(17) 0.29646(17) 0.05924(15)
F2 F 1.23634(18) 0.27223(17) 0.19346(15)
N1 N 1.0993(2) 0.3426(2) 0.11500(17)
N2 N 1.1842(2) 0.4396(2) 0.13715(18)
Si1 Si 0.81073(12) 0.13266(11) 0.08299(10)
Si2 Si 1.42021(14) 0.69751(15) 0.15941(12)
B2 B 0.9538(4) 0.7393(4) 0.3812(3)
C31 C 0.7621(4) 0.7973(3) 0.3760(3)
C32 C 0.6945(4) 0.7558(3) 0.3841(3)
C33 C 0.7515(3) 0.6520(3) 0.3925(2)
C34 C 0.8571(3) 0.6319(3) 0.3903(2)
C35 C 0.9500(3) 0.5427(3) 0.3948(2)
C36 C 1.0455(3) 0.5442(3) 0.3879(2)
C37 C 1.1503(3) 0.4670(3) 0.3868(2)
C38 C 1.2124(4) 0.5138(4) 0.3809(2)
C39 C 1.1478(4) 0.6172(3) 0.3781(3)
C40 C 0.7356(4) 0.9049(3) 0.3628(3)
H46 H 0.7600 0.9224 0.4023
H47 H 0.6613 0.9445 0.3674
H48 H 0.7683 0.9170 0.3102
C41 C 0.5847(4) 0.8151(3) 0.3826(3)
C42 C 0.4937(4) 0.8720(4) 0.3817(3)
C43 C 0.2693(5) 0.9424(5) 0.4610(4)
H49 H 0.2647 0.8880 0.4444
H50 H 0.2016 0.9994 0.4669
H51 H 0.2942 0.9236 0.5114
C44 C 0.3204(6) 0.9984(7) 0.2873(4)
H52 H 0.3639 1.0211 0.2491
H53 H 0.2490 1.0488 0.2909
H54 H 0.3273 0.9385 0.2703
C45 C 0.3626(6) 1.0844(5) 0.4111(6)
H55 H 0.3898 1.0697 0.4602
H56 H 0.2930 1.1386 0.4178
H57 H 0.4061 1.1027 0.3689
C46 C 0.7044(3) 0.5835(3) 0.3997(3)
H58 H 0.6330 0.6214 0.3917
H59 H 0.7071 0.5499 0.4521
H60 H 0.7426 0.5354 0.3598
C47 C 0.9481(3) 0.4443(3) 0.4047(2)
H61 H 0.8806 0.4532 0.4339
H62 H 1.0006 0.3975 0.4365
C48 C 0.9681(4) 0.4007(3) 0.3257(3)
H63 H 1.0266 0.4067 0.2913
H64 H 0.9074 0.4395 0.2995
C49 C 0.9914(7) 0.2921(5) 0.3337(4)
H65 H 1.0176 0.2668 0.2806
H66 H 1.0472 0.2552 0.3651
C50 C 0.9138(7) 0.2727(6) 0.3666(6)
H67 H 0.8598 0.3070 0.3334
H68 H 0.8852 0.3019 0.4182
C51 C 0.9367(10) 0.1591(8) 0.3804(8)
H69 H 0.9753 0.1313 0.4248
H70 H 0.8694 0.1603 0.3998
C52 C 0.9842(11) 0.0940(8) 0.3269(8)
H71 H 1.0532 0.0889 0.3083
H72 H 0.9471 0.1201 0.2816
C53 C 0.9969(9) -0.0072(6) 0.3489(8)
H73 H 1.0323 -0.0345 0.3944
H74 H 1.0371 -0.0482 0.3045
H75 H 0.9295 -0.0051 0.3622
C54 C 1.1943(3) 0.3556(3) 0.3907(3)
H76 H 1.2688 0.3252 0.3859
H77 H 1.1763 0.3371 0.3477
H78 H 1.1658 0.3334 0.4411
C55 C 1.3235(4) 0.4648(4) 0.3771(3)
C56 C 1.4163(4) 0.4212(4) 0.3755(3)
C57 C 1.6279(5) 0.3825(5) 0.2821(4)
H79 H 1.5928 0.3980 0.2371
H80 H 1.6978 0.3299 0.2697
H81 H 1.6303 0.4406 0.2935
C58 C 1.5948(4) 0.3489(5) 0.4644(4)
H82 H 1.5794 0.4163 0.4695
H83 H 1.6682 0.3062 0.4627
H84 H 1.5568 0.3279 0.5096
C59 C 1.5808(5) 0.2133(4) 0.3601(4)
H85 H 1.5418 0.1932 0.4051
H86 H 1.6539 0.1685 0.3578
H87 H 1.5592 0.2120 0.3116
C60 C 1.1793(4) 0.6973(4) 0.3730(3)
H88 H 1.1698 0.7341 0.3220
H89 H 1.2514 0.6677 0.3787
H90 H 1.1371 0.7414 0.4152
F3 F 0.9687(2) 0.79771(18) 0.31523(16)
F4 F 0.9377(2) 0.78411(18) 0.45065(16)
N3 N 0.8589(3) 0.7237(2) 0.38001(19)
N4 N 1.0488(3) 0.6352(2) 0.38151(19)
Si3 Si 0.36018(12) 0.97337(12) 0.38507(10)
Si4 Si 1.55633(11) 0.34164(12) 0.37127(10)
loop_
_geom_bond_atom_site_label_1
_geom_bond_atom_site_label_2
_geom_bond_site_symmetry_1
_geom_bond_site_symmetry_2
B1 F1 1_555 1_555
C1 C2 1_555 1_555
C2 C3 1_555 1_555
C3 C4 1_555 1_555
C4 C5 1_555 1_555
C5 C6 1_555 1_555
C6 C7 1_555 1_555
C7 C8 1_555 1_555
C8 C9 1_555 1_555
C9 C30 1_555 1_555
C10 C1 1_555 1_555
H1 C10 1_555 1_555
H2 C10 1_555 1_555
H3 C10 1_555 1_555
C11 C2 1_555 1_555
C12 C11 1_555 1_555
C13 H4 1_555 1_555
H5 C13 1_555 1_555
H6 C13 1_555 1_555
C14 H7 1_555 1_555
H8 C14 1_555 1_555
H9 C14 1_555 1_555
C15 H10 1_555 1_555
H11 C15 1_555 1_555
H12 C15 1_555 1_555
C16 C3 1_555 1_555
H13 C16 1_555 1_555
H14 C16 1_555 1_555
H15 C16 1_555 1_555
C17 C5 1_555 1_555
H16 C17 1_555 1_555
H17 C17 1_555 1_555
C18 C17 1_555 1_555
H18 C18 1_555 1_555
H19 C18 1_555 1_555
C19 C18 1_555 1_555
H20 C19 1_555 1_555
H21 C19 1_555 1_555
C20 C19 1_555 1_555
H22 C20 1_555 1_555
H23 C20 1_555 1_555
C21 C20 1_555 1_555
H24 C21 1_555 1_555
H25 C21 1_555 1_555
C22 C21 1_555 1_555
H26 C22 1_555 1_555
H27 C22 1_555 1_555
C23 C22 1_555 1_555
H28 C23 1_555 1_555
H29 C23 1_555 1_555
H30 C23 1_555 1_555
C24 C7 1_555 1_555
H31 C24 1_555 1_555
H32 C24 1_555 1_555
H33 C24 1_555 1_555
C25 C8 1_555 1_555
C26 C25 1_555 1_555
C27 H34 1_555 1_555
H35 C27 1_555 1_555
H36 C27 1_555 1_555
C28 H37 1_555 1_555
H38 C28 1_555 1_555
H39 C28 1_555 1_555
C29 H40 1_555 1_555
H41 C29 1_555 1_555
H42 C29 1_555 1_555
C30 H43 1_555 1_555
H44 C30 1_555 1_555
H45 C30 1_555 1_555
F2 B1 1_555 1_555
N1 B1 1_555 1_555
N2 B1 1_555 1_555
Si1 C12 1_555 1_555
Si2 C26 1_555 1_555
B2 F3 1_555 1_555
C31 C32 1_555 1_555
C32 C33 1_555 1_555
C33 C34 1_555 1_555
C34 C35 1_555 1_555
C35 C36 1_555 1_555
C36 C37 1_555 1_555
C37 C38 1_555 1_555
C38 C39 1_555 1_555
C39 C60 1_555 1_555
C40 C31 1_555 1_555
H46 C40 1_555 1_555
H47 C40 1_555 1_555
H48 C40 1_555 1_555
C41 C32 1_555 1_555
C42 C41 1_555 1_555
C43 H49 1_555 1_555
H50 C43 1_555 1_555
H51 C43 1_555 1_555
C44 H52 1_555 1_555
H53 C44 1_555 1_555
H54 C44 1_555 1_555
C45 H55 1_555 1_555
H56 C45 1_555 1_555
H57 C45 1_555 1_555
C46 C33 1_555 1_555
H58 C46 1_555 1_555
H59 C46 1_555 1_555
H60 C46 1_555 1_555
C47 C35 1_555 1_555
H61 C47 1_555 1_555
H62 C47 1_555 1_555
C48 C47 1_555 1_555
H63 C48 1_555 1_555
H64 C48 1_555 1_555
C49 C48 1_555 1_555
H65 C49 1_555 1_555
H66 C49 1_555 1_555
C50 C49 1_555 1_555
H67 C50 1_555 1_555
H68 C50 1_555 1_555
C51 C50 1_555 1_555
H69 C51 1_555 1_555
H70 C51 1_555 1_555
C52 C51 1_555 1_555
H71 C52 1_555 1_555
H72 C52 1_555 1_555
C53 C52 1_555 1_555
H73 C53 1_555 1_555
H74 C53 1_555 1_555
H75 C53 1_555 1_555
C54 C37 1_555 1_555
H76 C54 1_555 1_555
H77 C54 1_555 1_555
H78 C54 1_555 1_555
C55 C38 1_555 1_555
C56 C55 1_555 1_555
C57 H79 1_555 1_555
H80 C57 1_555 1_555
H81 C57 1_555 1_555
C58 H82 1_555 1_555
H83 C58 1_555 1_555
H84 C58 1_555 1_555
C59 H85 1_555 1_555
H86 C59 1_555 1_555
H87 C59 1_555 1_555
C60 H88 1_555 1_555
H89 C60 1_555 1_555
H90 C60 1_555 1_555
F4 B2 1_555 1_555
N3 B2 1_555 1_555
N4 B2 1_555 1_555
Si3 C42 1_555 1_555
Si4 C56 1_555 1_555
C1 N1 1_555 1_555
C4 N1 1_555 1_555
C6 N2 1_555 1_555
C9 N2 1_555 1_555
C13 Si1 1_555 1_555
C14 Si1 1_555 1_555
C15 Si1 1_555 1_555
C27 Si2 1_555 1_555
C28 Si2 1_555 1_555
C29 Si2 1_555 1_555
C31 N3 1_555 1_555
C34 N3 1_555 1_555
C36 N4 1_555 1_555
C39 N4 1_555 1_555
C43 Si3 1_555 1_555
C44 Si3 1_555 1_555
C45 Si3 1_555 1_555
C57 Si4 1_555 1_555
C58 Si4 1_555 1_555
C59 Si4 1_555 1_555

#END
