
#######################################################################
#
#                 Cambridge Crystallographic Data Centre
#                                CCDC 
#
#######################################################################
#
# If this CIF has been generated from an entry in the Cambridge 
# Structural Database, then it will include bibliographic, chemical, 
# crystal, experimental, refinement or atomic coordinate data resulting 
# from the CCDC's data processing and validation procedures.
#
#######################################################################

data_MAWWEP
_chemical_formula_moiety         'C25 H37 B1 F2 N2 Si1'
_chemical_name_systematic        
{2-[1-(3,5-dimethyl-2H-pyrrol-2-ylidene)octyl]-3,5-dimethyl-4-[(trimethylsilyl)ethynyl]-1H-pyrrolato}(difluoro)boron
_symmetry_cell_setting           triclinic
_symmetry_space_group_name_H-M   'P -1'
_symmetry_Int_Tables_number      2
_space_group_name_Hall           '-P 1'
loop_
_symmetry_equiv_pos_site_id
_symmetry_equiv_pos_as_xyz
1 x,y,z
2 -x,-y,-z
_cell_length_a                   12.2544(13)
_cell_length_b                   14.7011(16)
_cell_length_c                   15.7192(17)
_cell_angle_alpha                72.214(2)
_cell_angle_beta                 87.950(2)
_cell_angle_gamma                87.460(2)
_cell_volume                     2693.13
_exptl_crystal_colour            yellow
_exptl_crystal_description       block
_cell_formula_units_Z            4
_exptl_crystal_preparation       ', Luminescent'
loop_
_atom_site_label
_atom_site_type_symbol
_atom_site_fract_x
_atom_site_fract_y
_atom_site_fract_z
B1 B 0.7010(5) -0.0358(4) 0.3266(4)
C1 C 0.5760(5) -0.1105(4) 0.2411(4)
C2 C 0.4673(6) -0.1068(5) 0.2229(4)
H1 H 0.4359 -0.1405 0.1893
C3 C 0.4106(5) -0.0452(4) 0.2624(4)
C4 C 0.4899(4) -0.0092(4) 0.3064(3)
C5 C 0.4823(4) 0.0507(3) 0.3590(3)
C6 C 0.5766(4) 0.0774(3) 0.3941(3)
C7 C 0.5919(4) 0.1388(4) 0.4455(3)
C8 C 0.7043(4) 0.1365(4) 0.4591(3)
C9 C 0.7547(4) 0.0750(4) 0.4161(3)
C10 C 0.6680(6) -0.1632(5) 0.2120(5)
H2 H 0.7080 -0.1201 0.1640
H3 H 0.6402 -0.2130 0.1920
H4 H 0.7155 -0.1909 0.2613
C11 C 0.2895(5) -0.0197(5) 0.2517(5)
H5 H 0.2609 -0.0467 0.2091
H6 H 0.2788 0.0486 0.2310
H7 H 0.2521 -0.0448 0.3082
C12 C 0.3719(4) 0.0891(4) 0.3799(3)
H8 H 0.3732 0.0969 0.4390
H9 H 0.3177 0.0425 0.3814
C13 C 0.3369(4) 0.1844(4) 0.3133(3)
H10 H 0.3867 0.2331 0.3154
H11 H 0.3406 0.1788 0.2533
C14 C 0.2210(5) 0.2143(5) 0.3342(4)
H12 H 0.1718 0.1662 0.3297
H13 H 0.2173 0.2156 0.3956
C15 C 0.1817(6) 0.3098(5) 0.2746(4)
H14 H 0.2297 0.3585 0.2798
H15 H 0.1857 0.3091 0.2131
C16 C 0.0673(7) 0.3353(7) 0.2970(5)
H16 H 0.0598 0.3268 0.3605
H17 H 0.0172 0.2933 0.2823
C17 C 0.0370(8) 0.4457(8) 0.2411(6)
H18 H 0.0934 0.4867 0.2487
H19 H 0.0334 0.4520 0.1780
C18 C -0.0649(10) 0.4742(10) 0.2719(9)
H20 H -0.1126 0.4213 0.2877
H21 H -0.0970 0.5260 0.2255
H22 H -0.0541 0.4946 0.3234
C19 C 0.5126(5) 0.1970(4) 0.4832(3)
H23 H 0.4691 0.2378 0.4361
H24 H 0.5517 0.2354 0.5107
H25 H 0.4660 0.1554 0.5270
C20 C 0.7592(5) 0.1853(4) 0.5096(4)
C21 C 0.8095(5) 0.2240(5) 0.5501(4)
C22 C 0.7997(8) 0.3029(7) 0.7053(7)
H26 H 0.7547 0.2503 0.7355
H27 H 0.7541 0.3573 0.6754
H28 H 0.8433 0.3186 0.7481
C23 C 0.8753(4) 0.0461(5) 0.4173(4)
H29 H 0.8842 -0.0217 0.4448
H30 H 0.9136 0.0789 0.4508
H31 H 0.9043 0.0629 0.3572
C24 C 0.9831(8) 0.1728(8) 0.6881(8)
H32 H 1.0441 0.2003 0.7067
H33 H 1.0089 0.1351 0.6507
H34 H 0.9455 0.1329 0.7397
C25 C 0.9583(9) 0.3760(8) 0.5535(8)
H35 H 0.9060 0.4198 0.5168
H36 H 1.0124 0.3567 0.5163
H37 H 0.9929 0.4066 0.5908
F1 F 0.7755(2) -0.0012(2) 0.2576(2)
F2 F 0.7417(3) -0.1183(2) 0.3866(2)
N1 N 0.5923(3) -0.0506(3) 0.2914(3)
N2 N 0.6789(3) 0.0397(3) 0.3771(2)
Si1 Si 0.88795(17) 0.26988(18) 0.62431(15)
B2 B 0.3441(5) 0.3103(4) 0.0338(3)
C26 C 0.5006(5) 0.1844(3) 0.0779(3)
C27 C 0.5970(5) 0.1723(4) 0.1220(3)
H38 H 0.6438 0.1187 0.1326
C28 C 0.6142(4) 0.2508(4) 0.1482(3)
C29 C 0.5218(4) 0.3142(3) 0.1177(3)
C30 C 0.4941(4) 0.4054(3) 0.1248(3)
C31 C 0.3952(4) 0.4520(3) 0.0891(3)
C32 C 0.3480(4) 0.5429(3) 0.0885(3)
C33 C 0.2490(4) 0.5506(3) 0.0431(3)
C34 C 0.2375(4) 0.4680(3) 0.0191(3)
C35 C 0.4499(6) 0.1196(4) 0.0348(4)
H39 H 0.4749 0.1347 -0.0264
H40 H 0.3719 0.1279 0.0371
H41 H 0.4705 0.0544 0.0660
C36 C 0.7141(4) 0.2616(4) 0.1994(4)
H42 H 0.7577 0.2033 0.2141
H43 H 0.6906 0.2751 0.2533
H44 H 0.7566 0.3130 0.1629
C37 C 0.5676(4) 0.4513(4) 0.1714(3)
H45 H 0.5610 0.5202 0.1454
H46 H 0.6427 0.4315 0.1627
C38 C 0.5398(5) 0.4243(5) 0.2723(4)
H47 H 0.4690 0.4532 0.2799
H48 H 0.5330 0.3555 0.2948
C39 C 0.6193(9) 0.4525(8) 0.3288(7)
H49 H 0.5975 0.4249 0.3910
H50 H 0.6906 0.4248 0.3204
C40 C 0.6289(10) 0.5465(8) 0.3126(8)
H51 H 0.5563 0.5752 0.3140
H52 H 0.6589 0.5728 0.2525
C41 C 0.7059(11) 0.5788(10) 0.3822(9)
H53 H 0.7739 0.5411 0.3905
H54 H 0.7234 0.6455 0.3563
C42 C 0.6537(11) 0.5663(10) 0.4643(9)
H55 H 0.6438 0.4987 0.4935
H56 H 0.5820 0.5981 0.4556
C43 C 0.7232(11) 0.6089(10) 0.5257(9)
H57 H 0.7482 0.5579 0.5764
H58 H 0.6785 0.6539 0.5458
H59 H 0.7850 0.6404 0.4920
C44 C 0.3848(4) 0.6173(4) 0.1246(4)
H60 H 0.3346 0.6714 0.1083
H61 H 0.4562 0.6365 0.1005
H62 H 0.3877 0.5924 0.1885
C45 C 0.1708(4) 0.6338(3) 0.0277(3)
C46 C 0.1179(4) 0.6994(4) 0.0148(4)
C47 C -0.0736(5) 0.8027(5) 0.0739(5)
H63 H -0.1397 0.7982 0.0447
H64 H -0.0796 0.8570 0.0959
H65 H -0.0618 0.7456 0.1230
C48 C 0.1396(6) 0.8987(6) 0.0153(7)
H66 H 0.1005 0.9475 0.0342
H67 H 0.1810 0.9277 -0.0384
H68 H 0.1883 0.8635 0.0614
C49 C -0.0055(6) 0.8579(5) -0.1207(5)
H69 H -0.0471 0.8090 -0.1319
H70 H 0.0563 0.8712 -0.1613
H71 H -0.0505 0.9149 -0.1293
C50 C 0.1439(4) 0.4458(4) -0.0285(4)
H72 H 0.1708 0.4287 -0.0799
H73 H 0.0954 0.5009 -0.0472
H74 H 0.1053 0.3934 0.0110
F3 F 0.3461(2) 0.31845(18) -0.05692(16)
F4 F 0.2606(2) 0.25112(19) 0.0759(2)
N3 N 0.4537(3) 0.2704(2) 0.0750(2)
N4 N 0.3253(3) 0.4097(2) 0.0463(2)
Si2 Si 0.04187(12) 0.81684(11) -0.00597(13)
loop_
_geom_bond_atom_site_label_1
_geom_bond_atom_site_label_2
_geom_bond_site_symmetry_1
_geom_bond_site_symmetry_2
B1 F1 1_555 1_555
C1 C2 1_555 1_555
C2 H1 1_555 1_555
C3 C2 1_555 1_555
C4 C3 1_555 1_555
C5 C4 1_555 1_555
C6 C5 1_555 1_555
C7 C6 1_555 1_555
C8 C7 1_555 1_555
C9 C8 1_555 1_555
C10 C1 1_555 1_555
H2 C10 1_555 1_555
H3 C10 1_555 1_555
H4 C10 1_555 1_555
C11 C3 1_555 1_555
H5 C11 1_555 1_555
H6 C11 1_555 1_555
H7 C11 1_555 1_555
C12 C5 1_555 1_555
H8 C12 1_555 1_555
H9 C12 1_555 1_555
C13 C12 1_555 1_555
H10 C13 1_555 1_555
H11 C13 1_555 1_555
C14 C13 1_555 1_555
H12 C14 1_555 1_555
H13 C14 1_555 1_555
C15 C14 1_555 1_555
H14 C15 1_555 1_555
H15 C15 1_555 1_555
C16 C15 1_555 1_555
H16 C16 1_555 1_555
H17 C16 1_555 1_555
C17 C16 1_555 1_555
H18 C17 1_555 1_555
H19 C17 1_555 1_555
C18 C17 1_555 1_555
H20 C18 1_555 1_555
H21 C18 1_555 1_555
H22 C18 1_555 1_555
C19 C7 1_555 1_555
H23 C19 1_555 1_555
H24 C19 1_555 1_555
H25 C19 1_555 1_555
C20 C8 1_555 1_555
C21 C20 1_555 1_555
C22 H26 1_555 1_555
H27 C22 1_555 1_555
H28 C22 1_555 1_555
C23 C9 1_555 1_555
H29 C23 1_555 1_555
H30 C23 1_555 1_555
H31 C23 1_555 1_555
C24 H32 1_555 1_555
H33 C24 1_555 1_555
H34 C24 1_555 1_555
C25 H35 1_555 1_555
H36 C25 1_555 1_555
H37 C25 1_555 1_555
F2 B1 1_555 1_555
N1 B1 1_555 1_555
N2 B1 1_555 1_555
Si1 C21 1_555 1_555
B2 F3 1_555 1_555
C26 C27 1_555 1_555
C27 H38 1_555 1_555
C28 C27 1_555 1_555
C29 C28 1_555 1_555
C30 C29 1_555 1_555
C31 C30 1_555 1_555
C32 C31 1_555 1_555
C33 C32 1_555 1_555
C34 C33 1_555 1_555
C35 C26 1_555 1_555
H39 C35 1_555 1_555
H40 C35 1_555 1_555
H41 C35 1_555 1_555
C36 C28 1_555 1_555
H42 C36 1_555 1_555
H43 C36 1_555 1_555
H44 C36 1_555 1_555
C37 C30 1_555 1_555
H45 C37 1_555 1_555
H46 C37 1_555 1_555
C38 C37 1_555 1_555
H47 C38 1_555 1_555
H48 C38 1_555 1_555
C39 C38 1_555 1_555
H49 C39 1_555 1_555
H50 C39 1_555 1_555
C40 C39 1_555 1_555
H51 C40 1_555 1_555
H52 C40 1_555 1_555
C41 C40 1_555 1_555
H53 C41 1_555 1_555
H54 C41 1_555 1_555
C42 C41 1_555 1_555
H55 C42 1_555 1_555
H56 C42 1_555 1_555
C43 C42 1_555 1_555
H57 C43 1_555 1_555
H58 C43 1_555 1_555
H59 C43 1_555 1_555
C44 C32 1_555 1_555
H60 C44 1_555 1_555
H61 C44 1_555 1_555
H62 C44 1_555 1_555
C45 C33 1_555 1_555
C46 C45 1_555 1_555
C47 H63 1_555 1_555
H64 C47 1_555 1_555
H65 C47 1_555 1_555
C48 H66 1_555 1_555
H67 C48 1_555 1_555
H68 C48 1_555 1_555
C49 H69 1_555 1_555
H70 C49 1_555 1_555
H71 C49 1_555 1_555
C50 C34 1_555 1_555
H72 C50 1_555 1_555
H73 C50 1_555 1_555
H74 C50 1_555 1_555
F4 B2 1_555 1_555
N3 B2 1_555 1_555
N4 B2 1_555 1_555
Si2 C46 1_555 1_555
C1 N1 1_555 1_555
C4 N1 1_555 1_555
C6 N2 1_555 1_555
C9 N2 1_555 1_555
C22 Si1 1_555 1_555
C24 Si1 1_555 1_555
C25 Si1 1_555 1_555
C26 N3 1_555 1_555
C29 N3 1_555 1_555
C31 N4 1_555 1_555
C34 N4 1_555 1_555
C47 Si2 1_555 1_555
C48 Si2 1_555 1_555
C49 Si2 1_555 1_555

#END
