
#######################################################################
#
#                 Cambridge Crystallographic Data Centre
#                                CCDC 
#
#######################################################################
#
# If this CIF has been generated from an entry in the Cambridge 
# Structural Database, then it will include bibliographic, chemical, 
# crystal, experimental, refinement or atomic coordinate data resulting 
# from the CCDC's data processing and validation procedures.
#
#######################################################################

data_MAWWUF
_chemical_formula_moiety         'C54 H72 B2 F4 N4 Si2'
_chemical_name_systematic        
1,4-bis({2-[1-(3,5-dimethyl-2H-pyrrol-2-ylidene-4-yl)octyl]-3,5-dimethyl-4-[(trimethylsilyl)ethynyl]-1H-pyrrolato})-tetrafluoro-di-boron
_symmetry_cell_setting           orthorhombic
_symmetry_space_group_name_H-M   'P b c n'
_symmetry_Int_Tables_number      60
_space_group_name_Hall           '-P 2n 2ab'
loop_
_symmetry_equiv_pos_site_id
_symmetry_equiv_pos_as_xyz
1 x,y,z
2 1/2-x,1/2-y,1/2+z
3 1/2+x,1/2-y,-z
4 -x,y,1/2-z
5 -x,-y,-z
6 1/2+x,1/2+y,1/2-z
7 1/2-x,1/2+y,z
8 x,-y,1/2+z
_cell_length_a                   23.7144(19)
_cell_length_b                   16.4758(13)
_cell_length_c                   29.359(2)
_cell_angle_alpha                90
_cell_angle_beta                 90
_cell_angle_gamma                90
_cell_volume                     11471
_exptl_crystal_colour            red
_exptl_crystal_description       block
_cell_formula_units_Z            8
_exptl_crystal_preparation       ', Luminescent'
loop_
_atom_site_label
_atom_site_type_symbol
_atom_site_fract_x
_atom_site_fract_y
_atom_site_fract_z
B1 B 0.3248(3) 0.0956(4) 0.0668(2)
C1 C 0.3919(2) 0.0769(4) 0.1339(2)
C2 C 0.3892(2) 0.0778(4) 0.1818(2)
C3 C 0.3342(3) 0.0865(3) 0.1950(2)
C4 C 0.3022(2) 0.0921(3) 0.1541(2)
C5 C 0.2445(2) 0.1038(3) 0.14570(19)
C6 C 0.2235(2) 0.1087(3) 0.1013(2)
C7 C 0.1687(2) 0.1185(4) 0.0840(2)
C8 C 0.1745(2) 0.1231(4) 0.0368(2)
C9 C 0.2315(2) 0.1172(4) 0.0260(2)
C10 C 0.4422(2) 0.0699(4) 0.1047(2)
H1 H 0.4409 0.0196 0.0883
H2 H 0.4755 0.0713 0.1233
H3 H 0.4430 0.1143 0.0836
C11 C 0.4378(3) 0.0714(4) 0.2109(2)
C12 C 0.3164(3) 0.0892(4) 0.2439(2)
H4 H 0.3472 0.0726 0.2629
H5 H 0.2850 0.0533 0.2484
H6 H 0.3054 0.1436 0.2517
C13 C 0.1127(2) 0.1226(4) 0.1076(2)
H7 H 0.0830 0.1191 0.0854
H8 H 0.1097 0.1730 0.1238
H9 H 0.1095 0.0782 0.1287
C14 C 0.2576(3) 0.1190(4) -0.0205(2)
H10 H 0.2818 0.1655 -0.0230
H11 H 0.2285 0.1221 -0.0431
H12 H 0.2793 0.0705 -0.0251
C15 C 0.1299(3) 0.1339(4) 0.0050(2)
C16 C 0.0915(3) 0.1439(5) -0.0206(3)
C17 C -0.0087(5) 0.2451(6) -0.0312(4)
H13 H -0.0433 0.2535 -0.0475
H14 H 0.0141 0.2932 -0.0330
H15 H -0.0169 0.2333 0.0002
C18 C 0.0505(6) 0.1789(8) -0.1134(3)
H16 H 0.0200 0.2036 -0.1298
H17 H 0.0604 0.1284 -0.1277
H18 H 0.0825 0.2145 -0.1136
C19 C -0.0188(5) 0.0710(7) -0.0537(5)
H19 H -0.0399 0.0724 -0.0258
H20 H 0.0030 0.0220 -0.0550
H21 H -0.0443 0.0727 -0.0791
C20 C 0.2028(2) 0.1100(3) 0.1857(2)
C21 C 0.0708(3) 0.1281(5) 0.3150(3)
C22 C 0.0309(4) 0.1278(7) 0.3563(3)
H22 H 0.0122 0.0763 0.3582
H23 H 0.0034 0.1701 0.3528
H24 H 0.0522 0.1369 0.3836
C23 C 0.1766(4) 0.0260(6) 0.1955(3)
C24 C 0.1277(4) 0.0328(7) 0.2291(3)
C25 C 0.1487(4) 0.0554(8) 0.2760(3)
C26 C 0.1010(4) 0.0489(7) 0.3113(3)
F1 F 0.34099(13) 0.02796(19) 0.04267(11)
F2 F 0.35182(12) 0.16369(19) 0.04895(11)
N1 N 0.34015(17) 0.0862(3) 0.11724(15)
N2 N 0.26079(17) 0.1075(3) 0.06398(14)
Si1 Si 0.02930(11) 0.1604(2) -0.05617(10)
C27 C 0.4771(3) 0.0704(4) 0.2360(2)
B1C B 0.6752(3) 0.0956(4) 0.4332(2)
C1C C 0.6081(2) 0.0769(4) 0.3661(2)
C2C C 0.6108(2) 0.0778(4) 0.3182(2)
C3C C 0.6658(3) 0.0865(3) 0.3050(2)
C4C C 0.6978(2) 0.0921(3) 0.3459(2)
C5C C 0.7555(2) 0.1038(3) 0.35430(19)
C6C C 0.7765(2) 0.1087(3) 0.3987(2)
C7C C 0.8313(2) 0.1185(4) 0.4160(2)
C8C C 0.8255(2) 0.1231(4) 0.4632(2)
C9C C 0.7685(2) 0.1172(4) 0.4740(2)
C10C C 0.5578(2) 0.0699(4) 0.3953(2)
H1C H 0.5591 0.0196 0.4117
H2C H 0.5245 0.0713 0.3767
H3C H 0.5570 0.1143 0.4164
C11C C 0.5622(3) 0.0714(4) 0.2891(2)
C12C C 0.6836(3) 0.0892(4) 0.2561(2)
H4C H 0.6528 0.0726 0.2371
H5C H 0.7150 0.0533 0.2516
H6C H 0.6946 0.1436 0.2483
C13C C 0.8873(2) 0.1226(4) 0.3924(2)
H7C H 0.9170 0.1191 0.4146
H8C H 0.8903 0.1730 0.3762
H9C H 0.8905 0.0782 0.3713
C14C C 0.7424(3) 0.1190(4) 0.5205(2)
H10C H 0.7182 0.1655 0.5230
H11C H 0.7715 0.1221 0.5431
H12C H 0.7207 0.0705 0.5251
C15C C 0.8701(3) 0.1339(4) 0.4950(2)
C16C C 0.9085(3) 0.1439(5) 0.5206(3)
C17C C 1.0087(5) 0.2451(6) 0.5312(4)
H13C H 1.0433 0.2535 0.5475
H14C H 0.9859 0.2932 0.5330
H15C H 1.0169 0.2333 0.4998
C18C C 0.9495(6) 0.1789(8) 0.6134(3)
H16C H 0.9800 0.2036 0.6298
H17C H 0.9396 0.1284 0.6277
H18C H 0.9175 0.2145 0.6136
C19C C 1.0188(5) 0.0710(7) 0.5537(5)
H19C H 1.0399 0.0724 0.5258
H20C H 0.9970 0.0220 0.5550
H21C H 1.0443 0.0727 0.5791
C20C C 0.7972(2) 0.1100(3) 0.3143(2)
C21C C 0.9292(3) 0.1281(5) 0.1850(3)
C22C C 0.9691(4) 0.1278(7) 0.1437(3)
H22C H 0.9878 0.0763 0.1418
H23C H 0.9966 0.1701 0.1472
H24C H 0.9478 0.1369 0.1164
C23C C 0.8234(4) 0.0260(6) 0.3045(3)
C24C C 0.8723(4) 0.0328(7) 0.2709(3)
C25C C 0.8513(4) 0.0554(8) 0.2240(3)
C26C C 0.8990(4) 0.0489(7) 0.1887(3)
F1C F 0.65901(13) 0.02796(19) 0.45733(11)
F2C F 0.64818(12) 0.16369(19) 0.45105(11)
N1C N 0.65985(17) 0.0862(3) 0.38276(15)
N2C N 0.73921(17) 0.1075(3) 0.43602(14)
Si1C Si 0.97070(11) 0.1604(2) 0.55617(10)
C27C C 0.5229(3) 0.0704(4) 0.2640(2)
B2 B 0.2112(3) 0.3266(4) 0.2435(2)
C35 C 0.3184(2) 0.3123(3) 0.2503(2)
C36 C 0.3650(2) 0.3050(3) 0.2212(2)
C37 C 0.3462(2) 0.3059(3) 0.1767(2)
C38 C 0.2868(2) 0.3126(3) 0.17877(19)
C39 C 0.2460(2) 0.3182(3) 0.14450(18)
C40 C 0.1884(2) 0.3293(3) 0.15590(19)
C41 C 0.1395(2) 0.3389(3) 0.12854(19)
C42 C 0.0954(2) 0.3484(3) 0.1589(2)
C43 C 0.1161(2) 0.3452(3) 0.2035(2)
C44 C 0.3184(3) 0.3141(4) 0.3009(2)
H34 H 0.3458 0.3526 0.3113
H35 H 0.3276 0.2612 0.3124
H36 H 0.2817 0.3296 0.3116
C45 C 0.4230(2) 0.3017(4) 0.2356(2)
C46 C 0.4716(2) 0.3007(4) 0.2446(2)
C47 C 0.3859(2) 0.3008(4) 0.1373(2)
H37 H 0.3857 0.3514 0.1210
H38 H 0.3744 0.2578 0.1173
H39 H 0.4233 0.2901 0.1483
C48 C 0.1322(2) 0.3403(4) 0.0782(2)
H40 H 0.1398 0.2873 0.0661
H41 H 0.1578 0.3788 0.0651
H42 H 0.0941 0.3556 0.0710
C49 C 0.0835(2) 0.3513(4) 0.2468(2)
H43 H 0.1003 0.3167 0.2694
H44 H 0.0453 0.3347 0.2416
H45 H 0.0841 0.4064 0.2574
C50 C 0.0371(2) 0.3615(4) 0.1467(2)
C51 C -0.0098(2) 0.3758(4) 0.1337(2)
C52 C -0.1048(4) 0.4939(6) 0.1441(3)
H46 H -0.1259 0.4742 0.1697
H47 H -0.1287 0.5268 0.1253
H48 H -0.0736 0.5259 0.1547
C53 C -0.1285(4) 0.3268(6) 0.1156(4)
H49 H -0.1204 0.2850 0.0937
H50 H -0.1655 0.3481 0.1102
H51 H -0.1267 0.3044 0.1458
C54 C -0.0660(4) 0.4403(7) 0.0513(3)
H52 H -0.0428 0.4881 0.0514
H53 H -0.1015 0.4524 0.0373
H54 H -0.0474 0.3981 0.0345
C55 C 0.2630(2) 0.3134(3) 0.09577(19)
H55 H 0.2318 0.2921 0.0781
H56 H 0.2943 0.2758 0.0929
C56 C 0.2804(2) 0.3954(3) 0.0763(2)
H57 H 0.2478 0.4309 0.0762
H58 H 0.3085 0.4194 0.0961
C57 C 0.3041(3) 0.3910(5) 0.0286(2)
H59 H 0.3215 0.4427 0.0213
H60 H 0.3333 0.3499 0.0278
C58 C 0.2617(3) 0.3720(5) -0.0067(2)
H61 H 0.2302 0.4091 -0.0035
H62 H 0.2476 0.3175 -0.0016
C59 C 0.2838(4) 0.3774(6) -0.0546(3)
H63 H 0.3121 0.3356 -0.0595
H64 H 0.3015 0.4298 -0.0594
C60 C 0.2333(4) 0.3658(7) -0.0899(3)
H65 H 0.2187 0.3109 -0.0888
H66 H 0.2029 0.4036 -0.0836
C61 C 0.2601(6) 0.3833(8) -0.1360(4)
H67 H 0.2729 0.4385 -0.1369
H68 H 0.2327 0.3748 -0.1597
H69 H 0.2915 0.3475 -0.1407
F3 F 0.20725(13) 0.3948(2) 0.26975(11)
F4 F 0.19672(12) 0.2587(2) 0.26874(10)
N3 N 0.27171(16) 0.3169(3) 0.22476(14)
N4 N 0.17213(16) 0.3341(2) 0.20121(14)
Si2 Si -0.07778(7) 0.40629(17) 0.11032(8)
B2C B 0.7888(3) 0.3266(4) 0.2565(2)
C35C C 0.6816(2) 0.3123(3) 0.2497(2)
C36C C 0.6350(2) 0.3050(3) 0.2788(2)
C37C C 0.6538(2) 0.3059(3) 0.3233(2)
C38C C 0.7132(2) 0.3126(3) 0.32123(19)
C39C C 0.7540(2) 0.3182(3) 0.35550(18)
C40C C 0.8116(2) 0.3293(3) 0.34410(19)
C41C C 0.8605(2) 0.3389(3) 0.37146(19)
C42C C 0.9046(2) 0.3484(3) 0.3411(2)
C43C C 0.8839(2) 0.3452(3) 0.2965(2)
C44C C 0.6816(3) 0.3141(4) 0.1991(2)
H34C H 0.6542 0.3526 0.1887
H35C H 0.6724 0.2612 0.1876
H36C H 0.7183 0.3296 0.1884
C45C C 0.5770(2) 0.3017(4) 0.2644(2)
C46C C 0.5284(2) 0.3007(4) 0.2554(2)
C47C C 0.6141(2) 0.3008(4) 0.3627(2)
H37C H 0.6143 0.3514 0.3790
H38C H 0.6256 0.2578 0.3827
H39C H 0.5767 0.2901 0.3517
C48C C 0.8678(2) 0.3403(4) 0.4218(2)
H40C H 0.8602 0.2873 0.4339
H41C H 0.8422 0.3788 0.4349
H42C H 0.9059 0.3556 0.4290
C49C C 0.9165(2) 0.3513(4) 0.2532(2)
H43C H 0.8997 0.3167 0.2306
H44C H 0.9547 0.3347 0.2584
H45C H 0.9159 0.4064 0.2426
C50C C 0.9629(2) 0.3615(4) 0.3533(2)
C51C C 1.0098(2) 0.3758(4) 0.3663(2)
C52C C 1.1048(4) 0.4939(6) 0.3559(3)
H46C H 1.1259 0.4742 0.3303
H47C H 1.1287 0.5268 0.3747
H48C H 1.0736 0.5259 0.3453
C53C C 1.1285(4) 0.3268(6) 0.3844(4)
H49C H 1.1204 0.2850 0.4063
H50C H 1.1655 0.3481 0.3898
H51C H 1.1267 0.3044 0.3542
C54C C 1.0660(4) 0.4403(7) 0.4487(3)
H52C H 1.0428 0.4881 0.4486
H53C H 1.1015 0.4524 0.4627
H54C H 1.0474 0.3981 0.4655
C55C C 0.7370(2) 0.3134(3) 0.40423(19)
H55C H 0.7682 0.2921 0.4219
H56C H 0.7057 0.2758 0.4071
C56C C 0.7196(2) 0.3954(3) 0.4237(2)
H57C H 0.7522 0.4309 0.4238
H58C H 0.6915 0.4194 0.4039
C57C C 0.6959(3) 0.3910(5) 0.4714(2)
H59C H 0.6785 0.4427 0.4787
H60C H 0.6667 0.3499 0.4722
C58C C 0.7383(3) 0.3720(5) 0.5067(2)
H61C H 0.7698 0.4091 0.5035
H62C H 0.7524 0.3175 0.5016
C59C C 0.7162(4) 0.3774(6) 0.5546(3)
H63C H 0.6879 0.3356 0.5595
H64C H 0.6985 0.4298 0.5594
C60C C 0.7667(4) 0.3658(7) 0.5899(3)
H65C H 0.7813 0.3109 0.5888
H66C H 0.7971 0.4036 0.5836
C61C C 0.7399(6) 0.3833(8) 0.6360(4)
H67C H 0.7271 0.4385 0.6369
H68C H 0.7673 0.3748 0.6597
H69C H 0.7085 0.3475 0.6407
F3C F 0.79275(13) 0.3948(2) 0.23025(11)
F4C F 0.80328(12) 0.2587(2) 0.23126(10)
N3C N 0.72829(16) 0.3169(3) 0.27524(14)
N4C N 0.82787(16) 0.3341(2) 0.29879(14)
Si2C Si 1.07778(7) 0.40629(17) 0.38968(8)
C28? C -0.0293(5) 0.1904(9) -0.0218(5)
H25? H -0.0596 0.2078 -0.0411
H26? H -0.0182 0.2342 -0.0022
H27? H -0.0414 0.1452 -0.0037
C29? C 0.0513(6) 0.2426(7) -0.0943(5)
H28? H 0.0215 0.2543 -0.1154
H29? H 0.0844 0.2263 -0.1107
H30? H 0.0595 0.2902 -0.0766
C30? C 0.0142(7) 0.0712(6) -0.0904(5)
H31? H 0.0178 0.0234 -0.0719
H32? H 0.0404 0.0683 -0.1153
H33? H -0.0235 0.0746 -0.1021
C31? C 0.1900(4) 0.0236(7) 0.2037(4)
C32? C 0.1553(4) 0.0276(8) 0.2474(4)
C33? C 0.0982(4) 0.0679(9) 0.2401(3)
C34? C 0.0618(5) 0.0553(8) 0.2845(3)
loop_
_geom_bond_atom_site_label_1
_geom_bond_atom_site_label_2
_geom_bond_site_symmetry_1
_geom_bond_site_symmetry_2
B1 F1 1_555 1_555
C1 C2 1_555 1_555
C2 C3 1_555 1_555
C3 C4 1_555 1_555
C4 C5 1_555 1_555
C5 C6 1_555 1_555
C6 C7 1_555 1_555
C7 C8 1_555 1_555
C8 C9 1_555 1_555
C9 C14 1_555 1_555
C10 C1 1_555 1_555
H1 C10 1_555 1_555
H2 C10 1_555 1_555
H3 C10 1_555 1_555
C11 C2 1_555 1_555
C12 C3 1_555 1_555
H4 C12 1_555 1_555
H5 C12 1_555 1_555
H6 C12 1_555 1_555
C13 C7 1_555 1_555
H7 C13 1_555 1_555
H8 C13 1_555 1_555
H9 C13 1_555 1_555
C14 H10 1_555 1_555
H11 C14 1_555 1_555
H12 C14 1_555 1_555
C15 C8 1_555 1_555
C16 C15 1_555 1_555
C17 H13 1_555 1_555
H14 C17 1_555 1_555
H15 C17 1_555 1_555
C18 H16 1_555 1_555
H17 C18 1_555 1_555
H18 C18 1_555 1_555
C19 H19 1_555 1_555
H20 C19 1_555 1_555
H21 C19 1_555 1_555
C20 C5 1_555 1_555
C21 C22 1_555 1_555
C22 H22 1_555 1_555
H23 C22 1_555 1_555
H24 C22 1_555 1_555
C23 C20 1_555 1_555
C24 C23 1_555 1_555
C25 C24 1_555 1_555
C26 C21 1_555 1_555
F2 B1 1_555 1_555
N1 B1 1_555 1_555
N2 B1 1_555 1_555
Si1 C16 1_555 1_555
C27 C11 1_555 1_555
B2 F3 1_555 1_555
C35 C36 1_555 1_555
C36 C37 1_555 1_555
C37 C38 1_555 1_555
C38 C39 1_555 1_555
C39 C40 1_555 1_555
C40 C41 1_555 1_555
C41 C42 1_555 1_555
C42 C43 1_555 1_555
C43 C49 1_555 1_555
C44 C35 1_555 1_555
H34 C44 1_555 1_555
H35 C44 1_555 1_555
H36 C44 1_555 1_555
C45 C36 1_555 1_555
C46 C45 1_555 1_555
C47 C37 1_555 1_555
H37 C47 1_555 1_555
H38 C47 1_555 1_555
H39 C47 1_555 1_555
C48 C41 1_555 1_555
H40 C48 1_555 1_555
H41 C48 1_555 1_555
H42 C48 1_555 1_555
C49 H43 1_555 1_555
H44 C49 1_555 1_555
H45 C49 1_555 1_555
C50 C42 1_555 1_555
C51 C50 1_555 1_555
C52 H46 1_555 1_555
H47 C52 1_555 1_555
H48 C52 1_555 1_555
C53 H49 1_555 1_555
H50 C53 1_555 1_555
H51 C53 1_555 1_555
C54 H52 1_555 1_555
H53 C54 1_555 1_555
H54 C54 1_555 1_555
C55 C39 1_555 1_555
H55 C55 1_555 1_555
H56 C55 1_555 1_555
C56 C55 1_555 1_555
H57 C56 1_555 1_555
H58 C56 1_555 1_555
C57 C56 1_555 1_555
H59 C57 1_555 1_555
H60 C57 1_555 1_555
C58 C57 1_555 1_555
H61 C58 1_555 1_555
H62 C58 1_555 1_555
C59 C58 1_555 1_555
H63 C59 1_555 1_555
H64 C59 1_555 1_555
C60 C59 1_555 1_555
H65 C60 1_555 1_555
H66 C60 1_555 1_555
C61 C60 1_555 1_555
H67 C61 1_555 1_555
H68 C61 1_555 1_555
H69 C61 1_555 1_555
F4 B2 1_555 1_555
N3 B2 1_555 1_555
N4 B2 1_555 1_555
Si2 C51 1_555 1_555
B1C F1C 1_555 1_555
C1C C2C 1_555 1_555
C2C C3C 1_555 1_555
C3C C4C 1_555 1_555
C4C C5C 1_555 1_555
C5C C6C 1_555 1_555
C6C C7C 1_555 1_555
C7C C8C 1_555 1_555
C8C C9C 1_555 1_555
C9C C14C 1_555 1_555
C10C C1C 1_555 1_555
H1C C10C 1_555 1_555
H2C C10C 1_555 1_555
H3C C10C 1_555 1_555
C11C C2C 1_555 1_555
C12C C3C 1_555 1_555
H4C C12C 1_555 1_555
H5C C12C 1_555 1_555
H6C C12C 1_555 1_555
C13C C7C 1_555 1_555
H7C C13C 1_555 1_555
H8C C13C 1_555 1_555
H9C C13C 1_555 1_555
C14C H10C 1_555 1_555
H11C C14C 1_555 1_555
H12C C14C 1_555 1_555
C15C C8C 1_555 1_555
C16C C15C 1_555 1_555
C17C H13C 1_555 1_555
H14C C17C 1_555 1_555
H15C C17C 1_555 1_555
C18C H16C 1_555 1_555
H17C C18C 1_555 1_555
H18C C18C 1_555 1_555
C19C H19C 1_555 1_555
H20C C19C 1_555 1_555
H21C C19C 1_555 1_555
C20C C5C 1_555 1_555
C21C C22C 1_555 1_555
C22C H22C 1_555 1_555
H23C C22C 1_555 1_555
H24C C22C 1_555 1_555
C23C C20C 1_555 1_555
C24C C23C 1_555 1_555
C25C C24C 1_555 1_555
C26C C21C 1_555 1_555
F2C B1C 1_555 1_555
N1C B1C 1_555 1_555
N2C B1C 1_555 1_555
Si1C C16C 1_555 1_555
C27C C27 1_555 1_555
B2C F3C 1_555 1_555
C35C C36C 1_555 1_555
C36C C37C 1_555 1_555
C37C C38C 1_555 1_555
C38C C39C 1_555 1_555
C39C C40C 1_555 1_555
C40C C41C 1_555 1_555
C41C C42C 1_555 1_555
C42C C43C 1_555 1_555
C43C C49C 1_555 1_555
C44C C35C 1_555 1_555
H34C C44C 1_555 1_555
H35C C44C 1_555 1_555
H36C C44C 1_555 1_555
C45C C36C 1_555 1_555
C46C C46 1_555 1_555
C47C C37C 1_555 1_555
H37C C47C 1_555 1_555
H38C C47C 1_555 1_555
H39C C47C 1_555 1_555
C48C C41C 1_555 1_555
H40C C48C 1_555 1_555
H41C C48C 1_555 1_555
H42C C48C 1_555 1_555
C49C H43C 1_555 1_555
H44C C49C 1_555 1_555
H45C C49C 1_555 1_555
C50C C42C 1_555 1_555
C51C C50C 1_555 1_555
C52C H46C 1_555 1_555
H47C C52C 1_555 1_555
H48C C52C 1_555 1_555
C53C H49C 1_555 1_555
H50C C53C 1_555 1_555
H51C C53C 1_555 1_555
C54C H52C 1_555 1_555
H53C C54C 1_555 1_555
H54C C54C 1_555 1_555
C55C C39C 1_555 1_555
H55C C55C 1_555 1_555
H56C C55C 1_555 1_555
C56C C55C 1_555 1_555
H57C C56C 1_555 1_555
H58C C56C 1_555 1_555
C57C C56C 1_555 1_555
H59C C57C 1_555 1_555
H60C C57C 1_555 1_555
C58C C57C 1_555 1_555
H61C C58C 1_555 1_555
H62C C58C 1_555 1_555
C59C C58C 1_555 1_555
H63C C59C 1_555 1_555
H64C C59C 1_555 1_555
C60C C59C 1_555 1_555
H65C C60C 1_555 1_555
H66C C60C 1_555 1_555
C61C C60C 1_555 1_555
H67C C61C 1_555 1_555
H68C C61C 1_555 1_555
H69C C61C 1_555 1_555
F4C B2C 1_555 1_555
N3C B2C 1_555 1_555
N4C B2C 1_555 1_555
Si2C C51C 1_555 1_555
C1 N1 1_555 1_555
C4 N1 1_555 1_555
C6 N2 1_555 1_555
C9 N2 1_555 1_555
C17 Si1 1_555 1_555
C18 Si1 1_555 1_555
C19 Si1 1_555 1_555
C25 C26 1_555 1_555
C35 N3 1_555 1_555
C38 N3 1_555 1_555
C40 N4 1_555 1_555
C43 N4 1_555 1_555
C52 Si2 1_555 1_555
C53 Si2 1_555 1_555
C54 Si2 1_555 1_555
C1C N1C 1_555 1_555
C4C N1C 1_555 1_555
C6C N2C 1_555 1_555
C9C N2C 1_555 1_555
C11C C27C 1_555 1_555
C17C Si1C 1_555 1_555
C18C Si1C 1_555 1_555
C19C Si1C 1_555 1_555
C25C C26C 1_555 1_555
C35C N3C 1_555 1_555
C38C N3C 1_555 1_555
C40C N4C 1_555 1_555
C43C N4C 1_555 1_555
C45C C46C 1_555 1_555
C52C Si2C 1_555 1_555
C53C Si2C 1_555 1_555
C54C Si2C 1_555 1_555

#END
