
#######################################################################
#
#                 Cambridge Crystallographic Data Centre
#                                CCDC 
#
#######################################################################
#
# If this CIF has been generated from an entry in the Cambridge 
# Structural Database, then it will include bibliographic, chemical, 
# crystal, experimental, refinement or atomic coordinate data resulting 
# from the CCDC's data processing and validation procedures.
#
#######################################################################

data_MAXDIZ
_chemical_formula_moiety         'C19 H12 N4 O4,C3 H7 N1 O1,H2 O1'
_chemical_name_systematic        
'2-Amino-3-cyano-4-(3-nitrophenyl)-5-oxo-5,6-dihydro-4H-pyrano(3,2-c)quinoline N,N-dimethylformamide solvate monohydrate'
_symmetry_cell_setting           triclinic
_symmetry_space_group_name_H-M   'P -1'
_symmetry_Int_Tables_number      2
_space_group_name_Hall           '-P 1'
loop_
_symmetry_equiv_pos_site_id
_symmetry_equiv_pos_as_xyz
1 x,y,z
2 -x,-y,-z
_cell_length_a                   9.109(2)
_cell_length_b                   11.340(2)
_cell_length_c                   12.485(2)
_cell_angle_alpha                70.02(1)
_cell_angle_beta                 69.36(1)
_cell_angle_gamma                67.32(1)
_cell_volume                     1081.46
_exptl_crystal_colour            'pale yellow'
_exptl_crystal_description       Block
_chemical_melting_point          'above 573 K'
_cell_formula_units_Z            2
loop_
_atom_site_label
_atom_site_type_symbol
_atom_site_fract_x
_atom_site_fract_y
_atom_site_fract_z
O1 O 0.93719(17) 0.38369(12) 0.69515(12)
O2 O 0.58630(19) 0.77823(13) 0.51184(12)
O3 O 0.2906(2) 1.07863(18) 0.7876(2)
O4 O 0.0675(3) 1.0329(2) 0.8593(2)
N1 N 0.6649(2) 0.58988(15) 0.45335(14)
H1 H 0.6087 0.6312 0.4016
N2 N 1.0516(2) 0.35577(16) 0.83492(15)
H2 H 1.0677 0.3780 0.8882
H3 H 1.1050 0.2790 0.8214
N3 N 0.8791(3) 0.64901(18) 0.93757(17)
N4 N 0.2144(3) 1.0006(2) 0.82463(19)
C1 C 0.7515(2) 0.45847(19) 0.45753(17)
C2 C 0.7442(3) 0.3969(2) 0.38088(19)
H4 H 0.6793 0.4431 0.3277
C3 C 0.8339(3) 0.2676(2) 0.3850(2)
H5 H 0.8288 0.2259 0.3344
C4 C 0.9323(3) 0.1976(2) 0.46345(19)
H6 H 0.9937 0.1102 0.4640
C5 C 0.9396(3) 0.25657(19) 0.53999(18)
H7 H 1.0053 0.2092 0.5926
C6 C 0.8473(2) 0.38919(18) 0.53878(16)
C7 C 0.8409(2) 0.45859(18) 0.61733(16)
C8 C 0.7509(2) 0.58490(17) 0.61545(16)
C9 C 0.6619(2) 0.65824(19) 0.52460(17)
C10 C 0.7343(2) 0.65404(17) 0.70500(16)
H8 H 0.7677 0.7337 0.6629
C11 C 0.8496(2) 0.56469(18) 0.78249(17)
C12 C 0.9440(2) 0.44041(18) 0.77324(16)
C13 C 0.5548(2) 0.69476(18) 0.77543(16)
C14 C 0.4684(3) 0.82614(19) 0.77110(17)
H9 H 0.5203 0.8907 0.7289
C15 C 0.3039(3) 0.8603(2) 0.83030(18)
C16 C 0.2224(3) 0.7692(2) 0.89378(19)
H10 H 0.1114 0.7949 0.9326
C17 C 0.3088(3) 0.6381(2) 0.8989(2)
H11 H 0.2562 0.5741 0.9417
C18 C 0.4731(3) 0.6018(2) 0.84067(19)
H12 H 0.5303 0.5131 0.8453
C19 C 0.8659(3) 0.61270(19) 0.86712(18)
O5 O 0.2939(3) 1.0049(2) 0.5175(3)
H20 H 0.366(3) 0.9333(13) 0.522(3)
H21 H 0.332(3) 1.061(2) 0.516(3)
O6 O 0.5085(2) 0.69929(18) 0.27367(16)
N5 N 0.3391(3) 0.8899(2) 0.19731(19)
C20 C 0.4180(3) 0.8102(3) 0.2767(2)
H13 H 0.4037 0.8410 0.3410
C21 C 0.3532(5) 0.8479(3) 0.0969(3)
H14 H 0.4578 0.7829 0.0792
H15 H 0.3446 0.9221 0.0303
H16 H 0.2666 0.8108 0.1140
C22 C 0.2282(4) 1.0203(3) 0.2114(4)
H17 H 0.1172 1.0236 0.2220
H18 H 0.2584 1.0857 0.1424
H19 H 0.2363 1.0373 0.2791
loop_
_geom_bond_atom_site_label_1
_geom_bond_atom_site_label_2
_geom_bond_site_symmetry_1
_geom_bond_site_symmetry_2
O1 C7 1_555 1_555
O2 C9 1_555 1_555
O3 N4 1_555 1_555
O4 N4 1_555 1_555
N1 H1 1_555 1_555
N2 H2 1_555 1_555
H3 N2 1_555 1_555
N3 C19 1_555 1_555
N4 C15 1_555 1_555
C1 N1 1_555 1_555
C2 C1 1_555 1_555
H4 C2 1_555 1_555
C3 C2 1_555 1_555
H5 C3 1_555 1_555
C4 C3 1_555 1_555
H6 C4 1_555 1_555
C5 C4 1_555 1_555
H7 C5 1_555 1_555
C6 C1 1_555 1_555
C7 C6 1_555 1_555
C8 C7 1_555 1_555
C9 N1 1_555 1_555
C10 C8 1_555 1_555
H8 C10 1_555 1_555
C11 C10 1_555 1_555
C12 O1 1_555 1_555
C13 C10 1_555 1_555
C14 C13 1_555 1_555
H9 C14 1_555 1_555
C15 C14 1_555 1_555
C16 C15 1_555 1_555
H10 C16 1_555 1_555
C17 C16 1_555 1_555
H11 C17 1_555 1_555
C18 C13 1_555 1_555
H12 C18 1_555 1_555
C19 C11 1_555 1_555
O5 H20 1_555 1_555
O6 C20 1_555 1_555
N5 C20 1_555 1_555
C20 H13 1_555 1_555
C21 N5 1_555 1_555
H14 C21 1_555 1_555
H15 C21 1_555 1_555
H16 C21 1_555 1_555
C22 N5 1_555 1_555
H17 C22 1_555 1_555
H18 C22 1_555 1_555
H19 C22 1_555 1_555
H21 O5 1_555 1_555
N2 C12 1_555 1_555
C5 C6 1_555 1_555
C8 C9 1_555 1_555
C11 C12 1_555 1_555
C17 C18 1_555 1_555

#END
