
#######################################################################
#
#                 Cambridge Crystallographic Data Centre
#                                CCDC 
#
#######################################################################
#
# If this CIF has been generated from an entry in the Cambridge 
# Structural Database, then it will include bibliographic, chemical, 
# crystal, experimental, refinement or atomic coordinate data resulting 
# from the CCDC's data processing and validation procedures.
#
#######################################################################

data_MAXGUO
_chemical_formula_moiety         'C40 H54 N2 O4 S4'
_chemical_name_systematic        
5-Dicyanomethylene-5'-(1,3-dithiol-2-ylidene)-3,4:3',4'-bis(2,2-bis(butoxymethyl)propylene)-2,2'-bithiophene
_symmetry_cell_setting           triclinic
_symmetry_space_group_name_H-M   'P -1'
_symmetry_Int_Tables_number      2
_space_group_name_Hall           '-P 1'
loop_
_symmetry_equiv_pos_site_id
_symmetry_equiv_pos_as_xyz
1 x,y,z
2 -x,-y,-z
_cell_length_a                   12.77(1)
_cell_length_b                   17.90(2)
_cell_length_c                   9.388(5)
_cell_angle_alpha                97.01(6)
_cell_angle_beta                 98.04(5)
_cell_angle_gamma                98.57(7)
_cell_volume                     2078.63
_exptl_crystal_colour            golden
_exptl_crystal_description       needle
_chemical_melting_point          241deg.C(dec.)
_cell_formula_units_Z            2
_exptl_crystal_recrystallization_method chloroform
loop_
_atom_site_label
_atom_site_type_symbol
_atom_site_fract_x
_atom_site_fract_y
_atom_site_fract_z
S1 S 0.5928(1) 0.4045(1) 0.5967(2)
S2 S 1.0690(1) 0.4681(1) 0.1626(2)
S3 S 1.0378(2) 0.6201(1) 0.2757(2)
S4 S 0.8460(1) 0.5514(1) 0.4356(2)
O1 O 0.5799(5) 0.7850(3) 0.8334(7)
O2 O 0.8248(4) 0.7352(3) 0.9083(6)
O3 O 0.7180(4) 0.2500(3) -0.0111(6)
O4 O 0.8807(6) 0.2107(4) 0.3836(8)
N1 N 0.3768(7) 0.2881(5) 0.7212(9)
N2 N 0.3431(5) 0.5126(4) 0.9266(8)
C1 C 0.5276(5) 0.4629(4) 0.7027(6)
C2 C 0.5762(5) 0.5397(4) 0.7137(7)
C3 C 0.6602(5) 0.5506(4) 0.6370(6)
C4 C 0.6828(5) 0.4833(4) 0.5628(7)
C5 C 0.4410(5) 0.4306(5) 0.7644(7)
C6 C 0.4029(6) 0.3522(6) 0.7407(8)
C7 C 0.3871(6) 0.4772(5) 0.8542(8)
C8 C 0.9947(5) 0.5228(4) 0.2590(7)
C9 C 1.1386(7) 0.6146(6) 0.175(1)
C10 C 1.1529(6) 0.5472(6) 0.1238(8)
C11 C 0.7591(5) 0.4728(4) 0.4707(7)
C12 C 0.7808(5) 0.4046(4) 0.3956(7)
C13 C 0.8599(5) 0.4154(4) 0.3142(7)
C14 C 0.9106(5) 0.4927(4) 0.3233(6)
C15 C 0.5554(5) 0.6150(4) 0.7852(7)
C16 C 0.6543(5) 0.6718(4) 0.7695(7)
C17 C 0.7077(6) 0.6329(4) 0.6492(7)
C18 C 0.7352(6) 0.3220(4) 0.3841(7)
C19 C 0.7765(5) 0.2855(4) 0.2493(8)
C20 C 0.8789(5) 0.3420(4) 0.2369(7)
C21 C 0.6273(7) 0.7468(4) 0.7243(8)
C22 C 0.7289(6) 0.6871(4) 0.9141(7)
C23 C 0.6898(6) 0.2829(4) 0.1198(8)
C24 C 0.7988(7) 0.2064(5) 0.264(1)
C25 C 0.575(1) 0.8612(8) 0.812(2)
C26 C 0.602(3) 0.912(1) 0.925(3)
C27 C 0.647(2) 0.918(1) 1.057(3)
C28 C 0.677(2) 0.976(1) 1.160(3)
C29 C 0.8962(9) 0.7492(7) 1.044(1)
C30 C 0.9896(9) 0.808(1) 1.038(2)
C31 C 0.997(2) 0.875(1) 1.070(3)
C32 C 1.088(2) 0.9313(9) 1.095(2)
C33 C 0.6338(8) 0.2428(6) -0.129(1)
C34 C 0.661(1) 0.1930(9) -0.258(1)
C35 C 0.605(2) 0.145(1) -0.329(4)
C36 C 0.627(2) 0.091(1) -0.438(2)
C37 C 0.925(2) 0.1461(9) 0.394(2)
C38 C 1.098(3) 0.134(3) 0.478(4)
C39 C 1.032(2) 0.165(2) 0.488(3)
C40 C 1.162(2) 0.106(2) 0.458(3)
H1 H 1.1813 0.6583 0.1571
H2 H 1.2065 0.5407 0.0679
H3 H 0.5495 0.6135 0.8867
H4 H 0.4902 0.6282 0.7361
H5 H 0.6906 0.6522 0.5581
H6 H 0.7851 0.6408 0.6771
H7 H 0.6574 0.3139 0.3696
H8 H 0.7612 0.3012 0.4705
H9 H 0.9432 0.3266 0.2840
H10 H 0.8851 0.3457 0.1361
H11 H 0.6922 0.7790 0.7105
H12 H 0.5781 0.7365 0.6330
H13 H 0.6932 0.7104 0.9883
H14 H 0.7450 0.6390 0.9414
H15 H 0.6235 0.2535 0.1362
H16 H 0.6773 0.3344 0.1107
H17 H 0.7342 0.1740 0.2782
H18 H 0.8212 0.1843 0.1757
H19 H 0.6208 0.8743 0.7414
H20 H 0.5020 0.8635 0.7690
H21 H 0.6450 0.9532 0.8890
H22 H 0.5349 0.9303 0.9346
H23 H 0.7118 0.8968 1.0503
H24 H 0.6006 0.8819 1.0981
H25 H 0.7487 1.0000 1.1566
H26 H 0.6739 0.9591 1.2528
H27 H 0.6294 1.0129 1.1480
H28 H 0.9204 0.7023 1.0651
H29 H 0.8587 0.7667 1.1216
H30 H 1.0500 0.7935 1.0973
H31 H 1.0031 0.8001 0.9386
H32 H 0.9648 0.8813 1.1579
H33 H 0.9482 0.8906 0.9949
H34 H 1.1156 0.9413 1.1976
H35 H 1.0693 0.9772 1.0631
H36 H 1.1412 0.9141 1.0431
H37 H 0.6255 0.2927 -0.1542
H38 H 0.5670 0.2195 -0.1026
H39 H 0.6865 0.2278 -0.3216
H40 H 0.7226 0.1714 -0.2193
H41 H 0.5490 0.1685 -0.3778
H42 H 0.5713 0.1150 -0.2635
H43 H 0.6339 0.1139 -0.5241
H44 H 0.5693 0.0482 -0.4593
H45 H 0.6926 0.0740 -0.4043
H46 H 0.9326 0.1232 0.2973
H47 H 0.8776 0.1094 0.4335
H48 H 1.1351 0.1576 0.5741
H49 H 1.0565 0.0873 0.4982
H50 H 1.0594 0.2175 0.4820
H51 H 1.0179 0.1637 0.5872
H52 H 1.1383 0.0664 0.3770
H53 H 1.1869 0.0845 0.5427
H54 H 1.2189 0.1423 0.4370
loop_
_geom_bond_atom_site_label_1
_geom_bond_atom_site_label_2
_geom_bond_site_symmetry_1
_geom_bond_site_symmetry_2
S1 C1 1_555 1_555
S2 C8 1_555 1_555
S3 C8 1_555 1_555
S4 C11 1_555 1_555
O1 C21 1_555 1_555
O2 C22 1_555 1_555
O3 C23 1_555 1_555
O4 C24 1_555 1_555
N1 C6 1_555 1_555
N2 C7 1_555 1_555
C1 C2 1_555 1_555
C2 C3 1_555 1_555
C3 C4 1_555 1_555
C4 S1 1_555 1_555
C5 C1 1_555 1_555
C6 C5 1_555 1_555
C7 C5 1_555 1_555
C8 C14 1_555 1_555
C9 S3 1_555 1_555
C10 S2 1_555 1_555
C11 C4 1_555 1_555
C12 C11 1_555 1_555
C13 C12 1_555 1_555
C14 S4 1_555 1_555
C15 C2 1_555 1_555
C16 C15 1_555 1_555
C17 C3 1_555 1_555
C18 C12 1_555 1_555
C19 C18 1_555 1_555
C20 C13 1_555 1_555
C21 C16 1_555 1_555
C22 C16 1_555 1_555
C23 C19 1_555 1_555
C24 C19 1_555 1_555
C25 O1 1_555 1_555
C26 C25 1_555 1_555
C27 C26 1_555 1_555
C28 C27 1_555 1_555
C29 O2 1_555 1_555
C30 C29 1_555 1_555
C31 C30 1_555 1_555
C32 C31 1_555 1_555
C33 O3 1_555 1_555
C34 C33 1_555 1_555
C35 C34 1_555 1_555
C36 C35 1_555 1_555
C37 O4 1_555 1_555
C38 C39 1_555 1_555
C39 C37 1_555 1_555
C40 C38 1_555 1_555
H1 C9 1_555 1_555
H2 C10 1_555 1_555
H3 C15 1_555 1_555
H4 C15 1_555 1_555
H5 C17 1_555 1_555
H6 C17 1_555 1_555
H7 C18 1_555 1_555
H8 C18 1_555 1_555
H9 C20 1_555 1_555
H10 C20 1_555 1_555
H11 C21 1_555 1_555
H12 C21 1_555 1_555
H13 C22 1_555 1_555
H14 C22 1_555 1_555
H15 C23 1_555 1_555
H16 C23 1_555 1_555
H17 C24 1_555 1_555
H18 C24 1_555 1_555
H19 C25 1_555 1_555
H20 C25 1_555 1_555
H21 C26 1_555 1_555
H22 C26 1_555 1_555
H23 C27 1_555 1_555
H24 C27 1_555 1_555
H25 C28 1_555 1_555
H26 C28 1_555 1_555
H27 C28 1_555 1_555
H28 C29 1_555 1_555
H29 C29 1_555 1_555
H30 C30 1_555 1_555
H31 C30 1_555 1_555
H32 C31 1_555 1_555
H33 C31 1_555 1_555
H34 C32 1_555 1_555
H35 C32 1_555 1_555
H36 C32 1_555 1_555
H37 C33 1_555 1_555
H38 C33 1_555 1_555
H39 C34 1_555 1_555
H40 C34 1_555 1_555
H41 C35 1_555 1_555
H42 C35 1_555 1_555
H43 C36 1_555 1_555
H44 C36 1_555 1_555
H45 C36 1_555 1_555
H46 C37 1_555 1_555
H47 C37 1_555 1_555
H48 C38 1_555 1_555
H49 C38 1_555 1_555
H50 C39 1_555 1_555
H51 C39 1_555 1_555
H52 C40 1_555 1_555
H53 C40 1_555 1_555
H54 C40 1_555 1_555
C9 C10 1_555 1_555
C13 C14 1_555 1_555
C16 C17 1_555 1_555
C19 C20 1_555 1_555

#END
