
#######################################################################
#
#                 Cambridge Crystallographic Data Centre
#                                CCDC 
#
#######################################################################
#
# If this CIF has been generated from an entry in the Cambridge 
# Structural Database, then it will include bibliographic, chemical, 
# crystal, experimental, refinement or atomic coordinate data resulting 
# from the CCDC's data processing and validation procedures.
#
#######################################################################

data_MAXJIH
_chemical_formula_moiety         'C30 H24 N2 O4'
_chemical_name_systematic        
1,1'-dibenzyl-3,3'-dihydroxy-1,1',3,3'-tetrahydro-2H,2'H-3,3'-biindole-2,2'-dione
_symmetry_cell_setting           triclinic
_symmetry_space_group_name_H-M   'P -1'
_symmetry_Int_Tables_number      2
_space_group_name_Hall           '-P 1'
loop_
_symmetry_equiv_pos_site_id
_symmetry_equiv_pos_as_xyz
1 x,y,z
2 -x,-y,-z
_cell_length_a                   8.5909(6)
_cell_length_b                   9.3471(7)
_cell_length_c                   16.4167(14)
_cell_angle_alpha                74.516(5)
_cell_angle_beta                 85.903(5)
_cell_angle_gamma                66.308(4)
_cell_volume                     1162.38
_exptl_crystal_colour            colorless
_exptl_crystal_description       bar
_cell_formula_units_Z            2
loop_
_atom_site_label
_atom_site_type_symbol
_atom_site_fract_x
_atom_site_fract_y
_atom_site_fract_z
O1 O 0.6802(3) 0.5562(3) -0.00310(16)
H1 H 0.6186 0.5076 -0.0013
O2 O 0.4825(3) 0.5644(3) -0.13925(18)
H2 H 0.4931 0.5018 -0.0922
O3 O 0.8418(4) 0.3240(4) -0.10569(19)
O4 O 0.9548(4) 0.6299(3) -0.09980(18)
N1 N 0.7450(4) 0.8856(4) -0.12007(19)
N2 N 0.8457(4) 0.4806(4) -0.2393(2)
C1 C 0.8054(4) 0.7229(4) -0.1019(2)
C2 C 0.6117(5) 0.7139(4) -0.2415(2)
C3 C 0.5676(5) 0.9524(4) -0.1069(2)
C4 C 0.5093(4) 0.8293(4) -0.0817(2)
C5 C 0.8755(5) 1.0191(5) -0.2388(2)
C6 C 0.7436(5) 0.6363(5) -0.2888(2)
C7 C 0.6547(4) 0.6714(4) -0.0823(2)
C8 C 0.6266(5) 0.6030(4) -0.1541(2)
C9 C 0.3410(5) 0.8639(5) -0.0621(2)
H3 H 0.3010 0.7820 -0.0449
C10 C 1.1193(5) 0.4177(5) -0.3122(2)
C11 C 0.2930(5) 1.1447(5) -0.0940(3)
H4 H 0.2184 1.2512 -0.0980
C12 C 0.7858(5) 0.4502(5) -0.1609(2)
C13 C 0.4627(5) 1.1116(5) -0.1137(3)
H5 H 0.5028 1.1934 -0.1306
C14 C 0.2331(5) 1.0247(5) -0.0690(3)
H6 H 0.1192 1.0511 -0.0564
C15 C 0.9852(5) 0.3603(5) -0.2718(3)
H7 H 0.9391 0.3290 -0.3131
H8 H 1.0380 0.2648 -0.2255
C16 C 0.8532(5) 0.9755(5) -0.1445(2)
H9 H 0.9640 0.9109 -0.1160
H10 H 0.8039 1.0740 -0.1258
C17 C 1.1873(5) 0.4956(5) -0.2739(3)
H11 H 1.1510 0.5123 -0.2212
C18 C 0.4930(5) 0.8672(5) -0.2778(3)
H12 H 0.4029 0.9193 -0.2470
C19 C 0.7612(6) 0.7088(5) -0.3716(3)
H13 H 0.8491 0.6555 -0.4031
C20 C 0.5102(6) 0.9423(6) -0.3610(3)
H14 H 0.4316 1.0459 -0.3861
C21 C 1.3085(6) 0.5487(6) -0.3132(3)
H15 H 1.3551 0.5993 -0.2864
C22 C 1.1756(6) 0.3944(6) -0.3906(3)
H16 H 1.1327 0.3403 -0.4167
C23 C 0.6429(6) 0.8643(6) -0.4064(3)
H17 H 0.6537 0.9171 -0.4618
C24 C 1.0283(6) 0.9421(6) -0.2722(3)
H18 H 1.1171 0.8605 -0.2365
C25 C 0.7446(6) 1.1374(6) -0.2936(3)
H19 H 0.6396 1.1897 -0.2724
C26 C 1.0514(7) 0.9846(7) -0.3583(3)
H20 H 1.1559 0.9321 -0.3798
C27 C 0.7679(7) 1.1789(7) -0.3794(3)
H21 H 0.6786 1.2587 -0.4155
C28 C 0.9218(6) 1.1031(6) -0.4116(3)
H22 H 0.9378 1.1321 -0.4694
C29 C 1.2939(7) 0.4501(7) -0.4300(4)
H23 H 1.3292 0.4355 -0.4832
C30 C 1.3607(7) 0.5276(7) -0.3911(3)
H24 H 1.4411 0.5654 -0.4179
loop_
_geom_bond_atom_site_label_1
_geom_bond_atom_site_label_2
_geom_bond_site_symmetry_1
_geom_bond_site_symmetry_2
O1 H1 1_555 1_555
O2 H2 1_555 1_555
O3 C12 1_555 1_555
O4 C1 1_555 1_555
N1 C1 1_555 1_555
N2 C6 1_555 1_555
C1 C7 1_555 1_555
C2 C6 1_555 1_555
C3 N1 1_555 1_555
C4 C3 1_555 1_555
C5 C16 1_555 1_555
C6 C19 1_555 1_555
C7 O1 1_555 1_555
C8 O2 1_555 1_555
C9 C4 1_555 1_555
H3 C9 1_555 1_555
C10 C15 1_555 1_555
C11 H4 1_555 1_555
C12 N2 1_555 1_555
C13 C3 1_555 1_555
H5 C13 1_555 1_555
C14 C9 1_555 1_555
H6 C14 1_555 1_555
C15 N2 1_555 1_555
H7 C15 1_555 1_555
H8 C15 1_555 1_555
C16 N1 1_555 1_555
H9 C16 1_555 1_555
H10 C16 1_555 1_555
C17 C10 1_555 1_555
H11 C17 1_555 1_555
C18 C2 1_555 1_555
H12 C18 1_555 1_555
C19 H13 1_555 1_555
C20 C18 1_555 1_555
H14 C20 1_555 1_555
C21 C17 1_555 1_555
H15 C21 1_555 1_555
C22 C10 1_555 1_555
H16 C22 1_555 1_555
C23 C19 1_555 1_555
H17 C23 1_555 1_555
C24 C5 1_555 1_555
H18 C24 1_555 1_555
C25 C5 1_555 1_555
H19 C25 1_555 1_555
C26 C24 1_555 1_555
H20 C26 1_555 1_555
C27 C25 1_555 1_555
H21 C27 1_555 1_555
C28 C26 1_555 1_555
H22 C28 1_555 1_555
C29 C22 1_555 1_555
H23 C29 1_555 1_555
C30 C21 1_555 1_555
H24 C30 1_555 1_555
C2 C8 1_555 1_555
C4 C7 1_555 1_555
C7 C8 1_555 1_555
C8 C12 1_555 1_555
C11 C13 1_555 1_555
C11 C14 1_555 1_555
C20 C23 1_555 1_555
C27 C28 1_555 1_555
C29 C30 1_555 1_555

#END
