
#######################################################################
#
#                 Cambridge Crystallographic Data Centre
#                                CCDC 
#
#######################################################################
#
# If this CIF has been generated from an entry in the Cambridge 
# Structural Database, then it will include bibliographic, chemical, 
# crystal, experimental, refinement or atomic coordinate data resulting 
# from the CCDC's data processing and validation procedures.
#
#######################################################################

data_MAXNIL
_chemical_formula_moiety         'C15 H10 Cl1 N1 O3'
_chemical_name_systematic        
N-(4-chlorophenyl)-2,3-dioxo-3-phenylpropanamide
_symmetry_cell_setting           orthorhombic
_symmetry_space_group_name_H-M   'P 21 21 21'
_symmetry_Int_Tables_number      19
_space_group_name_Hall           'P 2ac 2ab'
loop_
_symmetry_equiv_pos_site_id
_symmetry_equiv_pos_as_xyz
1 x,y,z
2 1/2-x,-y,1/2+z
3 1/2+x,1/2-y,-z
4 -x,1/2+y,1/2-z
_cell_length_a                   5.76624(17)
_cell_length_b                   11.7165(3)
_cell_length_c                   19.6213(6)
_cell_angle_alpha                90
_cell_angle_beta                 90
_cell_angle_gamma                90
_cell_volume                     1325.62
_cell_formula_units_Z            4
loop_
_atom_site_label
_atom_site_type_symbol
_atom_site_fract_x
_atom_site_fract_y
_atom_site_fract_z
Cl1 Cl -0.44885(19) 0.02511(9) 0.18263(5)
O1 O -0.0696(5) 0.42835(19) 0.41194(13)
O2 O 0.4369(4) 0.3286(2) 0.48358(13)
O3 O -0.0013(4) 0.4278(2) 0.56920(13)
N1 N 0.1294(5) 0.2627(2) 0.38701(14)
H1 H 0.248(6) 0.224(3) 0.4014(18)
C1 C -0.2141(6) 0.2592(3) 0.31311(17)
H2 H -0.2633 0.3294 0.3298
C2 C -0.3462(6) 0.2012(3) 0.26553(18)
H3 H -0.4843 0.2327 0.2499
C3 C -0.2740(6) 0.0974(3) 0.24138(17)
C4 C -0.0688(6) 0.0507(3) 0.26220(17)
H4 H -0.0194 -0.0187 0.2444
C5 C 0.0642(6) 0.1071(3) 0.30962(17)
H5 H 0.2030 0.0751 0.3243
C6 C -0.0069(6) 0.2115(3) 0.33576(15)
C7 C 0.0823(6) 0.3592(3) 0.42262(16)
C8 C 0.2535(6) 0.3768(2) 0.48105(17)
C9 C 0.1727(6) 0.4560(3) 0.53878(16)
C10 C 0.3157(5) 0.5568(3) 0.55646(14)
C11 C 0.5218(6) 0.5802(3) 0.52337(16)
H6 H 0.5732 0.5328 0.4885
C12 C 0.6512(6) 0.6742(3) 0.54214(19)
H7 H 0.7896 0.6901 0.5197
C13 C 0.5769(7) 0.7442(3) 0.59360(18)
H8 H 0.6661 0.8067 0.6065
C14 C 0.3688(8) 0.7219(4) 0.62645(19)
H9 H 0.3165 0.7704 0.6607
C15 C 0.2409(6) 0.6285(3) 0.60828(16)
H10 H 0.1027 0.6128 0.6308
loop_
_geom_bond_atom_site_label_1
_geom_bond_atom_site_label_2
_geom_bond_site_symmetry_1
_geom_bond_site_symmetry_2
Cl1 C3 1_555 1_555
O1 C7 1_555 1_555
O2 C8 1_555 1_555
O3 C9 1_555 1_555
N1 H1 1_555 1_555
C1 H2 1_555 1_555
C2 C1 1_555 1_555
H3 C2 1_555 1_555
C3 C2 1_555 1_555
C4 C3 1_555 1_555
H4 C4 1_555 1_555
C5 C4 1_555 1_555
H5 C5 1_555 1_555
C6 N1 1_555 1_555
C7 N1 1_555 1_555
C8 C7 1_555 1_555
C9 C8 1_555 1_555
C10 C9 1_555 1_555
C11 C10 1_555 1_555
H6 C11 1_555 1_555
C12 C11 1_555 1_555
H7 C12 1_555 1_555
C13 C12 1_555 1_555
H8 C13 1_555 1_555
C14 C13 1_555 1_555
H9 C14 1_555 1_555
C15 C10 1_555 1_555
H10 C15 1_555 1_555
C1 C6 1_555 1_555
C5 C6 1_555 1_555
C14 C15 1_555 1_555

#END
