
#######################################################################
#
#                 Cambridge Crystallographic Data Centre
#                                CCDC 
#
#######################################################################
#
# If this CIF has been generated from an entry in the Cambridge 
# Structural Database, then it will include bibliographic, chemical, 
# crystal, experimental, refinement or atomic coordinate data resulting 
# from the CCDC's data processing and validation procedures.
#
#######################################################################

data_MAXTIR
_chemical_formula_moiety         'C14 H12 F4 N3 O1'
_chemical_name_systematic        
'2,3,5,6-tetrafluoro-4-(1-oxy-4,4,5,5-tetramethyl-4,5-dihydro-1H-imidazol-2-yl)benzonitrile radical'
_symmetry_cell_setting           orthorhombic
_symmetry_space_group_name_H-M   'I b c a'
_symmetry_Int_Tables_number      73
_space_group_name_Hall           '-I 2b 2c'
loop_
_symmetry_equiv_pos_site_id
_symmetry_equiv_pos_as_xyz
1 x,y,z
2 x,-y,1/2-z
3 1/2-x,y,-z
4 -x,1/2-y,z
5 1/2+x,1/2+y,1/2+z
6 1/2+x,1/2-y,-z
7 -x,1/2+y,1/2-z
8 1/2-x,-y,1/2+z
9 -x,-y,-z
10 -x,y,1/2+z
11 1/2+x,-y,z
12 x,1/2+y,-z
13 1/2-x,1/2-y,1/2-z
14 1/2-x,1/2+y,z
15 x,1/2-y,1/2+z
16 1/2+x,y,1/2-z
_cell_length_a                   10.3528(3)
_cell_length_b                   10.8047(3)
_cell_length_c                   26.1688(6)
_cell_angle_alpha                90
_cell_angle_beta                 90
_cell_angle_gamma                90
_cell_volume                     2927.21
_exptl_crystal_colour            orange
_exptl_crystal_description       prism
_chemical_melting_point          '404 K'
_cell_formula_units_Z            8
loop_
_atom_site_label
_atom_site_type_symbol
_atom_site_fract_x
_atom_site_fract_y
_atom_site_fract_z
N1 N 0.10594(15) 0.73426(17) 0.11001(6)
N2 N 0.0000 0.7500 -0.17876(11)
F1 F 0.11885(14) 0.93519(13) 0.02375(5)
F2 F 0.11574(15) 0.93683(15) -0.07879(5)
O1 O 0.21404(19) 0.7089(3) 0.09101(11)
C1 C 0.0000 0.7500 0.08277(10)
C2 C 0.07566(19) 0.7526(2) 0.16507(7)
C3 C 0.0000 0.7500 0.02620(10)
C4 C 0.06092(18) 0.84257(19) -0.00109(8)
C5 C 0.0601(2) 0.8438(2) -0.05371(8)
C6 C 0.0000 0.7500 -0.08068(11)
C7 C 0.0000 0.7500 -0.13560(12)
C8 C 0.1303(3) 0.8789(3) 0.17899(11)
H1 H 0.2219 0.8793 0.1732
H2 H 0.1133 0.8959 0.2144
H3 H 0.0903 0.9413 0.1582
C9 C 0.1419(2) 0.6525(3) 0.19607(9)
H4 H 0.1226 0.6640 0.2316
H5 H 0.2336 0.6574 0.1910
H6 H 0.1114 0.5728 0.1852
N1C N -0.10594(15) 0.76574(17) 0.11001(6)
F1C F -0.11885(14) 0.56481(13) 0.02375(5)
F2C F -0.11574(15) 0.56317(15) -0.07879(5)
O1C O -0.21404(19) 0.7911(3) 0.09101(11)
C2C C -0.07566(19) 0.7474(2) 0.16507(7)
C4C C -0.06092(18) 0.65743(19) -0.00109(8)
C5C C -0.0601(2) 0.6562(2) -0.05371(8)
C8C C -0.1303(3) 0.6211(3) 0.17899(11)
H1C H -0.2219 0.6207 0.1732
H2C H -0.1133 0.6041 0.2144
H3C H -0.0903 0.5587 0.1582
C9C C -0.1419(2) 0.8475(3) 0.19607(9)
H4C H -0.1226 0.8360 0.2316
H5C H -0.2336 0.8426 0.1910
H6C H -0.1114 0.9272 0.1852
loop_
_geom_bond_atom_site_label_1
_geom_bond_atom_site_label_2
_geom_bond_site_symmetry_1
_geom_bond_site_symmetry_2
N1 O1 1_555 1_555
N2 C7 1_555 1_555
F1 C4 1_555 1_555
F2 C5 1_555 1_555
C1 N1 1_555 1_555
C2 N1 1_555 1_555
C3 C1 1_555 1_555
C4 C3 1_555 1_555
C5 C4 1_555 1_555
C6 C5 1_555 1_555
C7 C6 1_555 1_555
C8 C2 1_555 1_555
H1 C8 1_555 1_555
H2 C8 1_555 1_555
H3 C8 1_555 1_555
C9 C2 1_555 1_555
H4 C9 1_555 1_555
H5 C9 1_555 1_555
H6 C9 1_555 1_555
N1C C1 1_555 1_555
F1C C4C 1_555 1_555
F2C C5C 1_555 1_555
O1C N1C 1_555 1_555
C2C C2 1_555 1_555
C4C C3 1_555 1_555
C5C C6 1_555 1_555
C8C C2C 1_555 1_555
H1C C8C 1_555 1_555
H2C C8C 1_555 1_555
H3C C8C 1_555 1_555
C9C C2C 1_555 1_555
H4C C9C 1_555 1_555
H5C C9C 1_555 1_555
H6C C9C 1_555 1_555
N1C C2C 1_555 1_555
C4C C5C 1_555 1_555

#END
