
#######################################################################
#
#                 Cambridge Crystallographic Data Centre
#                                CCDC 
#
#######################################################################
#
# If this CIF has been generated from an entry in the Cambridge 
# Structural Database, then it will include bibliographic, chemical, 
# crystal, experimental, refinement or atomic coordinate data resulting 
# from the CCDC's data processing and validation procedures.
#
#######################################################################

data_MAXTIQ
_chemical_formula_moiety         'C16 H12 N2 O2'
_chemical_name_systematic        N,N'-bis(2-furylmethylene)benzene-1,4-diamine
_symmetry_cell_setting           monoclinic
_symmetry_space_group_name_H-M   'P 21/c'
_symmetry_Int_Tables_number      14
_space_group_name_Hall           '-P 2ybc'
loop_
_symmetry_equiv_pos_site_id
_symmetry_equiv_pos_as_xyz
1 x,y,z
2 -x,1/2+y,1/2-z
3 -x,-y,-z
4 x,1/2-y,1/2+z
_cell_length_a                   7.4730(2)
_cell_length_b                   8.4137(3)
_cell_length_c                   10.2570(3)
_cell_angle_alpha                90
_cell_angle_beta                 90.003(1)
_cell_angle_gamma                90
_cell_volume                     644.915
_exptl_crystal_colour            'orange brown'
_exptl_crystal_description       block
_cell_formula_units_Z            2
loop_
_atom_site_label
_atom_site_type_symbol
_atom_site_fract_x
_atom_site_fract_y
_atom_site_fract_z
O1 O 0.89156(13) 0.52725(12) 0.31603(9)
C1 C 0.9604(2) 0.67713(19) 0.30170(15)
H1 H 1.0341 0.7100 0.2312
C2 C 0.9095(2) 0.77164(19) 0.40079(16)
H2 H 0.9389 0.8806 0.4124
C3 C 0.8032(2) 0.67639(18) 0.48455(15)
H3 H 0.7484 0.7090 0.5637
C4 C 0.79491(19) 0.52947(17) 0.42976(13)
C5 C 0.70159(18) 0.38950(17) 0.47055(13)
H4 H 0.6442 0.3907 0.5532
N1 N 0.69110(16) 0.26275(14) 0.40185(11)
C6 C 0.59710(19) 0.13116(17) 0.45458(13)
C7 C 0.49879(19) 0.03665(17) 0.36852(14)
H5 H 0.4991 0.0612 0.2781
C8 C 0.40108(19) -0.09188(17) 0.41276(13)
H6 H 0.3327 -0.1535 0.3533
O1B O 0.10844(13) -0.52725(12) 0.68397(9)
C1B C 0.0396(2) -0.67713(19) 0.69830(15)
H1B H -0.0341 -0.7100 0.7688
C2B C 0.0905(2) -0.77164(19) 0.59921(16)
H2B H 0.0611 -0.8806 0.5876
C3B C 0.1968(2) -0.67639(18) 0.51545(15)
H3B H 0.2516 -0.7090 0.4363
C4B C 0.20509(19) -0.52947(17) 0.57024(13)
C5B C 0.29841(18) -0.38950(17) 0.52945(13)
H4B H 0.3558 -0.3907 0.4468
N1B N 0.30890(16) -0.26275(14) 0.59815(11)
C6B C 0.40290(19) -0.13116(17) 0.54542(13)
C7B C 0.50121(19) -0.03665(17) 0.63148(14)
H5B H 0.5009 -0.0612 0.7219
C8B C 0.59892(19) 0.09188(17) 0.58724(13)
H6B H 0.6673 0.1535 0.6467
loop_
_geom_bond_atom_site_label_1
_geom_bond_atom_site_label_2
_geom_bond_site_symmetry_1
_geom_bond_site_symmetry_2
O1 C1 1_555 1_555
C1 H1 1_555 1_555
C2 C1 1_555 1_555
H2 C2 1_555 1_555
C3 C2 1_555 1_555
H3 C3 1_555 1_555
C4 O1 1_555 1_555
C5 C4 1_555 1_555
H4 C5 1_555 1_555
N1 C5 1_555 1_555
C6 N1 1_555 1_555
C7 C6 1_555 1_555
H5 C7 1_555 1_555
C8 C7 1_555 1_555
H6 C8 1_555 1_555
O1B C1B 1_555 1_555
C1B H1B 1_555 1_555
C2B C1B 1_555 1_555
H2B C2B 1_555 1_555
C3B C2B 1_555 1_555
H3B C3B 1_555 1_555
C4B O1B 1_555 1_555
C5B C4B 1_555 1_555
H4B C5B 1_555 1_555
N1B C5B 1_555 1_555
C6B C8 1_555 1_555
C7B C6B 1_555 1_555
H5B C7B 1_555 1_555
C8B C6 1_555 1_555
H6B C8B 1_555 1_555
C3 C4 1_555 1_555
C3B C4B 1_555 1_555
N1B C6B 1_555 1_555
C7B C8B 1_555 1_555

#END
