
#######################################################################
#
#                 Cambridge Crystallographic Data Centre
#                                CCDC 
#
#######################################################################
#
# If this CIF has been generated from an entry in the Cambridge 
# Structural Database, then it will include bibliographic, chemical, 
# crystal, experimental, refinement or atomic coordinate data resulting 
# from the CCDC's data processing and validation procedures.
#
#######################################################################

data_MAXTAJ
_chemical_formula_moiety         'C17 H10 Br1 F1 O3'
_chemical_name_systematic        
3-(4-bromo-2-fluoro-1-oxo-2,3-dihydro-1H-inden-2-yl)-2-benzofuran-1(3H)-one
_symmetry_cell_setting           monoclinic
_symmetry_space_group_name_H-M   'P 21/c'
_symmetry_Int_Tables_number      14
_space_group_name_Hall           '-P 2ybc'
loop_
_symmetry_equiv_pos_site_id
_symmetry_equiv_pos_as_xyz
1 x,y,z
2 -x,1/2+y,1/2-z
3 -x,-y,-z
4 x,1/2-y,1/2+z
_cell_length_a                   7.8144(15)
_cell_length_b                   22.973(5)
_cell_length_c                   8.5686(17)
_cell_angle_alpha                90
_cell_angle_beta                 112.714(4)
_cell_angle_gamma                90
_cell_volume                     1418.94
_exptl_crystal_colour            colorless
_exptl_crystal_description       block
_cell_formula_units_Z            4
loop_
_atom_site_label
_atom_site_type_symbol
_atom_site_fract_x
_atom_site_fract_y
_atom_site_fract_z
Br1 Br 0.70036(5) 0.314678(19) 0.77859(5)
C1 C 0.4508(5) 0.50730(17) 0.2970(5)
C2 C 0.6269(5) 0.50214(18) 0.2731(4)
C3 C 0.7817(5) 0.53860(19) 0.3317(5)
H1 H 0.7869 0.5706 0.3999
C4 C 0.9263(6) 0.5251(2) 0.2841(5)
H2 H 1.0317 0.5484 0.3204
C5 C 0.9166(6) 0.4772(2) 0.1826(5)
H3 H 1.0166 0.4692 0.1526
C6 C 0.7632(5) 0.44055(19) 0.1239(5)
H4 H 0.7581 0.4087 0.0553
C7 C 0.6182(5) 0.45401(17) 0.1731(4)
C8 C 0.4327(5) 0.42487(17) 0.1317(5)
H5 H 0.3609 0.4272 0.0095
C9 C 0.4336(5) 0.36246(17) 0.1892(4)
C10 C 0.5544(5) 0.34883(17) 0.3739(5)
H6 H 0.6405 0.3175 0.3816
H7 H 0.6241 0.3829 0.4308
C11 C 0.4173(5) 0.33090(16) 0.4502(5)
C12 C 0.2353(5) 0.32973(16) 0.3329(5)
C13 C 0.2332(6) 0.34480(18) 0.1649(5)
C14 C 0.0852(5) 0.31528(18) 0.3775(5)
H8 H -0.0357 0.3142 0.2971
C15 C 0.1238(6) 0.30278(18) 0.5444(6)
H9 H 0.0269 0.2939 0.5777
C16 C 0.3056(6) 0.30315(17) 0.6654(5)
H10 H 0.3288 0.2944 0.7777
C17 C 0.4511(5) 0.31652(18) 0.6173(5)
F1 F 0.4883(3) 0.32878(10) 0.0798(3)
O1 O 0.3950(4) 0.54388(13) 0.3658(4)
O2 O 0.3431(3) 0.46029(12) 0.2190(3)
O3 O 0.1039(4) 0.34442(14) 0.0287(4)
loop_
_geom_bond_atom_site_label_1
_geom_bond_atom_site_label_2
_geom_bond_site_symmetry_1
_geom_bond_site_symmetry_2
Br1 C17 1_555 1_555
C1 C2 1_555 1_555
C2 C3 1_555 1_555
C3 H1 1_555 1_555
C4 C3 1_555 1_555
H2 C4 1_555 1_555
C5 C4 1_555 1_555
H3 C5 1_555 1_555
C6 C5 1_555 1_555
H4 C6 1_555 1_555
C7 C2 1_555 1_555
C8 C7 1_555 1_555
H5 C8 1_555 1_555
C9 C8 1_555 1_555
C10 C9 1_555 1_555
H6 C10 1_555 1_555
H7 C10 1_555 1_555
C11 C10 1_555 1_555
C12 C11 1_555 1_555
C13 C9 1_555 1_555
C14 C12 1_555 1_555
H8 C14 1_555 1_555
C15 C14 1_555 1_555
H9 C15 1_555 1_555
C16 C15 1_555 1_555
H10 C16 1_555 1_555
C17 C11 1_555 1_555
F1 C9 1_555 1_555
O1 C1 1_555 1_555
O2 C1 1_555 1_555
O3 C13 1_555 1_555
C6 C7 1_555 1_555
C8 O2 1_555 1_555
C12 C13 1_555 1_555
C16 C17 1_555 1_555

#END
