
#######################################################################
#
#                 Cambridge Crystallographic Data Centre
#                                CCDC 
#
#######################################################################
#
# If this CIF has been generated from an entry in the Cambridge 
# Structural Database, then it will include bibliographic, chemical, 
# crystal, experimental, refinement or atomic coordinate data resulting 
# from the CCDC's data processing and validation procedures.
#
#######################################################################

data_MAXTEN
_chemical_formula_moiety         'C14 H12 F4 N3 O2'
_chemical_name_systematic        
'2,3,5,6-tetrafluoro-4-(1-oxy-4,4,5,5-tetramethyl-3-oxo-4,5-dihydro-1H-3\l^5^-imidazol-2-yl)benzonitrile radical'
_symmetry_cell_setting           orthorhombic
_symmetry_space_group_name_H-M   'I b c a'
_symmetry_Int_Tables_number      73
_space_group_name_Hall           '-I 2b 2c'
loop_
_symmetry_equiv_pos_site_id
_symmetry_equiv_pos_as_xyz
1 x,y,z
2 x,-y,1/2-z
3 1/2-x,y,-z
4 -x,1/2-y,z
5 1/2+x,1/2+y,1/2+z
6 1/2+x,1/2-y,-z
7 -x,1/2+y,1/2-z
8 1/2-x,-y,1/2+z
9 -x,-y,-z
10 -x,y,1/2+z
11 1/2+x,-y,z
12 x,1/2+y,-z
13 1/2-x,1/2-y,1/2-z
14 1/2-x,1/2+y,z
15 x,1/2-y,1/2+z
16 1/2+x,y,1/2-z
_cell_length_a                   10.4901(13)
_cell_length_b                   10.6393(12)
_cell_length_c                   26.130(4)
_cell_angle_alpha                90
_cell_angle_beta                 90
_cell_angle_gamma                90
_cell_volume                     2916.3
_exptl_crystal_colour            'dark purple'
_exptl_crystal_description       plate
_chemical_melting_point          '469 K'
_cell_formula_units_Z            8
loop_
_atom_site_label
_atom_site_type_symbol
_atom_site_fract_x
_atom_site_fract_y
_atom_site_fract_z
N1 N 0.6034(2) 0.2332(2) 0.11050(10)
N2 N 0.5000 0.2500 -0.18003(19)
O1 O 0.71604(17) 0.2124(2) 0.09409(9)
F1 F 0.62072(16) 0.43544(16) 0.02321(7)
F2 F 0.61458(17) 0.43923(17) -0.07986(8)
C1 C 0.5000 0.2500 0.08127(16)
C2 C 0.5749(3) 0.2530(3) 0.16599(12)
C3 C 0.5000 0.2500 0.02499(15)
C4 C 0.5618(2) 0.3432(3) -0.00223(12)
C5 C 0.5609(3) 0.3447(3) -0.05461(12)
C6 C 0.5000 0.2500 -0.08186(16)
C7 C 0.5000 0.2500 -0.1366(2)
C8 C 0.6292(4) 0.3818(4) 0.17921(16)
H1 H 0.7183 0.3840 0.1709
H2 H 0.6183 0.3975 0.2151
H3 H 0.5851 0.4452 0.1600
C9 C 0.6403(3) 0.1521(4) 0.19725(13)
H4 H 0.6220 0.1648 0.2329
H5 H 0.7307 0.1565 0.1918
H6 H 0.6096 0.0710 0.1869
N1C N 0.3966(2) 0.2668(2) 0.11050(10)
O1C O 0.28396(17) 0.2876(2) 0.09409(9)
F1C F 0.37928(16) 0.06456(16) 0.02321(7)
F2C F 0.38542(17) 0.06077(17) -0.07986(8)
C2C C 0.4251(3) 0.2470(3) 0.16599(12)
C4C C 0.4382(2) 0.1568(3) -0.00223(12)
C5C C 0.4391(3) 0.1553(3) -0.05461(12)
C8C C 0.3708(4) 0.1182(4) 0.17921(16)
H1C H 0.2817 0.1160 0.1709
H2C H 0.3817 0.1025 0.2151
H3C H 0.4149 0.0548 0.1600
C9C C 0.3597(3) 0.3479(4) 0.19725(13)
H4C H 0.3780 0.3352 0.2329
H5C H 0.2693 0.3435 0.1918
H6C H 0.3904 0.4290 0.1869
loop_
_geom_bond_atom_site_label_1
_geom_bond_atom_site_label_2
_geom_bond_site_symmetry_1
_geom_bond_site_symmetry_2
N1 O1 1_555 1_555
N2 C7 1_555 1_555
F1 C4 1_555 1_555
F2 C5 1_555 1_555
C1 N1 1_555 1_555
C2 N1 1_555 1_555
C3 C1 1_555 1_555
C4 C3 1_555 1_555
C5 C4 1_555 1_555
C6 C5 1_555 1_555
C7 C6 1_555 1_555
C8 C2 1_555 1_555
H1 C8 1_555 1_555
H2 C8 1_555 1_555
H3 C8 1_555 1_555
C9 C2 1_555 1_555
H4 C9 1_555 1_555
H5 C9 1_555 1_555
H6 C9 1_555 1_555
N1C C1 1_555 1_555
O1C N1C 1_555 1_555
F1C C4C 1_555 1_555
F2C C5C 1_555 1_555
C2C C2 1_555 1_555
C4C C3 1_555 1_555
C5C C6 1_555 1_555
C8C C2C 1_555 1_555
H1C C8C 1_555 1_555
H2C C8C 1_555 1_555
H3C C8C 1_555 1_555
C9C C2C 1_555 1_555
H4C C9C 1_555 1_555
H5C C9C 1_555 1_555
H6C C9C 1_555 1_555
N1C C2C 1_555 1_555
C4C C5C 1_555 1_555

#END
