
#######################################################################
#
#                 Cambridge Crystallographic Data Centre
#                                CCDC 
#
#######################################################################
#
# If this CIF has been generated from an entry in the Cambridge 
# Structural Database, then it will include bibliographic, chemical, 
# crystal, experimental, refinement or atomic coordinate data resulting 
# from the CCDC's data processing and validation procedures.
#
#######################################################################

data_MAXVIT
_chemical_formula_moiety         'C28 H25 F9 N6 O4'
_chemical_name_systematic        
'4-{[bis(1-oxy-4,4,5,5-tetramethyl-3-oxo-4,5-dihydro-1H-3\l^5^-imidazol-2-yl)(pentafluorophenyl)methyl]amino}-2,3,5,6-tetrafluorobenzonitrile diradical'
_symmetry_cell_setting           triclinic
_symmetry_space_group_name_H-M   'P -1'
_symmetry_Int_Tables_number      2
_space_group_name_Hall           '-P 1'
loop_
_symmetry_equiv_pos_site_id
_symmetry_equiv_pos_as_xyz
1 x,y,z
2 -x,-y,-z
_cell_length_a                   10.0863(6)
_cell_length_b                   12.4846(7)
_cell_length_c                   13.1297(7)
_cell_angle_alpha                76.259(2)
_cell_angle_beta                 78.474(2)
_cell_angle_gamma                87.054(2)
_cell_volume                     1573.62
_exptl_crystal_colour            black
_exptl_crystal_description       prism
_cell_formula_units_Z            2
loop_
_atom_site_label
_atom_site_type_symbol
_atom_site_fract_x
_atom_site_fract_y
_atom_site_fract_z
F1 F 0.33456(15) 0.26363(16) 0.07533(13)
O1 O -0.03150(19) 0.10679(17) 0.09388(16)
F2 F 0.22720(19) 0.46896(15) 0.09959(16)
F3 F 0.3006(3) 0.5887(2) 0.2174(3)
F4 F -0.0122(2) 0.2336(2) 0.41093(14)
O2 O -0.1614(2) 0.44416(16) 0.14408(18)
O3 O -0.1385(2) 0.08493(17) 0.33364(19)
F5 F -0.02437(18) 0.35893(16) -0.11025(14)
N1 N 0.0558(2) 0.32975(18) 0.07421(16)
F6 F 0.4970(2) 0.2396(2) -0.10117(18)
C1 C -0.4152(4) 0.1382(4) 0.3938(4)
H1 H -0.5096 0.1513 0.3925
H2 H -0.3921 0.1658 0.4502
H3 H -0.3971 0.0605 0.4057
F7 F 0.1445(3) 0.3449(2) -0.29181(15)
N2 N 0.0599(2) 0.08776(17) 0.15087(17)
N3 N 0.1947(2) 0.11236(17) 0.25541(17)
O4 O 0.2638(2) 0.15852(17) 0.30395(17)
N4 N -0.1955(2) 0.34852(18) 0.20298(18)
N5 N -0.1834(2) 0.17694(19) 0.28852(18)
C2 C 0.1048(3) 0.3286(2) -0.1082(2)
F8 F 0.2233(4) 0.5365(3) 0.4327(3)
F9 F 0.0630(4) 0.3566(3) 0.5277(2)
C3 C 0.1848(5) 0.4752(4) 0.3730(4)
C4 C 0.2225(3) 0.5009(3) 0.2653(3)
C5 C 0.1818(3) 0.4367(2) 0.2046(2)
C6 C 0.1002(2) 0.3461(2) 0.2505(2)
C7 C 0.0428(2) 0.27481(19) 0.18718(18)
C8 C 0.1470(2) 0.30969(19) -0.01085(18)
C9 C 0.2828(3) 0.2798(2) -0.0136(2)
C10 C 0.3674(3) 0.2699(3) -0.1058(3)
C11 C 0.3252(4) 0.2904(3) -0.2019(2)
C12 C 0.4174(6) 0.2831(4) -0.2990(3)
N6 N 0.4861(7) 0.2779(5) -0.3772(3)
C13 C 0.1018(2) 0.1598(2) 0.19871(19)
C14 C 0.1348(3) -0.0197(2) 0.1686(3)
C15 C 0.2056(3) -0.0099(2) 0.2617(2)
C16 C 0.3546(3) -0.0433(3) 0.2484(4)
H4 H 0.4036 -0.0005 0.1821
H5 H 0.3630 -0.1202 0.2480
H6 H 0.3909 -0.0303 0.3066
C17 C 0.1321(4) -0.0659(3) 0.3731(3)
H7 H 0.1741 -0.0460 0.4254
H8 H 0.1367 -0.1445 0.3815
H9 H 0.0391 -0.0427 0.3827
C18 C 0.2313(4) -0.0204(3) 0.0619(3)
H10 H 0.1804 -0.0084 0.0057
H11 H 0.2768 -0.0904 0.0670
H12 H 0.2969 0.0372 0.0466
C19 C 0.0330(4) -0.1129(3) 0.1954(4)
H13 H -0.0345 -0.1058 0.2564
H14 H 0.0787 -0.1825 0.2114
H15 H -0.0095 -0.1093 0.1355
C20 C 0.1035(5) 0.3853(4) 0.4218(3)
C21 C 0.0638(3) 0.3224(3) 0.3602(2)
C22 C -0.1111(2) 0.2648(2) 0.22792(19)
C23 C -0.3385(3) 0.3224(3) 0.2602(3)
C24 C -0.3324(3) 0.1961(3) 0.2889(3)
C25 C -0.3598(4) 0.1468(4) 0.1980(4)
H16 H -0.3260 0.0725 0.2071
H17 H -0.3149 0.1903 0.1305
H18 H -0.4554 0.1469 0.1997
C26 C -0.4353(4) 0.3764(4) 0.1919(4)
H19 H -0.4294 0.4550 0.1805
H20 H -0.5256 0.3529 0.2266
H21 H -0.4134 0.3562 0.1243
C27 C -0.3561(5) 0.3720(4) 0.3605(4)
H22 H -0.3025 0.3305 0.4092
H23 H -0.4497 0.3685 0.3951
H24 H -0.3271 0.4474 0.3390
C28 C 0.1912(4) 0.3211(3) -0.2012(2)
loop_
_geom_bond_atom_site_label_1
_geom_bond_atom_site_label_2
_geom_bond_site_symmetry_1
_geom_bond_site_symmetry_2
F1 C9 1_555 1_555
O1 N2 1_555 1_555
F2 C5 1_555 1_555
F3 C4 1_555 1_555
F4 C21 1_555 1_555
O2 N4 1_555 1_555
O3 N5 1_555 1_555
F5 C2 1_555 1_555
N1 C7 1_555 1_555
F6 C10 1_555 1_555
C1 H1 1_555 1_555
H2 C1 1_555 1_555
H3 C1 1_555 1_555
F7 C28 1_555 1_555
N2 C13 1_555 1_555
N3 O4 1_555 1_555
N4 C22 1_555 1_555
N5 C22 1_555 1_555
C2 C8 1_555 1_555
F8 C3 1_555 1_555
F9 C20 1_555 1_555
C3 C4 1_555 1_555
C4 C5 1_555 1_555
C5 C6 1_555 1_555
C6 C7 1_555 1_555
C7 C13 1_555 1_555
C8 N1 1_555 1_555
C9 C8 1_555 1_555
C10 C9 1_555 1_555
C11 C10 1_555 1_555
C12 C11 1_555 1_555
N6 C12 1_555 1_555
C13 N3 1_555 1_555
C14 N2 1_555 1_555
C15 N3 1_555 1_555
C16 C15 1_555 1_555
H4 C16 1_555 1_555
H5 C16 1_555 1_555
H6 C16 1_555 1_555
C17 C15 1_555 1_555
H7 C17 1_555 1_555
H8 C17 1_555 1_555
H9 C17 1_555 1_555
C18 C14 1_555 1_555
H10 C18 1_555 1_555
H11 C18 1_555 1_555
H12 C18 1_555 1_555
C19 C14 1_555 1_555
H13 C19 1_555 1_555
H14 C19 1_555 1_555
H15 C19 1_555 1_555
C20 C3 1_555 1_555
C21 C6 1_555 1_555
C22 C7 1_555 1_555
C23 N4 1_555 1_555
C24 C1 1_555 1_555
C25 C24 1_555 1_555
H16 C25 1_555 1_555
H17 C25 1_555 1_555
H18 C25 1_555 1_555
C26 C23 1_555 1_555
H19 C26 1_555 1_555
H20 C26 1_555 1_555
H21 C26 1_555 1_555
C27 C23 1_555 1_555
H22 C27 1_555 1_555
H23 C27 1_555 1_555
H24 C27 1_555 1_555
C28 C2 1_555 1_555
N5 C24 1_555 1_555
C11 C28 1_555 1_555
C14 C15 1_555 1_555
C20 C21 1_555 1_555
C23 C24 1_555 1_555

#END
