
#######################################################################
#
#                 Cambridge Crystallographic Data Centre
#                                CCDC 
#
#######################################################################
#
# If this CIF has been generated from an entry in the Cambridge 
# Structural Database, then it will include bibliographic, chemical, 
# crystal, experimental, refinement or atomic coordinate data resulting 
# from the CCDC's data processing and validation procedures.
#
#######################################################################

data_MAXWIU
_chemical_formula_moiety         'C31 H27 N1 O2 S1'
_chemical_name_systematic        
3-(4-methylbenzylidene)-1-((4-methylphenyl)sulfonyl)-5-phenyl-2,3-dihydro-1H-1-benzazepine
_symmetry_cell_setting           monoclinic
_symmetry_space_group_name_H-M   'P 21/c'
_symmetry_Int_Tables_number      14
_space_group_name_Hall           '-P 2ybc'
loop_
_symmetry_equiv_pos_site_id
_symmetry_equiv_pos_as_xyz
1 x,y,z
2 -x,1/2+y,1/2-z
3 -x,-y,-z
4 x,1/2-y,1/2+z
_cell_length_a                   9.747(5)
_cell_length_b                   9.840(5)
_cell_length_c                   26.389(14)
_cell_angle_alpha                90
_cell_angle_beta                 98.144(10)
_cell_angle_gamma                90
_cell_volume                     2505.46
_exptl_crystal_colour            colorless
_exptl_crystal_description       block
_cell_formula_units_Z            4
loop_
_atom_site_label
_atom_site_type_symbol
_atom_site_fract_x
_atom_site_fract_y
_atom_site_fract_z
S1 S 0.47927(6) 0.57251(7) 0.39748(2)
N1 N 0.50668(19) 0.4338(2) 0.36688(7)
O1 O 0.51385(19) 0.68310(19) 0.36727(7)
O2 O 0.54891(17) 0.5554(2) 0.44798(6)
C1 C -0.1383(3) 0.5864(5) 0.39775(16)
H1 H -0.1602 0.5369 0.4269
H2 H -0.1714 0.6780 0.3991
H3 H -0.1820 0.5435 0.3670
C2 C 0.0171(3) 0.5875(3) 0.39820(13)
C3 C 0.0775(3) 0.6507(3) 0.36116(12)
H4 H 0.0216 0.6967 0.3352
C4 C 0.2174(3) 0.6490(3) 0.36077(10)
H5 H 0.2559 0.6923 0.3348
C5 C 0.3005(2) 0.5823(2) 0.39927(9)
C6 C 0.2440(3) 0.5189(3) 0.43782(9)
H6 H 0.3005 0.4748 0.4641
C7 C 0.1021(3) 0.5218(3) 0.43685(11)
H7 H 0.0630 0.4787 0.4627
C8 C 0.4581(2) 0.4216(3) 0.31363(9)
C9 C 0.5301(3) 0.4888(3) 0.27948(10)
H8 H 0.6030 0.5463 0.2918
C10 C 0.4954(3) 0.4717(3) 0.22800(11)
H9 H 0.5434 0.5183 0.2054
C11 C 0.3894(3) 0.3855(3) 0.20973(10)
H10 H 0.3673 0.3709 0.1747
C12 C 0.3154(3) 0.3203(3) 0.24353(10)
H11 H 0.2429 0.2630 0.2307
C13 C 0.3459(2) 0.3380(2) 0.29623(9)
C14 C 0.2567(2) 0.2709(2) 0.32993(9)
C15 C 0.2949(2) 0.2271(2) 0.37800(10)
H12 H 0.2240 0.1854 0.3924
C16 C 0.4251(2) 0.2324(3) 0.41151(10)
C17 C 0.5439(2) 0.3075(3) 0.39450(10)
H13 H 0.6106 0.3281 0.4244
H14 H 0.5892 0.2481 0.3726
C18 C 0.4410(3) 0.1759(3) 0.45797(10)
H15 H 0.5229 0.1964 0.4792
C19 C 0.3448(2) 0.0855(3) 0.47948(10)
C20 C 0.3199(3) 0.1008(3) 0.52930(11)
H16 H 0.3640 0.1702 0.5493
C21 C 0.2307(3) 0.0150(3) 0.55011(11)
H17 H 0.2150 0.0289 0.5837
C22 C 0.1648(3) -0.0897(3) 0.52270(11)
C23 C 0.1921(3) -0.1072(3) 0.47338(11)
H18 H 0.1499 -0.1784 0.4539
C24 C 0.2804(3) -0.0218(3) 0.45220(10)
H19 H 0.2969 -0.0369 0.4188
C25 C 0.0679(3) -0.1836(3) 0.54529(12)
H20 H 0.0322 -0.2501 0.5202
H21 H 0.1171 -0.2285 0.5747
H22 H -0.0074 -0.1321 0.5554
C26 C 0.1066(3) 0.2552(3) 0.30939(9)
C27 C 0.0316(3) 0.3612(3) 0.28466(10)
H23 H 0.0769 0.4409 0.2779
C28 C -0.1087(3) 0.3504(4) 0.26998(11)
H24 H -0.1572 0.4230 0.2535
C29 C -0.1780(4) 0.2347(5) 0.27914(13)
H25 H -0.2733 0.2286 0.2694
C30 C -0.1069(4) 0.1295(4) 0.30239(13)
H26 H -0.1535 0.0499 0.3083
C31 C 0.0361(3) 0.1382(3) 0.31772(11)
H27 H 0.0838 0.0644 0.3337
loop_
_geom_bond_atom_site_label_1
_geom_bond_atom_site_label_2
_geom_bond_site_symmetry_1
_geom_bond_site_symmetry_2
S1 N1 1_555 1_555
N1 C8 1_555 1_555
O1 S1 1_555 1_555
O2 S1 1_555 1_555
C1 H1 1_555 1_555
H2 C1 1_555 1_555
H3 C1 1_555 1_555
C2 C1 1_555 1_555
C3 C2 1_555 1_555
H4 C3 1_555 1_555
C4 C3 1_555 1_555
H5 C4 1_555 1_555
C5 S1 1_555 1_555
C6 C5 1_555 1_555
H6 C6 1_555 1_555
C7 C2 1_555 1_555
H7 C7 1_555 1_555
C8 C9 1_555 1_555
C9 H8 1_555 1_555
C10 C9 1_555 1_555
H9 C10 1_555 1_555
C11 C10 1_555 1_555
H10 C11 1_555 1_555
C12 C11 1_555 1_555
H11 C12 1_555 1_555
C13 C8 1_555 1_555
C14 C13 1_555 1_555
C15 C14 1_555 1_555
H12 C15 1_555 1_555
C16 C15 1_555 1_555
C17 N1 1_555 1_555
H13 C17 1_555 1_555
H14 C17 1_555 1_555
C18 C16 1_555 1_555
H15 C18 1_555 1_555
C19 C18 1_555 1_555
C20 C19 1_555 1_555
H16 C20 1_555 1_555
C21 C20 1_555 1_555
H17 C21 1_555 1_555
C22 C21 1_555 1_555
C23 C22 1_555 1_555
H18 C23 1_555 1_555
C24 C19 1_555 1_555
H19 C24 1_555 1_555
C25 C22 1_555 1_555
H20 C25 1_555 1_555
H21 C25 1_555 1_555
H22 C25 1_555 1_555
C26 C14 1_555 1_555
C27 C26 1_555 1_555
H23 C27 1_555 1_555
C28 C27 1_555 1_555
H24 C28 1_555 1_555
C29 C28 1_555 1_555
H25 C29 1_555 1_555
C30 C29 1_555 1_555
H26 C30 1_555 1_555
C31 C26 1_555 1_555
H27 C31 1_555 1_555
C4 C5 1_555 1_555
C6 C7 1_555 1_555
C12 C13 1_555 1_555
C16 C17 1_555 1_555
C23 C24 1_555 1_555
C30 C31 1_555 1_555

#END
