
#######################################################################
#
#                 Cambridge Crystallographic Data Centre
#                                CCDC 
#
#######################################################################
#
# If this CIF has been generated from an entry in the Cambridge 
# Structural Database, then it will include bibliographic, chemical, 
# crystal, experimental, refinement or atomic coordinate data resulting 
# from the CCDC's data processing and validation procedures.
#
#######################################################################

data_MAXWAM
_chemical_formula_moiety         'C26 H25 N1 O2 S1'
_chemical_name_systematic        
3-isopropylidene-1-((4-methylphenyl)sulfonyl)-5-phenyl-2,3-dihydro-1H-1-benzazepine
_symmetry_cell_setting           monoclinic
_symmetry_space_group_name_H-M   'P 21/n'
_symmetry_Int_Tables_number      14
_space_group_name_Hall           '-P 2yn'
loop_
_symmetry_equiv_pos_site_id
_symmetry_equiv_pos_as_xyz
1 x,y,z
2 1/2-x,1/2+y,1/2-z
3 -x,-y,-z
4 1/2+x,1/2-y,1/2+z
_cell_length_a                   8.567(4)
_cell_length_b                   26.834(12)
_cell_length_c                   9.676(5)
_cell_angle_alpha                90
_cell_angle_beta                 100.176(9)
_cell_angle_gamma                90
_cell_volume                     2189.4
_exptl_crystal_colour            colorless
_exptl_crystal_description       block
_cell_formula_units_Z            4
loop_
_atom_site_label
_atom_site_type_symbol
_atom_site_fract_x
_atom_site_fract_y
_atom_site_fract_z
S1 S 1.11291(8) 0.14709(3) 1.22685(7)
N1 N 1.1308(2) 0.10187(8) 1.1182(2)
O1 O 1.2360(2) 0.18209(8) 1.2169(2)
O2 O 1.1056(2) 0.12408(8) 1.35812(18)
C1 C 0.4947(4) 0.25436(12) 1.0263(4)
H1 H 0.5120 0.2895 1.0405
H2 H 0.4160 0.2433 1.0788
H3 H 0.4586 0.2479 0.9283
C2 C 0.6478(3) 0.22670(10) 1.0755(3)
C3 C 0.7776(4) 0.23426(11) 1.0120(3)
H4 H 0.7695 0.2563 0.9370
C4 C 0.9185(4) 0.21000(10) 1.0567(3)
H5 H 1.0047 0.2156 1.0122
C5 C 0.9314(3) 0.17730(9) 1.1677(2)
C6 C 0.8026(3) 0.16886(9) 1.2325(3)
H6 H 0.8103 0.1465 1.3069
C7 C 0.6626(3) 0.19388(10) 1.1860(3)
H7 H 0.5762 0.1884 1.2303
C8 C 1.1592(3) 0.11232(10) 0.9795(3)
C9 C 1.3092(3) 0.12749(12) 0.9654(3)
H8 H 1.3859 0.1321 1.0452
C10 C 1.3472(4) 0.13595(14) 0.8348(4)
H9 H 1.4483 0.1466 0.8262
C11 C 1.2339(4) 0.12841(13) 0.7181(3)
H10 H 1.2581 0.1339 0.6293
C12 C 1.0849(3) 0.11278(11) 0.7313(3)
H11 H 1.0106 0.1073 0.6503
C13 C 1.0400(3) 0.10468(9) 0.8619(2)
C14 C 0.8739(3) 0.09064(9) 0.8662(2)
C15 C 0.8122(3) 0.06948(9) 0.9713(2)
H12 H 0.7025 0.0658 0.9518
C16 C 0.8853(3) 0.05151(9) 1.1087(3)
C17 C 1.0631(3) 0.05310(10) 1.1403(3)
H13 H 1.0983 0.0433 1.2372
H14 H 1.1040 0.0289 1.0814
C18 C 0.7988(4) 0.03485(10) 1.2025(3)
C19 C 0.8699(5) 0.01825(13) 1.3492(3)
H15 H 0.9835 0.0190 1.3605
H16 H 0.8355 -0.0151 1.3642
H17 H 0.8359 0.0403 1.4162
C20 C 0.6214(4) 0.03159(14) 1.1749(3)
H18 H 0.5813 0.0424 1.0807
H19 H 0.5795 0.0525 1.2400
H20 H 0.5896 -0.0023 1.1861
C21 C 0.7569(3) 0.10256(10) 0.7374(2)
C22 C 0.6591(3) 0.06603(11) 0.6676(3)
H21 H 0.6692 0.0334 0.7001
C23 C 0.5474(3) 0.07703(15) 0.5512(3)
H22 H 0.4823 0.0519 0.5068
C24 C 0.5315(4) 0.12449(17) 0.5006(3)
H23 H 0.4566 0.1318 0.4213
C25 C 0.6263(4) 0.16111(14) 0.5671(3)
H24 H 0.6160 0.1936 0.5332
C26 C 0.7382(3) 0.15018(11) 0.6851(3)
H25 H 0.8018 0.1756 0.7298
loop_
_geom_bond_atom_site_label_1
_geom_bond_atom_site_label_2
_geom_bond_site_symmetry_1
_geom_bond_site_symmetry_2
S1 N1 1_555 1_555
N1 C8 1_555 1_555
O1 S1 1_555 1_555
O2 S1 1_555 1_555
C1 H1 1_555 1_555
H2 C1 1_555 1_555
H3 C1 1_555 1_555
C2 C1 1_555 1_555
C3 C2 1_555 1_555
H4 C3 1_555 1_555
C4 C3 1_555 1_555
H5 C4 1_555 1_555
C5 S1 1_555 1_555
C6 C5 1_555 1_555
H6 C6 1_555 1_555
C7 C2 1_555 1_555
H7 C7 1_555 1_555
C8 C9 1_555 1_555
C9 H8 1_555 1_555
C10 C9 1_555 1_555
H9 C10 1_555 1_555
C11 C10 1_555 1_555
H10 C11 1_555 1_555
C12 C11 1_555 1_555
H11 C12 1_555 1_555
C13 C8 1_555 1_555
C14 C13 1_555 1_555
C15 C14 1_555 1_555
H12 C15 1_555 1_555
C16 C15 1_555 1_555
C17 N1 1_555 1_555
H13 C17 1_555 1_555
H14 C17 1_555 1_555
C18 C16 1_555 1_555
C19 C18 1_555 1_555
H15 C19 1_555 1_555
H16 C19 1_555 1_555
H17 C19 1_555 1_555
C20 C18 1_555 1_555
H18 C20 1_555 1_555
H19 C20 1_555 1_555
H20 C20 1_555 1_555
C21 C14 1_555 1_555
C22 C21 1_555 1_555
H21 C22 1_555 1_555
C23 C22 1_555 1_555
H22 C23 1_555 1_555
C24 C23 1_555 1_555
H23 C24 1_555 1_555
C25 C24 1_555 1_555
H24 C25 1_555 1_555
C26 C21 1_555 1_555
H25 C26 1_555 1_555
C4 C5 1_555 1_555
C6 C7 1_555 1_555
C12 C13 1_555 1_555
C16 C17 1_555 1_555
C25 C26 1_555 1_555

#END
