
#######################################################################
#
#                 Cambridge Crystallographic Data Centre
#                                CCDC 
#
#######################################################################
#
# If this CIF has been generated from an entry in the Cambridge 
# Structural Database, then it will include bibliographic, chemical, 
# crystal, experimental, refinement or atomic coordinate data resulting 
# from the CCDC's data processing and validation procedures.
#
#######################################################################

data_MAXYIW
_chemical_formula_moiety         'C14 H17 N1 O3'
_chemical_name_systematic        
'7-methoxy-3-methyl-1,2,3,4-tetrahydro-4aH-carbazol-4a-yl hydroperoxide'
_symmetry_cell_setting           monoclinic
_symmetry_space_group_name_H-M   'P 21/c'
_symmetry_Int_Tables_number      14
_space_group_name_Hall           '-P 2ybc'
loop_
_symmetry_equiv_pos_site_id
_symmetry_equiv_pos_as_xyz
1 x,y,z
2 -x,1/2+y,1/2-z
3 -x,-y,-z
4 x,1/2-y,1/2+z
_cell_length_a                   14.6135(2)
_cell_length_b                   5.85040(10)
_cell_length_c                   14.6942(2)
_cell_angle_alpha                90
_cell_angle_beta                 96.2796(15)
_cell_angle_gamma                90
_cell_volume                     1248.74
_exptl_crystal_colour            yellow
_exptl_crystal_description       plate
_cell_formula_units_Z            4
loop_
_atom_site_label
_atom_site_type_symbol
_atom_site_fract_x
_atom_site_fract_y
_atom_site_fract_z
N1 N 0.24887(6) 0.08009(16) 0.16085(6)
O1 O -0.07180(6) 0.24119(16) 0.06329(6)
O2 O 0.32786(6) 0.61238(13) 0.23238(5)
O3 O 0.31719(6) 0.64891(14) 0.13304(5)
C1 C 0.16471(7) 0.20891(18) 0.15817(7)
C2 C 0.08150(8) 0.1512(2) 0.11054(8)
C3 C 0.00873(8) 0.3066(2) 0.11317(8)
C4 C 0.01976(8) 0.5092(2) 0.16280(8)
C5 C 0.10504(8) 0.5611(2) 0.21139(8)
C6 C 0.17709(8) 0.41071(19) 0.20914(7)
C7 C 0.27600(7) 0.41477(18) 0.25053(8)
C8 C 0.29242(8) 0.3906(2) 0.35529(8)
C9 C 0.39304(8) 0.3310(2) 0.38838(8)
C10 C 0.42365(8) 0.1143(2) 0.34185(8)
C11 C 0.40818(7) 0.12719(19) 0.23633(8)
C12 C 0.31126(7) 0.19659(18) 0.20911(7)
C13 C 0.40537(10) 0.3032(3) 0.49243(8)
C14 C -0.14612(8) 0.3995(2) 0.05589(9)
H1 H 0.0757 0.0113 0.0776
H2 H 0.2885 0.7895 0.1331
H3 H -0.0278 0.6117 0.1626
H4 H 0.1119 0.6929 0.2460
H5 H 0.2522 0.2727 0.3751
H6 H 0.2765 0.5364 0.3842
H7 H 0.4332 0.4605 0.3757
H8 H 0.4912 0.0869 0.3582
H9 H 0.3921 -0.0145 0.3605
H10 H 0.4539 0.2457 0.2155
H11 H 0.4231 -0.0156 0.2116
H12 H 0.3912 0.4356 0.5231
H13 H 0.3699 0.1732 0.5113
H14 H 0.4729 0.2628 0.5123
H15 H -0.1980 0.3358 0.0164
H16 H -0.1313 0.5458 0.0358
H17 H -0.1690 0.4174 0.1148
loop_
_geom_bond_atom_site_label_1
_geom_bond_atom_site_label_2
_geom_bond_site_symmetry_1
_geom_bond_site_symmetry_2
N1 C1 1_555 1_555
O1 C3 1_555 1_555
O2 O3 1_555 1_555
O3 H2 1_555 1_555
C1 C2 1_555 1_555
C2 C3 1_555 1_555
C3 C4 1_555 1_555
C4 C5 1_555 1_555
C5 C6 1_555 1_555
C6 C1 1_555 1_555
C7 O2 1_555 1_555
C8 C7 1_555 1_555
C9 C8 1_555 1_555
C10 C9 1_555 1_555
C11 C10 1_555 1_555
C12 N1 1_555 1_555
C13 C9 1_555 1_555
C14 O1 1_555 1_555
H1 C2 1_555 1_555
H3 C4 1_555 1_555
H4 C5 1_555 1_555
H5 C8 1_555 1_555
H6 C8 1_555 1_555
H7 C9 1_555 1_555
H8 C10 1_555 1_555
H9 C10 1_555 1_555
H10 C11 1_555 1_555
H11 C11 1_555 1_555
H12 C13 1_555 1_555
H13 C13 1_555 1_555
H14 C13 1_555 1_555
H15 C14 1_555 1_555
H16 C14 1_555 1_555
H17 C14 1_555 1_555
C6 C7 1_555 1_555
C7 C12 1_555 1_555
C11 C12 1_555 1_555

#END
