
#######################################################################
#
#                 Cambridge Crystallographic Data Centre
#                                CCDC 
#
#######################################################################
#
# If this CIF has been generated from an entry in the Cambridge 
# Structural Database, then it will include bibliographic, chemical, 
# crystal, experimental, refinement or atomic coordinate data resulting 
# from the CCDC's data processing and validation procedures.
#
#######################################################################

data_MAYBAP
_chemical_formula_moiety         '2(C1 H6 N3 1+),C14 H8 O6 S2 2-,3(C14 H10)'
_chemical_name_systematic        
'bis(Guanidinium) 2,6-anthracenedisulfonate anthracene clathrate'
_symmetry_cell_setting           monoclinic
_symmetry_space_group_name_H-M   'P 21/n'
_symmetry_Int_Tables_number      14
_space_group_name_Hall           '-P 2yn'
loop_
_symmetry_equiv_pos_site_id
_symmetry_equiv_pos_as_xyz
1 x,y,z
2 1/2+x,1/2-y,1/2+z
3 -x,-y,-z
4 1/2-x,1/2+y,1/2-z
_cell_length_a                   7.559(5)
_cell_length_b                   11.964(11)
_cell_length_c                   26.849(17)
_cell_angle_alpha                90.00
_cell_angle_beta                 94.17(8)
_cell_angle_gamma                90.00
_cell_volume                     2421.68
_exptl_crystal_colour            'pale yellow'
_exptl_crystal_description       needles
_chemical_melting_point          'above 573K(dec.)'
_cell_formula_units_Z            2
loop_
_atom_site_label
_atom_site_type_symbol
_atom_site_fract_x
_atom_site_fract_y
_atom_site_fract_z
S1 S 0.5001(7) 0.0086(4) 0.20183(19)
O1 O 0.506(2) -0.1141(11) 0.2106(6)
C1 C 0.483(2) 0.0327(15) 0.1373(7)
O2 O 0.665(2) 0.0622(12) 0.2216(5)
C2 C 0.538(3) -0.048(2) 0.1039(8)
H5 H 0.5846 -0.1175 0.1159
O3 O 0.3433(18) 0.0599(12) 0.2223(5)
C3 C 0.524(3) -0.0245(17) 0.0519(8)
C4 C 0.447(3) 0.0824(17) 0.0348(7)
C5 C 0.418(3) 0.162(2) 0.0693(9)
H8 H 0.3893 0.2359 0.0579
C6 C 0.430(3) 0.142(2) 0.1194(9)
H9 H 0.4031 0.1992 0.1422
C7 C 0.568(3) -0.1039(17) 0.0165(7)
H10 H 0.6100 -0.1751 0.0278
C7B C 0.432(3) 0.1039(17) -0.0165(7)
C3B C 0.476(3) 0.0245(17) -0.0519(8)
C2B C 0.462(3) 0.048(2) -0.1039(8)
C1B C 0.517(2) -0.0327(15) -0.1373(7)
S1B S 0.4999(7) -0.0086(4) -0.20183(19)
O1B O 0.494(2) 0.1141(11) -0.2106(6)
O2B O 0.335(2) -0.0622(12) -0.2216(5)
O3B O 0.6567(18) -0.0599(12) -0.2223(5)
C6B C 0.570(3) -0.142(2) -0.1194(9)
C5B C 0.582(3) -0.162(2) -0.0693(9)
C4B C 0.553(3) -0.0824(17) -0.0348(7)
H8B H 0.6107 -0.2359 -0.0579
H9B H 0.5969 -0.1992 -0.1422
H5B H 0.4154 0.1175 -0.1159
H10B H 0.3900 0.1751 -0.0278
N1 N 0.861(2) -0.2097(15) 0.2409(7)
H1 H 0.8644 -0.2815 0.2482
H2 H 0.7584 -0.1743 0.2384
N2 N 1.004(2) -0.0517(15) 0.2213(7)
H3 H 1.1030 -0.0172 0.2153
H4 H 0.9026 -0.0152 0.2187
N3 N 1.149(2) -0.2117(15) 0.2381(7)
H6 H 1.2502 -0.1799 0.2324
H7 H 1.1460 -0.2826 0.2468
C8 C 1.007(3) -0.1557(19) 0.2339(7)
C9 C 0.565(3) -0.298(2) 0.3687(9)
H11 H 0.6100 -0.3705 0.3626
C10 C 0.522(3) -0.225(2) 0.3278(9)
H12 H 0.5499 -0.2442 0.2950
C11 C 0.440(4) -0.124(3) 0.3374(11)
H13 H 0.4042 -0.0768 0.3099
C12 C 0.406(3) -0.0862(18) 0.3874(8)
H14 H 0.3565 -0.0145 0.3926
C13 C 0.448(3) -0.1598(18) 0.4288(8)
C14 C 0.418(3) -0.1326(17) 0.4766(7)
H15 H 0.3685 -0.0614 0.4831
C15 C 0.456(3) -0.2064(19) 0.5170(8)
C16 C 0.426(3) -0.1772(18) 0.5657(7)
H16 H 0.3798 -0.1052 0.5721
C17 C 0.461(3) -0.2486(18) 0.6045(8)
H17 H 0.4388 -0.2264 0.6374
C18 C 0.533(4) -0.358(3) 0.5957(11)
H18 H 0.5450 -0.4117 0.6217
C19 C 0.583(3) -0.3824(19) 0.5472(8)
H19 H 0.6434 -0.4507 0.5419
C20 C 0.549(3) -0.3102(18) 0.5069(8)
C21 C 0.575(3) -0.3384(19) 0.4600(8)
H20 H 0.6191 -0.4111 0.4539
C22 C 0.540(3) -0.2647(17) 0.4180(7)
C23 C 0.599(3) 0.4474(19) 0.1018(8)
H21 H 0.6525 0.3776 0.1105
C24 C 0.567(3) 0.5191(19) 0.1382(9)
H22 H 0.6017 0.5014 0.1720
C25 C 0.483(3) 0.6201(18) 0.1261(8)
H23 H 0.4650 0.6717 0.1522
C26 C 0.426(3) 0.648(2) 0.0792(9)
H24 H 0.3615 0.7151 0.0728
C27 C 0.462(2) 0.5759(14) 0.0392(6)
C28 C 0.555(2) 0.4717(15) 0.0497(7)
C29 C 0.409(3) 0.6009(19) -0.0118(8)
H25 H 0.3474 0.6686 -0.0197
C29B C 0.591(3) 0.3991(19) 0.0118(8)
C27B C 0.538(2) 0.4241(14) -0.0392(6)
C26B C 0.574(3) 0.352(2) -0.0792(9)
C25B C 0.517(3) 0.3799(18) -0.1261(8)
C24B C 0.433(3) 0.4809(19) -0.1382(9)
C23B C 0.401(3) 0.5526(19) -0.1018(8)
H21B H 0.3475 0.6224 -0.1105
C28B C 0.445(2) 0.5283(15) -0.0497(7)
H22B H 0.3983 0.4986 -0.1720
H23B H 0.5350 0.3283 -0.1522
H24B H 0.6385 0.2849 -0.0728
H25B H 0.6526 0.3314 0.0197
loop_
_geom_bond_atom_site_label_1
_geom_bond_atom_site_label_2
_geom_bond_site_symmetry_1
_geom_bond_site_symmetry_2
S1 O1 1_555 1_555
N1 H1 1_555 1_555
H2 N1 1_555 1_555
C1 S1 1_555 1_555
O2 S1 1_555 1_555
N2 H3 1_555 1_555
H4 N2 1_555 1_555
C2 C1 1_555 1_555
H5 C2 1_555 1_555
O3 S1 1_555 1_555
N3 H6 1_555 1_555
H7 N3 1_555 1_555
C3 C2 1_555 1_555
C4 C3 1_555 1_555
C5 C4 1_555 1_555
H8 C5 1_555 1_555
C6 C1 1_555 1_555
H9 C6 1_555 1_555
C7 C3 1_555 1_555
H10 C7 1_555 1_555
C8 N1 1_555 1_555
C9 H11 1_555 1_555
C10 C9 1_555 1_555
H12 C10 1_555 1_555
C11 C10 1_555 1_555
H13 C11 1_555 1_555
C12 C11 1_555 1_555
H14 C12 1_555 1_555
C13 C12 1_555 1_555
C14 C13 1_555 1_555
H15 C14 1_555 1_555
C15 C14 1_555 1_555
C16 C15 1_555 1_555
H16 C16 1_555 1_555
C17 C16 1_555 1_555
H17 C17 1_555 1_555
C18 C17 1_555 1_555
H18 C18 1_555 1_555
C19 C18 1_555 1_555
H19 C19 1_555 1_555
C20 C15 1_555 1_555
C21 C20 1_555 1_555
H20 C21 1_555 1_555
C22 C9 1_555 1_555
C23 H21 1_555 1_555
C24 C23 1_555 1_555
H22 C24 1_555 1_555
C25 C24 1_555 1_555
H23 C25 1_555 1_555
C26 C25 1_555 1_555
H24 C26 1_555 1_555
C27 C26 1_555 1_555
C28 C23 1_555 1_555
C29 C27 1_555 1_555
H25 C29 1_555 1_555
C7B C4 1_555 1_555
C3B C7B 1_555 1_555
C2B C3B 1_555 1_555
C1B C2B 1_555 1_555
S1B C1B 1_555 1_555
O1B S1B 1_555 1_555
O2B S1B 1_555 1_555
O3B S1B 1_555 1_555
C6B C1B 1_555 1_555
C5B C6B 1_555 1_555
C4B C7 1_555 1_555
H8B C5B 1_555 1_555
H9B C6B 1_555 1_555
H5B C2B 1_555 1_555
H10B C7B 1_555 1_555
C29B C28 1_555 1_555
C27B C29B 1_555 1_555
C26B C27B 1_555 1_555
C25B C26B 1_555 1_555
C24B C25B 1_555 1_555
C23B C24B 1_555 1_555
H21B C23B 1_555 1_555
C28B C29 1_555 1_555
H22B C24B 1_555 1_555
H23B C25B 1_555 1_555
H24B C26B 1_555 1_555
H25B C29B 1_555 1_555
N2 C8 1_555 1_555
N3 C8 1_555 1_555
C5 C6 1_555 1_555
C13 C22 1_555 1_555
C19 C20 1_555 1_555
C21 C22 1_555 1_555
C27 C28 1_555 1_555
C3B C4B 1_555 1_555
C5B C4B 1_555 1_555
C27B C28B 1_555 1_555
C23B C28B 1_555 1_555

#END
