
#######################################################################
#
#                 Cambridge Crystallographic Data Centre
#                                CCDC 
#
#######################################################################
#
# If this CIF has been generated from an entry in the Cambridge 
# Structural Database, then it will include bibliographic, chemical, 
# crystal, experimental, refinement or atomic coordinate data resulting 
# from the CCDC's data processing and validation procedures.
#
#######################################################################

data_MAYBRP10
_chemical_formula_moiety         'C37 H51 Br1 Cl1 N3 O10'
_chemical_name_systematic        'Maytansine(3-bromopropyl) ether'
_chemical_properties_biological  'derivative of ansamycin-type antibiotic agent'
_symmetry_cell_setting           orthorhombic
_symmetry_space_group_name_H-M   'P 21 21 21'
_symmetry_Int_Tables_number      19
_space_group_name_Hall           'P 2ac 2ab'
loop_
_symmetry_equiv_pos_site_id
_symmetry_equiv_pos_as_xyz
1 x,y,z
2 1/2+x,1/2-y,-z
3 -x,1/2+y,1/2-z
4 1/2-x,-y,1/2+z
_cell_length_a                   24.239(4)
_cell_length_b                   16.044(4)
_cell_length_c                   10.415(2)
_cell_angle_alpha                90
_cell_angle_beta                 90
_cell_angle_gamma                90
_cell_volume                     4050.29
_chemical_melting_point          176-8deg.C
_cell_formula_units_Z            4
loop_
_atom_site_label
_atom_site_type_symbol
_atom_site_fract_x
_atom_site_fract_y
_atom_site_fract_z
Br1 Br -0.35600 -0.46990 0.19770
Cl1 Cl -0.77580 -0.21000 0.91360
C1 C -0.69830 -0.32200 0.63490
C2 C -0.38320 -0.45260 0.73540
C3 C -0.43440 -0.48740 0.78720
C4 C -0.45470 -0.43660 0.87710
C5 C -0.50900 -0.46130 0.94010
C6 C -0.54040 -0.41760 1.02310
C7 C -0.59510 -0.45160 1.07260
C8 C -0.64310 -0.39490 1.02260
C9 C -0.66700 -0.39620 0.90010
C10 C -0.70900 -0.34320 0.87590
C11 C -0.72990 -0.28030 0.95170
C12 C -0.65430 -0.27070 0.65000
C13 C -0.70360 -0.28050 1.08200
C14 C -0.66050 -0.33340 1.11700
C15 C -0.78450 -0.38920 0.73140
C16 C -0.58090 -0.45310 0.53590
C17 C -0.57560 -0.53110 0.60240
C18 C -0.56140 -0.59530 0.50060
C19 C -0.68050 -0.54900 0.56060
C20 C -0.63570 -0.60580 0.76100
C21 C -0.68240 -0.63870 0.82390
C22 C -0.52910 -0.22510 0.70480
C23 C -0.60840 -0.30480 0.55740
C24 C -0.44900 -0.18240 0.32280
C25 C -0.33010 -0.33190 0.46940
C26 C -0.38270 -0.56110 0.47640
C27 C -0.41440 -0.59700 0.35390
C28 C -0.42560 -0.52940 0.24970
C29 C -0.31380 -0.52630 0.86130
C30 C -0.52400 -0.32940 1.07210
C31 C -0.71180 -0.21620 1.29190
C32 C -0.55570 -0.25460 0.56430
C33 C -0.51680 -0.25390 0.45550
C34 C -0.45810 -0.22890 0.45370
C35 C -0.42440 -0.31800 0.45480
C36 C -0.42860 -0.35110 0.59200
C37 C -0.39150 -0.42340 0.59120
N1 N -0.72870 -0.34860 0.74370
N2 N -0.63170 -0.55930 0.65110
N3 N -0.33440 -0.40160 0.54750
O1 O -0.71630 -0.35370 0.53580
O2 O -0.72710 -0.21680 1.16090
O3 O -0.59260 -0.38690 0.61410
O4 O -0.57700 -0.43780 0.41540
O5 O -0.58900 -0.61440 0.80820
O6 O -0.55670 -0.18430 0.47930
O7 O -0.36970 -0.28580 0.43260
O8 O -0.27680 -0.32050 0.43490
O9 O -0.41850 -0.48790 0.51590
O10 O -0.34050 -0.52090 0.73150
loop_
_geom_bond_atom_site_label_1
_geom_bond_atom_site_label_2
_geom_bond_site_symmetry_1
_geom_bond_site_symmetry_2
Br1 C28 1_555 1_555
Cl1 C11 1_555 1_555
C1 C12 1_555 1_555
C2 C3 1_555 1_555
C3 C4 1_555 1_555
C4 C5 1_555 1_555
C5 C6 1_555 1_555
C6 C7 1_555 1_555
C7 C8 1_555 1_555
C8 C9 1_555 1_555
C9 C10 1_555 1_555
C10 C11 1_555 1_555
C11 C13 1_555 1_555
C12 C23 1_555 1_555
C13 C14 1_555 1_555
C14 C8 1_555 1_555
C15 N1 1_555 1_555
C16 C17 1_555 1_555
C17 C18 1_555 1_555
C19 N2 1_555 1_555
C20 C21 1_555 1_555
C22 C32 1_555 1_555
C23 C32 1_555 1_555
C24 C34 1_555 1_555
C25 N3 1_555 1_555
C26 C27 1_555 1_555
C27 C28 1_555 1_555
C29 O10 1_555 1_555
C30 C6 1_555 1_555
C31 O2 1_555 1_555
C32 C33 1_555 1_555
C33 C34 1_555 1_555
C34 C35 1_555 1_555
C35 C36 1_555 1_555
C36 C37 1_555 1_555
C37 C2 1_555 1_555
N1 C1 1_555 1_555
N2 C17 1_555 1_555
N3 C37 1_555 1_555
O1 C1 1_555 1_555
O2 C13 1_555 1_555
O3 C16 1_555 1_555
O4 C16 1_555 1_555
O5 C20 1_555 1_555
O6 C32 1_555 1_555
O7 C25 1_555 1_555
O8 C25 1_555 1_555
O9 C26 1_555 1_555
O10 C2 1_555 1_555
C10 N1 1_555 1_555
C20 N2 1_555 1_555
C23 O3 1_555 1_555
C33 O6 1_555 1_555
C35 O7 1_555 1_555
C37 O9 1_555 1_555

#END
