
#######################################################################
#
#                 Cambridge Crystallographic Data Centre
#                                CCDC 
#
#######################################################################
#
# If this CIF has been generated from an entry in the Cambridge 
# Structural Database, then it will include bibliographic, chemical, 
# crystal, experimental, refinement or atomic coordinate data resulting 
# from the CCDC's data processing and validation procedures.
#
#######################################################################

data_MAYCEX
_chemical_formula_moiety         'C32 H25 N3 O4'
_chemical_name_systematic        
10-hydroxy-8-(4-nitrophenyl)-2,4,6-triphenyl-2,3-diazaspiro[4.5]deca-3,6-dien-1-one
_symmetry_cell_setting           orthorhombic
_symmetry_space_group_name_H-M   'P 21 21 21'
_symmetry_Int_Tables_number      19
_space_group_name_Hall           'P 2ac 2ab'
loop_
_symmetry_equiv_pos_site_id
_symmetry_equiv_pos_as_xyz
1 x,y,z
2 1/2+x,1/2-y,-z
3 -x,1/2+y,1/2-z
4 1/2-x,-y,1/2+z
_cell_length_a                   9.9278(8)
_cell_length_b                   13.8213(12)
_cell_length_c                   19.0453(15)
_cell_angle_alpha                90
_cell_angle_beta                 90
_cell_angle_gamma                90
_cell_volume                     2613.3
_exptl_crystal_colour            colorless
_exptl_crystal_description       PLATE
_cell_formula_units_Z            4
_exptl_crystal_recrystallization_method 'Ethanol/Petroleum ether'
loop_
_atom_site_label
_atom_site_type_symbol
_atom_site_fract_x
_atom_site_fract_y
_atom_site_fract_z
O1 O 0.10320(16) 0.73883(10) 0.48274(8)
H1 H 0.033(3) 0.754(2) 0.4603(16)
O2 O 0.37234(12) 0.67836(10) 0.57400(7)
O3 O 0.8712(2) 0.4643(2) 0.24203(12)
O4 O 0.9398(2) 0.5565(2) 0.32533(12)
N1 N 0.18210(14) 0.66553(11) 0.64185(8)
N2 N 0.05203(14) 0.62597(11) 0.63634(8)
N3 N 0.8506(2) 0.51541(19) 0.29323(11)
C1 C 0.17128(16) 0.58911(12) 0.53391(9)
C2 C 0.24180(16) 0.49219(12) 0.52061(9)
C3 C 0.30127(18) 0.47409(13) 0.45942(9)
H2 H 0.3421 0.4139 0.4545
C4 C 0.3090(2) 0.54145(13) 0.39723(9)
H3 H 0.2478 0.5168 0.3611
C5 C 0.2630(2) 0.64426(13) 0.41665(10)
H4 H 0.3363 0.6779 0.4399
H5 H 0.2412 0.6795 0.3741
C6 C 0.14153(18) 0.64320(13) 0.46431(10)
H6 H 0.0665 0.6114 0.4402
C7 C 0.24281(17) 0.42056(12) 0.57956(9)
C8 C 0.3095(2) 0.44109(15) 0.64220(11)
H7 H 0.3557 0.4993 0.6469
C9 C 0.3080(3) 0.37630(19) 0.69746(12)
H8 H 0.3531 0.3912 0.7389
C10 C 0.2400(3) 0.28960(18) 0.69155(13)
H9 H 0.2379 0.2466 0.7291
C11 C 0.1754(3) 0.26728(16) 0.62988(14)
H10 H 0.1302 0.2086 0.6255
C12 C 0.1772(2) 0.33196(14) 0.57413(12)
H11 H 0.1339 0.3158 0.5325
C13 C 0.45098(19) 0.53954(12) 0.36730(9)
C14 C 0.4789(2) 0.48940(15) 0.30590(10)
H12 H 0.4088 0.4608 0.2810
C15 C 0.6093(2) 0.48131(17) 0.28110(11)
H13 H 0.6277 0.4468 0.2403
C16 C 0.7114(2) 0.52531(15) 0.31795(10)
C17 C 0.6876(2) 0.57778(15) 0.37802(10)
H14 H 0.7578 0.6082 0.4017
C18 C 0.5572(2) 0.58407(15) 0.40224(10)
H15 H 0.5398 0.6190 0.4430
C19 C 0.25755(16) 0.65047(11) 0.58323(9)
C20 C 0.2241(2) 0.70248(13) 0.70815(10)
C21 C 0.3531(2) 0.6849(2) 0.73161(13)
H16 H 0.4144 0.6531 0.7028
C22 C 0.3914(3) 0.7147(3) 0.79802(15)
H17 H 0.4777 0.7012 0.8144
C23 C 0.3025(4) 0.7637(3) 0.83944(15)
H18 H 0.3284 0.7838 0.8841
C24 C 0.1748(4) 0.7836(2) 0.81549(14)
H19 H 0.1156 0.8184 0.8436
C25 C 0.1332(3) 0.75207(15) 0.74948(12)
H20 H 0.0462 0.7642 0.7336
C26 C 0.04363(16) 0.58207(12) 0.57718(10)
C27 C -0.08236(18) 0.53422(14) 0.55608(11)
C28 C -0.2037(2) 0.56027(19) 0.58720(13)
H21 H -0.2066 0.6105 0.6197
C29 C -0.3203(2) 0.5109(3) 0.56950(16)
H22 H -0.4016 0.5286 0.5900
C30 C -0.3174(3) 0.4358(3) 0.52195(19)
H23 H -0.3958 0.4019 0.5116
C31 C -0.1994(3) 0.41151(19) 0.49018(18)
H24 H -0.1976 0.3616 0.4575
C32 C -0.0823(2) 0.46059(16) 0.50624(14)
H25 H -0.0026 0.4443 0.4835
loop_
_geom_bond_atom_site_label_1
_geom_bond_atom_site_label_2
_geom_bond_site_symmetry_1
_geom_bond_site_symmetry_2
O1 H1 1_555 1_555
O2 C19 1_555 1_555
O3 N3 1_555 1_555
O4 N3 1_555 1_555
N1 N2 1_555 1_555
N2 C26 1_555 1_555
N3 C16 1_555 1_555
C1 C2 1_555 1_555
C2 C3 1_555 1_555
C3 H2 1_555 1_555
C4 C3 1_555 1_555
H3 C4 1_555 1_555
C5 C4 1_555 1_555
H4 C5 1_555 1_555
H5 C5 1_555 1_555
C6 O1 1_555 1_555
H6 C6 1_555 1_555
C7 C2 1_555 1_555
C8 C7 1_555 1_555
H7 C8 1_555 1_555
C9 C8 1_555 1_555
H8 C9 1_555 1_555
C10 C9 1_555 1_555
H9 C10 1_555 1_555
C11 C10 1_555 1_555
H10 C11 1_555 1_555
C12 C7 1_555 1_555
H11 C12 1_555 1_555
C13 C4 1_555 1_555
C14 C13 1_555 1_555
H12 C14 1_555 1_555
C15 C14 1_555 1_555
H13 C15 1_555 1_555
C16 C15 1_555 1_555
C17 C16 1_555 1_555
H14 C17 1_555 1_555
C18 C13 1_555 1_555
H15 C18 1_555 1_555
C19 N1 1_555 1_555
C20 N1 1_555 1_555
C21 C20 1_555 1_555
H16 C21 1_555 1_555
C22 C21 1_555 1_555
H17 C22 1_555 1_555
C23 C22 1_555 1_555
H18 C23 1_555 1_555
C24 C23 1_555 1_555
H19 C24 1_555 1_555
C25 C20 1_555 1_555
H20 C25 1_555 1_555
C26 C1 1_555 1_555
C27 C26 1_555 1_555
C28 C27 1_555 1_555
H21 C28 1_555 1_555
C29 C28 1_555 1_555
H22 C29 1_555 1_555
C30 C29 1_555 1_555
H23 C30 1_555 1_555
C31 C30 1_555 1_555
H24 C31 1_555 1_555
C32 C27 1_555 1_555
H25 C32 1_555 1_555
C1 C6 1_555 1_555
C1 C19 1_555 1_555
C5 C6 1_555 1_555
C11 C12 1_555 1_555
C17 C18 1_555 1_555
C24 C25 1_555 1_555
C31 C32 1_555 1_555

#END
