
#######################################################################
#
#                 Cambridge Crystallographic Data Centre
#                                CCDC 
#
#######################################################################
#
# If this CIF has been generated from an entry in the Cambridge 
# Structural Database, then it will include bibliographic, chemical, 
# crystal, experimental, refinement or atomic coordinate data resulting 
# from the CCDC's data processing and validation procedures.
#
#######################################################################

data_MAYFOK
_chemical_formula_moiety         'C52 H50 N2 O4 Si1'
_chemical_name_systematic        
2,8-bis[2,6-bis(propan-2-yl)phenyl]-5,5-diethyl-1H-2,8-diaza-5-siladibenzo[cd,lm]cyclopenta[ghi]perylene-1,3,7,9(2H,5H,8H)-tetrone
_symmetry_cell_setting           orthorhombic
_symmetry_space_group_name_H-M   'P c a 21'
_symmetry_Int_Tables_number      29
_space_group_name_Hall           'P 2c -2ac'
loop_
_symmetry_equiv_pos_site_id
_symmetry_equiv_pos_as_xyz
1 x,y,z
2 -x,-y,1/2+z
3 1/2+x,-y,z
4 1/2-x,y,1/2+z
_cell_length_a                   20.800(5)
_cell_length_b                   13.066(3)
_cell_length_c                   16.207(4)
_cell_angle_alpha                90
_cell_angle_beta                 90
_cell_angle_gamma                90
_cell_volume                     4404.62
_exptl_crystal_colour            red
_exptl_crystal_description       plate
_cell_formula_units_Z            4
loop_
_atom_site_label
_atom_site_type_symbol
_atom_site_fract_x
_atom_site_fract_y
_atom_site_fract_z
Si1 Si 0.60373(11) 0.32343(16) 0.34572(16)
O1 O 0.7472(3) 0.6592(4) 0.4915(4)
O2 O 0.7823(3) 0.5595(5) 0.7586(4)
O3 O 0.4538(3) -0.0455(5) 0.3726(4)
O4 O 0.4608(3) -0.1364(4) 0.6430(4)
N1 N 0.7619(3) 0.6114(5) 0.6265(4)
N2 N 0.4561(3) -0.0894(5) 0.5082(4)
C1 C 0.8614(4) 0.7146(6) 0.6220(5)
C2 C 0.8929(4) 0.8032(7) 0.6420(6)
H1 H 0.9358 0.8110 0.6271
C3 C 0.8623(4) 0.8808(6) 0.6835(6)
H2 H 0.8852 0.9394 0.6975
C4 C 0.7987(5) 0.8735(7) 0.7047(6)
H3 H 0.7784 0.9275 0.7316
C5 C 0.7641(4) 0.7837(6) 0.6857(6)
C6 C 0.7964(4) 0.7058(5) 0.6425(5)
C7 C 0.8967(5) 0.6296(7) 0.5740(7)
H4 H 0.8689 0.5691 0.5733
C8 C 0.9599(5) 0.5995(8) 0.6159(7)
H5 H 0.9921 0.6501 0.6041
H6 H 0.9738 0.5342 0.5954
H7 H 0.9535 0.5954 0.6744
C9 C 0.9072(6) 0.6637(8) 0.4838(7)
H8 H 0.8664 0.6783 0.4587
H9 H 0.9282 0.6100 0.4538
H10 H 0.9334 0.7241 0.4828
C10 C 0.6936(4) 0.7762(8) 0.7075(7)
H11 H 0.6807 0.7042 0.7103
C11 C 0.7386(4) 0.5954(6) 0.5457(5)
C12 C 0.7026(4) 0.4966(6) 0.5303(5)
C13 C 0.6825(4) 0.4728(6) 0.4525(5)
H12 H 0.6928 0.5155 0.4085
C14 C 0.6461(4) 0.3831(6) 0.4389(5)
C15 C 0.6290(4) 0.3239(6) 0.5077(5)
C16 C 0.5894(4) 0.2360(6) 0.4921(5)
C17 C 0.5685(4) 0.2166(6) 0.4119(5)
C18 C 0.5297(4) 0.1310(6) 0.3954(5)
H13 H 0.5150 0.1188 0.3421
C19 C 0.5131(4) 0.0648(6) 0.4587(5)
C20 C 0.4732(5) -0.0257(6) 0.4407(6)
C21 C 0.4758(4) -0.0756(6) 0.5890(5)
C22 C 0.5162(4) 0.0157(6) 0.6062(5)
C23 C 0.5379(4) 0.0345(6) 0.6845(6)
H14 H 0.5281 -0.0111 0.7267
C24 C 0.5752(4) 0.1225(6) 0.7021(6)
H15 H 0.5878 0.1350 0.7562
C25 C 0.5933(4) 0.1900(6) 0.6416(5)
C26 C 0.6327(4) 0.2823(6) 0.6566(5)
C27 C 0.6535(4) 0.3113(6) 0.7342(5)
H16 H 0.6410 0.2730 0.7798
C28 C 0.6930(4) 0.3969(6) 0.7460(5)
H17 H 0.7077 0.4128 0.7986
C29 C 0.7104(4) 0.4579(6) 0.6798(5)
C30 C 0.7550(4) 0.5441(6) 0.6930(6)
C31 C 0.6882(4) 0.4338(6) 0.6003(5)
C32 C 0.6492(4) 0.3459(6) 0.5883(5)
C33 C 0.5723(4) 0.1690(6) 0.5595(5)
C34 C 0.5336(4) 0.0834(6) 0.5404(5)
C35 C 0.6581(5) 0.2655(7) 0.2668(6)
H18 H 0.6322 0.2346 0.2237
H19 H 0.6838 0.3191 0.2419
C36 C 0.7035(6) 0.1829(9) 0.3042(8)
H20 H 0.7318 0.1576 0.2620
H21 H 0.6784 0.1275 0.3258
H22 H 0.7285 0.2128 0.3478
C37 C 0.5421(5) 0.4126(7) 0.3019(7)
H23 H 0.5191 0.4440 0.3474
H24 H 0.5644 0.4667 0.2725
C38 C 0.4937(6) 0.3650(10) 0.2443(9)
H25 H 0.5143 0.3474 0.1933
H26 H 0.4597 0.4130 0.2339
H27 H 0.4762 0.3044 0.2692
C39 C 0.4203(4) -0.1831(6) 0.4890(6)
C40 C 0.4551(4) -0.2669(6) 0.4605(6)
C41 C 0.4207(5) -0.3555(7) 0.4449(6)
H28 H 0.4422 -0.4127 0.4247
C42 C 0.3555(5) -0.3609(7) 0.4586(6)
H29 H 0.3337 -0.4219 0.4491
C43 C 0.3224(5) -0.2765(6) 0.4863(6)
H30 H 0.2782 -0.2813 0.4945
C44 C 0.3536(4) -0.1833(6) 0.5023(6)
C45 C 0.5272(5) -0.2648(7) 0.4474(6)
H31 H 0.5429 -0.1971 0.4635
C46 C 0.5437(6) -0.2815(10) 0.3530(8)
H32 H 0.5235 -0.3432 0.3338
H33 H 0.5894 -0.2871 0.3464
H34 H 0.5281 -0.2244 0.3215
C47 C 0.5625(6) -0.3438(9) 0.4983(9)
H35 H 0.5555 -0.3305 0.5559
H36 H 0.6076 -0.3404 0.4864
H37 H 0.5467 -0.4109 0.4849
C48 C 0.3182(4) -0.0907(7) 0.5327(7)
H38 H 0.3453 -0.0577 0.5743
C49 C 0.3062(6) -0.0124(9) 0.4648(9)
H39 H 0.3457 0.0015 0.4363
H40 H 0.2900 0.0497 0.4886
H41 H 0.2752 -0.0391 0.4265
C50 C 0.2547(5) -0.1152(9) 0.5733(8)
H42 H 0.2252 -0.1409 0.5327
H43 H 0.2374 -0.0544 0.5979
H44 H 0.2612 -0.1661 0.6153
C51 C 0.6742(16) 0.831(4) 0.787(2)
H45 H 0.6956 0.7998 0.8333
H46 H 0.6285 0.8261 0.7947
H47 H 0.6864 0.9019 0.7840
C52 C 0.6530(14) 0.834(2) 0.636(3)
H48 H 0.6649 0.9053 0.6347
H49 H 0.6078 0.8285 0.6475
H50 H 0.6621 0.8035 0.5835
H51? H 0.6778 0.7104 0.6867
C53? C 0.654(2) 0.853(4) 0.675(3)
H52? H 0.6583 0.9144 0.7073
H53? H 0.6098 0.8309 0.6767
H54? H 0.6658 0.8670 0.6190
C54? C 0.6878(16) 0.774(3) 0.807(2)
H55? H 0.7067 0.7119 0.8272
H56? H 0.6433 0.7765 0.8221
H57? H 0.7100 0.8317 0.8294
loop_
_geom_bond_atom_site_label_1
_geom_bond_atom_site_label_2
_geom_bond_site_symmetry_1
_geom_bond_site_symmetry_2
Si1 C14 1_555 1_555
O1 C11 1_555 1_555
O2 C30 1_555 1_555
O3 C20 1_555 1_555
O4 C21 1_555 1_555
N1 C6 1_555 1_555
N2 C20 1_555 1_555
C1 C2 1_555 1_555
C2 H1 1_555 1_555
C3 C2 1_555 1_555
H2 C3 1_555 1_555
C4 C3 1_555 1_555
H3 C4 1_555 1_555
C5 C4 1_555 1_555
C6 C1 1_555 1_555
C7 C1 1_555 1_555
H4 C7 1_555 1_555
C8 C7 1_555 1_555
H5 C8 1_555 1_555
H6 C8 1_555 1_555
H7 C8 1_555 1_555
C9 C7 1_555 1_555
H8 C9 1_555 1_555
H9 C9 1_555 1_555
H10 C9 1_555 1_555
C10 C5 1_555 1_555
H11 C10 1_555 1_555
C11 N1 1_555 1_555
C12 C11 1_555 1_555
C13 C12 1_555 1_555
H12 C13 1_555 1_555
C14 C13 1_555 1_555
C15 C14 1_555 1_555
C16 C15 1_555 1_555
C17 Si1 1_555 1_555
C18 C17 1_555 1_555
H13 C18 1_555 1_555
C19 C18 1_555 1_555
C20 C19 1_555 1_555
C21 N2 1_555 1_555
C22 C21 1_555 1_555
C23 C22 1_555 1_555
H14 C23 1_555 1_555
C24 C23 1_555 1_555
H15 C24 1_555 1_555
C25 C24 1_555 1_555
C26 C25 1_555 1_555
C27 C26 1_555 1_555
H16 C27 1_555 1_555
C28 C27 1_555 1_555
H17 C28 1_555 1_555
C29 C28 1_555 1_555
C30 N1 1_555 1_555
C31 C12 1_555 1_555
C32 C15 1_555 1_555
C33 C16 1_555 1_555
C34 C19 1_555 1_555
C35 Si1 1_555 1_555
H18 C35 1_555 1_555
H19 C35 1_555 1_555
C36 C35 1_555 1_555
H20 C36 1_555 1_555
H21 C36 1_555 1_555
H22 C36 1_555 1_555
C37 Si1 1_555 1_555
H23 C37 1_555 1_555
H24 C37 1_555 1_555
C38 C37 1_555 1_555
H25 C38 1_555 1_555
H26 C38 1_555 1_555
H27 C38 1_555 1_555
C39 N2 1_555 1_555
C40 C39 1_555 1_555
C41 C40 1_555 1_555
H28 C41 1_555 1_555
C42 C41 1_555 1_555
H29 C42 1_555 1_555
C43 C42 1_555 1_555
H30 C43 1_555 1_555
C44 C39 1_555 1_555
C45 C40 1_555 1_555
H31 C45 1_555 1_555
C46 C45 1_555 1_555
H32 C46 1_555 1_555
H33 C46 1_555 1_555
H34 C46 1_555 1_555
C47 C45 1_555 1_555
H35 C47 1_555 1_555
H36 C47 1_555 1_555
H37 C47 1_555 1_555
C48 C44 1_555 1_555
H38 C48 1_555 1_555
C49 C48 1_555 1_555
H39 C49 1_555 1_555
H40 C49 1_555 1_555
H41 C49 1_555 1_555
C50 C48 1_555 1_555
H42 C50 1_555 1_555
H43 C50 1_555 1_555
H44 C50 1_555 1_555
C51 C10 1_555 1_555
H45 C51 1_555 1_555
H46 C51 1_555 1_555
H47 C51 1_555 1_555
C52 C10 1_555 1_555
H48 C52 1_555 1_555
H49 C52 1_555 1_555
H50 C52 1_555 1_555
C5 C6 1_555 1_555
C16 C17 1_555 1_555
C22 C34 1_555 1_555
C25 C33 1_555 1_555
C26 C32 1_555 1_555
C29 C30 1_555 1_555
C29 C31 1_555 1_555
C31 C32 1_555 1_555
C33 C34 1_555 1_555
C43 C44 1_555 1_555

#END
