
#######################################################################
#
#                 Cambridge Crystallographic Data Centre
#                                CCDC 
#
#######################################################################
#
# If this CIF has been generated from an entry in the Cambridge 
# Structural Database, then it will include bibliographic, chemical, 
# crystal, experimental, refinement or atomic coordinate data resulting 
# from the CCDC's data processing and validation procedures.
#
#######################################################################

data_MAYGIF
_chemical_formula_moiety         'C21 H14 Cl1 N1 O2'
_chemical_name_systematic        
6-chloro-3,3-diphenylquinoline-2,4(1H,3H)-dione
_symmetry_cell_setting           monoclinic
_symmetry_space_group_name_H-M   'P 21/c'
_symmetry_Int_Tables_number      14
_space_group_name_Hall           '-P 2ybc'
loop_
_symmetry_equiv_pos_site_id
_symmetry_equiv_pos_as_xyz
1 x,y,z
2 -x,1/2+y,1/2-z
3 -x,-y,-z
4 x,1/2-y,1/2+z
_cell_length_a                   8.153(2)
_cell_length_b                   25.811(7)
_cell_length_c                   8.009(2)
_cell_angle_alpha                90
_cell_angle_beta                 91.569(7)
_cell_angle_gamma                90
_cell_volume                     1684.76
_exptl_crystal_colour            yellow
_exptl_crystal_description       block
_cell_formula_units_Z            4
loop_
_atom_site_label
_atom_site_type_symbol
_atom_site_fract_x
_atom_site_fract_y
_atom_site_fract_z
C1 C 0.1892(5) 0.50486(17) 0.6389(5)
C2 C 0.1694(5) 0.45659(15) 0.5652(5)
H1 H 0.1132 0.4304 0.6192
C3 C 0.2349(5) 0.44806(14) 0.4092(5)
C4 C 0.3222(5) 0.48705(13) 0.3303(5)
C5 C 0.3351(6) 0.53609(15) 0.4040(6)
H2 H 0.3887 0.5627 0.3495
C6 C 0.2679(6) 0.54476(16) 0.5581(6)
H3 H 0.2756 0.5773 0.6073
C7 C 0.2078(4) 0.39814(14) 0.3191(5)
C8 C 0.3217(4) 0.38518(13) 0.1766(5)
C9 C 0.3915(5) 0.43347(14) 0.0903(5)
C10 C 0.2292(5) 0.35222(14) 0.0457(5)
C11 C 0.1011(6) 0.37472(17) -0.0464(7)
H4 H 0.0746 0.4092 -0.0271
C12 C 0.0127(6) 0.3474(2) -0.1648(7)
H5 H -0.0726 0.3634 -0.2246
C13 C 0.0501(8) 0.29643(19) -0.1951(8)
H6 H -0.0088 0.2778 -0.2760
C14 C 0.1752(9) 0.27337(19) -0.1048(9)
H7 H 0.2009 0.2388 -0.1244
C15 C 0.2642(7) 0.30113(16) 0.0161(7)
H8 H 0.3481 0.2849 0.0772
C16 C 0.4731(5) 0.35622(13) 0.2574(5)
C17 C 0.4715(6) 0.33889(16) 0.4225(6)
H9 H 0.3801 0.3443 0.4872
C18 C 0.6106(7) 0.3131(2) 0.4892(8)
H10 H 0.6106 0.3015 0.5992
C19 C 0.7431(7) 0.3049(2) 0.3970(9)
H11 H 0.8337 0.2878 0.4433
C20 C 0.7453(7) 0.32192(19) 0.2340(8)
H12 H 0.8373 0.3163 0.1703
C21 C 0.6097(6) 0.34748(18) 0.1652(6)
H13 H 0.6114 0.3588 0.0550
Cl1 Cl 0.11505(16) 0.51613(5) 0.83619(14)
N1 N 0.3922(4) 0.47861(12) 0.1767(4)
H14 H 0.4430 0.5046 0.1220
O1 O 0.1029(4) 0.36777(12) 0.3633(4)
O2 O 0.4473(4) 0.43109(10) -0.0480(4)
loop_
_geom_bond_atom_site_label_1
_geom_bond_atom_site_label_2
_geom_bond_site_symmetry_1
_geom_bond_site_symmetry_2
C1 C2 1_555 1_555
C2 H1 1_555 1_555
C3 C2 1_555 1_555
C4 C3 1_555 1_555
C5 C4 1_555 1_555
H2 C5 1_555 1_555
C6 C1 1_555 1_555
H3 C6 1_555 1_555
C7 C3 1_555 1_555
C8 C7 1_555 1_555
C9 C8 1_555 1_555
C10 C8 1_555 1_555
C11 C10 1_555 1_555
H4 C11 1_555 1_555
C12 C11 1_555 1_555
H5 C12 1_555 1_555
C13 C12 1_555 1_555
H6 C13 1_555 1_555
C14 C13 1_555 1_555
H7 C14 1_555 1_555
C15 C10 1_555 1_555
H8 C15 1_555 1_555
C16 C8 1_555 1_555
C17 C16 1_555 1_555
H9 C17 1_555 1_555
C18 C17 1_555 1_555
H10 C18 1_555 1_555
C19 C18 1_555 1_555
H11 C19 1_555 1_555
C20 C19 1_555 1_555
H12 C20 1_555 1_555
C21 C16 1_555 1_555
H13 C21 1_555 1_555
Cl1 C1 1_555 1_555
N1 C4 1_555 1_555
H14 N1 1_555 1_555
O1 C7 1_555 1_555
O2 C9 1_555 1_555
C5 C6 1_555 1_555
C9 N1 1_555 1_555
C14 C15 1_555 1_555
C20 C21 1_555 1_555

#END
