
#######################################################################
#
#                 Cambridge Crystallographic Data Centre
#                                CCDC 
#
#######################################################################
#
# If this CIF has been generated from an entry in the Cambridge 
# Structural Database, then it will include bibliographic, chemical, 
# crystal, experimental, refinement or atomic coordinate data resulting 
# from the CCDC's data processing and validation procedures.
#
#######################################################################

data_MAYHAY
_chemical_formula_moiety         'C24 H21 Cl1 N2 O1'
_chemical_name_systematic        
6-chloro-1-methyl-8'-phenyl-7',10'-dihydro-6'H-spiro[indole-3,5'-pyrrolo[1,2-a]azocin]-2(1H)-one
_symmetry_cell_setting           monoclinic
_symmetry_space_group_name_H-M   'P 21/n'
_symmetry_Int_Tables_number      14
_space_group_name_Hall           '-P 2yn'
loop_
_symmetry_equiv_pos_site_id
_symmetry_equiv_pos_as_xyz
1 x,y,z
2 1/2-x,1/2+y,1/2-z
3 -x,-y,-z
4 1/2+x,1/2-y,1/2+z
_cell_length_a                   7.5290(5)
_cell_length_b                   8.7083(6)
_cell_length_c                   29.448(2)
_cell_angle_alpha                90
_cell_angle_beta                 90
_cell_angle_gamma                90
_cell_volume                     1930.75
_exptl_crystal_colour            'light colorless'
_exptl_crystal_description       block
_cell_formula_units_Z            4
loop_
_atom_site_label
_atom_site_type_symbol
_atom_site_fract_x
_atom_site_fract_y
_atom_site_fract_z
Cl1 Cl 0.32928(8) 0.61368(9) 0.24149(2)
O1 O -0.5147(2) 0.4554(2) 0.35981(6)
N1 N -0.3683(2) 0.7682(2) 0.38166(6)
N2 N -0.2735(2) 0.4602(2) 0.31274(6)
C1 C -0.2628(3) 0.6277(2) 0.37605(7)
C2 C -0.2031(3) 0.5561(3) 0.42119(7)
H1 H -0.3054 0.5083 0.4354
H2 H -0.1180 0.4755 0.4146
C3 C -0.1195(3) 0.6665(3) 0.45531(7)
H3 H -0.0114 0.6198 0.4667
H4 H -0.0856 0.7592 0.4392
C4 C -0.2322(3) 0.7124(3) 0.49549(7)
C5 C -0.4085(3) 0.7240(3) 0.49459(7)
H5 H -0.4614 0.7487 0.5222
C6 C -0.5353(3) 0.7031(3) 0.45524(7)
H6 H -0.5340 0.5958 0.4463
H7 H -0.6545 0.7269 0.4656
C7 C -0.4962(2) 0.7985(3) 0.41447(7)
C8 C -0.5743(3) 0.9342(3) 0.40285(9)
H8 H -0.6638 0.9832 0.4191
C9 C -0.4981(3) 0.9880(3) 0.36237(9)
H9 H -0.5272 1.0781 0.3471
C10 C -0.3743(3) 0.8840(3) 0.34976(8)
H10 H -0.3044 0.8897 0.3238
C11 C -0.1331(3) 0.7501(2) 0.53773(7)
C12 C -0.1964(3) 0.7073(3) 0.58020(7)
H11 H -0.3004 0.6499 0.5821
C13 C -0.1096(3) 0.7474(3) 0.61947(8)
H12 H -0.1551 0.7171 0.6474
C14 C 0.0438(3) 0.8317(3) 0.61763(9)
H13 H 0.1011 0.8606 0.6443
C15 C 0.1125(3) 0.8735(3) 0.57618(9)
H14 H 0.2176 0.9292 0.5747
C16 C 0.0252(3) 0.8325(3) 0.53665(8)
H15 H 0.0733 0.8607 0.5088
C17 C -0.1036(2) 0.6499(2) 0.34516(7)
C18 C 0.0433(3) 0.7438(3) 0.34848(8)
H16 H 0.0521 0.8150 0.3719
C19 C 0.1777(3) 0.7310(3) 0.31648(8)
H17 H 0.2779 0.7931 0.3184
C20 C 0.1616(3) 0.6259(3) 0.28200(8)
C21 C 0.0156(3) 0.5299(3) 0.27726(7)
H18 H 0.0064 0.4599 0.2535
C22 C -0.1149(3) 0.5441(2) 0.30975(7)
C23 C -0.3704(3) 0.5057(3) 0.34954(8)
C24 C -0.3296(3) 0.3421(3) 0.28136(8)
H19 H -0.3451 0.3860 0.2517
H20 H -0.4401 0.2989 0.2915
H21 H -0.2410 0.2630 0.2800
loop_
_geom_bond_atom_site_label_1
_geom_bond_atom_site_label_2
_geom_bond_site_symmetry_1
_geom_bond_site_symmetry_2
Cl1 C20 1_555 1_555
O1 C23 1_555 1_555
N1 C1 1_555 1_555
N2 C22 1_555 1_555
C1 C2 1_555 1_555
C2 H1 1_555 1_555
H2 C2 1_555 1_555
C3 C2 1_555 1_555
H3 C3 1_555 1_555
H4 C3 1_555 1_555
C4 C3 1_555 1_555
C5 C4 1_555 1_555
H5 C5 1_555 1_555
C6 C5 1_555 1_555
H6 C6 1_555 1_555
H7 C6 1_555 1_555
C7 N1 1_555 1_555
C8 C7 1_555 1_555
H8 C8 1_555 1_555
C9 C8 1_555 1_555
H9 C9 1_555 1_555
C10 N1 1_555 1_555
H10 C10 1_555 1_555
C11 C4 1_555 1_555
C12 C11 1_555 1_555
H11 C12 1_555 1_555
C13 C12 1_555 1_555
H12 C13 1_555 1_555
C14 C13 1_555 1_555
H13 C14 1_555 1_555
C15 C14 1_555 1_555
H14 C15 1_555 1_555
C16 C11 1_555 1_555
H15 C16 1_555 1_555
C17 C1 1_555 1_555
C18 C17 1_555 1_555
H16 C18 1_555 1_555
C19 C18 1_555 1_555
H17 C19 1_555 1_555
C20 C19 1_555 1_555
C21 C20 1_555 1_555
H18 C21 1_555 1_555
C22 C17 1_555 1_555
C23 N2 1_555 1_555
C24 N2 1_555 1_555
H19 C24 1_555 1_555
H20 C24 1_555 1_555
H21 C24 1_555 1_555
C1 C23 1_555 1_555
C6 C7 1_555 1_555
C9 C10 1_555 1_555
C15 C16 1_555 1_555
C21 C22 1_555 1_555

#END
