
#######################################################################
#
#                 Cambridge Crystallographic Data Centre
#                                CCDC 
#
#######################################################################
#
# If this CIF has been generated from an entry in the Cambridge 
# Structural Database, then it will include bibliographic, chemical, 
# crystal, experimental, refinement or atomic coordinate data resulting 
# from the CCDC's data processing and validation procedures.
#
#######################################################################

data_MAYLII
_chemical_formula_moiety         'C27 H29 Br1 Cl1 N1 O3 S2'
_chemical_name_systematic        
(1S)-N-((2R)-2-(2-Chlorophenylsulfanyl)-2-(4-bromophenyl)pent-4-enoyl)-2,10-camphorsultam
_symmetry_cell_setting           orthorhombic
_symmetry_space_group_name_H-M   'P 21 21 21'
_symmetry_Int_Tables_number      19
_space_group_name_Hall           'P 2ac 2ab'
loop_
_symmetry_equiv_pos_site_id
_symmetry_equiv_pos_as_xyz
1 x,y,z
2 1/2-x,-y,1/2+z
3 -x,1/2+y,1/2-z
4 1/2+x,1/2-y,-z
_cell_length_a                   6.7184(13)
_cell_length_b                   17.702(4)
_cell_length_c                   22.591(5)
_cell_angle_alpha                90
_cell_angle_beta                 90
_cell_angle_gamma                90
_cell_volume                     2686.73
_exptl_crystal_colour            colorless
_exptl_crystal_description       block
_cell_formula_units_Z            4
loop_
_atom_site_label
_atom_site_type_symbol
_atom_site_fract_x
_atom_site_fract_y
_atom_site_fract_z
Br1 Br 0.62903(15) 0.91946(4) 0.86361(2)
Cl1 Cl 1.1173(3) 0.84408(9) 1.06560(8)
S1 S 0.6449(3) 1.18362(8) 1.05366(7)
S2 S 0.8904(3) 0.94835(8) 1.16007(7)
O1 O 0.9976(6) 1.0930(2) 1.16206(18)
O2 O 0.4420(6) 1.1581(2) 1.05744(17)
O3 O 0.7618(6) 1.1597(2) 1.00385(15)
N1 N 0.7661(7) 1.1635(3) 1.11823(17)
C1 C 0.8765(10) 1.2308(3) 1.1392(2)
H1 H 1.0117 1.2308 1.1229
C2 C 0.8840(10) 1.2406(3) 1.2076(2)
H2 H 0.8019 1.2034 1.2274
H3 H 1.0193 1.2371 1.2224
C3 C 0.7996(8) 1.3210(3) 1.2154(2)
H4 H 0.7623 1.3329 1.2563
C4 C 0.9434(9) 1.3780(3) 1.1882(2)
H5 H 1.0794 1.3677 1.2002
H6 H 0.9089 1.4292 1.1996
C5 C 0.9164(10) 1.3661(3) 1.1200(2)
H7 H 0.8653 1.4113 1.1010
H8 H 1.0405 1.3516 1.1013
C6 C 0.7632(9) 1.3014(3) 1.1182(2)
C7 C 0.6206(11) 1.3219(3) 1.1716(2)
C8 C 0.4583(8) 1.2648(3) 1.1841(2)
H9 H 0.5167 1.2158 1.1894
H10 H 0.3673 1.2634 1.1513
H11 H 0.3881 1.2791 1.2194
C9 C 0.5191(8) 1.3992(3) 1.1637(3)
H12 H 0.4123 1.3946 1.1357
H13 H 0.6145 1.4352 1.1494
H14 H 0.4673 1.4159 1.2011
C10 C 0.6630(10) 1.2838(2) 1.0590(2)
H15 H 0.7417 1.3037 1.0266
H16 H 0.5317 1.3064 1.0575
C11 C 0.8443(10) 1.0937(4) 1.1342(2)
C12 C 0.7234(10) 1.0207(3) 1.1255(2)
C13 C 0.7877(10) 0.8623(3) 1.1339(3)
C14 C 0.8800(12) 0.8189(4) 1.0926(3)
C15 C 0.8066(13) 0.7508(4) 1.0742(3)
H17 H 0.8787 0.7209 1.0481
C16 C 0.6266(16) 0.7276(4) 1.0948(3)
H18 H 0.5685 0.6840 1.0797
C17 C 0.5318(12) 0.7679(4) 1.1371(3)
H19 H 0.4149 0.7495 1.1537
C18 C 0.6078(13) 0.8360(4) 1.1556(3)
H20 H 0.5377 0.8647 1.1830
C19 C 0.5280(9) 1.0280(3) 1.1590(2)
H21 H 0.4469 1.0660 1.1397
H22 H 0.4574 0.9803 1.1565
C20 C 0.5498(10) 1.0490(3) 1.2235(2)
H23 H 0.6694 1.0377 1.2423
C21 C 0.4123(14) 1.0816(6) 1.2540(3)
H24 H 0.452(7) 1.087(3) 1.2969(15)
H25 H 0.298(7) 1.095(3) 1.239(2)
C22 C 0.6944(10) 0.9992(3) 1.0596(3)
C23 C 0.8596(12) 0.9972(3) 1.0223(3)
H26 H 0.9836 1.0112 1.0369
C24 C 0.8418(12) 0.9746(3) 0.9635(3)
H27 H 0.9513 0.9744 0.9383
C25 C 0.6563(13) 0.9526(3) 0.9439(2)
C26 C 0.4913(10) 0.9527(3) 0.9791(3)
H28 H 0.3688 0.9371 0.9643
C27 C 0.5105(10) 0.9771(3) 1.0385(3)
H29 H 0.3999 0.9782 1.0632
loop_
_geom_bond_atom_site_label_1
_geom_bond_atom_site_label_2
_geom_bond_site_symmetry_1
_geom_bond_site_symmetry_2
Br1 C25 1_555 1_555
Cl1 C14 1_555 1_555
S1 O2 1_555 1_555
S2 C12 1_555 1_555
O1 C11 1_555 1_555
O3 S1 1_555 1_555
N1 S1 1_555 1_555
C1 N1 1_555 1_555
H1 C1 1_555 1_555
C2 C1 1_555 1_555
H2 C2 1_555 1_555
H3 C2 1_555 1_555
C3 C2 1_555 1_555
H4 C3 1_555 1_555
C4 C3 1_555 1_555
H5 C4 1_555 1_555
H6 C4 1_555 1_555
C5 C4 1_555 1_555
H7 C5 1_555 1_555
H8 C5 1_555 1_555
C6 C1 1_555 1_555
C7 C3 1_555 1_555
C8 C7 1_555 1_555
H9 C8 1_555 1_555
H10 C8 1_555 1_555
H11 C8 1_555 1_555
C9 C7 1_555 1_555
H12 C9 1_555 1_555
H13 C9 1_555 1_555
H14 C9 1_555 1_555
C10 S1 1_555 1_555
H15 C10 1_555 1_555
H16 C10 1_555 1_555
C11 N1 1_555 1_555
C12 C11 1_555 1_555
C13 S2 1_555 1_555
C14 C13 1_555 1_555
C15 C14 1_555 1_555
H17 C15 1_555 1_555
C16 C15 1_555 1_555
H18 C16 1_555 1_555
C17 C16 1_555 1_555
H19 C17 1_555 1_555
C18 C13 1_555 1_555
H20 C18 1_555 1_555
C19 C12 1_555 1_555
H21 C19 1_555 1_555
H22 C19 1_555 1_555
C20 C19 1_555 1_555
H23 C20 1_555 1_555
C21 C20 1_555 1_555
H24 C21 1_555 1_555
H25 C21 1_555 1_555
C22 C12 1_555 1_555
C23 C22 1_555 1_555
H26 C23 1_555 1_555
C24 C23 1_555 1_555
H27 C24 1_555 1_555
C25 C24 1_555 1_555
C26 C25 1_555 1_555
H28 C26 1_555 1_555
C27 C22 1_555 1_555
H29 C27 1_555 1_555
C5 C6 1_555 1_555
C6 C7 1_555 1_555
C6 C10 1_555 1_555
C17 C18 1_555 1_555
C26 C27 1_555 1_555

#END
