
#######################################################################
#
#                 Cambridge Crystallographic Data Centre
#                                CCDC 
#
#######################################################################
#
# If this CIF has been generated from an entry in the Cambridge 
# Structural Database, then it will include bibliographic, chemical, 
# crystal, experimental, refinement or atomic coordinate data resulting 
# from the CCDC's data processing and validation procedures.
#
#######################################################################

data_MAYLAA
_chemical_formula_moiety         'C22 H28 Cl1 N1 O3 S2'
_chemical_name_systematic        
(1S)-N-((2S)-2-(2-Chlorophenylsulfanyl)-2-methylpent-4-enoyl)-2,10-camphorsultam
_symmetry_cell_setting           monoclinic
_symmetry_space_group_name_H-M   'C 2'
_symmetry_Int_Tables_number      5
_space_group_name_Hall           'C 2y'
loop_
_symmetry_equiv_pos_site_id
_symmetry_equiv_pos_as_xyz
1 x,y,z
2 -x,y,-z
3 1/2+x,1/2+y,z
4 1/2-x,1/2+y,-z
_cell_length_a                   34.764(7)
_cell_length_b                   7.7896(16)
_cell_length_c                   8.8527(18)
_cell_angle_alpha                90
_cell_angle_beta                 101.60(3)
_cell_angle_gamma                90
_cell_volume                     2348.33
_exptl_crystal_colour            colorless
_exptl_crystal_description       block
_cell_formula_units_Z            4
loop_
_atom_site_label
_atom_site_type_symbol
_atom_site_fract_x
_atom_site_fract_y
_atom_site_fract_z
Cl1 Cl 0.55332(9) 1.3693(4) 0.3086(2)
S1 S 0.62326(4) 1.21755(16) 0.57585(12)
S2 S 0.68911(3) 0.97318(18) 0.85379(11)
O1 O 0.58379(8) 1.0370(4) 0.8777(3)
O2 O 0.67527(10) 0.8393(5) 0.7439(3)
O3 O 0.70854(9) 1.1211(6) 0.8057(4)
N1 N 0.65143(9) 1.0359(5) 0.9377(3)
C1 C 0.64851(11) 0.9010(6) 1.0545(4)
H1 H 0.6352 0.7988 1.0046
C2 C 0.62918(11) 0.9606(8) 1.1873(4)
H2 H 0.6053 0.8974 1.1895
H3 H 0.6235 1.0827 1.1815
C3 C 0.66248(15) 0.9159(7) 1.3290(5)
H4 H 0.6585 0.9667 1.4260
C4 C 0.66801(16) 0.7178(8) 1.3366(6)
H5 H 0.6830 0.6830 1.4364
H6 H 0.6428 0.6597 1.3183
C5 C 0.69026(15) 0.6781(7) 1.2091(5)
H7 H 0.6760 0.5972 1.1352
H8 H 0.7162 0.6329 1.2507
C6 C 0.69245(11) 0.8567(6) 1.1363(4)
C7 C 0.70038(13) 0.9766(7) 1.2800(5)
C8 C 0.70201(17) 1.1725(7) 1.2477(7)
H9 H 0.7262 1.1993 1.2162
H10 H 0.7006 1.2352 1.3398
H11 H 0.6803 1.2038 1.1672
C9 C 0.73948(15) 0.9326(8) 1.3952(5)
H12 H 0.7614 0.9738 1.3545
H13 H 0.7416 0.8105 1.4090
H14 H 0.7395 0.9866 1.4927
C10 C 0.71864(12) 0.8775(9) 1.0220(5)
H15 H 0.7285 0.7668 0.9969
H16 H 0.7408 0.9508 1.0637
C11 C 0.61402(11) 1.1055(6) 0.8571(4)
C12 C 0.61260(12) 1.2711(6) 0.7646(5)
C13 C 0.58184(13) 1.0931(7) 0.4828(5)
C14 C 0.5527(2) 1.1568(10) 0.3628(6)
C15 C 0.5227(3) 1.045(2) 0.2829(10)
H17 H 0.5031 1.0871 0.2044
C16 C 0.5231(3) 0.878(2) 0.3223(13)
H18 H 0.5039 0.8044 0.2689
C17 C 0.5511(3) 0.8134(13) 0.4393(9)
H19 H 0.5504 0.6982 0.4662
C18 C 0.58036(17) 0.9168(9) 0.5178(6)
H20 H 0.5995 0.8699 0.5953
C19 C 0.57136(13) 1.3577(7) 0.7429(5)
H21 H 0.5706 1.4544 0.6734
H22 H 0.5516 1.2760 0.6947
C20 C 0.56114(16) 1.4188(7) 0.8888(6)
H23 H 0.5567 1.3370 0.9598
C21 C 0.5580(2) 1.5828(10) 0.9238(9)
H24 H 0.5407(18) 1.609(11) 1.001(8)
H25 H 0.560(2) 1.659(15) 0.839(11)
C22 C 0.64503(14) 1.4019(7) 0.8365(5)
H26 H 0.6428 1.5033 0.7737
H27 H 0.6704 1.3512 0.8415
H28 H 0.6419 1.4318 0.9385
loop_
_geom_bond_atom_site_label_1
_geom_bond_atom_site_label_2
_geom_bond_site_symmetry_1
_geom_bond_site_symmetry_2
Cl1 C14 1_555 1_555
S1 C12 1_555 1_555
S2 O2 1_555 1_555
O1 C11 1_555 1_555
O3 S2 1_555 1_555
N1 S2 1_555 1_555
C1 N1 1_555 1_555
H1 C1 1_555 1_555
C2 C1 1_555 1_555
H2 C2 1_555 1_555
H3 C2 1_555 1_555
C3 C2 1_555 1_555
H4 C3 1_555 1_555
C4 C3 1_555 1_555
H5 C4 1_555 1_555
H6 C4 1_555 1_555
C5 C4 1_555 1_555
H7 C5 1_555 1_555
H8 C5 1_555 1_555
C6 C1 1_555 1_555
C7 C3 1_555 1_555
C8 C7 1_555 1_555
H9 C8 1_555 1_555
H10 C8 1_555 1_555
H11 C8 1_555 1_555
C9 C7 1_555 1_555
H12 C9 1_555 1_555
H13 C9 1_555 1_555
H14 C9 1_555 1_555
C10 S2 1_555 1_555
H15 C10 1_555 1_555
H16 C10 1_555 1_555
C11 N1 1_555 1_555
C12 C11 1_555 1_555
C13 S1 1_555 1_555
C14 C13 1_555 1_555
C15 C14 1_555 1_555
H17 C15 1_555 1_555
C16 C15 1_555 1_555
H18 C16 1_555 1_555
C17 C16 1_555 1_555
H19 C17 1_555 1_555
C18 C13 1_555 1_555
H20 C18 1_555 1_555
C19 C12 1_555 1_555
H21 C19 1_555 1_555
H22 C19 1_555 1_555
C20 C19 1_555 1_555
H23 C20 1_555 1_555
C21 C20 1_555 1_555
H24 C21 1_555 1_555
H25 C21 1_555 1_555
C22 C12 1_555 1_555
H26 C22 1_555 1_555
H27 C22 1_555 1_555
H28 C22 1_555 1_555
C5 C6 1_555 1_555
C6 C7 1_555 1_555
C6 C10 1_555 1_555
C17 C18 1_555 1_555

#END
