
#######################################################################
#
#                 Cambridge Crystallographic Data Centre
#                                CCDC 
#
#######################################################################
#
# If this CIF has been generated from an entry in the Cambridge 
# Structural Database, then it will include bibliographic, chemical, 
# crystal, experimental, refinement or atomic coordinate data resulting 
# from the CCDC's data processing and validation procedures.
#
#######################################################################

data_MAYNOS
_chemical_formula_moiety         'C15 H18 O4'
_chemical_name_systematic        
1a,5,7a-trimethyl-1a,6a,7a,8,9,9a-hexahydrobisoxireno[4,5:8,9]cyclodeca[1,2-b]furan-6(2H)-one
_symmetry_cell_setting           orthorhombic
_symmetry_space_group_name_H-M   'P 21 21 21'
_symmetry_Int_Tables_number      19
_space_group_name_Hall           'P 2ac 2ab'
loop_
_symmetry_equiv_pos_site_id
_symmetry_equiv_pos_as_xyz
1 x,y,z
2 1/2+x,1/2-y,-z
3 -x,1/2+y,1/2-z
4 1/2-x,-y,1/2+z
_cell_length_a                   10.00752(7)
_cell_length_b                   10.47651(7)
_cell_length_c                   25.54441(16)
_cell_angle_alpha                90
_cell_angle_beta                 90
_cell_angle_gamma                90
_cell_volume                     2678.18
_cell_formula_units_Z            8
loop_
_atom_site_label
_atom_site_type_symbol
_atom_site_fract_x
_atom_site_fract_y
_atom_site_fract_z
O1 O 0.46718(9) 0.07233(8) 0.03413(3)
O2 O 0.60703(11) -0.39855(9) -0.08399(4)
O3 O 0.48575(10) -0.36570(9) 0.08638(3)
O4 O 0.43122(10) -0.23378(8) -0.13438(3)
C1 C 0.53252(13) -0.33667(11) -0.05595(5)
C2 C 0.51595(13) -0.05307(11) 0.01935(4)
C3 C 0.42427(13) -0.00299(12) -0.11161(5)
H1 H 0.32941(13) -0.02189(12) -0.11061(5)
H2 H 0.44236(13) 0.04270(12) -0.14387(5)
C4 C 0.51910(12) -0.36752(11) 0.00029(4)
C5 C 0.45978(13) 0.08285(11) -0.06507(5)
H3 H 0.55478(13) 0.10120(11) -0.06540(5)
H4 H 0.41188(13) 0.16305(11) -0.06785(5)
C6 C 0.44671(13) -0.23226(11) -0.07843(4)
H5 H 0.36619(13) -0.21119(11) -0.05838(4)
C7 C 0.64651(14) -0.11965(13) -0.12658(5)
H6 H 0.6911(3) -0.1964(5) -0.1158(4)
H7 H 0.65420(14) -0.1102(11) -0.16384(7)
H8 H 0.6869(3) -0.0476(6) -0.1096(4)
C8 C 0.48795(13) -0.29248(11) 0.04239(5)
C9 C 0.53574(13) -0.49679(11) 0.01988(5)
C10 C 0.66387(13) -0.05966(12) 0.00956(5)
H9 H 0.6921(2) 0.0156(5) -0.0088(4)
H10 H 0.71022(14) -0.0651(10) 0.04238(5)
H11 H 0.68377(17) -0.1337(6) -0.0112(3)
C11 C 0.50173(13) -0.12701(11) -0.11175(4)
C12 C 0.42322(12) 0.01762(11) -0.01483(5)
H12 H 0.33135(12) -0.01470(11) -0.01402(5)
C13 C 0.51211(15) -0.48948(12) 0.07147(5)
H13 H 0.51335(15) -0.55885(12) 0.09418(5)
C14 C 0.56390(16) -0.61589(12) -0.01080(5)
H14 H 0.5038(8) -0.6208(6) -0.0400(3)
H15 H 0.6543(4) -0.6140(5) -0.0233(4)
H16 H 0.5516(11) -0.68910(13) 0.01128(14)
C15 C 0.45791(14) -0.15546(12) 0.05451(5)
H17 H 0.48836(14) -0.13864(12) 0.08989(5)
H18 H 0.36156(14) -0.14538(12) 0.05446(5)
O5 O 0.47717(9) 0.27984(8) 0.15564(4)
O6 O 0.21380(9) 0.25640(9) 0.12002(3)
O7 O 0.16483(10) -0.12355(9) 0.26240(4)
O8 O 0.60272(10) -0.12781(9) 0.18586(3)
C16 C 0.48950(13) -0.05577(11) 0.18786(4)
C17 C 0.28367(12) 0.15233(11) 0.14427(4)
H19 H 0.25923(12) 0.06674(11) 0.13211(4)
C18 C 0.69941(13) -0.05644(14) 0.16125(5)
H20 H 0.78579(13) -0.08472(14) 0.15448(5)
C19 C 0.32679(13) 0.05012(12) 0.28111(5)
H21 H 0.25376(13) 0.0913(7) 0.2987(3)
H22 H 0.3817(8) 0.00689(19) 0.3063(2)
H23 H 0.3792(9) 0.1129(6) 0.26304(7)
C20 C 0.20878(14) 0.32567(13) 0.21254(5)
H24 H 0.2967(5) 0.3589(7) 0.2061(3)
H25 H 0.1445(7) 0.3933(5) 0.2097(3)
H26 H 0.2052(11) 0.2898(3) 0.24710(5)
C21 C 0.72468(13) 0.16294(15) 0.11943(5)
H27 H 0.7390(10) 0.2341(5) 0.14242(14)
H28 H 0.8093(5) 0.1314(4) 0.1073(4)
H29 H 0.6719(5) 0.1898(8) 0.0900(3)
C22 C 0.65277(12) 0.05931(13) 0.14831(5)
C23 C 0.51422(12) 0.06065(11) 0.16511(4)
C24 C 0.17741(12) 0.22377(12) 0.17291(5)
C25 C 0.04389(12) 0.15889(14) 0.17911(5)
H30 H -0.02505(12) 0.22324(14) 0.18310(5)
H31 H 0.02430(12) 0.11044(14) 0.14768(5)
C26 C 0.13831(13) -0.03751(12) 0.21911(5)
H32 H 0.13067(13) -0.08053(12) 0.18517(5)
C27 C 0.27307(13) -0.04504(11) 0.24235(4)
C28 C 0.42861(12) 0.17299(11) 0.15576(4)
C29 C 0.37689(14) -0.12486(12) 0.21435(5)
H33 H 0.33134(14) -0.17588(12) 0.18817(5)
H34 H 0.41530(14) -0.18349(12) 0.23960(5)
C30 C 0.04058(13) 0.06926(14) 0.22641(5)
H35 H 0.06274(13) 0.11658(14) 0.25787(5)
H36 H -0.04868(13) 0.03463(14) 0.23055(5)
loop_
_geom_bond_atom_site_label_1
_geom_bond_atom_site_label_2
_geom_bond_site_symmetry_1
_geom_bond_site_symmetry_2
O1 C2 1_555 1_555
O2 C1 1_555 1_555
O3 C8 1_555 1_555
O4 C6 1_555 1_555
C1 C4 1_555 1_555
C2 C10 1_555 1_555
C3 H1 1_555 1_555
H2 C3 1_555 1_555
C4 C8 1_555 1_555
C5 C3 1_555 1_555
H3 C5 1_555 1_555
H4 C5 1_555 1_555
C6 C1 1_555 1_555
H5 C6 1_555 1_555
C7 H6 1_555 1_555
H7 C7 1_555 1_555
H8 C7 1_555 1_555
C8 C15 1_555 1_555
C9 C4 1_555 1_555
C10 H9 1_555 1_555
H10 C10 1_555 1_555
H11 C10 1_555 1_555
C11 O4 1_555 1_555
C12 O1 1_555 1_555
H12 C12 1_555 1_555
C13 O3 1_555 1_555
H13 C13 1_555 1_555
C14 C9 1_555 1_555
H14 C14 1_555 1_555
H15 C14 1_555 1_555
H16 C14 1_555 1_555
C15 C2 1_555 1_555
H17 C15 1_555 1_555
H18 C15 1_555 1_555
O5 C28 1_555 1_555
O6 C17 1_555 1_555
O7 C26 1_555 1_555
O8 C16 1_555 1_555
C16 C23 1_555 1_555
C17 H19 1_555 1_555
C18 O8 1_555 1_555
H20 C18 1_555 1_555
C19 H21 1_555 1_555
H22 C19 1_555 1_555
H23 C19 1_555 1_555
C20 H24 1_555 1_555
H25 C20 1_555 1_555
H26 C20 1_555 1_555
C21 H27 1_555 1_555
H28 C21 1_555 1_555
H29 C21 1_555 1_555
C22 C18 1_555 1_555
C23 C22 1_555 1_555
C24 O6 1_555 1_555
C25 C24 1_555 1_555
H30 C25 1_555 1_555
H31 C25 1_555 1_555
C26 H32 1_555 1_555
C27 O7 1_555 1_555
C28 C17 1_555 1_555
C29 C16 1_555 1_555
H33 C29 1_555 1_555
H34 C29 1_555 1_555
C30 C25 1_555 1_555
H35 C30 1_555 1_555
H36 C30 1_555 1_555
C2 C12 1_555 1_555
C3 C11 1_555 1_555
C5 C12 1_555 1_555
C6 C11 1_555 1_555
C7 C11 1_555 1_555
C9 C13 1_555 1_555
C17 C24 1_555 1_555
C19 C27 1_555 1_555
C20 C24 1_555 1_555
C21 C22 1_555 1_555
C23 C28 1_555 1_555
C26 C27 1_555 1_555
C26 C30 1_555 1_555
C27 C29 1_555 1_555

#END
