
#######################################################################
#
#                 Cambridge Crystallographic Data Centre
#                                CCDC 
#
#######################################################################
#
# If this CIF has been generated from an entry in the Cambridge 
# Structural Database, then it will include bibliographic, chemical, 
# crystal, experimental, refinement or atomic coordinate data resulting 
# from the CCDC's data processing and validation procedures.
#
#######################################################################

data_MAYPIL
_chemical_formula_moiety         'C13 H24 O2 S2 Si1'
_chemical_name_systematic        
1,1-Dioxo-3-(tri-isopropylsilyl)-1,4-dithiacyclohexa-2,5-diene
_symmetry_cell_setting           triclinic
_symmetry_space_group_name_H-M   'P -1'
_symmetry_Int_Tables_number      2
_space_group_name_Hall           '-P 1'
loop_
_symmetry_equiv_pos_site_id
_symmetry_equiv_pos_as_xyz
1 x,y,z
2 -x,-y,-z
_cell_length_a                   7.9504(5)
_cell_length_b                   15.8566(10)
_cell_length_c                   16.0012(10)
_cell_angle_alpha                118.6320(10)
_cell_angle_beta                 98.4490(10)
_cell_angle_gamma                97.3550(10)
_cell_volume                     1704.97
_exptl_crystal_colour            colorless
_exptl_crystal_description       block
_cell_formula_units_Z            4
loop_
_atom_site_label
_atom_site_type_symbol
_atom_site_fract_x
_atom_site_fract_y
_atom_site_fract_z
Si1 Si 0.23476(7) 0.75320(4) 0.99570(4)
S2 S -0.03339(9) 0.64852(4) 0.79654(4)
S3 S -0.07854(7) 0.87124(4) 0.83237(3)
C1 C 0.0806(2) 0.76202(14) 0.89794(13)
C4 C 0.0561(3) 0.84854(14) 0.91128(13)
H2 H 0.1191 0.9038 0.9703
O1 O -0.1763(2) 0.93968(12) 0.88580(11)
O3 O 0.0257(2) 0.89881(15) 0.77995(13)
C9 C 0.4064(3) 0.87180(17) 1.06767(16)
H7 H 0.3428 0.9246 1.0848
C10 C 0.3177(3) 0.63798(17) 0.93067(18)
H8 H 0.2140 0.5835 0.8936
C11 C 0.0968(3) 0.73980(19) 1.07696(17)
H9 H 0.1773 0.7402 1.1299
C13 C -0.1979(3) 0.67385(18) 0.73717(16)
H11 H -0.2821 0.6194 0.6874
C19 C -0.2213(3) 0.76012(19) 0.75240(17)
H27 H -0.3240 0.7609 0.7168
C20 C 0.4231(5) 0.6146(2) 1.0021(2)
H28 H 0.4453 0.5500 0.9663
H29 H 0.3579 0.6165 1.0487
H30 H 0.5320 0.6626 1.0360
C22 C 0.0140(4) 0.8282(3) 1.1266(2)
H34 H -0.0689 0.8300 1.0778
H35 H 0.1034 0.8881 1.1607
H36 H -0.0443 0.8217 1.1724
C23 C 0.5327(4) 0.8885(2) 1.0111(3)
H37 H 0.5999 0.9554 1.0484
H38 H 0.4680 0.8763 0.9493
H39 H 0.6098 0.8443 0.9998
C24 C -0.0401(4) 0.6414(3) 1.0262(2)
H40 H -0.0990 0.6377 1.0730
H41 H 0.0169 0.5875 1.0001
H42 H -0.1234 0.6375 0.9739
C25 C 0.4201(4) 0.6348(2) 0.8555(2)
H43 H 0.5342 0.6774 0.8892
H44 H 0.3592 0.6565 0.8157
H45 H 0.4308 0.5684 0.8147
C26 C 0.5072(4) 0.8879(2) 1.1660(2)
H46 H 0.5657 0.8353 1.1538
H47 H 0.4269 0.8888 1.2056
H48 H 0.5917 0.9498 1.1997
Si2 Si 0.56329(6) 0.75369(4) 0.41584(4)
S1 S 0.30310(6) 0.58323(3) 0.53900(3)
S4 S 0.38594(9) 0.82075(4) 0.58987(4)
C2 C 0.4577(2) 0.72521(13) 0.50212(12)
C3 C 0.4261(2) 0.63336(14) 0.48596(13)
H1 H 0.4775 0.5899 0.4395
O2 O 0.41672(19) 0.56369(12) 0.60310(11)
C5 C 0.3756(2) 0.73284(15) 0.31573(14)
H3 H 0.4276 0.7428 0.2684
O4 O 0.1736(2) 0.50110(12) 0.46113(11)
C6 C 0.6975(3) 0.66046(17) 0.36078(16)
H4 H 0.6196 0.5958 0.3348
C7 C 0.2061(3) 0.67429(17) 0.61013(16)
H5 H 0.1186 0.6567 0.6353
C8 C 0.6814(3) 0.88746(15) 0.48732(16)
H6 H 0.5937 0.9247 0.5129
C12 C 0.2450(3) 0.76696(17) 0.63208(15)
H10 H 0.1888 0.8091 0.6764
C14 C 0.2654(3) 0.62731(19) 0.25974(18)
H12 H 0.2121 0.6140 0.3035
H13 H 0.3386 0.5821 0.2330
H14 H 0.1762 0.6194 0.2075
C15 C 0.2601(3) 0.8074(2) 0.35186(18)
H15 H 0.1659 0.7921 0.2982
H16 H 0.3286 0.8727 0.3775
H17 H 0.2134 0.8039 0.4024
C16 C 0.8259(4) 0.9157(2) 0.5768(2)
H18 H 0.9185 0.8836 0.5557
H19 H 0.7792 0.8955 0.6181
H20 H 0.8705 0.9860 0.6129
C17 C 0.7531(3) 0.6594(2) 0.27165(19)
H21 H 0.8280 0.7219 0.2927
H22 H 0.6512 0.6475 0.2236
H23 H 0.8146 0.6080 0.2433
C18 C 0.7505(4) 0.9241(2) 0.4233(2)
H24 H 0.7934 0.9944 0.4613
H25 H 0.6579 0.9073 0.3684
H26 H 0.8437 0.8934 0.4002
C21 C 0.8540(3) 0.6665(2) 0.4336(2)
H31 H 0.9019 0.6096 0.4019
H32 H 0.8166 0.6686 0.4887
H33 H 0.9416 0.7252 0.4556
loop_
_geom_bond_atom_site_label_1
_geom_bond_atom_site_label_2
_geom_bond_site_symmetry_1
_geom_bond_site_symmetry_2
Si1 C1 1_555 1_555
Si2 C2 1_555 1_555
S1 C3 1_555 1_555
S2 C1 1_555 1_555
S3 C4 1_555 1_555
S4 C2 1_555 1_555
C1 C4 1_555 1_555
C2 C3 1_555 1_555
C3 H1 1_555 1_555
C4 H2 1_555 1_555
O1 S3 1_555 1_555
O2 S1 1_555 1_555
C5 Si2 1_555 1_555
H3 C5 1_555 1_555
O3 S3 1_555 1_555
O4 S1 1_555 1_555
C6 Si2 1_555 1_555
H4 C6 1_555 1_555
C7 S1 1_555 1_555
H5 C7 1_555 1_555
C8 Si2 1_555 1_555
H6 C8 1_555 1_555
C9 Si1 1_555 1_555
H7 C9 1_555 1_555
C10 Si1 1_555 1_555
H8 C10 1_555 1_555
C11 Si1 1_555 1_555
H9 C11 1_555 1_555
C12 S4 1_555 1_555
H10 C12 1_555 1_555
C13 S2 1_555 1_555
H11 C13 1_555 1_555
C14 C5 1_555 1_555
H12 C14 1_555 1_555
H13 C14 1_555 1_555
H14 C14 1_555 1_555
C15 C5 1_555 1_555
H15 C15 1_555 1_555
H16 C15 1_555 1_555
H17 C15 1_555 1_555
C16 C8 1_555 1_555
H18 C16 1_555 1_555
H19 C16 1_555 1_555
H20 C16 1_555 1_555
C17 C6 1_555 1_555
H21 C17 1_555 1_555
H22 C17 1_555 1_555
H23 C17 1_555 1_555
C18 C8 1_555 1_555
H24 C18 1_555 1_555
H25 C18 1_555 1_555
H26 C18 1_555 1_555
C19 S3 1_555 1_555
H27 C19 1_555 1_555
C20 C10 1_555 1_555
H28 C20 1_555 1_555
H29 C20 1_555 1_555
H30 C20 1_555 1_555
C21 C6 1_555 1_555
H31 C21 1_555 1_555
H32 C21 1_555 1_555
H33 C21 1_555 1_555
C22 C11 1_555 1_555
H34 C22 1_555 1_555
H35 C22 1_555 1_555
H36 C22 1_555 1_555
C23 C9 1_555 1_555
H37 C23 1_555 1_555
H38 C23 1_555 1_555
H39 C23 1_555 1_555
C24 C11 1_555 1_555
H40 C24 1_555 1_555
H41 C24 1_555 1_555
H42 C24 1_555 1_555
C25 C10 1_555 1_555
H43 C25 1_555 1_555
H44 C25 1_555 1_555
H45 C25 1_555 1_555
C26 C9 1_555 1_555
H46 C26 1_555 1_555
H47 C26 1_555 1_555
H48 C26 1_555 1_555
C7 C12 1_555 1_555
C13 C19 1_555 1_555

#END
