
#######################################################################
#
#                 Cambridge Crystallographic Data Centre
#                                CCDC 
#
#######################################################################
#
# If this CIF has been generated from an entry in the Cambridge 
# Structural Database, then it will include bibliographic, chemical, 
# crystal, experimental, refinement or atomic coordinate data resulting 
# from the CCDC's data processing and validation procedures.
#
#######################################################################

data_MAYPAG
_chemical_formula_moiety         'C15 H16 O3'
_chemical_name_systematic        
3,5,8a-trimethyl-4a,5,8a,9-tetrahydronaphtho[2,3-b]furan-4,6-dione
_symmetry_cell_setting           orthorhombic
_symmetry_space_group_name_H-M   'P 21 21 21'
_symmetry_Int_Tables_number      19
_space_group_name_Hall           'P 2ac 2ab'
loop_
_symmetry_equiv_pos_site_id
_symmetry_equiv_pos_as_xyz
1 x,y,z
2 1/2+x,1/2-y,-z
3 -x,1/2+y,1/2-z
4 1/2-x,-y,1/2+z
_cell_length_a                   7.32512(7)
_cell_length_b                   11.56744(12)
_cell_length_c                   15.08191(16)
_cell_angle_alpha                90
_cell_angle_beta                 90
_cell_angle_gamma                90
_cell_volume                     1277.93
_cell_formula_units_Z            4
loop_
_atom_site_label
_atom_site_type_symbol
_atom_site_fract_x
_atom_site_fract_y
_atom_site_fract_z
O1 O -0.18294(14) -0.54364(7) -1.00256(5)
O2 O -0.20144(15) -0.13813(7) -1.14171(6)
O3 O -0.20223(13) -0.79074(7) -1.23971(5)
C1 C -0.17920(18) -0.33771(9) -1.10187(7)
H1 H -0.28860(18) -0.34311(9) -1.06470(7)
C2 C -0.16975(16) -0.55640(10) -1.08254(7)
C3 C -0.24872(17) -0.26486(10) -1.26021(8)
H2 H -0.24992(17) -0.20481(10) -1.30121(8)
C4 C -0.17115(16) -0.66967(10) -1.12536(7)
C5 C -0.18317(17) -0.85473(10) -1.16226(8)
H3 H -0.18239(17) -0.93508(10) -1.16016(8)
C6 C -0.48489(17) -0.49036(11) -1.19551(8)
H4 H -0.4933(3) -0.5582(5) -1.1591(6)
H5 H -0.5213(5) -0.4239(4) -1.1617(6)
H6 H -0.5637(3) -0.4986(9) -1.24595(8)
C7 C -0.20914(17) -0.23848(10) -1.16704(8)
C8 C -0.19480(16) -0.67832(9) -1.21467(8)
C9 C -0.28643(16) -0.47486(9) -1.22721(7)
C10 C -0.16602(16) -0.78626(10) -1.09085(8)
C11 C -0.15465(15) -0.45485(9) -1.14790(7)
H7 H -0.03032(15) -0.45626(9) -1.17188(7)
C12 C -0.28298(17) -0.37193(10) -1.28805(8)
H8 H -0.30588(17) -0.38360(10) -1.34804(8)
C13 C -0.0191(2) -0.30700(11) -1.04107(9)
H9 H 0.0910(3) -0.3024(10) -1.07541(16)
H10 H -0.0419(7) -0.2337(5) -1.0133(6)
H11 H -0.0060(10) -0.3655(5) -0.9964(5)
C14 C -0.22456(18) -0.58338(10) -1.27922(8)
H12 H -0.11244(18) -0.56726(10) -1.31112(8)
H13 H -0.31746(18) -0.60541(10) -1.32183(8)
C15 C -0.14884(18) -0.82413(11) -0.99642(9)
H14 H -0.0405(8) -0.7912(7) -0.9710(2)
H15 H -0.2537(7) -0.7986(8) -0.96363(18)
H16 H -0.1413(14) -0.90693(12) -0.99401(10)
loop_
_geom_bond_atom_site_label_1
_geom_bond_atom_site_label_2
_geom_bond_site_symmetry_1
_geom_bond_site_symmetry_2
O1 C2 1_555 1_555
O2 C7 1_555 1_555
O3 C5 1_555 1_555
C1 H1 1_555 1_555
C2 C4 1_555 1_555
C3 H2 1_555 1_555
C4 C8 1_555 1_555
C5 H3 1_555 1_555
C6 H4 1_555 1_555
H5 C6 1_555 1_555
H6 C6 1_555 1_555
C7 C1 1_555 1_555
C8 O3 1_555 1_555
C9 C6 1_555 1_555
C10 C4 1_555 1_555
C11 C1 1_555 1_555
H7 C11 1_555 1_555
C12 C3 1_555 1_555
H8 C12 1_555 1_555
C13 C1 1_555 1_555
H9 C13 1_555 1_555
H10 C13 1_555 1_555
H11 C13 1_555 1_555
C14 C8 1_555 1_555
H12 C14 1_555 1_555
H13 C14 1_555 1_555
C15 C10 1_555 1_555
H14 C15 1_555 1_555
H15 C15 1_555 1_555
H16 C15 1_555 1_555
C2 C11 1_555 1_555
C3 C7 1_555 1_555
C5 C10 1_555 1_555
C9 C11 1_555 1_555
C9 C12 1_555 1_555
C9 C14 1_555 1_555

#END
