
#######################################################################
#
#                 Cambridge Crystallographic Data Centre
#                                CCDC 
#
#######################################################################
#
# If this CIF has been generated from an entry in the Cambridge 
# Structural Database, then it will include bibliographic, chemical, 
# crystal, experimental, refinement or atomic coordinate data resulting 
# from the CCDC's data processing and validation procedures.
#
#######################################################################

data_MAYSEM
_chemical_formula_moiety         'C22 H22 N4 O2 S1'
_chemical_name_systematic        
5-(Morpholin-4-ylmethyl)-2-(phenoxymethyl)-6-phenylimidazo[2,1-b][1,3,4]thiadiazole
_symmetry_cell_setting           monoclinic
_symmetry_space_group_name_H-M   'P 21/c'
_symmetry_Int_Tables_number      14
_space_group_name_Hall           '-P 2ybc'
loop_
_symmetry_equiv_pos_site_id
_symmetry_equiv_pos_as_xyz
1 x,y,z
2 -x,1/2+y,1/2-z
3 -x,-y,-z
4 x,1/2-y,1/2+z
_cell_length_a                   19.072(5)
_cell_length_b                   9.090(2)
_cell_length_c                   11.852(3)
_cell_angle_alpha                90
_cell_angle_beta                 94.827(4)
_cell_angle_gamma                90
_cell_volume                     2047.43
_cell_formula_units_Z            4
loop_
_atom_site_label
_atom_site_type_symbol
_atom_site_fract_x
_atom_site_fract_y
_atom_site_fract_z
C1 C 0.54533(12) 0.3173(3) 0.33142(19)
C2 C 0.54899(12) 0.4152(3) 0.24301(19)
H1 H 0.5155 0.4891 0.2306
C3 C 0.60283(15) 0.4016(3) 0.1736(2)
H2 H 0.6056 0.4679 0.1143
C4 C 0.65220(17) 0.2936(4) 0.1892(3)
H3 H 0.6879 0.2858 0.1408
C5 C 0.64875(14) 0.1970(4) 0.2767(3)
H4 H 0.6824 0.1233 0.2880
C6 C 0.59515(13) 0.2080(3) 0.3492(2)
H5 H 0.5930 0.1422 0.4089
C7 C 0.43701(11) 0.4170(3) 0.38464(17)
H6 H 0.4120 0.3933 0.3123
H7 H 0.4531 0.5181 0.3823
C8 C 0.39026(11) 0.3973(2) 0.47735(16)
C9 C 0.33471(10) 0.3213(2) 0.64342(16)
C10 C 0.24609(10) 0.3911(2) 0.72624(16)
C11 C 0.24570(10) 0.4792(2) 0.63188(15)
C12 C 0.20199(11) 0.6074(2) 0.59124(16)
H8 H 0.1837 0.6544 0.6561
H9 H 0.2321 0.6780 0.5574
C13 C 0.10342(13) 0.7066(3) 0.4802(2)
H10 H 0.1346 0.7799 0.4523
H11 H 0.0845 0.7456 0.5476
C14 C 0.04417(15) 0.6762(3) 0.3914(3)
H12 H 0.0109 0.6097 0.4223
H13 H 0.0197 0.7675 0.3719
C15 C 0.10400(17) 0.4826(3) 0.3215(2)
H14 H 0.1202 0.4398 0.2534
H15 H 0.0724 0.4130 0.3529
C16 C 0.16584(13) 0.5103(3) 0.40572(18)
H16 H 0.1905 0.4186 0.4227
H17 H 0.1982 0.5777 0.3735
C17 C 0.19770(11) 0.3963(2) 0.81612(16)
C18 C 0.12577(11) 0.4146(2) 0.79294(18)
H18 H 0.1071 0.4261 0.7184
C19 C 0.08158(13) 0.4161(3) 0.8791(2)
H19 H 0.0333 0.4266 0.8621
C20 C 0.10821(14) 0.4021(3) 0.9901(2)
H20 H 0.0782 0.4033 1.0480
C21 C 0.17987(14) 0.3862(3) 1.01477(19)
H21 H 0.1983 0.3779 1.0897
C22 C 0.22385(12) 0.3826(2) 0.92916(17)
H22 H 0.2720 0.3708 0.9467
N1 N 0.33542(9) 0.47811(18) 0.48648(13)
N2 N 0.30392(8) 0.43235(17) 0.58042(12)
N3 N 0.30219(9) 0.29160(19) 0.73341(14)
N4 N 0.14297(9) 0.57221(17) 0.50892(13)
O1 O 0.49466(9) 0.3211(2) 0.40699(14)
O2 O 0.06735(11) 0.6145(2) 0.29358(15)
S1 S 0.40851(3) 0.26139(6) 0.58093(5)
loop_
_geom_bond_atom_site_label_1
_geom_bond_atom_site_label_2
_geom_bond_site_symmetry_1
_geom_bond_site_symmetry_2
C1 C2 1_555 1_555
C2 H1 1_555 1_555
C3 C2 1_555 1_555
H2 C3 1_555 1_555
C4 C3 1_555 1_555
H3 C4 1_555 1_555
C5 C4 1_555 1_555
H4 C5 1_555 1_555
C6 C1 1_555 1_555
H5 C6 1_555 1_555
C7 H6 1_555 1_555
H7 C7 1_555 1_555
C8 C7 1_555 1_555
C9 N2 1_555 1_555
C10 C11 1_555 1_555
C11 C12 1_555 1_555
C12 H8 1_555 1_555
H9 C12 1_555 1_555
C13 H10 1_555 1_555
H11 C13 1_555 1_555
C14 C13 1_555 1_555
H12 C14 1_555 1_555
H13 C14 1_555 1_555
C15 H14 1_555 1_555
H15 C15 1_555 1_555
C16 C15 1_555 1_555
H16 C16 1_555 1_555
H17 C16 1_555 1_555
C17 C10 1_555 1_555
C18 C17 1_555 1_555
H18 C18 1_555 1_555
C19 C18 1_555 1_555
H19 C19 1_555 1_555
C20 C19 1_555 1_555
H20 C20 1_555 1_555
C21 C20 1_555 1_555
H21 C21 1_555 1_555
C22 C17 1_555 1_555
H22 C22 1_555 1_555
N1 C8 1_555 1_555
N2 C11 1_555 1_555
N3 C9 1_555 1_555
N4 C12 1_555 1_555
O1 C1 1_555 1_555
O2 C14 1_555 1_555
S1 C8 1_555 1_555
C5 C6 1_555 1_555
C7 O1 1_555 1_555
C9 S1 1_555 1_555
C10 N3 1_555 1_555
C13 N4 1_555 1_555
C15 O2 1_555 1_555
C16 N4 1_555 1_555
C21 C22 1_555 1_555
N1 N2 1_555 1_555

#END
