
#######################################################################
#
#                 Cambridge Crystallographic Data Centre
#                                CCDC 
#
#######################################################################
#
# If this CIF has been generated from an entry in the Cambridge 
# Structural Database, then it will include bibliographic, chemical, 
# crystal, experimental, refinement or atomic coordinate data resulting 
# from the CCDC's data processing and validation procedures.
#
#######################################################################

data_MAYVOY
_chemical_formula_moiety         'C25 H19 F2 N3 O2 S1'
_chemical_name_systematic        
6,7-Difluoro-8-phenylsulfonyl-2,3-diphenyl-1,2,3,4-tetrahydropyrido(2,3-b)pyrazine
_symmetry_cell_setting           orthorhombic
_symmetry_space_group_name_H-M   'P b c a'
_symmetry_Int_Tables_number      61
_space_group_name_Hall           '-P 2ac 2ab'
loop_
_symmetry_equiv_pos_site_id
_symmetry_equiv_pos_as_xyz
1 x,y,z
2 1/2-x,-y,1/2+z
3 -x,1/2+y,1/2-z
4 1/2+x,1/2-y,-z
5 -x,-y,-z
6 1/2+x,y,1/2-z
7 x,1/2-y,1/2+z
8 1/2-x,1/2+y,z
_cell_length_a                   18.7318(4)
_cell_length_b                   9.9214(2)
_cell_length_c                   23.5820(5)
_cell_angle_alpha                90
_cell_angle_beta                 90
_cell_angle_gamma                90
_cell_volume                     4382.61
_exptl_crystal_colour            'light yellow'
_exptl_crystal_description       prism
_chemical_melting_point          '185.4-186.9 deg.C'
_cell_formula_units_Z            8
loop_
_atom_site_label
_atom_site_type_symbol
_atom_site_fract_x
_atom_site_fract_y
_atom_site_fract_z
S1 S 0.159999(16) 1.03307(3) 0.453703(13)
F1 F 0.01271(4) 0.77955(9) 0.59931(3)
F2 F 0.08218(4) 1.00358(9) 0.56230(3)
O1 O 0.12061(5) 1.15520(10) 0.46265(4)
O2 O 0.18876(5) 1.00586(11) 0.39813(4)
N1 N 0.12110(6) 0.76453(12) 0.38436(5)
N2 N 0.04158(6) 0.56059(12) 0.43129(5)
N3 N 0.02885(5) 0.67563(11) 0.51512(4)
C1 C 0.13060(7) 0.62740(14) 0.36279(5)
C2 C 0.05945(7) 0.55023(14) 0.37151(5)
C3 C 0.03941(6) 0.78415(14) 0.54624(5)
C4 C 0.07521(7) 0.89491(14) 0.52823(5)
C5 C 0.10623(6) 0.89370(13) 0.47339(5)
C6 C 0.09665(6) 0.78062(13) 0.43903(5)
C7 C 0.05483(6) 0.67185(13) 0.46243(5)
C8 C 0.23138(7) 1.02819(13) 0.50254(5)
C9 C 0.22864(7) 1.11114(14) 0.54985(6)
C10 C 0.28433(8) 1.10602(16) 0.58865(6)
C11 C 0.34104(8) 1.01918(16) 0.58016(7)
C12 C 0.34371(7) 0.93761(15) 0.53268(7)
C13 C 0.28832(7) 0.94076(14) 0.49317(7)
C14 C 0.15445(7) 0.62843(14) 0.30171(5)
C15 C 0.20494(7) 0.53509(15) 0.28384(6)
C16 C 0.22399(8) 0.52677(17) 0.22699(7)
C17 C 0.19224(8) 0.61073(16) 0.18769(6)
C18 C 0.14247(8) 0.70561(15) 0.20524(6)
C19 C 0.12385(7) 0.71491(14) 0.26208(6)
C20 C -0.00053(7) 0.59815(14) 0.33290(6)
C21 C -0.01470(9) 0.52905(16) 0.28288(7)
C22 C -0.06677(11) 0.5766(2) 0.24552(8)
C23 C -0.10525(10) 0.6916(2) 0.25847(9)
C24 C -0.09212(9) 0.75957(19) 0.30837(8)
C25 C -0.04003(7) 0.71370(16) 0.34562(7)
H1 H 0.1507(10) 0.8235(19) 0.3728(8)
H2 H 0.0205(11) 0.4906(19) 0.4484(8)
H3 H 0.1679(8) 0.5773(16) 0.3854(7)
H4 H 0.0687(8) 0.4561(16) 0.3641(6)
H5 H 0.1904(9) 1.1710(17) 0.5553(7)
H6 H 0.2817(9) 1.1634(18) 0.6219(7)
H7 H 0.3781(10) 1.0159(19) 0.6073(8)
H8 H 0.3835(11) 0.878(2) 0.5248(8)
H9 H 0.2877(8) 0.8833(17) 0.4612(7)
H10 H 0.2259(9) 0.4739(18) 0.3116(7)
H11 H 0.2601(11) 0.461(2) 0.2160(8)
H12 H 0.2023(9) 0.6041(18) 0.1487(8)
H13 H 0.1193(9) 0.7667(18) 0.1779(7)
H14 H 0.0877(9) 0.7760(18) 0.2744(8)
H15 H 0.0121(9) 0.4556(17) 0.2739(7)
H16 H -0.0727(12) 0.527(2) 0.2093(10)
H17 H -0.1416(12) 0.726(2) 0.2325(10)
H18 H -0.1188(11) 0.839(2) 0.3185(9)
H19 H -0.0329(9) 0.7632(18) 0.3804(8)
loop_
_geom_bond_atom_site_label_1
_geom_bond_atom_site_label_2
_geom_bond_site_symmetry_1
_geom_bond_site_symmetry_2
S1 O1 1_555 1_555
F1 C3 1_555 1_555
F2 C4 1_555 1_555
O2 S1 1_555 1_555
N1 C1 1_555 1_555
N2 C2 1_555 1_555
N3 C3 1_555 1_555
C1 C2 1_555 1_555
C2 C20 1_555 1_555
C3 C4 1_555 1_555
C4 C5 1_555 1_555
C5 S1 1_555 1_555
C6 N1 1_555 1_555
C7 N2 1_555 1_555
C8 S1 1_555 1_555
C9 C8 1_555 1_555
C10 C9 1_555 1_555
C11 C10 1_555 1_555
C12 C11 1_555 1_555
C13 C8 1_555 1_555
C14 C1 1_555 1_555
C15 C14 1_555 1_555
C16 C15 1_555 1_555
C17 C16 1_555 1_555
C18 C17 1_555 1_555
C19 C14 1_555 1_555
C20 C21 1_555 1_555
C21 C22 1_555 1_555
C22 C23 1_555 1_555
C23 C24 1_555 1_555
C24 C25 1_555 1_555
C25 C20 1_555 1_555
H1 N1 1_555 1_555
H2 N2 1_555 1_555
H3 C1 1_555 1_555
H4 C2 1_555 1_555
H5 C9 1_555 1_555
H6 C10 1_555 1_555
H7 C11 1_555 1_555
H8 C12 1_555 1_555
H9 C13 1_555 1_555
H10 C15 1_555 1_555
H11 C16 1_555 1_555
H12 C17 1_555 1_555
H13 C18 1_555 1_555
H14 C19 1_555 1_555
H15 C21 1_555 1_555
H16 C22 1_555 1_555
H17 C23 1_555 1_555
H18 C24 1_555 1_555
H19 C25 1_555 1_555
N3 C7 1_555 1_555
C5 C6 1_555 1_555
C6 C7 1_555 1_555
C12 C13 1_555 1_555
C18 C19 1_555 1_555

#END
