
#######################################################################
#
#                 Cambridge Crystallographic Data Centre
#                                CCDC 
#
#######################################################################
#
# If this CIF has been generated from an entry in the Cambridge 
# Structural Database, then it will include bibliographic, chemical, 
# crystal, experimental, refinement or atomic coordinate data resulting 
# from the CCDC's data processing and validation procedures.
#
#######################################################################

data_MAYWAL
_chemical_formula_moiety         'C14 H13 F2 N3 O2 S1'
_chemical_name_systematic        
6,7-Difluoro-8-phenylsulfonyl-1-methyl-1,2,3,4-tetrahydropyrido(2,3-b)pyrazine
_symmetry_cell_setting           monoclinic
_symmetry_space_group_name_H-M   'P 21/c'
_symmetry_Int_Tables_number      14
_space_group_name_Hall           '-P 2ybc'
loop_
_symmetry_equiv_pos_site_id
_symmetry_equiv_pos_as_xyz
1 x,y,z
2 -x,1/2+y,1/2-z
3 -x,-y,-z
4 x,1/2-y,1/2+z
_cell_length_a                   8.3219(1)
_cell_length_b                   15.8421(2)
_cell_length_c                   11.3786(2)
_cell_angle_alpha                90
_cell_angle_beta                 109.4290(10)
_cell_angle_gamma                90
_cell_volume                     1414.69
_exptl_crystal_colour            'light yellow'
_exptl_crystal_description       prism
_chemical_melting_point          '170.5-174.5 deg.C'
_cell_formula_units_Z            4
_exptl_crystal_recrystallization_method toluene
loop_
_atom_site_label
_atom_site_type_symbol
_atom_site_fract_x
_atom_site_fract_y
_atom_site_fract_z
S1 S 0.95839(4) 0.207501(19) 0.92145(3)
F1 F 0.94940(11) 0.49513(5) 1.12488(8)
F2 F 1.12059(10) 0.36690(5) 1.07138(8)
O1 O 1.12982(12) 0.20905(6) 1.00807(9)
O2 O 0.93484(13) 0.20254(6) 0.79012(9)
N1 N 0.56900(13) 0.24590(6) 0.82495(9)
N2 N 0.42862(14) 0.38980(7) 0.90102(11)
N3 N 0.69466(14) 0.44059(6) 1.01428(10)
C1 C 0.40478(16) 0.24080(8) 0.84735(11)
C2 C 0.31189(16) 0.32548(8) 0.82816(12)
C3 C 0.86048(16) 0.43203(8) 1.05219(11)
C4 C 0.94857(15) 0.36569(8) 1.02491(11)
C5 C 0.85370(15) 0.30071(7) 0.94959(11)
C6 C 0.67536(15) 0.30851(7) 0.90169(10)
C7 C 0.59956(15) 0.37999(7) 0.93920(11)
C8 C 0.85065(16) 0.12327(8) 0.96382(12)
C9 C 0.85973(18) 0.11679(11) 1.08778(14)
C10 C 0.7842(2) 0.04730(13) 1.12302(18)
C11 C 0.7049(3) -0.01417(11) 1.0352(2)
C12 C 0.6952(3) -0.00561(11) 0.9128(3)
C13 C 0.7678(2) 0.06373(10) 0.87479(18)
C14 C 0.54668(19) 0.25304(10) 0.69112(12)
H1 H 0.390(2) 0.4341(12) 0.9252(17)
H2 H 0.426(2) 0.2213(10) 0.9352(16)
H3 H 0.330(2) 0.2003(10) 0.7883(16)
H4 H 0.213(2) 0.3232(11) 0.8574(16)
H5 H 0.268(2) 0.3401(11) 0.7384(16)
H6 H 0.917(3) 0.1592(14) 1.1472(19)
H7 H 0.786(3) 0.0415(14) 1.206(2)
H8 H 0.660(3) -0.0591(16) 1.058(2)
H9 H 0.644(4) -0.0452(18) 0.856(2)
H10 H 0.761(3) 0.0709(14) 0.787(2)
H11 H 0.483(2) 0.3062(12) 0.6532(17)
H12 H 0.655(3) 0.2540(12) 0.6794(17)
H13 H 0.482(3) 0.2046(13) 0.6498(19)
loop_
_geom_bond_atom_site_label_1
_geom_bond_atom_site_label_2
_geom_bond_site_symmetry_1
_geom_bond_site_symmetry_2
S1 O1 1_555 1_555
F1 C3 1_555 1_555
F2 C4 1_555 1_555
O2 S1 1_555 1_555
N1 C1 1_555 1_555
N2 C2 1_555 1_555
N3 C3 1_555 1_555
C1 C2 1_555 1_555
C2 H4 1_555 1_555
C3 C4 1_555 1_555
C4 C5 1_555 1_555
C5 S1 1_555 1_555
C6 N1 1_555 1_555
C7 N2 1_555 1_555
C8 S1 1_555 1_555
C9 C8 1_555 1_555
C10 C9 1_555 1_555
C11 C10 1_555 1_555
C12 C11 1_555 1_555
C13 C8 1_555 1_555
C14 N1 1_555 1_555
H1 N2 1_555 1_555
H2 C1 1_555 1_555
H3 C1 1_555 1_555
H5 C2 1_555 1_555
H6 C9 1_555 1_555
H7 C10 1_555 1_555
H8 C11 1_555 1_555
H9 C12 1_555 1_555
H10 C13 1_555 1_555
H11 C14 1_555 1_555
H12 C14 1_555 1_555
H13 C14 1_555 1_555
N3 C7 1_555 1_555
C5 C6 1_555 1_555
C6 C7 1_555 1_555
C12 C13 1_555 1_555

#END
