
#######################################################################
#
#                 Cambridge Crystallographic Data Centre
#                                CCDC 
#
#######################################################################
#
# If this CIF has been generated from an entry in the Cambridge 
# Structural Database, then it will include bibliographic, chemical, 
# crystal, experimental, refinement or atomic coordinate data resulting 
# from the CCDC's data processing and validation procedures.
#
#######################################################################

data_MAZCUN
_chemical_compound_source        'Abies recurvata'
_chemical_name_common            'neoabiestrine H'
_chemical_formula_moiety         'C30 H52 O4'
_chemical_name_systematic        9,19-Cyclolanostane-3,24,25,28-tetrol
_chemical_properties_biological  'anti tumor effects'
_symmetry_cell_setting           monoclinic
_symmetry_space_group_name_H-M   'P 21'
_symmetry_Int_Tables_number      4
_space_group_name_Hall           'P 2yb'
loop_
_symmetry_equiv_pos_site_id
_symmetry_equiv_pos_as_xyz
1 x,y,z
2 -x,1/2+y,-z
_cell_length_a                   14.3580(2)
_cell_length_b                   6.89920(10)
_cell_length_c                   15.0229(2)
_cell_angle_alpha                90
_cell_angle_beta                 102.2610(10)
_cell_angle_gamma                90
_cell_volume                     1454.2
_exptl_crystal_colour            colorless
_exptl_crystal_description       prism
_cell_formula_units_Z            2
_exptl_crystal_recrystallization_method methanol
loop_
_atom_site_label
_atom_site_type_symbol
_atom_site_fract_x
_atom_site_fract_y
_atom_site_fract_z
O1 O -0.00373(10) 0.7908(2) 0.09643(9)
H1 H -0.0375 0.8563 0.0545
O2 O 0.07485(9) 0.4553(2) 0.06964(9)
H2 H 0.0674 0.5752 0.0613
O3 O 0.72762(10) 0.8876(3) 0.88343(12)
H3 H 0.7829 0.9260 0.9068
O4 O 0.78010(11) 1.1734(3) 1.01370(12)
H4 H 0.8186 1.0867 1.0374
C1 C 0.01381(13) 0.8913(3) 0.29111(12)
H5 H 0.0568 0.9635 0.2594
H6 H -0.0003 0.9753 0.3401
C2 C -0.07928(14) 0.8442(3) 0.22324(14)
H7 H -0.1256 0.7889 0.2566
H8 H -0.1068 0.9654 0.1935
C3 C -0.06393(13) 0.7022(3) 0.15106(12)
H9 H -0.1269 0.6695 0.1110
C4 C -0.01503(12) 0.5135(3) 0.19235(12)
C5 C 0.07971(11) 0.5664(3) 0.25997(11)
H10 H 0.1186 0.6386 0.2230
C6 C 0.14052(12) 0.3920(3) 0.29959(12)
H11 H 0.1068 0.3155 0.3387
H12 H 0.1517 0.3073 0.2497
C7 C 0.23506(12) 0.4637(3) 0.35522(12)
H13 H 0.2659 0.5485 0.3168
H14 H 0.2776 0.3515 0.3744
C8 C 0.22245(11) 0.5769(3) 0.43999(11)
H15 H 0.2050 0.4783 0.4825
C9 C 0.13931(12) 0.7250(3) 0.42175(11)
C10 C 0.06348(12) 0.7082(3) 0.33293(11)
C11 C 0.15977(13) 0.9310(3) 0.45851(12)
H16 H 0.0991 0.9869 0.4679
H17 H 0.1800 1.0090 0.4106
C12 C 0.23597(13) 0.9582(3) 0.54860(12)
H18 H 0.2778 1.0681 0.5408
H19 H 0.2030 0.9928 0.5980
C13 C 0.29798(12) 0.7794(3) 0.57783(11)
C14 C 0.31584(12) 0.6714(3) 0.49175(12)
C15 C 0.39322(12) 0.5249(3) 0.53191(13)
H20 H 0.4308 0.4875 0.4865
H21 H 0.3650 0.4069 0.5528
C16 C 0.45645(13) 0.6340(4) 0.61356(13)
H22 H 0.4679 0.5513 0.6687
H23 H 0.5188 0.6674 0.5994
C17 C 0.40285(12) 0.8201(3) 0.63006(12)
H24 H 0.4279 0.9275 0.5971
C18 C 0.24706(12) 0.6488(3) 0.63589(12)
H25 H 0.2459 0.7136 0.6937
H26 H 0.2813 0.5255 0.6480
H27 H 0.1816 0.6242 0.6028
C19 C 0.04164(12) 0.6399(3) 0.42186(11)
H28 H 0.0375 0.4984 0.4313
H29 H -0.0029 0.7187 0.4489
C20 C 0.42203(12) 0.8772(3) 0.73132(12)
H30 H 0.4049 0.7657 0.7672
C21 C 0.36353(15) 1.0562(4) 0.74795(14)
H31 H 0.3767 1.1639 0.7099
H32 H 0.3813 1.0935 0.8123
H33 H 0.2954 1.0247 0.7322
C22 C 0.52909(13) 0.9222(4) 0.76446(13)
H34 H 0.5665 0.8186 0.7428
H35 H 0.5436 1.0455 0.7366
C23 C 0.56129(14) 0.9388(5) 0.86848(13)
H36 H 0.5147 1.0188 0.8921
H37 H 0.5617 0.8080 0.8957
C24 C 0.66012(13) 1.0287(4) 0.89828(14)
H38 H 0.6642 1.1423 0.8580
C25 C 0.68475(15) 1.0984(5) 0.99743(15)
C26 C 0.68258(18) 0.9378(7) 1.06501(17)
H39 H 0.7231 0.8307 1.0531
H40 H 0.6170 0.8915 1.0589
H41 H 0.7062 0.9868 1.1269
C27 C 0.6194(2) 1.2678(7) 1.0106(2)
H42 H 0.6426 1.3260 1.0708
H43 H 0.5543 1.2198 1.0062
H44 H 0.6197 1.3656 0.9634
C28 C 0.00341(12) 0.3828(3) 0.11487(13)
H45 H 0.0232 0.2531 0.1401
H46 H -0.0570 0.3669 0.0693
C29 C -0.08440(12) 0.4013(3) 0.23785(12)
H47 H -0.1424 0.3711 0.1924
H48 H -0.1008 0.4804 0.2865
H49 H -0.0543 0.2805 0.2637
C30 C 0.35653(14) 0.8084(4) 0.42799(13)
H50 H 0.4115 0.8786 0.4633
H51 H 0.3073 0.9014 0.4000
H52 H 0.3765 0.7323 0.3803
loop_
_geom_bond_atom_site_label_1
_geom_bond_atom_site_label_2
_geom_bond_site_symmetry_1
_geom_bond_site_symmetry_2
O1 H1 1_555 1_555
O2 H2 1_555 1_555
O3 H3 1_555 1_555
O4 H4 1_555 1_555
C1 H5 1_555 1_555
H6 C1 1_555 1_555
C2 C1 1_555 1_555
H7 C2 1_555 1_555
H8 C2 1_555 1_555
C3 O1 1_555 1_555
H9 C3 1_555 1_555
C4 C3 1_555 1_555
C5 C4 1_555 1_555
H10 C5 1_555 1_555
C6 C5 1_555 1_555
H11 C6 1_555 1_555
H12 C6 1_555 1_555
C7 C6 1_555 1_555
H13 C7 1_555 1_555
H14 C7 1_555 1_555
C8 C7 1_555 1_555
H15 C8 1_555 1_555
C9 C8 1_555 1_555
C10 C1 1_555 1_555
C11 C9 1_555 1_555
H16 C11 1_555 1_555
H17 C11 1_555 1_555
C12 C11 1_555 1_555
H18 C12 1_555 1_555
H19 C12 1_555 1_555
C13 C12 1_555 1_555
C14 C8 1_555 1_555
C15 C14 1_555 1_555
H20 C15 1_555 1_555
H21 C15 1_555 1_555
C16 C15 1_555 1_555
H22 C16 1_555 1_555
H23 C16 1_555 1_555
C17 C13 1_555 1_555
H24 C17 1_555 1_555
C18 C13 1_555 1_555
H25 C18 1_555 1_555
H26 C18 1_555 1_555
H27 C18 1_555 1_555
C19 C9 1_555 1_555
H28 C19 1_555 1_555
H29 C19 1_555 1_555
C20 C17 1_555 1_555
H30 C20 1_555 1_555
C21 C20 1_555 1_555
H31 C21 1_555 1_555
H32 C21 1_555 1_555
H33 C21 1_555 1_555
C22 C20 1_555 1_555
H34 C22 1_555 1_555
H35 C22 1_555 1_555
C23 C22 1_555 1_555
H36 C23 1_555 1_555
H37 C23 1_555 1_555
C24 O3 1_555 1_555
H38 C24 1_555 1_555
C25 O4 1_555 1_555
C26 C25 1_555 1_555
H39 C26 1_555 1_555
H40 C26 1_555 1_555
H41 C26 1_555 1_555
C27 C25 1_555 1_555
H42 C27 1_555 1_555
H43 C27 1_555 1_555
H44 C27 1_555 1_555
C28 O2 1_555 1_555
H45 C28 1_555 1_555
H46 C28 1_555 1_555
C29 C4 1_555 1_555
H47 C29 1_555 1_555
H48 C29 1_555 1_555
H49 C29 1_555 1_555
C30 C14 1_555 1_555
H50 C30 1_555 1_555
H51 C30 1_555 1_555
H52 C30 1_555 1_555
C2 C3 1_555 1_555
C4 C28 1_555 1_555
C5 C10 1_555 1_555
C9 C10 1_555 1_555
C10 C19 1_555 1_555
C13 C14 1_555 1_555
C16 C17 1_555 1_555
C23 C24 1_555 1_555
C24 C25 1_555 1_555

#END
