
#######################################################################
#
#                 Cambridge Crystallographic Data Centre
#                                CCDC 
#
#######################################################################
#
# If this CIF has been generated from an entry in the Cambridge 
# Structural Database, then it will include bibliographic, chemical, 
# crystal, experimental, refinement or atomic coordinate data resulting 
# from the CCDC's data processing and validation procedures.
#
#######################################################################

data_MAZCIB
_chemical_compound_source        'Aphanamixis grandifolia Blume'
_chemical_name_common            'Aphanamgrandin B'
_chemical_formula_moiety         'C30 H44 O5'
_chemical_name_systematic        
1,7,11,14-Tetramethyl-10-(6-methyl-4-oxoheptan-2-yl)-5,18,21-trioxahexacyclo[15.2.2.0^2,15^.0^4,6^.0^6,14^.0^7,11^]henicos-2(15)-en-19-one
_symmetry_cell_setting           monoclinic
_symmetry_space_group_name_H-M   'P 21'
_symmetry_Int_Tables_number      4
_space_group_name_Hall           'P 2yb'
loop_
_symmetry_equiv_pos_site_id
_symmetry_equiv_pos_as_xyz
1 x,y,z
2 -x,1/2+y,-z
_cell_length_a                   12.4987(6)
_cell_length_b                   6.4583(3)
_cell_length_c                   16.9852(8)
_cell_angle_alpha                90
_cell_angle_beta                 100.227(4)
_cell_angle_gamma                90
_cell_volume                     1349.27
_exptl_crystal_colour            colorless
_exptl_crystal_description       prism
_cell_formula_units_Z            2
_exptl_crystal_recrystallization_method 'methanol, water'
loop_
_atom_site_label
_atom_site_type_symbol
_atom_site_fract_x
_atom_site_fract_y
_atom_site_fract_z
O1 O 0.34303(14) 0.5258(4) 0.48457(10)
O2 O 0.26615(14) 0.4375(3) 0.58686(10)
O3 O 0.20597(13) 0.7050(3) 0.65970(11)
O4 O 0.60410(11) 0.8393(2) 0.79728(8)
O5 O 0.86548(19) 0.6699(5) 1.24387(12)
C1 C 0.34346(18) 0.4637(4) 0.72793(13)
H1 H 0.3530 0.3118 0.7328
H2 H 0.3263 0.5139 0.7793
C2 C 0.24522(19) 0.5044(4) 0.66386(14)
H3 H 0.1855 0.4143 0.6766
C3 C 0.32553(18) 0.5685(4) 0.54973(13)
C4 C 0.36733(17) 0.7613(4) 0.59709(12)
C5 C 0.46447(17) 0.6875(3) 0.65993(11)
C6 C 0.57599(17) 0.7648(3) 0.65191(11)
H4 H 0.6067 0.6729 0.6149
H5 H 0.5693 0.9054 0.6283
C7 C 0.65227(17) 0.7721(3) 0.73059(12)
H6 H 0.7274 0.8237 0.7293
C8 C 0.64155(16) 0.6273(3) 0.79425(12)
C9 C 0.55005(17) 0.4647(3) 0.77492(12)
C10 C 0.45180(17) 0.5560(3) 0.71849(12)
C11 C 0.52088(18) 0.3775(4) 0.85373(13)
H7 H 0.4737 0.4790 0.8748
H8 H 0.4781 0.2490 0.8411
C12 C 0.61890(18) 0.3291(4) 0.92008(13)
H9 H 0.5925 0.2866 0.9693
H10 H 0.6607 0.2123 0.9030
C13 C 0.69326(16) 0.5177(3) 0.93824(12)
C14 C 0.73693(17) 0.5755(3) 0.86068(12)
C15 C 0.81489(18) 0.7544(4) 0.89031(13)
H11 H 0.7747 0.8851 0.8940
H12 H 0.8686 0.7754 0.8547
C16 C 0.87064(18) 0.6789(4) 0.97404(14)
H13 H 0.8744 0.7931 1.0133
H14 H 0.9455 0.6316 0.9724
C17 C 0.80142(17) 0.4956(4) 0.99876(12)
H15 H 0.8367 0.3631 0.9868
C18 C 0.62761(17) 0.6968(4) 0.96670(12)
H16 H 0.5729 0.7454 0.9219
H17 H 0.6768 0.8110 0.9863
H18 H 0.5915 0.6478 1.0099
C19 C 0.5870(2) 0.2833(3) 0.72645(14)
H19 H 0.5239 0.1985 0.7041
H20 H 0.6401 0.1981 0.7617
H21 H 0.6204 0.3386 0.6829
C20 C 0.79802(17) 0.4997(4) 1.08892(13)
H22 H 0.7703 0.6384 1.1022
C21 C 0.7249(2) 0.3346(5) 1.11530(13)
H23 H 0.7437 0.1990 1.0957
H24 H 0.6488 0.3665 1.0933
H25 H 0.7352 0.3319 1.1738
C22 C 0.91277(18) 0.4723(5) 1.13752(13)
H26 H 0.9342 0.3252 1.1352
H27 H 0.9642 0.5557 1.1126
C23 C 0.9225(2) 0.5360(5) 1.22441(15)
C24 C 1.00261(19) 0.4209(5) 1.28446(13)
H28 H 1.0734 0.4208 1.2659
H29 H 0.9782 0.2752 1.2852
C25 C 1.0209(2) 0.5018(6) 1.36945(14)
H30 H 0.9483 0.5376 1.3827
C26 C 1.0714(3) 0.3375(7) 1.42792(16)
H31 H 1.0242 0.2153 1.4229
H32 H 1.0800 0.3918 1.4825
H33 H 1.1427 0.2988 1.4161
C27 C 1.0899(3) 0.6999(7) 1.37769(18)
H34 H 1.0967 0.7535 1.4323
H35 H 1.0548 0.8040 1.3397
H36 H 1.1624 0.6685 1.3663
C28 C 0.3965(2) 0.9244(5) 0.53830(14)
H37 H 0.4585 0.8755 0.5153
H38 H 0.4156 1.0549 0.5668
H39 H 0.3339 0.9466 0.4954
C29 C 0.27792(19) 0.8546(4) 0.63775(14)
H40 H 0.3125 0.9306 0.6862
H41 H 0.2356 0.9556 0.6009
C30 C 0.8088(2) 0.4053(4) 0.83217(13)
H42 H 0.7766 0.2690 0.8382
H43 H 0.8819 0.4108 0.8645
H44 H 0.8132 0.4283 0.7758
loop_
_geom_bond_atom_site_label_1
_geom_bond_atom_site_label_2
_geom_bond_site_symmetry_1
_geom_bond_site_symmetry_2
O1 C3 1_555 1_555
O2 C2 1_555 1_555
O3 C2 1_555 1_555
O4 C7 1_555 1_555
O5 C23 1_555 1_555
C1 H1 1_555 1_555
H2 C1 1_555 1_555
C2 C1 1_555 1_555
H3 C2 1_555 1_555
C3 O2 1_555 1_555
C4 C3 1_555 1_555
C5 C4 1_555 1_555
C6 C5 1_555 1_555
H4 C6 1_555 1_555
H5 C6 1_555 1_555
C7 C6 1_555 1_555
H6 C7 1_555 1_555
C8 O4 1_555 1_555
C9 C8 1_555 1_555
C10 C1 1_555 1_555
C11 C9 1_555 1_555
H7 C11 1_555 1_555
H8 C11 1_555 1_555
C12 C11 1_555 1_555
H9 C12 1_555 1_555
H10 C12 1_555 1_555
C13 C12 1_555 1_555
C14 C8 1_555 1_555
C15 C14 1_555 1_555
H11 C15 1_555 1_555
H12 C15 1_555 1_555
C16 C15 1_555 1_555
H13 C16 1_555 1_555
H14 C16 1_555 1_555
C17 C13 1_555 1_555
H15 C17 1_555 1_555
C18 C13 1_555 1_555
H16 C18 1_555 1_555
H17 C18 1_555 1_555
H18 C18 1_555 1_555
C19 C9 1_555 1_555
H19 C19 1_555 1_555
H20 C19 1_555 1_555
H21 C19 1_555 1_555
C20 C17 1_555 1_555
H22 C20 1_555 1_555
C21 C20 1_555 1_555
H23 C21 1_555 1_555
H24 C21 1_555 1_555
H25 C21 1_555 1_555
C22 C20 1_555 1_555
H26 C22 1_555 1_555
H27 C22 1_555 1_555
C23 C22 1_555 1_555
C24 C23 1_555 1_555
H28 C24 1_555 1_555
H29 C24 1_555 1_555
C25 C24 1_555 1_555
H30 C25 1_555 1_555
C26 C25 1_555 1_555
H31 C26 1_555 1_555
H32 C26 1_555 1_555
H33 C26 1_555 1_555
C27 C25 1_555 1_555
H34 C27 1_555 1_555
H35 C27 1_555 1_555
H36 C27 1_555 1_555
C28 C4 1_555 1_555
H37 C28 1_555 1_555
H38 C28 1_555 1_555
H39 C28 1_555 1_555
C29 O3 1_555 1_555
H40 C29 1_555 1_555
H41 C29 1_555 1_555
C30 C14 1_555 1_555
H42 C30 1_555 1_555
H43 C30 1_555 1_555
H44 C30 1_555 1_555
C4 C29 1_555 1_555
C5 C10 1_555 1_555
C7 C8 1_555 1_555
C9 C10 1_555 1_555
C13 C14 1_555 1_555
C16 C17 1_555 1_555

#END
