
#######################################################################
#
#                 Cambridge Crystallographic Data Centre
#                                CCDC 
#
#######################################################################
#
# If this CIF has been generated from an entry in the Cambridge 
# Structural Database, then it will include bibliographic, chemical, 
# crystal, experimental, refinement or atomic coordinate data resulting 
# from the CCDC's data processing and validation procedures.
#
#######################################################################

data_MAZHAZ
_chemical_formula_moiety         'C20 H17 O8 1-,C18 H21 N2 O1 1+,2(C2 H6 O1)'
_chemical_name_systematic        
'5-(2-cyclohexyl-2-oxoethyl)-5H-imidazo[5,1-a]isoindol-2-ium 3-carboxy-2,3-bis((4-methylbenzoyl)oxy)propanoate ethanol solvate'
_symmetry_cell_setting           orthorhombic
_symmetry_space_group_name_H-M   'P 21 21 21'
_symmetry_Int_Tables_number      19
_space_group_name_Hall           'P 2ac 2ab'
loop_
_symmetry_equiv_pos_site_id
_symmetry_equiv_pos_as_xyz
1 x,y,z
2 1/2-x,-y,1/2+z
3 1/2+x,1/2-y,-z
4 -x,1/2+y,1/2-z
_cell_length_a                   13.3264(7)
_cell_length_b                   15.6600(11)
_cell_length_c                   19.3842(10)
_cell_angle_alpha                90
_cell_angle_beta                 90
_cell_angle_gamma                90
_cell_volume                     4045.32
_exptl_crystal_colour            colorless
_cell_formula_units_Z            4
loop_
_atom_site_label
_atom_site_type_symbol
_atom_site_fract_x
_atom_site_fract_y
_atom_site_fract_z
O1 O 0.56533(12) 0.79207(10) 0.06133(8)
O2 O 0.36049(12) 0.79142(10) 0.05923(9)
O3 O 0.38420(14) 0.87433(12) 0.15247(10)
O4 O 0.45136(12) 0.75885(11) -0.07534(9)
O5 O 0.21600(14) 0.86821(12) -0.06156(12)
O6 O 0.57068(13) 0.91751(11) 0.00648(10)
O7 O 0.25581(12) 0.72958(11) -0.06857(9)
H1 H 0.1932 0.7230 -0.0685
C1 C 0.28066(17) 0.74951(16) 0.16127(13)
C2 C 0.52638(17) 0.85497(14) 0.02983(12)
O8 O 0.41301(14) 0.78610(13) -0.18616(10)
C3 C 0.27699(18) 0.81083(15) -0.06392(13)
C4 C 0.16255(19) 0.63322(18) 0.15728(15)
H2 H 0.1223 0.5949 0.1313
C5 C 0.41247(18) 0.85321(15) 0.01776(12)
H3 H 0.3845 0.9111 0.0278
C6 C 0.2786(2) 0.74681(19) 0.23256(14)
H4 H 0.3175 0.7860 0.2586
C7 C 0.5380(2) 0.6490(2) -0.22924(16)
H5 H 0.5060 0.6814 -0.2643
C8 C 0.6324(2) 0.55479(19) -0.12750(19)
H6 H 0.6650 0.5225 -0.0926
C9 C 0.34604(17) 0.81242(15) 0.12629(13)
C10 C 0.45719(18) 0.74348(17) -0.14426(13)
C11 C 0.1612(2) 0.6291(2) 0.22879(17)
C12 C 0.22183(18) 0.69244(16) 0.12330(13)
H7 H 0.2225 0.6943 0.0743
C13 C 0.2193(2) 0.6866(2) 0.26596(15)
H8 H 0.2186 0.6847 0.3149
C14 C 0.52344(19) 0.67017(17) -0.15989(14)
C15 C 0.6460(2) 0.5325(2) -0.1965(2)
C16 C 0.38960(18) 0.83037(15) -0.05713(13)
H9 H 0.4069 0.8800 -0.0874
C17 C 0.7094(3) 0.4563(2) -0.2156(3)
H10 H 0.7590 0.4459 -0.1792
H11 H 0.7440 0.4675 -0.2592
H12 H 0.6663 0.4059 -0.2206
C18 C 0.5991(2) 0.5809(2) -0.24681(18)
H13 H 0.6090 0.5672 -0.2941
C19 C 0.0964(3) 0.5637(3) 0.2646(2)
H14 H 0.0290 0.5643 0.2444
H15 H 0.0921 0.5773 0.3138
H16 H 0.1261 0.5069 0.2588
C20 C 0.5719(2) 0.62339(18) -0.10893(16)
H17 H 0.5638 0.6382 -0.0617
N1 N 0.49754(15) 0.65451(14) 0.13092(12)
H18 H 0.5188 0.6982 0.1063
C21 C 0.36545(19) 0.46210(16) 0.18480(14)
N2 N 0.47802(15) 0.56711(13) 0.21478(11)
O9 O 0.58716(16) 0.63963(14) 0.34047(11)
C22 C 0.3643(2) 0.37351(18) 0.28654(14)
H19 H 0.3879 0.3608 0.3316
C23 C 0.52727(19) 0.63652(16) 0.19462(14)
H20 H 0.5750 0.6676 0.2210
C24 C 0.2925(2) 0.32239(18) 0.25516(15)
H21 H 0.2663 0.2745 0.2792
C25 C 0.2944(2) 0.41063(18) 0.15273(15)
H22 H 0.2711 0.4230 0.1075
C26 C 0.4405(2) 0.55271(18) 0.34148(13)
H23 H 0.4228 0.5081 0.3756
H24 H 0.3787 0.5854 0.3311
C27 C 0.2587(2) 0.34058(18) 0.18906(15)
H25 H 0.2102 0.3044 0.1683
C28 C 0.41595(18) 0.53940(16) 0.16175(13)
C29 C 0.5005(2) 0.63480(19) 0.44867(15)
H26 H 0.5039 0.5803 0.4754
C30 C 0.5165(2) 0.61270(18) 0.37389(15)
C31 C 0.40105(19) 0.44350(17) 0.25072(14)
C32 C 0.4759(2) 0.50950(16) 0.27584(13)
H27 H 0.5432 0.4827 0.2831
C33 C 0.5621(3) 0.7128(2) 0.55348(18)
H28 H 0.5671 0.6591 0.5803
H29 H 0.6141 0.7525 0.5708
C34 C 0.42910(19) 0.59537(16) 0.10897(14)
H30 H 0.3969 0.5937 0.0653
C35 C 0.5817(3) 0.6938(2) 0.47720(17)
H31 H 0.5822 0.7479 0.4508
H32 H 0.6482 0.6665 0.4720
C36 C 0.3960(3) 0.6724(2) 0.45979(16)
H33 H 0.3447 0.6309 0.4442
H34 H 0.3886 0.7249 0.4317
C37 C 0.4601(3) 0.7516(2) 0.56429(18)
H35 H 0.4570 0.8078 0.5409
H36 H 0.4488 0.7610 0.6142
C38 C 0.3784(3) 0.6938(3) 0.53582(19)
H37 H 0.3125 0.7223 0.5409
H38 H 0.3766 0.6402 0.5629
O10 O 0.76067(15) 0.98158(14) -0.00721(10)
H39 H 0.7095 0.9518 0.0005
C39 C 0.8207(2) 0.98454(19) 0.05241(15)
H40 H 0.8498 0.9276 0.0617
H41 H 0.7796 1.0016 0.0927
C40 C 0.9029(3) 1.0486(2) 0.04058(18)
H42 H 0.9448 1.0300 0.0019
H43 H 0.9442 1.0533 0.0822
H44 H 0.8733 1.1044 0.0300
O11 O 0.2846(3) 1.03533(18) -0.0644(3)
H45 H 0.2682 0.9888 -0.0828
C41 C 0.1358(3) 1.0771(3) -0.1245(2)
H46 H 0.1732 1.0769 -0.1681
H47 H 0.0847 1.1221 -0.1258
H48 H 0.1031 1.0216 -0.1181
C42 C 0.2036(4) 1.0927(3) -0.0682(4)
H49 H 0.2305 1.1514 -0.0726
H50 H 0.1655 1.0898 -0.0245
loop_
_geom_bond_atom_site_label_1
_geom_bond_atom_site_label_2
_geom_bond_site_symmetry_1
_geom_bond_site_symmetry_2
O1 C2 1_555 1_555
O2 C5 1_555 1_555
O3 C9 1_555 1_555
O4 C10 1_555 1_555
O5 C3 1_555 1_555
O6 C2 1_555 1_555
O7 H1 1_555 1_555
C1 C6 1_555 1_555
C2 C5 1_555 1_555
O8 C10 1_555 1_555
C3 O7 1_555 1_555
C4 H2 1_555 1_555
C5 H3 1_555 1_555
C6 H4 1_555 1_555
C7 H5 1_555 1_555
C8 H6 1_555 1_555
C9 O2 1_555 1_555
C10 C14 1_555 1_555
C11 C4 1_555 1_555
C12 C1 1_555 1_555
H7 C12 1_555 1_555
C13 C6 1_555 1_555
H8 C13 1_555 1_555
C14 C7 1_555 1_555
C15 C8 1_555 1_555
C16 O4 1_555 1_555
H9 C16 1_555 1_555
C17 C15 1_555 1_555
H10 C17 1_555 1_555
H11 C17 1_555 1_555
H12 C17 1_555 1_555
C18 C7 1_555 1_555
H13 C18 1_555 1_555
C19 C11 1_555 1_555
H14 C19 1_555 1_555
H15 C19 1_555 1_555
H16 C19 1_555 1_555
C20 C8 1_555 1_555
H17 C20 1_555 1_555
N1 H18 1_555 1_555
C21 C25 1_555 1_555
N2 C23 1_555 1_555
O9 C30 1_555 1_555
C22 H19 1_555 1_555
C23 N1 1_555 1_555
H20 C23 1_555 1_555
C24 C22 1_555 1_555
H21 C24 1_555 1_555
C25 H22 1_555 1_555
C26 H23 1_555 1_555
H24 C26 1_555 1_555
C27 C24 1_555 1_555
H25 C27 1_555 1_555
C28 C21 1_555 1_555
C29 H26 1_555 1_555
C30 C26 1_555 1_555
C31 C21 1_555 1_555
C32 N2 1_555 1_555
H27 C32 1_555 1_555
C33 H28 1_555 1_555
H29 C33 1_555 1_555
C34 N1 1_555 1_555
H30 C34 1_555 1_555
C35 C29 1_555 1_555
H31 C35 1_555 1_555
H32 C35 1_555 1_555
C36 C29 1_555 1_555
H33 C36 1_555 1_555
H34 C36 1_555 1_555
C37 C33 1_555 1_555
H35 C37 1_555 1_555
H36 C37 1_555 1_555
C38 C36 1_555 1_555
H37 C38 1_555 1_555
H38 C38 1_555 1_555
O10 H39 1_555 1_555
C39 O10 1_555 1_555
H40 C39 1_555 1_555
H41 C39 1_555 1_555
C40 C39 1_555 1_555
H42 C40 1_555 1_555
H43 C40 1_555 1_555
H44 C40 1_555 1_555
O11 H45 1_555 1_555
C41 H46 1_555 1_555
H47 C41 1_555 1_555
H48 C41 1_555 1_555
C42 O11 1_555 1_555
H49 C42 1_555 1_555
H50 C42 1_555 1_555
C1 C9 1_555 1_555
C3 C16 1_555 1_555
C4 C12 1_555 1_555
C5 C16 1_555 1_555
C11 C13 1_555 1_555
C14 C20 1_555 1_555
C15 C18 1_555 1_555
N2 C28 1_555 1_555
C22 C31 1_555 1_555
C25 C27 1_555 1_555
C26 C32 1_555 1_555
C28 C34 1_555 1_555
C29 C30 1_555 1_555
C31 C32 1_555 1_555
C33 C35 1_555 1_555
C37 C38 1_555 1_555
C41 C42 1_555 1_555

#END
