
#######################################################################
#
#                 Cambridge Crystallographic Data Centre
#                                CCDC 
#
#######################################################################
#
# If this CIF has been generated from an entry in the Cambridge 
# Structural Database, then it will include bibliographic, chemical, 
# crystal, experimental, refinement or atomic coordinate data resulting 
# from the CCDC's data processing and validation procedures.
#
#######################################################################

data_MAZQAH
_chemical_formula_moiety         'C14 H19 N1 O3 S1'
_chemical_name_systematic        
1-Cyclopropyl-2-(ethylsulfonyl)-5-methylisoindolin-4-ol
_symmetry_cell_setting           monoclinic
_symmetry_space_group_name_H-M   'P 21/n'
_symmetry_Int_Tables_number      14
_space_group_name_Hall           '-P 2yn'
loop_
_symmetry_equiv_pos_site_id
_symmetry_equiv_pos_as_xyz
1 x,y,z
2 1/2-x,1/2+y,1/2-z
3 -x,-y,-z
4 1/2+x,1/2-y,1/2+z
_cell_length_a                   5.4003(5)
_cell_length_b                   14.2952(14)
_cell_length_c                   17.5807(17)
_cell_angle_alpha                90
_cell_angle_beta                 95.087(2)
_cell_angle_gamma                90
_cell_volume                     1351.86
_exptl_crystal_colour            colorless
_exptl_crystal_description       polyhedron
_cell_formula_units_Z            4
loop_
_atom_site_label
_atom_site_type_symbol
_atom_site_fract_x
_atom_site_fract_y
_atom_site_fract_z
C1 C 0.5991(4) 0.36576(14) 0.99336(12)
H1 H 0.5044 0.3967 1.0320
H2 H 0.7032 0.4127 0.9698
N1 N 0.4327(3) 0.31678(12) 0.93535(10)
C2 C 0.4617(4) 0.21366(14) 0.93447(12)
H3 H 0.3083 0.1835 0.9511
C3 C 0.5193(4) 0.17360(16) 0.85973(13)
H4 H 0.6736 0.1981 0.8392
C4 C 0.4666(5) 0.07129(17) 0.84507(15)
H5 H 0.5884 0.0351 0.8181
H6 H 0.3853 0.0359 0.8843
C5 C 0.3155(5) 0.14429(17) 0.80039(14)
H7 H 0.1414 0.1536 0.8122
H8 H 0.3445 0.1529 0.7460
S1 S 0.21174(9) 0.37089(3) 0.88692(3)
O1 O 0.0081(3) 0.30829(11) 0.87005(9)
O2 O 0.1691(3) 0.45576(11) 0.92813(9)
C6 C 0.3169(4) 0.40348(17) 0.79789(13)
H9 H 0.3631 0.3463 0.7707
H10 H 0.1785 0.4339 0.7665
C7 C 0.5368(5) 0.46903(19) 0.80501(15)
H11 H 0.4965 0.5242 0.8347
H12 H 0.5760 0.4886 0.7540
H13 H 0.6807 0.4369 0.8310
C8 C 0.7526(4) 0.28645(14) 1.02738(11)
C9 C 0.6741(4) 0.20142(15) 0.99615(12)
C10 C 0.7900(5) 0.11895(16) 1.02041(13)
H14 H 0.7347 0.0604 0.9997
C11 C 0.9898(5) 0.12431(16) 1.07600(13)
H15 H 1.0699 0.0681 1.0933
C12 C 1.0768(4) 0.20885(15) 1.10717(12)
C13 C 0.9535(4) 0.29118(14) 1.08211(11)
O3 O 1.0423(3) 0.37249(12) 1.11374(9)
H16 H 0.973(5) 0.418(2) 1.0951(16)
C14 C 1.2972(5) 0.21341(18) 1.16569(14)
H17 H 1.2441 0.2370 1.2140
H18 H 1.4227 0.2555 1.1476
H19 H 1.3684 0.1507 1.1735
loop_
_geom_bond_atom_site_label_1
_geom_bond_atom_site_label_2
_geom_bond_site_symmetry_1
_geom_bond_site_symmetry_2
C1 H1 1_555 1_555
H2 C1 1_555 1_555
N1 C1 1_555 1_555
C2 N1 1_555 1_555
H3 C2 1_555 1_555
C3 C2 1_555 1_555
H4 C3 1_555 1_555
C4 C3 1_555 1_555
H5 C4 1_555 1_555
H6 C4 1_555 1_555
C5 C3 1_555 1_555
H7 C5 1_555 1_555
H8 C5 1_555 1_555
S1 N1 1_555 1_555
O1 S1 1_555 1_555
O2 S1 1_555 1_555
C6 S1 1_555 1_555
H9 C6 1_555 1_555
H10 C6 1_555 1_555
C7 C6 1_555 1_555
H11 C7 1_555 1_555
H12 C7 1_555 1_555
H13 C7 1_555 1_555
C8 C1 1_555 1_555
C9 C2 1_555 1_555
C10 C9 1_555 1_555
H14 C10 1_555 1_555
C11 C10 1_555 1_555
H15 C11 1_555 1_555
C12 C11 1_555 1_555
C13 C8 1_555 1_555
O3 C13 1_555 1_555
H16 O3 1_555 1_555
C14 C12 1_555 1_555
H17 C14 1_555 1_555
H18 C14 1_555 1_555
H19 C14 1_555 1_555
C4 C5 1_555 1_555
C8 C9 1_555 1_555
C12 C13 1_555 1_555

#END
