
#######################################################################
#
#                 Cambridge Crystallographic Data Centre
#                                CCDC 
#
#######################################################################
#
# If this CIF has been generated from an entry in the Cambridge 
# Structural Database, then it will include bibliographic, chemical, 
# crystal, experimental, refinement or atomic coordinate data resulting 
# from the CCDC's data processing and validation procedures.
#
#######################################################################

data_MAZQEL
_chemical_formula_moiety         'C21 H25 N1 O3 S1'
_chemical_name_systematic        
1-(t-Butylsulfonyl)-2-cyclopropyl-4-(5-phenyl-2-furyl)-2,5-dihydro-1H-pyrrole
_symmetry_cell_setting           triclinic
_symmetry_space_group_name_H-M   'P -1'
_symmetry_Int_Tables_number      2
_space_group_name_Hall           '-P 1'
loop_
_symmetry_equiv_pos_site_id
_symmetry_equiv_pos_as_xyz
1 x,y,z
2 -x,-y,-z
_cell_length_a                   6.3831(3)
_cell_length_b                   10.0010(5)
_cell_length_c                   15.0413(8)
_cell_angle_alpha                85.048(1)
_cell_angle_beta                 89.316(1)
_cell_angle_gamma                82.586(1)
_cell_volume                     948.615
_exptl_crystal_colour            colorless
_exptl_crystal_description       polyhedron
_cell_formula_units_Z            2
loop_
_atom_site_label
_atom_site_type_symbol
_atom_site_fract_x
_atom_site_fract_y
_atom_site_fract_z
N1 N 0.1347(3) 0.20015(19) 0.30398(13)
C1 C 0.2063(4) 0.2572(2) 0.21475(15)
H1 H 0.2517 0.3481 0.2204
C2 C 0.3953(4) 0.1571(2) 0.19731(16)
H2 H 0.4888 0.1689 0.1485
C3 C 0.4187(4) 0.0505(2) 0.25690(16)
C4 C 0.2448(4) 0.0620(2) 0.32602(17)
H3 H 0.1486 -0.0070 0.3208
H4 H 0.3037 0.0520 0.3872
C5 C 0.0398(4) 0.2683(3) 0.14373(16)
H5 H -0.0210 0.1830 0.1353
C6 C -0.1074(4) 0.3972(3) 0.12438(18)
H6 H -0.2540 0.3898 0.1065
H7 H -0.0925 0.4735 0.1606
C7 C 0.0665(4) 0.3578(3) 0.06039(18)
H8 H 0.0271 0.3262 0.0030
H9 H 0.1885 0.4099 0.0571
C8 C 0.5823(4) -0.0631(2) 0.26399(16)
C9 C 0.6207(4) -0.1725(3) 0.32426(17)
H10 H 0.5348 -0.1949 0.3740
C10 C 0.8131(4) -0.2468(3) 0.29898(18)
H11 H 0.8802 -0.3287 0.3285
C11 C 0.8835(4) -0.1798(2) 0.22499(17)
O1 O 0.7429(2) -0.06519(16) 0.20167(11)
C12 C 1.0724(4) -0.2020(2) 0.17017(17)
C13 C 1.1096(4) -0.1124(3) 0.09790(19)
H12 H 1.0079 -0.0363 0.0821
C14 C 1.2950(5) -0.1328(3) 0.0482(2)
H13 H 1.3195 -0.0704 -0.0009
C15 C 1.4424(5) -0.2433(3) 0.0702(2)
H14 H 1.5689 -0.2574 0.0365
C16 C 1.4054(4) -0.3337(3) 0.1416(2)
H15 H 1.5068 -0.4103 0.1566
C17 C 1.2226(4) -0.3138(3) 0.1912(2)
H16 H 1.1990 -0.3769 0.2401
S1 S 0.07952(9) 0.29976(6) 0.38496(4)
O2 O 0.0968(2) 0.43591(16) 0.34846(11)
O3 O 0.2040(2) 0.24601(18) 0.46218(11)
C18 C -0.1941(3) 0.2905(2) 0.41357(16)
C19 C -0.2417(4) 0.3734(3) 0.49433(18)
H17 H -0.2108 0.4661 0.4792
H18 H -0.1535 0.3320 0.5448
H19 H -0.3910 0.3750 0.5106
C20 C -0.3307(4) 0.3528(3) 0.33438(18)
H20 H -0.2949 0.3011 0.2827
H21 H -0.3050 0.4468 0.3201
H22 H -0.4801 0.3507 0.3495
C21 C -0.2252(4) 0.1433(3) 0.4373(2)
H23 H -0.3722 0.1382 0.4552
H24 H -0.1311 0.1052 0.4867
H25 H -0.1921 0.0918 0.3853
loop_
_geom_bond_atom_site_label_1
_geom_bond_atom_site_label_2
_geom_bond_site_symmetry_1
_geom_bond_site_symmetry_2
N1 C1 1_555 1_555
C1 H1 1_555 1_555
C2 C1 1_555 1_555
H2 C2 1_555 1_555
C3 C2 1_555 1_555
C4 N1 1_555 1_555
H3 C4 1_555 1_555
H4 C4 1_555 1_555
C5 C1 1_555 1_555
H5 C5 1_555 1_555
C6 C5 1_555 1_555
H6 C6 1_555 1_555
H7 C6 1_555 1_555
C7 C5 1_555 1_555
H8 C7 1_555 1_555
H9 C7 1_555 1_555
C8 C3 1_555 1_555
C9 C8 1_555 1_555
H10 C9 1_555 1_555
C10 C9 1_555 1_555
H11 C10 1_555 1_555
C11 C10 1_555 1_555
O1 C8 1_555 1_555
C12 C11 1_555 1_555
C13 C12 1_555 1_555
H12 C13 1_555 1_555
C14 C13 1_555 1_555
H13 C14 1_555 1_555
C15 C14 1_555 1_555
H14 C15 1_555 1_555
C16 C15 1_555 1_555
H15 C16 1_555 1_555
C17 C12 1_555 1_555
H16 C17 1_555 1_555
S1 N1 1_555 1_555
O2 S1 1_555 1_555
O3 S1 1_555 1_555
C18 S1 1_555 1_555
C19 C18 1_555 1_555
H17 C19 1_555 1_555
H18 C19 1_555 1_555
H19 C19 1_555 1_555
C20 C18 1_555 1_555
H20 C20 1_555 1_555
H21 C20 1_555 1_555
H22 C20 1_555 1_555
C21 C18 1_555 1_555
H23 C21 1_555 1_555
H24 C21 1_555 1_555
H25 C21 1_555 1_555
C3 C4 1_555 1_555
C6 C7 1_555 1_555
C11 O1 1_555 1_555
C16 C17 1_555 1_555

#END
