
#######################################################################
#
#                 Cambridge Crystallographic Data Centre
#                                CCDC 
#
#######################################################################
#
# If this CIF has been generated from an entry in the Cambridge 
# Structural Database, then it will include bibliographic, chemical, 
# crystal, experimental, refinement or atomic coordinate data resulting 
# from the CCDC's data processing and validation procedures.
#
#######################################################################

data_MAZQIP
_chemical_formula_moiety         'C14 H14 F3 N1 O2'
_chemical_name_systematic        
1-(1-Cyclopropyl-4-hydroxy-5-methyl-1,3-dihydro-2H-isoindol-2-yl)-2,2,2-trifluoroethanone
_symmetry_cell_setting           monoclinic
_symmetry_space_group_name_H-M   'P 21/n'
_symmetry_Int_Tables_number      14
_space_group_name_Hall           '-P 2yn'
loop_
_symmetry_equiv_pos_site_id
_symmetry_equiv_pos_as_xyz
1 x,y,z
2 1/2-x,1/2+y,1/2-z
3 -x,-y,-z
4 1/2+x,1/2-y,1/2+z
_cell_length_a                   8.6703(1)
_cell_length_b                   18.3947(2)
_cell_length_c                   16.2952(3)
_cell_angle_alpha                90
_cell_angle_beta                 91.625(1)
_cell_angle_gamma                90
_cell_volume                     2597.84
_exptl_crystal_colour            colorless
_exptl_crystal_description       polyhedron
_cell_formula_units_Z            8
loop_
_atom_site_label
_atom_site_type_symbol
_atom_site_fract_x
_atom_site_fract_y
_atom_site_fract_z
C1 C 0.5649(2) 0.74795(12) 0.32333(12)
H1 H 0.4746 0.7473 0.2848
H2 H 0.6238 0.7022 0.3177
N1 N 0.51757(19) 0.75966(9) 0.40954(10)
C2 C 0.5568(2) 0.83403(12) 0.44035(12)
H3 H 0.6147 0.8301 0.4941
C3 C 0.4112(3) 0.87859(13) 0.45150(13)
H4 H 0.3580 0.8689 0.5040
C4 C 0.3055(3) 0.89449(14) 0.38070(15)
H5 H 0.3373 0.8786 0.3256
H6 H 0.1931 0.8919 0.3897
C5 C 0.3921(3) 0.95390(14) 0.42017(19)
H7 H 0.3342 0.9887 0.4540
H8 H 0.4784 0.9754 0.3900
C6 C 0.4465(2) 0.71433(13) 0.45949(13)
O1 O 0.41730(19) 0.72895(9) 0.53119(9)
C7 C 0.3986(2) 0.63836(13) 0.42976(14)
F1 F 0.3871(2) 0.62900(9) 0.34964(9)
F2 F 0.26202(15) 0.62207(8) 0.45936(10)
F3 F 0.49557(16) 0.58855(8) 0.45988(10)
C8 C 0.6641(2) 0.81298(11) 0.31003(12)
C9 C 0.7528(2) 0.82781(12) 0.24136(12)
C10 C 0.8461(2) 0.88955(12) 0.24090(13)
C11 C 0.8467(2) 0.93537(13) 0.30922(13)
H9 H 0.9114 0.9770 0.3097
C12 C 0.7560(2) 0.92220(12) 0.37634(13)
H10 H 0.7568 0.9546 0.4217
C13 C 0.6642(2) 0.86057(12) 0.37552(12)
O2 O 0.74129(19) 0.77872(9) 0.17854(10)
H11 H 0.799(3) 0.7894(16) 0.1416(19)
C14 C 0.9440(3) 0.90671(15) 0.16881(16)
H12 H 1.0062 0.9501 0.1809
H13 H 0.8773 0.9157 0.1203
H14 H 1.0122 0.8655 0.1582
C15 C 0.4876(2) 0.26106(12) 1.04117(12)
H15 H 0.3748 0.2614 1.0299
H16 H 0.5209 0.3098 1.0604
N2 N 0.57325(18) 0.23796(10) 0.96769(10)
C16 C 0.6438(2) 0.16429(11) 0.97735(12)
H17 H 0.7559 0.1662 0.9646
C17 C 0.5638(2) 0.10668(12) 0.92586(13)
H18 H 0.4519 0.0995 0.9369
C18 C 0.6092(3) 0.09067(13) 0.84006(14)
H19 H 0.6928 0.1203 0.8168
H20 H 0.5269 0.0760 0.8001
C19 C 0.6517(3) 0.03855(13) 0.90733(14)
H21 H 0.7614 0.0361 0.9257
H22 H 0.5955 -0.0082 0.9090
C20 C 0.6026(2) 0.27768(12) 0.90163(13)
O3 O 0.68742(18) 0.25871(9) 0.84642(9)
C21 C 0.5297(3) 0.35360(13) 0.89470(13)
F4 F 0.6091(2) 0.40086(8) 0.94098(10)
F5 F 0.38420(16) 0.35704(8) 0.91727(9)
F6 F 0.5323(2) 0.37764(8) 0.81853(8)
C22 C 0.5328(2) 0.20321(11) 1.10198(12)
C23 C 0.4850(2) 0.19688(12) 1.18282(12)
C24 C 0.5377(2) 0.13893(12) 1.23091(12)
C25 C 0.6327(2) 0.08742(12) 1.19524(13)
H23 H 0.6699 0.0480 1.2279
C26 C 0.6751(2) 0.09139(12) 1.11380(13)
H24 H 0.7370 0.0547 1.0903
C27 C 0.6245(2) 0.15045(11) 1.06787(12)
O4 O 0.38755(19) 0.24968(9) 1.20965(10)
H25 H 0.345(3) 0.2383(16) 1.2539(19)
C28 C 0.4919(3) 0.13154(14) 1.31875(13)
H26 H 0.3845 0.1151 1.3205
H27 H 0.5022 0.1787 1.3463
H28 H 0.5591 0.0960 1.3467
loop_
_geom_bond_atom_site_label_1
_geom_bond_atom_site_label_2
_geom_bond_site_symmetry_1
_geom_bond_site_symmetry_2
C1 H1 1_555 1_555
H2 C1 1_555 1_555
N1 C1 1_555 1_555
C2 N1 1_555 1_555
H3 C2 1_555 1_555
C3 C2 1_555 1_555
H4 C3 1_555 1_555
C4 C3 1_555 1_555
H5 C4 1_555 1_555
H6 C4 1_555 1_555
C5 C3 1_555 1_555
H7 C5 1_555 1_555
H8 C5 1_555 1_555
C6 N1 1_555 1_555
O1 C6 1_555 1_555
C7 C6 1_555 1_555
F1 C7 1_555 1_555
F2 C7 1_555 1_555
F3 C7 1_555 1_555
C8 C1 1_555 1_555
C9 C8 1_555 1_555
C10 C9 1_555 1_555
C11 C10 1_555 1_555
H9 C11 1_555 1_555
C12 C11 1_555 1_555
H10 C12 1_555 1_555
C13 C2 1_555 1_555
O2 C9 1_555 1_555
H11 O2 1_555 1_555
C14 C10 1_555 1_555
H12 C14 1_555 1_555
H13 C14 1_555 1_555
H14 C14 1_555 1_555
C15 H15 1_555 1_555
H16 C15 1_555 1_555
N2 C15 1_555 1_555
C16 N2 1_555 1_555
H17 C16 1_555 1_555
C17 C16 1_555 1_555
H18 C17 1_555 1_555
C18 C17 1_555 1_555
H19 C18 1_555 1_555
H20 C18 1_555 1_555
C19 C17 1_555 1_555
H21 C19 1_555 1_555
H22 C19 1_555 1_555
C20 N2 1_555 1_555
O3 C20 1_555 1_555
C21 C20 1_555 1_555
F4 C21 1_555 1_555
F5 C21 1_555 1_555
F6 C21 1_555 1_555
C22 C15 1_555 1_555
C23 C22 1_555 1_555
C24 C23 1_555 1_555
C25 C24 1_555 1_555
H23 C25 1_555 1_555
C26 C25 1_555 1_555
H24 C26 1_555 1_555
C27 C16 1_555 1_555
O4 C23 1_555 1_555
H25 O4 1_555 1_555
C28 C24 1_555 1_555
H26 C28 1_555 1_555
H27 C28 1_555 1_555
H28 C28 1_555 1_555
C4 C5 1_555 1_555
C8 C13 1_555 1_555
C12 C13 1_555 1_555
C18 C19 1_555 1_555
C22 C27 1_555 1_555
C26 C27 1_555 1_555

#END
