
#######################################################################
#
#                 Cambridge Crystallographic Data Centre
#                                CCDC 
#
#######################################################################
#
# If this CIF has been generated from an entry in the Cambridge 
# Structural Database, then it will include bibliographic, chemical, 
# crystal, experimental, refinement or atomic coordinate data resulting 
# from the CCDC's data processing and validation procedures.
#
#######################################################################

data_MAZQUB
_chemical_name_common            "'compound 3a'"
_chemical_formula_moiety         'C19 H21 N1 O3 S1'
_chemical_name_systematic        
2-Cyclopropyl-4-(5-methyl-2-furyl)-1-((4-methylphenyl)sulfonyl)-2,5-dihydro-1H-pyrrole
_symmetry_cell_setting           triclinic
_symmetry_space_group_name_H-M   'P -1'
_symmetry_Int_Tables_number      2
_space_group_name_Hall           '-P 1'
loop_
_symmetry_equiv_pos_site_id
_symmetry_equiv_pos_as_xyz
1 x,y,z
2 -x,-y,-z
_cell_length_a                   9.9577(14)
_cell_length_b                   10.5397(12)
_cell_length_c                   11.0197(9)
_cell_angle_alpha                102.356(9)
_cell_angle_beta                 116.049(9)
_cell_angle_gamma                107.652(9)
_cell_volume                     905.073
_exptl_crystal_colour            colorless
_exptl_crystal_description       block
_cell_formula_units_Z            2
loop_
_atom_site_label
_atom_site_type_symbol
_atom_site_fract_x
_atom_site_fract_y
_atom_site_fract_z
S1 S 0.50849(10) 0.16795(10) 0.84213(9)
O1 O -0.1623(3) -0.3615(2) 0.4635(2)
N1 N 0.3831(3) 0.0159(3) 0.6935(3)
C1 C 0.3040(4) -0.1156(3) 0.7127(4)
H1 H 0.3201 -0.0900 0.8098
H2 H 0.3495 -0.1831 0.6997
O2 O 0.6141(3) 0.1337(3) 0.9550(3)
C2 C 0.1226(4) -0.1794(3) 0.5938(3)
O3 O 0.5813(3) 0.2763(3) 0.8003(3)
C3 C 0.0994(4) -0.1053(3) 0.5089(4)
H3 H -0.0046 -0.1296 0.4280
C4 C 0.2579(4) 0.0209(3) 0.5572(3)
H4 H 0.2488 0.1115 0.5837
C5 C 0.2987(5) 0.0081(4) 0.4402(4)
H5 H 0.3101 -0.0795 0.4060
C6 C 0.2190(6) 0.0609(5) 0.3248(4)
H6 H 0.1822 0.0054 0.2242
H7 H 0.1502 0.1059 0.3338
C7 C 0.4034(6) 0.1397(5) 0.4383(5)
H8 H 0.4782 0.1325 0.4061
H9 H 0.4462 0.2328 0.5157
C8 C -0.0011(4) -0.3055(3) 0.5814(3)
C9 C 0.0039(5) -0.3814(4) 0.6653(4)
H10 H 0.0981 -0.3654 0.7517
C10 C -0.1626(5) -0.4911(4) 0.5965(4)
H11 H -0.1976 -0.5608 0.6295
C11 C -0.2592(4) -0.4762(4) 0.4766(4)
C12 C -0.4394(5) -0.5528(5) 0.3564(5)
H12 H -0.4982 -0.6288 0.3754
H13 H -0.4511 -0.5944 0.2638
H14 H -0.4856 -0.4848 0.3524
C13 C 0.3833(4) 0.2188(4) 0.8950(3)
C14 C 0.3367(5) 0.3231(4) 0.8573(4)
H15 H 0.3755 0.3689 0.8077
C15 C 0.2326(6) 0.3587(5) 0.8937(5)
H16 H 0.2034 0.4297 0.8693
C16 C 0.1712(6) 0.2919(5) 0.9651(5)
C17 C 0.2188(5) 0.1896(5) 1.0020(4)
H17 H 0.1787 0.1436 1.0507
C18 C 0.3241(5) 0.1527(4) 0.9692(4)
H18 H 0.3553 0.0838 0.9968
C19 C 0.0569(7) 0.3333(7) 1.0039(7)
H19 H 0.0259 0.2763 1.0529
H20 H -0.0421 0.3148 0.9151
H21 H 0.1148 0.4348 1.0681
loop_
_geom_bond_atom_site_label_1
_geom_bond_atom_site_label_2
_geom_bond_site_symmetry_1
_geom_bond_site_symmetry_2
S1 N1 1_555 1_555
O1 C8 1_555 1_555
N1 C1 1_555 1_555
C1 H1 1_555 1_555
H2 C1 1_555 1_555
O2 S1 1_555 1_555
C2 C1 1_555 1_555
O3 S1 1_555 1_555
C3 C2 1_555 1_555
H3 C3 1_555 1_555
C4 N1 1_555 1_555
H4 C4 1_555 1_555
C5 C4 1_555 1_555
H5 C5 1_555 1_555
C6 C5 1_555 1_555
H6 C6 1_555 1_555
H7 C6 1_555 1_555
C7 C5 1_555 1_555
H8 C7 1_555 1_555
H9 C7 1_555 1_555
C8 C2 1_555 1_555
C9 C8 1_555 1_555
H10 C9 1_555 1_555
C10 C9 1_555 1_555
H11 C10 1_555 1_555
C11 O1 1_555 1_555
C12 C11 1_555 1_555
H12 C12 1_555 1_555
H13 C12 1_555 1_555
H14 C12 1_555 1_555
C13 S1 1_555 1_555
C14 C13 1_555 1_555
H15 C14 1_555 1_555
C15 C14 1_555 1_555
H16 C15 1_555 1_555
C16 C15 1_555 1_555
C17 C16 1_555 1_555
H17 C17 1_555 1_555
C18 C13 1_555 1_555
H18 C18 1_555 1_555
C19 C16 1_555 1_555
H19 C19 1_555 1_555
H20 C19 1_555 1_555
H21 C19 1_555 1_555
C3 C4 1_555 1_555
C6 C7 1_555 1_555
C10 C11 1_555 1_555
C17 C18 1_555 1_555

#END
