
#######################################################################
#
#                 Cambridge Crystallographic Data Centre
#                                CCDC 
#
#######################################################################
#
# If this CIF has been generated from an entry in the Cambridge 
# Structural Database, then it will include bibliographic, chemical, 
# crystal, experimental, refinement or atomic coordinate data resulting 
# from the CCDC's data processing and validation procedures.
#
#######################################################################

data_MAZQOV
_chemical_formula_moiety         'C22 H21 N1 O3 S1'
_chemical_name_systematic        
1-Cyclopropyl-4-methylene-2-((4-methylphenyl)sulfonyl)-1,2,3,4-tetrahydro[1]benzofuro[2,3-c]pyridine
_symmetry_cell_setting           monoclinic
_symmetry_space_group_name_H-M   'P 21/c'
_symmetry_Int_Tables_number      14
_space_group_name_Hall           '-P 2ybc'
loop_
_symmetry_equiv_pos_site_id
_symmetry_equiv_pos_as_xyz
1 x,y,z
2 -x,1/2+y,1/2-z
3 -x,-y,-z
4 x,1/2-y,1/2+z
_cell_length_a                   8.9330(1)
_cell_length_b                   13.2656(2)
_cell_length_c                   16.3343(2)
_cell_angle_alpha                90
_cell_angle_beta                 99.485(1)
_cell_angle_gamma                90
_cell_volume                     1909.18
_exptl_crystal_colour            colorless
_exptl_crystal_description       polyhedron
_cell_formula_units_Z            4
loop_
_atom_site_label
_atom_site_type_symbol
_atom_site_fract_x
_atom_site_fract_y
_atom_site_fract_z
S1 S 0.96396(4) 0.32815(3) 0.09435(2)
O1 O 0.98997(15) 0.42134(9) 0.13888(7)
O2 O 0.81337(12) 0.28643(10) 0.07691(7)
N1 N 1.01651(14) 0.34641(9) 0.00406(8)
C1 C 1.15951(17) 0.40196(11) 0.00134(10)
H1 H 1.1757 0.4513 0.0475
H2 H 1.1493 0.4401 -0.0514
C2 C 1.29746(17) 0.33382(11) 0.00798(9)
C3 C 1.4320(2) 0.36367(16) 0.04710(14)
H3 H 1.5183 0.3216 0.0478
H4 H 1.4422 0.4271 0.0744
C4 C 1.26572(15) 0.23872(11) -0.03635(9)
C5 C 1.12098(16) 0.21281(11) -0.06834(9)
O3 O 1.11176(12) 0.12397(8) -0.11209(7)
C6 C 0.97759(16) 0.26856(11) -0.06129(9)
H5 H 0.9039 0.2202 -0.0430
C7 C 0.90417(17) 0.31664(12) -0.14228(9)
H6 H 0.9722 0.3589 -0.1711
C8 C 0.78010(19) 0.26134(15) -0.19749(10)
H7 H 0.7745 0.2685 -0.2583
H8 H 0.7500 0.1944 -0.1790
C9 C 0.74348(19) 0.35175(15) -0.14975(11)
H9 H 0.7151 0.4147 -0.1811
H10 H 0.6906 0.3405 -0.1018
C10 C 1.36067(17) 0.15894(11) -0.06085(9)
C11 C 1.26046(18) 0.09158(11) -0.10740(10)
C12 C 1.3050(2) 0.00513(13) -0.14434(12)
H11 H 1.2337 -0.0385 -0.1762
C13 C 1.4591(2) -0.01412(13) -0.13224(12)
H12 H 1.4950 -0.0732 -0.1556
C14 C 1.5629(2) 0.05110(14) -0.08660(12)
H13 H 1.6681 0.0357 -0.0800
C15 C 1.51691(18) 0.13823(13) -0.05039(10)
H14 H 1.5889 0.1823 -0.0196
C16 C 1.08139(16) 0.23664(11) 0.15116(8)
C17 C 1.04397(17) 0.13500(12) 0.14224(9)
H15 H 0.9598 0.1142 0.1025
C18 C 1.13015(17) 0.06404(12) 0.19166(10)
H16 H 1.1033 -0.0052 0.1862
C19 C 1.25562(16) 0.09317(11) 0.24922(9)
C20 C 1.29440(17) 0.19474(13) 0.25516(9)
H17 H 1.3820 0.2151 0.2927
C21 C 1.20787(18) 0.26703(11) 0.20741(9)
H18 H 1.2345 0.3363 0.2130
C22 C 1.34631(19) 0.01647(13) 0.30504(10)
H19 H 1.2771 -0.0321 0.3244
H20 H 1.4053 0.0508 0.3529
H21 H 1.4153 -0.0191 0.2741
loop_
_geom_bond_atom_site_label_1
_geom_bond_atom_site_label_2
_geom_bond_site_symmetry_1
_geom_bond_site_symmetry_2
S1 O1 1_555 1_555
O2 S1 1_555 1_555
N1 S1 1_555 1_555
C1 N1 1_555 1_555
H1 C1 1_555 1_555
H2 C1 1_555 1_555
C2 C1 1_555 1_555
C3 C2 1_555 1_555
H3 C3 1_555 1_555
H4 C3 1_555 1_555
C4 C2 1_555 1_555
C5 C4 1_555 1_555
O3 C5 1_555 1_555
C6 N1 1_555 1_555
H5 C6 1_555 1_555
C7 C6 1_555 1_555
H6 C7 1_555 1_555
C8 C7 1_555 1_555
H7 C8 1_555 1_555
H8 C8 1_555 1_555
C9 C7 1_555 1_555
H9 C9 1_555 1_555
H10 C9 1_555 1_555
C10 C4 1_555 1_555
C11 O3 1_555 1_555
C12 C11 1_555 1_555
H11 C12 1_555 1_555
C13 C12 1_555 1_555
H12 C13 1_555 1_555
C14 C13 1_555 1_555
H13 C14 1_555 1_555
C15 C10 1_555 1_555
H14 C15 1_555 1_555
C16 S1 1_555 1_555
C17 C16 1_555 1_555
H15 C17 1_555 1_555
C18 C17 1_555 1_555
H16 C18 1_555 1_555
C19 C18 1_555 1_555
C20 C19 1_555 1_555
H17 C20 1_555 1_555
C21 C16 1_555 1_555
H18 C21 1_555 1_555
C22 C19 1_555 1_555
H19 C22 1_555 1_555
H20 C22 1_555 1_555
H21 C22 1_555 1_555
C5 C6 1_555 1_555
C8 C9 1_555 1_555
C10 C11 1_555 1_555
C14 C15 1_555 1_555
C20 C21 1_555 1_555

#END
