
#######################################################################
#
#                 Cambridge Crystallographic Data Centre
#                                CCDC 
#
#######################################################################
#
# If this CIF has been generated from an entry in the Cambridge 
# Structural Database, then it will include bibliographic, chemical, 
# crystal, experimental, refinement or atomic coordinate data resulting 
# from the CCDC's data processing and validation procedures.
#
#######################################################################

data_MAZROW
_chemical_formula_moiety         'C8 H7 Br1 F1 N1 O3'
_chemical_name_systematic        1-(4-Bromo-2-fluorophenyl)-2-nitroethanol
_symmetry_cell_setting           orthorhombic
_symmetry_space_group_name_H-M   'P 21 21 21'
_symmetry_Int_Tables_number      19
_space_group_name_Hall           'P 2ac 2ab'
loop_
_symmetry_equiv_pos_site_id
_symmetry_equiv_pos_as_xyz
1 x,y,z
2 1/2-x,-y,1/2+z
3 -x,1/2+y,1/2-z
4 1/2+x,1/2-y,-z
_cell_length_a                   5.1129(6)
_cell_length_b                   10.7353(9)
_cell_length_c                   16.9230(19)
_cell_angle_alpha                90
_cell_angle_beta                 90
_cell_angle_gamma                90
_cell_volume                     928.878
_cell_formula_units_Z            4
loop_
_atom_site_label
_atom_site_type_symbol
_atom_site_fract_x
_atom_site_fract_y
_atom_site_fract_z
Br1 Br 0.0575(2) 0.65716(9) 0.93952(6)
O1 O -0.4283(16) 0.1387(6) 0.7481(4)
H1 H -0.4773 0.1947 0.7186
C1 C -0.103(2) 0.5104(8) 0.9029(6)
C2 C -0.344(2) 0.2910(8) 0.8514(5)
C3 C -0.4780(19) 0.1721(8) 0.8261(5)
H2 H -0.6669 0.1783 0.8351
N1 N -0.4982(17) -0.0545(7) 0.8529(4)
C4 C -0.3625(18) 0.0657(8) 0.8759(5)
H3 H -0.1760 0.0588 0.8662
H4 H -0.3890 0.0824 0.9316
F1 F -0.6289(11) 0.3051(5) 0.9611(3)
C5 C -0.4295(19) 0.3531(9) 0.9182(5)
C6 C -0.3158(17) 0.4626(8) 0.9449(6)
H5 H -0.3795 0.5031 0.9895
O2 O -0.3637(15) -0.1370(6) 0.8260(4)
O3 O -0.7304(14) -0.0614(7) 0.8653(4)
C7 C -0.1393(19) 0.3424(9) 0.8106(5)
H6 H -0.0784 0.3030 0.7653
C8 C -0.018(2) 0.4535(9) 0.8359(6)
H7 H 0.1188 0.4876 0.8069
loop_
_geom_bond_atom_site_label_1
_geom_bond_atom_site_label_2
_geom_bond_site_symmetry_1
_geom_bond_site_symmetry_2
Br1 C1 1_555 1_555
O1 H1 1_555 1_555
C1 C6 1_555 1_555
C2 C3 1_555 1_555
C3 O1 1_555 1_555
H2 C3 1_555 1_555
N1 C4 1_555 1_555
C4 C3 1_555 1_555
H3 C4 1_555 1_555
H4 C4 1_555 1_555
F1 C5 1_555 1_555
C5 C2 1_555 1_555
C6 C5 1_555 1_555
H5 C6 1_555 1_555
O2 N1 1_555 1_555
O3 N1 1_555 1_555
C7 C2 1_555 1_555
H6 C7 1_555 1_555
C8 C1 1_555 1_555
H7 C8 1_555 1_555
C7 C8 1_555 1_555

#END
