
#######################################################################
#
#                 Cambridge Crystallographic Data Centre
#                                CCDC 
#
#######################################################################
#
# If this CIF has been generated from an entry in the Cambridge 
# Structural Database, then it will include bibliographic, chemical, 
# crystal, experimental, refinement or atomic coordinate data resulting 
# from the CCDC's data processing and validation procedures.
#
#######################################################################

data_MAZSAJ
_chemical_formula_moiety         'C13 H17 Cl2 N1 O3'
_chemical_name_systematic        
'(R)-t-Butyl (2-(2,5-dichlorophenyl)-2-hydroxyethyl)carbamate'
_symmetry_cell_setting           monoclinic
_symmetry_space_group_name_H-M   'P 21/c'
_symmetry_Int_Tables_number      14
_space_group_name_Hall           '-P 2ybc'
loop_
_symmetry_equiv_pos_site_id
_symmetry_equiv_pos_as_xyz
1 x,y,z
2 -x,1/2+y,1/2-z
3 -x,-y,-z
4 x,1/2-y,1/2+z
_cell_length_a                   14.0296(7)
_cell_length_b                   9.1604(5)
_cell_length_c                   11.5887(5)
_cell_angle_alpha                90
_cell_angle_beta                 99.472(4)
_cell_angle_gamma                90
_cell_volume                     1469.04
_cell_formula_units_Z            4
loop_
_atom_site_label
_atom_site_type_symbol
_atom_site_fract_x
_atom_site_fract_y
_atom_site_fract_z
Cl1 Cl 0.64231(4) 0.04663(6) 0.31694(5)
O1 O 0.58066(10) 0.47347(15) 0.14393(11)
H1 H 0.5848 0.5154 0.2071
C1 C 0.69590(13) 0.2769(2) 0.19406(15)
N1 N 0.44253(12) 0.26678(19) 0.01936(14)
H2 H 0.4217 0.3376 -0.0267
Cl2 Cl 0.94887(4) 0.41399(6) 0.11575(5)
O2 O 0.40262(11) 0.08312(17) 0.13236(12)
C2 C 0.72675(15) 0.1571(2) 0.26510(16)
O3 O 0.28848(10) 0.21187(16) 0.01159(11)
C3 C 0.82326(15) 0.1221(2) 0.29510(17)
H3 H 0.8418 0.0441 0.3451
C4 C 0.89256(15) 0.2027(2) 0.25108(18)
H4 H 0.9578 0.1802 0.2711
C5 C 0.86251(14) 0.3172(2) 0.17681(17)
C6 C 0.76620(14) 0.3558(2) 0.14867(16)
H5 H 0.7483 0.4346 0.0993
C7 C 0.59032(13) 0.3208(2) 0.16280(16)
H6 H 0.5559 0.2923 0.2264
C8 C 0.54556(14) 0.2433(2) 0.05094(16)
H7 H 0.5771 0.2769 -0.0126
H8 H 0.5576 0.1393 0.0603
C9 C 0.37903(14) 0.1799(2) 0.06083(16)
C10 C 0.20559(14) 0.1344(2) 0.04751(16)
C11 C 0.21401(16) -0.0290(2) 0.03081(18)
H9 H 0.2185 -0.0493 -0.0494
H10 H 0.1580 -0.0766 0.0508
H11 H 0.2708 -0.0646 0.0804
C12 C 0.19788(17) 0.1757(3) 0.17238(18)
H12 H 0.1934 0.2800 0.1784
H13 H 0.2541 0.1418 0.2240
H14 H 0.1412 0.1316 0.1938
C13 C 0.12134(16) 0.1943(3) -0.0370(2)
H15 H 0.1278 0.1671 -0.1153
H16 H 0.1204 0.2988 -0.0308
H17 H 0.0622 0.1551 -0.0185
loop_
_geom_bond_atom_site_label_1
_geom_bond_atom_site_label_2
_geom_bond_site_symmetry_1
_geom_bond_site_symmetry_2
Cl1 C2 1_555 1_555
O1 H1 1_555 1_555
C1 C2 1_555 1_555
N1 H2 1_555 1_555
Cl2 C5 1_555 1_555
O2 C9 1_555 1_555
C2 C3 1_555 1_555
O3 C9 1_555 1_555
C3 H3 1_555 1_555
C4 C3 1_555 1_555
H4 C4 1_555 1_555
C5 C4 1_555 1_555
C6 C1 1_555 1_555
H5 C6 1_555 1_555
C7 O1 1_555 1_555
H6 C7 1_555 1_555
C8 N1 1_555 1_555
H7 C8 1_555 1_555
H8 C8 1_555 1_555
C9 N1 1_555 1_555
C10 O3 1_555 1_555
C11 C10 1_555 1_555
H9 C11 1_555 1_555
H10 C11 1_555 1_555
H11 C11 1_555 1_555
C12 C10 1_555 1_555
H12 C12 1_555 1_555
H13 C12 1_555 1_555
H14 C12 1_555 1_555
C13 C10 1_555 1_555
H15 C13 1_555 1_555
H16 C13 1_555 1_555
H17 C13 1_555 1_555
C1 C7 1_555 1_555
C5 C6 1_555 1_555
C7 C8 1_555 1_555

#END
