
#######################################################################
#
#                 Cambridge Crystallographic Data Centre
#                                CCDC 
#
#######################################################################
#
# If this CIF has been generated from an entry in the Cambridge 
# Structural Database, then it will include bibliographic, chemical, 
# crystal, experimental, refinement or atomic coordinate data resulting 
# from the CCDC's data processing and validation procedures.
#
#######################################################################

data_MAZSEN
_chemical_formula_moiety         'C12 H15 N1 O2'
_chemical_name_systematic        (R)-5-mesityloxazolidin-2-one
_symmetry_cell_setting           monoclinic
_symmetry_space_group_name_H-M   'P 21'
_symmetry_Int_Tables_number      4
_space_group_name_Hall           'P 2yb'
loop_
_symmetry_equiv_pos_site_id
_symmetry_equiv_pos_as_xyz
1 x,y,z
2 -x,1/2+y,-z
_cell_length_a                   9.8262(4)
_cell_length_b                   6.7151(2)
_cell_length_c                   16.4978(6)
_cell_angle_alpha                90
_cell_angle_beta                 92.026(4)
_cell_angle_gamma                90
_cell_volume                     1087.91
_cell_formula_units_Z            4
loop_
_atom_site_label
_atom_site_type_symbol
_atom_site_fract_x
_atom_site_fract_y
_atom_site_fract_z
O1 O 0.85773(11) 0.03707(15) 0.91320(6)
O2 O 0.96686(12) -0.20867(16) 0.85096(7)
N1 N 0.99372(14) 0.11840(19) 0.81508(8)
H1 H 1.0532 0.1028 0.7786
C1 C 0.85338(15) 0.2551(2) 0.90994(9)
H3 H 0.8992 0.3080 0.9591
C2 C 0.93888(18) 0.3092(2) 0.83628(12)
H4 H 0.8825 0.3641 0.7923
H5 H 1.0105 0.4031 0.8510
C3 C 0.94346(14) -0.0317(2) 0.85744(9)
C4 C 0.70971(15) 0.3348(2) 0.90486(8)
C5 C 0.68115(15) 0.5042(2) 0.95117(8)
C6 C 0.55280(16) 0.5918(2) 0.94371(9)
H6 H 0.5344 0.7048 0.9740
C7 C 0.45232(16) 0.5143(3) 0.89223(9)
C8 C 0.48130(16) 0.3463(3) 0.84764(9)
H7 H 0.4136 0.2930 0.8133
C9 C 0.60831(16) 0.2538(2) 0.85236(9)
C10 C 0.78570(16) 0.5979(2) 1.00864(11)
H8 H 0.7465 0.7117 1.0342
H9 H 0.8631 0.6390 0.9789
H10 H 0.8139 0.5027 1.0492
C11 C 0.31422(19) 0.6120(3) 0.88538(12)
H11 H 0.3132 0.7270 0.9199
H12 H 0.2460 0.5194 0.9017
H13 H 0.2955 0.6516 0.8302
C12 C 0.62941(19) 0.0718(3) 0.80060(11)
H14 H 0.5472 0.0431 0.7696
H15 H 0.6525 -0.0397 0.8348
H16 H 0.7020 0.0962 0.7644
O3 O 1.26784(12) -0.22573(16) 0.61959(8)
O4 O 1.17555(14) 0.02074(17) 0.69097(9)
N2 N 1.11712(13) -0.30569(19) 0.70990(8)
H2 H 1.0624 -0.2904 0.7490
C13 C 1.27090(15) -0.4427(2) 0.62400(9)
H17 H 1.3529 -0.4819 0.6555
C14 C 1.14643(18) -0.4954(2) 0.67358(10)
H18 H 1.0710 -0.5417 0.6390
H19 H 1.1684 -0.5956 0.7143
C15 C 1.18446(16) -0.1564(2) 0.67605(10)
C16 C 1.27514(14) -0.5407(2) 0.54213(9)
C17 C 1.19072(14) -0.4800(2) 0.47621(9)
C18 C 1.19579(16) -0.5837(2) 0.40357(10)
H20 H 1.1412 -0.5416 0.3597
C19 C 1.27931(16) -0.7476(2) 0.39414(9)
C20 C 1.36065(15) -0.8064(2) 0.46019(9)
H21 H 1.4171 -0.9164 0.4548
C21 C 1.36114(13) -0.7073(2) 0.53410(9)
C22 C 1.09202(19) -0.3082(3) 0.48028(12)
H22 H 1.0450 -0.2926 0.4287
H23 H 1.1411 -0.1882 0.4936
H24 H 1.0273 -0.3345 0.5212
C23 C 1.28114(12) -0.86043(18) 0.31516(7)
H25 H 1.2187 -0.7997 0.2765
H26 H 1.2546 -0.9960 0.3240
H27 H 1.3713 -0.8574 0.2946
C24 C 1.45010(12) -0.78746(18) 0.60295(7)
H28 H 1.5004 -0.9002 0.5844
H29 H 1.3942 -0.8274 0.6466
H30 H 1.5124 -0.6858 0.6216
loop_
_geom_bond_atom_site_label_1
_geom_bond_atom_site_label_2
_geom_bond_site_symmetry_1
_geom_bond_site_symmetry_2
O1 C1 1_555 1_555
O2 C3 1_555 1_555
O3 C13 1_555 1_555
O4 C15 1_555 1_555
N1 H1 1_555 1_555
N2 H2 1_555 1_555
C1 H3 1_555 1_555
C2 N1 1_555 1_555
H4 C2 1_555 1_555
H5 C2 1_555 1_555
C3 O1 1_555 1_555
C4 C1 1_555 1_555
C5 C4 1_555 1_555
C6 C5 1_555 1_555
H6 C6 1_555 1_555
C7 C6 1_555 1_555
C8 C7 1_555 1_555
H7 C8 1_555 1_555
C9 C4 1_555 1_555
C10 C5 1_555 1_555
H8 C10 1_555 1_555
H9 C10 1_555 1_555
H10 C10 1_555 1_555
C11 C7 1_555 1_555
H11 C11 1_555 1_555
H12 C11 1_555 1_555
H13 C11 1_555 1_555
C12 C9 1_555 1_555
H14 C12 1_555 1_555
H15 C12 1_555 1_555
H16 C12 1_555 1_555
C13 H17 1_555 1_555
C14 N2 1_555 1_555
H18 C14 1_555 1_555
H19 C14 1_555 1_555
C15 O3 1_555 1_555
C16 C13 1_555 1_555
C17 C16 1_555 1_555
C18 C17 1_555 1_555
H20 C18 1_555 1_555
C19 C18 1_555 1_555
C20 C19 1_555 1_555
H21 C20 1_555 1_555
C21 C16 1_555 1_555
C22 C17 1_555 1_555
H22 C22 1_555 1_555
H23 C22 1_555 1_555
H24 C22 1_555 1_555
C23 C19 1_555 1_555
H25 C23 1_555 1_555
H26 C23 1_555 1_555
H27 C23 1_555 1_555
C24 C21 1_555 1_555
H28 C24 1_555 1_555
H29 C24 1_555 1_555
H30 C24 1_555 1_555
N1 C3 1_555 1_555
N2 C15 1_555 1_555
C1 C2 1_555 1_555
C8 C9 1_555 1_555
C13 C14 1_555 1_555
C20 C21 1_555 1_555

#END
