
#######################################################################
#
#                 Cambridge Crystallographic Data Centre
#                                CCDC 
#
#######################################################################
#
# If this CIF has been generated from an entry in the Cambridge 
# Structural Database, then it will include bibliographic, chemical, 
# crystal, experimental, refinement or atomic coordinate data resulting 
# from the CCDC's data processing and validation procedures.
#
#######################################################################

data_MAZSUB
_chemical_formula_moiety         'C48 H60 O8 S24,C1 H1 Cl3'
_chemical_name_systematic        
'cis-5,8,22,25,32,35,42,45-Octaoxa-2,11,13,17,19,28,29,38,39,48,49,53-dodecathia-1(2,7,6,3),12(2,3,7,6),18(2,3,6,7)-tritetrathiafulvalenatetracyclo(16.10.10.10^1,12^.5^12,18^)tripentacontaphane chloroform clathrate'
_symmetry_cell_setting           orthorhombic
_symmetry_space_group_name_H-M   'P c a 21'
_symmetry_Int_Tables_number      29
_space_group_name_Hall           'P 2c -2ac'
loop_
_symmetry_equiv_pos_site_id
_symmetry_equiv_pos_as_xyz
1 x,y,z
2 -x,-y,1/2+z
3 1/2+x,-y,z
4 1/2-x,y,1/2+z
_cell_length_a                   39.336(2)
_cell_length_b                   12.5202(6)
_cell_length_c                   30.9767(15)
_cell_angle_alpha                90
_cell_angle_beta                 90
_cell_angle_gamma                90
_cell_volume                     15255.9
_exptl_crystal_colour            orange
_exptl_crystal_description       plate
_chemical_melting_point          392K
_cell_formula_units_Z            8
_exptl_crystal_recrystallization_method 'chloroform/petroleum ether'
loop_
_atom_site_label
_atom_site_type_symbol
_atom_site_fract_x
_atom_site_fract_y
_atom_site_fract_z
S1 S 0.72826(7) -0.0108(2) 0.61526(9)
S2 S 0.65363(6) 0.0444(2) 0.60470(9)
S3 S 0.56923(6) 0.0451(2) 0.59990(8)
S4 S 0.49350(6) -0.00499(18) 0.60134(8)
S5 S 0.50050(6) -0.0491(2) 0.49547(8)
S6 S 0.57420(6) 0.0087(2) 0.50572(8)
S7 S 0.65563(7) 0.0155(2) 0.51010(9)
S8 S 0.72958(7) -0.0409(2) 0.50748(9)
S9 S 0.72623(7) 0.4376(2) 0.62506(8)
S10 S 0.65126(6) 0.3859(2) 0.61370(8)
S11 S 0.56609(6) 0.3975(2) 0.60544(8)
S12 S 0.49014(6) 0.44276(18) 0.60048(8)
S13 S 0.50073(6) 0.4731(2) 0.49596(8)
S14 S 0.57550(6) 0.4315(2) 0.51155(8)
S15 S 0.65430(6) 0.4206(2) 0.51940(8)
S16 S 0.72959(6) 0.4738(2) 0.52112(8)
S17 S 0.64575(5) 0.83184(15) 0.23420(7)
S18 S 0.64728(5) 0.59950(16) 0.21139(7)
S19 S 0.65913(5) 0.34641(16) 0.21235(8)
S20 S 0.67895(6) 0.12197(18) 0.23345(8)
S21 S 0.59492(6) 0.07263(17) 0.24080(8)
S22 S 0.58554(5) 0.30685(16) 0.22046(7)
S23 S 0.57291(5) 0.56974(16) 0.21851(7)
S24 S 0.56061(5) 0.80550(16) 0.23530(7)
O1 O 0.65349(17) 0.7344(5) 0.3584(2)
O2 O 0.69152(17) 0.6774(6) 0.4335(2)
O3 O 0.71508(19) 0.1504(6) 0.4481(2)
O4 O 0.69537(18) 0.1898(6) 0.3580(2)
O5 O 0.55549(18) 0.1560(6) 0.3554(2)
O6 O 0.5213(2) 0.1404(6) 0.4374(2)
O7 O 0.54536(17) 0.6834(6) 0.4157(2)
O8 O 0.55330(19) 0.8376(5) 0.3392(2)
C1 C 0.6306(2) 0.0293(8) 0.5563(3)
C2 C 0.5959(2) 0.0315(8) 0.5540(3)
C3 C 0.5313(3) 0.0087(7) 0.5723(3)
C4 C 0.5342(2) -0.0079(8) 0.5300(3)
C5 C 0.6942(3) -0.0051(8) 0.5387(4)
C6 C 0.6932(2) 0.0088(8) 0.5820(3)
C7 C 0.6285(2) 0.4066(7) 0.5658(3)
C8 C 0.5948(2) 0.4103(7) 0.5620(3)
C9 C 0.5297(2) 0.4318(7) 0.5748(3)
C10 C 0.5338(2) 0.4486(7) 0.5322(3)
C11 C 0.6921(2) 0.4415(7) 0.5482(3)
C12 C 0.6909(2) 0.4240(7) 0.5913(3)
C13 C 0.6138(2) 0.5089(6) 0.2160(3)
C14 C 0.61828(19) 0.4022(6) 0.2168(3)
C15 C 0.6468(2) 0.2179(6) 0.2286(3)
C16 C 0.6132(2) 0.1985(6) 0.2318(3)
C17 C 0.5891(2) 0.6994(6) 0.2283(3)
C18 C 0.6226(2) 0.7119(6) 0.2260(3)
C19 C 0.6429(3) 0.8396(7) 0.2924(3)
H1 H 0.6514 0.9101 0.3022
H2 H 0.6187 0.8337 0.3012
C20 C 0.6632(3) 0.7523(8) 0.3142(3)
H3 H 0.6602 0.6850 0.2979
H4 H 0.6876 0.7714 0.3132
C21 C 0.6671(3) 0.8095(7) 0.3876(3)
H5 H 0.6531 0.8753 0.3871
H6 H 0.6905 0.8286 0.3786
C22 C 0.6678(3) 0.7644(8) 0.4331(3)
H7 H 0.6749 0.8202 0.4539
H8 H 0.6449 0.7389 0.4414
C23 C 0.6984(3) 0.6408(9) 0.4760(3)
H9 H 0.6771 0.6348 0.4928
H10 H 0.7138 0.6909 0.4911
C24 C 0.7152(3) 0.5315(8) 0.4710(3)
H11 H 0.7348 0.5384 0.4513
H12 H 0.6987 0.4820 0.4574
C25 C 0.7266(3) 0.3092(9) 0.6511(4)
H13 H 0.7459 0.3080 0.6717
H14 H 0.7055 0.3024 0.6682
C26 C 0.7295(3) 0.2124(8) 0.6224(3)
H15 H 0.7113 0.2146 0.6004
H16 H 0.7516 0.2144 0.6071
C27 C 0.7269(3) 0.1119(8) 0.6469(3)
H17 H 0.7054 0.1130 0.6634
H18 H 0.7458 0.1098 0.6681
C28 C 0.7525(3) 0.0872(10) 0.5032(4)
H19 H 0.7616 0.1062 0.5320
H20 H 0.7720 0.0781 0.4834
C29 C 0.7307(3) 0.1777(9) 0.4872(4)
H21 H 0.7131 0.1946 0.5090
H22 H 0.7449 0.2421 0.4831
C30 C 0.6927(3) 0.2294(9) 0.4343(4)
H23 H 0.7055 0.2948 0.4264
H24 H 0.6766 0.2475 0.4577
C31 C 0.6736(3) 0.1875(11) 0.3953(4)
H25 H 0.6659 0.1135 0.4008
H26 H 0.6533 0.2322 0.3900
C32 C 0.6785(3) 0.1528(8) 0.3210(3)
H27 H 0.6567 0.1914 0.3177
H28 H 0.6734 0.0758 0.3242
C33 C 0.7008(2) 0.1707(8) 0.2805(3)
H29 H 0.7227 0.1325 0.2839
H30 H 0.7057 0.2478 0.2771
C34 C 0.5642(2) 0.1011(7) 0.2825(3)
H31 H 0.5492 0.1597 0.2728
H32 H 0.5499 0.0371 0.2873
C35 C 0.5809(2) 0.1326(8) 0.3247(4)
H33 H 0.5954 0.0735 0.3352
H34 H 0.5955 0.1961 0.3202
C36 C 0.5709(3) 0.1798(9) 0.3962(4)
H35 H 0.5894 0.2327 0.3921
H36 H 0.5810 0.1140 0.4085
C37 C 0.5448(3) 0.2237(10) 0.4267(4)
H37 H 0.5560 0.2506 0.4532
H38 H 0.5326 0.2839 0.4129
C38 C 0.5025(3) 0.1683(9) 0.4748(4)
H39 H 0.4890 0.2338 0.4692
H40 H 0.5182 0.1831 0.4991
C39 C 0.4790(3) 0.0780(9) 0.4867(3)
H41 H 0.4620 0.0689 0.4634
H42 H 0.4665 0.0975 0.5134
C40 C 0.4934(3) 0.1189(7) 0.6320(3)
H43 H 0.4743 0.1175 0.6528
H44 H 0.5148 0.1241 0.6487
C41 C 0.4899(2) 0.2194(7) 0.6027(3)
H45 H 0.5094 0.2235 0.5825
H46 H 0.4688 0.2149 0.5855
C42 C 0.4891(2) 0.3191(7) 0.6316(3)
H47 H 0.5089 0.3174 0.6514
H48 H 0.4682 0.3177 0.6494
C43 C 0.5208(3) 0.5311(8) 0.4490(3)
H49 H 0.5410 0.4877 0.4413
H50 H 0.5047 0.5278 0.4245
C44 C 0.5318(2) 0.6458(8) 0.4554(3)
H51 H 0.5121 0.6901 0.4641
H52 H 0.5493 0.6500 0.4784
C45 C 0.5518(3) 0.7944(7) 0.4170(3)
H53 H 0.5645 0.8119 0.4437
H54 H 0.5299 0.8335 0.4178
C46 C 0.5720(3) 0.8299(8) 0.3782(3)
H55 H 0.5821 0.9006 0.3846
H56 H 0.5909 0.7790 0.3738
C47 C 0.5470(3) 0.7339(7) 0.3206(3)
H57 H 0.5311 0.6929 0.3390
H58 H 0.5685 0.6933 0.3181
C48 C 0.5313(2) 0.7521(8) 0.2753(3)
H59 H 0.5119 0.8018 0.2782
H60 H 0.5223 0.6832 0.2646
S25 S 0.52649(7) 0.9420(2) 0.70844(9)
S26 S 0.60110(6) 0.8955(2) 0.72172(8)
S27 S 0.68385(6) 0.8868(2) 0.73013(8)
S28 S 0.75945(6) 0.92834(18) 0.73281(8)
S29 S 0.75264(6) 0.9330(2) 0.83835(9)
S30 S 0.67726(6) 0.8949(2) 0.82533(8)
S31 S 0.59554(6) 0.9020(2) 0.81698(8)
S32 S 0.51898(6) 0.9328(2) 0.81355(9)
S33 S 0.52250(8) 0.4952(2) 0.71749(11)
S34 S 0.59846(7) 0.5310(3) 0.72853(9)
S35 S 0.68263(6) 0.5182(2) 0.73416(9)
S36 S 0.75896(6) 0.48144(18) 0.73571(8)
S37 S 0.75094(6) 0.4402(2) 0.84052(8)
S38 S 0.67629(6) 0.4800(2) 0.82839(9)
S39 S 0.59535(7) 0.4979(3) 0.82292(10)
S40 S 0.51981(7) 0.4689(2) 0.82448(10)
S41 S 0.60579(6) 0.63963(16) 1.10624(7)
S42 S 0.60370(6) 0.87282(16) 1.12638(8)
S43 S 0.59143(6) 1.12800(17) 1.12278(8)
S44 S 0.57229(6) 1.35232(18) 1.10094(8)
S45 S 0.65721(7) 1.39884(17) 1.09444(8)
S46 S 0.66525(5) 1.16549(16) 1.11590(8)
S47 S 0.67775(5) 0.90442(16) 1.11830(7)
S48 S 0.69092(5) 0.66983(16) 1.10104(7)
O9 O 0.6008(2) 0.7139(7) 0.9794(3)
O10 O 0.54479(18) 0.6246(6) 0.8947(2)
O11 O 0.54611(17) 1.1522(6) 0.9010(2)
O12 O 0.55053(18) 1.2870(6) 0.9769(2)
O13 O 0.6887(2) 1.3151(6) 0.9764(2)
O14 O 0.70439(17) 1.1496(6) 0.9107(2)
O15 O 0.7232(2) 0.6017(7) 0.9063(3)
O16 O 0.7018(2) 0.6281(7) 0.9983(3)
C49 C 0.6220(2) 0.8973(8) 0.7716(3)
C50 C 0.6566(2) 0.8931(8) 0.7752(3)
C51 C 0.7212(2) 0.9133(7) 0.7613(3)
C52 C 0.7175(2) 0.9171(8) 0.8035(3)
C53 C 0.5582(2) 0.9261(8) 0.7876(3)
C54 C 0.5608(2) 0.9221(7) 0.7435(3)
C55 C 0.6555(2) 0.5053(8) 0.7793(3)
C56 C 0.6211(3) 0.5137(10) 0.7768(3)
C57 C 0.7203(2) 0.4888(7) 0.7632(3)
C58 C 0.7170(2) 0.4713(7) 0.8064(3)
C59 C 0.5580(3) 0.5091(9) 0.7517(4)
C60 C 0.5568(2) 0.4967(10) 0.7946(4)
C61 C 0.6372(2) 0.9651(6) 1.1211(3)
C62 C 0.6323(2) 1.0696(7) 1.1193(3)
C63 C 0.6051(2) 1.2576(6) 1.1056(3)
C64 C 0.6379(2) 1.2732(6) 1.1033(3)
C65 C 0.6621(2) 0.7753(6) 1.1081(3)
C66 C 0.6282(2) 0.7612(7) 1.1120(3)
C67 C 0.6085(4) 0.6260(10) 1.0481(4)
H61 H 0.6327 0.6254 1.0393
H62 H 0.5983 0.5572 1.0393
C68 C 0.5913(4) 0.7116(13) 1.0268(5)
H63 H 0.5977 0.7803 1.0404
H64 H 0.5665 0.7022 1.0298
C69 C 0.5820(3) 0.6390(10) 0.9548(4)
H65 H 0.5621 0.6143 0.9716
H66 H 0.5964 0.5762 0.9483
C70 C 0.5705(3) 0.6889(9) 0.9141(3)
H67 H 0.5614 0.7610 0.9201
H68 H 0.5900 0.6963 0.8941
C71 C 0.5315(3) 0.6745(9) 0.8569(3)
H69 H 0.5501 0.6878 0.8361
H70 H 0.5211 0.7441 0.8646
C72 C 0.5053(3) 0.6033(9) 0.8369(4)
H71 H 0.4971 0.6370 0.8099
H72 H 0.4857 0.5982 0.8568
C73 C 0.5254(4) 0.6171(10) 0.6849(4)
H73 H 0.5475 0.6179 0.6695
H74 H 0.5071 0.6169 0.6630
C74 C 0.5224(3) 0.7191(8) 0.7129(4)
H75 H 0.5003 0.7204 0.7282
H76 H 0.5409 0.7214 0.7346
C75 C 0.5251(3) 0.8127(9) 0.6825(4)
H77 H 0.5055 0.8111 0.6626
H78 H 0.5460 0.8041 0.6649
C76 C 0.5297(3) 0.9934(9) 0.8647(3)
H79 H 0.5109 0.9812 0.8853
H80 H 0.5503 0.9586 0.8764
C77 C 0.5360(3) 1.1113(8) 0.8608(3)
H81 H 0.5540 1.1246 0.8391
H82 H 0.5150 1.1476 0.8511
C78 C 0.5491(3) 1.2618(9) 0.9006(4)
H83 H 0.5261 1.2938 0.9012
H84 H 0.5601 1.2839 0.8732
C79 C 0.5687(4) 1.3034(11) 0.9366(4)
H85 H 0.5910 1.2667 0.9379
H86 H 0.5729 1.3806 0.9323
C80 C 0.5694(3) 1.3226(8) 1.0128(4)
H87 H 0.5741 1.3999 1.0099
H88 H 0.5914 1.2843 1.0140
C81 C 0.5495(3) 1.3022(8) 1.0538(3)
H89 H 0.5455 1.2246 1.0571
H90 H 0.5271 1.3379 1.0519
C82 C 0.6857(3) 1.3682(8) 1.0484(4)
H91 H 0.6992 1.4324 1.0411
H92 H 0.7017 1.3107 1.0568
C83 C 0.6663(3) 1.3345(9) 1.0106(3)
H93 H 0.6533 1.2688 1.0174
H94 H 0.6499 1.3911 1.0024
C84 C 0.6697(3) 1.2920(9) 0.9367(4)
H95 H 0.6577 1.3569 0.9268
H96 H 0.6526 1.2356 0.9423
C85 C 0.6938(3) 1.2559(9) 0.9032(4)
H97 H 0.6828 1.2606 0.8746
H98 H 0.7139 1.3035 0.9031
C86 C 0.7227(3) 1.1100(8) 0.8752(3)
H99 H 0.7430 1.1550 0.8700
H100 H 0.7083 1.1116 0.8490
C87 C 0.7335(3) 0.9974(8) 0.8847(3)
H101 H 0.7134 0.9557 0.8940
H102 H 0.7499 0.9978 0.9088
C88 C 0.7607(3) 0.8030(7) 0.7037(3)
H103 H 0.7409 0.8001 0.6840
H104 H 0.7815 0.8017 0.6857
C89 C 0.7603(2) 0.7049(8) 0.7315(3)
H105 H 0.7813 0.7023 0.7491
H106 H 0.7406 0.7075 0.7513
C90 C 0.7582(2) 0.6067(7) 0.7039(3)
H107 H 0.7775 0.6063 0.6834
H108 H 0.7369 0.6092 0.6868
C91 C 0.7654(3) 0.5738(9) 0.8544(3)
H109 H 0.7831 0.5676 0.8770
H110 H 0.7763 0.6056 0.8286
C92 C 0.7391(3) 0.6474(11) 0.8698(4)
H111 H 0.7494 0.7169 0.8776
H112 H 0.7221 0.6599 0.8468
C93 C 0.6965(4) 0.6647(15) 0.9211(5)
H113 H 0.6790 0.6707 0.8982
H114 H 0.7050 0.7374 0.9275
C94 C 0.6813(4) 0.6203(14) 0.9593(5)
H115 H 0.6762 0.5440 0.9538
H116 H 0.6593 0.6570 0.9645
C95 C 0.7042(3) 0.7315(9) 1.0163(4)
H117 H 0.6812 0.7633 1.0184
H118 H 0.7181 0.7776 0.9973
C96 C 0.7204(3) 0.7256(8) 1.0615(3)
H119 H 0.7273 0.7981 1.0707
H120 H 0.7411 0.6806 1.0602
C97 C 0.62233(17) 0.4988(7) 0.3585(2)
H121 H 0.6236 0.5783 0.3556
Cl1 Cl 0.58423(7) 0.4568(3) 0.33487(11)
Cl2 Cl 0.62304(9) 0.4679(3) 0.41349(9)
Cl3 Cl 0.65679(8) 0.4443(3) 0.33110(12)
C98 C 0.6300(5) 0.9748(15) 0.9701(6)
H122 H 0.6139 0.9341 0.9890
Cl4 Cl 0.6662(2) 1.0002(6) 0.9998(3)
Cl5 Cl 0.6066(2) 1.0659(8) 0.9409(3)
Cl6 Cl 0.6495(2) 0.8844(7) 0.9357(3)
C99? C 0.6220(3) 0.9639(14) 0.9799(3)
H123? H 0.6162 0.8875 0.9860
Cl7? Cl 0.6545(3) 1.0040(10) 1.0126(4)
Cl8? Cl 0.59334(18) 1.0471(6) 1.0059(2)
Cl9? Cl 0.62370(19) 0.9851(6) 0.9247(2)
loop_
_geom_bond_atom_site_label_1
_geom_bond_atom_site_label_2
_geom_bond_site_symmetry_1
_geom_bond_site_symmetry_2
S1 C6 1_555 1_555
S2 C1 1_555 1_555
S3 C2 1_555 1_555
S4 C3 1_555 1_555
S5 C4 1_555 1_555
S6 C2 1_555 1_555
S7 C1 1_555 1_555
S8 C5 1_555 1_555
S9 C12 1_555 1_555
S10 C7 1_555 1_555
S11 C8 1_555 1_555
S12 C9 1_555 1_555
S13 C10 1_555 1_555
S14 C8 1_555 1_555
S15 C7 1_555 1_555
S16 C11 1_555 1_555
S17 C18 1_555 1_555
S18 C13 1_555 1_555
S19 C14 1_555 1_555
S20 C15 1_555 1_555
S21 C16 1_555 1_555
S22 C14 1_555 1_555
S23 C13 1_555 1_555
S24 C17 1_555 1_555
S25 C54 1_555 1_555
S26 C49 1_555 1_555
S27 C50 1_555 1_555
S28 C51 1_555 1_555
S29 C52 1_555 1_555
S30 C50 1_555 1_555
S31 C49 1_555 1_555
S32 C53 1_555 1_555
S33 C59 1_555 1_555
S34 C56 1_555 1_555
S35 C55 1_555 1_555
S36 C57 1_555 1_555
S37 C58 1_555 1_555
S38 C55 1_555 1_555
S39 C56 1_555 1_555
S40 C60 1_555 1_555
S41 C66 1_555 1_555
S42 C61 1_555 1_555
S43 C62 1_555 1_555
S44 C63 1_555 1_555
S45 C64 1_555 1_555
S46 C62 1_555 1_555
S47 C61 1_555 1_555
S48 C65 1_555 1_555
O1 C20 1_555 1_555
O2 C22 1_555 1_555
O3 C29 1_555 1_555
O4 C31 1_555 1_555
O5 C35 1_555 1_555
O6 C37 1_555 1_555
O7 C44 1_555 1_555
O8 C46 1_555 1_555
O9 C68 1_555 1_555
O10 C70 1_555 1_555
O11 C77 1_555 1_555
O12 C79 1_555 1_555
O13 C83 1_555 1_555
O14 C85 1_555 1_555
O15 C92 1_555 1_555
O16 C94 1_555 1_555
C1 C2 1_555 1_555
C3 S3 1_555 1_555
C4 S6 1_555 1_555
C5 S7 1_555 1_555
C6 S2 1_555 1_555
C7 C8 1_555 1_555
C9 S11 1_555 1_555
C10 S14 1_555 1_555
C11 S15 1_555 1_555
C12 S10 1_555 1_555
C13 C14 1_555 1_555
C15 S19 1_555 1_555
C16 S22 1_555 1_555
C17 S23 1_555 1_555
C18 S18 1_555 1_555
C19 S17 1_555 1_555
H1 C19 1_555 1_555
H2 C19 1_555 1_555
C20 C19 1_555 1_555
H3 C20 1_555 1_555
H4 C20 1_555 1_555
C21 O1 1_555 1_555
H5 C21 1_555 1_555
H6 C21 1_555 1_555
C22 C21 1_555 1_555
H7 C22 1_555 1_555
H8 C22 1_555 1_555
C23 O2 1_555 1_555
H9 C23 1_555 1_555
H10 C23 1_555 1_555
C24 S16 1_555 1_555
H11 C24 1_555 1_555
H12 C24 1_555 1_555
C25 S9 1_555 1_555
H13 C25 1_555 1_555
H14 C25 1_555 1_555
C26 C25 1_555 1_555
H15 C26 1_555 1_555
H16 C26 1_555 1_555
C27 S1 1_555 1_555
H17 C27 1_555 1_555
H18 C27 1_555 1_555
C28 S8 1_555 1_555
H19 C28 1_555 1_555
H20 C28 1_555 1_555
C29 C28 1_555 1_555
H21 C29 1_555 1_555
H22 C29 1_555 1_555
C30 O3 1_555 1_555
H23 C30 1_555 1_555
H24 C30 1_555 1_555
C31 C30 1_555 1_555
H25 C31 1_555 1_555
H26 C31 1_555 1_555
C32 O4 1_555 1_555
H27 C32 1_555 1_555
H28 C32 1_555 1_555
C33 S20 1_555 1_555
H29 C33 1_555 1_555
H30 C33 1_555 1_555
C34 S21 1_555 1_555
H31 C34 1_555 1_555
H32 C34 1_555 1_555
C35 C34 1_555 1_555
H33 C35 1_555 1_555
H34 C35 1_555 1_555
C36 O5 1_555 1_555
H35 C36 1_555 1_555
H36 C36 1_555 1_555
C37 C36 1_555 1_555
H37 C37 1_555 1_555
H38 C37 1_555 1_555
C38 O6 1_555 1_555
H39 C38 1_555 1_555
H40 C38 1_555 1_555
C39 S5 1_555 1_555
H41 C39 1_555 1_555
H42 C39 1_555 1_555
C40 S4 1_555 1_555
H43 C40 1_555 1_555
H44 C40 1_555 1_555
C41 C40 1_555 1_555
H45 C41 1_555 1_555
H46 C41 1_555 1_555
C42 S12 1_555 1_555
H47 C42 1_555 1_555
H48 C42 1_555 1_555
C43 S13 1_555 1_555
H49 C43 1_555 1_555
H50 C43 1_555 1_555
C44 C43 1_555 1_555
H51 C44 1_555 1_555
H52 C44 1_555 1_555
C45 O7 1_555 1_555
H53 C45 1_555 1_555
H54 C45 1_555 1_555
C46 C45 1_555 1_555
H55 C46 1_555 1_555
H56 C46 1_555 1_555
C47 O8 1_555 1_555
H57 C47 1_555 1_555
H58 C47 1_555 1_555
C48 S24 1_555 1_555
H59 C48 1_555 1_555
H60 C48 1_555 1_555
C49 C50 1_555 1_555
C51 S27 1_555 1_555
C52 S30 1_555 1_555
C53 S31 1_555 1_555
C54 S26 1_555 1_555
C55 C56 1_555 1_555
C57 S35 1_555 1_555
C58 S38 1_555 1_555
C59 S34 1_555 1_555
C60 S39 1_555 1_555
C61 C62 1_555 1_555
C63 S43 1_555 1_555
C64 S46 1_555 1_555
C65 S47 1_555 1_555
C66 S42 1_555 1_555
C67 S41 1_555 1_555
H61 C67 1_555 1_555
H62 C67 1_555 1_555
C68 C67 1_555 1_555
H63 C68 1_555 1_555
H64 C68 1_555 1_555
C69 O9 1_555 1_555
H65 C69 1_555 1_555
H66 C69 1_555 1_555
C70 C69 1_555 1_555
H67 C70 1_555 1_555
H68 C70 1_555 1_555
C71 O10 1_555 1_555
H69 C71 1_555 1_555
H70 C71 1_555 1_555
C72 S40 1_555 1_555
H71 C72 1_555 1_555
H72 C72 1_555 1_555
C73 S33 1_555 1_555
H73 C73 1_555 1_555
H74 C73 1_555 1_555
C74 C73 1_555 1_555
H75 C74 1_555 1_555
H76 C74 1_555 1_555
C75 S25 1_555 1_555
H77 C75 1_555 1_555
H78 C75 1_555 1_555
C76 S32 1_555 1_555
H79 C76 1_555 1_555
H80 C76 1_555 1_555
C77 C76 1_555 1_555
H81 C77 1_555 1_555
H82 C77 1_555 1_555
C78 O11 1_555 1_555
H83 C78 1_555 1_555
H84 C78 1_555 1_555
C79 C78 1_555 1_555
H85 C79 1_555 1_555
H86 C79 1_555 1_555
C80 O12 1_555 1_555
H87 C80 1_555 1_555
H88 C80 1_555 1_555
C81 S44 1_555 1_555
H89 C81 1_555 1_555
H90 C81 1_555 1_555
C82 S45 1_555 1_555
H91 C82 1_555 1_555
H92 C82 1_555 1_555
C83 C82 1_555 1_555
H93 C83 1_555 1_555
H94 C83 1_555 1_555
C84 O13 1_555 1_555
H95 C84 1_555 1_555
H96 C84 1_555 1_555
C85 C84 1_555 1_555
H97 C85 1_555 1_555
H98 C85 1_555 1_555
C86 O14 1_555 1_555
H99 C86 1_555 1_555
H100 C86 1_555 1_555
C87 S29 1_555 1_555
H101 C87 1_555 1_555
H102 C87 1_555 1_555
C88 S28 1_555 1_555
H103 C88 1_555 1_555
H104 C88 1_555 1_555
C89 C88 1_555 1_555
H105 C89 1_555 1_555
H106 C89 1_555 1_555
C90 S36 1_555 1_555
H107 C90 1_555 1_555
H108 C90 1_555 1_555
C91 S37 1_555 1_555
H109 C91 1_555 1_555
H110 C91 1_555 1_555
C92 C91 1_555 1_555
H111 C92 1_555 1_555
H112 C92 1_555 1_555
C93 O15 1_555 1_555
H113 C93 1_555 1_555
H114 C93 1_555 1_555
C94 C93 1_555 1_555
H115 C94 1_555 1_555
H116 C94 1_555 1_555
C95 O16 1_555 1_555
H117 C95 1_555 1_555
H118 C95 1_555 1_555
C96 S48 1_555 1_555
H119 C96 1_555 1_555
H120 C96 1_555 1_555
C97 H121 1_555 1_555
Cl1 C97 1_555 1_555
Cl2 C97 1_555 1_555
Cl3 C97 1_555 1_555
C98 H122 1_555 1_555
Cl4 C98 1_555 1_555
Cl5 C98 1_555 1_555
Cl6 C98 1_555 1_555
C3 C4 1_555 1_555
C5 C6 1_555 1_555
C9 C10 1_555 1_555
C11 C12 1_555 1_555
C15 C16 1_555 1_555
C17 C18 1_555 1_555
C23 C24 1_555 1_555
C26 C27 1_555 1_555
C32 C33 1_555 1_555
C38 C39 1_555 1_555
C41 C42 1_555 1_555
C47 C48 1_555 1_555
C51 C52 1_555 1_555
C53 C54 1_555 1_555
C57 C58 1_555 1_555
C59 C60 1_555 1_555
C63 C64 1_555 1_555
C65 C66 1_555 1_555
C71 C72 1_555 1_555
C74 C75 1_555 1_555
C80 C81 1_555 1_555
C86 C87 1_555 1_555
C89 C90 1_555 1_555
C95 C96 1_555 1_555

#END
