
#######################################################################
#
#                 Cambridge Crystallographic Data Centre
#                                CCDC 
#
#######################################################################
#
# If this CIF has been generated from an entry in the Cambridge 
# Structural Database, then it will include bibliographic, chemical, 
# crystal, experimental, refinement or atomic coordinate data resulting 
# from the CCDC's data processing and validation procedures.
#
#######################################################################

data_MAZSOV
_chemical_formula_moiety         'C50 H64 O10 S24,3(C1 H1 Cl3)'
_chemical_name_systematic        
'cis-5,8,16,24,27,34,37,44,47,54-Decaoxa-2,11,13,19,21,30,31,40,41,50,51,57-dodecathia-1(2,7,6,3),12(2,3,7,6),20(2,3,6,7)-tritetrathiafulvalenatetracyclo(18.10.10.10^1,2^.7^12,20^)heptapentacontaphane bis(chloroform) clathrate chloroform solvate'
_symmetry_cell_setting           orthorhombic
_symmetry_space_group_name_H-M   'P n a 21'
_symmetry_Int_Tables_number      33
_space_group_name_Hall           'P 2c -2n'
loop_
_symmetry_equiv_pos_site_id
_symmetry_equiv_pos_as_xyz
1 x,y,z
2 -x,-y,1/2+z
3 1/2+x,1/2-y,z
4 1/2-x,1/2+y,1/2+z
_cell_length_a                   30.3759(7)
_cell_length_b                   12.2830(4)
_cell_length_c                   21.5012(5)
_cell_angle_alpha                90
_cell_angle_beta                 90
_cell_angle_gamma                90
_cell_volume                     8022.25
_exptl_crystal_colour            orange
_exptl_crystal_description       prism
_chemical_melting_point          363K
_cell_formula_units_Z            4
_exptl_crystal_recrystallization_method 'chloroform/petroleum ether'
loop_
_atom_site_label
_atom_site_type_symbol
_atom_site_fract_x
_atom_site_fract_y
_atom_site_fract_z
S1 S 0.23084(9) 0.6713(3) 0.38383(13)
S2 S 0.22623(9) 0.8151(3) 0.26897(13)
S3 S 0.21616(9) 0.9051(3) 0.12267(13)
S4 S 0.20832(11) 0.9474(3) -0.01416(14)
S5 S 0.09920(11) 0.9818(3) 0.01349(16)
S6 S 0.12200(10) 0.9404(3) 0.14649(14)
S7 S 0.13170(10) 0.8558(3) 0.28564(14)
S8 S 0.12434(10) 0.7090(3) 0.39741(13)
S9 S 0.19318(10) 0.1354(2) 0.27766(13)
S10 S 0.18141(9) 0.2015(3) 0.14376(13)
S11 S 0.17136(9) 0.2573(3) -0.00725(13)
S12 S 0.16983(9) 0.3545(3) -0.13654(13)
S13 S 0.06069(10) 0.4004(3) -0.10996(14)
S14 S 0.07680(10) 0.2996(3) 0.01310(14)
S15 S 0.08736(10) 0.2574(3) 0.15988(14)
S16 S 0.08936(10) 0.2221(3) 0.29832(14)
S17 S -0.20112(12) -0.1483(3) 0.13329(18)
S18 S -0.22281(11) 0.0888(3) 0.13603(15)
S19 S -0.20644(10) 0.3438(3) 0.16623(14)
S20 S -0.16997(10) 0.5572(3) 0.20640(15)
S21 S -0.16366(12) 0.6159(3) 0.05483(17)
S22 S -0.19503(11) 0.3851(3) 0.03290(14)
S23 S -0.20471(10) 0.1251(3) 0.00372(14)
S24 S -0.17877(11) -0.1072(3) -0.02006(18)
C1 C 0.1773(4) 0.8596(9) 0.2344(5)
C2 C 0.1725(3) 0.8934(9) 0.1762(6)
C3 C 0.1818(4) 0.9315(9) 0.0578(5)
C4 C 0.1390(4) 0.9451(9) 0.0684(5)
C5 C 0.1562(4) 0.7594(10) 0.3359(5)
C6 C 0.1997(4) 0.7419(10) 0.3298(5)
C7 C 0.1325(4) 0.2430(10) 0.1081(5)
C8 C 0.1282(4) 0.2647(9) 0.0475(5)
C9 C 0.1419(4) 0.3262(9) -0.0664(5)
C10 C 0.0994(4) 0.3452(10) -0.0571(5)
C11 C 0.1167(4) 0.2155(10) 0.2261(5)
C12 C 0.1586(4) 0.1902(10) 0.2184(5)
C13 C -0.2106(4) 0.1831(9) 0.0781(6)
C14 C -0.2037(4) 0.2863(11) 0.0920(6)
C15 C -0.1821(3) 0.4682(9) 0.1445(5)
C16 C -0.1772(3) 0.4887(9) 0.0852(5)
C17 C -0.1933(4) -0.0065(10) 0.0332(6)
C18 C -0.2016(4) -0.0229(10) 0.0937(6)
C19 C -0.1558(4) -0.1305(11) 0.1861(6)
H1 H -0.1599 -0.0630 0.2088
H2 H -0.1560 -0.1896 0.2161
C20 C -0.1123(3) -0.1280(11) 0.1541(5)
H3 H -0.1078 -0.1957 0.1318
H4 H -0.1118 -0.0688 0.1243
C21 C -0.0363(3) -0.1175(12) 0.1686(6)
H5 H -0.0352 -0.0641 0.1354
H6 H -0.0318 -0.1890 0.1506
C22 C -0.0010(4) -0.0941(9) 0.2153(6)
H7 H -0.0043 -0.1425 0.2506
H8 H 0.0276 -0.1075 0.1967
C23 C 0.0380(3) 0.0500(10) 0.2584(6)
H9 H 0.0600 0.0426 0.2260
H10 H 0.0467 0.0043 0.2931
C24 C 0.0357(3) 0.1662(9) 0.2791(6)
H11 H 0.0168 0.1712 0.3153
H12 H 0.0226 0.2096 0.2463
C25 C 0.2257(5) 0.2554(10) 0.2969(8)
H13 H 0.2503 0.2328 0.3227
H14 H 0.2377 0.2852 0.2588
C26 C 0.2016(4) 0.3424(12) 0.3297(7)
H15 H 0.1789 0.3719 0.3028
H16 H 0.1876 0.3131 0.3666
C27 C 0.2474(5) 0.5012(9) 0.3029(5)
H17 H 0.2235 0.5274 0.2771
H18 H 0.2690 0.4664 0.2763
C28 C 0.2680(4) 0.5938(8) 0.3362(5)
H19 H 0.2812 0.6422 0.3058
H20 H 0.2915 0.5660 0.3623
C29 C 0.0725(3) 0.6793(9) 0.3581(5)
H21 H 0.0509 0.6576 0.3890
H22 H 0.0619 0.7453 0.3384
C30 C 0.0761(3) 0.5916(11) 0.3101(5)
H23 H 0.1007 0.6058 0.2826
H24 H 0.0806 0.5215 0.3298
C31 C 0.0371(4) 0.5171(11) 0.2269(6)
H25 H 0.0361 0.4433 0.2428
H26 H 0.0639 0.5257 0.2029
C32 C -0.0021(3) 0.5383(15) 0.1867(6)
H27 H -0.0034 0.6149 0.1760
H28 H 0.0003 0.4967 0.1485
C33 C -0.0805(3) 0.5437(12) 0.1921(5)
H29 H -0.0831 0.5159 0.1500
H30 H -0.0811 0.6226 0.1904
C34 C -0.1174(4) 0.5033(11) 0.2306(5)
H31 H -0.1123 0.5232 0.2736
H32 H -0.1183 0.4245 0.2282
C35 C -0.1414(5) 0.5799(12) -0.0195(7)
H33 H -0.1606 0.5262 -0.0385
H34 H -0.1417 0.6440 -0.0458
C36 C -0.0962(4) 0.5357(12) -0.0180(9)
H35 H -0.0937 0.4825 0.0152
H36 H -0.0898 0.4994 -0.0570
C37 C -0.0226(4) 0.5826(13) -0.0205(11)
H37 H -0.0228 0.5410 -0.0588
H38 H -0.0133 0.5345 0.0128
C38 C 0.0093(7) 0.6735(17) -0.0261(7)
H39 H 0.0364 0.6463 -0.0442
H40 H -0.0027 0.7280 -0.0541
C39 C 0.038(2) 0.825(3) 0.047(4)
H41 H 0.0518 0.8213 0.0878
H42 H 0.0155 0.8815 0.0485
C41 C 0.0713(12) 0.8515(18) -0.0014(19)
H45 H 0.0569 0.8547 -0.0416
H46 H 0.0930 0.7937 -0.0029
C43 C 0.2276(3) 0.8093(7) -0.0294(5)
H49 H 0.2548 0.8122 -0.0530
H50 H 0.2337 0.7730 0.0098
C44 C 0.1938(4) 0.7460(8) -0.0649(6)
H51 H 0.1674 0.7368 -0.0402
H52 H 0.1861 0.7838 -0.1030
C45 C 0.1827(3) 0.5699(8) -0.1047(6)
H53 H 0.1723 0.5964 -0.1446
H54 H 0.1575 0.5606 -0.0775
C46 C 0.2063(3) 0.4646(7) -0.1126(6)
H55 H 0.2203 0.4451 -0.0736
H56 H 0.2293 0.4735 -0.1435
C47 C 0.0592(4) 0.2929(8) -0.1686(5)
H57 H 0.0353 0.3081 -0.1971
H58 H 0.0864 0.2957 -0.1922
C48 C 0.0536(3) 0.1800(9) -0.1443(5)
H59 H 0.0587 0.1282 -0.1776
H60 H 0.0750 0.1665 -0.1118
C49 C 0.0046(3) 0.0611(9) -0.0943(6)
H61 H 0.0230 0.0528 -0.0577
H62 H 0.0128 0.0055 -0.1241
C50 C -0.0428(3) 0.0485(8) -0.0769(6)
H63 H -0.0498 0.0951 -0.0418
H64 H -0.0615 0.0688 -0.1116
C51 C -0.0885(3) -0.0774(14) -0.0261(6)
H65 H -0.0873 -0.0317 0.0107
H66 H -0.0892 -0.1526 -0.0122
C52 C -0.1300(4) -0.0536(12) -0.0604(6)
H67 H -0.1284 -0.0854 -0.1016
H68 H -0.1331 0.0246 -0.0652
O1 O -0.0779(3) -0.1134(8) 0.1983(4)
O2 O -0.0035(2) 0.0152(7) 0.2355(4)
O3 O 0.2312(3) 0.4254(7) 0.3466(5)
O4 O 0.0365(2) 0.5916(8) 0.2763(4)
O5 O -0.0404(2) 0.5081(8) 0.2188(4)
O6 O -0.0654(3) 0.6208(9) -0.0081(6)
O7 O 0.0187(4) 0.7226(8) 0.0314(5)
O8 O 0.2127(3) 0.6442(6) -0.0786(4)
O9 O 0.0109(2) 0.1655(6) -0.1205(4)
O10 O -0.0495(3) -0.0607(7) -0.0612(4)
C53 C -0.0956(4) 0.1381(8) 0.2950(4)
H69 H -0.0712 0.0983 0.2756
Cl1 Cl -0.13496(15) 0.1662(4) 0.2379(2)
Cl2 Cl -0.07463(14) 0.2596(4) 0.3266(2)
Cl3 Cl -0.11873(16) 0.0550(4) 0.3529(2)
C54 C -0.0529(3) 0.1744(10) 0.1187(6)
H70 H -0.0597 0.1177 0.1493
Cl4 Cl -0.04328(15) 0.2950(4) 0.1596(2)
Cl5 Cl -0.00665(14) 0.1324(4) 0.0779(2)
Cl6 Cl -0.09928(15) 0.1887(5) 0.0706(3)
C55 C 0.1498(3) 0.5339(15) 0.1081(5)
H71 H 0.1470 0.4557 0.1162
Cl7 Cl 0.1666(2) 0.6034(5) 0.1750(3)
Cl9 Cl 0.18932(17) 0.5587(5) 0.0512(2)
Cl10 Cl 0.0998(2) 0.5885(5) 0.0809(3)
C40? C 0.033(4) 0.836(6) 0.017(10)
H43? H 0.0144 0.8661 -0.0155
H44? H 0.0294 0.8813 0.0538
C42? C 0.080(2) 0.841(2) -0.004(4)
H47? H 0.0825 0.8258 -0.0478
H48? H 0.0977 0.7883 0.0190
C56? C 0.1504(15) 0.560(5) 0.1108(18)
H72? H 0.1308 0.5042 0.0934
Cl8? Cl 0.1606(8) 0.496(2) 0.1819(12)
Cl11? Cl 0.1115(8) 0.664(2) 0.1173(13)
loop_
_geom_bond_atom_site_label_1
_geom_bond_atom_site_label_2
_geom_bond_site_symmetry_1
_geom_bond_site_symmetry_2
S1 C6 1_555 1_555
S2 C1 1_555 1_555
S3 C2 1_555 1_555
S4 C3 1_555 1_555
S5 C4 1_555 1_555
S6 C2 1_555 1_555
S7 C1 1_555 1_555
S8 C5 1_555 1_555
S9 C12 1_555 1_555
S10 C7 1_555 1_555
S11 C8 1_555 1_555
S12 C9 1_555 1_555
S13 C10 1_555 1_555
S14 C8 1_555 1_555
S15 C7 1_555 1_555
S16 C11 1_555 1_555
S17 C18 1_555 1_555
S18 C13 1_555 1_555
S19 C14 1_555 1_555
S20 C15 1_555 1_555
S21 C16 1_555 1_555
S22 C14 1_555 1_555
S23 C13 1_555 1_555
S24 C17 1_555 1_555
C1 C2 1_555 1_555
C3 S3 1_555 1_555
C4 S6 1_555 1_555
C5 S7 1_555 1_555
C6 S2 1_555 1_555
C7 C8 1_555 1_555
C9 S11 1_555 1_555
C10 S14 1_555 1_555
C11 S15 1_555 1_555
C12 S10 1_555 1_555
C13 C14 1_555 1_555
C15 S19 1_555 1_555
C16 S22 1_555 1_555
C17 S23 1_555 1_555
C18 S18 1_555 1_555
C19 S17 1_555 1_555
H1 C19 1_555 1_555
H2 C19 1_555 1_555
C20 C19 1_555 1_555
H3 C20 1_555 1_555
H4 C20 1_555 1_555
C21 H5 1_555 1_555
H6 C21 1_555 1_555
C22 C21 1_555 1_555
H7 C22 1_555 1_555
H8 C22 1_555 1_555
C23 H9 1_555 1_555
H10 C23 1_555 1_555
C24 S16 1_555 1_555
H11 C24 1_555 1_555
H12 C24 1_555 1_555
C25 S9 1_555 1_555
H13 C25 1_555 1_555
H14 C25 1_555 1_555
C26 C25 1_555 1_555
H15 C26 1_555 1_555
H16 C26 1_555 1_555
C27 H17 1_555 1_555
H18 C27 1_555 1_555
C28 S1 1_555 1_555
H19 C28 1_555 1_555
H20 C28 1_555 1_555
C29 S8 1_555 1_555
H21 C29 1_555 1_555
H22 C29 1_555 1_555
C30 C29 1_555 1_555
H23 C30 1_555 1_555
H24 C30 1_555 1_555
C31 H25 1_555 1_555
H26 C31 1_555 1_555
C32 C31 1_555 1_555
H27 C32 1_555 1_555
H28 C32 1_555 1_555
C33 H29 1_555 1_555
H30 C33 1_555 1_555
C34 S20 1_555 1_555
H31 C34 1_555 1_555
H32 C34 1_555 1_555
C35 S21 1_555 1_555
H33 C35 1_555 1_555
H34 C35 1_555 1_555
C36 C35 1_555 1_555
H35 C36 1_555 1_555
H36 C36 1_555 1_555
C37 H37 1_555 1_555
H38 C37 1_555 1_555
C38 C37 1_555 1_555
H39 C38 1_555 1_555
H40 C38 1_555 1_555
C39 H41 1_555 1_555
H42 C39 1_555 1_555
C41 S5 1_555 1_555
H45 C41 1_555 1_555
H46 C41 1_555 1_555
C43 S4 1_555 1_555
H49 C43 1_555 1_555
H50 C43 1_555 1_555
C44 C43 1_555 1_555
H51 C44 1_555 1_555
H52 C44 1_555 1_555
C45 H53 1_555 1_555
H54 C45 1_555 1_555
C46 S12 1_555 1_555
H55 C46 1_555 1_555
H56 C46 1_555 1_555
C47 S13 1_555 1_555
H57 C47 1_555 1_555
H58 C47 1_555 1_555
C48 C47 1_555 1_555
H59 C48 1_555 1_555
H60 C48 1_555 1_555
C49 H61 1_555 1_555
H62 C49 1_555 1_555
C50 C49 1_555 1_555
H63 C50 1_555 1_555
H64 C50 1_555 1_555
C51 H65 1_555 1_555
H66 C51 1_555 1_555
C52 S24 1_555 1_555
H67 C52 1_555 1_555
H68 C52 1_555 1_555
C53 H69 1_555 1_555
C54 H70 1_555 1_555
C55 H71 1_555 1_555
O1 C20 1_555 1_555
O2 C22 1_555 1_555
O3 C26 1_555 1_555
O4 C30 1_555 1_555
O5 C32 1_555 1_555
O6 C36 1_555 1_555
O7 C38 1_555 1_555
O8 C44 1_555 1_555
O9 C48 1_555 1_555
O10 C50 1_555 1_555
Cl1 C53 1_555 1_555
Cl2 C53 1_555 1_555
Cl3 C53 1_555 1_555
Cl4 C54 1_555 1_555
Cl5 C54 1_555 1_555
Cl6 C54 1_555 1_555
Cl7 C55 1_555 1_555
Cl9 C55 1_555 1_555
Cl10 C55 1_555 1_555
C3 C4 1_555 1_555
C5 C6 1_555 1_555
C9 C10 1_555 1_555
C11 C12 1_555 1_555
C15 C16 1_555 1_555
C17 C18 1_555 1_555
C21 O1 1_555 1_555
C23 O2 1_555 1_555
C23 C24 1_555 1_555
C27 O3 1_555 1_555
C27 C28 1_555 1_555
C31 O4 1_555 1_555
C33 O5 1_555 1_555
C33 C34 1_555 1_555
C37 O6 1_555 1_555
C39 O7 1_555 1_555
C39 C41 1_555 1_555
C45 O8 1_555 1_555
C45 C46 1_555 1_555
C49 O9 1_555 1_555
C51 O10 1_555 1_555
C51 C52 1_555 1_555

#END
