
#######################################################################
#
#                 Cambridge Crystallographic Data Centre
#                                CCDC 
#
#######################################################################
#
# If this CIF has been generated from an entry in the Cambridge 
# Structural Database, then it will include bibliographic, chemical, 
# crystal, experimental, refinement or atomic coordinate data resulting 
# from the CCDC's data processing and validation procedures.
#
#######################################################################

data_MAZWOA
_chemical_formula_moiety         'C15 H15 N3 O5'
_chemical_name_systematic        
'Ethyl 5-cyano-2,6-dimethyl-4-(5-nitro-2-furyl)-1,4-dihydropyridine-3-carboxylate'
_symmetry_cell_setting           monoclinic
_symmetry_space_group_name_H-M   'P 21/c'
_symmetry_Int_Tables_number      14
_space_group_name_Hall           '-P 2ybc'
loop_
_symmetry_equiv_pos_site_id
_symmetry_equiv_pos_as_xyz
1 x,y,z
2 -x,1/2+y,1/2-z
3 -x,-y,-z
4 x,1/2-y,1/2+z
_cell_length_a                   8.0214(3)
_cell_length_b                   13.7477(4)
_cell_length_c                   13.2847(4)
_cell_angle_alpha                90
_cell_angle_beta                 95.3019(17)
_cell_angle_gamma                90
_cell_volume                     1458.71
_exptl_crystal_colour            brown
_exptl_crystal_description       block
_cell_formula_units_Z            4
_exptl_crystal_recrystallization_method ethanol
loop_
_atom_site_label
_atom_site_type_symbol
_atom_site_fract_x
_atom_site_fract_y
_atom_site_fract_z
O1 O 0.77237(15) 0.12586(9) 0.57702(9)
O2 O 0.94984(15) 0.10372(9) 0.71630(9)
O3 O 0.48921(14) 0.33505(8) 0.50276(9)
O4 O 0.29866(16) 0.38423(10) 0.34165(10)
O5 O 0.50117(17) 0.46435(10) 0.28064(9)
N1 N 0.69121(17) 0.31836(10) 0.86343(11)
N2 N 0.44161(19) 0.41652(10) 0.34731(11)
N3 N 0.16274(19) 0.34964(13) 0.66906(13)
C1 C 0.7913(2) 0.25597(11) 0.81411(12)
C2 C 0.7368(2) 0.22212(12) 0.72070(12)
C3 C 0.5763(2) 0.25943(12) 0.66380(12)
C4 C 0.4669(2) 0.30909(12) 0.73598(13)
C5 C 0.5276(2) 0.33856(12) 0.82929(13)
C6 C 0.9568(2) 0.23557(13) 0.87286(13)
C7 C 0.8207(2) 0.14805(12) 0.66446(12)
C8 C 1.0373(2) 0.02987(13) 0.66327(13)
C9 C 1.1581(2) 0.07439(14) 0.59697(14)
C10 C 0.6142(2) 0.32718(12) 0.58037(12)
C11 C 0.5491(2) 0.39835(12) 0.43664(12)
C12 C 0.7033(2) 0.43184(12) 0.46804(13)
C13 C 0.7457(2) 0.38513(12) 0.56259(13)
C14 C 0.2976(2) 0.33115(13) 0.70004(13)
C15 C 0.4281(2) 0.39324(13) 0.90073(13)
H1 H 0.7341 0.3466 0.9194
H2 H 0.5133 0.2024 0.6329
H3 H 1.0477 0.2575 0.8339
H4 H 0.9678 0.1655 0.8855
H5 H 0.9628 0.2704 0.9375
H6 H 0.9546 -0.0099 0.6214
H7 H 1.0987 -0.0137 0.7132
H8 H 1.2409 0.1131 0.6384
H9 H 1.0972 0.1164 0.5465
H10 H 1.2152 0.0228 0.5626
H11 H 0.7691 0.4767 0.4344
H12 H 0.8466 0.3930 0.6052
H13 H 0.3085 0.3819 0.8828
H14 H 0.4520 0.4629 0.8962
H15 H 0.4589 0.3707 0.9699
loop_
_geom_bond_atom_site_label_1
_geom_bond_atom_site_label_2
_geom_bond_site_symmetry_1
_geom_bond_site_symmetry_2
O1 C7 1_555 1_555
O2 C7 1_555 1_555
O3 C10 1_555 1_555
O4 N2 1_555 1_555
O5 N2 1_555 1_555
N1 C1 1_555 1_555
N2 C11 1_555 1_555
N3 C14 1_555 1_555
C1 C2 1_555 1_555
C2 C3 1_555 1_555
C3 C4 1_555 1_555
C4 C5 1_555 1_555
C5 N1 1_555 1_555
C6 C1 1_555 1_555
C7 C2 1_555 1_555
C8 O2 1_555 1_555
C9 C8 1_555 1_555
C10 C3 1_555 1_555
C11 O3 1_555 1_555
C12 C11 1_555 1_555
C13 C10 1_555 1_555
C14 C4 1_555 1_555
C15 C5 1_555 1_555
H1 N1 1_555 1_555
H2 C3 1_555 1_555
H3 C6 1_555 1_555
H4 C6 1_555 1_555
H5 C6 1_555 1_555
H6 C8 1_555 1_555
H7 C8 1_555 1_555
H8 C9 1_555 1_555
H9 C9 1_555 1_555
H10 C9 1_555 1_555
H11 C12 1_555 1_555
H12 C13 1_555 1_555
H13 C15 1_555 1_555
H14 C15 1_555 1_555
H15 C15 1_555 1_555
C12 C13 1_555 1_555

#END
