
#######################################################################
#
#                 Cambridge Crystallographic Data Centre
#                                CCDC 
#
#######################################################################
#
# If this CIF has been generated from an entry in the Cambridge 
# Structural Database, then it will include bibliographic, chemical, 
# crystal, experimental, refinement or atomic coordinate data resulting 
# from the CCDC's data processing and validation procedures.
#
#######################################################################

data_MAZWEQ
_chemical_formula_moiety         'C20 H22 N4 O4'
_chemical_name_systematic        
(E,E)-N,N'-bis(4-Nitrobenzylidene)hexane-1,6-diamine
_symmetry_cell_setting           monoclinic
_symmetry_space_group_name_H-M   'P 21/c'
_symmetry_Int_Tables_number      14
_space_group_name_Hall           '-P 2ybc'
loop_
_symmetry_equiv_pos_site_id
_symmetry_equiv_pos_as_xyz
1 x,y,z
2 -x,1/2+y,1/2-z
3 -x,-y,-z
4 x,1/2-y,1/2+z
_cell_length_a                   6.1908(3)
_cell_length_b                   4.9761(2)
_cell_length_c                   30.1095(15)
_cell_angle_alpha                90
_cell_angle_beta                 94.331(3)
_cell_angle_gamma                90
_cell_volume                     924.906
_exptl_crystal_colour            colorless
_exptl_crystal_description       lath
_chemical_melting_point          408-410K
_cell_formula_units_Z            2
_exptl_crystal_recrystallization_method 1,2-dichloroethane
loop_
_atom_site_label
_atom_site_type_symbol
_atom_site_fract_x
_atom_site_fract_y
_atom_site_fract_z
C1 C 1.0614(2) 0.6700(3) 0.63857(5)
C2 C 0.9798(2) 0.7860(3) 0.67597(5)
C3 C 1.0927(2) 0.9893(3) 0.69923(5)
C4 C 1.2888(2) 1.0703(3) 0.68471(5)
C5 C 1.3742(2) 0.9581(3) 0.64772(5)
C6 C 1.2599(2) 0.7585(3) 0.62471(5)
N1 N 1.41049(19) 1.2853(3) 0.70893(4)
O1 O 1.32987(17) 1.3916(2) 0.74050(3)
O2 O 1.58791(17) 1.3487(2) 0.69620(3)
C7 C 0.9388(2) 0.4543(3) 0.61428(5)
N2 N 0.99326(19) 0.3625(3) 0.57753(4)
C8 C 0.8611(2) 0.1507(3) 0.55614(5)
C9 C 0.7409(2) 0.2517(3) 0.51322(5)
C10 C 0.5605(2) 0.4499(3) 0.52148(5)
H1 H 0.8456 0.7255 0.6856
H2 H 1.0365 1.0705 0.7245
H3 H 1.5093 1.0180 0.6384
H4 H 1.3162 0.6803 0.5992
H5 H 0.8147 0.3819 0.6267
H6 H 0.7550 0.0867 0.5768
H7 H 0.9547 -0.0028 0.5493
H8 H 0.8457 0.3398 0.4947
H9 H 0.6780 0.0961 0.4963
H10 H 0.6234 0.6058 0.5383
H11 H 0.4560 0.3620 0.5401
C1B C -0.0614(2) 0.3300(3) 0.36143(5)
C2B C 0.0202(2) 0.2140(3) 0.32403(5)
C3B C -0.0927(2) 0.0107(3) 0.30077(5)
C4B C -0.2888(2) -0.0703(3) 0.31529(5)
C5B C -0.3742(2) 0.0419(3) 0.35228(5)
C6B C -0.2599(2) 0.2415(3) 0.37529(5)
N1B N -0.41049(19) -0.2853(3) 0.29107(4)
O1B O -0.32987(17) -0.3916(2) 0.25950(3)
O2B O -0.58791(17) -0.3487(2) 0.30380(3)
C7B C 0.0612(2) 0.5457(3) 0.38572(5)
N2B N 0.00674(19) 0.6375(3) 0.42247(4)
C8B C 0.1389(2) 0.8493(3) 0.44386(5)
C9B C 0.2591(2) 0.7483(3) 0.48678(5)
C10B C 0.4395(2) 0.5501(3) 0.47852(5)
H1B H 0.1544 0.2745 0.3144
H2B H -0.0365 -0.0705 0.2755
H3B H -0.5093 -0.0180 0.3616
H4B H -0.3162 0.3197 0.4008
H5B H 0.1853 0.6181 0.3733
H6B H 0.2450 0.9133 0.4232
H7B H 0.0453 1.0028 0.4507
H8B H 0.1543 0.6602 0.5053
H9B H 0.3220 0.9039 0.5037
H10B H 0.3766 0.3942 0.4617
H11B H 0.5440 0.6380 0.4599
loop_
_geom_bond_atom_site_label_1
_geom_bond_atom_site_label_2
_geom_bond_site_symmetry_1
_geom_bond_site_symmetry_2
C1 C2 1_555 1_555
C2 C3 1_555 1_555
C3 C4 1_555 1_555
C4 C5 1_555 1_555
C5 C6 1_555 1_555
C6 C1 1_555 1_555
N1 C4 1_555 1_555
O1 N1 1_555 1_555
O2 N1 1_555 1_555
C7 C1 1_555 1_555
N2 C7 1_555 1_555
C8 N2 1_555 1_555
C9 C8 1_555 1_555
C10 C9 1_555 1_555
H1 C2 1_555 1_555
H2 C3 1_555 1_555
H3 C5 1_555 1_555
H4 C6 1_555 1_555
H5 C7 1_555 1_555
H6 C8 1_555 1_555
H7 C8 1_555 1_555
H8 C9 1_555 1_555
H9 C9 1_555 1_555
H10 C10 1_555 1_555
H11 C10 1_555 1_555
C1B C2B 1_555 1_555
C2B C3B 1_555 1_555
C3B C4B 1_555 1_555
C4B C5B 1_555 1_555
C5B C6B 1_555 1_555
C6B C1B 1_555 1_555
N1B C4B 1_555 1_555
O1B N1B 1_555 1_555
O2B N1B 1_555 1_555
C7B C1B 1_555 1_555
N2B C7B 1_555 1_555
C8B N2B 1_555 1_555
C9B C8B 1_555 1_555
C10B C10 1_555 1_555
H1B C2B 1_555 1_555
H2B C3B 1_555 1_555
H3B C5B 1_555 1_555
H4B C6B 1_555 1_555
H5B C7B 1_555 1_555
H6B C8B 1_555 1_555
H7B C8B 1_555 1_555
H8B C9B 1_555 1_555
H9B C9B 1_555 1_555
H10B C10B 1_555 1_555
H11B C10B 1_555 1_555
C9B C10B 1_555 1_555

#END
