
#######################################################################
#
#                 Cambridge Crystallographic Data Centre
#                                CCDC 
#
#######################################################################
#
# If this CIF has been generated from an entry in the Cambridge 
# Structural Database, then it will include bibliographic, chemical, 
# crystal, experimental, refinement or atomic coordinate data resulting 
# from the CCDC's data processing and validation procedures.
#
#######################################################################

data_MAZWAM
_chemical_formula_moiety         'C18 H18 N4 O4'
_chemical_name_systematic        
(E,E)-N,N'-bis(4-Nitrobenzylidene)butane-1,4-diamine
_symmetry_cell_setting           triclinic
_symmetry_space_group_name_H-M   'P -1'
_symmetry_Int_Tables_number      2
_space_group_name_Hall           '-P 1'
loop_
_symmetry_equiv_pos_site_id
_symmetry_equiv_pos_as_xyz
1 x,y,z
2 -x,-y,-z
_cell_length_a                   7.1162(4)
_cell_length_b                   7.1895(2)
_cell_length_c                   9.1695(4)
_cell_angle_alpha                83.210(3)
_cell_angle_beta                 78.920(2)
_cell_angle_gamma                64.808(3)
_cell_volume                     416.245
_exptl_crystal_colour            colorless
_exptl_crystal_description       lath
_chemical_melting_point          438-439K
_cell_formula_units_Z            1
_exptl_crystal_recrystallization_method 'methanol/1,2-dichloroethane (1:1)'
loop_
_atom_site_label
_atom_site_type_symbol
_atom_site_fract_x
_atom_site_fract_y
_atom_site_fract_z
C1 C 0.04942(18) 0.76874(16) 0.16560(12)
C2 C -0.16018(18) 0.80111(17) 0.17853(12)
C3 C -0.24425(18) 0.79419(17) 0.05569(13)
C4 C -0.11310(18) 0.75422(16) -0.07985(12)
C5 C 0.09695(18) 0.72065(17) -0.09719(12)
C6 C 0.17834(18) 0.72778(17) 0.02671(13)
N1 N -0.20026(16) 0.74590(15) -0.21094(11)
O1 O -0.38677(14) 0.77768(14) -0.19416(10)
O2 O -0.08302(14) 0.70788(14) -0.33088(9)
C7 C 0.12746(18) 0.78186(17) 0.30044(12)
N2 N 0.30768(16) 0.77813(15) 0.29785(11)
C8 C 0.36181(19) 0.79103(18) 0.44148(12)
C9 C 0.53546(19) 0.58793(17) 0.48542(12)
H1 H -0.2472 0.8284 0.2730
H2 H -0.3873 0.8162 0.0645
H3 H 0.1830 0.6934 -0.1920
H4 H 0.3217 0.7048 0.0174
H5 H 0.0382 0.7937 0.3936
H6 H 0.2354 0.8245 0.5187
H7 H 0.4096 0.9029 0.4353
H8 H 0.6581 0.5508 0.4048
H9 H 0.5808 0.6064 0.5762
C1A C 0.95058(18) 0.23126(16) 0.83440(12)
C2A C 1.16018(18) 0.19889(17) 0.82147(12)
C3A C 1.24425(18) 0.20581(17) 0.94431(13)
C4A C 1.11310(18) 0.24578(16) 1.07985(12)
C5A C 0.90305(18) 0.27935(17) 1.09719(12)
C6A C 0.82166(18) 0.27222(17) 0.97329(13)
N1A N 1.20026(16) 0.25410(15) 1.21094(11)
O1A O 1.38677(14) 0.22232(14) 1.19416(10)
O2A O 1.08302(14) 0.29212(14) 1.33088(9)
C7A C 0.87254(18) 0.21814(17) 0.69956(12)
N2A N 0.69232(16) 0.22187(15) 0.70215(11)
C8A C 0.63819(19) 0.20897(18) 0.55852(12)
C9A C 0.46454(19) 0.41207(17) 0.51458(12)
H1A H 1.2472 0.1716 0.7270
H2A H 1.3873 0.1838 0.9355
H3A H 0.8170 0.3066 1.1920
H4A H 0.6783 0.2952 0.9826
H5A H 0.9618 0.2063 0.6064
H6A H 0.7646 0.1755 0.4813
H7A H 0.5904 0.0971 0.5647
H8A H 0.3419 0.4492 0.5952
H9A H 0.4192 0.3936 0.4238
loop_
_geom_bond_atom_site_label_1
_geom_bond_atom_site_label_2
_geom_bond_site_symmetry_1
_geom_bond_site_symmetry_2
C1 C2 1_555 1_555
C2 C3 1_555 1_555
C3 C4 1_555 1_555
C4 C5 1_555 1_555
C5 C6 1_555 1_555
C6 C1 1_555 1_555
N1 C4 1_555 1_555
O1 N1 1_555 1_555
O2 N1 1_555 1_555
C7 C1 1_555 1_555
N2 C7 1_555 1_555
C8 N2 1_555 1_555
C9 C8 1_555 1_555
H1 C2 1_555 1_555
H2 C3 1_555 1_555
H3 C5 1_555 1_555
H4 C6 1_555 1_555
H5 C7 1_555 1_555
H6 C8 1_555 1_555
H7 C8 1_555 1_555
H8 C9 1_555 1_555
H9 C9 1_555 1_555
C1A C2A 1_555 1_555
C2A C3A 1_555 1_555
C3A C4A 1_555 1_555
C4A C5A 1_555 1_555
C5A C6A 1_555 1_555
C6A C1A 1_555 1_555
N1A C4A 1_555 1_555
O1A N1A 1_555 1_555
O2A N1A 1_555 1_555
C7A C1A 1_555 1_555
N2A C7A 1_555 1_555
C8A N2A 1_555 1_555
C9A C9 1_555 1_555
H1A C2A 1_555 1_555
H2A C3A 1_555 1_555
H3A C5A 1_555 1_555
H4A C6A 1_555 1_555
H5A C7A 1_555 1_555
H6A C8A 1_555 1_555
H7A C8A 1_555 1_555
H8A C9A 1_555 1_555
H9A C9A 1_555 1_555
C8A C9A 1_555 1_555

#END
