
#######################################################################
#
#                 Cambridge Crystallographic Data Centre
#                                CCDC 
#
#######################################################################
#
# If this CIF has been generated from an entry in the Cambridge 
# Structural Database, then it will include bibliographic, chemical, 
# crystal, experimental, refinement or atomic coordinate data resulting 
# from the CCDC's data processing and validation procedures.
#
#######################################################################

data_MAZXEQ
_chemical_formula_moiety         'C17 H10 N2 O6'
_chemical_name_systematic        
(+,-)-2,8-Dinitrodibenzo(b,f)bicyclo(3.3.1)nona-5a,6a-diene-6,12-dione
_symmetry_cell_setting           monoclinic
_symmetry_space_group_name_H-M   'C 2/c'
_symmetry_Int_Tables_number      15
_space_group_name_Hall           '-C 2yn'
loop_
_symmetry_equiv_pos_site_id
_symmetry_equiv_pos_as_xyz
1 x,y,z
2 1/2+x,1/2+y,z
3 x,-y,1/2+z
4 1/2+x,1/2-y,1/2+z
5 -x,-y,-z
6 1/2-x,1/2-y,-z
7 -x,y,1/2-z
8 1/2-x,1/2+y,1/2-z
_cell_length_a                   11.7630(10)
_cell_length_b                   10.521(2)
_cell_length_c                   11.4500(10)
_cell_angle_alpha                90
_cell_angle_beta                 92.850(10)
_cell_angle_gamma                90
_cell_volume                     1415.28
_exptl_crystal_colour            colorless
_exptl_crystal_description       columnar
_chemical_melting_point          'above 300deg.C'
_cell_formula_units_Z            4
_exptl_crystal_recrystallization_method DMF
loop_
_atom_site_label
_atom_site_type_symbol
_atom_site_fract_x
_atom_site_fract_y
_atom_site_fract_z
O1 O 0.25135(12) 0.28692(16) 0.27460(13)
O2 O 0.25816(13) 0.00072(15) -0.06267(14)
O3 O 0.11213(15) -0.01314(16) -0.18324(14)
N1 N 0.16134(14) 0.03093(15) -0.09645(14)
C1 C -0.01336(15) 0.30111(18) 0.10035(16)
C2 C -0.06146(16) 0.2541(2) -0.00476(16)
H1 H -0.1331 0.2822 -0.0313
C3 C -0.00486(16) 0.16705(19) -0.06979(16)
H2 H -0.0373 0.1364 -0.1400
C4 C 0.10160(15) 0.12582(17) -0.02870(16)
C5 C 0.15314(15) 0.17131(17) 0.07386(16)
H3 H 0.2253 0.1434 0.0990
C6 C 0.09547(15) 0.25930(18) 0.13869(15)
C7 C 0.15282(16) 0.31013(18) 0.24855(16)
C8 C 0.07903(16) 0.39090(19) 0.32571(17)
H4 H 0.1283 0.4443 0.3768
C9 C 0.0000 0.4758(3) 0.2500
H5 H -0.0443 0.5297 0.2992
C8F C -0.07903(16) 0.39090(19) 0.17429(17)
C7F C -0.15282(16) 0.31013(18) 0.25145(16)
O1F O -0.25135(12) 0.28692(16) 0.22540(13)
C6F C -0.09547(15) 0.25930(18) 0.36131(15)
C1F C 0.01336(15) 0.30111(18) 0.39965(16)
C2F C 0.06146(16) 0.2541(2) 0.50476(16)
H1F H 0.1331 0.2822 0.5313
C3F C 0.00486(16) 0.16705(19) 0.56979(16)
H2F H 0.0373 0.1364 0.6400
C4F C -0.10160(15) 0.12582(17) 0.52870(16)
N1F N -0.16134(14) 0.03093(15) 0.59645(14)
O2F O -0.25816(13) 0.00072(15) 0.56267(14)
O3F O -0.11213(15) -0.01314(16) 0.68324(14)
C5F C -0.15314(15) 0.17131(17) 0.42614(16)
H3F H -0.2253 0.1434 0.4010
H4F H -0.1283 0.4443 0.1232
H5F H 0.0443 0.5297 0.2008
loop_
_geom_bond_atom_site_label_1
_geom_bond_atom_site_label_2
_geom_bond_site_symmetry_1
_geom_bond_site_symmetry_2
O1 C7 1_555 1_555
O2 N1 1_555 1_555
O3 N1 1_555 1_555
N1 C4 1_555 1_555
C1 C2 1_555 1_555
C2 H1 1_555 1_555
C3 C2 1_555 1_555
H2 C3 1_555 1_555
C4 C3 1_555 1_555
C5 C4 1_555 1_555
H3 C5 1_555 1_555
C6 C1 1_555 1_555
C7 C6 1_555 1_555
C8 C7 1_555 1_555
H4 C8 1_555 1_555
C9 C8 1_555 1_555
H5 C9 1_555 1_555
C8F C1 1_555 1_555
C7F C8F 1_555 1_555
O1F C7F 1_555 1_555
C6F C7F 1_555 1_555
C1F C8 1_555 1_555
C2F C1F 1_555 1_555
H1F C2F 1_555 1_555
C3F C2F 1_555 1_555
H2F C3F 1_555 1_555
C4F C3F 1_555 1_555
N1F C4F 1_555 1_555
O2F N1F 1_555 1_555
O3F N1F 1_555 1_555
C5F C6F 1_555 1_555
H3F C5F 1_555 1_555
H4F C8F 1_555 1_555
H5F C9 1_555 1_555
C5 C6 1_555 1_555
C9 C8F 1_555 1_555
C6F C1F 1_555 1_555
C4F C5F 1_555 1_555

#END
