
#######################################################################
#
#                 Cambridge Crystallographic Data Centre
#                                CCDC 
#
#######################################################################
#
# If this CIF has been generated from an entry in the Cambridge 
# Structural Database, then it will include bibliographic, chemical, 
# crystal, experimental, refinement or atomic coordinate data resulting 
# from the CCDC's data processing and validation procedures.
#
#######################################################################

data_MAZXIU
_chemical_formula_moiety         'C19 H14 N2 O6'
_chemical_name_systematic        
(+,-)-2,8-Dimethyl-1,7-dinitrodibenzo(b,f)bicyclo(3.3.1)nona-5a,6a-diene-6,12-dione
_symmetry_cell_setting           monoclinic
_symmetry_space_group_name_H-M   'C 2/c'
_symmetry_Int_Tables_number      15
_space_group_name_Hall           '-C 2yn'
loop_
_symmetry_equiv_pos_site_id
_symmetry_equiv_pos_as_xyz
1 x,y,z
2 1/2+x,1/2+y,z
3 x,-y,1/2+z
4 1/2+x,1/2-y,1/2+z
5 -x,-y,-z
6 1/2-x,1/2-y,-z
7 -x,y,1/2-z
8 1/2-x,1/2+y,1/2-z
_cell_length_a                   14.1687(19)
_cell_length_b                   5.1867(7)
_cell_length_c                   22.746(3)
_cell_angle_alpha                90
_cell_angle_beta                 100.692(2)
_cell_angle_gamma                90
_cell_volume                     1642.56
_exptl_crystal_colour            colorless
_exptl_crystal_description       blade
_chemical_melting_point          'above 300deg.C'
_cell_formula_units_Z            4
_exptl_crystal_recrystallization_method DMF
loop_
_atom_site_label
_atom_site_type_symbol
_atom_site_fract_x
_atom_site_fract_y
_atom_site_fract_z
O1 O 0.65757(10) 0.5198(3) 0.18753(7)
O2 O 0.59123(11) 0.0639(3) 0.10852(8)
O3 O 0.58906(13) 0.4186(4) 0.05923(7)
N1 N 0.55976(11) 0.2780(3) 0.09406(7)
C1 C 0.40458(13) 0.6005(4) 0.18984(8)
C2 C 0.31588(14) 0.5034(5) 0.16248(9)
H1 H 0.2610 0.5526 0.1765
C3 C 0.30785(14) 0.3358(5) 0.11500(9)
H2 H 0.2476 0.2716 0.0982
C4 C 0.38763(13) 0.2591(4) 0.09134(8)
C5 C 0.47520(12) 0.3624(3) 0.11864(7)
C6 C 0.48724(12) 0.5268(3) 0.16815(7)
C7 C 0.58456(14) 0.6029(3) 0.20101(8)
C8 C 0.58807(14) 0.7745(4) 0.25593(8)
H3 H 0.6454 0.8836 0.2606
C9 C 0.5000 0.9449(5) 0.2500
H4 H 0.5044 1.0543 0.2850
C10 C 0.37782(17) 0.0706(5) 0.04011(10)
H6 H 0.3113 0.0277 0.0271
H7 H 0.4135 -0.0830 0.0531
H8 H 0.4024 0.1469 0.0076
C8F C 0.41193(14) 0.7745(4) 0.24407(8)
C7F C 0.41544(14) 0.6029(3) 0.29899(8)
O1F O 0.34243(10) 0.5198(3) 0.31247(7)
C6F C 0.51276(12) 0.5268(3) 0.33185(7)
C1F C 0.59542(13) 0.6005(4) 0.31016(8)
C2F C 0.68412(14) 0.5034(5) 0.33752(9)
H1F H 0.7390 0.5526 0.3235
C3F C 0.69215(14) 0.3358(5) 0.38500(9)
H2F H 0.7524 0.2716 0.4018
C4F C 0.61237(13) 0.2591(4) 0.40866(8)
C5F C 0.52480(12) 0.3624(3) 0.38136(7)
N1F N 0.44024(11) 0.2780(3) 0.40594(7)
O2F O 0.40877(11) 0.0639(3) 0.39148(8)
O3F O 0.41094(13) 0.4186(4) 0.44077(7)
C10F C 0.62218(17) 0.0706(5) 0.45989(10)
H6F H 0.6887 0.0277 0.4729
H7F H 0.5865 -0.0830 0.4469
H8F H 0.5976 0.1469 0.4924
H3F H 0.3546 0.8836 0.2394
H4F H 0.4956 1.0543 0.2150
H5? H 0.4956 1.0543 0.2150
loop_
_geom_bond_atom_site_label_1
_geom_bond_atom_site_label_2
_geom_bond_site_symmetry_1
_geom_bond_site_symmetry_2
O1 C7 1_555 1_555
O2 N1 1_555 1_555
O3 N1 1_555 1_555
N1 C5 1_555 1_555
C1 C2 1_555 1_555
C2 H1 1_555 1_555
C3 C2 1_555 1_555
H2 C3 1_555 1_555
C4 C3 1_555 1_555
C5 C4 1_555 1_555
C6 C1 1_555 1_555
C7 C6 1_555 1_555
C8 C7 1_555 1_555
H3 C8 1_555 1_555
C9 C8 1_555 1_555
H4 C9 1_555 1_555
C10 C4 1_555 1_555
H6 C10 1_555 1_555
H7 C10 1_555 1_555
H8 C10 1_555 1_555
C8F C1 1_555 1_555
C7F C8F 1_555 1_555
O1F C7F 1_555 1_555
C6F C7F 1_555 1_555
C1F C8 1_555 1_555
C2F C1F 1_555 1_555
H1F C2F 1_555 1_555
C3F C2F 1_555 1_555
H2F C3F 1_555 1_555
C4F C3F 1_555 1_555
C5F C6F 1_555 1_555
N1F C5F 1_555 1_555
O2F N1F 1_555 1_555
O3F N1F 1_555 1_555
C10F C4F 1_555 1_555
H6F C10F 1_555 1_555
H7F C10F 1_555 1_555
H8F C10F 1_555 1_555
H3F C8F 1_555 1_555
H4F C9 1_555 1_555
C5 C6 1_555 1_555
C9 C8F 1_555 1_555
C6F C1F 1_555 1_555
C4F C5F 1_555 1_555

#END
