
#######################################################################
#
#                 Cambridge Crystallographic Data Centre
#                                CCDC 
#
#######################################################################
#
# If this CIF has been generated from an entry in the Cambridge 
# Structural Database, then it will include bibliographic, chemical, 
# crystal, experimental, refinement or atomic coordinate data resulting 
# from the CCDC's data processing and validation procedures.
#
#######################################################################

data_MAZYIW
_chemical_formula_moiety         'C14 H10 N2 O6'
_chemical_name_systematic        'Benzyl 3,5-dinitrobenzoate'
_symmetry_cell_setting           tetragonal
_symmetry_space_group_name_H-M   'P 42/n'
_symmetry_Int_Tables_number      86
_space_group_name_Hall           '-P 4bc'
loop_
_symmetry_equiv_pos_site_id
_symmetry_equiv_pos_as_xyz
1 x,y,z
2 -y,1/2+x,1/2+z
3 1/2+y,-x,1/2+z
4 1/2-x,1/2-y,z
5 -x,-y,-z
6 y,1/2-x,1/2-z
7 1/2-y,x,1/2-z
8 1/2+x,1/2+y,-z
_cell_length_a                   20.8531(5)
_cell_length_b                   20.8531(5)
_cell_length_c                   6.0377(2)
_cell_angle_alpha                90
_cell_angle_beta                 90
_cell_angle_gamma                90
_cell_volume                     2625.5
_exptl_crystal_colour            colorless
_exptl_crystal_description       needle
_cell_formula_units_Z            8
_exptl_crystal_recrystallization_method ethanol
loop_
_atom_site_label
_atom_site_type_symbol
_atom_site_fract_x
_atom_site_fract_y
_atom_site_fract_z
O1 O 0.49125(5) 0.44104(6) 0.1932(2)
O2 O 0.52732(5) 0.40805(5) 0.52649(18)
O3 O 0.74509(6) 0.32867(7) 0.5879(2)
O4 O 0.81810(5) 0.37069(6) 0.3788(2)
O5 O 0.75704(5) 0.47883(6) -0.2874(2)
O6 O 0.66120(6) 0.51811(6) -0.3183(2)
N1 N 0.76221(6) 0.36163(7) 0.4312(2)
N2 N 0.70199(6) 0.48641(6) -0.2208(2)
C1 C 0.60325(7) 0.42401(7) 0.2460(3)
C2 C 0.64954(7) 0.39295(7) 0.3724(3)
C3 C 0.71241(7) 0.39371(7) 0.2979(3)
C4 C 0.73094(7) 0.42425(7) 0.1063(3)
C5 C 0.68335(7) 0.45441(7) -0.0135(3)
C6 C 0.61973(7) 0.45520(7) 0.0503(3)
C7 C 0.53428(7) 0.42524(7) 0.3149(3)
C8 C 0.46199(7) 0.41048(8) 0.6171(3)
C9 C 0.42942(7) 0.34636(7) 0.5979(3)
C10 C 0.43489(8) 0.30202(8) 0.7690(3)
C11 C 0.40476(9) 0.24289(9) 0.7537(3)
C12 C 0.36916(8) 0.22777(8) 0.5671(3)
C13 C 0.36404(8) 0.27124(8) 0.3950(3)
C14 C 0.39397(8) 0.33054(8) 0.4104(3)
H1 H 0.6384 0.3718 0.5063
H2 H 0.7744 0.4246 0.0588
H3 H 0.5882 0.4764 -0.0367
H4 H 0.4367 0.4431 0.5359
H5 H 0.4638 0.4234 0.7748
H6 H 0.4594 0.3123 0.8968
H7 H 0.4085 0.2128 0.8711
H8 H 0.3482 0.1874 0.5573
H9 H 0.3401 0.2605 0.2664
H10 H 0.3902 0.3604 0.2924
loop_
_geom_bond_atom_site_label_1
_geom_bond_atom_site_label_2
_geom_bond_site_symmetry_1
_geom_bond_site_symmetry_2
O1 C7 1_555 1_555
O2 C7 1_555 1_555
O3 N1 1_555 1_555
O4 N1 1_555 1_555
O5 N2 1_555 1_555
O6 N2 1_555 1_555
N1 C3 1_555 1_555
N2 C5 1_555 1_555
C1 C2 1_555 1_555
C2 C3 1_555 1_555
C3 C4 1_555 1_555
C4 C5 1_555 1_555
C5 C6 1_555 1_555
C6 C1 1_555 1_555
C7 C1 1_555 1_555
C8 O2 1_555 1_555
C9 C8 1_555 1_555
C10 C9 1_555 1_555
C11 C10 1_555 1_555
C12 C11 1_555 1_555
C13 C12 1_555 1_555
C14 C9 1_555 1_555
H1 C2 1_555 1_555
H2 C4 1_555 1_555
H3 C6 1_555 1_555
H4 C8 1_555 1_555
H5 C8 1_555 1_555
H6 C10 1_555 1_555
H7 C11 1_555 1_555
H8 C12 1_555 1_555
H9 C13 1_555 1_555
H10 C14 1_555 1_555
C13 C14 1_555 1_555

#END
