
#######################################################################
#
#                 Cambridge Crystallographic Data Centre
#                                CCDC 
#
#######################################################################
#
# If this CIF has been generated from an entry in the Cambridge 
# Structural Database, then it will include bibliographic, chemical, 
# crystal, experimental, refinement or atomic coordinate data resulting 
# from the CCDC's data processing and validation procedures.
#
#######################################################################

data_MBCTPT01
_chemical_formula_moiety         'C17 H12 S3'
_chemical_name_systematic        2,4-Diphenyl-6a-thiathiophthene
_symmetry_cell_setting           triclinic
_symmetry_space_group_name_H-M   'P -1'
_symmetry_Int_Tables_number      2
_space_group_name_Hall           '-P 1'
loop_
_symmetry_equiv_pos_site_id
_symmetry_equiv_pos_as_xyz
1 x,y,z
2 -x,-y,-z
_cell_length_a                   10.111(1)
_cell_length_b                   8.397(1)
_cell_length_c                   9.5779(6)
_cell_angle_alpha                111.179(6)
_cell_angle_beta                 75.679(6)
_cell_angle_gamma                100.429(8)
_cell_volume                     730.905
_exptl_crystal_colour            deep-red
_cell_formula_units_Z            2
loop_
_atom_site_label
_atom_site_type_symbol
_atom_site_fract_x
_atom_site_fract_y
_atom_site_fract_z
S1 S 0.32934(3) 0.40609(3) 0.23883(3)
S2 S 0.12971(3) 0.31706(3) 0.41969(3)
S3 S -0.04461(3) 0.24288(3) 0.58344(3)
C1 C 0.3802(1) 0.5758(1) 0.3844(1)
C2 C 0.3047(1) 0.5989(1) 0.5306(1)
C3 C 0.1888(1) 0.4894(1) 0.5661(1)
C4 C 0.1126(1) 0.5147(1) 0.7187(1)
C5 C -0.0028(1) 0.4040(1) 0.7380(1)
C6 C 0.5014(1) 0.6984(1) 0.3563(1)
C7 C 0.5721(1) 0.7965(1) 0.4732(1)
C8 C 0.6823(1) 0.9151(1) 0.4483(1)
C9 C 0.7244(1) 0.9371(1) 0.3068(1)
C10 C 0.6574(1) 0.8380(1) 0.1891(1)
C11 C 0.5472(1) 0.7188(1) 0.2134(1)
C12 C 0.1552(1) 0.6555(1) 0.8524(1)
C13 C 0.0622(1) 0.7696(1) 0.9551(1)
C14 C 0.1016(1) 0.9007(1) 1.0803(1)
C15 C 0.2339(1) 0.9210(1) 1.1044(1)
C16 C 0.3274(1) 0.8087(1) 1.0036(1)
C17 C 0.2884(1) 0.6762(1) 0.8791(1)
H1 H 0.328(1) 0.695(1) 0.614(1)
H2 H -0.059(1) 0.412(1) 0.835(1)
H3 H 0.541(1) 0.782(1) 0.579(1)
H4 H 0.728(1) 0.982(2) 0.532(1)
H5 H 0.799(1) 1.023(2) 0.292(1)
H6 H 0.690(1) 0.845(2) 0.088(1)
H7 H 0.499(1) 0.652(2) 0.132(1)
H8 H -0.028(1) 0.757(1) 0.935(1)
H9 H 0.033(1) 0.978(1) 1.154(1)
H10 H 0.260(1) 1.008(1) 1.189(1)
H11 H 0.418(1) 0.819(1) 1.016(1)
H12 H 0.354(1) 0.598(1) 0.809(1)
loop_
_geom_bond_atom_site_label_1
_geom_bond_atom_site_label_2
_geom_bond_site_symmetry_1
_geom_bond_site_symmetry_2
S1 S2 1_555 1_555
S2 S3 1_555 1_555
S3 C5 1_555 1_555
C1 S1 1_555 1_555
C2 C1 1_555 1_555
C3 S2 1_555 1_555
C4 C3 1_555 1_555
C5 C4 1_555 1_555
C6 C1 1_555 1_555
C7 C6 1_555 1_555
C8 C7 1_555 1_555
C9 C8 1_555 1_555
C10 C9 1_555 1_555
C11 C6 1_555 1_555
C12 C4 1_555 1_555
C13 C12 1_555 1_555
C14 C13 1_555 1_555
C15 C14 1_555 1_555
C16 C15 1_555 1_555
C17 C12 1_555 1_555
H1 C2 1_555 1_555
H2 C5 1_555 1_555
H3 C7 1_555 1_555
H4 C8 1_555 1_555
H5 C9 1_555 1_555
H6 C10 1_555 1_555
H7 C11 1_555 1_555
H8 C13 1_555 1_555
H9 C14 1_555 1_555
H10 C15 1_555 1_555
H11 C16 1_555 1_555
H12 C17 1_555 1_555
C2 C3 1_555 1_555
C10 C11 1_555 1_555
C16 C17 1_555 1_555

#END
