
#######################################################################
#
#                 Cambridge Crystallographic Data Centre
#                                CCDC 
#
#######################################################################
#
# If this CIF has been generated from an entry in the Cambridge 
# Structural Database, then it will include bibliographic, chemical, 
# crystal, experimental, refinement or atomic coordinate data resulting 
# from the CCDC's data processing and validation procedures.
#
#######################################################################

data_MBYZMN
_chemical_formula_moiety         'C26 H26 N4 O4'
_chemical_name_systematic        
'Methyl 4,6-O-benzylidene-2,3-dideoxy-2,3-diphenylazo-\a-D-mannoside'
_symmetry_cell_setting           tetragonal
_symmetry_space_group_name_H-M   'I 4'
_symmetry_Int_Tables_number      79
_space_group_name_Hall           'I 4'
loop_
_symmetry_equiv_pos_site_id
_symmetry_equiv_pos_as_xyz
1 x,y,z
2 1/2+x,1/2+y,1/2+z
3 -y,x,z
4 1/2-y,1/2+x,1/2+z
5 -x,-y,z
6 1/2-x,1/2-y,1/2+z
7 y,-x,z
8 1/2+y,1/2-x,1/2+z
_cell_length_a                   22.605(2)
_cell_length_b                   22.605(2)
_cell_length_c                   9.859(3)
_cell_angle_alpha                90
_cell_angle_beta                 90
_cell_angle_gamma                90
_cell_volume                     5037.81
_cell_formula_units_Z            8
loop_
_atom_site_label
_atom_site_type_symbol
_atom_site_fract_x
_atom_site_fract_y
_atom_site_fract_z
O1 O 0.40940 0.22910 -0.42470
O2 O 0.43080 0.32270 -0.02530
O3 O 0.46070 0.31720 -0.38860
O4 O 0.39710 0.41000 -0.12380
N1 N 0.55740 0.24280 -0.28960
N2 N 0.59170 0.20170 -0.31690
N3 N 0.50040 0.21540 -0.04630
N4 N 0.47240 0.17960 0.02350
C1 C 0.46480 0.25560 -0.40880
C2 C 0.49460 0.22320 -0.29350
C3 C 0.46560 0.23990 -0.15760
C4 C 0.46280 0.30640 -0.14630
C5 C 0.42990 0.33120 -0.26540
C6 C 0.42460 0.39730 -0.25200
C7 C 0.37790 0.24770 -0.54380
C8 C 0.42910 0.38470 -0.01490
C9 C 0.39780 0.40040 0.11550
C10 C 0.33800 0.41510 0.12430
C11 C 0.31260 0.42720 0.25030
C12 C 0.34710 0.42440 0.36750
C13 C 0.40690 0.40970 0.35870
C14 C 0.43220 0.39760 0.23270
C15 C 0.65270 0.21720 -0.30800
C16 C 0.69190 0.17990 -0.37600
C17 C 0.75260 0.19030 -0.36940
C18 C 0.77420 0.23810 -0.29480
C19 C 0.73510 0.27540 -0.22680
C20 C 0.67430 0.26500 -0.23340
C21 C 0.50480 0.15420 0.13080
C22 C 0.56650 0.15460 0.13900
C23 C 0.59470 0.12930 0.25070
C24 C 0.56130 0.10370 0.35420
C25 C 0.49970 0.10330 0.34600
C26 C 0.47150 0.12860 0.23440
loop_
_geom_bond_atom_site_label_1
_geom_bond_atom_site_label_2
_geom_bond_site_symmetry_1
_geom_bond_site_symmetry_2
O1 C1 1_555 1_555
O2 C4 1_555 1_555
O3 C1 1_555 1_555
O4 C6 1_555 1_555
N1 N2 1_555 1_555
N2 C15 1_555 1_555
N3 N4 1_555 1_555
N4 C21 1_555 1_555
C1 C2 1_555 1_555
C2 N1 1_555 1_555
C3 N3 1_555 1_555
C4 C3 1_555 1_555
C5 O3 1_555 1_555
C6 C5 1_555 1_555
C7 O1 1_555 1_555
C8 O2 1_555 1_555
C9 C8 1_555 1_555
C10 C9 1_555 1_555
C11 C10 1_555 1_555
C12 C11 1_555 1_555
C13 C12 1_555 1_555
C14 C9 1_555 1_555
C15 C16 1_555 1_555
C16 C17 1_555 1_555
C17 C18 1_555 1_555
C18 C19 1_555 1_555
C19 C20 1_555 1_555
C20 C15 1_555 1_555
C21 C22 1_555 1_555
C22 C23 1_555 1_555
C23 C24 1_555 1_555
C24 C25 1_555 1_555
C25 C26 1_555 1_555
C26 C21 1_555 1_555
O4 C8 1_555 1_555
C2 C3 1_555 1_555
C4 C5 1_555 1_555
C13 C14 1_555 1_555

#END
