
#######################################################################
#
#                 Cambridge Crystallographic Data Centre
#                                CCDC 
#
#######################################################################
#
# If this CIF has been generated from an entry in the Cambridge 
# Structural Database, then it will include bibliographic, chemical, 
# crystal, experimental, refinement or atomic coordinate data resulting 
# from the CCDC's data processing and validation procedures.
#
#######################################################################

data_MCMYAN01
_chemical_name_common            'Tranilast chloroform solvate'
_chemical_formula_moiety         'C18 H17 N1 O5,C1 H1 Cl3'
_chemical_name_systematic        
'2-((3-(3,4-dimethoxyphenyl)-1-oxo-2-propenyl)amino)benzoic acid chloroform solvate'
_chemical_properties_biological  'orally active antiallergic agent'
_symmetry_cell_setting           monoclinic
_symmetry_space_group_name_H-M   'P 21/c'
_symmetry_Int_Tables_number      14
_space_group_name_Hall           '-P 2ybc'
loop_
_symmetry_equiv_pos_site_id
_symmetry_equiv_pos_as_xyz
1 x,y,z
2 -x,1/2+y,1/2-z
3 -x,-y,-z
4 x,1/2-y,1/2+z
_cell_length_a                   16.971(4)
_cell_length_b                   7.370(2)
_cell_length_c                   16.557(5)
_cell_angle_alpha                90
_cell_angle_beta                 96.58(2)
_cell_angle_gamma                90
_cell_volume                     2057.25
_exptl_crystal_description       prisms
_cell_formula_units_Z            4
_exptl_crystal_recrystallization_method chloroform/methanol
loop_
_atom_site_label
_atom_site_type_symbol
_atom_site_fract_x
_atom_site_fract_y
_atom_site_fract_z
C1 C 0.8894(3) 0.4705(7) 1.3823(3)
H1 H 0.8467 0.4788 1.3355
Cl1 Cl 0.9787(4) 0.4466(11) 1.3436(7)
Cl2 Cl 0.8702(3) 0.2814(7) 1.4401(3)
Cl3 Cl 0.8849(4) 0.6660(7) 1.4415(4)
O1 O 0.32071(13) 0.1770(3) 0.62851(12)
H3 H 0.3539 0.2219 0.6002
O2 O 0.41684(13) 0.2357(3) 0.72858(12)
O3 O 0.37399(14) 0.1304(3) 1.01560(12)
O4 O 0.72164(13) 0.4276(3) 1.28362(11)
O5 O 0.82449(13) 0.5252(3) 1.18883(13)
N1 N 0.38740(15) 0.1539(4) 0.88034(14)
H4 H 0.4210 0.1844 0.8460
C3 C 0.29503(18) 0.0985(4) 0.75995(17)
C4 C 0.31346(18) 0.0891(4) 0.84525(17)
C5 C 0.2573(2) 0.0145(4) 0.89133(19)
H5 H 0.2687 0.0079 0.9488
C6 C 0.1859(2) -0.0495(5) 0.8545(2)
H6 H 0.1490 -0.1010 0.8869
C7 C 0.1672(2) -0.0401(5) 0.7714(2)
H7 H 0.1175 -0.0835 0.7465
C8 C 0.2219(2) 0.0339(5) 0.72504(19)
H8 H 0.2092 0.0408 0.6677
C9 C 0.35071(19) 0.1766(4) 0.70611(17)
C10 C 0.41387(19) 0.1757(4) 0.96037(18)
C11 C 0.49197(19) 0.2522(5) 0.97678(18)
H9 H 0.5198 0.2902 0.9331
C12 C 0.52546(19) 0.2698(5) 1.05371(18)
H10 H 0.4948 0.2266 1.0942
C13 C 0.60368(18) 0.3473(4) 1.08419(17)
C14 C 0.62405(18) 0.3554(4) 1.16886(17)
H11 H 0.5865 0.3180 1.2039
C15 C 0.69740(18) 0.4165(4) 1.20181(17)
C16 C 0.75293(19) 0.4718(4) 1.15041(18)
C17 C 0.7326(2) 0.4691(4) 1.06719(18)
H12 H 0.7696 0.5101 1.0322
C18 C 0.65892(19) 0.4072(4) 1.03442(18)
H13 H 0.6459 0.4056 0.9771
C19 C 0.6676(2) 0.3621(5) 1.33757(18)
H14 H 0.6915 0.3764 1.3940
H15 H 0.6564 0.2336 1.3265
H16 H 0.6182 0.4317 1.3291
C20 C 0.8842(2) 0.5739(6) 1.1384(2)
H17 H 0.9321 0.6135 1.1726
H18 H 0.8647 0.6729 1.1020
H19 H 0.8968 0.4686 1.1061
Cl4? Cl 0.9813(6) 0.5381(16) 1.3533(8)
Cl5? Cl 0.9029(5) 0.2543(11) 1.4276(6)
Cl6? Cl 0.8599(11) 0.6240(17) 1.4518(9)
C2? C 0.8974(6) 0.5455(11) 1.3677(7)
H2? H 0.8604 0.5264 1.3169
Cl7? Cl 0.9698(3) 0.7073(12) 1.3491(4)
Cl8? Cl 0.9409(6) 0.3422(12) 1.3983(6)
Cl9? Cl 0.8446(11) 0.627(2) 1.4436(11)
Cl10? Cl 0.9886(12) 0.488(4) 1.336(2)
Cl11? Cl 0.8723(15) 0.360(2) 1.4285(13)
Cl12? Cl 0.9080(13) 0.7291(19) 1.4329(12)
loop_
_geom_bond_atom_site_label_1
_geom_bond_atom_site_label_2
_geom_bond_site_symmetry_1
_geom_bond_site_symmetry_2
C1 H1 1_555 1_555
Cl1 C1 1_555 1_555
Cl2 C1 1_555 1_555
Cl3 C1 1_555 1_555
O1 H3 1_555 1_555
O2 C9 1_555 1_555
O3 C10 1_555 1_555
O4 C15 1_555 1_555
O5 C16 1_555 1_555
N1 H4 1_555 1_555
C3 C4 1_555 1_555
C4 N1 1_555 1_555
C5 C4 1_555 1_555
H5 C5 1_555 1_555
C6 C5 1_555 1_555
H6 C6 1_555 1_555
C7 C6 1_555 1_555
H7 C7 1_555 1_555
C8 C3 1_555 1_555
H8 C8 1_555 1_555
C9 O1 1_555 1_555
C10 N1 1_555 1_555
C11 C10 1_555 1_555
H9 C11 1_555 1_555
C12 C11 1_555 1_555
H10 C12 1_555 1_555
C13 C12 1_555 1_555
C14 C13 1_555 1_555
H11 C14 1_555 1_555
C15 C14 1_555 1_555
C16 C15 1_555 1_555
C17 C16 1_555 1_555
H12 C17 1_555 1_555
C18 C13 1_555 1_555
H13 C18 1_555 1_555
C19 O4 1_555 1_555
H14 C19 1_555 1_555
H15 C19 1_555 1_555
H16 C19 1_555 1_555
C20 O5 1_555 1_555
H17 C20 1_555 1_555
H18 C20 1_555 1_555
H19 C20 1_555 1_555
C3 C9 1_555 1_555
C7 C8 1_555 1_555
C17 C18 1_555 1_555

#END
