
#######################################################################
#
#                 Cambridge Crystallographic Data Centre
#                                CCDC 
#
#######################################################################
#
# If this CIF has been generated from an entry in the Cambridge 
# Structural Database, then it will include bibliographic, chemical, 
# crystal, experimental, refinement or atomic coordinate data resulting 
# from the CCDC's data processing and validation procedures.
#
#######################################################################

data_MDANAC11
_chemical_formula_moiety         '3(C13 H14 N2),Na1 1+,Cl1 1-'
_chemical_name_systematic        
"tris(4,4'-Diaminodiphenylmethane)-sodium chloride"
_symmetry_cell_setting           rhombohedral
_symmetry_space_group_name_H-M   'R -3 c'
_symmetry_Int_Tables_number      167
_space_group_name_Hall           '-R 3 2"c'
loop_
_symmetry_equiv_pos_site_id
_symmetry_equiv_pos_as_xyz
1 x,y,z
2 1/3+x,2/3+y,2/3+z
3 2/3+x,1/3+y,1/3+z
4 -y,x-y,z
5 -x+y,-x,z
6 1/3-y,2/3+x-y,2/3+z
7 1/3-x+y,2/3-x,2/3+z
8 2/3-y,1/3+x-y,1/3+z
9 2/3-x+y,1/3-x,1/3+z
10 -y,-x,1/2+z
11 1/3-y,2/3-x,1/6+z
12 2/3-y,1/3-x,5/6+z
13 -x+y,y,1/2+z
14 x,x-y,1/2+z
15 1/3-x+y,2/3+y,1/6+z
16 1/3+x,2/3+x-y,1/6+z
17 2/3-x+y,1/3+y,5/6+z
18 2/3+x,1/3+x-y,5/6+z
19 -x,-y,-z
20 2/3-x,1/3-y,1/3-z
21 1/3-x,2/3-y,2/3-z
22 y,-x+y,-z
23 x-y,x,-z
24 2/3+y,1/3-x+y,1/3-z
25 2/3+x-y,1/3+x,1/3-z
26 1/3+y,2/3-x+y,2/3-z
27 1/3+x-y,2/3+x,2/3-z
28 y,x,1/2-z
29 2/3+y,1/3+x,5/6-z
30 1/3+y,2/3+x,1/6-z
31 x-y,-y,1/2-z
32 -x,-x+y,1/2-z
33 2/3+x-y,1/3-y,5/6-z
34 2/3-x,1/3-x+y,5/6-z
35 1/3+x-y,2/3-y,1/6-z
36 1/3-x,2/3-x+y,1/6-z
_cell_length_a                   18.396(15)
_cell_length_b                   18.396(15)
_cell_length_c                   17.400(15)
_cell_angle_alpha                90
_cell_angle_beta                 90
_cell_angle_gamma                120
_cell_volume                     5099.49
_cell_formula_units_Z            6
loop_
_atom_site_label
_atom_site_type_symbol
_atom_site_fract_x
_atom_site_fract_y
_atom_site_fract_z
Cl1 Cl 0.00000 0.00000 0.25000
C1 C 0.19140 0.09510 0.08700
C2 C 0.20370 0.15940 0.13840
C3 C 0.27690 0.23560 0.13500
C4 C 0.33870 0.25130 0.08170
C5 C 0.32520 0.18870 0.03090
C6 C 0.25290 0.11040 0.03240
C7 C 0.42240 0.33333 0.08333
H1 H 0.12000 -0.04000 0.08000
H2 H 0.07000 0.00000 0.13000
H3 H 0.15000 0.15000 0.18000
H4 H 0.29000 0.29000 0.17000
H5 H 0.37000 0.19000 -0.01000
H6 H 0.24000 0.05000 0.00000
H7 H 0.45000 0.33000 0.03000
N1 N 0.11490 0.01560 0.08950
C4HA C 0.42073 0.41537 0.08497
C3HA C 0.37463 0.43107 0.03167
C2HA C 0.37763 0.50727 0.02827
C1HA C 0.42963 0.57157 0.07967
C6HA C 0.47583 0.55627 0.13427
C5HA C 0.46983 0.47797 0.13577
H5HA H 0.51333 0.47667 0.17667
H6HA H 0.52333 0.61667 0.16667
N1HA N 0.43263 0.65107 0.07717
H1HA H 0.49333 0.70667 0.08667
H2HA H 0.40333 0.66667 0.03667
H3HA H 0.33333 0.51667 -0.01333
H4HA H 0.33333 0.37667 -0.00333
H7HA H 0.45333 0.33667 0.13667
Na1 Na 0.00000 0.00000 0.00000
loop_
_geom_bond_atom_site_label_1
_geom_bond_atom_site_label_2
_geom_bond_site_symmetry_1
_geom_bond_site_symmetry_2
C1 C2 1_555 1_555
C2 C3 1_555 1_555
C3 C4 1_555 1_555
C4 C5 1_555 1_555
C5 C6 1_555 1_555
C6 C1 1_555 1_555
C7 C4 1_555 1_555
H1 N1 1_555 1_555
H2 N1 1_555 1_555
H3 C2 1_555 1_555
H4 C3 1_555 1_555
H5 C5 1_555 1_555
H6 C6 1_555 1_555
H7 C7 1_555 1_555
N1 C1 1_555 1_555
C4HA C7 1_555 1_555
C3HA C4HA 1_555 1_555
C2HA C3HA 1_555 1_555
C1HA C2HA 1_555 1_555
C6HA C1HA 1_555 1_555
C5HA C4HA 1_555 1_555
H5HA C5HA 1_555 1_555
H6HA C6HA 1_555 1_555
N1HA C1HA 1_555 1_555
H1HA N1HA 1_555 1_555
H2HA N1HA 1_555 1_555
H3HA C2HA 1_555 1_555
H4HA C3HA 1_555 1_555
H7HA C7 1_555 1_555
C6HA C5HA 1_555 1_555

#END
