
#######################################################################
#
#                 Cambridge Crystallographic Data Centre
#                                CCDC 
#
#######################################################################
#
# If this CIF has been generated from an entry in the Cambridge 
# Structural Database, then it will include bibliographic, chemical, 
# crystal, experimental, refinement or atomic coordinate data resulting 
# from the CCDC's data processing and validation procedures.
#
#######################################################################

data_MEAFPH
_chemical_formula_moiety         'C4 H12 N1 1+,F6 P1 1-'
_chemical_name_systematic        'Tetramethylammonium hexafluorophosphate'
_symmetry_cell_setting           tetragonal
_symmetry_space_group_name_H-M   'P 4/n m m'
_symmetry_Int_Tables_number      129
_space_group_name_Hall           '-P 4a 2a'
loop_
_symmetry_equiv_pos_site_id
_symmetry_equiv_pos_as_xyz
1 x,y,z
2 1/2-y,x,z
3 1/2-x,1/2-y,z
4 y,1/2-x,z
5 1/2-x,y,z
6 y,x,z
7 x,1/2-y,z
8 1/2-y,1/2-x,z
9 -x,-y,-z
10 1/2+y,-x,-z
11 1/2+x,1/2+y,-z
12 -y,1/2+x,-z
13 1/2+x,-y,-z
14 -y,-x,-z
15 -x,1/2+y,-z
16 1/2+y,1/2+x,-z
_cell_length_a                   8.436(2)
_cell_length_b                   8.436(2)
_cell_length_c                   6.089(2)
_cell_angle_alpha                90
_cell_angle_beta                 90
_cell_angle_gamma                90
_cell_volume                     433.33
_cell_formula_units_Z            2
loop_
_atom_site_label
_atom_site_type_symbol
_atom_site_fract_x
_atom_site_fract_y
_atom_site_fract_z
N1 N 0.75000 0.25000 0.00000
C1 C 0.75000 0.10630 0.14110
H1 H 0.75000 0.00400 0.03600
H2 H 0.64700 0.11300 0.23900
C1I C 0.60630 0.25000 -0.14110
C1B C 0.75000 0.39370 0.14110
C1K C 0.89370 0.25000 -0.14110
H2D H 0.85300 0.11300 0.23900
H1I H 0.50400 0.25000 -0.03600
H2I H 0.61300 0.35300 -0.23900
H2O H 0.61300 0.14700 -0.23900
H1B H 0.75000 0.49600 0.03600
H2B H 0.85300 0.38700 0.23900
H2F H 0.64700 0.38700 0.23900
H1K H 0.99600 0.25000 -0.03600
H2K H 0.88700 0.14700 -0.23900
H2M H 0.88700 0.35300 -0.23900
P1 P 0.25000 0.25000 0.41190
F1 F 0.25000 0.25000 0.15050
F2 F 0.38150 0.38150 0.41110
F3 F 0.25000 0.25000 0.67210
F2A F 0.11850 0.38150 0.41110
F2B F 0.11850 0.11850 0.41110
F2C F 0.38150 0.11850 0.41110
loop_
_geom_bond_atom_site_label_1
_geom_bond_atom_site_label_2
_geom_bond_site_symmetry_1
_geom_bond_site_symmetry_2
N1 C1 1_555 1_555
C1 H1 1_555 1_555
P1 F1 1_555 1_555
F2 P1 1_555 1_555
F3 P1 1_555 1_555
H2 C1 1_555 1_555
C1I N1 1_555 1_555
C1B N1 1_555 1_555
C1K N1 1_555 1_555
H2D C1 1_555 1_555
H1I C1I 1_555 1_555
H2I C1I 1_555 1_555
H2O C1I 1_555 1_555
H1B C1B 1_555 1_555
H2B C1B 1_555 1_555
H2F C1B 1_555 1_555
H1K C1K 1_555 1_555
H2K C1K 1_555 1_555
H2M C1K 1_555 1_555
F2A P1 1_555 1_555
F2B P1 1_555 1_555
F2C P1 1_555 1_555

#END
