
#######################################################################
#
#                 Cambridge Crystallographic Data Centre
#                                CCDC 
#
#######################################################################
#
# If this CIF has been generated from an entry in the Cambridge 
# Structural Database, then it will include bibliographic, chemical, 
# crystal, experimental, refinement or atomic coordinate data resulting 
# from the CCDC's data processing and validation procedures.
#
#######################################################################

data_MEBFAB
_chemical_formula_moiety         'C9 H15 N3 O4'
_chemical_name_systematic        
'Isopropyl 2,5-anhydro-6-azido-3,6-dideoxy-D-xylo-hexonate'
_symmetry_cell_setting           orthorhombic
_symmetry_space_group_name_H-M   'P 21 21 21'
_symmetry_Int_Tables_number      19
_space_group_name_Hall           'P 2ac 2ab'
loop_
_symmetry_equiv_pos_site_id
_symmetry_equiv_pos_as_xyz
1 x,y,z
2 1/2+x,1/2-y,-z
3 -x,1/2+y,1/2-z
4 1/2-x,-y,1/2+z
_cell_length_a                   5.4778(7)
_cell_length_b                   11.0701(13)
_cell_length_c                   18.2529(15)
_cell_angle_alpha                90
_cell_angle_beta                 90
_cell_angle_gamma                90
_cell_volume                     1106.85
_exptl_crystal_colour            colorless
_exptl_crystal_description       block
_cell_formula_units_Z            4
_exptl_crystal_recrystallization_method 'diethyl ether/hexane'
loop_
_atom_site_label
_atom_site_type_symbol
_atom_site_fract_x
_atom_site_fract_y
_atom_site_fract_z
O1 O 1.0131(3) 0.04582(14) 0.13732(8)
C1 C 0.8763(4) 0.07207(19) 0.19548(12)
O2 O 0.7238(3) 0.15214(14) 0.19695(9)
C2 C 0.9240(4) -0.0150(2) 0.25865(11)
O3 O 0.8152(3) 0.03051(14) 0.32375(8)
C3 C 0.9954(4) 0.0942(2) 0.36612(11)
C4 C 0.9236(5) 0.2241(2) 0.37739(14)
N1 N 0.7043(4) 0.22905(18) 0.42600(11)
N2 N 0.5797(4) 0.31992(19) 0.41699(12)
N3 N 0.4495(5) 0.3992(2) 0.41294(17)
C5 C 1.2409(4) 0.0802(2) 0.32561(12)
C6 C 1.1963(4) -0.0296(2) 0.27753(13)
O4 O 1.2826(3) 0.18508(14) 0.28216(9)
C7 C 0.9818(5) 0.1232(2) 0.07308(11)
C8 C 1.0604(6) 0.0491(2) 0.00784(12)
C9 C 1.1340(6) 0.2355(2) 0.08420(15)
H1 H 0.8578 -0.0940 0.2460
H2 H 1.0054 0.0554 0.4140
H3 H 1.0540 0.2685 0.3992
H4 H 0.8814 0.2605 0.3297
H5 H 1.3776 0.0681 0.3590
H6 H 1.2259 -0.1050 0.3045
H7 H 1.2955 -0.0277 0.2341
H8 H 0.8056 0.1442 0.0675
H9 H 1.0365 0.0977 -0.0357
H10 H 1.2331 0.0309 0.0141
H11 H 0.9649 -0.0252 0.0055
H12 H 1.1211 0.2894 0.0430
H13 H 1.3011 0.2149 0.0890
H14 H 1.0845 0.2801 0.1274
H15 H 1.4026 0.1766 0.2560
loop_
_geom_bond_atom_site_label_1
_geom_bond_atom_site_label_2
_geom_bond_site_symmetry_1
_geom_bond_site_symmetry_2
O1 C1 1_555 1_555
C1 O2 1_555 1_555
C2 C1 1_555 1_555
O3 C2 1_555 1_555
C3 O3 1_555 1_555
C4 C3 1_555 1_555
N1 C4 1_555 1_555
N2 N1 1_555 1_555
N3 N2 1_555 1_555
C5 C3 1_555 1_555
C6 C2 1_555 1_555
O4 C5 1_555 1_555
C7 O1 1_555 1_555
C8 C7 1_555 1_555
C9 C7 1_555 1_555
H1 C2 1_555 1_555
H2 C3 1_555 1_555
H3 C4 1_555 1_555
H4 C4 1_555 1_555
H5 C5 1_555 1_555
H6 C6 1_555 1_555
H7 C6 1_555 1_555
H8 C7 1_555 1_555
H9 C8 1_555 1_555
H10 C8 1_555 1_555
H11 C8 1_555 1_555
H12 C9 1_555 1_555
H13 C9 1_555 1_555
H14 C9 1_555 1_555
H15 O4 1_555 1_555
C5 C6 1_555 1_555

#END
