
#######################################################################
#
#                 Cambridge Crystallographic Data Centre
#                                CCDC 
#
#######################################################################
#
# If this CIF has been generated from an entry in the Cambridge 
# Structural Database, then it will include bibliographic, chemical, 
# crystal, experimental, refinement or atomic coordinate data resulting 
# from the CCDC's data processing and validation procedures.
#
#######################################################################

data_MEBJOT
_chemical_formula_moiety         'C34 H33 Cl2 F3 N4 O5,C1 H4 O1'
_chemical_name_systematic        
'(+)-1-((R)-3,3,3-trifluoro-2-methoxy-2-phenylpropionyl)-4-(4-(((2R,4S)-2-(2,4-dichlorophenyl)-2-(1H-imidazol-1-ylmethyl)-1,3-dioxolan-4-yl)methoxy)phenyl)piperazine methanol solvate'
_symmetry_cell_setting           monoclinic
_symmetry_space_group_name_H-M   'P 21'
_symmetry_Int_Tables_number      4
_space_group_name_Hall           'P 2yb'
loop_
_symmetry_equiv_pos_site_id
_symmetry_equiv_pos_as_xyz
1 x,y,z
2 -x,1/2+y,-z
_cell_length_a                   8.3890(10)
_cell_length_b                   14.7550(10)
_cell_length_c                   14.473(2)
_cell_angle_alpha                90
_cell_angle_beta                 100.470(10)
_cell_angle_gamma                90
_cell_volume                     1761.64
_exptl_crystal_colour            colorless
_exptl_crystal_description       needle
_cell_formula_units_Z            2
loop_
_atom_site_label
_atom_site_type_symbol
_atom_site_fract_x
_atom_site_fract_y
_atom_site_fract_z
N1 N 0.5288(6) 0.1683(3) 0.4720(3)
C1 C 0.6916(9) 0.1631(4) 0.4910(5)
N2 N 0.7561(8) 0.1541(4) 0.4164(5)
C2 C 0.6270(10) 0.1525(5) 0.3442(6)
C3 C 0.4852(9) 0.1619(5) 0.3751(5)
C4 C 0.4205(8) 0.1821(4) 0.5375(5)
C5 C 0.3907(6) 0.2815(4) 0.5580(4)
O1 O 0.5387(5) 0.3293(3) 0.5833(3)
C6 C 0.5370(7) 0.4074(4) 0.5228(4)
C7 C 0.3625(8) 0.4156(4) 0.4772(5)
O2 O 0.3095(5) 0.3227(3) 0.4734(3)
C8 C 0.2893(6) 0.2867(4) 0.6351(4)
C9 C 0.3545(6) 0.2719(4) 0.7293(4)
C10 C 0.2588(7) 0.2721(4) 0.7981(4)
C11 C 0.0923(7) 0.2859(4) 0.7717(4)
C12 C 0.0245(8) 0.2985(5) 0.6788(5)
C13 C 0.1240(7) 0.2990(5) 0.6113(5)
Cl1 Cl 0.5589(2) 0.25210(10) 0.76850(10)
Cl2 Cl -0.0261(2) 0.2848(2) 0.85690(10)
C14 C 0.6491(8) 0.3862(4) 0.4563(4)
O3 O 0.6875(5) 0.4669(3) 0.4108(3)
C15 C 0.8161(7) 0.4592(4) 0.3628(4)
C16 C 0.8715(8) 0.3777(4) 0.3344(5)
C17 C 0.9997(8) 0.3747(4) 0.2879(5)
C18 C 1.0821(7) 0.4527(4) 0.2697(4)
C19 C 1.0245(7) 0.5344(4) 0.2986(4)
C20 C 0.8934(8) 0.5373(4) 0.3446(4)
N3 N 1.2261(5) 0.4496(3) 0.2308(3)
C21 C 1.2513(8) 0.3665(4) 0.1793(5)
C22 C 1.4221(9) 0.3619(5) 0.1597(5)
N4 N 1.4614(6) 0.4443(3) 0.1116(3)
C23 C 1.4380(8) 0.5256(4) 0.1641(5)
C24 C 1.2667(7) 0.5305(4) 0.1823(4)
C25 C 1.4918(7) 0.4385(4) 0.0235(4)
O4 O 1.4900(6) 0.3657(3) -0.0187(3)
C26 C 1.5215(6) 0.5263(4) -0.0275(4)
O5 O 1.6344(5) 0.5857(3) 0.0274(3)
C27 C 1.7827(8) 0.5468(6) 0.0752(5)
C28 C 1.3608(7) 0.5772(4) -0.0542(4)
C29 C 1.2192(7) 0.5300(4) -0.0892(5)
C30 C 1.0737(8) 0.5745(6) -0.1123(5)
C31 C 1.0660(10) 0.6661(6) -0.0973(7)
C32 C 1.2040(10) 0.7135(5) -0.0631(6)
C33 C 1.3516(8) 0.6704(4) -0.0414(5)
C34 C 1.5843(8) 0.5056(4) -0.1180(5)
F1 F 1.4769(5) 0.4670(3) -0.1853(3)
F2 F 1.6305(5) 0.5830(3) -0.1554(3)
F3 F 1.7179(4) 0.4527(3) -0.1049(3)
H1 H 0.7519 0.1657 0.5516
H2 H 0.6359 0.1457 0.2814
H3 H 0.3813 0.1636 0.3393
H4 H 0.4652 0.1521 0.5961
H5 H 0.3174 0.1537 0.5127
H6 H 0.5730 0.4617 0.5597
H7 H 0.3025 0.4522 0.5148
H8 H 0.3513 0.4416 0.4148
H9 H 0.3050 0.2632 0.8608
H10 H -0.0868 0.3067 0.6610
H11 H 0.0775 0.3079 0.5486
H12 H 0.7477 0.3591 0.4904
H13 H 0.5981 0.3429 0.4096
H14 H 0.8212 0.3241 0.3470
H15 H 1.0326 0.3190 0.2679
H16 H 1.0750 0.5882 0.2868
H17 H 0.8575 0.5929 0.3634
H18 H 1.1747 0.3649 0.1204
H19 H 1.2312 0.3140 0.2160
H20 H 1.4979 0.3550 0.2184
H21 H 1.4326 0.3094 0.1208
H22 H 1.4603 0.5785 0.1288
H23 H 1.5134 0.5255 0.2234
H24 H 1.2554 0.5835 0.2202
H25 H 1.1920 0.5367 0.1231
H26 H 1.7593 0.4940 0.1091
H27 H 1.8397 0.5903 0.1183
H28 H 1.8486 0.5300 0.0302
H29 H 1.2232 0.4675 -0.0971
H30 H 0.9805 0.5426 -0.1381
H31 H 0.9668 0.6959 -0.1103
H32 H 1.1983 0.7758 -0.0543
H33 H 1.4447 0.7034 -0.0183
C35 C 1.0560(10) 0.0309(7) 0.3656(7)
O6 O 1.0745(7) 0.1233(4) 0.3839(6)
H34 H 1.1366 0.0110 0.3310
H35 H 0.9499 0.0197 0.3294
H36 H 1.0677 -0.0017 0.4239
H37 H 0.9950 0.1426 0.4035
loop_
_geom_bond_atom_site_label_1
_geom_bond_atom_site_label_2
_geom_bond_site_symmetry_1
_geom_bond_site_symmetry_2
N1 C1 1_555 1_555
C1 N2 1_555 1_555
N2 C2 1_555 1_555
C2 C3 1_555 1_555
C3 N1 1_555 1_555
C4 N1 1_555 1_555
C5 C4 1_555 1_555
O1 C5 1_555 1_555
C6 O1 1_555 1_555
C7 C6 1_555 1_555
O2 C5 1_555 1_555
C8 C5 1_555 1_555
C9 C8 1_555 1_555
C10 C9 1_555 1_555
C11 C10 1_555 1_555
C12 C11 1_555 1_555
C13 C8 1_555 1_555
Cl1 C9 1_555 1_555
Cl2 C11 1_555 1_555
C14 C6 1_555 1_555
O3 C14 1_555 1_555
C15 O3 1_555 1_555
C16 C15 1_555 1_555
C17 C16 1_555 1_555
C18 C17 1_555 1_555
C19 C18 1_555 1_555
C20 C15 1_555 1_555
N3 C18 1_555 1_555
C21 N3 1_555 1_555
C22 C21 1_555 1_555
N4 C22 1_555 1_555
C23 N4 1_555 1_555
C24 N3 1_555 1_555
C25 N4 1_555 1_555
O4 C25 1_555 1_555
C26 C25 1_555 1_555
O5 C26 1_555 1_555
C27 O5 1_555 1_555
C28 C26 1_555 1_555
C29 C28 1_555 1_555
C30 C29 1_555 1_555
C31 C30 1_555 1_555
C32 C31 1_555 1_555
C33 C28 1_555 1_555
C34 C26 1_555 1_555
F1 C34 1_555 1_555
F2 C34 1_555 1_555
F3 C34 1_555 1_555
C35 O6 1_555 1_555
O6 H37 1_555 1_555
H1 C1 1_555 1_555
H2 C2 1_555 1_555
H3 C3 1_555 1_555
H4 C4 1_555 1_555
H5 C4 1_555 1_555
H6 C6 1_555 1_555
H7 C7 1_555 1_555
H8 C7 1_555 1_555
H9 C10 1_555 1_555
H10 C12 1_555 1_555
H11 C13 1_555 1_555
H12 C14 1_555 1_555
H13 C14 1_555 1_555
H14 C16 1_555 1_555
H15 C17 1_555 1_555
H16 C19 1_555 1_555
H17 C20 1_555 1_555
H18 C21 1_555 1_555
H19 C21 1_555 1_555
H20 C22 1_555 1_555
H21 C22 1_555 1_555
H22 C23 1_555 1_555
H23 C23 1_555 1_555
H24 C24 1_555 1_555
H25 C24 1_555 1_555
H26 C27 1_555 1_555
H27 C27 1_555 1_555
H28 C27 1_555 1_555
H29 C29 1_555 1_555
H30 C30 1_555 1_555
H31 C31 1_555 1_555
H32 C32 1_555 1_555
H33 C33 1_555 1_555
H34 C35 1_555 1_555
H35 C35 1_555 1_555
H36 C35 1_555 1_555
C7 O2 1_555 1_555
C12 C13 1_555 1_555
C19 C20 1_555 1_555
C23 C24 1_555 1_555
C32 C33 1_555 1_555

#END
