
#######################################################################
#
#                 Cambridge Crystallographic Data Centre
#                                CCDC 
#
#######################################################################
#
# If this CIF has been generated from an entry in the Cambridge 
# Structural Database, then it will include bibliographic, chemical, 
# crystal, experimental, refinement or atomic coordinate data resulting 
# from the CCDC's data processing and validation procedures.
#
#######################################################################

data_MEBKAG
_chemical_formula_moiety         'C13 H13 F1 N4 S1'
_chemical_name_systematic        
'6-(4-fluorophenyl)-3-propyl-7H-1,2,4-triazolo(3,4-b)(1,3,4) thiadiazine'
_symmetry_cell_setting           monoclinic
_symmetry_space_group_name_H-M   'P 21/c'
_symmetry_Int_Tables_number      14
_space_group_name_Hall           '-P 2ybc'
loop_
_symmetry_equiv_pos_site_id
_symmetry_equiv_pos_as_xyz
1 x,y,z
2 -x,1/2+y,1/2-z
3 -x,-y,-z
4 x,1/2-y,1/2+z
_cell_length_a                   12.5849(9)
_cell_length_b                   14.5963(10)
_cell_length_c                   7.2955(5)
_cell_angle_alpha                90
_cell_angle_beta                 101.8250(10)
_cell_angle_gamma                90
_cell_volume                     1311.69
_exptl_crystal_colour            colorless
_exptl_crystal_description       Block
_chemical_melting_point          '432-434 K'
_cell_formula_units_Z            4
_exptl_crystal_recrystallization_method ethanol
loop_
_atom_site_label
_atom_site_type_symbol
_atom_site_fract_x
_atom_site_fract_y
_atom_site_fract_z
S1 S 1.03917(6) 0.67104(5) 0.20809(11)
F1 F 0.46490(18) 0.90948(17) 0.1253(4)
N1 N 0.80754(18) 0.59551(15) 0.2170(3)
N2 N 0.89568(19) 0.53717(15) 0.2284(3)
N3 N 1.0630(2) 0.48661(19) 0.2756(4)
N4 N 0.9934(2) 0.41426(17) 0.2994(4)
C1 C 0.5501(3) 0.8528(2) 0.1267(5)
C2 C 0.6476(3) 0.8893(2) 0.1116(4)
H1 H 0.6557 0.9523 0.1005
C3 C 0.7340(2) 0.83096(19) 0.1131(4)
H2 H 0.8008 0.8550 0.1021
C4 C 0.7228(2) 0.73691(18) 0.1308(3)
C5 C 0.6212(2) 0.7027(2) 0.1452(4)
H3 H 0.6118 0.6399 0.1564
C6 C 0.5350(2) 0.7607(2) 0.1432(5)
H4 H 0.4674 0.7376 0.1529
C7 C 0.8156(2) 0.67395(18) 0.1404(3)
C8 C 0.9110(2) 0.7009(2) 0.0573(4)
H5 H 0.9090 0.7665 0.0352
H6 H 0.9055 0.6705 -0.0626
C9 C 1.0020(2) 0.5582(2) 0.2341(4)
C10 C 0.8949(2) 0.44609(19) 0.2739(4)
C11 C 0.7956(3) 0.3943(2) 0.2857(5)
H7 H 0.7449 0.4354 0.3276
H8 H 0.8144 0.3467 0.3795
C12 C 0.7393(3) 0.3503(3) 0.1025(5)
H9 H 0.7902 0.3097 0.0600
H10 H 0.6795 0.3133 0.1259
C13 C 0.6963(4) 0.4171(3) -0.0510(6)
H11 H 0.6422 0.4552 -0.0139
H12 H 0.6645 0.3842 -0.1628
H13 H 0.7547 0.4546 -0.0747
loop_
_geom_bond_atom_site_label_1
_geom_bond_atom_site_label_2
_geom_bond_site_symmetry_1
_geom_bond_site_symmetry_2
S1 C8 1_555 1_555
F1 C1 1_555 1_555
N1 N2 1_555 1_555
N2 C9 1_555 1_555
N3 N4 1_555 1_555
N4 C10 1_555 1_555
C1 C2 1_555 1_555
C2 H1 1_555 1_555
C3 C2 1_555 1_555
H2 C3 1_555 1_555
C4 C3 1_555 1_555
C5 C4 1_555 1_555
H3 C5 1_555 1_555
C6 C1 1_555 1_555
H4 C6 1_555 1_555
C7 N1 1_555 1_555
C8 C7 1_555 1_555
H5 C8 1_555 1_555
H6 C8 1_555 1_555
C9 S1 1_555 1_555
C10 N2 1_555 1_555
C11 C10 1_555 1_555
H7 C11 1_555 1_555
H8 C11 1_555 1_555
C12 C11 1_555 1_555
H9 C12 1_555 1_555
H10 C12 1_555 1_555
C13 C12 1_555 1_555
H11 C13 1_555 1_555
H12 C13 1_555 1_555
H13 C13 1_555 1_555
N3 C9 1_555 1_555
C4 C7 1_555 1_555
C5 C6 1_555 1_555

#END
