
#######################################################################
#
#                 Cambridge Crystallographic Data Centre
#                                CCDC 
#
#######################################################################
#
# If this CIF has been generated from an entry in the Cambridge 
# Structural Database, then it will include bibliographic, chemical, 
# crystal, experimental, refinement or atomic coordinate data resulting 
# from the CCDC's data processing and validation procedures.
#
#######################################################################

data_MEBLIP
_chemical_name_common            '4-fluorobenzaldehyde salicylhydrazone'
_chemical_formula_moiety         'C14 H11 F1 N2 O2'
_chemical_name_systematic        
'4-fluorobenzaldehyde (2-hydroxybenzoyl)hydrazone'
_symmetry_cell_setting           monoclinic
_symmetry_space_group_name_H-M   'P 21/n'
_symmetry_Int_Tables_number      14
_space_group_name_Hall           '-P 2yn'
loop_
_symmetry_equiv_pos_site_id
_symmetry_equiv_pos_as_xyz
1 x,y,z
2 1/2-x,1/2+y,1/2-z
3 -x,-y,-z
4 1/2+x,1/2-y,1/2+z
_cell_length_a                   4.9532(4)
_cell_length_b                   47.867(4)
_cell_length_c                   10.7392(9)
_cell_angle_alpha                90
_cell_angle_beta                 102.953(2)
_cell_angle_gamma                90
_cell_volume                     2481.42
_exptl_crystal_colour            colorless
_exptl_crystal_description       prism
_cell_formula_units_Z            8
loop_
_atom_site_label
_atom_site_type_symbol
_atom_site_fract_x
_atom_site_fract_y
_atom_site_fract_z
F1 F -0.6257(6) 0.26229(4) 0.7221(2)
O1 O 0.5721(4) 0.11916(4) 0.48385(17)
H1 H 0.6769 0.1202 0.4348
O2 O 0.2614(4) 0.10829(4) 0.80849(17)
N1 N 0.2285(5) 0.13388(5) 0.6296(2)
H3 H 0.2695 0.1357 0.5563
N2 N 0.0700(5) 0.15371(5) 0.6713(2)
C1 C 0.4945(5) 0.09089(5) 0.6551(2)
C2 C 0.6209(5) 0.09505(6) 0.5511(2)
C3 C 0.7911(6) 0.07461(6) 0.5199(3)
H5 H 0.8789 0.0777 0.4531
C4 C 0.8323(6) 0.04992(7) 0.5859(3)
H6 H 0.9478 0.0364 0.5637
C5 C 0.7031(7) 0.04498(6) 0.6856(3)
H7 H 0.7270 0.0281 0.7293
C6 C 0.5394(6) 0.06549(6) 0.7184(3)
H8 H 0.4547 0.0623 0.7861
C7 C 0.3197(5) 0.11167(6) 0.7026(3)
C8 C -0.0106(6) 0.17390(6) 0.5964(3)
H9 H 0.0377 0.1743 0.5176
C9 C -0.1765(6) 0.19658(6) 0.6295(3)
C10 C -0.2270(8) 0.22005(7) 0.5530(3)
H10 H -0.1571 0.2208 0.4796
C11 C -0.3791(9) 0.24251(7) 0.5822(4)
H11 H -0.4116 0.2583 0.5303
C12 C -0.4793(8) 0.24048(7) 0.6911(4)
C13 C -0.4365(8) 0.21777(8) 0.7673(4)
H12 H -0.5091 0.2171 0.8399
C14 C -0.2851(7) 0.19566(6) 0.7375(3)
H13 H -0.2556 0.1800 0.7901
F2 F -0.3108(4) 0.00028(4) 0.19112(19)
O3 O 0.9649(4) 0.13193(4) -0.04409(17)
H2 H 1.0421 0.1280 -0.1018
O4 O 0.9312(4) 0.13221(4) 0.34209(16)
N3 N 0.7514(5) 0.11446(4) 0.1462(2)
H4 H 0.7474 0.1150 0.0657
N4 N 0.5807(5) 0.09600(4) 0.1911(2)
C15 C 1.1052(5) 0.14987(5) 0.1685(2)
C16 C 1.1297(6) 0.14964(5) 0.0406(2)
C17 C 1.3156(6) 0.16702(6) 0.0006(3)
H14 H 1.3318 0.1664 -0.0840
C18 C 1.4765(6) 0.18518(6) 0.0840(3)
H15 H 1.6011 0.1968 0.0561
C19 C 1.4533(7) 0.18615(6) 0.2101(3)
H16 H 1.5601 0.1986 0.2672
C20 C 1.2722(6) 0.16866(6) 0.2495(3)
H17 H 1.2598 0.1693 0.3346
C21 C 0.9230(6) 0.13160(5) 0.2254(3)
C22 C 0.4147(6) 0.08257(6) 0.1039(3)
H18 H 0.4159 0.0864 0.0191
C23 C 0.2236(6) 0.06160(5) 0.1308(3)
C24 C 0.0353(6) 0.04995(6) 0.0293(3)
H19 H 0.0327 0.0560 -0.0533
C25 C -0.1479(7) 0.02965(7) 0.0480(3)
H20 H -0.2759 0.0221 -0.0206
C26 C -0.1370(7) 0.02085(6) 0.1702(3)
C27 C 0.0456(7) 0.03181(6) 0.2732(3)
H21 H 0.0475 0.0256 0.3554
C28 C 0.2269(7) 0.05228(6) 0.2532(3)
H22 H 0.3525 0.0599 0.3224
loop_
_geom_bond_atom_site_label_1
_geom_bond_atom_site_label_2
_geom_bond_site_symmetry_1
_geom_bond_site_symmetry_2
F1 C12 1_555 1_555
F2 C26 1_555 1_555
O1 H1 1_555 1_555
O2 C7 1_555 1_555
O3 H2 1_555 1_555
O4 C21 1_555 1_555
N1 H3 1_555 1_555
N2 N1 1_555 1_555
N3 H4 1_555 1_555
N4 N3 1_555 1_555
C1 C2 1_555 1_555
C2 O1 1_555 1_555
C3 C2 1_555 1_555
H5 C3 1_555 1_555
C4 C3 1_555 1_555
H6 C4 1_555 1_555
C5 C4 1_555 1_555
H7 C5 1_555 1_555
C6 C1 1_555 1_555
H8 C6 1_555 1_555
C7 N1 1_555 1_555
C8 N2 1_555 1_555
H9 C8 1_555 1_555
C9 C8 1_555 1_555
C10 C9 1_555 1_555
H10 C10 1_555 1_555
C11 C10 1_555 1_555
H11 C11 1_555 1_555
C12 C11 1_555 1_555
C13 C12 1_555 1_555
H12 C13 1_555 1_555
C14 C9 1_555 1_555
H13 C14 1_555 1_555
C15 C16 1_555 1_555
C16 O3 1_555 1_555
C17 C16 1_555 1_555
H14 C17 1_555 1_555
C18 C17 1_555 1_555
H15 C18 1_555 1_555
C19 C18 1_555 1_555
H16 C19 1_555 1_555
C20 C15 1_555 1_555
H17 C20 1_555 1_555
C21 N3 1_555 1_555
C22 N4 1_555 1_555
H18 C22 1_555 1_555
C23 C22 1_555 1_555
C24 C23 1_555 1_555
H19 C24 1_555 1_555
C25 C24 1_555 1_555
H20 C25 1_555 1_555
C26 C25 1_555 1_555
C27 C26 1_555 1_555
H21 C27 1_555 1_555
C28 C23 1_555 1_555
H22 C28 1_555 1_555
C1 C7 1_555 1_555
C5 C6 1_555 1_555
C13 C14 1_555 1_555
C15 C21 1_555 1_555
C19 C20 1_555 1_555
C27 C28 1_555 1_555

#END
