
#######################################################################
#
#                 Cambridge Crystallographic Data Centre
#                                CCDC 
#
#######################################################################
#
# If this CIF has been generated from an entry in the Cambridge 
# Structural Database, then it will include bibliographic, chemical, 
# crystal, experimental, refinement or atomic coordinate data resulting 
# from the CCDC's data processing and validation procedures.
#
#######################################################################

data_MEBLAH
_chemical_formula_moiety         'C46 H40 N6 O2'
_chemical_name_systematic        
2,6-Dibenzhydryl-8b,8c-diphenyl-2,3,5,6,8b,8c-hexahydro-2,3a,4a,6,7a,8a-hexaaza-1H,4H-cyclopenta(def)fluorene-4,8-dione
_symmetry_cell_setting           triclinic
_symmetry_space_group_name_H-M   'P -1'
_symmetry_Int_Tables_number      2
_space_group_name_Hall           '-P 1'
loop_
_symmetry_equiv_pos_site_id
_symmetry_equiv_pos_as_xyz
1 x,y,z
2 -x,-y,-z
_cell_length_a                   10.5691(13)
_cell_length_b                   13.7434(17)
_cell_length_c                   13.9871(17)
_cell_angle_alpha                78.876(2)
_cell_angle_beta                 72.706(2)
_cell_angle_gamma                88.624(2)
_cell_volume                     1902.2
_exptl_crystal_colour            colorless
_exptl_crystal_description       block
_cell_formula_units_Z            2
_exptl_crystal_recrystallization_method 'ethyl acetate'
loop_
_atom_site_label
_atom_site_type_symbol
_atom_site_fract_x
_atom_site_fract_y
_atom_site_fract_z
C1 C 1.0712(5) 0.9856(3) 0.1369(4)
H1 H 0.9992 0.9446 0.1783
C2 C 1.0487(6) 1.0787(4) 0.0849(4)
H2 H 0.9627 1.1000 0.0925
C3 C 1.1528(7) 1.1367(4) 0.0239(4)
H3 H 1.1383 1.1978 -0.0127
C4 C 1.2760(7) 1.1088(4) 0.0147(4)
H4 H 1.3465 1.1507 -0.0278
C5 C 1.3017(5) 1.0162(4) 0.0686(3)
H5 H 1.3885 0.9982 0.0635
C6 C 1.1979(4) 0.9533(3) 0.1284(3)
C7 C 1.2254(4) 0.8491(3) 0.1795(3)
H6 H 1.3107 0.8516 0.1934
C8 C 1.2349(5) 0.7783(3) 0.1057(3)
C9 C 1.1281(6) 0.7522(5) 0.0806(4)
H7 H 1.0451 0.7741 0.1124
C10 C 1.1396(8) 0.6936(5) 0.0085(5)
H8 H 1.0649 0.6763 -0.0076
C11 C 1.2591(12) 0.6618(6) -0.0380(5)
H9 H 1.2678 0.6233 -0.0874
C12 C 1.3643(9) 0.6854(6) -0.0134(8)
H10 H 1.4464 0.6620 -0.0452
C13 C 1.3552(5) 0.7452(4) 0.0599(5)
H11 H 1.4301 0.7615 0.0763
C14 C 1.1496(3) 0.7150(2) 0.3242(2)
H12 H 1.1580 0.6699 0.2773
H13 H 1.2325 0.7169 0.3402
C15 C 1.1169(3) 0.8805(2) 0.3491(3)
H14 H 1.2002 0.8797 0.3650
H15 H 1.1028 0.9481 0.3191
C16 C 0.8844(3) 0.8791(2) 0.4481(2)
C17 C 0.9289(3) 0.63908(18) 0.4086(2)
C18 C 1.0127(3) 0.74457(18) 0.4915(2)
C19 C 1.1070(3) 0.7317(2) 0.5557(2)
C20 C 1.1341(3) 0.8097(2) 0.5968(2)
H16 H 1.0940 0.8699 0.5849
C21 C 1.2201(4) 0.7989(3) 0.6551(3)
H17 H 1.2389 0.8520 0.6817
C22 C 1.2778(4) 0.7095(3) 0.6737(3)
H18 H 1.3359 0.7022 0.7129
C23 C 1.2505(4) 0.6311(3) 0.6352(3)
H19 H 1.2892 0.5705 0.6487
C24 C 1.1654(3) 0.6424(2) 0.5762(2)
H20 H 1.1472 0.5891 0.5498
C25 C 0.8607(3) 0.71870(18) 0.5482(2)
C26 C 0.8234(3) 0.6768(2) 0.6620(2)
C27 C 0.7800(4) 0.7368(3) 0.7327(3)
H21 H 0.7720 0.8045 0.7117
C28 C 0.7480(5) 0.6946(4) 0.8366(3)
H22 H 0.7165 0.7342 0.8850
C29 C 0.7628(5) 0.5960(4) 0.8674(3)
H23 H 0.7407 0.5686 0.9366
C30 C 0.8088(5) 0.5382(3) 0.7985(3)
H24 H 0.8207 0.4712 0.8200
C31 C 0.8384(3) 0.5779(2) 0.6961(2)
H25 H 0.8692 0.5370 0.6489
C32 C 0.6576(3) 0.8045(2) 0.5262(3)
H26 H 0.6031 0.7839 0.5965
H27 H 0.6303 0.8696 0.5004
C33 C 0.6872(3) 0.6404(2) 0.4976(2)
H28 H 0.6784 0.5963 0.4533
H29 H 0.6354 0.6111 0.5666
C34 C 0.6709(3) 0.7710(2) 0.3570(2)
H30 H 0.7676 0.7802 0.3313
C35 C 0.6276(3) 0.6944(2) 0.3052(2)
C36 C 0.7149(4) 0.6681(2) 0.2210(3)
H31 H 0.8008 0.6954 0.1974
C37 C 0.6789(6) 0.6025(3) 0.1705(3)
H32 H 0.7396 0.5866 0.1127
C38 C 0.5531(6) 0.5601(3) 0.2053(4)
H33 H 0.5277 0.5154 0.1718
C39 C 0.4645(4) 0.5856(3) 0.2916(4)
H34 H 0.3791 0.5574 0.3167
C40 C 0.5033(4) 0.6526(2) 0.3399(3)
H35 H 0.4431 0.6696 0.3973
C41 C 0.6083(3) 0.8699(2) 0.3273(3)
C42 C 0.4832(3) 0.8947(2) 0.3829(3)
H36 H 0.4342 0.8510 0.4409
C43 C 0.4322(4) 0.9851(3) 0.3513(4)
H37 H 0.3496 1.0026 0.3893
C44 C 0.5025(5) 1.0483(3) 0.2650(4)
H38 H 0.4674 1.1087 0.2444
C45 C 0.6249(5) 1.0237(3) 0.2078(3)
H39 H 0.6717 1.0662 0.1480
C46 C 0.6769(4) 0.9353(3) 0.2405(3)
H40 H 0.7606 0.9193 0.2030
N1 N 1.1222(3) 0.8146(2) 0.27600(19)
N2 N 1.0110(2) 0.84708(15) 0.44018(18)
N3 N 1.0429(2) 0.67986(15) 0.41668(16)
N4 N 0.7972(2) 0.81214(16) 0.52444(19)
N5 N 0.8272(2) 0.64725(15) 0.49379(16)
N6 N 0.6331(2) 0.73545(17) 0.46682(19)
O1 O 0.8544(2) 0.95498(14) 0.40072(19)
O2 O 0.9230(2) 0.59828(14) 0.34052(15)
loop_
_geom_bond_atom_site_label_1
_geom_bond_atom_site_label_2
_geom_bond_site_symmetry_1
_geom_bond_site_symmetry_2
C1 H1 1_555 1_555
C2 C1 1_555 1_555
H2 C2 1_555 1_555
C3 C2 1_555 1_555
H3 C3 1_555 1_555
C4 C3 1_555 1_555
H4 C4 1_555 1_555
C5 C4 1_555 1_555
H5 C5 1_555 1_555
C6 C1 1_555 1_555
C7 C6 1_555 1_555
H6 C7 1_555 1_555
C8 C7 1_555 1_555
C9 C8 1_555 1_555
H7 C9 1_555 1_555
C10 C9 1_555 1_555
H8 C10 1_555 1_555
C11 C10 1_555 1_555
H9 C11 1_555 1_555
C12 C11 1_555 1_555
H10 C12 1_555 1_555
C13 C8 1_555 1_555
H11 C13 1_555 1_555
C14 H12 1_555 1_555
H13 C14 1_555 1_555
C15 H14 1_555 1_555
H15 C15 1_555 1_555
C16 N2 1_555 1_555
C17 N3 1_555 1_555
C18 C19 1_555 1_555
C19 C20 1_555 1_555
C20 H16 1_555 1_555
C21 C20 1_555 1_555
H17 C21 1_555 1_555
C22 C21 1_555 1_555
H18 C22 1_555 1_555
C23 C22 1_555 1_555
H19 C23 1_555 1_555
C24 C19 1_555 1_555
H20 C24 1_555 1_555
C25 C18 1_555 1_555
C26 C25 1_555 1_555
C27 C26 1_555 1_555
H21 C27 1_555 1_555
C28 C27 1_555 1_555
H22 C28 1_555 1_555
C29 C28 1_555 1_555
H23 C29 1_555 1_555
C30 C29 1_555 1_555
H24 C30 1_555 1_555
C31 C26 1_555 1_555
H25 C31 1_555 1_555
C32 H26 1_555 1_555
H27 C32 1_555 1_555
C33 H28 1_555 1_555
H29 C33 1_555 1_555
C34 H30 1_555 1_555
C35 C34 1_555 1_555
C36 C35 1_555 1_555
H31 C36 1_555 1_555
C37 C36 1_555 1_555
H32 C37 1_555 1_555
C38 C37 1_555 1_555
H33 C38 1_555 1_555
C39 C38 1_555 1_555
H34 C39 1_555 1_555
C40 C35 1_555 1_555
H35 C40 1_555 1_555
C41 C34 1_555 1_555
C42 C41 1_555 1_555
H36 C42 1_555 1_555
C43 C42 1_555 1_555
H37 C43 1_555 1_555
C44 C43 1_555 1_555
H38 C44 1_555 1_555
C45 C44 1_555 1_555
H39 C45 1_555 1_555
C46 C41 1_555 1_555
H40 C46 1_555 1_555
N1 C7 1_555 1_555
N2 C15 1_555 1_555
N3 C14 1_555 1_555
N4 C16 1_555 1_555
N5 C17 1_555 1_555
N6 C32 1_555 1_555
O1 C16 1_555 1_555
O2 C17 1_555 1_555
C5 C6 1_555 1_555
C12 C13 1_555 1_555
C14 N1 1_555 1_555
C15 N1 1_555 1_555
C18 N2 1_555 1_555
C18 N3 1_555 1_555
C23 C24 1_555 1_555
C25 N4 1_555 1_555
C25 N5 1_555 1_555
C30 C31 1_555 1_555
C32 N4 1_555 1_555
C33 N5 1_555 1_555
C33 N6 1_555 1_555
C34 N6 1_555 1_555
C39 C40 1_555 1_555
C45 C46 1_555 1_555

#END
