
#######################################################################
#
#                 Cambridge Crystallographic Data Centre
#                                CCDC 
#
#######################################################################
#
# If this CIF has been generated from an entry in the Cambridge 
# Structural Database, then it will include bibliographic, chemical, 
# crystal, experimental, refinement or atomic coordinate data resulting 
# from the CCDC's data processing and validation procedures.
#
#######################################################################

data_MEBMOX
_chemical_formula_moiety         'C16 H14 Br1 N1 O3'
_chemical_name_systematic        
5-Acetyl-4-(4-bromophenyl)-2-methyl-4,6a-dihydrocyclopenta[c]pyrrole-1,3(2H,3aH)-dione
_symmetry_cell_setting           orthorhombic
_symmetry_space_group_name_H-M   'P 21 21 21'
_symmetry_Int_Tables_number      19
_space_group_name_Hall           'P 2ac 2ab'
loop_
_symmetry_equiv_pos_site_id
_symmetry_equiv_pos_as_xyz
1 x,y,z
2 1/2-x,-y,1/2+z
3 -x,1/2+y,1/2-z
4 1/2+x,1/2-y,-z
_cell_length_a                   9.5280(6)
_cell_length_b                   9.6271(6)
_cell_length_c                   16.3779(10)
_cell_angle_alpha                90
_cell_angle_beta                 90
_cell_angle_gamma                90
_cell_volume                     1502.3
_exptl_crystal_colour            colorless
_exptl_crystal_description       prismatic
_cell_formula_units_Z            4
loop_
_atom_site_label
_atom_site_type_symbol
_atom_site_fract_x
_atom_site_fract_y
_atom_site_fract_z
Br1 Br 1.01406(7) -0.00697(5) 0.12295(2)
N1 N 0.8606(3) 0.2293(3) 0.65575(16)
O1 O 1.0380(3) 0.1377(3) 0.73222(15)
O2 O 0.7150(3) 0.2925(3) 0.55163(18)
O3 O 0.7153(3) -0.2602(3) 0.47386(17)
C1 C 0.9771(4) 0.1472(3) 0.6681(2)
C2 C 0.8149(3) 0.2281(3) 0.5761(2)
C3 C 0.9104(3) 0.1368(3) 0.52630(18)
H1 H 0.9624 0.1921 0.4862
C4 C 1.0103(3) 0.0741(3) 0.58912(18)
H2 H 1.1088 0.0860 0.5733
C5 C 0.9681(3) -0.0770(3) 0.59086(18)
H3 H 1.0061 -0.1416 0.6268
C6 C 0.8714(3) -0.1078(3) 0.53587(16)
C7 C 0.8313(3) 0.0154(3) 0.48353(17)
H4 H 0.7300 0.0311 0.4879
C8 C 0.8099(3) -0.2460(4) 0.5229(2)
C9 C 0.8682(4) -0.3674(4) 0.5688(2)
H5 H 0.8232 -0.4511 0.5505
H6 H 0.8514 -0.3552 0.6261
H7 H 0.9673 -0.3740 0.5591
C10 C 0.8704(3) 0.0004(3) 0.39498(17)
C11 C 0.9887(4) -0.0719(4) 0.37123(18)
H8 H 1.0415 -0.1186 0.4103
C12 C 1.0300(4) -0.0760(4) 0.28996(19)
H9 H 1.1105 -0.1241 0.2748
C13 C 0.9525(5) -0.0095(4) 0.23324(19)
C14 C 0.8341(6) 0.0620(5) 0.2542(2)
H10 H 0.7818 0.1074 0.2144
C15 C 0.7928(4) 0.0662(4) 0.3347(2)
H11 H 0.7115 0.1140 0.3488
C16 C 0.7901(5) 0.3067(4) 0.7207(3)
H12 H 0.8383 0.3929 0.7298
H13 H 0.7909 0.2528 0.7701
H14 H 0.6949 0.3251 0.7050
loop_
_geom_bond_atom_site_label_1
_geom_bond_atom_site_label_2
_geom_bond_site_symmetry_1
_geom_bond_site_symmetry_2
Br1 C13 1_555 1_555
N1 C1 1_555 1_555
O1 C1 1_555 1_555
O2 C2 1_555 1_555
O3 C8 1_555 1_555
C1 C4 1_555 1_555
C2 N1 1_555 1_555
C3 C2 1_555 1_555
H1 C3 1_555 1_555
C4 C3 1_555 1_555
H2 C4 1_555 1_555
C5 C4 1_555 1_555
H3 C5 1_555 1_555
C6 C5 1_555 1_555
C7 C3 1_555 1_555
H4 C7 1_555 1_555
C8 C6 1_555 1_555
C9 C8 1_555 1_555
H5 C9 1_555 1_555
H6 C9 1_555 1_555
H7 C9 1_555 1_555
C10 C7 1_555 1_555
C11 C10 1_555 1_555
H8 C11 1_555 1_555
C12 C11 1_555 1_555
H9 C12 1_555 1_555
C13 C12 1_555 1_555
C14 C13 1_555 1_555
H10 C14 1_555 1_555
C15 C10 1_555 1_555
H11 C15 1_555 1_555
C16 N1 1_555 1_555
H12 C16 1_555 1_555
H13 C16 1_555 1_555
H14 C16 1_555 1_555
C6 C7 1_555 1_555
C14 C15 1_555 1_555

#END
