
#######################################################################
#
#                 Cambridge Crystallographic Data Centre
#                                CCDC 
#
#######################################################################
#
# If this CIF has been generated from an entry in the Cambridge 
# Structural Database, then it will include bibliographic, chemical, 
# crystal, experimental, refinement or atomic coordinate data resulting 
# from the CCDC's data processing and validation procedures.
#
#######################################################################

data_MEBNIT
_chemical_compound_source        'aerial parts of Baeckea frutescens'
_chemical_name_common            'Frutescone H'
_chemical_formula_moiety         'C29 H44 O3'
_chemical_name_systematic        
4,8'-diisopropyl-7-methoxy-5',6,8,8-tetramethyl-4,4',4a',5',6',7',8,8'-octahydro-3'H-spiro[chromene-2,2'-naphthalen]-5(3H)-one
_symmetry_cell_setting           monoclinic
_symmetry_space_group_name_H-M   'P 21'
_symmetry_Int_Tables_number      4
_space_group_name_Hall           'P 2yb'
loop_
_symmetry_equiv_pos_site_id
_symmetry_equiv_pos_as_xyz
1 x,y,z
2 -x,1/2+y,-z
_cell_length_a                   14.1074(2)
_cell_length_b                   5.82670(10)
_cell_length_c                   17.4282(2)
_cell_angle_alpha                90
_cell_angle_beta                 112.703(2)
_cell_angle_gamma                90
_cell_volume                     1321.59
_exptl_crystal_colour            colorless
_exptl_crystal_description       needle
_chemical_melting_point          '327-329 deg.C'
_cell_formula_units_Z            2
loop_
_atom_site_label
_atom_site_type_symbol
_atom_site_fract_x
_atom_site_fract_y
_atom_site_fract_z
O1 O 0.41472(8) 0.5549(2) 0.74389(6)
O2 O 0.07262(9) 0.5716(3) 0.73134(8)
O3 O 0.14987(10) 0.2077(3) 0.52041(8)
C1 C 0.28249(11) 0.4171(3) 0.61973(9)
C2 C 0.31466(11) 0.5093(3) 0.69632(9)
C3 C 0.17705(11) 0.3288(3) 0.58316(9)
C4 C 0.59200(11) 0.5509(3) 0.76801(9)
H1 H 0.6061 0.6901 0.7485
C5 C 0.49112(11) 0.4373(3) 0.71921(9)
C6 C 0.49589(12) 0.1839(3) 0.74226(10)
H2 H 0.4278 0.1172 0.7170
H3 H 0.5406 0.1038 0.7207
C7 C 0.66246(11) 0.4653(3) 0.83731(9)
C8 C 0.35342(11) 0.3787(3) 0.57423(9)
H4 H 0.3605 0.2128 0.5689
C9 C 0.10404(11) 0.3805(3) 0.62286(10)
C10 C 0.46007(11) 0.4758(3) 0.62628(9)
H5 H 0.5105 0.4040 0.6088
H6 H 0.4604 0.6392 0.6157
C11 C 0.13613(12) 0.5066(3) 0.69202(10)
C12 C 0.30928(12) 0.4830(4) 0.48509(9)
H7 H 0.2412 0.4149 0.4561
C13 C 0.24561(12) 0.5807(3) 0.73982(9)
C14 C 0.64367(13) 0.2550(3) 0.88012(10)
H8 H 0.6924 0.1378 0.8780
C15 C 0.28234(14) 0.4714(4) 0.82726(9)
H9 H 0.2837 0.3074 0.8224
H10 H 0.2361 0.5130 0.8534
H11 H 0.3501 0.5259 0.8603
C16 C 0.53609(14) 0.1537(3) 0.83626(11)
H12 H 0.5379 -0.0086 0.8492
H13 H 0.4893 0.2277 0.8572
C17 C 0.25046(16) 0.8432(4) 0.74789(14)
H14 H 0.3195 0.8893 0.7812
H15 H 0.2052 0.8935 0.7739
H16 H 0.2297 0.9109 0.6936
C18 C 0.76825(13) 0.5719(4) 0.87698(11)
H17 H 0.7657 0.7222 0.8510
C19 C 0.29464(17) 0.7402(4) 0.48333(12)
H18 H 0.2555 0.7800 0.5158
H19 H 0.2586 0.7897 0.4270
H20 H 0.3605 0.8140 0.5061
C20 C 0.37513(18) 0.4140(5) 0.43682(12)
H21 H 0.4408 0.4886 0.4606
H22 H 0.3413 0.4594 0.3797
H23 H 0.3847 0.2506 0.4398
C21 C -0.00197(13) 0.2794(4) 0.58240(12)
H24 H -0.0439 0.3785 0.5384
H25 H -0.0321 0.2641 0.6230
H26 H 0.0025 0.1311 0.5600
C22 C 0.66935(15) 0.3051(4) 0.97322(10)
H27 H 0.6669 0.1590 1.0003
C23 C 0.59299(17) 0.4675(6) 0.98727(13)
H28 H 0.5818 0.5978 0.9511
H29 H 0.6200 0.5181 1.0441
H30 H 0.5291 0.3890 0.9754
C24 C -0.01189(19) 0.7151(6) 0.68459(16)
H31 H -0.0048 0.7633 0.6344
H32 H -0.0129 0.8474 0.7171
H33 H -0.0749 0.6313 0.6708
C25 C 0.79380(17) 0.6124(5) 0.97011(13)
H34 H 0.8645 0.6636 0.9966
H35 H 0.7499 0.7332 0.9762
C26 C 0.77937(17) 0.3983(6) 1.01365(12)
H36 H 0.7946 0.4333 1.0716
H37 H 0.8273 0.2814 1.0117
C27 C 0.85151(14) 0.4268(6) 0.86143(13)
H38 H 0.8620 0.2861 0.8945
C28 C 0.8182(2) 0.3577(8) 0.77085(17)
H39 H 0.7584 0.2619 0.7553
H40 H 0.8728 0.2747 0.7633
H41 H 0.8025 0.4927 0.7366
C29 C 0.95331(18) 0.5534(10) 0.88996(19)
H42 H 0.9432 0.7015 0.8638
H43 H 1.0013 0.4668 0.8748
H44 H 0.9798 0.5721 0.9493
loop_
_geom_bond_atom_site_label_1
_geom_bond_atom_site_label_2
_geom_bond_site_symmetry_1
_geom_bond_site_symmetry_2
O1 C2 1_555 1_555
O2 C11 1_555 1_555
O3 C3 1_555 1_555
C1 C2 1_555 1_555
C2 C13 1_555 1_555
C3 C1 1_555 1_555
C4 H1 1_555 1_555
C5 O1 1_555 1_555
C6 C5 1_555 1_555
H2 C6 1_555 1_555
H3 C6 1_555 1_555
C7 C4 1_555 1_555
C8 C1 1_555 1_555
H4 C8 1_555 1_555
C9 C3 1_555 1_555
C10 C5 1_555 1_555
H5 C10 1_555 1_555
H6 C10 1_555 1_555
C11 C9 1_555 1_555
C12 C8 1_555 1_555
H7 C12 1_555 1_555
C13 C11 1_555 1_555
C14 C7 1_555 1_555
H8 C14 1_555 1_555
C15 C13 1_555 1_555
H9 C15 1_555 1_555
H10 C15 1_555 1_555
H11 C15 1_555 1_555
C16 C6 1_555 1_555
H12 C16 1_555 1_555
H13 C16 1_555 1_555
C17 C13 1_555 1_555
H14 C17 1_555 1_555
H15 C17 1_555 1_555
H16 C17 1_555 1_555
C18 C7 1_555 1_555
H17 C18 1_555 1_555
C19 C12 1_555 1_555
H18 C19 1_555 1_555
H19 C19 1_555 1_555
H20 C19 1_555 1_555
C20 C12 1_555 1_555
H21 C20 1_555 1_555
H22 C20 1_555 1_555
H23 C20 1_555 1_555
C21 C9 1_555 1_555
H24 C21 1_555 1_555
H25 C21 1_555 1_555
H26 C21 1_555 1_555
C22 C14 1_555 1_555
H27 C22 1_555 1_555
C23 C22 1_555 1_555
H28 C23 1_555 1_555
H29 C23 1_555 1_555
H30 C23 1_555 1_555
C24 O2 1_555 1_555
H31 C24 1_555 1_555
H32 C24 1_555 1_555
H33 C24 1_555 1_555
C25 C18 1_555 1_555
H34 C25 1_555 1_555
H35 C25 1_555 1_555
C26 C22 1_555 1_555
H36 C26 1_555 1_555
H37 C26 1_555 1_555
C27 C18 1_555 1_555
H38 C27 1_555 1_555
C28 C27 1_555 1_555
H39 C28 1_555 1_555
H40 C28 1_555 1_555
H41 C28 1_555 1_555
C29 C27 1_555 1_555
H42 C29 1_555 1_555
H43 C29 1_555 1_555
H44 C29 1_555 1_555
C4 C5 1_555 1_555
C8 C10 1_555 1_555
C14 C16 1_555 1_555
C25 C26 1_555 1_555

#END
