
#######################################################################
#
#                 Cambridge Crystallographic Data Centre
#                                CCDC 
#
#######################################################################
#
# If this CIF has been generated from an entry in the Cambridge 
# Structural Database, then it will include bibliographic, chemical, 
# crystal, experimental, refinement or atomic coordinate data resulting 
# from the CCDC's data processing and validation procedures.
#
#######################################################################

data_MEBRAN
_chemical_formula_moiety         'C12 H8 N4 O1,C8 H12 O4'
_chemical_name_systematic        
'2,5-bis(4-Pyridyl)-1,3,4-oxadiazole cis-cyclohexane-1,4-dicarboxylic acid'
_symmetry_cell_setting           orthorhombic
_symmetry_space_group_name_H-M   'P c a 21'
_symmetry_Int_Tables_number      29
_space_group_name_Hall           'P 2c -2ac'
loop_
_symmetry_equiv_pos_site_id
_symmetry_equiv_pos_as_xyz
1 x,y,z
2 -x,-y,1/2+z
3 1/2+x,-y,z
4 1/2-x,y,1/2+z
_cell_length_a                   10.3372(12)
_cell_length_b                   6.4643(8)
_cell_length_c                   28.328(3)
_cell_angle_alpha                90
_cell_angle_beta                 90
_cell_angle_gamma                90
_cell_volume                     1892.96
_exptl_crystal_colour            colorless
_exptl_crystal_description       prism
_chemical_melting_point          '172.9-175.3 deg.C'
_cell_formula_units_Z            4
loop_
_atom_site_label
_atom_site_type_symbol
_atom_site_fract_x
_atom_site_fract_y
_atom_site_fract_z
O1 O 0.94955(19) 0.4362(2) 0.09185(6)
N1 N 1.3331(2) 0.5135(4) -0.01831(8)
N2 N 0.9998(2) 0.1119(4) 0.07707(9)
N3 N 0.8918(2) 0.1149(4) 0.10664(9)
N4 N 0.5690(2) 0.5338(4) 0.20275(8)
C1 C 1.2246(3) 0.2435(4) 0.02222(11)
H3 H 1.2200 0.1036 0.0297
C2 C 1.3209(3) 0.3158(5) -0.00648(11)
H4 H 1.3808 0.2218 -0.0183
C3 C 1.2469(3) 0.6456(5) -0.00095(10)
H5 H 1.2548 0.7845 -0.0090
C4 C 1.1461(3) 0.5886(4) 0.02837(9)
H6 H 1.0883 0.6864 0.0399
C5 C 1.1339(2) 0.3810(4) 0.04006(9)
C6 C 1.0294(2) 0.3022(4) 0.06914(9)
C7 C 0.8664(2) 0.3067(4) 0.11439(9)
C8 C 0.7637(2) 0.3914(4) 0.14383(8)
C9 C 0.7547(3) 0.5990(4) 0.15497(9)
H7 H 0.8133 0.6941 0.1428
C10 C 0.6562(3) 0.6613(4) 0.18473(10)
H8 H 0.6509 0.8008 0.1926
C11 C 0.5780(3) 0.3355(5) 0.19144(11)
H9 H 0.5176 0.2441 0.2040
C12 C 0.6722(3) 0.2584(4) 0.16214(12)
H10 H 0.6742 0.1183 0.1547
O2 O 0.5742(3) 1.0319(4) 0.73773(10)
O3 O 0.6180(2) 1.3402(4) 0.76398(8)
H1 H 0.5611 1.3713 0.7451
O4 O 0.5252(2) 0.6311(4) 0.92209(8)
H2 H 0.4658 0.6039 0.9403
O5 O 0.4748(3) 0.9480(4) 0.94175(9)
C13 C 0.6364(3) 1.1403(5) 0.76301(10)
C14 C 0.7443(3) 1.0665(5) 0.79456(10)
H11 H 0.8256 1.0925 0.7778
C15 C 0.7512(3) 1.1835(5) 0.84114(12)
H12 H 0.8332 1.1538 0.8563
H13 H 0.7479 1.3309 0.8349
C16 C 0.6416(3) 1.1263(5) 0.87449(10)
H14 H 0.6524 1.1994 0.9041
H15 H 0.5597 1.1684 0.8608
C17 C 0.6396(3) 0.8953(4) 0.88367(10)
H16 H 0.7236 0.8590 0.8974
C18 C 0.5378(3) 0.8318(5) 0.91873(10)
C19 C 0.6281(3) 0.7778(4) 0.83718(11)
H17 H 0.6306 0.6304 0.8435
H18 H 0.5453 0.8093 0.8227
C20 C 0.7359(3) 0.8331(5) 0.80298(12)
H19 H 0.7208 0.7637 0.7731
H20 H 0.8177 0.7841 0.8155
loop_
_geom_bond_atom_site_label_1
_geom_bond_atom_site_label_2
_geom_bond_site_symmetry_1
_geom_bond_site_symmetry_2
O1 C6 1_555 1_555
O2 C13 1_555 1_555
O3 H1 1_555 1_555
O4 H2 1_555 1_555
O5 C18 1_555 1_555
N1 C2 1_555 1_555
N2 N3 1_555 1_555
N3 C7 1_555 1_555
N4 C10 1_555 1_555
C1 H3 1_555 1_555
C2 C1 1_555 1_555
H4 C2 1_555 1_555
C3 N1 1_555 1_555
H5 C3 1_555 1_555
C4 C3 1_555 1_555
H6 C4 1_555 1_555
C5 C1 1_555 1_555
C6 N2 1_555 1_555
C7 O1 1_555 1_555
C8 C7 1_555 1_555
C9 C8 1_555 1_555
H7 C9 1_555 1_555
C10 C9 1_555 1_555
H8 C10 1_555 1_555
C11 N4 1_555 1_555
H9 C11 1_555 1_555
C12 C8 1_555 1_555
H10 C12 1_555 1_555
C13 O3 1_555 1_555
C14 C13 1_555 1_555
H11 C14 1_555 1_555
C15 C14 1_555 1_555
H12 C15 1_555 1_555
H13 C15 1_555 1_555
C16 C15 1_555 1_555
H14 C16 1_555 1_555
H15 C16 1_555 1_555
C17 C16 1_555 1_555
H16 C17 1_555 1_555
C18 O4 1_555 1_555
C19 C17 1_555 1_555
H17 C19 1_555 1_555
H18 C19 1_555 1_555
C20 C14 1_555 1_555
H19 C20 1_555 1_555
H20 C20 1_555 1_555
C4 C5 1_555 1_555
C5 C6 1_555 1_555
C11 C12 1_555 1_555
C17 C18 1_555 1_555
C19 C20 1_555 1_555

#END
