
#######################################################################
#
#                 Cambridge Crystallographic Data Centre
#                                CCDC 
#
#######################################################################
#
# If this CIF has been generated from an entry in the Cambridge 
# Structural Database, then it will include bibliographic, chemical, 
# crystal, experimental, refinement or atomic coordinate data resulting 
# from the CCDC's data processing and validation procedures.
#
#######################################################################

data_MEBRIV
_chemical_formula_moiety         'C12 H8 N4 O1,C4 H4 N2 O3'
_chemical_name_systematic        
'2,5-bis(4-Pyridyl)-1,3,4-oxadiazole barbituric acid'
_symmetry_cell_setting           orthorhombic
_symmetry_space_group_name_H-M   'P n m a'
_symmetry_Int_Tables_number      62
_space_group_name_Hall           '-P 2ac 2n'
loop_
_symmetry_equiv_pos_site_id
_symmetry_equiv_pos_as_xyz
1 x,y,z
2 1/2-x,-y,1/2+z
3 -x,1/2+y,-z
4 1/2+x,1/2-y,1/2-z
5 -x,-y,-z
6 1/2+x,y,1/2-z
7 x,1/2-y,z
8 1/2-x,1/2+y,1/2+z
_cell_length_a                   6.7809(9)
_cell_length_b                   17.439(2)
_cell_length_c                   13.1867(17)
_cell_angle_alpha                90
_cell_angle_beta                 90
_cell_angle_gamma                90
_cell_volume                     1559.36
_exptl_crystal_colour            brown
_exptl_crystal_description       block
_chemical_melting_point          'above 300 deg.C'
_cell_formula_units_Z            4
loop_
_atom_site_label
_atom_site_type_symbol
_atom_site_fract_x
_atom_site_fract_y
_atom_site_fract_z
O1 O 1.0397(2) 0.7500 0.62103(10)
N1 N 1.3344(2) 0.70980(7) 0.66647(10)
N2 N 0.9293(2) 0.46398(7) 0.62732(9)
C1 C 1.1591(2) 0.68928(8) 0.64033(11)
C2 C 1.0804(2) 0.61182(8) 0.63206(10)
C3 C 1.1968(2) 0.54966(9) 0.65689(11)
H2 H 1.3282 0.5564 0.6751
C4 C 1.1152(3) 0.47780(8) 0.65428(12)
H3 H 1.1941 0.4364 0.6723
C5 C 0.8201(3) 0.52398(8) 0.60079(11)
H4 H 0.6912 0.5152 0.5797
C6 C 0.8875(2) 0.59829(8) 0.60286(11)
H5 H 0.8051 0.6387 0.5850
N1F N 1.3344(2) 0.79020(7) 0.66647(10)
N2F N 0.9293(2) 1.03602(7) 0.62732(9)
C1F C 1.1591(2) 0.81072(8) 0.64033(11)
C2F C 1.0804(2) 0.88818(8) 0.63206(10)
C3F C 1.1968(2) 0.95034(9) 0.65689(11)
H2F H 1.3282 0.9436 0.6751
C4F C 1.1152(3) 1.02220(8) 0.65428(12)
H3F H 1.1941 1.0636 0.6723
C5F C 0.8201(3) 0.97602(8) 0.60079(11)
H4F H 0.6912 0.9848 0.5797
C6F C 0.8875(2) 0.90171(8) 0.60286(11)
H5F H 0.8051 0.8613 0.5850
O2 O 1.0079(2) 0.2500 0.67474(13)
O3 O 0.48558(17) 0.38495(7) 0.56400(12)
N3 N 0.74680(19) 0.31695(7) 0.61665(10)
H1 H 0.817(2) 0.3637(11) 0.6266(14)
C7 C 0.8432(3) 0.2500 0.63897(16)
C8 C 0.5571(2) 0.32272(9) 0.58229(13)
C9 C 0.4470(3) 0.2500 0.56756(19)
H6 H 0.3939 0.2500 0.4993
H7 H 0.3359 0.2500 0.6139
O3F O 0.48558(17) 0.11505(7) 0.56400(12)
N3F N 0.74680(19) 0.18305(7) 0.61665(10)
H1F H 0.817(2) 0.1363(11) 0.6266(14)
C8F C 0.5571(2) 0.17728(9) 0.58229(13)
loop_
_geom_bond_atom_site_label_1
_geom_bond_atom_site_label_2
_geom_bond_site_symmetry_1
_geom_bond_site_symmetry_2
O1 C1 1_555 1_555
O2 C7 1_555 1_555
O3 C8 1_555 1_555
N1 C1 1_555 1_555
N2 C4 1_555 1_555
N3 H1 1_555 1_555
C1 C2 1_555 1_555
C2 C3 1_555 1_555
C3 H2 1_555 1_555
C4 C3 1_555 1_555
H3 C4 1_555 1_555
C5 N2 1_555 1_555
H4 C5 1_555 1_555
C6 C2 1_555 1_555
H5 C6 1_555 1_555
C7 N3 1_555 1_555
C8 N3 1_555 1_555
C9 C8 1_555 1_555
H6 C9 1_555 1_555
H7 C9 1_555 1_555
O3F C8F 1_555 1_555
N1F N1 1_555 1_555
N2F C4F 1_555 1_555
N3F C7 1_555 1_555
H1F N3F 1_555 1_555
C1F O1 1_555 1_555
C2F C1F 1_555 1_555
C3F C2F 1_555 1_555
H2F C3F 1_555 1_555
C4F C3F 1_555 1_555
H3F C4F 1_555 1_555
C5F N2F 1_555 1_555
H4F C5F 1_555 1_555
C6F C2F 1_555 1_555
H5F C6F 1_555 1_555
C8F C9 1_555 1_555
C5 C6 1_555 1_555
N1F C1F 1_555 1_555
N3F C8F 1_555 1_555
C5F C6F 1_555 1_555

#END
