
#######################################################################
#
#                 Cambridge Crystallographic Data Centre
#                                CCDC 
#
#######################################################################
#
# If this CIF has been generated from an entry in the Cambridge 
# Structural Database, then it will include bibliographic, chemical, 
# crystal, experimental, refinement or atomic coordinate data resulting 
# from the CCDC's data processing and validation procedures.
#
#######################################################################

data_MEBYIC
_chemical_formula_moiety         'C18 H16 O2'
_chemical_name_systematic        2-(Benzyloxy)-3-methoxynaphthalene
_symmetry_cell_setting           monoclinic
_symmetry_space_group_name_H-M   'P 21/c'
_symmetry_Int_Tables_number      14
_space_group_name_Hall           '-P 2ybc'
loop_
_symmetry_equiv_pos_site_id
_symmetry_equiv_pos_as_xyz
1 x,y,z
2 -x,1/2+y,1/2-z
3 -x,-y,-z
4 x,1/2-y,1/2+z
_cell_length_a                   12.896(2)
_cell_length_b                   5.648(4)
_cell_length_c                   20.275(2)
_cell_angle_alpha                90
_cell_angle_beta                 108.53(1)
_cell_angle_gamma                90
_cell_volume                     1400.2
_exptl_crystal_colour            colorless
_exptl_crystal_description       prism
_chemical_melting_point          '137-138 deg.C'
_cell_formula_units_Z            4
_exptl_crystal_recrystallization_method 'ethyl acetate'
loop_
_atom_site_label
_atom_site_type_symbol
_atom_site_fract_x
_atom_site_fract_y
_atom_site_fract_z
O1 O 0.0682(1) 0.8041(3) 0.13703(8)
O2 O 0.1080(1) 1.1520(3) 0.22136(8)
C1 C 0.2472(2) 0.8270(4) 0.1216(1)
C2 C 0.1694(2) 0.9024(4) 0.1489(1)
C3 C 0.1899(2) 1.1026(4) 0.1943(1)
C4 C 0.2846(2) 1.2262(4) 0.2063(1)
C5 C 0.4631(2) 1.2838(4) 0.1878(1)
C6 C 0.5410(2) 1.2072(5) 0.1605(1)
C7 C 0.5259(2) 1.0003(5) 0.1215(1)
C8 C 0.4314(2) 0.8739(4) 0.1090(1)
C9 C 0.3475(2) 0.9494(4) 0.1353(1)
C10 C 0.3650(2) 1.1554(4) 0.1764(1)
C11 C 0.0341(2) 0.6320(4) 0.0825(1)
C12 C -0.0845(2) 0.5793(4) 0.0707(1)
C13 C -0.1151(2) 0.3822(4) 0.0995(1)
C14 C -0.2242(2) 0.3373(5) 0.0902(1)
C15 C -0.3030(2) 0.4886(5) 0.0519(1)
C16 C -0.2741(2) 0.6833(5) 0.0222(1)
C17 C -0.1649(2) 0.7288(5) 0.0314(1)
C18 C 0.1260(2) 1.3435(5) 0.2696(1)
H1 H 0.2341 0.6900 0.0929
H2 H 0.2970 1.3626 0.2352
H3 H 0.4748 1.4249 0.2147
H4 H 0.6064 1.2960 0.1682
H5 H 0.5814 0.9469 0.1034
H6 H 0.4217 0.7328 0.0822
H7 H 0.0434 0.6933 0.0411
H8 H 0.0761 0.4916 0.0957
H9 H -0.0608 0.2754 0.1260
H10 H -0.2444 0.2008 0.1106
H11 H -0.3779 0.4579 0.0459
H12 H -0.3289 0.7880 -0.0049
H13 H -0.1452 0.8646 0.0104
H14 H 0.1890 1.3119 0.3083
H15 H 0.1367 1.4855 0.2475
H16 H 0.0642 1.3605 0.2851
loop_
_geom_bond_atom_site_label_1
_geom_bond_atom_site_label_2
_geom_bond_site_symmetry_1
_geom_bond_site_symmetry_2
O1 C2 1_555 1_555
O2 C3 1_555 1_555
C1 C2 1_555 1_555
C2 C3 1_555 1_555
C3 C4 1_555 1_555
C4 C10 1_555 1_555
C5 C6 1_555 1_555
C6 C7 1_555 1_555
C7 C8 1_555 1_555
C8 C9 1_555 1_555
C9 C1 1_555 1_555
C10 C5 1_555 1_555
C11 O1 1_555 1_555
C12 C11 1_555 1_555
C13 C12 1_555 1_555
C14 C13 1_555 1_555
C15 C14 1_555 1_555
C16 C15 1_555 1_555
C17 C12 1_555 1_555
C18 O2 1_555 1_555
H1 C1 1_555 1_555
H2 C4 1_555 1_555
H3 C5 1_555 1_555
H4 C6 1_555 1_555
H5 C7 1_555 1_555
H6 C8 1_555 1_555
H7 C11 1_555 1_555
H8 C11 1_555 1_555
H9 C13 1_555 1_555
H10 C14 1_555 1_555
H11 C15 1_555 1_555
H12 C16 1_555 1_555
H13 C17 1_555 1_555
H14 C18 1_555 1_555
H15 C18 1_555 1_555
H16 C18 1_555 1_555
C9 C10 1_555 1_555
C16 C17 1_555 1_555

#END
