
#######################################################################
#
#                 Cambridge Crystallographic Data Centre
#                                CCDC 
#
#######################################################################
#
# If this CIF has been generated from an entry in the Cambridge 
# Structural Database, then it will include bibliographic, chemical, 
# crystal, experimental, refinement or atomic coordinate data resulting 
# from the CCDC's data processing and validation procedures.
#
#######################################################################

data_MEBZIF
_chemical_formula_moiety         'C8 H10 N2 O2'
_chemical_name_systematic        'ethyl 2-(1H-imidazol-1-yl)prop-2-enoate'
_symmetry_cell_setting           monoclinic
_symmetry_space_group_name_H-M   'P 21/c'
_symmetry_Int_Tables_number      14
_space_group_name_Hall           '-P 2ybc'
loop_
_symmetry_equiv_pos_site_id
_symmetry_equiv_pos_as_xyz
1 x,y,z
2 -x,1/2+y,1/2-z
3 -x,-y,-z
4 x,1/2-y,1/2+z
_cell_length_a                   6.4082(7)
_cell_length_b                   20.135(3)
_cell_length_c                   6.8450(8)
_cell_angle_alpha                90
_cell_angle_beta                 110.585(7)
_cell_angle_gamma                90
_cell_volume                     826.813
_exptl_crystal_colour            colorless
_exptl_crystal_description       prism
_cell_formula_units_Z            4
loop_
_atom_site_label
_atom_site_type_symbol
_atom_site_fract_x
_atom_site_fract_y
_atom_site_fract_z
O1 O 0.9619(2) 0.48231(8) 0.7610(3)
O2 O 0.6555(2) 0.43145(7) 0.7759(2)
N1 N 0.9560(3) 0.67053(9) 0.5721(3)
N2 N 0.7476(3) 0.60490(8) 0.6912(3)
C1 C 0.8807(4) 0.61013(11) 0.5737(4)
H1 H 0.910(4) 0.5737(12) 0.500(4)
C2 C 0.8657(4) 0.70705(12) 0.6946(4)
H2 H 0.894(4) 0.7514(12) 0.723(4)
C3 C 0.7372(4) 0.66845(11) 0.7672(4)
H3 H 0.652(4) 0.6759(11) 0.851(3)
C4 C 0.6399(4) 0.54732(11) 0.7316(3)
C5 C 0.7731(4) 0.48428(11) 0.7580(3)
C6 C 0.7728(5) 0.36789(12) 0.7989(5)
H4 H 0.808(5) 0.3617(13) 0.680(5)
H5 H 0.913(5) 0.3727(14) 0.924(5)
C7 C 0.6269(5) 0.31461(12) 0.8304(5)
H6 H 0.700(4) 0.2696(14) 0.841(4)
H7 H 0.591(5) 0.3239(16) 0.949(6)
H8 H 0.488(6) 0.3135(16) 0.722(5)
C8 C 0.4437(4) 0.55030(13) 0.7543(4)
H9 H 0.366(4) 0.5905(13) 0.736(4)
H10 H 0.379(4) 0.5097(13) 0.794(4)
loop_
_geom_bond_atom_site_label_1
_geom_bond_atom_site_label_2
_geom_bond_site_symmetry_1
_geom_bond_site_symmetry_2
O1 C5 1_555 1_555
O2 C5 1_555 1_555
N1 C1 1_555 1_555
N2 C1 1_555 1_555
C1 H1 1_555 1_555
C2 N1 1_555 1_555
H2 C2 1_555 1_555
C3 N2 1_555 1_555
H3 C3 1_555 1_555
C4 N2 1_555 1_555
C5 C4 1_555 1_555
C6 O2 1_555 1_555
H4 C6 1_555 1_555
H5 C6 1_555 1_555
C7 C6 1_555 1_555
H6 C7 1_555 1_555
H7 C7 1_555 1_555
H8 C7 1_555 1_555
C8 C4 1_555 1_555
H9 C8 1_555 1_555
H10 C8 1_555 1_555
C2 C3 1_555 1_555

#END
