
#######################################################################
#
#                 Cambridge Crystallographic Data Centre
#                                CCDC 
#
#######################################################################
#
# If this CIF has been generated from an entry in the Cambridge 
# Structural Database, then it will include bibliographic, chemical, 
# crystal, experimental, refinement or atomic coordinate data resulting 
# from the CCDC's data processing and validation procedures.
#
#######################################################################

data_MECZID
_chemical_formula_moiety         'C22 H32 O2'
_chemical_name_systematic        
exo-trans-exo-(6R,15S)-6,15-Dimethoxyheptacyclo(11.5.1.1^4,10^.0^2,12^.0^3,11^.0^5,9^.0^14,18^)icosane
_symmetry_cell_setting           triclinic
_symmetry_space_group_name_H-M   'P -1'
_symmetry_Int_Tables_number      2
_space_group_name_Hall           '-P 1'
loop_
_symmetry_equiv_pos_site_id
_symmetry_equiv_pos_as_xyz
1 x,y,z
2 -x,-y,-z
_cell_length_a                   6.9036(3)
_cell_length_b                   7.6249(4)
_cell_length_c                   8.9770(7)
_cell_angle_alpha                87.060(7)
_cell_angle_beta                 70.192(5)
_cell_angle_gamma                78.226(5)
_cell_volume                     435.148
_exptl_crystal_colour            colorless
_exptl_crystal_description       brick
_chemical_melting_point          453-455K
_cell_formula_units_Z            1
loop_
_atom_site_label
_atom_site_type_symbol
_atom_site_fract_x
_atom_site_fract_y
_atom_site_fract_z
O1 O 0.17324(16) 1.02924(14) 0.65014(12)
C1 C 0.3861(2) 0.62812(19) 0.53414(16)
H1 H 0.4082 0.7464 0.4923
C2 C 0.1872(2) 0.6301(2) 0.67757(17)
H2 H 0.0571 0.6523 0.6522
C3 C 0.1822(2) 0.7517(2) 0.81249(17)
H3 H 0.0476 0.7599 0.8987
C4 C 0.2314(2) 0.94073(19) 0.77625(17)
H4 H 0.1572 1.0153 0.8722
C5 C 0.4651(2) 0.9206(2) 0.74382(19)
H5 H 0.4983 1.0318 0.7662
H6 H 0.5445 0.8847 0.6344
C6 C 0.5124(3) 0.7743(2) 0.85637(19)
H7 H 0.4881 0.8256 0.9593
H8 H 0.6574 0.7115 0.8145
C7 C 0.3622(2) 0.6456(2) 0.86973(17)
H9 H 0.3032 0.6128 0.9806
C8 C 0.4436(2) 0.4745(2) 0.76311(17)
H10 H 0.5183 0.3728 0.8064
C9 C 0.5641(2) 0.51965(19) 0.59332(17)
H11 H 0.6796 0.5811 0.5827
C10 C 0.2369(2) 0.4452(2) 0.74919(18)
H12 H 0.1331 0.4303 0.8510
H13 H 0.2570 0.3466 0.6778
C11 C -0.0452(3) 1.0959(3) 0.6925(3)
H14 H -0.0760 1.1537 0.6033
H15 H -0.0897 1.1807 0.7788
H16 H -0.1185 0.9985 0.7241
C1A C 0.6139(2) 0.37188(19) 0.46586(16)
H1A H 0.5918 0.2536 0.5077
C2A C 0.8128(2) 0.3699(2) 0.32243(17)
H2A H 0.9429 0.3477 0.3478
C3A C 0.8178(2) 0.2483(2) 0.18751(17)
H3A H 0.9524 0.2401 0.1013
C4A C 0.7686(2) 0.05927(19) 0.22375(17)
O1A O 0.82676(16) -0.02924(14) 0.34986(12)
C11A C 1.0452(3) -0.0959(3) 0.3075(3)
H14A H 1.0760 -0.1537 0.3967
H15A H 1.0897 -0.1807 0.2212
H16A H 1.1185 0.0015 0.2759
H4A H 0.8428 -0.0153 0.1278
C5A C 0.5349(2) 0.0794(2) 0.25618(19)
H5A H 0.5017 -0.0318 0.2338
H6A H 0.4555 0.1153 0.3656
C6A C 0.4876(3) 0.2257(2) 0.14363(19)
H7A H 0.5119 0.1744 0.0407
H8A H 0.3426 0.2885 0.1855
C7A C 0.6378(2) 0.3544(2) 0.13027(17)
H9A H 0.6968 0.3872 0.0194
C8A C 0.5564(2) 0.5255(2) 0.23689(17)
H10A H 0.4817 0.6272 0.1936
C9A C 0.4359(2) 0.48035(19) 0.40668(17)
H11A H 0.3204 0.4189 0.4173
C10A C 0.7631(2) 0.5548(2) 0.25081(18)
H12A H 0.8669 0.5697 0.1490
H13A H 0.7430 0.6534 0.3222
loop_
_geom_bond_atom_site_label_1
_geom_bond_atom_site_label_2
_geom_bond_site_symmetry_1
_geom_bond_site_symmetry_2
O1 C4 1_555 1_555
C1 H1 1_555 1_555
C2 C1 1_555 1_555
H2 C2 1_555 1_555
C3 C2 1_555 1_555
H3 C3 1_555 1_555
C4 C3 1_555 1_555
H4 C4 1_555 1_555
C5 C4 1_555 1_555
H5 C5 1_555 1_555
H6 C5 1_555 1_555
C6 C5 1_555 1_555
H7 C6 1_555 1_555
H8 C6 1_555 1_555
C7 C3 1_555 1_555
H9 C7 1_555 1_555
C8 C7 1_555 1_555
H10 C8 1_555 1_555
C9 C1 1_555 1_555
H11 C9 1_555 1_555
C10 C2 1_555 1_555
H12 C10 1_555 1_555
H13 C10 1_555 1_555
C11 O1 1_555 1_555
H14 C11 1_555 1_555
H15 C11 1_555 1_555
H16 C11 1_555 1_555
C1A C9 1_555 1_555
H1A C1A 1_555 1_555
C2A C1A 1_555 1_555
H2A C2A 1_555 1_555
C3A C2A 1_555 1_555
H3A C3A 1_555 1_555
C4A C3A 1_555 1_555
O1A C4A 1_555 1_555
C11A O1A 1_555 1_555
H14A C11A 1_555 1_555
H15A C11A 1_555 1_555
H16A C11A 1_555 1_555
H4A C4A 1_555 1_555
C5A C4A 1_555 1_555
H5A C5A 1_555 1_555
H6A C5A 1_555 1_555
C6A C5A 1_555 1_555
H7A C6A 1_555 1_555
H8A C6A 1_555 1_555
C7A C3A 1_555 1_555
H9A C7A 1_555 1_555
C8A C7A 1_555 1_555
H10A C8A 1_555 1_555
C9A C1 1_555 1_555
H11A C9A 1_555 1_555
C10A C2A 1_555 1_555
H12A C10A 1_555 1_555
H13A C10A 1_555 1_555
C6 C7 1_555 1_555
C8 C9 1_555 1_555
C8 C10 1_555 1_555
C1A C9A 1_555 1_555
C6A C7A 1_555 1_555
C8A C9A 1_555 1_555
C8A C10A 1_555 1_555

#END
