
#######################################################################
#
#                 Cambridge Crystallographic Data Centre
#                                CCDC 
#
#######################################################################
#
# If this CIF has been generated from an entry in the Cambridge 
# Structural Database, then it will include bibliographic, chemical, 
# crystal, experimental, refinement or atomic coordinate data resulting 
# from the CCDC's data processing and validation procedures.
#
#######################################################################

data_MECZEZ
_chemical_formula_moiety         'C26 H44 B10 O6,H2 O1'
_chemical_name_systematic        
'21-O-(3-(1,2-Dicarbadodecaboran-1-yl)propionyl)-1,2-dihydro-prednisolone monohydrate'
_chemical_properties_biological  
'potential activity in rheumatoid arthritis therapy'
_symmetry_cell_setting           orthorhombic
_symmetry_space_group_name_H-M   'P 21 21 21'
_symmetry_Int_Tables_number      19
_space_group_name_Hall           'P 2ac 2ab'
loop_
_symmetry_equiv_pos_site_id
_symmetry_equiv_pos_as_xyz
1 x,y,z
2 1/2-x,-y,1/2+z
3 -x,1/2+y,1/2-z
4 1/2+x,1/2-y,-z
_cell_length_a                   7.213(5)
_cell_length_b                   13.439(12)
_cell_length_c                   32.23(3)
_cell_angle_alpha                90
_cell_angle_beta                 90
_cell_angle_gamma                90
_cell_volume                     3124.23
_exptl_crystal_colour            colorless
_exptl_crystal_description       needle
_cell_formula_units_Z            4
loop_
_atom_site_label
_atom_site_type_symbol
_atom_site_fract_x
_atom_site_fract_y
_atom_site_fract_z
C1 C 0.1209(6) 1.2779(4) 0.76017(17)
C2 C 0.1050(7) 1.3414(4) 0.72115(18)
C3 C 0.2243(6) 1.4315(4) 0.72384(16)
O1 O 0.1763(4) 1.5124(3) 0.70992(13)
C4 C 0.4046(6) 1.4167(4) 0.74318(16)
C5 C 0.4509(6) 1.3335(4) 0.76297(15)
C6 C 0.6482(6) 1.3215(4) 0.77920(18)
C7 C 0.6537(6) 1.2846(4) 0.82379(18)
C8 C 0.5309(6) 1.1941(4) 0.83178(15)
C9 C 0.3316(6) 1.2180(4) 0.81706(15)
C10 C 0.3221(6) 1.2470(3) 0.77029(14)
C11 C 0.1860(6) 1.1422(4) 0.83113(16)
O2 O 0.1929(5) 1.0541(3) 0.80610(11)
C12 C 0.1988(6) 1.1174(4) 0.87764(16)
C13 C 0.3946(6) 1.0869(4) 0.89059(14)
C14 C 0.5278(6) 1.1712(4) 0.87844(15)
C15 C 0.7082(7) 1.1435(5) 0.90007(18)
C16 C 0.6468(7) 1.0895(5) 0.9398(2)
C17 C 0.4334(6) 1.0834(4) 0.93835(15)
O3 O 0.3498(5) 1.1701(3) 0.95754(12)
C18 C 0.3842(8) 1.1642(5) 0.74046(19)
C19 C 0.4492(8) 0.9864(4) 0.8715(2)
C20 C 0.3498(6) 0.9940(4) 0.95913(15)
O4 O 0.4262(4) 0.9133(3) 0.96104(11)
C21 C 0.1568(7) 1.0083(4) 0.9771(2)
O5 O 0.0726(5) 0.9138(3) 0.98727(11)
C22 C -0.0009(7) 0.8642(4) 0.9546(2)
O6 O 0.0021(5) 0.8970(2) 0.91960(12)
C23 C -0.0894(8) 0.7698(4) 0.96864(19)
C24 C -0.1493(7) 0.7020(4) 0.9334(2)
C25 C 0.0019(6) 0.6446(4) 0.91022(15)
C26 C 0.1142(7) 0.7025(4) 0.87334(16)
B1 B -0.0494(10) 0.6163(6) 0.8599(2)
B2 B -0.0272(10) 0.5238(5) 0.8976(2)
B3 B 0.1447(9) 0.5614(5) 0.9337(2)
B4 B 0.2335(7) 0.6762(5) 0.9179(2)
B5 B 0.1627(9) 0.6247(5) 0.8329(2)
B6 B 0.0745(10) 0.5098(6) 0.8481(2)
B7 B 0.1973(10) 0.4731(6) 0.8932(2)
B8 B 0.3589(9) 0.5675(5) 0.90624(19)
B9 B 0.3363(9) 0.6614(6) 0.8688(2)
B10 B 0.3146(10) 0.5368(6) 0.8536(2)
H1 H 0.068(6) 1.327(4) 0.7807(15)
H2 H 0.035(5) 1.212(3) 0.7566(12)
H3 H 0.161(6) 1.307(3) 0.6952(14)
H4 H -0.030(6) 1.359(3) 0.7148(14)
H5 H 0.489(5) 1.472(3) 0.7403(11)
H6 H 0.702(6) 1.265(3) 0.7629(14)
H7 H 0.719(5) 1.393(3) 0.7764(12)
H8 H 0.603(5) 1.338(3) 0.8415(11)
H9 H 0.780(6) 1.271(3) 0.8320(12)
H10 H 0.594(6) 1.133(3) 0.8150(14)
H11 H 0.297(4) 1.274(3) 0.8324(11)
H12 H 0.077(5) 1.169(3) 0.8265(11)
H13 H 0.091(8) 1.027(5) 0.805(2)
H14 H 0.123(5) 1.065(3) 0.8839(12)
H15 H 0.156(6) 1.184(3) 0.8961(14)
H16 H 0.479(5) 1.237(3) 0.8911(12)
H17 H 0.787(6) 1.200(3) 0.9082(13)
H18 H 0.776(6) 1.102(3) 0.8834(14)
H19 H 0.688(6) 1.018(3) 0.9406(13)
H20 H 0.682(6) 1.125(3) 0.9643(15)
H21 H 0.412(5) 1.188(3) 0.9754(12)
H22 H 0.504(8) 1.134(4) 0.7445(16)
H23 H 0.302(7) 1.100(4) 0.7378(18)
H24 H 0.388(5) 1.198(3) 0.7141(14)
H25 H 0.356(6) 0.933(3) 0.8806(13)
H26 H 0.442(5) 0.995(3) 0.8429(13)
H27 H 0.580(6) 0.969(3) 0.8836(13)
H28 H 0.153(6) 1.046(3) 1.0012(14)
H29 H 0.063(9) 1.054(5) 0.9518(19)
H30 H 0.003(8) 0.732(4) 0.9886(17)
H31 H -0.186(6) 0.788(3) 0.9824(15)
H32 H -0.244(5) 0.653(3) 0.9417(13)
H33 H -0.213(6) 0.741(3) 0.9147(15)
H34 H 0.083(6) 0.769(3) 0.8719(13)
H35 H -0.161(6) 0.644(3) 0.8500(13)
H36 H -0.136(6) 0.491(3) 0.9107(14)
H37 H 0.123(7) 0.550(3) 0.9691(16)
H38 H 0.262(5) 0.750(3) 0.9370(13)
H39 H 0.165(6) 0.658(3) 0.8043(15)
H40 H 0.030(6) 0.451(4) 0.8267(14)
H41 H 0.225(5) 0.394(3) 0.9043(13)
H42 H 0.490(6) 0.543(3) 0.9235(13)
H43 H 0.431(7) 0.711(3) 0.8573(14)
H44 H 0.409(6) 0.505(3) 0.8358(14)
O7 O 0.0255(6) 0.2828(4) 0.96795(14)
H45 H 0.010(15) 0.344(8) 0.957(3)
H46 H 0.106(9) 0.244(5) 0.967(2)
loop_
_geom_bond_atom_site_label_1
_geom_bond_atom_site_label_2
_geom_bond_site_symmetry_1
_geom_bond_site_symmetry_2
C1 C2 1_555 1_555
C2 C3 1_555 1_555
C3 O1 1_555 1_555
C4 C3 1_555 1_555
C5 C4 1_555 1_555
C6 C5 1_555 1_555
C7 C6 1_555 1_555
C8 C7 1_555 1_555
C9 C8 1_555 1_555
C10 C1 1_555 1_555
C11 C9 1_555 1_555
O2 C11 1_555 1_555
C12 C11 1_555 1_555
C13 C12 1_555 1_555
C14 C8 1_555 1_555
C15 C14 1_555 1_555
C16 C15 1_555 1_555
C17 C13 1_555 1_555
O3 C17 1_555 1_555
C18 C10 1_555 1_555
C19 C13 1_555 1_555
C20 C17 1_555 1_555
O4 C20 1_555 1_555
C21 C20 1_555 1_555
O5 C21 1_555 1_555
C22 O5 1_555 1_555
O6 C22 1_555 1_555
C23 C22 1_555 1_555
C24 C23 1_555 1_555
C25 C24 1_555 1_555
C26 C25 1_555 1_555
B1 C25 1_555 1_555
B2 C25 1_555 1_555
B3 C25 1_555 1_555
B4 C25 1_555 1_555
B5 C26 1_555 1_555
B6 B1 1_555 1_555
B7 B2 1_555 1_555
B8 B3 1_555 1_555
B9 C26 1_555 1_555
B10 B5 1_555 1_555
O7 H45 1_555 1_555
H1 C1 1_555 1_555
H2 C1 1_555 1_555
H3 C2 1_555 1_555
H4 C2 1_555 1_555
H5 C4 1_555 1_555
H6 C6 1_555 1_555
H7 C6 1_555 1_555
H8 C7 1_555 1_555
H9 C7 1_555 1_555
H10 C8 1_555 1_555
H11 C9 1_555 1_555
H12 C11 1_555 1_555
H13 O2 1_555 1_555
H14 C12 1_555 1_555
H15 C12 1_555 1_555
H16 C14 1_555 1_555
H17 C15 1_555 1_555
H18 C15 1_555 1_555
H19 C16 1_555 1_555
H20 C16 1_555 1_555
H21 O3 1_555 1_555
H22 C18 1_555 1_555
H23 C18 1_555 1_555
H24 C18 1_555 1_555
H25 C19 1_555 1_555
H26 C19 1_555 1_555
H27 C19 1_555 1_555
H28 C21 1_555 1_555
H29 C21 1_555 1_555
H30 C23 1_555 1_555
H31 C23 1_555 1_555
H32 C24 1_555 1_555
H33 C24 1_555 1_555
H34 C26 1_555 1_555
H35 B1 1_555 1_555
H36 B2 1_555 1_555
H37 B3 1_555 1_555
H38 B4 1_555 1_555
H39 B5 1_555 1_555
H40 B6 1_555 1_555
H41 B7 1_555 1_555
H42 B8 1_555 1_555
H43 B9 1_555 1_555
H44 B10 1_555 1_555
H46 O7 1_555 1_555
C5 C10 1_555 1_555
C9 C10 1_555 1_555
C13 C14 1_555 1_555
C16 C17 1_555 1_555
C26 B1 1_555 1_555
C26 B4 1_555 1_555
B1 B5 1_555 1_555
B1 B2 1_555 1_555
B2 B6 1_555 1_555
B2 B3 1_555 1_555
B3 B7 1_555 1_555
B3 B4 1_555 1_555
B4 B9 1_555 1_555
B4 B8 1_555 1_555
B5 B9 1_555 1_555
B5 B6 1_555 1_555
B6 B10 1_555 1_555
B6 B7 1_555 1_555
B7 B8 1_555 1_555
B7 B10 1_555 1_555
B8 B9 1_555 1_555
B8 B10 1_555 1_555
B9 B10 1_555 1_555

#END
