
#######################################################################
#
#                 Cambridge Crystallographic Data Centre
#                                CCDC 
#
#######################################################################
#
# If this CIF has been generated from an entry in the Cambridge 
# Structural Database, then it will include bibliographic, chemical, 
# crystal, experimental, refinement or atomic coordinate data resulting 
# from the CCDC's data processing and validation procedures.
#
#######################################################################

data_MEDBUS
_chemical_formula_moiety         'C20 H20 S8'
_chemical_name_systematic        
4,6,10,12-Tetraethyl-bis(trithiolo)(b,i)thianthrene
_symmetry_cell_setting           tetragonal
_symmetry_space_group_name_H-M   'P -4'
_symmetry_Int_Tables_number      81
_space_group_name_Hall           'P -4'
loop_
_symmetry_equiv_pos_site_id
_symmetry_equiv_pos_as_xyz
1 x,y,z
2 -x,-y,z
3 y,-x,-z
4 -y,x,-z
_cell_length_a                   23.545(1)
_cell_length_b                   23.545(1)
_cell_length_c                   4.824(2)
_cell_angle_alpha                90
_cell_angle_beta                 90
_cell_angle_gamma                90
_cell_volume                     2674.27
_exptl_crystal_colour            yellow
_exptl_crystal_description       needle
_chemical_melting_point          '510-511 K'
_cell_formula_units_Z            4
loop_
_atom_site_label
_atom_site_type_symbol
_atom_site_fract_x
_atom_site_fract_y
_atom_site_fract_z
S1 S 0.0430(2) 0.1525(2) 0.119(1)
S2 S 0.0499(2) 0.0680(2) 0.230(1)
S3 S 0.1149(2) 0.0818(2) 0.509(1)
S4 S 0.3073(2) 0.1926(2) 0.1639(8)
S5 S 0.4183(2) 0.3854(2) 0.508(1)
S6 S 0.4318(2) 0.4503(2) 0.231(1)
S7 S 0.3476(2) 0.4573(2) 0.119(1)
S8 S 0.2328(2) 0.2675(1) -0.2393(9)
C1 C 0.2074(6) 0.1424(6) 0.332(3)
C2 C 0.3566(6) 0.2918(6) 0.330(3)
C3 C 0.2913(5) 0.3598(6) -0.046(3)
C4 C 0.1412(6) 0.2089(6) -0.040(4)
C5 C 0.1173(6) 0.1646(6) 0.117(4)
C6 C 0.1502(7) 0.1342(6) 0.300(4)
C7 C 0.1994(6) 0.2175(5) -0.018(3)
C8 C 0.2330(6) 0.1845(6) 0.163(3)
C9 C 0.2832(6) 0.3012(6) -0.020(3)
C10 C 0.3146(5) 0.2675(6) 0.160(3)
C11 C 0.3339(6) 0.3831(6) 0.114(3)
C12 C 0.3666(6) 0.3501(6) 0.301(3)
C13 C 0.1043(6) 0.2448(6) -0.221(4)
C14 C 0.0801(8) 0.2943(8) -0.068(6)
C15 C 0.2449(7) 0.1074(7) 0.532(4)
C16 C 0.2697(8) 0.0558(7) 0.391(5)
C17 C 0.3923(6) 0.2566(6) 0.532(4)
C18 C 0.4449(8) 0.2319(9) 0.389(5)
C19 C 0.2576(7) 0.3948(7) -0.231(4)
C20 C 0.2070(9) 0.4185(9) -0.071(7)
H1 H 0.1271 0.2594 -0.3739
H2 H 0.0745 0.2229 -0.2972
H3 H 0.2748 0.1305 0.5989
H4 H 0.2219 0.0952 0.6841
H5 H 0.4043 0.2810 0.6792
H6 H 0.3697 0.2271 0.6035
H7 H 0.2790 0.4255 -0.3024
H8 H 0.2434 0.3724 -0.3817
H9 H 0.1101 0.3171 0.0053
H10 H 0.0573 0.3169 -0.1871
H11 H 0.0575 0.2807 0.0816
H12 H 0.2930 0.0668 0.2393
H13 H 0.2401 0.0316 0.3233
H14 H 0.2922 0.0344 0.5193
H15 H 0.4684 0.2612 0.3160
H16 H 0.4339 0.2072 0.2414
H17 H 0.4668 0.2103 0.5196
H18 H 0.2203 0.4404 0.0846
H19 H 0.1836 0.4411 -0.1822
H20 H 0.1847 0.3875 0.0045
loop_
_geom_bond_atom_site_label_1
_geom_bond_atom_site_label_2
_geom_bond_site_symmetry_1
_geom_bond_site_symmetry_2
S1 S2 1_555 1_555
S2 S3 1_555 1_555
S3 C6 1_555 1_555
S4 C8 1_555 1_555
S5 S6 1_555 1_555
S6 S7 1_555 1_555
S7 C11 1_555 1_555
S8 C7 1_555 1_555
C1 C6 1_555 1_555
C2 C10 1_555 1_555
C3 C9 1_555 1_555
C4 C5 1_555 1_555
C5 S1 1_555 1_555
C6 C5 1_555 1_555
C7 C4 1_555 1_555
C8 C1 1_555 1_555
C9 S8 1_555 1_555
C10 S4 1_555 1_555
C11 C3 1_555 1_555
C12 S5 1_555 1_555
C13 C4 1_555 1_555
C14 C13 1_555 1_555
C15 C1 1_555 1_555
C16 C15 1_555 1_555
C17 C2 1_555 1_555
C18 C17 1_555 1_555
C19 C3 1_555 1_555
C20 C19 1_555 1_555
H1 C13 1_555 1_555
H2 C13 1_555 1_555
H3 C15 1_555 1_555
H4 C15 1_555 1_555
H5 C17 1_555 1_555
H6 C17 1_555 1_555
H7 C19 1_555 1_555
H8 C19 1_555 1_555
H9 C14 1_555 1_555
H10 C14 1_555 1_555
H11 C14 1_555 1_555
H12 C16 1_555 1_555
H13 C16 1_555 1_555
H14 C16 1_555 1_555
H15 C18 1_555 1_555
H16 C18 1_555 1_555
H17 C18 1_555 1_555
H18 C20 1_555 1_555
H19 C20 1_555 1_555
H20 C20 1_555 1_555
C2 C12 1_555 1_555
C7 C8 1_555 1_555
C9 C10 1_555 1_555
C11 C12 1_555 1_555

#END
