
#######################################################################
#
#                 Cambridge Crystallographic Data Centre
#                                CCDC 
#
#######################################################################
#
# If this CIF has been generated from an entry in the Cambridge 
# Structural Database, then it will include bibliographic, chemical, 
# crystal, experimental, refinement or atomic coordinate data resulting 
# from the CCDC's data processing and validation procedures.
#
#######################################################################

data_MEDGUA
_chemical_formula_moiety         'C30 H26 N2 P2 S2'
_chemical_name_systematic        
"N,N'-1,2-phenylenebis(P,P-diphenyl(phosphinothioic amide))"
_symmetry_cell_setting           monoclinic
_symmetry_space_group_name_H-M   'C 2/c'
_symmetry_Int_Tables_number      15
_space_group_name_Hall           '-C 2yn'
loop_
_symmetry_equiv_pos_site_id
_symmetry_equiv_pos_as_xyz
1 x,y,z
2 -x,y,1/2-z
3 1/2+x,1/2+y,z
4 1/2-x,1/2+y,1/2-z
5 -x,-y,-z
6 x,-y,1/2+z
7 1/2-x,1/2-y,-z
8 1/2+x,1/2-y,1/2+z
_cell_length_a                   23.3018(9)
_cell_length_b                   9.1181(6)
_cell_length_c                   25.9429(14)
_cell_angle_alpha                90
_cell_angle_beta                 97.274(4)
_cell_angle_gamma                90
_cell_volume                     5467.68
_exptl_crystal_colour            yellow
_exptl_crystal_description       blocks
_cell_formula_units_Z            8
loop_
_atom_site_label
_atom_site_type_symbol
_atom_site_fract_x
_atom_site_fract_y
_atom_site_fract_z
S1 S -0.16599(6) -0.22263(19) 0.44372(6)
S2 S 0.03269(6) 0.0417(2) 0.31159(6)
P1 P -0.12734(6) -0.15497(18) 0.38279(6)
P2 P 0.07956(6) 0.08125(19) 0.38110(6)
N1 N -0.0665(2) -0.0589(6) 0.3965(2)
H1 H -0.0371 -0.0890 0.3826
N2 N 0.04728(19) 0.0336(5) 0.43268(19)
H2 H 0.0603 -0.0399 0.4513
C1 C -0.0578(2) 0.0660(6) 0.4284(2)
C2 C -0.0017(2) 0.1129(7) 0.4464(2)
C3 C 0.0067(3) 0.2316(7) 0.4781(3)
H3 H 0.0443 0.2612 0.4899
C4 C -0.0396(3) 0.3101(7) 0.4935(3)
H4 H -0.0333 0.3916 0.5150
C5 C -0.0953(3) 0.2641(8) 0.4760(3)
H5 H -0.1268 0.3144 0.4859
C6 C -0.1039(3) 0.1450(7) 0.4442(3)
H6 H -0.1415 0.1155 0.4327
C7 C -0.1745(3) -0.0480(7) 0.3375(3)
C8 C -0.2342(3) -0.0725(9) 0.3317(3)
H7 H -0.2500 -0.1372 0.3538
C9 C -0.2702(4) 0.0000(12) 0.2927(5)
H8 H -0.3098 -0.0177 0.2890
C10 C -0.2485(5) 0.0962(12) 0.2600(5)
H9 H -0.2733 0.1416 0.2339
C11 C -0.1884(5) 0.1278(10) 0.2655(4)
H10 H -0.1732 0.1946 0.2438
C12 C -0.1525(3) 0.0544(8) 0.3050(3)
H11 H -0.1131 0.0746 0.3097
C13 C -0.1044(2) -0.3036(7) 0.3440(3)
C14 C -0.1088(3) -0.4471(8) 0.3612(3)
H12 H -0.1219 -0.4663 0.3930
C15 C -0.0934(5) -0.5615(10) 0.3302(5)
H13 H -0.0954 -0.6572 0.3422
C16 C -0.0759(4) -0.5387(10) 0.2844(5)
H14 H -0.0659 -0.6173 0.2645
C17 C -0.0725(4) -0.3946(12) 0.2661(4)
H15 H -0.0612 -0.3776 0.2335
C18 C -0.0859(3) -0.2789(8) 0.2961(3)
H16 H -0.0826 -0.1834 0.2842
C19 C 0.0972(3) 0.2733(8) 0.3881(3)
C20 C 0.0549(4) 0.3745(10) 0.3684(4)
H17 H 0.0195 0.3429 0.3515
C21 C 0.0671(7) 0.5247(12) 0.3746(5)
H18 H 0.0391 0.5927 0.3619
C22 C 0.1174(7) 0.5719(10) 0.3982(5)
H19 H 0.1245 0.6721 0.4012
C23 C 0.1596(5) 0.4727(10) 0.4184(5)
H20 H 0.1946 0.5060 0.4357
C24 C 0.1490(3) 0.3233(8) 0.4126(3)
H21 H 0.1775 0.2565 0.4254
C25 C 0.1476(3) -0.0159(6) 0.3917(3)
C26 C 0.1717(3) -0.0670(8) 0.3488(3)
H22 H 0.1509 -0.0601 0.3158
C27 C 0.2253(4) -0.1269(11) 0.3549(5)
H23 H 0.2419 -0.1573 0.3259
C28 C 0.2554(5) -0.1429(12) 0.4034(6)
H24 H 0.2922 -0.1840 0.4073
C29 C 0.2313(4) -0.0986(12) 0.4465(4)
H25 H 0.2508 -0.1131 0.4796
C30 C 0.1775(3) -0.0319(8) 0.4397(3)
H26 H 0.1617 0.0023 0.4686
loop_
_geom_bond_atom_site_label_1
_geom_bond_atom_site_label_2
_geom_bond_site_symmetry_1
_geom_bond_site_symmetry_2
S1 P1 1_555 1_555
S2 P2 1_555 1_555
P1 N1 1_555 1_555
P2 N2 1_555 1_555
N1 H1 1_555 1_555
N2 H2 1_555 1_555
C1 N1 1_555 1_555
C2 N2 1_555 1_555
C3 C2 1_555 1_555
H3 C3 1_555 1_555
C4 C3 1_555 1_555
H4 C4 1_555 1_555
C5 C4 1_555 1_555
H5 C5 1_555 1_555
C6 C1 1_555 1_555
H6 C6 1_555 1_555
C7 P1 1_555 1_555
C8 C7 1_555 1_555
H7 C8 1_555 1_555
C9 C8 1_555 1_555
H8 C9 1_555 1_555
C10 C9 1_555 1_555
H9 C10 1_555 1_555
C11 C10 1_555 1_555
H10 C11 1_555 1_555
C12 C7 1_555 1_555
H11 C12 1_555 1_555
C13 P1 1_555 1_555
C14 C13 1_555 1_555
H12 C14 1_555 1_555
C15 C14 1_555 1_555
H13 C15 1_555 1_555
C16 C15 1_555 1_555
H14 C16 1_555 1_555
C17 C16 1_555 1_555
H15 C17 1_555 1_555
C18 C13 1_555 1_555
H16 C18 1_555 1_555
C19 P2 1_555 1_555
C20 C19 1_555 1_555
H17 C20 1_555 1_555
C21 C20 1_555 1_555
H18 C21 1_555 1_555
C22 C21 1_555 1_555
H19 C22 1_555 1_555
C23 C22 1_555 1_555
H20 C23 1_555 1_555
C24 C19 1_555 1_555
H21 C24 1_555 1_555
C25 P2 1_555 1_555
C26 C25 1_555 1_555
H22 C26 1_555 1_555
C27 C26 1_555 1_555
H23 C27 1_555 1_555
C28 C27 1_555 1_555
H24 C28 1_555 1_555
C29 C28 1_555 1_555
H25 C29 1_555 1_555
C30 C25 1_555 1_555
H26 C30 1_555 1_555
C1 C2 1_555 1_555
C5 C6 1_555 1_555
C11 C12 1_555 1_555
C17 C18 1_555 1_555
C23 C24 1_555 1_555
C29 C30 1_555 1_555

#END
