
#######################################################################
#
#                 Cambridge Crystallographic Data Centre
#                                CCDC 
#
#######################################################################
#
# If this CIF has been generated from an entry in the Cambridge 
# Structural Database, then it will include bibliographic, chemical, 
# crystal, experimental, refinement or atomic coordinate data resulting 
# from the CCDC's data processing and validation procedures.
#
#######################################################################

data_MEDHAH
_chemical_formula_moiety         'C46 H56 N2 Na2 O4 P2 S2,C4 H8 O1'
_chemical_name_systematic        
"(\m-\h^2^-N,N'-1,2-phenylenebis(P,P-diphenyl(phosphinothioic amide)))-tetrakis(tetrahydrofuran)-di-sodium tetrahydrofuran solvate"
_symmetry_cell_setting           monoclinic
_symmetry_space_group_name_H-M   'P 21/n'
_symmetry_Int_Tables_number      14
_space_group_name_Hall           '-P 2yn'
loop_
_symmetry_equiv_pos_site_id
_symmetry_equiv_pos_as_xyz
1 x,y,z
2 1/2-x,1/2+y,1/2-z
3 -x,-y,-z
4 1/2+x,1/2-y,1/2+z
_cell_length_a                   13.9043(5)
_cell_length_b                   16.7694(4)
_cell_length_c                   21.8047(6)
_cell_angle_alpha                90
_cell_angle_beta                 104.843(3)
_cell_angle_gamma                90
_cell_volume                     4914.48
_exptl_crystal_colour            yellow
_exptl_crystal_description       needle
_cell_formula_units_Z            4
loop_
_atom_site_label
_atom_site_type_symbol
_atom_site_fract_x
_atom_site_fract_y
_atom_site_fract_z
P1 P -0.00444(3) 0.72386(3) -0.00526(2)
P2 P -0.42917(3) 0.78324(3) -0.09141(2)
S1 S -0.46849(4) 0.70974(3) -0.16499(2)
S2 S 0.03778(4) 0.64908(3) -0.06355(2)
Na1 Na -0.21963(6) 0.74969(5) 0.04276(3)
Na2 Na -0.24058(7) 0.67052(5) -0.10954(4)
N1 N -0.31195(11) 0.79701(9) -0.06061(7)
O1 O -0.22103(12) 0.63892(10) -0.20811(7)
C1 C -0.12272(15) 0.88912(12) -0.16816(9)
H1 H -0.0802 0.9085 -0.1914
C2 C 0.18245(15) 0.79707(13) 0.00978(10)
H2 H 0.2026 0.7494 -0.0049
C3 C -0.24188(16) 0.42239(13) -0.12891(10)
H3 H -0.2010 0.4142 -0.1583
H4 H -0.2494 0.3720 -0.1087
C4 C -0.14747(13) 0.81091(11) -0.07845(8)
C5 C -0.46079(14) 0.94391(12) -0.07261(9)
H5 H -0.4070 0.9381 -0.0373
C6 C 0.08605(13) 0.80455(11) 0.01651(8)
C7 C -0.49520(13) 0.87803(11) -0.11075(8)
C8 C -0.47688(13) 0.74905(11) -0.02547(9)
C9 C -0.22228(15) 0.90747(12) -0.18589(9)
H6 H -0.2474 0.9396 -0.2211
C10 C -0.28519(14) 0.87800(12) -0.15123(9)
H7 H -0.3525 0.8904 -0.1643
C11 C -0.00454(13) 0.67366(11) 0.06883(8)
C12 C 0.01499(15) 0.67344(13) 0.18243(9)
H8 H 0.0306 0.7005 0.2210
C13 C 0.01872(15) 0.71302(12) 0.12710(9)
H9 H 0.0370 0.7665 0.1290
C14 C -0.62069(15) 0.96185(13) -0.17676(10)
H10 H -0.6748 0.9678 -0.2118
C15 C -0.44462(14) 0.78349(11) 0.03459(9)
H11 H -0.3937 0.8210 0.0423
C16 C -0.56468(15) 0.70716(13) 0.07129(10)
H12 H -0.5946 0.6934 0.1034
C17 C -0.03178(14) 0.59351(12) 0.06732(9)
H13 H -0.0475 0.5662 0.0289
C18 C -0.58548(15) 1.02710(12) -0.13881(10)
H14 H -0.6154 1.0767 -0.1484
C19 C -0.01185(15) 0.59406(12) 0.18025(9)
H15 H -0.0140 0.5674 0.2173
C20 C -0.59709(15) 0.67246(13) 0.01197(10)
H16 H -0.6484 0.6353 0.0044
C21 C 0.05736(16) 0.87714(12) 0.03790(10)
H17 H -0.0072 0.8834 0.0420
C22 C 0.24918(16) 0.86054(15) 0.02493(11)
H18 H 0.3136 0.8551 0.0204
C23 C -0.08579(14) 0.84108(12) -0.11497(9)
H19 H -0.0184 0.8287 -0.1034
C24 C -0.36728(16) 0.50784(13) -0.11177(11)
H20 H -0.4161 0.5483 -0.1301
H21 H -0.3930 0.4755 -0.0827
C25 C -0.34298(16) 0.45722(13) -0.16264(10)
H22 H -0.3387 0.4891 -0.1990
H23 H -0.3921 0.4156 -0.1765
C26 C -0.3484(2) 0.57658(17) 0.16408(12)
H24 H -0.3322 0.5525 0.2059
H25 H -0.4171 0.5941 0.1534
C27 C -0.2080(2) 0.69832(17) -0.30287(12)
H26 H -0.1674 0.7453 -0.2891
H27 H -0.2440 0.7046 -0.3470
C28 C -0.50536(15) 1.01797(12) -0.08633(10)
H28 H -0.4816 1.0614 -0.0604
C29 C -0.03561(15) 0.55417(12) 0.12277(10)
H29 H -0.0542 0.5008 0.1212
C30 C 0.12415(18) 0.94000(13) 0.05310(10)
H30 H 0.1045 0.9879 0.0676
C31 C -0.13677(16) 0.60426(15) -0.22382(10)
H31 H -0.1359 0.5470 -0.2172
H32 H -0.0758 0.6266 -0.1974
C32 C -0.55307(14) 0.69313(12) -0.03608(10)
H33 H -0.5747 0.6694 -0.0758
C33 C -0.57614(14) 0.88759(12) -0.16318(9)
H34 H -0.6004 0.8442 -0.1891
C34 C -0.1455(2) 0.62288(18) -0.29271(12)
H35 H -0.1786 0.5801 -0.3200
H36 H -0.0807 0.6322 -0.3004
C35 C -0.19502(17) 0.93386(14) 0.07953(11)
H37 H -0.2614 0.9566 0.0690
H38 H -0.1743 0.9268 0.0406
C36 C -0.14547(19) 0.86850(18) 0.17661(11)
H39 H -0.1122 0.8197 0.1944
H40 H -0.1923 0.8839 0.2007
C37 C -0.19681(16) 0.48583(13) -0.07963(11)
H41 H -0.1741 0.4618 -0.0379
H42 H -0.1405 0.5112 -0.0903
C38 C -0.48795(15) 0.76224(12) 0.08299(9)
H43 H -0.4655 0.7849 0.1231
C39 C 0.21978(17) 0.93136(14) 0.04664(10)
H44 H 0.2646 0.9735 0.0570
C40 C -0.1234(2) 0.98839(18) 0.12437(15)
H45 H -0.0770 1.0127 0.1035
H46 H -0.1588 1.0302 0.1402
C41 C -0.2766(2) 0.6833(2) -0.26209(13)
H47 H -0.2997 0.7333 -0.2486
H48 H -0.3339 0.6529 -0.2851
C42 C -0.0705(2) 0.9347(2) 0.17690(15)
H49 H -0.0540 0.9627 0.2172
H50 H -0.0099 0.9137 0.1688
O2 O -0.27373(10) 0.54379(8) -0.07990(7)
O3 O -0.19474(12) 0.85844(10) 0.11100(7)
O4 O -0.26959(11) 0.64636(9) 0.09665(7)
N2 N -0.11572(11) 0.76019(10) -0.02620(7)
C43 C -0.25128(13) 0.83009(11) -0.09718(8)
C44 C -0.27893(17) 0.64469(15) 0.16075(10)
H51 H -0.3061 0.6946 0.1712
H52 H -0.2145 0.6362 0.1902
C45 C -0.3295(3) 0.52003(17) 0.11551(16)
H53 H -0.3862 0.4854 0.0994
H54 H -0.2710 0.4877 0.1327
C46 C -0.3136(2) 0.57553(16) 0.06452(12)
H55 H -0.2697 0.5514 0.0417
H56 H -0.3765 0.5879 0.0345
O5 O 0.10062(15) 0.70242(12) -0.25852(8)
C47 C 0.22121(19) 0.7072(2) -0.16286(13)
H57 H 0.2870 0.7122 -0.1700
H58 H 0.2276 0.6878 -0.1201
C48 C 0.0743(2) 0.76791(17) -0.22563(13)
H59 H 0.0192 0.7542 -0.2080
H60 H 0.0552 0.8131 -0.2538
C49 C 0.1563(2) 0.65199(17) -0.21145(13)
H61 H 0.1968 0.6160 -0.2291
H62 H 0.1129 0.6207 -0.1923
C50 C 0.1654(2) 0.78722(18) -0.17370(15)
H63 H 0.1478 0.8048 -0.1356
H64 H 0.2050 0.8282 -0.1870
loop_
_geom_bond_atom_site_label_1
_geom_bond_atom_site_label_2
_geom_bond_site_symmetry_1
_geom_bond_site_symmetry_2
P1 S2 1_555 1_555
P2 S1 1_555 1_555
S1 Na2 1_555 1_555
Na1 N1 1_555 1_555
Na2 N1 1_555 1_555
N1 P2 1_555 1_555
O1 Na2 1_555 1_555
C1 H1 1_555 1_555
C2 H2 1_555 1_555
C3 H3 1_555 1_555
H4 C3 1_555 1_555
C4 Na2 1_555 1_555
C5 H5 1_555 1_555
C6 P1 1_555 1_555
C7 P2 1_555 1_555
C8 P2 1_555 1_555
C9 C1 1_555 1_555
H6 C9 1_555 1_555
C10 C9 1_555 1_555
H7 C10 1_555 1_555
C11 P1 1_555 1_555
C12 H8 1_555 1_555
C13 C11 1_555 1_555
H9 C13 1_555 1_555
C14 H10 1_555 1_555
C15 C8 1_555 1_555
H11 C15 1_555 1_555
C16 H12 1_555 1_555
C17 C11 1_555 1_555
H13 C17 1_555 1_555
C18 C14 1_555 1_555
H14 C18 1_555 1_555
C19 C12 1_555 1_555
H15 C19 1_555 1_555
C20 C16 1_555 1_555
H16 C20 1_555 1_555
C21 C6 1_555 1_555
H17 C21 1_555 1_555
C22 C2 1_555 1_555
H18 C22 1_555 1_555
C23 C1 1_555 1_555
H19 C23 1_555 1_555
C24 H20 1_555 1_555
H21 C24 1_555 1_555
C25 C3 1_555 1_555
H22 C25 1_555 1_555
H23 C25 1_555 1_555
C26 H24 1_555 1_555
H25 C26 1_555 1_555
C27 H26 1_555 1_555
H27 C27 1_555 1_555
C28 C5 1_555 1_555
H28 C28 1_555 1_555
C29 C17 1_555 1_555
H29 C29 1_555 1_555
C30 C21 1_555 1_555
H30 C30 1_555 1_555
C31 O1 1_555 1_555
H31 C31 1_555 1_555
H32 C31 1_555 1_555
C32 C8 1_555 1_555
H33 C32 1_555 1_555
C33 C7 1_555 1_555
H34 C33 1_555 1_555
C34 C27 1_555 1_555
H35 C34 1_555 1_555
H36 C34 1_555 1_555
C35 H37 1_555 1_555
H38 C35 1_555 1_555
C36 H39 1_555 1_555
H40 C36 1_555 1_555
C37 C3 1_555 1_555
H41 C37 1_555 1_555
H42 C37 1_555 1_555
C38 C15 1_555 1_555
H43 C38 1_555 1_555
C39 C22 1_555 1_555
H44 C39 1_555 1_555
C40 C35 1_555 1_555
H45 C40 1_555 1_555
H46 C40 1_555 1_555
C41 O1 1_555 1_555
H47 C41 1_555 1_555
H48 C41 1_555 1_555
C42 C36 1_555 1_555
H49 C42 1_555 1_555
H50 C42 1_555 1_555
O2 Na2 1_555 1_555
O3 Na1 1_555 1_555
O4 Na1 1_555 1_555
N2 P1 1_555 1_555
C43 Na2 1_555 1_555
C44 C26 1_555 1_555
H51 C44 1_555 1_555
H52 C44 1_555 1_555
C45 C26 1_555 1_555
H53 C45 1_555 1_555
H54 C45 1_555 1_555
C46 O4 1_555 1_555
H55 C46 1_555 1_555
H56 C46 1_555 1_555
O5 C48 1_555 1_555
C47 H57 1_555 1_555
H58 C47 1_555 1_555
C48 H59 1_555 1_555
H60 C48 1_555 1_555
C49 O5 1_555 1_555
H61 C49 1_555 1_555
H62 C49 1_555 1_555
C50 C47 1_555 1_555
H63 C50 1_555 1_555
H64 C50 1_555 1_555
Na1 N2 1_555 1_555
Na2 N2 1_555 1_555
N1 C43 1_555 1_555
C2 C6 1_555 1_555
C4 C23 1_555 1_555
C4 N2 1_555 1_555
C4 C43 1_555 1_555
C5 C7 1_555 1_555
C10 C43 1_555 1_555
C12 C13 1_555 1_555
C14 C33 1_555 1_555
C16 C38 1_555 1_555
C18 C28 1_555 1_555
C19 C29 1_555 1_555
C20 C32 1_555 1_555
C24 C25 1_555 1_555
C24 O2 1_555 1_555
C27 C41 1_555 1_555
C30 C39 1_555 1_555
C31 C34 1_555 1_555
C35 O3 1_555 1_555
C36 O3 1_555 1_555
C37 O2 1_555 1_555
C40 C42 1_555 1_555
O4 C44 1_555 1_555
C45 C46 1_555 1_555
C47 C49 1_555 1_555
C48 C50 1_555 1_555

#END
