
#######################################################################
#
#                 Cambridge Crystallographic Data Centre
#                                CCDC 
#
#######################################################################
#
# If this CIF has been generated from an entry in the Cambridge 
# Structural Database, then it will include bibliographic, chemical, 
# crystal, experimental, refinement or atomic coordinate data resulting 
# from the CCDC's data processing and validation procedures.
#
#######################################################################

data_MEDHIP
_chemical_formula_moiety         'C46 H56 N2 Na2 O4 P2 Se2,C4 H8 O1'
_chemical_name_systematic        
"(\m-N,N'-1,2-phenylenebis(P,P-diphenyl(phosphinoselenoic amide)))-tetrakis(tetrahydrofuran)-di-sodium tetrahydrofuran solvate"
_symmetry_cell_setting           tetragonal
_symmetry_space_group_name_H-M   'P 43 21 2'
_symmetry_Int_Tables_number      96
_space_group_name_Hall           'P 4nw 2abw'
loop_
_symmetry_equiv_pos_site_id
_symmetry_equiv_pos_as_xyz
1 x,y,z
2 1/2-y,1/2+x,3/4+z
3 -x,-y,1/2+z
4 1/2+y,1/2-x,1/4+z
5 1/2+x,1/2-y,1/4-z
6 1/2-x,1/2+y,3/4-z
7 y,x,-z
8 -y,-x,1/2-z
_cell_length_a                   12.17680(10)
_cell_length_b                   12.17680(10)
_cell_length_c                   33.7929(5)
_cell_angle_alpha                90
_cell_angle_beta                 90
_cell_angle_gamma                90
_cell_volume                     5010.62
_exptl_crystal_colour            colorless
_exptl_crystal_description       plates
_cell_formula_units_Z            4
loop_
_atom_site_label
_atom_site_type_symbol
_atom_site_fract_x
_atom_site_fract_y
_atom_site_fract_z
Na1 Na 0.38728(16) 0.45817(15) 0.94409(5)
Se1 Se 0.15545(4) 0.59041(5) 0.95342(2)
P1 P 0.23404(10) 0.56672(10) 1.00959(3)
O1 O 0.5321(3) 0.5455(3) 0.91418(10)
O2 O 0.3275(3) 0.3804(3) 0.88586(10)
N1 N 0.3124(3) 0.4605(3) 1.01298(10)
C1 C 0.1326(4) 0.2105(4) 1.00463(15)
H1 H 0.0593 0.1905 1.0074
C2 C 0.1641(4) 0.3195(4) 1.00976(13)
H2 H 0.1109 0.3714 1.0161
C3 C 0.2736(4) 0.3534(4) 1.00569(12)
C4 C 0.3229(4) 0.6837(4) 1.01870(12)
C5 C 0.4355(4) 0.6790(4) 1.01060(13)
H3 H 0.4674 0.6129 1.0029
C6 C 0.4998(4) 0.7725(4) 1.01409(14)
H4 H 0.5743 0.7691 1.0082
C7 C 0.4540(5) 0.8710(4) 1.02627(13)
H5 H 0.4974 0.9335 1.0288
C8 C 0.3430(5) 0.8750(4) 1.03462(13)
H6 H 0.3116 0.9405 1.0431
C9 C 0.2783(4) 0.7828(4) 1.03050(14)
H7 H 0.2034 0.7874 1.0357
C10 C 0.1345(4) 0.5750(4) 1.05005(12)
C11 C 0.1692(4) 0.5421(4) 1.08773(13)
H8 H 0.2405 0.5167 1.0915
C12 C 0.0971(5) 0.5474(4) 1.11946(13)
H9 H 0.1200 0.5254 1.1445
C13 C -0.0080(5) 0.5851(5) 1.11398(14)
H10 H -0.0557 0.5892 1.1354
C14 C -0.0437(5) 0.6172(5) 1.07675(15)
H11 H -0.1153 0.6420 1.0732
C15 C 0.0278(4) 0.6119(4) 1.04500(14)
H12 H 0.0040 0.6333 1.0200
C16 C 0.5877(5) 0.6494(5) 0.91836(14)
H13 H 0.6430 0.6450 0.9390
H14 H 0.5357 0.7067 0.9253
C17 C 0.6408(6) 0.6744(5) 0.87887(19)
H15 H 0.6116 0.7417 0.8678
H16 H 0.7197 0.6818 0.8817
C18 C 0.6129(6) 0.5774(5) 0.85295(17)
H17 H 0.6747 0.5569 0.8364
H18 H 0.5501 0.5931 0.8362
C19 C 0.5865(5) 0.4878(5) 0.88267(16)
H19 H 0.5387 0.4326 0.8711
H20 H 0.6530 0.4525 0.8921
C20 C 0.2828(7) 0.4472(6) 0.85409(18)
H21 H 0.3408 0.4696 0.8361
H22 H 0.2483 0.5125 0.8648
C21 C 0.2017(6) 0.3795(6) 0.8332(2)
H23 H 0.2347 0.3423 0.8108
H24 H 0.1407 0.4239 0.8239
C22 C 0.1646(6) 0.2989(6) 0.8638(2)
H25 H 0.1042 0.3283 0.8792
H26 H 0.1416 0.2306 0.8516
C23 C 0.2633(6) 0.2820(5) 0.88891(18)
H27 H 0.2420 0.2692 0.9162
H28 H 0.3051 0.2193 0.8797
Se1F Se 0.59041(5) 0.15545(4) 1.04658(2)
P1F P 0.56672(10) 0.23404(10) 0.99041(3)
N1F N 0.4605(3) 0.3124(3) 0.98702(10)
C1F C 0.2105(4) 0.1326(4) 0.99537(15)
H1F H 0.1905 0.0593 0.9926
C2F C 0.3195(4) 0.1641(4) 0.99024(13)
H2F H 0.3714 0.1109 0.9839
C3F C 0.3534(4) 0.2736(4) 0.99431(12)
C4F C 0.6837(4) 0.3229(4) 0.98130(12)
C5F C 0.6790(4) 0.4355(4) 0.98940(13)
H3F H 0.6129 0.4674 0.9971
C6F C 0.7725(4) 0.4998(4) 0.98591(14)
H4F H 0.7691 0.5743 0.9918
C7F C 0.8710(4) 0.4540(5) 0.97373(13)
H5F H 0.9335 0.4974 0.9712
C8F C 0.8750(4) 0.3430(5) 0.96538(13)
H6F H 0.9405 0.3116 0.9569
C9F C 0.7828(4) 0.2783(4) 0.96950(14)
H7F H 0.7874 0.2034 0.9643
C10F C 0.5750(4) 0.1345(4) 0.94995(12)
C11F C 0.5421(4) 0.1692(4) 0.91227(13)
H8F H 0.5167 0.2405 0.9085
C12F C 0.5474(4) 0.0971(5) 0.88054(13)
H9F H 0.5254 0.1200 0.8555
C13F C 0.5851(5) -0.0080(5) 0.88602(14)
H10F H 0.5892 -0.0557 0.8646
C14F C 0.6172(5) -0.0437(5) 0.92325(15)
H11F H 0.6420 -0.1153 0.9268
C15F C 0.6119(4) 0.0278(4) 0.95500(14)
H12F H 0.6333 0.0040 0.9800
Na1F Na 0.45817(15) 0.38728(16) 1.05591(5)
O1F O 0.5455(3) 0.5321(3) 1.08582(10)
O2F O 0.3804(3) 0.3275(3) 1.11414(10)
C16F C 0.6494(5) 0.5877(5) 1.08164(14)
H13F H 0.6450 0.6430 1.0610
H14F H 0.7067 0.5357 1.0747
C17F C 0.6744(5) 0.6408(6) 1.12113(19)
H15F H 0.7417 0.6116 1.1322
H16F H 0.6818 0.7197 1.1183
C18F C 0.5774(5) 0.6129(6) 1.14705(17)
H17F H 0.5569 0.6747 1.1636
H18F H 0.5931 0.5501 1.1638
C19F C 0.4878(5) 0.5865(5) 1.11733(16)
H19F H 0.4326 0.5387 1.1289
H20F H 0.4525 0.6530 1.1079
C20F C 0.4472(6) 0.2828(7) 1.14591(18)
H21F H 0.4696 0.3408 1.1639
H22F H 0.5125 0.2483 1.1352
C21F C 0.3795(6) 0.2017(6) 1.1668(2)
H23F H 0.3423 0.2347 1.1892
H24F H 0.4239 0.1407 1.1761
C22F C 0.2989(6) 0.1646(6) 1.1362(2)
H25F H 0.3283 0.1042 1.1208
H26F H 0.2306 0.1416 1.1484
C23F C 0.2820(5) 0.2633(6) 1.11109(18)
H27F H 0.2692 0.2420 1.0838
H28F H 0.2193 0.3051 1.1203
O3 O 0.7961(4) 0.7961(4) 0.0000
C24 C 0.9592(5) 0.8899(6) -0.0139(2)
H29 H 0.9914 0.9343 -0.0347
H30 H 1.0172 0.8522 0.0004
C25 C 0.8771(5) 0.8103(6) -0.03024(19)
H31 H 0.8438 0.8393 -0.0541
H32 H 0.9120 0.7408 -0.0364
C24F C 0.8899(6) 0.9592(5) 0.0139(2)
H29F H 0.9343 0.9914 0.0347
H30F H 0.8522 1.0172 -0.0004
C25F C 0.8103(6) 0.8771(5) 0.03024(19)
H31F H 0.8393 0.8438 0.0541
H32F H 0.7408 0.9120 0.0364
loop_
_geom_bond_atom_site_label_1
_geom_bond_atom_site_label_2
_geom_bond_site_symmetry_1
_geom_bond_site_symmetry_2
Na1 Se1 1_555 1_555
Se1 P1 1_555 1_555
P1 N1 1_555 1_555
O1 Na1 1_555 1_555
O2 Na1 1_555 1_555
N1 Na1 1_555 1_555
C1 H1 1_555 1_555
C2 C1 1_555 1_555
H2 C2 1_555 1_555
C3 N1 1_555 1_555
C4 P1 1_555 1_555
C5 C4 1_555 1_555
H3 C5 1_555 1_555
C6 C5 1_555 1_555
H4 C6 1_555 1_555
C7 C6 1_555 1_555
H5 C7 1_555 1_555
C8 C7 1_555 1_555
H6 C8 1_555 1_555
C9 C4 1_555 1_555
H7 C9 1_555 1_555
C10 P1 1_555 1_555
C11 C10 1_555 1_555
H8 C11 1_555 1_555
C12 C11 1_555 1_555
H9 C12 1_555 1_555
C13 C12 1_555 1_555
H10 C13 1_555 1_555
C14 C13 1_555 1_555
H11 C14 1_555 1_555
C15 C10 1_555 1_555
H12 C15 1_555 1_555
C16 O1 1_555 1_555
H13 C16 1_555 1_555
H14 C16 1_555 1_555
C17 C16 1_555 1_555
H15 C17 1_555 1_555
H16 C17 1_555 1_555
C18 C17 1_555 1_555
H17 C18 1_555 1_555
H18 C18 1_555 1_555
C19 O1 1_555 1_555
H19 C19 1_555 1_555
H20 C19 1_555 1_555
C20 O2 1_555 1_555
H21 C20 1_555 1_555
H22 C20 1_555 1_555
C21 C20 1_555 1_555
H23 C21 1_555 1_555
H24 C21 1_555 1_555
C22 C21 1_555 1_555
H25 C22 1_555 1_555
H26 C22 1_555 1_555
C23 O2 1_555 1_555
H27 C23 1_555 1_555
H28 C23 1_555 1_555
O3 C25 1_555 1_555
C24 H29 1_555 1_555
H30 C24 1_555 1_555
C25 C24 1_555 1_555
H31 C25 1_555 1_555
H32 C25 1_555 1_555
Se1F P1F 1_555 1_555
P1F N1F 1_555 1_555
N1F Na1 1_555 1_555
C1F C1 1_555 1_555
H1F C1F 1_555 1_555
C2F C1F 1_555 1_555
H2F C2F 1_555 1_555
C3F C3 1_555 1_555
C4F P1F 1_555 1_555
C5F C4F 1_555 1_555
H3F C5F 1_555 1_555
C6F C5F 1_555 1_555
H4F C6F 1_555 1_555
C7F C6F 1_555 1_555
H5F C7F 1_555 1_555
C8F C7F 1_555 1_555
H6F C8F 1_555 1_555
C9F C4F 1_555 1_555
H7F C9F 1_555 1_555
C10F P1F 1_555 1_555
C11F C10F 1_555 1_555
H8F C11F 1_555 1_555
C12F C11F 1_555 1_555
H9F C12F 1_555 1_555
C13F C12F 1_555 1_555
H10F C13F 1_555 1_555
C14F C13F 1_555 1_555
H11F C14F 1_555 1_555
C15F C10F 1_555 1_555
H12F C15F 1_555 1_555
Na1F N1 1_555 1_555
O1F Na1F 1_555 1_555
O2F Na1F 1_555 1_555
C16F O1F 1_555 1_555
H13F C16F 1_555 1_555
H14F C16F 1_555 1_555
C17F C16F 1_555 1_555
H15F C17F 1_555 1_555
H16F C17F 1_555 1_555
C18F C17F 1_555 1_555
H17F C18F 1_555 1_555
H18F C18F 1_555 1_555
C19F O1F 1_555 1_555
H19F C19F 1_555 1_555
H20F C19F 1_555 1_555
C20F O2F 1_555 1_555
H21F C20F 1_555 1_555
H22F C20F 1_555 1_555
C21F C20F 1_555 1_555
H23F C21F 1_555 1_555
H24F C21F 1_555 1_555
C22F C21F 1_555 1_555
H25F C22F 1_555 1_555
H26F C22F 1_555 1_555
C23F O2F 1_555 1_555
H27F C23F 1_555 1_555
H28F C23F 1_555 1_555
C24F C24 1_555 1_555
H29F C24F 1_555 1_555
H30F C24F 1_555 1_555
C25F O3 1_555 1_555
H31F C25F 1_555 1_555
H32F C25F 1_555 1_555
C2 C3 1_555 1_555
C8 C9 1_555 1_555
C14 C15 1_555 1_555
C18 C19 1_555 1_555
C22 C23 1_555 1_555
Se1F Na1F 1_555 1_555
N1F C3F 1_555 1_555
N1F Na1F 1_555 1_555
C2F C3F 1_555 1_555
C8F C9F 1_555 1_555
C14F C15F 1_555 1_555
C18F C19F 1_555 1_555
C22F C23F 1_555 1_555
C24F C25F 1_555 1_555

#END
