
#######################################################################
#
#                 Cambridge Crystallographic Data Centre
#                                CCDC 
#
#######################################################################
#
# If this CIF has been generated from an entry in the Cambridge 
# Structural Database, then it will include bibliographic, chemical, 
# crystal, experimental, refinement or atomic coordinate data resulting 
# from the CCDC's data processing and validation procedures.
#
#######################################################################

data_MEDJUB
_chemical_formula_moiety         'C12 H10 Cl1 N3 O1'
_chemical_name_systematic        2-Chloro-N-(6-methyl-2-pyridinyl)nicotinamide
_symmetry_cell_setting           monoclinic
_symmetry_space_group_name_H-M   'C 2/c'
_symmetry_Int_Tables_number      15
_space_group_name_Hall           '-C 2yn'
loop_
_symmetry_equiv_pos_site_id
_symmetry_equiv_pos_as_xyz
1 x,y,z
2 1/2+x,1/2+y,z
3 -x,y,1/2-z
4 1/2-x,1/2+y,1/2-z
5 -x,-y,-z
6 1/2-x,1/2-y,-z
7 x,-y,1/2+z
8 1/2+x,1/2-y,1/2+z
_cell_length_a                   20.6673(7)
_cell_length_b                   15.6067(6)
_cell_length_c                   7.0355(3)
_cell_angle_alpha                90
_cell_angle_beta                 97.102(3)
_cell_angle_gamma                90
_cell_volume                     2251.88
_exptl_crystal_colour            colorless
_exptl_crystal_description       Block
_chemical_melting_point          '399-400 K'
_cell_formula_units_Z            8
_exptl_crystal_recrystallization_method ethanol
loop_
_atom_site_label
_atom_site_type_symbol
_atom_site_fract_x
_atom_site_fract_y
_atom_site_fract_z
Cl1 Cl 0.26481(2) 0.19037(3) 0.20763(6)
N1 N 0.18440(7) 0.15052(9) 0.4499(2)
N2 N 0.39833(7) 0.18415(9) 0.5302(2)
H1 H 0.3753(12) 0.2311(16) 0.560(3)
N3 N 0.47821(7) 0.28431(10) 0.5213(2)
O1 O 0.39099(6) 0.03945(8) 0.4794(2)
C1 C 0.24669(8) 0.14764(11) 0.4232(2)
C2 C 0.29628(8) 0.11125(11) 0.5504(2)
C3 C 0.27733(9) 0.07091(11) 0.7103(3)
H2 H 0.3082 0.0437 0.7973
C4 C 0.21238(9) 0.07123(12) 0.7398(3)
H3 H 0.1990 0.0440 0.8459
C5 C 0.16759(9) 0.11292(12) 0.6083(3)
H4 H 0.1242 0.1149 0.6307
C6 C 0.36693(8) 0.10791(11) 0.5148(2)
C7 C 0.46454(8) 0.20059(11) 0.5137(2)
C8 C 0.50997(8) 0.13702(12) 0.4929(3)
H5 H 0.4983 0.0794 0.4881
C9 C 0.57331(8) 0.16251(12) 0.4794(3)
H6 H 0.6051 0.1220 0.4627
C10 C 0.58896(8) 0.24878(12) 0.4910(3)
H7 H 0.6315 0.2669 0.4838
C11 C 0.54035(9) 0.30765(11) 0.5133(3)
C12 C 0.55491(10) 0.40172(13) 0.5305(3)
H8 H 0.5156 0.4325 0.5447
H9 H 0.5721 0.4212 0.4174
H10 H 0.5864 0.4117 0.6405
loop_
_geom_bond_atom_site_label_1
_geom_bond_atom_site_label_2
_geom_bond_site_symmetry_1
_geom_bond_site_symmetry_2
Cl1 C1 1_555 1_555
N1 C1 1_555 1_555
N2 H1 1_555 1_555
N3 C7 1_555 1_555
O1 C6 1_555 1_555
C1 C2 1_555 1_555
C2 C3 1_555 1_555
C3 H2 1_555 1_555
C4 C3 1_555 1_555
H3 C4 1_555 1_555
C5 N1 1_555 1_555
H4 C5 1_555 1_555
C6 N2 1_555 1_555
C7 N2 1_555 1_555
C8 C7 1_555 1_555
H5 C8 1_555 1_555
C9 C8 1_555 1_555
H6 C9 1_555 1_555
C10 C9 1_555 1_555
H7 C10 1_555 1_555
C11 N3 1_555 1_555
C12 C11 1_555 1_555
H8 C12 1_555 1_555
H9 C12 1_555 1_555
H10 C12 1_555 1_555
C2 C6 1_555 1_555
C4 C5 1_555 1_555
C10 C11 1_555 1_555

#END
