
#######################################################################
#
#                 Cambridge Crystallographic Data Centre
#                                CCDC 
#
#######################################################################
#
# If this CIF has been generated from an entry in the Cambridge 
# Structural Database, then it will include bibliographic, chemical, 
# crystal, experimental, refinement or atomic coordinate data resulting 
# from the CCDC's data processing and validation procedures.
#
#######################################################################

data_MEDJIR
_chemical_formula_moiety         'C42 H48 N2 O3 P2 Se2 Sr1,0.5(C4 H8 O1)'
_chemical_name_systematic        
"(N,N'-1,2-phenylenebis(P,P-diphenyl(phosphinoselenoic amide)))-tris(tetrahydrofuran)-strontium tetrahydrofuran solvate"
_symmetry_cell_setting           triclinic
_symmetry_space_group_name_H-M   'P -1'
_symmetry_Int_Tables_number      2
_space_group_name_Hall           '-P 1'
loop_
_symmetry_equiv_pos_site_id
_symmetry_equiv_pos_as_xyz
1 x,y,z
2 -x,-y,-z
_cell_length_a                   9.6248(12)
_cell_length_b                   13.5848(17)
_cell_length_c                   17.387(4)
_cell_angle_alpha                77.398(14)
_cell_angle_beta                 80.868(14)
_cell_angle_gamma                81.890(11)
_cell_volume                     2177.07
_exptl_crystal_colour            colorless
_exptl_crystal_description       needle
_cell_formula_units_Z            2
loop_
_atom_site_label
_atom_site_type_symbol
_atom_site_fract_x
_atom_site_fract_y
_atom_site_fract_z
Sr1 Sr 0.31149(4) 0.79920(3) 0.34331(2)
Se1 Se 0.35513(5) 0.55732(3) 0.38771(3)
Se2 Se 0.29889(6) 1.03963(4) 0.32254(3)
P1 P 0.24465(11) 0.58492(8) 0.28563(7)
P2 P 0.21095(11) 1.02518(8) 0.21969(7)
O1 O 0.0935(4) 0.8069(3) 0.4484(2)
O2 O 0.4245(4) 0.7901(3) 0.4716(2)
O3 O 0.5652(3) 0.8038(3) 0.2766(2)
N1 N 0.2431(4) 0.7042(3) 0.2460(2)
N2 N 0.1974(4) 0.9074(3) 0.2238(2)
C1 C 0.1874(4) 0.7549(3) 0.1758(3)
C2 C 0.1704(4) 0.8636(3) 0.1633(3)
C3 C 0.1248(5) 0.9179(3) 0.0921(3)
H1 H 0.113713 0.988417 0.083090
C4 C 0.0954(5) 0.8705(4) 0.0341(3)
H2 H 0.066401 0.908874 -0.012940
C5 C 0.1098(5) 0.7661(4) 0.0472(3)
H3 H 0.089861 0.733296 0.009177
C6 C 0.1551(5) 0.7094(3) 0.1186(3)
H4 H 0.163343 0.638912 0.127316
C7 C 0.3341(4) 0.5011(3) 0.2203(3)
C8 C 0.4303(5) 0.5401(4) 0.1556(3)
H5 H 0.443452 0.608520 0.145319
C9 C 0.5063(5) 0.4777(4) 0.1067(3)
H6 H 0.570905 0.504306 0.064191
C10 C 0.4868(6) 0.3759(5) 0.1207(4)
H7 H 0.536307 0.334393 0.087084
C11 C 0.3920(5) 0.3364(4) 0.1855(4)
H8 H 0.380441 0.267726 0.196152
C12 C 0.3155(5) 0.3979(3) 0.2341(3)
H9 H 0.250861 0.370795 0.276362
C13 C 0.0648(4) 0.5497(3) 0.3150(3)
C14 C -0.0034(5) 0.5611(4) 0.3904(3)
H10 H 0.046884 0.577877 0.426342
C15 C -0.1464(5) 0.5474(4) 0.4120(4)
H11 H -0.190800 0.554480 0.462322
C16 C -0.2224(5) 0.5234(4) 0.3585(4)
H12 H -0.317966 0.515002 0.372806
C17 C -0.1565(5) 0.5119(4) 0.2843(4)
H13 H -0.207968 0.496025 0.248550
C18 C -0.0123(5) 0.5238(3) 0.2621(3)
H14 H 0.031962 0.514526 0.212168
C19 C 0.3254(5) 1.0795(3) 0.1314(3)
C20 C 0.2811(5) 1.1592(4) 0.0724(3)
H15 H 0.186755 1.186773 0.075743
C21 C 0.3775(6) 1.1978(4) 0.0083(3)
H16 H 0.347215 1.251923 -0.030465
C22 C 0.5177(6) 1.1568(4) 0.0012(3)
H17 H 0.581731 1.183312 -0.041690
C23 C 0.5616(5) 1.0756(4) 0.0591(4)
H18 H 0.655115 1.046292 0.054441
C24 C 0.4666(5) 1.0383(4) 0.1236(3)
H19 H 0.497518 0.984667 0.162544
C25 C 0.0426(5) 1.1058(3) 0.2158(3)
C26 C -0.0789(5) 1.0680(4) 0.2072(4)
H20 H -0.075252 1.000594 0.202916
C27 C -0.2069(6) 1.1306(5) 0.2049(4)
H21 H -0.288297 1.105122 0.198758
C28 C -0.2125(6) 1.2308(5) 0.2118(4)
H22 H -0.297713 1.272603 0.210080
C29 C -0.0922(7) 1.2685(4) 0.2211(5)
H23 H -0.096397 1.335749 0.225894
C30 C 0.0355(6) 1.2065(4) 0.2233(4)
H24 H 0.116461 1.232317 0.229754
C31 C 0.0699(7) 0.7514(6) 0.5284(4)
H25 H 0.107651 0.783790 0.563862
H26 H 0.116099 0.682599 0.532287
C32 C -0.0876(7) 0.7508(6) 0.5501(5)
H27 H -0.116922 0.686667 0.546432
H28 H -0.117621 0.762587 0.603614
C33 C -0.1466(8) 0.8358(11) 0.4900(5)
H29 H -0.212089 0.811715 0.463159
H30 H -0.197469 0.889147 0.515995
C34 C -0.0316(7) 0.8744(7) 0.4336(6)
H31 H -0.051063 0.878319 0.379908
H32 H -0.019353 0.941905 0.439478
C35 C 0.4138(7) 0.8759(4) 0.5099(4)
H33 H 0.323912 0.917200 0.503749
H34 H 0.489490 0.917615 0.486332
C36 C 0.4248(10) 0.8349(6) 0.5948(4)
H35 H 0.500599 0.862372 0.611065
H36 H 0.336875 0.852715 0.627131
C37 C 0.4540(12) 0.7251(6) 0.6042(4)
H37 H 0.373916 0.692607 0.635321
H38 H 0.536446 0.700912 0.631540
C38 C 0.4799(6) 0.7011(4) 0.5247(3)
H39 H 0.580469 0.685315 0.509030
H40 H 0.432145 0.643088 0.523832
C39 C 0.6810(6) 0.8374(6) 0.3039(5)
H41 H 0.680889 0.811915 0.360506
H42 H 0.673448 0.910891 0.293547
C40 C 0.8145(6) 0.7953(4) 0.2580(4)
H43 H 0.888965 0.839139 0.250069
H44 H 0.848251 0.727699 0.284675
C41 C 0.7647(7) 0.7933(6) 0.1803(4)
H45 H 0.825464 0.744888 0.152938
H46 H 0.761857 0.859850 0.145707
C42 C 0.6171(6) 0.7608(5) 0.2067(4)
H47 H 0.556986 0.787145 0.165321
H48 H 0.620541 0.687419 0.219573
C43? C -0.102(4) 0.550(3) 0.055(2)
C44? C 0.0993(12) 0.4607(9) 0.0340(6)
O4? O 0.0147(14) 0.4953(10) 0.0822(7)
C45? C -0.0843(17) 0.5117(14) 0.0491(9)
loop_
_geom_bond_atom_site_label_1
_geom_bond_atom_site_label_2
_geom_bond_site_symmetry_1
_geom_bond_site_symmetry_2
Sr1 Se1 1_555 1_555
Se1 P1 1_555 1_555
Se2 Sr1 1_555 1_555
P1 N1 1_555 1_555
P2 Se2 1_555 1_555
O1 Sr1 1_555 1_555
O2 Sr1 1_555 1_555
O3 Sr1 1_555 1_555
N1 Sr1 1_555 1_555
N2 Sr1 1_555 1_555
C1 N1 1_555 1_555
C2 N2 1_555 1_555
C3 C2 1_555 1_555
H1 C3 1_555 1_555
C4 C3 1_555 1_555
H2 C4 1_555 1_555
C5 C4 1_555 1_555
H3 C5 1_555 1_555
C6 C1 1_555 1_555
H4 C6 1_555 1_555
C7 P1 1_555 1_555
C8 C7 1_555 1_555
H5 C8 1_555 1_555
C9 C8 1_555 1_555
H6 C9 1_555 1_555
C10 C9 1_555 1_555
H7 C10 1_555 1_555
C11 C10 1_555 1_555
H8 C11 1_555 1_555
C12 C7 1_555 1_555
H9 C12 1_555 1_555
C13 P1 1_555 1_555
C14 C13 1_555 1_555
H10 C14 1_555 1_555
C15 C14 1_555 1_555
H11 C15 1_555 1_555
C16 C15 1_555 1_555
H12 C16 1_555 1_555
C17 C16 1_555 1_555
H13 C17 1_555 1_555
C18 C13 1_555 1_555
H14 C18 1_555 1_555
C19 P2 1_555 1_555
C20 C19 1_555 1_555
H15 C20 1_555 1_555
C21 C20 1_555 1_555
H16 C21 1_555 1_555
C22 C21 1_555 1_555
H17 C22 1_555 1_555
C23 C22 1_555 1_555
H18 C23 1_555 1_555
C24 C19 1_555 1_555
H19 C24 1_555 1_555
C25 P2 1_555 1_555
C26 C25 1_555 1_555
H20 C26 1_555 1_555
C27 C26 1_555 1_555
H21 C27 1_555 1_555
C28 C27 1_555 1_555
H22 C28 1_555 1_555
C29 C28 1_555 1_555
H23 C29 1_555 1_555
C30 C25 1_555 1_555
H24 C30 1_555 1_555
C31 O1 1_555 1_555
H25 C31 1_555 1_555
H26 C31 1_555 1_555
C32 C31 1_555 1_555
H27 C32 1_555 1_555
H28 C32 1_555 1_555
C33 C32 1_555 1_555
H29 C33 1_555 1_555
H30 C33 1_555 1_555
C34 O1 1_555 1_555
H31 C34 1_555 1_555
H32 C34 1_555 1_555
C35 O2 1_555 1_555
H33 C35 1_555 1_555
H34 C35 1_555 1_555
C36 C35 1_555 1_555
H35 C36 1_555 1_555
H36 C36 1_555 1_555
C37 C36 1_555 1_555
H37 C37 1_555 1_555
H38 C37 1_555 1_555
C38 O2 1_555 1_555
H39 C38 1_555 1_555
H40 C38 1_555 1_555
C39 O3 1_555 1_555
H41 C39 1_555 1_555
H42 C39 1_555 1_555
C40 C39 1_555 1_555
H43 C40 1_555 1_555
H44 C40 1_555 1_555
C41 C40 1_555 1_555
H45 C41 1_555 1_555
H46 C41 1_555 1_555
C42 O3 1_555 1_555
H47 C42 1_555 1_555
H48 C42 1_555 1_555
P2 N2 1_555 1_555
C1 C2 1_555 1_555
C5 C6 1_555 1_555
C11 C12 1_555 1_555
C17 C18 1_555 1_555
C23 C24 1_555 1_555
C29 C30 1_555 1_555
C33 C34 1_555 1_555
C37 C38 1_555 1_555
C41 C42 1_555 1_555

#END
