
#######################################################################
#
#                 Cambridge Crystallographic Data Centre
#                                CCDC 
#
#######################################################################
#
# If this CIF has been generated from an entry in the Cambridge 
# Structural Database, then it will include bibliographic, chemical, 
# crystal, experimental, refinement or atomic coordinate data resulting 
# from the CCDC's data processing and validation procedures.
#
#######################################################################

data_MEDLAL
_chemical_formula_moiety         'C128 H168 O12,0.39(C6 H10 Br1 F1)'
_chemical_name_systematic        
"(M)-2,8,14,20-tetrahexyl-5,11,17,23-tetrakis(3,5-di-t-butyl-8-hydroxy-8-methylnona-3,4-diene-1,6-diyn-1-yl)-4,24:6,10:12,16:18,22-O,O'-tetramethylenecalix[4]resorcinarene (trans)-1-bromo-2-fluorocyclohexane"
_symmetry_cell_setting           orthorhombic
_symmetry_space_group_name_H-M   'P 21 21 21'
_symmetry_Int_Tables_number      19
_space_group_name_Hall           'P 2ac 2ab'
loop_
_symmetry_equiv_pos_site_id
_symmetry_equiv_pos_as_xyz
1 x,y,z
2 1/2-x,-y,1/2+z
3 -x,1/2+y,1/2-z
4 1/2+x,1/2-y,-z
_cell_length_a                   15.6487(4)
_cell_length_b                   18.7136(4)
_cell_length_c                   43.2272(10)
_cell_angle_alpha                90
_cell_angle_beta                 90
_cell_angle_gamma                90
_cell_volume                     12658.8
_exptl_crystal_colour            colorless
_exptl_crystal_description       plate
_cell_formula_units_Z            4
_exptl_crystal_recrystallization_method water/acetonitrile
loop_
_atom_site_label
_atom_site_type_symbol
_atom_site_fract_x
_atom_site_fract_y
_atom_site_fract_z
Br1 Br 0.57290(12) 0.46664(9) 0.32575(4)
C1 C 0.5756(15) 0.5194(12) 0.4038(4)
H1 H 0.5509 0.5214 0.4244
H2 H 0.5421 0.5503 0.3904
C2 C 0.6680(18) 0.5471(16) 0.4051(5)
H3 H 0.6658 0.5978 0.4097
H4 H 0.6961 0.5240 0.4224
C3 C 0.6258(13) 0.4275(11) 0.3635(4)
H5 H 0.6292 0.3754 0.3616
C4 C 0.5707(13) 0.4460(10) 0.3922(4)
H6 H 0.5119 0.4420 0.3846
C5 C 0.7232(19) 0.5377(15) 0.3776(4)
H7 H 0.7817 0.5502 0.3827
H8 H 0.7040 0.5690 0.3611
C6 C 0.7187(16) 0.4583(16) 0.3667(6)
H9 H 0.7502 0.4290 0.3813
H10 H 0.7471 0.4543 0.3468
F1 F 0.5762(15) 0.3959(9) 0.4129(3)
O1 O 0.32562(17) 0.58748(12) 0.34686(6)
O2 O 0.42567(18) 0.67456(12) 0.33242(6)
O3 O 0.80987(18) 0.59066(13) 0.27580(7)
O4 O 0.33027(19) 0.33362(13) 0.34898(6)
O5 O 0.70818(17) 0.67519(13) 0.29197(6)
O6 O 0.4316(2) 0.24718(13) 0.33465(6)
O7 O 0.7139(2) 0.24990(13) 0.29400(7)
O8 O 0.8132(2) 0.33611(14) 0.27734(7)
O9 O 0.6684(2) 0.55334(15) 0.47889(9)
H11 H 0.6521 0.5126 0.4827
O10 O 0.8284(2) 0.53617(17) 0.45470(9)
H12 H 0.7836 0.5490 0.4628
O11 O 0.8234(4) 0.3900(4) 0.4641(2)
H13 H 0.8245 0.4302 0.4566
O12 O 0.6541(3) 0.40744(17) 0.48515(10)
H14 H 0.6955 0.3890 0.4766
C7 C 0.3493(3) 0.39315(19) 0.29993(9)
C8 C 0.3365(2) 0.52428(18) 0.33056(8)
C9 C 0.6242(3) 0.65234(18) 0.28896(9)
C10 C 0.7728(3) 0.52696(19) 0.26617(9)
C11 C 0.5967(3) 0.61736(18) 0.26223(9)
C12 C 0.3387(3) 0.39580(19) 0.33163(9)
C13 C 0.3087(2) 0.4663(2) 0.44133(8)
C14 C 0.5102(3) 0.60012(18) 0.26012(9)
H15 H 0.4911 0.5765 0.2425
C15 C 0.4014(3) 0.6233(2) 0.35487(9)
H16 H 0.4471 0.5886 0.3572
H17 H 0.3936 0.6470 0.3746
C16 C 0.3551(2) 0.4584(2) 0.28423(8)
H18 H 0.3644 0.4575 0.2630
C17 C 0.3237(2) 0.4621(2) 0.38057(8)
C18 C 0.3478(2) 0.52420(18) 0.29870(8)
C19 C 0.4806(3) 0.65191(19) 0.30912(9)
C20 C 0.3331(2) 0.4603(2) 0.34767(8)
C21 C 0.2642(3) 0.4028(2) 0.45725(9)
C22 C 0.6179(3) 0.73925(19) 0.36234(9)
C23 C 0.4510(3) 0.61646(18) 0.28309(8)
C24 C 0.8044(3) 0.76432(19) 0.40463(9)
C25 C 0.5955(3) 0.70821(19) 0.33971(9)
C26 C 0.3169(2) 0.4644(2) 0.40826(8)
C27 C 0.5670(3) 0.67032(18) 0.31251(9)
C28 C 0.6604(3) 0.59721(19) 0.23718(9)
H19 H 0.7055 0.6336 0.2375
C29 C 0.3366(3) 0.5219(2) 0.45619(8)
C30 C 0.3608(3) 0.32218(19) 0.28320(9)
H20 H 0.3297 0.2862 0.2952
C31 C 0.3579(3) 0.59473(19) 0.28120(8)
H21 H 0.3248 0.6308 0.2925
C32 C 0.4551(3) 0.30241(19) 0.28500(9)
C33 C 0.7696(3) 0.6242(2) 0.30142(10)
H22 H 0.7419 0.5881 0.3140
H23 H 0.8126 0.6475 0.3140
C34 C 0.6430(3) 0.77869(19) 0.38955(9)
C35 C 0.6267(3) 0.1932(2) 0.36636(11)
C36 C 0.6036(3) 0.2204(2) 0.34268(10)
C37 C 0.4867(3) 0.26984(19) 0.31148(9)
C38 C 0.5138(3) 0.31861(19) 0.26156(9)
H24 H 0.4939 0.3403 0.2436
C39 C 0.3029(3) 0.6424(2) 0.47824(9)
C40 C 0.5999(3) 0.30380(19) 0.26390(9)
C41 C 0.6646(3) 0.3244(2) 0.23871(9)
H25 H 0.7104 0.2888 0.2395
C42 C 0.5750(3) 0.8263(2) 0.40466(9)
C43 C 0.7223(3) 0.77171(19) 0.39889(9)
C44 C 0.6235(3) 0.5963(2) 0.20432(9)
H26 H 0.5841 0.5565 0.2024
H27 H 0.5917 0.6400 0.2008
C45 C 0.8337(3) 0.7066(2) 0.42401(9)
C46 C 0.7019(3) 0.52682(19) 0.24667(9)
C47 C 0.6690(3) 0.4608(2) 0.23784(8)
H28 H 0.6214 0.4598 0.2249
C48 C 0.4511(3) 0.5860(2) 0.47970(9)
C49 C 0.3226(3) 0.5922(2) 0.24794(9)
H29 H 0.3362 0.6369 0.2376
H30 H 0.3510 0.5541 0.2367
C50 C 0.5856(3) 0.2371(2) 0.46522(10)
C51 C 0.3635(3) 0.5799(2) 0.47099(9)
C52 C 0.3225(3) 0.3216(2) 0.25082(9)
H31 H 0.3389 0.2778 0.2405
H32 H 0.3459 0.3613 0.2391
C53 C 0.8098(3) 0.4634(2) 0.27685(9)
C54 C 0.5254(3) 0.5934(2) 0.48639(10)
C55 C 0.7737(3) 0.3983(2) 0.26712(9)
C56 C 0.7043(3) 0.3958(2) 0.24752(9)
C57 C 0.9363(3) 0.4650(2) 0.31650(10)
C58 C 0.6174(3) 0.1691(2) 0.42007(10)
C59 C 0.4070(3) 0.2986(2) 0.35702(9)
H33 H 0.3996 0.2751 0.3769
H34 H 0.4521 0.3337 0.3592
C60 C 0.6579(3) 0.1585(2) 0.39375(10)
C61 C 0.8800(3) 0.4648(2) 0.29784(10)
C62 C 0.5731(3) 0.2535(2) 0.31489(9)
C63 C 0.5709(3) 0.1770(2) 0.44508(10)
C64 C 0.8598(3) 0.6563(2) 0.43871(10)
C65 C 1.0587(3) 0.5318(2) 0.34228(9)
C66 C 0.8712(3) 0.8128(2) 0.38939(10)
C67 C 0.2269(3) 0.5803(2) 0.24648(9)
H35 H 0.2129 0.5375 0.2581
H36 H 0.1984 0.6203 0.2564
C68 C 0.5951(3) 0.2893(2) 0.48099(10)
C69 C 0.6053(3) 0.3531(2) 0.50096(11)
C70 C 1.0034(3) 0.4664(3) 0.33949(9)
C71 C 0.6289(3) 0.27124(19) 0.29082(10)
C72 C 0.4980(3) 0.1249(2) 0.45345(10)
C73 C 0.6156(3) 0.6033(2) 0.49477(12)
C74 C 0.7743(3) 0.3018(2) 0.30267(10)
H37 H 0.8182 0.2793 0.3151
H38 H 0.7463 0.3375 0.3154
C75 C 1.0156(3) 0.3491(2) 0.37296(11)
C76 C 0.2249(3) 0.3273(3) 0.25099(10)
H39 H 0.2017 0.2838 0.2598
H40 H 0.2087 0.3666 0.2644
C77 C 0.1707(3) 0.4030(2) 0.44707(10)
H41 H 0.1441 0.4468 0.4534
H42 H 0.1414 0.3634 0.4564
H43 H 0.1677 0.3988 0.4250
C78 C 0.7345(3) 0.1085(2) 0.38984(10)
C79 C 0.5455(3) 0.8816(2) 0.38060(11)
H44 H 0.5940 0.9078 0.3731
H45 H 0.5057 0.9140 0.3900
H46 H 0.5183 0.8575 0.3636
C80 C 0.8906(3) 0.5935(2) 0.45649(11)
C81 C 0.9620(3) 0.3446(2) 0.39973(11)
C82 C 0.3069(3) 0.6561(3) 0.51311(10)
H47 H 0.2903 0.6136 0.5240
H48 H 0.2687 0.6944 0.5184
H49 H 0.3642 0.6690 0.5188
C83 C 1.0123(3) 0.4088(3) 0.35655(11)
C84 C 0.6926(3) 0.5895(2) 0.17996(9)
H50 H 0.7274 0.6323 0.1802
H51 H 0.7292 0.5494 0.1852
C85 C 0.2699(3) 0.4100(2) 0.49228(9)
H52 H 0.3288 0.4105 0.4985
H53 H 0.2413 0.3704 0.5019
H54 H 0.2431 0.4538 0.4986
C86 C 0.2119(3) 0.6242(2) 0.46886(11)
H55 H 0.2101 0.6142 0.4471
H56 H 0.1752 0.6639 0.4734
H57 H 0.1930 0.5830 0.4802
C87 C 0.4992(3) 0.7807(2) 0.41415(11)
H58 H 0.4745 0.7590 0.3961
H59 H 0.4573 0.8101 0.4242
H60 H 0.5179 0.7441 0.4282
C88 C 0.3087(3) 0.3337(2) 0.44686(11)
H61 H 0.3025 0.3282 0.4249
H62 H 0.2832 0.2936 0.4572
H63 H 0.3683 0.3362 0.4520
C89 C 0.6121(3) 0.8642(2) 0.43277(11)
H64 H 0.6292 0.8294 0.4479
H65 H 0.5697 0.8952 0.4415
H66 H 0.6609 0.8919 0.4266
C90 C 0.1926(3) 0.5725(3) 0.21391(10)
H67 H 0.2017 0.6179 0.2035
H68 H 0.2283 0.5377 0.2035
C91 C 0.4141(3) 0.1657(3) 0.45447(12)
H69 H 0.4180 0.2035 0.4694
H70 H 0.3687 0.1338 0.4602
H71 H 0.4024 0.1857 0.4344
C92 C 1.0031(3) 0.5989(3) 0.34544(12)
H72 H 0.9671 0.6034 0.3276
H73 H 1.0392 0.6402 0.3471
H74 H 0.9683 0.5950 0.3637
C93 C 0.3340(3) 0.7086(2) 0.46107(11)
H75 H 0.3911 0.7198 0.4675
H76 H 0.2970 0.7482 0.4657
H77 H 0.3333 0.6996 0.4392
C94 C 1.1189(3) 0.5263(3) 0.37032(10)
H78 H 1.0858 0.5259 0.3890
H79 H 1.1568 0.5667 0.3705
H80 H 1.1516 0.4831 0.3689
C95 C 1.0703(3) 0.2848(2) 0.36290(11)
C96 C 0.9284(3) 0.8463(3) 0.41427(11)
H81 H 0.8944 0.8759 0.4276
H82 H 0.9718 0.8748 0.4046
H83 H 0.9549 0.8092 0.4262
C97 C 0.6284(3) 0.3230(2) 0.20574(10)
H84 H 0.5931 0.3648 0.2021
H85 H 0.5938 0.2806 0.2027
C98 C 0.9245(3) 0.7671(2) 0.36765(10)
H86 H 0.9506 0.7290 0.3791
H87 H 0.9681 0.7961 0.3583
H88 H 0.8884 0.7476 0.3518
C99 C 1.1130(3) 0.5380(3) 0.31292(10)
H89 H 1.1455 0.4949 0.3102
H90 H 1.1511 0.5779 0.3148
H91 H 1.0763 0.5449 0.2954
C100 C 0.9114(4) 0.3424(3) 0.42042(11)
C101 C 0.8276(3) 0.8723(3) 0.37118(13)
H92 H 0.7941 0.8518 0.3548
H93 H 0.8701 0.9034 0.3625
H94 H 0.7910 0.8991 0.3847
C102 C 0.8102(3) 0.1497(3) 0.37608(11)
H95 H 0.7945 0.1685 0.3562
H96 H 0.8581 0.1181 0.3738
H97 H 0.8254 0.1883 0.3896
C103 C 0.9694(3) 0.5631(3) 0.44150(13)
H98 H 0.9860 0.5202 0.4521
H99 H 1.0149 0.5974 0.4426
H100 H 0.9575 0.5523 0.4202
C104 C 0.7079(4) 0.0490(2) 0.36740(11)
H101 H 0.6658 0.0192 0.3771
H102 H 0.7570 0.0208 0.3621
H103 H 0.6842 0.0699 0.3490
C105 C 0.6583(4) 0.5785(3) 0.14761(10)
H104 H 0.6186 0.6168 0.1429
H105 H 0.6266 0.5340 0.1471
C106 C 0.0489(4) 0.2650(3) 0.22445(13)
H106 H 0.0631 0.2483 0.2451
H107 H 0.0733 0.2317 0.2097
C107 C 0.7610(4) 0.0750(3) 0.42076(11)
H108 H 0.7749 0.1122 0.4352
H109 H 0.8100 0.0450 0.4177
H110 H 0.7146 0.0470 0.4288
C108 C 0.4923(4) 0.0656(2) 0.42956(13)
H111 H 0.4812 0.0859 0.4096
H112 H 0.4469 0.0336 0.4350
H113 H 0.5454 0.0399 0.4290
C109 C 0.1846(3) 0.3390(3) 0.21957(11)
H114 H 0.2052 0.3023 0.2056
H115 H 0.2037 0.3848 0.2116
C110 C 0.8309(6) 0.3377(5) 0.4397(2)
C111 C 0.0871(4) 0.3379(3) 0.21945(13)
H116 H 0.0665 0.3697 0.2355
H117 H 0.0671 0.3563 0.1998
C112 C 0.7262(4) 0.5764(3) 0.12261(12)
H118 H 0.6996 0.5619 0.1034
H119 H 0.7482 0.6245 0.1197
C113 C 0.5176(4) 0.0935(3) 0.48540(12)
H120 H 0.5709 0.0681 0.4847
H121 H 0.4728 0.0612 0.4913
H122 H 0.5214 0.1314 0.5003
C114 C 0.6461(3) 0.6763(2) 0.48356(15)
H123 H 0.7037 0.6842 0.4904
H124 H 0.6097 0.7129 0.4918
H125 H 0.6442 0.6778 0.4614
C115 C 0.7878(4) 0.2527(3) 0.12286(12)
H126 H 0.7432 0.2181 0.1185
H127 H 0.8146 0.2395 0.1423
C116 C 0.6535(5) 0.3331(3) 0.52994(15)
H128 H 0.7102 0.3180 0.5245
H129 H 0.6244 0.2948 0.5403
H130 H 0.6567 0.3737 0.5434
C117 C 1.1113(4) 0.2976(4) 0.32970(14)
H131 H 1.0668 0.3007 0.3145
H132 H 1.1486 0.2585 0.3247
H133 H 1.1435 0.3413 0.3299
C118 C 0.7073(9) 0.3226(8) 0.1828(2)
H134 H 0.7449 0.3622 0.1878
H135 H 0.7393 0.2787 0.1855
C119 C 0.5194(4) 0.3865(3) 0.50730(18)
H136 H 0.5268 0.4277 0.5203
H137 H 0.4833 0.3525 0.5175
H138 H 0.4936 0.4008 0.4881
C120 C 0.9045(5) 0.6131(3) 0.48915(12)
H139 H 0.8516 0.6289 0.4981
H140 H 0.9458 0.6510 0.4903
H141 H 0.9252 0.5723 0.5003
C121 C 0.1033(6) 0.5517(9) 0.2083(3)
H142 H 0.0915 0.5072 0.2190
H143 H 0.0951 0.5436 0.1863
C122 C 0.6262(4) 0.5941(4) 0.52942(14)
H144 H 0.6047 0.5481 0.5355
H145 H 0.5950 0.6308 0.5400
H146 H 0.6857 0.5974 0.5347
C123 C 0.8295(5) 0.2665(4) 0.45653(19)
H147 H 0.8758 0.2648 0.4711
H148 H 0.8357 0.2284 0.4419
H149 H 0.7762 0.2613 0.4673
C124 C 1.1454(4) 0.2749(3) 0.38526(14)
H150 H 1.1800 0.3172 0.3853
H151 H 1.1792 0.2348 0.3788
H152 H 1.1240 0.2664 0.4057
C125 C 0.8541(4) 0.2508(4) 0.09711(13)
H153 H 0.8263 0.2570 0.0775
H154 H 0.8832 0.2056 0.0974
H155 H 0.8947 0.2886 0.1002
C126 C 0.7525(6) 0.3444(4) 0.41819(18)
H156 H 0.7012 0.3409 0.4302
H157 H 0.7537 0.3067 0.4031
H158 H 0.7540 0.3898 0.4079
C127 C -0.0470(4) 0.2665(5) 0.22073(17)
H159 H -0.0611 0.2794 0.1999
H160 H -0.0709 0.3009 0.2347
H161 H -0.0699 0.2200 0.2253
C128 C 1.0176(5) 0.2175(4) 0.3609(2)
H162 H 0.9979 0.2045 0.3812
H163 H 1.0520 0.1795 0.3526
H164 H 0.9694 0.2255 0.3476
C129 C 0.7510(5) 0.3218(4) 0.12574(17)
H165 H 0.7282 0.3357 0.1058
H166 H 0.7959 0.3553 0.1309
C130 C 0.6801(5) 0.3286(4) 0.14969(15)
H167 H 0.6525 0.3746 0.1469
H168 H 0.6378 0.2920 0.1456
C131 C 0.0408(6) 0.6082(6) 0.2192(2)
H169 H 0.0522 0.6528 0.2085
H170 H 0.0486 0.6163 0.2412
C132 C -0.0510(6) 0.5856(8) 0.2132(3)
H171 H -0.0609 0.5834 0.1913
H172 H -0.0893 0.6196 0.2223
H173 H -0.0608 0.5393 0.2221
C133 C 0.7986(9) 0.5285(10) 0.1289(4)
H174 H 0.7767 0.4808 0.1326
H175 H 0.8271 0.5443 0.1476
C134 C 0.863(2) 0.525(2) 0.1030(11)
H176 H 0.8387 0.5013 0.0854
H177 H 0.9128 0.4989 0.1098
H178 H 0.8801 0.5726 0.0972
H179? H 0.6340 0.4140 0.4679
H180? H 0.2186 0.5320 0.2035
H181? H 0.2034 0.6153 0.2019
H182? H 0.6040 0.2760 0.2025
H183? H 0.5815 0.3568 0.2051
H184? H 0.6998 0.5866 0.1028
H185? H 0.7679 0.6137 0.1266
H186? H 0.7370 0.2763 0.1151
H187? H 0.7722 0.2039 0.1279
C135? C 0.7714(11) 0.5060(9) 0.1207(5)
H188? H 0.7925 0.4935 0.1411
H189? H 0.7306 0.4696 0.1146
C136? C 0.844(3) 0.505(3) 0.0985(14)
H190? H 0.8787 0.5472 0.1015
H191? H 0.8228 0.5046 0.0777
H192? H 0.8786 0.4635 0.1020
C137? C 0.6840(12) 0.3385(11) 0.1786(4)
H193? H 0.7077 0.3862 0.1802
H194? H 0.6513 0.3353 0.1596
C138? C 0.7555(7) 0.2830(6) 0.1787(2)
H195? H 0.7882 0.2879 0.1977
H196? H 0.7302 0.2356 0.1787
C139? C 0.8147(7) 0.2893(6) 0.1518(2)
H197? H 0.8224 0.3397 0.1473
H198? H 0.8699 0.2705 0.1579
C140? C 0.0904(8) 0.5600(14) 0.2187(4)
H199? H 0.0822 0.5214 0.2334
H200? H 0.0659 0.6029 0.2276
C141? C 0.0433(8) 0.5425(10) 0.1898(3)
H201? H 0.0701 0.5015 0.1801
H202? H 0.0479 0.5825 0.1757
C142? C -0.0516(8) 0.5259(13) 0.1952(4)
H203? H -0.0793 0.5185 0.1756
H204? H -0.0781 0.5652 0.2057
H205? H -0.0568 0.4835 0.2076
C143? C 1.0056(14) 0.2459(15) 0.3436(5)
H206? H 0.9962 0.2718 0.3247
H207? H 0.9529 0.2422 0.3548
H208? H 1.0265 0.1989 0.3388
C144? C 1.0834(17) 0.2421(11) 0.3939(4)
H209? H 1.1145 0.2710 0.4083
H210? H 1.1148 0.1991 0.3897
H211? H 1.0287 0.2300 0.4025
C145? C 1.1464(12) 0.3118(12) 0.3498(6)
H212? H 1.1326 0.3448 0.3335
H213? H 1.1794 0.2730 0.3414
H214? H 1.1791 0.3358 0.3654
C146? C 0.7710(14) 0.3288(13) 0.4325(5)
H215? H 0.7407 0.3705 0.4392
H216? H 0.7408 0.2868 0.4391
H217? H 0.7752 0.3290 0.4103
C147? C 0.8574(13) 0.3287(10) 0.4460(4)
O13? O 0.8622(16) 0.3875(9) 0.4671(4)
H218? H 0.8553 0.4250 0.4576
C148? C 0.8779(17) 0.2617(9) 0.4638(4)
H219? H 0.8839 0.2225 0.4496
H220? H 0.8326 0.2517 0.4781
H221? H 0.9304 0.2682 0.4749
loop_
_geom_bond_atom_site_label_1
_geom_bond_atom_site_label_2
_geom_bond_site_symmetry_1
_geom_bond_site_symmetry_2
Br1 C3 1_555 1_555
C1 H1 1_555 1_555
H2 C1 1_555 1_555
C2 C1 1_555 1_555
H3 C2 1_555 1_555
H4 C2 1_555 1_555
C3 H5 1_555 1_555
C4 C1 1_555 1_555
H6 C4 1_555 1_555
C5 C2 1_555 1_555
H7 C5 1_555 1_555
H8 C5 1_555 1_555
C6 C3 1_555 1_555
H9 C6 1_555 1_555
H10 C6 1_555 1_555
F1 C4 1_555 1_555
O1 C8 1_555 1_555
O2 C15 1_555 1_555
O3 C10 1_555 1_555
O4 C12 1_555 1_555
O5 C9 1_555 1_555
O6 C37 1_555 1_555
O7 C71 1_555 1_555
O8 C55 1_555 1_555
O9 H11 1_555 1_555
O10 H12 1_555 1_555
O11 H13 1_555 1_555
O12 H14 1_555 1_555
C7 C12 1_555 1_555
C8 C18 1_555 1_555
C9 C11 1_555 1_555
C10 C46 1_555 1_555
C11 C14 1_555 1_555
C12 C20 1_555 1_555
C13 C21 1_555 1_555
C14 H15 1_555 1_555
C15 O1 1_555 1_555
H16 C15 1_555 1_555
H17 C15 1_555 1_555
C16 C7 1_555 1_555
H18 C16 1_555 1_555
C17 C20 1_555 1_555
C18 C16 1_555 1_555
C19 O2 1_555 1_555
C20 C8 1_555 1_555
C21 C77 1_555 1_555
C22 C25 1_555 1_555
C23 C14 1_555 1_555
C24 C43 1_555 1_555
C25 C27 1_555 1_555
C26 C13 1_555 1_555
C27 C9 1_555 1_555
C28 C11 1_555 1_555
H19 C28 1_555 1_555
C29 C13 1_555 1_555
C30 C7 1_555 1_555
H20 C30 1_555 1_555
C31 C18 1_555 1_555
H21 C31 1_555 1_555
C32 C30 1_555 1_555
C33 O3 1_555 1_555
H22 C33 1_555 1_555
H23 C33 1_555 1_555
C34 C22 1_555 1_555
C35 C36 1_555 1_555
C36 C62 1_555 1_555
C37 C32 1_555 1_555
C38 C32 1_555 1_555
H24 C38 1_555 1_555
C39 C51 1_555 1_555
C40 C38 1_555 1_555
C41 C40 1_555 1_555
H25 C41 1_555 1_555
C42 C34 1_555 1_555
C43 C34 1_555 1_555
C44 C28 1_555 1_555
H26 C44 1_555 1_555
H27 C44 1_555 1_555
C45 C24 1_555 1_555
C46 C28 1_555 1_555
C47 C46 1_555 1_555
H28 C47 1_555 1_555
C48 C51 1_555 1_555
C49 C31 1_555 1_555
H29 C49 1_555 1_555
H30 C49 1_555 1_555
C50 C63 1_555 1_555
C51 C29 1_555 1_555
C52 C30 1_555 1_555
H31 C52 1_555 1_555
H32 C52 1_555 1_555
C53 C10 1_555 1_555
C54 C48 1_555 1_555
C55 C53 1_555 1_555
C56 C41 1_555 1_555
C57 C61 1_555 1_555
C58 C60 1_555 1_555
C59 O4 1_555 1_555
H33 C59 1_555 1_555
H34 C59 1_555 1_555
C60 C35 1_555 1_555
C61 C53 1_555 1_555
C62 C37 1_555 1_555
C63 C58 1_555 1_555
C64 C45 1_555 1_555
C65 C70 1_555 1_555
C66 C24 1_555 1_555
C67 C49 1_555 1_555
H35 C67 1_555 1_555
H36 C67 1_555 1_555
C68 C50 1_555 1_555
C69 O12 1_555 1_555
C70 C57 1_555 1_555
C71 C40 1_555 1_555
C72 C63 1_555 1_555
C73 O9 1_555 1_555
C74 O7 1_555 1_555
H37 C74 1_555 1_555
H38 C74 1_555 1_555
C75 C81 1_555 1_555
C76 C52 1_555 1_555
H39 C76 1_555 1_555
H40 C76 1_555 1_555
C77 H41 1_555 1_555
H42 C77 1_555 1_555
H43 C77 1_555 1_555
C78 C60 1_555 1_555
C79 C42 1_555 1_555
H44 C79 1_555 1_555
H45 C79 1_555 1_555
H46 C79 1_555 1_555
C80 O10 1_555 1_555
C81 C100 1_555 1_555
C82 C39 1_555 1_555
H47 C82 1_555 1_555
H48 C82 1_555 1_555
H49 C82 1_555 1_555
C83 C70 1_555 1_555
C84 C44 1_555 1_555
H50 C84 1_555 1_555
H51 C84 1_555 1_555
C85 C21 1_555 1_555
H52 C85 1_555 1_555
H53 C85 1_555 1_555
H54 C85 1_555 1_555
C86 C39 1_555 1_555
H55 C86 1_555 1_555
H56 C86 1_555 1_555
H57 C86 1_555 1_555
C87 C42 1_555 1_555
H58 C87 1_555 1_555
H59 C87 1_555 1_555
H60 C87 1_555 1_555
C88 C21 1_555 1_555
H61 C88 1_555 1_555
H62 C88 1_555 1_555
H63 C88 1_555 1_555
C89 C42 1_555 1_555
H64 C89 1_555 1_555
H65 C89 1_555 1_555
H66 C89 1_555 1_555
C90 C67 1_555 1_555
H67 C90 1_555 1_555
H68 C90 1_555 1_555
C91 C72 1_555 1_555
H69 C91 1_555 1_555
H70 C91 1_555 1_555
H71 C91 1_555 1_555
C92 C65 1_555 1_555
H72 C92 1_555 1_555
H73 C92 1_555 1_555
H74 C92 1_555 1_555
C93 C39 1_555 1_555
H75 C93 1_555 1_555
H76 C93 1_555 1_555
H77 C93 1_555 1_555
C94 C65 1_555 1_555
H78 C94 1_555 1_555
H79 C94 1_555 1_555
H80 C94 1_555 1_555
C95 C75 1_555 1_555
C96 C66 1_555 1_555
H81 C96 1_555 1_555
H82 C96 1_555 1_555
H83 C96 1_555 1_555
C97 C41 1_555 1_555
H84 C97 1_555 1_555
H85 C97 1_555 1_555
C98 C66 1_555 1_555
H86 C98 1_555 1_555
H87 C98 1_555 1_555
H88 C98 1_555 1_555
C99 C65 1_555 1_555
H89 C99 1_555 1_555
H90 C99 1_555 1_555
H91 C99 1_555 1_555
C100 C110 1_555 1_555
C101 C66 1_555 1_555
H92 C101 1_555 1_555
H93 C101 1_555 1_555
H94 C101 1_555 1_555
C102 C78 1_555 1_555
H95 C102 1_555 1_555
H96 C102 1_555 1_555
H97 C102 1_555 1_555
C103 C80 1_555 1_555
H98 C103 1_555 1_555
H99 C103 1_555 1_555
H100 C103 1_555 1_555
C104 C78 1_555 1_555
H101 C104 1_555 1_555
H102 C104 1_555 1_555
H103 C104 1_555 1_555
C105 C84 1_555 1_555
H104 C105 1_555 1_555
H105 C105 1_555 1_555
C106 H106 1_555 1_555
H107 C106 1_555 1_555
C107 C78 1_555 1_555
H108 C107 1_555 1_555
H109 C107 1_555 1_555
H110 C107 1_555 1_555
C108 C72 1_555 1_555
H111 C108 1_555 1_555
H112 C108 1_555 1_555
H113 C108 1_555 1_555
C109 C76 1_555 1_555
H114 C109 1_555 1_555
H115 C109 1_555 1_555
C110 O11 1_555 1_555
C111 C106 1_555 1_555
H116 C111 1_555 1_555
H117 C111 1_555 1_555
C112 C105 1_555 1_555
H118 C112 1_555 1_555
H119 C112 1_555 1_555
C113 C72 1_555 1_555
H120 C113 1_555 1_555
H121 C113 1_555 1_555
H122 C113 1_555 1_555
C114 C73 1_555 1_555
H123 C114 1_555 1_555
H124 C114 1_555 1_555
H125 C114 1_555 1_555
C115 H126 1_555 1_555
H127 C115 1_555 1_555
C116 C69 1_555 1_555
H128 C116 1_555 1_555
H129 C116 1_555 1_555
H130 C116 1_555 1_555
C117 C95 1_555 1_555
H131 C117 1_555 1_555
H132 C117 1_555 1_555
H133 C117 1_555 1_555
C118 C97 1_555 1_555
H134 C118 1_555 1_555
H135 C118 1_555 1_555
C119 C69 1_555 1_555
H136 C119 1_555 1_555
H137 C119 1_555 1_555
H138 C119 1_555 1_555
C120 C80 1_555 1_555
H139 C120 1_555 1_555
H140 C120 1_555 1_555
H141 C120 1_555 1_555
C121 C90 1_555 1_555
H142 C121 1_555 1_555
H143 C121 1_555 1_555
C122 C73 1_555 1_555
H144 C122 1_555 1_555
H145 C122 1_555 1_555
H146 C122 1_555 1_555
C123 C110 1_555 1_555
H147 C123 1_555 1_555
H148 C123 1_555 1_555
H149 C123 1_555 1_555
C124 C95 1_555 1_555
H150 C124 1_555 1_555
H151 C124 1_555 1_555
H152 C124 1_555 1_555
C125 C115 1_555 1_555
H153 C125 1_555 1_555
H154 C125 1_555 1_555
H155 C125 1_555 1_555
C126 C110 1_555 1_555
H156 C126 1_555 1_555
H157 C126 1_555 1_555
H158 C126 1_555 1_555
C127 C106 1_555 1_555
H159 C127 1_555 1_555
H160 C127 1_555 1_555
H161 C127 1_555 1_555
C128 C95 1_555 1_555
H162 C128 1_555 1_555
H163 C128 1_555 1_555
H164 C128 1_555 1_555
C129 C115 1_555 1_555
H165 C129 1_555 1_555
H166 C129 1_555 1_555
C130 C118 1_555 1_555
H167 C130 1_555 1_555
H168 C130 1_555 1_555
C131 C121 1_555 1_555
H169 C131 1_555 1_555
H170 C131 1_555 1_555
C132 C131 1_555 1_555
H171 C132 1_555 1_555
H172 C132 1_555 1_555
H173 C132 1_555 1_555
C133 C112 1_555 1_555
H174 C133 1_555 1_555
H175 C133 1_555 1_555
C134 C133 1_555 1_555
H176 C134 1_555 1_555
H177 C134 1_555 1_555
H178 C134 1_555 1_555
C3 C4 1_555 1_555
C5 C6 1_555 1_555
O5 C33 1_555 1_555
O6 C59 1_555 1_555
O8 C74 1_555 1_555
C17 C26 1_555 1_555
C19 C23 1_555 1_555
C19 C27 1_555 1_555
C23 C31 1_555 1_555
C47 C56 1_555 1_555
C54 C73 1_555 1_555
C55 C56 1_555 1_555
C62 C71 1_555 1_555
C64 C80 1_555 1_555
C68 C69 1_555 1_555
C75 C83 1_555 1_555
C109 C111 1_555 1_555
C129 C130 1_555 1_555

#END
