
#######################################################################
#
#                 Cambridge Crystallographic Data Centre
#                                CCDC 
#
#######################################################################
#
# If this CIF has been generated from an entry in the Cambridge 
# Structural Database, then it will include bibliographic, chemical, 
# crystal, experimental, refinement or atomic coordinate data resulting 
# from the CCDC's data processing and validation procedures.
#
#######################################################################

data_MEDMIU
_chemical_formula_moiety         'C128 H168 O12,C6 H11 I1,C2 H3 N1'
_chemical_name_systematic        
"(P)-2,8,14,20-tetrahexyl-5,11,17,23-tetrakis(3,5-di-t-butyl-8-hydroxy-8-methylnona-3,4-diene-1,6-diyn-1-yl)-4,24:6,10:12,16:18,22-O,O'-tetramethylenecalix[4]resorcinarene iodocyclohexane acetonitrile solvate"
_symmetry_cell_setting           orthorhombic
_symmetry_space_group_name_H-M   'P 21 21 21'
_symmetry_Int_Tables_number      19
_space_group_name_Hall           'P 2ac 2ab'
loop_
_symmetry_equiv_pos_site_id
_symmetry_equiv_pos_as_xyz
1 x,y,z
2 1/2-x,-y,1/2+z
3 -x,1/2+y,1/2-z
4 1/2+x,1/2-y,-z
_cell_length_a                   15.43750(10)
_cell_length_b                   18.20030(10)
_cell_length_c                   46.4620(3)
_cell_angle_alpha                90
_cell_angle_beta                 90
_cell_angle_gamma                90
_cell_volume                     13054.3
_exptl_crystal_colour            colorless
_exptl_crystal_description       block
_cell_formula_units_Z            4
_exptl_crystal_recrystallization_method water/acetonitrile
loop_
_atom_site_label
_atom_site_type_symbol
_atom_site_fract_x
_atom_site_fract_y
_atom_site_fract_z
O1 O 0.8245(2) 0.37730(18) 0.55463(7)
H1 H 0.8481 0.4188 0.5535
O2 O 0.8656(2) 0.52554(17) 0.53859(8)
H2 H 0.8203 0.5412 0.5307
O3 O 0.69989(19) 0.5445(2) 0.51736(9)
H3 H 0.6893 0.5005 0.5132
O4 O 0.6680(2) 0.39863(17) 0.52840(8)
H4 H 0.7099 0.3812 0.5377
O5 O 0.43950(19) 0.23593(14) 0.66511(6)
O6 O 0.34191(18) 0.32635(14) 0.64939(6)
O7 O 0.33597(17) 0.58752(14) 0.65127(6)
O8 O 0.43814(18) 0.67541(13) 0.66501(6)
O9 O 0.72249(18) 0.67407(14) 0.70429(7)
O10 O 0.82256(18) 0.58552(15) 0.72027(7)
O11 O 0.82118(18) 0.32341(15) 0.72229(6)
O12 O 0.71995(19) 0.23487(14) 0.70722(6)
C1 C 0.2001(3) 0.5642(3) 0.77579(11)
H5 H 0.2344 0.5231 0.7838
H6 H 0.2145 0.6083 0.7873
C2 C 0.2332(3) 0.5780(3) 0.74517(10)
H7 H 0.2189 0.5348 0.7331
H8 H 0.2025 0.6210 0.7370
C3 C 0.3296(3) 0.5916(2) 0.74366(9)
H9 H 0.3598 0.5522 0.7544
H10 H 0.3426 0.6388 0.7534
C4 C -0.0621(10) 0.2658(16) 0.7883(4)
H11 H -0.0941 0.2981 0.7752
H12 H -0.0904 0.2658 0.8072
H13 H -0.0614 0.2158 0.7806
C5 C 0.0296(9) 0.2934(12) 0.7914(3)
H14 H 0.0616 0.2603 0.8046
H15 H 0.0285 0.3429 0.8003
C6 C 0.0772(7) 0.2974(13) 0.7630(3)
H16 H 0.0460 0.3317 0.7501
H17 H 0.0764 0.2482 0.7539
C7 C 0.1719(3) 0.3230(3) 0.76593(12)
H18 H 0.1729 0.3749 0.7723
H19 H 0.2014 0.2930 0.7807
C8 C 0.2204(3) 0.3161(3) 0.73750(11)
H20 H 0.2010 0.2708 0.7277
H21 H 0.2046 0.3583 0.7251
C9 C 0.3183(3) 0.3138(2) 0.74042(9)
H22 H 0.3352 0.2687 0.7510
H23 H 0.3379 0.3566 0.7518
C10 C 0.7854(8) 0.5365(6) 0.91122(19)
H24 H 0.8309 0.5084 0.9014
H25 H 0.7635 0.5082 0.9276
H26 H 0.8094 0.5832 0.9181
C11 C 0.7117(6) 0.5518(5) 0.89026(15)
H27 H 0.6670 0.5131 0.8924
H28 H 0.6846 0.5995 0.8952
C12 C 0.7408(5) 0.5538(4) 0.86027(13)
H29 H 0.7668 0.5056 0.8554
H30 H 0.7868 0.5914 0.8584
C13 C 0.6681(4) 0.5710(3) 0.83830(11)
H31 H 0.6262 0.5299 0.8381
H32 H 0.6369 0.6158 0.8445
C14 C 0.7029(3) 0.5826(3) 0.80812(10)
H33 H 0.7367 0.5387 0.8024
H34 H 0.7430 0.6251 0.8083
C15 C 0.6330(3) 0.5962(2) 0.78572(9)
H35 H 0.6047 0.6440 0.7896
H36 H 0.5885 0.5573 0.7871
C16 C 0.7901(5) 0.2969(5) 0.91111(18)
H37 H 0.8101 0.2474 0.9061
H38 H 0.7709 0.2977 0.9312
H39 H 0.8377 0.3320 0.9086
C17 C 0.7166(5) 0.3177(5) 0.89204(15)
H40 H 0.6671 0.2844 0.8956
H41 H 0.6978 0.3684 0.8966
C18 C 0.7412(5) 0.3137(5) 0.86213(14)
H42 H 0.7624 0.2634 0.8581
H43 H 0.7901 0.3479 0.8589
C19 C 0.6680(4) 0.3322(3) 0.84013(10)
H44 H 0.6176 0.2997 0.8436
H45 H 0.6489 0.3836 0.8429
C20 C 0.6995(3) 0.3222(3) 0.80988(10)
H46 H 0.7340 0.2764 0.8089
H47 H 0.7386 0.3635 0.8050
C21 C 0.6278(3) 0.3182(2) 0.78705(9)
H48 H 0.5925 0.2735 0.7902
H49 H 0.5892 0.3614 0.7890
C22 C 0.5802(3) 0.23996(19) 0.68581(8)
C23 C 0.3638(3) 0.5128(2) 0.54799(9)
C24 C 0.3319(2) 0.4586(2) 0.56301(8)
C25 C 0.6131(3) 0.2044(2) 0.66083(9)
C26 C 0.6363(3) 0.65168(19) 0.70688(9)
C27 C 0.3613(2) 0.4548(2) 0.70985(8)
H50 H 0.3690 0.4539 0.7301
C28 C 0.3399(2) 0.4583(2) 0.61974(8)
C29 C 0.4928(3) 0.65161(19) 0.68664(8)
C30 C 0.6399(3) 0.1764(2) 0.63909(9)
C31 C 0.3368(2) 0.4600(2) 0.59393(8)
C32 C 0.6375(3) 0.1523(2) 0.58907(9)
C33 C 0.3467(2) 0.52234(19) 0.66643(9)
C34 C 0.3443(2) 0.4568(2) 0.65046(8)
C35 C 0.4130(3) 0.6239(2) 0.64385(9)
H51 H 0.4049 0.6496 0.6253
H52 H 0.4598 0.5873 0.6413
C36 C 1.0107(2) 0.4502(3) 0.66080(9)
C37 C 0.7089(3) 0.3889(2) 0.74787(8)
C38 C 0.6665(3) 0.3165(2) 0.75675(9)
H53 H 0.7132 0.2785 0.7569
C39 C 0.6397(3) 0.7257(2) 0.63588(10)
C40 C 0.7828(3) 0.5212(2) 0.72941(9)
C41 C 0.6692(3) 0.7598(2) 0.60979(10)
C42 C 0.3633(3) 0.3146(2) 0.71106(9)
H54 H 0.3333 0.2771 0.6989
C43 C 0.6340(3) 0.2582(2) 0.70888(9)
C44 C 0.8191(2) 0.4544(2) 0.72041(8)
C45 C 0.3658(3) 0.5946(2) 0.71267(9)
H55 H 0.3321 0.6328 0.7020
C46 C 0.4927(3) 0.25833(19) 0.68754(8)
C47 C 0.4607(3) 0.61645(19) 0.71126(9)
C48 C 0.7813(3) 0.3891(2) 0.73031(9)
C49 C 0.6706(3) 0.5969(2) 0.75538(9)
H56 H 0.7181 0.6342 0.7551
C50 C 0.6029(3) 0.29452(18) 0.73307(8)
C51 C 0.3558(2) 0.3880(2) 0.69513(9)
C52 C 0.8334(3) 0.7499(2) 0.59552(10)
C53 C 0.6744(3) 0.1413(2) 0.61412(9)
C54 C 0.6125(3) 0.7006(2) 0.65785(9)
C55 C 0.5188(3) 0.6000(2) 0.73324(8)
H57 H 0.4978 0.5758 0.7500
C56 C 0.2858(3) 0.3918(2) 0.54911(9)
C57 C 0.9451(2) 0.4511(3) 0.68276(9)
C58 C 0.3896(3) 0.5683(2) 0.53200(9)
C59 C 0.6739(2) 0.4568(2) 0.75546(8)
H58 H 0.6229 0.4577 0.7669
C60 C 0.6069(3) 0.61757(18) 0.73172(8)
C61 C 0.6094(3) 0.2222(2) 0.54628(9)
C62 C 0.3485(2) 0.3903(2) 0.66564(8)
C63 C 0.8626(3) 0.6917(3) 0.57691(10)
C64 C 0.8908(3) 0.3207(3) 0.55481(10)
C65 C 0.7507(3) 0.7541(2) 0.60234(10)
C66 C 0.5806(3) 0.66867(19) 0.68396(9)
C67 C 0.8893(2) 0.4530(2) 0.70070(9)
C68 C 0.7106(3) 0.5231(2) 0.74701(9)
C69 C 0.6398(3) 0.5910(3) 0.50304(11)
C70 C 0.3558(2) 0.5222(2) 0.69615(8)
C71 C 0.6265(3) 0.3412(2) 0.51255(10)
C72 C 0.4197(3) 0.2890(2) 0.64378(9)
H59 H 0.4676 0.3251 0.6427
H60 H 0.4154 0.2644 0.6248
C73 C 0.4780(3) 0.5730(2) 0.52243(9)
C74 C 1.0208(3) 0.3895(3) 0.64550(10)
C75 C 0.5512(3) 0.5806(2) 0.51447(10)
C76 C 0.5152(3) 0.3117(2) 0.73384(9)
H61 H 0.4928 0.3363 0.7503
C77 C 0.5946(3) 0.1603(2) 0.56480(9)
C78 C 0.6178(3) 0.2754(2) 0.53101(9)
C79 C 0.2914(3) 0.3954(3) 0.51628(10)
H62 H 0.2649 0.4411 0.5095
H63 H 0.2606 0.3534 0.5080
H64 H 0.3523 0.3939 0.5104
C80 C 0.7837(3) 0.6207(2) 0.69603(10)
H65 H 0.8294 0.6443 0.6843
H66 H 0.7548 0.5832 0.6839
C81 C 0.7542(3) 0.0920(2) 0.61873(10)
C82 C 0.7825(3) 0.0577(3) 0.58998(11)
H67 H 0.7357 0.0267 0.5825
H68 H 0.8344 0.0278 0.5930
H69 H 0.7953 0.0968 0.5761
C83 C 1.0666(3) 0.5183(3) 0.65699(11)
C84 C 0.7832(3) 0.2870(2) 0.69879(9)
H70 H 0.8291 0.2616 0.6877
H71 H 0.7560 0.3237 0.6860
C85 C 0.4587(3) 0.29421(19) 0.71129(9)
C86 C 0.6779(4) 0.3228(3) 0.48575(11)
H72 H 0.6837 0.3668 0.4738
H73 H 0.6478 0.2844 0.4749
H74 H 0.7356 0.3052 0.4913
C87 C 0.1904(3) 0.3950(3) 0.55808(11)
H75 H 0.1864 0.3980 0.5791
H76 H 0.1606 0.3507 0.5513
H77 H 0.1631 0.4385 0.5495
C88 C 0.4387(3) 0.1449(3) 0.55133(12)
H78 H 0.4194 0.1650 0.5698
H79 H 0.3953 0.1103 0.5441
H80 H 0.4461 0.1851 0.5375
C89 C 0.8886(3) 0.6427(3) 0.56158(10)
C90 C 0.9818(3) 0.3259(3) 0.60350(10)
C91 C 1.0900(3) 0.2668(3) 0.63843(10)
C92 C 0.3276(3) 0.6302(3) 0.52275(11)
C93 C 0.6013(3) 0.8021(3) 0.59162(11)
C94 C 0.9401(3) 0.3246(3) 0.58172(10)
C95 C 0.9710(4) 0.7622(3) 0.62303(12)
H81 H 0.9443 0.7342 0.6387
H82 H 1.0134 0.7968 0.6310
H83 H 1.0003 0.7284 0.6098
C96 C 0.9499(4) 0.3328(3) 0.52960(11)
H84 H 0.9166 0.3287 0.5117
H85 H 0.9959 0.2957 0.5298
H86 H 0.9756 0.3819 0.5309
C97 C 0.8273(3) 0.1373(3) 0.63148(12)
H87 H 0.8429 0.1767 0.6181
H88 H 0.8777 0.1057 0.6348
H89 H 0.8084 0.1586 0.6498
C98 C 0.5151(4) 0.0450(3) 0.57834(12)
H90 H 0.5701 0.0190 0.5810
H91 H 0.4705 0.0101 0.5721
H92 H 0.4976 0.0676 0.5966
C99 C 1.1610(3) 0.2583(3) 0.61592(12)
H93 H 1.1997 0.2180 0.6215
H94 H 1.1942 0.3040 0.6146
H95 H 1.1348 0.2473 0.5972
C100 C 1.0359(3) 0.1965(3) 0.63971(14)
H96 H 1.0114 0.1863 0.6207
H97 H 0.9888 0.2028 0.6536
H98 H 1.0727 0.1553 0.6456
C101 C 0.3275(3) 0.3215(2) 0.56017(10)
H99 H 0.3885 0.3202 0.5544
H100 H 0.2973 0.2789 0.5520
H101 H 0.3235 0.3200 0.5812
C102 C 0.3625(4) 0.7034(3) 0.53423(16)
H102 H 0.3682 0.7006 0.5552
H103 H 0.3223 0.7430 0.5292
H104 H 0.4193 0.7133 0.5257
C103 C 1.0302(3) 0.3304(3) 0.62987(10)
C104 C 0.7282(3) 0.0316(2) 0.64029(11)
H105 H 0.7091 0.0544 0.6583
H106 H 0.7782 -0.0002 0.6441
H107 H 0.6809 0.0023 0.6322
C105 C 1.1259(3) 0.5089(3) 0.63104(12)
H108 H 1.1645 0.4669 0.6342
H109 H 1.1605 0.5535 0.6284
H110 H 1.0908 0.5001 0.6138
C106 C 1.1204(3) 0.5282(3) 0.68414(12)
H111 H 1.0819 0.5325 0.7008
H112 H 1.1555 0.5728 0.6824
H113 H 1.1585 0.4856 0.6867
C107 C 0.5367(3) 0.3706(3) 0.50536(12)
H114 H 0.5066 0.3839 0.5232
H115 H 0.5036 0.3328 0.4952
H116 H 0.5422 0.4142 0.4931
C108 C 0.5261(3) 0.1046(2) 0.55545(10)
C109 C 0.8433(4) 0.2482(3) 0.55293(12)
H117 H 0.8018 0.2445 0.5688
H118 H 0.8850 0.2078 0.5542
H119 H 0.8122 0.2454 0.5346
C110 C 0.6398(4) 0.5728(5) 0.47127(14)
H120 H 0.6976 0.5816 0.4633
H121 H 0.5975 0.6038 0.4613
H122 H 0.6243 0.5210 0.4686
C111 C 1.1296(3) 0.2814(3) 0.66800(12)
H123 H 1.1668 0.2400 0.6734
H124 H 1.0833 0.2870 0.6822
H125 H 1.1642 0.3265 0.6673
C112 C 0.5563(4) 0.0698(3) 0.52728(12)
H126 H 0.5703 0.1085 0.5134
H127 H 0.5100 0.0387 0.5195
H128 H 0.6079 0.0398 0.5309
C113 C 1.0088(3) 0.5855(3) 0.65289(15)
H129 H 0.9727 0.5788 0.6357
H130 H 1.0450 0.6293 0.6505
H131 H 0.9715 0.5916 0.6698
C114 C 0.3255(4) 0.6329(4) 0.49016(13)
H132 H 0.3834 0.6448 0.4829
H133 H 0.2843 0.6706 0.4839
H134 H 0.3075 0.5850 0.4826
C115 C 0.5346(4) 0.7464(4) 0.58067(16)
H135 H 0.5644 0.7066 0.5705
H136 H 0.4942 0.7709 0.5675
H137 H 0.5024 0.7261 0.5970
C116 C 0.6710(4) 0.6685(3) 0.50937(19)
H138 H 0.6744 0.6757 0.5302
H139 H 0.6303 0.7040 0.5011
H140 H 0.7285 0.6757 0.5008
C117 C 0.2370(3) 0.6176(3) 0.53420(14)
H141 H 0.2130 0.5728 0.5256
H142 H 0.2003 0.6596 0.5292
H143 H 0.2392 0.6121 0.5552
C118 C 0.9257(3) 0.5856(3) 0.54255(11)
C119 C 1.0033(3) 0.5500(3) 0.55656(15)
H144 H 0.9853 0.5259 0.5744
H145 H 1.0468 0.5876 0.5609
H146 H 1.0280 0.5134 0.5434
C120 C 0.9468(4) 0.6201(3) 0.51388(13)
H147 H 0.9696 0.5825 0.5008
H148 H 0.9904 0.6587 0.5166
H149 H 0.8942 0.6416 0.5056
C121 C 0.9012(3) 0.8046(2) 0.60680(9)
C122 C 0.5552(4) 0.8586(3) 0.61032(13)
H150 H 0.5297 0.8340 0.6271
H151 H 0.5094 0.8824 0.5991
H152 H 0.5969 0.8956 0.6168
C123 C 0.8590(4) 0.8594(3) 0.62754(12)
H153 H 0.8122 0.8855 0.6176
H154 H 0.9025 0.8949 0.6341
H155 H 0.8353 0.8329 0.6441
C124 C 0.9412(3) 0.8457(3) 0.58172(12)
H156 H 0.9641 0.8104 0.5677
H157 H 0.9885 0.8769 0.5887
H158 H 0.8970 0.8763 0.5725
C125 C 0.6437(4) 0.8405(3) 0.56637(12)
H159 H 0.6817 0.8797 0.5735
H160 H 0.5990 0.8618 0.5540
H161 H 0.6780 0.8050 0.5553
C126 C 0.1089(7) 0.5475(11) 0.7812(4)
H162 H 0.1019 0.5299 0.8012
H163 H 0.0899 0.5077 0.7681
C127 C 0.0529(7) 0.6148(8) 0.7765(3)
H164 H 0.0601 0.6325 0.7565
H165 H 0.0717 0.6545 0.7897
C128 C -0.0423(7) 0.5972(12) 0.7820(3)
H166 H -0.0630 0.5626 0.7674
H167 H -0.0764 0.6425 0.7810
H168 H -0.0486 0.5753 0.8011
I1 I 0.59936(2) 0.45460(2) 0.67091(2)
C135 C 0.6566(4) 0.4112(3) 0.63076(11)
H187 H 0.6588 0.3565 0.6325
C136 C 0.5995(4) 0.4293(3) 0.60505(12)
H188 H 0.6176 0.3988 0.5885
H189 H 0.5388 0.4164 0.6097
C137 C 0.6034(5) 0.5089(4) 0.59657(13)
H190 H 0.5703 0.5162 0.5786
H191 H 0.5759 0.5391 0.6118
C138 C 0.6949(5) 0.5342(4) 0.59219(13)
H192 H 0.7198 0.5089 0.5752
H193 H 0.6951 0.5877 0.5882
C139 C 0.7492(5) 0.5192(5) 0.61763(15)
H194 H 0.7286 0.5494 0.6340
H195 H 0.8097 0.5336 0.6134
C140 C 0.7469(4) 0.4376(5) 0.62627(14)
H196 H 0.7747 0.4079 0.6110
H197 H 0.7804 0.4307 0.6442
N1 N 0.5507(3) 0.9591(3) 0.71056(11)
C141 C 0.5962(5) 0.9228(3) 0.69833(11)
C142 C 0.6577(7) 0.8758(4) 0.68300(13)
H198 H 0.6575 0.8885 0.6625
H199 H 0.6409 0.8243 0.6854
H200 H 0.7160 0.8832 0.6909
C129? C -0.0458(8) 0.5271(14) 0.7985(4)
H169? H -0.0601 0.5056 0.7797
H170? H -0.0758 0.5742 0.8007
H171? H -0.0642 0.4935 0.8138
C130? C 0.0518(7) 0.5392(9) 0.8004(3)
H172? H 0.0628 0.5803 0.8139
H173? H 0.0786 0.4946 0.8088
C131? C 0.0960(8) 0.5559(15) 0.7725(4)
H174? H 0.0721 0.6021 0.7645
H175? H 0.0834 0.5161 0.7586
H176? H 0.2147 0.6060 0.7885
H177? H 0.2257 0.5188 0.7839
H178? H 0.1873 0.2804 0.7781
H179? H 0.1928 0.3677 0.7759
C132? C -0.0676(10) 0.329(2) 0.7909(5)
H180? H -0.0856 0.2893 0.7777
H181? H -0.0880 0.3760 0.7835
H182? H -0.0926 0.3198 0.8100
C133? C 0.0308(10) 0.3297(15) 0.7931(5)
H183? H 0.0490 0.3748 0.8033
H184? H 0.0500 0.2870 0.8047
C134? C 0.0751(9) 0.3270(16) 0.7640(5)
H185? H 0.0537 0.2837 0.7533
H186? H 0.0589 0.3714 0.7529
loop_
_geom_bond_atom_site_label_1
_geom_bond_atom_site_label_2
_geom_bond_site_symmetry_1
_geom_bond_site_symmetry_2
O1 H1 1_555 1_555
O2 H2 1_555 1_555
O3 H3 1_555 1_555
O4 H4 1_555 1_555
O5 C46 1_555 1_555
O6 C62 1_555 1_555
O7 C33 1_555 1_555
O8 C29 1_555 1_555
O9 C26 1_555 1_555
O10 C40 1_555 1_555
O11 C48 1_555 1_555
O12 C43 1_555 1_555
C1 H5 1_555 1_555
H6 C1 1_555 1_555
C2 C1 1_555 1_555
H7 C2 1_555 1_555
H8 C2 1_555 1_555
C3 C2 1_555 1_555
H9 C3 1_555 1_555
H10 C3 1_555 1_555
C4 H11 1_555 1_555
H12 C4 1_555 1_555
H13 C4 1_555 1_555
C5 C4 1_555 1_555
H14 C5 1_555 1_555
H15 C5 1_555 1_555
C6 C5 1_555 1_555
H16 C6 1_555 1_555
H17 C6 1_555 1_555
C7 C6 1_555 1_555
H18 C7 1_555 1_555
H19 C7 1_555 1_555
C8 C7 1_555 1_555
H20 C8 1_555 1_555
H21 C8 1_555 1_555
C9 C8 1_555 1_555
H22 C9 1_555 1_555
H23 C9 1_555 1_555
C10 H24 1_555 1_555
H25 C10 1_555 1_555
H26 C10 1_555 1_555
C11 C10 1_555 1_555
H27 C11 1_555 1_555
H28 C11 1_555 1_555
C12 C11 1_555 1_555
H29 C12 1_555 1_555
H30 C12 1_555 1_555
C13 C12 1_555 1_555
H31 C13 1_555 1_555
H32 C13 1_555 1_555
C14 C13 1_555 1_555
H33 C14 1_555 1_555
H34 C14 1_555 1_555
C15 C14 1_555 1_555
H35 C15 1_555 1_555
H36 C15 1_555 1_555
C16 H37 1_555 1_555
H38 C16 1_555 1_555
H39 C16 1_555 1_555
C17 C16 1_555 1_555
H40 C17 1_555 1_555
H41 C17 1_555 1_555
C18 C17 1_555 1_555
H42 C18 1_555 1_555
H43 C18 1_555 1_555
C19 C18 1_555 1_555
H44 C19 1_555 1_555
H45 C19 1_555 1_555
C20 C19 1_555 1_555
H46 C20 1_555 1_555
H47 C20 1_555 1_555
C21 C20 1_555 1_555
H48 C21 1_555 1_555
H49 C21 1_555 1_555
C22 C25 1_555 1_555
C23 C24 1_555 1_555
C24 C31 1_555 1_555
C25 C30 1_555 1_555
C26 C60 1_555 1_555
C27 H50 1_555 1_555
C28 C31 1_555 1_555
C29 C47 1_555 1_555
C30 C53 1_555 1_555
C32 C53 1_555 1_555
C33 C34 1_555 1_555
C34 C28 1_555 1_555
C35 O7 1_555 1_555
H51 C35 1_555 1_555
H52 C35 1_555 1_555
C36 C57 1_555 1_555
C37 C38 1_555 1_555
C38 C21 1_555 1_555
H53 C38 1_555 1_555
C39 C41 1_555 1_555
C40 C44 1_555 1_555
C41 C65 1_555 1_555
C42 C9 1_555 1_555
H54 C42 1_555 1_555
C43 C22 1_555 1_555
C44 C48 1_555 1_555
C45 C3 1_555 1_555
H55 C45 1_555 1_555
C46 C22 1_555 1_555
C47 C45 1_555 1_555
C48 C37 1_555 1_555
C49 C15 1_555 1_555
H56 C49 1_555 1_555
C50 C38 1_555 1_555
C51 C27 1_555 1_555
C52 C63 1_555 1_555
C53 C81 1_555 1_555
C54 C39 1_555 1_555
C55 C47 1_555 1_555
H57 C55 1_555 1_555
C56 C24 1_555 1_555
C57 C67 1_555 1_555
C58 C23 1_555 1_555
C59 C37 1_555 1_555
H58 C59 1_555 1_555
C60 C49 1_555 1_555
C61 C77 1_555 1_555
C62 C34 1_555 1_555
C63 C89 1_555 1_555
C64 O1 1_555 1_555
C65 C52 1_555 1_555
C66 C26 1_555 1_555
C67 C44 1_555 1_555
C68 C40 1_555 1_555
C69 O3 1_555 1_555
C70 C27 1_555 1_555
C71 O4 1_555 1_555
C72 O5 1_555 1_555
H59 C72 1_555 1_555
H60 C72 1_555 1_555
C73 C58 1_555 1_555
C74 C36 1_555 1_555
C75 C69 1_555 1_555
C76 C50 1_555 1_555
H61 C76 1_555 1_555
C77 C32 1_555 1_555
C78 C61 1_555 1_555
C79 C56 1_555 1_555
H62 C79 1_555 1_555
H63 C79 1_555 1_555
H64 C79 1_555 1_555
C80 O9 1_555 1_555
H65 C80 1_555 1_555
H66 C80 1_555 1_555
C81 C82 1_555 1_555
C82 H67 1_555 1_555
H68 C82 1_555 1_555
H69 C82 1_555 1_555
C83 C36 1_555 1_555
C84 O11 1_555 1_555
H70 C84 1_555 1_555
H71 C84 1_555 1_555
C85 C42 1_555 1_555
C86 C71 1_555 1_555
H72 C86 1_555 1_555
H73 C86 1_555 1_555
H74 C86 1_555 1_555
C87 C56 1_555 1_555
H75 C87 1_555 1_555
H76 C87 1_555 1_555
H77 C87 1_555 1_555
C88 H78 1_555 1_555
H79 C88 1_555 1_555
H80 C88 1_555 1_555
C89 C118 1_555 1_555
C90 C94 1_555 1_555
C91 C99 1_555 1_555
C92 C58 1_555 1_555
C93 C41 1_555 1_555
C94 C64 1_555 1_555
C95 H81 1_555 1_555
H82 C95 1_555 1_555
H83 C95 1_555 1_555
C96 C64 1_555 1_555
H84 C96 1_555 1_555
H85 C96 1_555 1_555
H86 C96 1_555 1_555
C97 C81 1_555 1_555
H87 C97 1_555 1_555
H88 C97 1_555 1_555
H89 C97 1_555 1_555
C98 H90 1_555 1_555
H91 C98 1_555 1_555
H92 C98 1_555 1_555
C99 H93 1_555 1_555
H94 C99 1_555 1_555
H95 C99 1_555 1_555
C100 C91 1_555 1_555
H96 C100 1_555 1_555
H97 C100 1_555 1_555
H98 C100 1_555 1_555
C101 C56 1_555 1_555
H99 C101 1_555 1_555
H100 C101 1_555 1_555
H101 C101 1_555 1_555
C102 C92 1_555 1_555
H102 C102 1_555 1_555
H103 C102 1_555 1_555
H104 C102 1_555 1_555
C103 C74 1_555 1_555
C104 C81 1_555 1_555
H105 C104 1_555 1_555
H106 C104 1_555 1_555
H107 C104 1_555 1_555
C105 C83 1_555 1_555
H108 C105 1_555 1_555
H109 C105 1_555 1_555
H110 C105 1_555 1_555
C106 C83 1_555 1_555
H111 C106 1_555 1_555
H112 C106 1_555 1_555
H113 C106 1_555 1_555
C107 C71 1_555 1_555
H114 C107 1_555 1_555
H115 C107 1_555 1_555
H116 C107 1_555 1_555
C108 C77 1_555 1_555
C109 C64 1_555 1_555
H117 C109 1_555 1_555
H118 C109 1_555 1_555
H119 C109 1_555 1_555
C110 C69 1_555 1_555
H120 C110 1_555 1_555
H121 C110 1_555 1_555
H122 C110 1_555 1_555
C111 C91 1_555 1_555
H123 C111 1_555 1_555
H124 C111 1_555 1_555
H125 C111 1_555 1_555
C112 C108 1_555 1_555
H126 C112 1_555 1_555
H127 C112 1_555 1_555
H128 C112 1_555 1_555
C113 C83 1_555 1_555
H129 C113 1_555 1_555
H130 C113 1_555 1_555
H131 C113 1_555 1_555
C114 C92 1_555 1_555
H132 C114 1_555 1_555
H133 C114 1_555 1_555
H134 C114 1_555 1_555
C115 C93 1_555 1_555
H135 C115 1_555 1_555
H136 C115 1_555 1_555
H137 C115 1_555 1_555
C116 C69 1_555 1_555
H138 C116 1_555 1_555
H139 C116 1_555 1_555
H140 C116 1_555 1_555
C117 C92 1_555 1_555
H141 C117 1_555 1_555
H142 C117 1_555 1_555
H143 C117 1_555 1_555
C118 O2 1_555 1_555
C119 C118 1_555 1_555
H144 C119 1_555 1_555
H145 C119 1_555 1_555
H146 C119 1_555 1_555
C120 C118 1_555 1_555
H147 C120 1_555 1_555
H148 C120 1_555 1_555
H149 C120 1_555 1_555
C121 C52 1_555 1_555
C122 C93 1_555 1_555
H150 C122 1_555 1_555
H151 C122 1_555 1_555
H152 C122 1_555 1_555
C123 C121 1_555 1_555
H153 C123 1_555 1_555
H154 C123 1_555 1_555
H155 C123 1_555 1_555
C124 C121 1_555 1_555
H156 C124 1_555 1_555
H157 C124 1_555 1_555
H158 C124 1_555 1_555
C125 C93 1_555 1_555
H159 C125 1_555 1_555
H160 C125 1_555 1_555
H161 C125 1_555 1_555
C126 C1 1_555 1_555
H162 C126 1_555 1_555
H163 C126 1_555 1_555
C127 C126 1_555 1_555
H164 C127 1_555 1_555
H165 C127 1_555 1_555
C128 C127 1_555 1_555
H166 C128 1_555 1_555
H167 C128 1_555 1_555
H168 C128 1_555 1_555
I1 C135 1_555 1_555
C135 H187 1_555 1_555
C136 C135 1_555 1_555
H188 C136 1_555 1_555
H189 C136 1_555 1_555
C137 C136 1_555 1_555
H190 C137 1_555 1_555
H191 C137 1_555 1_555
C138 C137 1_555 1_555
H192 C138 1_555 1_555
H193 C138 1_555 1_555
C139 C138 1_555 1_555
H194 C139 1_555 1_555
H195 C139 1_555 1_555
C140 C135 1_555 1_555
H196 C140 1_555 1_555
H197 C140 1_555 1_555
N1 C141 1_555 1_555
C141 C142 1_555 1_555
C142 H198 1_555 1_555
H199 C142 1_555 1_555
H200 C142 1_555 1_555
O6 C72 1_555 1_555
O8 C35 1_555 1_555
O10 C80 1_555 1_555
O12 C84 1_555 1_555
C29 C66 1_555 1_555
C33 C70 1_555 1_555
C42 C51 1_555 1_555
C43 C50 1_555 1_555
C45 C70 1_555 1_555
C46 C85 1_555 1_555
C49 C68 1_555 1_555
C51 C62 1_555 1_555
C54 C66 1_555 1_555
C55 C60 1_555 1_555
C59 C68 1_555 1_555
C71 C78 1_555 1_555
C73 C75 1_555 1_555
C76 C85 1_555 1_555
C88 C108 1_555 1_555
C90 C103 1_555 1_555
C91 C103 1_555 1_555
C95 C121 1_555 1_555
C98 C108 1_555 1_555
C139 C140 1_555 1_555

#END
