
#######################################################################
#
#                 Cambridge Crystallographic Data Centre
#                                CCDC 
#
#######################################################################
#
# If this CIF has been generated from an entry in the Cambridge 
# Structural Database, then it will include bibliographic, chemical, 
# crystal, experimental, refinement or atomic coordinate data resulting 
# from the CCDC's data processing and validation procedures.
#
#######################################################################

data_MEDMOA
_chemical_formula_moiety         'C128 H168 O12,0.38(C6 H10 Br1 F1)'
_chemical_name_systematic        
"(P)-2,8,14,20-tetrahexyl-5,11,17,23-tetrakis(3,5-di-t-butyl-8-hydroxy-8-methylnona-3,4-diene-1,6-diyn-1-yl)-4,24:6,10:12,16:18,22-O,O'-tetramethylenecalix[4]resorcinarene (trans)-1-bromo-2-fluorocyclohexane"
_symmetry_cell_setting           orthorhombic
_symmetry_space_group_name_H-M   'P 21 21 21'
_symmetry_Int_Tables_number      19
_space_group_name_Hall           'P 2ac 2ab'
loop_
_symmetry_equiv_pos_site_id
_symmetry_equiv_pos_as_xyz
1 x,y,z
2 1/2-x,-y,1/2+z
3 -x,1/2+y,1/2-z
4 1/2+x,1/2-y,-z
_cell_length_a                   15.6223(2)
_cell_length_b                   18.7222(3)
_cell_length_c                   43.2981(7)
_cell_angle_alpha                90
_cell_angle_beta                 90
_cell_angle_gamma                90
_cell_volume                     12664
_exptl_crystal_colour            colorless
_exptl_crystal_description       plate
_cell_formula_units_Z            4
_exptl_crystal_recrystallization_method water/acetonitrile
loop_
_atom_site_label
_atom_site_type_symbol
_atom_site_fract_x
_atom_site_fract_y
_atom_site_fract_z
Br1 Br 0.57559(13) 0.46615(12) 0.67416(4)
C1 C 0.5823(19) 0.5214(16) 0.5979(5)
H1 H 0.5537 0.5273 0.5782
H2 H 0.5541 0.5521 0.6128
C2 C 0.5741(14) 0.4424(15) 0.6085(5)
H3 H 0.5158 0.4390 0.6167
C3 C 0.6293(13) 0.4297(14) 0.6357(4)
H4 H 0.6338 0.3778 0.6380
C4 C 0.7196(16) 0.458(2) 0.6333(6)
H5 H 0.7461 0.4528 0.6534
H6 H 0.7507 0.4267 0.6192
C5 C 0.732(3) 0.532(2) 0.6230(5)
H7 H 0.7913 0.5393 0.6169
H8 H 0.7183 0.5648 0.6394
F1 F 0.5763(18) 0.3954(13) 0.5867(4)
C6 C 0.671(2) 0.543(2) 0.5949(6)
H9 H 0.6724 0.5930 0.5896
H10 H 0.6955 0.5169 0.5775
O1 O 0.3263(2) 0.5865(2) 0.65318(8)
O2 O 0.4266(2) 0.6735(2) 0.66755(8)
O3 O 0.3316(2) 0.3328(2) 0.65112(8)
O4 O 0.8107(2) 0.5897(2) 0.72454(10)
O5 O 0.7091(2) 0.6743(2) 0.70818(9)
O6 O 0.4327(3) 0.2462(2) 0.66545(9)
O7 O 0.8144(3) 0.3350(2) 0.72327(10)
O8 O 0.7152(3) 0.2487(2) 0.70662(10)
O9 O 0.6727(3) 0.5532(3) 0.52074(14)
H11 H 0.6662 0.5134 0.5132
C7 C 0.3501(4) 0.3926(3) 0.70007(12)
C8 C 0.3399(4) 0.3950(3) 0.66834(12)
C9 C 0.3557(3) 0.4578(3) 0.71560(11)
H12 H 0.3645 0.4570 0.7368
C10 C 0.7738(4) 0.5260(3) 0.73406(13)
C11 C 0.3489(3) 0.5236(3) 0.70124(11)
C12 C 0.6243(4) 0.6514(3) 0.71121(13)
C13 C 0.5973(4) 0.7072(3) 0.66049(13)
C14 C 0.3373(3) 0.5235(3) 0.66941(11)
C15 C 0.5967(4) 0.6164(3) 0.73774(13)
C16 C 0.3185(3) 0.4627(3) 0.59187(12)
C17 C 0.3105(3) 0.4648(3) 0.55892(11)
C18 C 0.5101(4) 0.5994(3) 0.73990(12)
H13 H 0.4905 0.5762 0.7575
C19 C 0.4813(4) 0.6510(3) 0.69081(12)
C20 C 0.6651(4) 0.3237(3) 0.76168(13)
H14 H 0.7114 0.2884 0.7611
C21 C 0.3252(3) 0.4607(3) 0.61950(12)
C22 C 0.3404(3) 0.5201(3) 0.54409(12)
C23 C 0.7709(4) 0.6235(3) 0.69896(14)
H15 H 0.8143 0.6471 0.6866
H16 H 0.7436 0.5876 0.6862
C24 C 0.4521(3) 0.6157(3) 0.71682(12)
C25 C 0.7026(4) 0.5257(3) 0.75355(12)
C26 C 0.2668(4) 0.4010(3) 0.54287(13)
C27 C 0.6199(4) 0.7376(3) 0.63799(14)
C28 C 0.4023(4) 0.6225(3) 0.64510(13)
H17 H 0.3943 0.6463 0.6254
H18 H 0.4480 0.5879 0.6427
C29 C 0.7045(4) 0.3949(3) 0.75275(13)
C30 C 0.5683(4) 0.6697(3) 0.68754(12)
C31 C 0.3342(3) 0.4590(3) 0.65232(11)
C32 C 0.5774(4) 0.8251(3) 0.59568(13)
C33 C 0.8371(4) 0.7075(4) 0.57598(13)
C34 C 0.6696(3) 0.4603(3) 0.76228(12)
H19 H 0.6218 0.4596 0.7751
C35 C 0.7742(4) 0.3975(3) 0.73326(14)
C36 C 0.3063(4) 0.6402(4) 0.52176(14)
C37 C 0.8074(4) 0.7640(3) 0.59540(12)
C38 C 0.6611(4) 0.5964(3) 0.76286(13)
H20 H 0.7062 0.6328 0.7626
C39 C 0.3610(4) 0.3217(3) 0.71695(13)
H21 H 0.3296 0.2859 0.7049
O10 O 0.8315(4) 0.5362(3) 0.54431(15)
H22 H 0.7838 0.5514 0.5399
C40 C 0.6593(4) 0.1575(3) 0.60647(15)
C41 C 0.6013(4) 0.3024(3) 0.73632(14)
C42 C 0.3655(4) 0.5782(4) 0.52937(13)
C43 C 0.5866(4) 0.2357(4) 0.53554(15)
C44 C 0.6447(4) 0.7777(3) 0.61080(13)
C45 C 0.8104(3) 0.4630(4) 0.72371(13)
O11 O 0.6557(5) 0.4061(3) 0.51624(17)
H23 H 0.6715 0.3905 0.5330
C46 C 0.3580(3) 0.5940(3) 0.71875(12)
H24 H 0.3249 0.6300 0.7075
C47 C 0.9367(4) 0.4632(4) 0.68397(14)
C48 C 0.7242(4) 0.7708(3) 0.60143(13)
C49 C 0.6051(4) 0.2189(3) 0.65777(15)
C50 C 0.4084(4) 0.2974(3) 0.64320(13)
H25 H 0.4011 0.2739 0.6234
H26 H 0.4538 0.3324 0.6410
C51 C 0.3232(4) 0.5916(3) 0.75171(12)
H27 H 0.3514 0.5533 0.7629
H28 H 0.3369 0.6362 0.7620
C52 C 0.5140(4) 0.3177(3) 0.73878(13)
H29 H 0.4937 0.3392 0.7567
C53 C 0.6280(5) 0.1921(4) 0.63431(17)
C54 C 0.6237(4) 0.5951(3) 0.79558(13)
H30 H 0.5917 0.6388 0.7991
H31 H 0.5841 0.5554 0.7974
C55 C 0.4560(4) 0.3013(3) 0.71495(13)
C56 C 0.8812(4) 0.4634(4) 0.70272(14)
C57 C 0.5729(4) 0.1757(3) 0.55552(15)
C58 C 0.2265(4) 0.5799(4) 0.75289(14)
H32 H 0.1983 0.6202 0.7432
H33 H 0.2125 0.5376 0.7410
C59 C 0.6185(4) 0.1680(3) 0.58044(15)
C60 C 0.5962(4) 0.2887(4) 0.51974(17)
C61 C 0.8632(4) 0.6583(4) 0.56084(14)
C62 C 0.4544(4) 0.5842(4) 0.52086(13)
C63 C 0.7376(5) 0.1087(4) 0.61063(15)
C64 C 0.5283(4) 0.5918(4) 0.51423(15)
O12 O 0.8351(7) 0.3895(4) 0.53562(14)
H34 H 0.8382 0.4284 0.5443
C65 C 0.6063(4) 0.3519(4) 0.50031(17)
C66 C 0.4878(4) 0.2688(3) 0.68893(13)
C67 C 1.0591(4) 0.5295(4) 0.65739(13)
C68 C 1.0033(4) 0.4640(4) 0.66058(13)
C69 C 0.1731(4) 0.4014(4) 0.55291(14)
H35 H 0.1698 0.3979 0.5750
H36 H 0.1439 0.3615 0.5438
H37 H 0.1465 0.4451 0.5463
C70 C 0.8728(4) 0.8128(3) 0.61090(14)
C71 C 0.3228(4) 0.3210(4) 0.74906(13)
H38 H 0.3463 0.3605 0.7608
H39 H 0.3393 0.2771 0.7594
C72 C 0.5747(4) 0.2521(3) 0.68555(14)
C73 C 1.0127(4) 0.4048(5) 0.64425(16)
C74 C 0.5009(4) 0.1234(4) 0.54715(16)
C75 C 0.6297(4) 0.2702(3) 0.70979(14)
C76 C 0.5470(4) 0.8808(4) 0.61999(15)
H40 H 0.5197 0.8566 0.6369
H41 H 0.5072 0.9132 0.6106
H42 H 0.5955 0.9071 0.6275
C77 C 0.7752(4) 0.3003(4) 0.69800(16)
H43 H 0.7471 0.3358 0.6852
H44 H 0.8192 0.2777 0.6856
C78 C 1.0178(4) 0.3466(4) 0.62825(18)
C79 C 0.3377(5) 0.7069(4) 0.53886(16)
H45 H 0.3380 0.6978 0.5607
H46 H 0.3001 0.7462 0.5345
H47 H 0.3946 0.7184 0.5321
C80 C 0.3100(5) 0.6545(5) 0.48723(15)
H48 H 0.3669 0.6689 0.4816
H49 H 0.2703 0.6918 0.4821
H50 H 0.2950 0.6118 0.4762
C81 C 0.5009(4) 0.7798(4) 0.58620(16)
H51 H 0.5193 0.7429 0.5723
H52 H 0.4593 0.8094 0.5761
H53 H 0.4757 0.7585 0.6042
C82 C 1.0029(5) 0.5967(5) 0.65407(18)
H54 H 0.9649 0.5910 0.6368
H55 H 1.0387 0.6377 0.6507
H56 H 0.9701 0.6034 0.6726
C83 C 0.6924(4) 0.5881(4) 0.82027(13)
H57 H 0.7290 0.5480 0.8151
H58 H 0.7274 0.6309 0.8201
C84 C 0.8294(5) 0.8710(4) 0.62910(19)
H59 H 0.7973 0.9010 0.6153
H60 H 0.8718 0.8991 0.6396
H61 H 0.7914 0.8500 0.6440
C85 C 0.2244(4) 0.3268(4) 0.74908(14)
H62 H 0.2079 0.3662 0.7358
H63 H 0.2009 0.2834 0.7402
C86 C 0.2721(4) 0.4080(4) 0.50809(13)
H64 H 0.2462 0.4522 0.5018
H65 H 0.2425 0.3689 0.4986
H66 H 0.3310 0.4075 0.5018
C87 C 0.6147(4) 0.8635(4) 0.56801(15)
H67 H 0.6640 0.8904 0.5743
H68 H 0.5726 0.8954 0.5596
H69 H 0.6310 0.8292 0.5526
C88 C 0.3106(4) 0.3323(4) 0.55351(16)
H70 H 0.3703 0.3342 0.5483
H71 H 0.2847 0.2921 0.5434
H72 H 0.3044 0.3274 0.5755
C89 C 0.8947(5) 0.5954(5) 0.54244(18)
C90 C 0.8125(5) 0.1503(4) 0.62443(17)
H73 H 0.8306 0.1865 0.6101
H74 H 0.8592 0.1183 0.6284
H75 H 0.7948 0.1723 0.6434
C91 C 1.0739(4) 0.2826(4) 0.63830(17)
C92 C 0.6291(5) 0.3221(4) 0.79431(14)
H76 H 0.5947 0.2796 0.7974
H77 H 0.5935 0.3637 0.7980
C93 C 0.9286(5) 0.8474(4) 0.58610(16)
H78 H 0.9565 0.8110 0.5742
H79 H 0.9709 0.8772 0.5957
H80 H 0.8934 0.8760 0.5727
C94 C 0.1915(5) 0.5711(4) 0.78546(16)
H81 H 0.2228 0.5333 0.7958
H82 H 0.2011 0.6150 0.7969
C95 C 0.2144(4) 0.6229(4) 0.53153(16)
H83 H 0.1950 0.5812 0.5207
H84 H 0.1779 0.6626 0.5266
H85 H 0.2128 0.6142 0.5534
C96 C 0.9144(5) 0.3392(5) 0.57983(17)
C97 C 0.6190(5) 0.6026(4) 0.50539(18)
C98 C 1.1136(4) 0.5378(5) 0.68679(14)
H86 H 1.0769 0.5474 0.7041
H87 H 1.1531 0.5766 0.6842
H88 H 1.1448 0.4944 0.6905
C99 C 0.9643(4) 0.3406(5) 0.60116(17)
C100 C 0.0500(5) 0.2636(5) 0.77570(19)
H89 H 0.0746 0.2304 0.7904
H90 H 0.0645 0.2472 0.7551
C101 C 1.1183(5) 0.5235(5) 0.62950(15)
H91 H 1.1557 0.4833 0.6321
H92 H 1.1517 0.5663 0.6276
H93 H 1.0847 0.5170 0.6112
C102 C 0.4951(5) 0.0637(4) 0.5715(2)
H94 H 0.5485 0.0383 0.5723
H95 H 0.4499 0.0313 0.5661
H96 H 0.4834 0.0843 0.5914
C103 C 0.4169(4) 0.1626(4) 0.54578(17)
H97 H 0.4043 0.1826 0.5657
H98 H 0.3722 0.1300 0.5400
H99 H 0.4205 0.2002 0.5308
C104 C 0.8432(8) 0.3331(5) 0.55820(17)
C105 C 0.9276(5) 0.7671(4) 0.63209(15)
H100 H 0.8920 0.7451 0.6474
H101 H 0.9697 0.7966 0.6420
H102 H 0.9559 0.7308 0.6202
C106 C 0.7637(5) 0.0759(5) 0.57967(17)
H103 H 0.7182 0.0463 0.5721
H104 H 0.8144 0.0475 0.5824
H105 H 0.7751 0.1133 0.5651
C107 C 0.7237(6) 0.5750(5) 0.87730(16)
H106 H 0.7631 0.6144 0.8742
H107 H 0.6956 0.5823 0.8970
C108 C 0.6573(5) 0.5773(4) 0.85231(15)
H108 H 0.6175 0.6157 0.8568
H109 H 0.6253 0.5329 0.8527
C109 C 0.9722(5) 0.5644(5) 0.55797(19)
H110 H 0.9582 0.5516 0.5788
H111 H 1.0174 0.5991 0.5581
H112 H 0.9906 0.5227 0.5469
C110 C 0.1852(5) 0.3380(4) 0.78025(15)
H113 H 0.2043 0.3837 0.7882
H114 H 0.2064 0.3013 0.7941
C111 C 0.7129(5) 0.0491(4) 0.63273(17)
H115 H 0.6909 0.0694 0.6515
H116 H 0.7624 0.0206 0.6373
H117 H 0.6698 0.0197 0.6234
C112 C 0.6558(7) 0.3328(6) 0.4715(2)
H118 H 0.6587 0.3736 0.4581
H119 H 0.6275 0.2943 0.4609
H120 H 0.7127 0.3183 0.4770
C113 C 0.6489(5) 0.6752(4) 0.5167(2)
H121 H 0.6463 0.6766 0.5388
H122 H 0.6125 0.7117 0.5083
H123 H 0.7068 0.6832 0.5100
C114 C 1.1160(5) 0.2962(6) 0.6707(2)
H124 H 1.1515 0.3380 0.6696
H125 H 1.1502 0.2557 0.6764
H126 H 1.0719 0.3033 0.6858
C115 C 0.7873(6) 0.2528(6) 0.87737(18)
H127 H 0.8156 0.2398 0.8582
H128 H 0.7427 0.2179 0.8813
C116 C 1.1469(5) 0.2723(5) 0.6155(2)
H129 H 1.1242 0.2578 0.5959
H130 H 1.1850 0.2361 0.6231
H131 H 1.1775 0.3164 0.6132
C117 C 0.0878(5) 0.3364(5) 0.78079(18)
H132 H 0.0682 0.3544 0.8006
H133 H 0.0664 0.3684 0.7649
C118 C 0.5217(6) 0.0909(5) 0.5156(2)
H134 H 0.5290 0.1285 0.5007
H135 H 0.4757 0.0603 0.5092
H136 H 0.5736 0.0637 0.5170
C119 C 0.7084(13) 0.3220(13) 0.8170(3)
H137 H 0.7403 0.2780 0.8144
H138 H 0.7460 0.3615 0.8119
C120 C 0.5214(5) 0.3864(5) 0.4942(3)
H139 H 0.4959 0.4007 0.5134
H140 H 0.4844 0.3530 0.4839
H141 H 0.5295 0.4276 0.4813
C121 C 0.6290(6) 0.5926(6) 0.4707(2)
H142 H 0.6887 0.5935 0.4655
H143 H 0.5999 0.6305 0.4601
H144 H 0.6048 0.5475 0.4648
C122 C 0.9010(8) 0.6113(6) 0.51106(19)
H145 H 0.9149 0.5687 0.4998
H146 H 0.9451 0.6463 0.5080
H147 H 0.8474 0.6299 0.5038
C123 C 0.0968(6) 0.5536(6) 0.7860(3)
H148 H 0.0865 0.5161 0.7710
H149 H 0.0834 0.5340 0.8062
C124 C -0.0463(6) 0.2641(7) 0.7793(2)
H150 H -0.0710 0.2955 0.7642
H151 H -0.0609 0.2804 0.7997
H152 H -0.0680 0.2167 0.7763
C125 C 0.8515(6) 0.2509(7) 0.9035(2)
H153 H 0.8987 0.2818 0.8987
H154 H 0.8720 0.2029 0.9062
H155 H 0.8245 0.2667 0.9222
C126 C 0.8466(11) 0.2644(5) 0.5417(3)
H156 H 0.7995 0.2613 0.5276
H157 H 0.8432 0.2259 0.5563
H158 H 0.8995 0.2610 0.5305
C127 C 0.7734(13) 0.5077(12) 0.8787(6)
H159 H 0.7346 0.4691 0.8838
H160 H 0.7966 0.4981 0.8584
C128 C 1.0214(7) 0.2163(7) 0.6417(3)
H161 H 0.9782 0.2238 0.6571
H162 H 1.0577 0.1774 0.6478
H163 H 0.9947 0.2052 0.6223
C129 C 0.7501(8) 0.3208(8) 0.8741(3)
H164 H 0.7953 0.3546 0.8694
H165 H 0.7259 0.3344 0.8939
C130 C 0.7602(7) 0.3372(8) 0.5774(4)
H166 H 0.7645 0.3756 0.5920
H167 H 0.7519 0.2930 0.5882
H168 H 0.7125 0.3456 0.5638
C131 C 0.6810(8) 0.3286(7) 0.8498(2)
H169 H 0.6376 0.2927 0.8537
H170 H 0.6543 0.3749 0.8525
C132 C 0.844(4) 0.507(4) 0.9011(17)
H171 H 0.8860 0.4724 0.8950
H172 H 0.8226 0.4958 0.9212
H173 H 0.8706 0.5537 0.9016
C133 C 0.0400(8) 0.6082(10) 0.7802(4)
H174 H 0.0446 0.6224 0.7587
H175 H 0.0546 0.6491 0.7929
C134 C -0.0517(10) 0.5856(15) 0.7870(5)
H176 H -0.0902 0.6120 0.7740
H177 H -0.0647 0.5950 0.8083
H178 H -0.0580 0.5354 0.7829
H179? H 0.5821 0.3560 0.7947
H180? H 0.6041 0.2752 0.7972
H181? H 0.7412 0.6237 0.8818
H182? H 0.6973 0.5560 0.8958
H183? H 0.7721 0.2040 0.8723
H184? H 0.7359 0.2761 0.8848
H185? H 0.0702 0.5923 0.7747
H186? H 0.0916 0.5119 0.7728
C135? C 0.0415(9) 0.5405(13) 0.8098(3)
H187? H 0.0460 0.5806 0.8239
H188? H 0.0634 0.4991 0.8208
C136? C -0.0524(10) 0.5276(19) 0.8047(5)
H189? H -0.0781 0.5697 0.7961
H190? H -0.0793 0.5163 0.8240
H191? H -0.0597 0.4884 0.7906
C137? C 0.6821(14) 0.3367(15) 0.8222(5)
H192? H 0.6478 0.3318 0.8407
H193? H 0.7048 0.3849 0.8214
C138? C 0.7538(10) 0.2835(9) 0.8224(3)
H194? H 0.7292 0.2359 0.8223
H195? H 0.7861 0.2889 0.8034
C139? C 0.8145(10) 0.2888(10) 0.8489(3)
H196? H 0.8690 0.2689 0.8425
H197? H 0.8237 0.3389 0.8535
C140? C 0.7998(15) 0.5334(18) 0.8707(7)
H198? H 0.8285 0.5536 0.8529
H199? H 0.7830 0.4850 0.8655
C141? C 0.862(5) 0.531(5) 0.8976(19)
H200? H 0.8859 0.5778 0.9008
H201? H 0.9074 0.4980 0.8931
H202? H 0.8326 0.5161 0.9160
loop_
_geom_bond_atom_site_label_1
_geom_bond_atom_site_label_2
_geom_bond_site_symmetry_1
_geom_bond_site_symmetry_2
Br1 C3 1_555 1_555
C1 H1 1_555 1_555
H2 C1 1_555 1_555
C2 C1 1_555 1_555
H3 C2 1_555 1_555
C3 C2 1_555 1_555
H4 C3 1_555 1_555
C4 C3 1_555 1_555
H5 C4 1_555 1_555
H6 C4 1_555 1_555
C5 C4 1_555 1_555
H7 C5 1_555 1_555
H8 C5 1_555 1_555
F1 C2 1_555 1_555
C6 C1 1_555 1_555
H9 C6 1_555 1_555
H10 C6 1_555 1_555
O1 C14 1_555 1_555
O2 C19 1_555 1_555
O3 C8 1_555 1_555
O4 C10 1_555 1_555
O5 C12 1_555 1_555
O6 C50 1_555 1_555
O7 C35 1_555 1_555
O8 C75 1_555 1_555
O9 H11 1_555 1_555
C7 C8 1_555 1_555
C8 C31 1_555 1_555
C9 C7 1_555 1_555
H12 C9 1_555 1_555
C10 C25 1_555 1_555
C11 C9 1_555 1_555
C12 C15 1_555 1_555
C13 C27 1_555 1_555
C14 C11 1_555 1_555
C15 C18 1_555 1_555
C16 C17 1_555 1_555
C17 C22 1_555 1_555
C18 H13 1_555 1_555
C19 C24 1_555 1_555
C20 H14 1_555 1_555
C21 C16 1_555 1_555
C22 C42 1_555 1_555
C23 O4 1_555 1_555
H15 C23 1_555 1_555
H16 C23 1_555 1_555
C24 C18 1_555 1_555
C25 C34 1_555 1_555
C26 C17 1_555 1_555
C27 C44 1_555 1_555
C28 O1 1_555 1_555
H17 C28 1_555 1_555
H18 C28 1_555 1_555
C29 C20 1_555 1_555
C30 C12 1_555 1_555
C31 C14 1_555 1_555
C32 C44 1_555 1_555
C33 C37 1_555 1_555
C34 C29 1_555 1_555
H19 C34 1_555 1_555
C35 C29 1_555 1_555
C36 C42 1_555 1_555
C37 C48 1_555 1_555
C38 C15 1_555 1_555
H20 C38 1_555 1_555
C39 C7 1_555 1_555
H21 C39 1_555 1_555
O10 H22 1_555 1_555
C40 C53 1_555 1_555
C41 C20 1_555 1_555
C42 C62 1_555 1_555
C43 C57 1_555 1_555
C44 C48 1_555 1_555
C45 C10 1_555 1_555
O11 H23 1_555 1_555
C46 C11 1_555 1_555
H24 C46 1_555 1_555
C47 C56 1_555 1_555
C49 C53 1_555 1_555
C50 O3 1_555 1_555
H25 C50 1_555 1_555
H26 C50 1_555 1_555
C51 C46 1_555 1_555
H27 C51 1_555 1_555
H28 C51 1_555 1_555
C52 C41 1_555 1_555
H29 C52 1_555 1_555
C54 C38 1_555 1_555
H30 C54 1_555 1_555
H31 C54 1_555 1_555
C55 C39 1_555 1_555
C56 C45 1_555 1_555
C57 C59 1_555 1_555
C58 C51 1_555 1_555
H32 C58 1_555 1_555
H33 C58 1_555 1_555
C59 C40 1_555 1_555
C60 C43 1_555 1_555
C61 C33 1_555 1_555
C62 C64 1_555 1_555
C63 C40 1_555 1_555
C64 C97 1_555 1_555
O12 H34 1_555 1_555
C65 O11 1_555 1_555
C66 O6 1_555 1_555
C67 C68 1_555 1_555
C68 C47 1_555 1_555
C69 C26 1_555 1_555
H35 C69 1_555 1_555
H36 C69 1_555 1_555
H37 C69 1_555 1_555
C70 C37 1_555 1_555
C71 C39 1_555 1_555
H38 C71 1_555 1_555
H39 C71 1_555 1_555
C72 C49 1_555 1_555
C73 C68 1_555 1_555
C74 C57 1_555 1_555
C75 C41 1_555 1_555
C76 C32 1_555 1_555
H40 C76 1_555 1_555
H41 C76 1_555 1_555
H42 C76 1_555 1_555
C77 O7 1_555 1_555
H43 C77 1_555 1_555
H44 C77 1_555 1_555
C78 C73 1_555 1_555
C79 C36 1_555 1_555
H45 C79 1_555 1_555
H46 C79 1_555 1_555
H47 C79 1_555 1_555
C80 C36 1_555 1_555
H48 C80 1_555 1_555
H49 C80 1_555 1_555
H50 C80 1_555 1_555
C81 C32 1_555 1_555
H51 C81 1_555 1_555
H52 C81 1_555 1_555
H53 C81 1_555 1_555
C82 C67 1_555 1_555
H54 C82 1_555 1_555
H55 C82 1_555 1_555
H56 C82 1_555 1_555
C83 C54 1_555 1_555
H57 C83 1_555 1_555
H58 C83 1_555 1_555
C84 C70 1_555 1_555
H59 C84 1_555 1_555
H60 C84 1_555 1_555
H61 C84 1_555 1_555
C85 C71 1_555 1_555
H62 C85 1_555 1_555
H63 C85 1_555 1_555
C86 C26 1_555 1_555
H64 C86 1_555 1_555
H65 C86 1_555 1_555
H66 C86 1_555 1_555
C87 C32 1_555 1_555
H67 C87 1_555 1_555
H68 C87 1_555 1_555
H69 C87 1_555 1_555
C88 C26 1_555 1_555
H70 C88 1_555 1_555
H71 C88 1_555 1_555
H72 C88 1_555 1_555
C89 O10 1_555 1_555
C90 C63 1_555 1_555
H73 C90 1_555 1_555
H74 C90 1_555 1_555
H75 C90 1_555 1_555
C91 C78 1_555 1_555
C92 C20 1_555 1_555
H76 C92 1_555 1_555
H77 C92 1_555 1_555
C93 C70 1_555 1_555
H78 C93 1_555 1_555
H79 C93 1_555 1_555
H80 C93 1_555 1_555
C94 C58 1_555 1_555
H81 C94 1_555 1_555
H82 C94 1_555 1_555
C95 C36 1_555 1_555
H83 C95 1_555 1_555
H84 C95 1_555 1_555
H85 C95 1_555 1_555
C96 C99 1_555 1_555
C97 O9 1_555 1_555
C98 C67 1_555 1_555
H86 C98 1_555 1_555
H87 C98 1_555 1_555
H88 C98 1_555 1_555
C99 C78 1_555 1_555
C100 H89 1_555 1_555
H90 C100 1_555 1_555
C101 C67 1_555 1_555
H91 C101 1_555 1_555
H92 C101 1_555 1_555
H93 C101 1_555 1_555
C102 C74 1_555 1_555
H94 C102 1_555 1_555
H95 C102 1_555 1_555
H96 C102 1_555 1_555
C103 C74 1_555 1_555
H97 C103 1_555 1_555
H98 C103 1_555 1_555
H99 C103 1_555 1_555
C104 O12 1_555 1_555
C105 C70 1_555 1_555
H100 C105 1_555 1_555
H101 C105 1_555 1_555
H102 C105 1_555 1_555
C106 C63 1_555 1_555
H103 C106 1_555 1_555
H104 C106 1_555 1_555
H105 C106 1_555 1_555
C107 H106 1_555 1_555
H107 C107 1_555 1_555
C108 C83 1_555 1_555
H108 C108 1_555 1_555
H109 C108 1_555 1_555
C109 C89 1_555 1_555
H110 C109 1_555 1_555
H111 C109 1_555 1_555
H112 C109 1_555 1_555
C110 C85 1_555 1_555
H113 C110 1_555 1_555
H114 C110 1_555 1_555
C111 C63 1_555 1_555
H115 C111 1_555 1_555
H116 C111 1_555 1_555
H117 C111 1_555 1_555
C112 C65 1_555 1_555
H118 C112 1_555 1_555
H119 C112 1_555 1_555
H120 C112 1_555 1_555
C113 C97 1_555 1_555
H121 C113 1_555 1_555
H122 C113 1_555 1_555
H123 C113 1_555 1_555
C114 C91 1_555 1_555
H124 C114 1_555 1_555
H125 C114 1_555 1_555
H126 C114 1_555 1_555
C115 H127 1_555 1_555
H128 C115 1_555 1_555
C116 C91 1_555 1_555
H129 C116 1_555 1_555
H130 C116 1_555 1_555
H131 C116 1_555 1_555
C117 C100 1_555 1_555
H132 C117 1_555 1_555
H133 C117 1_555 1_555
C118 C74 1_555 1_555
H134 C118 1_555 1_555
H135 C118 1_555 1_555
H136 C118 1_555 1_555
C119 C92 1_555 1_555
H137 C119 1_555 1_555
H138 C119 1_555 1_555
C120 C65 1_555 1_555
H139 C120 1_555 1_555
H140 C120 1_555 1_555
H141 C120 1_555 1_555
C121 C97 1_555 1_555
H142 C121 1_555 1_555
H143 C121 1_555 1_555
H144 C121 1_555 1_555
C122 C89 1_555 1_555
H145 C122 1_555 1_555
H146 C122 1_555 1_555
H147 C122 1_555 1_555
C123 C94 1_555 1_555
H148 C123 1_555 1_555
H149 C123 1_555 1_555
C124 C100 1_555 1_555
H150 C124 1_555 1_555
H151 C124 1_555 1_555
H152 C124 1_555 1_555
C125 C115 1_555 1_555
H153 C125 1_555 1_555
H154 C125 1_555 1_555
H155 C125 1_555 1_555
C126 C104 1_555 1_555
H156 C126 1_555 1_555
H157 C126 1_555 1_555
H158 C126 1_555 1_555
C127 C107 1_555 1_555
H159 C127 1_555 1_555
H160 C127 1_555 1_555
C128 C91 1_555 1_555
H161 C128 1_555 1_555
H162 C128 1_555 1_555
H163 C128 1_555 1_555
C129 C115 1_555 1_555
H164 C129 1_555 1_555
H165 C129 1_555 1_555
C130 C104 1_555 1_555
H166 C130 1_555 1_555
H167 C130 1_555 1_555
H168 C130 1_555 1_555
C131 C119 1_555 1_555
H169 C131 1_555 1_555
H170 C131 1_555 1_555
C132 C127 1_555 1_555
H171 C132 1_555 1_555
H172 C132 1_555 1_555
H173 C132 1_555 1_555
C133 C123 1_555 1_555
H174 C133 1_555 1_555
H175 C133 1_555 1_555
C134 C133 1_555 1_555
H176 C134 1_555 1_555
H177 C134 1_555 1_555
H178 C134 1_555 1_555
C5 C6 1_555 1_555
O2 C28 1_555 1_555
O5 C23 1_555 1_555
O8 C77 1_555 1_555
C13 C30 1_555 1_555
C19 C30 1_555 1_555
C21 C31 1_555 1_555
C24 C46 1_555 1_555
C25 C38 1_555 1_555
C35 C45 1_555 1_555
C52 C55 1_555 1_555
C55 C66 1_555 1_555
C60 C65 1_555 1_555
C61 C89 1_555 1_555
C66 C72 1_555 1_555
C72 C75 1_555 1_555
C96 C104 1_555 1_555
C107 C108 1_555 1_555
C110 C117 1_555 1_555
C129 C131 1_555 1_555

#END
