
#######################################################################
#
#                 Cambridge Crystallographic Data Centre
#                                CCDC 
#
#######################################################################
#
# If this CIF has been generated from an entry in the Cambridge 
# Structural Database, then it will include bibliographic, chemical, 
# crystal, experimental, refinement or atomic coordinate data resulting 
# from the CCDC's data processing and validation procedures.
#
#######################################################################

data_MEDMAM
_chemical_formula_moiety         'C128 H168 O12,C6 H10 Br2,C2 H3 N1'
_chemical_name_systematic        
"(P)-2,8,14,20-tetrahexyl-5,11,17,23-tetrakis(3,5-di-t-butyl-8-hydroxy-8-methylnona-3,4-diene-1,6-diyn-1-yl)-4,24:6,10:12,16:18,22-O,O'-tetramethylenecalix[4]resorcinarene (trans)-1,2-dibromocyclohexane acetonitrile solvate"
_symmetry_cell_setting           orthorhombic
_symmetry_space_group_name_H-M   'P 21 21 21'
_symmetry_Int_Tables_number      19
_space_group_name_Hall           'P 2ac 2ab'
loop_
_symmetry_equiv_pos_site_id
_symmetry_equiv_pos_as_xyz
1 x,y,z
2 1/2-x,-y,1/2+z
3 -x,1/2+y,1/2-z
4 1/2+x,1/2-y,-z
_cell_length_a                   15.45050(10)
_cell_length_b                   18.1775(2)
_cell_length_c                   46.8762(4)
_cell_angle_alpha                90
_cell_angle_beta                 90
_cell_angle_gamma                90
_cell_volume                     13165.2
_cell_formula_units_Z            4
_exptl_crystal_recrystallization_method water/acetonitrile
loop_
_atom_site_label
_atom_site_type_symbol
_atom_site_fract_x
_atom_site_fract_y
_atom_site_fract_z
O1 O 0.70095(14) 0.45458(11) 0.47919(5)
H1 H 0.6853 0.4983 0.4819
O2 O 0.68370(15) 0.60460(11) 0.48115(5)
H2 H 0.7192 0.6218 0.4693
O3 O 0.82044(13) 0.61976(11) 0.44352(5)
H3 H 0.8416 0.5773 0.4447
O4 O 0.86426(13) 0.47013(12) 0.45624(5)
H4 H 0.8189 0.4546 0.4641
O5 O 0.72406(12) 0.31673(10) 0.29510(4)
O6 O 0.82454(12) 0.40608(10) 0.27975(4)
O7 O 0.82058(12) 0.66844(10) 0.27836(4)
O8 O 0.71881(12) 0.75636(10) 0.29358(4)
O9 O 0.43754(12) 0.75479(10) 0.33464(4)
O10 O 0.34008(12) 0.66307(10) 0.34992(4)
O11 O 0.33602(12) 0.40131(10) 0.34723(4)
O12 O 0.43976(12) 0.31408(10) 0.33356(4)
C1 C 0.1042(3) 0.4404(2) 0.22340(11)
H5 H 0.0772 0.3971 0.2326
H6 H 0.0938 0.4824 0.2364
C2 C 0.2005(2) 0.42654(18) 0.22456(8)
H7 H 0.2310 0.4699 0.2166
H8 H 0.2143 0.3838 0.2123
C3 C 0.23421(18) 0.41182(17) 0.25436(7)
H9 H 0.2040 0.3682 0.2622
H10 H 0.2197 0.4543 0.2667
C4 C 0.33181(18) 0.39852(15) 0.25583(6)
H11 H 0.3618 0.4386 0.2455
H12 H 0.3454 0.3517 0.2460
C5 C 0.1711(2) 0.6690(2) 0.23463(7)
H13 H 0.1724 0.6170 0.2283
H14 H 0.2011 0.6989 0.2200
C6 C 0.21932(19) 0.67567(19) 0.26268(6)
H15 H 0.2028 0.6339 0.2751
H16 H 0.2007 0.7215 0.2723
C7 C 0.31775(18) 0.67670(15) 0.25970(6)
H17 H 0.3355 0.7214 0.2491
H18 H 0.3366 0.6333 0.2486
C8 C 0.7885(4) 0.4614(3) 0.08950(9)
H19 H 0.7656 0.4643 0.0700
H20 H 0.8330 0.4231 0.0904
H21 H 0.8140 0.5089 0.0948
C9 C 0.7153(3) 0.4428(2) 0.11012(8)
H22 H 0.6688 0.4798 0.1081
H23 H 0.6909 0.3943 0.1049
C10 C 0.7442(2) 0.44057(18) 0.14100(7)
H24 H 0.7671 0.4896 0.1463
H25 H 0.7922 0.4048 0.1428
C11 C 0.6731(2) 0.41965(17) 0.16192(7)
H26 H 0.6275 0.4579 0.1616
H27 H 0.6465 0.3727 0.1558
C12 C 0.7064(2) 0.41128(17) 0.19231(7)
H28 H 0.7365 0.4572 0.1979
H29 H 0.7495 0.3709 0.1928
C13 C 0.63595(18) 0.39501(15) 0.21417(6)
H30 H 0.6097 0.3465 0.2100
H31 H 0.5900 0.4327 0.2127
C14 C 0.7874(3) 0.6967(3) 0.08900(9)
H32 H 0.7665 0.6954 0.0693
H33 H 0.8361 0.6626 0.0911
H34 H 0.8063 0.7466 0.0937
C15 C 0.7149(3) 0.6740(2) 0.10894(8)
H35 H 0.6644 0.7065 0.1058
H36 H 0.6970 0.6230 0.1045
C16 C 0.7421(2) 0.6783(2) 0.13967(7)
H37 H 0.7633 0.7286 0.1436
H38 H 0.7910 0.6440 0.1427
C17 C 0.6695(2) 0.65959(18) 0.16124(7)
H39 H 0.6187 0.6914 0.1576
H40 H 0.6513 0.6078 0.1586
C18 C 0.6998(2) 0.67057(18) 0.19166(6)
H41 H 0.7332 0.7170 0.1926
H42 H 0.7396 0.6299 0.1967
C19 C 0.62793(19) 0.67364(15) 0.21397(6)
H43 H 0.5901 0.6300 0.2119
H44 H 0.5922 0.7181 0.2109
C20 C 0.78609(19) 0.37054(16) 0.30327(7)
H45 H 0.7575 0.4078 0.3155
H46 H 0.8319 0.3466 0.3147
C21 C 0.34693(16) 0.46698(15) 0.33249(5)
C22 C 0.41309(19) 0.36473(15) 0.35477(6)
H47 H 0.4042 0.3382 0.3730
H48 H 0.4595 0.4015 0.3578
C23 C 0.34460(16) 0.53207(16) 0.34838(5)
C24 C 0.35671(16) 0.46752(15) 0.30294(6)
C25 C 0.34812(16) 0.59940(14) 0.33379(6)
C26 C 0.33954(16) 0.53050(15) 0.37899(6)
C27 C 0.36688(17) 0.39489(14) 0.28644(6)
H49 H 0.3331 0.3564 0.2969
C28 C 0.36190(15) 0.53545(15) 0.28960(5)
H50 H 0.3702 0.5368 0.2695
C29 C 0.49429(18) 0.33862(14) 0.31220(6)
C30 C 0.35542(16) 0.60201(14) 0.30431(6)
C31 C 0.33716(16) 0.52971(15) 0.40458(6)
C32 C 0.46217(18) 0.37340(14) 0.28789(6)
C33 C 0.58282(19) 0.32245(14) 0.31516(6)
C34 C 0.41751(18) 0.70174(15) 0.35585(6)
H51 H 0.4659 0.6662 0.3573
H52 H 0.4118 0.7267 0.3745
C35 C 0.36214(17) 0.67586(14) 0.28891(6)
H53 H 0.3316 0.7129 0.3011
C36 C 0.33270(16) 0.53273(16) 0.43534(6)
C37 C 0.52064(18) 0.39019(14) 0.26609(6)
H54 H 0.4996 0.4142 0.2495
C38 C 0.63820(18) 0.33919(14) 0.29259(6)
C39 C 0.61437(19) 0.29061(14) 0.34113(6)
C40 C 0.45776(17) 0.69693(14) 0.28875(6)
C41 C 0.28851(18) 0.60033(16) 0.44879(6)
C42 C 0.36393(17) 0.47835(16) 0.45051(6)
C43 C 0.60877(18) 0.37316(14) 0.26771(6)
C44 C 0.64189(19) 0.26597(15) 0.36307(6)
C45 C 0.49132(18) 0.73227(14) 0.31260(6)
C46 C 0.51449(17) 0.67961(14) 0.26653(6)
H55 H 0.4925 0.6553 0.2501
C47 C 0.2970(2) 0.59831(18) 0.48127(7)
H56 H 0.2678 0.5544 0.4887
H57 H 0.2702 0.6424 0.4894
H58 H 0.3583 0.5968 0.4865
C48 C 0.19245(19) 0.59726(17) 0.44071(7)
H59 H 0.1868 0.5948 0.4199
H60 H 0.1632 0.6415 0.4478
H61 H 0.1659 0.5536 0.4493
C49 C 0.33084(19) 0.67024(16) 0.43699(7)
H62 H 0.3926 0.6703 0.4418
H63 H 0.3031 0.7135 0.4454
H64 H 0.3240 0.6716 0.4162
C50 C 0.39100(19) 0.42401(16) 0.46682(6)
C51 C 0.67261(18) 0.39465(15) 0.24468(6)
H65 H 0.7204 0.3575 0.2451
C52 C 0.67126(19) 0.23195(15) 0.38914(6)
C53 C 0.57923(18) 0.75029(14) 0.31464(6)
C54 C 0.60255(18) 0.69693(13) 0.26770(6)
C55 C 0.3300(2) 0.36220(17) 0.47703(7)
C56 C 0.4800(2) 0.42068(16) 0.47576(6)
C57 C 0.71209(17) 0.46841(15) 0.25323(5)
C58 C 0.7525(2) 0.23732(16) 0.39634(6)
C59 C 0.6025(2) 0.19185(17) 0.40716(6)
C60 C 0.61207(18) 0.78481(14) 0.33991(6)
C61 C 0.63363(17) 0.73270(14) 0.29189(6)
C62 C 0.66641(18) 0.67537(14) 0.24414(6)
H66 H 0.7131 0.7135 0.2441
C63 C 0.2383(2) 0.3746(2) 0.46600(8)
H67 H 0.2152 0.4203 0.4741
H68 H 0.2015 0.3333 0.4717
H69 H 0.2393 0.3782 0.4451
C64 C 0.3644(2) 0.28883(18) 0.46592(8)
H70 H 0.3665 0.2900 0.4450
H71 H 0.3260 0.2490 0.4721
H72 H 0.4227 0.2804 0.4735
C65 C 0.3303(3) 0.3616(2) 0.50972(8)
H73 H 0.3896 0.3544 0.5166
H74 H 0.2936 0.3215 0.5166
H75 H 0.3080 0.4087 0.5168
C66 C 0.5538(2) 0.41513(16) 0.48334(7)
C67 C 0.78417(17) 0.47061(15) 0.27085(6)
C68 C 0.67477(17) 0.53516(15) 0.24502(5)
H76 H 0.6240 0.5341 0.2336
C69 C 0.8350(2) 0.24183(16) 0.40319(6)
C70 C 0.6457(2) 0.1538(2) 0.43274(7)
H77 H 0.6871 0.1171 0.4259
H78 H 0.6013 0.1296 0.4444
H79 H 0.6761 0.1906 0.4443
C71 C 0.5552(2) 0.1349(2) 0.38895(8)
H80 H 0.5294 0.1592 0.3723
H81 H 0.5096 0.1117 0.4003
H82 H 0.5964 0.0974 0.3825
C72 C 0.5372(3) 0.2488(2) 0.41795(8)
H83 H 0.5672 0.2856 0.4296
H84 H 0.4931 0.2242 0.4295
H85 H 0.5095 0.2730 0.4016
C73 C 0.63732(18) 0.81160(15) 0.36170(6)
C74 C 0.70880(17) 0.60285(15) 0.25286(6)
C75 C 0.6437(2) 0.40621(17) 0.49366(7)
C76 C 0.81968(17) 0.53751(16) 0.27987(6)
C77 C 0.86474(19) 0.30160(17) 0.42113(7)
C78 C 0.90306(19) 0.18624(16) 0.39268(6)
C79 C 0.67278(18) 0.84768(14) 0.38651(6)
C80 C 0.78254(18) 0.70462(15) 0.30193(6)
H86 H 0.8283 0.7302 0.3129
H87 H 0.7557 0.6675 0.3146
C81 C 0.78185(17) 0.60306(15) 0.27028(6)
C82 C 0.6467(3) 0.4213(3) 0.52556(8)
H88 H 0.7065 0.4170 0.5323
H89 H 0.6103 0.3855 0.5356
H90 H 0.6253 0.4711 0.5293
C83 C 0.6761(2) 0.32960(18) 0.48642(11)
H91 H 0.6762 0.3231 0.4657
H92 H 0.6380 0.2929 0.4952
H93 H 0.7350 0.3234 0.4938
C84 C 0.88986(18) 0.53911(15) 0.29962(6)
C85 C 0.8898(2) 0.35127(17) 0.43578(7)
C86 C 0.8604(2) 0.13066(18) 0.37252(8)
H94 H 0.8122 0.1064 0.3823
H95 H 0.9031 0.0937 0.3667
H96 H 0.8386 0.1563 0.3556
C87 C 0.9741(2) 0.2275(2) 0.37657(8)
H97 H 0.9483 0.2550 0.3607
H98 H 1.0163 0.1922 0.3691
H99 H 1.0031 0.2618 0.3896
C88 C 0.9419(2) 0.14615(19) 0.41834(8)
H100 H 0.9694 0.1819 0.4311
H101 H 0.9852 0.1106 0.4117
H102 H 0.8960 0.1202 0.4287
C89 C 0.63676(18) 0.83730(14) 0.41144(6)
C90 C 0.75101(19) 0.89821(16) 0.38132(6)
C91 C 0.94509(17) 0.54124(16) 0.31752(6)
C92 C 0.9250(2) 0.41157(17) 0.45381(7)
C93 C 0.59574(19) 0.83249(15) 0.43604(6)
C94 C 0.7244(2) 0.95715(17) 0.35993(7)
H103 H 0.7044 0.9337 0.3423
H104 H 0.7742 0.9888 0.3557
H105 H 0.6776 0.9869 0.3680
C95 C 0.7801(2) 0.93380(18) 0.40935(7)
H106 H 0.7329 0.9639 0.4170
H107 H 0.8307 0.9650 0.4058
H108 H 0.7952 0.8953 0.4231
C96 C 0.8246(2) 0.85266(17) 0.36867(8)
H109 H 0.8411 0.8138 0.3821
H110 H 0.8746 0.8845 0.3650
H111 H 0.8055 0.8304 0.3507
C97 C 1.01093(17) 0.54285(17) 0.33910(6)
C98 C 0.9468(3) 0.3814(2) 0.48327(8)
H112 H 0.9715 0.4207 0.4950
H113 H 0.9888 0.3413 0.4814
H114 H 0.8940 0.3627 0.4923
C99 C 1.0038(2) 0.4445(2) 0.43933(10)
H115 H 0.9868 0.4658 0.4210
H116 H 1.0471 0.4059 0.4362
H117 H 1.0285 0.4830 0.4515
C100 C 0.6128(2) 0.77375(15) 0.45577(6)
C101 C 0.5263(2) 0.88922(16) 0.44464(7)
C102 C 1.02106(17) 0.60266(17) 0.35440(6)
C103 C 1.06810(18) 0.47427(17) 0.34255(6)
C104 C 0.6229(2) 0.72408(16) 0.47236(6)
C105 C 0.5139(2) 0.94647(18) 0.42123(8)
H118 H 0.5691 0.9711 0.4174
H119 H 0.4710 0.9829 0.4274
H120 H 0.4935 0.9222 0.4038
C106 C 0.4405(2) 0.84790(18) 0.44945(7)
H121 H 0.4220 0.8250 0.4315
H122 H 0.3961 0.8826 0.4559
H123 H 0.4489 0.8098 0.4640
C107 C 0.5563(2) 0.92684(18) 0.47228(7)
H124 H 0.5674 0.8894 0.4869
H125 H 0.5111 0.9605 0.4790
H126 H 0.6095 0.9546 0.4686
C108 C 1.03022(18) 0.66242(17) 0.36981(6)
C109 C 1.1206(2) 0.46457(19) 0.31526(7)
H127 H 1.0811 0.4581 0.2991
H128 H 1.1577 0.4211 0.3170
H129 H 1.1565 0.5082 0.3121
C110 C 1.1288(2) 0.4838(2) 0.36781(7)
H130 H 1.1640 0.5281 0.3651
H131 H 1.1668 0.4407 0.3693
H132 H 1.0948 0.4886 0.3854
C111 C 1.0099(2) 0.40714(19) 0.34708(9)
H133 H 0.9734 0.4150 0.3639
H134 H 1.0458 0.3633 0.3499
H135 H 0.9730 0.4001 0.3303
C112 C 0.6336(2) 0.66306(16) 0.49299(7)
C113 C 0.98176(18) 0.66728(16) 0.39601(6)
C114 C 1.08914(18) 0.72659(16) 0.36108(6)
C115 C 0.5450(2) 0.63010(19) 0.49981(8)
H136 H 0.5194 0.6099 0.4824
H137 H 0.5071 0.6685 0.5075
H138 H 0.5517 0.5908 0.5139
C116 C 0.6786(3) 0.6911(2) 0.51985(7)
H139 H 0.6843 0.6507 0.5336
H140 H 0.6443 0.7308 0.5283
H141 H 0.7362 0.7097 0.5149
C117 C 0.93940(18) 0.66973(16) 0.41746(7)
C118 C 1.1607(2) 0.73596(18) 0.38357(7)
H142 H 1.1343 0.7433 0.4024
H143 H 1.1963 0.7788 0.3787
H144 H 1.1970 0.6918 0.3839
C119 C 1.1294(2) 0.7112(2) 0.33194(7)
H145 H 1.1644 0.6664 0.3330
H146 H 1.1662 0.7527 0.3264
H147 H 1.0834 0.7047 0.3178
C120 C 1.0343(2) 0.79655(19) 0.35963(8)
H148 H 0.9893 0.7907 0.3451
H149 H 1.0713 0.8385 0.3547
H150 H 1.0071 0.8053 0.3782
C121 C 0.8891(2) 0.67327(16) 0.44418(6)
C122 C 0.9479(2) 0.6576(2) 0.46964(7)
H151 H 0.9134 0.6578 0.4872
H152 H 0.9927 0.6956 0.4708
H153 H 0.9751 0.6093 0.4672
C123 C 0.8451(2) 0.74793(17) 0.44693(7)
H154 H 0.8018 0.7534 0.4318
H155 H 0.8884 0.7870 0.4452
H156 H 0.8167 0.7514 0.4656
C124 C -0.0429(5) 0.4662(8) 0.2013(2)
H157 H -0.0654 0.4804 0.1826
H158 H -0.0554 0.5052 0.2152
H159 H -0.0707 0.4204 0.2075
C125 C 0.0548(4) 0.4546(5) 0.19940(15)
H160 H 0.0644 0.4133 0.1860
H161 H 0.0793 0.4990 0.1903
C126 C -0.0658(11) 0.7211(18) 0.2115(6)
H162 H -0.0954 0.7142 0.1932
H163 H -0.0674 0.7733 0.2168
H164 H -0.0948 0.6920 0.2262
C127 C 0.0286(9) 0.6961(10) 0.2088(4)
H165 H 0.0300 0.6461 0.2003
H166 H 0.0594 0.7296 0.1956
C128 C 0.0755(6) 0.6948(9) 0.2370(3)
H167 H 0.0442 0.6615 0.2501
H168 H 0.0742 0.7448 0.2453
Br1 Br 0.61495(4) 0.52422(4) 0.32524(2)
Br2 Br 0.57780(3) 0.62120(3) 0.41457(2)
C134 C 0.6425(3) 0.5758(2) 0.36172(8)
H185 H 0.6327 0.6297 0.3591
C135 C 0.5789(3) 0.5472(2) 0.38360(8)
H186 H 0.5201 0.5456 0.3747
C136 C 0.5988(2) 0.4739(2) 0.39530(7)
H187 H 0.5862 0.4364 0.3806
H188 H 0.5602 0.4644 0.4117
C137 C 0.6942(3) 0.4652(3) 0.40513(9)
H189 H 0.7054 0.4972 0.4218
H190 H 0.7052 0.4136 0.4108
C138 C 0.7544(3) 0.4865(3) 0.38054(10)
H191 H 0.8152 0.4828 0.3871
H192 H 0.7464 0.4512 0.3647
C139 C 0.7376(3) 0.5633(3) 0.36983(10)
H193 H 0.7745 0.5727 0.3529
H194 H 0.7542 0.5990 0.3848
N1 N 0.5491(2) 0.0322(2) 0.28943(7)
C145 C 0.6608(3) 0.1130(2) 0.31649(8)
H205 H 0.6606 0.1626 0.3083
H206 H 0.7184 0.0911 0.3143
H207 H 0.6461 0.1157 0.3368
C146 C 0.5967(2) 0.06732(18) 0.30165(7)
H169? H 0.0879 0.4714 0.2399
H170? H 0.0912 0.4688 0.2059
H171? H 0.1899 0.6232 0.2250
H172? H 0.1878 0.7108 0.2223
C129? C -0.0430(5) 0.3961(9) 0.2190(3)
H173? H -0.0532 0.4062 0.1987
H174? H -0.0581 0.4397 0.2303
H175? H -0.0788 0.3545 0.2250
C130? C 0.0528(5) 0.3774(6) 0.2236(2)
H176? H 0.0596 0.3518 0.2421
H177? H 0.0723 0.3437 0.2083
C131? C -0.0675(11) 0.674(2) 0.2097(7)
H178? H -0.0921 0.6740 0.1904
H179? H -0.0819 0.7197 0.2194
H180? H -0.0914 0.6320 0.2204
C132? C 0.0297(11) 0.6658(13) 0.2078(5)
H181? H 0.0532 0.7061 0.1959
H182? H 0.0439 0.6186 0.1983
C133? C 0.0732(7) 0.6678(11) 0.2373(4)
H183? H 0.0537 0.7121 0.2478
H184? H 0.0553 0.6240 0.2484
H195? H 0.6084 0.4310 0.4079
H196? H 0.5390 0.4707 0.3878
Br3? Br 0.58955(15) 0.55500(14) 0.32801(4)
Br4? Br 0.76555(15) 0.43546(11) 0.39061(5)
C140? C 0.6840(9) 0.5418(7) 0.3567(2)
H197? H 0.7395 0.5330 0.3463
C141? C 0.6245(8) 0.6227(8) 0.3988(3)
H198? H 0.6455 0.6596 0.4127
H199? H 0.5708 0.6413 0.3899
C142? C 0.6584(8) 0.4701(7) 0.3719(3)
H200? H 0.6381 0.4330 0.3576
C143? C 0.6957(10) 0.6065(8) 0.3755(3)
H201? H 0.7004 0.6505 0.3632
H202? H 0.7519 0.6008 0.3854
C144? C 0.6080(11) 0.5475(8) 0.4137(3)
H203? H 0.5544 0.5527 0.4251
H204? H 0.6559 0.5397 0.4274
loop_
_geom_bond_atom_site_label_1
_geom_bond_atom_site_label_2
_geom_bond_site_symmetry_1
_geom_bond_site_symmetry_2
O1 H1 1_555 1_555
O2 H2 1_555 1_555
O3 H3 1_555 1_555
O4 H4 1_555 1_555
O5 C20 1_555 1_555
O6 C20 1_555 1_555
O7 C80 1_555 1_555
O8 C61 1_555 1_555
O9 C34 1_555 1_555
O10 C25 1_555 1_555
O11 C21 1_555 1_555
O12 C22 1_555 1_555
C1 H5 1_555 1_555
H6 C1 1_555 1_555
C2 C1 1_555 1_555
H7 C2 1_555 1_555
H8 C2 1_555 1_555
C3 C2 1_555 1_555
H9 C3 1_555 1_555
H10 C3 1_555 1_555
C4 C3 1_555 1_555
H11 C4 1_555 1_555
H12 C4 1_555 1_555
C5 H13 1_555 1_555
H14 C5 1_555 1_555
C6 C5 1_555 1_555
H15 C6 1_555 1_555
H16 C6 1_555 1_555
C7 C6 1_555 1_555
H17 C7 1_555 1_555
H18 C7 1_555 1_555
C8 H19 1_555 1_555
H20 C8 1_555 1_555
H21 C8 1_555 1_555
C9 C8 1_555 1_555
H22 C9 1_555 1_555
H23 C9 1_555 1_555
C10 C9 1_555 1_555
H24 C10 1_555 1_555
H25 C10 1_555 1_555
C11 C10 1_555 1_555
H26 C11 1_555 1_555
H27 C11 1_555 1_555
C12 C11 1_555 1_555
H28 C12 1_555 1_555
H29 C12 1_555 1_555
C13 C12 1_555 1_555
H30 C13 1_555 1_555
H31 C13 1_555 1_555
C14 H32 1_555 1_555
H33 C14 1_555 1_555
H34 C14 1_555 1_555
C15 C14 1_555 1_555
H35 C15 1_555 1_555
H36 C15 1_555 1_555
C16 C15 1_555 1_555
H37 C16 1_555 1_555
H38 C16 1_555 1_555
C17 C16 1_555 1_555
H39 C17 1_555 1_555
H40 C17 1_555 1_555
C18 C17 1_555 1_555
H41 C18 1_555 1_555
H42 C18 1_555 1_555
C19 C18 1_555 1_555
H43 C19 1_555 1_555
H44 C19 1_555 1_555
C20 H45 1_555 1_555
H46 C20 1_555 1_555
C21 C23 1_555 1_555
C22 O11 1_555 1_555
H47 C22 1_555 1_555
H48 C22 1_555 1_555
C23 C25 1_555 1_555
C24 C21 1_555 1_555
C25 C30 1_555 1_555
C26 C23 1_555 1_555
C27 C4 1_555 1_555
H49 C27 1_555 1_555
C28 C24 1_555 1_555
H50 C28 1_555 1_555
C29 O12 1_555 1_555
C30 C28 1_555 1_555
C31 C26 1_555 1_555
C32 C27 1_555 1_555
C33 C29 1_555 1_555
C34 O10 1_555 1_555
H51 C34 1_555 1_555
H52 C34 1_555 1_555
C35 C7 1_555 1_555
H53 C35 1_555 1_555
C36 C31 1_555 1_555
C37 C32 1_555 1_555
H54 C37 1_555 1_555
C38 O5 1_555 1_555
C39 C33 1_555 1_555
C40 C35 1_555 1_555
C41 C36 1_555 1_555
C42 C36 1_555 1_555
C43 C37 1_555 1_555
C44 C39 1_555 1_555
C45 O9 1_555 1_555
C46 C40 1_555 1_555
H55 C46 1_555 1_555
C47 C41 1_555 1_555
H56 C47 1_555 1_555
H57 C47 1_555 1_555
H58 C47 1_555 1_555
C48 C41 1_555 1_555
H59 C48 1_555 1_555
H60 C48 1_555 1_555
H61 C48 1_555 1_555
C49 C41 1_555 1_555
H62 C49 1_555 1_555
H63 C49 1_555 1_555
H64 C49 1_555 1_555
C50 C42 1_555 1_555
C51 C13 1_555 1_555
H65 C51 1_555 1_555
C52 C44 1_555 1_555
C53 C45 1_555 1_555
C54 C46 1_555 1_555
C55 C50 1_555 1_555
C56 C50 1_555 1_555
C57 C51 1_555 1_555
C58 C52 1_555 1_555
C59 C52 1_555 1_555
C60 C53 1_555 1_555
C61 C53 1_555 1_555
C62 C19 1_555 1_555
H66 C62 1_555 1_555
C63 C55 1_555 1_555
H67 C63 1_555 1_555
H68 C63 1_555 1_555
H69 C63 1_555 1_555
C64 C55 1_555 1_555
H70 C64 1_555 1_555
H71 C64 1_555 1_555
H72 C64 1_555 1_555
C65 C55 1_555 1_555
H73 C65 1_555 1_555
H74 C65 1_555 1_555
H75 C65 1_555 1_555
C66 C56 1_555 1_555
C67 O6 1_555 1_555
C68 C57 1_555 1_555
H76 C68 1_555 1_555
C69 C58 1_555 1_555
C70 C59 1_555 1_555
H77 C70 1_555 1_555
H78 C70 1_555 1_555
H79 C70 1_555 1_555
C71 C59 1_555 1_555
H80 C71 1_555 1_555
H81 C71 1_555 1_555
H82 C71 1_555 1_555
C72 C59 1_555 1_555
H83 C72 1_555 1_555
H84 C72 1_555 1_555
H85 C72 1_555 1_555
C73 C60 1_555 1_555
C74 C62 1_555 1_555
C75 O1 1_555 1_555
C76 C67 1_555 1_555
C77 C69 1_555 1_555
C78 C69 1_555 1_555
C79 C73 1_555 1_555
C80 O8 1_555 1_555
H86 C80 1_555 1_555
H87 C80 1_555 1_555
C81 O7 1_555 1_555
C82 C75 1_555 1_555
H88 C82 1_555 1_555
H89 C82 1_555 1_555
H90 C82 1_555 1_555
C83 C75 1_555 1_555
H91 C83 1_555 1_555
H92 C83 1_555 1_555
H93 C83 1_555 1_555
C84 C76 1_555 1_555
C85 C77 1_555 1_555
C86 C78 1_555 1_555
H94 C86 1_555 1_555
H95 C86 1_555 1_555
H96 C86 1_555 1_555
C87 C78 1_555 1_555
H97 C87 1_555 1_555
H98 C87 1_555 1_555
H99 C87 1_555 1_555
C88 C78 1_555 1_555
H100 C88 1_555 1_555
H101 C88 1_555 1_555
H102 C88 1_555 1_555
C89 C79 1_555 1_555
C90 C79 1_555 1_555
C91 C84 1_555 1_555
C92 O4 1_555 1_555
C93 C89 1_555 1_555
C94 C90 1_555 1_555
H103 C94 1_555 1_555
H104 C94 1_555 1_555
H105 C94 1_555 1_555
C95 C90 1_555 1_555
H106 C95 1_555 1_555
H107 C95 1_555 1_555
H108 C95 1_555 1_555
C96 C90 1_555 1_555
H109 C96 1_555 1_555
H110 C96 1_555 1_555
H111 C96 1_555 1_555
C97 C91 1_555 1_555
C98 C92 1_555 1_555
H112 C98 1_555 1_555
H113 C98 1_555 1_555
H114 C98 1_555 1_555
C99 C92 1_555 1_555
H115 C99 1_555 1_555
H116 C99 1_555 1_555
H117 C99 1_555 1_555
C100 C93 1_555 1_555
C101 C93 1_555 1_555
C102 C97 1_555 1_555
C103 C97 1_555 1_555
C104 C100 1_555 1_555
C105 C101 1_555 1_555
H118 C105 1_555 1_555
H119 C105 1_555 1_555
H120 C105 1_555 1_555
C106 C101 1_555 1_555
H121 C106 1_555 1_555
H122 C106 1_555 1_555
H123 C106 1_555 1_555
C107 C101 1_555 1_555
H124 C107 1_555 1_555
H125 C107 1_555 1_555
H126 C107 1_555 1_555
C108 C102 1_555 1_555
C109 C103 1_555 1_555
H127 C109 1_555 1_555
H128 C109 1_555 1_555
H129 C109 1_555 1_555
C110 C103 1_555 1_555
H130 C110 1_555 1_555
H131 C110 1_555 1_555
H132 C110 1_555 1_555
C111 C103 1_555 1_555
H133 C111 1_555 1_555
H134 C111 1_555 1_555
H135 C111 1_555 1_555
C112 O2 1_555 1_555
C113 C108 1_555 1_555
C114 C108 1_555 1_555
C115 C112 1_555 1_555
H136 C115 1_555 1_555
H137 C115 1_555 1_555
H138 C115 1_555 1_555
C116 C112 1_555 1_555
H139 C116 1_555 1_555
H140 C116 1_555 1_555
H141 C116 1_555 1_555
C117 C113 1_555 1_555
C118 C114 1_555 1_555
H142 C118 1_555 1_555
H143 C118 1_555 1_555
H144 C118 1_555 1_555
C119 C114 1_555 1_555
H145 C119 1_555 1_555
H146 C119 1_555 1_555
H147 C119 1_555 1_555
C120 C114 1_555 1_555
H148 C120 1_555 1_555
H149 C120 1_555 1_555
H150 C120 1_555 1_555
C121 O3 1_555 1_555
C122 C121 1_555 1_555
H151 C122 1_555 1_555
H152 C122 1_555 1_555
H153 C122 1_555 1_555
C123 C121 1_555 1_555
H154 C123 1_555 1_555
H155 C123 1_555 1_555
H156 C123 1_555 1_555
C124 H157 1_555 1_555
H158 C124 1_555 1_555
H159 C124 1_555 1_555
C125 C1 1_555 1_555
H160 C125 1_555 1_555
H161 C125 1_555 1_555
C126 H162 1_555 1_555
H163 C126 1_555 1_555
H164 C126 1_555 1_555
C127 C126 1_555 1_555
H165 C127 1_555 1_555
H166 C127 1_555 1_555
C128 C5 1_555 1_555
H167 C128 1_555 1_555
H168 C128 1_555 1_555
Br1 C134 1_555 1_555
Br2 C135 1_555 1_555
C134 H185 1_555 1_555
C135 C134 1_555 1_555
H186 C135 1_555 1_555
C136 C135 1_555 1_555
H187 C136 1_555 1_555
H188 C136 1_555 1_555
C137 C136 1_555 1_555
H189 C137 1_555 1_555
H190 C137 1_555 1_555
C138 C137 1_555 1_555
H191 C138 1_555 1_555
H192 C138 1_555 1_555
C139 C134 1_555 1_555
H193 C139 1_555 1_555
H194 C139 1_555 1_555
N1 C146 1_555 1_555
C145 H205 1_555 1_555
H206 C145 1_555 1_555
H207 C145 1_555 1_555
C146 C145 1_555 1_555
C24 C27 1_555 1_555
C29 C32 1_555 1_555
C30 C35 1_555 1_555
C33 C38 1_555 1_555
C38 C43 1_555 1_555
C40 C45 1_555 1_555
C43 C51 1_555 1_555
C54 C61 1_555 1_555
C54 C62 1_555 1_555
C57 C67 1_555 1_555
C66 C75 1_555 1_555
C68 C74 1_555 1_555
C74 C81 1_555 1_555
C76 C81 1_555 1_555
C85 C92 1_555 1_555
C104 C112 1_555 1_555
C117 C121 1_555 1_555
C124 C125 1_555 1_555
C127 C128 1_555 1_555
C138 C139 1_555 1_555

#END
