
#######################################################################
#
#                 Cambridge Crystallographic Data Centre
#                                CCDC 
#
#######################################################################
#
# If this CIF has been generated from an entry in the Cambridge 
# Structural Database, then it will include bibliographic, chemical, 
# crystal, experimental, refinement or atomic coordinate data resulting 
# from the CCDC's data processing and validation procedures.
#
#######################################################################

data_MEDNIV
_chemical_formula_moiety         'C18 H12 Br1 N1 O1'
_chemical_name_systematic        4-(4-bromophenoxy)-9H-carbazole
_symmetry_cell_setting           monoclinic
_symmetry_space_group_name_H-M   'P 21/c'
_symmetry_Int_Tables_number      14
_space_group_name_Hall           '-P 2ybc'
loop_
_symmetry_equiv_pos_site_id
_symmetry_equiv_pos_as_xyz
1 x,y,z
2 -x,1/2+y,1/2-z
3 -x,-y,-z
4 x,1/2-y,1/2+z
_cell_length_a                   9.0745(8)
_cell_length_b                   22.035(2)
_cell_length_c                   7.8704(8)
_cell_angle_alpha                90
_cell_angle_beta                 107.362(3)
_cell_angle_gamma                90
_cell_volume                     1502.04
_exptl_crystal_colour            colorless
_exptl_crystal_description       Block
_cell_formula_units_Z            4
loop_
_atom_site_label
_atom_site_type_symbol
_atom_site_fract_x
_atom_site_fract_y
_atom_site_fract_z
Br1 Br 0.35752(6) 0.52316(3) 0.79740(7)
C1 C -0.2107(5) 0.30089(17) -0.3622(5)
C2 C -0.3571(6) 0.2922(2) -0.4783(6)
H1 H -0.3730 0.2674 -0.5778
C3 C -0.4778(6) 0.3212(2) -0.4427(7)
H2 H -0.5769 0.3163 -0.5203
C4 C -0.4561(5) 0.3576(2) -0.2937(6)
H3 H -0.5406 0.3766 -0.2729
C5 C -0.3109(4) 0.36603(17) -0.1761(5)
H4 H -0.2970 0.3898 -0.0748
C6 C -0.1854(4) 0.33823(16) -0.2118(5)
C7 C -0.0212(4) 0.33813(15) -0.1237(5)
C8 C 0.0459(5) 0.29984(17) -0.2227(6)
C9 C 0.2040(6) 0.2901(2) -0.1748(7)
H5 H 0.2479 0.2647 -0.2407
C10 C 0.2917(5) 0.3192(2) -0.0272(7)
H6 H 0.3979 0.3129 0.0078
C11 C 0.2309(4) 0.35805(18) 0.0745(5)
H7 H 0.2951 0.3774 0.1743
C12 C 0.0737(4) 0.36718(16) 0.0240(5)
C13 C 0.0842(4) 0.43193(18) 0.2705(5)
C14 C 0.1729(6) 0.4827(2) 0.2677(6)
H8 H 0.1782 0.4982 0.1598
C15 C 0.2527(6) 0.5098(2) 0.4234(6)
H9 H 0.3140 0.5435 0.4227
C16 C 0.2419(5) 0.48722(19) 0.5801(5)
C17 C 0.1524(5) 0.4373(2) 0.5838(6)
H10 H 0.1462 0.4220 0.6917
C18 C 0.0724(4) 0.41019(19) 0.4271(6)
H11 H 0.0099 0.3768 0.4280
N1 N -0.0701(4) 0.27779(15) -0.3656(5)
H12 H -0.0569 0.2533 -0.4449
O1 O -0.0020(3) 0.40460(12) 0.1112(3)
loop_
_geom_bond_atom_site_label_1
_geom_bond_atom_site_label_2
_geom_bond_site_symmetry_1
_geom_bond_site_symmetry_2
Br1 C16 1_555 1_555
C1 C2 1_555 1_555
C2 H1 1_555 1_555
C3 C2 1_555 1_555
H2 C3 1_555 1_555
C4 C3 1_555 1_555
H3 C4 1_555 1_555
C5 C4 1_555 1_555
H4 C5 1_555 1_555
C6 C1 1_555 1_555
C7 C6 1_555 1_555
C8 C7 1_555 1_555
C9 C8 1_555 1_555
H5 C9 1_555 1_555
C10 C9 1_555 1_555
H6 C10 1_555 1_555
C11 C10 1_555 1_555
H7 C11 1_555 1_555
C12 C7 1_555 1_555
C13 C14 1_555 1_555
C14 H8 1_555 1_555
C15 C14 1_555 1_555
H9 C15 1_555 1_555
C16 C15 1_555 1_555
C17 C16 1_555 1_555
H10 C17 1_555 1_555
C18 C13 1_555 1_555
H11 C18 1_555 1_555
N1 C1 1_555 1_555
H12 N1 1_555 1_555
O1 C12 1_555 1_555
C5 C6 1_555 1_555
C8 N1 1_555 1_555
C11 C12 1_555 1_555
C13 O1 1_555 1_555
C17 C18 1_555 1_555

#END
