
#######################################################################
#
#                 Cambridge Crystallographic Data Centre
#                                CCDC 
#
#######################################################################
#
# If this CIF has been generated from an entry in the Cambridge 
# Structural Database, then it will include bibliographic, chemical, 
# crystal, experimental, refinement or atomic coordinate data resulting 
# from the CCDC's data processing and validation procedures.
#
#######################################################################

data_MEDPIW
_chemical_name_common            
"1-Phenylethanaminium 4-((1'-hydroxy-1',3'-dihydro-1H,2'H-2,2'-biinden-2'-yl)methyl)benzoate"
_chemical_formula_moiety         'C8 H12 N1 1+,C26 H21 O3 1-'
_chemical_name_systematic        
"(1S)-1-Phenylethanaminium 4-([(1S,2S)-1-hydroxy-2,3-dihydro-1H,1'H-[2,2'-biinden]-2-yl]methyl)benzoate"
_chemical_properties_biological  'potent anti-inflammatory activity'
_symmetry_cell_setting           monoclinic
_symmetry_space_group_name_H-M   'P 21'
_symmetry_Int_Tables_number      4
_space_group_name_Hall           'P 2yb'
loop_
_symmetry_equiv_pos_site_id
_symmetry_equiv_pos_as_xyz
1 x,y,z
2 -x,1/2+y,-z
_cell_length_a                   11.0350(3)
_cell_length_b                   10.1713(3)
_cell_length_c                   11.8533(3)
_cell_angle_alpha                90
_cell_angle_beta                 93.678(2)
_cell_angle_gamma                90
_cell_volume                     1327.68
_exptl_crystal_colour            yellow
_exptl_crystal_description       block
_chemical_melting_point          '467.5 K'
_cell_formula_units_Z            2
loop_
_atom_site_label
_atom_site_type_symbol
_atom_site_fract_x
_atom_site_fract_y
_atom_site_fract_z
O1 O 0.97227(10) 0.67327(12) 0.83449(8)
O2 O 0.92573(9) 0.46529(11) 0.87703(8)
O3 O 0.89439(9) 0.51048(11) 0.09869(8)
H1 H 0.9027(19) 0.499(2) 0.029(2)
C1 C 0.91707(13) 0.37857(15) 0.52630(12)
H2 H 0.9223 0.2909 0.4994
C2 C 0.92760(13) 0.40249(15) 0.64190(12)
H3 H 0.9402 0.3312 0.6931
C3 C 0.91987(11) 0.52948(15) 0.68328(11)
C4 C 0.94029(12) 0.55850(15) 0.80808(11)
C5 C 0.89799(13) 0.63239(15) 0.60755(11)
H4 H 0.8904 0.7196 0.6349
C6 C 0.88715(13) 0.60794(15) 0.49189(12)
H5 H 0.8714 0.6790 0.4411
C7 C 0.89896(11) 0.48130(15) 0.44897(11)
C8 C 0.90019(12) 0.45817(16) 0.32278(10)
H6 H 0.9452 0.3758 0.3104
H7 H 0.9459 0.5308 0.2895
C9 C 0.77439(12) 0.44829(15) 0.25795(11)
C10 C 0.79016(12) 0.43611(15) 0.12766(11)
H8 H 0.7962 0.3421 0.1039
C11 C 0.67726(12) 0.50009(15) 0.07553(11)
C12 C 0.63315(13) 0.49669(17) -0.03744(12)
H9 H 0.6692 0.4411 -0.0904
C13 C 0.53492(14) 0.57693(18) -0.07056(13)
H10 H 0.5038 0.5765 -0.1472
C14 C 0.48202(13) 0.65749(18) 0.00710(15)
H11 H 0.4147 0.7111 -0.0169
C15 C 0.52649(13) 0.66076(17) 0.12012(14)
H12 H 0.4900 0.7157 0.1732
C16 C 0.62537(12) 0.58175(15) 0.15320(12)
C17 C 0.69704(13) 0.57468(15) 0.26644(12)
H13 H 0.6422 0.5681 0.3291
H14 H 0.7495 0.6530 0.2786
C18 C 0.70480(12) 0.32897(15) 0.29625(11)
C19 C 0.75503(14) 0.20146(16) 0.31348(12)
H15 H 0.8364 0.1762 0.3031
C20 C 0.65735(13) 0.11507(16) 0.35061(11)
C21 C 0.65690(16) -0.01722(18) 0.37918(13)
H16 H 0.7294 -0.0677 0.3798
C22 C 0.54745(18) -0.07482(19) 0.40716(14)
H17 H 0.5454 -0.1657 0.4256
C23 C 0.44189(16) -0.0006(2) 0.40821(14)
H18 H 0.3683 -0.0413 0.4270
C24 C 0.44272(14) 0.13288(18) 0.38206(13)
H19 H 0.3709 0.1840 0.3843
C25 C 0.55085(14) 0.18992(16) 0.35255(11)
C26 C 0.57753(14) 0.32620(17) 0.31758(13)
H20 H 0.5273 0.3500 0.2484
H21 H 0.5602 0.3890 0.3783
N1 N 0.90975(11) 0.78051(13) 1.02795(10)
H22 H 0.9082(19) 0.710(2) 1.0743(19)
H23 H 0.966(2) 0.840(2) 1.0589(18)
H24 H 0.933(2) 0.749(2) 0.961(2)
C27 C 0.81467(13) 1.06674(17) 0.92266(13)
H25 H 0.8446 1.0993 0.9942
C28 C 0.80522(14) 1.15072(17) 0.82987(14)
H26 H 0.8271 1.2406 0.8386
C29 C 0.76376(14) 1.10320(18) 0.72436(14)
H27 H 0.7576 1.1604 0.6609
C30 C 0.73157(15) 0.9727(2) 0.71210(13)
H28 H 0.7041 0.9399 0.6399
C31 C 0.73922(14) 0.88904(18) 0.80497(13)
H29 H 0.7161 0.7995 0.7961
C32 C 0.78069(12) 0.93597(16) 0.91144(12)
C33 C 0.78543(13) 0.84192(16) 1.01074(12)
H30 H 0.7257 0.7699 0.9927
C34 C 0.75416(15) 0.90403(17) 1.12179(13)
H31 H 0.6714 0.9394 1.1140
H32 H 0.8114 0.9754 1.1413
H33 H 0.7595 0.8374 1.1816
loop_
_geom_bond_atom_site_label_1
_geom_bond_atom_site_label_2
_geom_bond_site_symmetry_1
_geom_bond_site_symmetry_2
O1 C4 1_555 1_555
O2 C4 1_555 1_555
O3 H1 1_555 1_555
C1 H2 1_555 1_555
C2 C1 1_555 1_555
H3 C2 1_555 1_555
C3 C2 1_555 1_555
C4 C3 1_555 1_555
C5 C3 1_555 1_555
H4 C5 1_555 1_555
C6 C5 1_555 1_555
H5 C6 1_555 1_555
C7 C1 1_555 1_555
C8 C7 1_555 1_555
H6 C8 1_555 1_555
H7 C8 1_555 1_555
C9 C8 1_555 1_555
C10 O3 1_555 1_555
H8 C10 1_555 1_555
C11 C10 1_555 1_555
C12 C11 1_555 1_555
H9 C12 1_555 1_555
C13 C12 1_555 1_555
H10 C13 1_555 1_555
C14 C13 1_555 1_555
H11 C14 1_555 1_555
C15 C14 1_555 1_555
H12 C15 1_555 1_555
C16 C11 1_555 1_555
C17 C9 1_555 1_555
H13 C17 1_555 1_555
H14 C17 1_555 1_555
C18 C9 1_555 1_555
C19 C18 1_555 1_555
H15 C19 1_555 1_555
C20 C19 1_555 1_555
C21 C20 1_555 1_555
H16 C21 1_555 1_555
C22 C21 1_555 1_555
H17 C22 1_555 1_555
C23 C22 1_555 1_555
H18 C23 1_555 1_555
C24 C23 1_555 1_555
H19 C24 1_555 1_555
C25 C20 1_555 1_555
C26 C18 1_555 1_555
H20 C26 1_555 1_555
H21 C26 1_555 1_555
N1 H22 1_555 1_555
H23 N1 1_555 1_555
H24 N1 1_555 1_555
C27 H25 1_555 1_555
C28 C27 1_555 1_555
H26 C28 1_555 1_555
C29 C28 1_555 1_555
H27 C29 1_555 1_555
C30 C29 1_555 1_555
H28 C30 1_555 1_555
C31 C30 1_555 1_555
H29 C31 1_555 1_555
C32 C27 1_555 1_555
C33 N1 1_555 1_555
H30 C33 1_555 1_555
C34 C33 1_555 1_555
H31 C34 1_555 1_555
H32 C34 1_555 1_555
H33 C34 1_555 1_555
C6 C7 1_555 1_555
C9 C10 1_555 1_555
C15 C16 1_555 1_555
C16 C17 1_555 1_555
C24 C25 1_555 1_555
C25 C26 1_555 1_555
C31 C32 1_555 1_555
C32 C33 1_555 1_555

#END
