
#######################################################################
#
#                 Cambridge Crystallographic Data Centre
#                                CCDC 
#
#######################################################################
#
# If this CIF has been generated from an entry in the Cambridge 
# Structural Database, then it will include bibliographic, chemical, 
# crystal, experimental, refinement or atomic coordinate data resulting 
# from the CCDC's data processing and validation procedures.
#
#######################################################################

data_MEDREU
_chemical_formula_moiety         'C18 H20 O4'
_chemical_name_systematic        
'Ethyl 4-methyl-9-oxo-15-oxatetracyclo[10.2.1.0^1,10^.0^4,8^]pentadeca-7,10,13-triene-11-carboxylate'
_symmetry_cell_setting           monoclinic
_symmetry_space_group_name_H-M   'P 21/n'
_symmetry_Int_Tables_number      14
_space_group_name_Hall           '-P 2yn'
loop_
_symmetry_equiv_pos_site_id
_symmetry_equiv_pos_as_xyz
1 x,y,z
2 1/2-x,1/2+y,1/2-z
3 -x,-y,-z
4 1/2+x,1/2-y,1/2+z
_cell_length_a                   10.019(2)
_cell_length_b                   9.0397(18)
_cell_length_c                   17.986(4)
_cell_angle_alpha                90
_cell_angle_beta                 99.99(3)
_cell_angle_gamma                90
_cell_volume                     1604.27
_exptl_crystal_colour            colorless
_exptl_crystal_description       block
_cell_formula_units_Z            4
loop_
_atom_site_label
_atom_site_type_symbol
_atom_site_fract_x
_atom_site_fract_y
_atom_site_fract_z
O1 O 0.30868(11) 0.45925(13) 0.20796(6)
O2 O -0.04645(11) 0.66817(13) 0.04146(6)
O3 O -0.01091(14) 0.63668(16) 0.30397(7)
O4 O -0.04046(12) 0.77444(14) 0.19864(7)
C1 C 0.12796(14) 0.57229(16) 0.13454(8)
C2 C 0.10453(16) 0.57236(18) 0.20558(8)
C3 C 0.19181(18) 0.4452(2) 0.24474(9)
H1 H 0.2104 0.4485 0.3000
C4 C 0.1321(2) 0.3014(2) 0.21010(11)
H2 H 0.0883 0.2284 0.2333
C5 C 0.15541(17) 0.30193(18) 0.14012(11)
H3 H 0.1301 0.2299 0.1034
C6 C 0.23271(16) 0.44535(17) 0.13166(8)
C7 C 0.32545(16) 0.45267(18) 0.07413(9)
H4 H 0.2749 0.4233 0.0254
H5 H 0.3983 0.3819 0.0880
C8 C 0.38717(16) 0.60512(18) 0.06635(10)
H6 H 0.4711 0.5917 0.0472
H7 H 0.4105 0.6477 0.1164
C9 C 0.30023(17) 0.71785(18) 0.01560(9)
C10 C 0.3779(2) 0.8670(2) 0.01453(12)
H8 H 0.4506 0.8730 0.0577
H9 H 0.4169 0.8744 -0.0311
C11 C 0.2762(2) 0.9916(2) 0.01730(13)
H10 H 0.3142 1.0684 0.0523
H11 H 0.2477 1.0350 -0.0322
C12 C 0.16071(18) 0.91531(19) 0.04392(10)
H12 H 0.0882 0.9651 0.0585
C13 C 0.17263(15) 0.76918(18) 0.04460(8)
C14 C 0.07329(15) 0.66921(16) 0.06989(8)
C15 C 0.2567(2) 0.6575(2) -0.06481(9)
H13 H 0.2024 0.7300 -0.0952
H14 H 0.2048 0.5687 -0.0631
H15 H 0.3357 0.6361 -0.0864
C16 C 0.01245(17) 0.6623(2) 0.24170(10)
C17 C -0.1386(2) 0.8684(3) 0.22599(13)
H16 H -0.1330 0.9677 0.2063
H17 H -0.1178 0.8735 0.2806
C18 C -0.2750(3) 0.8118(4) 0.20294(18)
H18 H -0.3381 0.8754 0.2220
H19 H -0.2808 0.7139 0.2228
H20 H -0.2964 0.8088 0.1488
loop_
_geom_bond_atom_site_label_1
_geom_bond_atom_site_label_2
_geom_bond_site_symmetry_1
_geom_bond_site_symmetry_2
O1 C3 1_555 1_555
O2 C14 1_555 1_555
O3 C16 1_555 1_555
O4 C16 1_555 1_555
C1 C2 1_555 1_555
C2 C3 1_555 1_555
C3 H1 1_555 1_555
C4 C3 1_555 1_555
H2 C4 1_555 1_555
C5 C4 1_555 1_555
H3 C5 1_555 1_555
C6 O1 1_555 1_555
C7 C6 1_555 1_555
H4 C7 1_555 1_555
H5 C7 1_555 1_555
C8 C7 1_555 1_555
H6 C8 1_555 1_555
H7 C8 1_555 1_555
C9 C8 1_555 1_555
C10 C9 1_555 1_555
H8 C10 1_555 1_555
H9 C10 1_555 1_555
C11 C10 1_555 1_555
H10 C11 1_555 1_555
H11 C11 1_555 1_555
C12 C11 1_555 1_555
H12 C12 1_555 1_555
C13 C9 1_555 1_555
C14 C1 1_555 1_555
C15 C9 1_555 1_555
H13 C15 1_555 1_555
H14 C15 1_555 1_555
H15 C15 1_555 1_555
C16 C2 1_555 1_555
C17 O4 1_555 1_555
H16 C17 1_555 1_555
H17 C17 1_555 1_555
C18 C17 1_555 1_555
H18 C18 1_555 1_555
H19 C18 1_555 1_555
H20 C18 1_555 1_555
C1 C6 1_555 1_555
C5 C6 1_555 1_555
C12 C13 1_555 1_555
C13 C14 1_555 1_555

#END
