
#######################################################################
#
#                 Cambridge Crystallographic Data Centre
#                                CCDC 
#
#######################################################################
#
# If this CIF has been generated from an entry in the Cambridge 
# Structural Database, then it will include bibliographic, chemical, 
# crystal, experimental, refinement or atomic coordinate data resulting 
# from the CCDC's data processing and validation procedures.
#
#######################################################################

data_MEFGAH
_chemical_formula_moiety         'C28 H30 N2'
_chemical_name_systematic        4,8-bis(4-t-butylphenyl)-1,5-naphthyridine
_symmetry_cell_setting           monoclinic
_symmetry_space_group_name_H-M   'P 21/c'
_symmetry_Int_Tables_number      14
_space_group_name_Hall           '-P 2ybc'
loop_
_symmetry_equiv_pos_site_id
_symmetry_equiv_pos_as_xyz
1 x,y,z
2 -x,1/2+y,1/2-z
3 -x,-y,-z
4 x,1/2-y,1/2+z
_cell_length_a                   11.973(2)
_cell_length_b                   7.8020(16)
_cell_length_c                   12.534(3)
_cell_angle_alpha                90
_cell_angle_beta                 102.95(3)
_cell_angle_gamma                90
_cell_volume                     1141.06
_exptl_crystal_colour            colorless
_exptl_crystal_description       block
_cell_formula_units_Z            2
loop_
_atom_site_label
_atom_site_type_symbol
_atom_site_fract_x
_atom_site_fract_y
_atom_site_fract_z
N1 N 0.4647(2) 0.0394(4) 0.1335(2)
C1 C 0.9139(4) -0.8184(6) -0.0800(4)
H1 H 0.9555 -0.8974 -0.1151
H2 H 0.8544 -0.8785 -0.0552
H3 H 0.9652 -0.7666 -0.0185
C2 C 0.9509(4) -0.6099(6) -0.2063(4)
H4 H 0.9196 -0.5252 -0.2604
H5 H 0.9857 -0.6999 -0.2397
H6 H 1.0075 -0.5577 -0.1491
C3 C 0.7756(4) -0.7833(6) -0.2462(4)
H7 H 0.7366 -0.7081 -0.3031
H8 H 0.7207 -0.8373 -0.2119
H9 H 0.8162 -0.8694 -0.2772
C4 C 0.8607(3) -0.6799(5) -0.1609(3)
C5 C 0.7914(3) -0.5524(4) -0.1095(3)
C6 C 0.8041(3) -0.3748(4) -0.1185(3)
H10 H 0.8574 -0.3334 -0.1558
C7 C 0.7407(2) -0.2607(4) -0.0745(3)
H11 H 0.7489 -0.1439 -0.0854
C8 C 0.6642(3) -0.3168(4) -0.0136(2)
C9 C 0.6556(3) -0.4914(4) -0.0003(3)
H12 H 0.6054 -0.5321 0.0407
C10 C 0.7171(3) -0.6058(4) -0.0444(3)
H13 H 0.7099 -0.7221 -0.0311
C11 C 0.5960(3) -0.1929(4) 0.0358(3)
C12 C 0.5865(3) -0.2126(4) 0.1411(3)
H14 H 0.6206 -0.3054 0.1825
C13 C 0.5238(3) -0.0899(4) 0.1867(3)
H15 H 0.5241 -0.1010 0.2606
C14 C 0.4678(3) 0.0561(4) 0.0258(3)
N1B N 0.5353(2) -0.0394(4) -0.1335(2)
C1B C 0.0861(4) 0.8184(6) 0.0800(4)
H1B H 0.0445 0.8974 0.1151
H2B H 0.1456 0.8785 0.0552
H3B H 0.0348 0.7666 0.0185
C2B C 0.0491(4) 0.6099(6) 0.2063(4)
H4B H 0.0804 0.5252 0.2604
H5B H 0.0143 0.6999 0.2397
H6B H -0.0075 0.5577 0.1491
C3B C 0.2244(4) 0.7833(6) 0.2462(4)
H7B H 0.2634 0.7081 0.3031
H8B H 0.2793 0.8373 0.2119
H9B H 0.1838 0.8694 0.2772
C4B C 0.1393(3) 0.6799(5) 0.1609(3)
C5B C 0.2086(3) 0.5524(4) 0.1095(3)
C6B C 0.1959(3) 0.3748(4) 0.1185(3)
H10B H 0.1426 0.3334 0.1558
C7B C 0.2593(2) 0.2607(4) 0.0745(3)
H11B H 0.2511 0.1439 0.0854
C8B C 0.3358(3) 0.3168(4) 0.0136(2)
C9B C 0.3444(3) 0.4914(4) 0.0003(3)
H12B H 0.3946 0.5321 -0.0407
C10B C 0.2829(3) 0.6058(4) 0.0444(3)
H13B H 0.2901 0.7221 0.0311
C11B C 0.4040(3) 0.1929(4) -0.0358(3)
C12B C 0.4135(3) 0.2126(4) -0.1411(3)
H14B H 0.3794 0.3054 -0.1825
C13B C 0.4762(3) 0.0899(4) -0.1867(3)
H15B H 0.4759 0.1010 -0.2606
C14B C 0.5322(3) -0.0561(4) -0.0258(3)
loop_
_geom_bond_atom_site_label_1
_geom_bond_atom_site_label_2
_geom_bond_site_symmetry_1
_geom_bond_site_symmetry_2
N1 C13 1_555 1_555
C1 H1 1_555 1_555
H2 C1 1_555 1_555
H3 C1 1_555 1_555
C2 H4 1_555 1_555
H5 C2 1_555 1_555
H6 C2 1_555 1_555
C3 H7 1_555 1_555
H8 C3 1_555 1_555
H9 C3 1_555 1_555
C4 C1 1_555 1_555
C5 C4 1_555 1_555
C6 C5 1_555 1_555
H10 C6 1_555 1_555
C7 C6 1_555 1_555
H11 C7 1_555 1_555
C8 C7 1_555 1_555
C9 C8 1_555 1_555
H12 C9 1_555 1_555
C10 C5 1_555 1_555
H13 C10 1_555 1_555
C11 C8 1_555 1_555
C12 C11 1_555 1_555
H14 C12 1_555 1_555
C13 C12 1_555 1_555
H15 C13 1_555 1_555
C14 N1 1_555 1_555
N1B C13B 1_555 1_555
C1B H1B 1_555 1_555
H2B C1B 1_555 1_555
H3B C1B 1_555 1_555
C2B H4B 1_555 1_555
H5B C2B 1_555 1_555
H6B C2B 1_555 1_555
C3B H7B 1_555 1_555
H8B C3B 1_555 1_555
H9B C3B 1_555 1_555
C4B C1B 1_555 1_555
C5B C4B 1_555 1_555
C6B C5B 1_555 1_555
H10B C6B 1_555 1_555
C7B C6B 1_555 1_555
H11B C7B 1_555 1_555
C8B C7B 1_555 1_555
C9B C8B 1_555 1_555
H12B C9B 1_555 1_555
C10B C5B 1_555 1_555
H13B C10B 1_555 1_555
C11B C14 1_555 1_555
C12B C11B 1_555 1_555
H14B C12B 1_555 1_555
C13B C12B 1_555 1_555
H15B C13B 1_555 1_555
C14B C11 1_555 1_555
C2 C4 1_555 1_555
C3 C4 1_555 1_555
C9 C10 1_555 1_555
C14 C14B 1_555 1_555
N1B C14B 1_555 1_555
C2B C4B 1_555 1_555
C3B C4B 1_555 1_555
C8B C11B 1_555 1_555
C9B C10B 1_555 1_555

#END
