
#######################################################################
#
#                 Cambridge Crystallographic Data Centre
#                                CCDC 
#
#######################################################################
#
# If this CIF has been generated from an entry in the Cambridge 
# Structural Database, then it will include bibliographic, chemical, 
# crystal, experimental, refinement or atomic coordinate data resulting 
# from the CCDC's data processing and validation procedures.
#
#######################################################################

data_MEFHIP
_chemical_formula_moiety         'C16 H16 O2'
_chemical_name_systematic        
6-Phenyl-4-propenyl-3a,4-dihydro-1H,3H-cyclopenta(c)furan-5-one
_symmetry_cell_setting           monoclinic
_symmetry_space_group_name_H-M   'P 21/a'
_symmetry_Int_Tables_number      14
_space_group_name_Hall           '-P 2yab'
loop_
_symmetry_equiv_pos_site_id
_symmetry_equiv_pos_as_xyz
1 x,y,z
2 1/2-x,1/2+y,-z
3 -x,-y,-z
4 1/2+x,1/2-y,z
_cell_length_a                   11.7068(14)
_cell_length_b                   15.7393(17)
_cell_length_c                   13.9213(12)
_cell_angle_alpha                90
_cell_angle_beta                 90.707(6)
_cell_angle_gamma                90
_cell_volume                     2564.9
_exptl_crystal_colour            yellow
_exptl_crystal_description       stick
_cell_formula_units_Z            8
loop_
_atom_site_label
_atom_site_type_symbol
_atom_site_fract_x
_atom_site_fract_y
_atom_site_fract_z
O1 O 0.8773(4) 0.1902(3) 0.5735(3)
O2 O 0.4227(4) 0.0894(3) 0.5312(3)
C1 C 0.8132(5) 0.1493(4) 0.6471(4)
H1 H 0.8016 0.1873 0.7010
H2 H 0.8523 0.0987 0.6700
C2 C 0.7009(6) 0.1265(4) 0.5999(4)
C3 C 0.5941(5) 0.1106(3) 0.6272(4)
C4 C 0.5208(6) 0.1130(4) 0.5399(4)
C5 C 0.5922(5) 0.1535(4) 0.4596(4)
H3 H 0.5769 0.2147 0.4611
C6 C 0.7160(5) 0.1410(4) 0.4943(4)
H4 H 0.7484 0.0902 0.4645
C7 C 0.8038(6) 0.2128(4) 0.4947(5)
H5 H 0.8453 0.2146 0.4349
H6 H 0.7677 0.2675 0.5053
C8 C 0.5526(6) 0.0991(4) 0.7263(4)
C9 C 0.6279(5) 0.0790(3) 0.8018(5)
H7 H 0.7047 0.0695 0.7890
C10 C 0.5898(6) 0.0730(4) 0.8947(4)
H8 H 0.6405 0.0601 0.9446
C11 C 0.4768(7) 0.0861(4) 0.9129(5)
H9 H 0.4517 0.0821 0.9758
C12 C 0.3992(6) 0.1048(4) 0.8417(5)
H10 H 0.3224 0.1129 0.8556
C13 C 0.4383(6) 0.1115(4) 0.7473(4)
H11 H 0.3869 0.1245 0.6980
C14 C 0.5622(5) 0.1232(4) 0.3599(4)
H12 H 0.5659 0.0651 0.3484
C15 C 0.5311(5) 0.1722(4) 0.2880(5)
H13 H 0.5267 0.2301 0.3004
C16 C 0.5022(5) 0.1445(4) 0.1887(4)
H14 H 0.5149 0.0845 0.1829
H15 H 0.5497 0.1742 0.1440
H16 H 0.4234 0.1570 0.1749
O3 O 0.7409(4) 0.1969(3) 0.0691(3)
O4 O 1.1877(4) 0.0820(3) 0.0310(3)
C17 C 0.8048(5) 0.1532(4) 0.1434(4)
H17 H 0.7637 0.1033 0.1649
H18 H 0.8181 0.1903 0.1981
C18 C 0.9153(6) 0.1284(4) 0.0990(5)
C19 C 1.0212(6) 0.1112(4) 0.1270(4)
C20 C 1.0947(6) 0.1121(4) 0.0402(4)
C21 C 1.0240(5) 0.1557(4) -0.0413(4)
H19 H 1.0403 0.2167 -0.0374
C22 C 0.9017(5) 0.1433(4) -0.0072(4)
H20 H 0.8683 0.0929 -0.0378
C23 C 0.8160(6) 0.2149(4) -0.0088(4)
H21 H 0.8537 0.2692 0.0005
H22 H 0.7743 0.2161 -0.0694
C24 C 1.0647(6) 0.0985(3) 0.2255(4)
C25 C 0.9907(5) 0.0821(4) 0.3010(5)
H23 H 0.9130 0.0761 0.2883
C26 C 1.0308(7) 0.0745(4) 0.3944(5)
H24 H 0.9798 0.0641 0.4438
C27 C 1.1458(7) 0.0821(4) 0.4149(4)
H25 H 1.1728 0.0769 0.4777
C28 C 1.2200(6) 0.0975(4) 0.3413(5)
H26 H 1.2977 0.1029 0.3545
C29 C 1.1807(6) 0.1050(4) 0.2481(5)
H27 H 1.2326 0.1146 0.1993
C30 C 1.0538(5) 0.1277(4) -0.1415(4)
H28 H 1.0460 0.0701 -0.1550
C31 C 1.0893(5) 0.1757(4) -0.2106(5)
H29 H 1.0980 0.2332 -0.1971
C32 C 1.1172(5) 0.1478(4) -0.3088(4)
H30 H 1.1180 0.0869 -0.3113
H31 H 1.1910 0.1693 -0.3258
H32 H 1.0607 0.1691 -0.3532
loop_
_geom_bond_atom_site_label_1
_geom_bond_atom_site_label_2
_geom_bond_site_symmetry_1
_geom_bond_site_symmetry_2
O1 C1 1_555 1_555
O2 C4 1_555 1_555
C1 H1 1_555 1_555
H2 C1 1_555 1_555
C2 C1 1_555 1_555
C3 C2 1_555 1_555
C4 C3 1_555 1_555
C5 C4 1_555 1_555
H3 C5 1_555 1_555
C6 C2 1_555 1_555
H4 C6 1_555 1_555
C7 O1 1_555 1_555
H5 C7 1_555 1_555
H6 C7 1_555 1_555
C8 C3 1_555 1_555
C9 C8 1_555 1_555
H7 C9 1_555 1_555
C10 C9 1_555 1_555
H8 C10 1_555 1_555
C11 C10 1_555 1_555
H9 C11 1_555 1_555
C12 C11 1_555 1_555
H10 C12 1_555 1_555
C13 C8 1_555 1_555
H11 C13 1_555 1_555
C14 C5 1_555 1_555
H12 C14 1_555 1_555
C15 C14 1_555 1_555
H13 C15 1_555 1_555
C16 C15 1_555 1_555
H14 C16 1_555 1_555
H15 C16 1_555 1_555
H16 C16 1_555 1_555
O3 C17 1_555 1_555
O4 C20 1_555 1_555
C17 H17 1_555 1_555
H18 C17 1_555 1_555
C18 C17 1_555 1_555
C19 C18 1_555 1_555
C20 C19 1_555 1_555
C21 C20 1_555 1_555
H19 C21 1_555 1_555
C22 C18 1_555 1_555
H20 C22 1_555 1_555
C23 O3 1_555 1_555
H21 C23 1_555 1_555
H22 C23 1_555 1_555
C24 C19 1_555 1_555
C25 C24 1_555 1_555
H23 C25 1_555 1_555
C26 C25 1_555 1_555
H24 C26 1_555 1_555
C27 C26 1_555 1_555
H25 C27 1_555 1_555
C28 C27 1_555 1_555
H26 C28 1_555 1_555
C29 C24 1_555 1_555
H27 C29 1_555 1_555
C30 C21 1_555 1_555
H28 C30 1_555 1_555
C31 C30 1_555 1_555
H29 C31 1_555 1_555
C32 C31 1_555 1_555
H30 C32 1_555 1_555
H31 C32 1_555 1_555
H32 C32 1_555 1_555
C5 C6 1_555 1_555
C6 C7 1_555 1_555
C12 C13 1_555 1_555
C21 C22 1_555 1_555
C22 C23 1_555 1_555
C28 C29 1_555 1_555

#END
