
#######################################################################
#
#                 Cambridge Crystallographic Data Centre
#                                CCDC 
#
#######################################################################
#
# If this CIF has been generated from an entry in the Cambridge 
# Structural Database, then it will include bibliographic, chemical, 
# crystal, experimental, refinement or atomic coordinate data resulting 
# from the CCDC's data processing and validation procedures.
#
#######################################################################

data_MEFSIA
_chemical_formula_moiety         'C20 H15 F1 N2 O3'
_chemical_name_systematic        
2'-(3-Phenoxy-4-fluorobenzylidene)-2-hydroxybenzoylhydrazide
_symmetry_cell_setting           orthorhombic
_symmetry_space_group_name_H-M   'P n a 21'
_symmetry_Int_Tables_number      33
_space_group_name_Hall           'P 2c -2n'
loop_
_symmetry_equiv_pos_site_id
_symmetry_equiv_pos_as_xyz
1 x,y,z
2 -x,-y,1/2+z
3 1/2+x,1/2-y,z
4 1/2-x,1/2+y,1/2+z
_cell_length_a                   25.765(4)
_cell_length_b                   11.1850(16)
_cell_length_c                   5.9115(8)
_cell_angle_alpha                90
_cell_angle_beta                 90
_cell_angle_gamma                90
_cell_volume                     1703.59
_exptl_crystal_colour            yellow
_exptl_crystal_description       block
_cell_formula_units_Z            4
loop_
_atom_site_label
_atom_site_type_symbol
_atom_site_fract_x
_atom_site_fract_y
_atom_site_fract_z
O1 O 0.27660(8) -0.12963(19) 0.2417(5)
O2 O 0.26732(10) 0.2310(2) 0.0701(5)
O3 O 0.08704(9) 0.2020(2) 1.2646(5)
N1 N 0.24066(11) 0.0482(3) 0.3211(5)
N2 N 0.21006(10) 0.0020(2) 0.4898(5)
F1 F 0.04272(9) -0.0186(2) 1.2804(5)
C1 C 0.27159(12) -0.0221(3) 0.1965(6)
C2 C 0.29926(11) 0.0333(3) 0.0072(6)
C3 C 0.32954(13) -0.0420(3) -0.1277(6)
H1 H 0.3330 -0.1220 -0.0874
C4 C 0.35439(13) -0.0009(3) -0.3184(7)
H2 H 0.3747 -0.0528 -0.4036
C5 C 0.34927(13) 0.1163(3) -0.3835(7)
H3 H 0.3647 0.1433 -0.5162
C6 C 0.32088(12) 0.1936(3) -0.2496(7)
H4 H 0.3187 0.2739 -0.2892
C7 C 0.29592(12) 0.1537(3) -0.0593(6)
C8 C 0.18833(12) 0.0795(3) 0.6146(6)
H5 H 0.1967 0.1595 0.5927
C9 C 0.15132(12) 0.0497(3) 0.7890(6)
C10 C 0.13636(12) 0.1379(3) 0.9422(6)
H6 H 0.1509 0.2139 0.9322
C11 C 0.10066(13) 0.1140(3) 1.1068(6)
C12 C 0.07906(14) 0.0031(4) 1.1181(7)
C13 C 0.09190(15) -0.0855(3) 0.9682(8)
H7 H 0.0760 -0.1600 0.9764
C14 C 0.12852(13) -0.0628(3) 0.8062(7)
H8 H 0.1383 -0.1231 0.7065
C15 C 0.03956(13) 0.2597(3) 1.2300(7)
C16 C 0.01013(15) 0.2438(3) 1.0406(7)
H9 H 0.0208 0.1920 0.9265
C17 C -0.03585(15) 0.3062(4) 1.0222(8)
H10 H -0.0569 0.2946 0.8962
C18 C -0.05100(15) 0.3851(4) 1.1868(8)
H11 H -0.0815 0.4287 1.1699
C19 C -0.02171(15) 0.3992(4) 1.3720(8)
H12 H -0.0324 0.4518 1.4846
C20 C 0.02457(14) 0.3360(3) 1.3983(7)
H13 H 0.0448 0.3457 1.5274
H14 H 0.2400(12) 0.120(3) 0.306(5)
H15 H 0.260(2) 0.287(4) -0.026(9)
loop_
_geom_bond_atom_site_label_1
_geom_bond_atom_site_label_2
_geom_bond_site_symmetry_1
_geom_bond_site_symmetry_2
O1 C1 1_555 1_555
O2 C7 1_555 1_555
O3 C11 1_555 1_555
N1 N2 1_555 1_555
N2 C8 1_555 1_555
F1 C12 1_555 1_555
C1 N1 1_555 1_555
C2 C1 1_555 1_555
C3 C2 1_555 1_555
H1 C3 1_555 1_555
C4 C3 1_555 1_555
H2 C4 1_555 1_555
C5 C4 1_555 1_555
H3 C5 1_555 1_555
C6 C5 1_555 1_555
H4 C6 1_555 1_555
C7 C2 1_555 1_555
C8 H5 1_555 1_555
C9 C8 1_555 1_555
C10 C9 1_555 1_555
H6 C10 1_555 1_555
C11 C10 1_555 1_555
C12 C11 1_555 1_555
C13 C12 1_555 1_555
H7 C13 1_555 1_555
C14 C9 1_555 1_555
H8 C14 1_555 1_555
C15 O3 1_555 1_555
C16 C15 1_555 1_555
H9 C16 1_555 1_555
C17 C16 1_555 1_555
H10 C17 1_555 1_555
C18 C17 1_555 1_555
H11 C18 1_555 1_555
C19 C18 1_555 1_555
H12 C19 1_555 1_555
C20 C15 1_555 1_555
H13 C20 1_555 1_555
H14 N1 1_555 1_555
H15 O2 1_555 1_555
C6 C7 1_555 1_555
C13 C14 1_555 1_555
C19 C20 1_555 1_555

#END
