
#######################################################################
#
#                 Cambridge Crystallographic Data Centre
#                                CCDC 
#
#######################################################################
#
# If this CIF has been generated from an entry in the Cambridge 
# Structural Database, then it will include bibliographic, chemical, 
# crystal, experimental, refinement or atomic coordinate data resulting 
# from the CCDC's data processing and validation procedures.
#
#######################################################################

data_MEFTID
_chemical_formula_moiety         'C31 H34 N4 O5'
_chemical_name_systematic        
"methyl {[3',6'-bis(diethylamino)-3-oxospiro[isoindole-1,9'-xanthen]-2(3H)-yl]amino}(oxo)acetate"
_symmetry_cell_setting           monoclinic
_symmetry_space_group_name_H-M   'C 2/c'
_symmetry_Int_Tables_number      15
_space_group_name_Hall           '-C 2yn'
loop_
_symmetry_equiv_pos_site_id
_symmetry_equiv_pos_as_xyz
1 x,y,z
2 -x,y,1/2-z
3 1/2+x,1/2+y,z
4 1/2-x,1/2+y,1/2-z
5 -x,-y,-z
6 x,-y,1/2+z
7 1/2-x,1/2-y,-z
8 1/2+x,1/2-y,1/2+z
_cell_length_a                   26.714(7)
_cell_length_b                   8.807(2)
_cell_length_c                   25.248(6)
_cell_angle_alpha                90
_cell_angle_beta                 110.848(3)
_cell_angle_gamma                90
_cell_volume                     5551.19
_exptl_crystal_colour            'pale yellow'
_exptl_crystal_description       block
_cell_formula_units_Z            8
loop_
_atom_site_label
_atom_site_type_symbol
_atom_site_fract_x
_atom_site_fract_y
_atom_site_fract_z
N1 N 0.12046(7) 0.33197(18) 0.07738(6)
N2 N 0.31462(7) 0.33390(18) 0.47242(6)
O1 O 0.21578(5) 0.38271(15) 0.27480(5)
N3 N 0.08553(6) 0.58205(16) 0.30424(6)
N4 N 0.06079(6) 0.44651(16) 0.30709(6)
H1 H 0.0502 0.3881 0.2779
O2 O 0.02055(5) 0.73830(14) 0.31527(5)
O3 O -0.01871(5) 0.24385(14) 0.29659(5)
O4 O 0.02127(6) 0.18612(14) 0.38872(5)
O5 O 0.07119(6) 0.46353(15) 0.40125(5)
C1 C 0.26348(8) 0.3637(2) 0.37198(8)
H2 H 0.2877 0.3030 0.3628
C2 C 0.13582(7) 0.58696(19) 0.29193(7)
C3 C 0.21948(8) 0.42325(19) 0.32914(7)
C4 C 0.16703(8) 0.3603(2) 0.17843(8)
H3 H 0.1948 0.2997 0.1765
C5 C 0.12290(8) 0.3897(2) 0.12889(7)
C6 C 0.18202(7) 0.51639(19) 0.33954(7)
C7 C 0.16972(7) 0.42011(19) 0.23010(7)
C8 C 0.05288(8) 0.4037(2) 0.35522(7)
C9 C 0.12973(7) 0.51124(19) 0.23608(7)
C10 C 0.27180(8) 0.3939(2) 0.42884(7)
C11 C 0.17929(8) 0.8392(2) 0.27448(8)
H4 H 0.2081 0.7899 0.2695
C12 C 0.08129(8) 0.4791(2) 0.13483(8)
H5 H 0.0507 0.4979 0.1033
C13 C 0.09755(7) 0.8329(2) 0.29427(7)
C14 C 0.08535(8) 0.5391(2) 0.18667(7)
H6 H 0.0578 0.6000 0.1889
C15 C 0.23377(8) 0.4875(2) 0.43998(8)
H7 H 0.2379 0.5101 0.4773
C16 C 0.06168(8) 0.7200(2) 0.30569(7)
C17 C 0.09131(8) 0.9887(2) 0.28765(8)
H8 H 0.0618 1.0374 0.2914
C18 C 0.19081(8) 0.5455(2) 0.39656(7)
H9 H 0.1666 0.6068 0.4055
C19 C 0.01426(8) 0.2682(2) 0.34297(7)
C20 C 0.35790(8) 0.2569(2) 0.46039(9)
H10 H 0.3423 0.1827 0.4307
H11 H 0.3797 0.2023 0.4941
C21 C 0.14059(7) 0.75862(19) 0.28723(7)
C22 C 0.16717(8) 0.2566(2) 0.07233(8)
H12 H 0.1559 0.1961 0.0380
H13 H 0.1822 0.1881 0.1042
C23 C 0.08140(8) 0.3868(2) 0.02419(7)
H14 H 0.0985 0.3941 -0.0038
H15 H 0.0701 0.4881 0.0301
C24 C 0.17397(8) 0.9958(2) 0.26930(8)
H16 H 0.2000 1.0523 0.2617
C25 C -0.01551(10) 0.0583(2) 0.38035(9)
H17 H -0.0098 -0.0121 0.3540
H18 H -0.0518 0.0945 0.3656
H19 H -0.0092 0.0082 0.4159
C26 C 0.32063(9) 0.3566(2) 0.53188(8)
H20 H 0.3423 0.2747 0.5542
H21 H 0.2856 0.3499 0.5350
C27 C 0.13009(8) 1.0698(2) 0.27539(8)
H22 H 0.1270 1.1747 0.2711
C28 C 0.21039(9) 0.3664(3) 0.07075(10)
H23 H 0.1956 0.4369 0.0401
H24 H 0.2390 0.3109 0.0652
H25 H 0.2239 0.4209 0.1059
C29 C 0.39380(9) 0.3616(2) 0.44226(10)
H26 H 0.3724 0.4220 0.4107
H27 H 0.4187 0.3023 0.4314
H28 H 0.4131 0.4270 0.4732
C30 C 0.03262(10) 0.2866(2) 0.00112(9)
H29 H 0.0104 0.3223 -0.0357
H30 H 0.0128 0.2895 0.0262
H31 H 0.0436 0.1842 -0.0018
C31 C 0.34600(10) 0.5069(3) 0.55722(8)
H32 H 0.3246 0.5891 0.5359
H33 H 0.3814 0.5133 0.5559
H34 H 0.3480 0.5132 0.5959
loop_
_geom_bond_atom_site_label_1
_geom_bond_atom_site_label_2
_geom_bond_site_symmetry_1
_geom_bond_site_symmetry_2
N1 C5 1_555 1_555
N2 C10 1_555 1_555
O1 C3 1_555 1_555
N3 N4 1_555 1_555
N4 H1 1_555 1_555
O2 C16 1_555 1_555
O3 C19 1_555 1_555
O4 C19 1_555 1_555
O5 C8 1_555 1_555
C1 H2 1_555 1_555
C2 N3 1_555 1_555
C3 C1 1_555 1_555
C4 H3 1_555 1_555
C5 C4 1_555 1_555
C6 C2 1_555 1_555
C7 O1 1_555 1_555
C8 N4 1_555 1_555
C9 C2 1_555 1_555
C10 C1 1_555 1_555
C11 H4 1_555 1_555
C12 C5 1_555 1_555
H5 C12 1_555 1_555
C13 C16 1_555 1_555
C14 C9 1_555 1_555
H6 C14 1_555 1_555
C15 C10 1_555 1_555
H7 C15 1_555 1_555
C16 N3 1_555 1_555
C17 C13 1_555 1_555
H8 C17 1_555 1_555
C18 C6 1_555 1_555
H9 C18 1_555 1_555
C19 C8 1_555 1_555
C20 N2 1_555 1_555
H10 C20 1_555 1_555
H11 C20 1_555 1_555
C21 C2 1_555 1_555
C22 N1 1_555 1_555
H12 C22 1_555 1_555
H13 C22 1_555 1_555
C23 N1 1_555 1_555
H14 C23 1_555 1_555
H15 C23 1_555 1_555
C24 C11 1_555 1_555
H16 C24 1_555 1_555
C25 O4 1_555 1_555
H17 C25 1_555 1_555
H18 C25 1_555 1_555
H19 C25 1_555 1_555
C26 N2 1_555 1_555
H20 C26 1_555 1_555
H21 C26 1_555 1_555
C27 C17 1_555 1_555
H22 C27 1_555 1_555
C28 C22 1_555 1_555
H23 C28 1_555 1_555
H24 C28 1_555 1_555
H25 C28 1_555 1_555
C29 C20 1_555 1_555
H26 C29 1_555 1_555
H27 C29 1_555 1_555
H28 C29 1_555 1_555
C30 C23 1_555 1_555
H29 C30 1_555 1_555
H30 C30 1_555 1_555
H31 C30 1_555 1_555
C31 C26 1_555 1_555
H32 C31 1_555 1_555
H33 C31 1_555 1_555
H34 C31 1_555 1_555
C3 C6 1_555 1_555
C4 C7 1_555 1_555
C7 C9 1_555 1_555
C11 C21 1_555 1_555
C12 C14 1_555 1_555
C13 C21 1_555 1_555
C15 C18 1_555 1_555
C24 C27 1_555 1_555

#END
