
#######################################################################
#
#                 Cambridge Crystallographic Data Centre
#                                CCDC 
#
#######################################################################
#
# If this CIF has been generated from an entry in the Cambridge 
# Structural Database, then it will include bibliographic, chemical, 
# crystal, experimental, refinement or atomic coordinate data resulting 
# from the CCDC's data processing and validation procedures.
#
#######################################################################

data_MEFVUQ
_chemical_formula_moiety         'C19 H18 Br1 N1 O3'
_chemical_name_systematic        
4-(4-Bromophenyl)-5-nitro-6-phenylhept-6-en-2-one
_symmetry_cell_setting           orthorhombic
_symmetry_space_group_name_H-M   'P 21 21 21'
_symmetry_Int_Tables_number      19
_space_group_name_Hall           'P 2ac 2ab'
loop_
_symmetry_equiv_pos_site_id
_symmetry_equiv_pos_as_xyz
1 x,y,z
2 1/2-x,-y,1/2+z
3 -x,1/2+y,1/2-z
4 1/2+x,1/2-y,-z
_cell_length_a                   8.029(2)
_cell_length_b                   10.692(3)
_cell_length_c                   20.651(5)
_cell_angle_alpha                90
_cell_angle_beta                 90
_cell_angle_gamma                90
_cell_volume                     1772.81
_exptl_crystal_colour            colorless
_exptl_crystal_description       block
_cell_formula_units_Z            4
loop_
_atom_site_label
_atom_site_type_symbol
_atom_site_fract_x
_atom_site_fract_y
_atom_site_fract_z
Br1 Br 0.54258(5) 0.75430(5) -0.00260(2)
C1 C 0.3188(5) 0.7790(3) 0.17691(17)
H1 H 0.2895 0.8429 0.2052
C2 C 0.3934(5) 0.8091(4) 0.11821(18)
H2 H 0.4154 0.8920 0.1075
C3 C 0.4341(5) 0.7139(4) 0.07625(17)
C4 C 0.4041(5) 0.5913(4) 0.09187(18)
H3 H 0.4322 0.5277 0.0632
C5 C 0.3314(5) 0.5636(3) 0.15097(18)
H4 H 0.3119 0.4805 0.1619
C6 C 0.2872(5) 0.6568(3) 0.19419(16)
C7 C 0.2089(5) 0.6221(3) 0.25855(16)
H5 H 0.2159 0.5311 0.2636
C8 C 0.2975(5) 0.6831(3) 0.31670(16)
H6 H 0.2731 0.7729 0.3163
C9 C 0.2531(5) 0.6316(3) 0.38283(18)
C10 C 0.2699(5) 0.7168(3) 0.43900(17)
C11 C 0.2350(6) 0.8433(4) 0.43458(19)
H7 H 0.2051 0.8772 0.3948
C12 C 0.2438(5) 0.9202(4) 0.4884(2)
H8 H 0.2221 1.0053 0.4845
C13 C 0.2850(6) 0.8700(5) 0.5477(2)
H9 H 0.2883 0.9208 0.5843
C14 C 0.3210(5) 0.7453(5) 0.55275(19)
H10 H 0.3492 0.7114 0.5928
C15 C 0.3157(4) 0.6708(4) 0.4995(2)
H11 H 0.3433 0.5867 0.5035
C16 C 0.0246(5) 0.6596(4) 0.26037(18)
H12 H -0.0176 0.6479 0.3040
H13 H 0.0148 0.7476 0.2498
C17 C -0.0803(5) 0.5845(4) 0.21382(18)
C18 C -0.1992(7) 0.6539(5) 0.1732(2)
H14 H -0.1402 0.6957 0.1390
H15 H -0.2566 0.7146 0.1992
H16 H -0.2784 0.5967 0.1548
C19 C 0.2044(7) 0.5158(4) 0.3905(2)
H17 H 0.1798 0.4858 0.4317
H18 H 0.1944 0.4634 0.3548
N1 N 0.4855(5) 0.6655(4) 0.30851(15)
O1 O -0.0672(4) 0.4733(3) 0.21088(15)
O2 O 0.5377(4) 0.5608(3) 0.29935(15)
O3 O 0.5715(4) 0.7588(3) 0.31157(16)
loop_
_geom_bond_atom_site_label_1
_geom_bond_atom_site_label_2
_geom_bond_site_symmetry_1
_geom_bond_site_symmetry_2
Br1 C3 1_555 1_555
C1 H1 1_555 1_555
C2 C1 1_555 1_555
H2 C2 1_555 1_555
C3 C2 1_555 1_555
C4 C3 1_555 1_555
H3 C4 1_555 1_555
C5 C4 1_555 1_555
H4 C5 1_555 1_555
C6 C1 1_555 1_555
C7 C6 1_555 1_555
H5 C7 1_555 1_555
C8 C7 1_555 1_555
H6 C8 1_555 1_555
C9 C8 1_555 1_555
C10 C9 1_555 1_555
C11 C10 1_555 1_555
H7 C11 1_555 1_555
C12 C11 1_555 1_555
H8 C12 1_555 1_555
C13 C12 1_555 1_555
H9 C13 1_555 1_555
C14 C13 1_555 1_555
H10 C14 1_555 1_555
C15 C10 1_555 1_555
H11 C15 1_555 1_555
C16 C7 1_555 1_555
H12 C16 1_555 1_555
H13 C16 1_555 1_555
C17 C16 1_555 1_555
C18 C17 1_555 1_555
H14 C18 1_555 1_555
H15 C18 1_555 1_555
H16 C18 1_555 1_555
C19 C9 1_555 1_555
H17 C19 1_555 1_555
H18 C19 1_555 1_555
N1 C8 1_555 1_555
O1 C17 1_555 1_555
O2 N1 1_555 1_555
O3 N1 1_555 1_555
C5 C6 1_555 1_555
C14 C15 1_555 1_555

#END
