
#######################################################################
#
#                 Cambridge Crystallographic Data Centre
#                                CCDC 
#
#######################################################################
#
# If this CIF has been generated from an entry in the Cambridge 
# Structural Database, then it will include bibliographic, chemical, 
# crystal, experimental, refinement or atomic coordinate data resulting 
# from the CCDC's data processing and validation procedures.
#
#######################################################################

data_MEFZAY
_chemical_formula_moiety         '2(C24 H22 N4 O8 S2),3(C6 H4 S4)'
_chemical_name_systematic        
'bis(2,7-bis(n-Butylsulfonyl)-4,5-dinitro-9-dicyanomethylenefluorene) tris(tetrathiafulvalene)'
_symmetry_cell_setting           triclinic
_symmetry_space_group_name_H-M   'P -1'
_symmetry_Int_Tables_number      2
_space_group_name_Hall           '-P 1'
loop_
_symmetry_equiv_pos_site_id
_symmetry_equiv_pos_as_xyz
1 x,y,z
2 -x,-y,-z
_cell_length_a                   10.0885(9)
_cell_length_b                   13.9540(13)
_cell_length_c                   15.7321(9)
_cell_angle_alpha                108.722(7)
_cell_angle_beta                 98.443(8)
_cell_angle_gamma                108.052(7)
_cell_volume                     1918.21
_exptl_crystal_colour            black
_exptl_crystal_description       'trapezoid prism'
_cell_formula_units_Z            1
loop_
_atom_site_label
_atom_site_type_symbol
_atom_site_fract_x
_atom_site_fract_y
_atom_site_fract_z
S1 S 0.68265(11) 0.14404(9) 0.46084(8)
S2 S 0.04539(11) 0.39539(10) 0.07169(7)
O1 O 0.1094(4) -0.0100(3) 0.3673(3)
O2 O -0.1557(3) 0.0979(3) 0.2107(3)
N1 N 0.1382(7) 0.0210(6) 0.3015(6)
N2 N -0.0322(7) 0.1520(8) 0.2591(7)
O3 O 0.0602(7) -0.0122(5) 0.2216(5)
O4 O 0.0132(7) 0.1611(5) 0.3403(4)
O7 O 0.8092(3) 0.2387(3) 0.4820(3)
O8 O 0.6360(4) 0.1188(3) 0.5352(2)
O9 O 0.1598(3) 0.4408(3) 0.0348(2)
O10 O -0.0894(3) 0.3142(3) 0.0084(2)
N5 N 0.8459(4) 0.4157(4) 0.3134(3)
N6 N 0.5882(5) 0.5479(4) 0.1884(3)
C1 C 0.5702(4) 0.2368(3) 0.3555(2)
H1 H 0.6661(4) 0.2780(3) 0.3621(2)
C2 C 0.5371(4) 0.1589(3) 0.3938(2)
C3 C 0.3962(4) 0.0973(3) 0.3841(3)
H2 H 0.3754(4) 0.0445(3) 0.4095(3)
C4 C 0.2851(4) 0.1145(3) 0.3368(3)
C5 C 0.0729(4) 0.2079(3) 0.2164(3)
C6 C 0.0183(4) 0.2576(3) 0.1650(3)
H3 H -0.0812(4) 0.2379(3) 0.1442(3)
C7 C 0.1138(4) 0.3359(3) 0.1436(3)
C8 C 0.2618(4) 0.3658(3) 0.1735(2)
H4 H 0.3250(4) 0.4188(3) 0.1588(2)
C9 C 0.4647(3) 0.3311(3) 0.2630(2)
C10 C 0.4578(3) 0.2538(3) 0.3081(2)
C11 C 0.3112(4) 0.1931(3) 0.2985(2)
C12 C 0.2205(3) 0.2326(3) 0.2470(2)
C13 C 0.3149(3) 0.3152(3) 0.2252(2)
C14 C 0.5874(4) 0.4045(3) 0.2578(2)
C15 C 0.7296(4) 0.4093(3) 0.2898(3)
C16 C 0.5859(4) 0.4839(3) 0.2190(3)
C17 C 0.7283(11) 0.0443(7) 0.3957(7)
H5 H 0.7601(11) 0.0637(7) 0.3461(7)
H6 H 0.8100(11) 0.0415(7) 0.4344(7)
C18 C 0.6080(10) -0.0662(7) 0.3527(6)
H7 H 0.5691(10) -0.0816(7) 0.4018(6)
H8 H 0.5308(10) -0.0647(7) 0.3090(6)
C19 C 0.6540(15) -0.1586(9) 0.3029(8)
H9 H 0.5681(15) -0.2231(9) 0.2646(8)
H10 H 0.7121(15) -0.1385(9) 0.2628(8)
C20 C 0.7350(18) -0.1804(13) 0.3752(11)
H11 H 0.7630(18) -0.2394(13) 0.3446(11)
H12 H 0.6766(18) -0.2004(13) 0.4145(11)
H13 H 0.8201(18) -0.1162(13) 0.4125(11)
C25 C 0.0067(5) 0.5011(4) 0.1461(3)
H23 H -0.0711(5) 0.4641(4) 0.1781(3)
H24 H -0.0529(5) 0.5237(4) 0.0957(3)
C26 C 0.1461(12) 0.5980(8) 0.2003(9)
H25 H 0.1773(12) 0.5918(8) 0.2589(9)
H26 H 0.2149(12) 0.5842(8) 0.1658(9)
C27 C 0.1557(21) 0.7085(13) 0.2325(19)
H27 H 0.2000(21) 0.7334(13) 0.1888(19)
H28 H 0.2218(21) 0.7506(13) 0.2946(19)
C28 C 0.0316(20) 0.7367(15) 0.2255(14)
H29 H 0.0487(20) 0.8129(15) 0.2426(14)
H30 H -0.0117(20) 0.7113(15) 0.2686(14)
H31 H -0.0324(20) 0.6957(15) 0.1636(14)
S3 S 0.2829(2) 0.21106(12) -0.02969(9)
S4 S 0.5946(2) 0.28072(13) 0.04350(11)
S5 S 0.2336(2) 0.02552(10) 0.06022(9)
S6 S 0.5517(2) 0.0955(2) 0.12110(9)
C32 C 0.4221(4) 0.1918(3) 0.0324(3)
C33 C 0.3967(11) 0.3141(6) -0.0528(5)
H39 H 0.3590(11) 0.3455(6) -0.0893(5)
C34 C 0.5338(11) 0.3462(6) -0.0218(5)
H40 H 0.5983(11) 0.4018(6) -0.0330(5)
C35 C 0.4014(4) 0.1144(3) 0.0683(3)
C36 C 0.3127(11) -0.0518(4) 0.1088(4)
H41 H 0.2586(11) -0.1150(4) 0.1156(4)
C37 C 0.4576(12) -0.0094(8) 0.1340(4)
H42 H 0.5059(12) -0.0446(8) 0.1600(4)
S7 S 0.35465(13) 0.55837(10) 0.43229(9)
S8 S 0.30169(14) 0.39070(10) 0.51154(10)
C38 C 0.4285(4) 0.4896(3) 0.4881(3)
C39 C 0.1795(6) 0.4908(5) 0.4299(4)
H43 H 0.1056(6) 0.5085(5) 0.4046(4)
C40 C 0.1541(5) 0.4156(5) 0.4640(4)
H44 H 0.0598(5) 0.3765(5) 0.4623(4)
C38A C 0.5715(4) 0.5104(3) 0.5119(3)
S7A S 0.64535(13) 0.44163(10) 0.56771(9)
C39A C 0.8205(6) 0.5092(5) 0.5701(4)
H43A H 0.8944(6) 0.4915(5) 0.5954(4)
C40A C 0.8459(5) 0.5844(5) 0.5360(4)
S8A S 0.69831(14) 0.60930(10) 0.48846(10)
H44A H 0.9402(5) 0.6235(5) 0.5377(4)
N3? N 0.1492(8) 0.0837(8) 0.3715(7)
N4? N -0.0340(9) 0.0913(11) 0.2028(8)
O5? O 0.0788(8) 0.1409(6) 0.3826(5)
O6? O 0.0032(11) 0.0176(7) 0.1937(6)
C21? C 0.6726(14) 0.0104(10) 0.3716(8)
H14? H 0.5748(14) -0.0442(10) 0.3516(8)
H15? H 0.6981(14) 0.0214(10) 0.3174(8)
C22? C 0.7737(12) -0.0315(8) 0.4154(8)
H16? H 0.7554(12) -0.0354(8) 0.4732(8)
H17? H 0.8730(12) 0.0178(8) 0.4284(8)
C23? C 0.7504(20) -0.1474(12) 0.3447(12)
H18? H 0.6484(20) -0.1940(12) 0.3256(12)
H19? H 0.7809(20) -0.1427(12) 0.2900(12)
C24? C 0.8379(26) -0.1924(17) 0.3939(16)
H20? H 0.8269(26) -0.2643(17) 0.3536(16)
H21? H 0.8062(26) -0.1959(17) 0.4478(16)
H22? H 0.9380(26) -0.1443(17) 0.4131(16)
C29? C 0.1138(21) 0.5851(13) 0.2320(13)
H32? H 0.2082(21) 0.5924(13) 0.2216(13)
H33? H 0.1082(21) 0.5626(13) 0.2841(13)
C30? C 0.0892(22) 0.6865(13) 0.2674(13)
H34? H 0.1800(22) 0.7456(13) 0.3069(13)
H35? H 0.0556(22) 0.7001(13) 0.2130(13)
C31? C -0.0109(32) 0.6972(25) 0.3096(24)
H36? H -0.0363(32) 0.7602(25) 0.3290(24)
H37? H 0.0273(32) 0.6857(25) 0.3634(24)
H38? H -0.0956(32) 0.6340(25) 0.2697(24)
loop_
_geom_bond_atom_site_label_1
_geom_bond_atom_site_label_2
_geom_bond_site_symmetry_1
_geom_bond_site_symmetry_2
S1 O7 1_555 1_555
S2 O9 1_555 1_555
O1 N1 1_555 1_555
O2 N2 1_555 1_555
N1 O3 1_555 1_555
N2 O4 1_555 1_555
O8 S1 1_555 1_555
O10 S2 1_555 1_555
N5 C15 1_555 1_555
N6 C16 1_555 1_555
C1 H1 1_555 1_555
C2 S1 1_555 1_555
C3 C2 1_555 1_555
H2 C3 1_555 1_555
C4 N1 1_555 1_555
C5 N2 1_555 1_555
C6 C5 1_555 1_555
H3 C6 1_555 1_555
C7 S2 1_555 1_555
C8 C7 1_555 1_555
H4 C8 1_555 1_555
C9 C10 1_555 1_555
C10 C1 1_555 1_555
C11 C4 1_555 1_555
C12 C5 1_555 1_555
C13 C8 1_555 1_555
C14 C9 1_555 1_555
C15 C14 1_555 1_555
C16 C14 1_555 1_555
C17 S1 1_555 1_555
H5 C17 1_555 1_555
H6 C17 1_555 1_555
C18 C17 1_555 1_555
H7 C18 1_555 1_555
H8 C18 1_555 1_555
C19 C18 1_555 1_555
H9 C19 1_555 1_555
H10 C19 1_555 1_555
C20 C19 1_555 1_555
H11 C20 1_555 1_555
H12 C20 1_555 1_555
H13 C20 1_555 1_555
C25 S2 1_555 1_555
H23 C25 1_555 1_555
H24 C25 1_555 1_555
C26 C25 1_555 1_555
H25 C26 1_555 1_555
H26 C26 1_555 1_555
C27 C26 1_555 1_555
H27 C27 1_555 1_555
H28 C27 1_555 1_555
C28 C27 1_555 1_555
H29 C28 1_555 1_555
H30 C28 1_555 1_555
H31 C28 1_555 1_555
S3 C32 1_555 1_555
S4 C32 1_555 1_555
S5 C35 1_555 1_555
S6 C35 1_555 1_555
C32 C35 1_555 1_555
C33 S3 1_555 1_555
H39 C33 1_555 1_555
C34 S4 1_555 1_555
H40 C34 1_555 1_555
C36 S5 1_555 1_555
H41 C36 1_555 1_555
C37 S6 1_555 1_555
H42 C37 1_555 1_555
S7 C38 1_555 1_555
S8 C38 1_555 1_555
C38 C38A 1_555 1_555
C39 S7 1_555 1_555
H43 C39 1_555 1_555
C40 S8 1_555 1_555
H44 C40 1_555 1_555
C38A S7A 1_555 1_555
S7A C39A 1_555 1_555
C39A H43A 1_555 1_555
C40A C39A 1_555 1_555
S8A C38A 1_555 1_555
H44A C40A 1_555 1_555
C1 C2 1_555 1_555
C3 C4 1_555 1_555
C6 C7 1_555 1_555
C9 C13 1_555 1_555
C10 C11 1_555 1_555
C11 C12 1_555 1_555
C12 C13 1_555 1_555
C33 C34 1_555 1_555
C36 C37 1_555 1_555
C39 C40 1_555 1_555
C40A S8A 1_555 1_555

#END
