
#######################################################################
#
#                 Cambridge Crystallographic Data Centre
#                                CCDC 
#
#######################################################################
#
# If this CIF has been generated from an entry in the Cambridge 
# Structural Database, then it will include bibliographic, chemical, 
# crystal, experimental, refinement or atomic coordinate data resulting 
# from the CCDC's data processing and validation procedures.
#
#######################################################################

data_MEGCUY
_chemical_formula_moiety         'C35 H56 O4 Si2'
_chemical_name_systematic        
'Dimethyl 3-(5-(triisopropylsilyl)pent-1-en-4-yn-3-ylidene)-4-(3-(triisopropylsilyl)prop-2-yn-1-ylidene)cyclopentane-1,1-dicarboxylate'
_symmetry_cell_setting           triclinic
_symmetry_space_group_name_H-M   'P -1'
_symmetry_Int_Tables_number      2
_space_group_name_Hall           '-P 1'
loop_
_symmetry_equiv_pos_site_id
_symmetry_equiv_pos_as_xyz
1 x,y,z
2 -x,-y,-z
_cell_length_a                   8.1624(13)
_cell_length_b                   13.199(2)
_cell_length_c                   17.708(3)
_cell_angle_alpha                108.260(2)
_cell_angle_beta                 92.017(2)
_cell_angle_gamma                93.497(2)
_cell_volume                     1805.37
_exptl_crystal_colour            colorless
_cell_formula_units_Z            2
loop_
_atom_site_label
_atom_site_type_symbol
_atom_site_fract_x
_atom_site_fract_y
_atom_site_fract_z
Si1 Si 0.66616(5) 0.72238(3) 0.36742(2)
Si2 Si 1.01435(5) 0.82486(3) -0.26063(2)
O1 O 0.46480(14) 0.85114(8) -0.05381(6)
O2 O 0.31365(13) 0.84203(8) 0.04780(6)
O3 O 0.29565(15) 0.54066(9) -0.00878(7)
O4 O 0.23448(15) 0.62790(9) -0.09437(7)
C1 C 0.9577(2) 0.83784(15) 0.45135(10)
H1 H 1.0559 0.8375 0.4827
H2 H 0.8913 0.8924 0.4813
H3 H 0.9866 0.8521 0.4034
C2 C 0.86078(19) 0.72868(13) 0.43004(9)
H4 H 0.8286 0.7181 0.4800
C3 C 0.9701(2) 0.63873(16) 0.38953(10)
H5 H 0.9977 0.6440 0.3386
H6 H 0.9120 0.5706 0.3824
H7 H 1.0689 0.6453 0.4223
C4 C 0.4077(3) 0.56371(15) 0.28336(11)
H8 H 0.3712 0.4892 0.2679
H9 H 0.4414 0.5816 0.2374
H10 H 0.3193 0.6059 0.3062
C5 C 0.5534(2) 0.58691(12) 0.34511(9)
H11 H 0.6332 0.5356 0.3206
C6 C 0.5046(3) 0.55954(15) 0.41948(10)
H12 H 0.4136 0.5994 0.4418
H13 H 0.5962 0.5777 0.4580
H14 H 0.4734 0.4843 0.4053
C7 C 0.4000(2) 0.85290(14) 0.36366(10)
H15 H 0.3195 0.7942 0.3571
H16 H 0.4353 0.8526 0.3125
H17 H 0.3524 0.9190 0.3890
C8 C 0.54762(19) 0.84173(12) 0.41529(8)
H18 H 0.6232 0.9051 0.4224
C9 C 0.4959(2) 0.84634(14) 0.49869(9)
H19 H 0.4501 0.9133 0.5234
H20 H 0.5901 0.8400 0.5304
H21 H 0.4150 0.7886 0.4944
C10 C 0.72957(19) 0.73097(11) 0.27072(8)
C11 C 0.77646(18) 0.73139(11) 0.20699(8)
C12 C 0.83875(18) 0.73203(11) 0.13211(8)
C13 C 1.0174(2) 0.73655(13) 0.12765(9)
H22 H 1.0592 0.7219 0.0775
C14 C 1.1239(2) 0.75997(17) 0.18981(10)
H23 H 1.0865 0.7751 0.2409
H24 H 1.2362 0.7613 0.1824
C15 C 0.72914(18) 0.72203(11) 0.07011(8)
C16 C 0.54654(18) 0.69987(12) 0.07358(8)
H25 H 0.5026 0.7565 0.1155
H26 H 0.5230 0.6324 0.0836
C17 C 0.47119(18) 0.69516(11) -0.00909(8)
C18 C 0.61590(18) 0.66524(11) -0.06449(8)
H27 H 0.6263 0.5887 -0.0823
H28 H 0.6029 0.6896 -0.1105
C19 C 0.76104(18) 0.72468(11) -0.01022(8)
C20 C 0.88445(19) 0.78397(12) -0.02819(8)
H29 H 0.9594 0.8217 0.0134
C21 C 0.91223(19) 0.79493(12) -0.10450(8)
C22 C 0.94868(19) 0.80932(12) -0.16584(8)
C23 C 0.7243(2) 0.71264(13) -0.34662(10)
H30 H 0.6931 0.6978 -0.2992
H31 H 0.7910 0.6581 -0.3763
H32 H 0.6274 0.7137 -0.3786
C24 C 0.82229(19) 0.82173(12) -0.32391(8)
H33 H 0.8558 0.8338 -0.3732
C25 C 0.7119(2) 0.91062(13) -0.28245(10)
H34 H 0.6163 0.9071 -0.3166
H35 H 0.7718 0.9791 -0.2714
H36 H 0.6788 0.9012 -0.2334
C26 C 1.2980(2) 0.70886(13) -0.26142(10)
H37 H 1.3454 0.6414 -0.2813
H38 H 1.2802 0.7235 -0.2058
H39 H 1.3714 0.7645 -0.2684
C27 C 1.1331(2) 0.70434(12) -0.30736(9)
H40 H 1.0669 0.6422 -0.3028
C28 C 1.1580(2) 0.68176(14) -0.39678(9)
H41 H 1.2273 0.7389 -0.4042
H42 H 1.0533 0.6767 -0.4248
H43 H 1.2088 0.6156 -0.4171
C29 C 1.2653(2) 0.98553(13) -0.16960(10)
H44 H 1.3465 0.9340 -0.1819
H45 H 1.2138 0.9838 -0.1221
H46 H 1.3170 1.0557 -0.1615
C30 C 1.13486(19) 0.95843(11) -0.23899(8)
H47 H 1.0553 1.0130 -0.2239
C31 C 1.2121(2) 0.96988(14) -0.31408(10)
H48 H 1.2615 1.0413 -0.3029
H49 H 1.1285 0.9557 -0.3563
H50 H 1.2947 0.9197 -0.3299
C32 C 0.41845(18) 0.80460(11) -0.00949(8)
C33 C 0.2602(2) 0.94733(12) 0.05450(10)
H51 H 0.3543 0.9981 0.0650
H52 H 0.1879 0.9684 0.0974
H53 H 0.2032 0.9451 0.0056
C34 C 0.32485(19) 0.61194(11) -0.03544(8)
C35 C 0.0965(2) 0.55024(13) -0.12746(11)
H54 H 0.1364 0.4822 -0.1549
H55 H 0.0313 0.5736 -0.1642
H56 H 0.0304 0.5435 -0.0853
loop_
_geom_bond_atom_site_label_1
_geom_bond_atom_site_label_2
_geom_bond_site_symmetry_1
_geom_bond_site_symmetry_2
Si1 C2 1_555 1_555
Si2 C22 1_555 1_555
O1 C32 1_555 1_555
O2 C32 1_555 1_555
O3 C34 1_555 1_555
O4 C34 1_555 1_555
C1 H1 1_555 1_555
H2 C1 1_555 1_555
H3 C1 1_555 1_555
C2 C1 1_555 1_555
H4 C2 1_555 1_555
C3 C2 1_555 1_555
H5 C3 1_555 1_555
H6 C3 1_555 1_555
H7 C3 1_555 1_555
C4 H8 1_555 1_555
H9 C4 1_555 1_555
H10 C4 1_555 1_555
C5 Si1 1_555 1_555
H11 C5 1_555 1_555
C6 C5 1_555 1_555
H12 C6 1_555 1_555
H13 C6 1_555 1_555
H14 C6 1_555 1_555
C7 H15 1_555 1_555
H16 C7 1_555 1_555
H17 C7 1_555 1_555
C8 Si1 1_555 1_555
H18 C8 1_555 1_555
C9 C8 1_555 1_555
H19 C9 1_555 1_555
H20 C9 1_555 1_555
H21 C9 1_555 1_555
C10 Si1 1_555 1_555
C11 C10 1_555 1_555
C12 C11 1_555 1_555
C13 C12 1_555 1_555
H22 C13 1_555 1_555
C14 C13 1_555 1_555
H23 C14 1_555 1_555
H24 C14 1_555 1_555
C15 C12 1_555 1_555
C16 C15 1_555 1_555
H25 C16 1_555 1_555
H26 C16 1_555 1_555
C17 C16 1_555 1_555
C18 C17 1_555 1_555
H27 C18 1_555 1_555
H28 C18 1_555 1_555
C19 C15 1_555 1_555
C20 C19 1_555 1_555
H29 C20 1_555 1_555
C21 C20 1_555 1_555
C22 C21 1_555 1_555
C23 H30 1_555 1_555
H31 C23 1_555 1_555
H32 C23 1_555 1_555
C24 Si2 1_555 1_555
H33 C24 1_555 1_555
C25 C24 1_555 1_555
H34 C25 1_555 1_555
H35 C25 1_555 1_555
H36 C25 1_555 1_555
C26 H37 1_555 1_555
H38 C26 1_555 1_555
H39 C26 1_555 1_555
C27 Si2 1_555 1_555
H40 C27 1_555 1_555
C28 C27 1_555 1_555
H41 C28 1_555 1_555
H42 C28 1_555 1_555
H43 C28 1_555 1_555
C29 H44 1_555 1_555
H45 C29 1_555 1_555
H46 C29 1_555 1_555
C30 Si2 1_555 1_555
H47 C30 1_555 1_555
C31 C30 1_555 1_555
H48 C31 1_555 1_555
H49 C31 1_555 1_555
H50 C31 1_555 1_555
C32 C17 1_555 1_555
C33 O2 1_555 1_555
H51 C33 1_555 1_555
H52 C33 1_555 1_555
H53 C33 1_555 1_555
C34 C17 1_555 1_555
C35 O4 1_555 1_555
H54 C35 1_555 1_555
H55 C35 1_555 1_555
H56 C35 1_555 1_555
C4 C5 1_555 1_555
C7 C8 1_555 1_555
C18 C19 1_555 1_555
C23 C24 1_555 1_555
C26 C27 1_555 1_555
C29 C30 1_555 1_555

#END
