
#######################################################################
#
#                 Cambridge Crystallographic Data Centre
#                                CCDC 
#
#######################################################################
#
# If this CIF has been generated from an entry in the Cambridge 
# Structural Database, then it will include bibliographic, chemical, 
# crystal, experimental, refinement or atomic coordinate data resulting 
# from the CCDC's data processing and validation procedures.
#
#######################################################################

data_MEGCAD
_chemical_formula_moiety         'C21 H19 N1 O8'
_chemical_name_systematic        
'Tetramethyl 4aH-pyrido(1,2-a)quinoline-1,2,3,4-tetracarboxylate'
_chemical_properties_biological  'acetylcholinesterase inhibitory activity'
_symmetry_cell_setting           monoclinic
_symmetry_space_group_name_H-M   'P 21'
_symmetry_Int_Tables_number      4
_space_group_name_Hall           'P 2yb'
loop_
_symmetry_equiv_pos_site_id
_symmetry_equiv_pos_as_xyz
1 x,y,z
2 -x,1/2+y,-z
_cell_length_a                   10.257(3)
_cell_length_b                   8.955(3)
_cell_length_c                   11.541(4)
_cell_angle_alpha                90
_cell_angle_beta                 109.772(6)
_cell_angle_gamma                90
_cell_volume                     997.563
_exptl_crystal_colour            yellow
_exptl_crystal_description       block
_chemical_melting_point          179-180deg.C
_cell_formula_units_Z            2
loop_
_atom_site_label
_atom_site_type_symbol
_atom_site_fract_x
_atom_site_fract_y
_atom_site_fract_z
N1 N 1.04027(13) 0.85280(16) 0.71707(11)
O1 O 0.68772(13) 1.10100(15) 0.35469(11)
C1 C 0.91374(16) 0.88597(18) 0.72074(14)
O2 O 0.93751(15) 0.97378(19) 0.92115(12)
O3 O 1.10995(14) 0.8690(2) 0.38914(12)
C2 C 0.82888(16) 0.93547(17) 0.50089(14)
C3 C 0.89734(16) 0.8771(2) 0.84640(15)
O4 O 0.65367(14) 0.9697(2) 0.73181(13)
O5 O 0.89351(16) 0.9294(2) 0.27655(12)
C4 C 1.15866(16) 0.83097(19) 0.82734(14)
C5 C 0.95611(16) 0.91158(19) 0.49521(14)
C6 C 0.70612(17) 0.95785(19) 0.38459(14)
C7 C 0.80557(16) 0.92975(19) 0.61883(15)
O6 O 0.63459(14) 0.85810(16) 0.32950(12)
C8 C 1.08153(15) 0.89419(19) 0.61011(13)
H1 H 1.1395 0.8140 0.5961
C9 C 1.16777(17) 1.0347(2) 0.64287(16)
H2 H 1.1597 1.1084 0.5840
C10 C 0.97960(18) 0.9069(2) 0.37489(15)
O7 O 0.57599(15) 1.0055(3) 0.53121(13)
O8 O 0.83968(14) 0.74989(18) 0.85989(13)
C11 C 1.2801(2) 0.7084(2) 1.01683(16)
H3 H 1.2851 0.6336 1.0741
C12 C 1.38079(18) 0.9205(2) 0.95477(16)
H4 H 1.4542 0.9871 0.9699
C13 C 0.67349(17) 0.9688(2) 0.63520(15)
C14 C 1.26657(16) 0.93445(19) 0.84730(15)
C15 C 1.25440(18) 1.0512(2) 0.75590(17)
H5 H 1.3079 1.1372 0.7776
C16 C 1.16498(19) 0.7171(2) 0.90972(16)
H6 H 1.0938 0.6476 0.8940
C17 C 1.3863(2) 0.8098(2) 1.03840(17)
H7 H 1.4626 0.8032 1.1103
C18 C 1.1432(3) 0.8524(4) 0.2773(2)
H8 H 1.0865 0.7753 0.2272
H9 H 1.2391 0.8260 0.2980
H10 H 1.1260 0.9449 0.2326
C19 C 0.5671(2) 1.1351(3) 0.2508(2)
H11 H 0.5818 1.1041 0.1766
H12 H 0.5503 1.2407 0.2478
H13 H 0.4885 1.0833 0.2586
C20 C 0.8093(3) 0.7350(4) 0.9738(2)
H14 H 0.8910 0.7571 1.0425
H15 H 0.7799 0.6346 0.9810
H16 H 0.7369 0.8033 0.9729
C21 C 0.4430(2) 1.0474(5) 0.5377(3)
H17 H 0.3985 0.9610 0.5567
H18 H 0.3864 1.0879 0.4600
H19 H 0.4555 1.1212 0.6009
loop_
_geom_bond_atom_site_label_1
_geom_bond_atom_site_label_2
_geom_bond_site_symmetry_1
_geom_bond_site_symmetry_2
N1 C1 1_555 1_555
O1 C6 1_555 1_555
C1 C3 1_555 1_555
O2 C3 1_555 1_555
O3 C10 1_555 1_555
C2 C5 1_555 1_555
C3 O8 1_555 1_555
O4 C13 1_555 1_555
O5 C10 1_555 1_555
C4 N1 1_555 1_555
C5 C8 1_555 1_555
C6 C2 1_555 1_555
C7 C1 1_555 1_555
O6 C6 1_555 1_555
C8 N1 1_555 1_555
H1 C8 1_555 1_555
C9 C8 1_555 1_555
H2 C9 1_555 1_555
C10 C5 1_555 1_555
O7 C13 1_555 1_555
O8 C20 1_555 1_555
C11 H3 1_555 1_555
C12 H4 1_555 1_555
C13 C7 1_555 1_555
C14 C4 1_555 1_555
C15 C9 1_555 1_555
H5 C15 1_555 1_555
C16 C4 1_555 1_555
H6 C16 1_555 1_555
C17 C11 1_555 1_555
H7 C17 1_555 1_555
C18 O3 1_555 1_555
H8 C18 1_555 1_555
H9 C18 1_555 1_555
H10 C18 1_555 1_555
C19 O1 1_555 1_555
H11 C19 1_555 1_555
H12 C19 1_555 1_555
H13 C19 1_555 1_555
C20 H14 1_555 1_555
H15 C20 1_555 1_555
H16 C20 1_555 1_555
C21 O7 1_555 1_555
H17 C21 1_555 1_555
H18 C21 1_555 1_555
H19 C21 1_555 1_555
C2 C7 1_555 1_555
C11 C16 1_555 1_555
C12 C14 1_555 1_555
C12 C17 1_555 1_555
C14 C15 1_555 1_555

#END
