
#######################################################################
#
#                 Cambridge Crystallographic Data Centre
#                                CCDC 
#
#######################################################################
#
# If this CIF has been generated from an entry in the Cambridge 
# Structural Database, then it will include bibliographic, chemical, 
# crystal, experimental, refinement or atomic coordinate data resulting 
# from the CCDC's data processing and validation procedures.
#
#######################################################################

data_MEGHAH
_chemical_formula_moiety         'C18 H29 Br2 N1 O2'
_chemical_name_systematic        
'N-((6,6-Dibromobicyclo[3.1.0]hex-3-yl)methyl)carbamic acid menthyl ester'
_symmetry_cell_setting           orthorhombic
_symmetry_space_group_name_H-M   'P 21 21 21'
_symmetry_Int_Tables_number      19
_space_group_name_Hall           'P 2ac 2ab'
loop_
_symmetry_equiv_pos_site_id
_symmetry_equiv_pos_as_xyz
1 x,y,z
2 1/2-x,-y,1/2+z
3 1/2+x,1/2-y,-z
4 -x,1/2+y,1/2-z
_cell_length_a                   7.080(3)
_cell_length_b                   9.637(1)
_cell_length_c                   29.064(2)
_cell_angle_alpha                90
_cell_angle_beta                 90
_cell_angle_gamma                90
_cell_volume                     1983.04
_exptl_crystal_colour            colorless
_exptl_crystal_description       plate
_chemical_melting_point          90-91deg.C
_cell_formula_units_Z            4
loop_
_atom_site_label
_atom_site_type_symbol
_atom_site_fract_x
_atom_site_fract_y
_atom_site_fract_z
Br1 Br 0.5301(1) 0.77159(8) 0.45959(2)
Br2 Br 0.6195(1) 1.05310(8) 0.40897(3)
O1 O 1.0406(6) 0.7766(4) 0.2275(1)
O2 O 0.9642(6) 0.9772(3) 0.1910(1)
N1 N 1.0664(7) 0.9873(5) 0.2622(1)
C1 C 0.741(1) 0.7764(6) 0.3746(2)
C2 C 0.8925(9) 0.9038(5) 0.1505(2)
C3 C 0.804(1) 0.8442(7) 0.3309(2)
C4 C 0.7035(8) 0.9699(6) 0.1378(2)
C5 C 0.971(1) 0.9436(6) 0.3421(2)
C6 C 0.6378(9) 0.9110(7) 0.0920(2)
C7 C 1.038(1) 0.8994(7) 0.3912(2)
C8 C 0.784(1) 0.9267(7) 0.0544(2)
C9 C 0.885(1) 0.8125(6) 0.4119(2)
C10 C 0.972(1) 0.8559(6) 0.0670(2)
C11 C 0.692(1) 0.8595(6) 0.4148(2)
C12 C 1.0394(9) 0.9119(5) 0.1137(2)
C13 C 1.1281(9) 0.9381(6) 0.3072(2)
C14 C 0.5450(9) 0.9568(7) 0.1746(2)
C15 C 0.535(1) 0.8113(7) 0.1963(3)
C16 C 0.554(1) 1.0675(8) 0.2119(2)
C17 C 1.120(1) 0.8746(8) 0.0308(2)
C18 C 1.0263(9) 0.9021(6) 0.2272(2)
H1 H 0.6634 0.6733 0.3755
H2 H 0.8722 0.8092 0.1583
H3 H 1.0361 1.0959 0.2569
H4 H 0.7029 0.8954 0.3179
H5 H 0.7259 1.0661 0.1333
H6 H 0.8450 0.7754 0.3096
H7 H 0.5881 0.8303 0.0971
H8 H 0.5096 0.9345 0.0809
H9 H 0.9241 1.0359 0.3436
H10 H 1.1517 0.8472 0.3891
H11 H 0.8068 1.0227 0.0494
H12 H 0.7368 0.8860 0.0269
H13 H 1.0593 0.9793 0.4097
H14 H 0.9443 0.7677 0.0740
H15 H 0.9255 0.7466 0.4375
H16 H 1.1549 0.8588 0.1206
H17 H 1.0737 1.0147 0.1083
H18 H 1.1624 0.8381 0.3081
H19 H 0.4133 1.0006 0.1551
H20 H 1.2358 0.9745 0.3218
H21 H 0.6454 0.7950 0.2139
H22 H 0.5255 0.7435 0.1726
H23 H 0.4269 0.8056 0.2156
H24 H 0.4461 1.0603 0.2311
H25 H 0.5572 1.1568 0.1980
H26 H 0.6651 1.0545 0.2298
H27 H 1.0651 0.8611 0.0013
H28 H 1.2181 0.8089 0.0353
H29 H 1.1703 0.9658 0.0327
loop_
_geom_bond_atom_site_label_1
_geom_bond_atom_site_label_2
_geom_bond_site_symmetry_1
_geom_bond_site_symmetry_2
Br1 C11 1_555 1_555
Br2 C11 1_555 1_555
O1 C18 1_555 1_555
O2 C2 1_555 1_555
N1 C13 1_555 1_555
C1 C3 1_555 1_555
C2 C4 1_555 1_555
C3 C5 1_555 1_555
C4 C6 1_555 1_555
C5 C7 1_555 1_555
C6 C8 1_555 1_555
C7 C9 1_555 1_555
C8 C10 1_555 1_555
C9 C1 1_555 1_555
C10 C12 1_555 1_555
C11 C1 1_555 1_555
C12 C2 1_555 1_555
C13 C5 1_555 1_555
C14 C4 1_555 1_555
C15 C14 1_555 1_555
C16 C14 1_555 1_555
C17 C10 1_555 1_555
C18 O2 1_555 1_555
H1 C1 1_555 1_555
H2 C2 1_555 1_555
H3 N1 1_555 1_555
H4 C3 1_555 1_555
H5 C4 1_555 1_555
H6 C3 1_555 1_555
H7 C6 1_555 1_555
H8 C6 1_555 1_555
H9 C5 1_555 1_555
H10 C7 1_555 1_555
H11 C8 1_555 1_555
H12 C8 1_555 1_555
H13 C7 1_555 1_555
H14 C10 1_555 1_555
H15 C9 1_555 1_555
H16 C12 1_555 1_555
H17 C12 1_555 1_555
H18 C13 1_555 1_555
H19 C14 1_555 1_555
H20 C13 1_555 1_555
H21 C15 1_555 1_555
H22 C15 1_555 1_555
H23 C15 1_555 1_555
H24 C16 1_555 1_555
H25 C16 1_555 1_555
H26 C16 1_555 1_555
H27 C17 1_555 1_555
H28 C17 1_555 1_555
H29 C17 1_555 1_555
N1 C18 1_555 1_555
C9 C11 1_555 1_555

#END
