
#######################################################################
#
#                 Cambridge Crystallographic Data Centre
#                                CCDC 
#
#######################################################################
#
# If this CIF has been generated from an entry in the Cambridge 
# Structural Database, then it will include bibliographic, chemical, 
# crystal, experimental, refinement or atomic coordinate data resulting 
# from the CCDC's data processing and validation procedures.
#
#######################################################################

data_MEGHIP
_chemical_formula_moiety         'C19 H30 Br1 N1 O2'
_chemical_name_systematic        
'Menthyl 8-bromo-2-aza-bicyclo[3.3.1]nona-7-ene-2-carboxylate'
_symmetry_cell_setting           monoclinic
_symmetry_space_group_name_H-M   'P 21'
_symmetry_Int_Tables_number      4
_space_group_name_Hall           'P 2yb'
loop_
_symmetry_equiv_pos_site_id
_symmetry_equiv_pos_as_xyz
1 x,y,z
2 -x,1/2+y,-z
_cell_length_a                   8.4008(5)
_cell_length_b                   9.9077(6)
_cell_length_c                   11.8739(8)
_cell_angle_alpha                90
_cell_angle_beta                 97.278(4)
_cell_angle_gamma                90
_cell_volume                     980.333
_exptl_crystal_colour            colorless
_exptl_crystal_description       prism
_chemical_melting_point          85-87deg.C
_cell_formula_units_Z            2
loop_
_atom_site_label
_atom_site_type_symbol
_atom_site_fract_x
_atom_site_fract_y
_atom_site_fract_z
Br1 Br 1.20043(3) 0.360000 0.94106(3)
O1 O 0.9555(2) 0.4716(2) 0.6576(1)
O2 O 0.8395(3) 0.6621(2) 0.7137(2)
N1 N 0.8304(3) 0.4667(3) 0.8133(2)
C1 C 1.1179(3) 0.4666(3) 0.5048(2)
C2 C 0.8735(3) 0.5448(3) 0.7269(2)
C3 C 0.9769(3) 0.5355(3) 0.5490(2)
C4 C 0.8224(3) 0.5209(3) 0.4701(2)
C5 C 1.2744(4) 0.4762(3) 0.5883(3)
C6 C 0.7262(4) 0.2405(3) 0.8384(3)
C7 C 0.6041(4) 0.4380(4) 0.9205(3)
C8 C 0.8363(4) 0.5731(3) 0.3505(2)
C9 C 0.9777(4) 0.5058(3) 0.3085(2)
C10 C 0.6441(4) 0.2887(4) 0.9385(3)
C11 C 0.8782(3) 0.3261(3) 0.8336(2)
C12 C 1.1315(4) 0.5225(3) 0.3848(3)
C13 C 0.9808(3) 0.3151(3) 0.9456(3)
C14 C 0.7423(4) 0.5275(3) 0.9004(3)
C15 C 0.6786(5) 0.5549(4) 0.2742(3)
C16 C 0.7543(4) 0.2602(3) 1.0480(3)
C17 C 1.4088(4) 0.3942(4) 0.5450(3)
C18 C 0.9287(4) 0.2854(3) 1.0412(3)
C19 C 1.3290(5) 0.6188(4) 0.6159(4)
H1 H 1.092994 0.372191 0.496855
H2 H 1.000749 0.629390 0.562678
H3 H 0.739055 0.569384 0.501073
H4 H 0.796155 0.426584 0.465972
H5 H 1.250293 0.437206 0.658231
H6 H 0.656766 0.248414 0.767981
H7 H 0.756966 0.147914 0.850781
H8 H 0.858727 0.668064 0.354331
H9 H 0.987930 0.542597 0.234978
H10 H 0.952430 0.411498 0.301378
H11 H 0.545282 0.240239 0.939176
H12 H 0.937266 0.297572 0.773788
H13 H 1.215577 0.475872 0.353176
H14 H 1.156977 0.616772 0.391577
H15 H 0.701162 0.614073 0.874959
H16 H 0.812962 0.537873 0.969959
H17 H 0.595172 0.601367 0.306766
H18 H 0.652672 0.460667 0.267066
H19 H 0.688072 0.591667 0.200566
H20 H 1.372705 0.303798 0.527593
H21 H 1.500805 0.391998 0.601893
H22 H 1.437305 0.436399 0.477493
H23 H 1.004186 0.279524 1.108853
H24 H 1.242406 0.666591 0.643539
H25 H 1.356906 0.662691 0.549139
H26 H 1.420406 0.618291 0.673439
H27 H 0.738483 0.167388 1.066918
H28 H 0.719683 0.317188 1.105718
H29 H 0.561355 0.467264 0.987627
H30 H 0.521855 0.443064 0.856627
loop_
_geom_bond_atom_site_label_1
_geom_bond_atom_site_label_2
_geom_bond_site_symmetry_1
_geom_bond_site_symmetry_2
Br1 C13 1_555 1_555
O1 C2 1_555 1_555
O2 C2 1_555 1_555
N1 C2 1_555 1_555
C1 C3 1_555 1_555
C3 O1 1_555 1_555
C4 C3 1_555 1_555
C5 C1 1_555 1_555
C6 C10 1_555 1_555
C7 C10 1_555 1_555
C8 C4 1_555 1_555
C9 C8 1_555 1_555
C10 C16 1_555 1_555
C11 N1 1_555 1_555
C12 C1 1_555 1_555
C13 C11 1_555 1_555
C14 N1 1_555 1_555
C15 C8 1_555 1_555
C16 C18 1_555 1_555
C17 C5 1_555 1_555
C18 C13 1_555 1_555
C19 C5 1_555 1_555
H1 C1 1_555 1_555
H2 C3 1_555 1_555
H3 C4 1_555 1_555
H4 C4 1_555 1_555
H5 C5 1_555 1_555
H6 C6 1_555 1_555
H7 C6 1_555 1_555
H8 C8 1_555 1_555
H9 C9 1_555 1_555
H10 C9 1_555 1_555
H11 C10 1_555 1_555
H12 C11 1_555 1_555
H13 C12 1_555 1_555
H14 C12 1_555 1_555
H15 C14 1_555 1_555
H16 C14 1_555 1_555
H17 C15 1_555 1_555
H18 C15 1_555 1_555
H19 C15 1_555 1_555
H20 C17 1_555 1_555
H21 C17 1_555 1_555
H22 C17 1_555 1_555
H23 C18 1_555 1_555
H24 C19 1_555 1_555
H25 C19 1_555 1_555
H26 C19 1_555 1_555
H27 C16 1_555 1_555
H28 C16 1_555 1_555
H29 C7 1_555 1_555
H30 C7 1_555 1_555
C6 C11 1_555 1_555
C7 C14 1_555 1_555
C9 C12 1_555 1_555

#END
