
#######################################################################
#
#                 Cambridge Crystallographic Data Centre
#                                CCDC 
#
#######################################################################
#
# If this CIF has been generated from an entry in the Cambridge 
# Structural Database, then it will include bibliographic, chemical, 
# crystal, experimental, refinement or atomic coordinate data resulting 
# from the CCDC's data processing and validation procedures.
#
#######################################################################

data_MEGHEL
_chemical_formula_moiety         'C20 H24 Br1 N1 O2'
_chemical_name_systematic        
'2-Phenylcyclohexyl 4-bromo-6-aza-bicyclo[3.2.1]oct-3-ene-6-carboxylate'
_symmetry_cell_setting           orthorhombic
_symmetry_space_group_name_H-M   'P 21 21 21'
_symmetry_Int_Tables_number      19
_space_group_name_Hall           'P 2ac 2ab'
loop_
_symmetry_equiv_pos_site_id
_symmetry_equiv_pos_as_xyz
1 x,y,z
2 1/2-x,-y,1/2+z
3 1/2+x,1/2-y,-z
4 -x,1/2+y,1/2-z
_cell_length_a                   9.591(2)
_cell_length_b                   12.8947(9)
_cell_length_c                   14.871(2)
_cell_angle_alpha                90
_cell_angle_beta                 90
_cell_angle_gamma                90
_cell_volume                     1839.14
_exptl_crystal_colour            colorless
_exptl_crystal_description       plate
_chemical_melting_point          87-88deg.C
_cell_formula_units_Z            4
loop_
_atom_site_label
_atom_site_type_symbol
_atom_site_fract_x
_atom_site_fract_y
_atom_site_fract_z
Br1 Br 0.60228(2) 0.50955(1) 0.43078(1)
O1 O 0.4454(1) 0.30398(8) 0.31321(8)
O2 O 0.4592(1) 0.13023(9) 0.33957(8)
N1 N 0.4260(1) 0.2457(1) 0.45223(9)
C1 C 0.4242(2) 0.2416(2) 0.6107(1)
C2 C 0.5634(2) 0.2886(1) 0.6409(1)
C3 C 0.6140(2) 0.3733(1) 0.5798(1)
C4 C 0.5402(2) 0.4017(1) 0.5093(1)
C5 C 0.4031(2) 0.3515(1) 0.4866(1)
C6 C 0.4413(2) 0.1714(1) 0.5272(1)
C7 C 0.3283(2) 0.3273(2) 0.5752(1)
C8 C 0.4453(2) 0.2188(1) 0.3662(1)
C9 C 0.4635(2) 0.2898(1) 0.2176(1)
C10 C 0.4090(2) 0.3897(1) 0.1740(1)
C11 C 0.4316(3) 0.3821(2) 0.0721(1)
C12 C 0.5823(3) 0.3646(2) 0.0492(1)
C13 C 0.6384(3) 0.2684(2) 0.0945(2)
C14 C 0.6151(2) 0.2719(2) 0.1959(1)
C15 C 0.2615(2) 0.4162(1) 0.2016(1)
C16 C 0.2387(2) 0.4834(2) 0.2724(1)
C17 C 0.1058(2) 0.5101(2) 0.3000(2)
C18 C -0.0081(3) 0.4709(2) 0.2558(2)
C19 C 0.0112(2) 0.4042(2) 0.1856(2)
C20 C 0.1447(2) 0.3758(2) 0.1580(1)
H1 H 0.3810 0.2048 0.6586
H2 H 0.5520 0.3164 0.6996
H3 H 0.6315 0.2351 0.6423
H4 H 0.7002 0.4068 0.5922
H5 H 0.3481 0.3925 0.4472
H6 H 0.3709 0.1197 0.5252
H7 H 0.5304 0.1394 0.5264
H8 H 0.3263 0.3857 0.6141
H9 H 0.2360 0.3031 0.5655
H10 H 0.4097 0.2324 0.1978
H11 H 0.4667 0.4445 0.1949
H12 H 0.4014 0.4449 0.0449
H13 H 0.3781 0.3259 0.0494
H14 H 0.5911 0.3570 -0.0141
H15 H 0.6351 0.4229 0.0684
H16 H 0.5923 0.2094 0.0706
H17 H 0.7356 0.2633 0.0829
H18 H 0.6437 0.2078 0.2215
H19 H 0.6690 0.3266 0.2209
H20 H 0.3166 0.5122 0.3030
H21 H 0.0934 0.5555 0.3496
H22 H -0.0996 0.4900 0.2738
H23 H -0.0675 0.3766 0.1551
H24 H 0.1562 0.3288 0.1094
loop_
_geom_bond_atom_site_label_1
_geom_bond_atom_site_label_2
_geom_bond_site_symmetry_1
_geom_bond_site_symmetry_2
Br1 C4 1_555 1_555
O1 C8 1_555 1_555
O2 C8 1_555 1_555
N1 C5 1_555 1_555
C1 C2 1_555 1_555
C2 C3 1_555 1_555
C3 C4 1_555 1_555
C4 C5 1_555 1_555
C5 C7 1_555 1_555
C6 N1 1_555 1_555
C7 C1 1_555 1_555
C8 N1 1_555 1_555
C9 O1 1_555 1_555
C10 C9 1_555 1_555
C11 C10 1_555 1_555
C12 C11 1_555 1_555
C13 C12 1_555 1_555
C14 C9 1_555 1_555
C15 C10 1_555 1_555
C16 C15 1_555 1_555
C17 C16 1_555 1_555
C18 C17 1_555 1_555
C19 C18 1_555 1_555
C20 C15 1_555 1_555
H1 C1 1_555 1_555
H2 C2 1_555 1_555
H3 C2 1_555 1_555
H4 C3 1_555 1_555
H5 C5 1_555 1_555
H6 C6 1_555 1_555
H7 C6 1_555 1_555
H8 C7 1_555 1_555
H9 C7 1_555 1_555
H10 C9 1_555 1_555
H11 C10 1_555 1_555
H12 C11 1_555 1_555
H13 C11 1_555 1_555
H14 C12 1_555 1_555
H15 C12 1_555 1_555
H16 C13 1_555 1_555
H17 C13 1_555 1_555
H18 C14 1_555 1_555
H19 C14 1_555 1_555
H20 C16 1_555 1_555
H21 C17 1_555 1_555
H22 C18 1_555 1_555
H23 C19 1_555 1_555
H24 C20 1_555 1_555
C1 C6 1_555 1_555
C13 C14 1_555 1_555
C19 C20 1_555 1_555

#END
