
#######################################################################
#
#                 Cambridge Crystallographic Data Centre
#                                CCDC 
#
#######################################################################
#
# If this CIF has been generated from an entry in the Cambridge 
# Structural Database, then it will include bibliographic, chemical, 
# crystal, experimental, refinement or atomic coordinate data resulting 
# from the CCDC's data processing and validation procedures.
#
#######################################################################

data_MEGLUG
_chemical_formula_moiety         'C10 H10 N2 O2'
_chemical_name_systematic        
(3-(2-Methylphenyl)-1,2,4-oxadiazol-5-yl)methanol
_symmetry_cell_setting           monoclinic
_symmetry_space_group_name_H-M   'P 21/n'
_symmetry_Int_Tables_number      14
_space_group_name_Hall           '-P 2yn'
loop_
_symmetry_equiv_pos_site_id
_symmetry_equiv_pos_as_xyz
1 x,y,z
2 1/2-x,1/2+y,1/2-z
3 -x,-y,-z
4 1/2+x,1/2-y,1/2+z
_cell_length_a                   7.529(2)
_cell_length_b                   14.307(3)
_cell_length_c                   8.799(3)
_cell_angle_alpha                90
_cell_angle_beta                 106.39(3)
_cell_angle_gamma                90
_cell_volume                     909.29
_exptl_crystal_colour            colorless
_exptl_crystal_description       block
_cell_formula_units_Z            4
_exptl_crystal_recrystallization_method ethanol
loop_
_atom_site_label
_atom_site_type_symbol
_atom_site_fract_x
_atom_site_fract_y
_atom_site_fract_z
O1 O 0.3216(2) 0.68819(11) 1.2124(2)
O2 O 0.3893(3) 0.60569(12) 1.5756(2)
N1 N 0.2464(3) 0.64625(14) 1.0624(2)
N2 N 0.3906(2) 0.53988(12) 1.2415(2)
C1 C 0.0278(4) 0.59033(19) 0.7579(3)
H1 H -0.0584 0.5826 0.6550
H2 H 0.1212 0.6346 0.7517
H3 H -0.0365 0.6127 0.8307
C2 C 0.1169(3) 0.49816(17) 0.8147(3)
C3 C 0.0774(3) 0.4215(2) 0.7135(3)
H4 H -0.0055 0.4289 0.6135
C4 C 0.1564(4) 0.33503(19) 0.7559(3)
H5 H 0.1277 0.2855 0.6847
C5 C 0.2780(4) 0.32227(17) 0.9038(3)
H6 H 0.3319 0.2641 0.9331
C6 C 0.3193(3) 0.39597(15) 1.0078(3)
H7 H 0.4010 0.3870 1.1079
C7 C 0.2409(3) 0.48431(15) 0.9664(2)
C8 C 0.2904(3) 0.55843(15) 1.0875(3)
C9 C 0.4033(3) 0.61996(15) 1.3100(3)
C10 C 0.4909(4) 0.64440(18) 1.4796(3)
H8 H 0.6168 0.6207 1.5124
H9 H 0.4957 0.7118 1.4917
H10 H 0.4326 0.5436 1.6246
loop_
_geom_bond_atom_site_label_1
_geom_bond_atom_site_label_2
_geom_bond_site_symmetry_1
_geom_bond_site_symmetry_2
O1 N1 1_555 1_555
O2 C10 1_555 1_555
N1 C8 1_555 1_555
N2 C8 1_555 1_555
C1 H1 1_555 1_555
H2 C1 1_555 1_555
H3 C1 1_555 1_555
C2 C1 1_555 1_555
C3 C2 1_555 1_555
H4 C3 1_555 1_555
C4 C3 1_555 1_555
H5 C4 1_555 1_555
C5 C4 1_555 1_555
H6 C5 1_555 1_555
C6 C5 1_555 1_555
H7 C6 1_555 1_555
C7 C2 1_555 1_555
C8 C7 1_555 1_555
C9 O1 1_555 1_555
C10 C9 1_555 1_555
H8 C10 1_555 1_555
H9 C10 1_555 1_555
H10 O2 1_555 1_555
N2 C9 1_555 1_555
C6 C7 1_555 1_555

#END
