
#######################################################################
#
#                 Cambridge Crystallographic Data Centre
#                                CCDC 
#
#######################################################################
#
# If this CIF has been generated from an entry in the Cambridge 
# Structural Database, then it will include bibliographic, chemical, 
# crystal, experimental, refinement or atomic coordinate data resulting 
# from the CCDC's data processing and validation procedures.
#
#######################################################################

data_MEGMOC
_chemical_formula_moiety         'C36 H22 S1,1.5(H2 O1)'
_chemical_name_systematic        
'4-(10-(2-Naphthyl)-9-anthryl)dibenzo[b,d]thiophene sesquihydrate'
_symmetry_cell_setting           monoclinic
_symmetry_space_group_name_H-M   'C 2/c'
_symmetry_Int_Tables_number      15
_space_group_name_Hall           '-C 2yn'
loop_
_symmetry_equiv_pos_site_id
_symmetry_equiv_pos_as_xyz
1 x,y,z
2 -x,y,1/2-z
3 1/2+x,1/2+y,z
4 1/2-x,1/2+y,1/2-z
5 -x,-y,-z
6 x,-y,1/2+z
7 1/2-x,1/2-y,-z
8 1/2+x,1/2-y,1/2+z
_cell_length_a                   34.197(4)
_cell_length_b                   8.6336(10)
_cell_length_c                   25.340(3)
_cell_angle_alpha                90
_cell_angle_beta                 131.011(2)
_cell_angle_gamma                90
_cell_volume                     5645.39
_exptl_crystal_colour            'pale yellow'
_exptl_crystal_description       prism
_cell_formula_units_Z            8
loop_
_atom_site_label
_atom_site_type_symbol
_atom_site_fract_x
_atom_site_fract_y
_atom_site_fract_z
C1 C 0.2330(2) 0.9677(6) 0.7559(3)
C2 C 0.2804(2) 0.9370(7) 0.8198(3)
H1 H 0.3049 0.8783 0.8235
C3 C 0.2911(2) 0.9965(7) 0.8798(3)
H2 H 0.3230 0.9770 0.9238
C4 C 0.2545(2) 1.0836(7) 0.8737(3)
H3 H 0.2622 1.1230 0.9138
C5 C 0.2073(2) 1.1131(6) 0.8102(3)
H4 H 0.1830 1.1708 0.8074
C6 C 0.19502(19) 1.0574(6) 0.7491(3)
C7 C 0.14822(19) 1.0744(6) 0.6763(3)
C8 C 0.1025(2) 1.1527(6) 0.6482(3)
H5 H 0.0993 1.2052 0.6772
C9 C 0.0626(2) 1.1514(7) 0.5778(3)
H6 H 0.0322 1.2042 0.5592
C10 C 0.0659(2) 1.0725(6) 0.5322(3)
H7 H 0.0377 1.0721 0.4844
C11 C 0.11118(18) 0.9951(5) 0.5586(2)
C12 C 0.15172(17) 0.9965(5) 0.6308(2)
C13 C 0.11593(17) 0.9100(6) 0.5113(2)
C14 C 0.09821(17) 0.7564(6) 0.4917(2)
C15 C 0.07562(19) 0.6781(6) 0.5155(3)
H8 H 0.0716 0.7301 0.5438
C16 C 0.0598(2) 0.5281(7) 0.4974(3)
H9 H 0.0458 0.4784 0.5142
C17 C 0.0645(2) 0.4480(7) 0.4538(3)
H10 H 0.0534 0.3457 0.4417
C18 C 0.0852(2) 0.5194(6) 0.4289(3)
H11 H 0.0873 0.4654 0.3991
C19 C 0.10328(18) 0.6733(6) 0.4474(2)
C20 C 0.12652(19) 0.7470(6) 0.4242(2)
C21 C 0.14459(19) 0.8995(6) 0.4444(2)
C22 C 0.1672(2) 0.9801(7) 0.4203(3)
H12 H 0.1708 0.9290 0.3915
C23 C 0.1832(2) 1.1292(7) 0.4389(3)
H13 H 0.1973 1.1789 0.4222
C24 C 0.1788(2) 1.2094(6) 0.4830(3)
H14 H 0.1903 1.3113 0.4957
C25 C 0.1577(2) 1.1377(6) 0.5073(3)
H15 H 0.1554 1.1916 0.5369
C26 C 0.13914(18) 0.9835(6) 0.4884(2)
C27 C 0.1361(3) 0.6582(7) 0.3819(3)
C28 C 0.1866(3) 0.6024(7) 0.4148(4)
H16 H 0.2127 0.6252 0.4620
C29 C 0.2006(3) 0.5193(8) 0.3842(4)
H17 H 0.2342 0.4853 0.4077
C30 C 0.1591(3) 0.4900(8) 0.3134(4)
C31 C 0.1095(2) 0.5360(7) 0.2735(3)
C32 C 0.0981(3) 0.6282(8) 0.3146(4)
H18 H 0.0646 0.6625 0.2921
C33 C 0.1724(4) 0.3910(9) 0.2747(4)
H19 H 0.2053 0.3514 0.2974
C34 C 0.1331(4) 0.3692(9) 0.2076(5)
H20 H 0.1382 0.3121 0.1814
C35 C 0.0833(4) 0.4302(10) 0.1742(5)
H21 H 0.0576 0.4160 0.1262
C36 C 0.0707(3) 0.5049(9) 0.2060(4)
H22 H 0.0368 0.5347 0.1830
S1 S 0.21122(5) 0.90357(17) 0.67509(7)
O1 O 0.9980(4) -0.0356(14) 0.3344(6)
O2 O 0.0000 0.265(4) 0.2500
loop_
_geom_bond_atom_site_label_1
_geom_bond_atom_site_label_2
_geom_bond_site_symmetry_1
_geom_bond_site_symmetry_2
C1 C2 1_555 1_555
C2 H1 1_555 1_555
C3 C2 1_555 1_555
H2 C3 1_555 1_555
C4 C3 1_555 1_555
H3 C4 1_555 1_555
C5 C4 1_555 1_555
H4 C5 1_555 1_555
C6 C1 1_555 1_555
C7 C6 1_555 1_555
C8 C7 1_555 1_555
H5 C8 1_555 1_555
C9 C8 1_555 1_555
H6 C9 1_555 1_555
C10 C9 1_555 1_555
H7 C10 1_555 1_555
C11 C10 1_555 1_555
C12 C7 1_555 1_555
C13 C11 1_555 1_555
C14 C13 1_555 1_555
C15 C14 1_555 1_555
H8 C15 1_555 1_555
C16 C15 1_555 1_555
H9 C16 1_555 1_555
C17 C16 1_555 1_555
H10 C17 1_555 1_555
C18 C17 1_555 1_555
H11 C18 1_555 1_555
C19 C14 1_555 1_555
C20 C19 1_555 1_555
C21 C20 1_555 1_555
C22 C21 1_555 1_555
H12 C22 1_555 1_555
C23 C22 1_555 1_555
H13 C23 1_555 1_555
C24 C23 1_555 1_555
H14 C24 1_555 1_555
C25 C24 1_555 1_555
H15 C25 1_555 1_555
C26 C13 1_555 1_555
C27 C20 1_555 1_555
C28 C27 1_555 1_555
H16 C28 1_555 1_555
C29 C28 1_555 1_555
H17 C29 1_555 1_555
C30 C29 1_555 1_555
C31 C30 1_555 1_555
C32 C27 1_555 1_555
H18 C32 1_555 1_555
C33 C30 1_555 1_555
H19 C33 1_555 1_555
C34 C33 1_555 1_555
H20 C34 1_555 1_555
C35 C34 1_555 1_555
H21 C35 1_555 1_555
C36 C31 1_555 1_555
H22 C36 1_555 1_555
S1 C1 1_555 1_555
C5 C6 1_555 1_555
C11 C12 1_555 1_555
C12 S1 1_555 1_555
C18 C19 1_555 1_555
C21 C26 1_555 1_555
C25 C26 1_555 1_555
C31 C32 1_555 1_555
C35 C36 1_555 1_555

#END
