
#######################################################################
#
#                 Cambridge Crystallographic Data Centre
#                                CCDC 
#
#######################################################################
#
# If this CIF has been generated from an entry in the Cambridge 
# Structural Database, then it will include bibliographic, chemical, 
# crystal, experimental, refinement or atomic coordinate data resulting 
# from the CCDC's data processing and validation procedures.
#
#######################################################################

data_MEGPOE
_chemical_name_common            Oxadiazon
_chemical_formula_moiety         'C15 H18 Cl2 N2 O3'
_chemical_name_systematic        
3-(2,4-Dichloro-5-isopropyloxyphenyl)-5-t-butyl-1,3,4-oxadiazol-2-one
_chemical_properties_biological  
'effective herbicide for controlling weeds and increasing seed yield in soya beans'
_symmetry_cell_setting           monoclinic
_symmetry_space_group_name_H-M   'P 21/c'
_symmetry_Int_Tables_number      14
_space_group_name_Hall           '-P 2ybc'
loop_
_symmetry_equiv_pos_site_id
_symmetry_equiv_pos_as_xyz
1 x,y,z
2 -x,1/2+y,1/2-z
3 -x,-y,-z
4 x,1/2-y,1/2+z
_cell_length_a                   9.700(4)
_cell_length_b                   11.068(4)
_cell_length_c                   16.514(8)
_cell_angle_alpha                90
_cell_angle_beta                 94.135(19)
_cell_angle_gamma                90
_cell_volume                     1768.32
_exptl_crystal_colour            colorless
_exptl_crystal_description       platelet
_cell_formula_units_Z            4
_exptl_crystal_recrystallization_method ethanol
loop_
_atom_site_label
_atom_site_type_symbol
_atom_site_fract_x
_atom_site_fract_y
_atom_site_fract_z
Cl1 Cl 0.61000(5) 0.34219(4) 0.59774(3)
Cl2 Cl 0.52794(6) 0.80583(5) 0.67346(4)
O1 O 0.94279(12) 0.34897(12) 0.56869(8)
O2 O 0.93898(11) 0.31647(9) 0.43213(6)
O3 O 0.68748(14) 0.85931(11) 0.53821(8)
N1 N 0.79123(13) 0.44406(12) 0.47346(8)
N2 N 0.77606(13) 0.44566(12) 0.38864(8)
C1 C 0.72188(14) 0.53029(13) 0.52013(10)
C2 C 0.64082(14) 0.49367(13) 0.58086(10)
C3 C 0.58093(16) 0.57965(16) 0.62739(11)
C4 C 0.59967(17) 0.69976(16) 0.61198(11)
C5 C 0.67629(17) 0.73834(14) 0.54864(10)
C6 C 0.73817(14) 0.65100(14) 0.50390(10)
C7 C 0.89451(18) 0.36929(14) 0.50152(12)
C8 C 0.86450(17) 0.36838(13) 0.36800(10)
C9 C 0.89543(19) 0.32991(14) 0.28464(10)
C10 C 0.8707(2) 0.19493(16) 0.27599(12)
C11 C 1.0471(2) 0.3585(2) 0.27323(13)
C12 C 0.8001(2) 0.3975(2) 0.22321(12)
C13 C 0.7536(2) 0.90625(17) 0.47009(12)
C14 C 0.6630(2) 0.8937(2) 0.39353(14)
C15 C 0.7839(3) 1.0369(2) 0.49061(16)
H1 H 0.5277 0.5560 0.6693
H2 H 0.7918 0.6742 0.4621
H3 H 0.8406 0.8630 0.4645
H4 H 0.7786 0.1762 0.2898
H5 H 0.9361 0.1522 0.3118
H6 H 0.8817 0.1710 0.2210
H7 H 1.1053 0.3058 0.3068
H8 H 1.0651 0.3468 0.2174
H9 H 1.0662 0.4409 0.2883
H10 H 0.8180 0.3723 0.1693
H11 H 0.8164 0.4828 0.2287
H12 H 0.7057 0.3802 0.2328
H13 H 0.6565 0.8100 0.3784
H14 H 0.7017 0.9388 0.3510
H15 H 0.5725 0.9242 0.4020
H16 H 0.8271 1.0744 0.4466
H17 H 0.6992 1.0780 0.4993
H18 H 0.8448 1.0412 0.5390
loop_
_geom_bond_atom_site_label_1
_geom_bond_atom_site_label_2
_geom_bond_site_symmetry_1
_geom_bond_site_symmetry_2
Cl1 C2 1_555 1_555
Cl2 C4 1_555 1_555
O1 C7 1_555 1_555
O2 C7 1_555 1_555
O3 C5 1_555 1_555
N1 N2 1_555 1_555
N2 C8 1_555 1_555
C1 N1 1_555 1_555
C2 C1 1_555 1_555
C3 C2 1_555 1_555
C4 C3 1_555 1_555
C5 C4 1_555 1_555
C6 C1 1_555 1_555
C7 N1 1_555 1_555
C8 O2 1_555 1_555
C9 C8 1_555 1_555
C10 C9 1_555 1_555
C11 C9 1_555 1_555
C12 C9 1_555 1_555
C13 O3 1_555 1_555
C14 C13 1_555 1_555
C15 C13 1_555 1_555
H1 C3 1_555 1_555
H2 C6 1_555 1_555
H3 C13 1_555 1_555
H4 C10 1_555 1_555
H5 C10 1_555 1_555
H6 C10 1_555 1_555
H7 C11 1_555 1_555
H8 C11 1_555 1_555
H9 C11 1_555 1_555
H10 C12 1_555 1_555
H11 C12 1_555 1_555
H12 C12 1_555 1_555
H13 C14 1_555 1_555
H14 C14 1_555 1_555
H15 C14 1_555 1_555
H16 C15 1_555 1_555
H17 C15 1_555 1_555
H18 C15 1_555 1_555
C5 C6 1_555 1_555

#END
