
#######################################################################
#
#                 Cambridge Crystallographic Data Centre
#                                CCDC 
#
#######################################################################
#
# If this CIF has been generated from an entry in the Cambridge 
# Structural Database, then it will include bibliographic, chemical, 
# crystal, experimental, refinement or atomic coordinate data resulting 
# from the CCDC's data processing and validation procedures.
#
#######################################################################

data_MEGPEW
_chemical_name_common            
(3S,3aR,5aS,8R,9S,9bR)-8-((t-butyldimethylsilyl)oxy)-3,5a,9-trimethyl-3-(phenylselanyl)decahydronaphtho[1,2-b]furan-2(3H)-one
_chemical_formula_moiety         'C27 H42 O3 Se1 Si1'
_chemical_name_systematic        
8-((t-butyl(dimethyl)silyl)oxy)-3,5a,9-trimethyl-3-(phenylselanyl)decahydronaphtho[1,2-b]furan-2(3H)-one
_symmetry_cell_setting           orthorhombic
_symmetry_space_group_name_H-M   'P 21 21 21'
_symmetry_Int_Tables_number      19
_space_group_name_Hall           'P 2ac 2ab'
loop_
_symmetry_equiv_pos_site_id
_symmetry_equiv_pos_as_xyz
1 x,y,z
2 1/2-x,-y,1/2+z
3 -x,1/2+y,1/2-z
4 1/2+x,1/2-y,-z
_cell_length_a                   6.1128(5)
_cell_length_b                   13.3592(10)
_cell_length_c                   33.741(3)
_cell_angle_alpha                90
_cell_angle_beta                 90
_cell_angle_gamma                90
_cell_volume                     2755.36
_exptl_crystal_colour            colorless
_exptl_crystal_description       prismatic
_cell_formula_units_Z            4
loop_
_atom_site_label
_atom_site_type_symbol
_atom_site_fract_x
_atom_site_fract_y
_atom_site_fract_z
Se1 Se 0.87097(14) 0.90132(4) 0.98326(2)
Si1 Si 0.8525(3) 0.67847(10) 0.71242(4)
O1 O 1.0500(10) 1.0453(3) 0.90354(15)
O2 O 1.0049(6) 0.8875(3) 0.88298(10)
O3 O 0.7225(7) 0.7136(3) 0.75263(10)
C1 C 0.9497(11) 0.9687(4) 0.90548(16)
C2 C 0.7522(10) 0.9455(4) 0.93064(15)
C3 C 0.6601(8) 0.8546(4) 0.90918(13)
H1 H 0.5830 0.8802 0.8858
C4 C 0.8653(8) 0.8046(3) 0.89408(13)
H2 H 0.9342 0.7705 0.9165
C5 C 0.8309(8) 0.7286(4) 0.86207(13)
H3 H 0.9704 0.6929 0.8600
C6 C 0.6658(9) 0.6500(4) 0.87909(14)
C7 C 0.4617(9) 0.6986(4) 0.89704(17)
H4 H 0.3769 0.7286 0.8759
H5 H 0.3726 0.6467 0.9090
C8 C 0.5091(9) 0.7788(5) 0.92827(17)
H6 H 0.3743 0.8107 0.9367
H7 H 0.5786 0.7490 0.9513
C9 C 0.7861(8) 0.7701(4) 0.81980(14)
H8 H 0.9233 0.8010 0.8111
C10 C 0.7493(9) 0.6806(4) 0.79236(14)
H9 H 0.8790 0.6375 0.7936
C11 C 0.5573(11) 0.6212(4) 0.80536(17)
H10 H 0.5285 0.5684 0.7863
H11 H 0.4293 0.6641 0.8066
C12 C 0.6001(13) 0.5755(4) 0.84603(17)
H12 H 0.7156 0.5262 0.8434
H13 H 0.4691 0.5405 0.8544
C13 C 0.6003(15) 1.0327(5) 0.9349(2)
H14 H 0.6722 1.0852 0.9493
H15 H 0.4714 1.0122 0.9489
H16 H 0.5599 1.0568 0.9091
C14 C 0.7790(12) 0.5869(5) 0.91081(18)
H17 H 0.8184 0.6288 0.9328
H18 H 0.9085 0.5570 0.8999
H19 H 0.6814 0.5353 0.9197
C15 C 0.6109(11) 0.8488(4) 0.81397(14)
H20 H 0.5960 0.8632 0.7862
H21 H 0.6513 0.9087 0.8279
H22 H 0.4742 0.8244 0.8241
C16 C 0.8920(8) 1.0256(3) 1.01015(11)
C17 C 0.7243(7) 1.0491(4) 1.03638(13)
H23 H 0.6040 1.0069 1.0387
C18 C 0.7364(8) 1.1356(4) 1.05914(14)
H24 H 0.6242 1.1513 1.0767
C19 C 0.9162(10) 1.1987(3) 1.05567(15)
H25 H 0.9243 1.2566 1.0709
C20 C 1.0839(8) 1.1752(4) 1.02945(15)
H26 H 1.2042 1.2174 1.0271
C21 C 1.0718(7) 1.0887(4) 1.00669(13)
H27 H 1.1840 1.0730 0.9891
C22 C 1.0620(13) 0.5814(5) 0.7230(2)
H28 H 1.1582 0.6048 0.7435
H29 H 1.1451 0.5683 0.6994
H30 H 0.9912 0.5210 0.7315
C23 C 0.6466(13) 0.6268(7) 0.6777(2)
H31 H 0.5510 0.5821 0.6917
H32 H 0.7196 0.5910 0.6569
H33 H 0.5627 0.6806 0.6665
C24 C 0.9825(10) 0.7938(4) 0.69152(18)
C25 C 1.1605(12) 0.8297(5) 0.7203(2)
H34 H 1.2232 0.8908 0.7106
H35 H 1.2725 0.7796 0.7224
H36 H 1.0970 0.8411 0.7459
C26 C 0.8116(14) 0.8767(5) 0.6860(2)
H37 H 0.7442 0.8914 0.7110
H38 H 0.7020 0.8547 0.6676
H39 H 0.8815 0.9358 0.6760
C27 C 1.0865(12) 0.7693(6) 0.65119(17)
H40 H 1.1613 0.8273 0.6413
H41 H 0.9743 0.7499 0.6328
H42 H 1.1890 0.7154 0.6543
loop_
_geom_bond_atom_site_label_1
_geom_bond_atom_site_label_2
_geom_bond_site_symmetry_1
_geom_bond_site_symmetry_2
Se1 C2 1_555 1_555
Si1 O3 1_555 1_555
O1 C1 1_555 1_555
O2 C1 1_555 1_555
O3 C10 1_555 1_555
C1 C2 1_555 1_555
C2 C3 1_555 1_555
C3 H1 1_555 1_555
C4 O2 1_555 1_555
H2 C4 1_555 1_555
C5 C4 1_555 1_555
H3 C5 1_555 1_555
C6 C5 1_555 1_555
C7 C6 1_555 1_555
H4 C7 1_555 1_555
H5 C7 1_555 1_555
C8 C3 1_555 1_555
H6 C8 1_555 1_555
H7 C8 1_555 1_555
C9 C5 1_555 1_555
H8 C9 1_555 1_555
C10 C9 1_555 1_555
H9 C10 1_555 1_555
C11 C10 1_555 1_555
H10 C11 1_555 1_555
H11 C11 1_555 1_555
C12 C6 1_555 1_555
H12 C12 1_555 1_555
H13 C12 1_555 1_555
C13 C2 1_555 1_555
H14 C13 1_555 1_555
H15 C13 1_555 1_555
H16 C13 1_555 1_555
C14 C6 1_555 1_555
H17 C14 1_555 1_555
H18 C14 1_555 1_555
H19 C14 1_555 1_555
C15 C9 1_555 1_555
H20 C15 1_555 1_555
H21 C15 1_555 1_555
H22 C15 1_555 1_555
C16 Se1 1_555 1_555
C17 C16 1_555 1_555
H23 C17 1_555 1_555
C18 C17 1_555 1_555
H24 C18 1_555 1_555
C19 C18 1_555 1_555
H25 C19 1_555 1_555
C20 C19 1_555 1_555
H26 C20 1_555 1_555
C21 C16 1_555 1_555
H27 C21 1_555 1_555
C22 Si1 1_555 1_555
H28 C22 1_555 1_555
H29 C22 1_555 1_555
H30 C22 1_555 1_555
C23 Si1 1_555 1_555
H31 C23 1_555 1_555
H32 C23 1_555 1_555
H33 C23 1_555 1_555
C24 Si1 1_555 1_555
C25 C24 1_555 1_555
H34 C25 1_555 1_555
H35 C25 1_555 1_555
H36 C25 1_555 1_555
C26 C24 1_555 1_555
H37 C26 1_555 1_555
H38 C26 1_555 1_555
H39 C26 1_555 1_555
C27 C24 1_555 1_555
H40 C27 1_555 1_555
H41 C27 1_555 1_555
H42 C27 1_555 1_555
C3 C4 1_555 1_555
C7 C8 1_555 1_555
C11 C12 1_555 1_555
C20 C21 1_555 1_555

#END
