
#######################################################################
#
#                 Cambridge Crystallographic Data Centre
#                                CCDC 
#
#######################################################################
#
# If this CIF has been generated from an entry in the Cambridge 
# Structural Database, then it will include bibliographic, chemical, 
# crystal, experimental, refinement or atomic coordinate data resulting 
# from the CCDC's data processing and validation procedures.
#
#######################################################################

data_MEGPIA
_chemical_name_common            
(3S,3aR,5aS,8R,9R,9bR)-8-((t-butyldimethylsilyl)oxy)-3,5a,9-trimethyl-3-(phenylselanyl)decahydronaphtho[1,2-b]furan-2(3H)-one
_chemical_formula_moiety         'C27 H42 O3 Se1 Si1'
_chemical_name_systematic        
8-((t-butyl(dimethyl)silyl)oxy)-3,5a,9-trimethyl-3-(phenylselanyl)decahydronaphtho[1,2-b]furan-2(3H)-one
_symmetry_cell_setting           orthorhombic
_symmetry_space_group_name_H-M   'P 21 21 21'
_symmetry_Int_Tables_number      19
_space_group_name_Hall           'P 2ac 2ab'
loop_
_symmetry_equiv_pos_site_id
_symmetry_equiv_pos_as_xyz
1 x,y,z
2 1/2-x,-y,1/2+z
3 -x,1/2+y,1/2-z
4 1/2+x,1/2-y,-z
_cell_length_a                   7.3628(8)
_cell_length_b                   12.7598(13)
_cell_length_c                   30.683(3)
_cell_angle_alpha                90
_cell_angle_beta                 90
_cell_angle_gamma                90
_cell_volume                     2882.6
_exptl_crystal_colour            colorless
_exptl_crystal_description       prismatic
_cell_formula_units_Z            4
loop_
_atom_site_label
_atom_site_type_symbol
_atom_site_fract_x
_atom_site_fract_y
_atom_site_fract_z
Se1 Se 0.22582(8) 0.00700(4) 0.09789(2)
Si1 Si 0.0705(4) 0.1081(2) 0.38189(9)
O1 O -0.0888(5) 0.1826(3) 0.14641(13)
O2 O 0.0275(4) 0.0745(3) 0.19661(11)
O3 O 0.1901(7) 0.0524(4) 0.34403(12)
C1 C 0.0389(8) 0.1325(4) 0.15940(17)
C2 C 0.2278(7) 0.1264(4) 0.14010(16)
C3 C 0.3348(7) 0.0931(4) 0.18021(17)
H1 H 0.3463 0.1560 0.1983
C4 C 0.2010(6) 0.0226(4) 0.20353(16)
H2 H 0.1987 -0.0458 0.1889
C5 C 0.2521(6) 0.0069(4) 0.25036(16)
H3 H 0.2705 0.0776 0.2621
C6 C 0.4420(7) -0.0462(5) 0.25207(18)
C7 C 0.5775(7) 0.0222(5) 0.22615(19)
H4 H 0.5918 0.0886 0.2412
H5 H 0.6948 -0.0124 0.2261
C8 C 0.5215(7) 0.0441(5) 0.17892(19)
H6 H 0.6074 0.0914 0.1653
H7 H 0.5187 -0.0207 0.1624
C9 C 0.1035(8) -0.0427(4) 0.27926(17)
H8 H 0.0022 0.0071 0.2799
C10 C 0.1764(9) -0.0500(5) 0.32640(19)
H9 H 0.0891 -0.0899 0.3439
C11 C 0.3583(9) -0.1034(5) 0.3293(2)
H10 H 0.3464 -0.1759 0.3201
H11 H 0.4002 -0.1028 0.3592
C12 C 0.4972(8) -0.0477(5) 0.30021(19)
H12 H 0.6136 -0.0827 0.3030
H13 H 0.5120 0.0238 0.3103
C13 C 0.2846(9) 0.2261(4) 0.1181(2)
H14 H 0.2012 0.2421 0.0950
H15 H 0.4046 0.2179 0.1063
H16 H 0.2845 0.2823 0.1390
C14 C 0.4471(9) -0.1564(5) 0.2332(2)
H17 H 0.3684 -0.2011 0.2498
H18 H 0.5690 -0.1829 0.2345
H19 H 0.4072 -0.1547 0.2034
C15 C 0.0255(9) -0.1470(5) 0.2637(2)
H20 H 0.1139 -0.2014 0.2680
H21 H -0.0042 -0.1422 0.2333
H22 H -0.0820 -0.1631 0.2801
C16 C 0.0472(10) 0.0575(4) 0.05716(19)
C17 C 0.1051(14) 0.1089(6) 0.0205(2)
H23 H 0.2282 0.1210 0.0160
C18 C -0.0227(19) 0.1427(8) -0.0099(3)
H24 H 0.0150 0.1775 -0.0349
C19 C -0.201(2) 0.1252(8) -0.0029(4)
H25 H -0.2852 0.1476 -0.0235
C20 C -0.2589(13) 0.0753(7) 0.0337(4)
H26 H -0.3824 0.0643 0.0382
C21 C -0.1336(11) 0.0407(5) 0.0644(3)
H27 H -0.1723 0.0065 0.0895
C22 C -0.085(4) 0.2089(19) 0.3490(8)
H28 H -0.0109 0.2634 0.3369
H29 H -0.1734 0.2392 0.3683
H30 H -0.1468 0.1726 0.3259
C23 C -0.111(3) 0.0250(16) 0.4033(7)
H31 H -0.1983 0.0118 0.3808
H32 H -0.1688 0.0598 0.4273
H33 H -0.0603 -0.0402 0.4132
C24 C 0.196(3) 0.1845(19) 0.4181(7)
C25 C 0.061(4) 0.245(2) 0.4495(9)
H34 H 0.0903 0.3179 0.4495
H35 H 0.0732 0.2173 0.4785
H36 H -0.0612 0.2350 0.4396
C26 C 0.318(4) 0.105(2) 0.4428(7)
H37 H 0.4126 0.0812 0.4238
H38 H 0.2456 0.0467 0.4520
H39 H 0.3704 0.1388 0.4678
C27 C 0.343(3) 0.254(2) 0.3946(7)
H40 H 0.4169 0.2882 0.4160
H41 H 0.2832 0.3059 0.3769
H42 H 0.4174 0.2106 0.3764
C28? C -0.144(4) 0.157(3) 0.3676(11)
H43? H -0.1414 0.1813 0.3380
H44? H -0.1743 0.2147 0.3865
H45? H -0.2331 0.1030 0.3706
C29? C 0.035(4) -0.006(2) 0.4281(7)
H46? H -0.0605 -0.0525 0.4191
H47? H 0.0029 0.0259 0.4554
H48? H 0.1456 -0.0449 0.4315
C30? C 0.215(4) 0.191(2) 0.4076(7)
C31? C 0.152(4) 0.246(3) 0.4503(10)
H49? H 0.2341 0.3012 0.4576
H50? H 0.1498 0.1951 0.4736
H51? H 0.0320 0.2737 0.4463
C32? C 0.418(3) 0.139(2) 0.4252(9)
H52? H 0.4819 0.1905 0.4423
H53? H 0.4906 0.1200 0.4005
H54? H 0.3948 0.0783 0.4427
C33? C 0.252(3) 0.2847(16) 0.3753(9)
H55? H 0.1420 0.3023 0.3603
H56? H 0.3430 0.2643 0.3544
H57? H 0.2944 0.3445 0.3913
loop_
_geom_bond_atom_site_label_1
_geom_bond_atom_site_label_2
_geom_bond_site_symmetry_1
_geom_bond_site_symmetry_2
Se1 C2 1_555 1_555
Si1 O3 1_555 1_555
O1 C1 1_555 1_555
O2 C1 1_555 1_555
O3 C10 1_555 1_555
C1 C2 1_555 1_555
C2 C3 1_555 1_555
C3 H1 1_555 1_555
C4 O2 1_555 1_555
H2 C4 1_555 1_555
C5 C4 1_555 1_555
H3 C5 1_555 1_555
C6 C5 1_555 1_555
C7 C6 1_555 1_555
H4 C7 1_555 1_555
H5 C7 1_555 1_555
C8 C3 1_555 1_555
H6 C8 1_555 1_555
H7 C8 1_555 1_555
C9 C5 1_555 1_555
H8 C9 1_555 1_555
C10 C9 1_555 1_555
H9 C10 1_555 1_555
C11 C10 1_555 1_555
H10 C11 1_555 1_555
H11 C11 1_555 1_555
C12 C6 1_555 1_555
H12 C12 1_555 1_555
H13 C12 1_555 1_555
C13 C2 1_555 1_555
H14 C13 1_555 1_555
H15 C13 1_555 1_555
H16 C13 1_555 1_555
C14 C6 1_555 1_555
H17 C14 1_555 1_555
H18 C14 1_555 1_555
H19 C14 1_555 1_555
C15 C9 1_555 1_555
H20 C15 1_555 1_555
H21 C15 1_555 1_555
H22 C15 1_555 1_555
C16 Se1 1_555 1_555
C17 C16 1_555 1_555
H23 C17 1_555 1_555
C18 C17 1_555 1_555
H24 C18 1_555 1_555
C19 C18 1_555 1_555
H25 C19 1_555 1_555
C20 C19 1_555 1_555
H26 C20 1_555 1_555
C21 C16 1_555 1_555
H27 C21 1_555 1_555
C22 Si1 1_555 1_555
H28 C22 1_555 1_555
H29 C22 1_555 1_555
H30 C22 1_555 1_555
C23 Si1 1_555 1_555
H31 C23 1_555 1_555
H32 C23 1_555 1_555
H33 C23 1_555 1_555
C24 Si1 1_555 1_555
C25 C24 1_555 1_555
H34 C25 1_555 1_555
H35 C25 1_555 1_555
H36 C25 1_555 1_555
C26 C24 1_555 1_555
H37 C26 1_555 1_555
H38 C26 1_555 1_555
H39 C26 1_555 1_555
C27 C24 1_555 1_555
H40 C27 1_555 1_555
H41 C27 1_555 1_555
H42 C27 1_555 1_555
C3 C4 1_555 1_555
C7 C8 1_555 1_555
C11 C12 1_555 1_555
C20 C21 1_555 1_555

#END
