
#######################################################################
#
#                 Cambridge Crystallographic Data Centre
#                                CCDC 
#
#######################################################################
#
# If this CIF has been generated from an entry in the Cambridge 
# Structural Database, then it will include bibliographic, chemical, 
# crystal, experimental, refinement or atomic coordinate data resulting 
# from the CCDC's data processing and validation procedures.
#
#######################################################################

data_MEGRUL
_chemical_formula_moiety         'C48 H62 Br1 Cl1 O4'
_chemical_name_systematic        
5,11,17,23-Tetra-t-butyl-25,27-dihydroxy-26-(2-bromoethoxy)-28-(2-chloroethoxy)calix(4)arene
_symmetry_cell_setting           monoclinic
_symmetry_space_group_name_H-M   'C 2/c'
_symmetry_Int_Tables_number      15
_space_group_name_Hall           '-C 2yn'
loop_
_symmetry_equiv_pos_site_id
_symmetry_equiv_pos_as_xyz
1 x,y,z
2 1/2+x,1/2+y,z
3 x,-y,1/2+z
4 1/2+x,1/2-y,1/2+z
5 -x,-y,-z
6 1/2-x,1/2-y,-z
7 -x,y,1/2-z
8 1/2-x,1/2+y,1/2-z
_cell_length_a                   22.2193(18)
_cell_length_b                   18.2276(15)
_cell_length_c                   12.6461(10)
_cell_angle_alpha                90
_cell_angle_beta                 114.392(2)
_cell_angle_gamma                90
_cell_volume                     4664.57
_exptl_crystal_colour            colorless
_exptl_crystal_description       prism
_chemical_melting_point          302-303deg.C
_cell_formula_units_Z            4
_exptl_crystal_recrystallization_method dichloromethane/methanol
loop_
_atom_site_label
_atom_site_type_symbol
_atom_site_fract_x
_atom_site_fract_y
_atom_site_fract_z
Br1 Br 0.32315(5) 1.05874(4) 0.08453(8)
O1 O 0.39562(12) 0.92813(13) 0.2657(2)
O2 O 0.45388(12) 0.90980(14) 0.1046(2)
H1 H 0.4338 0.9111 0.1463
C1 C 0.53518(17) 0.8626(2) 0.0043(3)
H2 H 0.5369 0.9145 0.0219
H3 H 0.5507 0.8558 -0.0563
C2 C 0.46494(18) 0.8357(2) -0.0374(3)
C3 C 0.43929(19) 0.7848(2) -0.1264(3)
H4 H 0.4648 0.7704 -0.1655
C4 C 0.37644(19) 0.7544(2) -0.1592(3)
C5 C 0.34091(18) 0.7767(2) -0.0978(3)
H5 H 0.2992 0.7566 -0.1171
C6 C 0.36430(17) 0.8277(2) -0.0086(3)
C7 C 0.32456(17) 0.8462(2) 0.0610(3)
H6 H 0.3230 0.8990 0.0686
H7 H 0.2796 0.8286 0.0198
C8 C 0.35445(17) 0.8120(2) 0.1799(3)
C9 C 0.35259(18) 0.7365(2) 0.1920(4)
H8 H 0.3302 0.7085 0.1258
C10 C 0.38234(19) 0.7007(2) 0.2974(4)
C11 C 0.41553(19) 0.7447(2) 0.3937(4)
H9 H 0.4355 0.7223 0.4660
C12 C 0.42043(17) 0.8206(2) 0.3875(3)
C13 C 0.38868(17) 0.85312(19) 0.2801(3)
C14 C 0.42628(18) 0.85799(19) 0.0203(3)
C15 C 0.3493(2) 0.9744(2) 0.2841(4)
H10 H 0.3580 0.9752 0.3658
H11 H 0.3047 0.9563 0.2407
C16 C 0.3560(2) 1.0501(2) 0.2442(4)
H12 H 0.4023 1.0637 0.2776
H13 H 0.3328 1.0843 0.2729
C17 C 0.3800(2) 0.6173(2) 0.3070(4)
C21 C 0.3121(5) 0.5979(8) 0.296(2)
H23 H 0.3086 0.5457 0.3009
H24 H 0.2799 0.6149 0.2226
H25 H 0.3044 0.6208 0.3577
C22 C 0.3920(13) 0.5835(9) 0.2090(15)
H26 H 0.3901 0.5310 0.2135
H27 H 0.4347 0.5979 0.2146
H28 H 0.3587 0.5999 0.1362
C23 C 0.4304(9) 0.5896(8) 0.4208(11)
H29 H 0.4274 0.5372 0.4234
H30 H 0.4223 0.6108 0.4832
H31 H 0.4738 0.6031 0.4286
C24 C 0.3494(2) 0.6974(2) -0.2560(4)
H37 H 0.3957 0.7301 -0.3563
C28 C 0.2873(12) 0.6585(17) -0.271(3)
H41 H 0.2741 0.6264 -0.3365
H42 H 0.2530 0.6939 -0.2827
H43 H 0.2948 0.6304 -0.2021
C29 C 0.3407(14) 0.7350(8) -0.3676(9)
H44 H 0.3232 0.7008 -0.4306
H46 H 0.3106 0.7754 -0.3817
C30 C 0.4014(7) 0.6417(8) -0.2445(19)
H47 H 0.3835 0.6060 -0.3054
H48 H 0.4155 0.6176 -0.1706
H49 H 0.4385 0.6656 -0.2500
C12F C 0.57957(17) 0.8206(2) 0.1125(3)
C11F C 0.58447(19) 0.7447(2) 0.1063(4)
C10F C 0.61766(19) 0.7007(2) 0.2026(4)
C9F C 0.64741(18) 0.7365(2) 0.3080(4)
C8F C 0.64555(17) 0.8120(2) 0.3201(3)
C7F C 0.67544(17) 0.8462(2) 0.4390(3)
C6F C 0.63570(17) 0.8277(2) 0.5086(3)
C5F C 0.65909(18) 0.7767(2) 0.5978(3)
C4F C 0.62356(19) 0.7544(2) 0.6592(3)
C3F C 0.56071(19) 0.7848(2) 0.6264(3)
C2F C 0.53506(18) 0.8357(2) 0.5374(3)
C1F C 0.46482(17) 0.8626(2) 0.4957(3)
H2F H 0.4631 0.9145 0.4781
H3F H 0.4493 0.8558 0.5563
C14F C 0.57372(18) 0.85799(19) 0.4797(3)
O2F O 0.54612(12) 0.90980(14) 0.3954(2)
H1F H 0.5662 0.9111 0.3537
H4F H 0.5352 0.7704 0.6655
C24F C 0.6506(2) 0.6974(2) 0.7560(4)
C28F C 0.7127(12) 0.6585(17) 0.771(3)
H41F H 0.7259 0.6264 0.8365
H42F H 0.7470 0.6939 0.7827
H43F H 0.7052 0.6304 0.7021
C29F C 0.6593(14) 0.7350(8) 0.8676(9)
H37F H 0.6043 0.7301 0.8563
H44F H 0.6768 0.7008 0.9306
H46F H 0.6894 0.7754 0.8817
C30F C 0.5986(7) 0.6417(8) 0.7445(19)
H47F H 0.6165 0.6060 0.8054
H48F H 0.5845 0.6176 0.6706
H49F H 0.5615 0.6656 0.7500
H5F H 0.7008 0.7566 0.6171
H6F H 0.6770 0.8990 0.4314
H7F H 0.7204 0.8286 0.4802
C13F C 0.61132(17) 0.85312(19) 0.2199(3)
O1F O 0.60438(12) 0.92813(13) 0.2343(2)
C15F C 0.6507(2) 0.9744(2) 0.2159(4)
H10F H 0.6420 0.9752 0.1342
H11F H 0.6953 0.9563 0.2593
C16F C 0.6440(2) 1.0501(2) 0.2558(4)
Br1F Br 0.67685(5) 1.05874(4) 0.41547(8)
H12F H 0.5977 1.0637 0.2224
H13F H 0.6672 1.0843 0.2271
H8F H 0.6698 0.7085 0.3742
C17F C 0.6200(2) 0.6173(2) 0.1930(4)
C21F C 0.6879(5) 0.5979(8) 0.204(2)
H23F H 0.6914 0.5457 0.1991
H24F H 0.7201 0.6149 0.2774
H25F H 0.6956 0.6208 0.1423
C22F C 0.6080(13) 0.5835(9) 0.2910(15)
H26F H 0.6099 0.5310 0.2865
H27F H 0.5653 0.5979 0.2854
H28F H 0.6413 0.5999 0.3638
C23F C 0.5696(9) 0.5896(8) 0.0792(11)
H29F H 0.5726 0.5372 0.0766
H30F H 0.5777 0.6108 0.0168
H31F H 0.5262 0.6031 0.0714
H9F H 0.5645 0.7223 0.0340
Cl1? Cl 0.32315(5) 1.05874(4) 0.08453(8)
C18? C 0.351(2) 0.5968(12) 0.392(3)
H14? H 0.3494 0.5443 0.3962
H15? H 0.3075 0.6166 0.3658
H16? H 0.3785 0.6163 0.4667
C19? C 0.338(2) 0.5802(13) 0.1945(13)
H17? H 0.3391 0.5281 0.2063
H18? H 0.3553 0.5912 0.1379
H19? H 0.2935 0.5976 0.1674
C20? C 0.4485(6) 0.5858(14) 0.355(4)
H20? H 0.4462 0.5335 0.3601
H21? H 0.4737 0.6059 0.4304
H22? H 0.4694 0.5981 0.3040
C25? C 0.2800(5) 0.7182(8) -0.3360(10)
H32? H 0.2634 0.6841 -0.3994
H33? H 0.2798 0.7668 -0.3657
H34? H 0.2525 0.7172 -0.2941
C26? C 0.3922(11) 0.6853(15) -0.319(2)
H35? H 0.3730 0.6480 -0.3773
H36? H 0.4354 0.6700 -0.2657
C27? C 0.3403(9) 0.6278(5) -0.2002(11)
H38? H 0.3242 0.5898 -0.2578
H39? H 0.3090 0.6361 -0.1671
H40? H 0.3819 0.6131 -0.1403
H45? H 0.3827 0.7529 -0.3615
loop_
_geom_bond_atom_site_label_1
_geom_bond_atom_site_label_2
_geom_bond_site_symmetry_1
_geom_bond_site_symmetry_2
Br1 C16 1_555 1_555
O1 C13 1_555 1_555
O2 H1 1_555 1_555
C1 H2 1_555 1_555
H3 C1 1_555 1_555
C2 C1 1_555 1_555
C3 C2 1_555 1_555
H4 C3 1_555 1_555
C4 C3 1_555 1_555
C5 C4 1_555 1_555
H5 C5 1_555 1_555
C6 C5 1_555 1_555
C7 C6 1_555 1_555
H6 C7 1_555 1_555
H7 C7 1_555 1_555
C8 C7 1_555 1_555
C9 C8 1_555 1_555
H8 C9 1_555 1_555
C10 C9 1_555 1_555
C11 C10 1_555 1_555
H9 C11 1_555 1_555
C12 C11 1_555 1_555
C13 C8 1_555 1_555
C14 O2 1_555 1_555
C15 O1 1_555 1_555
H10 C15 1_555 1_555
H11 C15 1_555 1_555
C16 C15 1_555 1_555
H12 C16 1_555 1_555
H13 C16 1_555 1_555
C17 C10 1_555 1_555
C21 C17 1_555 1_555
H23 C21 1_555 1_555
H24 C21 1_555 1_555
H25 C21 1_555 1_555
C22 C17 1_555 1_555
H26 C22 1_555 1_555
H27 C22 1_555 1_555
H28 C22 1_555 1_555
C23 C17 1_555 1_555
H29 C23 1_555 1_555
H30 C23 1_555 1_555
H31 C23 1_555 1_555
C24 C4 1_555 1_555
H37 C29 1_555 1_555
C28 C24 1_555 1_555
H41 C28 1_555 1_555
H42 C28 1_555 1_555
H43 C28 1_555 1_555
C29 C24 1_555 1_555
H44 C29 1_555 1_555
H46 C29 1_555 1_555
C30 C24 1_555 1_555
H47 C30 1_555 1_555
H48 C30 1_555 1_555
H49 C30 1_555 1_555
C12F C1 1_555 1_555
C11F C12F 1_555 1_555
C10F C11F 1_555 1_555
C9F C10F 1_555 1_555
C8F C9F 1_555 1_555
C7F C8F 1_555 1_555
C6F C7F 1_555 1_555
C5F C6F 1_555 1_555
C4F C5F 1_555 1_555
C3F C4F 1_555 1_555
C2F C3F 1_555 1_555
C1F C12 1_555 1_555
H2F C1F 1_555 1_555
H3F C1F 1_555 1_555
C14F C6F 1_555 1_555
O2F C14F 1_555 1_555
H1F O2F 1_555 1_555
H4F C3F 1_555 1_555
C24F C4F 1_555 1_555
C28F C24F 1_555 1_555
H41F C28F 1_555 1_555
H42F C28F 1_555 1_555
H43F C28F 1_555 1_555
C29F C24F 1_555 1_555
H37F C29F 1_555 1_555
H44F C29F 1_555 1_555
H46F C29F 1_555 1_555
C30F C24F 1_555 1_555
H47F C30F 1_555 1_555
H48F C30F 1_555 1_555
H49F C30F 1_555 1_555
H5F C5F 1_555 1_555
H6F C7F 1_555 1_555
H7F C7F 1_555 1_555
C13F C12F 1_555 1_555
O1F C13F 1_555 1_555
C15F O1F 1_555 1_555
H10F C15F 1_555 1_555
H11F C15F 1_555 1_555
C16F C15F 1_555 1_555
Br1F C16F 1_555 1_555
H12F C16F 1_555 1_555
H13F C16F 1_555 1_555
H8F C9F 1_555 1_555
C17F C10F 1_555 1_555
C21F C17F 1_555 1_555
H23F C21F 1_555 1_555
H24F C21F 1_555 1_555
H25F C21F 1_555 1_555
C22F C17F 1_555 1_555
H26F C22F 1_555 1_555
H27F C22F 1_555 1_555
H28F C22F 1_555 1_555
C23F C17F 1_555 1_555
H29F C23F 1_555 1_555
H30F C23F 1_555 1_555
H31F C23F 1_555 1_555
H9F C11F 1_555 1_555
C2 C14 1_555 1_555
C6 C14 1_555 1_555
C12 C13 1_555 1_555
C8F C13F 1_555 1_555
C2F C1F 1_555 1_555
C2F C14F 1_555 1_555

#END
