
#######################################################################
#
#                 Cambridge Crystallographic Data Centre
#                                CCDC 
#
#######################################################################
#
# If this CIF has been generated from an entry in the Cambridge 
# Structural Database, then it will include bibliographic, chemical, 
# crystal, experimental, refinement or atomic coordinate data resulting 
# from the CCDC's data processing and validation procedures.
#
#######################################################################

data_MEGWUR
_chemical_formula_moiety         'C10 H10 O2'
_chemical_name_systematic        1,4-Diacetylbenzene
_symmetry_cell_setting           monoclinic
_symmetry_space_group_name_H-M   'P 21/n'
_symmetry_Int_Tables_number      14
_space_group_name_Hall           '-P 2yn'
loop_
_symmetry_equiv_pos_site_id
_symmetry_equiv_pos_as_xyz
1 x,y,z
2 1/2-x,1/2+y,1/2-z
3 -x,-y,-z
4 1/2+x,1/2-y,1/2+z
_cell_length_a                   12.699(3)
_cell_length_b                   5.4604(11)
_cell_length_c                   12.950(3)
_cell_angle_alpha                90
_cell_angle_beta                 114.07(3)
_cell_angle_gamma                90
_cell_volume                     819.893
_exptl_crystal_colour            colorless
_exptl_crystal_description       prism
_chemical_melting_point          113.0deg.C
_cell_formula_units_Z            4
_exptl_crystal_recrystallization_method benzene
loop_
_atom_site_label
_atom_site_type_symbol
_atom_site_fract_x
_atom_site_fract_y
_atom_site_fract_z
O1 O 0.80092(10) 0.0913(2) 0.19525(10)
C1 C 0.61872(12) -0.0341(3) 0.06097(12)
C3 C 0.56419(13) 0.1697(3) 0.08133(13)
H2 H 0.6078 0.2862 0.1368
C5 C 0.74619(13) -0.0645(3) 0.12672(13)
C6 C 0.55359(13) -0.2037(3) -0.02102(13)
H3 H 0.5901 -0.3431 -0.0356
C8 C 0.80422(14) -0.2857(3) 0.10517(15)
H4 H 0.8870 -0.2795 0.1535
H5 H 0.7927 -0.2883 0.0256
H6 H 0.7709 -0.4340 0.1223
O1B O 0.19908(10) -0.0913(2) -0.19525(10)
C1B C 0.38128(12) 0.0341(3) -0.06097(12)
C3B C 0.43581(13) -0.1697(3) -0.08133(13)
H2B H 0.3922 -0.2862 -0.1368
C5B C 0.25381(13) 0.0645(3) -0.12672(13)
C6B C 0.44641(13) 0.2037(3) 0.02102(13)
H3B H 0.4099 0.3431 0.0356
C8B C 0.19578(14) 0.2857(3) -0.10517(15)
H4B H 0.1130 0.2795 -0.1535
H5B H 0.2073 0.2883 -0.0256
H6B H 0.2291 0.4340 -0.1223
O2 O 0.80864(11) 0.1179(2) -0.29558(10)
C2 C 1.02083(14) -0.1997(3) -0.05480(13)
H1 H 1.0352 -0.3370 -0.0923
C4 C 0.93984(12) -0.0249(3) -0.11728(13)
C7 C 0.87567(13) -0.0430(3) -0.24330(13)
C9 C 0.89811(15) -0.2588(4) -0.30297(14)
H7 H 0.8498 -0.2467 -0.3842
H8 H 0.8796 -0.4101 -0.2732
H9 H 0.9796 -0.2606 -0.2905
C10 C 0.91933(13) 0.1758(3) -0.06135(13)
H10 H 0.8643 0.2961 -0.1029
O2B O 1.19136(11) -0.1179(2) 0.29558(10)
C2B C 0.97917(14) 0.1997(3) 0.05480(13)
H1B H 0.9648 0.3370 0.0923
C4B C 1.06016(12) 0.0249(3) 0.11728(13)
C7B C 1.12433(13) 0.0430(3) 0.24330(13)
C9B C 1.10189(15) 0.2588(4) 0.30297(14)
H7B H 1.1502 0.2467 0.3842
H8B H 1.1204 0.4101 0.2732
H9B H 1.0204 0.2606 0.2905
C10B C 1.08067(13) -0.1758(3) 0.06135(13)
H10B H 1.1357 -0.2961 0.1029
loop_
_geom_bond_atom_site_label_1
_geom_bond_atom_site_label_2
_geom_bond_site_symmetry_1
_geom_bond_site_symmetry_2
O1 C5 1_555 1_555
C1 C3 1_555 1_555
O2 C7 1_555 1_555
C2 H1 1_555 1_555
C3 H2 1_555 1_555
C4 C2 1_555 1_555
C5 C1 1_555 1_555
C6 C1 1_555 1_555
H3 C6 1_555 1_555
C7 C4 1_555 1_555
C8 C5 1_555 1_555
H4 C8 1_555 1_555
H5 C8 1_555 1_555
H6 C8 1_555 1_555
C9 C7 1_555 1_555
H7 C9 1_555 1_555
H8 C9 1_555 1_555
H9 C9 1_555 1_555
C10 C4 1_555 1_555
H10 C10 1_555 1_555
O1B C5B 1_555 1_555
C1B C3B 1_555 1_555
O2B C7B 1_555 1_555
C2B C10 1_555 1_555
H1B C2B 1_555 1_555
C3B C6 1_555 1_555
H2B C3B 1_555 1_555
C4B C2B 1_555 1_555
C5B C1B 1_555 1_555
C6B C3 1_555 1_555
H3B C6B 1_555 1_555
C7B C4B 1_555 1_555
C8B C5B 1_555 1_555
H4B C8B 1_555 1_555
H5B C8B 1_555 1_555
H6B C8B 1_555 1_555
C9B C7B 1_555 1_555
H7B C9B 1_555 1_555
H8B C9B 1_555 1_555
H9B C9B 1_555 1_555
C10B C2 1_555 1_555
H10B C10B 1_555 1_555
C1B C6B 1_555 1_555
C4B C10B 1_555 1_555

#END
