
#######################################################################
#
#                 Cambridge Crystallographic Data Centre
#                                CCDC 
#
#######################################################################
#
# If this CIF has been generated from an entry in the Cambridge 
# Structural Database, then it will include bibliographic, chemical, 
# crystal, experimental, refinement or atomic coordinate data resulting 
# from the CCDC's data processing and validation procedures.
#
#######################################################################

data_MEGWUT
_chemical_formula_moiety         'C36 H34 N4 O1'
_chemical_name_systematic        
{2,6-bis[2-(1-butyl-1H-indol-4-yl)ethenyl]-4H-pyran-4-ylidene}propanedinitrile
_symmetry_cell_setting           monoclinic
_symmetry_space_group_name_H-M   'C 2/c'
_symmetry_Int_Tables_number      15
_space_group_name_Hall           '-C 2yn'
loop_
_symmetry_equiv_pos_site_id
_symmetry_equiv_pos_as_xyz
1 x,y,z
2 -x,y,1/2-z
3 1/2+x,1/2+y,z
4 1/2-x,1/2+y,1/2-z
5 -x,-y,-z
6 x,-y,1/2+z
7 1/2-x,1/2-y,-z
8 1/2+x,1/2-y,1/2+z
_cell_length_a                   39.856(3)
_cell_length_b                   8.1733(4)
_cell_length_c                   19.7806(10)
_cell_angle_alpha                90
_cell_angle_beta                 106.633(2)
_cell_angle_gamma                90
_cell_volume                     6174.02
_exptl_crystal_colour            red
_exptl_crystal_description       prismatic
_cell_formula_units_Z            8
loop_
_atom_site_label
_atom_site_type_symbol
_atom_site_fract_x
_atom_site_fract_y
_atom_site_fract_z
N1 N 0.36571(16) 0.5567(8) 1.0805(3)
N2 N 0.36514(14) 0.9248(8) 0.7595(3)
N3 N 0.6663(2) 0.5735(10) 1.1734(6)
N4 N 0.66508(19) 0.9290(10) 1.0041(6)
O1 O 0.52321(8) 0.7555(3) 1.01084(15)
C1 C 0.37007(18) 0.6716(9) 1.0334(4)
H1 H 0.3521 0.7342 1.0047
C2 C 0.40400(16) 0.6819(6) 1.0344(3)
H2 H 0.4132 0.7519 1.0072
C3 C 0.42317(16) 0.5661(5) 1.0846(2)
C4 C 0.39776(18) 0.4919(7) 1.1128(3)
C5 C 0.4077(2) 0.3735(8) 1.1661(3)
H3 H 0.3911 0.3241 1.1843
C6 C 0.4416(2) 0.3332(7) 1.1900(3)
H4 H 0.4484 0.2550 1.2255
C7 C 0.46693(15) 0.4038(6) 1.1640(2)
H5 H 0.4902 0.3728 1.1826
C8 C 0.45828(14) 0.5201(5) 1.1105(2)
C9 C 0.48370(15) 0.5952(5) 1.0801(2)
H6 H 0.4745 0.6635 1.0416
C10 C 0.51800(16) 0.5792(5) 1.1000(2)
H7 H 0.5279 0.5093 1.1375
C11 C 0.54129(15) 0.6626(5) 1.0678(2)
C12 C 0.57671(16) 0.6604(6) 1.0879(3)
H8 H 0.5886 0.5956 1.1259
C13 C 0.59636(17) 0.7559(6) 1.0517(3)
C14 C 0.57569(16) 0.8500(6) 0.9940(3)
H9 H 0.5871 0.9154 0.9689
C15 C 0.54066(15) 0.8483(5) 0.9743(3)
C16 C 0.51715(15) 0.9313(5) 0.9152(2)
H10 H 0.5266 1.0036 0.8893
C17 C 0.48302(15) 0.9105(5) 0.8959(2)
H11 H 0.4744 0.8397 0.9238
C18 C 0.45699(14) 0.9834(5) 0.8368(2)
C19 C 0.46492(15) 1.1032(6) 0.7936(2)
H12 H 0.4879 1.1393 0.8022
C20 C 0.4389(2) 1.1692(7) 0.7379(3)
H13 H 0.4451 1.2492 0.7102
C21 C 0.4048(2) 1.1217(8) 0.7222(3)
H14 H 0.3877 1.1685 0.6850
C22 C 0.39652(17) 1.0003(7) 0.7640(3)
C23 C 0.42210(15) 0.9307(6) 0.8207(2)
C24 C 0.40441(16) 0.8095(6) 0.8499(3)
H15 H 0.4145 0.7425 0.8884
C25 C 0.37064(18) 0.8098(8) 0.8119(4)
H16 H 0.3535 0.7419 0.8200
C26 C 0.3346(5) 0.975(4) 0.7033(12)
H17 H 0.3383 1.0856 0.6894
H18 H 0.3326 0.9045 0.6629
C27 C 0.3025(4) 0.970(3) 0.7207(12)
H19 H 0.3059 1.0209 0.7664
H20 H 0.2963 0.8564 0.7249
C28 C 0.2717(4) 1.056(3) 0.6667(9)
H21 H 0.2818 1.1310 0.6401
H22 H 0.2595 0.9725 0.6339
C29 C 0.2442(8) 1.150(6) 0.690(2)
H23 H 0.2507 1.2238 0.7293
H24 H 0.2332 1.0549 0.7029
H25 H 0.2281 1.2032 0.6507
C30 C 0.63209(19) 0.7532(9) 1.0713(4)
C31 C 0.6516(2) 0.6553(11) 1.1280(6)
C32 C 0.6503(2) 0.8491(11) 1.0353(6)
C33 C 0.3337(5) 0.543(4) 1.1049(14)
H26 H 0.3281 0.6484 1.1217
H27 H 0.3374 0.4647 1.1431
C34 C 0.3046(5) 0.488(3) 1.0431(12)
H28 H 0.3131 0.3992 1.0200
H29 H 0.2984 0.5777 1.0097
C35 C 0.2697(6) 0.427(3) 1.0612(18)
H30 H 0.2543 0.3752 1.0199
H31 H 0.2761 0.3463 1.0985
C36 C 0.2496(12) 0.569(8) 1.085(4)
H32 H 0.2650 0.6616 1.0950
H33 H 0.2421 0.5424 1.1257
H34 H 0.2295 0.5940 1.0461
C37? C 0.3303(5) 0.936(4) 0.7070(12)
H35? H 0.3172 0.8361 0.7078
H36? H 0.3330 0.9484 0.6600
C38? C 0.3115(5) 1.078(3) 0.7246(12)
H37? H 0.2942 1.1212 0.6834
H38? H 0.3274 1.1646 0.7472
C39? C 0.2942(5) 0.995(3) 0.7763(10)
H39? H 0.2954 1.0579 0.8185
H40? H 0.3014 0.8822 0.7877
C40? C 0.2596(5) 1.014(7) 0.717(2)
H41? H 0.2538 1.1199 0.6952
H42? H 0.2418 0.9811 0.7378
H43? H 0.2610 0.9361 0.6813
C41? C 0.3327(5) 0.482(3) 1.0906(17)
H44? H 0.3245 0.3944 1.0569
H45? H 0.3375 0.4369 1.1377
C42? C 0.3073(6) 0.603(3) 1.0807(15)
H46? H 0.2969 0.6293 1.0313
H47? H 0.3160 0.7019 1.1071
C43? C 0.2818(5) 0.505(3) 1.1128(13)
H48? H 0.2863 0.3888 1.1174
H49? H 0.2788 0.5518 1.1558
C44? C 0.2532(8) 0.556(9) 1.045(3)
H50? H 0.2574 0.5075 1.0037
H51? H 0.2524 0.6728 1.0398
H52? H 0.2313 0.5171 1.0497
loop_
_geom_bond_atom_site_label_1
_geom_bond_atom_site_label_2
_geom_bond_site_symmetry_1
_geom_bond_site_symmetry_2
N1 C1 1_555 1_555
N2 C22 1_555 1_555
N3 C31 1_555 1_555
N4 C32 1_555 1_555
O1 C11 1_555 1_555
C1 H1 1_555 1_555
C2 C1 1_555 1_555
H2 C2 1_555 1_555
C3 C2 1_555 1_555
C4 N1 1_555 1_555
C5 C4 1_555 1_555
H3 C5 1_555 1_555
C6 C5 1_555 1_555
H4 C6 1_555 1_555
C7 C6 1_555 1_555
H5 C7 1_555 1_555
C8 C3 1_555 1_555
C9 C8 1_555 1_555
H6 C9 1_555 1_555
C10 C9 1_555 1_555
H7 C10 1_555 1_555
C11 C10 1_555 1_555
C12 C11 1_555 1_555
H8 C12 1_555 1_555
C13 C12 1_555 1_555
C14 C13 1_555 1_555
H9 C14 1_555 1_555
C15 O1 1_555 1_555
C16 C15 1_555 1_555
H10 C16 1_555 1_555
C17 C16 1_555 1_555
H11 C17 1_555 1_555
C18 C17 1_555 1_555
C19 C18 1_555 1_555
H12 C19 1_555 1_555
C20 C19 1_555 1_555
H13 C20 1_555 1_555
C21 C20 1_555 1_555
H14 C21 1_555 1_555
C22 C21 1_555 1_555
C23 C18 1_555 1_555
C24 C23 1_555 1_555
H15 C24 1_555 1_555
C25 N2 1_555 1_555
H16 C25 1_555 1_555
C26 N2 1_555 1_555
H17 C26 1_555 1_555
H18 C26 1_555 1_555
C27 C26 1_555 1_555
H19 C27 1_555 1_555
H20 C27 1_555 1_555
C28 C27 1_555 1_555
H21 C28 1_555 1_555
H22 C28 1_555 1_555
C29 C28 1_555 1_555
H23 C29 1_555 1_555
H24 C29 1_555 1_555
H25 C29 1_555 1_555
C30 C13 1_555 1_555
C31 C30 1_555 1_555
C32 C30 1_555 1_555
C33 N1 1_555 1_555
H26 C33 1_555 1_555
H27 C33 1_555 1_555
C34 C33 1_555 1_555
H28 C34 1_555 1_555
H29 C34 1_555 1_555
C35 C34 1_555 1_555
H30 C35 1_555 1_555
H31 C35 1_555 1_555
C36 C35 1_555 1_555
H32 C36 1_555 1_555
H33 C36 1_555 1_555
H34 C36 1_555 1_555
C3 C4 1_555 1_555
C7 C8 1_555 1_555
C14 C15 1_555 1_555
C22 C23 1_555 1_555
C24 C25 1_555 1_555

#END
