
#######################################################################
#
#                 Cambridge Crystallographic Data Centre
#                                CCDC 
#
#######################################################################
#
# If this CIF has been generated from an entry in the Cambridge 
# Structural Database, then it will include bibliographic, chemical, 
# crystal, experimental, refinement or atomic coordinate data resulting 
# from the CCDC's data processing and validation procedures.
#
#######################################################################

data_MEGXEE
_chemical_formula_moiety         'C36 H34 N4 O1'
_chemical_name_systematic        
'(2,6-bis{2-[1-(2-methylpropyl)-1H-indol-4-yl]ethenyl}-4H-pyran-4-ylidene)propanedinitrile unknown solvate'
_symmetry_cell_setting           triclinic
_symmetry_space_group_name_H-M   'P -1'
_symmetry_Int_Tables_number      2
_space_group_name_Hall           '-P 1'
loop_
_symmetry_equiv_pos_site_id
_symmetry_equiv_pos_as_xyz
1 x,y,z
2 -x,-y,-z
_cell_length_a                   11.5539(4)
_cell_length_b                   17.9477(6)
_cell_length_c                   17.9799(5)
_cell_angle_alpha                105.002(2)
_cell_angle_beta                 96.230(2)
_cell_angle_gamma                99.152(2)
_cell_volume                     3511.42
_exptl_crystal_colour            red
_exptl_crystal_description       prismatic
_cell_formula_units_Z            4
loop_
_atom_site_label
_atom_site_type_symbol
_atom_site_fract_x
_atom_site_fract_y
_atom_site_fract_z
N1 N 0.1298(4) 0.5943(3) 0.0166(2)
N2 N -0.1121(4) 0.6496(2) 0.1876(2)
N3 N 0.6088(3) 0.22834(19) 0.02581(18)
N4 N 0.2724(3) 0.30929(19) 0.58918(17)
O1 O 0.17324(19) 0.41693(13) 0.24782(11)
C1 C 0.2172(3) 0.4297(2) 0.18400(18)
C2 C 0.1790(3) 0.4808(2) 0.14876(19)
H1 H 0.2118 0.4892 0.1059
C3 C 0.0900(3) 0.5221(2) 0.17540(17)
C4 C 0.0485(3) 0.5089(2) 0.24363(18)
H2 H -0.0072 0.5363 0.2653
C5 C 0.0896(3) 0.4568(2) 0.27717(18)
C6 C 0.0471(3) 0.5728(2) 0.13759(19)
C7 C 0.0917(4) 0.5851(3) 0.0702(2)
C8 C -0.0416(4) 0.6154(2) 0.1642(2)
C9 C 0.3055(3) 0.3842(2) 0.16035(19)
H3 H 0.3404 0.3918 0.1180
C10 C 0.3412(3) 0.3327(2) 0.19347(19)
H4 H 0.3059 0.3273 0.2364
C11 C 0.4266(3) 0.2832(2) 0.1734(2)
C12 C 0.4591(4) 0.2396(3) 0.2239(2)
H5 H 0.4229 0.2430 0.2680
C13 C 0.5412(4) 0.1924(3) 0.2117(3)
H6 H 0.5603 0.1658 0.2479
C14 C 0.5960(4) 0.1836(3) 0.1464(3)
H7 H 0.6509 0.1509 0.1373
C15 C 0.5659(3) 0.2259(2) 0.0947(2)
C16 C 0.4830(3) 0.2753(2) 0.10572(19)
C17 C 0.4768(4) 0.3068(2) 0.0413(2)
H8 H 0.4284 0.3413 0.0320
C18 C 0.5543(4) 0.2777(2) -0.0043(2)
H9 H 0.5681 0.2899 -0.0501
C19 C 0.6935(4) 0.1823(3) -0.0083(3)
H10 H 0.7539 0.1812 0.0330
H11 H 0.7325 0.2082 -0.0427
C20 C 0.6361(6) 0.0986(3) -0.0540(4)
H12 H 0.6063 0.0733 -0.0158
C21 C 0.7313(7) 0.0554(4) -0.0853(4)
H13 H 0.7012 -0.0003 -0.1002
H14 H 0.7997 0.0682 -0.0456
H15 H 0.7532 0.0710 -0.1299
C22 C 0.5348(7) 0.0873(6) -0.1143(6)
H16 H 0.4758 0.1143 -0.0922
H17 H 0.5018 0.0322 -0.1350
H18 H 0.5602 0.1080 -0.1553
C23 C 0.0562(3) 0.4385(2) 0.34665(18)
H19 H -0.0059 0.4587 0.3680
C24 C 0.1117(3) 0.3937(2) 0.38091(19)
H20 H 0.1690 0.3714 0.3553
C25 C 0.0934(3) 0.3750(2) 0.45421(18)
C26 C -0.0054(3) 0.3853(2) 0.4901(2)
H21 H -0.0663 0.4036 0.4663
C27 C -0.0155(3) 0.3690(2) 0.5610(2)
H22 H -0.0842 0.3749 0.5826
C28 C 0.0733(3) 0.3445(2) 0.5996(2)
H23 H 0.0675 0.3361 0.6481
C29 C 0.1720(3) 0.3326(2) 0.56412(19)
C30 C 0.1832(3) 0.3474(2) 0.49157(18)
C31 C 0.2956(3) 0.3296(2) 0.4738(2)
H24 H 0.3284 0.3331 0.4295
C32 C 0.3446(3) 0.3068(3) 0.5337(2)
H25 H 0.4177 0.2914 0.5369
C33 C 0.2990(4) 0.2882(3) 0.6616(2)
H26 H 0.2645 0.3208 0.7018
H27 H 0.3844 0.3006 0.6777
C34 C 0.2554(7) 0.2038(4) 0.6575(3)
H28 H 0.1685 0.1927 0.6465
C35 C 0.2979(9) 0.1508(6) 0.5984(5)
H29 H 0.3250 0.1773 0.5616
H30 H 0.2349 0.1070 0.5720
H31 H 0.3624 0.1322 0.6214
C36 C 0.2937(8) 0.1928(5) 0.7384(4)
H32 H 0.2633 0.1397 0.7381
H33 H 0.2629 0.2285 0.7773
H34 H 0.3788 0.2033 0.7501
N5 N 0.6590(3) 0.5421(3) 0.0008(2)
N6 N 0.4490(4) 0.6254(2) 0.18343(19)
N7 N 1.1472(3) 0.1949(2) 0.0183(2)
N8 N 0.6607(3) 0.2508(2) 0.59133(17)
O2 O 0.7357(2) 0.39697(14) 0.25721(12)
C37 C 0.7651(3) 0.3968(2) 0.18501(17)
C38 C 0.7230(3) 0.4437(2) 0.14521(18)
H35 H 0.7457 0.4433 0.0971
C39 C 0.6450(3) 0.49344(19) 0.17499(17)
C40 C 0.6196(3) 0.4934(2) 0.25044(18)
H36 H 0.5713 0.5264 0.2737
C41 C 0.6639(3) 0.4466(2) 0.28928(18)
C42 C 0.5985(3) 0.5396(2) 0.13308(18)
C43 C 0.6307(3) 0.5411(2) 0.0590(2)
C44 C 0.5163(4) 0.5870(2) 0.16051(18)
C45 C 0.8444(3) 0.3462(2) 0.15771(19)
H37 H 0.8666 0.3461 0.1095
C46 C 0.8899(3) 0.2988(2) 0.1943(2)
H38 H 0.8649 0.2984 0.2417
C47 C 0.9724(3) 0.2482(2) 0.1703(2)
C48 C 1.0043(4) 0.2023(2) 0.2179(3)
H39 H 0.9708 0.2053 0.2631
C49 C 1.0826(5) 0.1531(3) 0.2010(3)
H40 H 1.1022 0.1247 0.2355
C50 C 1.1327(4) 0.1445(3) 0.1348(3)
H41 H 1.1843 0.1098 0.1231
C51 C 1.1042(3) 0.1891(2) 0.0857(3)
C52 C 1.0261(3) 0.2421(2) 0.1016(2)
C53 C 1.0260(4) 0.2797(2) 0.0414(2)
H42 H 0.9831 0.3183 0.0362
C54 C 1.0992(4) 0.2499(3) -0.0073(3)
H43 H 1.1144 0.2648 -0.0516
C55 C 1.2165(4) 0.1419(3) -0.0260(3)
H44 H 1.2751 0.1308 0.0104
H45 H 1.2589 0.1687 -0.0584
C56 C 1.1410(5) 0.0640(3) -0.0780(4)
H46 H 1.1000 0.0376 -0.0442
C57 C 1.2172(6) 0.0118(4) -0.1170(4)
H47 H 1.1682 -0.0357 -0.1509
H48 H 1.2686 -0.0009 -0.0783
H49 H 1.2642 0.0381 -0.1469
C58 C 1.0491(7) 0.0759(4) -0.1357(5)
H50 H 1.0857 0.0902 -0.1768
H51 H 1.0108 0.1171 -0.1106
H52 H 0.9913 0.0281 -0.1572
C59 C 0.6447(3) 0.4449(2) 0.36706(19)
H53 H 0.6106 0.4846 0.3951
C60 C 0.6711(3) 0.3922(2) 0.40167(18)
H54 H 0.7025 0.3515 0.3727
C61 C 0.6561(3) 0.3912(2) 0.48111(18)
C62 C 0.6389(3) 0.4574(2) 0.53626(19)
H55 H 0.6325 0.5028 0.5217
C63 C 0.6312(3) 0.4565(2) 0.61342(19)
H56 H 0.6197 0.5017 0.6487
C64 C 0.6397(3) 0.3925(2) 0.63841(18)
H57 H 0.6360 0.3934 0.6900
C65 C 0.6543(3) 0.3251(2) 0.58366(19)
C66 C 0.6619(3) 0.3230(2) 0.50506(18)
C67 C 0.6735(4) 0.2460(2) 0.4663(2)
H58 H 0.6811 0.2274 0.4141
C68 C 0.6716(5) 0.2038(3) 0.5202(3)
H59 H 0.6770 0.1510 0.5098
C69 C 0.6575(4) 0.2288(3) 0.6629(2)
H60 H 0.6253 0.1729 0.6503
H61 H 0.6042 0.2566 0.6924
C70 C 0.7789(4) 0.2466(3) 0.7140(2)
H62 H 0.8114 0.3029 0.7259
C71 C 0.7617(6) 0.2272(4) 0.7907(3)
H63 H 0.7213 0.1736 0.7797
H64 H 0.7154 0.2615 0.8186
H65 H 0.8378 0.2344 0.8218
C72 C 0.8662(5) 0.2016(4) 0.6740(3)
H66 H 0.9386 0.2112 0.7097
H67 H 0.8824 0.2188 0.6293
H68 H 0.8327 0.1463 0.6579
loop_
_geom_bond_atom_site_label_1
_geom_bond_atom_site_label_2
_geom_bond_site_symmetry_1
_geom_bond_site_symmetry_2
N1 C7 1_555 1_555
N2 C8 1_555 1_555
N3 C15 1_555 1_555
N4 C29 1_555 1_555
O1 C1 1_555 1_555
C1 C2 1_555 1_555
C2 H1 1_555 1_555
C3 C2 1_555 1_555
C4 C3 1_555 1_555
H2 C4 1_555 1_555
C5 O1 1_555 1_555
C6 C3 1_555 1_555
C7 C6 1_555 1_555
C8 C6 1_555 1_555
C9 C1 1_555 1_555
H3 C9 1_555 1_555
C10 C9 1_555 1_555
H4 C10 1_555 1_555
C11 C10 1_555 1_555
C12 C11 1_555 1_555
H5 C12 1_555 1_555
C13 C12 1_555 1_555
H6 C13 1_555 1_555
C14 C13 1_555 1_555
H7 C14 1_555 1_555
C15 C14 1_555 1_555
C16 C11 1_555 1_555
C17 C16 1_555 1_555
H8 C17 1_555 1_555
C18 N3 1_555 1_555
H9 C18 1_555 1_555
C19 N3 1_555 1_555
H10 C19 1_555 1_555
H11 C19 1_555 1_555
C20 C19 1_555 1_555
H12 C20 1_555 1_555
C21 C20 1_555 1_555
H13 C21 1_555 1_555
H14 C21 1_555 1_555
H15 C21 1_555 1_555
C22 C20 1_555 1_555
H16 C22 1_555 1_555
H17 C22 1_555 1_555
H18 C22 1_555 1_555
C23 C5 1_555 1_555
H19 C23 1_555 1_555
C24 C23 1_555 1_555
H20 C24 1_555 1_555
C25 C24 1_555 1_555
C26 C25 1_555 1_555
H21 C26 1_555 1_555
C27 C26 1_555 1_555
H22 C27 1_555 1_555
C28 C27 1_555 1_555
H23 C28 1_555 1_555
C29 C28 1_555 1_555
C30 C25 1_555 1_555
C31 C30 1_555 1_555
H24 C31 1_555 1_555
C32 N4 1_555 1_555
H25 C32 1_555 1_555
C33 N4 1_555 1_555
H26 C33 1_555 1_555
H27 C33 1_555 1_555
C34 C33 1_555 1_555
H28 C34 1_555 1_555
C35 C34 1_555 1_555
H29 C35 1_555 1_555
H30 C35 1_555 1_555
H31 C35 1_555 1_555
C36 C34 1_555 1_555
H32 C36 1_555 1_555
H33 C36 1_555 1_555
H34 C36 1_555 1_555
N5 C43 1_555 1_555
N6 C44 1_555 1_555
N7 C51 1_555 1_555
N8 C65 1_555 1_555
O2 C37 1_555 1_555
C37 C38 1_555 1_555
C38 H35 1_555 1_555
C39 C38 1_555 1_555
C40 C39 1_555 1_555
H36 C40 1_555 1_555
C41 O2 1_555 1_555
C42 C39 1_555 1_555
C43 C42 1_555 1_555
C44 C42 1_555 1_555
C45 C37 1_555 1_555
H37 C45 1_555 1_555
C46 C45 1_555 1_555
H38 C46 1_555 1_555
C47 C46 1_555 1_555
C48 C47 1_555 1_555
H39 C48 1_555 1_555
C49 C48 1_555 1_555
H40 C49 1_555 1_555
C50 C49 1_555 1_555
H41 C50 1_555 1_555
C51 C50 1_555 1_555
C52 C47 1_555 1_555
C53 C52 1_555 1_555
H42 C53 1_555 1_555
C54 N7 1_555 1_555
H43 C54 1_555 1_555
C55 N7 1_555 1_555
H44 C55 1_555 1_555
H45 C55 1_555 1_555
C56 C55 1_555 1_555
H46 C56 1_555 1_555
C57 C56 1_555 1_555
H47 C57 1_555 1_555
H48 C57 1_555 1_555
H49 C57 1_555 1_555
C58 C56 1_555 1_555
H50 C58 1_555 1_555
H51 C58 1_555 1_555
H52 C58 1_555 1_555
C59 C41 1_555 1_555
H53 C59 1_555 1_555
C60 C59 1_555 1_555
H54 C60 1_555 1_555
C61 C60 1_555 1_555
C62 C61 1_555 1_555
H55 C62 1_555 1_555
C63 C62 1_555 1_555
H56 C63 1_555 1_555
C64 C63 1_555 1_555
H57 C64 1_555 1_555
C65 C64 1_555 1_555
C66 C61 1_555 1_555
C67 C66 1_555 1_555
H58 C67 1_555 1_555
C68 N8 1_555 1_555
H59 C68 1_555 1_555
C69 N8 1_555 1_555
H60 C69 1_555 1_555
H61 C69 1_555 1_555
C70 C69 1_555 1_555
H62 C70 1_555 1_555
C71 C70 1_555 1_555
H63 C71 1_555 1_555
H64 C71 1_555 1_555
H65 C71 1_555 1_555
C72 C70 1_555 1_555
H66 C72 1_555 1_555
H67 C72 1_555 1_555
H68 C72 1_555 1_555
C4 C5 1_555 1_555
C15 C16 1_555 1_555
C17 C18 1_555 1_555
C29 C30 1_555 1_555
C31 C32 1_555 1_555
C40 C41 1_555 1_555
C51 C52 1_555 1_555
C53 C54 1_555 1_555
C65 C66 1_555 1_555
C67 C68 1_555 1_555

#END
