
#######################################################################
#
#                 Cambridge Crystallographic Data Centre
#                                CCDC 
#
#######################################################################
#
# If this CIF has been generated from an entry in the Cambridge 
# Structural Database, then it will include bibliographic, chemical, 
# crystal, experimental, refinement or atomic coordinate data resulting 
# from the CCDC's data processing and validation procedures.
#
#######################################################################

data_MEGYUT
_chemical_formula_moiety         'C11 H13 N3 O3,H2 O1'
_chemical_name_systematic        
'(E)-4-(Isonicotinoylhydrazono)pentanoic acid monohydrate'
_symmetry_cell_setting           monoclinic
_symmetry_space_group_name_H-M   'P 21/c'
_symmetry_Int_Tables_number      14
_space_group_name_Hall           '-P 2ybc'
loop_
_symmetry_equiv_pos_site_id
_symmetry_equiv_pos_as_xyz
1 x,y,z
2 -x,1/2+y,1/2-z
3 -x,-y,-z
4 x,1/2-y,1/2+z
_cell_length_a                   9.7834(14)
_cell_length_b                   12.4798(17)
_cell_length_c                   10.0924(15)
_cell_angle_alpha                90
_cell_angle_beta                 92.447(3)
_cell_angle_gamma                90
_cell_volume                     1231.11
_exptl_crystal_colour            colorless
_exptl_crystal_description       block
_cell_formula_units_Z            4
_exptl_crystal_recrystallization_method methanol/water
loop_
_atom_site_label
_atom_site_type_symbol
_atom_site_fract_x
_atom_site_fract_y
_atom_site_fract_z
O1 O 0.2485(2) 0.09682(16) 0.3317(2)
O2 O -0.2546(3) 0.15685(18) -0.0826(3)
H1 H -0.310(4) 0.166(3) -0.149(4)
O3 O -0.2582(2) 0.33419(17) -0.0923(2)
N1 N 0.5528(3) 0.1696(2) 0.7257(2)
N2 N 0.1986(2) 0.27131(17) 0.3648(2)
H2 H 0.2163 0.3293 0.4082
N3 N 0.1010(2) 0.26949(18) 0.2598(2)
C1 C 0.5246(3) 0.2617(2) 0.6650(3)
H3 H 0.5703 0.3228 0.6955
C2 C 0.4316(3) 0.2719(2) 0.5596(3)
H4 H 0.4152 0.3383 0.5203
C3 C 0.3630(3) 0.1815(2) 0.5130(3)
C4 C 0.3919(3) 0.0850(2) 0.5762(3)
H5 H 0.3475 0.0225 0.5486
C5 C 0.4866(4) 0.0831(2) 0.6800(3)
H6 H 0.5058 0.0177 0.7209
C6 C 0.2638(3) 0.1795(2) 0.3958(3)
C7 C 0.0563(3) 0.3593(2) 0.2167(3)
C8 C 0.1007(4) 0.4683(2) 0.2628(3)
H7 H 0.1689 0.4615 0.3335
H8 H 0.0234 0.5067 0.2940
H9 H 0.1383 0.5067 0.1904
C9 C -0.0510(3) 0.3576(2) 0.1053(3)
H10 H -0.1264 0.4029 0.1298
H11 H -0.0122 0.3889 0.0274
C10 C -0.1073(3) 0.2486(2) 0.0685(3)
H12 H -0.0328 0.2029 0.0427
H13 H -0.1471 0.2168 0.1456
C11 C -0.2137(3) 0.2529(2) -0.0427(3)
O4 O 0.1805(3) 0.4332(2) 0.5651(3)
H14 H 0.194(5) 0.419(4) 0.648(5)
H15 H 0.210(4) 0.498(4) 0.560(4)
loop_
_geom_bond_atom_site_label_1
_geom_bond_atom_site_label_2
_geom_bond_site_symmetry_1
_geom_bond_site_symmetry_2
O1 C6 1_555 1_555
O2 H1 1_555 1_555
O3 C11 1_555 1_555
N1 C1 1_555 1_555
N2 H2 1_555 1_555
N3 N2 1_555 1_555
C1 H3 1_555 1_555
C2 C1 1_555 1_555
H4 C2 1_555 1_555
C3 C2 1_555 1_555
C4 C3 1_555 1_555
H5 C4 1_555 1_555
C5 N1 1_555 1_555
H6 C5 1_555 1_555
C6 N2 1_555 1_555
C7 N3 1_555 1_555
C8 C7 1_555 1_555
H7 C8 1_555 1_555
H8 C8 1_555 1_555
H9 C8 1_555 1_555
C9 C7 1_555 1_555
H10 C9 1_555 1_555
H11 C9 1_555 1_555
C10 C9 1_555 1_555
H12 C10 1_555 1_555
H13 C10 1_555 1_555
C11 O2 1_555 1_555
O4 H14 1_555 1_555
H15 O4 1_555 1_555
C3 C6 1_555 1_555
C4 C5 1_555 1_555
C10 C11 1_555 1_555

#END
