
#######################################################################
#
#                 Cambridge Crystallographic Data Centre
#                                CCDC 
#
#######################################################################
#
# If this CIF has been generated from an entry in the Cambridge 
# Structural Database, then it will include bibliographic, chemical, 
# crystal, experimental, refinement or atomic coordinate data resulting 
# from the CCDC's data processing and validation procedures.
#
#######################################################################

data_MEGYAZ
_chemical_formula_moiety         'C4 H12 N1 1+,C5 H1 Cl3 N1 O1 1-'
_chemical_name_systematic        
'N-Ethylethanaminium 3,5,6-trichloropyridin-2-olate'
_symmetry_cell_setting           triclinic
_symmetry_space_group_name_H-M   'P -1'
_symmetry_Int_Tables_number      2
_space_group_name_Hall           '-P 1'
loop_
_symmetry_equiv_pos_site_id
_symmetry_equiv_pos_as_xyz
1 x,y,z
2 -x,-y,-z
_cell_length_a                   7.527(6)
_cell_length_b                   9.196(6)
_cell_length_c                   10.978(7)
_cell_angle_alpha                106.36(2)
_cell_angle_beta                 105.32(3)
_cell_angle_gamma                105.28(3)
_cell_volume                     654.633
_exptl_crystal_colour            colorless
_exptl_crystal_description       chunk
_chemical_melting_point          '399-400 K'
_cell_formula_units_Z            2
_exptl_crystal_recrystallization_method 'diethyl ether'
loop_
_atom_site_label
_atom_site_type_symbol
_atom_site_fract_x
_atom_site_fract_y
_atom_site_fract_z
Cl1 Cl 0.53393(10) 0.42409(6) 0.63185(6)
Cl2 Cl 0.85021(8) 0.48780(6) 1.15486(5)
Cl3 Cl 0.46815(9) 0.18795(6) 1.09429(5)
O1 O 0.2181(2) 0.14912(14) 0.62784(12)
N1 N 0.3529(2) 0.17987(17) 0.84727(14)
C1 C 0.3593(2) 0.2274(2) 0.74258(17)
C2 C 0.5260(2) 0.3628(2) 0.76596(18)
C3 C 0.6741(2) 0.4423(2) 0.89062(19)
C4 C 0.6627(2) 0.3890(2) 0.99530(17)
C5 C 0.4975(2) 0.2588(2) 0.96741(17)
H1 H 0.7819 0.5317 0.9055
N2 N 0.0532(2) 0.11234(17) 0.36530(13)
C6 C -0.1467(4) 0.2672(2) 0.4361(2)
C7 C -0.0379(3) 0.2317(2) 0.3432(2)
C8 C 0.1583(3) 0.0729(2) 0.2730(2)
C9 C 0.2469(4) -0.0480(3) 0.2959(3)
H2 H -0.2408 0.1670 0.4263
H3 H -0.2148 0.3362 0.4133
H4 H -0.0546 0.3210 0.5287
H5 H 0.0646 0.3319 0.3587
H6 H -0.1286 0.1891 0.2494
H7 H 0.2620 0.1716 0.2872
H8 H 0.0668 0.0299 0.1793
H9 H 0.3252 -0.0625 0.2404
H10 H 0.1435 -0.1500 0.2716
H11 H 0.3294 -0.0097 0.3902
H12 H 0.1385 0.1529 0.4521
H13 H -0.0420 0.0204 0.3528
loop_
_geom_bond_atom_site_label_1
_geom_bond_atom_site_label_2
_geom_bond_site_symmetry_1
_geom_bond_site_symmetry_2
Cl1 C2 1_555 1_555
Cl2 C4 1_555 1_555
Cl3 C5 1_555 1_555
O1 C1 1_555 1_555
N1 C1 1_555 1_555
N2 C7 1_555 1_555
C1 C2 1_555 1_555
C2 C3 1_555 1_555
C3 C4 1_555 1_555
C4 C5 1_555 1_555
C5 N1 1_555 1_555
C6 C7 1_555 1_555
C7 H5 1_555 1_555
C8 N2 1_555 1_555
C9 C8 1_555 1_555
H1 C3 1_555 1_555
H2 C6 1_555 1_555
H3 C6 1_555 1_555
H4 C6 1_555 1_555
H6 C7 1_555 1_555
H7 C8 1_555 1_555
H8 C8 1_555 1_555
H9 C9 1_555 1_555
H10 C9 1_555 1_555
H11 C9 1_555 1_555
H12 N2 1_555 1_555
H13 N2 1_555 1_555

#END
