
#######################################################################
#
#                 Cambridge Crystallographic Data Centre
#                                CCDC 
#
#######################################################################
#
# If this CIF has been generated from an entry in the Cambridge 
# Structural Database, then it will include bibliographic, chemical, 
# crystal, experimental, refinement or atomic coordinate data resulting 
# from the CCDC's data processing and validation procedures.
#
#######################################################################

data_MEGZAA
_chemical_formula_moiety         'C10 H8 Cl1 N1 O2'
_chemical_name_systematic        (3-(4-Chlorophenyl)isoxazol-5-yl)methanol
_symmetry_cell_setting           monoclinic
_symmetry_space_group_name_H-M   'P 21/c'
_symmetry_Int_Tables_number      14
_space_group_name_Hall           '-P 2ybc'
loop_
_symmetry_equiv_pos_site_id
_symmetry_equiv_pos_as_xyz
1 x,y,z
2 -x,1/2+y,1/2-z
3 -x,-y,-z
4 x,1/2-y,1/2+z
_cell_length_a                   12.968(3)
_cell_length_b                   9.622(2)
_cell_length_c                   7.8091(17)
_cell_angle_alpha                90
_cell_angle_beta                 97.450(3)
_cell_angle_gamma                90
_cell_volume                     966.179
_exptl_crystal_colour            colorless
_exptl_crystal_description       block
_cell_formula_units_Z            4
_exptl_crystal_recrystallization_method hexane/dichloromethane
loop_
_atom_site_label
_atom_site_type_symbol
_atom_site_fract_x
_atom_site_fract_y
_atom_site_fract_z
Cl1 Cl 0.57521(5) 0.77592(8) 0.08499(11)
O1 O -0.00919(12) 0.55841(15) 0.2067(2)
O2 O -0.17983(13) 0.84092(18) 0.0524(2)
H1 H -0.1577 0.9020 0.1207
N1 N 0.09977(15) 0.55000(18) 0.2140(3)
C1 C 0.23936(17) 0.6945(2) 0.1400(3)
C2 C 0.27415(19) 0.8281(2) 0.1155(3)
H2 H 0.2273 0.9017 0.1093
C3 C 0.3767(2) 0.8536(3) 0.1001(3)
H3 H 0.3992 0.9439 0.0836
C4 C 0.44579(19) 0.7453(3) 0.1094(3)
C5 C 0.41388(19) 0.6112(2) 0.1364(3)
H4 H 0.4614 0.5383 0.1445
C6 C 0.31106(18) 0.5868(2) 0.1510(3)
H5 H 0.2891 0.4965 0.1687
C7 C 0.12899(17) 0.6683(2) 0.1522(3)
C8 C 0.04223(18) 0.7552(2) 0.1038(3)
H6 H 0.0424 0.8440 0.0568
C9 C -0.04015(17) 0.6826(2) 0.1400(3)
C10 C -0.15400(19) 0.7105(2) 0.1251(3)
H7 H -0.1910 0.6390 0.0542
H8 H -0.1762 0.7059 0.2389
loop_
_geom_bond_atom_site_label_1
_geom_bond_atom_site_label_2
_geom_bond_site_symmetry_1
_geom_bond_site_symmetry_2
Cl1 C4 1_555 1_555
O1 N1 1_555 1_555
O2 H1 1_555 1_555
N1 C7 1_555 1_555
C1 C2 1_555 1_555
C2 H2 1_555 1_555
C3 C2 1_555 1_555
H3 C3 1_555 1_555
C4 C3 1_555 1_555
C5 C4 1_555 1_555
H4 C5 1_555 1_555
C6 C1 1_555 1_555
H5 C6 1_555 1_555
C7 C1 1_555 1_555
C8 C7 1_555 1_555
H6 C8 1_555 1_555
C9 O1 1_555 1_555
C10 O2 1_555 1_555
H7 C10 1_555 1_555
H8 C10 1_555 1_555
C5 C6 1_555 1_555
C8 C9 1_555 1_555
C9 C10 1_555 1_555

#END
