
#######################################################################
#
#                 Cambridge Crystallographic Data Centre
#                                CCDC 
#
#######################################################################
#
# If this CIF has been generated from an entry in the Cambridge 
# Structural Database, then it will include bibliographic, chemical, 
# crystal, experimental, refinement or atomic coordinate data resulting 
# from the CCDC's data processing and validation procedures.
#
#######################################################################

data_MEHBIM
_chemical_formula_moiety         'C27 H21 N1 O1'
_chemical_name_systematic        
(4-Ethylphenyl)(1-phenylpyrrolo[2,1-a]isoquinolin-3-yl)methanone
_symmetry_cell_setting           triclinic
_symmetry_space_group_name_H-M   'P -1'
_symmetry_Int_Tables_number      2
_space_group_name_Hall           '-P 1'
loop_
_symmetry_equiv_pos_site_id
_symmetry_equiv_pos_as_xyz
1 x,y,z
2 -x,-y,-z
_cell_length_a                   9.1922(11)
_cell_length_b                   10.0794(12)
_cell_length_c                   11.4797(13)
_cell_angle_alpha                105.7820(10)
_cell_angle_beta                 97.6090(10)
_cell_angle_gamma                99.7730(10)
_cell_volume                     990.623
_exptl_crystal_colour            colorless
_exptl_crystal_description       block
_cell_formula_units_Z            2
loop_
_atom_site_label
_atom_site_type_symbol
_atom_site_fract_x
_atom_site_fract_y
_atom_site_fract_z
O1 O 0.34176(14) 0.38579(15) 1.08829(10)
N1 N 0.17943(12) 0.30217(11) 0.83906(9)
C1 C -0.23842(16) 0.34615(16) 0.67775(16)
H1 H -0.3041 0.3790 0.7281
C2 C -0.27841(17) 0.31593(18) 0.55325(17)
H2 H -0.3704 0.3291 0.5191
C3 C -0.18163(17) 0.26546(19) 0.47751(16)
H3 H -0.2108 0.2418 0.3924
C4 C -0.04307(15) 0.25006(17) 0.52681(13)
H4 H 0.0210 0.2171 0.4748
C5 C 0.00259(14) 0.28365(13) 0.65483(12)
C6 C -0.09909(15) 0.32838(14) 0.73112(13)
C7 C -0.05856(16) 0.35271(16) 0.86062(14)
H5 H -0.1269 0.3791 0.9107
C8 C 0.07447(16) 0.33872(15) 0.91189(13)
H6 H 0.0971 0.3534 0.9964
C9 C 0.14851(14) 0.27471(13) 0.71203(11)
C10 C 0.27697(14) 0.24226(13) 0.66751(11)
C11 C 0.38170(14) 0.24713(14) 0.76877(11)
H7 H 0.4768 0.2280 0.7653
C12 C 0.32349(14) 0.28481(14) 0.87568(12)
C13 C 0.30616(13) 0.21767(13) 0.54006(11)
C14 C 0.31306(15) 0.32418(15) 0.48393(13)
H8 H 0.2940 0.4107 0.5253
C15 C 0.34765(16) 0.30357(17) 0.36789(13)
H9 H 0.3516 0.3759 0.3318
C16 C 0.37616(18) 0.17727(18) 0.30583(13)
H10 H 0.4001 0.1636 0.2278
C17 C 0.3691(2) 0.07063(18) 0.35953(14)
H11 H 0.3878 -0.0157 0.3173
C18 C 0.33453(17) 0.09032(15) 0.47579(13)
H12 H 0.3303 0.0172 0.5111
C19 C 0.39600(17) 0.32074(15) 1.00376(12)
C20 C 0.54310(16) 0.28198(14) 1.03438(12)
C21 C 0.58116(17) 0.15833(15) 0.97081(13)
H13 H 0.5156 0.0967 0.9011
C22 C 0.71600(18) 0.12619(16) 1.01049(14)
H14 H 0.7391 0.0424 0.9673
C23 C 0.81758(16) 0.21626(16) 1.11332(14)
C24 C 0.77851(18) 0.33954(15) 1.17537(14)
H15 H 0.8451 0.4023 1.2440
C25 C 0.64397(17) 0.37137(15) 1.13811(13)
H16 H 0.6200 0.4539 1.1829
C26 C 0.96327(19) 0.18021(19) 1.15809(18)
H17 H 1.0251 0.1774 1.0956
H18 H 1.0164 0.2552 1.2316
C27 C 0.9461(2) 0.04304(19) 1.18693(19)
H19 H 0.8839 0.0439 1.2479
H20 H 1.0432 0.0300 1.2180
H21 H 0.9002 -0.0329 1.1134
loop_
_geom_bond_atom_site_label_1
_geom_bond_atom_site_label_2
_geom_bond_site_symmetry_1
_geom_bond_site_symmetry_2
O1 C19 1_555 1_555
N1 C8 1_555 1_555
C1 H1 1_555 1_555
C2 C1 1_555 1_555
H2 C2 1_555 1_555
C3 C2 1_555 1_555
H3 C3 1_555 1_555
C4 C3 1_555 1_555
H4 C4 1_555 1_555
C5 C4 1_555 1_555
C6 C1 1_555 1_555
C7 C6 1_555 1_555
H5 C7 1_555 1_555
C8 C7 1_555 1_555
H6 C8 1_555 1_555
C9 N1 1_555 1_555
C10 C9 1_555 1_555
C11 C10 1_555 1_555
H7 C11 1_555 1_555
C12 N1 1_555 1_555
C13 C10 1_555 1_555
C14 C13 1_555 1_555
H8 C14 1_555 1_555
C15 C14 1_555 1_555
H9 C15 1_555 1_555
C16 C15 1_555 1_555
H10 C16 1_555 1_555
C17 C16 1_555 1_555
H11 C17 1_555 1_555
C18 C13 1_555 1_555
H12 C18 1_555 1_555
C19 C12 1_555 1_555
C20 C19 1_555 1_555
C21 C20 1_555 1_555
H13 C21 1_555 1_555
C22 C21 1_555 1_555
H14 C22 1_555 1_555
C23 C22 1_555 1_555
C24 C23 1_555 1_555
H15 C24 1_555 1_555
C25 C20 1_555 1_555
H16 C25 1_555 1_555
C26 C23 1_555 1_555
H17 C26 1_555 1_555
H18 C26 1_555 1_555
C27 C26 1_555 1_555
H19 C27 1_555 1_555
H20 C27 1_555 1_555
H21 C27 1_555 1_555
C5 C6 1_555 1_555
C5 C9 1_555 1_555
C11 C12 1_555 1_555
C17 C18 1_555 1_555
C24 C25 1_555 1_555

#END
