
#######################################################################
#
#                 Cambridge Crystallographic Data Centre
#                                CCDC 
#
#######################################################################
#
# If this CIF has been generated from an entry in the Cambridge 
# Structural Database, then it will include bibliographic, chemical, 
# crystal, experimental, refinement or atomic coordinate data resulting 
# from the CCDC's data processing and validation procedures.
#
#######################################################################

data_MEHBOS
_chemical_formula_moiety         'C36 H27 N1 O2'
_chemical_name_systematic        
(4-Methoxyphenyl)(2-(4-methylphenyl)-1-((4-methylphenyl)ethynyl)pyrrolo[2,1-a]isoquinolin-3-yl)methanone
_symmetry_cell_setting           monoclinic
_symmetry_space_group_name_H-M   'P 21/c'
_symmetry_Int_Tables_number      14
_space_group_name_Hall           '-P 2ybc'
loop_
_symmetry_equiv_pos_site_id
_symmetry_equiv_pos_as_xyz
1 x,y,z
2 -x,1/2+y,1/2-z
3 -x,-y,-z
4 x,1/2-y,1/2+z
_cell_length_a                   12.4387(9)
_cell_length_b                   18.3179(14)
_cell_length_c                   11.7836(9)
_cell_angle_alpha                90
_cell_angle_beta                 94.4610(10)
_cell_angle_gamma                90
_cell_volume                     2676.77
_exptl_crystal_colour            yellow
_exptl_crystal_description       block
_cell_formula_units_Z            4
loop_
_atom_site_label
_atom_site_type_symbol
_atom_site_fract_x
_atom_site_fract_y
_atom_site_fract_z
O1 O 0.18422(12) 0.13385(10) 0.45834(13)
O2 O -0.16415(16) 0.25268(10) 0.77099(18)
N1 N 0.37046(12) 0.08479(8) 0.59245(13)
C1 C 0.62763(16) 0.00921(12) 0.7283(2)
H1 H 0.6042 -0.0172 0.7891
C2 C 0.73565(17) 0.01254(14) 0.7122(2)
H2 H 0.7847 -0.0112 0.7631
C3 C 0.77280(17) 0.05036(13) 0.6222(2)
H3 H 0.8461 0.0513 0.6117
C4 C 0.70153(17) 0.08644(12) 0.5485(2)
H4 H 0.7267 0.1118 0.4876
C5 C 0.59074(15) 0.08592(10) 0.56323(19)
C6 C 0.51476(18) 0.12631(12) 0.4912(2)
H5 H 0.5393 0.1535 0.4318
C7 C 0.40950(17) 0.12622(11) 0.50650(19)
H6 H 0.3623 0.1541 0.4592
C8 C 0.26404(14) 0.07772(10) 0.62259(16)
C9 C 0.26575(13) 0.02910(10) 0.71315(16)
C10 C 0.37491(14) 0.00894(9) 0.74175(16)
C11 C 0.43851(14) 0.04435(9) 0.66654(16)
C12 C 0.55269(14) 0.04555(9) 0.65350(17)
C13 C 0.17703(15) 0.11933(11) 0.55961(17)
C14 C 0.08472(15) 0.14853(10) 0.61798(17)
C15 C -0.00194(15) 0.17803(10) 0.55078(18)
H7 H -0.0032 0.1740 0.4720
C16 C -0.08625(15) 0.21319(11) 0.5988(2)
H8 H -0.1431 0.2325 0.5524
C17 C -0.08548(18) 0.21938(12) 0.7147(2)
C18 C -0.0009(2) 0.19030(13) 0.7826(2)
H9 H -0.0003 0.1942 0.8613
C19 C 0.08255(19) 0.15569(12) 0.73522(19)
H10 H 0.1389 0.1366 0.7826
C20 C -0.2463(2) 0.29095(17) 0.7055(3)
H11 H -0.2949 0.3126 0.7553
H12 H -0.2853 0.2576 0.6546
H13 H -0.2144 0.3285 0.6623
C21 C 0.17326(14) -0.00575(10) 0.76298(16)
C22 C 0.08726(14) -0.03374(11) 0.69333(17)
H14 H 0.0859 -0.0274 0.6149
C23 C 0.00419(15) -0.07073(11) 0.73898(18)
H15 H -0.0522 -0.0888 0.6905
C24 C 0.00265(15) -0.08160(11) 0.85503(18)
C25 C 0.08797(16) -0.05318(12) 0.92449(18)
H16 H 0.0888 -0.0592 1.0029
C26 C 0.17151(15) -0.01627(11) 0.87948(17)
H17 H 0.2277 0.0019 0.9281
C27 C -0.08762(18) -0.12345(13) 0.9027(2)
H18 H -0.1504 -0.1217 0.8499
H19 H -0.1041 -0.1021 0.9737
H20 H -0.0661 -0.1733 0.9150
C28 C 0.41251(13) -0.03956(10) 0.83044(16)
C29 C 0.44697(15) -0.07810(10) 0.90663(17)
C30 C 0.49524(16) -0.12310(10) 0.99626(16)
C31 C 0.4376(2) -0.15166(14) 1.0817(2)
H21 H 0.3643 -0.1418 1.0830
C32 C 0.4902(3) -0.19555(14) 1.1663(2)
H22 H 0.4510 -0.2138 1.2240
C33 C 0.5974(3) -0.21230(12) 1.16644(19)
C34 C 0.6534(2) -0.18389(12) 1.08273(18)
H23 H 0.7264 -0.1946 1.0814
C35 C 0.60456(16) -0.13934(11) 0.99937(16)
H24 H 0.6457 -0.1198 0.9442
C36 C 0.6475(4) -0.26211(16) 1.2569(2)
H25 H 0.7197 -0.2740 1.2400
H26 H 0.6057 -0.3061 1.2591
H27 H 0.6491 -0.2381 1.3295
loop_
_geom_bond_atom_site_label_1
_geom_bond_atom_site_label_2
_geom_bond_site_symmetry_1
_geom_bond_site_symmetry_2
O1 C13 1_555 1_555
O2 C17 1_555 1_555
N1 C7 1_555 1_555
C1 H1 1_555 1_555
C2 C1 1_555 1_555
H2 C2 1_555 1_555
C3 C2 1_555 1_555
H3 C3 1_555 1_555
C4 C3 1_555 1_555
H4 C4 1_555 1_555
C5 C4 1_555 1_555
C6 C5 1_555 1_555
H5 C6 1_555 1_555
C7 C6 1_555 1_555
H6 C7 1_555 1_555
C8 N1 1_555 1_555
C9 C8 1_555 1_555
C10 C9 1_555 1_555
C11 N1 1_555 1_555
C12 C1 1_555 1_555
C13 C8 1_555 1_555
C14 C13 1_555 1_555
C15 C14 1_555 1_555
H7 C15 1_555 1_555
C16 C15 1_555 1_555
H8 C16 1_555 1_555
C17 C16 1_555 1_555
C18 C17 1_555 1_555
H9 C18 1_555 1_555
C19 C14 1_555 1_555
H10 C19 1_555 1_555
C20 O2 1_555 1_555
H11 C20 1_555 1_555
H12 C20 1_555 1_555
H13 C20 1_555 1_555
C21 C9 1_555 1_555
C22 C21 1_555 1_555
H14 C22 1_555 1_555
C23 C22 1_555 1_555
H15 C23 1_555 1_555
C24 C23 1_555 1_555
C25 C24 1_555 1_555
H16 C25 1_555 1_555
C26 C21 1_555 1_555
H17 C26 1_555 1_555
C27 C24 1_555 1_555
H18 C27 1_555 1_555
H19 C27 1_555 1_555
H20 C27 1_555 1_555
C28 C10 1_555 1_555
C29 C28 1_555 1_555
C30 C29 1_555 1_555
C31 C30 1_555 1_555
H21 C31 1_555 1_555
C32 C31 1_555 1_555
H22 C32 1_555 1_555
C33 C32 1_555 1_555
C34 C33 1_555 1_555
H23 C34 1_555 1_555
C35 C30 1_555 1_555
H24 C35 1_555 1_555
C36 C33 1_555 1_555
H25 C36 1_555 1_555
H26 C36 1_555 1_555
H27 C36 1_555 1_555
C5 C12 1_555 1_555
C10 C11 1_555 1_555
C11 C12 1_555 1_555
C18 C19 1_555 1_555
C25 C26 1_555 1_555
C34 C35 1_555 1_555

#END
