
#######################################################################
#
#                 Cambridge Crystallographic Data Centre
#                                CCDC 
#
#######################################################################
#
# If this CIF has been generated from an entry in the Cambridge 
# Structural Database, then it will include bibliographic, chemical, 
# crystal, experimental, refinement or atomic coordinate data resulting 
# from the CCDC's data processing and validation procedures.
#
#######################################################################

data_MEHCAE
_chemical_formula_moiety         'C20 H28 N1 O1 1+,Cl1 1-'
_chemical_name_systematic        
'N-((R)-1-(2-Hydroxy-3,5-dimethylphenyl)ethyl)-N-((R)-2-methyl-1-phenylpropyl)ammonium chloride'
_symmetry_cell_setting           orthorhombic
_symmetry_space_group_name_H-M   'P 21 21 21'
_symmetry_Int_Tables_number      19
_space_group_name_Hall           'P 2ac 2ab'
loop_
_symmetry_equiv_pos_site_id
_symmetry_equiv_pos_as_xyz
1 x,y,z
2 1/2-x,-y,1/2+z
3 -x,1/2+y,1/2-z
4 1/2+x,1/2-y,-z
_cell_length_a                   9.0404(12)
_cell_length_b                   11.7373(15)
_cell_length_c                   18.768(2)
_cell_angle_alpha                90
_cell_angle_beta                 90
_cell_angle_gamma                90
_cell_volume                     1991.47
_exptl_crystal_colour            colorless
_exptl_crystal_description       block
_chemical_melting_point          '467.1-467.4 K'
_cell_formula_units_Z            4
_exptl_crystal_recrystallization_method 'ethyl acetate/ethanol'
loop_
_atom_site_label
_atom_site_type_symbol
_atom_site_fract_x
_atom_site_fract_y
_atom_site_fract_z
C1 C 0.7867(2) 1.00420(18) 0.59293(11)
C2 C 0.7601(3) 1.08093(19) 0.53810(10)
C3 C 0.8773(3) 1.1627(2) 0.51366(13)
H1 H 0.9047 1.2117 0.5524
H2 H 0.8397 1.2078 0.4750
H3 H 0.9625 1.1209 0.4979
C4 C 0.6203(3) 1.08120(19) 0.50680(11)
H4 H 0.6009 1.1334 0.4707
C5 C 0.5093(3) 1.0069(2) 0.52732(12)
C6 C 0.3561(3) 1.0118(3) 0.49533(15)
H5 H 0.3160 0.9362 0.4925
H6 H 0.3614 1.0441 0.4484
H7 H 0.2935 1.0581 0.5248
C7 C 0.5420(2) 0.9293(2) 0.58019(11)
H8 H 0.4698 0.8774 0.5940
C8 C 0.6788(2) 0.92612(18) 0.61338(10)
C9 C 0.7089(3) 0.83649(18) 0.66925(11)
H9 H 0.6157 0.7971 0.6792
C10 C 0.8211(3) 0.7479(2) 0.64618(14)
H10 H 0.9142 0.7843 0.6368
H11 H 0.7868 0.7108 0.6037
H12 H 0.8333 0.6926 0.6834
C11 C 0.6566(2) 0.97554(17) 0.77096(11)
H13 H 0.6503 1.0414 0.7390
C12 C 0.7206(2) 1.01646(19) 0.84199(12)
H14 H 0.7225 0.9516 0.8749
C13 C 0.8779(3) 1.0610(3) 0.83406(15)
H15 H 0.8811 1.1166 0.7966
H16 H 0.9429 0.9989 0.8226
H17 H 0.9089 1.0954 0.8780
C14 C 0.6213(4) 1.1080(3) 0.87370(17)
H18 H 0.6610 1.1324 0.9186
H19 H 0.5238 1.0776 0.8807
H20 H 0.6164 1.1718 0.8417
C15 C 0.5039(2) 0.92488(19) 0.77748(11)
C16 C 0.4803(3) 0.8275(2) 0.81781(12)
H21 H 0.5594 0.7917 0.8402
C17 C 0.3381(3) 0.7837(2) 0.82465(13)
H22 H 0.3224 0.7184 0.8517
C18 C 0.2212(3) 0.8359(3) 0.79186(16)
H23 H 0.1263 0.8061 0.7965
C19 C 0.2444(3) 0.9327(3) 0.75190(16)
H24 H 0.1650 0.9684 0.7297
C20 C 0.3847(2) 0.9767(2) 0.74479(13)
H25 H 0.3995 1.0421 0.7177
N1 N 0.76150(18) 0.89025(15) 0.73773(9)
H26 H 0.8482 0.9254 0.7293
H27 H 0.7787 0.8345 0.7696
O1 O 0.91879(17) 1.00074(15) 0.62997(8)
H28 H 0.9657 1.0593 0.6223
Cl1 Cl 0.85722(7) 0.70061(5) 0.84406(3)
loop_
_geom_bond_atom_site_label_1
_geom_bond_atom_site_label_2
_geom_bond_site_symmetry_1
_geom_bond_site_symmetry_2
C1 C2 1_555 1_555
C2 C3 1_555 1_555
C3 H1 1_555 1_555
H2 C3 1_555 1_555
H3 C3 1_555 1_555
C4 C2 1_555 1_555
H4 C4 1_555 1_555
C5 C4 1_555 1_555
C6 C5 1_555 1_555
H5 C6 1_555 1_555
H6 C6 1_555 1_555
H7 C6 1_555 1_555
C7 C5 1_555 1_555
H8 C7 1_555 1_555
C8 C1 1_555 1_555
C9 C8 1_555 1_555
H9 C9 1_555 1_555
C10 C9 1_555 1_555
H10 C10 1_555 1_555
H11 C10 1_555 1_555
H12 C10 1_555 1_555
C11 H13 1_555 1_555
C12 C11 1_555 1_555
H14 C12 1_555 1_555
C13 C12 1_555 1_555
H15 C13 1_555 1_555
H16 C13 1_555 1_555
H17 C13 1_555 1_555
C14 C12 1_555 1_555
H18 C14 1_555 1_555
H19 C14 1_555 1_555
H20 C14 1_555 1_555
C15 C11 1_555 1_555
C16 C15 1_555 1_555
H21 C16 1_555 1_555
C17 C16 1_555 1_555
H22 C17 1_555 1_555
C18 C17 1_555 1_555
H23 C18 1_555 1_555
C19 C18 1_555 1_555
H24 C19 1_555 1_555
C20 C15 1_555 1_555
H25 C20 1_555 1_555
N1 C9 1_555 1_555
H26 N1 1_555 1_555
H27 N1 1_555 1_555
O1 C1 1_555 1_555
H28 O1 1_555 1_555
C7 C8 1_555 1_555
C11 N1 1_555 1_555
C19 C20 1_555 1_555

#END
