
#######################################################################
#
#                 Cambridge Crystallographic Data Centre
#                                CCDC 
#
#######################################################################
#
# If this CIF has been generated from an entry in the Cambridge 
# Structural Database, then it will include bibliographic, chemical, 
# crystal, experimental, refinement or atomic coordinate data resulting 
# from the CCDC's data processing and validation procedures.
#
#######################################################################

data_MEHDUZ
_chemical_formula_moiety         'C17 H14 Cl1 N1 O5'
_chemical_name_systematic        
'Ethyl 5-chloro-9-ethoxy-2-oxo-2H-pyrano(2,3-g)quinoline-8-carboxylate'
_symmetry_cell_setting           orthorhombic
_symmetry_space_group_name_H-M   'P n a 21'
_symmetry_Int_Tables_number      33
_space_group_name_Hall           'P 2c -2n'
loop_
_symmetry_equiv_pos_site_id
_symmetry_equiv_pos_as_xyz
1 x,y,z
2 -x,-y,1/2+z
3 1/2+x,1/2-y,z
4 1/2-x,1/2+y,1/2+z
_cell_length_a                   7.1480(9)
_cell_length_b                   19.653(3)
_cell_length_c                   11.1150(14)
_cell_angle_alpha                90
_cell_angle_beta                 90
_cell_angle_gamma                90
_cell_volume                     1561.43
_exptl_crystal_colour            colorless
_exptl_crystal_description       needle
_chemical_melting_point          '433-434 K'
_cell_formula_units_Z            4
_exptl_crystal_recrystallization_method 'ethyl acetate'
loop_
_atom_site_label
_atom_site_type_symbol
_atom_site_fract_x
_atom_site_fract_y
_atom_site_fract_z
C1 C 0.5477(4) 0.26739(15) 0.7928(2)
C2 C 0.5707(5) 0.32697(15) 0.8673(2)
O1 O 0.6140(3) 0.31280(9) 0.98103(16)
C3 C 0.7298(5) 0.35674(14) 1.0542(3)
H1 H 0.6546 0.3921 1.0911
H2 H 0.8259 0.3780 1.0054
C4 C 0.8169(5) 0.31246(17) 1.1489(3)
H3 H 0.7203 0.2894 1.1929
H4 H 0.8887 0.3401 1.2031
H5 H 0.8972 0.2796 1.1114
C5 C 0.5482(4) 0.38991(15) 0.8139(3)
C6 C 0.5414(5) 0.45618(17) 0.8800(3)
O2 O 0.6132(4) 0.50542(10) 0.81272(17)
O3 O 0.4740(3) 0.46481(10) 0.9783(2)
C7 C 0.5921(6) 0.57510(16) 0.8570(3)
H6 H 0.6493 0.5799 0.9357
H7 H 0.4608 0.5871 0.8632
C8 C 0.6887(5) 0.61997(15) 0.7671(3)
H8 H 0.8192 0.6086 0.7642
H9 H 0.6745 0.6667 0.7906
H10 H 0.6340 0.6133 0.6891
C9 C 0.5045(4) 0.39197(14) 0.6895(3)
H11 H 0.4947 0.4348 0.6544
N1 N 0.4765(4) 0.33948(13) 0.6193(2)
C10 C 0.4954(4) 0.27698(14) 0.6713(2)
C11 C 0.4651(4) 0.21757(16) 0.6005(2)
Cl1 Cl 0.39837(12) 0.22796(4) 0.45262(8)
C12 C 0.4881(4) 0.15307(15) 0.6457(3)
C13 C 0.4591(4) 0.09056(16) 0.5782(3)
H12 H 0.4179 0.0926 0.4989
C14 C 0.4911(5) 0.03104(17) 0.6289(3)
H13 H 0.4684 -0.0082 0.5843
C15 C 0.5598(5) 0.02387(17) 0.7506(3)
O4 O 0.6028(4) -0.02798(11) 0.8000(2)
O5 O 0.5750(3) 0.08350(10) 0.81648(17)
C16 C 0.5440(4) 0.14710(14) 0.7658(3)
C17 C 0.5745(4) 0.20186(14) 0.8390(2)
H14 H 0.6123 0.1957 0.9183
loop_
_geom_bond_atom_site_label_1
_geom_bond_atom_site_label_2
_geom_bond_site_symmetry_1
_geom_bond_site_symmetry_2
C1 C2 1_555 1_555
C2 O1 1_555 1_555
O1 C3 1_555 1_555
C3 H1 1_555 1_555
H2 C3 1_555 1_555
C4 C3 1_555 1_555
H3 C4 1_555 1_555
H4 C4 1_555 1_555
H5 C4 1_555 1_555
C5 C2 1_555 1_555
C6 C5 1_555 1_555
O2 C6 1_555 1_555
O3 C6 1_555 1_555
C7 O2 1_555 1_555
H6 C7 1_555 1_555
H7 C7 1_555 1_555
C8 C7 1_555 1_555
H8 C8 1_555 1_555
H9 C8 1_555 1_555
H10 C8 1_555 1_555
C9 C5 1_555 1_555
H11 C9 1_555 1_555
N1 C9 1_555 1_555
C10 C1 1_555 1_555
C11 C10 1_555 1_555
Cl1 C11 1_555 1_555
C12 C11 1_555 1_555
C13 C12 1_555 1_555
H12 C13 1_555 1_555
C14 C13 1_555 1_555
H13 C14 1_555 1_555
C15 C14 1_555 1_555
O4 C15 1_555 1_555
O5 C15 1_555 1_555
C16 C12 1_555 1_555
C17 C1 1_555 1_555
H14 C17 1_555 1_555
N1 C10 1_555 1_555
O5 C16 1_555 1_555
C16 C17 1_555 1_555

#END
