
#######################################################################
#
#                 Cambridge Crystallographic Data Centre
#                                CCDC 
#
#######################################################################
#
# If this CIF has been generated from an entry in the Cambridge 
# Structural Database, then it will include bibliographic, chemical, 
# crystal, experimental, refinement or atomic coordinate data resulting 
# from the CCDC's data processing and validation procedures.
#
#######################################################################

data_MEHDOT
_chemical_formula_moiety         'C17 H14 Br1 N1 O5'
_chemical_name_systematic        
'Ethyl 5-bromo-9-ethoxy-2-oxo-2H-pyrano(2,3-g)quinoline-8-carboxylate'
_symmetry_cell_setting           orthorhombic
_symmetry_space_group_name_H-M   'P n a 21'
_symmetry_Int_Tables_number      33
_space_group_name_Hall           'P 2c -2n'
loop_
_symmetry_equiv_pos_site_id
_symmetry_equiv_pos_as_xyz
1 x,y,z
2 -x,-y,1/2+z
3 1/2+x,1/2-y,z
4 1/2-x,1/2+y,1/2+z
_cell_length_a                   7.2542(8)
_cell_length_b                   19.542(2)
_cell_length_c                   11.2855(11)
_cell_angle_alpha                90
_cell_angle_beta                 90
_cell_angle_gamma                90
_cell_volume                     1599.85
_exptl_crystal_colour            'pale yellow'
_exptl_crystal_description       prism
_chemical_melting_point          '409-410 K'
_cell_formula_units_Z            4
_exptl_crystal_recrystallization_method 'ethyl acetate'
loop_
_atom_site_label
_atom_site_type_symbol
_atom_site_fract_x
_atom_site_fract_y
_atom_site_fract_z
C1 C 0.5465(4) 0.26565(12) 0.79440(19)
C2 C 0.5712(4) 0.32561(14) 0.8664(2)
O1 O 0.6179(3) 0.31203(10) 0.97852(13)
C3 C 0.7329(4) 0.35662(13) 1.0487(2)
H1 H 0.6590 0.3919 1.0861
H2 H 0.8252 0.3784 0.9993
C4 C 0.8232(5) 0.31265(16) 1.1406(3)
H3 H 0.7308 0.2938 1.1920
H4 H 0.9076 0.3398 1.1862
H5 H 0.8890 0.2762 1.1024
C5 C 0.5449(4) 0.38935(12) 0.8149(2)
C6 C 0.5426(4) 0.45529(14) 0.8793(2)
O2 O 0.6127(3) 0.50489(9) 0.81235(17)
O3 O 0.4762(3) 0.46482(10) 0.97594(16)
C7 C 0.5945(5) 0.57525(15) 0.8543(3)
H6 H 0.6574 0.5808 0.9296
H7 H 0.4656 0.5869 0.8650
C8 C 0.6788(6) 0.61979(16) 0.7632(3)
H8 H 0.8093 0.6118 0.7606
H9 H 0.6559 0.6669 0.7826
H10 H 0.6260 0.6096 0.6872
C9 C 0.4998(4) 0.38994(13) 0.6918(2)
H11 H 0.4916 0.4327 0.6559
N1 N 0.4691(3) 0.33752(10) 0.62482(17)
C10 C 0.4915(3) 0.27423(11) 0.67461(19)
C11 C 0.4597(3) 0.21492(13) 0.6070(2)
Br1 Br 0.38160(3) 0.224825(12) 0.44876(3)
C12 C 0.4855(3) 0.14966(13) 0.6517(2)
C13 C 0.4568(4) 0.08662(15) 0.5862(2)
H12 H 0.4138 0.0882 0.5086
C14 C 0.4920(4) 0.02688(15) 0.6370(3)
H13 H 0.4719 -0.0128 0.5934
C15 C 0.5597(4) 0.02044(16) 0.7560(3)
O4 O 0.6006(4) -0.03111(11) 0.8062(2)
O5 O 0.5771(3) 0.08092(9) 0.81977(15)
C16 C 0.5460(3) 0.14392(12) 0.7696(2)
C17 C 0.5759(3) 0.19997(13) 0.8405(2)
H14 H 0.6153 0.1944 0.9183
loop_
_geom_bond_atom_site_label_1
_geom_bond_atom_site_label_2
_geom_bond_site_symmetry_1
_geom_bond_site_symmetry_2
C1 C2 1_555 1_555
C2 O1 1_555 1_555
O1 C3 1_555 1_555
C3 H1 1_555 1_555
H2 C3 1_555 1_555
C4 C3 1_555 1_555
H3 C4 1_555 1_555
H4 C4 1_555 1_555
H5 C4 1_555 1_555
C5 C2 1_555 1_555
C6 C5 1_555 1_555
O2 C6 1_555 1_555
O3 C6 1_555 1_555
C7 O2 1_555 1_555
H6 C7 1_555 1_555
H7 C7 1_555 1_555
C8 C7 1_555 1_555
H8 C8 1_555 1_555
H9 C8 1_555 1_555
H10 C8 1_555 1_555
C9 C5 1_555 1_555
H11 C9 1_555 1_555
N1 C9 1_555 1_555
C10 C1 1_555 1_555
C11 C10 1_555 1_555
Br1 C11 1_555 1_555
C12 C11 1_555 1_555
C13 C12 1_555 1_555
H12 C13 1_555 1_555
C14 C13 1_555 1_555
H13 C14 1_555 1_555
C15 C14 1_555 1_555
O4 C15 1_555 1_555
O5 C15 1_555 1_555
C16 C12 1_555 1_555
C17 C1 1_555 1_555
H14 C17 1_555 1_555
N1 C10 1_555 1_555
O5 C16 1_555 1_555
C16 C17 1_555 1_555

#END
