
#######################################################################
#
#                 Cambridge Crystallographic Data Centre
#                                CCDC 
#
#######################################################################
#
# If this CIF has been generated from an entry in the Cambridge 
# Structural Database, then it will include bibliographic, chemical, 
# crystal, experimental, refinement or atomic coordinate data resulting 
# from the CCDC's data processing and validation procedures.
#
#######################################################################

data_MEHJUG
_chemical_formula_moiety         'C21 H30 N2 O1'
_chemical_name_systematic        
2-(Methoxymethyl)-N-(2-phenylbicyclo[3.3.1]non-9-ylidene)pyrrolidin-1-amine
_symmetry_cell_setting           orthorhombic
_symmetry_space_group_name_H-M   'P 21 21 21'
_symmetry_Int_Tables_number      19
_space_group_name_Hall           'P 2ac 2ab'
loop_
_symmetry_equiv_pos_site_id
_symmetry_equiv_pos_as_xyz
1 x,y,z
2 1/2-x,-y,1/2+z
3 -x,1/2+y,1/2-z
4 1/2+x,1/2-y,-z
_cell_length_a                   7.4936(7)
_cell_length_b                   12.4907(11)
_cell_length_c                   19.9825(18)
_cell_angle_alpha                90
_cell_angle_beta                 90
_cell_angle_gamma                90
_cell_volume                     1870.37
_exptl_crystal_colour            colorless
_exptl_crystal_description       block
_cell_formula_units_Z            4
_exptl_crystal_recrystallization_method methanol
loop_
_atom_site_label
_atom_site_type_symbol
_atom_site_fract_x
_atom_site_fract_y
_atom_site_fract_z
C1 C 0.56771(19) 0.04833(11) 0.85566(7)
C2 C 0.47403(19) -0.05320(11) 0.87659(7)
H1 H 0.4643 -0.0531 0.9255
C3 C 0.5904(2) -0.14844(12) 0.85608(9)
H2 H 0.6963 -0.1490 0.8840
H3 H 0.5250 -0.2139 0.8650
C4 C 0.6483(2) -0.14877(13) 0.78291(10)
H4 H 0.7447 -0.1998 0.7772
H5 H 0.5491 -0.1722 0.7554
C5 C 0.7103(2) -0.03902(13) 0.75888(9)
H6 H 0.7154 -0.0397 0.7104
H7 H 0.8303 -0.0266 0.7753
C6 C 0.5916(2) 0.05417(11) 0.78109(7)
H8 H 0.6522 0.1215 0.7701
C7 C 0.4044(2) 0.05633(13) 0.75004(9)
H9 H 0.3481 0.1238 0.7615
H10 H 0.4165 0.0541 0.7017
C8 C 0.2828(2) -0.03360(13) 0.77142(8)
H11 H 0.3199 -0.0990 0.7492
H12 H 0.1622 -0.0175 0.7569
C9 C 0.28220(19) -0.05229(11) 0.84699(7)
H13 H 0.2221 0.0098 0.8667
C10 C 0.17745(18) -0.14963(11) 0.86947(8)
C11 C 0.1183(2) -0.15502(13) 0.93522(9)
H14 H 0.1419 -0.0985 0.9642
C12 C 0.0246(3) -0.24329(14) 0.95845(10)
H15 H -0.0137 -0.2453 1.0027
C13 C -0.0119(3) -0.32703(13) 0.91697(11)
H16 H -0.0750 -0.3860 0.9328
C14 C 0.0446(3) -0.32384(13) 0.85223(11)
H17 H 0.0203 -0.3811 0.8239
C15 C 0.1387(3) -0.23574(12) 0.82788(9)
H18 H 0.1757 -0.2346 0.7835
C16 C 0.9056(2) 0.18036(14) 0.87114(10)
H19 H 0.9320 0.1454 0.8289
H20 H 0.9432 0.1342 0.9075
C17 C 0.9956(3) 0.28706(16) 0.87529(12)
H21 H 1.0182 0.3152 0.8308
H22 H 1.1083 0.2811 0.8989
C18 C 0.8694(3) 0.35912(16) 0.91291(12)
H23 H 0.8398 0.4217 0.8864
H24 H 0.9226 0.3826 0.9547
C19 C 0.7032(2) 0.29184(12) 0.92623(8)
H25 H 0.7091 0.2614 0.9714
C20 C 0.5295(2) 0.34938(13) 0.91718(8)
H26 H 0.5221 0.3775 0.8720
H27 H 0.4314 0.2997 0.9236
C21 C 0.3562(3) 0.49231(17) 0.95496(12)
H28 H 0.2564 0.4441 0.9554
H29 H 0.3597 0.5295 0.9129
H30 H 0.3440 0.5432 0.9907
N1 N 0.61592(17) 0.11423(9) 0.90055(6)
N2 N 0.71433(17) 0.20572(9) 0.87639(6)
O1 O 0.51534(18) 0.43388(11) 0.96351(7)
loop_
_geom_bond_atom_site_label_1
_geom_bond_atom_site_label_2
_geom_bond_site_symmetry_1
_geom_bond_site_symmetry_2
C1 C2 1_555 1_555
C2 H1 1_555 1_555
C3 C2 1_555 1_555
H2 C3 1_555 1_555
H3 C3 1_555 1_555
C4 C3 1_555 1_555
H4 C4 1_555 1_555
H5 C4 1_555 1_555
C5 C4 1_555 1_555
H6 C5 1_555 1_555
H7 C5 1_555 1_555
C6 C1 1_555 1_555
H8 C6 1_555 1_555
C7 C6 1_555 1_555
H9 C7 1_555 1_555
H10 C7 1_555 1_555
C8 C7 1_555 1_555
H11 C8 1_555 1_555
H12 C8 1_555 1_555
C9 C2 1_555 1_555
H13 C9 1_555 1_555
C10 C9 1_555 1_555
C11 C10 1_555 1_555
H14 C11 1_555 1_555
C12 C11 1_555 1_555
H15 C12 1_555 1_555
C13 C12 1_555 1_555
H16 C13 1_555 1_555
C14 C13 1_555 1_555
H17 C14 1_555 1_555
C15 C10 1_555 1_555
H18 C15 1_555 1_555
C16 H19 1_555 1_555
H20 C16 1_555 1_555
C17 C16 1_555 1_555
H21 C17 1_555 1_555
H22 C17 1_555 1_555
C18 C17 1_555 1_555
H23 C18 1_555 1_555
H24 C18 1_555 1_555
C19 C18 1_555 1_555
H25 C19 1_555 1_555
C20 C19 1_555 1_555
H26 C20 1_555 1_555
H27 C20 1_555 1_555
C21 H28 1_555 1_555
H29 C21 1_555 1_555
H30 C21 1_555 1_555
N1 C1 1_555 1_555
N2 C16 1_555 1_555
O1 C20 1_555 1_555
C5 C6 1_555 1_555
C8 C9 1_555 1_555
C14 C15 1_555 1_555
C19 N2 1_555 1_555
C21 O1 1_555 1_555
N1 N2 1_555 1_555

#END
