
#######################################################################
#
#                 Cambridge Crystallographic Data Centre
#                                CCDC 
#
#######################################################################
#
# If this CIF has been generated from an entry in the Cambridge 
# Structural Database, then it will include bibliographic, chemical, 
# crystal, experimental, refinement or atomic coordinate data resulting 
# from the CCDC's data processing and validation procedures.
#
#######################################################################

data_MEHJIV
_chemical_formula_moiety         'C16 H11 Br1 N2 O1'
_chemical_name_systematic        N-(5-bromoquinolin-8-yl)benzamide
_symmetry_cell_setting           monoclinic
_symmetry_space_group_name_H-M   'C 2/c'
_symmetry_Int_Tables_number      15
_space_group_name_Hall           '-C 2yn'
loop_
_symmetry_equiv_pos_site_id
_symmetry_equiv_pos_as_xyz
1 x,y,z
2 -x,y,1/2-z
3 1/2+x,1/2+y,z
4 1/2-x,1/2+y,1/2-z
5 -x,-y,-z
6 x,-y,1/2+z
7 1/2-x,1/2-y,-z
8 1/2+x,1/2-y,1/2+z
_cell_length_a                   18.555(10)
_cell_length_b                   9.318(5)
_cell_length_c                   16.553(9)
_cell_angle_alpha                90
_cell_angle_beta                 107.638(8)
_cell_angle_gamma                90
_cell_volume                     2727.4
_exptl_crystal_colour            white
_exptl_crystal_description       block
_cell_formula_units_Z            8
loop_
_atom_site_label
_atom_site_type_symbol
_atom_site_fract_x
_atom_site_fract_y
_atom_site_fract_z
Br1 Br 1.09950(2) 0.44866(4) 1.20767(3)
C1 C 0.88638(18) 0.9373(3) 0.9038(2)
N1 N 0.95370(14) 0.8670(3) 0.92369(17)
H1 H 0.9807 0.8826 0.8906
C2 C 1.05413(19) 0.5778(3) 1.1183(2)
O1 O 0.84537(15) 0.9356(3) 0.94929(18)
C3 C 1.05419(16) 0.7068(3) 0.9907(2)
N2 N 1.08340(14) 0.7440(3) 0.92733(17)
C4 C 1.08913(17) 0.6065(3) 1.0552(2)
C5 C 1.15780(19) 0.5440(3) 1.0510(3)
H2 H 1.1833 0.4778 1.0917
C6 C 0.98460(16) 0.7730(3) 0.9906(2)
C7 C 0.98828(19) 0.6432(3) 1.1171(2)
H3 H 0.9663 0.6229 1.1594
C8 C 0.86473(17) 1.0160(3) 0.8220(2)
C9 C 0.95324(19) 0.7405(3) 1.0528(2)
H4 H 0.9080 0.7836 1.0526
C10 C 0.81621(17) 1.1328(3) 0.8134(2)
H5 H 0.7986 1.1597 0.8581
C11 C 0.8634(2) 1.0515(4) 0.6769(3)
H6 H 0.8784 1.0228 0.6306
C12 C 1.14762(18) 0.6818(4) 0.9272(2)
H7 H 1.1683 0.7066 0.8844
C13 C 0.8875(2) 0.9761(3) 0.7520(2)
H8 H 0.9194 0.8976 0.7562
C14 C 1.1860(2) 0.5814(4) 0.9873(3)
H9 H 1.2306 0.5404 0.9839
C15 C 0.8171(2) 1.1693(4) 0.6705(3)
H10 H 0.8016 1.2214 0.6203
C16 C 0.79413(19) 1.2091(4) 0.7380(3)
H11 H 0.7631 1.2889 0.7334
loop_
_geom_bond_atom_site_label_1
_geom_bond_atom_site_label_2
_geom_bond_site_symmetry_1
_geom_bond_site_symmetry_2
Br1 C2 1_555 1_555
C1 N1 1_555 1_555
N1 H1 1_555 1_555
C2 C4 1_555 1_555
O1 C1 1_555 1_555
C3 N2 1_555 1_555
N2 C12 1_555 1_555
C4 C3 1_555 1_555
C5 C4 1_555 1_555
H2 C5 1_555 1_555
C6 N1 1_555 1_555
C7 C2 1_555 1_555
H3 C7 1_555 1_555
C8 C1 1_555 1_555
C9 C6 1_555 1_555
H4 C9 1_555 1_555
C10 C8 1_555 1_555
H5 C10 1_555 1_555
C11 H6 1_555 1_555
C12 H7 1_555 1_555
C13 C8 1_555 1_555
H8 C13 1_555 1_555
C14 C5 1_555 1_555
H9 C14 1_555 1_555
C15 C11 1_555 1_555
H10 C15 1_555 1_555
C16 C10 1_555 1_555
H11 C16 1_555 1_555
C3 C6 1_555 1_555
C7 C9 1_555 1_555
C11 C13 1_555 1_555
C12 C14 1_555 1_555
C15 C16 1_555 1_555

#END
