
#######################################################################
#
#                 Cambridge Crystallographic Data Centre
#                                CCDC 
#
#######################################################################
#
# If this CIF has been generated from an entry in the Cambridge 
# Structural Database, then it will include bibliographic, chemical, 
# crystal, experimental, refinement or atomic coordinate data resulting 
# from the CCDC's data processing and validation procedures.
#
#######################################################################

data_MEHMIW
_chemical_formula_moiety         'C24 H16 O4'
_chemical_name_systematic        'Diphenyl naphthalene-1,4-dicarboxylate'
_symmetry_cell_setting           monoclinic
_symmetry_space_group_name_H-M   'P 21/c'
_symmetry_Int_Tables_number      14
_space_group_name_Hall           '-P 2ybc'
loop_
_symmetry_equiv_pos_site_id
_symmetry_equiv_pos_as_xyz
1 x,y,z
2 -x,1/2+y,1/2-z
3 -x,-y,-z
4 x,1/2-y,1/2+z
_cell_length_a                   13.984(7)
_cell_length_b                   5.7797(17)
_cell_length_c                   22.283(6)
_cell_angle_alpha                90
_cell_angle_beta                 92.15(3)
_cell_angle_gamma                90
_cell_volume                     1799.72
_exptl_crystal_colour            brown
_exptl_crystal_description       block
_cell_formula_units_Z            4
_exptl_crystal_recrystallization_method 'dimethyl sulfoxide'
loop_
_atom_site_label
_atom_site_type_symbol
_atom_site_fract_x
_atom_site_fract_y
_atom_site_fract_z
O1 O 0.44327(17) 0.2491(5) 0.96387(10)
O2 O 0.35410(14) 0.4573(4) 0.90104(8)
O3 O 0.68080(15) 0.4848(4) 0.67890(9)
O4 O 0.79804(14) 0.4264(4) 0.74845(7)
C1 C 0.6378(2) 0.3882(5) 0.77799(11)
C2 C 0.5625(2) 0.5360(5) 0.78057(13)
C3 C 0.4957(2) 0.5168(6) 0.82579(13)
C4 C 0.50416(18) 0.3427(5) 0.86774(11)
C5 C 0.5902(2) -0.0093(5) 0.90596(12)
C6 C 0.6627(2) -0.1636(6) 0.90165(13)
C7 C 0.7294(2) -0.1427(6) 0.85685(13)
C8 C 0.7224(2) 0.0342(6) 0.81691(13)
C9 C 0.64910(19) 0.2020(5) 0.81986(10)
C10 C 0.57998(18) 0.1798(5) 0.86555(11)
C11 C 0.4338(2) 0.3373(6) 0.91632(12)
C12 C 0.2832(2) 0.4732(5) 0.94402(11)
C13 C 0.2137(2) 0.3077(6) 0.94522(13)
C14 C 0.1416(2) 0.3315(7) 0.98555(14)
C15 C 0.1408(2) 0.5167(7) 1.02360(14)
C16 C 0.2118(2) 0.6810(6) 1.02148(14)
C17 C 0.2841(2) 0.6609(6) 0.98136(14)
C18 C 0.7046(2) 0.4346(5) 0.72894(13)
C19 C 0.8677(2) 0.4540(5) 0.70524(12)
C20 C 0.9286(2) 0.6362(6) 0.71079(14)
C21 C 1.0022(2) 0.6557(7) 0.67104(16)
C22 C 1.0127(3) 0.4951(8) 0.62721(15)
C23 C 0.9513(3) 0.3119(7) 0.62227(16)
C24 C 0.8779(2) 0.2890(6) 0.66174(14)
H1 H 0.5553(18) 0.658(5) 0.7513(11)
H2 H 0.4431(18) 0.620(5) 0.8268(11)
H3 H 0.5425(16) -0.028(4) 0.9347(10)
H4 H 0.6659(19) -0.290(5) 0.9318(12)
H5 H 0.7825(19) -0.256(5) 0.8555(11)
H6 H 0.7654(17) 0.059(4) 0.7863(10)
H7 H 0.2153(17) 0.178(5) 0.9178(11)
H8 H 0.0899(19) 0.211(5) 0.9874(11)
H9 H 0.094(2) 0.526(5) 1.0533(11)
H10 H 0.2121(18) 0.806(5) 1.0494(11)
H11 H 0.3377(18) 0.771(5) 0.9786(11)
H12 H 0.9200(16) 0.745(4) 0.7405(10)
H13 H 1.044(2) 0.783(5) 0.6757(12)
H14 H 1.063(2) 0.505(5) 0.5999(12)
H15 H 0.957(2) 0.201(6) 0.5888(14)
H16 H 0.8308(19) 0.161(5) 0.6581(12)
loop_
_geom_bond_atom_site_label_1
_geom_bond_atom_site_label_2
_geom_bond_site_symmetry_1
_geom_bond_site_symmetry_2
O1 C11 1_555 1_555
O2 C11 1_555 1_555
O3 C18 1_555 1_555
O4 C18 1_555 1_555
C1 C2 1_555 1_555
C2 C3 1_555 1_555
C3 C4 1_555 1_555
C4 C10 1_555 1_555
C5 C6 1_555 1_555
C6 C7 1_555 1_555
C7 C8 1_555 1_555
C8 C9 1_555 1_555
C9 C1 1_555 1_555
C10 C5 1_555 1_555
C11 C4 1_555 1_555
C12 O2 1_555 1_555
C13 C12 1_555 1_555
C14 C13 1_555 1_555
C15 C14 1_555 1_555
C16 C15 1_555 1_555
C17 C12 1_555 1_555
C18 C1 1_555 1_555
C19 O4 1_555 1_555
C20 C19 1_555 1_555
C21 C20 1_555 1_555
C22 C21 1_555 1_555
C23 C22 1_555 1_555
C24 C19 1_555 1_555
H1 C2 1_555 1_555
H2 C3 1_555 1_555
H3 C5 1_555 1_555
H4 C6 1_555 1_555
H5 C7 1_555 1_555
H6 C8 1_555 1_555
H7 C13 1_555 1_555
H8 C14 1_555 1_555
H9 C15 1_555 1_555
H10 C16 1_555 1_555
H11 C17 1_555 1_555
H12 C20 1_555 1_555
H13 C21 1_555 1_555
H14 C22 1_555 1_555
H15 C23 1_555 1_555
H16 C24 1_555 1_555
C9 C10 1_555 1_555
C16 C17 1_555 1_555
C23 C24 1_555 1_555

#END
