
#######################################################################
#
#                 Cambridge Crystallographic Data Centre
#                                CCDC 
#
#######################################################################
#
# If this CIF has been generated from an entry in the Cambridge 
# Structural Database, then it will include bibliographic, chemical, 
# crystal, experimental, refinement or atomic coordinate data resulting 
# from the CCDC's data processing and validation procedures.
#
#######################################################################

data_MEHMOC
_chemical_formula_moiety         'C33 H26 N2 O2'
_chemical_name_systematic        
3-Benzoyl-4-hydroxy-2,4,6-triphenylcyclohexane-1,1-dicarbonitrile
_symmetry_cell_setting           triclinic
_symmetry_space_group_name_H-M   'P -1'
_symmetry_Int_Tables_number      2
_space_group_name_Hall           '-P 1'
loop_
_symmetry_equiv_pos_site_id
_symmetry_equiv_pos_as_xyz
1 x,y,z
2 -x,-y,-z
_cell_length_a                   10.996(2)
_cell_length_b                   12.017(2)
_cell_length_c                   12.109(2)
_cell_angle_alpha                89.950(4)
_cell_angle_beta                 67.150(3)
_cell_angle_gamma                67.821(3)
_cell_volume                     1345.35
_exptl_crystal_colour            colorless
_exptl_crystal_description       block
_cell_formula_units_Z            2
loop_
_atom_site_label
_atom_site_type_symbol
_atom_site_fract_x
_atom_site_fract_y
_atom_site_fract_z
N1 N 0.3708(3) 0.6955(2) 0.8134(2)
N2 N 0.4014(2) 0.9922(2) 0.6292(2)
O1 O 0.46234(17) 0.58780(14) 0.35917(15)
H1 H 0.5424 0.5309 0.3300
O2 O 0.75069(18) 0.49051(15) 0.30132(17)
C1 C 0.4779(2) 0.6999(2) 0.3455(2)
C2 C 0.6003(2) 0.69865(19) 0.38115(19)
H2 H 0.6091 0.7767 0.3724
C3 C 0.5683(2) 0.67714(19) 0.51337(19)
H3 H 0.5651 0.5967 0.5166
C4 C 0.4148(2) 0.7715(2) 0.60476(19)
C5 C 0.2932(2) 0.7741(2) 0.5661(2)
H4 H 0.2943 0.6922 0.5661
C6 C 0.3338(2) 0.7971(2) 0.4352(2)
H5 H 0.2584 0.7999 0.4111
H6 H 0.3387 0.8760 0.4315
C7 C 0.5053(2) 0.7257(2) 0.2163(2)
C8 C 0.4918(3) 0.6544(3) 0.1358(2)
H7 H 0.4694 0.5884 0.1596
C9 C 0.5111(4) 0.6798(3) 0.0212(3)
H8 H 0.4991 0.6321 -0.0308
C10 C 0.5474(3) 0.7736(4) -0.0171(3)
H9 H 0.5634 0.7883 -0.0958
C11 C 0.5605(3) 0.8467(3) 0.0611(3)
H10 H 0.5844 0.9117 0.0358
C12 C 0.5379(3) 0.8230(3) 0.1778(2)
H11 H 0.5450 0.8736 0.2310
C13 C 0.7439(2) 0.5950(2) 0.2981(2)
C14 C 0.8697(2) 0.6153(2) 0.2153(2)
C15 C 0.9947(3) 0.5140(3) 0.1450(3)
H12 H 0.9960 0.4365 0.1519
C16 C 1.1146(4) 0.5257(4) 0.0667(3)
H13 H 1.1978 0.4564 0.0220
C17 C 1.1145(4) 0.6382(5) 0.0528(3)
H14 H 1.1971 0.6456 -0.0019
C18 C 0.9912(4) 0.7417(4) 0.1206(3)
H15 H 0.9905 0.8187 0.1110
C19 C 0.8687(3) 0.7298(3) 0.2027(3)
H16 H 0.7861 0.7988 0.2491
C20 C 0.6862(2) 0.6714(2) 0.5517(2)
C21 C 0.7414(3) 0.5743(2) 0.6051(2)
H17 H 0.7065 0.5137 0.6158
C22 C 0.8478(3) 0.5662(3) 0.6428(3)
H18 H 0.8844 0.5001 0.6780
C23 C 0.8990(3) 0.6552(3) 0.6285(3)
H19 H 0.9698 0.6501 0.6547
C24 C 0.8462(3) 0.7514(3) 0.5757(3)
H20 H 0.8811 0.8118 0.5660
C25 C 0.7407(3) 0.7596(2) 0.5365(2)
H21 H 0.7063 0.8250 0.4997
C26 C 0.3877(2) 0.7325(2) 0.7247(2)
C27 C 0.4087(2) 0.8956(2) 0.6187(2)
C28 C 0.1430(2) 0.8616(2) 0.6538(2)
C29 C 0.0641(3) 0.8215(3) 0.7521(3)
H22 H 0.1046 0.7417 0.7639
C30 C -0.0735(3) 0.8982(4) 0.8326(3)
H23 H -0.1249 0.8700 0.8985
C31 C -0.1354(3) 1.0161(4) 0.8162(4)
H24 H -0.2286 1.0676 0.8707
C32 C -0.0595(4) 1.0573(3) 0.7197(4)
H25 H -0.1011 1.1371 0.7083
C33 C 0.0790(3) 0.9807(3) 0.6386(3)
H26 H 0.1299 1.0096 0.5730
loop_
_geom_bond_atom_site_label_1
_geom_bond_atom_site_label_2
_geom_bond_site_symmetry_1
_geom_bond_site_symmetry_2
N1 C26 1_555 1_555
N2 C27 1_555 1_555
O1 H1 1_555 1_555
O2 C13 1_555 1_555
C1 O1 1_555 1_555
C2 C1 1_555 1_555
H2 C2 1_555 1_555
C3 C2 1_555 1_555
H3 C3 1_555 1_555
C4 C3 1_555 1_555
C5 C4 1_555 1_555
H4 C5 1_555 1_555
C6 C1 1_555 1_555
H5 C6 1_555 1_555
H6 C6 1_555 1_555
C7 C1 1_555 1_555
C8 C7 1_555 1_555
H7 C8 1_555 1_555
C9 C8 1_555 1_555
H8 C9 1_555 1_555
C10 C9 1_555 1_555
H9 C10 1_555 1_555
C11 C10 1_555 1_555
H10 C11 1_555 1_555
C12 C7 1_555 1_555
H11 C12 1_555 1_555
C13 C2 1_555 1_555
C14 C13 1_555 1_555
C15 C14 1_555 1_555
H12 C15 1_555 1_555
C16 C15 1_555 1_555
H13 C16 1_555 1_555
C17 C16 1_555 1_555
H14 C17 1_555 1_555
C18 C17 1_555 1_555
H15 C18 1_555 1_555
C19 C14 1_555 1_555
H16 C19 1_555 1_555
C20 C3 1_555 1_555
C21 C20 1_555 1_555
H17 C21 1_555 1_555
C22 C21 1_555 1_555
H18 C22 1_555 1_555
C23 C22 1_555 1_555
H19 C23 1_555 1_555
C24 C23 1_555 1_555
H20 C24 1_555 1_555
C25 C20 1_555 1_555
H21 C25 1_555 1_555
C26 C4 1_555 1_555
C27 C4 1_555 1_555
C28 C5 1_555 1_555
C29 C28 1_555 1_555
H22 C29 1_555 1_555
C30 C29 1_555 1_555
H23 C30 1_555 1_555
C31 C30 1_555 1_555
H24 C31 1_555 1_555
C32 C31 1_555 1_555
H25 C32 1_555 1_555
C33 C28 1_555 1_555
H26 C33 1_555 1_555
C5 C6 1_555 1_555
C11 C12 1_555 1_555
C18 C19 1_555 1_555
C24 C25 1_555 1_555
C32 C33 1_555 1_555

#END
