
#######################################################################
#
#                 Cambridge Crystallographic Data Centre
#                                CCDC 
#
#######################################################################
#
# If this CIF has been generated from an entry in the Cambridge 
# Structural Database, then it will include bibliographic, chemical, 
# crystal, experimental, refinement or atomic coordinate data resulting 
# from the CCDC's data processing and validation procedures.
#
#######################################################################

data_MEHQIB
_chemical_formula_moiety         'C27 H44 B2 Be1 N2'
_chemical_name_systematic        
(1,3-bis(2,6-Di-isopropylphenyl)-1,3-dihydro-2H-imidazol-2-ylidene)-bis(tetrahydridoborate-H,H')-beryllium
_symmetry_cell_setting           monoclinic
_symmetry_space_group_name_H-M   'P 21/n'
_symmetry_Int_Tables_number      14
_space_group_name_Hall           '-P 2yn'
loop_
_symmetry_equiv_pos_site_id
_symmetry_equiv_pos_as_xyz
1 x,y,z
2 1/2-x,1/2+y,1/2-z
3 -x,-y,-z
4 1/2+x,1/2-y,1/2+z
_cell_length_a                   10.4255(7)
_cell_length_b                   17.9488(11)
_cell_length_c                   15.9335(10)
_cell_angle_alpha                90
_cell_angle_beta                 98.579(1)
_cell_angle_gamma                90
_cell_volume                     2948.2
_exptl_crystal_colour            colorless
_exptl_crystal_description       plate
_cell_formula_units_Z            4
loop_
_atom_site_label
_atom_site_type_symbol
_atom_site_fract_x
_atom_site_fract_y
_atom_site_fract_z
Be1 Be 0.2642(2) 0.25555(12) 0.26324(13)
B1 B 0.0826(3) 0.22340(18) 0.24405(18)
H1 H 0.1152(15) 0.2775(12) 0.2471(13)
H2 H 0.168(2) 0.1894(11) 0.2576(13)
H3 H 0.037(3) 0.2139(14) 0.1821(12)
H4 H 0.037(2) 0.2169(15) 0.2984(14)
B2 B 0.3595(4) 0.2753(2) 0.16943(18)
H5 H 0.3521(17) 0.2185(12) 0.2066(12)
H6 H 0.3056(18) 0.3173(11) 0.2028(13)
H7 H 0.457(3) 0.2897(14) 0.1841(16)
H8 H 0.314(3) 0.2694(16) 0.1065(13)
N1 N 0.41137(12) 0.21410(7) 0.41862(8)
N2 N 0.37026(13) 0.33029(7) 0.41163(8)
C1 C 0.34812(14) 0.26638(8) 0.36720(9)
C2 C 0.47269(19) 0.24563(11) 0.49263(11)
H9 H 0.5228 0.2209 0.5372
C3 C 0.44680(19) 0.31807(11) 0.48833(11)
H10 H 0.4750 0.3537 0.5293
C4 C 0.31803(17) 0.40280(8) 0.38504(10)
C5 C 0.19122(18) 0.41854(10) 0.39628(11)
C6 C 0.1483(2) 0.49105(12) 0.37598(15)
H11 H 0.0642 0.5046 0.3825
C7 C 0.2280(3) 0.54257(12) 0.34664(16)
H12 H 0.1978 0.5907 0.3347
C8 C 0.3501(3) 0.52436(11) 0.33487(14)
H13 H 0.4017 0.5600 0.3139
C9 C 0.39969(19) 0.45370(9) 0.35345(11)
C10 C 0.5376(2) 0.43583(12) 0.34141(15)
H14 H 0.5506 0.3821 0.3495
C11 C 0.5653(4) 0.45550(18) 0.2530(2)
H15 H 0.5068 0.4287 0.2115
H16 H 0.6530 0.4422 0.2481
H17 H 0.5536 0.5081 0.2437
C12 C 0.6328(3) 0.4755(2) 0.4076(2)
H18 H 0.6153 0.4625 0.4632
H19 H 0.6238 0.5284 0.3997
H20 H 0.7195 0.4608 0.4018
C13 C 0.1043(2) 0.36252(12) 0.43043(15)
H21 H 0.1332 0.3130 0.4152
C14 C 0.1211(3) 0.36571(18) 0.52773(19)
H22 H 0.0649 0.3298 0.5481
H23 H 0.0993 0.4147 0.5454
H24 H 0.2095 0.3547 0.5506
C15 C -0.0379(2) 0.36981(17) 0.3911(3)
H25 H -0.0449 0.3674 0.3304
H26 H -0.0712 0.4167 0.4073
H27 H -0.0869 0.3300 0.4110
C16 C 0.40974(15) 0.13499(8) 0.40108(10)
C17 C 0.31221(18) 0.09250(10) 0.42823(13)
C18 C 0.3149(2) 0.01663(13) 0.41254(19)
H28 H 0.2514 -0.0139 0.4295
C19 C 0.4092(3) -0.01398(12) 0.37270(18)
H29 H 0.4088 -0.0651 0.3628
C20 C 0.5043(2) 0.02902(11) 0.34700(14)
H30 H 0.5672 0.0067 0.3197
C21 C 0.50848(16) 0.10573(9) 0.36095(11)
C22 C 0.61647(18) 0.15282(11) 0.33684(12)
H31 H 0.5870 0.2047 0.3349
C23 C 0.7356(2) 0.14757(17) 0.40461(19)
H32 H 0.7118 0.1593 0.4590
H33 H 0.8002 0.1822 0.3918
H34 H 0.7699 0.0979 0.4058
C24 C 0.6510(3) 0.13385(18) 0.24958(18)
H35 H 0.5748 0.1378 0.2077
H36 H 0.6839 0.0839 0.2501
H37 H 0.7158 0.1679 0.2360
C25 C 0.2106(2) 0.12633(14) 0.47546(17)
H38 H 0.2033 0.1792 0.4602
C26 C 0.0772(3) 0.0918(2) 0.4513(3)
H39 H 0.0518 0.0953 0.3910
H40 H 0.0156 0.1180 0.4795
H41 H 0.0799 0.0404 0.4681
C27 C 0.2525(3) 0.1219(2) 0.5719(2)
H42 H 0.3378 0.1428 0.5863
H43 H 0.2536 0.0708 0.5897
H44 H 0.1925 0.1494 0.6001
loop_
_geom_bond_atom_site_label_1
_geom_bond_atom_site_label_2
_geom_bond_site_symmetry_1
_geom_bond_site_symmetry_2
Be1 H1 1_555 1_555
B1 H1 1_555 1_555
H2 Be1 1_555 1_555
H3 B1 1_555 1_555
H4 B1 1_555 1_555
B2 H5 1_555 1_555
H5 Be1 1_555 1_555
H6 Be1 1_555 1_555
H7 B2 1_555 1_555
H8 B2 1_555 1_555
N1 C1 1_555 1_555
N2 C1 1_555 1_555
C1 Be1 1_555 1_555
C2 N1 1_555 1_555
H9 C2 1_555 1_555
C3 N2 1_555 1_555
H10 C3 1_555 1_555
C4 N2 1_555 1_555
C5 C4 1_555 1_555
C6 C5 1_555 1_555
H11 C6 1_555 1_555
C7 C6 1_555 1_555
H12 C7 1_555 1_555
C8 C7 1_555 1_555
H13 C8 1_555 1_555
C9 C4 1_555 1_555
C10 C9 1_555 1_555
H14 C10 1_555 1_555
C11 C10 1_555 1_555
H15 C11 1_555 1_555
H16 C11 1_555 1_555
H17 C11 1_555 1_555
C12 C10 1_555 1_555
H18 C12 1_555 1_555
H19 C12 1_555 1_555
H20 C12 1_555 1_555
C13 C5 1_555 1_555
H21 C13 1_555 1_555
C14 C13 1_555 1_555
H22 C14 1_555 1_555
H23 C14 1_555 1_555
H24 C14 1_555 1_555
C15 C13 1_555 1_555
H25 C15 1_555 1_555
H26 C15 1_555 1_555
H27 C15 1_555 1_555
C16 N1 1_555 1_555
C17 C16 1_555 1_555
C18 C17 1_555 1_555
H28 C18 1_555 1_555
C19 C18 1_555 1_555
H29 C19 1_555 1_555
C20 C19 1_555 1_555
H30 C20 1_555 1_555
C21 C16 1_555 1_555
C22 C21 1_555 1_555
H31 C22 1_555 1_555
C23 C22 1_555 1_555
H32 C23 1_555 1_555
H33 C23 1_555 1_555
H34 C23 1_555 1_555
C24 C22 1_555 1_555
H35 C24 1_555 1_555
H36 C24 1_555 1_555
H37 C24 1_555 1_555
C25 C17 1_555 1_555
H38 C25 1_555 1_555
C26 C25 1_555 1_555
H39 C26 1_555 1_555
H40 C26 1_555 1_555
H41 C26 1_555 1_555
C27 C25 1_555 1_555
H42 C27 1_555 1_555
H43 C27 1_555 1_555
H44 C27 1_555 1_555
B1 H2 1_555 1_555
B2 H6 1_555 1_555
C2 C3 1_555 1_555
C8 C9 1_555 1_555
C20 C21 1_555 1_555

#END
