
#######################################################################
#
#                 Cambridge Crystallographic Data Centre
#                                CCDC 
#
#######################################################################
#
# If this CIF has been generated from an entry in the Cambridge 
# Structural Database, then it will include bibliographic, chemical, 
# crystal, experimental, refinement or atomic coordinate data resulting 
# from the CCDC's data processing and validation procedures.
#
#######################################################################

data_MEHQEX
_chemical_formula_moiety         'C27 H36 Be1 Cl2 N2'
_chemical_name_systematic        
Dichloro-(1,3-bis(2,6-di-isopropylphenyl)-1,3-dihydro-2H-imidazol-2-ylidene)-beryllium
_symmetry_cell_setting           monoclinic
_symmetry_space_group_name_H-M   'P 21/n'
_symmetry_Int_Tables_number      14
_space_group_name_Hall           '-P 2yn'
loop_
_symmetry_equiv_pos_site_id
_symmetry_equiv_pos_as_xyz
1 x,y,z
2 1/2-x,1/2+y,1/2-z
3 -x,-y,-z
4 1/2+x,1/2-y,1/2+z
_cell_length_a                   10.4308(9)
_cell_length_b                   18.1887(15)
_cell_length_c                   15.4186(13)
_cell_angle_alpha                90
_cell_angle_beta                 101.4190(10)
_cell_angle_gamma                90
_cell_volume                     2867.35
_exptl_crystal_colour            colorless
_exptl_crystal_description       plate
_cell_formula_units_Z            4
loop_
_atom_site_label
_atom_site_type_symbol
_atom_site_fract_x
_atom_site_fract_y
_atom_site_fract_z
Be1 Be 0.7503(5) 0.2564(3) 0.2621(3)
Cl1 Cl 0.58215(11) 0.21481(8) 0.24622(8)
Cl2 Cl 0.7978(7) 0.2988(4) 0.1644(4)
N1 N 0.9131(2) 0.22001(13) 0.42464(15)
N2 N 0.8709(2) 0.33490(14) 0.41282(14)
C1 C 0.8466(3) 0.27030(16) 0.36917(18)
C2 C 0.9790(3) 0.2530(2) 0.5012(2)
H1 H 1.0316 0.2295 0.5489
C3 C 0.9533(3) 0.3248(2) 0.49382(19)
H2 H 0.9847 0.3610 0.5352
C4 C 0.8187(3) 0.40610(17) 0.38187(18)
C5 C 0.6907(3) 0.42260(19) 0.3892(2)
C6 C 0.6503(4) 0.4951(2) 0.3674(2)
H3 H 0.5665 0.5097 0.3722
C7 C 0.7316(5) 0.5449(2) 0.3392(3)
H4 H 0.7026 0.5927 0.3263
C8 C 0.8534(4) 0.5258(2) 0.3299(2)
H5 H 0.9060 0.5603 0.3093
C9 C 0.9012(3) 0.45508(19) 0.3507(2)
C10 C 1.0382(4) 0.4354(2) 0.3400(2)
H6 H 1.0522 0.3831 0.3537
C11 C 1.1396(4) 0.4787(3) 0.4043(4)
H7 H 1.2256 0.4645 0.3972
H8 H 1.1299 0.4686 0.4637
H9 H 1.1273 0.5303 0.3924
C12 C 1.0571(5) 0.4480(3) 0.2460(3)
H10 H 0.9948 0.4191 0.2059
H11 H 1.1441 0.4336 0.2414
H12 H 1.0445 0.4991 0.2313
C13 C 0.6005(4) 0.3682(2) 0.4197(2)
H13 H 0.6341 0.3191 0.4102
C14 C 0.6033(6) 0.3751(3) 0.5180(3)
H14 H 0.5459 0.3392 0.5355
H15 H 0.5749 0.4235 0.5306
H16 H 0.6908 0.3672 0.5503
C15 C 0.4616(4) 0.3720(3) 0.3653(4)
H17 H 0.4081 0.3361 0.3867
H18 H 0.4629 0.3623 0.3043
H19 H 0.4263 0.4202 0.3707
C16 C 0.9138(3) 0.14159(17) 0.40780(19)
C17 C 0.8170(3) 0.0993(2) 0.4349(2)
C18 C 0.8202(4) 0.0244(2) 0.4189(3)
H20 H 0.7572 -0.0059 0.4352
C19 C 0.9148(5) -0.0059(2) 0.3793(3)
H21 H 0.9153 -0.0563 0.3696
C20 C 1.0082(4) 0.0373(2) 0.3541(2)
H22 H 1.0713 0.0156 0.3274
C21 C 1.0108(3) 0.11300(18) 0.36775(19)
C22 C 1.1165(13) 0.1587(9) 0.3418(8)
H23 H 1.0836 0.2093 0.3384
C23 C 1.243(2) 0.160(2) 0.4138(16)
H24 H 1.3080 0.1892 0.3939
H25 H 1.2754 0.1105 0.4246
H26 H 1.2247 0.1801 0.4674
C24 C 1.152(3) 0.1433(13) 0.2523(12)
H27 H 1.2195 0.1764 0.2432
H28 H 1.0759 0.1502 0.2063
H29 H 1.1821 0.0935 0.2509
C25 C 0.7238(16) 0.1352(10) 0.4879(13)
H30 H 0.7127 0.1863 0.4677
C26 C 0.774(2) 0.1384(13) 0.5878(15)
H31 H 0.7139 0.1661 0.6147
H32 H 0.8582 0.1618 0.6001
H33 H 0.7815 0.0894 0.6115
C27 C 0.5872(18) 0.1009(15) 0.469(2)
H34 H 0.5533 0.1008 0.4067
H35 H 0.5304 0.1290 0.4985
H36 H 0.5922 0.0513 0.4911
C28? C 1.114(3) 0.1645(19) 0.345(2)
C29? C 1.244(4) 0.135(3) 0.399(3)
C30? C 1.110(4) 0.155(2) 0.2469(16)
C31? C 0.696(3) 0.126(3) 0.466(3)
C32? C 0.736(5) 0.113(4) 0.565(3)
C33? C 0.573(4) 0.081(4) 0.431(4)
Cl3? Cl 0.8432(8) 0.2702(4) 0.1654(4)
H37? H 1.0983 0.2157 0.3605
H38? H 1.3143 0.1668 0.3909
H39? H 1.2598 0.0864 0.3779
H40? H 1.2401 0.1325 0.4602
H41? H 1.1708 0.1884 0.2285
H42? H 1.0236 0.1647 0.2144
H43? H 1.1342 0.1053 0.2357
H44? H 0.6810 0.1779 0.4528
H45? H 0.6675 0.1290 0.5933
H46? H 0.8145 0.1402 0.5874
H47? H 0.7524 0.0615 0.5759
H48? H 0.5040 0.0967 0.4591
H49? H 0.5909 0.0295 0.4438
H50? H 0.5478 0.0872 0.3682
loop_
_geom_bond_atom_site_label_1
_geom_bond_atom_site_label_2
_geom_bond_site_symmetry_1
_geom_bond_site_symmetry_2
Be1 Cl1 1_555 1_555
Cl2 Be1 1_555 1_555
N1 C1 1_555 1_555
N2 C1 1_555 1_555
C1 Be1 1_555 1_555
C2 N1 1_555 1_555
H1 C2 1_555 1_555
C3 N2 1_555 1_555
H2 C3 1_555 1_555
C4 N2 1_555 1_555
C5 C4 1_555 1_555
C6 C5 1_555 1_555
H3 C6 1_555 1_555
C7 C6 1_555 1_555
H4 C7 1_555 1_555
C8 C7 1_555 1_555
H5 C8 1_555 1_555
C9 C4 1_555 1_555
C10 C9 1_555 1_555
H6 C10 1_555 1_555
C11 C10 1_555 1_555
H7 C11 1_555 1_555
H8 C11 1_555 1_555
H9 C11 1_555 1_555
C12 C10 1_555 1_555
H10 C12 1_555 1_555
H11 C12 1_555 1_555
H12 C12 1_555 1_555
C13 C5 1_555 1_555
H13 C13 1_555 1_555
C14 C13 1_555 1_555
H14 C14 1_555 1_555
H15 C14 1_555 1_555
H16 C14 1_555 1_555
C15 C13 1_555 1_555
H17 C15 1_555 1_555
H18 C15 1_555 1_555
H19 C15 1_555 1_555
C16 N1 1_555 1_555
C17 C16 1_555 1_555
C18 C17 1_555 1_555
H20 C18 1_555 1_555
C19 C18 1_555 1_555
H21 C19 1_555 1_555
C20 C19 1_555 1_555
H22 C20 1_555 1_555
C21 C16 1_555 1_555
C22 C21 1_555 1_555
H23 C22 1_555 1_555
C23 C22 1_555 1_555
H24 C23 1_555 1_555
H25 C23 1_555 1_555
H26 C23 1_555 1_555
C24 C22 1_555 1_555
H27 C24 1_555 1_555
H28 C24 1_555 1_555
H29 C24 1_555 1_555
C25 C17 1_555 1_555
H30 C25 1_555 1_555
C26 C25 1_555 1_555
H31 C26 1_555 1_555
H32 C26 1_555 1_555
H33 C26 1_555 1_555
C27 C25 1_555 1_555
H34 C27 1_555 1_555
H35 C27 1_555 1_555
H36 C27 1_555 1_555
C2 C3 1_555 1_555
C8 C9 1_555 1_555
C20 C21 1_555 1_555

#END
