
#######################################################################
#
#                 Cambridge Crystallographic Data Centre
#                                CCDC 
#
#######################################################################
#
# If this CIF has been generated from an entry in the Cambridge 
# Structural Database, then it will include bibliographic, chemical, 
# crystal, experimental, refinement or atomic coordinate data resulting 
# from the CCDC's data processing and validation procedures.
#
#######################################################################

data_MEHTUR
_chemical_formula_moiety         'C12 H9 N3 O1,2(H2 O1)'
_chemical_name_systematic        
'4-(1H-l,3-benzimidazol-2-yl)pyridine 1-oxide dihydrate'
_symmetry_cell_setting           monoclinic
_symmetry_space_group_name_H-M   'P 21/n'
_symmetry_Int_Tables_number      14
_space_group_name_Hall           '-P 2yn'
loop_
_symmetry_equiv_pos_site_id
_symmetry_equiv_pos_as_xyz
1 x,y,z
2 1/2-x,1/2+y,1/2-z
3 -x,-y,-z
4 1/2+x,1/2-y,1/2+z
_cell_length_a                   6.818(2)
_cell_length_b                   9.312(3)
_cell_length_c                   18.510(6)
_cell_angle_alpha                90
_cell_angle_beta                 96.340(5)
_cell_angle_gamma                90
_cell_volume                     1168
_exptl_crystal_colour            colorless
_exptl_crystal_description       block
_cell_formula_units_Z            4
loop_
_atom_site_label
_atom_site_type_symbol
_atom_site_fract_x
_atom_site_fract_y
_atom_site_fract_z
C1 C 0.7933(3) 0.2595(3) 1.02368(13)
C2 C 0.8151(3) 0.1539(3) 1.07775(13)
C3 C 0.8616(4) 0.1931(3) 1.15037(14)
H1 H 0.8765 0.1243 1.1870
C4 C 0.8847(4) 0.3366(3) 1.16605(15)
H2 H 0.9157 0.3650 1.2141
C5 C 0.8627(4) 0.4411(3) 1.11161(15)
H3 H 0.8792 0.5373 1.1243
C6 C 0.8174(4) 0.4049(3) 1.03965(15)
H4 H 0.8035 0.4744 1.0034
C7 C 0.7403(3) 0.0442(3) 0.97588(13)
C8 C 0.6949(3) -0.0678(3) 0.92137(12)
C9 C 0.6690(4) -0.0402(3) 0.84735(13)
H5 H 0.6791 0.0535 0.8307
C10 C 0.6285(4) -0.1495(3) 0.79831(14)
H6 H 0.6116 -0.1290 0.7488
C11 C 0.6358(4) -0.3160(3) 0.89272(14)
H7 H 0.6227 -0.4101 0.9083
C12 C 0.6779(4) -0.2102(3) 0.94278(13)
H8 H 0.6957 -0.2334 0.9919
N1 N 0.7457(3) 0.1870(2) 0.95901(12)
N2 N 0.7822(3) 0.0194(2) 1.04665(10)
N3 N 0.6127(3) -0.2864(2) 0.82084(11)
O1 O 0.5751(3) -0.39125(19) 0.77320(9)
H9 H 0.703(5) 0.234(3) 0.9148(19)
O2 O 0.5593(4) 0.3318(3) 0.83742(12)
H10 H 0.436(6) 0.295(4) 0.836(2)
H11 H 0.547(6) 0.418(5) 0.814(2)
O3 O 0.8066(4) 0.7982(2) 0.15466(14)
H12 H 0.888(5) 0.832(4) 0.195(2)
H13 H 0.800(6) 0.866(4) 0.121(2)
loop_
_geom_bond_atom_site_label_1
_geom_bond_atom_site_label_2
_geom_bond_site_symmetry_1
_geom_bond_site_symmetry_2
C1 C2 1_555 1_555
C2 C3 1_555 1_555
C3 H1 1_555 1_555
C4 C3 1_555 1_555
H2 C4 1_555 1_555
C5 C4 1_555 1_555
H3 C5 1_555 1_555
C6 C1 1_555 1_555
H4 C6 1_555 1_555
C7 C8 1_555 1_555
C8 C9 1_555 1_555
C9 H5 1_555 1_555
C10 C9 1_555 1_555
H6 C10 1_555 1_555
C11 H7 1_555 1_555
C12 C8 1_555 1_555
H8 C12 1_555 1_555
N1 C1 1_555 1_555
N2 C2 1_555 1_555
N3 C10 1_555 1_555
O1 N3 1_555 1_555
H9 N1 1_555 1_555
O2 H10 1_555 1_555
H11 O2 1_555 1_555
O3 H12 1_555 1_555
H13 O3 1_555 1_555
C5 C6 1_555 1_555
C7 N1 1_555 1_555
C7 N2 1_555 1_555
C11 C12 1_555 1_555
C11 N3 1_555 1_555

#END
