
#######################################################################
#
#                 Cambridge Crystallographic Data Centre
#                                CCDC 
#
#######################################################################
#
# If this CIF has been generated from an entry in the Cambridge 
# Structural Database, then it will include bibliographic, chemical, 
# crystal, experimental, refinement or atomic coordinate data resulting 
# from the CCDC's data processing and validation procedures.
#
#######################################################################

data_MEHWUT
_chemical_formula_moiety         'C29 H25 N1 O4'
_chemical_name_systematic        
'Dimethyl 4-methyl-1-(1-naphthyl)-3-phenyl-5,7-dihydro-6H-cyclopenta[c]pyridine-6,6-dicarboxylate'
_symmetry_cell_setting           triclinic
_symmetry_space_group_name_H-M   'P -1'
_symmetry_Int_Tables_number      2
_space_group_name_Hall           '-P 1'
loop_
_symmetry_equiv_pos_site_id
_symmetry_equiv_pos_as_xyz
1 x,y,z
2 -x,-y,-z
_cell_length_a                   7.6357(5)
_cell_length_b                   10.2341(7)
_cell_length_c                   15.8115(10)
_cell_angle_alpha                71.208(1)
_cell_angle_beta                 84.809(1)
_cell_angle_gamma                82.183(1)
_cell_volume                     1157.41
_exptl_crystal_colour            colorless
_exptl_crystal_description       block
_cell_formula_units_Z            2
_exptl_crystal_recrystallization_method dichloromethane/hexane
loop_
_atom_site_label
_atom_site_type_symbol
_atom_site_fract_x
_atom_site_fract_y
_atom_site_fract_z
O1 O 0.23227(12) 0.62157(9) -0.03925(6)
O2 O 0.08255(12) 0.83019(9) -0.10270(6)
O3 O -0.27425(12) 0.84958(10) 0.05437(6)
O4 O -0.22088(12) 0.68199(9) -0.01092(7)
C1 C 0.70729(17) 0.77977(13) 0.28141(8)
H1 H 0.7192 0.8138 0.2180
C2 C 0.84139(18) 0.78959(14) 0.33222(9)
H2 H 0.9452 0.8290 0.3033
C3 C 0.82454(19) 0.74206(14) 0.42504(9)
H3 H 0.9166 0.7485 0.4596
C4 C 0.67234(19) 0.68519(14) 0.46689(9)
H4 H 0.6591 0.6540 0.5303
C5 C 0.53951(18) 0.67381(14) 0.41622(9)
H5 H 0.4362 0.6339 0.4454
C6 C 0.55556(17) 0.72027(13) 0.32298(8)
C7 C 0.41733(16) 0.69274(13) 0.27136(8)
C8 C 0.33185(16) 0.79483(13) 0.20009(8)
C9 C 0.36441(17) 0.94519(13) 0.16746(8)
H6 H 0.4330 0.9645 0.1102
H7 H 0.4306 0.9648 0.2114
H8 H 0.2508 1.0041 0.1595
C10 C 0.20937(16) 0.74919(13) 0.15879(8)
C11 C 0.09722(17) 0.83602(13) 0.08241(8)
H9 H 0.1698 0.8951 0.0337
H10 H 0.0012 0.8960 0.1027
C12 C 0.02061(16) 0.72745(12) 0.05090(8)
C13 C 0.12451(16) 0.71570(12) -0.03380(8)
C14 C 0.1740(2) 0.83216(15) -0.18723(9)
H11 H 0.3011 0.8327 -0.1828
H12 H 0.1286 0.9157 -0.2343
H13 H 0.1542 0.7494 -0.2019
C15 C -0.17447(16) 0.76423(13) 0.03146(8)
C16 C -0.40797(18) 0.68851(15) -0.02292(11)
H14 H -0.4711 0.6595 0.0357
H15 H -0.4257 0.6265 -0.0567
H16 H -0.4537 0.7840 -0.0559
C17 C 0.04450(17) 0.58716(13) 0.12901(8)
H17 H -0.0691 0.5664 0.1631
H18 H 0.0910 0.5093 0.1060
C18 C 0.17626(16) 0.61150(13) 0.18641(8)
C19 C 0.26497(16) 0.51782(13) 0.25904(8)
C20 C 0.24574(17) 0.36621(13) 0.29405(8)
C21 C 0.39334(17) 0.27317(13) 0.29295(8)
H19 H 0.5024 0.3075 0.2682
C22 C 0.38757(18) 0.12893(13) 0.32735(8)
H20 H 0.4919 0.0672 0.3262
C23 C 0.23074(18) 0.07750(13) 0.36260(8)
H21 H 0.2263 -0.0201 0.3843
C24 C 0.07516(17) 0.16880(13) 0.36696(8)
C25 C -0.08652(18) 0.11798(14) 0.40625(8)
H22 H -0.0926 0.0206 0.4279
C26 C -0.23335(18) 0.20618(14) 0.41356(9)
H23 H -0.3406 0.1702 0.4402
C27 C -0.22613(17) 0.35090(14) 0.38164(8)
H24 H -0.3290 0.4119 0.3871
C28 C -0.07320(17) 0.40477(13) 0.34295(8)
H25 H -0.0705 0.5026 0.3226
C29 C 0.08246(17) 0.31533(13) 0.33294(8)
N1 N 0.38305(14) 0.55946(11) 0.30019(7)
loop_
_geom_bond_atom_site_label_1
_geom_bond_atom_site_label_2
_geom_bond_site_symmetry_1
_geom_bond_site_symmetry_2
O1 C13 1_555 1_555
O2 C13 1_555 1_555
O3 C15 1_555 1_555
O4 C15 1_555 1_555
C1 H1 1_555 1_555
C2 C1 1_555 1_555
H2 C2 1_555 1_555
C3 C2 1_555 1_555
H3 C3 1_555 1_555
C4 C3 1_555 1_555
H4 C4 1_555 1_555
C5 C4 1_555 1_555
H5 C5 1_555 1_555
C6 C1 1_555 1_555
C7 C6 1_555 1_555
C8 C7 1_555 1_555
C9 C8 1_555 1_555
H6 C9 1_555 1_555
H7 C9 1_555 1_555
H8 C9 1_555 1_555
C10 C8 1_555 1_555
C11 C10 1_555 1_555
H9 C11 1_555 1_555
H10 C11 1_555 1_555
C12 C11 1_555 1_555
C13 C12 1_555 1_555
C14 O2 1_555 1_555
H11 C14 1_555 1_555
H12 C14 1_555 1_555
H13 C14 1_555 1_555
C15 C12 1_555 1_555
C16 O4 1_555 1_555
H14 C16 1_555 1_555
H15 C16 1_555 1_555
H16 C16 1_555 1_555
C17 C12 1_555 1_555
H17 C17 1_555 1_555
H18 C17 1_555 1_555
C18 C10 1_555 1_555
C19 C18 1_555 1_555
C20 C19 1_555 1_555
C21 C20 1_555 1_555
H19 C21 1_555 1_555
C22 C21 1_555 1_555
H20 C22 1_555 1_555
C23 C22 1_555 1_555
H21 C23 1_555 1_555
C24 C23 1_555 1_555
C25 C24 1_555 1_555
H22 C25 1_555 1_555
C26 C25 1_555 1_555
H23 C26 1_555 1_555
C27 C26 1_555 1_555
H24 C27 1_555 1_555
C28 C27 1_555 1_555
H25 C28 1_555 1_555
C29 C20 1_555 1_555
N1 C7 1_555 1_555
C5 C6 1_555 1_555
C17 C18 1_555 1_555
C19 N1 1_555 1_555
C24 C29 1_555 1_555
C28 C29 1_555 1_555

#END
