
#######################################################################
#
#                 Cambridge Crystallographic Data Centre
#                                CCDC 
#
#######################################################################
#
# If this CIF has been generated from an entry in the Cambridge 
# Structural Database, then it will include bibliographic, chemical, 
# crystal, experimental, refinement or atomic coordinate data resulting 
# from the CCDC's data processing and validation procedures.
#
#######################################################################

data_MEHXII
_chemical_formula_moiety         'C51 H43 N3 O8,C1 H2 Cl2'
_chemical_name_systematic        
"Tetramethyl 3,3'-pyridine-2,6-diylbis(4-methyl-1-(1-naphthyl)-5,7-dihydro-6H-cyclopenta[c]pyridine-6,6-dicarboxylate) dichloromethane solvate"
_symmetry_cell_setting           triclinic
_symmetry_space_group_name_H-M   'P -1'
_symmetry_Int_Tables_number      2
_space_group_name_Hall           '-P 1'
loop_
_symmetry_equiv_pos_site_id
_symmetry_equiv_pos_as_xyz
1 x,y,z
2 -x,-y,-z
_cell_length_a                   12.382(3)
_cell_length_b                   12.774(3)
_cell_length_c                   16.134(4)
_cell_angle_alpha                67.262(3)
_cell_angle_beta                 87.161(3)
_cell_angle_gamma                67.910(3)
_cell_volume                     2167.03
_exptl_crystal_colour            colorless
_exptl_crystal_description       plate
_cell_formula_units_Z            2
_exptl_crystal_recrystallization_method dichloromethane/hexane
loop_
_atom_site_label
_atom_site_type_symbol
_atom_site_fract_x
_atom_site_fract_y
_atom_site_fract_z
N1 N 0.9064(2) 1.0340(2) -0.17073(19)
N2 N 0.7545(2) 0.9764(2) 0.02067(19)
N3 N 0.5500(2) 1.0372(2) 0.17763(18)
O1 O 1.2116(2) 0.4665(2) -0.21329(19)
O2 O 1.0211(2) 0.5922(2) -0.24251(18)
O3 O 1.3300(2) 0.5597(3) -0.08436(18)
O4 O 1.3279(2) 0.6500(2) -0.23378(17)
O5 O 0.3006(2) 0.6349(2) 0.23143(16)
O6 O 0.3032(2) 0.6210(2) 0.37428(16)
O7 O 0.5776(2) 0.6348(2) 0.40850(17)
O8 O 0.5685(2) 0.5033(2) 0.35114(16)
C1 C 0.9212(3) 1.0691(3) -0.3939(2)
H1 H 0.8806 1.0161 -0.3842
C2 C 0.9269(3) 1.1450(3) -0.4829(2)
H2 H 0.8901 1.1432 -0.5323
C3 C 0.9854(3) 1.2214(3) -0.4980(2)
H3 H 0.9883 1.2735 -0.5583
C4 C 1.0419(3) 1.2238(3) -0.4249(2)
C5 C 1.1065(3) 1.2999(3) -0.4392(3)
H4 H 1.1091 1.3535 -0.4990
C6 C 1.1646(3) 1.2967(3) -0.3681(3)
H5 H 1.2087 1.3467 -0.3789
C7 C 1.1600(3) 1.2210(3) -0.2799(3)
H6 H 1.2006 1.2201 -0.2311
C8 C 1.0971(3) 1.1474(3) -0.2625(2)
H7 H 1.0944 1.0965 -0.2019
C9 C 1.0362(3) 1.1471(3) -0.3350(2)
C10 C 0.9724(3) 1.0692(3) -0.3203(2)
C11 C 0.9668(3) 0.9841(3) -0.2270(2)
C12 C 1.0198(3) 0.8572(3) -0.1997(2)
C13 C 1.0882(3) 0.7855(3) -0.2536(2)
H8 H 1.1483 0.8167 -0.2831
H9 H 1.0356 0.7905 -0.3004
C14 C 1.1468(3) 0.6502(3) -0.1811(2)
C15 C 1.1345(3) 0.5575(3) -0.2133(2)
C16 C 0.9955(4) 0.5099(3) -0.2723(3)
H10 H 1.0392 0.5026 -0.3235
H11 H 0.9112 0.5428 -0.2911
H12 H 1.0186 0.4286 -0.2225
C17 C 1.2788(3) 0.6135(3) -0.1590(2)
C18 C 1.4526(3) 0.6206(4) -0.2202(3)
H13 H 1.4659 0.6627 -0.1846
H14 H 1.4821 0.6478 -0.2790
H15 H 1.4941 0.5315 -0.1878
C19 C 1.0832(3) 0.6481(3) -0.0945(2)
H16 H 1.0293 0.6048 -0.0860
H17 H 1.1407 0.6066 -0.0400
C20 C 1.0162(3) 0.7811(3) -0.1116(2)
C21 C 0.9554(3) 0.8307(3) -0.0515(2)
C22 C 0.9584(3) 0.7472(3) 0.0450(2)
H18 H 0.9471 0.7929 0.0836
H19 H 1.0344 0.6775 0.0644
H20 H 0.8956 0.7167 0.0499
C23 C 0.8994(3) 0.9595(3) -0.0862(2)
C24 C 0.8229(3) 1.0285(3) -0.0341(2)
C25 C 0.8188(3) 1.1443(3) -0.0465(2)
H21 H 0.8669 1.1791 -0.0861
C26 C 0.7439(3) 1.2073(3) -0.0002(2)
H22 H 0.7417 1.2848 -0.0059
C27 C 0.6715(3) 1.1562(3) 0.0547(2)
H23 H 0.6183 1.1988 0.0863
C28 C 0.6780(3) 1.0409(3) 0.0626(2)
C29 C 0.5992(3) 0.9846(3) 0.1197(2)
C30 C 0.5778(3) 0.8858(3) 0.1136(2)
C31 C 0.6250(3) 0.8256(3) 0.0488(2)
H24 H 0.7034 0.7617 0.0735
H25 H 0.6294 0.8875 -0.0093
H26 H 0.5728 0.7884 0.0397
C32 C 0.5066(3) 0.8425(3) 0.1759(2)
C33 C 0.4750(3) 0.7341(3) 0.1893(2)
H27 H 0.5446 0.6629 0.1894
H28 H 0.4137 0.7559 0.1417
C34 C 0.4288(3) 0.7062(3) 0.2836(2)
C35 C 0.3366(3) 0.6512(3) 0.2910(2)
C36 C 0.2231(3) 0.5580(4) 0.3905(3)
H29 H 0.1493 0.6132 0.3512
H30 H 0.2075 0.5342 0.4539
H31 H 0.2583 0.4843 0.3773
C37 C 0.5321(3) 0.6134(3) 0.3562(2)
C38 C 0.6710(3) 0.4080(3) 0.4121(3)
H32 H 0.7351 0.4372 0.4038
H33 H 0.6950 0.3342 0.3989
H34 H 0.6524 0.3882 0.4746
C39 C 0.3815(3) 0.8311(3) 0.2937(2)
H35 H 0.2971 0.8774 0.2712
H36 H 0.3932 0.8191 0.3575
C40 C 0.4549(3) 0.8961(3) 0.2357(2)
C41 C 0.4780(3) 0.9957(3) 0.2349(2)
C42 C 0.4259(3) 1.0612(3) 0.2950(2)
C43 C 0.3061(3) 1.1024(3) 0.2976(2)
H37 H 0.2595 1.0864 0.2626
C44 C 0.2522(3) 1.1674(3) 0.3510(2)
H38 H 0.1694 1.1963 0.3509
C45 C 0.3171(3) 1.1898(3) 0.4034(2)
H39 H 0.2792 1.2340 0.4393
C46 C 0.4403(3) 1.1475(3) 0.4043(2)
C47 C 0.5096(3) 1.1667(3) 0.4608(2)
H40 H 0.4723 1.2109 0.4969
C48 C 0.6287(3) 1.1223(3) 0.4634(2)
H41 H 0.6738 1.1358 0.5012
C49 C 0.6851(3) 1.0567(3) 0.4106(2)
H42 H 0.7683 1.0252 0.4136
C50 C 0.6214(3) 1.0375(3) 0.3547(2)
H43 H 0.6610 0.9941 0.3186
C51 C 0.4970(3) 1.0817(3) 0.3499(2)
Cl1 Cl 0.27433(8) 0.46325(9) 0.15501(7)
Cl2 Cl 0.20850(9) 0.31839(10) 0.08032(7)
C52 C 0.3239(3) 0.3531(3) 0.1066(3)
H44 H 0.3593 0.3852 0.0509
H45 H 0.3854 0.2768 0.1495
loop_
_geom_bond_atom_site_label_1
_geom_bond_atom_site_label_2
_geom_bond_site_symmetry_1
_geom_bond_site_symmetry_2
N1 C11 1_555 1_555
N2 C24 1_555 1_555
N3 C29 1_555 1_555
O1 C15 1_555 1_555
O2 C15 1_555 1_555
O3 C17 1_555 1_555
O4 C17 1_555 1_555
O5 C35 1_555 1_555
O6 C35 1_555 1_555
O7 C37 1_555 1_555
O8 C37 1_555 1_555
Cl1 C52 1_555 1_555
Cl2 C52 1_555 1_555
C1 H1 1_555 1_555
C2 C1 1_555 1_555
H2 C2 1_555 1_555
C3 C2 1_555 1_555
H3 C3 1_555 1_555
C4 C3 1_555 1_555
C5 C4 1_555 1_555
H4 C5 1_555 1_555
C6 C5 1_555 1_555
H5 C6 1_555 1_555
C7 C6 1_555 1_555
H6 C7 1_555 1_555
C8 C7 1_555 1_555
H7 C8 1_555 1_555
C9 C4 1_555 1_555
C10 C1 1_555 1_555
C11 C10 1_555 1_555
C12 C11 1_555 1_555
C13 C12 1_555 1_555
H8 C13 1_555 1_555
H9 C13 1_555 1_555
C14 C13 1_555 1_555
C15 C14 1_555 1_555
C16 O2 1_555 1_555
H10 C16 1_555 1_555
H11 C16 1_555 1_555
H12 C16 1_555 1_555
C17 C14 1_555 1_555
C18 O4 1_555 1_555
H13 C18 1_555 1_555
H14 C18 1_555 1_555
H15 C18 1_555 1_555
C19 C14 1_555 1_555
H16 C19 1_555 1_555
H17 C19 1_555 1_555
C20 C12 1_555 1_555
C21 C20 1_555 1_555
C22 C21 1_555 1_555
H18 C22 1_555 1_555
H19 C22 1_555 1_555
H20 C22 1_555 1_555
C23 N1 1_555 1_555
C24 C23 1_555 1_555
C25 C24 1_555 1_555
H21 C25 1_555 1_555
C26 C25 1_555 1_555
H22 C26 1_555 1_555
C27 C26 1_555 1_555
H23 C27 1_555 1_555
C28 N2 1_555 1_555
C29 C28 1_555 1_555
C30 C29 1_555 1_555
C31 C30 1_555 1_555
H24 C31 1_555 1_555
H25 C31 1_555 1_555
H26 C31 1_555 1_555
C32 C30 1_555 1_555
C33 C32 1_555 1_555
H27 C33 1_555 1_555
H28 C33 1_555 1_555
C34 C33 1_555 1_555
C35 C34 1_555 1_555
C36 O6 1_555 1_555
H29 C36 1_555 1_555
H30 C36 1_555 1_555
H31 C36 1_555 1_555
C37 C34 1_555 1_555
C38 O8 1_555 1_555
H32 C38 1_555 1_555
H33 C38 1_555 1_555
H34 C38 1_555 1_555
C39 C34 1_555 1_555
H35 C39 1_555 1_555
H36 C39 1_555 1_555
C40 C32 1_555 1_555
C41 N3 1_555 1_555
C42 C41 1_555 1_555
C43 C42 1_555 1_555
H37 C43 1_555 1_555
C44 C43 1_555 1_555
H38 C44 1_555 1_555
C45 C44 1_555 1_555
H39 C45 1_555 1_555
C46 C45 1_555 1_555
C47 C46 1_555 1_555
H40 C47 1_555 1_555
C48 C47 1_555 1_555
H41 C48 1_555 1_555
C49 C48 1_555 1_555
H42 C49 1_555 1_555
C50 C49 1_555 1_555
H43 C50 1_555 1_555
C51 C42 1_555 1_555
C52 H44 1_555 1_555
H45 C52 1_555 1_555
C8 C9 1_555 1_555
C9 C10 1_555 1_555
C19 C20 1_555 1_555
C21 C23 1_555 1_555
C27 C28 1_555 1_555
C39 C40 1_555 1_555
C40 C41 1_555 1_555
C46 C51 1_555 1_555
C50 C51 1_555 1_555

#END
