
#######################################################################
#
#                 Cambridge Crystallographic Data Centre
#                                CCDC 
#
#######################################################################
#
# If this CIF has been generated from an entry in the Cambridge 
# Structural Database, then it will include bibliographic, chemical, 
# crystal, experimental, refinement or atomic coordinate data resulting 
# from the CCDC's data processing and validation procedures.
#
#######################################################################

data_MEHXAA
_chemical_formula_moiety         'C23 H21 N3 O4'
_chemical_name_systematic        
'Dimethyl 4-methyl-1,3-bis(pyridin-2-yl)-5,7-dihydro-6H-cyclopenta[c]pyridine-6,6-dicarboxylate'
_symmetry_cell_setting           monoclinic
_symmetry_space_group_name_H-M   'P 21/n'
_symmetry_Int_Tables_number      14
_space_group_name_Hall           '-P 2yn'
loop_
_symmetry_equiv_pos_site_id
_symmetry_equiv_pos_as_xyz
1 x,y,z
2 1/2-x,1/2+y,1/2-z
3 -x,-y,-z
4 1/2+x,1/2-y,1/2+z
_cell_length_a                   10.8423(6)
_cell_length_b                   15.7551(8)
_cell_length_c                   11.7158(6)
_cell_angle_alpha                90
_cell_angle_beta                 101.5500(10)
_cell_angle_gamma                90
_cell_volume                     1960.78
_exptl_crystal_colour            yellow
_exptl_crystal_description       block
_cell_formula_units_Z            4
_exptl_crystal_recrystallization_method dichloromethane/hexane
loop_
_atom_site_label
_atom_site_type_symbol
_atom_site_fract_x
_atom_site_fract_y
_atom_site_fract_z
O1 O 0.15131(8) 0.01170(5) 0.45545(7)
O2 O 0.11797(8) 0.13707(5) 0.36312(7)
O3 O 0.40709(8) -0.07536(6) 0.37033(8)
O4 O 0.21148(8) -0.09437(5) 0.26700(8)
N1 N 0.77683(9) 0.24400(7) 0.17039(9)
N2 N 0.50978(9) 0.13232(6) 0.03723(8)
N3 N 0.18323(9) 0.09268(7) -0.07524(8)
C1 C 0.89038(11) 0.26448(8) 0.14942(11)
H1 H 0.9311 0.3133 0.1869
C2 C 0.95163(11) 0.21893(8) 0.07673(10)
H2 H 1.0324 0.2357 0.0652
C3 C 0.89220(12) 0.14835(8) 0.02125(11)
H3 H 0.9324 0.1146 -0.0277
C4 C 0.77298(11) 0.12751(8) 0.03806(11)
H4 H 0.7286 0.0807 -0.0018
C5 C 0.71948(10) 0.17629(7) 0.11428(9)
C6 C 0.59181(10) 0.15316(7) 0.13466(10)
C7 C 0.56411(10) 0.14930(7) 0.24714(9)
C8 C 0.65756(11) 0.17064(8) 0.35695(10)
H5 H 0.6581 0.2321 0.3698
H6 H 0.7417 0.1520 0.3492
H7 H 0.6336 0.1417 0.4233
C9 C 0.44422(10) 0.11985(7) 0.25165(9)
C10 C 0.39025(10) 0.10284(7) 0.35861(9)
H8 H 0.3662 0.1564 0.3927
H9 H 0.4512 0.0719 0.4184
C11 C 0.27269(10) 0.04743(7) 0.31099(9)
C12 C 0.17311(10) 0.06150(7) 0.38405(9)
C13 C 0.03115(11) 0.15980(8) 0.43781(11)
H10 H -0.0326 0.1152 0.4341
H11 H -0.0101 0.2137 0.4114
H12 H 0.0776 0.1658 0.5182
C14 C 0.30789(10) -0.04679(7) 0.32123(9)
C15 C 0.22773(14) -0.18505(8) 0.27989(13)
H13 H 0.2970 -0.2033 0.2432
H14 H 0.1499 -0.2137 0.2423
H15 H 0.2473 -0.1996 0.3629
C16 C 0.23286(10) 0.07314(7) 0.18051(9)
H16 H 0.1963 0.0244 0.1320
H17 H 0.1711 0.1202 0.1702
C17 C 0.35611(10) 0.10095(7) 0.15064(9)
C18 C 0.39195(10) 0.10830(7) 0.04327(9)
C19 C 0.30825(10) 0.08725(7) -0.07007(9)
C20 C 0.35992(11) 0.06157(7) -0.16418(10)
H18 H 0.4486 0.0586 -0.1572
C21 C 0.28030(11) 0.04041(7) -0.26792(10)
H19 H 0.3134 0.0230 -0.3334
C22 C 0.15143(11) 0.04508(8) -0.27461(10)
H20 H 0.0941 0.0306 -0.3444
C23 C 0.10850(11) 0.07140(8) -0.17674(10)
H21 H 0.0201 0.0746 -0.1819
loop_
_geom_bond_atom_site_label_1
_geom_bond_atom_site_label_2
_geom_bond_site_symmetry_1
_geom_bond_site_symmetry_2
O1 C12 1_555 1_555
O2 C12 1_555 1_555
O3 C14 1_555 1_555
O4 C14 1_555 1_555
N1 C1 1_555 1_555
N2 C6 1_555 1_555
N3 C19 1_555 1_555
C1 H1 1_555 1_555
C2 C1 1_555 1_555
H2 C2 1_555 1_555
C3 C2 1_555 1_555
H3 C3 1_555 1_555
C4 C3 1_555 1_555
H4 C4 1_555 1_555
C5 N1 1_555 1_555
C6 C5 1_555 1_555
C7 C6 1_555 1_555
C8 C7 1_555 1_555
H5 C8 1_555 1_555
H6 C8 1_555 1_555
H7 C8 1_555 1_555
C9 C7 1_555 1_555
C10 C9 1_555 1_555
H8 C10 1_555 1_555
H9 C10 1_555 1_555
C11 C10 1_555 1_555
C12 C11 1_555 1_555
C13 O2 1_555 1_555
H10 C13 1_555 1_555
H11 C13 1_555 1_555
H12 C13 1_555 1_555
C14 C11 1_555 1_555
C15 O4 1_555 1_555
H13 C15 1_555 1_555
H14 C15 1_555 1_555
H15 C15 1_555 1_555
C16 C11 1_555 1_555
H16 C16 1_555 1_555
H17 C16 1_555 1_555
C17 C9 1_555 1_555
C18 N2 1_555 1_555
C19 C18 1_555 1_555
C20 C19 1_555 1_555
H18 C20 1_555 1_555
C21 C20 1_555 1_555
H19 C21 1_555 1_555
C22 C21 1_555 1_555
H20 C22 1_555 1_555
C23 N3 1_555 1_555
H21 C23 1_555 1_555
C4 C5 1_555 1_555
C16 C17 1_555 1_555
C17 C18 1_555 1_555
C22 C23 1_555 1_555

#END
