
#######################################################################
#
#                 Cambridge Crystallographic Data Centre
#                                CCDC 
#
#######################################################################
#
# If this CIF has been generated from an entry in the Cambridge 
# Structural Database, then it will include bibliographic, chemical, 
# crystal, experimental, refinement or atomic coordinate data resulting 
# from the CCDC's data processing and validation procedures.
#
#######################################################################

data_MEHXUU
_chemical_formula_moiety         'C40 H36 N2 O8 S2'
_chemical_name_systematic        
"Tetramethyl 3,3'-(1,3-phenylene)bis(4-methyl-1-(2-thienyl)-5,7-dihydro-6H-cyclopenta[c]pyridine-6,6-dicarboxylate)"
_symmetry_cell_setting           monoclinic
_symmetry_space_group_name_H-M   'P 21/n'
_symmetry_Int_Tables_number      14
_space_group_name_Hall           '-P 2yn'
loop_
_symmetry_equiv_pos_site_id
_symmetry_equiv_pos_as_xyz
1 x,y,z
2 1/2-x,1/2+y,1/2-z
3 -x,-y,-z
4 1/2+x,1/2-y,1/2+z
_cell_length_a                   11.758(6)
_cell_length_b                   16.793(9)
_cell_length_c                   17.869(9)
_cell_angle_alpha                90
_cell_angle_beta                 90.858(7)
_cell_angle_gamma                90
_cell_volume                     3527.88
_exptl_crystal_colour            yellow
_exptl_crystal_description       block
_cell_formula_units_Z            4
_exptl_crystal_recrystallization_method chloroform/hexane
loop_
_atom_site_label
_atom_site_type_symbol
_atom_site_fract_x
_atom_site_fract_y
_atom_site_fract_z
O1 O 0.6139(2) 1.06670(17) 0.33317(14)
O2 O 0.7582(2) 1.04043(16) 0.25563(14)
O3 O 0.7423(2) 0.81265(18) 0.30356(15)
O4 O 0.6006(2) 0.89128(16) 0.26077(15)
O5 O 1.2706(2) 0.91309(18) 1.17455(16)
O6 O 1.3557(2) 1.02276(17) 1.13017(14)
O7 O 1.4030(2) 0.94985(19) 0.94008(17)
O8 O 1.4310(2) 0.86127(17) 1.03276(15)
C1 C 0.9102(3) 0.8724(2) 0.7276(2)
H1 H 0.9631 0.9116 0.7121
C2 C 0.9057(3) 0.8519(2) 0.8033(2)
C3 C 0.8265(3) 0.7942(2) 0.8251(2)
H2 H 0.8198 0.7808 0.8765
C4 C 0.7581(3) 0.7568(2) 0.7722(2)
H3 H 0.7066 0.7164 0.7872
C5 C 0.7644(3) 0.7780(2) 0.6975(2)
H4 H 0.7170 0.7519 0.6616
C6 C 0.8391(3) 0.8370(2) 0.6744(2)
C7 C 0.8431(3) 0.8634(2) 0.5946(2)
C8 C 0.7425(3) 0.8841(2) 0.5549(2)
C9 C 0.6253(3) 0.8869(2) 0.5881(2)
H5 H 0.5854 0.9347 0.5703
H6 H 0.6319 0.8883 0.6428
H7 H 0.5824 0.8394 0.5727
C10 C 0.7574(3) 0.9088(2) 0.4808(2)
C11 C 0.6657(3) 0.9368(2) 0.42774(19)
H8 H 0.6332 0.9880 0.4448
H9 H 0.6040 0.8970 0.4235
C12 C 0.7269(3) 0.9473(2) 0.3515(2)
C13 C 0.6915(3) 1.0243(3) 0.3140(2)
C14 C 0.7335(4) 1.1152(3) 0.2171(2)
H10 H 0.6551 1.1143 0.1977
H11 H 0.7860 1.1218 0.1755
H12 H 0.7429 1.1596 0.2522
C15 C 0.6946(3) 0.8760(3) 0.3024(2)
C16 C 0.5611(4) 0.8268(3) 0.2126(2)
H13 H 0.6211 0.8125 0.1777
H14 H 0.4933 0.8441 0.1845
H15 H 0.5421 0.7805 0.2433
C17 C 0.8572(3) 0.9442(2) 0.3704(2)
H16 H 0.8970 0.9082 0.3355
H17 H 0.8915 0.9979 0.3672
C18 C 0.8641(3) 0.9130(2) 0.4490(2)
C19 C 0.9596(3) 0.8934(2) 0.4934(2)
C20 C 1.0777(3) 0.8966(2) 0.4671(2)
C21 C 1.1228(3) 0.9223(2) 0.39659(19)
H18 H 1.0794 0.9416 0.3552
C22 C 1.2436(4) 0.9139(3) 0.3994(2)
H19 H 1.2906 0.9282 0.3588
C23 C 1.2862(3) 0.8840(3) 0.4643(3)
H20 H 1.3649 0.8746 0.4733
C24 C 0.9835(3) 0.8924(2) 0.8582(2)
C25 C 1.0403(3) 0.8515(2) 0.9168(2)
C26 C 1.0362(3) 0.7630(2) 0.9285(2)
H21 H 1.1127 0.7434 0.9409
H22 H 1.0083 0.7371 0.8827
H23 H 0.9849 0.7508 0.9697
C27 C 1.1106(3) 0.8982(2) 0.9623(2)
C28 C 1.1812(3) 0.8714(2) 1.0289(2)
H24 H 1.2218 0.8212 1.0180
H25 H 1.1333 0.8636 1.0734
C29 C 1.2662(3) 0.9414(2) 1.0410(2)
C30 C 1.2964(3) 0.9554(3) 1.1233(2)
C31 C 1.3912(4) 1.0440(3) 1.2054(2)
H26 H 1.3240 1.0497 1.2368
H27 H 1.4328 1.0946 1.2043
H28 H 1.4407 1.0022 1.2260
C32 C 1.3747(3) 0.9203(3) 0.9985(2)
C33 C 1.5267(3) 0.8287(3) 0.9928(2)
H29 H 1.4990 0.8000 0.9485
H30 H 1.5690 0.7921 1.0256
H31 H 1.5769 0.8721 0.9774
C34 C 1.2102(3) 1.0154(2) 1.0043(2)
H32 H 1.1711 1.0485 1.0419
H33 H 1.2672 1.0484 0.9784
C35 C 1.1259(3) 0.9789(2) 0.9492(2)
C36 C 1.0670(3) 1.0146(2) 0.8895(2)
C37 C 1.0735(4) 1.0986(3) 0.8683(3)
C38 C 1.1085(3) 1.2414(3) 0.8618(2)
H34 H 1.1308 1.2950 0.8708
C39 C 1.0359(3) 1.2216(3) 0.8058(2)
H35 H 1.0058 1.2572 0.7692
S1 S 1.18368(9) 0.86519(7) 0.52798(7)
N1 N 0.9471(3) 0.86845(19) 0.56526(17)
N2 N 0.9964(2) 0.9710(2) 0.84522(16)
C40 C 1.009(3) 1.132(2) 0.8106(18)
H36 H 0.9574 1.1039 0.7790
S2 S 1.1557(8) 1.1684(3) 0.9128(4)
C41? C 1.128(4) 1.161(2) 0.909(3)
H37? H 1.1411 1.2922 0.8713
H38? H 1.0072 1.2617 0.7731
H39? H 1.1689 1.1562 0.9551
S3? S 0.9990(16) 1.1347(10) 0.7943(12)
loop_
_geom_bond_atom_site_label_1
_geom_bond_atom_site_label_2
_geom_bond_site_symmetry_1
_geom_bond_site_symmetry_2
O1 C13 1_555 1_555
O2 C13 1_555 1_555
O3 C15 1_555 1_555
O4 C15 1_555 1_555
O5 C30 1_555 1_555
O6 C30 1_555 1_555
O7 C32 1_555 1_555
O8 C32 1_555 1_555
C1 H1 1_555 1_555
C2 C1 1_555 1_555
C3 C2 1_555 1_555
H2 C3 1_555 1_555
C4 C3 1_555 1_555
H3 C4 1_555 1_555
C5 C4 1_555 1_555
H4 C5 1_555 1_555
C6 C1 1_555 1_555
C7 C6 1_555 1_555
C8 C7 1_555 1_555
C9 C8 1_555 1_555
H5 C9 1_555 1_555
H6 C9 1_555 1_555
H7 C9 1_555 1_555
C10 C8 1_555 1_555
C11 C10 1_555 1_555
H8 C11 1_555 1_555
H9 C11 1_555 1_555
C12 C11 1_555 1_555
C13 C12 1_555 1_555
C14 O2 1_555 1_555
H10 C14 1_555 1_555
H11 C14 1_555 1_555
H12 C14 1_555 1_555
C15 C12 1_555 1_555
C16 O4 1_555 1_555
H13 C16 1_555 1_555
H14 C16 1_555 1_555
H15 C16 1_555 1_555
C17 C12 1_555 1_555
H16 C17 1_555 1_555
H17 C17 1_555 1_555
C18 C10 1_555 1_555
C19 C18 1_555 1_555
C20 C19 1_555 1_555
C21 C20 1_555 1_555
H18 C21 1_555 1_555
C22 C21 1_555 1_555
H19 C22 1_555 1_555
C23 C22 1_555 1_555
H20 C23 1_555 1_555
C24 C2 1_555 1_555
C25 C24 1_555 1_555
C26 C25 1_555 1_555
H21 C26 1_555 1_555
H22 C26 1_555 1_555
H23 C26 1_555 1_555
C27 C25 1_555 1_555
C28 C27 1_555 1_555
H24 C28 1_555 1_555
H25 C28 1_555 1_555
C29 C28 1_555 1_555
C30 C29 1_555 1_555
C31 O6 1_555 1_555
H26 C31 1_555 1_555
H27 C31 1_555 1_555
H28 C31 1_555 1_555
C32 C29 1_555 1_555
C33 O8 1_555 1_555
H29 C33 1_555 1_555
H30 C33 1_555 1_555
H31 C33 1_555 1_555
C34 C29 1_555 1_555
H32 C34 1_555 1_555
H33 C34 1_555 1_555
C35 C27 1_555 1_555
C36 C35 1_555 1_555
C37 C36 1_555 1_555
C38 H34 1_555 1_555
C39 C38 1_555 1_555
H35 C39 1_555 1_555
S1 C20 1_555 1_555
N1 C7 1_555 1_555
N2 C24 1_555 1_555
C40 C37 1_555 1_555
H36 C40 1_555 1_555
S2 C37 1_555 1_555
C5 C6 1_555 1_555
C17 C18 1_555 1_555
C19 N1 1_555 1_555
C23 S1 1_555 1_555
C34 C35 1_555 1_555
C36 N2 1_555 1_555
C38 S2 1_555 1_555
C39 C40 1_555 1_555

#END
