
#######################################################################
#
#                 Cambridge Crystallographic Data Centre
#                                CCDC 
#
#######################################################################
#
# If this CIF has been generated from an entry in the Cambridge 
# Structural Database, then it will include bibliographic, chemical, 
# crystal, experimental, refinement or atomic coordinate data resulting 
# from the CCDC's data processing and validation procedures.
#
#######################################################################

data_MEHYAB
_chemical_formula_moiety         'C41 H37 N3 O8 S1'
_chemical_name_systematic        
'Dimethyl 3-(3-(6,6-bis(methoxycarbonyl)-4-methyl-1-(pyridin-2-yl)-6,7-dihydro-5H-cyclopenta[c]pyridin-3-yl)phenyl)-4-methyl-1-(2-thienyl)-5,7-dihydro-6H-cyclopenta[c]pyridine-6,6-dicarboxylate'
_symmetry_cell_setting           triclinic
_symmetry_space_group_name_H-M   'P -1'
_symmetry_Int_Tables_number      2
_space_group_name_Hall           '-P 1'
loop_
_symmetry_equiv_pos_site_id
_symmetry_equiv_pos_as_xyz
1 x,y,z
2 -x,-y,-z
_cell_length_a                   11.676(2)
_cell_length_b                   11.698(2)
_cell_length_c                   14.139(3)
_cell_angle_alpha                66.910(3)
_cell_angle_beta                 81.911(3)
_cell_angle_gamma                79.155(3)
_cell_volume                     1739.96
_exptl_crystal_colour            colorless
_exptl_crystal_description       needle
_cell_formula_units_Z            2
_exptl_crystal_recrystallization_method dichloromethane/hexane
loop_
_atom_site_label
_atom_site_type_symbol
_atom_site_fract_x
_atom_site_fract_y
_atom_site_fract_z
O1 O -0.1030(3) 0.0546(3) -0.0876(2)
O2 O -0.1071(3) -0.1537(3) -0.0185(3)
O3 O 0.1226(17) 0.0922(11) -0.2863(10)
O4 O -0.0578(13) 0.1014(17) -0.3118(13)
O5 O 0.6387(3) -0.6684(3) 0.6246(2)
O6 O 0.5566(3) -0.8306(3) 0.7426(2)
O7 O 0.3560(3) -0.6113(3) 0.6987(3)
O8 O 0.2671(3) -0.6110(3) 0.5675(2)
C1 C 0.3117(4) -0.6263(4) 0.1113(3)
H1 H 0.2764 -0.5650 0.1390
C2 C 0.2983(4) -0.6042(4) 0.0095(3)
C3 C 0.3550(4) -0.6911(4) -0.0327(3)
H2 H 0.3498 -0.6751 -0.1033
C4 C 0.4195(4) -0.8018(4) 0.0298(4)
H3 H 0.4582 -0.8615 0.0014
C5 C 0.4277(4) -0.8253(4) 0.1321(3)
H4 H 0.4689 -0.9027 0.1745
C6 C 0.3762(4) -0.7369(4) 0.1739(3)
C7 C 0.2190(4) -0.4899(4) -0.0524(3)
C8 C 0.2261(4) -0.3702(4) -0.0558(3)
C9 C 0.3209(4) -0.3393(4) -0.0111(4)
H5 H 0.3444 -0.2589 -0.0586
H6 H 0.3885 -0.4056 -0.0012
H7 H 0.2912 -0.3332 0.0554
C10 C 0.1393(4) -0.2743(4) -0.1077(3)
C11 C 0.1286(4) -0.1395(4) -0.1232(4)
H8 H 0.1943 -0.1009 -0.1697
H9 H 0.1283 -0.1301 -0.0566
C12 C 0.0103(5) -0.0772(4) -0.1724(4)
C13 C -0.0744(4) -0.0484(5) -0.0908(4)
C14 C -0.1732(4) -0.1412(5) 0.0727(4)
H10 H -0.1252 -0.1121 0.1079
H11 H -0.1948 -0.2229 0.1194
H12 H -0.2441 -0.0803 0.0526
C15 C 0.0438(15) 0.0532(17) -0.2647(14)
C16 C -0.0502(7) 0.2193(6) -0.3989(6)
H13 H -0.0161 0.2757 -0.3783
H14 H -0.1286 0.2584 -0.4215
H15 H -0.0007 0.2033 -0.4557
C17 C -0.0263(5) -0.1766(4) -0.2071(4)
H16 H -0.1089 -0.1879 -0.1840
H17 H -0.0165 -0.1499 -0.2831
C18 C 0.0546(4) -0.2967(4) -0.1562(3)
C19 C 0.0599(4) -0.4175(4) -0.1534(3)
C20 C -0.0193(4) -0.4545(4) -0.2065(3)
C21 C -0.0424(3) -0.5864(3) -0.1721(3)
H18 H -0.0067 -0.6518 -0.1149
C22 C -0.1127(6) -0.6079(6) -0.2234(6)
H19 H -0.1344 -0.6894 -0.1997
C23 C -0.1550(5) -0.5226(7) -0.3059(5)
H20 H -0.2029 -0.5445 -0.3433
C24 C -0.1342(5) -0.4087(6) -0.3389(4)
H21 H -0.1697 -0.3517 -0.3998
C25 C 0.3866(4) -0.7600(4) 0.2843(3)
C26 C 0.4331(4) -0.6772(4) 0.3135(3)
C27 C 0.4781(4) -0.5598(4) 0.2377(3)
H22 H 0.4165 -0.4876 0.2286
H23 H 0.5012 -0.5688 0.1712
H24 H 0.5460 -0.5468 0.2638
C28 C 0.4406(4) -0.7128(4) 0.4191(3)
C29 C 0.4919(4) -0.6467(4) 0.4710(3)
H25 H 0.4571 -0.5571 0.4483
H26 H 0.5776 -0.6523 0.4556
C30 C 0.4609(4) -0.7166(4) 0.5879(3)
C31 C 0.5627(4) -0.7336(4) 0.6517(3)
C32 C 0.6496(5) -0.8525(5) 0.8078(4)
H27 H 0.7252 -0.8673 0.7712
H28 H 0.6398 -0.9261 0.8711
H29 H 0.6469 -0.7788 0.8253
C33 C 0.3580(4) -0.6410(4) 0.6265(4)
C34 C 0.1655(4) -0.5360(5) 0.5961(4)
H30 H 0.1351 -0.5830 0.6663
H31 H 0.1052 -0.5163 0.5482
H32 H 0.1875 -0.4578 0.5932
C35 C 0.4253(4) -0.8441(4) 0.5984(3)
H33 H 0.4892 -0.9145 0.6245
H34 H 0.3541 -0.8625 0.6455
C36 C 0.4027(4) -0.8230(4) 0.4903(3)
C37 C 0.3568(4) -0.8985(4) 0.4537(3)
C38 C 0.3114(4) -1.0147(4) 0.5215(4)
C39 C 0.3378(9) -1.0824(8) 0.6183(7)
H35 H 0.3884 -1.0636 0.6556
C40 C 0.2723(11) -1.1954(10) 0.6583(9)
H36 H 0.2827 -1.2620 0.7234
C41 C 0.1971(9) -1.1906(10) 0.5909(10)
H37 H 0.1463 -1.2507 0.6045
S1 S 0.2063(4) -1.0628(3) 0.4793(3)
N1 N 0.1400(3) -0.5123(3) -0.1010(3)
N2 N 0.3496(3) -0.8670(3) 0.3515(3)
N3 N -0.0708(3) -0.3633(3) -0.2989(3)
C42? C -0.007(2) 0.039(2) -0.2657(16)
C43? C 0.0830(14) 0.1929(13) -0.3958(12)
C44? C 0.257(4) 0.934(4) 0.470(3)
C45? C 0.2115(18) 0.8144(18) 0.5342(16)
C46? C 0.2445(18) 0.7527(18) 0.6460(19)
H38? H 0.1576 0.2248 -0.4224
H39? H 0.0216 0.2624 -0.3951
H40? H 0.0628 0.1541 -0.4402
H41? H 0.2494 0.9723 0.3978
H42? H 0.1642 0.7783 0.5073
H43? H 0.2289 0.6758 0.6994
O9? O -0.099(2) 0.085(3) -0.312(2)
O10? O 0.094(5) 0.098(4) -0.289(3)
S2? S 0.3223(16) 0.873(2) 0.6435(16)
loop_
_geom_bond_atom_site_label_1
_geom_bond_atom_site_label_2
_geom_bond_site_symmetry_1
_geom_bond_site_symmetry_2
O1 C13 1_555 1_555
O2 C13 1_555 1_555
O3 C15 1_555 1_555
O4 C15 1_555 1_555
O5 C31 1_555 1_555
O6 C31 1_555 1_555
O7 C33 1_555 1_555
O8 C33 1_555 1_555
C1 H1 1_555 1_555
C2 C1 1_555 1_555
C3 C2 1_555 1_555
H2 C3 1_555 1_555
C4 C3 1_555 1_555
H3 C4 1_555 1_555
C5 C4 1_555 1_555
H4 C5 1_555 1_555
C6 C1 1_555 1_555
C7 C2 1_555 1_555
C8 C7 1_555 1_555
C9 C8 1_555 1_555
H5 C9 1_555 1_555
H6 C9 1_555 1_555
H7 C9 1_555 1_555
C10 C8 1_555 1_555
C11 C10 1_555 1_555
H8 C11 1_555 1_555
H9 C11 1_555 1_555
C12 C11 1_555 1_555
C13 C12 1_555 1_555
C14 O2 1_555 1_555
H10 C14 1_555 1_555
H11 C14 1_555 1_555
H12 C14 1_555 1_555
C15 C12 1_555 1_555
C16 O4 1_555 1_555
H13 C16 1_555 1_555
H14 C16 1_555 1_555
H15 C16 1_555 1_555
C17 C12 1_555 1_555
H16 C17 1_555 1_555
H17 C17 1_555 1_555
C18 C10 1_555 1_555
C19 C18 1_555 1_555
C20 C19 1_555 1_555
C21 C20 1_555 1_555
H18 C21 1_555 1_555
C22 C21 1_555 1_555
H19 C22 1_555 1_555
C23 C22 1_555 1_555
H20 C23 1_555 1_555
C24 C23 1_555 1_555
H21 C24 1_555 1_555
C25 C6 1_555 1_555
C26 C25 1_555 1_555
C27 C26 1_555 1_555
H22 C27 1_555 1_555
H23 C27 1_555 1_555
H24 C27 1_555 1_555
C28 C26 1_555 1_555
C29 C28 1_555 1_555
H25 C29 1_555 1_555
H26 C29 1_555 1_555
C30 C29 1_555 1_555
C31 C30 1_555 1_555
C32 O6 1_555 1_555
H27 C32 1_555 1_555
H28 C32 1_555 1_555
H29 C32 1_555 1_555
C33 C30 1_555 1_555
C34 O8 1_555 1_555
H30 C34 1_555 1_555
H31 C34 1_555 1_555
H32 C34 1_555 1_555
C35 C30 1_555 1_555
H33 C35 1_555 1_555
H34 C35 1_555 1_555
C36 C28 1_555 1_555
C37 C36 1_555 1_555
C38 C37 1_555 1_555
C39 C38 1_555 1_555
H35 C39 1_555 1_555
C40 C39 1_555 1_555
H36 C40 1_555 1_555
C41 C40 1_555 1_555
H37 C41 1_555 1_555
S1 C38 1_555 1_555
N1 C7 1_555 1_555
N2 C25 1_555 1_555
N3 C20 1_555 1_555
C5 C6 1_555 1_555
C17 C18 1_555 1_555
C19 N1 1_555 1_555
C24 N3 1_555 1_555
C35 C36 1_555 1_555
C37 N2 1_555 1_555
C41 S1 1_555 1_555

#END
