
#######################################################################
#
#                 Cambridge Crystallographic Data Centre
#                                CCDC 
#
#######################################################################
#
# If this CIF has been generated from an entry in the Cambridge 
# Structural Database, then it will include bibliographic, chemical, 
# crystal, experimental, refinement or atomic coordinate data resulting 
# from the CCDC's data processing and validation procedures.
#
#######################################################################

data_MEJDIR
_chemical_formula_moiety         'C16 H11 Cl1 N2 O2'
_chemical_name_systematic        
'4-chloro-N-(8-hydroxyquinolin-2-yl)benzamide unknown solvate'
_symmetry_cell_setting           monoclinic
_symmetry_space_group_name_H-M   'I 2/a'
_symmetry_Int_Tables_number      15
_space_group_name_Hall           '-I 2ya'
loop_
_symmetry_equiv_pos_site_id
_symmetry_equiv_pos_as_xyz
1 x,y,z
2 1/2-x,y,-z
3 1/2+x,1/2+y,1/2+z
4 -x,1/2+y,1/2-z
5 -x,-y,-z
6 1/2+x,-y,z
7 1/2-x,1/2-y,1/2-z
8 x,1/2-y,1/2+z
_cell_length_a                   23.1622(3)
_cell_length_b                   3.82800(10)
_cell_length_c                   31.4881(3)
_cell_angle_alpha                90
_cell_angle_beta                 99.6800(10)
_cell_angle_gamma                90
_cell_volume                     2752.14
_exptl_crystal_colour            colorless
_exptl_crystal_description       block
_cell_formula_units_Z            8
loop_
_atom_site_label
_atom_site_type_symbol
_atom_site_fract_x
_atom_site_fract_y
_atom_site_fract_z
Cl1 Cl 0.38880(3) 0.77202(18) 0.77104(2)
O1 O 0.23017(4) 0.1779(4) 0.43970(4)
H1 H 0.2359 0.2439 0.4648
O2 O 0.46522(6) 0.9051(5) 0.57804(5)
N1 N 0.33011(5) 0.4631(3) 0.48889(4)
N2 N 0.37751(5) 0.6458(4) 0.55492(4)
H2 H 0.3470(10) 0.569(6) 0.5634(7)
C1 C 0.32502(8) 0.2409(5) 0.35855(6)
H3 H 0.3234 0.1848 0.3296
C2 C 0.27681(7) 0.1693(4) 0.37901(5)
H4 H 0.2434 0.0670 0.3634
C3 C 0.27854(6) 0.2482(4) 0.42147(5)
C4 C 0.32935(6) 0.3995(4) 0.44611(5)
C5 C 0.37725(6) 0.4741(4) 0.42475(5)
C6 C 0.37396(7) 0.3915(5) 0.38087(6)
H5 H 0.4055 0.4405 0.3671
C7 C 0.37832(6) 0.6018(4) 0.51095(5)
C8 C 0.42778(6) 0.6950(4) 0.49225(6)
H6 H 0.4604 0.7980 0.5088
C9 C 0.42652(6) 0.6308(5) 0.44983(6)
H7 H 0.4586 0.6909 0.4371
C10 C 0.35211(8) 0.6355(5) 0.68663(6)
H8 H 0.3181 0.5479 0.6948
C11 C 0.39647(9) 0.7678(5) 0.71721(6)
C12 C 0.44710(9) 0.8966(5) 0.70564(6)
H9 H 0.4769 0.9836 0.7265
C13 C 0.45324(7) 0.8956(5) 0.66299(6)
H10 H 0.4874 0.9829 0.6551
C14 C 0.40905(6) 0.7658(4) 0.63128(5)
C15 C 0.35869(7) 0.6346(5) 0.64391(5)
H11 H 0.3280(9) 0.533(6) 0.6238(7)
C16 C 0.42011(6) 0.7791(4) 0.58583(5)
loop_
_geom_bond_atom_site_label_1
_geom_bond_atom_site_label_2
_geom_bond_site_symmetry_1
_geom_bond_site_symmetry_2
Cl1 C11 1_555 1_555
O1 H1 1_555 1_555
O2 C16 1_555 1_555
N1 C4 1_555 1_555
N2 H2 1_555 1_555
C1 H3 1_555 1_555
C2 C1 1_555 1_555
H4 C2 1_555 1_555
C3 O1 1_555 1_555
C4 C3 1_555 1_555
C5 C4 1_555 1_555
C6 C1 1_555 1_555
H5 C6 1_555 1_555
C7 N1 1_555 1_555
C8 C7 1_555 1_555
H6 C8 1_555 1_555
C9 C5 1_555 1_555
H7 C9 1_555 1_555
C10 H8 1_555 1_555
C11 C10 1_555 1_555
C12 C11 1_555 1_555
H9 C12 1_555 1_555
C13 C12 1_555 1_555
H10 C13 1_555 1_555
C14 C13 1_555 1_555
C15 C10 1_555 1_555
H11 C15 1_555 1_555
C16 N2 1_555 1_555
N2 C7 1_555 1_555
C2 C3 1_555 1_555
C5 C6 1_555 1_555
C8 C9 1_555 1_555
C14 C15 1_555 1_555
C14 C16 1_555 1_555

#END
