
#######################################################################
#
#                 Cambridge Crystallographic Data Centre
#                                CCDC 
#
#######################################################################
#
# If this CIF has been generated from an entry in the Cambridge 
# Structural Database, then it will include bibliographic, chemical, 
# crystal, experimental, refinement or atomic coordinate data resulting 
# from the CCDC's data processing and validation procedures.
#
#######################################################################

data_MEJGIT
_chemical_formula_moiety         'C12 H16 B4'
_chemical_name_systematic        
5,10-bis(Tetrahydridoborato-H,H')-4a,10a-dihydroboranthrene-5,10-diyl
_symmetry_cell_setting           monoclinic
_symmetry_space_group_name_H-M   'C 2/m'
_symmetry_Int_Tables_number      12
_space_group_name_Hall           '-C 2y'
loop_
_symmetry_equiv_pos_site_id
_symmetry_equiv_pos_as_xyz
1 x,y,z
2 -x,y,-z
3 1/2+x,1/2+y,z
4 1/2-x,1/2+y,-z
5 -x,-y,-z
6 x,-y,z
7 1/2-x,1/2-y,-z
8 1/2+x,1/2-y,z
_cell_length_a                   11.3511(16)
_cell_length_b                   15.0339(16)
_cell_length_c                   7.0878(11)
_cell_angle_alpha                90
_cell_angle_beta                 105.470(11)
_cell_angle_gamma                90
_cell_volume                     1165.72
_exptl_crystal_colour            colorless
_exptl_crystal_description       needle
_cell_formula_units_Z            4
loop_
_atom_site_label
_atom_site_type_symbol
_atom_site_fract_x
_atom_site_fract_y
_atom_site_fract_z
B1 B 0.13640(19) 0.0000 0.5616(3)
H1 H 0.224(2) 0.0000 0.470(3)
H2 H 0.225(2) 0.0000 0.721(4)
B2 B 0.3003(2) 0.0000 0.6252(4)
H3 H 0.3516(16) 0.0648(13) 0.643(3)
C1 C 0.06496(12) 0.09113(9) 0.53107(19)
C2 C 0.12582(12) 0.17334(10) 0.5627(2)
H4 H 0.2125 0.1740 0.6066
C3 C 0.06371(14) 0.25319(10) 0.5322(2)
H5 H 0.1074 0.3078 0.5549
B1A B -0.13640(19) 0.0000 0.4384(3)
H1A H -0.224(2) 0.0000 0.530(3)
H2A H -0.225(2) 0.0000 0.279(4)
B2A B -0.3003(2) 0.0000 0.3748(4)
H3A H -0.3516(16) 0.0648(13) 0.357(3)
H3D H -0.3516(16) -0.0648(13) 0.357(3)
H3E H 0.3516(16) -0.0648(13) 0.643(3)
C1A C -0.06496(12) 0.09113(9) 0.46893(19)
C1D C -0.06496(12) -0.09113(9) 0.46893(19)
C1E C 0.06496(12) -0.09113(9) 0.53107(19)
C2E C 0.12582(12) -0.17334(10) 0.5627(2)
C2D C -0.12582(12) -0.17334(10) 0.4373(2)
C2A C -0.12582(12) 0.17334(10) 0.4373(2)
H4E H 0.2125 -0.1740 0.6066
H4D H -0.2125 -0.1740 0.3934
H4A H -0.2125 0.1740 0.3934
C3E C 0.06371(14) -0.25319(10) 0.5322(2)
C3D C -0.06371(14) -0.25319(10) 0.4678(2)
C3A C -0.06371(14) 0.25319(10) 0.4678(2)
H5D H -0.1074 -0.3078 0.4451
H5E H 0.1074 -0.3078 0.5549
H5A H -0.1074 0.3078 0.4451
B3 B 0.0000 0.09945(15) 0.0000
H6 H 0.0016(15) 0.1611(11) 0.127(2)
B4 B 0.0000 0.21849(17) 0.0000
H7 H 0.0875(17) 0.2551(13) 0.036(2)
C4 C 0.12536(12) 0.04703(9) 0.04942(19)
C5 C 0.23848(13) 0.09160(10) 0.0918(2)
H8 H 0.2394 0.1548 0.0925
C6 C 0.34846(13) 0.04602(10) 0.1324(2)
H9 H 0.4235 0.0778 0.1601
B3D B 0.0000 -0.09945(15) 0.0000
H6A H -0.0016(15) 0.1611(11) -0.127(2)
H6E H 0.0016(15) -0.1611(11) 0.127(2)
H6D H -0.0016(15) -0.1611(11) -0.127(2)
B4D B 0.0000 -0.21849(17) 0.0000
H7E H 0.0875(17) -0.2551(13) 0.036(2)
H7D H -0.0875(17) -0.2551(13) -0.036(2)
H7A H -0.0875(17) 0.2551(13) -0.036(2)
C4E C 0.12536(12) -0.04703(9) 0.04942(19)
C4D C -0.12536(12) -0.04703(9) -0.04942(19)
C4A C -0.12536(12) 0.04703(9) -0.04942(19)
C5A C -0.23848(13) 0.09160(10) -0.0918(2)
C5D C -0.23848(13) -0.09160(10) -0.0918(2)
C5E C 0.23848(13) -0.09160(10) 0.0918(2)
H8A H -0.2394 0.1548 -0.0925
H8D H -0.2394 -0.1548 -0.0925
H8E H 0.2394 -0.1548 0.0925
C6A C -0.34846(13) 0.04602(10) -0.1324(2)
C6D C -0.34846(13) -0.04602(10) -0.1324(2)
C6E C 0.34846(13) -0.04602(10) 0.1324(2)
H9D H -0.4235 -0.0778 -0.1601
H9A H -0.4235 0.0778 -0.1601
H9E H 0.4235 -0.0778 0.1601
loop_
_geom_bond_atom_site_label_1
_geom_bond_atom_site_label_2
_geom_bond_site_symmetry_1
_geom_bond_site_symmetry_2
B1 H1 1_555 1_555
H1 B2 1_555 1_555
H2 B1 1_555 1_555
B2 H2 1_555 1_555
H3 B2 1_555 1_555
C1 B1 1_555 1_555
C2 C1 1_555 1_555
H4 C2 1_555 1_555
C3 C2 1_555 1_555
H5 C3 1_555 1_555
B3 H6 1_555 1_555
H6 B4 1_555 1_555
B4 H7 1_555 1_555
C4 B3 1_555 1_555
C5 C4 1_555 1_555
H8 C5 1_555 1_555
C6 C5 1_555 1_555
H9 C6 1_555 1_555
B1A H1A 1_555 1_555
H1A B2A 1_555 1_555
H2A B1A 1_555 1_555
B2A H2A 1_555 1_555
H3A B2A 1_555 1_555
H3D B2A 1_555 1_555
H3E B2 1_555 1_555
C1A C1 1_555 1_555
C1D B1A 1_555 1_555
C1E B1 1_555 1_555
C2E C1E 1_555 1_555
C2D C1D 1_555 1_555
C2A C1A 1_555 1_555
H4E C2E 1_555 1_555
H4D C2D 1_555 1_555
H4A C2A 1_555 1_555
C3E C2E 1_555 1_555
C3D C2D 1_555 1_555
C3A C3 1_555 1_555
H5D C3D 1_555 1_555
H5E C3E 1_555 1_555
H5A C3A 1_555 1_555
B3D H6E 1_555 1_555
H6A B3 1_555 1_555
H6E B4D 1_555 1_555
H6D B3D 1_555 1_555
B4D H6D 1_555 1_555
H7E B4D 1_555 1_555
H7D B4D 1_555 1_555
H7A B4 1_555 1_555
C4E C4 1_555 1_555
C4D B3D 1_555 1_555
C4A B3 1_555 1_555
C5A C4A 1_555 1_555
C5D C4D 1_555 1_555
C5E C4E 1_555 1_555
H8A C5A 1_555 1_555
H8D C5D 1_555 1_555
H8E C5E 1_555 1_555
C6A C5A 1_555 1_555
C6D C5D 1_555 1_555
C6E C6 1_555 1_555
H9D C6D 1_555 1_555
H9A C6A 1_555 1_555
H9E C6E 1_555 1_555
B4 H6A 1_555 1_555
B1A C1A 1_555 1_555
C1D C1E 1_555 1_555
C2A C3A 1_555 1_555
C3E C3D 1_555 1_555
B3D C4E 1_555 1_555
C4D C4A 1_555 1_555
C5E C6E 1_555 1_555
C6A C6D 1_555 1_555

#END
