
#######################################################################
#
#                 Cambridge Crystallographic Data Centre
#                                CCDC 
#
#######################################################################
#
# If this CIF has been generated from an entry in the Cambridge 
# Structural Database, then it will include bibliographic, chemical, 
# crystal, experimental, refinement or atomic coordinate data resulting 
# from the CCDC's data processing and validation procedures.
#
#######################################################################

data_MEJHAN
_chemical_name_common            'amitriptyline beta-cyclodextrin hydrate'
_chemical_formula_moiety         'C42 H70 O35,C20 H23 N1,13.1(H2 O1)'
_chemical_name_systematic        
'3-(10,11-dihydro-5H-dibenzo[a,d][7]annulen-5-ylidene)-N,N-dimethylpropan-1-amine \b-cyclodextrin hydrate'
_chemical_properties_biological  'Amitriptyline is a tricyclic antidepressant.'
_symmetry_cell_setting           orthorhombic
_symmetry_space_group_name_H-M   'P 21 21 21'
_symmetry_Int_Tables_number      19
_space_group_name_Hall           'P 2ac 2ab'
loop_
_symmetry_equiv_pos_site_id
_symmetry_equiv_pos_as_xyz
1 x,y,z
2 1/2-x,-y,1/2+z
3 1/2+x,1/2-y,-z
4 -x,1/2+y,1/2-z
_cell_length_a                   15.1868(15)
_cell_length_b                   18.5587(18)
_cell_length_c                   29.501(3)
_cell_angle_alpha                90
_cell_angle_beta                 90
_cell_angle_gamma                90
_cell_volume                     8314.78
_exptl_crystal_colour            colorless
_exptl_crystal_description       platelet
_cell_formula_units_Z            4
loop_
_atom_site_label
_atom_site_type_symbol
_atom_site_fract_x
_atom_site_fract_y
_atom_site_fract_z
C1 C 0.25066(17) 0.09902(15) 0.77649(10)
H1 H 0.3099 0.1173 0.7702
C2 C 0.25767(17) 0.03551(16) 0.80920(10)
H2 H 0.2933 0.0504 0.8353
O1 O 0.30244(14) -0.02183(12) 0.78637(8)
H3 H 0.2973 -0.0591 0.8011
C3 C 0.16785(16) 0.01223(14) 0.82622(10)
H4 H 0.1351 -0.0096 0.8011
O2 O 0.18021(14) -0.04025(13) 0.86063(8)
H5 H 0.1332 -0.0481 0.8734
C4 C 0.11685(16) 0.07690(14) 0.84356(10)
H6 H 0.1464 0.0970 0.8703
O3 O 0.03111(11) 0.05128(10) 0.85583(6)
C5 C 0.11142(19) 0.13320(14) 0.80680(11)
H7 H 0.0841 0.1116 0.7800
O4 O 0.20020(14) 0.15462(10) 0.79542(8)
C6 C 0.0603(3) 0.19986(17) 0.81966(13)
H8 H 0.0671 0.2357 0.7960
H9 H -0.0017 0.1878 0.8217
O5 O 0.0877(2) 0.22963(16) 0.86109(12)
H10 H 0.0743 0.2024 0.8819
C7 C 0.25539(17) 0.09499(16) 0.59828(10)
H11 H 0.2839 0.1009 0.5687
C8 C 0.28995(18) 0.02667(16) 0.62122(11)
H12 H 0.3539 0.0306 0.6248
O6 O 0.27046(17) -0.03500(13) 0.59391(9)
H13 H 0.3084 -0.0395 0.5743
C9 C 0.24848(16) 0.01817(13) 0.66730(10)
H14 H 0.1851 0.0100 0.6636
O7 O 0.28602(14) -0.04195(10) 0.69007(8)
H15 H 0.2805 -0.0368 0.7175
C10 C 0.26228(15) 0.08576(13) 0.69493(9)
H16 H 0.3248 0.0904 0.7026
O8 O 0.21247(11) 0.07565(10) 0.73569(7)
C11 C 0.23232(16) 0.15306(13) 0.66962(10)
H17 H 0.1683 0.1509 0.6655
O9 O 0.27362(12) 0.15562(10) 0.62584(7)
C12 C 0.2556(2) 0.22315(14) 0.69267(11)
H18 H 0.2377 0.2630 0.6735
H19 H 0.2232 0.2268 0.7209
O10 O 0.34651(15) 0.22885(12) 0.70173(9)
H20 H 0.3540 0.2365 0.7288
C13 C -0.04571(16) 0.10365(14) 0.50651(10)
H21 H -0.0834 0.1125 0.4801
C14 C 0.01906(17) 0.04469(16) 0.49507(10)
H22 H 0.0534 0.0590 0.4684
O11 O -0.02949(15) -0.01929(12) 0.48491(9)
H23 H 0.0043 -0.0506 0.4759
C15 C 0.08067(17) 0.03221(14) 0.53452(10)
H24 H 0.0461 0.0136 0.5600
O12 O 0.14494(16) -0.02051(13) 0.52267(9)
H25 H 0.1839 -0.0287 0.5445
C16 C 0.12512(17) 0.10177(14) 0.54950(10)
H26 H 0.1705 0.1159 0.5276
O13 O 0.16379(11) 0.08675(11) 0.59225(7)
C17 C 0.05797(17) 0.16236(13) 0.55529(10)
H27 H 0.0227 0.1532 0.5825
O14 O 0.00086(12) 0.16779(10) 0.51695(7)
C18 C 0.1031(2) 0.23557(16) 0.55982(14)
H28 H 0.1471 0.2338 0.5836
H29 H 0.1321 0.2481 0.5316
O15 O 0.03856(19) 0.28755(12) 0.57040(11)
H30 H 0.0167 0.3262 0.5875
C19 C -0.36449(18) 0.0812(2) 0.57679(11)
H31 H -0.4274 0.0919 0.5735
C20 C -0.3361(2) 0.0321(2) 0.53722(12)
H32 H -0.3501 0.0569 0.5088
O16 O -0.3828(2) -0.0325(2) 0.53803(10)
H33 H -0.3710 -0.0546 0.5613
C21 C -0.23690(19) 0.02140(17) 0.53933(11)
H34 H -0.2219 -0.0039 0.5674
O17 O -0.21013(16) -0.02113(15) 0.50167(8)
H35 H -0.1562 -0.0219 0.5003
O18 O -0.09865(11) 0.08170(11) 0.54299(7)
C22 C -0.19239(17) 0.09428(17) 0.53917(10)
H36 H -0.2053 0.1195 0.5108
C23 C -0.22428(18) 0.13867(18) 0.57907(11)
H37 H -0.2081 0.1143 0.6073
O19 O -0.31817(14) 0.14586(14) 0.57694(8)
C24 C -0.1900(2) 0.2148(2) 0.58008(15)
H38 H -0.2094 0.2383 0.6077
H39 H -0.1261 0.2141 0.5801
O20 O -0.2206(2) 0.25422(17) 0.54191(12)
H40 H -0.1868 0.2482 0.5206
C25 C -0.50265(16) -0.00985(15) 0.72969(10)
H41 H -0.5552 -0.0200 0.7479
C26 C -0.49342(18) -0.06781(16) 0.69351(11)
H42 H -0.5478 -0.0692 0.6757
O21 O -0.48129(18) -0.13597(13) 0.71406(10)
H43 H -0.5291 -0.1519 0.7223
C27 C -0.41683(19) -0.05010(17) 0.66167(11)
H44 H -0.3614 -0.0532 0.6786
O22 O -0.4147(2) -0.10026(15) 0.62505(10)
H45 H -0.4054 -0.0787 0.6013
C28 C -0.42800(17) 0.02632(16) 0.64382(10)
H46 H -0.4804 0.0286 0.6245
O23 O -0.35195(12) 0.04222(14) 0.61744(7)
C29 C -0.43759(17) 0.07977(16) 0.68275(10)
H47 H -0.3842 0.0780 0.7014
O24 O -0.51121(12) 0.05859(11) 0.71006(7)
C30 C -0.4532(2) 0.15630(18) 0.66833(12)
H48 H -0.4616 0.1861 0.6950
H49 H -0.4018 0.1739 0.6523
O25 O -0.52894(16) 0.16243(14) 0.63956(9)
H50 H -0.5694 0.1812 0.6537
C31 C -0.33783(16) 0.00034(14) 0.88784(9)
H51 H -0.3320 0.0039 0.9208
C32 C -0.38030(17) -0.07142(14) 0.87547(10)
H52 H -0.4386 -0.0739 0.8896
O26 O -0.32759(14) -0.12810(11) 0.89278(8)
H53 H -0.3587 -0.1564 0.9069
C33 C -0.39087(17) -0.07648(14) 0.82506(10)
H54 H -0.3323 -0.0791 0.8113
O27 O -0.43942(14) -0.13978(11) 0.81246(8)
H55 H -0.4054 -0.1737 0.8094
C34 C -0.43867(16) -0.01086(14) 0.80590(9)
H56 H -0.5014 -0.0132 0.8135
O28 O -0.42736(11) -0.01365(11) 0.75793(7)
C35 C -0.39900(18) 0.05919(14) 0.82367(10)
H57 H -0.3401 0.0646 0.8105
O29 O -0.39032(12) 0.05780(10) 0.87167(7)
C36 C -0.4522(2) 0.12572(16) 0.81184(12)
H58 H -0.4232 0.1682 0.8239
H59 H -0.4558 0.1307 0.7792
O30 O -0.53826(15) 0.12012(14) 0.83031(9)
H60 H -0.5349 0.1112 0.8575
C37 C 0.00138(16) 0.06578(14) 0.89991(10)
H61 H 0.0508 0.0837 0.9181
C38 C -0.03224(17) -0.00471(15) 0.92070(10)
H62 H -0.0485 0.0044 0.9523
O31 O 0.03432(13) -0.05826(12) 0.91979(9)
H63 H 0.0826 -0.0389 0.9173
C39 C -0.11282(16) -0.03067(13) 0.89558(10)
H64 H -0.0964 -0.0431 0.8644
O32 O -0.14811(13) -0.09293(10) 0.91748(8)
H65 H -0.1095 -0.1236 0.9200
C40 C -0.18140(15) 0.02858(13) 0.89477(10)
H66 H -0.2017 0.0388 0.9256
O33 O -0.25368(11) 0.00220(10) 0.86765(6)
C41 C -0.14212(16) 0.09679(13) 0.87358(11)
H67 H -0.1248 0.0875 0.8421
O34 O -0.06607(12) 0.11739(10) 0.90013(7)
C42 C -0.2044(2) 0.16010(16) 0.87570(17)
H68 H -0.2564 0.1506 0.8575
H69 H -0.2228 0.1686 0.9067
O35 O -0.15812(17) 0.22174(13) 0.85838(13)
H70 H -0.1922 0.2558 0.8562
O36 O 0.3777(2) 0.24303(16) 0.79582(13)
O37 O 0.45233(19) 0.27191(13) 0.57820(9)
O38 O 0.6329(2) 0.32677(18) 0.57742(12)
O39 O 0.2916(2) -0.18511(16) 0.66219(15)
O40 O 0.3735(3) -0.1422(2) 0.82953(14)
O41 O 0.3709(4) -0.2151(3) 0.74507(18)
O42 O 0.4508(13) 0.7900(12) 0.6070(7)
O43 O 0.4194(4) 0.1871(2) 0.50177(19)
O44 O 0.7442(2) 0.8082(2) 0.6203(3)
O45 O 0.2050(5) 0.0355(4) 0.4282(3)
O46 O 0.2326(15) -0.0360(12) 0.4393(8)
O47 O 0.773(2) 0.8252(16) 0.5144(13)
O48 O 0.5801(4) 0.5891(4) 0.57768(19)
O49 O 0.4244(2) 0.0165(3) 0.52394(15)
O50 O 0.3405(11) 0.0504(9) 0.4847(6)
O51 O 0.4306(9) -0.0743(8) 0.5355(5)
O52 O 0.4349(13) -0.0487(13) 0.5327(7)
O53 O 0.7053(10) 0.7057(9) 0.5608(5)
N1 N 0.0441(3) -0.21990(18) 0.56697(13)
C43 C -0.0034(3) -0.1546(2) 0.58295(16)
H71 H -0.0646 -0.1664 0.5890
H72 H -0.0018 -0.1177 0.5597
C44 C 0.0394(3) -0.1267(2) 0.62553(16)
H73 H 0.1001 -0.1141 0.6192
H74 H 0.0392 -0.1643 0.6484
C45 C -0.0085(3) -0.0616(2) 0.64340(16)
H75 H -0.0260 -0.0277 0.6220
C46 C -0.0288(2) -0.04724(19) 0.68666(14)
C47 C -0.0697(2) 0.0229(2) 0.69745(14)
C48 C -0.0288(3) 0.0845(2) 0.6808(2)
H76 H 0.0198 0.0791 0.6619
C49 C -0.0566(5) 0.1517(3) 0.6908(3)
H77 H -0.0249 0.1916 0.6808
C50 C -0.1318(6) 0.1605(3) 0.7158(3)
H78 H -0.1548 0.2063 0.7207
C51 C -0.1725(4) 0.1019(3) 0.7332(2)
H79 H -0.2208 0.1086 0.7521
C52 C -0.1448(3) 0.0319(3) 0.72401(15)
C53 C -0.1935(3) -0.0262(4) 0.7469(3)
H80 H -0.1953 -0.0137 0.7788
H81 H -0.2536 -0.0237 0.7360
C54 C -0.1681(3) -0.0997(3) 0.7445(3)
H82 H -0.1795 -0.1170 0.7141
H83 H -0.2052 -0.1271 0.7650
C55 C -0.0697(3) -0.1158(2) 0.75645(17)
C56 C -0.0463(4) -0.1495(2) 0.7963(2)
H84 H -0.0891 -0.1629 0.8172
C57 C 0.0425(6) -0.1633(3) 0.8050(3)
H85 H 0.0596 -0.1846 0.8321
C58 C 0.1065(4) -0.1446(3) 0.7720(2)
H86 H 0.1653 -0.1567 0.7763
C59 C 0.0819(3) -0.1104(2) 0.73564(19)
H87 H 0.1253 -0.0963 0.7153
C60 C -0.0049(2) -0.09344(18) 0.72520(16)
C61 C -0.0081(6) -0.2588(3) 0.5346(2)
H88 H -0.0640 -0.2707 0.5479
H89 H 0.0220 -0.3022 0.5261
H90 H -0.0172 -0.2295 0.5083
C62 C 0.1336(5) -0.2019(3) 0.5476(2)
H91 H 0.1624 -0.2454 0.5381
H92 H 0.1686 -0.1785 0.5704
H93 H 0.1268 -0.1703 0.5221
O54? O 0.3045(16) -0.1598(13) 0.8303(8)
O55? O 0.4006(6) 0.6798(5) 0.5603(3)
O56? O 0.4061(8) 0.8486(10) 0.5890(6)
O57? O 0.4253(14) 0.8166(11) 0.5948(7)
O58? O 0.4244(7) 0.1507(7) 0.5026(4)
O59? O 0.7318(9) 0.7905(8) 0.6446(7)
O60? O 0.7524(16) 0.8321(6) 0.5017(4)
O61? O 0.729(2) 0.8299(15) 0.5265(12)
O62? O 0.337(3) -0.127(2) 0.5032(13)
O63? O 0.302(2) -0.0978(18) 0.4715(12)
O64? O 0.5382(9) 0.6289(7) 0.5719(5)
O65? O 0.7273(13) 0.6559(12) 0.5662(7)
O66? O 0.3691(14) 0.0440(11) 0.4988(7)
loop_
_geom_bond_atom_site_label_1
_geom_bond_atom_site_label_2
_geom_bond_site_symmetry_1
_geom_bond_site_symmetry_2
C1 H1 1_555 1_555
C2 C1 1_555 1_555
H2 C2 1_555 1_555
O1 C2 1_555 1_555
H3 O1 1_555 1_555
C3 C2 1_555 1_555
H4 C3 1_555 1_555
O2 C3 1_555 1_555
H5 O2 1_555 1_555
C4 C3 1_555 1_555
H6 C4 1_555 1_555
O3 C4 1_555 1_555
C5 C4 1_555 1_555
H7 C5 1_555 1_555
O4 C1 1_555 1_555
C6 C5 1_555 1_555
H8 C6 1_555 1_555
H9 C6 1_555 1_555
O5 C6 1_555 1_555
H10 O5 1_555 1_555
C7 H11 1_555 1_555
C8 C7 1_555 1_555
H12 C8 1_555 1_555
O6 C8 1_555 1_555
H13 O6 1_555 1_555
C9 C8 1_555 1_555
H14 C9 1_555 1_555
O7 C9 1_555 1_555
H15 O7 1_555 1_555
C10 C9 1_555 1_555
H16 C10 1_555 1_555
O8 C1 1_555 1_555
C11 C10 1_555 1_555
H17 C11 1_555 1_555
O9 C7 1_555 1_555
C12 C11 1_555 1_555
H18 C12 1_555 1_555
H19 C12 1_555 1_555
O10 C12 1_555 1_555
H20 O10 1_555 1_555
C13 H21 1_555 1_555
C14 C13 1_555 1_555
H22 C14 1_555 1_555
O11 C14 1_555 1_555
H23 O11 1_555 1_555
C15 C14 1_555 1_555
H24 C15 1_555 1_555
O12 C15 1_555 1_555
H25 O12 1_555 1_555
C16 C15 1_555 1_555
H26 C16 1_555 1_555
O13 C7 1_555 1_555
C17 C16 1_555 1_555
H27 C17 1_555 1_555
O14 C13 1_555 1_555
C18 C17 1_555 1_555
H28 C18 1_555 1_555
H29 C18 1_555 1_555
O15 C18 1_555 1_555
H30 O15 1_555 1_555
C19 H31 1_555 1_555
C20 C19 1_555 1_555
H32 C20 1_555 1_555
O16 C20 1_555 1_555
H33 O16 1_555 1_555
C21 C20 1_555 1_555
H34 C21 1_555 1_555
O17 C21 1_555 1_555
H35 O17 1_555 1_555
O18 C13 1_555 1_555
C22 C21 1_555 1_555
H36 C22 1_555 1_555
C23 C22 1_555 1_555
H37 C23 1_555 1_555
O19 C19 1_555 1_555
C24 C23 1_555 1_555
H38 C24 1_555 1_555
H39 C24 1_555 1_555
O20 C24 1_555 1_555
H40 O20 1_555 1_555
C25 H41 1_555 1_555
C26 C25 1_555 1_555
H42 C26 1_555 1_555
O21 C26 1_555 1_555
H43 O21 1_555 1_555
C27 C26 1_555 1_555
H44 C27 1_555 1_555
O22 C27 1_555 1_555
H45 O22 1_555 1_555
C28 C27 1_555 1_555
H46 C28 1_555 1_555
O23 C19 1_555 1_555
C29 C28 1_555 1_555
H47 C29 1_555 1_555
O24 C25 1_555 1_555
C30 C29 1_555 1_555
H48 C30 1_555 1_555
H49 C30 1_555 1_555
O25 C30 1_555 1_555
H50 O25 1_555 1_555
C31 H51 1_555 1_555
C32 C31 1_555 1_555
H52 C32 1_555 1_555
O26 C32 1_555 1_555
H53 O26 1_555 1_555
C33 C32 1_555 1_555
H54 C33 1_555 1_555
O27 C33 1_555 1_555
H55 O27 1_555 1_555
C34 C33 1_555 1_555
H56 C34 1_555 1_555
O28 C25 1_555 1_555
C35 C34 1_555 1_555
H57 C35 1_555 1_555
O29 C31 1_555 1_555
C36 C35 1_555 1_555
H58 C36 1_555 1_555
H59 C36 1_555 1_555
O30 C36 1_555 1_555
H60 O30 1_555 1_555
C37 O3 1_555 1_555
H61 C37 1_555 1_555
C38 C37 1_555 1_555
H62 C38 1_555 1_555
O31 C38 1_555 1_555
H63 O31 1_555 1_555
C39 C38 1_555 1_555
H64 C39 1_555 1_555
O32 C39 1_555 1_555
H65 O32 1_555 1_555
C40 C39 1_555 1_555
H66 C40 1_555 1_555
O33 C31 1_555 1_555
C41 C40 1_555 1_555
H67 C41 1_555 1_555
O34 C37 1_555 1_555
C42 C41 1_555 1_555
H68 C42 1_555 1_555
H69 C42 1_555 1_555
O35 C42 1_555 1_555
H70 O35 1_555 1_555
N1 C43 1_555 1_555
C43 H71 1_555 1_555
H72 C43 1_555 1_555
C44 C43 1_555 1_555
H73 C44 1_555 1_555
H74 C44 1_555 1_555
C45 C44 1_555 1_555
H75 C45 1_555 1_555
C46 C45 1_555 1_555
C47 C46 1_555 1_555
C48 C47 1_555 1_555
H76 C48 1_555 1_555
C49 C48 1_555 1_555
H77 C49 1_555 1_555
C50 C49 1_555 1_555
H78 C50 1_555 1_555
C51 C50 1_555 1_555
H79 C51 1_555 1_555
C52 C47 1_555 1_555
C53 C52 1_555 1_555
H80 C53 1_555 1_555
H81 C53 1_555 1_555
C54 C53 1_555 1_555
H82 C54 1_555 1_555
H83 C54 1_555 1_555
C55 C54 1_555 1_555
C56 C55 1_555 1_555
H84 C56 1_555 1_555
C57 C56 1_555 1_555
H85 C57 1_555 1_555
C58 C57 1_555 1_555
H86 C58 1_555 1_555
C59 C58 1_555 1_555
H87 C59 1_555 1_555
C60 C46 1_555 1_555
C61 N1 1_555 1_555
H88 C61 1_555 1_555
H89 C61 1_555 1_555
H90 C61 1_555 1_555
C62 N1 1_555 1_555
H91 C62 1_555 1_555
H92 C62 1_555 1_555
H93 C62 1_555 1_555
C5 O4 1_555 1_555
C10 O8 1_555 1_555
C11 O9 1_555 1_555
C16 O13 1_555 1_555
C17 O14 1_555 1_555
O18 C22 1_555 1_555
C23 O19 1_555 1_555
C28 O23 1_555 1_555
C29 O24 1_555 1_555
C34 O28 1_555 1_555
C35 O29 1_555 1_555
C40 O33 1_555 1_555
C41 O34 1_555 1_555
C51 C52 1_555 1_555
C55 C60 1_555 1_555
C59 C60 1_555 1_555

#END
