
#######################################################################
#
#                 Cambridge Crystallographic Data Centre
#                                CCDC 
#
#######################################################################
#
# If this CIF has been generated from an entry in the Cambridge 
# Structural Database, then it will include bibliographic, chemical, 
# crystal, experimental, refinement or atomic coordinate data resulting 
# from the CCDC's data processing and validation procedures.
#
#######################################################################

data_MEJMOF
_chemical_formula_moiety         'C17 H18 Cl1 N1 O6'
_chemical_name_systematic        
'Methyl (4R*,4aR*,8aS*)-4-(4-chlorophenyl)-8a-hydroxy-4a-nitro-4a,5,6,7,8,8a-hexahydro-4H-chromene-2-carboxylate'
_symmetry_cell_setting           monoclinic
_symmetry_space_group_name_H-M   'P 21/c'
_symmetry_Int_Tables_number      14
_space_group_name_Hall           '-P 2ybc'
loop_
_symmetry_equiv_pos_site_id
_symmetry_equiv_pos_as_xyz
1 x,y,z
2 -x,1/2+y,1/2-z
3 -x,-y,-z
4 x,1/2-y,1/2+z
_cell_length_a                   14.495(6)
_cell_length_b                   9.966(4)
_cell_length_c                   11.788(4)
_cell_angle_alpha                90
_cell_angle_beta                 95.592(4)
_cell_angle_gamma                90
_cell_volume                     1694.76
_exptl_crystal_colour            colorless
_exptl_crystal_description       block
_cell_formula_units_Z            4
loop_
_atom_site_label
_atom_site_type_symbol
_atom_site_fract_x
_atom_site_fract_y
_atom_site_fract_z
C1 C 0.29897(18) 0.0345(3) 0.2514(2)
H1 H 0.2559 -0.0323 0.2622
C2 C 0.3706(2) 0.0592(3) 0.3360(2)
H2 H 0.3749 0.0099 0.4033
C3 C 0.43460(19) 0.1557(3) 0.3199(2)
C4 C 0.42977(17) 0.2289(3) 0.2214(2)
H3 H 0.4746 0.2932 0.2105
C5 C 0.35733(16) 0.2061(3) 0.1383(2)
H4 H 0.3530 0.2575 0.0721
C6 C 0.29089(16) 0.1083(2) 0.1512(2)
C7 C 0.21106(15) 0.0848(2) 0.05973(18)
H5 H 0.1617 0.0407 0.0972
C8 C 0.17157(14) 0.2140(2) 0.0116(2)
H6 H 0.1675 0.2863 0.0608
C9 C 0.14236(14) 0.2305(2) -0.0967(2)
C10 C 0.09867(15) 0.3537(2) -0.1471(2)
C11 C 0.06480(19) 0.5824(3) -0.1152(3)
H7 H 0.0873 0.6046 -0.1868
H8 H 0.0822 0.6517 -0.0607
H9 H -0.0015 0.5748 -0.1252
C12 C 0.15688(15) -0.0035(2) -0.13799(19)
C13 C 0.17891(16) -0.0807(2) -0.2422(2)
H10 H 0.1292 -0.0679 -0.3026
H11 H 0.1824 -0.1756 -0.2242
C14 C 0.26985(18) -0.0357(3) -0.2838(2)
H12 H 0.2823 -0.0888 -0.3496
H13 H 0.2650 0.0575 -0.3072
C15 C 0.34890(17) -0.0514(3) -0.1916(2)
H14 H 0.4048 -0.0141 -0.2179
H15 H 0.3596 -0.1461 -0.1765
C16 C 0.32882(15) 0.0191(2) -0.0809(2)
H16 H 0.3768 -0.0063 -0.0217
H17 H 0.3340 0.1151 -0.0923
C17 C 0.23473(15) -0.0090(2) -0.0375(2)
Cl1 Cl 0.52408(5) 0.18841(11) 0.42547(7)
N1 N 0.23354(16) -0.1542(2) 0.0086(2)
O1 O 0.06260(12) 0.36087(17) -0.24280(15)
O2 O 0.10461(12) 0.45586(16) -0.07448(15)
O3 O 0.14668(11) 0.13283(15) -0.17782(13)
O4 O 0.07634(11) -0.04534(18) -0.09328(14)
H18 H 0.0361 -0.0606 -0.1455
O5 O 0.27152(14) -0.24113(19) -0.04116(18)
O6 O 0.19111(18) -0.1776(2) 0.0899(2)
loop_
_geom_bond_atom_site_label_1
_geom_bond_atom_site_label_2
_geom_bond_site_symmetry_1
_geom_bond_site_symmetry_2
C1 H1 1_555 1_555
C2 C1 1_555 1_555
H2 C2 1_555 1_555
C3 C2 1_555 1_555
C4 C3 1_555 1_555
H3 C4 1_555 1_555
C5 C4 1_555 1_555
H4 C5 1_555 1_555
C6 C1 1_555 1_555
C7 C6 1_555 1_555
H5 C7 1_555 1_555
C8 C7 1_555 1_555
H6 C8 1_555 1_555
C9 C8 1_555 1_555
C10 C9 1_555 1_555
C11 H7 1_555 1_555
H8 C11 1_555 1_555
H9 C11 1_555 1_555
C12 C13 1_555 1_555
C13 H10 1_555 1_555
H11 C13 1_555 1_555
C14 C13 1_555 1_555
H12 C14 1_555 1_555
H13 C14 1_555 1_555
C15 C14 1_555 1_555
H14 C15 1_555 1_555
H15 C15 1_555 1_555
C16 C15 1_555 1_555
H16 C16 1_555 1_555
H17 C16 1_555 1_555
C17 C7 1_555 1_555
Cl1 C3 1_555 1_555
N1 C17 1_555 1_555
O1 C10 1_555 1_555
O2 C10 1_555 1_555
O3 C9 1_555 1_555
O4 C12 1_555 1_555
H18 O4 1_555 1_555
O5 N1 1_555 1_555
O6 N1 1_555 1_555
C5 C6 1_555 1_555
C11 O2 1_555 1_555
C12 C17 1_555 1_555
C12 O3 1_555 1_555
C16 C17 1_555 1_555

#END
