
#######################################################################
#
#                 Cambridge Crystallographic Data Centre
#                                CCDC 
#
#######################################################################
#
# If this CIF has been generated from an entry in the Cambridge 
# Structural Database, then it will include bibliographic, chemical, 
# crystal, experimental, refinement or atomic coordinate data resulting 
# from the CCDC's data processing and validation procedures.
#
#######################################################################

data_MEJSOM
_chemical_formula_moiety         'C20 H26 N4 O8 4+,2(H2 O1),4(Cl1 1-)'
_chemical_name_systematic        
"2,2'-(ethane-1,2-diylbis{[(carboxymethyl)azaniumyl]methylene})bis(6-carboxypyridin-1-ium) tetrakis(chloride) dihydrate"
_symmetry_cell_setting           monoclinic
_symmetry_space_group_name_H-M   'P 21/c'
_symmetry_Int_Tables_number      14
_space_group_name_Hall           '-P 2ybc'
loop_
_symmetry_equiv_pos_site_id
_symmetry_equiv_pos_as_xyz
1 x,y,z
2 -x,1/2+y,1/2-z
3 -x,-y,-z
4 x,1/2-y,1/2+z
_cell_length_a                   9.8590(11)
_cell_length_b                   6.1687(8)
_cell_length_c                   22.747(2)
_cell_angle_alpha                90
_cell_angle_beta                 101.898(4)
_cell_angle_gamma                90
_cell_volume                     1353.69
_exptl_crystal_colour            colorless
_exptl_crystal_description       needle
_cell_formula_units_Z            2
loop_
_atom_site_label
_atom_site_type_symbol
_atom_site_fract_x
_atom_site_fract_y
_atom_site_fract_z
O1 O 0.12207(15) 0.8981(2) 0.23106(6)
O2 O 0.31162(16) 0.7881(3) 0.19764(7)
H1 H 0.286(4) 0.914(6) 0.1701(16)
O3 O 0.23761(16) 0.9740(3) 0.49459(7)
O4 O 0.42490(17) 0.8043(3) 0.54885(7)
H2 H 0.453(3) 0.943(5) 0.5616(13)
N1 N 0.16338(17) 0.5738(3) 0.31412(7)
H3 H 0.096(3) 0.686(5) 0.3161(11)
N2 N 0.12067(17) 0.5969(3) 0.44804(7)
H4 H 0.108(3) 0.727(5) 0.4274(11)
C1 C 0.2178(2) 0.7736(4) 0.23089(9)
C2 C 0.24166(19) 0.5803(3) 0.27226(9)
C3 C 0.3379(2) 0.4195(4) 0.26977(10)
H5 H 0.392439 0.423061 0.239870
C4 C 0.3539(2) 0.2527(4) 0.31161(10)
H6 H 0.419139 0.140322 0.310497
C5 C 0.2733(2) 0.2516(3) 0.35521(10)
H7 H 0.283653 0.138303 0.384067
C6 C 0.1784(2) 0.4155(3) 0.35647(9)
C7 C 0.0872(2) 0.4159(3) 0.40223(9)
H8 H 0.097206 0.275067 0.423581
H9 H -0.010732 0.429811 0.381005
C8 C 0.2661(2) 0.5875(3) 0.48428(9)
H10 H 0.330265 0.540660 0.458537
H11 H 0.271725 0.481614 0.517395
C9 C 0.3067(2) 0.8126(4) 0.50984(9)
C10 C 0.0132(2) 0.6104(3) 0.48697(9)
H12 H -0.074674 0.666769 0.462656
H13 H 0.045460 0.713589 0.520261
O1B O -0.12207(15) 0.1019(2) 0.76894(6)
O2B O -0.31162(16) 0.2119(3) 0.80236(7)
H1B H -0.286(4) 0.086(6) 0.8299(16)
O3B O -0.23761(16) 0.0260(3) 0.50541(7)
O4B O -0.42490(17) 0.1957(3) 0.45115(7)
H2B H -0.453(3) 0.057(5) 0.4384(13)
N1B N -0.16338(17) 0.4262(3) 0.68588(7)
H3B H -0.096(3) 0.314(5) 0.6839(11)
N2B N -0.12067(17) 0.4031(3) 0.55196(7)
H4B H -0.108(3) 0.273(5) 0.5726(11)
C1B C -0.2178(2) 0.2264(4) 0.76911(9)
C2B C -0.24166(19) 0.4197(3) 0.72774(9)
C3B C -0.3379(2) 0.5805(4) 0.73023(10)
H5B H -0.392439 0.576939 0.760130
C4B C -0.3539(2) 0.7473(4) 0.68839(10)
H6B H -0.419139 0.859678 0.689503
C5B C -0.2733(2) 0.7484(3) 0.64479(10)
H7B H -0.283653 0.861697 0.615933
C6B C -0.1784(2) 0.5845(3) 0.64353(9)
C7B C -0.0872(2) 0.5841(3) 0.59777(9)
H8B H -0.097206 0.724933 0.576419
H9B H 0.010732 0.570189 0.618995
C8B C -0.2661(2) 0.4125(3) 0.51572(9)
H10B H -0.330265 0.459340 0.541463
H11B H -0.271725 0.518386 0.482605
C9B C -0.3067(2) 0.1874(4) 0.49016(9)
C10B C -0.0132(2) 0.3896(3) 0.51303(9)
H12B H 0.074674 0.333231 0.537344
H13B H -0.045460 0.286411 0.479739
O5 O 0.26238(17) 1.1069(3) 0.12633(7)
H14 H 0.211(3) 1.200(5) 0.1362(12)
H15 H 0.336(4) 1.168(6) 0.1204(14)
Cl1 Cl -0.02706(5) 0.92395(8) 0.35780(2)
Cl2 Cl 0.53452(5) 1.21269(9) 0.60912(2)
loop_
_geom_bond_atom_site_label_1
_geom_bond_atom_site_label_2
_geom_bond_site_symmetry_1
_geom_bond_site_symmetry_2
O1 C1 1_555 1_555
O2 H1 1_555 1_555
O3 C9 1_555 1_555
O4 H2 1_555 1_555
N1 H3 1_555 1_555
N2 H4 1_555 1_555
C1 O2 1_555 1_555
C2 N1 1_555 1_555
C3 C2 1_555 1_555
H5 C3 1_555 1_555
C4 C3 1_555 1_555
H6 C4 1_555 1_555
C5 C4 1_555 1_555
H7 C5 1_555 1_555
C6 N1 1_555 1_555
C7 N2 1_555 1_555
H8 C7 1_555 1_555
H9 C7 1_555 1_555
C8 N2 1_555 1_555
H10 C8 1_555 1_555
H11 C8 1_555 1_555
C9 O4 1_555 1_555
C10 N2 1_555 1_555
H12 C10 1_555 1_555
H13 C10 1_555 1_555
O5 H14 1_555 1_555
H15 O5 1_555 1_555
O1B C1B 1_555 1_555
O2B H1B 1_555 1_555
O3B C9B 1_555 1_555
O4B H2B 1_555 1_555
N1B H3B 1_555 1_555
N2B H4B 1_555 1_555
C1B O2B 1_555 1_555
C2B N1B 1_555 1_555
C3B C2B 1_555 1_555
H5B C3B 1_555 1_555
C4B C3B 1_555 1_555
H6B C4B 1_555 1_555
C5B C4B 1_555 1_555
H7B C5B 1_555 1_555
C6B N1B 1_555 1_555
C7B N2B 1_555 1_555
H8B C7B 1_555 1_555
H9B C7B 1_555 1_555
C8B N2B 1_555 1_555
H10B C8B 1_555 1_555
H11B C8B 1_555 1_555
C9B O4B 1_555 1_555
C10B C10 1_555 1_555
H12B C10B 1_555 1_555
H13B C10B 1_555 1_555
C1 C2 1_555 1_555
C5 C6 1_555 1_555
C6 C7 1_555 1_555
C8 C9 1_555 1_555
N2B C10B 1_555 1_555
C1B C2B 1_555 1_555
C5B C6B 1_555 1_555
C6B C7B 1_555 1_555
C8B C9B 1_555 1_555

#END
