
#######################################################################
#
#                 Cambridge Crystallographic Data Centre
#                                CCDC 
#
#######################################################################
#
# If this CIF has been generated from an entry in the Cambridge 
# Structural Database, then it will include bibliographic, chemical, 
# crystal, experimental, refinement or atomic coordinate data resulting 
# from the CCDC's data processing and validation procedures.
#
#######################################################################

data_MEKKES
_chemical_formula_moiety         
'3(C12 H24 N1 1+),C9 H3 O6 3-,C3 H6 O1,0.5(C1 H4 O1)'
_chemical_name_systematic        
'tris(Dicyclohexylammonium) trimesate acetone methanol clathrate'
_symmetry_cell_setting           triclinic
_symmetry_space_group_name_H-M   'P -1'
_symmetry_Int_Tables_number      2
_space_group_name_Hall           '-P 1'
loop_
_symmetry_equiv_pos_site_id
_symmetry_equiv_pos_as_xyz
1 x,y,z
2 -x,-y,-z
_cell_length_a                   16.9805(3)
_cell_length_b                   19.5242(4)
_cell_length_c                   20.0428(4)
_cell_angle_alpha                116.268(1)
_cell_angle_beta                 111.491(1)
_cell_angle_gamma                95.189(1)
_cell_volume                     5284.22
_exptl_crystal_colour            colorless
_exptl_crystal_description       'irregular block'
_cell_formula_units_Z            4
loop_
_atom_site_label
_atom_site_type_symbol
_atom_site_fract_x
_atom_site_fract_y
_atom_site_fract_z
O7 O 1.00691(10) 0.86918(8) 0.36967(9)
O8 O 1.02714(10) 0.86673(8) 0.48519(9)
O9 O 1.06006(11) 0.62404(10) 0.49782(9)
O10 O 1.02906(12) 0.50933(9) 0.38088(10)
O11 O 0.97413(9) 0.51198(8) 0.12054(8)
O12 O 0.97538(11) 0.62705(9) 0.12190(9)
C10 C 1.01114(11) 0.74681(10) 0.36727(11)
C11 C 1.02311(12) 0.70555(11) 0.41008(11)
H16 H 1.03174(12) 0.73210(11) 0.46613(11)
C12 C 1.02261(12) 0.62601(11) 0.37198(12)
C13 C 1.00760(12) 0.58684(11) 0.28891(12)
H17 H 1.00613(12) 0.53229(11) 0.26213(12)
C14 C 0.99476(11) 0.62691(10) 0.24490(11)
C15 C 0.99749(11) 0.70718(10) 0.28483(11)
H18 H 0.98995(11) 0.73509(10) 0.25542(11)
C16 C 1.01512(12) 0.83444(11) 0.41054(12)
C17 C 1.03856(14) 0.58290(13) 0.42026(14)
C18 C 0.98016(12) 0.58513(11) 0.15533(11)
N1 N 0.50646(11) 0.61357(9) 0.60326(10)
H1 H 0.52980(11) 0.61016(9) 0.56748(10)
H2 H 0.49832(11) 0.56496(9) 0.60046(10)
C19 C 0.41676(14) 0.62467(12) 0.57058(13)
H19 H 0.38944(14) 0.62539(12) 0.60731(13)
C20 C 0.4232(2) 0.70361(13) 0.5716(2)
H20 H 0.4559(2) 0.70656(13) 0.5404(2)
H21 H 0.4567(2) 0.74898(13) 0.6299(2)
C21 C 0.3304(2) 0.7101(2) 0.5316(2)
H22 H 0.3007(2) 0.7136(2) 0.5668(2)
H23 H 0.3358(2) 0.7599(2) 0.5294(2)
C22 C 0.2741(2) 0.6391(2) 0.4443(2)
H24 H 0.3007(2) 0.6384(2) 0.4076(2)
H25 H 0.2139(2) 0.6442(2) 0.4216(2)
C23 C 0.2672(2) 0.5608(2) 0.4447(2)
H26 H 0.2355(2) 0.5594(2) 0.4770(2)
H27 H 0.2325(2) 0.5150(2) 0.3867(2)
C24 C 0.35887(15) 0.55284(13) 0.48302(14)
H28 H 0.38789(15) 0.54829(13) 0.44710(14)
H29 H 0.35287(15) 0.50331(13) 0.48567(14)
C25 C 0.5749(2) 0.67594(12) 0.69054(13)
H30 H 0.5873(2) 0.72843(12) 0.69329(13)
C26 C 0.6604(2) 0.65236(14) 0.70864(15)
H31 H 0.6814(2) 0.64880(14) 0.66753(15)
H32 H 0.6487(2) 0.59910(14) 0.70326(15)
C27 C 0.7323(2) 0.7150(2) 0.7976(2)
H33 H 0.7865(2) 0.6979(2) 0.8095(2)
H34 H 0.7477(2) 0.7670(2) 0.8010(2)
C28 C 0.7016(2) 0.7257(2) 0.8625(2)
H35 H 0.7480(2) 0.7688(2) 0.9184(2)
H36 H 0.6927(2) 0.6755(2) 0.8636(2)
C29 C 0.6154(2) 0.7472(2) 0.8435(2)
H37 H 0.6263(2) 0.8007(2) 0.8493(2)
H38 H 0.5946(2) 0.7500(2) 0.8845(2)
C30 C 0.5428(2) 0.6855(2) 0.75491(15)
H39 H 0.5268(2) 0.6332(2) 0.75071(15)
H40 H 0.4891(2) 0.7033(2) 0.74339(15)
N2 N 0.63335(10) 0.50289(9) 1.05690(10)
H3 H 0.59324(10) 0.51708(9) 1.07732(10)
H4 H 0.60118(10) 0.46708(9) 1.00040(10)
C31 C 0.68711(13) 0.57704(12) 1.06879(12)
H41 H 0.72582(13) 0.56130(12) 1.04063(12)
C32 C 0.74587(14) 0.63933(13) 1.16114(13)
H42 H 0.78964(14) 0.61716(13) 1.18683(13)
H43 H 0.70888(14) 0.65275(13) 1.19074(13)
C33 C 0.7946(2) 0.71531(14) 1.1698(2)
H44 H 0.8303(2) 0.75621(14) 1.2298(2)
H45 H 0.8358(2) 0.70245(14) 1.1448(2)
C34 C 0.7307(2) 0.74968(15) 1.1272(2)
H46 H 0.7647(2) 0.79658(15) 1.1314(2)
H47 H 0.6935(2) 0.76794(15) 1.1558(2)
C35 C 0.6712(2) 0.6866(2) 1.0353(2)
H48 H 0.6274(2) 0.7087(2) 1.0096(2)
H49 H 0.7078(2) 0.6729(2) 1.0054(2)
C36 C 0.62238(15) 0.61105(13) 1.02640(14)
H50 H 0.58141(15) 0.62386(13) 1.05166(14)
H51 H 0.58650(15) 0.57023(13) 0.96638(14)
C37 C 0.68256(13) 0.45971(12) 1.09635(12)
H52 H 0.71017(13) 0.49553(12) 1.15842(12)
C38 C 0.61446(14) 0.38515(13) 1.07138(14)
H53 H 0.58205(14) 0.35165(13) 1.00969(14)
H54 H 0.57079(14) 0.40154(13) 1.09229(14)
C39 C 0.6590(2) 0.3356(2) 1.1068(2)
H55 H 0.6829(2) 0.3658(2) 1.1684(2)
H56 H 0.6141(2) 0.2849(2) 1.0844(2)
C40 C 0.7338(2) 0.3166(2) 1.0844(2)
H57 H 0.7088(2) 0.2804(2) 1.0232(2)
H58 H 0.7641(2) 0.2885(2) 1.1118(2)
C41 C 0.8008(2) 0.3926(2) 1.1118(2)
H59 H 0.8479(2) 0.3785(2) 1.0952(2)
H60 H 0.8290(2) 0.4271(2) 1.1734(2)
C42 C 0.75593(15) 0.43862(14) 1.07214(15)
H61 H 0.80031(15) 0.48826(14) 1.09140(15)
H62 H 0.73053(15) 0.40541(14) 1.01058(15)
N3 N 0.39699(10) -0.02863(9) 0.38200(10)
H5 H 0.41938(10) 0.02175(9) 0.42881(10)
H6 H 0.43947(10) -0.05425(9) 0.38967(10)
C43 C 0.38537(14) -0.01898(12) 0.30889(12)
H63 H 0.36892(14) -0.07315(12) 0.25913(12)
C44 C 0.4747(2) 0.03127(14) 0.33015(14)
H64 H 0.5198(2) 0.00344(14) 0.34013(14)
H65 H 0.4942(2) 0.08358(14) 0.38201(14)
C45 C 0.4676(2) 0.0450(2) 0.2587(2)
H66 H 0.5248(2) 0.0810(2) 0.2755(2)
H67 H 0.4553(2) -0.0068(2) 0.2088(2)
C46 C 0.3942(2) 0.0819(2) 0.2370(2)
H68 H 0.4100(2) 0.1364(2) 0.2848(2)
H69 H 0.3887(2) 0.0869(2) 0.1885(2)
C47 C 0.3058(2) 0.0318(2) 0.2163(2)
H70 H 0.2869(2) -0.0208(2) 0.1649(2)
H71 H 0.2604(2) 0.0590(2) 0.2053(2)
C48 C 0.3123(2) 0.01884(15) 0.2882(2)
H72 H 0.3253(2) 0.07088(15) 0.3381(2)
H73 H 0.2548(2) -0.01657(15) 0.2718(2)
C49 C 0.31680(13) -0.07333(11) 0.37814(12)
H74 H 0.27116(13) -0.04454(11) 0.37250(12)
C50 C 0.34580(14) -0.07090(12) 0.46069(13)
H75 H 0.36569(14) -0.01460(12) 0.50670(13)
H76 H 0.39670(14) -0.09255(12) 0.47072(13)
C51 C 0.26981(15) -0.12000(13) 0.46079(15)
H77 H 0.29171(15) -0.12029(13) 0.51371(15)
H78 H 0.22141(15) -0.09495(13) 0.45705(15)
C52 C 0.23405(15) -0.20607(13) 0.38691(14)
H79 H 0.28144(15) -0.23223(13) 0.39256(14)
H80 H 0.18427(15) -0.23673(13) 0.38686(14)
C53 C 0.20197(15) -0.20670(14) 0.30483(15)
H81 H 0.17967(15) -0.26271(14) 0.25770(15)
H82 H 0.15224(15) -0.18335(14) 0.29781(15)
C54 C 0.27635(14) -0.15912(12) 0.30297(13)
H83 H 0.25274(14) -0.15765(12) 0.25070(13)
H84 H 0.32310(14) -0.18601(12) 0.30352(13)
N4 N 0.95633(11) 0.97164(9) 0.57025(10)
H7 H 0.98626(11) 0.94712(9) 0.54094(10)
H8 H 0.97182(11) 1.02478(9) 0.58588(10)
C55 C 0.98993(15) 0.96744(12) 0.64829(13)
H85 H 0.97986(15) 0.90982(12) 0.63193(13)
C56 C 1.0896(2) 1.00981(14) 0.69803(14)
H86 H 1.1010(2) 1.06629(14) 0.71201(14)
H87 H 1.1192(2) 0.98361(14) 0.66353(14)
C57 C 1.1286(2) 1.0072(2) 0.7786(2)
H88 H 1.1232(2) 0.9511(2) 0.7646(2)
H89 H 1.1925(2) 1.0381(2) 0.8115(2)
C58 C 1.0805(2) 1.0423(2) 0.8306(2)
H90 H 1.1042(2) 1.0369(2) 0.8805(2)
H91 H 1.0915(2) 1.1001(2) 0.8499(2)
C59 C 0.9812(2) 0.9999(2) 0.7803(2)
H92 H 0.9514(2) 1.0253(2) 0.8149(2)
H93 H 0.9700(2) 0.9432(2) 0.7654(2)
C60 C 0.9422(2) 1.00370(14) 0.70058(14)
H94 H 0.8780(2) 0.97377(14) 0.66787(14)
H95 H 0.9489(2) 1.06015(14) 0.71523(14)
C61 C 0.85869(14) 0.93553(12) 0.51130(13)
H96 H 0.82598(14) 0.96599(12) 0.54077(13)
C62 C 0.8251(2) 0.84734(13) 0.4840(2)
H97 H 0.8600(2) 0.81666(13) 0.4588(2)
H98 H 0.8326(2) 0.84285(13) 0.5331(2)
C63 C 0.7270(2) 0.81310(15) 0.4202(2)
H99 H 0.7057(2) 0.75575(15) 0.4014(2)
H100 H 0.6921(2) 0.84155(15) 0.4472(2)
C64 C 0.7119(2) 0.8214(2) 0.3449(2)
H101 H 0.6478(2) 0.7991(2) 0.3052(2)
H102 H 0.7442(2) 0.7907(2) 0.3159(2)
C65 C 0.7445(2) 0.9092(2) 0.3723(2)
H103 H 0.7083(2) 0.9388(2) 0.3963(2)
H104 H 0.7373(2) 0.9136(2) 0.3232(2)
C66 C 0.84233(14) 0.94635(13) 0.43752(13)
H105 H 0.87911(14) 0.92113(13) 0.41109(13)
H106 H 0.86084(14) 1.00427(13) 0.45756(13)
N5 N 1.04868(11) 0.40448(10) 0.43565(10)
H9 H 1.01016(11) 0.40237(10) 0.45765(10)
H10 H 1.04526(11) 0.44529(10) 0.42442(10)
C67 C 1.14143(14) 0.42623(12) 0.50170(13)
H107 H 1.18364(14) 0.42759(12) 0.47791(13)
C68 C 1.16339(15) 0.51013(13) 0.57479(14)
H108 H 1.15954(15) 0.54881(13) 0.55525(14)
H109 H 1.11961(15) 0.51067(13) 0.59663(14)
C69 C 1.2566(2) 0.5352(2) 0.6443(2)
H110 H 1.3006(2) 0.5378(2) 0.6234(2)
H111 H 1.2695(2) 0.5893(2) 0.6916(2)
C70 C 1.2649(2) 0.47579(15) 0.6746(2)
H112 H 1.2241(2) 0.47625(15) 0.6996(2)
H113 H 1.3262(2) 0.49192(15) 0.7183(2)
C71 C 1.2422(2) 0.3915(2) 0.6021(2)
H114 H 1.2877(2) 0.3899(2) 0.5820(2)
H115 H 1.2441(2) 0.3533(2) 0.6223(2)
C72 C 1.15087(15) 0.36514(14) 0.52973(14)
H116 H 1.10460(15) 0.35849(14) 0.54719(14)
H117 H 1.14171(15) 0.31264(14) 0.48222(14)
C73 C 1.01633(14) 0.32695(13) 0.35405(14)
H118 H 1.02154(14) 0.28243(13) 0.36585(14)
C74 C 1.0714(2) 0.3286(2) 0.3093(2)
H119 H 1.1339(2) 0.3358(2) 0.3443(2)
H120 H 1.0697(2) 0.3742(2) 0.2998(2)
C75 C 1.0341(2) 0.2497(2) 0.2251(2)
H121 H 1.0680(2) 0.2526(2) 0.1949(2)
H122 H 1.0423(2) 0.2051(2) 0.2354(2)
C76 C 0.9366(2) 0.2324(2) 0.1711(2)
H123 H 0.9288(2) 0.2736(2) 0.1553(2)
H124 H 0.9146(2) 0.1796(2) 0.1192(2)
C77 C 0.8834(2) 0.2321(2) 0.2169(2)
H125 H 0.8868(2) 0.1876(2) 0.2281(2)
H126 H 0.8204(2) 0.2231(2) 0.1815(2)
C78 C 0.9187(2) 0.31198(14) 0.29992(15)
H127 H 0.9120(2) 0.35627(14) 0.28879(15)
H128 H 0.8839(2) 0.31019(14) 0.32970(15)
N6 N 0.95484(10) 0.58543(9) -0.03017(9)
H11 H 0.96597(10) 0.59359(9) 0.02172(9)
H12 H 0.98419(10) 0.55030(9) -0.05034(9)
C79 C 0.99570(13) 0.66378(11) -0.01849(12)
H129 H 0.99033(13) 0.65412(11) -0.07354(12)
C80 C 1.09417(14) 0.69359(12) 0.04262(13)
H130 H 1.12282(14) 0.65275(12) 0.02091(13)
H131 H 1.10094(14) 0.70167(12) 0.09704(13)
C81 C 1.1401(2) 0.77272(13) 0.05507(15)
H132 H 1.2030(2) 0.79263(13) 0.09741(15)
H133 H 1.1389(2) 0.76329(13) 0.00190(15)
C82 C 1.0946(2) 0.83530(13) 0.0833(2)
H134 H 1.1227(2) 0.88428(13) 0.0868(2)
H135 H 1.1022(2) 0.84958(13) 0.1397(2)
C83 C 0.9957(2) 0.80464(12) 0.02290(15)
H136 H 0.9881(2) 0.79579(12) -0.03198(15)
H137 H 0.9672(2) 0.84568(12) 0.04451(15)
C84 C 0.94978(14) 0.72607(12) 0.01152(13)
H138 H 0.95267(14) 0.73553(12) 0.06525(13)
H139 H 0.88649(14) 0.70630(12) -0.02985(13)
C85 C 0.85692(12) 0.54479(11) -0.08647(12)
H140 H 0.82389(12) 0.57798(11) -0.05973(12)
C86 C 0.83546(13) 0.46387(12) -0.09238(13)
H141 H 0.84856(13) 0.47295(12) -0.03623(13)
H142 H 0.87394(13) 0.43339(12) -0.11150(13)
C87 C 0.73801(14) 0.41441(14) -0.15281(14)
H143 H 0.72793(14) 0.36092(14) -0.15857(14)
H144 H 0.69957(14) 0.44132(14) -0.12995(14)
C88 C 0.71317(14) 0.40473(13) -0.23817(13)
H145 H 0.64955(14) 0.37410(13) -0.27573(13)
H146 H 0.74850(14) 0.37438(13) -0.26297(13)
C89 C 0.73088(14) 0.48705(13) -0.22996(14)
H147 H 0.69400(14) 0.51660(13) -0.20688(14)
H148 H 0.71403(14) 0.48017(13) -0.28586(14)
C90 C 0.82952(14) 0.53564(12) -0.17230(12)
H149 H 0.86627(14) 0.50798(12) -0.19718(12)
H150 H 0.83956(14) 0.58922(12) -0.16635(12)
O1 O 0.42687(10) 0.37465(9) 0.49971(9)
O2 O 0.48206(13) 0.48827(9) 0.62294(10)
O3 O 0.45710(10) 0.45506(9) 0.85153(9)
O4 O 0.54525(10) 0.38537(9) 0.88645(8)
O5 O 0.49784(10) 0.12675(8) 0.62735(9)
O6 O 0.45595(10) 0.12589(8) 0.50720(9)
C1 C 0.46840(12) 0.36737(10) 0.62353(11)
C2 C 0.46872(12) 0.28811(11) 0.58480(11)
H13 H 0.45854(12) 0.26149(11) 0.52828(11)
C3 C 0.48393(11) 0.24748(10) 0.62856(11)
C4 C 0.49849(11) 0.28693(11) 0.71107(11)
H14 H 0.51267(11) 0.26075(11) 0.74219(11)
C5 C 0.49255(11) 0.36458(11) 0.74889(11)
C6 C 0.47841(12) 0.40451(11) 0.70486(11)
H15 H 0.47553(12) 0.45777(11) 0.73054(11)
C7 C 0.45799(13) 0.41353(12) 0.57843(13)
C8 C 0.47915(13) 0.15990(11) 0.58428(13)
C9 C 0.49907(13) 0.40482(11) 0.83595(12)
loop_
_geom_bond_atom_site_label_1
_geom_bond_atom_site_label_2
_geom_bond_site_symmetry_1
_geom_bond_site_symmetry_2
O1 C7 1_555 1_555
O2 C7 1_555 1_555
O3 C9 1_555 1_555
O4 C9 1_555 1_555
O5 C8 1_555 1_555
O6 C8 1_555 1_555
O7 C16 1_555 1_555
O8 C16 1_555 1_555
O9 C17 1_555 1_555
O10 C17 1_555 1_555
O11 C18 1_555 1_555
O12 C18 1_555 1_555
N1 H1 1_555 1_555
H2 N1 1_555 1_555
N2 H3 1_555 1_555
H4 N2 1_555 1_555
N3 H5 1_555 1_555
H6 N3 1_555 1_555
N4 H7 1_555 1_555
H8 N4 1_555 1_555
N5 H9 1_555 1_555
H10 N5 1_555 1_555
N6 H11 1_555 1_555
H12 N6 1_555 1_555
C1 C2 1_555 1_555
C2 H13 1_555 1_555
C3 C2 1_555 1_555
C4 C3 1_555 1_555
H14 C4 1_555 1_555
C5 C4 1_555 1_555
C6 C1 1_555 1_555
H15 C6 1_555 1_555
C7 C1 1_555 1_555
C8 C3 1_555 1_555
C9 C5 1_555 1_555
C10 C11 1_555 1_555
C11 H16 1_555 1_555
C12 C11 1_555 1_555
C13 C12 1_555 1_555
H17 C13 1_555 1_555
C14 C13 1_555 1_555
C15 C10 1_555 1_555
H18 C15 1_555 1_555
C16 C10 1_555 1_555
C17 C12 1_555 1_555
C18 C14 1_555 1_555
C19 N1 1_555 1_555
H19 C19 1_555 1_555
C20 C19 1_555 1_555
H20 C20 1_555 1_555
H21 C20 1_555 1_555
C21 C20 1_555 1_555
H22 C21 1_555 1_555
H23 C21 1_555 1_555
C22 C21 1_555 1_555
H24 C22 1_555 1_555
H25 C22 1_555 1_555
C23 C22 1_555 1_555
H26 C23 1_555 1_555
H27 C23 1_555 1_555
C24 C19 1_555 1_555
H28 C24 1_555 1_555
H29 C24 1_555 1_555
C25 N1 1_555 1_555
H30 C25 1_555 1_555
C26 C25 1_555 1_555
H31 C26 1_555 1_555
H32 C26 1_555 1_555
C27 C26 1_555 1_555
H33 C27 1_555 1_555
H34 C27 1_555 1_555
C28 C27 1_555 1_555
H35 C28 1_555 1_555
H36 C28 1_555 1_555
C29 C28 1_555 1_555
H37 C29 1_555 1_555
H38 C29 1_555 1_555
C30 C25 1_555 1_555
H39 C30 1_555 1_555
H40 C30 1_555 1_555
C31 N2 1_555 1_555
H41 C31 1_555 1_555
C32 C31 1_555 1_555
H42 C32 1_555 1_555
H43 C32 1_555 1_555
C33 C32 1_555 1_555
H44 C33 1_555 1_555
H45 C33 1_555 1_555
C34 C33 1_555 1_555
H46 C34 1_555 1_555
H47 C34 1_555 1_555
C35 C34 1_555 1_555
H48 C35 1_555 1_555
H49 C35 1_555 1_555
C36 C31 1_555 1_555
H50 C36 1_555 1_555
H51 C36 1_555 1_555
C37 N2 1_555 1_555
H52 C37 1_555 1_555
C38 C37 1_555 1_555
H53 C38 1_555 1_555
H54 C38 1_555 1_555
C39 C38 1_555 1_555
H55 C39 1_555 1_555
H56 C39 1_555 1_555
C40 C39 1_555 1_555
H57 C40 1_555 1_555
H58 C40 1_555 1_555
C41 C40 1_555 1_555
H59 C41 1_555 1_555
H60 C41 1_555 1_555
C42 C37 1_555 1_555
H61 C42 1_555 1_555
H62 C42 1_555 1_555
C43 N3 1_555 1_555
H63 C43 1_555 1_555
C44 C43 1_555 1_555
H64 C44 1_555 1_555
H65 C44 1_555 1_555
C45 C44 1_555 1_555
H66 C45 1_555 1_555
H67 C45 1_555 1_555
C46 C45 1_555 1_555
H68 C46 1_555 1_555
H69 C46 1_555 1_555
C47 C46 1_555 1_555
H70 C47 1_555 1_555
H71 C47 1_555 1_555
C48 C43 1_555 1_555
H72 C48 1_555 1_555
H73 C48 1_555 1_555
C49 N3 1_555 1_555
H74 C49 1_555 1_555
C50 C49 1_555 1_555
H75 C50 1_555 1_555
H76 C50 1_555 1_555
C51 C50 1_555 1_555
H77 C51 1_555 1_555
H78 C51 1_555 1_555
C52 C51 1_555 1_555
H79 C52 1_555 1_555
H80 C52 1_555 1_555
C53 C52 1_555 1_555
H81 C53 1_555 1_555
H82 C53 1_555 1_555
C54 C49 1_555 1_555
H83 C54 1_555 1_555
H84 C54 1_555 1_555
C55 N4 1_555 1_555
H85 C55 1_555 1_555
C56 C55 1_555 1_555
H86 C56 1_555 1_555
H87 C56 1_555 1_555
C57 C56 1_555 1_555
H88 C57 1_555 1_555
H89 C57 1_555 1_555
C58 C57 1_555 1_555
H90 C58 1_555 1_555
H91 C58 1_555 1_555
C59 C58 1_555 1_555
H92 C59 1_555 1_555
H93 C59 1_555 1_555
C60 C55 1_555 1_555
H94 C60 1_555 1_555
H95 C60 1_555 1_555
C61 N4 1_555 1_555
H96 C61 1_555 1_555
C62 C61 1_555 1_555
H97 C62 1_555 1_555
H98 C62 1_555 1_555
C63 C62 1_555 1_555
H99 C63 1_555 1_555
H100 C63 1_555 1_555
C64 C63 1_555 1_555
H101 C64 1_555 1_555
H102 C64 1_555 1_555
C65 C64 1_555 1_555
H103 C65 1_555 1_555
H104 C65 1_555 1_555
C66 C61 1_555 1_555
H105 C66 1_555 1_555
H106 C66 1_555 1_555
C67 N5 1_555 1_555
H107 C67 1_555 1_555
C68 C67 1_555 1_555
H108 C68 1_555 1_555
H109 C68 1_555 1_555
C69 C68 1_555 1_555
H110 C69 1_555 1_555
H111 C69 1_555 1_555
C70 C69 1_555 1_555
H112 C70 1_555 1_555
H113 C70 1_555 1_555
C71 C70 1_555 1_555
H114 C71 1_555 1_555
H115 C71 1_555 1_555
C72 C67 1_555 1_555
H116 C72 1_555 1_555
H117 C72 1_555 1_555
C73 N5 1_555 1_555
H118 C73 1_555 1_555
C74 C73 1_555 1_555
H119 C74 1_555 1_555
H120 C74 1_555 1_555
C75 C74 1_555 1_555
H121 C75 1_555 1_555
H122 C75 1_555 1_555
C76 C75 1_555 1_555
H123 C76 1_555 1_555
H124 C76 1_555 1_555
C77 C76 1_555 1_555
H125 C77 1_555 1_555
H126 C77 1_555 1_555
C78 C73 1_555 1_555
H127 C78 1_555 1_555
H128 C78 1_555 1_555
C79 N6 1_555 1_555
H129 C79 1_555 1_555
C80 C79 1_555 1_555
H130 C80 1_555 1_555
H131 C80 1_555 1_555
C81 C80 1_555 1_555
H132 C81 1_555 1_555
H133 C81 1_555 1_555
C82 C81 1_555 1_555
H134 C82 1_555 1_555
H135 C82 1_555 1_555
C83 C82 1_555 1_555
H136 C83 1_555 1_555
H137 C83 1_555 1_555
C84 C79 1_555 1_555
H138 C84 1_555 1_555
H139 C84 1_555 1_555
C85 N6 1_555 1_555
H140 C85 1_555 1_555
C86 C85 1_555 1_555
H141 C86 1_555 1_555
H142 C86 1_555 1_555
C87 C86 1_555 1_555
H143 C87 1_555 1_555
H144 C87 1_555 1_555
C88 C87 1_555 1_555
H145 C88 1_555 1_555
H146 C88 1_555 1_555
C89 C88 1_555 1_555
H147 C89 1_555 1_555
H148 C89 1_555 1_555
C90 C85 1_555 1_555
H149 C90 1_555 1_555
H150 C90 1_555 1_555
C5 C6 1_555 1_555
C14 C15 1_555 1_555
C23 C24 1_555 1_555
C29 C30 1_555 1_555
C35 C36 1_555 1_555
C41 C42 1_555 1_555
C47 C48 1_555 1_555
C53 C54 1_555 1_555
C59 C60 1_555 1_555
C65 C66 1_555 1_555
C71 C72 1_555 1_555
C77 C78 1_555 1_555
C83 C84 1_555 1_555
C89 C90 1_555 1_555

#END
