
#######################################################################
#
#                 Cambridge Crystallographic Data Centre
#                                CCDC 
#
#######################################################################
#
# If this CIF has been generated from an entry in the Cambridge 
# Structural Database, then it will include bibliographic, chemical, 
# crystal, experimental, refinement or atomic coordinate data resulting 
# from the CCDC's data processing and validation procedures.
#
#######################################################################

data_MEKRUS
_chemical_formula_moiety         'C42 H48 N24 O13,C2 H4 O2,22(H2 O1)'
_chemical_name_systematic        
'2-hydroxyl-1,1,3,3,5,5-hexamethylcucurbit(6)uril acetic acid unknown solvate hydrate'
_symmetry_cell_setting           monoclinic
_symmetry_space_group_name_H-M   'P 21/m'
_symmetry_Int_Tables_number      11
_space_group_name_Hall           '-P 2yb'
loop_
_symmetry_equiv_pos_site_id
_symmetry_equiv_pos_as_xyz
1 x,y,z
2 -x,1/2+y,-z
3 -x,-y,-z
4 x,1/2-y,z
_cell_length_a                   12.673(3)
_cell_length_b                   16.321(4)
_cell_length_c                   16.728(4)
_cell_angle_alpha                90
_cell_angle_beta                 80.343(6)
_cell_angle_gamma                90
_cell_volume                     3410.92
_exptl_crystal_colour            colorless
_exptl_crystal_description       prism
_cell_formula_units_Z            2
loop_
_atom_site_label
_atom_site_type_symbol
_atom_site_fract_x
_atom_site_fract_y
_atom_site_fract_z
C1 C 0.3661(6) 0.2500 0.0462(3)
C2 C 0.1991(3) 0.2986(3) 0.1081(2)
C3 C 0.1585(5) 0.2500 0.2433(4)
C4 C 0.3479(4) 0.3981(3) 0.0476(3)
H1 H 0.2896 0.4317 0.0336
H2 H 0.4030 0.3936 -0.0009
C5 C 0.1674(3) 0.3989(3) 0.2298(3)
H3 H 0.1308 0.4341 0.1956
H4 H 0.1227 0.3965 0.2835
C6 C 0.4993(4) 0.4589(3) 0.1038(3)
C7 C 0.3301(4) 0.4861(3) 0.1752(3)
C8 C 0.4127(3) 0.5262(3) 0.2186(2)
H5 H 0.4008 0.5860 0.2245
C9 C 0.3078(3) 0.4399(3) 0.3076(3)
C10 C 0.6123(4) 0.5491(3) 0.1712(3)
H6 H 0.6587 0.5457 0.1182
H7 H 0.5969 0.6072 0.1826
C11 C 0.4447(3) 0.5152(3) 0.3643(2)
H8 H 0.4401 0.5751 0.3663
H9 H 0.4024 0.4939 0.4144
C12 C 0.7537(4) 0.4658(3) 0.2136(3)
C13 C 0.6457(4) 0.5372(3) 0.3186(3)
C14 C 0.7431(3) 0.4956(3) 0.3517(3)
C15 C 0.5828(4) 0.4427(3) 0.4213(2)
C16 C 0.8894(4) 0.3994(3) 0.2772(3)
H10 H 0.9238 0.3958 0.2203
H11 H 0.9388 0.4280 0.3069
C17 C 0.7436(4) 0.3995(3) 0.4721(2)
H12 H 0.8080 0.4293 0.4802
H13 H 0.6963 0.3962 0.5247
C18 C 0.8786(5) 0.2500 0.2596(4)
C19 C 0.8708(3) 0.2970(3) 0.3931(2)
H14 H 0.9342 0.3191 0.4133
C20 C 0.7210(5) 0.2500 0.4809(4)
C21 C 0.1150(4) 0.3379(3) 0.0648(3)
H15 H 0.0440 0.3229 0.0923
H16 H 0.1247 0.3188 0.0091
H17 H 0.1227 0.3970 0.0654
C22 C 0.6355(4) 0.6302(3) 0.3331(3)
H18 H 0.6208 0.6410 0.3909
H19 H 0.5774 0.6514 0.3080
H20 H 0.7018 0.6569 0.3095
C23 C 0.8209(4) 0.5542(3) 0.3809(3)
H21 H 0.8557 0.5870 0.3358
H22 H 0.8743 0.5233 0.4035
H23 H 0.7825 0.5898 0.4223
N1 N 0.3074(3) 0.3179(2) 0.0698(2)
N2 N 0.1758(3) 0.3180(2) 0.1958(2)
N3 N 0.3937(3) 0.4393(2) 0.11118(19)
N4 N 0.5130(3) 0.5079(2) 0.1658(2)
N5 N 0.2672(3) 0.4357(2) 0.23739(19)
N6 N 0.3979(3) 0.4861(2) 0.2958(2)
N7 N 0.6702(3) 0.5177(2) 0.2317(2)
N8 N 0.7918(3) 0.4483(2) 0.2818(2)
N9 N 0.5548(3) 0.4913(2) 0.3611(2)
N10 N 0.6903(3) 0.4462(2) 0.41791(19)
N11 N 0.8726(3) 0.3184(3) 0.3090(2)
N12 N 0.7740(3) 0.3181(2) 0.44601(19)
O1 O 0.4574(4) 0.2500 0.0077(3)
O2 O 0.5698(3) 0.4372(2) 0.04740(18)
O3 O 0.7882(3) 0.4407(3) 0.14431(19)
O4 O 0.8891(4) 0.2500 0.1867(3)
O5 O 0.1280(3) 0.2500 0.3169(3)
O6 O 0.2662(2) 0.4099(2) 0.37252(18)
O7 O 0.5202(2) 0.4045(2) 0.47088(16)
O8 O 0.6426(3) 0.2500 0.5337(3)
O9 O 0.2535(8) 0.5404(6) 0.1578(6)
H24 H 0.2065 0.5149 0.1390
C2C C 0.1991(3) 0.2014(3) 0.1081(2)
C4C C 0.3479(4) 0.1019(3) 0.0476(3)
H1C H 0.2896 0.0683 0.0336
H2C H 0.4030 0.1064 -0.0009
C5C C 0.1674(3) 0.1011(3) 0.2298(3)
H3C H 0.1308 0.0659 0.1956
H4C H 0.1227 0.1035 0.2835
C6C C 0.4993(4) 0.0411(3) 0.1038(3)
C7C C 0.3301(4) 0.0139(3) 0.1752(3)
C8C C 0.4127(3) -0.0262(3) 0.2186(2)
H5C H 0.4008 -0.0860 0.2245
C9C C 0.3078(3) 0.0601(3) 0.3076(3)
C10C C 0.6123(4) -0.0491(3) 0.1712(3)
H6C H 0.6587 -0.0457 0.1182
H7C H 0.5969 -0.1072 0.1826
C11C C 0.4447(3) -0.0152(3) 0.3643(2)
H8C H 0.4401 -0.0751 0.3663
H9C H 0.4024 0.0061 0.4144
C12C C 0.7537(4) 0.0342(3) 0.2136(3)
C13C C 0.6457(4) -0.0372(3) 0.3186(3)
C14C C 0.7431(3) 0.0044(3) 0.3517(3)
C15C C 0.5828(4) 0.0573(3) 0.4213(2)
C16C C 0.8894(4) 0.1006(3) 0.2772(3)
H10C H 0.9238 0.1042 0.2203
H11C H 0.9388 0.0720 0.3069
C17C C 0.7436(4) 0.1005(3) 0.4721(2)
H12C H 0.8080 0.0707 0.4802
H13C H 0.6963 0.1038 0.5247
C19C C 0.8708(3) 0.2030(3) 0.3931(2)
H14C H 0.9342 0.1809 0.4133
C21C C 0.1150(4) 0.1621(3) 0.0648(3)
H15C H 0.0440 0.1771 0.0923
H16C H 0.1247 0.1812 0.0091
H17C H 0.1227 0.1030 0.0654
C22C C 0.6355(4) -0.1302(3) 0.3331(3)
H18C H 0.6208 -0.1410 0.3909
H19C H 0.5774 -0.1514 0.3080
H20C H 0.7018 -0.1569 0.3095
C23C C 0.8209(4) -0.0542(3) 0.3809(3)
H21C H 0.8557 -0.0870 0.3358
H22C H 0.8743 -0.0233 0.4035
H23C H 0.7825 -0.0898 0.4223
N1C N 0.3074(3) 0.1821(2) 0.0698(2)
N2C N 0.1758(3) 0.1820(2) 0.1958(2)
N3C N 0.3937(3) 0.0607(2) 0.11118(19)
N4C N 0.5130(3) -0.0079(2) 0.1658(2)
N5C N 0.2672(3) 0.0643(2) 0.23739(19)
N6C N 0.3979(3) 0.0139(2) 0.2958(2)
N7C N 0.6702(3) -0.0177(2) 0.2317(2)
N8C N 0.7918(3) 0.0517(2) 0.2818(2)
N9C N 0.5548(3) 0.0087(2) 0.3611(2)
N10C N 0.6903(3) 0.0538(2) 0.41791(19)
N11C N 0.8726(3) 0.1816(3) 0.3090(2)
N12C N 0.7740(3) 0.1819(2) 0.44601(19)
O2C O 0.5698(3) 0.0628(2) 0.04740(18)
O3C O 0.7882(3) 0.0593(3) 0.14431(19)
O6C O 0.2662(2) 0.0901(2) 0.37252(18)
O7C O 0.5202(2) 0.0955(2) 0.47088(16)
O9C O 0.2535(8) -0.0404(6) 0.1578(6)
H24C H 0.2065 -0.0149 0.1390
H25 H 0.5360 0.2244 0.1543
H26 H 0.6561 0.2196 0.1690
H27 H 0.6011 0.3060 0.1623
O10 O 0.6130(9) 0.224(2) 0.3134(7)
C24 C 0.5895(9) 0.2500 0.1812(5)
C25 C 0.5530(11) 0.2500 0.2674(7)
O11 O 0.4532(6) 0.2500 0.2938(5)
H25C H 0.5360 0.2756 0.1543
H26C H 0.6561 0.2804 0.1690
H27C H 0.6011 0.1940 0.1623
O10C O 0.6130(9) 0.276(2) 0.3134(7)
loop_
_geom_bond_atom_site_label_1
_geom_bond_atom_site_label_2
_geom_bond_site_symmetry_1
_geom_bond_site_symmetry_2
C1 N1 1_555 1_555
C2 C21 1_555 1_555
C3 N2 1_555 1_555
C4 H1 1_555 1_555
H2 C4 1_555 1_555
C5 H3 1_555 1_555
H4 C5 1_555 1_555
C6 N3 1_555 1_555
C7 C8 1_555 1_555
C8 H5 1_555 1_555
C9 N5 1_555 1_555
C10 H6 1_555 1_555
H7 C10 1_555 1_555
C11 H8 1_555 1_555
H9 C11 1_555 1_555
C12 N7 1_555 1_555
C13 C14 1_555 1_555
C14 C23 1_555 1_555
C15 N9 1_555 1_555
C16 H10 1_555 1_555
H11 C16 1_555 1_555
C17 H12 1_555 1_555
H13 C17 1_555 1_555
C18 N11 1_555 1_555
C19 H14 1_555 1_555
C20 N12 1_555 1_555
C21 H15 1_555 1_555
H16 C21 1_555 1_555
H17 C21 1_555 1_555
C22 C13 1_555 1_555
H18 C22 1_555 1_555
H19 C22 1_555 1_555
H20 C22 1_555 1_555
C23 H21 1_555 1_555
H22 C23 1_555 1_555
H23 C23 1_555 1_555
N1 C2 1_555 1_555
N2 C2 1_555 1_555
N3 C4 1_555 1_555
N4 C6 1_555 1_555
N5 C5 1_555 1_555
N6 C8 1_555 1_555
N7 C10 1_555 1_555
N8 C12 1_555 1_555
N9 C11 1_555 1_555
N10 C14 1_555 1_555
N11 C16 1_555 1_555
N12 C17 1_555 1_555
O1 C1 1_555 1_555
O2 C6 1_555 1_555
O3 C12 1_555 1_555
O4 C18 1_555 1_555
O5 C3 1_555 1_555
O6 C9 1_555 1_555
O7 C15 1_555 1_555
O8 C20 1_555 1_555
O9 C7 1_555 1_555
H24 O9 1_555 1_555
H25 C24 1_555 1_555
H26 C24 1_555 1_555
H27 C24 1_555 1_555
O10 C25 1_555 1_555
C24 C25 1_555 1_555
C25 O11 1_555 1_555
C2C C2 1_555 1_555
C4C H1C 1_555 1_555
H2C C4C 1_555 1_555
C5C H3C 1_555 1_555
H4C C5C 1_555 1_555
C6C N3C 1_555 1_555
C7C C8C 1_555 1_555
C8C H5C 1_555 1_555
C9C N5C 1_555 1_555
C10C H6C 1_555 1_555
H7C C10C 1_555 1_555
C11C H8C 1_555 1_555
H9C C11C 1_555 1_555
C12C N7C 1_555 1_555
C13C C14C 1_555 1_555
C14C C23C 1_555 1_555
C15C N9C 1_555 1_555
C16C H10C 1_555 1_555
H11C C16C 1_555 1_555
C17C H12C 1_555 1_555
H13C C17C 1_555 1_555
C19C C19 1_555 1_555
H14C C19C 1_555 1_555
C21C C2C 1_555 1_555
H15C C21C 1_555 1_555
H16C C21C 1_555 1_555
H17C C21C 1_555 1_555
C22C C13C 1_555 1_555
H18C C22C 1_555 1_555
H19C C22C 1_555 1_555
H20C C22C 1_555 1_555
C23C H21C 1_555 1_555
H22C C23C 1_555 1_555
H23C C23C 1_555 1_555
N1C C1 1_555 1_555
N2C C3 1_555 1_555
N3C C4C 1_555 1_555
N4C C6C 1_555 1_555
N5C C5C 1_555 1_555
N6C C8C 1_555 1_555
N7C C10C 1_555 1_555
N8C C12C 1_555 1_555
N9C C11C 1_555 1_555
N10C C14C 1_555 1_555
N11C C18 1_555 1_555
N12C C20 1_555 1_555
O2C C6C 1_555 1_555
O3C C12C 1_555 1_555
O6C C9C 1_555 1_555
O7C C15C 1_555 1_555
O9C C7C 1_555 1_555
H24C O9C 1_555 1_555
H25C C24 1_555 1_555
H26C C24 1_555 1_555
H27C C24 1_555 1_555
O10C C25 1_555 1_555
C4 N1 1_555 1_555
C5 N2 1_555 1_555
C7 N3 1_555 1_555
C7 N5 1_555 1_555
C8 N4 1_555 1_555
C9 N6 1_555 1_555
C10 N4 1_555 1_555
C11 N6 1_555 1_555
C13 N7 1_555 1_555
C13 N9 1_555 1_555
C14 N8 1_555 1_555
C15 N10 1_555 1_555
C16 N8 1_555 1_555
C17 N10 1_555 1_555
C19 N11 1_555 1_555
C19 N12 1_555 1_555
C2C N1C 1_555 1_555
C2C N2C 1_555 1_555
C4C N1C 1_555 1_555
C5C N2C 1_555 1_555
C7C N3C 1_555 1_555
C7C N5C 1_555 1_555
C8C N4C 1_555 1_555
C9C N6C 1_555 1_555
C10C N4C 1_555 1_555
C11C N6C 1_555 1_555
C13C N7C 1_555 1_555
C13C N9C 1_555 1_555
C14C N8C 1_555 1_555
C15C N10C 1_555 1_555
C16C N8C 1_555 1_555
C16C N11C 1_555 1_555
C17C N10C 1_555 1_555
C17C N12C 1_555 1_555
C19C N11C 1_555 1_555
C19C N12C 1_555 1_555

#END
