
#######################################################################
#
#                 Cambridge Crystallographic Data Centre
#                                CCDC 
#
#######################################################################
#
# If this CIF has been generated from an entry in the Cambridge 
# Structural Database, then it will include bibliographic, chemical, 
# crystal, experimental, refinement or atomic coordinate data resulting 
# from the CCDC's data processing and validation procedures.
#
#######################################################################

data_MEKWAB
_chemical_formula_moiety         'C14 H14 Br2 O3'
_chemical_name_systematic        
'(1S,3R)-(4,4-dibromospiro(2.2)pent-1-yl)methyl (S)-2-hydroxy-2-phenylacetate'
_symmetry_cell_setting           orthorhombic
_symmetry_space_group_name_H-M   'P 21 21 21'
_symmetry_Int_Tables_number      19
_space_group_name_Hall           'P 2ac 2ab'
loop_
_symmetry_equiv_pos_site_id
_symmetry_equiv_pos_as_xyz
1 x,y,z
2 1/2-x,-y,1/2+z
3 -x,1/2+y,1/2-z
4 1/2+x,1/2-y,-z
_cell_length_a                   5.4644(2)
_cell_length_b                   14.1592(4)
_cell_length_c                   37.116(1)
_cell_angle_alpha                90
_cell_angle_beta                 90
_cell_angle_gamma                90
_cell_volume                     2871.72
_exptl_crystal_colour            colorless
_exptl_crystal_description       needle
_chemical_melting_point          '334-336 K'
_cell_formula_units_Z            8
_exptl_crystal_recrystallization_method 'hexane/diethyl ether'
loop_
_atom_site_label
_atom_site_type_symbol
_atom_site_fract_x
_atom_site_fract_y
_atom_site_fract_z
Br1 Br 0.43919(8) 0.38667(3) 0.544695(11)
Br2 Br 0.37809(8) 0.30904(3) 0.464512(11)
O1 O 0.9190(5) 0.64473(19) 0.52624(6)
O2 O 0.6391(5) 0.7293(2) 0.55662(7)
O3 O 0.9293(6) 0.7528(2) 0.61224(8)
C1 C 0.7682(8) 0.6540(3) 0.49355(10)
H1 H 0.8722 0.6411 0.4723
H2 H 0.7107 0.7201 0.4917
C2 C 0.5526(8) 0.5905(3) 0.49228(10)
H3 H 0.4161 0.6029 0.5096
C3 C 0.5947(8) 0.4915(3) 0.48083(10)
C4 C 0.5413(8) 0.3985(3) 0.49516(10)
C5 C 0.7997(8) 0.4224(3) 0.48606(11)
H4 H 0.8725 0.3930 0.4644
H5 H 0.9151 0.4336 0.5062
C6 C 0.4851(8) 0.5547(3) 0.45440(11)
H6 H 0.3095 0.5462 0.4487
H7 H 0.5879 0.5756 0.4339
C7 C 0.8348(7) 0.6916(3) 0.55495(10)
C8 C 1.0257(7) 0.6927(3) 0.58468(10)
H8 H 1.1793 0.7216 0.5751
C9 C 1.0853(8) 0.5959(3) 0.59972(10)
C10 C 1.2972(8) 0.5836(3) 0.61940(10)
H9 H 1.4086 0.6347 0.6218
C11 C 1.3503(9) 0.4973(3) 0.63581(11)
H10 H 1.4950 0.4902 0.6497
C12 C 1.1916(9) 0.4226(3) 0.63171(11)
H11 H 1.2254 0.3640 0.6431
C13 C 0.9841(9) 0.4328(3) 0.61108(11)
H12 H 0.8780 0.3804 0.6076
C14 C 0.9284(8) 0.5197(3) 0.59524(11)
H13 H 0.7831 0.5267 0.5814
H27 H 1.032(11) 0.771(4) 0.6249(15)
Br3 Br 0.81639(9) 0.65666(3) 0.691994(12)
Br4 Br 0.80233(12) 0.64994(4) 0.778158(13)
O4 O 0.7922(6) 0.3370(2) 0.83507(8)
O5 O 0.4735(5) 0.3822(2) 0.80150(7)
O6 O 0.5325(6) 0.3685(2) 0.89644(8)
C15 C 0.5929(9) 0.3428(3) 0.77002(11)
H14 H 0.4675 0.3255 0.7519
H15 H 0.6812 0.2845 0.7770
C16 C 0.7681(9) 0.4106(3) 0.75379(11)
H16 H 0.9227 0.4225 0.7675
C17 C 0.6695(8) 0.4909(3) 0.73267(11)
C18 C 0.6965(9) 0.5931(3) 0.73410(11)
C19 C 0.4440(9) 0.5502(3) 0.73299(12)
H17 H 0.3451 0.5516 0.7553
H18 H 0.3495 0.5557 0.7103
C20 C 0.7867(10) 0.4128(3) 0.71246(11)
H19 H 0.9494 0.4246 0.7016
H20 H 0.6796 0.3697 0.6986
C21 C 0.5915(9) 0.3710(3) 0.83296(11)
C22 C 0.4377(8) 0.4063(3) 0.86397(10)
H21 H 0.2659 0.3835 0.8607
C23 C 0.4367(8) 0.5134(3) 0.86509(10)
C24 C 0.2494(9) 0.5639(3) 0.84948(13)
H22 H 0.1211 0.5312 0.8376
C25 C 0.2449(9) 0.6619(4) 0.85084(15)
H23 H 0.1150 0.6956 0.8397
C26 C 0.4288(9) 0.7103(3) 0.86836(12)
H24 H 0.4259 0.7773 0.8695
C27 C 0.6157(9) 0.6607(3) 0.88407(11)
H25 H 0.7438 0.6933 0.8961
C28 C 0.6181(9) 0.5635(3) 0.88241(12)
H26 H 0.7485 0.5300 0.8935
H28 H 0.448(8) 0.329(3) 0.9024(11)
loop_
_geom_bond_atom_site_label_1
_geom_bond_atom_site_label_2
_geom_bond_site_symmetry_1
_geom_bond_site_symmetry_2
Br1 C4 1_555 1_555
Br2 C4 1_555 1_555
Br3 C18 1_555 1_555
Br4 C18 1_555 1_555
O1 C1 1_555 1_555
O2 C7 1_555 1_555
O3 C8 1_555 1_555
O4 C21 1_555 1_555
O5 C15 1_555 1_555
O6 C22 1_555 1_555
C1 H1 1_555 1_555
H2 C1 1_555 1_555
C2 C1 1_555 1_555
H3 C2 1_555 1_555
C3 C2 1_555 1_555
C4 C3 1_555 1_555
C5 C3 1_555 1_555
H4 C5 1_555 1_555
H5 C5 1_555 1_555
C6 C2 1_555 1_555
H6 C6 1_555 1_555
H7 C6 1_555 1_555
C7 O1 1_555 1_555
C8 C7 1_555 1_555
H8 C8 1_555 1_555
C9 C8 1_555 1_555
C10 C9 1_555 1_555
H9 C10 1_555 1_555
C11 C10 1_555 1_555
H10 C11 1_555 1_555
C12 C11 1_555 1_555
H11 C12 1_555 1_555
C13 C12 1_555 1_555
H12 C13 1_555 1_555
C14 C9 1_555 1_555
H13 C14 1_555 1_555
C15 H14 1_555 1_555
H15 C15 1_555 1_555
C16 C15 1_555 1_555
H16 C16 1_555 1_555
C17 C16 1_555 1_555
C18 C17 1_555 1_555
C19 C17 1_555 1_555
H17 C19 1_555 1_555
H18 C19 1_555 1_555
C20 C16 1_555 1_555
H19 C20 1_555 1_555
H20 C20 1_555 1_555
C21 O5 1_555 1_555
C22 C21 1_555 1_555
H21 C22 1_555 1_555
C23 C22 1_555 1_555
C24 C23 1_555 1_555
H22 C24 1_555 1_555
C25 C24 1_555 1_555
H23 C25 1_555 1_555
C26 C25 1_555 1_555
H24 C26 1_555 1_555
C27 C26 1_555 1_555
H25 C27 1_555 1_555
C28 C23 1_555 1_555
H26 C28 1_555 1_555
H27 O3 1_555 1_555
H28 O6 1_555 1_555
C3 C6 1_555 1_555
C4 C5 1_555 1_555
C13 C14 1_555 1_555
C17 C20 1_555 1_555
C18 C19 1_555 1_555
C27 C28 1_555 1_555

#END
