
#######################################################################
#
#                 Cambridge Crystallographic Data Centre
#                                CCDC 
#
#######################################################################
#
# If this CIF has been generated from an entry in the Cambridge 
# Structural Database, then it will include bibliographic, chemical, 
# crystal, experimental, refinement or atomic coordinate data resulting 
# from the CCDC's data processing and validation procedures.
#
#######################################################################

data_MEKWUV
_chemical_name_common            (P)-(+)-(7)triangulane
_chemical_formula_moiety         'C15 H18'
_chemical_name_systematic        
(4R,5R,6R,7R)-Hexaspiro(2.0.0.0.0.0.2^8^.1^7^.1^6^.1^5^.1^4^.1^3^)pentadecane
_symmetry_cell_setting           monoclinic
_symmetry_space_group_name_H-M   'P 21'
_symmetry_Int_Tables_number      4
_space_group_name_Hall           'P 2yb'
loop_
_symmetry_equiv_pos_site_id
_symmetry_equiv_pos_as_xyz
1 x,y,z
2 -x,1/2+y,-z
_cell_length_a                   7.3275(2)
_cell_length_b                   9.6053(2)
_cell_length_c                   8.9956(2)
_cell_angle_alpha                90
_cell_angle_beta                 109.82(1)
_cell_angle_gamma                90
_cell_volume                     595.63
_exptl_crystal_colour            colorless
_exptl_crystal_description       prism
_chemical_melting_point          '323-324 K'
_cell_formula_units_Z            2
_exptl_crystal_recrystallization_method acetonitrile
loop_
_atom_site_label
_atom_site_type_symbol
_atom_site_fract_x
_atom_site_fract_y
_atom_site_fract_z
C1 C 0.94234(14) 0.67409(12) 0.60499(13)
C2 C 0.78220(13) 0.68525(11) 0.45126(11)
C3 C 0.57144(13) 0.69626(10) 0.39270(11)
C4 C 0.40131(13) 0.60934(10) 0.32081(11)
C5 C 0.26755(13) 0.57190(9) 0.16469(11)
C6 C 0.08057(13) 0.61644(10) 0.05452(11)
C7 C -0.12591(13) 0.58608(10) 0.01587(11)
C8 C -0.28509(15) 0.51033(12) -0.10407(13)
C9 C -0.24654(15) 0.49005(11) 0.07257(13)
C10 C -0.05721(14) 0.73405(11) 0.04984(13)
C11 C 0.24684(13) 0.59493(11) -0.00581(10)
C12 C 0.35085(14) 0.45779(10) 0.28313(12)
C13 C 0.40383(14) 0.70580(11) 0.45342(12)
C14 C 0.68722(13) 0.79787(11) 0.33414(12)
C15 C 0.92852(15) 0.57466(12) 0.46844(14)
H1 H 1.043(2) 0.7480(17) 0.6341(19)
H2 H 0.909(2) 0.6356(17) 0.6938(18)
H3 H -0.399(2) 0.5587(16) -0.1633(19)
H4 H -0.248(2) 0.4350(19) -0.1573(19)
H5 H -0.337(2) 0.5329(17) 0.1190(19)
H6 H -0.1845(19) 0.4050(16) 0.1199(15)
H7 H -0.056(2) 0.7776(16) 0.1505(17)
H8 H -0.089(2) 0.7937(18) -0.0407(17)
H9 H 0.305(2) 0.675(2) -0.0310(19)
H10 H 0.246(2) 0.5132(16) -0.0684(17)
H11 H 0.267(2) 0.4132(17) 0.3399(18)
H12 H 0.454(2) 0.3970(16) 0.2741(17)
H13 H 0.331(2) 0.7860(17) 0.4287(17)
H14 H 0.426(2) 0.6589(17) 0.5566(18)
H15 H 0.684(2) 0.7925(17) 0.2275(18)
H16 H 0.698(2) 0.8922(18) 0.3812(17)
H17 H 1.023(2) 0.5882(17) 0.4117(17)
H18 H 0.886(2) 0.4774(16) 0.4716(17)
loop_
_geom_bond_atom_site_label_1
_geom_bond_atom_site_label_2
_geom_bond_site_symmetry_1
_geom_bond_site_symmetry_2
C1 C2 1_555 1_555
C2 C3 1_555 1_555
C3 C4 1_555 1_555
C4 C5 1_555 1_555
C5 C6 1_555 1_555
C6 C7 1_555 1_555
C7 C8 1_555 1_555
C8 C9 1_555 1_555
C9 C7 1_555 1_555
C10 C6 1_555 1_555
C11 C5 1_555 1_555
C12 C4 1_555 1_555
C13 C3 1_555 1_555
C14 C2 1_555 1_555
C15 C1 1_555 1_555
H1 C1 1_555 1_555
H2 C1 1_555 1_555
H3 C8 1_555 1_555
H4 C8 1_555 1_555
H5 C9 1_555 1_555
H6 C9 1_555 1_555
H7 C10 1_555 1_555
H8 C10 1_555 1_555
H9 C11 1_555 1_555
H10 C11 1_555 1_555
H11 C12 1_555 1_555
H12 C12 1_555 1_555
H13 C13 1_555 1_555
H14 C13 1_555 1_555
H15 C14 1_555 1_555
H16 C14 1_555 1_555
H17 C15 1_555 1_555
H18 C15 1_555 1_555
C2 C15 1_555 1_555
C3 C14 1_555 1_555
C4 C13 1_555 1_555
C5 C12 1_555 1_555
C6 C11 1_555 1_555
C7 C10 1_555 1_555

#END
