
#######################################################################
#
#                 Cambridge Crystallographic Data Centre
#                                CCDC 
#
#######################################################################
#
# If this CIF has been generated from an entry in the Cambridge 
# Structural Database, then it will include bibliographic, chemical, 
# crystal, experimental, refinement or atomic coordinate data resulting 
# from the CCDC's data processing and validation procedures.
#
#######################################################################

data_MEKYUX
_chemical_formula_moiety         'C15 H15 N1 O1 S1'
_chemical_name_systematic        
5-(2-(4-(dimethylamino)phenyl)vinyl)thiophene-2-carbaldehyde
_symmetry_cell_setting           orthorhombic
_symmetry_space_group_name_H-M   'P 21 21 21'
_symmetry_Int_Tables_number      19
_space_group_name_Hall           'P 2ac 2ab'
loop_
_symmetry_equiv_pos_site_id
_symmetry_equiv_pos_as_xyz
1 x,y,z
2 1/2-x,-y,1/2+z
3 -x,1/2+y,1/2-z
4 1/2+x,1/2-y,-z
_cell_length_a                   6.1356(4)
_cell_length_b                   7.6377(5)
_cell_length_c                   28.6163(18)
_cell_angle_alpha                90
_cell_angle_beta                 90
_cell_angle_gamma                90
_cell_volume                     1341.01
_cell_formula_units_Z            4
loop_
_atom_site_label
_atom_site_type_symbol
_atom_site_fract_x
_atom_site_fract_y
_atom_site_fract_z
S1 S 0.88756(11) 0.63878(8) 0.11875(2)
C1 C 0.3544(4) 0.6491(3) 0.32578(8)
H1 H 0.2187 0.5983 0.3309
C2 C 0.4604(4) 0.7334(3) 0.36272(8)
N1 N 0.3775(4) 0.7382(3) 0.40690(7)
C3 C 0.9318(4) 0.7590(3) 0.21041(8)
H2 H 1.0154 0.8187 0.2323
C4 C 0.7535(4) 0.7993(3) 0.30842(9)
H3 H 0.8870 0.8530 0.3029
C5 C 0.7437(4) 0.6928(3) 0.22546(9)
H4 H 0.6628 0.6287 0.2039
C6 C 0.4470(4) 0.6400(3) 0.28187(8)
H5 H 0.3701 0.5850 0.2580
C7 C 0.6518(4) 0.7102(3) 0.27193(8)
C8 C 1.2081(4) 0.8236(4) 0.14753(10)
H6 H 1.3017 0.8880 0.1664
C9 C 0.6637(4) 0.8105(3) 0.35216(8)
H7 H 0.7385 0.8703 0.3755
C10 C 0.4974(5) 0.8161(5) 0.44492(9)
H8 H 0.6247 0.8737 0.4329
H9 H 0.5407 0.7265 0.4666
H10 H 0.4069 0.8999 0.4606
C11 C 1.2456(5) 0.7949(4) 0.10040(10)
H11 H 1.3669 0.8381 0.0847
C12 C 0.1801(5) 0.6451(4) 0.41868(10)
H12 H 0.1154 0.5989 0.3907
H13 H 0.0797 0.7237 0.4335
H14 H 0.2140 0.5507 0.4396
C13 C 1.0886(5) 0.6975(3) 0.07928(9)
O1 O 0.9413(5) 0.5538(4) 0.01334(7)
C14 C 1.0796(6) 0.6416(5) 0.03096(10)
H15 H 1.1932 0.6776 0.0117
C15 C 1.0202(4) 0.7481(3) 0.16357(8)
loop_
_geom_bond_atom_site_label_1
_geom_bond_atom_site_label_2
_geom_bond_site_symmetry_1
_geom_bond_site_symmetry_2
S1 C13 1_555 1_555
C1 H1 1_555 1_555
C2 C1 1_555 1_555
N1 C2 1_555 1_555
C3 H2 1_555 1_555
C4 H3 1_555 1_555
C5 C3 1_555 1_555
H4 C5 1_555 1_555
C6 C1 1_555 1_555
H5 C6 1_555 1_555
C7 C4 1_555 1_555
C8 H6 1_555 1_555
C9 C2 1_555 1_555
H7 C9 1_555 1_555
C10 N1 1_555 1_555
H8 C10 1_555 1_555
H9 C10 1_555 1_555
H10 C10 1_555 1_555
C11 C8 1_555 1_555
H11 C11 1_555 1_555
C12 N1 1_555 1_555
H12 C12 1_555 1_555
H13 C12 1_555 1_555
H14 C12 1_555 1_555
C13 C11 1_555 1_555
O1 C14 1_555 1_555
C14 C13 1_555 1_555
H15 C14 1_555 1_555
C15 S1 1_555 1_555
C3 C15 1_555 1_555
C4 C9 1_555 1_555
C5 C7 1_555 1_555
C6 C7 1_555 1_555
C8 C15 1_555 1_555

#END
