
#######################################################################
#
#                 Cambridge Crystallographic Data Centre
#                                CCDC 
#
#######################################################################
#
# If this CIF has been generated from an entry in the Cambridge 
# Structural Database, then it will include bibliographic, chemical, 
# crystal, experimental, refinement or atomic coordinate data resulting 
# from the CCDC's data processing and validation procedures.
#
#######################################################################

data_MELAMI08
_chemical_name_common            Melamine
_chemical_formula_moiety         'C3 H6 N6'
_chemical_name_systematic        1,3,5-Triazine-2,4,6-triamine
_symmetry_cell_setting           monoclinic
_symmetry_space_group_name_H-M   'P 21/n'
_symmetry_Int_Tables_number      14
_space_group_name_Hall           '-P 2yn'
loop_
_symmetry_equiv_pos_site_id
_symmetry_equiv_pos_as_xyz
1 x,y,z
2 1/2-x,1/2+y,1/2-z
3 -x,-y,-z
4 1/2+x,1/2-y,1/2+z
_cell_length_a                   7.2789(3)
_cell_length_b                   7.4799(3)
_cell_length_c                   10.3316(4)
_cell_angle_alpha                90
_cell_angle_beta                 108.495(4)
_cell_angle_gamma                90
_cell_volume                     533.456
_exptl_crystal_colour            colorless
_exptl_crystal_description       block
_cell_formula_units_Z            4
loop_
_atom_site_label
_atom_site_type_symbol
_atom_site_fract_x
_atom_site_fract_y
_atom_site_fract_z
N1 N 0.01725(18) 0.19038(17) 0.11633(12)
N2 N 0.00063(17) 0.49592(19) 0.18149(13)
N3 N -0.28909(17) 0.33738(16) 0.06006(12)
N4 N 0.29154(19) 0.35038(17) 0.22373(14)
C1 C -0.1921(2) 0.48453(19) 0.12110(14)
C2 C -0.1761(2) 0.1955(2) 0.06351(13)
N5 N -0.2978(2) 0.6300(2) 0.12350(14)
C3 C 0.0988(2) 0.34595(18) 0.17288(13)
N6 N -0.2648(2) 0.03910(17) 0.01174(14)
H1 H 0.345(3) 0.452(3) 0.271(2)
H2 H -0.428(4) 0.633(3) 0.067(3)
H3 H -0.389(3) 0.062(3) -0.047(2)
H4 H 0.355(4) 0.250(3) 0.233(2)
H5 H -0.192(3) -0.045(3) -0.012(2)
H6 H -0.229(4) 0.727(4) 0.158(3)
loop_
_geom_bond_atom_site_label_1
_geom_bond_atom_site_label_2
_geom_bond_site_symmetry_1
_geom_bond_site_symmetry_2
N1 C2 1_555 1_555
N2 C1 1_555 1_555
N3 C1 1_555 1_555
N4 C3 1_555 1_555
C1 N5 1_555 1_555
C2 N3 1_555 1_555
N5 H2 1_555 1_555
C3 N1 1_555 1_555
N6 C2 1_555 1_555
H1 N4 1_555 1_555
H3 N6 1_555 1_555
H4 N4 1_555 1_555
H5 N6 1_555 1_555
H6 N5 1_555 1_555
N2 C3 1_555 1_555

#END
