
#######################################################################
#
#                 Cambridge Crystallographic Data Centre
#                                CCDC 
#
#######################################################################
#
# If this CIF has been generated from an entry in the Cambridge 
# Structural Database, then it will include bibliographic, chemical, 
# crystal, experimental, refinement or atomic coordinate data resulting 
# from the CCDC's data processing and validation procedures.
#
#######################################################################

data_MELEZT02
_chemical_name_common            'Melezitose monohydrate'
_chemical_formula_moiety         'C18 H32 O16,H2 O1'
_chemical_name_systematic        
'O-\a-D-Glucopyranosyl-(1-3)-\b-D-fructofuranosyl-\a-D-glucopyranoside monohydrate'
_symmetry_cell_setting           orthorhombic
_symmetry_space_group_name_H-M   'P 21 21 21'
_symmetry_Int_Tables_number      19
_space_group_name_Hall           'P 2ac 2ab'
loop_
_symmetry_equiv_pos_site_id
_symmetry_equiv_pos_as_xyz
1 x,y,z
2 1/2+x,1/2-y,-z
3 -x,1/2+y,1/2-z
4 1/2-x,-y,1/2+z
_cell_length_a                   7.635(4)
_cell_length_b                   15.362(8)
_cell_length_c                   19.134(8)
_cell_angle_alpha                90
_cell_angle_beta                 90
_cell_angle_gamma                90
_cell_volume                     2244.21
_cell_formula_units_Z            4
loop_
_atom_site_label
_atom_site_type_symbol
_atom_site_fract_x
_atom_site_fract_y
_atom_site_fract_z
C1 C 0.29880 -0.01310 0.34790
C2 C 0.23480 -0.10820 0.34040
C3 C 0.03710 -0.11460 0.33390
C4 C -0.05360 -0.06140 0.38950
C5 C 0.01290 0.03140 0.38500
C6 C -0.07130 0.09310 0.43570
O1 O 0.28640 0.03170 0.28370
O2 O 0.30840 -0.14960 0.28150
O3 O -0.02170 -0.20130 0.34080
O4 O -0.23750 -0.06580 0.37820
O5 O 0.19880 0.03010 0.39990
O6 O -0.06570 0.06220 0.50550
C7 C 0.57150 0.00920 0.23430
C8 C 0.44340 0.07580 0.26180
C9 C 0.39060 0.14910 0.21210
C10 C 0.33360 0.21990 0.26170
C11 C 0.46090 0.20920 0.32230
C12 C 0.38260 0.22740 0.39290
O7 O 0.72190 0.05230 0.20650
O8 O 0.52370 0.12050 0.31790
O9 O 0.25460 0.13220 0.16340
O10 O 0.34840 0.30520 0.23340
O11 O 0.50050 0.21230 0.44940
C13 C 0.30440 0.09810 0.09830
C14 C 0.17780 0.13290 0.04380
C15 C -0.00550 0.09800 0.05730
C16 C -0.00480 -0.00010 0.06250
C17 C 0.13550 -0.03120 0.11400
C18 C 0.16050 -0.12800 0.11490
O12 O 0.18370 0.22390 0.03840
O13 O -0.12180 0.12140 0.00150
O14 O -0.16580 -0.03270 0.09000
O15 O 0.30290 0.00580 0.09760
O16 O 0.23080 -0.16110 0.05120
H1 H 0.42300 -0.01400 0.37200
H2 H 0.26400 -0.14600 0.39000
H3 H 0.00900 -0.09900 0.29100
H4 H -0.02700 -0.08900 0.44400
H5 H -0.00300 0.05700 0.34500
H6 H -0.03000 0.16000 0.42700
H7 H -0.18500 0.10400 0.42700
H8 H 0.39100 -0.16300 0.28400
H9 H 0.02500 -0.24100 0.33300
H10 H -0.28600 -0.08300 0.42500
H11 H 0.05100 0.06600 0.51800
H12 H 0.61200 -0.03800 0.27300
H13 H 0.51800 -0.02800 0.19500
H14 H 0.49900 0.17200 0.18500
H15 H 0.22000 0.21800 0.28200
H16 H 0.56300 0.25400 0.31700
H17 H 0.28600 0.19800 0.40400
H18 H 0.33800 0.28500 0.39400
H19 H 0.75500 0.01800 0.16200
H20 H 0.25600 0.31000 0.21500
H21 H 0.58100 0.25700 0.45100
H22 H 0.42300 0.11500 0.08400
H23 H 0.22200 0.10900 0.00500
H24 H -0.04400 0.12700 0.09600
H25 H 0.03000 -0.02400 0.01400
H26 H 0.10000 -0.02100 0.15400
H27 H 0.04900 -0.15700 0.11900
H28 H 0.25000 -0.14500 0.14600
H29 H 0.14500 0.24800 0.07000
H30 H -0.14200 0.17800 0.00200
H31 H -0.23800 -0.02900 0.05400
H32 H 0.13900 -0.18200 0.02100
O17 O 0.89480 0.19360 0.26170
H33 H 0.84300 0.15200 0.24500
H34 H 0.84300 0.23000 0.26500
loop_
_geom_bond_atom_site_label_1
_geom_bond_atom_site_label_2
_geom_bond_site_symmetry_1
_geom_bond_site_symmetry_2
C1 C2 1_555 1_555
C2 C3 1_555 1_555
C3 C4 1_555 1_555
C4 C5 1_555 1_555
C5 C6 1_555 1_555
C6 O6 1_555 1_555
O1 C1 1_555 1_555
O2 C2 1_555 1_555
O3 C3 1_555 1_555
O4 C4 1_555 1_555
O5 C1 1_555 1_555
O6 H11 1_555 1_555
C7 C8 1_555 1_555
C8 O1 1_555 1_555
C9 C8 1_555 1_555
C10 C9 1_555 1_555
C11 C10 1_555 1_555
C12 C11 1_555 1_555
O7 C7 1_555 1_555
O8 C8 1_555 1_555
O9 C9 1_555 1_555
O10 C10 1_555 1_555
O11 C12 1_555 1_555
C13 O9 1_555 1_555
C14 C13 1_555 1_555
C15 C14 1_555 1_555
C16 C15 1_555 1_555
C17 C16 1_555 1_555
C18 C17 1_555 1_555
O12 C14 1_555 1_555
O13 C15 1_555 1_555
O14 C16 1_555 1_555
O15 C13 1_555 1_555
O16 C18 1_555 1_555
H1 C1 1_555 1_555
H2 C2 1_555 1_555
H3 C3 1_555 1_555
H4 C4 1_555 1_555
H5 C5 1_555 1_555
H6 C6 1_555 1_555
H7 C6 1_555 1_555
H8 O2 1_555 1_555
H9 O3 1_555 1_555
H10 O4 1_555 1_555
H12 C7 1_555 1_555
H13 C7 1_555 1_555
H14 C9 1_555 1_555
H15 C10 1_555 1_555
H16 C11 1_555 1_555
H17 C12 1_555 1_555
H18 C12 1_555 1_555
H19 O7 1_555 1_555
H20 O10 1_555 1_555
H21 O11 1_555 1_555
H22 C13 1_555 1_555
H23 C14 1_555 1_555
H24 C15 1_555 1_555
H25 C16 1_555 1_555
H26 C17 1_555 1_555
H27 C18 1_555 1_555
H28 C18 1_555 1_555
H29 O12 1_555 1_555
H30 O13 1_555 1_555
H31 O14 1_555 1_555
H32 O16 1_555 1_555
O17 H33 1_555 1_555
H34 O17 1_555 1_555
C5 O5 1_555 1_555
C11 O8 1_555 1_555
C17 O15 1_555 1_555

#END
