
#######################################################################
#
#                 Cambridge Crystallographic Data Centre
#                                CCDC 
#
#######################################################################
#
# If this CIF has been generated from an entry in the Cambridge 
# Structural Database, then it will include bibliographic, chemical, 
# crystal, experimental, refinement or atomic coordinate data resulting 
# from the CCDC's data processing and validation procedures.
#
#######################################################################

data_MELEZT01
_chemical_formula_moiety         'C18 H32 O16,H2 O1'
_chemical_name_systematic        'Melezitose monohydrate'
_symmetry_cell_setting           orthorhombic
_symmetry_space_group_name_H-M   'P 21 21 21'
_symmetry_Int_Tables_number      19
_space_group_name_Hall           'P 2ac 2ab'
loop_
_symmetry_equiv_pos_site_id
_symmetry_equiv_pos_as_xyz
1 x,y,z
2 1/2+x,1/2-y,-z
3 -x,1/2+y,1/2-z
4 1/2-x,-y,1/2+z
_cell_length_a                   14.950(8)
_cell_length_b                   13.863(6)
_cell_length_c                   10.812
_cell_angle_alpha                90
_cell_angle_beta                 90
_cell_angle_gamma                90
_cell_volume                     2240.81
_cell_formula_units_Z            4
loop_
_atom_site_label
_atom_site_type_symbol
_atom_site_fract_x
_atom_site_fract_y
_atom_site_fract_z
C1 C 0.47590 0.30800 0.33650
C2 C 0.53070 0.10600 0.45260
C3 C 0.34740 0.12550 0.69470
C4 C 0.52640 0.38940 0.40000
C5 C 0.44120 0.14420 0.40840
C6 C 0.28680 0.17620 0.78770
C7 C 0.46480 0.44360 0.48870
C8 C 0.35660 0.10650 0.47330
C9 C 0.31180 0.28230 0.80530
C10 C 0.38710 0.48380 0.41320
C11 C 0.28650 0.11480 0.36950
C12 C 0.41120 0.29350 0.83150
C13 C 0.34000 0.40180 0.34460
C14 C 0.34100 0.08520 0.25720
C15 C 0.46810 0.23820 0.73700
C16 C 0.26510 0.43630 0.26070
C17 C 0.31130 0.11880 0.13310
C18 C 0.56650 0.23620 0.76940
H1 H 0.51800 0.27300 0.26700
H2 H 0.54100 0.12600 0.53400
H3 H 0.58000 -0.02300 0.38800
H6 H 0.33600 0.05000 0.70000
H7 H 0.54400 0.43000 0.32700
H8 H 0.58300 0.13800 0.39200
H9 H 0.64800 0.33600 0.41400
H10 H 0.16100 0.17400 0.81700
H11 H 0.29300 0.13900 0.87500
H12 H 0.44500 0.40000 0.56400
H13 H 0.36500 0.03200 0.50300
H14 H 0.51100 0.53200 0.63100
H15 H 0.28400 0.29300 0.97000
H16 H 0.29300 0.32200 0.72600
H17 H 0.40600 0.53500 0.34500
H18 H 0.26800 0.18400 0.36500
H19 H 0.31100 0.58200 0.45700
H20 H 0.16800 0.07700 0.43800
H21 H 0.42300 0.41500 0.89600
H22 H 0.42900 0.27000 0.92500
H23 H 0.30500 0.35700 0.40900
H24 H 0.34500 0.00800 0.24800
H25 H 0.45000 0.26800 0.65200
H26 H 0.26600 0.52000 0.09800
H27 H 0.34600 0.24900 0.16800
H28 H 0.55200 0.14500 0.91000
H29 H 0.24200 0.38300 0.22500
H30 H 0.35700 0.09400 0.05900
H31 H 0.59600 0.19100 0.71000
H32 H 0.58900 0.30500 0.76200
H33 H 0.21300 0.47000 0.31100
H34 H 0.24500 0.09100 0.11800
O1 O 0.44180 0.24640 0.42900
O2 O 0.53630 0.00360 0.44370
O4 O 0.60150 0.35110 0.46520
O5 O 0.43130 0.12150 0.28160
O6 O 0.19720 0.16770 0.74660
O7 O 0.51150 0.52230 0.54490
O8 O 0.32860 0.16400 0.57680
O9 O 0.26020 0.31980 0.90740
O10 O 0.32430 0.52680 0.49440
O11 O 0.21360 0.05020 0.38130
O12 O 0.43860 0.39320 0.81720
O13 O 0.40310 0.34890 0.26710
O14 O 0.43840 0.13850 0.73000
O15 O 0.30000 0.50370 0.17250
O16 O 0.30120 0.22250 0.12430
O17 O 0.58290 0.20620 0.89470
H4 H 0.45800 -0.10000 0.43200
H5 H 0.41100 -0.19300 0.49500
O3 O 0.40600 -0.14740 0.44010
loop_
_geom_bond_atom_site_label_1
_geom_bond_atom_site_label_2
_geom_bond_site_symmetry_1
_geom_bond_site_symmetry_2
C1 C4 1_555 1_555
C2 C5 1_555 1_555
C3 C6 1_555 1_555
C4 C7 1_555 1_555
C5 C8 1_555 1_555
C6 C9 1_555 1_555
C7 C10 1_555 1_555
C8 C11 1_555 1_555
C9 C12 1_555 1_555
C10 C13 1_555 1_555
C11 C14 1_555 1_555
C12 C15 1_555 1_555
C13 C16 1_555 1_555
C14 C17 1_555 1_555
C15 C18 1_555 1_555
C16 H29 1_555 1_555
C17 H30 1_555 1_555
C18 H31 1_555 1_555
H1 C1 1_555 1_555
H2 C2 1_555 1_555
H3 O2 1_555 1_555
H4 O3 1_555 1_555
H5 O3 1_555 1_555
H6 C3 1_555 1_555
H7 C4 1_555 1_555
H8 C2 1_555 1_555
H9 O4 1_555 1_555
H10 O6 1_555 1_555
H11 C6 1_555 1_555
H12 C7 1_555 1_555
H13 C8 1_555 1_555
H14 O7 1_555 1_555
H15 O9 1_555 1_555
H16 C9 1_555 1_555
H17 C10 1_555 1_555
H18 C11 1_555 1_555
H19 O10 1_555 1_555
H20 O11 1_555 1_555
H21 O12 1_555 1_555
H22 C12 1_555 1_555
H23 C13 1_555 1_555
H24 C14 1_555 1_555
H25 C15 1_555 1_555
H26 O15 1_555 1_555
H27 O16 1_555 1_555
H28 O17 1_555 1_555
H32 C18 1_555 1_555
H33 C16 1_555 1_555
H34 C17 1_555 1_555
O1 C1 1_555 1_555
O2 C2 1_555 1_555
O4 C4 1_555 1_555
O5 C5 1_555 1_555
O6 C6 1_555 1_555
O7 C7 1_555 1_555
O8 C3 1_555 1_555
O9 C9 1_555 1_555
O10 C10 1_555 1_555
O11 C11 1_555 1_555
O12 C12 1_555 1_555
O13 C1 1_555 1_555
O14 C3 1_555 1_555
O15 C16 1_555 1_555
O16 C17 1_555 1_555
O17 C18 1_555 1_555
C5 O1 1_555 1_555
C8 O8 1_555 1_555
C13 O13 1_555 1_555
C14 O5 1_555 1_555
C15 O14 1_555 1_555

#END
