
#######################################################################
#
#                 Cambridge Crystallographic Data Centre
#                                CCDC 
#
#######################################################################
#
# If this CIF has been generated from an entry in the Cambridge 
# Structural Database, then it will include bibliographic, chemical, 
# crystal, experimental, refinement or atomic coordinate data resulting 
# from the CCDC's data processing and validation procedures.
#
#######################################################################

data_MELFIT07
_chemical_name_common            Aripiprazole
_chemical_formula_moiety         'C23 H27 Cl2 N3 O2'
_chemical_name_systematic        
7-(4-(4-(2,3-Dichlorophenyl)piperazin-1-yl)butoxy)-3,4-dihydroquinolin-2(1H)-one
_chemical_properties_biological  
'Aripiprazole is a partial D2 and 5-HT1A agonist and 5-HT2A antagonist used in the treatment of Otsuka, schizophrenia, bipolar disorder and other mental health conditions.'
_symmetry_cell_setting           triclinic
_symmetry_space_group_name_H-M   'P -1'
_symmetry_Int_Tables_number      2
_space_group_name_Hall           '-P 1'
loop_
_symmetry_equiv_pos_site_id
_symmetry_equiv_pos_as_xyz
1 x,y,z
2 -x,-y,-z
_cell_length_a                   7.0266(15)
_cell_length_b                   9.977(2)
_cell_length_c                   15.945(3)
_cell_angle_alpha                81.773(4)
_cell_angle_beta                 78.728(4)
_cell_angle_gamma                85.888(4)
_cell_volume                     1083.87
_exptl_crystal_colour            colorless
_exptl_crystal_description       rod
_cell_formula_units_Z            2
loop_
_atom_site_label
_atom_site_type_symbol
_atom_site_fract_x
_atom_site_fract_y
_atom_site_fract_z
Cl1 Cl -0.74430(5) 0.79866(4) 0.42872(2)
Cl2 Cl -0.88221(6) 0.95325(4) 0.58862(2)
O1 O 0.40962(15) 0.59574(10) 0.07879(7)
O2 O 1.03981(16) 1.11262(11) -0.10725(7)
N1 N -0.35186(18) 0.65874(12) 0.41955(8)
N2 N -0.16173(18) 0.53673(12) 0.27142(8)
N3 N 0.82506(19) 0.94979(13) -0.05270(8)
H1 H 0.873(2) 0.9349(17) -0.0062(12)
C1 C -0.5909(2) 0.80385(14) 0.50120(9)
C2 C -0.6543(2) 0.87097(14) 0.57306(10)
C3 C -0.5414(2) 0.86794(16) 0.63559(10)
H2 H -0.5855 0.9139 0.6845
C4 C -0.3639(2) 0.79718(16) 0.62569(10)
H3 H -0.2863 0.7938 0.6686
C5 C -0.2975(2) 0.73110(16) 0.55407(10)
H4 H -0.1740 0.6842 0.5482
C6 C -0.4088(2) 0.73215(14) 0.49030(9)
C7 C -0.2081(2) 0.54664(15) 0.42754(10)
H5 H -0.2406 0.4920 0.4849
H6 H -0.0777 0.5824 0.4217
C8 C -0.2079(2) 0.45883(15) 0.35723(10)
H7 H -0.1110 0.3825 0.3623
H8 H -0.3373 0.4205 0.3649
C9 C -0.3030(2) 0.65165(15) 0.26439(9)
H9 H -0.4344 0.6176 0.2701
H10 H -0.2697 0.7061 0.2070
C10 C -0.3024(2) 0.73967(15) 0.33408(9)
H11 H -0.1723 0.7766 0.3272
H12 H -0.3981 0.8168 0.3290
C11 C -0.1613(2) 0.44991(15) 0.20438(10)
H13 H -0.1707 0.5078 0.1493
H14 H -0.2770 0.3940 0.2207
C12 C 0.0218(2) 0.35648(15) 0.19101(10)
H15 H 0.0199 0.2892 0.2432
H16 H 0.0193 0.3063 0.1420
C13 C 0.2111(2) 0.43143(15) 0.17310(10)
H17 H 0.2192 0.4764 0.2237
H18 H 0.3228 0.3652 0.1645
C14 C 0.2233(2) 0.53691(15) 0.09378(10)
H19 H 0.2089 0.4940 0.0432
H20 H 0.1183 0.6078 0.1033
C15 C 0.4452(2) 0.70050(14) 0.01283(9)
C16 C 0.6140(2) 0.76758(14) 0.00853(9)
H21 H 0.6973 0.7381 0.0485
C17 C 0.6607(2) 0.87787(15) -0.05422(9)
C18 C 0.5450(2) 0.92107(15) -0.11607(9)
C19 C 0.3789(2) 0.85079(15) -0.11101(9)
H22 H 0.2981 0.8780 -0.1523
C20 C 0.3262(2) 0.74157(15) -0.04739(10)
H23 H 0.2109 0.6959 -0.0452
C21 C 0.5994(2) 1.04625(15) -0.17899(10)
H24 H 0.5290 1.1265 -0.1556
H25 H 0.5584 1.0385 -0.2340
C22 C 0.8181(2) 1.06702(16) -0.19641(10)
H26 H 0.8851 1.0022 -0.2352
H27 H 0.8429 1.1598 -0.2265
C23 C 0.9028(2) 1.04771(15) -0.11526(10)
loop_
_geom_bond_atom_site_label_1
_geom_bond_atom_site_label_2
_geom_bond_site_symmetry_1
_geom_bond_site_symmetry_2
Cl1 C1 1_555 1_555
Cl2 C2 1_555 1_555
O1 C14 1_555 1_555
O2 C23 1_555 1_555
N1 C6 1_555 1_555
N2 C8 1_555 1_555
N3 H1 1_555 1_555
C1 C2 1_555 1_555
C2 C3 1_555 1_555
C3 H2 1_555 1_555
C4 C3 1_555 1_555
H3 C4 1_555 1_555
C5 C4 1_555 1_555
H4 C5 1_555 1_555
C6 C1 1_555 1_555
C7 N1 1_555 1_555
H5 C7 1_555 1_555
H6 C7 1_555 1_555
C8 C7 1_555 1_555
H7 C8 1_555 1_555
H8 C8 1_555 1_555
C9 N2 1_555 1_555
H9 C9 1_555 1_555
H10 C9 1_555 1_555
C10 N1 1_555 1_555
H11 C10 1_555 1_555
H12 C10 1_555 1_555
C11 N2 1_555 1_555
H13 C11 1_555 1_555
H14 C11 1_555 1_555
C12 C11 1_555 1_555
H15 C12 1_555 1_555
H16 C12 1_555 1_555
C13 C12 1_555 1_555
H17 C13 1_555 1_555
H18 C13 1_555 1_555
C14 C13 1_555 1_555
H19 C14 1_555 1_555
H20 C14 1_555 1_555
C15 O1 1_555 1_555
C16 C15 1_555 1_555
H21 C16 1_555 1_555
C17 N3 1_555 1_555
C18 C17 1_555 1_555
C19 C18 1_555 1_555
H22 C19 1_555 1_555
C20 C15 1_555 1_555
H23 C20 1_555 1_555
C21 C18 1_555 1_555
H24 C21 1_555 1_555
H25 C21 1_555 1_555
C22 C21 1_555 1_555
H26 C22 1_555 1_555
H27 C22 1_555 1_555
C23 N3 1_555 1_555
C5 C6 1_555 1_555
C9 C10 1_555 1_555
C16 C17 1_555 1_555
C19 C20 1_555 1_555
C22 C23 1_555 1_555

#END
