
#######################################################################
#
#                 Cambridge Crystallographic Data Centre
#                                CCDC 
#
#######################################################################
#
# If this CIF has been generated from an entry in the Cambridge 
# Structural Database, then it will include bibliographic, chemical, 
# crystal, experimental, refinement or atomic coordinate data resulting 
# from the CCDC's data processing and validation procedures.
#
#######################################################################

data_MELFIT17
_chemical_name_common            Aripiprazole
_chemical_formula_moiety         'C23 H27 Cl2 N3 O2'
_chemical_name_systematic        
7-(4-(4-(2,3-dichlorophenyl)piperazin-1-yl)butoxy)-3,4-dihydroquinolin-2(1H)-one
_symmetry_cell_setting           orthorhombic
_symmetry_space_group_name_H-M   'P n a 21'
_symmetry_Int_Tables_number      33
_space_group_name_Hall           'P 2c -2n'
loop_
_symmetry_equiv_pos_site_id
_symmetry_equiv_pos_as_xyz
1 x,y,z
2 -x,-y,1/2+z
3 1/2-x,1/2+y,1/2+z
4 1/2+x,1/2-y,z
_cell_length_a                   23.546(5)
_cell_length_b                   12.476(3)
_cell_length_c                   7.7014(15)
_cell_angle_alpha                90
_cell_angle_beta                 90
_cell_angle_gamma                90
_cell_volume                     2262.36
_exptl_crystal_colour            colorless
_exptl_crystal_description       rod
_cell_formula_units_Z            4
loop_
_atom_site_label
_atom_site_type_symbol
_atom_site_fract_x
_atom_site_fract_y
_atom_site_fract_z
Cl1 Cl 0.65449(3) 0.30746(7) 1.79661(12)
Cl2 Cl 0.53217(3) 0.22491(6) 1.72314(9)
O1 O 0.20928(8) -0.08374(19) 0.7851(3)
O2 O -0.00415(8) 0.00024(17) 0.1772(3)
N1 N 0.50427(9) 0.19326(17) 1.3488(3)
N2 N 0.41396(9) 0.06596(16) 1.2141(3)
N3 N 0.06121(8) -0.05328(17) 0.3692(3)
H1 H 0.0378 -0.0375 0.4545
C1 C 0.63102(13) 0.2915(2) 1.5849(4)
C2 C 0.66650(13) 0.3215(2) 1.4513(4)
H2 H 0.7034 0.3485 1.4752
C3 C 0.64799(12) 0.3120(2) 1.2845(5)
H3 H 0.6717 0.3351 1.1919
C4 C 0.59497(12) 0.2688(2) 1.2480(4)
H4 H 0.5832 0.2614 1.1307
C5 C 0.57739(12) 0.25166(19) 1.5509(3)
C6 C 0.55919(11) 0.2367(2) 1.3798(3)
C7 C 0.49876(11) 0.0794(2) 1.3928(4)
H5 H 0.5144 0.0663 1.5102
H6 H 0.5205 0.0356 1.3087
C8 C 0.48094(12) 0.2129(2) 1.1765(4)
H7 H 0.5026 0.1716 1.0890
H8 H 0.4842 0.2900 1.1477
C9 C 0.41958(12) 0.1796(2) 1.1727(4)
H9 H 0.3978 0.2226 1.2579
H10 H 0.4036 0.1935 1.0560
C10 C 0.43686(11) 0.0476(2) 1.3880(4)
H11 H 0.4330 -0.0290 1.4190
H12 H 0.4153 0.0904 1.4738
C11 C 0.35552(12) 0.0299(2) 1.1993(4)
H13 H 0.3302 0.0827 1.2559
H14 H 0.3512 -0.0393 1.2606
C12 C 0.33790(12) 0.0164(3) 1.0095(4)
H15 H 0.3420 0.0861 0.9495
H16 H 0.3640 -0.0351 0.9531
C13 C 0.27808(12) -0.0225(3) 0.9870(4)
H17 H 0.2720 -0.0868 1.0602
H18 H 0.2514 0.0338 1.0263
C14 C 0.26597(11) -0.0496(2) 0.8030(4)
H19 H 0.2726 0.0141 0.7290
H20 H 0.2919 -0.1073 0.7640
C15 C 0.19122(11) -0.1051(2) 0.6181(4)
C16 C 0.22311(12) -0.1601(3) 0.4978(4)
H21 H 0.2603 -0.1838 0.5261
C17 C 0.13696(10) -0.0711(2) 0.5772(4)
H22 H 0.1146 -0.0346 0.6611
C18 C 0.20065(11) -0.1806(2) 0.3359(4)
H23 H 0.2228 -0.2191 0.2537
C19 C 0.11569(9) -0.09069(19) 0.4132(3)
C20 C 0.14673(10) -0.1468(2) 0.2895(4)
C21 C 0.11972(12) -0.1686(2) 0.1173(4)
H24 H 0.0965 -0.2346 0.1246
H25 H 0.1496 -0.1800 0.0287
C22 C 0.08216(11) -0.0748(2) 0.0632(4)
H26 H 0.1065 -0.0136 0.0296
H27 H 0.0595 -0.0958 -0.0397
C23 C 0.04260(11) -0.0401(2) 0.2059(4)
loop_
_geom_bond_atom_site_label_1
_geom_bond_atom_site_label_2
_geom_bond_site_symmetry_1
_geom_bond_site_symmetry_2
Cl1 C1 1_555 1_555
Cl2 C5 1_555 1_555
O1 C14 1_555 1_555
O2 C23 1_555 1_555
N1 C6 1_555 1_555
N2 C9 1_555 1_555
N3 H1 1_555 1_555
C1 C2 1_555 1_555
C2 H2 1_555 1_555
C3 C2 1_555 1_555
H3 C3 1_555 1_555
C4 C3 1_555 1_555
H4 C4 1_555 1_555
C5 C1 1_555 1_555
C6 C4 1_555 1_555
C7 N1 1_555 1_555
H5 C7 1_555 1_555
H6 C7 1_555 1_555
C8 N1 1_555 1_555
H7 C8 1_555 1_555
H8 C8 1_555 1_555
C9 C8 1_555 1_555
H9 C9 1_555 1_555
H10 C9 1_555 1_555
C10 N2 1_555 1_555
H11 C10 1_555 1_555
H12 C10 1_555 1_555
C11 N2 1_555 1_555
H13 C11 1_555 1_555
H14 C11 1_555 1_555
C12 C11 1_555 1_555
H15 C12 1_555 1_555
H16 C12 1_555 1_555
C13 C12 1_555 1_555
H17 C13 1_555 1_555
H18 C13 1_555 1_555
C14 C13 1_555 1_555
H19 C14 1_555 1_555
H20 C14 1_555 1_555
C15 O1 1_555 1_555
C16 C15 1_555 1_555
H21 C16 1_555 1_555
C17 C15 1_555 1_555
H22 C17 1_555 1_555
C18 C16 1_555 1_555
H23 C18 1_555 1_555
C19 N3 1_555 1_555
C20 C18 1_555 1_555
C21 C20 1_555 1_555
H24 C21 1_555 1_555
H25 C21 1_555 1_555
C22 C21 1_555 1_555
H26 C22 1_555 1_555
H27 C22 1_555 1_555
C23 N3 1_555 1_555
C5 C6 1_555 1_555
C7 C10 1_555 1_555
C17 C19 1_555 1_555
C19 C20 1_555 1_555
C22 C23 1_555 1_555

#END
