
#######################################################################
#
#                 Cambridge Crystallographic Data Centre
#                                CCDC 
#
#######################################################################
#
# If this CIF has been generated from an entry in the Cambridge 
# Structural Database, then it will include bibliographic, chemical, 
# crystal, experimental, refinement or atomic coordinate data resulting 
# from the CCDC's data processing and validation procedures.
#
#######################################################################

data_MELFIT12
_chemical_name_common            Aripiprazole
_chemical_formula_moiety         'C23 H27 Cl2 N3 O2'
_chemical_name_systematic        
7-(4-(4-(2,3-dichlorophenyl)piperazin-1-yl)butoxy)-3,4-dihydroquinolin-2(1H)-one
_symmetry_cell_setting           orthorhombic
_symmetry_space_group_name_H-M   'P n a 21'
_symmetry_Int_Tables_number      33
_space_group_name_Hall           'P 2c -2n'
loop_
_symmetry_equiv_pos_site_id
_symmetry_equiv_pos_as_xyz
1 x,y,z
2 -x,-y,1/2+z
3 1/2-x,1/2+y,1/2+z
4 1/2+x,1/2-y,z
_cell_length_a                   21.6856(16)
_cell_length_b                   13.1451(10)
_cell_length_c                   7.6490(5)
_cell_angle_alpha                90
_cell_angle_beta                 90
_cell_angle_gamma                90
_cell_volume                     2180.42
_exptl_crystal_colour            colorless
_exptl_crystal_description       rod
_cell_formula_units_Z            4
loop_
_atom_site_label
_atom_site_type_symbol
_atom_site_fract_x
_atom_site_fract_y
_atom_site_fract_z
Cl1 Cl 1.14608(4) 0.33022(7) -0.03303(11)
Cl2 Cl 1.02204(4) 0.21812(6) 0.03684(9)
O1 O 0.73630(9) -0.09200(17) 0.9891(3)
O2 O 0.49221(10) -0.00260(19) 1.5692(3)
N1 N 0.99131(12) 0.1866(2) 0.4127(3)
N2 N 0.89156(12) 0.06195(19) 0.5295(3)
N3 N 0.56577(12) -0.05623(19) 1.3831(3)
H1 H 0.5420 -0.0403 1.2940
C1 C 1.16023(16) 0.3363(2) 0.3152(4)
H2 H 1.1984 0.3692 0.2921
C2 C 1.14076(15) 0.3196(2) 0.4856(5)
H3 H 1.1654 0.3423 0.5805
C3 C 1.08584(15) 0.2703(2) 0.5180(4)
H4 H 1.0733 0.2599 0.6356
C4 C 1.04850(14) 0.2355(2) 0.3837(4)
C5 C 0.98982(15) 0.0775(2) 0.3742(4)
H5 H 1.0118 0.0394 0.4668
H6 H 1.0106 0.0640 0.2612
C6 C 0.92366(16) 0.0433(3) 0.3653(4)
H7 H 0.9024 0.0802 0.2699
H8 H 0.9222 -0.0303 0.3381
C7 C 0.82683(15) 0.0281(3) 0.5167(4)
H9 H 0.8261 -0.0417 0.4684
H10 H 0.8049 0.0729 0.4333
C8 C 0.79222(15) 0.0287(3) 0.6893(4)
H11 H 0.7886 0.0995 0.7320
H12 H 0.7501 0.0019 0.6707
C9 C 0.82443(16) -0.0349(3) 0.8258(5)
H13 H 0.8280 -0.1054 0.7812
H14 H 0.8667 -0.0082 0.8416
C10 C 0.79345(15) -0.0381(3) 1.0004(5)
H15 H 0.8208 -0.0720 1.0861
H16 H 0.7857 0.0322 1.0416
C11 C 0.71017(15) -0.1124(2) 1.1512(4)
C12 C 0.65154(14) -0.0779(2) 1.1840(4)
H17 H 0.6292 -0.0427 1.0959
C13 C 0.62512(14) -0.0946(2) 1.3470(4)
C14 C 0.54301(15) -0.0423(2) 1.5465(4)
C15 C 0.58444(15) -0.0725(3) 1.6951(4)
H18 H 0.5587 -0.0905 1.7973
H19 H 0.6102 -0.0134 1.7282
C16 C 0.96144(15) 0.2059(2) 0.5811(4)
H20 H 0.9627 0.2795 0.6080
H21 H 0.9836 0.1691 0.6750
C17 C 0.89497(16) 0.1700(2) 0.5728(4)
H22 H 0.8748 0.1819 0.6871
H23 H 0.8725 0.2098 0.4833
C18 C 1.12290(16) 0.3039(2) 0.1802(4)
C19 C 1.06812(15) 0.2544(2) 0.2117(4)
C20 C 0.74202(15) -0.1667(3) 1.2764(4)
H24 H 0.7821 -0.1921 1.2521
C21 C 0.71507(14) -0.1838(2) 1.4381(4)
H25 H 0.7370 -0.2215 1.5239
C22 C 0.65657(14) -0.1470(2) 1.4773(4)
C23 C 0.62627(15) -0.1616(3) 1.6523(4)
H26 H 0.6583 -0.1681 1.7438
H27 H 0.6018 -0.2252 1.6511
loop_
_geom_bond_atom_site_label_1
_geom_bond_atom_site_label_2
_geom_bond_site_symmetry_1
_geom_bond_site_symmetry_2
Cl1 C18 1_555 1_555
Cl2 C19 1_555 1_555
O1 C10 1_555 1_555
O2 C14 1_555 1_555
N1 C4 1_555 1_555
N2 C6 1_555 1_555
N3 H1 1_555 1_555
C1 H2 1_555 1_555
C2 C1 1_555 1_555
H3 C2 1_555 1_555
C3 C2 1_555 1_555
H4 C3 1_555 1_555
C4 C3 1_555 1_555
C5 N1 1_555 1_555
H5 C5 1_555 1_555
H6 C5 1_555 1_555
C6 C5 1_555 1_555
H7 C6 1_555 1_555
H8 C6 1_555 1_555
C7 N2 1_555 1_555
H9 C7 1_555 1_555
H10 C7 1_555 1_555
C8 C7 1_555 1_555
H11 C8 1_555 1_555
H12 C8 1_555 1_555
C9 C8 1_555 1_555
H13 C9 1_555 1_555
H14 C9 1_555 1_555
C10 C9 1_555 1_555
H15 C10 1_555 1_555
H16 C10 1_555 1_555
C11 O1 1_555 1_555
C12 C11 1_555 1_555
H17 C12 1_555 1_555
C13 N3 1_555 1_555
C14 N3 1_555 1_555
C15 C14 1_555 1_555
H18 C15 1_555 1_555
H19 C15 1_555 1_555
C16 N1 1_555 1_555
H20 C16 1_555 1_555
H21 C16 1_555 1_555
C17 N2 1_555 1_555
H22 C17 1_555 1_555
H23 C17 1_555 1_555
C18 C1 1_555 1_555
C19 C4 1_555 1_555
C20 C11 1_555 1_555
H24 C20 1_555 1_555
C21 C20 1_555 1_555
H25 C21 1_555 1_555
C22 C13 1_555 1_555
C23 C15 1_555 1_555
H26 C23 1_555 1_555
H27 C23 1_555 1_555
C12 C13 1_555 1_555
C16 C17 1_555 1_555
C18 C19 1_555 1_555
C21 C22 1_555 1_555
C22 C23 1_555 1_555

#END
