
#######################################################################
#
#                 Cambridge Crystallographic Data Centre
#                                CCDC 
#
#######################################################################
#
# If this CIF has been generated from an entry in the Cambridge 
# Structural Database, then it will include bibliographic, chemical, 
# crystal, experimental, refinement or atomic coordinate data resulting 
# from the CCDC's data processing and validation procedures.
#
#######################################################################

data_MELFIT16
_chemical_name_common            Aripiprazole
_chemical_formula_moiety         'C23 H27 Cl2 N3 O2'
_chemical_name_systematic        
7-(4-(4-(2,3-dichlorophenyl)piperazin-1-yl)butoxy)-3,4-dihydroquinolin-2(1H)-one
_symmetry_cell_setting           orthorhombic
_symmetry_space_group_name_H-M   'P n a 21'
_symmetry_Int_Tables_number      33
_space_group_name_Hall           'P 2c -2n'
loop_
_symmetry_equiv_pos_site_id
_symmetry_equiv_pos_as_xyz
1 x,y,z
2 -x,-y,1/2+z
3 1/2-x,1/2+y,1/2+z
4 1/2+x,1/2-y,z
_cell_length_a                   23.620(3)
_cell_length_b                   12.4887(16)
_cell_length_c                   7.7132(11)
_cell_angle_alpha                90
_cell_angle_beta                 90
_cell_angle_gamma                90
_cell_volume                     2275.26
_exptl_crystal_colour            colorless
_exptl_crystal_description       rod
_cell_formula_units_Z            4
loop_
_atom_site_label
_atom_site_type_symbol
_atom_site_fract_x
_atom_site_fract_y
_atom_site_fract_z
Cl1 Cl 0.53230(2) 0.27497(5) 0.03236(8)
Cl2 Cl 0.65465(3) 0.19233(6) -0.04087(10)
O1 O 0.20916(7) 0.58395(16) 0.9701(2)
O2 O -0.00413(7) 0.49959(14) 1.5783(2)
N1 N 0.06120(7) 0.55318(14) 1.3857(2)
H1 H 0.0379 0.5370 1.3007
N2 N 0.41408(7) 0.43412(13) 0.5411(3)
N3 N 0.50430(8) 0.30676(15) 0.4065(2)
C1 C 0.08213(9) 0.5750(2) 1.6921(3)
H2 H 0.1064 0.5137 1.7256
H3 H 0.0596 0.5959 1.7949
C2 C 0.04265(9) 0.54047(17) 1.5494(3)
C3 C 0.11581(8) 0.59091(16) 1.3415(3)
C4 C 0.13682(9) 0.57123(17) 1.1779(3)
H4 H 0.1144 0.5346 1.0944
C5 C 0.19092(9) 0.60544(19) 1.1366(3)
C6 C 0.26581(10) 0.5506(2) 0.9521(4)
H5 H 0.2727 0.4873 1.0264
H6 H 0.2915 0.6086 0.9904
C7 C 0.27807(10) 0.5229(2) 0.7685(4)
H7 H 0.2720 0.5869 0.6950
H8 H 0.2514 0.4666 0.7296
C8 C 0.33792(10) 0.4838(2) 0.7452(4)
H9 H 0.3420 0.4141 0.8048
H10 H 0.3640 0.5351 0.8018
C9 C 0.35566(10) 0.47048(19) 0.5552(4)
H11 H 0.3304 0.4179 0.4983
H12 H 0.3515 0.5398 0.4943
C10 C 0.43678(9) 0.45275(18) 0.3670(3)
H13 H 0.4328 0.5294 0.3364
H14 H 0.4152 0.4100 0.2813
C11 C 0.49871(9) 0.42090(17) 0.3623(3)
H15 H 0.5143 0.4340 0.2451
H16 H 0.5204 0.4647 0.4462
C12 C 0.55900(9) 0.26339(17) 0.3759(3)
C13 C 0.57738(10) 0.24826(17) 0.2045(3)
C14 C 0.63117(10) 0.20843(18) 0.1710(3)
C15 C 0.66663(10) 0.1779(2) 0.3045(4)
H17 H 0.7033 0.1505 0.2807
C16 C 0.41960(10) 0.32061(18) 0.5827(3)
H18 H 0.3979 0.2777 0.4977
H19 H 0.4036 0.3069 0.6992
C17 C 0.48099(10) 0.28666(18) 0.5791(3)
H20 H 0.5027 0.3275 0.6668
H21 H 0.4841 0.2095 0.6072
C18 C 0.64791(10) 0.1878(2) 0.4723(4)
H22 H 0.6715 0.1652 0.5651
C19 C 0.59485(10) 0.23048(19) 0.5077(3)
H23 H 0.5829 0.2373 0.6248
C20 C 0.22281(10) 0.6606(2) 1.2567(4)
H24 H 0.2599 0.6844 1.2282
C21 C 0.20045(9) 0.6812(2) 1.4190(3)
H25 H 0.2225 0.7197 1.5009
C22 C 0.14666(8) 0.64709(17) 1.4658(3)
C23 C 0.11961(10) 0.6687(2) 1.6381(3)
H26 H 0.0965 0.7347 1.6309
H27 H 0.1494 0.6801 1.7266
loop_
_geom_bond_atom_site_label_1
_geom_bond_atom_site_label_2
_geom_bond_site_symmetry_1
_geom_bond_site_symmetry_2
Cl1 C13 1_555 1_555
Cl2 C14 1_555 1_555
O1 C5 1_555 1_555
O2 C2 1_555 1_555
N1 H1 1_555 1_555
N2 C9 1_555 1_555
N3 C11 1_555 1_555
C1 H2 1_555 1_555
H3 C1 1_555 1_555
C2 N1 1_555 1_555
C3 N1 1_555 1_555
C4 C3 1_555 1_555
H4 C4 1_555 1_555
C5 C4 1_555 1_555
C6 O1 1_555 1_555
H5 C6 1_555 1_555
H6 C6 1_555 1_555
C7 C6 1_555 1_555
H7 C7 1_555 1_555
H8 C7 1_555 1_555
C8 C7 1_555 1_555
H9 C8 1_555 1_555
H10 C8 1_555 1_555
C9 C8 1_555 1_555
H11 C9 1_555 1_555
H12 C9 1_555 1_555
C10 N2 1_555 1_555
H13 C10 1_555 1_555
H14 C10 1_555 1_555
C11 C10 1_555 1_555
H15 C11 1_555 1_555
H16 C11 1_555 1_555
C12 N3 1_555 1_555
C13 C12 1_555 1_555
C14 C13 1_555 1_555
C15 C14 1_555 1_555
H17 C15 1_555 1_555
C16 N2 1_555 1_555
H18 C16 1_555 1_555
H19 C16 1_555 1_555
C17 N3 1_555 1_555
H20 C17 1_555 1_555
H21 C17 1_555 1_555
C18 C15 1_555 1_555
H22 C18 1_555 1_555
C19 C12 1_555 1_555
H23 C19 1_555 1_555
C20 C5 1_555 1_555
H24 C20 1_555 1_555
C21 C20 1_555 1_555
H25 C21 1_555 1_555
C22 C3 1_555 1_555
C23 C1 1_555 1_555
H26 C23 1_555 1_555
H27 C23 1_555 1_555
C1 C2 1_555 1_555
C16 C17 1_555 1_555
C18 C19 1_555 1_555
C21 C22 1_555 1_555
C22 C23 1_555 1_555

#END
