
#######################################################################
#
#                 Cambridge Crystallographic Data Centre
#                                CCDC 
#
#######################################################################
#
# If this CIF has been generated from an entry in the Cambridge 
# Structural Database, then it will include bibliographic, chemical, 
# crystal, experimental, refinement or atomic coordinate data resulting 
# from the CCDC's data processing and validation procedures.
#
#######################################################################

data_MELFIT14
_chemical_name_common            Aripiprazole
_chemical_formula_moiety         'C23 H27 Cl2 N3 O2'
_chemical_name_systematic        
7-(4-(4-(2,3-dichlorophenyl)piperazin-1-yl)butoxy)-3,4-dihydroquinolin-2(1H)-one
_symmetry_cell_setting           orthorhombic
_symmetry_space_group_name_H-M   'P n a 21'
_symmetry_Int_Tables_number      33
_space_group_name_Hall           'P 2c -2n'
loop_
_symmetry_equiv_pos_site_id
_symmetry_equiv_pos_as_xyz
1 x,y,z
2 -x,-y,1/2+z
3 1/2-x,1/2+y,1/2+z
4 1/2+x,1/2-y,z
_cell_length_a                   21.7076(6)
_cell_length_b                   13.1806(4)
_cell_length_c                   7.6535(2)
_cell_angle_alpha                90
_cell_angle_beta                 90
_cell_angle_gamma                90
_cell_volume                     2189.81
_exptl_crystal_colour            colorless
_exptl_crystal_description       rod
_cell_formula_units_Z            4
loop_
_atom_site_label
_atom_site_type_symbol
_atom_site_fract_x
_atom_site_fract_y
_atom_site_fract_z
Cl1 Cl 0.52208(2) 0.78211(3) -0.21456(6)
Cl2 Cl 0.64611(2) 0.67085(4) -0.28454(7)
O1 O 0.23617(6) 1.09076(11) 0.7369(2)
O2 O -0.00787(6) 1.00296(13) 1.3158(2)
N1 N 0.49096(7) 0.81267(12) 0.1613(2)
N2 N 0.39127(7) 0.93671(12) 0.2780(2)
N3 N 0.06564(7) 1.05586(12) 1.1309(2)
H1 H 0.0436(10) 1.0349(17) 1.046(3)
C1 C 0.56801(8) 0.74604(13) -0.0407(2)
C2 C 0.62312(8) 0.69651(14) -0.0718(3)
C3 C 0.66032(10) 0.66415(15) 0.0627(3)
H2 H 0.6985 0.6315 0.0394
C4 C 0.64083(10) 0.68029(16) 0.2333(4)
H3 H 0.6655 0.6572 0.3278
C5 C 0.58583(10) 0.72963(14) 0.2671(3)
H4 H 0.5733 0.7401 0.3847
C6 C 0.54852(9) 0.76418(13) 0.1316(3)
C7 C 0.48952(9) 0.92171(14) 0.1226(3)
H5 H 0.5102 0.9351 0.0097
H6 H 0.5115 0.9597 0.2151
C8 C 0.46157(10) 0.79370(15) 0.3298(3)
H7 H 0.4835 0.8312 0.4230
H8 H 0.4632 0.7204 0.3576
C9 C 0.42300(10) 0.95605(15) 0.1138(3)
H9 H 0.4215 1.0295 0.0874
H10 H 0.4017 0.9195 0.0182
C10 C 0.39512(9) 0.82865(14) 0.3201(3)
H11 H 0.3732 0.7890 0.2295
H12 H 0.3747 0.8159 0.4336
C11 C 0.32692(10) 0.9711(2) 0.2648(3)
H13 H 0.3048 0.9267 0.1814
H14 H 0.3264 1.0408 0.2166
C12 C 0.29244(9) 0.97079(17) 0.4382(3)
H15 H 0.2502 0.9971 0.4197
H16 H 0.2890 0.9002 0.4813
C13 C 0.32430(10) 1.0345(2) 0.5741(4)
H17 H 0.3667 1.0084 0.5894
H18 H 0.3275 1.1048 0.5293
C14 C 0.29385(10) 1.0379(2) 0.7495(4)
H19 H 0.2867 0.9679 0.7921
H20 H 0.3210 1.0729 0.8341
C15 C 0.21043(8) 1.11137(13) 0.8980(3)
C16 C 0.15110(7) 1.07678(12) 0.9311(2)
H21 H 0.1286 1.0420 0.8432
C17 C 0.24194(9) 1.16633(15) 1.0244(3)
H22 H 0.2818 1.1926 1.0002
C18 C 0.21502(8) 1.18263(15) 1.1855(3)
H23 H 0.2370 1.2197 1.2717
C19 C 0.12512(7) 1.09371(13) 1.0947(3)
C20 C 0.15666(7) 1.14628(12) 1.2246(3)
C21 C 0.12632(8) 1.16136(16) 1.4000(3)
H24 H 0.1020 1.2249 1.3986
H25 H 0.1583 1.1677 1.4915
C22 C 0.08411(9) 1.07214(17) 1.4430(3)
H26 H 0.1097 1.0132 1.4773
H27 H 0.0580 1.0904 1.5443
C23 C 0.04342(8) 1.04196(14) 1.2936(3)
loop_
_geom_bond_atom_site_label_1
_geom_bond_atom_site_label_2
_geom_bond_site_symmetry_1
_geom_bond_site_symmetry_2
Cl1 C1 1_555 1_555
Cl2 C2 1_555 1_555
O1 C14 1_555 1_555
O2 C23 1_555 1_555
N1 C6 1_555 1_555
N2 C9 1_555 1_555
N3 H1 1_555 1_555
C1 C2 1_555 1_555
C2 C3 1_555 1_555
C3 H2 1_555 1_555
C4 C3 1_555 1_555
H3 C4 1_555 1_555
C5 C4 1_555 1_555
H4 C5 1_555 1_555
C6 C1 1_555 1_555
C7 N1 1_555 1_555
H5 C7 1_555 1_555
H6 C7 1_555 1_555
C8 N1 1_555 1_555
H7 C8 1_555 1_555
H8 C8 1_555 1_555
C9 C7 1_555 1_555
H9 C9 1_555 1_555
H10 C9 1_555 1_555
C10 N2 1_555 1_555
H11 C10 1_555 1_555
H12 C10 1_555 1_555
C11 N2 1_555 1_555
H13 C11 1_555 1_555
H14 C11 1_555 1_555
C12 C11 1_555 1_555
H15 C12 1_555 1_555
H16 C12 1_555 1_555
C13 C12 1_555 1_555
H17 C13 1_555 1_555
H18 C13 1_555 1_555
C14 C13 1_555 1_555
H19 C14 1_555 1_555
H20 C14 1_555 1_555
C15 O1 1_555 1_555
C16 C15 1_555 1_555
H21 C16 1_555 1_555
C17 C15 1_555 1_555
H22 C17 1_555 1_555
C18 C17 1_555 1_555
H23 C18 1_555 1_555
C19 N3 1_555 1_555
C20 C18 1_555 1_555
C21 C20 1_555 1_555
H24 C21 1_555 1_555
H25 C21 1_555 1_555
C22 C21 1_555 1_555
H26 C22 1_555 1_555
H27 C22 1_555 1_555
C23 N3 1_555 1_555
C5 C6 1_555 1_555
C8 C10 1_555 1_555
C16 C19 1_555 1_555
C19 C20 1_555 1_555
C22 C23 1_555 1_555

#END
