
#######################################################################
#
#                 Cambridge Crystallographic Data Centre
#                                CCDC 
#
#######################################################################
#
# If this CIF has been generated from an entry in the Cambridge 
# Structural Database, then it will include bibliographic, chemical, 
# crystal, experimental, refinement or atomic coordinate data resulting 
# from the CCDC's data processing and validation procedures.
#
#######################################################################

data_MELQUQ
_chemical_formula_moiety         'C14 H8 Cl2 N4 O2,C3 H7 N1 O1'
_chemical_name_systematic        
'2-Amino-3-cyano-4-(3,4-dichlorophenyl)-5-oxo-1,4,5,6-tetrahydropyrano(2,3-d)pyrimidine dimethylformamide solvate'
_symmetry_cell_setting           triclinic
_symmetry_space_group_name_H-M   'P -1'
_symmetry_Int_Tables_number      2
_space_group_name_Hall           '-P 1'
loop_
_symmetry_equiv_pos_site_id
_symmetry_equiv_pos_as_xyz
1 x,y,z
2 -x,-y,-z
_cell_length_a                   6.0090(4)
_cell_length_b                   10.4056(7)
_cell_length_c                   15.6021(11)
_cell_angle_alpha                70.983(4)
_cell_angle_beta                 84.056(6)
_cell_angle_gamma                84.611(6)
_cell_volume                     915.474
_exptl_crystal_colour            'pale yellow'
_exptl_crystal_description       Block
_chemical_melting_point          '551-553 K'
_cell_formula_units_Z            2
_exptl_crystal_recrystallization_method dimethylformamide/water
loop_
_atom_site_label
_atom_site_type_symbol
_atom_site_fract_x
_atom_site_fract_y
_atom_site_fract_z
Cl1 Cl 1.29184(8) -0.22264(5) 0.43394(3)
Cl2 Cl 0.82932(8) -0.18854(5) 0.54387(3)
O1 O 0.67596(18) 0.37991(10) 0.05602(7)
O2 O 1.3209(2) 0.28641(12) 0.22484(9)
N1 N 1.1472(2) 0.49818(14) 0.17112(10)
N2 N 0.8282(2) 0.54323(13) 0.09020(9)
N3 N 0.7751(3) -0.08533(16) 0.07892(12)
N4 N 0.5082(3) 0.24383(17) 0.00348(10)
C1 C 0.8422(3) 0.40787(15) 0.09976(10)
C2 C 0.9968(2) 0.31294(15) 0.14402(10)
C3 C 0.9998(3) 0.16416(15) 0.15218(10)
H1 H 1.1500 0.1360 0.1275
C4 C 0.8227(3) 0.14828(15) 0.09435(10)
C5 C 0.6733(3) 0.25029(15) 0.05239(10)
C6 C 1.1677(3) 0.35866(16) 0.18360(11)
C7 C 0.9842(3) 0.58188(16) 0.12676(11)
H2 H 0.9818 0.6755 0.1216
C8 C 0.9599(3) 0.07503(15) 0.25124(10)
C9 C 1.1240(3) -0.02064(16) 0.29355(11)
H3 H 1.2637 -0.0305 0.2610
C10 C 1.0851(3) -0.10215(16) 0.38326(11)
C11 C 0.8829(3) -0.08792(16) 0.43166(11)
C12 C 0.7194(3) 0.00797(18) 0.38951(12)
H4 H 0.5804 0.0185 0.4223
C13 C 0.7570(3) 0.08834(16) 0.30015(11)
H5 H 0.6431 0.1534 0.2718
C14 C 0.7999(3) 0.01887(17) 0.08614(11)
H13 H 1.244(4) 0.532(2) 0.1924(14)
H14 H 0.424(3) 0.317(2) -0.0234(14)
H15 H 0.495(3) 0.174(2) -0.0075(13)
O3 O 0.3893(2) 0.66174(14) 0.22683(10)
N5 N 0.6790(3) 0.57711(16) 0.31604(10)
C15 C 0.5534(3) 0.67628(19) 0.26244(13)
H6 H 0.5943 0.7668 0.2506
C16 C 0.8587(4) 0.6047(3) 0.36123(18)
H7 H 0.8882 0.7014 0.3360
H8 H 0.9944 0.5493 0.3518
H9 H 0.8153 0.5819 0.4265
C17 C 0.6254(4) 0.4370(2) 0.33774(17)
H10 H 0.5123 0.4147 0.3894
H11 H 0.7611 0.3771 0.3535
H12 H 0.5664 0.4243 0.2850
loop_
_geom_bond_atom_site_label_1
_geom_bond_atom_site_label_2
_geom_bond_site_symmetry_1
_geom_bond_site_symmetry_2
Cl1 C10 1_555 1_555
Cl2 C11 1_555 1_555
O1 C1 1_555 1_555
O2 C6 1_555 1_555
O3 C15 1_555 1_555
N1 C6 1_555 1_555
N2 C1 1_555 1_555
N3 C14 1_555 1_555
N4 C5 1_555 1_555
N5 C15 1_555 1_555
C1 C2 1_555 1_555
C2 C3 1_555 1_555
C3 H1 1_555 1_555
C4 C3 1_555 1_555
C5 O1 1_555 1_555
C6 C2 1_555 1_555
C7 N1 1_555 1_555
H2 C7 1_555 1_555
C8 C3 1_555 1_555
C9 C8 1_555 1_555
H3 C9 1_555 1_555
C10 C9 1_555 1_555
C11 C10 1_555 1_555
C12 C11 1_555 1_555
H4 C12 1_555 1_555
C13 C8 1_555 1_555
H5 C13 1_555 1_555
C14 C4 1_555 1_555
C15 H6 1_555 1_555
C16 N5 1_555 1_555
H7 C16 1_555 1_555
H8 C16 1_555 1_555
H9 C16 1_555 1_555
C17 N5 1_555 1_555
H10 C17 1_555 1_555
H11 C17 1_555 1_555
H12 C17 1_555 1_555
H13 N1 1_555 1_555
H14 N4 1_555 1_555
H15 N4 1_555 1_555
N2 C7 1_555 1_555
C4 C5 1_555 1_555
C12 C13 1_555 1_555

#END
