
#######################################################################
#
#                 Cambridge Crystallographic Data Centre
#                                CCDC 
#
#######################################################################
#
# If this CIF has been generated from an entry in the Cambridge 
# Structural Database, then it will include bibliographic, chemical, 
# crystal, experimental, refinement or atomic coordinate data resulting 
# from the CCDC's data processing and validation procedures.
#
#######################################################################

data_MELSUU
_chemical_compound_source        
'roots of Euphorbia ebracteolata Hayata (Euphorbiaceae)'
_chemical_name_common            'Ebractenoid A monohydrate'
_chemical_formula_moiety         'C39 H52 O6,H2 O1'
_chemical_name_systematic        
'12-[(7-ethenyl-2-hydroxy-1,4b,7-trimethyl-4b,5,6,7,8,8a,9,10-octahydrophenanthren-3-yl)oxy]-11-hydroxy-8,14:12,16-diepoxyabiet-13(15)-en-16-one monohydrate'
_chemical_properties_biological  'alpha-glucosidase inhibition activity'
_symmetry_cell_setting           monoclinic
_symmetry_space_group_name_H-M   'I 2'
_symmetry_Int_Tables_number      5
_space_group_name_Hall           'I 2y'
loop_
_symmetry_equiv_pos_site_id
_symmetry_equiv_pos_as_xyz
1 x,y,z
2 -x,y,-z
3 1/2+x,1/2+y,1/2+z
4 1/2-x,1/2+y,1/2-z
_cell_length_a                   18.06063(19)
_cell_length_b                   9.22305(12)
_cell_length_c                   20.6152(2)
_cell_angle_alpha                90
_cell_angle_beta                 91.6998(9)
_cell_angle_gamma                90
_cell_volume                     3432.45
_exptl_crystal_colour            colorless
_exptl_crystal_description       block
_cell_formula_units_Z            4
_exptl_crystal_recrystallization_method dichloromethane
loop_
_atom_site_label
_atom_site_type_symbol
_atom_site_fract_x
_atom_site_fract_y
_atom_site_fract_z
O1 O 0.68839(6) 0.55906(14) 0.64043(6)
O2 O 0.59871(6) 0.72297(13) 0.67312(6)
O3 O 0.56166(6) 0.90759(14) 0.56561(6)
O4 O 0.45494(7) 0.80346(15) 0.64588(6)
H1 H 0.493842 0.842615 0.636167
O5 O 0.71220(7) 0.89217(14) 0.68792(6)
O6 O 0.69599(7) 0.33880(15) 0.59473(6)
C1 C 0.61794(8) 0.6694(2) 0.55831(8)
C2 C 0.62162(9) 1.0510(2) 0.48274(8)
H2 H 0.614886 1.142974 0.504621
H3 H 0.577634 1.032595 0.455858
C3 C 0.65102(9) 0.6954(2) 0.62542(8)
C4 C 0.46960(9) 0.6679(2) 0.67006(8)
C5 C 0.54229(9) 0.6207(2) 0.68152(8)
C6 C 0.76016(9) 1.0708(2) 0.48127(8)
H4 H 0.752187 1.151999 0.510924
C7 C 0.63006(9) 0.93283(19) 0.53254(8)
C8 C 0.58901(9) 0.79524(19) 0.52282(8)
H5 H 0.562822 0.779139 0.481123
C9 C 0.76942(9) 0.93519(19) 0.52630(8)
C10 C 0.55604(9) 0.4845(2) 0.70698(8)
H6 H 0.604631 0.456444 0.716420
C11 C 0.67294(9) 0.4615(2) 0.59262(8)
C12 C 0.45008(10) 0.1682(2) 0.77537(8)
H7 H 0.441486 0.227755 0.813799
C13 C 0.70175(9) 0.93491(18) 0.57312(8)
H8 H 0.703018 1.029037 0.595183
C14 C 0.70976(9) 0.81874(19) 0.62765(8)
H9 H 0.758202 0.772702 0.622915
C15 C 0.41075(9) 0.5769(2) 0.68450(8)
C16 C 0.62798(9) 0.5328(2) 0.54013(8)
C17 C 0.49836(9) 0.3883(2) 0.71880(7)
C18 C 0.68867(9) 1.0615(2) 0.43957(8)
H10 H 0.684153 1.146787 0.412218
H11 H 0.690455 0.976928 0.411674
C19 C 0.89833(10) 1.1178(2) 0.48646(9)
H12 H 0.941499 1.132281 0.460331
H13 H 0.895195 1.199360 0.515967
C20 C 0.82880(10) 1.1160(2) 0.44165(8)
C21 C 0.84148(9) 0.9526(2) 0.56724(8)
H14 H 0.836033 1.033127 0.596970
H15 H 0.849726 0.865577 0.592881
C22 C 0.46549(10) 0.0141(2) 0.79915(9)
H16 H 0.473178 -0.047785 0.761891
H17 H 0.422236 -0.021563 0.820942
C23 C 0.58234(10) 0.2330(2) 0.79098(9)
H18 H 0.625972 0.272347 0.771020
H19 H 0.570482 0.295125 0.827193
C24 C 0.51706(10) 0.2346(2) 0.74094(8)
C25 C 0.42506(10) 0.4349(2) 0.70698(8)
C26 C 0.90875(9) 0.9793(2) 0.52595(9)
H20 H 0.952776 0.987741 0.553801
H21 H 0.915478 0.897906 0.496942
C27 C 0.38046(10) 0.1779(2) 0.73198(9)
H22 H 0.339898 0.129167 0.752772
H23 H 0.388922 0.129333 0.691120
C28 C 0.35971(9) 0.3359(2) 0.71913(9)
H24 H 0.325937 0.339870 0.681698
H25 H 0.333514 0.372569 0.756108
C29 C 0.77121(9) 0.7898(2) 0.48930(8)
H26 H 0.727493 0.781244 0.461933
H27 H 0.772970 0.711199 0.519814
H28 H 0.814280 0.786673 0.463147
C30 C 0.33248(10) 0.6336(2) 0.67607(10)
H29 H 0.333758 0.736003 0.667797
H30 H 0.305897 0.615635 0.714901
H31 H 0.308113 0.585207 0.640167
C31 C 0.59982(11) 0.0803(2) 0.81643(10)
H32 H 0.639394 0.086924 0.849148
H33 H 0.617808 0.022178 0.780980
C32 C 0.53349(11) 0.0019(2) 0.84598(9)
C33 C 0.60521(12) 0.4551(2) 0.47909(9)
H34 H 0.571651 0.378113 0.489104
H35 H 0.648231 0.415440 0.459366
H36 H 0.581134 0.521851 0.449621
C34 C 0.53903(11) 0.1483(2) 0.68000(9)
H37 H 0.551855 0.050868 0.692228
H38 H 0.580779 0.194018 0.660737
H39 H 0.498072 0.146609 0.649238
C35 C 0.81766(11) 1.2718(2) 0.41698(10)
H40 H 0.779308 1.273148 0.383732
H41 H 0.863004 1.306722 0.399524
H42 H 0.803693 1.332912 0.452277
C36 C 0.55646(12) -0.1539(3) 0.85710(10)
H43 H 0.599672 -0.167563 0.882025
C37 C 0.84216(11) 1.0199(3) 0.38188(9)
H44 H 0.857990 0.925310 0.395929
H45 H 0.879776 1.062956 0.356166
H46 H 0.797040 1.011591 0.356346
C38 C 0.52355(13) -0.2722(3) 0.83628(10)
C39 C 0.51610(14) 0.0691(3) 0.91228(9)
H47 H 0.506178 0.170768 0.906932
H48 H 0.557801 0.056288 0.941679
H49 H 0.473488 0.022254 0.929505
H50 H 0.4821(14) -0.268(3) 0.8113(12)
H51 H 0.5431(14) -0.369(3) 0.8448(12)
H52 H 0.7154(15) 0.825(3) 0.7165(14)
O7 O 0.74190(8) 0.70004(17) 0.78798(7)
H53 H 0.7551(19) 0.740(4) 0.8248(19)
H54 H 0.7568(19) 0.607(5) 0.7918(17)
loop_
_geom_bond_atom_site_label_1
_geom_bond_atom_site_label_2
_geom_bond_site_symmetry_1
_geom_bond_site_symmetry_2
O1 C3 1_555 1_555
O2 C3 1_555 1_555
O3 C7 1_555 1_555
O4 H1 1_555 1_555
O5 C14 1_555 1_555
O6 C11 1_555 1_555
C1 C3 1_555 1_555
C2 H2 1_555 1_555
H3 C2 1_555 1_555
C3 C14 1_555 1_555
C4 O4 1_555 1_555
C5 O2 1_555 1_555
C6 H4 1_555 1_555
C7 C2 1_555 1_555
C8 O3 1_555 1_555
H5 C8 1_555 1_555
C9 C6 1_555 1_555
C10 C5 1_555 1_555
H6 C10 1_555 1_555
C11 O1 1_555 1_555
C12 H7 1_555 1_555
C13 C7 1_555 1_555
H8 C13 1_555 1_555
C14 C13 1_555 1_555
H9 C14 1_555 1_555
C15 C4 1_555 1_555
C16 C1 1_555 1_555
C17 C10 1_555 1_555
C18 C2 1_555 1_555
H10 C18 1_555 1_555
H11 C18 1_555 1_555
C19 H12 1_555 1_555
H13 C19 1_555 1_555
C20 C6 1_555 1_555
C21 C9 1_555 1_555
H14 C21 1_555 1_555
H15 C21 1_555 1_555
C22 C12 1_555 1_555
H16 C22 1_555 1_555
H17 C22 1_555 1_555
C23 H18 1_555 1_555
H19 C23 1_555 1_555
C24 C12 1_555 1_555
C25 C15 1_555 1_555
C26 C19 1_555 1_555
H20 C26 1_555 1_555
H21 C26 1_555 1_555
C27 C12 1_555 1_555
H22 C27 1_555 1_555
H23 C27 1_555 1_555
C28 C25 1_555 1_555
H24 C28 1_555 1_555
H25 C28 1_555 1_555
C29 C9 1_555 1_555
H26 C29 1_555 1_555
H27 C29 1_555 1_555
H28 C29 1_555 1_555
C30 C15 1_555 1_555
H29 C30 1_555 1_555
H30 C30 1_555 1_555
H31 C30 1_555 1_555
C31 C23 1_555 1_555
H32 C31 1_555 1_555
H33 C31 1_555 1_555
C32 C22 1_555 1_555
C33 C16 1_555 1_555
H34 C33 1_555 1_555
H35 C33 1_555 1_555
H36 C33 1_555 1_555
C34 C24 1_555 1_555
H37 C34 1_555 1_555
H38 C34 1_555 1_555
H39 C34 1_555 1_555
C35 C20 1_555 1_555
H40 C35 1_555 1_555
H41 C35 1_555 1_555
H42 C35 1_555 1_555
C36 C32 1_555 1_555
H43 C36 1_555 1_555
C37 C20 1_555 1_555
H44 C37 1_555 1_555
H45 C37 1_555 1_555
H46 C37 1_555 1_555
C38 C36 1_555 1_555
C39 C32 1_555 1_555
H47 C39 1_555 1_555
H48 C39 1_555 1_555
H49 C39 1_555 1_555
H50 C38 1_555 1_555
H51 C38 1_555 1_555
H52 O5 1_555 1_555
O7 H53 1_555 1_555
H54 O7 1_555 1_555
C1 C8 1_555 1_555
C4 C5 1_555 1_555
C6 C18 1_555 1_555
C7 C8 1_555 1_555
C9 C13 1_555 1_555
C11 C16 1_555 1_555
C17 C24 1_555 1_555
C17 C25 1_555 1_555
C19 C20 1_555 1_555
C21 C26 1_555 1_555
C23 C24 1_555 1_555
C27 C28 1_555 1_555
C31 C32 1_555 1_555

#END
