
#######################################################################
#
#                 Cambridge Crystallographic Data Centre
#                                CCDC 
#
#######################################################################
#
# If this CIF has been generated from an entry in the Cambridge 
# Structural Database, then it will include bibliographic, chemical, 
# crystal, experimental, refinement or atomic coordinate data resulting 
# from the CCDC's data processing and validation procedures.
#
#######################################################################

data_MELTEF
_chemical_formula_moiety         'C16 H16 O4'
_chemical_name_systematic        
7-hydroxy-3,3,9-trimethyl-3,4-dihydro-1H-dibenzo[b,d]pyran-1,6(2H)-dione
_symmetry_cell_setting           monoclinic
_symmetry_space_group_name_H-M   'P 21/c'
_symmetry_Int_Tables_number      14
_space_group_name_Hall           '-P 2ybc'
loop_
_symmetry_equiv_pos_site_id
_symmetry_equiv_pos_as_xyz
1 x,y,z
2 -x,1/2+y,1/2-z
3 -x,-y,-z
4 x,1/2-y,1/2+z
_cell_length_a                   8.8746(6)
_cell_length_b                   15.3282(11)
_cell_length_c                   10.0135(7)
_cell_angle_alpha                90
_cell_angle_beta                 95.182(2)
_cell_angle_gamma                90
_cell_volume                     1356.59
_exptl_crystal_colour            colorless
_exptl_crystal_description       block
_cell_formula_units_Z            4
loop_
_atom_site_label
_atom_site_type_symbol
_atom_site_fract_x
_atom_site_fract_y
_atom_site_fract_z
C1 C 0.4806(2) 0.67549(12) 0.91192(18)
H1 H 0.4664 0.6483 0.9963
H2 H 0.3847 0.6808 0.8599
H3 H 0.5238 0.7324 0.9275
C2 C 0.73543(19) 0.60520(12) 0.92257(17)
H4 H 0.8010 0.5687 0.8756
H5 H 0.7148 0.5774 1.0049
H6 H 0.7837 0.6604 0.9419
C3 C 0.58714(17) 0.61964(10) 0.83548(14)
C4 C 0.61500(19) 0.66590(10) 0.70428(16)
H7 H 0.5195 0.6881 0.6630
H8 H 0.6813 0.7154 0.7245
C5 C 0.68373(16) 0.60811(10) 0.60726(14)
C6 C 0.68153(16) 0.51985(10) 0.60489(14)
C7 C 0.59212(19) 0.47595(10) 0.70348(16)
C8 C 0.51216(18) 0.53224(10) 0.79797(16)
H9 H 0.5031 0.4995 0.8797
H10 H 0.4105 0.5435 0.7576
C9 C 0.81984(17) 0.61869(11) 0.41153(15)
C10 C 0.82839(16) 0.52522(10) 0.40786(14)
C11 C 0.90547(17) 0.48483(11) 0.30706(15)
C12 C 0.91634(18) 0.39477(11) 0.30342(16)
H11 H 0.9667 0.3682 0.2367
C13 C 0.85306(18) 0.34374(11) 0.39804(17)
C14 C 0.77477(18) 0.38316(10) 0.49747(15)
H12 H 0.7315 0.3485 0.5600
C15 C 0.76090(15) 0.47354(10) 0.50381(14)
C16 C 0.8689(2) 0.24606(12) 0.3950(2)
H13 H 0.7767 0.2207 0.3548
H14 H 0.8891 0.2245 0.4848
H15 H 0.9509 0.2306 0.3434
O1 O 0.5743(2) 0.39748(8) 0.70557(16)
O2 O 0.75194(12) 0.65664(7) 0.51469(11)
O3 O 0.86982(15) 0.66941(8) 0.33217(13)
O4 O 0.97092(15) 0.53141(9) 0.21332(12)
H16 H 0.9577 0.5836 0.2258
loop_
_geom_bond_atom_site_label_1
_geom_bond_atom_site_label_2
_geom_bond_site_symmetry_1
_geom_bond_site_symmetry_2
C1 H1 1_555 1_555
H2 C1 1_555 1_555
H3 C1 1_555 1_555
C2 H4 1_555 1_555
H5 C2 1_555 1_555
H6 C2 1_555 1_555
C3 C1 1_555 1_555
C4 C3 1_555 1_555
H7 C4 1_555 1_555
H8 C4 1_555 1_555
C5 C4 1_555 1_555
C6 C5 1_555 1_555
C7 C6 1_555 1_555
C8 C3 1_555 1_555
H9 C8 1_555 1_555
H10 C8 1_555 1_555
C9 C10 1_555 1_555
C10 C11 1_555 1_555
C11 C12 1_555 1_555
C12 H11 1_555 1_555
C13 C12 1_555 1_555
C14 C13 1_555 1_555
H12 C14 1_555 1_555
C15 C6 1_555 1_555
C16 C13 1_555 1_555
H13 C16 1_555 1_555
H14 C16 1_555 1_555
H15 C16 1_555 1_555
O1 C7 1_555 1_555
O2 C5 1_555 1_555
O3 C9 1_555 1_555
O4 C11 1_555 1_555
H16 O4 1_555 1_555
C2 C3 1_555 1_555
C7 C8 1_555 1_555
C9 O2 1_555 1_555
C10 C15 1_555 1_555
C14 C15 1_555 1_555

#END
