
#######################################################################
#
#                 Cambridge Crystallographic Data Centre
#                                CCDC 
#
#######################################################################
#
# If this CIF has been generated from an entry in the Cambridge 
# Structural Database, then it will include bibliographic, chemical, 
# crystal, experimental, refinement or atomic coordinate data resulting 
# from the CCDC's data processing and validation procedures.
#
#######################################################################

data_MELVIL
_chemical_name_common            
'2,2 -Diisobutyl-4,4 ,5,5 -tetrakis(4-methoxyphenyl)-1H,1 H-3,3 -bipyrrole acetone solvate'
_chemical_formula_moiety         'C44 H48 N2 O4,2(C3 H6 O1)'
_chemical_name_systematic        
"4,4',5,5'-tetrakis(4-methoxyphenyl)-2,2'-bis(2-methylpropyl)-1H,1'H-3,3'-bipyrrole acetone unknown solvate"
_symmetry_cell_setting           monoclinic
_symmetry_space_group_name_H-M   'P 21/n'
_symmetry_Int_Tables_number      14
_space_group_name_Hall           '-P 2yn'
loop_
_symmetry_equiv_pos_site_id
_symmetry_equiv_pos_as_xyz
1 x,y,z
2 1/2-x,1/2+y,1/2-z
3 -x,-y,-z
4 1/2+x,1/2-y,1/2+z
_cell_length_a                   19.2834(19)
_cell_length_b                   10.8405(9)
_cell_length_c                   24.0533(13)
_cell_angle_alpha                90
_cell_angle_beta                 90.220(7)
_cell_angle_gamma                90
_cell_volume                     5028.11
_exptl_crystal_colour            colorless
_exptl_crystal_description       needle
_chemical_melting_point          '160-162 deg.C'
_cell_formula_units_Z            4
_chemical_properties_physical    air-sensitive
loop_
_atom_site_label
_atom_site_type_symbol
_atom_site_fract_x
_atom_site_fract_y
_atom_site_fract_z
O1 O 0.4798(2) 0.1326(3) 0.17278(15)
O2 O 0.7292(2) 0.3170(4) 0.45657(16)
O3 O 0.19887(19) 0.8770(3) 0.40341(13)
O4 O 0.0839(4) 0.9677(10) 0.0809(4)
N1 N 0.5567(2) 0.7426(4) 0.33162(16)
H1 H 0.5813 0.7804 0.3562
N2 N 0.4004(2) 0.7571(4) 0.12861(15)
H2 H 0.4007 0.7596 0.0929
C1 C 0.5090(3) 0.7998(5) 0.29717(19)
C2 C 0.4817(3) 0.7080(5) 0.26370(19)
C3 C 0.5135(2) 0.5934(4) 0.27861(19)
C4 C 0.5598(3) 0.6203(5) 0.3219(2)
C5 C 0.4963(3) 0.9331(5) 0.2983(2)
H3 H 0.4535 0.9493 0.2781
H4 H 0.5334 0.9734 0.2781
C6 C 0.4909(3) 0.9926(5) 0.3546(2)
H5 H 0.5356 0.9830 0.3737
C7 C 0.4358(3) 0.9298(6) 0.3893(3)
H6 H 0.3909 0.9468 0.3738
H7 H 0.4379 0.9604 0.4267
H8 H 0.4437 0.8423 0.3894
C8 C 0.4757(5) 1.1300(6) 0.3492(3)
H9 H 0.5085 1.1668 0.3242
H10 H 0.4796 1.1685 0.3850
H11 H 0.4296 1.1413 0.3349
C9 C 0.5032(2) 0.4728(4) 0.25156(17)
C10 C 0.4371(2) 0.4323(4) 0.23592(17)
H12 H 0.3989 0.4820 0.2433
C11 C 0.4274(2) 0.3199(4) 0.20972(18)
H13 H 0.3829 0.2951 0.1997
C12 C 0.4834(3) 0.2443(4) 0.19843(18)
C13 C 0.5496(3) 0.2839(5) 0.2150(2)
H14 H 0.5877 0.2332 0.2086
C14 C 0.5591(2) 0.3951(5) 0.2401(2)
H15 H 0.6037 0.4198 0.2499
C15 C 0.4141(4) 0.0876(6) 0.1567(3)
H16 H 0.3930 0.1442 0.1310
H17 H 0.3853 0.0794 0.1890
H18 H 0.4194 0.0085 0.1393
C16 C 0.6033(3) 0.5375(5) 0.35631(19)
C17 C 0.6695(3) 0.5740(6) 0.3738(2)
H19 H 0.6866 0.6508 0.3634
C18 C 0.7096(3) 0.4973(6) 0.4066(2)
H20 H 0.7535 0.5232 0.4177
C19 C 0.6862(3) 0.3837(5) 0.4230(2)
C20 C 0.6216(3) 0.3440(6) 0.4047(3)
H21 H 0.6055 0.2659 0.4142
C21 C 0.5815(3) 0.4215(6) 0.3724(2)
H22 H 0.5380 0.3945 0.3609
C22 C 0.7047(4) 0.2023(6) 0.4768(3)
H23 H 0.6988 0.1461 0.4463
H24 H 0.6610 0.2142 0.4950
H25 H 0.7376 0.1688 0.5027
C23 C 0.4540(3) 0.7183(5) 0.1604(2)
C24 C 0.4349(2) 0.7299(4) 0.21611(17)
C25 C 0.3661(2) 0.7772(4) 0.21596(17)
C26 C 0.3462(3) 0.7914(4) 0.16048(17)
C27 C 0.5208(3) 0.6696(7) 0.1350(3)
H26 H 0.5512 0.6425 0.1648
H27 H 0.5097 0.5981 0.1124
C28 C 0.5593(7) 0.7612(11) 0.0997(5)
H28 H 0.5258 0.8016 0.0749
C29 C 0.6109(8) 0.6885(15) 0.0633(6)
H29 H 0.6340 0.6275 0.0856
H30 H 0.6446 0.7442 0.0481
H31 H 0.5862 0.6486 0.0336
C30 C 0.5870(9) 0.8610(15) 0.1424(7)
H32 H 0.5508 0.8820 0.1679
H33 H 0.6012 0.9335 0.1225
H34 H 0.6259 0.8279 0.1625
C31 C 0.3239(2) 0.8079(4) 0.26519(17)
C32 C 0.3142(2) 0.7218(4) 0.30818(18)
H35 H 0.3360 0.6454 0.3061
C33 C 0.2732(3) 0.7483(4) 0.35309(19)
H36 H 0.2675 0.6896 0.3809
C34 C 0.2399(2) 0.8623(4) 0.35756(18)
C35 C 0.2485(2) 0.9489(4) 0.31579(18)
H37 H 0.2267 1.0252 0.3181
C36 C 0.2896(2) 0.9210(4) 0.27096(17)
H38 H 0.2949 0.9800 0.2432
C37 C 0.1619(3) 0.9902(5) 0.4074(2)
H39 H 0.1311 0.9981 0.3761
H40 H 0.1942 1.0577 0.4074
H41 H 0.1356 0.9913 0.4411
C38 C 0.2786(7) 0.8394(12) 0.1370(5)
C39 C 0.2142(7) 0.8061(15) 0.1635(7)
H42 H 0.2143 0.7524 0.1937
C40 C 0.1510(7) 0.8552(11) 0.1435(5)
H43 H 0.1098 0.8359 0.1615
C41 C 0.1498(6) 0.9303(12) 0.0982(6)
C42 C 0.2088(7) 0.9571(15) 0.0693(6)
H44 H 0.2066 1.0047 0.0372
C43 C 0.2739(7) 0.9114(16) 0.0890(6)
H45 H 0.3140 0.9299 0.0694
C44 C 0.0821(8) 1.0526(17) 0.0352(7)
H46 H 0.0917 1.0093 0.0013
H47 H 0.1164 1.1156 0.0408
H48 H 0.0370 1.0898 0.0329
O6 O 0.3809(6) 0.7170(15) 0.0057(5)
C55 C 0.3494(10) 0.729(2) -0.0874(6)
H65 H 0.3044 0.7467 -0.0724
H66 H 0.3479 0.6528 -0.1074
H67 H 0.3626 0.7946 -0.1122
C56 C 0.3996(7) 0.7205(12) -0.0425(6)
C57 C 0.4759(8) 0.718(2) -0.0551(8)
H68 H 0.4985 0.7848 -0.0361
H69 H 0.4827 0.7261 -0.0944
H70 H 0.4952 0.6410 -0.0426
O8 O 0.6450(3) 0.8674(5) 0.42326(18)
C61 C 0.6405(3) 0.8349(6) 0.4706(2)
C62 C 0.6947(4) 0.8628(7) 0.5126(3)
H77 H 0.7358 0.8913 0.4942
H78 H 0.7052 0.7896 0.5334
H79 H 0.6782 0.9257 0.5374
C63 C 0.5794(5) 0.7629(11) 0.4900(3)
H80 H 0.5376 0.8011 0.4767
H81 H 0.5790 0.7610 0.5299
H82 H 0.5822 0.6802 0.4759
O5? O 0.1277(4) 1.0327(7) 0.0534(3)
H49? H 0.5289 0.5872 0.1492
H50? H 0.5141 0.6628 0.0951
C45? C 0.5840(6) 0.7453(14) 0.1455(9)
H51? H 0.5879 0.7722 0.1843
C46? C 0.5769(11) 0.854(2) 0.1046(11)
H52? H 0.6167 0.8569 0.0808
H53? H 0.5739 0.9301 0.1251
H54? H 0.5357 0.8439 0.0826
C47? C 0.6465(9) 0.665(2) 0.1269(11)
H55? H 0.6329 0.5801 0.1258
H56? H 0.6841 0.6753 0.1528
H57? H 0.6612 0.6908 0.0906
C48? C 0.2985(4) 0.9121(10) 0.0841(4)
H58? H 0.3427 0.9170 0.0690
C49? C 0.2874(5) 0.8455(11) 0.1326(5)
C50? C 0.2213(6) 0.8383(9) 0.1551(4)
H59? H 0.2139 0.7938 0.1876
C51? C 0.1661(4) 0.8977(8) 0.1291(3)
H60? H 0.1219 0.8928 0.1441
C52? C 0.1772(4) 0.9642(8) 0.0805(3)
C53? C 0.2433(5) 0.9715(7) 0.0580(3)
H61? H 0.2507 1.0160 0.0255
C54? C 0.0606(6) 1.0366(14) 0.0781(5)
H62? H 0.0299 1.0839 0.0549
H63? H 0.0638 1.0743 0.1141
H64? H 0.0430 0.9542 0.0818
O7? O 0.4133(7) 0.7034(14) 0.0121(6)
C58? C 0.4322(7) 0.7279(13) -0.0341(7)
C59? C 0.4155(10) 0.8484(16) -0.0587(8)
H71? H 0.3704 0.8449 -0.0756
H72? H 0.4494 0.8688 -0.0863
H73? H 0.4157 0.9104 -0.0301
C60? C 0.4739(10) 0.6371(19) -0.0653(8)
H74? H 0.5194 0.6314 -0.0491
H75? H 0.4777 0.6629 -0.1034
H76? H 0.4517 0.5578 -0.0638
loop_
_geom_bond_atom_site_label_1
_geom_bond_atom_site_label_2
_geom_bond_site_symmetry_1
_geom_bond_site_symmetry_2
O1 C12 1_555 1_555
O2 C19 1_555 1_555
O3 C34 1_555 1_555
O4 C41 1_555 1_555
N1 H1 1_555 1_555
N2 H2 1_555 1_555
C1 N1 1_555 1_555
C2 C1 1_555 1_555
C3 C2 1_555 1_555
C4 N1 1_555 1_555
C5 C1 1_555 1_555
H3 C5 1_555 1_555
H4 C5 1_555 1_555
C6 C5 1_555 1_555
H5 C6 1_555 1_555
C7 C6 1_555 1_555
H6 C7 1_555 1_555
H7 C7 1_555 1_555
H8 C7 1_555 1_555
C8 C6 1_555 1_555
H9 C8 1_555 1_555
H10 C8 1_555 1_555
H11 C8 1_555 1_555
C9 C3 1_555 1_555
C10 C9 1_555 1_555
H12 C10 1_555 1_555
C11 C10 1_555 1_555
H13 C11 1_555 1_555
C12 C11 1_555 1_555
C13 C12 1_555 1_555
H14 C13 1_555 1_555
C14 C9 1_555 1_555
H15 C14 1_555 1_555
C15 O1 1_555 1_555
H16 C15 1_555 1_555
H17 C15 1_555 1_555
H18 C15 1_555 1_555
C16 C4 1_555 1_555
C17 C16 1_555 1_555
H19 C17 1_555 1_555
C18 C17 1_555 1_555
H20 C18 1_555 1_555
C19 C18 1_555 1_555
C20 C19 1_555 1_555
H21 C20 1_555 1_555
C21 C16 1_555 1_555
H22 C21 1_555 1_555
C22 O2 1_555 1_555
H23 C22 1_555 1_555
H24 C22 1_555 1_555
H25 C22 1_555 1_555
C23 N2 1_555 1_555
C24 C2 1_555 1_555
C25 C24 1_555 1_555
C26 N2 1_555 1_555
C27 C23 1_555 1_555
H26 C27 1_555 1_555
H27 C27 1_555 1_555
C28 C27 1_555 1_555
H28 C28 1_555 1_555
C29 C28 1_555 1_555
H29 C29 1_555 1_555
H30 C29 1_555 1_555
H31 C29 1_555 1_555
C30 C28 1_555 1_555
H32 C30 1_555 1_555
H33 C30 1_555 1_555
H34 C30 1_555 1_555
C31 C25 1_555 1_555
C32 C31 1_555 1_555
H35 C32 1_555 1_555
C33 C32 1_555 1_555
H36 C33 1_555 1_555
C34 C33 1_555 1_555
C35 C34 1_555 1_555
H37 C35 1_555 1_555
C36 C31 1_555 1_555
H38 C36 1_555 1_555
C37 O3 1_555 1_555
H39 C37 1_555 1_555
H40 C37 1_555 1_555
H41 C37 1_555 1_555
C38 C26 1_555 1_555
C39 C38 1_555 1_555
H42 C39 1_555 1_555
C40 C39 1_555 1_555
H43 C40 1_555 1_555
C41 C40 1_555 1_555
C42 C41 1_555 1_555
H44 C42 1_555 1_555
C43 C38 1_555 1_555
H45 C43 1_555 1_555
C44 O4 1_555 1_555
H46 C44 1_555 1_555
H47 C44 1_555 1_555
H48 C44 1_555 1_555
O6 C56 1_555 1_555
C55 H65 1_555 1_555
H66 C55 1_555 1_555
H67 C55 1_555 1_555
C56 C55 1_555 1_555
C57 C56 1_555 1_555
H68 C57 1_555 1_555
H69 C57 1_555 1_555
H70 C57 1_555 1_555
O8 C61 1_555 1_555
C61 C62 1_555 1_555
C62 H77 1_555 1_555
H78 C62 1_555 1_555
H79 C62 1_555 1_555
C63 C61 1_555 1_555
H80 C63 1_555 1_555
H81 C63 1_555 1_555
H82 C63 1_555 1_555
C3 C4 1_555 1_555
C13 C14 1_555 1_555
C20 C21 1_555 1_555
C23 C24 1_555 1_555
C25 C26 1_555 1_555
C35 C36 1_555 1_555
C42 C43 1_555 1_555

#END
