
#######################################################################
#
#                 Cambridge Crystallographic Data Centre
#                                CCDC 
#
#######################################################################
#
# If this CIF has been generated from an entry in the Cambridge 
# Structural Database, then it will include bibliographic, chemical, 
# crystal, experimental, refinement or atomic coordinate data resulting 
# from the CCDC's data processing and validation procedures.
#
#######################################################################

data_MELVUV
_chemical_formula_moiety         'C14 H15 N5 O1'
_chemical_name_systematic        
2'-(4-Dimethylaminobenzylidene)pyrazine-2-carbohydrazide
_chemical_properties_biological  'potential pharmacological activity'
_symmetry_cell_setting           triclinic
_symmetry_space_group_name_H-M   'P -1'
_symmetry_Int_Tables_number      2
_space_group_name_Hall           '-P 1'
loop_
_symmetry_equiv_pos_site_id
_symmetry_equiv_pos_as_xyz
1 x,y,z
2 -x,-y,-z
_cell_length_a                   6.049(2)
_cell_length_b                   10.142(4)
_cell_length_c                   11.047(4)
_cell_angle_alpha                92.547(6)
_cell_angle_beta                 96.063(6)
_cell_angle_gamma                101.286(6)
_cell_volume                     659.424
_exptl_crystal_colour            yellow
_exptl_crystal_description       block
_chemical_melting_point          '526-528 K'
_cell_formula_units_Z            2
_exptl_crystal_recrystallization_method methanol
loop_
_atom_site_label
_atom_site_type_symbol
_atom_site_fract_x
_atom_site_fract_y
_atom_site_fract_z
O1 O 0.3143(3) 0.45592(16) 0.21830(16)
N1 N 0.4304(3) 0.82022(19) 0.05343(17)
N2 N 0.7656(3) 0.66619(17) 0.09378(16)
N3 N 0.6739(3) 0.42945(17) 0.19563(16)
H1 H 0.8008 0.4653 0.1710
N4 N 0.6530(3) 0.30524(17) 0.24539(16)
N5 N 0.8602(3) -0.26510(17) 0.40961(16)
C1 C 0.8033(4) 0.7833(2) 0.0424(2)
H2 H 0.9458 0.8149 0.0181
C2 C 0.6391(4) 0.8596(2) 0.0237(2)
H3 H 0.6759 0.9417 -0.0111
C3 C 0.3923(4) 0.7029(2) 0.1045(2)
H4 H 0.2487 0.6708 0.1271
C4 C 0.5565(3) 0.6262(2) 0.12551(18)
C5 C 0.5015(4) 0.4955(2) 0.18476(18)
C6 C 0.8269(4) 0.2510(2) 0.24177(19)
H5 H 0.9527 0.2976 0.2092
C7 C 0.8341(3) 0.1195(2) 0.28673(18)
C8 C 0.6568(3) 0.0452(2) 0.34085(19)
H6 H 0.5285 0.0810 0.3492
C9 C 0.6661(3) -0.0795(2) 0.38223(19)
H7 H 0.5446 -0.1257 0.4186
C10 C 0.8553(3) -0.1390(2) 0.37091(17)
C11 C 1.0338(3) -0.0634(2) 0.31732(19)
H8 H 1.1627 -0.0985 0.3087
C12 C 1.0230(3) 0.0623(2) 0.27699(19)
H9 H 1.1454 0.1101 0.2424
C13 C 0.6865(4) -0.3348(2) 0.4782(2)
H10 H 0.6770 -0.2793 0.5494
H11 H 0.7247 -0.4180 0.5025
H12 H 0.5429 -0.3532 0.4282
C14 C 1.0611(4) -0.3219(2) 0.4071(2)
H13 H 1.1110 -0.3153 0.3276
H14 H 1.0266 -0.4148 0.4253
H15 H 1.1790 -0.2732 0.4668
loop_
_geom_bond_atom_site_label_1
_geom_bond_atom_site_label_2
_geom_bond_site_symmetry_1
_geom_bond_site_symmetry_2
O1 C5 1_555 1_555
N1 C2 1_555 1_555
N2 C1 1_555 1_555
N3 H1 1_555 1_555
N4 N3 1_555 1_555
N5 C10 1_555 1_555
C1 H2 1_555 1_555
C2 C1 1_555 1_555
H3 C2 1_555 1_555
C3 N1 1_555 1_555
H4 C3 1_555 1_555
C4 N2 1_555 1_555
C5 N3 1_555 1_555
C6 N4 1_555 1_555
H5 C6 1_555 1_555
C7 C6 1_555 1_555
C8 C7 1_555 1_555
H6 C8 1_555 1_555
C9 C8 1_555 1_555
H7 C9 1_555 1_555
C10 C9 1_555 1_555
C11 C10 1_555 1_555
H8 C11 1_555 1_555
C12 C7 1_555 1_555
H9 C12 1_555 1_555
C13 N5 1_555 1_555
H10 C13 1_555 1_555
H11 C13 1_555 1_555
H12 C13 1_555 1_555
C14 N5 1_555 1_555
H13 C14 1_555 1_555
H14 C14 1_555 1_555
H15 C14 1_555 1_555
C3 C4 1_555 1_555
C4 C5 1_555 1_555
C11 C12 1_555 1_555

#END
