
#######################################################################
#
#                 Cambridge Crystallographic Data Centre
#                                CCDC 
#
#######################################################################
#
# If this CIF has been generated from an entry in the Cambridge 
# Structural Database, then it will include bibliographic, chemical, 
# crystal, experimental, refinement or atomic coordinate data resulting 
# from the CCDC's data processing and validation procedures.
#
#######################################################################

data_MELWUW
_chemical_formula_moiety         'C14 H19 N3'
_chemical_name_systematic        1-Azidodiamantane
_symmetry_cell_setting           monoclinic
_symmetry_space_group_name_H-M   'P 21/c'
_symmetry_Int_Tables_number      14
_space_group_name_Hall           '-P 2ybc'
loop_
_symmetry_equiv_pos_site_id
_symmetry_equiv_pos_as_xyz
1 x,y,z
2 -x,1/2+y,1/2-z
3 -x,-y,-z
4 x,1/2-y,1/2+z
_cell_length_a                   7.678(2)
_cell_length_b                   12.575(4)
_cell_length_c                   12.073(4)
_cell_angle_alpha                90
_cell_angle_beta                 96.063(6)
_cell_angle_gamma                90
_cell_volume                     1159.14
_exptl_crystal_colour            colorless
_exptl_crystal_description       prism
_chemical_melting_point          '387-388 K'
_cell_formula_units_Z            4
_exptl_crystal_recrystallization_method dichloromethane
loop_
_atom_site_label
_atom_site_type_symbol
_atom_site_fract_x
_atom_site_fract_y
_atom_site_fract_z
N1 N 0.3794(2) 0.59507(14) 0.12145(14)
N2 N 0.2929(2) 0.66619(16) 0.07397(14)
N3 N 0.2270(3) 0.73514(17) 0.02549(16)
C1 C 0.2860(2) 0.52863(13) 0.20076(14)
C2 C 0.4267(2) 0.45807(14) 0.26219(14)
H1 H 0.5177 0.5031 0.3012
C3 C 0.5100(3) 0.38462(15) 0.18181(15)
H2 H 0.5983 0.3405 0.2228
H3 H 0.5663 0.4267 0.1284
C4 C 0.3684(3) 0.31431(16) 0.12069(17)
H4 H 0.4215 0.2674 0.0689
C5 C 0.2815(3) 0.24739(15) 0.20489(18)
H5 H 0.1923 0.2023 0.1663
H6 H 0.3681 0.2021 0.2458
C6 C 0.1989(3) 0.32052(15) 0.28555(16)
H7 H 0.1442 0.2770 0.3397
C7 C 0.0589(2) 0.39150(15) 0.22318(15)
H8 H -0.0318 0.3465 0.1840
C8 C -0.0250(3) 0.46398(16) 0.30376(16)
H9 H -0.1130 0.5084 0.2629
H10 H -0.0819 0.4214 0.3564
C9 C 0.1151(3) 0.53350(15) 0.36586(16)
H11 H 0.0617 0.5801 0.4179
C10 C 0.2021(3) 0.60045(14) 0.28221(15)
H12 H 0.2910 0.6455 0.3213
H13 H 0.1155 0.6459 0.2416
C11 C 0.1476(2) 0.45721(14) 0.13710(14)
H14 H 0.0594 0.5020 0.0951
C12 C 0.2308(3) 0.38411(17) 0.05620(15)
H15 H 0.1413 0.3398 0.0166
H16 H 0.2848 0.4264 0.0020
C13 C 0.2539(3) 0.46403(17) 0.42939(15)
H17 H 0.2008 0.4208 0.4833
H18 H 0.3426 0.5085 0.4694
C14 C 0.3382(3) 0.39240(16) 0.34817(15)
H19 H 0.4266 0.3477 0.3901
loop_
_geom_bond_atom_site_label_1
_geom_bond_atom_site_label_2
_geom_bond_site_symmetry_1
_geom_bond_site_symmetry_2
N1 N2 1_555 1_555
N2 N3 1_555 1_555
C1 N1 1_555 1_555
C2 C1 1_555 1_555
H1 C2 1_555 1_555
C3 C2 1_555 1_555
H2 C3 1_555 1_555
H3 C3 1_555 1_555
C4 C3 1_555 1_555
H4 C4 1_555 1_555
C5 C4 1_555 1_555
H5 C5 1_555 1_555
H6 C5 1_555 1_555
C6 C5 1_555 1_555
H7 C6 1_555 1_555
C7 C6 1_555 1_555
H8 C7 1_555 1_555
C8 C7 1_555 1_555
H9 C8 1_555 1_555
H10 C8 1_555 1_555
C9 C8 1_555 1_555
H11 C9 1_555 1_555
C10 C1 1_555 1_555
H12 C10 1_555 1_555
H13 C10 1_555 1_555
C11 C1 1_555 1_555
H14 C11 1_555 1_555
C12 C4 1_555 1_555
H15 C12 1_555 1_555
H16 C12 1_555 1_555
C13 C9 1_555 1_555
H17 C13 1_555 1_555
H18 C13 1_555 1_555
C14 C2 1_555 1_555
H19 C14 1_555 1_555
C6 C14 1_555 1_555
C7 C11 1_555 1_555
C9 C10 1_555 1_555
C11 C12 1_555 1_555
C13 C14 1_555 1_555

#END
