
#######################################################################
#
#                 Cambridge Crystallographic Data Centre
#                                CCDC 
#
#######################################################################
#
# If this CIF has been generated from an entry in the Cambridge 
# Structural Database, then it will include bibliographic, chemical, 
# crystal, experimental, refinement or atomic coordinate data resulting 
# from the CCDC's data processing and validation procedures.
#
#######################################################################

data_MELWIK
_chemical_formula_moiety         'C12 H9 Cl1 N4 O1'
_chemical_name_systematic        
'4-Chlorobenzaldehyde (pyrazine-2-carbonyl)hydrazone'
_chemical_properties_biological  'potential pharmacological activity'
_symmetry_cell_setting           triclinic
_symmetry_space_group_name_H-M   'P -1'
_symmetry_Int_Tables_number      2
_space_group_name_Hall           '-P 1'
loop_
_symmetry_equiv_pos_site_id
_symmetry_equiv_pos_as_xyz
1 x,y,z
2 -x,-y,-z
_cell_length_a                   5.8860(16)
_cell_length_b                   7.818(2)
_cell_length_c                   13.500(4)
_cell_angle_alpha                84.883(5)
_cell_angle_beta                 80.500(5)
_cell_angle_gamma                73.769(4)
_cell_volume                     587.677
_exptl_crystal_colour            colorless
_exptl_crystal_description       block
_chemical_melting_point          '479-480 K'
_cell_formula_units_Z            2
_exptl_crystal_recrystallization_method methanol
loop_
_atom_site_label
_atom_site_type_symbol
_atom_site_fract_x
_atom_site_fract_y
_atom_site_fract_z
Cl1 Cl 0.86529(15) -0.25496(11) 0.97972(6)
O1 O 0.0420(3) 0.3083(2) 0.46929(13)
N1 N 0.0684(4) 0.6053(3) 0.19755(17)
N2 N 0.4740(3) 0.4499(3) 0.29061(15)
N3 N 0.4343(4) 0.2867(3) 0.47414(16)
H1 H 0.554(5) 0.311(4) 0.441(2)
N4 N 0.4422(4) 0.1945(3) 0.56590(15)
C1 C 0.4860(4) 0.5378(3) 0.20140(19)
H2 H 0.6338 0.5489 0.1691
C2 C 0.2867(5) 0.6125(3) 0.1555(2)
H3 H 0.3053 0.6704 0.0927
C3 C 0.0565(4) 0.5184(3) 0.2872(2)
H4 H -0.0923 0.5105 0.3200
C4 C 0.2557(4) 0.4399(3) 0.33318(18)
C5 C 0.2314(5) 0.3387(3) 0.43219(18)
C6 C 0.6497(5) 0.1414(3) 0.59197(19)
H5 H 0.7781 0.1645 0.5481
C7 C 0.6948(4) 0.0457(3) 0.68795(18)
C8 C 0.5124(4) 0.0270(3) 0.76430(19)
H6 H 0.3539 0.0776 0.7552
C9 C 0.5636(5) -0.0660(3) 0.85358(19)
H7 H 0.4403 -0.0793 0.9039
C10 C 0.7990(5) -0.1388(3) 0.86747(19)
C11 C 0.9826(5) -0.1205(4) 0.7936(2)
H8 H 1.1409 -0.1706 0.8033
C12 C 0.9299(5) -0.0273(3) 0.7048(2)
H9 H 1.0542 -0.0129 0.6554
loop_
_geom_bond_atom_site_label_1
_geom_bond_atom_site_label_2
_geom_bond_site_symmetry_1
_geom_bond_site_symmetry_2
Cl1 C10 1_555 1_555
O1 C5 1_555 1_555
N1 C2 1_555 1_555
N2 C1 1_555 1_555
N3 H1 1_555 1_555
N4 N3 1_555 1_555
C1 H2 1_555 1_555
C2 C1 1_555 1_555
H3 C2 1_555 1_555
C3 N1 1_555 1_555
H4 C3 1_555 1_555
C4 N2 1_555 1_555
C5 N3 1_555 1_555
C6 N4 1_555 1_555
H5 C6 1_555 1_555
C7 C6 1_555 1_555
C8 C7 1_555 1_555
H6 C8 1_555 1_555
C9 C8 1_555 1_555
H7 C9 1_555 1_555
C10 C9 1_555 1_555
C11 C10 1_555 1_555
H8 C11 1_555 1_555
C12 C7 1_555 1_555
H9 C12 1_555 1_555
C3 C4 1_555 1_555
C4 C5 1_555 1_555
C11 C12 1_555 1_555

#END
