
#######################################################################
#
#                 Cambridge Crystallographic Data Centre
#                                CCDC 
#
#######################################################################
#
# If this CIF has been generated from an entry in the Cambridge 
# Structural Database, then it will include bibliographic, chemical, 
# crystal, experimental, refinement or atomic coordinate data resulting 
# from the CCDC's data processing and validation procedures.
#
#######################################################################

data_MEMBAK
_chemical_compound_source        
'Isolated from Salvia miltiorrhiza cell cultures.'
_chemical_name_common            'salvianan A'
_chemical_formula_moiety         'C20 H17 N1 O2'
_chemical_name_systematic        
2,4,9-trimethyl-4,5-dihydrofuro[2',3':1,2]phenanthro[4,3-d][1,3]oxazole
_symmetry_cell_setting           triclinic
_symmetry_space_group_name_H-M   'P 1'
_symmetry_Int_Tables_number      1
_space_group_name_Hall           'P 1'
loop_
_symmetry_equiv_pos_site_id
_symmetry_equiv_pos_as_xyz
1 x,y,z
_cell_length_a                   7.3007(19)
_cell_length_b                   10.496(7)
_cell_length_c                   10.8610(10)
_cell_angle_alpha                70.26(8)
_cell_angle_beta                 77.00(6)
_cell_angle_gamma                81.658(10)
_cell_volume                     761.104
_exptl_crystal_colour            colorless
_exptl_crystal_description       Block
_cell_formula_units_Z            2
loop_
_atom_site_label
_atom_site_type_symbol
_atom_site_fract_x
_atom_site_fract_y
_atom_site_fract_z
N1 N 0.1718(3) 0.3708(2) 0.1924(2)
O1 O -0.1304(3) 0.7319(2) 0.4615(2)
O2 O 0.0798(3) 0.29938(17) 0.41431(18)
C1 C 0.2276(4) 0.6081(3) -0.0633(3)
H1 H 0.2536 0.5152 -0.0263
C2 C 0.2747(5) 0.6676(3) -0.1977(3)
H2 H 0.3340 0.6152 -0.2514
C3 C 0.2345(5) 0.8073(3) -0.2553(3)
H3 H 0.2642 0.8461 -0.3473
C4 C 0.1519(4) 0.8875(3) -0.1780(3)
C5 C 0.1053(4) 0.8283(2) -0.0387(3)
C6 C 0.0223(4) 0.9088(3) 0.0468(3)
H4 H 0.0010 1.0021 0.0087
C7 C -0.0248(4) 0.8547(3) 0.1779(3)
H5 H -0.0761 0.9108 0.2294
C8 C 0.0018(4) 0.7127(3) 0.2408(3)
C9 C 0.0841(4) 0.6252(3) 0.1632(2)
C10 C 0.1398(4) 0.6861(3) 0.0203(3)
C11 C 0.1016(4) 0.4847(3) 0.2354(3)
C12 C 0.0458(4) 0.4377(3) 0.3718(3)
C13 C -0.0334(4) 0.5205(3) 0.4498(3)
C14 C -0.0508(4) 0.6541(3) 0.3806(3)
C15 C -0.1084(4) 0.4952(3) 0.5954(3)
H6 H -0.2259 0.4500 0.6210
C16 C -0.1527(6) 0.6410(3) 0.5976(3)
H7 H -0.2808 0.6523 0.6442
H8 H -0.0678 0.6619 0.6441
C17 C 0.0272(6) 0.4130(3) 0.6851(3)
H9 H 0.0498 0.3229 0.6786
H10 H -0.0262 0.4086 0.7756
H11 H 0.1441 0.4555 0.6579
C18 C 0.1113(5) 1.0384(3) -0.2444(3)
H12 H 0.1521 1.0601 -0.3391
H13 H 0.1777 1.0888 -0.2116
H14 H -0.0217 1.0618 -0.2245
C19 C 0.1546(4) 0.2689(3) 0.2992(3)
C20 C 0.2060(5) 0.1237(3) 0.3140(4)
H15 H 0.2570 0.1136 0.2280
H16 H 0.0958 0.0738 0.3537
H17 H 0.2985 0.0895 0.3700
N2 N 0.4751(3) 0.5144(2) 0.5039(2)
O3 O 0.7385(3) 0.14564(19) 0.2390(2)
O4 O 0.5204(3) 0.57908(17) 0.28108(18)
C21 C 0.4683(4) 0.2838(3) 0.7644(2)
H18 H 0.4410 0.3766 0.7275
C22 C 0.4322(5) 0.2257(3) 0.8993(3)
H19 H 0.3785 0.2790 0.9532
C23 C 0.4750(5) 0.0872(3) 0.9574(3)
H20 H 0.4491 0.0496 1.0497
C24 C 0.5543(4) 0.0057(3) 0.8811(3)
C25 C 0.5901(4) 0.0635(3) 0.7403(3)
C26 C 0.6669(4) -0.0190(3) 0.6569(3)
H21 H 0.6986 -0.1108 0.6962
C27 C 0.6944(4) 0.0321(3) 0.5241(3)
H22 H 0.7444 -0.0247 0.4731
C28 C 0.6485(4) 0.1723(3) 0.4592(3)
C29 C 0.5761(4) 0.2610(2) 0.5364(3)
C30 C 0.5470(3) 0.2044(2) 0.6797(3)
C31 C 0.5385(3) 0.3989(3) 0.4629(3)
C32 C 0.5664(4) 0.4422(2) 0.3252(3)
C33 C 0.6322(4) 0.3575(3) 0.2485(3)
C34 C 0.6735(4) 0.2257(3) 0.3195(3)
C35 C 0.6598(4) 0.3717(3) 0.1032(3)
H23 H 0.5373 0.3675 0.0826
C36 C 0.7766(5) 0.2399(3) 0.1037(3)
H24 H 0.7426 0.2028 0.0420
H25 H 0.9096 0.2554 0.0768
C37 C 0.7468(6) 0.4978(3) 0.0056(3)
H26 H 0.6643 0.5762 0.0122
H27 H 0.7654 0.4932 -0.0832
H28 H 0.8660 0.5043 0.0256
C38 C 0.5967(5) -0.1431(3) 0.9473(3)
H29 H 0.5647 -0.1631 1.0422
H30 H 0.7285 -0.1668 0.9219
H31 H 0.5239 -0.1944 0.9201
C39 C 0.4684(4) 0.6138(3) 0.3960(3)
C40 C 0.4141(6) 0.7593(3) 0.3795(3)
H32 H 0.3804 0.7722 0.4654
H33 H 0.3083 0.7882 0.3351
H34 H 0.5183 0.8119 0.3273
loop_
_geom_bond_atom_site_label_1
_geom_bond_atom_site_label_2
_geom_bond_site_symmetry_1
_geom_bond_site_symmetry_2
N1 C11 1_555 1_555
O1 C14 1_555 1_555
O2 C12 1_555 1_555
C1 H1 1_555 1_555
C2 C1 1_555 1_555
H2 C2 1_555 1_555
C3 C2 1_555 1_555
H3 C3 1_555 1_555
C4 C3 1_555 1_555
C5 C4 1_555 1_555
C6 C5 1_555 1_555
H4 C6 1_555 1_555
C7 C6 1_555 1_555
H5 C7 1_555 1_555
C8 C7 1_555 1_555
C9 C8 1_555 1_555
C10 C1 1_555 1_555
C11 C9 1_555 1_555
C12 C11 1_555 1_555
C13 C12 1_555 1_555
C14 C8 1_555 1_555
C15 C13 1_555 1_555
H6 C15 1_555 1_555
C16 O1 1_555 1_555
H7 C16 1_555 1_555
H8 C16 1_555 1_555
C17 C15 1_555 1_555
H9 C17 1_555 1_555
H10 C17 1_555 1_555
H11 C17 1_555 1_555
C18 C4 1_555 1_555
H12 C18 1_555 1_555
H13 C18 1_555 1_555
H14 C18 1_555 1_555
C19 N1 1_555 1_555
C20 C19 1_555 1_555
H15 C20 1_555 1_555
H16 C20 1_555 1_555
H17 C20 1_555 1_555
N2 C31 1_555 1_555
O3 C34 1_555 1_555
O4 C32 1_555 1_555
C21 H18 1_555 1_555
C22 C21 1_555 1_555
H19 C22 1_555 1_555
C23 C22 1_555 1_555
H20 C23 1_555 1_555
C24 C23 1_555 1_555
C25 C24 1_555 1_555
C26 C25 1_555 1_555
H21 C26 1_555 1_555
C27 C26 1_555 1_555
H22 C27 1_555 1_555
C28 C27 1_555 1_555
C29 C28 1_555 1_555
C30 C21 1_555 1_555
C31 C29 1_555 1_555
C32 C31 1_555 1_555
C33 C32 1_555 1_555
C34 C28 1_555 1_555
C35 C33 1_555 1_555
H23 C35 1_555 1_555
C36 O3 1_555 1_555
H24 C36 1_555 1_555
H25 C36 1_555 1_555
C37 C35 1_555 1_555
H26 C37 1_555 1_555
H27 C37 1_555 1_555
H28 C37 1_555 1_555
C38 C24 1_555 1_555
H29 C38 1_555 1_555
H30 C38 1_555 1_555
H31 C38 1_555 1_555
C39 N2 1_555 1_555
C40 C39 1_555 1_555
H32 C40 1_555 1_555
H33 C40 1_555 1_555
H34 C40 1_555 1_555
O2 C19 1_555 1_555
C5 C10 1_555 1_555
C9 C10 1_555 1_555
C13 C14 1_555 1_555
C15 C16 1_555 1_555
O4 C39 1_555 1_555
C25 C30 1_555 1_555
C29 C30 1_555 1_555
C33 C34 1_555 1_555
C35 C36 1_555 1_555

#END
