
#######################################################################
#
#                 Cambridge Crystallographic Data Centre
#                                CCDC 
#
#######################################################################
#
# If this CIF has been generated from an entry in the Cambridge 
# Structural Database, then it will include bibliographic, chemical, 
# crystal, experimental, refinement or atomic coordinate data resulting 
# from the CCDC's data processing and validation procedures.
#
#######################################################################

data_MEMDUE
_chemical_formula_moiety         'C13 H19 N1 O8 S1'
_chemical_name_systematic        
O-Methyl-N-(2,3,4-tri-O-acetyl-\b-D-xylopyranosyl)thiocarbamate
_symmetry_cell_setting           orthorhombic
_symmetry_space_group_name_H-M   'P 21 21 21'
_symmetry_Int_Tables_number      19
_space_group_name_Hall           'P 2ac 2ab'
loop_
_symmetry_equiv_pos_site_id
_symmetry_equiv_pos_as_xyz
1 x,y,z
2 1/2-x,-y,1/2+z
3 -x,1/2+y,1/2-z
4 1/2+x,1/2-y,-z
_cell_length_a                   7.7923(16)
_cell_length_b                   10.845(2)
_cell_length_c                   19.820(4)
_cell_angle_alpha                90
_cell_angle_beta                 90
_cell_angle_gamma                90
_cell_volume                     1674.94
_chemical_melting_point          165-166deg.C
_cell_formula_units_Z            4
loop_
_atom_site_label
_atom_site_type_symbol
_atom_site_fract_x
_atom_site_fract_y
_atom_site_fract_z
S1 S 0.5027(3) 0.38884(18) 0.17266(9)
N1 N 0.6601(6) 0.2981(4) 0.0648(2)
H1 H 0.7249 0.2404 0.0494
O1 O 0.5272(5) 0.3580(3) -0.03167(17)
O2 O 0.6268(6) 0.1679(4) 0.14724(18)
O3 O 0.8853(4) 0.5091(4) 0.05101(16)
O4 O 1.1426(5) 0.4442(4) 0.0139(2)
O5 O 0.9178(4) 0.5915(3) -0.09126(16)
O6 O 0.9455(6) 0.7607(4) -0.0275(2)
O7 O 0.5956(5) 0.6058(3) -0.15424(16)
O9 O 0.519(11) 0.4750(18) -0.231(2)
C1 C 0.6308(6) 0.4021(5) 0.0223(2)
H2 H 0.5693 0.4663 0.0473
C2 C 0.7979(7) 0.4538(5) -0.0057(2)
H3 H 0.8677 0.3880 -0.0256
C3 C 0.7614(6) 0.5549(5) -0.0574(2)
H4 H 0.7092 0.6263 -0.0352
C4 C 0.6413(7) 0.5047(5) -0.1107(2)
H5 H 0.6970 0.4388 -0.1365
C5 C 0.4809(7) 0.4571(5) -0.0761(3)
H6 H 0.4273 0.5230 -0.0505
H7 H 0.3995 0.4280 -0.1095
C6 C 0.5953(7) 0.2832(5) 0.1270(2)
C7 C 0.5703(11) 0.1270(6) 0.2134(3)
H8 H 0.6018 0.0422 0.2198
H9 H 0.4479 0.1352 0.2167
H10 H 0.6239 0.1767 0.2475
C8 C 1.0593(7) 0.5014(5) 0.0541(3)
C9 C 1.1277(8) 0.5761(5) 0.1105(3)
H11 H 1.2503 0.5675 0.1124
H12 H 1.0785 0.5481 0.1522
H13 H 1.0987 0.6612 0.1036
C10 C 0.9937(7) 0.6977(5) -0.0732(2)
C11 C 1.1457(8) 0.7234(6) -0.1172(3)
H14 H 1.1996 0.7986 -0.1029
H15 H 1.1089 0.7314 -0.1632
H16 H 1.2261 0.6566 -0.1136
C12 C 0.5538(10) 0.5746(6) -0.2181(3)
C13 C 0.5044(11) 0.6841(5) -0.2595(3)
H17 H 0.4739 0.6576 -0.3041
H18 H 0.5995 0.7402 -0.2620
H19 H 0.4082 0.7247 -0.2390
O8? O 0.608(13) 0.470(3) -0.2438(15)
loop_
_geom_bond_atom_site_label_1
_geom_bond_atom_site_label_2
_geom_bond_site_symmetry_1
_geom_bond_site_symmetry_2
S1 C6 1_555 1_555
N1 H1 1_555 1_555
O1 C1 1_555 1_555
O2 C6 1_555 1_555
O3 C2 1_555 1_555
O4 C8 1_555 1_555
O5 C3 1_555 1_555
O6 C10 1_555 1_555
O7 C4 1_555 1_555
O9 C12 1_555 1_555
C1 N1 1_555 1_555
H2 C1 1_555 1_555
C2 C1 1_555 1_555
H3 C2 1_555 1_555
C3 C2 1_555 1_555
H4 C3 1_555 1_555
C4 C3 1_555 1_555
H5 C4 1_555 1_555
C5 O1 1_555 1_555
H6 C5 1_555 1_555
H7 C5 1_555 1_555
C6 N1 1_555 1_555
C7 O2 1_555 1_555
H8 C7 1_555 1_555
H9 C7 1_555 1_555
H10 C7 1_555 1_555
C8 O3 1_555 1_555
C9 C8 1_555 1_555
H11 C9 1_555 1_555
H12 C9 1_555 1_555
H13 C9 1_555 1_555
C10 O5 1_555 1_555
C11 C10 1_555 1_555
H14 C11 1_555 1_555
H15 C11 1_555 1_555
H16 C11 1_555 1_555
C12 O7 1_555 1_555
C13 C12 1_555 1_555
H17 C13 1_555 1_555
H18 C13 1_555 1_555
H19 C13 1_555 1_555
C4 C5 1_555 1_555

#END
