
#######################################################################
#
#                 Cambridge Crystallographic Data Centre
#                                CCDC 
#
#######################################################################
#
# If this CIF has been generated from an entry in the Cambridge 
# Structural Database, then it will include bibliographic, chemical, 
# crystal, experimental, refinement or atomic coordinate data resulting 
# from the CCDC's data processing and validation procedures.
#
#######################################################################

data_MEMGAP
_chemical_compound_source        'Chinese liverwort, Radula sumatrana'
_chemical_name_common            '()-bibenzyl/o-cannabicyclol hybrid'
_chemical_formula_moiety         'C24 H28 O2'
_chemical_name_systematic        
1,1,3a-trimethyl-8-(2-phenylethyl)-1a,2,3,3a,8b,8c-hexahydro-1H-4-oxabenzo[f]cyclobuta[cd]inden-6-ol
_symmetry_cell_setting           monoclinic
_symmetry_space_group_name_H-M   'P 21/n'
_symmetry_Int_Tables_number      14
_space_group_name_Hall           '-P 2yn'
loop_
_symmetry_equiv_pos_site_id
_symmetry_equiv_pos_as_xyz
1 x,y,z
2 1/2-x,1/2+y,1/2-z
3 -x,-y,-z
4 1/2+x,1/2-y,1/2+z
_cell_length_a                   14.8049(12)
_cell_length_b                   6.0967(5)
_cell_length_c                   23.0240(18)
_cell_angle_alpha                90
_cell_angle_beta                 107.414(3)
_cell_angle_gamma                90
_cell_volume                     1982.92
_exptl_crystal_colour            colorless
_exptl_crystal_description       block
_cell_formula_units_Z            4
loop_
_atom_site_label
_atom_site_type_symbol
_atom_site_fract_x
_atom_site_fract_y
_atom_site_fract_z
O1 O 0.40932(8) 1.0318(2) 0.76551(6)
H1 H 0.3702(15) 1.028(2) 0.7873(9)
C1 C 0.76513(14) 0.0649(3) 0.63288(8)
H2 H 0.7634 -0.0741 0.6159
O2 O 0.20821(7) 0.4650(2) 0.65835(5)
C2 C 0.44952(9) 0.6210(2) 0.66138(6)
C3 C 0.53402(9) 0.5450(3) 0.64256(6)
H3 H 0.5642 0.6710 0.6305
H4 H 0.5126 0.4485 0.6076
C4 C 0.36382(9) 0.5039(2) 0.64397(5)
C5 C 0.46183(9) 0.7971(3) 0.70075(6)
H5 H 0.5183 0.8755 0.7106
C6 C 0.39151(10) 0.8588(3) 0.72582(6)
C7 C 0.34997(10) 0.3012(2) 0.60559(6)
H6 H 0.3982 0.1929 0.6256
C8 C 0.29396(9) 0.5733(3) 0.66941(6)
C9 C 0.68965(9) 0.3428(3) 0.67586(6)
C10 C 0.30673(10) 0.7466(3) 0.70971(6)
H7 H 0.2586 0.7872 0.7258
C11 C 0.33973(10) 0.3064(3) 0.53507(6)
C12 C 0.25101(11) 0.1945(3) 0.59122(7)
H8 H 0.2518 0.0453 0.6071
C13 C 0.34618(12) 0.5267(3) 0.50616(7)
H9 H 0.3253 0.5121 0.4627
H10 H 0.4106 0.5769 0.5191
H11 H 0.3067 0.6308 0.5184
C14 C 0.76875(11) 0.4725(3) 0.68317(7)
H12 H 0.7710 0.6112 0.7004
C15 C 0.60593(11) 0.4240(3) 0.69404(7)
H13 H 0.6280 0.5218 0.7286
H14 H 0.5751 0.3002 0.7066
C16 C 0.68942(11) 0.1385(3) 0.65042(7)
H15 H 0.6369 0.0482 0.6450
C17 C 0.23866(11) 0.2048(3) 0.52192(7)
H16 H 0.2330 0.0598 0.5028
C18 C 0.17449(11) 0.3406(4) 0.60227(7)
C19 C 0.14478(12) 0.4922(4) 0.54732(8)
H17 H 0.1863 0.6186 0.5530
H18 H 0.0802 0.5426 0.5403
C20 C 0.15315(12) 0.3510(4) 0.49439(7)
H19 H 0.0965 0.2637 0.4779
H20 H 0.1630 0.4417 0.4622
C21 C 0.40789(13) 0.1454(3) 0.51942(9)
H21 H 0.3917 0.1297 0.4760
H22 H 0.4034 0.0054 0.5374
H23 H 0.4714 0.1997 0.5350
C22 C 0.84250(13) 0.1946(4) 0.64026(8)
H24 H 0.8936 0.1445 0.6284
C23 C 0.84498(11) 0.3985(4) 0.66517(8)
H25 H 0.8977 0.4878 0.6701
C24 C 0.09185(15) 0.2061(5) 0.61008(11)
H26 H 0.0443 0.3032 0.6161
H27 H 0.1141 0.1117 0.6448
H28 H 0.0652 0.1191 0.5743
loop_
_geom_bond_atom_site_label_1
_geom_bond_atom_site_label_2
_geom_bond_site_symmetry_1
_geom_bond_site_symmetry_2
O1 H1 1_555 1_555
C1 H2 1_555 1_555
O2 C8 1_555 1_555
C2 C3 1_555 1_555
C3 H3 1_555 1_555
H4 C3 1_555 1_555
C4 C2 1_555 1_555
C5 C2 1_555 1_555
H5 C5 1_555 1_555
C6 O1 1_555 1_555
C7 C4 1_555 1_555
H6 C7 1_555 1_555
C8 C4 1_555 1_555
C9 C14 1_555 1_555
C10 C6 1_555 1_555
H7 C10 1_555 1_555
C11 C7 1_555 1_555
C12 C7 1_555 1_555
H8 C12 1_555 1_555
C13 C11 1_555 1_555
H9 C13 1_555 1_555
H10 C13 1_555 1_555
H11 C13 1_555 1_555
C14 H12 1_555 1_555
C15 C3 1_555 1_555
H13 C15 1_555 1_555
H14 C15 1_555 1_555
C16 C1 1_555 1_555
H15 C16 1_555 1_555
C17 C11 1_555 1_555
H16 C17 1_555 1_555
C18 O2 1_555 1_555
C19 C18 1_555 1_555
H17 C19 1_555 1_555
H18 C19 1_555 1_555
C20 C17 1_555 1_555
H19 C20 1_555 1_555
H20 C20 1_555 1_555
C21 C11 1_555 1_555
H21 C21 1_555 1_555
H22 C21 1_555 1_555
H23 C21 1_555 1_555
C22 C1 1_555 1_555
H24 C22 1_555 1_555
C23 C14 1_555 1_555
H25 C23 1_555 1_555
C24 C18 1_555 1_555
H26 C24 1_555 1_555
H27 C24 1_555 1_555
H28 C24 1_555 1_555
C5 C6 1_555 1_555
C8 C10 1_555 1_555
C9 C15 1_555 1_555
C9 C16 1_555 1_555
C12 C17 1_555 1_555
C12 C18 1_555 1_555
C19 C20 1_555 1_555
C22 C23 1_555 1_555

#END
