
#######################################################################
#
#                 Cambridge Crystallographic Data Centre
#                                CCDC 
#
#######################################################################
#
# If this CIF has been generated from an entry in the Cambridge 
# Structural Database, then it will include bibliographic, chemical, 
# crystal, experimental, refinement or atomic coordinate data resulting 
# from the CCDC's data processing and validation procedures.
#
#######################################################################

data_MEMGIX
_chemical_name_common            'gombasterol E'
_chemical_formula_moiety         'C28 H48 O7'
_chemical_name_systematic        3,4,6,7,22,23-hexahydroxyergostan-15-one
_chemical_properties_biological  
'tested for 2-deoxy-2-((7-nitro-2,1,3-benzoxadiazol-4-yl)amino)-D-glucose uptake in differentiated 3T3-L1 adipocytes and phosphorylation of AMP-activated protein kinase (AMPK) and acetyl-CoA carboxylase (ACC) in differentiated mouse C2C12 skeletal myoblasts'
_symmetry_cell_setting           monoclinic
_symmetry_space_group_name_H-M   'P 21'
_symmetry_Int_Tables_number      4
_space_group_name_Hall           'P 2yb'
loop_
_symmetry_equiv_pos_site_id
_symmetry_equiv_pos_as_xyz
1 x,y,z
2 -x,1/2+y,-z
_cell_length_a                   14.3972(4)
_cell_length_b                   6.5250(2)
_cell_length_c                   15.8944(5)
_cell_angle_alpha                90
_cell_angle_beta                 110.130(3)
_cell_angle_gamma                90
_cell_volume                     1401.94
_exptl_crystal_colour            colorless
_exptl_crystal_description       plate
_chemical_melting_point          '154 deg.C'
_cell_formula_units_Z            2
loop_
_atom_site_label
_atom_site_type_symbol
_atom_site_fract_x
_atom_site_fract_y
_atom_site_fract_z
O1 O 0.03213(15) 0.9162(4) 0.64791(15)
H1 H -0.0086 0.8442 0.6110
O2 O 0.06739(15) 0.7100(4) 0.50323(14)
H2 H 0.0761 0.6151 0.4729
O3 O 0.17702(15) 0.3904(4) 0.47826(14)
H3 H 0.1844 0.2769 0.4594
O4 O 0.34478(15) 0.1511(4) 0.54560(15)
H4 H 0.3996 0.1089 0.5488
O5 O 0.53577(15) 0.0747(4) 0.57386(15)
O6 O 0.88137(15) 0.5069(4) 0.61199(14)
H5 H 0.9036 0.4329 0.5817
O7 O 1.06284(14) 0.3236(4) 0.71640(15)
H6 H 1.0426 0.2063 0.7035
C1 C 0.3085(2) 0.8856(5) 0.7243(2)
H7 H 0.3576 0.9073 0.7833
H8 H 0.3211 0.9836 0.6836
C2 C 0.2054(2) 0.9236(6) 0.7286(2)
H9 H 0.1935 0.8295 0.7710
H10 H 0.2017 1.0622 0.7493
C3 C 0.12710(19) 0.8941(5) 0.6373(2)
H11 H 0.1342 1.0032 0.5976
C4 C 0.1338(2) 0.6881(5) 0.5945(2)
H12 H 0.1097 0.5794 0.6243
C5 C 0.2397(2) 0.6369(5) 0.5979(2)
H13 H 0.2559 0.7301 0.5566
C6 C 0.2476(2) 0.4176(5) 0.56675(19)
H14 H 0.2320 0.3219 0.6075
C7 C 0.3503(2) 0.3671(5) 0.5646(2)
H15 H 0.3592 0.4397 0.5140
C8 C 0.4370(2) 0.4226(5) 0.65000(19)
H16 H 0.4390 0.3253 0.6975
C9 C 0.4216(2) 0.6422(5) 0.6805(2)
H17 H 0.4207 0.7341 0.6315
C10 C 0.3196(2) 0.6667(5) 0.6926(2)
C11 C 0.5091(2) 0.7102(6) 0.7622(2)
H18 H 0.5127 0.6229 0.8127
H19 H 0.4977 0.8494 0.7778
C12 C 0.6082(2) 0.7013(6) 0.7464(2)
H20 H 0.6074 0.7998 0.7004
H21 H 0.6610 0.7395 0.8011
C13 C 0.6290(2) 0.4887(5) 0.7175(2)
C14 C 0.5376(2) 0.4207(5) 0.63602(19)
H22 H 0.5316 0.5240 0.5897
C15 C 0.5786(2) 0.2342(5) 0.60563(19)
C16 C 0.6875(2) 0.2706(6) 0.6237(2)
H23 H 0.7009 0.2780 0.5679
H24 H 0.7269 0.1612 0.6601
C17 C 0.7109(2) 0.4757(5) 0.6737(2)
H25 H 0.6970 0.5840 0.6284
C18 C 0.6489(2) 0.3358(6) 0.7951(2)
H26 H 0.7029 0.3842 0.8458
H27 H 0.6654 0.2046 0.7768
H28 H 0.5908 0.3230 0.8113
C19 C 0.3078(2) 0.5122(6) 0.7619(2)
H29 H 0.2400 0.5094 0.7587
H30 H 0.3492 0.5530 0.8210
H31 H 0.3270 0.3781 0.7491
C20 C 0.8196(2) 0.5024(5) 0.7358(2)
H32 H 0.8275 0.4306 0.7920
C21 C 0.8445(2) 0.7279(6) 0.7584(2)
H33 H 0.9089 0.7385 0.8035
H34 H 0.7962 0.7873 0.7803
H35 H 0.8440 0.7996 0.7055
C22 C 0.8935(2) 0.4078(5) 0.69600(19)
H36 H 0.8776 0.2621 0.6845
C23 C 1.0023(2) 0.4266(5) 0.75765(19)
H37 H 1.0196 0.5724 0.7605
C24 C 1.0250(2) 0.3529(5) 0.8550(2)
H38 H 0.9835 0.4330 0.8805
C25 C 1.1338(2) 0.3957(6) 0.9124(2)
H39 H 1.1754 0.3553 0.8777
C26 C 1.1499(3) 0.6237(7) 0.9337(3)
H40 H 1.1296 0.7007 0.8789
H41 H 1.2187 0.6485 0.9660
H42 H 1.1115 0.6653 0.9696
C27 C 1.1683(3) 0.2764(8) 1.0009(3)
H43 H 1.1240 0.3028 1.0331
H44 H 1.2338 0.3193 1.0365
H45 H 1.1685 0.1324 0.9887
C28 C 0.9958(3) 0.1269(6) 0.8562(2)
H46 H 0.9267 0.1108 0.8225
H47 H 1.0086 0.0841 0.9170
H48 H 1.0339 0.0444 0.8300
loop_
_geom_bond_atom_site_label_1
_geom_bond_atom_site_label_2
_geom_bond_site_symmetry_1
_geom_bond_site_symmetry_2
O1 H1 1_555 1_555
O2 H2 1_555 1_555
O3 H3 1_555 1_555
O4 H4 1_555 1_555
O5 C15 1_555 1_555
O6 H5 1_555 1_555
O7 H6 1_555 1_555
C1 H7 1_555 1_555
H8 C1 1_555 1_555
C2 C1 1_555 1_555
H9 C2 1_555 1_555
H10 C2 1_555 1_555
C3 O1 1_555 1_555
H11 C3 1_555 1_555
C4 O2 1_555 1_555
H12 C4 1_555 1_555
C5 C4 1_555 1_555
H13 C5 1_555 1_555
C6 O3 1_555 1_555
H14 C6 1_555 1_555
C7 O4 1_555 1_555
H15 C7 1_555 1_555
C8 C7 1_555 1_555
H16 C8 1_555 1_555
C9 C8 1_555 1_555
H17 C9 1_555 1_555
C10 C1 1_555 1_555
C11 C9 1_555 1_555
H18 C11 1_555 1_555
H19 C11 1_555 1_555
C12 C11 1_555 1_555
H20 C12 1_555 1_555
H21 C12 1_555 1_555
C13 C12 1_555 1_555
C14 C8 1_555 1_555
H22 C14 1_555 1_555
C15 C14 1_555 1_555
C16 C15 1_555 1_555
H23 C16 1_555 1_555
H24 C16 1_555 1_555
C17 C13 1_555 1_555
H25 C17 1_555 1_555
C18 C13 1_555 1_555
H26 C18 1_555 1_555
H27 C18 1_555 1_555
H28 C18 1_555 1_555
C19 C10 1_555 1_555
H29 C19 1_555 1_555
H30 C19 1_555 1_555
H31 C19 1_555 1_555
C20 C17 1_555 1_555
H32 C20 1_555 1_555
C21 C20 1_555 1_555
H33 C21 1_555 1_555
H34 C21 1_555 1_555
H35 C21 1_555 1_555
C22 O6 1_555 1_555
H36 C22 1_555 1_555
C23 O7 1_555 1_555
H37 C23 1_555 1_555
C24 C23 1_555 1_555
H38 C24 1_555 1_555
C25 C24 1_555 1_555
H39 C25 1_555 1_555
C26 C25 1_555 1_555
H40 C26 1_555 1_555
H41 C26 1_555 1_555
H42 C26 1_555 1_555
C27 C25 1_555 1_555
H43 C27 1_555 1_555
H44 C27 1_555 1_555
H45 C27 1_555 1_555
C28 C24 1_555 1_555
H46 C28 1_555 1_555
H47 C28 1_555 1_555
H48 C28 1_555 1_555
C2 C3 1_555 1_555
C3 C4 1_555 1_555
C5 C6 1_555 1_555
C5 C10 1_555 1_555
C6 C7 1_555 1_555
C9 C10 1_555 1_555
C13 C14 1_555 1_555
C16 C17 1_555 1_555
C20 C22 1_555 1_555
C22 C23 1_555 1_555

#END
