
#######################################################################
#
#                 Cambridge Crystallographic Data Centre
#                                CCDC 
#
#######################################################################
#
# If this CIF has been generated from an entry in the Cambridge 
# Structural Database, then it will include bibliographic, chemical, 
# crystal, experimental, refinement or atomic coordinate data resulting 
# from the CCDC's data processing and validation procedures.
#
#######################################################################

data_MEMHAQ
_chemical_compound_source        'stem bark of Fissistigma latifolium'
_chemical_name_common            (+-)-Ecarlottone
_chemical_formula_moiety         'C26 H28 O6'
_chemical_name_systematic        
5-hydroxy-3-{hydroxy[5-(4-methylpent-3-en-1-yl)[1,2,3,6-tetrahydro[1,1'-biphenyl]]-2-yl]methylidene}-6-methoxycyclohex-5-ene-1,2,4-trione
_chemical_properties_biological  
'tested in Bcl-xL/BAK and Mcl-1/Bid displacement assays'
_symmetry_cell_setting           monoclinic
_symmetry_space_group_name_H-M   'P 21/c'
_symmetry_Int_Tables_number      14
_space_group_name_Hall           '-P 2ybc'
loop_
_symmetry_equiv_pos_site_id
_symmetry_equiv_pos_as_xyz
1 x,y,z
2 -x,1/2+y,1/2-z
3 -x,-y,-z
4 x,1/2-y,1/2+z
_cell_length_a                   24.2616(18)
_cell_length_b                   7.3548(5)
_cell_length_c                   26.7947(19)
_cell_angle_alpha                90
_cell_angle_beta                 108.147(8)
_cell_angle_gamma                90
_cell_volume                     4543.41
_exptl_crystal_colour            red
_exptl_crystal_description       platelet
_cell_formula_units_Z            8
_exptl_crystal_recrystallization_method 'acetonitrile / methanol'
loop_
_atom_site_label
_atom_site_type_symbol
_atom_site_fract_x
_atom_site_fract_y
_atom_site_fract_z
C1 C 0.66019(12) -0.0274(4) 0.42928(10)
H1 H 0.6337 -0.1221 0.4359
O1 O 0.66975(9) 0.2903(2) 0.43382(8)
H2 H 0.6624 0.3858 0.4478
C2 C 0.65030(12) -0.0150(4) 0.36975(10)
H3 H 0.6828 0.0588 0.3646
O2 O 0.63091(8) 0.4917(2) 0.48800(8)
O3 O 0.57324(14) 0.5675(3) 0.55381(11)
H4 H 0.5856 0.6347 0.5343
C3 C 0.65588(12) -0.2088(4) 0.35018(11)
H5 H 0.6218 -0.2811 0.3512
H6 H 0.6556 -0.2028 0.3132
C4 C 0.71029(12) -0.3038(4) 0.38233(11)
O4 O 0.52415(15) 0.2734(3) 0.59644(12)
C5 C 0.74063(13) -0.2427(4) 0.42900(12)
H7 H 0.7760 -0.3028 0.4466
O5 O 0.53674(11) -0.0542(3) 0.56293(10)
C6 C 0.72331(13) -0.0852(4) 0.45635(11)
H8 H 0.7493 0.0189 0.4568
H9 H 0.7280 -0.1192 0.4932
O6 O 0.60689(10) -0.1354(3) 0.50730(8)
C7 C 0.64906(11) 0.1494(4) 0.45225(10)
C8 C 0.62042(11) 0.1737(3) 0.48931(10)
C9 C 0.59771(12) 0.0251(4) 0.51259(11)
C10 C 0.56046(14) 0.0706(4) 0.54795(12)
C11 C 0.55465(15) 0.2584(4) 0.56263(14)
C12 C 0.57852(14) 0.3935(4) 0.54174(12)
C13 C 0.61111(11) 0.3557(4) 0.50503(11)
C14 C 0.50617(17) 0.4307(5) 0.61241(16)
H10 H 0.5400 0.5032 0.6317
H11 H 0.4827 0.4037 0.6354
H12 H 0.4828 0.4991 0.5817
C15 C 0.59453(13) 0.0747(4) 0.33887(11)
C16 C 0.59306(16) 0.1753(4) 0.29403(13)
H13 H 0.6270 0.1834 0.2836
C17 C 0.5440(2) 0.2611(5) 0.26522(15)
H14 H 0.5439 0.3262 0.2346
C18 C 0.4947(2) 0.2553(5) 0.27970(16)
H15 H 0.4606 0.3176 0.2598
C19 C 0.49533(15) 0.1583(5) 0.32333(16)
H16 H 0.4613 0.1536 0.3337
C20 C 0.54413(13) 0.0678(4) 0.35238(12)
H17 H 0.5433 -0.0007 0.3822
C21 C 0.72690(13) -0.4697(4) 0.35687(11)
H18 H 0.7290 -0.4338 0.3219
H19 H 0.6953 -0.5602 0.3511
C22 C 0.78392(13) -0.5627(4) 0.38681(13)
H20 H 0.8164 -0.4799 0.3877
H21 H 0.7846 -0.5830 0.4235
C23 C 0.79368(14) -0.7395(5) 0.36400(14)
H22 H 0.7821 -0.8444 0.3789
C24 C 0.81587(15) -0.7700(6) 0.32648(16)
C25 C 0.8236(2) -0.9598(7) 0.3086(2)
H23 H 0.8054 -0.9688 0.2705
H24 H 0.8054 -1.0470 0.3262
H25 H 0.8651 -0.9872 0.3174
C26 C 0.83558(18) -0.6211(8) 0.29850(17)
H26 H 0.8145 -0.6281 0.2609
H27 H 0.8773 -0.6336 0.3040
H28 H 0.8279 -0.5034 0.3122
O7 O 0.83960(9) 0.0580(2) 0.57075(8)
H29 H 0.8493 -0.0379 0.5586
C27 C 0.84581(11) 0.3768(3) 0.57258(10)
H30 H 0.8677 0.4753 0.5612
O8 O 0.87639(8) -0.1439(2) 0.51545(7)
C28 C 0.86416(11) 0.3743(4) 0.63301(10)
H31 H 0.8381 0.2878 0.6437
O9 O 0.93799(10) -0.2166(2) 0.45088(9)
H32 H 0.9224 -0.2862 0.4674
C29 C 0.85387(11) 0.5645(4) 0.65153(10)
H33 H 0.8574 0.5583 0.6893
H34 H 0.8848 0.6463 0.6479
O10 O 0.98316(11) 0.0371(3) 0.40876(10)
C30 C 0.79628(12) 0.6467(4) 0.62254(11)
O11 O 0.95868(12) 0.4071(3) 0.43049(10)
C31 C 0.76352(12) 0.5768(4) 0.57756(11)
H35 H 0.7267 0.6309 0.5614
O12 O 0.90067(9) 0.4837(2) 0.49511(8)
C32 C 0.78056(12) 0.4177(4) 0.55040(11)
H36 H 0.7705 0.4440 0.5124
H37 H 0.7583 0.3092 0.5547
C33 C 0.85827(11) 0.1994(3) 0.55071(10)
C34 C 0.88574(11) 0.1752(3) 0.51250(10)
C35 C 0.90742(11) 0.3232(3) 0.48829(10)
C36 C 0.94137(13) 0.2789(4) 0.44964(11)
C37 C 0.95090(13) 0.0908(4) 0.43898(11)
C38 C 0.92842(12) -0.0440(4) 0.46127(11)
C39 C 0.89514(11) -0.0075(3) 0.49760(10)
C40 C 1.00383(15) 0.1545(4) 0.37694(13)
H38 H 1.0225 0.0829 0.3559
H39 H 1.0320 0.2394 0.3993
H40 H 0.9713 0.2229 0.3536
C41 C 0.92608(11) 0.3154(3) 0.65956(10)
C42 C 0.97072(11) 0.3586(4) 0.63965(10)
H41 H 0.9620 0.4202 0.6069
C43 C 1.02756(13) 0.3144(4) 0.66618(11)
H42 H 1.0573 0.3443 0.6515
C44 C 1.04130(14) 0.2267(4) 0.71396(12)
H43 H 1.0805 0.1991 0.7329
C45 C 0.99715(15) 0.1797(4) 0.73399(12)
H44 H 1.0060 0.1171 0.7666
C46 C 0.94060(13) 0.2226(4) 0.70712(10)
H45 H 0.9108 0.1882 0.7213
C47 C 0.78058(12) 0.8136(4) 0.64781(11)
H46 H 0.8125 0.9026 0.6534
H47 H 0.7784 0.7789 0.6828
C48 C 0.72390(13) 0.9084(4) 0.61776(12)
H48 H 0.7224 0.9231 0.5806
H49 H 0.6910 0.8300 0.6184
C49 C 0.71673(14) 1.0918(5) 0.63975(13)
H50 H 0.7353 1.1903 0.6285
C50 C 0.68833(14) 1.1333(6) 0.67235(14)
C51 C 0.6566(2) 0.9992(8) 0.69365(18)
H51 H 0.6686 1.0096 0.7320
H52 H 0.6652 0.8765 0.6839
H53 H 0.6148 1.0221 0.6792
C52 C 0.68596(18) 1.3261(7) 0.69074(18)
H54 H 0.7036 1.3318 0.7290
H55 H 0.6454 1.3658 0.6813
H56 H 0.7073 1.4058 0.6739
loop_
_geom_bond_atom_site_label_1
_geom_bond_atom_site_label_2
_geom_bond_site_symmetry_1
_geom_bond_site_symmetry_2
C1 H1 1_555 1_555
O1 H2 1_555 1_555
C2 C1 1_555 1_555
H3 C2 1_555 1_555
O2 C13 1_555 1_555
O3 H4 1_555 1_555
C3 C2 1_555 1_555
H5 C3 1_555 1_555
H6 C3 1_555 1_555
C4 C3 1_555 1_555
O4 C11 1_555 1_555
C5 C4 1_555 1_555
H7 C5 1_555 1_555
O5 C10 1_555 1_555
C6 C1 1_555 1_555
H8 C6 1_555 1_555
H9 C6 1_555 1_555
O6 C9 1_555 1_555
C7 C1 1_555 1_555
C8 C7 1_555 1_555
C9 C8 1_555 1_555
C10 C9 1_555 1_555
C11 C10 1_555 1_555
C12 O3 1_555 1_555
C13 C8 1_555 1_555
C14 O4 1_555 1_555
H10 C14 1_555 1_555
H11 C14 1_555 1_555
H12 C14 1_555 1_555
C15 C2 1_555 1_555
C16 C15 1_555 1_555
H13 C16 1_555 1_555
C17 C16 1_555 1_555
H14 C17 1_555 1_555
C18 C17 1_555 1_555
H15 C18 1_555 1_555
C19 C18 1_555 1_555
H16 C19 1_555 1_555
C20 C15 1_555 1_555
H17 C20 1_555 1_555
C21 C4 1_555 1_555
H18 C21 1_555 1_555
H19 C21 1_555 1_555
C22 C21 1_555 1_555
H20 C22 1_555 1_555
H21 C22 1_555 1_555
C23 C22 1_555 1_555
H22 C23 1_555 1_555
C24 C23 1_555 1_555
C25 C24 1_555 1_555
H23 C25 1_555 1_555
H24 C25 1_555 1_555
H25 C25 1_555 1_555
C26 C24 1_555 1_555
H26 C26 1_555 1_555
H27 C26 1_555 1_555
H28 C26 1_555 1_555
O7 H29 1_555 1_555
C27 H30 1_555 1_555
O8 C39 1_555 1_555
C28 C27 1_555 1_555
H31 C28 1_555 1_555
O9 H32 1_555 1_555
C29 C28 1_555 1_555
H33 C29 1_555 1_555
H34 C29 1_555 1_555
O10 C37 1_555 1_555
C30 C29 1_555 1_555
O11 C36 1_555 1_555
C31 C30 1_555 1_555
H35 C31 1_555 1_555
O12 C35 1_555 1_555
C32 C27 1_555 1_555
H36 C32 1_555 1_555
H37 C32 1_555 1_555
C33 O7 1_555 1_555
C34 C33 1_555 1_555
C35 C34 1_555 1_555
C36 C35 1_555 1_555
C37 C36 1_555 1_555
C38 O9 1_555 1_555
C39 C34 1_555 1_555
C40 O10 1_555 1_555
H38 C40 1_555 1_555
H39 C40 1_555 1_555
H40 C40 1_555 1_555
C41 C28 1_555 1_555
C42 C41 1_555 1_555
H41 C42 1_555 1_555
C43 C42 1_555 1_555
H42 C43 1_555 1_555
C44 C43 1_555 1_555
H43 C44 1_555 1_555
C45 C44 1_555 1_555
H44 C45 1_555 1_555
C46 C41 1_555 1_555
H45 C46 1_555 1_555
C47 C30 1_555 1_555
H46 C47 1_555 1_555
H47 C47 1_555 1_555
C48 C47 1_555 1_555
H48 C48 1_555 1_555
H49 C48 1_555 1_555
C49 C48 1_555 1_555
H50 C49 1_555 1_555
C50 C49 1_555 1_555
C51 C50 1_555 1_555
H51 C51 1_555 1_555
H52 C51 1_555 1_555
H53 C51 1_555 1_555
C52 C50 1_555 1_555
H54 C52 1_555 1_555
H55 C52 1_555 1_555
H56 C52 1_555 1_555
O1 C7 1_555 1_555
C5 C6 1_555 1_555
C11 C12 1_555 1_555
C12 C13 1_555 1_555
C19 C20 1_555 1_555
C27 C33 1_555 1_555
C31 C32 1_555 1_555
C37 C38 1_555 1_555
C38 C39 1_555 1_555
C45 C46 1_555 1_555

#END
