
#######################################################################
#
#                 Cambridge Crystallographic Data Centre
#                                CCDC 
#
#######################################################################
#
# If this CIF has been generated from an entry in the Cambridge 
# Structural Database, then it will include bibliographic, chemical, 
# crystal, experimental, refinement or atomic coordinate data resulting 
# from the CCDC's data processing and validation procedures.
#
#######################################################################

data_MEMTIK
_chemical_formula_moiety         'C26 H24 O5 S1'
_chemical_name_systematic        
9-methoxy-5-[(4-methylphenyl)sulfonyl]-4-phenyl-1,6-dihydro-2H-2,6-methano-3-benzoxocin-10-ol
_symmetry_cell_setting           monoclinic
_symmetry_space_group_name_H-M   'P 21/n'
_symmetry_Int_Tables_number      14
_space_group_name_Hall           '-P 2yn'
loop_
_symmetry_equiv_pos_site_id
_symmetry_equiv_pos_as_xyz
1 x,y,z
2 1/2-x,1/2+y,1/2-z
3 -x,-y,-z
4 1/2+x,1/2-y,1/2+z
_cell_length_a                   10.3973(5)
_cell_length_b                   11.4451(5)
_cell_length_c                   18.3533(9)
_cell_angle_alpha                90
_cell_angle_beta                 98.2900(10)
_cell_angle_gamma                90
_cell_volume                     2161.19
_exptl_crystal_colour            colorless
_cell_formula_units_Z            4
loop_
_atom_site_label
_atom_site_type_symbol
_atom_site_fract_x
_atom_site_fract_y
_atom_site_fract_z
S1 S 0.77056(3) 0.29355(3) 0.11254(2)
O1 O 0.11869(10) 0.42262(9) 0.12028(6)
O2 O 0.90084(9) 0.25354(10) 0.10896(6)
O3 O 0.61820(10) 0.01908(9) 0.20248(5)
O4 O 0.16285(10) 0.19874(9) 0.15837(6)
H1 H 0.0942(19) 0.2322(17) 0.1442(11)
O5 O 0.75306(10) 0.41258(9) 0.13393(6)
C1 C 0.48358(17) 0.24291(14) -0.19641(8)
H2 H 0.5376 0.1985 -0.2262
H3 H 0.4691 0.3218 -0.2168
H4 H 0.3998 0.2034 -0.1971
C2 C 0.55136(15) 0.25069(12) -0.11858(8)
C3 C 0.49774(14) 0.31465(13) -0.06583(8)
H5 H 0.4151 0.3503 -0.0788
C4 C 0.56274(14) 0.32730(13) 0.00517(8)
H6 H 0.5259 0.3719 0.0406
C5 C 0.68298(13) 0.27344(12) 0.02355(7)
C6 C 0.69402(13) 0.20524(12) 0.17187(7)
C7 C 0.62664(13) 0.26652(12) 0.22942(7)
H7 H 0.6820 0.3329 0.2511
C8 C 0.49311(13) 0.31208(12) 0.19907(7)
C9 C 0.47224(14) 0.42859(12) 0.18091(8)
H8 H 0.5435 0.4814 0.1870
C10 C 0.34901(14) 0.46946(13) 0.15395(8)
H9 H 0.3361 0.5495 0.1412
C11 C 0.24502(13) 0.39284(13) 0.14577(8)
C12 C 0.09687(15) 0.53395(14) 0.08670(9)
H10 H 0.1260 0.5951 0.1227
H11 H 0.0039 0.5438 0.0692
H12 H 0.1457 0.5399 0.0450
C13 C 0.61309(14) 0.17677(13) 0.28970(7)
H13 H 0.6999 0.1519 0.3141
H14 H 0.5650 0.2110 0.3273
C14 C 0.53939(14) 0.07345(13) 0.25274(7)
H15 H 0.5267 0.0152 0.2917
C15 C 0.68941(13) 0.08832(13) 0.16378(7)
C16 C 0.75681(14) 0.01417(12) 0.11477(7)
C17 C 0.89134(15) 0.00245(14) 0.12636(8)
H16 H 0.9416 0.0450 0.1649
C18 C 0.95206(16) -0.07060(15) 0.08222(9)
H17 H 1.0440 -0.0781 0.0904
C19 C 0.87967(17) -0.13323(15) 0.02595(9)
H18 H 0.9219 -0.1828 -0.0047
C20 C 0.74563(17) -0.12319(15) 0.01473(9)
H19 H 0.6958 -0.1660 -0.0238
C21 C 0.68383(15) -0.05101(14) 0.05931(8)
H20 H 0.5917 -0.0459 0.0521
C22 C 0.40554(14) 0.10644(13) 0.21175(8)
H21 H 0.3889 0.0591 0.1662
H22 H 0.3390 0.0850 0.2429
C23 C 0.38818(13) 0.23381(12) 0.19111(7)
C24 C 0.26442(13) 0.27555(12) 0.16502(7)
C25 C 0.73688(15) 0.20707(13) -0.02731(8)
H23 H 0.8181 0.1692 -0.0139
C26 C 0.67057(16) 0.19657(13) -0.09822(8)
H24 H 0.7074 0.1515 -0.1335
loop_
_geom_bond_atom_site_label_1
_geom_bond_atom_site_label_2
_geom_bond_site_symmetry_1
_geom_bond_site_symmetry_2
S1 O2 1_555 1_555
O1 C11 1_555 1_555
O3 C14 1_555 1_555
O4 H1 1_555 1_555
O5 S1 1_555 1_555
C1 H2 1_555 1_555
H3 C1 1_555 1_555
H4 C1 1_555 1_555
C2 C1 1_555 1_555
C3 C2 1_555 1_555
H5 C3 1_555 1_555
C4 C3 1_555 1_555
H6 C4 1_555 1_555
C5 S1 1_555 1_555
C6 S1 1_555 1_555
C7 C6 1_555 1_555
H7 C7 1_555 1_555
C8 C7 1_555 1_555
C9 C8 1_555 1_555
H8 C9 1_555 1_555
C10 C9 1_555 1_555
H9 C10 1_555 1_555
C11 C10 1_555 1_555
C12 O1 1_555 1_555
H10 C12 1_555 1_555
H11 C12 1_555 1_555
H12 C12 1_555 1_555
C13 C7 1_555 1_555
H13 C13 1_555 1_555
H14 C13 1_555 1_555
C14 C13 1_555 1_555
H15 C14 1_555 1_555
C15 O3 1_555 1_555
C16 C15 1_555 1_555
C17 C16 1_555 1_555
H16 C17 1_555 1_555
C18 C17 1_555 1_555
H17 C18 1_555 1_555
C19 C18 1_555 1_555
H18 C19 1_555 1_555
C20 C19 1_555 1_555
H19 C20 1_555 1_555
C21 C16 1_555 1_555
H20 C21 1_555 1_555
C22 C14 1_555 1_555
H21 C22 1_555 1_555
H22 C22 1_555 1_555
C23 C8 1_555 1_555
C24 O4 1_555 1_555
C25 C5 1_555 1_555
H23 C25 1_555 1_555
C26 C2 1_555 1_555
H24 C26 1_555 1_555
C4 C5 1_555 1_555
C6 C15 1_555 1_555
C11 C24 1_555 1_555
C20 C21 1_555 1_555
C22 C23 1_555 1_555
C23 C24 1_555 1_555
C25 C26 1_555 1_555

#END
