
#######################################################################
#
#                 Cambridge Crystallographic Data Centre
#                                CCDC 
#
#######################################################################
#
# If this CIF has been generated from an entry in the Cambridge 
# Structural Database, then it will include bibliographic, chemical, 
# crystal, experimental, refinement or atomic coordinate data resulting 
# from the CCDC's data processing and validation procedures.
#
#######################################################################

data_MEMTOQ
_chemical_formula_moiety         'C26 H23 F1 O5 S1,0.5(C1 H2 Cl2)'
_chemical_name_systematic        
'4-(4-fluorophenyl)-9-methoxy-5-[(4-methylphenyl)sulfonyl]-1,6-dihydro-2H-2,6-methano-3-benzoxocin-10-ol dichloromethane solvate'
_symmetry_cell_setting           monoclinic
_symmetry_space_group_name_H-M   'P 2/c'
_symmetry_Int_Tables_number      13
_space_group_name_Hall           '-P 2yc'
loop_
_symmetry_equiv_pos_site_id
_symmetry_equiv_pos_as_xyz
1 x,y,z
2 -x,y,1/2-z
3 -x,-y,-z
4 x,-y,1/2+z
_cell_length_a                   24.9437(14)
_cell_length_b                   8.7955(5)
_cell_length_c                   11.5489(6)
_cell_angle_alpha                90
_cell_angle_beta                 94.461(2)
_cell_angle_gamma                90
_cell_volume                     2526.06
_exptl_crystal_colour            colorless
_cell_formula_units_Z            4
loop_
_atom_site_label
_atom_site_type_symbol
_atom_site_fract_x
_atom_site_fract_y
_atom_site_fract_z
S1 S 0.73451(2) 0.34808(5) 0.53203(4)
O1 O 0.76863(5) 0.34030(14) 0.43735(11)
O2 O 0.68212(5) 0.27630(13) 0.51563(11)
O3 O 0.56940(5) 0.91603(14) 0.21134(10)
O4 O 0.62131(5) 1.05941(13) 0.38048(11)
H1 H 0.6419 1.0959 0.4344
O5 O 0.75318(5) 0.77419(13) 0.64519(10)
F1 F 0.98577(5) 0.5971(2) 0.60144(13)
C1 C 0.76899(7) 0.26055(18) 0.65355(15)
C2 C 0.74017(7) 0.2152(2) 0.74634(16)
H2 H 0.7028 0.2359 0.7462
C3 C 0.76697(8) 0.1396(2) 0.83860(16)
H3 H 0.7476 0.1087 0.9023
C4 C 0.82148(8) 0.1080(2) 0.84007(16)
C5 C 0.84981(8) 0.1585(2) 0.74811(17)
H4 H 0.8874 0.1401 0.7493
C6 C 0.82391(7) 0.2354(2) 0.65476(16)
H5 H 0.8435 0.2702 0.5926
C7 C 0.84926(10) 0.0209(3) 0.9398(2)
H6 H 0.8348 0.0525 1.0125
H7 H 0.8879 0.0419 0.9438
H8 H 0.8431 -0.0882 0.9279
C8 C 0.72229(7) 0.53569(19) 0.57340(14)
C9 C 0.66467(7) 0.57914(19) 0.59296(14)
H9 H 0.6433 0.4850 0.6051
C10 C 0.63889(6) 0.66671(19) 0.48982(14)
C11 C 0.61095(6) 0.59069(19) 0.39906(14)
H10 H 0.6079 0.4831 0.4019
C12 C 0.58719(7) 0.6692(2) 0.30374(15)
H11 H 0.5682 0.6156 0.2420
C13 C 0.59151(6) 0.82630(19) 0.29972(14)
C14 C 0.61963(6) 0.90431(19) 0.39135(14)
C15 C 0.64352(6) 0.82592(19) 0.48661(14)
C16 C 0.67153(7) 0.91406(19) 0.58657(14)
H12 H 0.6446 0.9780 0.6222
H13 H 0.6983 0.9829 0.5554
C17 C 0.69977(7) 0.81514(19) 0.68040(15)
H14 H 0.7045 0.8757 0.7538
C18 C 0.76259(7) 0.63493(18) 0.60195(14)
C19 C 0.66730(7) 0.67548(19) 0.70314(15)
H15 H 0.6306 0.7045 0.7220
H16 H 0.6846 0.6175 0.7694
C20 C 0.82147(7) 0.61552(19) 0.59847(16)
C21 C 0.85347(7) 0.6444(2) 0.70075(17)
H17 H 0.8370 0.6694 0.7697
C22 C 0.90895(8) 0.6368(3) 0.70259(19)
H18 H 0.9309 0.6550 0.7721
C23 C 0.93120(8) 0.6020(3) 0.6008(2)
C24 C 0.90139(8) 0.5753(2) 0.49791(18)
H19 H 0.9183 0.5525 0.4291
C25 C 0.84569(7) 0.5826(2) 0.49710(16)
H20 H 0.8241 0.5651 0.4269
C26 C 0.54591(7) 0.8395(2) 0.11036(16)
H21 H 0.5725 0.7710 0.0801
H22 H 0.5344 0.9145 0.0508
H23 H 0.5147 0.7804 0.1310
C27 C 0.5000 0.2218(3) 0.2500
H24 H 0.4689 0.1556 0.2266
Cl1 Cl 0.48460(2) 0.33471(6) 0.36963(4)
H24A H 0.5311 0.1556 0.2734
Cl1A Cl 0.51540(2) 0.33471(6) 0.13037(4)
H25? H 0.4689 0.1556 0.2266
loop_
_geom_bond_atom_site_label_1
_geom_bond_atom_site_label_2
_geom_bond_site_symmetry_1
_geom_bond_site_symmetry_2
S1 O1 1_555 1_555
O2 S1 1_555 1_555
O3 C13 1_555 1_555
O4 H1 1_555 1_555
O5 C17 1_555 1_555
F1 C23 1_555 1_555
C1 S1 1_555 1_555
C2 C1 1_555 1_555
H2 C2 1_555 1_555
C3 C2 1_555 1_555
H3 C3 1_555 1_555
C4 C3 1_555 1_555
C5 C4 1_555 1_555
H4 C5 1_555 1_555
C6 C1 1_555 1_555
H5 C6 1_555 1_555
C7 C4 1_555 1_555
H6 C7 1_555 1_555
H7 C7 1_555 1_555
H8 C7 1_555 1_555
C8 S1 1_555 1_555
C9 C8 1_555 1_555
H9 C9 1_555 1_555
C10 C9 1_555 1_555
C11 C10 1_555 1_555
H10 C11 1_555 1_555
C12 C11 1_555 1_555
H11 C12 1_555 1_555
C13 C12 1_555 1_555
C14 O4 1_555 1_555
C15 C10 1_555 1_555
C16 C15 1_555 1_555
H12 C16 1_555 1_555
H13 C16 1_555 1_555
C17 C16 1_555 1_555
H14 C17 1_555 1_555
C18 O5 1_555 1_555
C19 C9 1_555 1_555
H15 C19 1_555 1_555
H16 C19 1_555 1_555
C20 C18 1_555 1_555
C21 C20 1_555 1_555
H17 C21 1_555 1_555
C22 C21 1_555 1_555
H18 C22 1_555 1_555
C23 C22 1_555 1_555
C24 C23 1_555 1_555
H19 C24 1_555 1_555
C25 C20 1_555 1_555
H20 C25 1_555 1_555
C26 O3 1_555 1_555
H21 C26 1_555 1_555
H22 C26 1_555 1_555
H23 C26 1_555 1_555
C27 H24 1_555 1_555
Cl1 C27 1_555 1_555
H24A C27 1_555 1_555
Cl1A C27 1_555 1_555
C5 C6 1_555 1_555
C8 C18 1_555 1_555
C13 C14 1_555 1_555
C14 C15 1_555 1_555
C17 C19 1_555 1_555
C24 C25 1_555 1_555

#END
