
#######################################################################
#
#                 Cambridge Crystallographic Data Centre
#                                CCDC 
#
#######################################################################
#
# If this CIF has been generated from an entry in the Cambridge 
# Structural Database, then it will include bibliographic, chemical, 
# crystal, experimental, refinement or atomic coordinate data resulting 
# from the CCDC's data processing and validation procedures.
#
#######################################################################

data_MEMTEG
_chemical_formula_moiety         'C20 H20 O5 S1'
_chemical_name_systematic        
3-[3-hydroxy-4-methoxy-2-(prop-2-en-1-yl)phenyl]-2-(methylsulfonyl)-1-phenylprop-2-en-1-one
_symmetry_cell_setting           monoclinic
_symmetry_space_group_name_H-M   'C 2/c'
_symmetry_Int_Tables_number      15
_space_group_name_Hall           '-C 2yn'
loop_
_symmetry_equiv_pos_site_id
_symmetry_equiv_pos_as_xyz
1 x,y,z
2 -x,y,1/2-z
3 1/2+x,1/2+y,z
4 1/2-x,1/2+y,1/2-z
5 -x,-y,-z
6 x,-y,1/2+z
7 1/2-x,1/2-y,-z
8 1/2+x,1/2-y,1/2+z
_cell_length_a                   10.3098(6)
_cell_length_b                   19.1132(9)
_cell_length_c                   19.3897(10)
_cell_angle_alpha                90
_cell_angle_beta                 99.389(2)
_cell_angle_gamma                90
_cell_volume                     3769.62
_exptl_crystal_colour            colorless
_exptl_crystal_description       tabular
_cell_formula_units_Z            8
loop_
_atom_site_label
_atom_site_type_symbol
_atom_site_fract_x
_atom_site_fract_y
_atom_site_fract_z
S1 S -0.03335(4) 0.13481(2) 0.58872(2)
O1 O 0.30373(12) 0.45660(6) 0.83552(6)
O2 O 0.15288(12) 0.49747(6) 0.71761(6)
H1 H 0.193(2) 0.5207(11) 0.7502(11)
O3 O -0.14535(11) 0.17623(6) 0.55894(6)
O4 O 0.03722(11) 0.09746(6) 0.54185(6)
O5 O 0.21395(11) 0.10687(6) 0.70768(6)
C1 C 0.54872(17) 0.20714(10) 0.57474(9)
H2 H 0.6237 0.2180 0.5541
C2 C 0.43669(16) 0.24830(9) 0.56045(9)
H3 H 0.4356 0.2879 0.5308
C3 C 0.32631(16) 0.23161(8) 0.58946(8)
H4 H 0.2491 0.2593 0.5788
C4 C 0.32829(15) 0.17432(8) 0.63417(8)
C5 C 0.21178(15) 0.15436(8) 0.66500(8)
C6 C 0.08200(15) 0.19014(8) 0.64011(8)
C7 C 0.04557(15) 0.25582(8) 0.65150(8)
H5 H -0.0381 0.2701 0.6277
C8 C 0.12115(15) 0.30802(8) 0.69683(8)
C9 C 0.10297(15) 0.38039(8) 0.68321(8)
C10 C 0.16920(15) 0.42766(8) 0.73088(8)
C11 C 0.25012(16) 0.40441(8) 0.79177(8)
C12 C 0.37331(19) 0.43533(10) 0.90261(9)
H6 H 0.3159 0.4060 0.9262
H7 H 0.3997 0.4768 0.9311
H8 H 0.4517 0.4086 0.8963
C13 C 0.01909(16) 0.40863(8) 0.61805(8)
H9 H -0.0528 0.3750 0.6025
H10 H -0.0215 0.4531 0.6297
C14 C 0.09344(19) 0.42152(9) 0.55844(9)
H11 H 0.0432 0.4362 0.5154
C15 C 0.2207(2) 0.41456(10) 0.56005(10)
H12 H 0.2753 0.4001 0.6019
H13 H 0.2581 0.4240 0.5194
C16 C -0.08308(17) 0.07393(9) 0.64747(9)
H14 H -0.1240 0.0987 0.6826
H15 H -0.0063 0.0479 0.6707
H16 H -0.1467 0.0413 0.6218
C17 C 0.55130(17) 0.14996(10) 0.61926(9)
H17 H 0.6283 0.1220 0.6292
C18 C 0.44225(16) 0.13355(9) 0.64920(9)
H18 H 0.4446 0.0947 0.6799
C19 C 0.20470(16) 0.28600(8) 0.75675(8)
H19 H 0.2176 0.2373 0.7652
C20 C 0.26925(16) 0.33346(8) 0.80427(8)
H20 H 0.3259 0.3176 0.8449
loop_
_geom_bond_atom_site_label_1
_geom_bond_atom_site_label_2
_geom_bond_site_symmetry_1
_geom_bond_site_symmetry_2
S1 O3 1_555 1_555
O1 C11 1_555 1_555
O2 H1 1_555 1_555
O4 S1 1_555 1_555
O5 C5 1_555 1_555
C1 H2 1_555 1_555
C2 C1 1_555 1_555
H3 C2 1_555 1_555
C3 C2 1_555 1_555
H4 C3 1_555 1_555
C4 C3 1_555 1_555
C5 C4 1_555 1_555
C6 S1 1_555 1_555
C7 C6 1_555 1_555
H5 C7 1_555 1_555
C8 C7 1_555 1_555
C9 C8 1_555 1_555
C10 O2 1_555 1_555
C11 C10 1_555 1_555
C12 O1 1_555 1_555
H6 C12 1_555 1_555
H7 C12 1_555 1_555
H8 C12 1_555 1_555
C13 C9 1_555 1_555
H9 C13 1_555 1_555
H10 C13 1_555 1_555
C14 C13 1_555 1_555
H11 C14 1_555 1_555
C15 C14 1_555 1_555
H12 C15 1_555 1_555
H13 C15 1_555 1_555
C16 S1 1_555 1_555
H14 C16 1_555 1_555
H15 C16 1_555 1_555
H16 C16 1_555 1_555
C17 C1 1_555 1_555
H17 C17 1_555 1_555
C18 C4 1_555 1_555
H18 C18 1_555 1_555
C19 C8 1_555 1_555
H19 C19 1_555 1_555
C20 C11 1_555 1_555
H20 C20 1_555 1_555
C5 C6 1_555 1_555
C9 C10 1_555 1_555
C17 C18 1_555 1_555
C19 C20 1_555 1_555

#END
