
#######################################################################
#
#                 Cambridge Crystallographic Data Centre
#                                CCDC 
#
#######################################################################
#
# If this CIF has been generated from an entry in the Cambridge 
# Structural Database, then it will include bibliographic, chemical, 
# crystal, experimental, refinement or atomic coordinate data resulting 
# from the CCDC's data processing and validation procedures.
#
#######################################################################

data_MEMVEI
_chemical_formula_moiety         'C28 H28 O5 S1,C1 H2 Cl2'
_chemical_name_systematic        
'6,7-dimethoxy-1-methyl-4-[(4-methylphenyl)sulfonyl]-3-phenyl-1,4a,9,9a-tetrahydroindeno[2,1-c]pyran dichloromethane solvate'
_symmetry_cell_setting           monoclinic
_symmetry_space_group_name_H-M   'P 21/n'
_symmetry_Int_Tables_number      14
_space_group_name_Hall           '-P 2yn'
loop_
_symmetry_equiv_pos_site_id
_symmetry_equiv_pos_as_xyz
1 x,y,z
2 1/2-x,1/2+y,1/2-z
3 -x,-y,-z
4 1/2+x,1/2-y,1/2+z
_cell_length_a                   9.2620(5)
_cell_length_b                   29.1519(15)
_cell_length_c                   10.0839(5)
_cell_angle_alpha                90
_cell_angle_beta                 92.5820(10)
_cell_angle_gamma                90
_cell_volume                     2719.94
_exptl_crystal_colour            colorless
_cell_formula_units_Z            4
loop_
_atom_site_label
_atom_site_type_symbol
_atom_site_fract_x
_atom_site_fract_y
_atom_site_fract_z
Cl1 Cl -0.21413(6) 0.16534(2) -0.53860(7)
Cl2 Cl -0.33675(7) 0.09073(2) -0.38559(6)
C1 C -0.3610(2) 0.12842(7) -0.5210(2)
H1 H -0.3760 0.1102 -0.6034
H2 H -0.4491 0.1469 -0.5094
S1 S 0.23046(4) 0.12558(2) 0.36950(4)
O1 O -0.15454(13) 0.34465(4) 0.39917(11)
O2 O 0.17009(13) 0.10024(4) 0.47635(11)
O3 O 0.30647(13) 0.16782(4) 0.40242(11)
O4 O -0.03396(14) 0.28918(4) 0.56777(11)
O5 O -0.08388(13) 0.11470(4) 0.08918(11)
C2 C 0.6672(2) 0.00828(7) 0.0960(2)
H3 H 0.6374 0.0064 0.0017
H4 H 0.6712 -0.0226 0.1341
H5 H 0.7629 0.0225 0.1056
C3 C 0.55948(18) 0.03681(6) 0.16765(17)
C4 C 0.52203(19) 0.08018(6) 0.11947(18)
H6 H 0.5670 0.0917 0.0435
C5 C 0.42080(19) 0.10674(6) 0.18014(17)
H7 H 0.3964 0.1363 0.1464
C6 C 0.35479(17) 0.08970(5) 0.29135(16)
C7 C 0.09886(17) 0.14008(5) 0.24481(15)
C8 C 0.10794(17) 0.18767(5) 0.18570(15)
H8 H 0.2121 0.1949 0.1740
C9 C 0.04114(17) 0.22752(5) 0.25900(16)
C10 C 0.04165(17) 0.23666(5) 0.39486(15)
H9 H 0.0870 0.2161 0.4570
C11 C -0.02523(18) 0.27622(5) 0.43766(15)
C12 C -0.09152(17) 0.30688(5) 0.34490(16)
C13 C -0.2267(2) 0.37568(6) 0.30886(18)
H10 H -0.1566 0.3889 0.2497
H11 H -0.2717 0.4003 0.3588
H12 H -0.3013 0.3591 0.2561
C14 C 0.02781(18) 0.18979(5) 0.04774(16)
H13 H 0.0918 0.1787 -0.0228
C15 C -0.00692(19) 0.24116(5) 0.02825(16)
H14 H 0.0727 0.2573 -0.0145
H15 H -0.0976 0.2455 -0.0261
C16 C -0.02285(18) 0.25772(5) 0.16849(16)
C17 C 0.0293(2) 0.25946(6) 0.66646(17)
H16 H -0.0183 0.2295 0.6610
H17 H 0.0172 0.2727 0.7546
H18 H 0.1325 0.2558 0.6517
C18 C -0.09037(18) 0.29776(5) 0.21045(16)
H19 H -0.1346 0.3183 0.1477
C19 C -0.11146(18) 0.16186(5) 0.04670(16)
H20 H -0.1793 0.1764 0.1086
C20 C 0.01215(17) 0.10722(5) 0.19196(15)
C21 C 0.00812(17) 0.05778(5) 0.22996(16)
C22 C -0.07222(19) 0.04333(6) 0.33524(17)
H21 H -0.1193 0.0652 0.3882
C23 C -0.0836(2) -0.00321(6) 0.36297(18)
H22 H -0.1404 -0.0131 0.4336
C24 C -0.0124(2) -0.03516(6) 0.28823(19)
H23 H -0.0184 -0.0669 0.3091
C25 C 0.06751(19) -0.02092(6) 0.18302(19)
H24 H 0.1157 -0.0429 0.1312
C26 C 0.07734(18) 0.02558(6) 0.15316(17)
H25 H 0.1313 0.0353 0.0804
C27 C -0.1867(2) 0.15760(6) -0.08921(18)
H26 H -0.1202 0.1440 -0.1512
H27 H -0.2165 0.1881 -0.1210
H28 H -0.2720 0.1379 -0.0834
C28 C 0.39024(19) 0.04680(6) 0.34165(17)
H29 H 0.3447 0.0353 0.4174
C29 C 0.49347(19) 0.02079(6) 0.27980(18)
H30 H 0.5194 -0.0085 0.3148
loop_
_geom_bond_atom_site_label_1
_geom_bond_atom_site_label_2
_geom_bond_site_symmetry_1
_geom_bond_site_symmetry_2
Cl1 C1 1_555 1_555
Cl2 C1 1_555 1_555
C1 H1 1_555 1_555
H2 C1 1_555 1_555
S1 O2 1_555 1_555
O1 C12 1_555 1_555
O3 S1 1_555 1_555
O4 C11 1_555 1_555
O5 C19 1_555 1_555
C2 H3 1_555 1_555
H4 C2 1_555 1_555
H5 C2 1_555 1_555
C3 C2 1_555 1_555
C4 C3 1_555 1_555
H6 C4 1_555 1_555
C5 C4 1_555 1_555
H7 C5 1_555 1_555
C6 S1 1_555 1_555
C7 S1 1_555 1_555
C8 C7 1_555 1_555
H8 C8 1_555 1_555
C9 C8 1_555 1_555
C10 C9 1_555 1_555
H9 C10 1_555 1_555
C11 C10 1_555 1_555
C12 C11 1_555 1_555
C13 O1 1_555 1_555
H10 C13 1_555 1_555
H11 C13 1_555 1_555
H12 C13 1_555 1_555
C14 C8 1_555 1_555
H13 C14 1_555 1_555
C15 C14 1_555 1_555
H14 C15 1_555 1_555
H15 C15 1_555 1_555
C16 C9 1_555 1_555
C17 O4 1_555 1_555
H16 C17 1_555 1_555
H17 C17 1_555 1_555
H18 C17 1_555 1_555
C18 C12 1_555 1_555
H19 C18 1_555 1_555
C19 C14 1_555 1_555
H20 C19 1_555 1_555
C20 O5 1_555 1_555
C21 C20 1_555 1_555
C22 C21 1_555 1_555
H21 C22 1_555 1_555
C23 C22 1_555 1_555
H22 C23 1_555 1_555
C24 C23 1_555 1_555
H23 C24 1_555 1_555
C25 C24 1_555 1_555
H24 C25 1_555 1_555
C26 C21 1_555 1_555
H25 C26 1_555 1_555
C27 C19 1_555 1_555
H26 C27 1_555 1_555
H27 C27 1_555 1_555
H28 C27 1_555 1_555
C28 C6 1_555 1_555
H29 C28 1_555 1_555
C29 C3 1_555 1_555
H30 C29 1_555 1_555
C5 C6 1_555 1_555
C7 C20 1_555 1_555
C15 C16 1_555 1_555
C16 C18 1_555 1_555
C25 C26 1_555 1_555
C28 C29 1_555 1_555

#END
