
#######################################################################
#
#                 Cambridge Crystallographic Data Centre
#                                CCDC 
#
#######################################################################
#
# If this CIF has been generated from an entry in the Cambridge 
# Structural Database, then it will include bibliographic, chemical, 
# crystal, experimental, refinement or atomic coordinate data resulting 
# from the CCDC's data processing and validation procedures.
#
#######################################################################

data_MEMWUX
_chemical_formula_moiety         'C18 H14 O6'
_chemical_name_systematic        
1,8-Dihydroxy-3-methyl-6-(oxiran-2-ylmethoxy)anthracene-9,10-dione
_chemical_properties_biological  'potential gelatinase inhibitory activity'
_symmetry_cell_setting           monoclinic
_symmetry_space_group_name_H-M   'P 21/c'
_symmetry_Int_Tables_number      14
_space_group_name_Hall           '-P 2ybc'
loop_
_symmetry_equiv_pos_site_id
_symmetry_equiv_pos_as_xyz
1 x,y,z
2 -x,1/2+y,1/2-z
3 -x,-y,-z
4 x,1/2-y,1/2+z
_cell_length_a                   14.6082(5)
_cell_length_b                   13.5438(6)
_cell_length_c                   7.6388(3)
_cell_angle_alpha                90
_cell_angle_beta                 99.838(2)
_cell_angle_gamma                90
_cell_volume                     1489.12
_exptl_crystal_colour            yellow
_exptl_crystal_description       plate
_chemical_melting_point          '473-474 K'
_cell_formula_units_Z            4
_exptl_crystal_recrystallization_method methanol
loop_
_atom_site_label
_atom_site_type_symbol
_atom_site_fract_x
_atom_site_fract_y
_atom_site_fract_z
C1 C 0.46463(19) 0.3877(2) 1.3686(4)
H1 H 0.5218 0.3585 1.4261
H2 H 0.4385 0.4265 1.4529
H3 H 0.4765 0.4293 1.2731
O1 O 0.38227(12) 0.04110(14) 1.2995(3)
H4 H 0.3418 0.0034 1.2508
C2 C 0.39748(17) 0.3076(2) 1.2958(3)
O2 O 0.23293(11) -0.00780(12) 1.0879(2)
C3 C 0.41763(16) 0.2095(2) 1.3302(3)
H5 H 0.4731 0.1925 1.4030
O3 O 0.14431(11) 0.37623(12) 0.9731(2)
C4 C 0.35678(16) 0.13534(19) 1.2584(3)
O4 O 0.08817(12) -0.05952(11) 0.8667(2)
H6 H 0.1354 -0.0677 0.9403
C5 C 0.27311(14) 0.15919(17) 1.1467(3)
O5 O -0.11594(11) 0.19488(12) 0.6149(2)
C6 C 0.25189(15) 0.25950(17) 1.1162(3)
O6 O -0.32713(16) 0.2086(2) 0.4851(4)
C7 C 0.31302(16) 0.33179(18) 1.1897(3)
H7 H 0.2977 0.3978 1.1682
C8 C 0.16372(15) 0.28949(17) 0.9998(3)
C9 C 0.10153(14) 0.20974(15) 0.9153(3)
C10 C 0.12678(14) 0.10929(15) 0.9432(3)
C11 C 0.21144(15) 0.08193(18) 1.0607(3)
C12 C 0.06866(16) 0.03780(16) 0.8511(3)
C13 C -0.01326(16) 0.06352(17) 0.7398(3)
H8 H -0.0515 0.0150 0.6803
C14 C -0.03722(15) 0.16138(18) 0.7184(3)
C15 C 0.02051(15) 0.23510(17) 0.8053(3)
H9 H 0.0040 0.3012 0.7885
C16 C -0.17566(17) 0.12453(19) 0.5133(3)
H10 H -0.2007 0.0793 0.5915
H11 H -0.1415 0.0867 0.4380
C17 C -0.2513(2) 0.1803(2) 0.4042(4)
H12 H -0.2316 0.2293 0.3239
C18 C -0.3393(2) 0.1388(3) 0.3467(5)
H13 H -0.3486 0.0704 0.3772
H14 H -0.3731 0.1594 0.2320
loop_
_geom_bond_atom_site_label_1
_geom_bond_atom_site_label_2
_geom_bond_site_symmetry_1
_geom_bond_site_symmetry_2
C1 H1 1_555 1_555
H2 C1 1_555 1_555
H3 C1 1_555 1_555
O1 H4 1_555 1_555
C2 C1 1_555 1_555
O2 C11 1_555 1_555
C3 C2 1_555 1_555
H5 C3 1_555 1_555
O3 C8 1_555 1_555
C4 O1 1_555 1_555
O4 H6 1_555 1_555
C5 C4 1_555 1_555
O5 C14 1_555 1_555
C6 C5 1_555 1_555
O6 C17 1_555 1_555
C7 C2 1_555 1_555
H7 C7 1_555 1_555
C8 C6 1_555 1_555
C9 C8 1_555 1_555
C10 C9 1_555 1_555
C11 C5 1_555 1_555
C12 O4 1_555 1_555
C13 C12 1_555 1_555
H8 C13 1_555 1_555
C14 C13 1_555 1_555
C15 C9 1_555 1_555
H9 C15 1_555 1_555
C16 O5 1_555 1_555
H10 C16 1_555 1_555
H11 C16 1_555 1_555
C17 C16 1_555 1_555
H12 C17 1_555 1_555
C18 O6 1_555 1_555
H13 C18 1_555 1_555
H14 C18 1_555 1_555
C3 C4 1_555 1_555
C6 C7 1_555 1_555
C10 C11 1_555 1_555
C10 C12 1_555 1_555
C14 C15 1_555 1_555
C17 C18 1_555 1_555

#END
