
#######################################################################
#
#                 Cambridge Crystallographic Data Centre
#                                CCDC 
#
#######################################################################
#
# If this CIF has been generated from an entry in the Cambridge 
# Structural Database, then it will include bibliographic, chemical, 
# crystal, experimental, refinement or atomic coordinate data resulting 
# from the CCDC's data processing and validation procedures.
#
#######################################################################

data_MEMWUZ
_chemical_formula_moiety         'C27 H31 N3 O8,C4 H8 O2'
_chemical_name_systematic        
'dimethyl 6-{[1-(t-butoxycarbonyl)-1H-indol-3-yl]methyl}-5,9-dioxohexahydro-1H-6,8a-(epiminomethano)indolizine-7,8-dicarboxylate ethyl acetate solvate'
_symmetry_cell_setting           monoclinic
_symmetry_space_group_name_H-M   'P 21/n'
_symmetry_Int_Tables_number      14
_space_group_name_Hall           '-P 2yn'
loop_
_symmetry_equiv_pos_site_id
_symmetry_equiv_pos_as_xyz
1 x,y,z
2 1/2-x,1/2+y,1/2-z
3 -x,-y,-z
4 1/2+x,1/2-y,1/2+z
_cell_length_a                   11.4375(3)
_cell_length_b                   13.0457(3)
_cell_length_c                   21.1640(5)
_cell_angle_alpha                90
_cell_angle_beta                 102.6800(10)
_cell_angle_gamma                90
_cell_volume                     3080.87
_exptl_crystal_colour            colorless
_exptl_crystal_description       block
_cell_formula_units_Z            4
loop_
_atom_site_label
_atom_site_type_symbol
_atom_site_fract_x
_atom_site_fract_y
_atom_site_fract_z
O1 O 0.01256(13) 0.21886(11) 0.56829(7)
O2 O 0.13924(17) 0.08352(13) 0.57934(8)
O3 O 0.38018(15) 0.43679(11) 0.35723(8)
O4 O 0.34905(16) 0.31692(13) 0.27963(7)
O5 O 0.42758(14) 0.07260(12) 0.27623(7)
O6 O 0.63880(13) 0.06773(11) 0.50758(7)
O7 O 0.58221(19) 0.33245(15) 0.51881(8)
O8 O 0.67943(15) 0.42735(12) 0.45931(8)
N1 N 0.11675(16) 0.18916(13) 0.49220(8)
N2 N 0.46035(15) 0.10423(13) 0.43885(8)
H1 H 0.4164 0.0697 0.4608
N3 N 0.59111(15) 0.13080(13) 0.34911(8)
C1 C 0.0803(2) 0.2092(2) 0.68665(12)
H2 H 0.0528 0.2081 0.7274
H3 H 0.1231 0.2735 0.6835
H4 H 0.1342 0.1512 0.6856
C2 C -0.1119(3) 0.2890(2) 0.63081(13)
H5 H -0.1416 0.2871 0.6709
H6 H -0.1795 0.2826 0.5935
H7 H -0.0705 0.3541 0.6282
C3 C -0.0259(2) 0.20144(17) 0.63058(10)
C4 C -0.0900(2) 0.10000(19) 0.62803(12)
H8 H -0.1236 0.0926 0.6665
H9 H -0.0332 0.0442 0.6268
H10 H -0.1547 0.0973 0.5891
C5 C 0.0917(2) 0.15763(17) 0.55080(10)
C6 C 0.19095(19) 0.13051(17) 0.46203(10)
H11 H 0.2303 0.0693 0.4794
C7 C 0.19923(18) 0.17245(16) 0.40506(10)
C8 C 0.12482(18) 0.26365(16) 0.39677(10)
C9 C 0.07533(18) 0.27342(16) 0.45192(10)
C10 C 0.00089(19) 0.35499(17) 0.45914(11)
H12 H -0.0301 0.3622 0.4970
C11 C -0.0262(2) 0.42492(17) 0.40919(11)
H13 H -0.0770 0.4812 0.4129
C12 C 0.0188(2) 0.41536(18) 0.35323(12)
H14 H -0.0027 0.4642 0.3194
C13 C 0.0945(2) 0.33536(18) 0.34679(11)
H15 H 0.1256 0.3292 0.3089
C14 C 0.27111(18) 0.13173(16) 0.35858(10)
H16 H 0.2383 0.1610 0.3151
H17 H 0.2607 0.0564 0.3553
C15 C 0.40545(18) 0.15575(16) 0.37765(10)
C16 C 0.43507(18) 0.27080(15) 0.39059(10)
H18 H 0.4032 0.2919 0.4290
C17 C 0.47309(19) 0.11489(15) 0.32690(10)
C18 C 0.57351(19) 0.28555(15) 0.40813(10)
H19 H 0.5973 0.3228 0.3716
C19 C 0.57900(18) 0.11160(15) 0.45990(10)
C20 C 0.63235(19) 0.17777(16) 0.41364(10)
C21 C 0.76867(19) 0.17484(17) 0.42469(11)
H20 H 0.8018 0.1157 0.4522
H21 H 0.8045 0.2387 0.4458
C22 C 0.7932(2) 0.1642(2) 0.35672(12)
H22 H 0.7927 0.2320 0.3356
H23 H 0.8715 0.1308 0.3583
C23 C 0.6905(2) 0.09753(18) 0.32085(11)
H24 H 0.6736 0.1106 0.2736
H25 H 0.7081 0.0238 0.3290
C24 C 0.61138(19) 0.34955(16) 0.46871(10)
C25 C 0.7144(3) 0.4984(2) 0.51292(13)
H26 H 0.7608 0.5547 0.5000
H27 H 0.7634 0.4625 0.5501
H28 H 0.6425 0.5261 0.5248
C26 C 0.38198(18) 0.34145(16) 0.33543(10)
C27 C 0.3279(3) 0.5145(2) 0.31053(14)
H29 H 0.3389 0.5822 0.3311
H30 H 0.2422 0.5009 0.2950
H31 H 0.3675 0.5131 0.2739
O9 O 0.7514(3) 0.6416(3) 0.39062(16)
O10 O 0.5715(2) 0.6855(2) 0.33619(13)
C28 C 0.6501(3) 0.5342(3) 0.30556(19)
H32 H 0.6143 0.5555 0.2611
H33 H 0.5973 0.4845 0.3201
H34 H 0.7283 0.5025 0.3069
C29 C 0.6654(3) 0.6235(3) 0.34811(18)
C30 C 0.5759(4) 0.7741(3) 0.3792(2)
H35 H 0.6442 0.8192 0.3764
H36 H 0.5849 0.7515 0.4247
C31 C 0.4581(5) 0.8305(3) 0.3564(2)
H37 H 0.4515 0.8852 0.3872
H38 H 0.3914 0.7824 0.3536
H39 H 0.4554 0.8605 0.3136
loop_
_geom_bond_atom_site_label_1
_geom_bond_atom_site_label_2
_geom_bond_site_symmetry_1
_geom_bond_site_symmetry_2
O1 C3 1_555 1_555
O2 C5 1_555 1_555
O3 C26 1_555 1_555
O4 C26 1_555 1_555
O5 C17 1_555 1_555
O6 C19 1_555 1_555
O7 C24 1_555 1_555
O8 C24 1_555 1_555
N1 C5 1_555 1_555
N2 H1 1_555 1_555
N3 C17 1_555 1_555
C1 H2 1_555 1_555
H3 C1 1_555 1_555
H4 C1 1_555 1_555
C2 H5 1_555 1_555
H6 C2 1_555 1_555
H7 C2 1_555 1_555
C3 C1 1_555 1_555
C4 C3 1_555 1_555
H8 C4 1_555 1_555
H9 C4 1_555 1_555
H10 C4 1_555 1_555
C5 O1 1_555 1_555
C6 N1 1_555 1_555
H11 C6 1_555 1_555
C7 C6 1_555 1_555
C8 C7 1_555 1_555
C9 N1 1_555 1_555
C10 C9 1_555 1_555
H12 C10 1_555 1_555
C11 C10 1_555 1_555
H13 C11 1_555 1_555
C12 C11 1_555 1_555
H14 C12 1_555 1_555
C13 C8 1_555 1_555
H15 C13 1_555 1_555
C14 C7 1_555 1_555
H16 C14 1_555 1_555
H17 C14 1_555 1_555
C15 N2 1_555 1_555
C16 C15 1_555 1_555
H18 C16 1_555 1_555
C17 C15 1_555 1_555
C18 C16 1_555 1_555
H19 C18 1_555 1_555
C19 N2 1_555 1_555
C20 N3 1_555 1_555
C21 C20 1_555 1_555
H20 C21 1_555 1_555
H21 C21 1_555 1_555
C22 C21 1_555 1_555
H22 C22 1_555 1_555
H23 C22 1_555 1_555
C23 N3 1_555 1_555
H24 C23 1_555 1_555
H25 C23 1_555 1_555
C24 C18 1_555 1_555
C25 O8 1_555 1_555
H26 C25 1_555 1_555
H27 C25 1_555 1_555
H28 C25 1_555 1_555
C26 C16 1_555 1_555
C27 O3 1_555 1_555
H29 C27 1_555 1_555
H30 C27 1_555 1_555
H31 C27 1_555 1_555
O9 C29 1_555 1_555
O10 C29 1_555 1_555
C28 H32 1_555 1_555
H33 C28 1_555 1_555
H34 C28 1_555 1_555
C29 C28 1_555 1_555
C30 O10 1_555 1_555
H35 C30 1_555 1_555
H36 C30 1_555 1_555
C31 C30 1_555 1_555
H37 C31 1_555 1_555
H38 C31 1_555 1_555
H39 C31 1_555 1_555
C2 C3 1_555 1_555
C8 C9 1_555 1_555
C12 C13 1_555 1_555
C14 C15 1_555 1_555
C18 C20 1_555 1_555
C19 C20 1_555 1_555
C22 C23 1_555 1_555

#END
