
#######################################################################
#
#                 Cambridge Crystallographic Data Centre
#                                CCDC 
#
#######################################################################
#
# If this CIF has been generated from an entry in the Cambridge 
# Structural Database, then it will include bibliographic, chemical, 
# crystal, experimental, refinement or atomic coordinate data resulting 
# from the CCDC's data processing and validation procedures.
#
#######################################################################

data_MEMXUY
_chemical_formula_moiety         'C26 H31 N1 O3'
_chemical_name_systematic        
(3'R,4S)-3-(3'-Cyclohexyl-3'-phenylpropionyl)-5,5-dimethyl-4-phenyloxazolidin-2-one
_symmetry_cell_setting           orthorhombic
_symmetry_space_group_name_H-M   'P 21 21 21'
_symmetry_Int_Tables_number      19
_space_group_name_Hall           'P 2ac 2ab'
loop_
_symmetry_equiv_pos_site_id
_symmetry_equiv_pos_as_xyz
1 x,y,z
2 1/2-x,-y,1/2+z
3 -x,1/2+y,1/2-z
4 1/2+x,1/2-y,-z
_cell_length_a                   10.1004(2)
_cell_length_b                   14.8636(3)
_cell_length_c                   15.5876(3)
_cell_angle_alpha                90
_cell_angle_beta                 90
_cell_angle_gamma                90
_cell_volume                     2340.14
_exptl_crystal_colour            colorless
_exptl_crystal_description       block
_chemical_melting_point          '403-404 K'
_cell_formula_units_Z            4
loop_
_atom_site_label
_atom_site_type_symbol
_atom_site_fract_x
_atom_site_fract_y
_atom_site_fract_z
O1 O 0.95858(16) 1.07800(9) 0.84651(10)
O2 O 0.57851(16) 1.06330(11) 0.95809(13)
O3 O 0.64346(14) 1.19687(10) 1.00811(10)
N1 N 0.78455(16) 1.12548(10) 0.92251(11)
C1 C 0.9046(2) 0.93396(12) 1.02559(12)
C2 C 1.0225(2) 0.96553(13) 1.05920(13)
H1 H 1.0973 0.9680 1.0245
C3 C 1.0306(3) 0.99364(16) 1.14429(15)
H2 H 1.1103 1.0154 1.1659
C4 C 0.9214(3) 0.98917(17) 1.19620(14)
H3 H 0.9272 1.0063 1.2535
C5 C 0.8040(3) 0.95939(18) 1.16340(14)
H4 H 0.7295 0.9573 1.1983
C6 C 0.7950(2) 0.93241(16) 1.07891(14)
H5 H 0.7140 0.9129 1.0574
C7 C 0.8964(2) 0.90153(12) 0.93328(12)
H6 H 0.9852 0.9065 0.9085
C8 C 0.8549(2) 0.80183(12) 0.92787(12)
H7 H 0.7664 0.7963 0.9530
C9 C 0.9488(3) 0.74230(14) 0.97951(15)
H8 H 1.0376 0.7477 0.9563
H9 H 0.9509 0.7630 1.0385
C10 C 0.9071(3) 0.64421(14) 0.97764(17)
H10 H 0.9707 0.6085 1.0095
H11 H 0.8216 0.6379 1.0053
C11 C 0.8984(3) 0.60956(15) 0.88734(19)
H12 H 0.8649 0.5484 0.8881
H13 H 0.9863 0.6084 0.8623
C12 C 0.8092(3) 0.66701(16) 0.83271(16)
H14 H 0.7187 0.6606 0.8525
H15 H 0.8131 0.6461 0.7738
C13 C 0.8485(3) 0.76625(14) 0.83578(14)
H16 H 0.7846 0.8013 0.8035
H17 H 0.9343 0.7737 0.8088
C14 C 0.8040(2) 0.96288(13) 0.88074(13)
H18 H 0.7985 0.9408 0.8223
H19 H 0.7158 0.9614 0.9053
C15 C 0.8545(2) 1.05799(13) 0.88037(12)
C16 C 0.6612(2) 1.12070(14) 0.96230(15)
C17 C 0.7678(2) 1.24920(15) 1.01162(14)
C18 C 0.8426(3) 1.21989(19) 1.09074(14)
H20 H 0.7970 1.2407 1.1410
H21 H 0.9302 1.2450 1.0895
H22 H 0.8483 1.1554 1.0919
C19 C 0.7297(3) 1.34734(14) 1.01488(15)
H23 H 0.6876 1.3601 1.0687
H24 H 0.6697 1.3606 0.9688
H25 H 0.8077 1.3838 1.0092
C20 C 0.8382(2) 1.21741(12) 0.92876(12)
H26 H 0.9339 1.2146 0.9388
C21 C 0.8109(2) 1.27271(12) 0.84888(12)
C22 C 0.8901(2) 1.34661(14) 0.83156(14)
H27 H 0.9605 1.3601 0.8678
C23 C 0.8658(3) 1.40067(15) 0.76100(15)
H28 H 0.9200 1.4500 0.7501
C24 C 0.7630(3) 1.38185(18) 0.70749(15)
H29 H 0.7469 1.4183 0.6601
C25 C 0.6830(3) 1.3090(2) 0.72339(16)
H30 H 0.6125 1.2964 0.6869
C26 C 0.7069(3) 1.25385(16) 0.79397(14)
H31 H 0.6529 1.2043 0.8042
loop_
_geom_bond_atom_site_label_1
_geom_bond_atom_site_label_2
_geom_bond_site_symmetry_1
_geom_bond_site_symmetry_2
O1 C15 1_555 1_555
O2 C16 1_555 1_555
O3 C16 1_555 1_555
N1 C15 1_555 1_555
C1 C2 1_555 1_555
C2 H1 1_555 1_555
C3 C2 1_555 1_555
H2 C3 1_555 1_555
C4 C3 1_555 1_555
H3 C4 1_555 1_555
C5 C4 1_555 1_555
H4 C5 1_555 1_555
C6 C1 1_555 1_555
H5 C6 1_555 1_555
C7 C1 1_555 1_555
H6 C7 1_555 1_555
C8 C7 1_555 1_555
H7 C8 1_555 1_555
C9 C8 1_555 1_555
H8 C9 1_555 1_555
H9 C9 1_555 1_555
C10 C9 1_555 1_555
H10 C10 1_555 1_555
H11 C10 1_555 1_555
C11 C10 1_555 1_555
H12 C11 1_555 1_555
H13 C11 1_555 1_555
C12 C11 1_555 1_555
H14 C12 1_555 1_555
H15 C12 1_555 1_555
C13 C8 1_555 1_555
H16 C13 1_555 1_555
H17 C13 1_555 1_555
C14 C7 1_555 1_555
H18 C14 1_555 1_555
H19 C14 1_555 1_555
C15 C14 1_555 1_555
C16 N1 1_555 1_555
C17 O3 1_555 1_555
C18 C17 1_555 1_555
H20 C18 1_555 1_555
H21 C18 1_555 1_555
H22 C18 1_555 1_555
C19 C17 1_555 1_555
H23 C19 1_555 1_555
H24 C19 1_555 1_555
H25 C19 1_555 1_555
C20 N1 1_555 1_555
H26 C20 1_555 1_555
C21 C20 1_555 1_555
C22 C21 1_555 1_555
H27 C22 1_555 1_555
C23 C22 1_555 1_555
H28 C23 1_555 1_555
C24 C23 1_555 1_555
H29 C24 1_555 1_555
C25 C24 1_555 1_555
H30 C25 1_555 1_555
C26 C21 1_555 1_555
H31 C26 1_555 1_555
C5 C6 1_555 1_555
C12 C13 1_555 1_555
C17 C20 1_555 1_555
C25 C26 1_555 1_555

#END
