
#######################################################################
#
#                 Cambridge Crystallographic Data Centre
#                                CCDC 
#
#######################################################################
#
# If this CIF has been generated from an entry in the Cambridge 
# Structural Database, then it will include bibliographic, chemical, 
# crystal, experimental, refinement or atomic coordinate data resulting 
# from the CCDC's data processing and validation procedures.
#
#######################################################################

data_MENBUD
_chemical_formula_moiety         'C15 H14 N2 O3'
_chemical_name_systematic        
N'-(3-Hydroxybenzylidene)-2-methoxy-benzohydrazide
_symmetry_cell_setting           monoclinic
_symmetry_space_group_name_H-M   'P 21/c'
_symmetry_Int_Tables_number      14
_space_group_name_Hall           '-P 2ybc'
loop_
_symmetry_equiv_pos_site_id
_symmetry_equiv_pos_as_xyz
1 x,y,z
2 -x,1/2+y,1/2-z
3 -x,-y,-z
4 x,1/2-y,1/2+z
_cell_length_a                   13.2127(12)
_cell_length_b                   7.9412(7)
_cell_length_c                   14.4446(13)
_cell_angle_alpha                90
_cell_angle_beta                 115.8150(10)
_cell_angle_gamma                90
_cell_volume                     1364.35
_exptl_crystal_colour            yellow
_exptl_crystal_description       block
_cell_formula_units_Z            4
_exptl_crystal_recrystallization_method DMF
loop_
_atom_site_label
_atom_site_type_symbol
_atom_site_fract_x
_atom_site_fract_y
_atom_site_fract_z
O1 O 0.23874(8) 0.46440(13) 0.58993(6)
O2 O 0.20534(8) 0.55141(15) 0.29499(7)
O3 O 0.61104(10) 0.15382(16) 0.23023(7)
H1 H 0.6696(18) 0.097(3) 0.2245(15)
N1 N 0.31015(9) 0.42756(14) 0.44685(9)
H2 H 0.3240(12) 0.4138(17) 0.5135(12)
N2 N 0.38218(9) 0.35945(13) 0.41047(8)
C1 C 0.25947(15) 0.4495(3) 0.69516(10)
H3 H 0.2839 0.5562 0.7289
H4 H 0.3169 0.3666 0.7284
H5 H 0.1916 0.4157 0.6990
C2 C 0.16062(11) 0.57662(16) 0.52828(10)
C3 C 0.09114(12) 0.66552(19) 0.56065(12)
H6 H 0.0986 0.6513 0.6272
C4 C 0.01190(14) 0.7738(2) 0.49494(15)
H7 H -0.0341 0.8326 0.5175
C5 C -0.00085(14) 0.7971(2) 0.39660(14)
H8 H -0.0552 0.8704 0.3523
C6 C 0.06803(13) 0.71010(19) 0.36449(12)
H9 H 0.0594 0.7259 0.2976
C7 C 0.15017(11) 0.59941(16) 0.42837(10)
C8 C 0.22326(11) 0.52314(17) 0.38461(10)
C9 C 0.46716(11) 0.28371(16) 0.47710(10)
H10 H 0.4777 0.2805 0.5451
C10 C 0.54898(10) 0.20129(15) 0.44924(9)
C11 C 0.54525(11) 0.21919(17) 0.35228(9)
H11 H 0.4924 0.2904 0.3044
C12 C 0.61948(11) 0.13186(17) 0.32655(10)
C13 C 0.69902(11) 0.02688(17) 0.39738(11)
H12 H 0.7482 -0.0335 0.3796
C14 C 0.70475(12) 0.01253(18) 0.49437(11)
H13 H 0.7591 -0.0563 0.5427
C15 C 0.63070(11) 0.09909(17) 0.52080(10)
H14 H 0.6356 0.0889 0.5868
loop_
_geom_bond_atom_site_label_1
_geom_bond_atom_site_label_2
_geom_bond_site_symmetry_1
_geom_bond_site_symmetry_2
O1 C1 1_555 1_555
O2 C8 1_555 1_555
O3 H1 1_555 1_555
N1 H2 1_555 1_555
N2 N1 1_555 1_555
C1 H3 1_555 1_555
H4 C1 1_555 1_555
H5 C1 1_555 1_555
C2 O1 1_555 1_555
C3 C2 1_555 1_555
H6 C3 1_555 1_555
C4 C3 1_555 1_555
H7 C4 1_555 1_555
C5 C4 1_555 1_555
H8 C5 1_555 1_555
C6 C5 1_555 1_555
H9 C6 1_555 1_555
C7 C2 1_555 1_555
C8 N1 1_555 1_555
C9 N2 1_555 1_555
H10 C9 1_555 1_555
C10 C9 1_555 1_555
C11 C10 1_555 1_555
H11 C11 1_555 1_555
C12 O3 1_555 1_555
C13 C12 1_555 1_555
H12 C13 1_555 1_555
C14 C13 1_555 1_555
H13 C14 1_555 1_555
C15 C10 1_555 1_555
H14 C15 1_555 1_555
C6 C7 1_555 1_555
C7 C8 1_555 1_555
C11 C12 1_555 1_555
C14 C15 1_555 1_555

#END
