
#######################################################################
#
#                 Cambridge Crystallographic Data Centre
#                                CCDC 
#
#######################################################################
#
# If this CIF has been generated from an entry in the Cambridge 
# Structural Database, then it will include bibliographic, chemical, 
# crystal, experimental, refinement or atomic coordinate data resulting 
# from the CCDC's data processing and validation procedures.
#
#######################################################################

data_MENCIS
_chemical_formula_moiety         'C26 H14 F1 N1 O1'
_chemical_name_systematic        
7-(4-Fluorophenyl)-8H-benzo(h)indeno(1,2-b)quinolin-8-one
_symmetry_cell_setting           monoclinic
_symmetry_space_group_name_H-M   'P 21'
_symmetry_Int_Tables_number      4
_space_group_name_Hall           'P 2yb'
loop_
_symmetry_equiv_pos_site_id
_symmetry_equiv_pos_as_xyz
1 x,y,z
2 -x,1/2+y,-z
_cell_length_a                   10.971(4)
_cell_length_b                   6.274(2)
_cell_length_c                   13.540(4)
_cell_angle_alpha                90
_cell_angle_beta                 103.115(5)
_cell_angle_gamma                90
_cell_volume                     907.677
_exptl_crystal_colour            yellow
_exptl_crystal_description       block
_chemical_melting_point          '573 K'
_cell_formula_units_Z            2
_exptl_crystal_recrystallization_method '95% aqueous ethanol'
loop_
_atom_site_label
_atom_site_type_symbol
_atom_site_fract_x
_atom_site_fract_y
_atom_site_fract_z
F1 F 0.3839(2) 0.7223(5) 0.30521(16)
N1 N 0.1713(3) 0.7988(5) 0.8671(2)
O1 O 0.1005(2) 1.1449(4) 0.54655(19)
C1 C 0.1334(3) 0.9332(6) 0.7916(3)
C2 C 0.0542(3) 1.1217(6) 0.7952(2)
C3 C 0.0012(3) 1.2001(7) 0.8706(3)
H1 H 0.0123 1.1312 0.9328
C4 C -0.0692(3) 1.3850(7) 0.8510(3)
H2 H -0.1062 1.4407 0.9008
C5 C -0.0855(4) 1.4881(6) 0.7589(3)
H3 H -0.1322 1.6131 0.7480
C6 C -0.0336(3) 1.4087(7) 0.6825(3)
H4 H -0.0450 1.4776 0.6202
C7 C 0.0359(3) 1.2238(6) 0.7017(3)
C8 C 0.1010(3) 1.1024(6) 0.6339(3)
C9 C 0.1646(3) 0.9217(6) 0.6963(2)
C10 C 0.2394(3) 0.7608(6) 0.6754(3)
C11 C 0.2795(3) 0.6083(6) 0.7539(3)
C12 C 0.3549(3) 0.4273(7) 0.7417(3)
H5 H 0.3809 0.4108 0.6814
C13 C 0.3886(3) 0.2812(7) 0.8153(3)
H6 H 0.4350 0.1635 0.8037
C14 C 0.3556(3) 0.3014(6) 0.9102(3)
C15 C 0.3908(3) 0.1507(7) 0.9868(3)
H7 H 0.4339 0.0293 0.9749
C16 C 0.3630(4) 0.1784(8) 1.0790(3)
H8 H 0.3875 0.0766 1.1296
C17 C 0.2978(4) 0.3590(8) 1.0977(3)
H9 H 0.2800 0.3779 1.1611
C18 C 0.2599(3) 0.5088(7) 1.0238(3)
H10 H 0.2167 0.6291 1.0370
C19 C 0.2861(3) 0.4808(6) 0.9284(3)
C20 C 0.2448(3) 0.6330(6) 0.8480(3)
C21 C 0.2774(3) 0.7476(6) 0.5768(3)
C22 C 0.2390(3) 0.5834(7) 0.5093(3)
H11 H 0.1878 0.4771 0.5256
C23 C 0.2748(3) 0.5734(7) 0.4179(3)
H12 H 0.2485 0.4622 0.3727
C24 C 0.3497(4) 0.7311(8) 0.3962(3)
C25 C 0.3895(4) 0.8958(8) 0.4588(3)
H13 H 0.4399 1.0014 0.4409
C26 C 0.3536(4) 0.9046(7) 0.5504(3)
H14 H 0.3808 1.0169 0.5948
loop_
_geom_bond_atom_site_label_1
_geom_bond_atom_site_label_2
_geom_bond_site_symmetry_1
_geom_bond_site_symmetry_2
F1 C24 1_555 1_555
N1 C1 1_555 1_555
O1 C8 1_555 1_555
C1 C2 1_555 1_555
C2 C3 1_555 1_555
C3 H1 1_555 1_555
C4 C3 1_555 1_555
H2 C4 1_555 1_555
C5 C4 1_555 1_555
H3 C5 1_555 1_555
C6 C5 1_555 1_555
H4 C6 1_555 1_555
C7 C2 1_555 1_555
C8 C7 1_555 1_555
C9 C1 1_555 1_555
C10 C9 1_555 1_555
C11 C10 1_555 1_555
C12 C11 1_555 1_555
H5 C12 1_555 1_555
C13 C12 1_555 1_555
H6 C13 1_555 1_555
C14 C13 1_555 1_555
C15 C14 1_555 1_555
H7 C15 1_555 1_555
C16 C15 1_555 1_555
H8 C16 1_555 1_555
C17 C16 1_555 1_555
H9 C17 1_555 1_555
C18 C17 1_555 1_555
H10 C18 1_555 1_555
C19 C14 1_555 1_555
C20 N1 1_555 1_555
C21 C10 1_555 1_555
C22 C21 1_555 1_555
H11 C22 1_555 1_555
C23 C22 1_555 1_555
H12 C23 1_555 1_555
C24 C23 1_555 1_555
C25 C24 1_555 1_555
H13 C25 1_555 1_555
C26 C21 1_555 1_555
H14 C26 1_555 1_555
C6 C7 1_555 1_555
C8 C9 1_555 1_555
C11 C20 1_555 1_555
C18 C19 1_555 1_555
C19 C20 1_555 1_555
C25 C26 1_555 1_555

#END
