
#######################################################################
#
#                 Cambridge Crystallographic Data Centre
#                                CCDC 
#
#######################################################################
#
# If this CIF has been generated from an entry in the Cambridge 
# Structural Database, then it will include bibliographic, chemical, 
# crystal, experimental, refinement or atomic coordinate data resulting 
# from the CCDC's data processing and validation procedures.
#
#######################################################################

data_MENGUK
_chemical_formula_moiety         'C18 H12 Cl1 N1 O5'
_chemical_name_systematic        
4-(2-chlorophenyl)-3-nitro-3,4-dihydro-2H,5H-pyrano[3,2-c][1]benzopyran-5-one
_symmetry_cell_setting           orthorhombic
_symmetry_space_group_name_H-M   'P 21 21 21'
_symmetry_Int_Tables_number      19
_space_group_name_Hall           'P 2ac 2ab'
loop_
_symmetry_equiv_pos_site_id
_symmetry_equiv_pos_as_xyz
1 x,y,z
2 1/2-x,-y,1/2+z
3 -x,1/2+y,1/2-z
4 1/2+x,1/2-y,-z
_cell_length_a                   6.9803(8)
_cell_length_b                   14.8048(16)
_cell_length_c                   14.8173(17)
_cell_angle_alpha                90
_cell_angle_beta                 90
_cell_angle_gamma                90
_cell_volume                     1531.25
_exptl_crystal_colour            colorless
_exptl_crystal_description       Prism
_cell_formula_units_Z            4
loop_
_atom_site_label
_atom_site_type_symbol
_atom_site_fract_x
_atom_site_fract_y
_atom_site_fract_z
Cl1 Cl 0.94182(4) 1.234326(19) 0.80792(2)
O1 O 0.86769(13) 0.89607(6) 1.07328(5)
O2 O 0.93739(15) 1.03992(6) 1.05058(6)
O3 O 0.76926(13) 0.85509(5) 0.80234(6)
O4 O 1.04471(19) 0.96316(7) 0.64520(7)
O5 O 1.18426(16) 0.99051(9) 0.77204(7)
N1 N 1.04297(18) 0.98604(7) 0.72469(7)
C1 C 0.84301(17) 0.81032(8) 1.03960(8)
C2 C 0.84337(19) 0.74003(9) 1.10205(9)
H1 H 0.8562 0.7519 1.1648
C3 C 0.82464(19) 0.65263(9) 1.07077(10)
H2 H 0.8232 0.6040 1.1126
C4 C 0.80786(19) 0.63467(8) 0.97899(10)
H3 H 0.7993 0.5740 0.9585
C5 C 0.80353(19) 0.70504(8) 0.91735(9)
H4 H 0.7892 0.6928 0.8548
C6 C 0.82034(17) 0.79423(7) 0.94779(8)
C7 C 0.81174(16) 0.87281(8) 0.88940(8)
C8 C 0.84680(17) 0.95680(7) 0.92166(7)
C9 C 0.88882(17) 0.96923(8) 1.01657(8)
C10 C 0.7127(2) 0.93224(8) 0.74917(8)
H5 H 0.5811 0.9505 0.7662
H6 H 0.7115 0.9153 0.6845
C11 C 0.84731(18) 1.01146(8) 0.76281(8)
H7 H 0.7969 1.0638 0.7274
C12 C 0.85835(17) 1.03963(7) 0.86244(7)
H8 H 0.9857 1.0688 0.8728
C13 C 0.70350(17) 1.10932(7) 0.88262(7)
C14 C 0.53225(18) 1.08629(8) 0.92497(8)
H9 H 0.5105 1.0251 0.9414
C15 C 0.39242(18) 1.15031(9) 0.94380(9)
H10 H 0.2766 1.1328 0.9726
C16 C 0.42282(19) 1.24018(8) 0.92028(8)
H11 H 0.3278 1.2843 0.9331
C17 C 0.59184(18) 1.26533(8) 0.87807(8)
H12 H 0.6134 1.3266 0.8619
C18 C 0.72954(17) 1.19997(8) 0.85970(8)
loop_
_geom_bond_atom_site_label_1
_geom_bond_atom_site_label_2
_geom_bond_site_symmetry_1
_geom_bond_site_symmetry_2
Cl1 C18 1_555 1_555
O1 C1 1_555 1_555
O2 C9 1_555 1_555
O3 C7 1_555 1_555
O4 N1 1_555 1_555
O5 N1 1_555 1_555
N1 C11 1_555 1_555
C1 C2 1_555 1_555
C2 H1 1_555 1_555
C3 C2 1_555 1_555
H2 C3 1_555 1_555
C4 C3 1_555 1_555
H3 C4 1_555 1_555
C5 C4 1_555 1_555
H4 C5 1_555 1_555
C6 C1 1_555 1_555
C7 C6 1_555 1_555
C8 C7 1_555 1_555
C9 O1 1_555 1_555
C10 O3 1_555 1_555
H5 C10 1_555 1_555
H6 C10 1_555 1_555
C11 C10 1_555 1_555
H7 C11 1_555 1_555
C12 C8 1_555 1_555
H8 C12 1_555 1_555
C13 C12 1_555 1_555
C14 C13 1_555 1_555
H9 C14 1_555 1_555
C15 C14 1_555 1_555
H10 C15 1_555 1_555
C16 C15 1_555 1_555
H11 C16 1_555 1_555
C17 C16 1_555 1_555
H12 C17 1_555 1_555
C18 C13 1_555 1_555
C5 C6 1_555 1_555
C8 C9 1_555 1_555
C11 C12 1_555 1_555
C17 C18 1_555 1_555

#END
