
#######################################################################
#
#                 Cambridge Crystallographic Data Centre
#                                CCDC 
#
#######################################################################
#
# If this CIF has been generated from an entry in the Cambridge 
# Structural Database, then it will include bibliographic, chemical, 
# crystal, experimental, refinement or atomic coordinate data resulting 
# from the CCDC's data processing and validation procedures.
#
#######################################################################

data_MENHIX
_chemical_formula_moiety         'C13 H12 N2 O2,H2 O1'
_chemical_name_systematic        
'2-Hydroxy-N-(2-pyridylmethyl)benzamide monohydrate'
_symmetry_cell_setting           monoclinic
_symmetry_space_group_name_H-M   'P 21/c'
_symmetry_Int_Tables_number      14
_space_group_name_Hall           '-P 2ybc'
loop_
_symmetry_equiv_pos_site_id
_symmetry_equiv_pos_as_xyz
1 x,y,z
2 -x,1/2+y,1/2-z
3 -x,-y,-z
4 x,1/2-y,1/2+z
_cell_length_a                   10.849(3)
_cell_length_b                   4.6324(13)
_cell_length_c                   25.094(6)
_cell_angle_alpha                90
_cell_angle_beta                 102.484(9)
_cell_angle_gamma                90
_cell_volume                     1231.33
_exptl_crystal_colour            colorless
_exptl_crystal_description       needle
_cell_formula_units_Z            4
_exptl_crystal_recrystallization_method 'ethyl acetate'
loop_
_atom_site_label
_atom_site_type_symbol
_atom_site_fract_x
_atom_site_fract_y
_atom_site_fract_z
N1 N 0.08696(18) 1.1798(5) 0.09097(8)
H1 H 0.0731 1.1599 0.0561
O1 O 0.15356(17) 0.9487(4) 0.00438(7)
H2 H 0.1573 0.9094 -0.0271
O2 O 0.19698(17) 1.0424(4) 0.17269(7)
N2 N -0.1750(2) 1.0794(5) 0.09991(9)
C1 C 0.2431(2) 0.7951(6) 0.03973(10)
C2 C 0.2554(2) 0.8271(5) 0.09591(10)
C3 C 0.3467(2) 0.6628(6) 0.13035(11)
H3 H 0.3549 0.6798 0.1679
C4 C 0.3217(3) 0.6055(7) 0.02009(12)
H4 H 0.3135 0.5840 -0.0174
C5 C 0.1783(2) 1.0254(5) 0.12258(10)
C6 C 0.0109(2) 1.3799(6) 0.11431(12)
H5 H -0.0259 1.5202 0.0868
H6 H 0.0651 1.4832 0.1440
C7 C -0.0930(2) 1.2358(5) 0.13541(10)
C8 C -0.1043(3) 1.2657(7) 0.18849(12)
H7 H -0.0460 1.3751 0.2129
C9 C 0.4114(3) 0.4495(6) 0.05536(13)
H8 H 0.4636 0.3238 0.0416
C10 C -0.2032(3) 1.1316(9) 0.20538(13)
H9 H -0.2126 1.1515 0.2412
C11 C -0.2695(3) 0.9513(7) 0.11734(13)
H10 H -0.3269 0.8424 0.0924
C12 C 0.4250(3) 0.4769(6) 0.11091(13)
H11 H 0.4860 0.3714 0.1348
C13 C -0.2866(3) 0.9706(7) 0.16912(14)
H12 H -0.3534 0.8765 0.1795
O3 O 0.4320(2) 0.1529(5) 0.24401(10)
H13 H 0.3624(18) 0.128(8) 0.2214(11)
H14 H 0.475(3) -0.003(5) 0.2490(16)
loop_
_geom_bond_atom_site_label_1
_geom_bond_atom_site_label_2
_geom_bond_site_symmetry_1
_geom_bond_site_symmetry_2
N1 H1 1_555 1_555
O1 H2 1_555 1_555
O2 C5 1_555 1_555
N2 C7 1_555 1_555
C1 O1 1_555 1_555
C2 C1 1_555 1_555
C3 C2 1_555 1_555
H3 C3 1_555 1_555
C4 C1 1_555 1_555
H4 C4 1_555 1_555
C5 N1 1_555 1_555
C6 N1 1_555 1_555
H5 C6 1_555 1_555
H6 C6 1_555 1_555
C7 C6 1_555 1_555
C8 C7 1_555 1_555
H7 C8 1_555 1_555
C9 C4 1_555 1_555
H8 C9 1_555 1_555
C10 C8 1_555 1_555
H9 C10 1_555 1_555
C11 N2 1_555 1_555
H10 C11 1_555 1_555
C12 C3 1_555 1_555
H11 C12 1_555 1_555
C13 C10 1_555 1_555
H12 C13 1_555 1_555
O3 H13 1_555 1_555
H14 O3 1_555 1_555
C2 C5 1_555 1_555
C9 C12 1_555 1_555
C11 C13 1_555 1_555

#END
