
#######################################################################
#
#                 Cambridge Crystallographic Data Centre
#                                CCDC 
#
#######################################################################
#
# If this CIF has been generated from an entry in the Cambridge 
# Structural Database, then it will include bibliographic, chemical, 
# crystal, experimental, refinement or atomic coordinate data resulting 
# from the CCDC's data processing and validation procedures.
#
#######################################################################

data_MENKUM
_chemical_formula_moiety         'C11 H20 N2 O3'
_chemical_name_systematic        
'3-Carbamoyl-2,2,5,5-tetramethylpyrrolidin-1-yl acetate'
_symmetry_cell_setting           monoclinic
_symmetry_space_group_name_H-M   'P 21/n'
_symmetry_Int_Tables_number      14
_space_group_name_Hall           '-P 2yn'
loop_
_symmetry_equiv_pos_site_id
_symmetry_equiv_pos_as_xyz
1 x,y,z
2 1/2-x,1/2+y,1/2-z
3 -x,-y,-z
4 1/2+x,1/2-y,1/2+z
_cell_length_a                   9.7037(19)
_cell_length_b                   11.706(2)
_cell_length_c                   12.293(3)
_cell_angle_alpha                90
_cell_angle_beta                 107.27(3)
_cell_angle_gamma                90
_cell_volume                     1333.43
_exptl_crystal_colour            colorless
_exptl_crystal_description       plate
_cell_formula_units_Z            4
_exptl_crystal_recrystallization_method 'ethyl acetate'
loop_
_atom_site_label
_atom_site_type_symbol
_atom_site_fract_x
_atom_site_fract_y
_atom_site_fract_z
O1 O -0.00760(12) 0.52425(9) 0.28945(8)
O2 O 0.01639(19) 0.35524(11) 0.21026(13)
O3 O -0.1009(2) 0.92166(11) 0.07561(13)
N1 N -0.07550(12) 0.56922(11) 0.17698(9)
N2 N -0.01157(18) 0.84928(12) -0.05732(12)
H1 H 0.0107 0.9159 -0.0763
H2 H 0.0064 0.7896 -0.0916
C1 C 0.01033(17) 0.66580(13) 0.15479(13)
C2 C -0.10708(17) 0.71866(13) 0.05381(12)
H3 H -0.1197 0.6701 -0.0134
C3 C -0.24303(19) 0.71151(18) 0.09190(14)
H4 H -0.3280 0.7041 0.0264
H5 H -0.2530 0.7797 0.1338
C4 C -0.22553(16) 0.60572(15) 0.16839(13)
C5 C 0.03184(19) 0.41355(15) 0.29158(15)
C6 C 0.0979(2) 0.37803(19) 0.41253(17)
H6 H 0.1256 0.2991 0.4150
H7 H 0.0290 0.3881 0.4539
H8 H 0.1815 0.4241 0.4464
C7 C 0.1365(2) 0.61634(16) 0.11950(19)
H9 H 0.1003 0.5643 0.0571
H10 H 0.2004 0.5764 0.1828
H11 H 0.1879 0.6772 0.0964
C8 C 0.0678(2) 0.74819(16) 0.25499(16)
H12 H -0.0115 0.7790 0.2772
H13 H 0.1194 0.8093 0.2325
H14 H 0.1315 0.7079 0.3181
C9 C -0.0736(2) 0.83861(14) 0.02482(15)
C10 C -0.2534(2) 0.6343(2) 0.28045(17)
H15 H -0.2424 0.5666 0.3264
H16 H -0.3498 0.6631 0.2658
H17 H -0.1857 0.6911 0.3201
C11 C -0.3225(2) 0.5070(2) 0.1124(2)
H18 H -0.3061 0.4433 0.1638
H19 H -0.3009 0.4852 0.0439
H20 H -0.4216 0.5302 0.0940
loop_
_geom_bond_atom_site_label_1
_geom_bond_atom_site_label_2
_geom_bond_site_symmetry_1
_geom_bond_site_symmetry_2
O1 N1 1_555 1_555
O2 C5 1_555 1_555
O3 C9 1_555 1_555
N1 C1 1_555 1_555
N2 H1 1_555 1_555
H2 N2 1_555 1_555
C1 C2 1_555 1_555
C2 H3 1_555 1_555
C3 C2 1_555 1_555
H4 C3 1_555 1_555
H5 C3 1_555 1_555
C4 N1 1_555 1_555
C5 O1 1_555 1_555
C6 C5 1_555 1_555
H6 C6 1_555 1_555
H7 C6 1_555 1_555
H8 C6 1_555 1_555
C7 C1 1_555 1_555
H9 C7 1_555 1_555
H10 C7 1_555 1_555
H11 C7 1_555 1_555
C8 C1 1_555 1_555
H12 C8 1_555 1_555
H13 C8 1_555 1_555
H14 C8 1_555 1_555
C9 N2 1_555 1_555
C10 C4 1_555 1_555
H15 C10 1_555 1_555
H16 C10 1_555 1_555
H17 C10 1_555 1_555
C11 C4 1_555 1_555
H18 C11 1_555 1_555
H19 C11 1_555 1_555
H20 C11 1_555 1_555
C2 C9 1_555 1_555
C3 C4 1_555 1_555

#END
