
#######################################################################
#
#                 Cambridge Crystallographic Data Centre
#                                CCDC 
#
#######################################################################
#
# If this CIF has been generated from an entry in the Cambridge 
# Structural Database, then it will include bibliographic, chemical, 
# crystal, experimental, refinement or atomic coordinate data resulting 
# from the CCDC's data processing and validation procedures.
#
#######################################################################

data_MENKAS01
_chemical_formula_moiety         'C21 H18 O2 S1'
_chemical_name_systematic        
1,5-diphenyl-3-(thiophen-2-yl)pentane-1,5-dione
_symmetry_cell_setting           monoclinic
_symmetry_space_group_name_H-M   'P 21/c'
_symmetry_Int_Tables_number      14
_space_group_name_Hall           '-P 2ybc'
loop_
_symmetry_equiv_pos_site_id
_symmetry_equiv_pos_as_xyz
1 x,y,z
2 -x,1/2+y,1/2-z
3 -x,-y,-z
4 x,1/2-y,1/2+z
_cell_length_a                   13.5177(11)
_cell_length_b                   12.0829(9)
_cell_length_c                   10.7707(8)
_cell_angle_alpha                90
_cell_angle_beta                 94.511(4)
_cell_angle_gamma                90
_cell_volume                     1753.76
_cell_formula_units_Z            4
loop_
_atom_site_label
_atom_site_type_symbol
_atom_site_fract_x
_atom_site_fract_y
_atom_site_fract_z
C1 C 0.4440(3) 0.6336(4) 1.1075(4)
H1 H 0.4650 0.6403 1.1915
C2 C 0.3496(4) 0.6011(4) 1.0738(5)
H2 H 0.3070 0.5844 1.1350
C3 C 0.3164(3) 0.5926(4) 0.9519(5)
H3 H 0.2513 0.5713 0.9299
C4 C 0.3786(3) 0.6154(4) 0.8623(5)
H4 H 0.3560 0.6090 0.7789
C5 C 0.4757(3) 0.6480(3) 0.8941(4)
H5 H 0.5178 0.6639 0.8322
C6 C 0.5095(3) 0.6567(3) 1.0182(3)
C7 C 0.6109(3) 0.6916(3) 1.0588(3)
C8 C 0.6848(3) 0.7122(3) 0.9631(3)
H6 H 0.6504 0.7448 0.8895
H7 H 0.7121 0.6418 0.9389
C9 C 0.7700(3) 0.7884(3) 1.0094(3)
H8 H 0.8008 0.7586 1.0878
C10 C 0.7332(3) 0.9027(3) 1.0327(3)
C11 C 0.6416(2) 0.9573(3) 0.9673(4)
H9 H 0.5948 0.9279 0.9084
C12 C 0.6471(5) 1.0719(5) 1.0238(7)
H10 H 0.6005 1.1262 1.0004
C13 C 0.7213(6) 1.0910(4) 1.1079(6)
H11 H 0.7303 1.1584 1.1488
C14 C 0.8484(3) 0.7941(3) 0.9151(4)
H12 H 0.8157 0.8128 0.8344
H13 H 0.8939 0.8538 0.9391
C15 C 0.9078(3) 0.6896(3) 0.9013(3)
C16 C 0.9866(3) 0.6914(3) 0.8123(4)
C17 C 1.0432(3) 0.5968(4) 0.7994(5)
H14 H 1.0333 0.5345 0.8475
C18 C 1.1145(4) 0.5965(6) 0.7139(7)
H15 H 1.1513 0.5327 0.7033
C19 C 1.1316(4) 0.6882(7) 0.6449(6)
H16 H 1.1802 0.6867 0.5884
C20 C 1.0777(4) 0.7816(6) 0.6588(5)
H17 H 1.0898 0.8445 0.6125
C21 C 1.0050(3) 0.7831(4) 0.7415(4)
H18 H 0.9678 0.8470 0.7498
O1 O 0.6375(3) 0.7000(3) 1.1691(3)
O2 O 0.8932(2) 0.6075(2) 0.9630(3)
S1 S 0.79478(17) 0.98795(14) 1.13345(15)
loop_
_geom_bond_atom_site_label_1
_geom_bond_atom_site_label_2
_geom_bond_site_symmetry_1
_geom_bond_site_symmetry_2
C1 H1 1_555 1_555
C2 C1 1_555 1_555
H2 C2 1_555 1_555
C3 C2 1_555 1_555
H3 C3 1_555 1_555
C4 C3 1_555 1_555
H4 C4 1_555 1_555
C5 C4 1_555 1_555
H5 C5 1_555 1_555
C6 C1 1_555 1_555
C7 C6 1_555 1_555
C8 C7 1_555 1_555
H6 C8 1_555 1_555
H7 C8 1_555 1_555
C9 C8 1_555 1_555
H8 C9 1_555 1_555
C10 C9 1_555 1_555
C11 C10 1_555 1_555
H9 C11 1_555 1_555
C12 C11 1_555 1_555
H10 C12 1_555 1_555
C13 C12 1_555 1_555
H11 C13 1_555 1_555
C14 C9 1_555 1_555
H12 C14 1_555 1_555
H13 C14 1_555 1_555
C15 C14 1_555 1_555
C16 C15 1_555 1_555
C17 C16 1_555 1_555
H14 C17 1_555 1_555
C18 C17 1_555 1_555
H15 C18 1_555 1_555
C19 C18 1_555 1_555
H16 C19 1_555 1_555
C20 C19 1_555 1_555
H17 C20 1_555 1_555
C21 C16 1_555 1_555
H18 C21 1_555 1_555
O1 C7 1_555 1_555
O2 C15 1_555 1_555
S1 C10 1_555 1_555
C5 C6 1_555 1_555
C13 S1 1_555 1_555
C20 C21 1_555 1_555

#END
