
#######################################################################
#
#                 Cambridge Crystallographic Data Centre
#                                CCDC 
#
#######################################################################
#
# If this CIF has been generated from an entry in the Cambridge 
# Structural Database, then it will include bibliographic, chemical, 
# crystal, experimental, refinement or atomic coordinate data resulting 
# from the CCDC's data processing and validation procedures.
#
#######################################################################

data_MENLIB
_chemical_formula_moiety         'C18 H25 Br1 O1'
_chemical_name_systematic        
(2S,7R)-2-Benzyloxy-7-bromomethyl-1,2,7-trimethylbicyclo(2.2.1)heptane
_symmetry_cell_setting           monoclinic
_symmetry_space_group_name_H-M   'P 21'
_symmetry_Int_Tables_number      4
_space_group_name_Hall           'P 2yb'
loop_
_symmetry_equiv_pos_site_id
_symmetry_equiv_pos_as_xyz
1 x,y,z
2 -x,1/2+y,-z
_cell_length_a                   7.1721(3)
_cell_length_b                   7.9624(3)
_cell_length_c                   14.5849(6)
_cell_angle_alpha                90
_cell_angle_beta                 95.719(2)
_cell_angle_gamma                90
_cell_volume                     828.756
_exptl_crystal_colour            colorless
_exptl_crystal_description       block
_chemical_melting_point          '345-346 K'
_cell_formula_units_Z            2
_exptl_crystal_recrystallization_method hexane
loop_
_atom_site_label
_atom_site_type_symbol
_atom_site_fract_x
_atom_site_fract_y
_atom_site_fract_z
Br1 Br 0.33807(6) 0.24169(6) 1.08282(2)
C1 C 0.2296(6) 0.2012(6) 0.4937(3)
C2 C 0.1800(6) 0.2745(8) 0.4120(2)
H1 H 0.0609 0.3208 0.4009
C3 C 0.2991(8) 0.2832(7) 0.3447(3)
H2 H 0.2608 0.3360 0.2891
C4 C 0.4716(8) 0.2156(9) 0.3585(3)
H3 H 0.5545 0.2241 0.3136
C5 C 0.4004(10) 0.1289(8) 0.5077(4)
H4 H 0.4364 0.0752 0.5633
C6 C 0.0995(8) 0.1880(9) 0.5670(3)
H5 H -0.0225 0.2319 0.5441
H6 H 0.0844 0.0710 0.5832
C7 C 0.2898(6) 0.3760(5) 0.9689(2)
H7 H 0.2289 0.4802 0.9832
H8 H 0.4084 0.4041 0.9461
C8 C 0.5228(9) 0.1344(8) 0.4393(5)
H9 H 0.6394 0.0827 0.4489
C9 C 0.0788(5) 0.2510(9) 0.7278(2)
C10 C -0.0299(5) 0.2747(6) 0.9255(3)
H10 H -0.0226 0.2281 0.9864
H11 H -0.1079 0.2047 0.8840
H12 H -0.0825 0.3855 0.9260
C11 C 0.1671(4) 0.2839(4) 0.8935(2)
C12 C 0.1869(5) 0.3763(5) 0.7982(3)
C13 C 0.3983(5) 0.3471(5) 0.7893(3)
H13 H 0.4237 0.3495 0.7252
H14 H 0.4742 0.4320 0.8230
C14 C 0.2460(5) 0.1195(4) 0.8614(3)
H15 H 0.2521 0.0296 0.9074
C15 C 0.1186(7) 0.0822(7) 0.7745(3)
H16 H 0.0032 0.0304 0.7896
H17 H 0.1798 0.0071 0.7346
C16 C -0.1310(5) 0.2947(8) 0.7052(3)
H18 H -0.1429 0.3895 0.6644
H19 H -0.1847 0.3216 0.7612
H20 H -0.1956 0.2002 0.6762
C17 C 0.4384(5) 0.1720(5) 0.8314(3)
H21 H 0.5328 0.1774 0.8837
H22 H 0.4796 0.0946 0.7861
C18 C 0.1283(6) 0.5578(5) 0.7904(3)
H23 H 0.1466 0.5988 0.7301
H24 H 0.2025 0.6227 0.8359
H25 H -0.0017 0.5674 0.8002
O1 O 0.1688(4) 0.2767(5) 0.64360(16)
loop_
_geom_bond_atom_site_label_1
_geom_bond_atom_site_label_2
_geom_bond_site_symmetry_1
_geom_bond_site_symmetry_2
Br1 C7 1_555 1_555
C1 C2 1_555 1_555
C2 H1 1_555 1_555
C3 C2 1_555 1_555
H2 C3 1_555 1_555
C4 C3 1_555 1_555
H3 C4 1_555 1_555
C5 C1 1_555 1_555
H4 C5 1_555 1_555
C6 C1 1_555 1_555
H5 C6 1_555 1_555
H6 C6 1_555 1_555
C7 H7 1_555 1_555
H8 C7 1_555 1_555
C8 C4 1_555 1_555
H9 C8 1_555 1_555
C9 C12 1_555 1_555
C10 H10 1_555 1_555
H11 C10 1_555 1_555
H12 C10 1_555 1_555
C11 C7 1_555 1_555
C12 C11 1_555 1_555
C13 C12 1_555 1_555
H13 C13 1_555 1_555
H14 C13 1_555 1_555
C14 C11 1_555 1_555
H15 C14 1_555 1_555
C15 C9 1_555 1_555
H16 C15 1_555 1_555
H17 C15 1_555 1_555
C16 C9 1_555 1_555
H18 C16 1_555 1_555
H19 C16 1_555 1_555
H20 C16 1_555 1_555
C17 C13 1_555 1_555
H21 C17 1_555 1_555
H22 C17 1_555 1_555
C18 C12 1_555 1_555
H23 C18 1_555 1_555
H24 C18 1_555 1_555
H25 C18 1_555 1_555
O1 C6 1_555 1_555
C5 C8 1_555 1_555
C9 O1 1_555 1_555
C10 C11 1_555 1_555
C14 C15 1_555 1_555
C14 C17 1_555 1_555

#END
