
#######################################################################
#
#                 Cambridge Crystallographic Data Centre
#                                CCDC 
#
#######################################################################
#
# If this CIF has been generated from an entry in the Cambridge 
# Structural Database, then it will include bibliographic, chemical, 
# crystal, experimental, refinement or atomic coordinate data resulting 
# from the CCDC's data processing and validation procedures.
#
#######################################################################

data_MENQUU
_chemical_formula_moiety         'C25 H23 B1 N2 S1,C3 H6 O1'
_chemical_name_systematic        
"1,3,7,9-tetramethyl-5H-spiro[dipyrrolo[1,2-c:2',1'-f][1,3,2]diazaborinine-5,10'-phenothiaborinine] acetone solvate"
_symmetry_cell_setting           triclinic
_symmetry_space_group_name_H-M   'P -1'
_symmetry_Int_Tables_number      2
_space_group_name_Hall           '-P 1'
loop_
_symmetry_equiv_pos_site_id
_symmetry_equiv_pos_as_xyz
1 x,y,z
2 -x,-y,-z
_cell_length_a                   7.8293(16)
_cell_length_b                   12.489(3)
_cell_length_c                   12.762(3)
_cell_angle_alpha                101.18(3)
_cell_angle_beta                 94.22(3)
_cell_angle_gamma                97.69(3)
_cell_volume                     1206.8
_cell_formula_units_Z            2
loop_
_atom_site_label
_atom_site_type_symbol
_atom_site_fract_x
_atom_site_fract_y
_atom_site_fract_z
S1 S 0.41707(8) 0.88819(4) 0.30264(4)
N1 N 0.12705(17) 0.55879(12) 0.30628(11)
N2 N 0.38704(18) 0.52528(12) 0.21098(11)
C1 C 0.4146(2) 0.69080(15) 0.37222(13)
C2 C 0.2834(2) 0.80300(16) 0.19376(14)
C3 C 0.3319(2) 0.41316(14) 0.19869(13)
C4 C 0.2330(2) 0.69057(15) 0.18460(13)
B1 B 0.2919(2) 0.61986(16) 0.26895(15)
C5 C 0.4689(2) 0.63665(16) 0.45151(14)
H1 H 0.4343 0.5609 0.4418
C6 C 0.4707(2) 0.80313(16) 0.39027(14)
C7 C 0.5339(2) 0.53633(16) 0.16393(14)
C8 C 0.0814(2) 0.44530(15) 0.29079(13)
C9 C 0.4494(2) 0.35433(16) 0.14256(14)
C10 C 0.2278(3) 0.85788(18) 0.11546(16)
H2 H 0.2656 0.9330 0.1225
C11 C 0.1829(2) 0.37545(15) 0.23833(13)
H3 H 0.1493 0.2997 0.2294
C12 C 0.1204(2) 0.63717(16) 0.09412(14)
H4 H 0.0828 0.5618 0.0855
C13 C 0.5760(2) 0.85888(17) 0.48341(15)
H5 H 0.6129 0.9344 0.4936
C14 C 0.0039(2) 0.60491(16) 0.35770(14)
C15 C -0.0755(2) 0.42243(17) 0.33448(16)
C16 C 0.6246(3) 0.80232(19) 0.55936(15)
H6 H 0.6934 0.8394 0.6217
C17 C 0.5715(2) 0.69083(18) 0.54353(15)
H7 H 0.6048 0.6519 0.5948
C18 C 0.6329(3) 0.64454(17) 0.15966(16)
H8 H 0.5634 0.6831 0.1190
H9 H 0.7366 0.6335 0.1259
H10 H 0.6631 0.6874 0.2313
C19 C 0.0629(3) 0.69056(18) 0.01765(15)
H11 H -0.0128 0.6519 -0.0412
C20 C 0.5743(2) 0.43254(17) 0.12144(15)
H12 H 0.6701 0.4187 0.0849
C21 C -0.1216(3) 0.52212(18) 0.37551(16)
H13 H -0.2205 0.5331 0.4098
C22 C 0.1176(3) 0.80154(19) 0.02827(17)
H14 H 0.0799 0.8384 -0.0237
C23 C 0.0054(3) 0.72532(17) 0.38719(18)
H15 H 0.1103 0.7591 0.4318
H16 H -0.0925 0.7401 0.4257
H17 H -0.0005 0.7550 0.3233
C24 C 0.4351(3) 0.23198(17) 0.11316(19)
H18 H 0.4520 0.2032 0.1770
H19 H 0.5218 0.2124 0.0666
H20 H 0.3222 0.2014 0.0769
C25 C -0.1677(3) 0.31060(19) 0.3327(2)
H21 H -0.2037 0.2733 0.2597
H22 H -0.2677 0.3164 0.3716
H23 H -0.0918 0.2696 0.3657
O1 O 0.0442(2) 0.09344(13) 0.20135(14)
C26 C -0.0680(3) 0.02863(18) 0.2224(2)
C27 C -0.2036(4) -0.0364(3) 0.1388(3)
H24 H -0.3127 -0.0115 0.1510
H25 H -0.2128 -0.1131 0.1418
H26 H -0.1734 -0.0267 0.0693
C28 C -0.0768(4) 0.0090(3) 0.3324(2)
H27 H 0.0294 0.0428 0.3756
H28 H -0.0938 -0.0690 0.3302
H29 H -0.1718 0.0406 0.3630
loop_
_geom_bond_atom_site_label_1
_geom_bond_atom_site_label_2
_geom_bond_site_symmetry_1
_geom_bond_site_symmetry_2
S1 C2 1_555 1_555
N1 B1 1_555 1_555
N2 C3 1_555 1_555
C1 B1 1_555 1_555
C2 C4 1_555 1_555
C3 C9 1_555 1_555
C4 B1 1_555 1_555
B1 N2 1_555 1_555
C5 C1 1_555 1_555
H1 C5 1_555 1_555
C6 S1 1_555 1_555
C7 N2 1_555 1_555
C8 N1 1_555 1_555
C9 C20 1_555 1_555
C10 C2 1_555 1_555
H2 C10 1_555 1_555
C11 C3 1_555 1_555
H3 C11 1_555 1_555
C12 C4 1_555 1_555
H4 C12 1_555 1_555
C13 C6 1_555 1_555
H5 C13 1_555 1_555
C14 N1 1_555 1_555
C15 C8 1_555 1_555
C16 C13 1_555 1_555
H6 C16 1_555 1_555
C17 C5 1_555 1_555
H7 C17 1_555 1_555
C18 C7 1_555 1_555
H8 C18 1_555 1_555
H9 C18 1_555 1_555
H10 C18 1_555 1_555
C19 C12 1_555 1_555
H11 C19 1_555 1_555
C20 C7 1_555 1_555
H12 C20 1_555 1_555
C21 C14 1_555 1_555
H13 C21 1_555 1_555
C22 C10 1_555 1_555
H14 C22 1_555 1_555
C23 C14 1_555 1_555
H15 C23 1_555 1_555
H16 C23 1_555 1_555
H17 C23 1_555 1_555
C24 C9 1_555 1_555
H18 C24 1_555 1_555
H19 C24 1_555 1_555
H20 C24 1_555 1_555
C25 C15 1_555 1_555
H21 C25 1_555 1_555
H22 C25 1_555 1_555
H23 C25 1_555 1_555
O1 C26 1_555 1_555
C26 C27 1_555 1_555
C27 H24 1_555 1_555
H25 C27 1_555 1_555
H26 C27 1_555 1_555
C28 C26 1_555 1_555
H27 C28 1_555 1_555
H28 C28 1_555 1_555
H29 C28 1_555 1_555
C1 C6 1_555 1_555
C8 C11 1_555 1_555
C15 C21 1_555 1_555
C16 C17 1_555 1_555
C19 C22 1_555 1_555

#END
