
#######################################################################
#
#                 Cambridge Crystallographic Data Centre
#                                CCDC 
#
#######################################################################
#
# If this CIF has been generated from an entry in the Cambridge 
# Structural Database, then it will include bibliographic, chemical, 
# crystal, experimental, refinement or atomic coordinate data resulting 
# from the CCDC's data processing and validation procedures.
#
#######################################################################

data_MENQII
_chemical_formula_moiety         'C31 H27 B1 N2'
_chemical_name_systematic        
1',3',7',9'-tetramethyl-10'-phenyl-5H-spiro[dibenzo[b,d]borole-5,5'-dipyrrolo[1,2-c:2',1'-f][1,3,2]diazaborinine]
_symmetry_cell_setting           monoclinic
_symmetry_space_group_name_H-M   'P 21/n'
_symmetry_Int_Tables_number      14
_space_group_name_Hall           '-P 2yn'
loop_
_symmetry_equiv_pos_site_id
_symmetry_equiv_pos_as_xyz
1 x,y,z
2 1/2-x,1/2+y,1/2-z
3 -x,-y,-z
4 1/2+x,1/2-y,1/2+z
_cell_length_a                   10.4394(5)
_cell_length_b                   11.3922(5)
_cell_length_c                   19.9876(10)
_cell_angle_alpha                90
_cell_angle_beta                 96.2490(10)
_cell_angle_gamma                90
_cell_volume                     2362.96
_exptl_crystal_description       block
_cell_formula_units_Z            4
loop_
_atom_site_label
_atom_site_type_symbol
_atom_site_fract_x
_atom_site_fract_y
_atom_site_fract_z
B1 B 0.24620(13) 0.25268(12) 0.00204(7)
N1 N 0.12490(9) 0.30333(9) 0.03248(5)
N2 N 0.34910(9) 0.22916(9) 0.06352(5)
C1 C 0.20878(11) 0.13829(11) -0.04418(6)
C2 C 0.15121(12) 0.03302(11) -0.03007(7)
H1 H 0.1319 0.0174 0.0144
C3 C 0.12125(13) -0.05034(12) -0.08049(7)
H2 H 0.0810 -0.1220 -0.0704
C4 C 0.15031(13) -0.02843(13) -0.14523(7)
H3 H 0.1303 -0.0857 -0.1793
C5 C 0.20830(13) 0.07619(12) -0.16092(7)
H4 H 0.2284 0.0907 -0.2054
C6 C 0.23659(11) 0.15938(11) -0.11057(6)
C7 C 0.29420(11) 0.27746(11) -0.11609(6)
C8 C 0.33939(12) 0.32921(12) -0.17190(7)
H5 H 0.3313 0.2898 -0.2140
C9 C 0.39670(13) 0.43949(13) -0.16529(7)
H6 H 0.4281 0.4755 -0.2032
C10 C 0.40827(12) 0.49718(12) -0.10399(7)
H7 H 0.4488 0.5719 -0.0997
C11 C 0.36056(12) 0.44571(11) -0.04854(7)
H8 H 0.3679 0.4861 -0.0067
C12 C 0.30246(11) 0.33623(11) -0.05368(6)
C13 C 0.01114(12) 0.33279(11) -0.00170(7)
C14 C -0.07104(12) 0.37605(12) 0.04344(7)
H9 H -0.1568 0.4025 0.0317
C15 C -0.00788(12) 0.37410(11) 0.10735(7)
C16 C 0.11724(11) 0.32724(11) 0.10082(6)
C17 C 0.22101(11) 0.30324(11) 0.14874(6)
C18 C 0.33449(11) 0.25289(11) 0.13102(6)
C19 C 0.44876(12) 0.21630(11) 0.17153(7)
C20 C 0.52914(12) 0.17374(12) 0.12713(7)
H10 H 0.6130 0.1427 0.1391
C21 C 0.46809(12) 0.18334(12) 0.06167(7)
C22 C -0.02099(13) 0.31939(13) -0.07563(7)
H11 H 0.0490 0.3519 -0.0989
H12 H -0.1011 0.3615 -0.0900
H13 H -0.0320 0.2360 -0.0868
C23 C -0.06510(13) 0.41270(14) 0.16934(7)
H14 H -0.1436 0.4582 0.1564
H15 H -0.0028 0.4616 0.1970
H16 H -0.0864 0.3436 0.1952
C24 C 0.52550(14) 0.15512(15) -0.00129(7)
H17 H 0.4643 0.1084 -0.0310
H18 H 0.6051 0.1102 0.0097
H19 H 0.5449 0.2281 -0.0241
C25 C 0.47913(13) 0.21792(14) 0.24633(7)
H20 H 0.5614 0.1779 0.2588
H21 H 0.4106 0.1775 0.2671
H22 H 0.4853 0.2994 0.2621
C26 C 0.21335(11) 0.33504(11) 0.22049(6)
C27 C 0.15180(13) 0.26310(12) 0.26302(7)
H23 H 0.1119 0.1925 0.2462
C28 C 0.14821(14) 0.29362(14) 0.32982(7)
H24 H 0.1066 0.2436 0.3588
C29 C 0.20502(14) 0.39672(14) 0.35445(7)
H25 H 0.2018 0.4180 0.4002
C30 C 0.26630(15) 0.46868(14) 0.31257(7)
H26 H 0.3058 0.5393 0.3296
C31 C 0.27043(13) 0.43833(12) 0.24583(7)
H27 H 0.3126 0.4884 0.2171
loop_
_geom_bond_atom_site_label_1
_geom_bond_atom_site_label_2
_geom_bond_site_symmetry_1
_geom_bond_site_symmetry_2
B1 N1 1_555 1_555
N1 C13 1_555 1_555
N2 B1 1_555 1_555
C1 B1 1_555 1_555
C2 C1 1_555 1_555
H1 C2 1_555 1_555
C3 C2 1_555 1_555
H2 C3 1_555 1_555
C4 C3 1_555 1_555
H3 C4 1_555 1_555
C5 C4 1_555 1_555
H4 C5 1_555 1_555
C6 C1 1_555 1_555
C7 C6 1_555 1_555
C8 C7 1_555 1_555
H5 C8 1_555 1_555
C9 C8 1_555 1_555
H6 C9 1_555 1_555
C10 C9 1_555 1_555
H7 C10 1_555 1_555
C11 C10 1_555 1_555
H8 C11 1_555 1_555
C12 B1 1_555 1_555
C13 C14 1_555 1_555
C14 H9 1_555 1_555
C15 C14 1_555 1_555
C16 N1 1_555 1_555
C17 C16 1_555 1_555
C18 N2 1_555 1_555
C19 C18 1_555 1_555
C20 C19 1_555 1_555
H10 C20 1_555 1_555
C21 N2 1_555 1_555
C22 C13 1_555 1_555
H11 C22 1_555 1_555
H12 C22 1_555 1_555
H13 C22 1_555 1_555
C23 C15 1_555 1_555
H14 C23 1_555 1_555
H15 C23 1_555 1_555
H16 C23 1_555 1_555
C24 C21 1_555 1_555
H17 C24 1_555 1_555
H18 C24 1_555 1_555
H19 C24 1_555 1_555
C25 C19 1_555 1_555
H20 C25 1_555 1_555
H21 C25 1_555 1_555
H22 C25 1_555 1_555
C26 C17 1_555 1_555
C27 C26 1_555 1_555
H23 C27 1_555 1_555
C28 C27 1_555 1_555
H24 C28 1_555 1_555
C29 C28 1_555 1_555
H25 C29 1_555 1_555
C30 C29 1_555 1_555
H26 C30 1_555 1_555
C31 C26 1_555 1_555
H27 C31 1_555 1_555
C5 C6 1_555 1_555
C7 C12 1_555 1_555
C11 C12 1_555 1_555
C15 C16 1_555 1_555
C17 C18 1_555 1_555
C20 C21 1_555 1_555
C30 C31 1_555 1_555

#END
