
#######################################################################
#
#                 Cambridge Crystallographic Data Centre
#                                CCDC 
#
#######################################################################
#
# If this CIF has been generated from an entry in the Cambridge 
# Structural Database, then it will include bibliographic, chemical, 
# crystal, experimental, refinement or atomic coordinate data resulting 
# from the CCDC's data processing and validation procedures.
#
#######################################################################

data_MENQEE
_chemical_formula_moiety         'C25 H23 B1 N2 O1'
_chemical_name_systematic        
1,3,7,9-tetramethyl-5H-spiro[dipyrrolo[1,2-c:2',1'-f][1,3,2]diazaborinine-5,10'-phenoxaborinine]
_symmetry_cell_setting           triclinic
_symmetry_space_group_name_H-M   'P -1'
_symmetry_Int_Tables_number      2
_space_group_name_Hall           '-P 1'
loop_
_symmetry_equiv_pos_site_id
_symmetry_equiv_pos_as_xyz
1 x,y,z
2 -x,-y,-z
_cell_length_a                   7.7972(4)
_cell_length_b                   11.7876(6)
_cell_length_c                   12.3016(7)
_cell_angle_alpha                66.098(3)
_cell_angle_beta                 82.745(4)
_cell_angle_gamma                77.286(4)
_cell_volume                     1007.46
_exptl_crystal_description       plate
_cell_formula_units_Z            2
loop_
_atom_site_label
_atom_site_type_symbol
_atom_site_fract_x
_atom_site_fract_y
_atom_site_fract_z
B1 B 0.2598(4) 0.6874(3) 0.7017(3)
O1 O 0.2672(4) 0.4996(2) 0.5946(2)
N1 N 0.3864(3) 0.7801(2) 0.6895(2)
N2 N 0.1087(3) 0.7072(2) 0.7947(2)
C1 C 0.1811(4) 0.7176(3) 0.5763(3)
C2 C 0.1009(4) 0.8390(3) 0.5041(3)
H1 H 0.0943 0.9061 0.5293
C3 C 0.0307(5) 0.8648(4) 0.3967(3)
H2 H -0.0230 0.9486 0.3493
C4 C 0.0390(5) 0.7691(4) 0.3592(3)
H3 H -0.0098 0.7864 0.2859
C5 C 0.1182(5) 0.6471(4) 0.4276(3)
H4 H 0.1235 0.5802 0.4023
C6 C 0.1899(5) 0.6245(3) 0.5344(3)
C7 C 0.3606(5) 0.4643(3) 0.6951(3)
C8 C 0.4495(6) 0.3393(3) 0.7363(3)
H5 H 0.4423 0.2866 0.6962
C9 C 0.5481(5) 0.2929(3) 0.8361(3)
H6 H 0.6092 0.2078 0.8650
C10 C 0.5580(5) 0.3698(3) 0.8938(3)
H7 H 0.6273 0.3385 0.9617
C11 C 0.4659(4) 0.4935(3) 0.8518(3)
H8 H 0.4718 0.5453 0.8931
C12 C 0.3646(4) 0.5444(3) 0.7509(2)
C13 C -0.0304(4) 0.6487(3) 0.8353(3)
C14 C -0.1256(5) 0.6864(3) 0.9236(3)
H9 H -0.2290 0.6585 0.9659
C15 C -0.0436(5) 0.7704(3) 0.9381(3)
C16 C 0.1035(4) 0.7845(3) 0.8572(2)
C17 C 0.2324(4) 0.8547(3) 0.8374(3)
H10 H 0.2249 0.9064 0.8810
C18 C 0.3717(4) 0.8529(3) 0.7568(3)
C19 C 0.5168(4) 0.9154(3) 0.7273(3)
C20 C 0.6166(5) 0.8805(3) 0.6416(3)
H11 H 0.7227 0.9078 0.6038
C21 C 0.5344(4) 0.7974(3) 0.6196(3)
C22 C -0.0720(5) 0.5580(3) 0.7915(4)
H12 H 0.0248 0.4850 0.8084
H13 H -0.0874 0.5993 0.7055
H14 H -0.1807 0.5296 0.8318
C23 C -0.0942(6) 0.8356(5) 1.0233(4)
H15 H -0.1951 0.8048 1.0742
H16 H -0.1257 0.9269 0.9785
H17 H 0.0053 0.8176 1.0729
C24 C 0.5955(5) 0.7366(4) 0.5341(3)
H18 H 0.6107 0.6447 0.5762
H19 H 0.7081 0.7594 0.4962
H20 H 0.5082 0.7653 0.4732
C25 C 0.5522(6) 0.9992(3) 0.7830(4)
H21 H 0.6448 1.0450 0.7361
H22 H 0.5904 0.9477 0.8643
H23 H 0.4444 1.0596 0.7852
loop_
_geom_bond_atom_site_label_1
_geom_bond_atom_site_label_2
_geom_bond_site_symmetry_1
_geom_bond_site_symmetry_2
B1 N1 1_555 1_555
O1 C6 1_555 1_555
N1 C18 1_555 1_555
N2 B1 1_555 1_555
C1 B1 1_555 1_555
C2 C1 1_555 1_555
H1 C2 1_555 1_555
C3 C2 1_555 1_555
H2 C3 1_555 1_555
C4 C3 1_555 1_555
H3 C4 1_555 1_555
C5 C4 1_555 1_555
H4 C5 1_555 1_555
C6 C1 1_555 1_555
C7 O1 1_555 1_555
C8 C7 1_555 1_555
H5 C8 1_555 1_555
C9 C8 1_555 1_555
H6 C9 1_555 1_555
C10 C9 1_555 1_555
H7 C10 1_555 1_555
C11 C10 1_555 1_555
H8 C11 1_555 1_555
C12 B1 1_555 1_555
C13 N2 1_555 1_555
C14 C13 1_555 1_555
H9 C14 1_555 1_555
C15 C14 1_555 1_555
C16 N2 1_555 1_555
C17 C16 1_555 1_555
H10 C17 1_555 1_555
C18 C17 1_555 1_555
C19 C18 1_555 1_555
C20 C19 1_555 1_555
H11 C20 1_555 1_555
C21 N1 1_555 1_555
C22 C13 1_555 1_555
H12 C22 1_555 1_555
H13 C22 1_555 1_555
H14 C22 1_555 1_555
C23 C15 1_555 1_555
H15 C23 1_555 1_555
H16 C23 1_555 1_555
H17 C23 1_555 1_555
C24 C21 1_555 1_555
H18 C24 1_555 1_555
H19 C24 1_555 1_555
H20 C24 1_555 1_555
C25 C19 1_555 1_555
H21 C25 1_555 1_555
H22 C25 1_555 1_555
H23 C25 1_555 1_555
C5 C6 1_555 1_555
C7 C12 1_555 1_555
C11 C12 1_555 1_555
C15 C16 1_555 1_555
C20 C21 1_555 1_555

#END
