
#######################################################################
#
#                 Cambridge Crystallographic Data Centre
#                                CCDC 
#
#######################################################################
#
# If this CIF has been generated from an entry in the Cambridge 
# Structural Database, then it will include bibliographic, chemical, 
# crystal, experimental, refinement or atomic coordinate data resulting 
# from the CCDC's data processing and validation procedures.
#
#######################################################################

data_MENRIJ
_chemical_formula_moiety         'C31 H32 B1 F10 P1'
_chemical_name_systematic        
1-(2,4,6-tri-isopropylphenyl)-4,4-bis(pentafluorophenyl)-1-phosphonia-4-boratacyclohexane
_symmetry_cell_setting           monoclinic
_symmetry_space_group_name_H-M   'P 21/n'
_symmetry_Int_Tables_number      14
_space_group_name_Hall           '-P 2yn'
loop_
_symmetry_equiv_pos_site_id
_symmetry_equiv_pos_as_xyz
1 x,y,z
2 1/2-x,1/2+y,1/2-z
3 -x,-y,-z
4 1/2+x,1/2-y,1/2+z
_cell_length_a                   17.6792(14)
_cell_length_b                   8.5320(7)
_cell_length_c                   19.5972(15)
_cell_angle_alpha                90
_cell_angle_beta                 99.052(4)
_cell_angle_gamma                90
_cell_volume                     2919.21
_exptl_crystal_colour            colorless
_exptl_crystal_description       plate
_cell_formula_units_Z            4
loop_
_atom_site_label
_atom_site_type_symbol
_atom_site_fract_x
_atom_site_fract_y
_atom_site_fract_z
P1 P 0.67021(4) 0.51290(7) 0.37500(3)
H1 H 0.7255(14) 0.611(3) 0.3832(12)
C1 C 0.70316(14) 0.3601(3) 0.32416(11)
H2 H 0.7535 0.3212 0.3472
H3 H 0.6665 0.2715 0.3198
C2 C 0.71043(13) 0.4236(3) 0.25187(11)
H4 H 0.7312 0.3399 0.2251
H5 H 0.7474 0.5115 0.2569
C3 C 0.59102(14) 0.6163(3) 0.32618(11)
H6 H 0.5432 0.5573 0.3281
H7 H 0.5861 0.7203 0.3474
C4 C 0.60106(14) 0.6386(3) 0.24947(11)
H8 H 0.639 0.7232 0.2476
H9 H 0.5516 0.6758 0.2237
C5 C 0.65675(13) 0.4473(3) 0.45976(11)
C6 C 0.70600(13) 0.5019(3) 0.51921(12)
C7 C 0.69893(14) 0.4332(3) 0.58258(12)
H10 H 0.7326 0.4663 0.6226
C8 C 0.64507(13) 0.3190(3) 0.58965(11)
C9 C 0.59613(14) 0.2718(3) 0.53078(11)
H11 H 0.5577 0.1964 0.5353
C10 C 0.60121(13) 0.3305(3) 0.46550(12)
C11 C 0.76674(14) 0.6279(3) 0.51763(12)
H12 H 0.7492 0.6978 0.4773
C12 C 0.84261(15) 0.5522(3) 0.50629(13)
H13 H 0.8611 0.4829 0.5452
H14 H 0.8807 0.6343 0.503
H15 H 0.8345 0.4913 0.4634
C13 C 0.77900(16) 0.7299(3) 0.58283(13)
H16 H 0.7297 0.7725 0.5909
H17 H 0.8139 0.8162 0.5767
H18 H 0.8013 0.6661 0.6225
C14 C 0.63865(15) 0.2425(3) 0.65840(12)
H19 H 0.5829 0.2321 0.6613
C15 C 0.67547(16) 0.3367(3) 0.72112(12)
H20 H 0.7313 0.3339 0.7241
H21 H 0.661 0.2912 0.7631
H22 H 0.6577 0.4456 0.7164
C16 C 0.67214(18) 0.0778(3) 0.65986(14)
H23 H 0.6453 0.0171 0.621
H24 H 0.666 0.0264 0.7034
H25 H 0.7267 0.084 0.6562
C17 C 0.54533(13) 0.2678(3) 0.40448(12)
H26 H 0.5586 0.3169 0.3616
C18 C 0.46318(14) 0.3159(3) 0.41053(14)
H27 H 0.4287 0.2846 0.3686
H28 H 0.4608 0.4298 0.4162
H29 H 0.4475 0.2641 0.4507
C19 C 0.55146(15) 0.0898(3) 0.39685(13)
H30 H 0.6043 0.0618 0.3927
H31 H 0.5171 0.0555 0.3554
H32 H 0.5369 0.0383 0.4376
B1 B 0.62848(15) 0.4850(3) 0.20822(13)
C20 C 0.63582(13) 0.5378(3) 0.12795(11)
F1 F 0.76684(7) 0.46436(17) 0.12976(7)
C21 C 0.70019(13) 0.5247(3) 0.09568(11)
F2 F 0.76867(8) 0.55067(18) 0.00157(7)
C22 C 0.70329(14) 0.5679(3) 0.02799(12)
F3 F 0.64156(9) 0.67181(17) -0.07753(7)
C23 C 0.63947(15) 0.6292(3) -0.01178(11)
F4 F 0.51050(8) 0.70568(17) -0.02159(7)
C24 C 0.57357(14) 0.6445(3) 0.01685(12)
F5 F 0.50474(7) 0.61107(16) 0.10692(6)
C25 C 0.57298(13) 0.5985(3) 0.08428(11)
C26 C 0.56742(13) 0.3346(3) 0.19903(11)
F6 F 0.65687(8) 0.18403(16) 0.14784(7)
C27 C 0.58871(14) 0.1945(3) 0.17139(11)
F7 F 0.57125(10) -0.07038(16) 0.13607(8)
C28 C 0.54515(15) 0.0596(3) 0.16363(12)
F8 F 0.43108(10) -0.07002(19) 0.17885(8)
C29 C 0.47416(15) 0.0602(3) 0.18416(12)
F9 F 0.37774(8) 0.2025(2) 0.22651(8)
C30 C 0.44836(14) 0.1968(3) 0.20918(12)
F10 F 0.46201(8) 0.45812(17) 0.23910(7)
C31 C 0.49391(14) 0.3288(3) 0.21543(12)
loop_
_geom_bond_atom_site_label_1
_geom_bond_atom_site_label_2
_geom_bond_site_symmetry_1
_geom_bond_site_symmetry_2
P1 H1 1_555 1_555
C1 P1 1_555 1_555
H2 C1 1_555 1_555
H3 C1 1_555 1_555
C2 C1 1_555 1_555
H4 C2 1_555 1_555
H5 C2 1_555 1_555
C3 P1 1_555 1_555
H6 C3 1_555 1_555
H7 C3 1_555 1_555
C4 C3 1_555 1_555
H8 C4 1_555 1_555
H9 C4 1_555 1_555
C5 P1 1_555 1_555
C6 C5 1_555 1_555
C7 C6 1_555 1_555
H10 C7 1_555 1_555
C8 C7 1_555 1_555
C9 C8 1_555 1_555
H11 C9 1_555 1_555
C10 C5 1_555 1_555
C11 C6 1_555 1_555
H12 C11 1_555 1_555
C12 C11 1_555 1_555
H13 C12 1_555 1_555
H14 C12 1_555 1_555
H15 C12 1_555 1_555
C13 C11 1_555 1_555
H16 C13 1_555 1_555
H17 C13 1_555 1_555
H18 C13 1_555 1_555
C14 C8 1_555 1_555
H19 C14 1_555 1_555
C15 C14 1_555 1_555
H20 C15 1_555 1_555
H21 C15 1_555 1_555
H22 C15 1_555 1_555
C16 C14 1_555 1_555
H23 C16 1_555 1_555
H24 C16 1_555 1_555
H25 C16 1_555 1_555
C17 C10 1_555 1_555
H26 C17 1_555 1_555
C18 C17 1_555 1_555
H27 C18 1_555 1_555
H28 C18 1_555 1_555
H29 C18 1_555 1_555
C19 C17 1_555 1_555
H30 C19 1_555 1_555
H31 C19 1_555 1_555
H32 C19 1_555 1_555
B1 C2 1_555 1_555
C20 B1 1_555 1_555
F1 C21 1_555 1_555
C21 C20 1_555 1_555
F2 C22 1_555 1_555
C22 C21 1_555 1_555
F3 C23 1_555 1_555
C23 C22 1_555 1_555
F4 C24 1_555 1_555
C24 C23 1_555 1_555
F5 C25 1_555 1_555
C25 C20 1_555 1_555
C26 B1 1_555 1_555
F6 C27 1_555 1_555
C27 C26 1_555 1_555
F7 C28 1_555 1_555
C28 C27 1_555 1_555
F8 C29 1_555 1_555
C29 C28 1_555 1_555
F9 C30 1_555 1_555
C30 C29 1_555 1_555
F10 C31 1_555 1_555
C31 C26 1_555 1_555
C4 B1 1_555 1_555
C9 C10 1_555 1_555
C24 C25 1_555 1_555
C30 C31 1_555 1_555

#END
