
#######################################################################
#
#                 Cambridge Crystallographic Data Centre
#                                CCDC 
#
#######################################################################
#
# If this CIF has been generated from an entry in the Cambridge 
# Structural Database, then it will include bibliographic, chemical, 
# crystal, experimental, refinement or atomic coordinate data resulting 
# from the CCDC's data processing and validation procedures.
#
#######################################################################

data_MENSAC
_chemical_formula_moiety         'C141 H114 B6 F60 O3 P3,C7 H8'
_chemical_name_systematic        
'4,4,12,12,20,20,25,25,26,26,27,27-dodecakis(pentafluorophenyl)-1,9,17-(2,4,6-tri-t-butylphenyl)-5,13,21-trioxa-1\l^5^,9\l^5^,17\l^5^-triphospha-4\l^5^,12\l^5^,20\l^5^,25\l^5^,26\l^5^,27\l^5^-hexaboratetracyclo[20.2.1.1^6,9^.1^14,17^]heptacosane toluene solvate'
_symmetry_cell_setting           monoclinic
_symmetry_space_group_name_H-M   'P 21/n'
_symmetry_Int_Tables_number      14
_space_group_name_Hall           '-P 2yn'
loop_
_symmetry_equiv_pos_site_id
_symmetry_equiv_pos_as_xyz
1 x,y,z
2 1/2-x,1/2+y,1/2-z
3 -x,-y,-z
4 1/2+x,1/2-y,1/2+z
_cell_length_a                   12.29160(10)
_cell_length_b                   38.2278(4)
_cell_length_c                   34.9960(4)
_cell_angle_alpha                90
_cell_angle_beta                 90.268(3)
_cell_angle_gamma                90
_cell_volume                     16443.8
_exptl_crystal_colour            colorless
_exptl_crystal_description       prism
_cell_formula_units_Z            4
loop_
_atom_site_label
_atom_site_type_symbol
_atom_site_fract_x
_atom_site_fract_y
_atom_site_fract_z
P1 P 0.68160(9) 0.24780(3) 0.90322(3)
C1 C 0.6252(4) 0.24204(12) 0.85480(13)
H1 H 0.5466 0.2465 0.8548
H2 H 0.6594 0.2585 0.8371
C2 C 0.6480(3) 0.20436(12) 0.84246(13)
H3 H 0.5998 0.1882 0.8560
H4 H 0.6356 0.2017 0.8149
C3 C 0.7627(3) 0.19688(12) 0.85200(12)
O1 O 0.8187(2) 0.17355(8) 0.83639(8)
C4 C 0.7015(4) 0.29570(11) 0.90976(13)
H5 H 0.6414 0.3046 0.9253
H6 H 0.7687 0.2992 0.9244
C5 C 0.7081(4) 0.31807(11) 0.87322(13)
H7 H 0.6551 0.3088 0.8548
H8 H 0.7805 0.3147 0.8622
C6 C 0.5851(3) 0.22630(12) 0.93611(12)
C7 C 0.4775(3) 0.21799(12) 0.92147(13)
C8 C 0.4360(4) 0.18504(13) 0.93060(14)
H9 H 0.3727 0.1775 0.9179
C9 C 0.4825(3) 0.16312(12) 0.95703(14)
C10 C 0.5693(3) 0.17633(12) 0.97783(14)
H10 H 0.5945 0.1635 0.9990
C11 C 0.6215(3) 0.20790(12) 0.96879(12)
C12 C 0.3930(3) 0.24420(13) 0.90482(14)
C13 C 0.3411(4) 0.23203(16) 0.86691(16)
H11 H 0.2851 0.2485 0.8592
H12 H 0.3090 0.2091 0.8704
H13 H 0.3965 0.2308 0.8473
C14 C 0.4303(4) 0.28226(13) 0.90172(14)
H14 H 0.4633 0.2895 0.9257
H15 H 0.3681 0.2971 0.8961
H16 H 0.4832 0.2844 0.8814
C15 C 0.3026(4) 0.24499(16) 0.93582(17)
H17 H 0.3349 0.2503 0.9605
H18 H 0.2671 0.2223 0.9369
H19 H 0.2494 0.2628 0.9293
C16 C 0.4344(4) 0.12681(13) 0.96617(16)
C17 C 0.3586(5) 0.11403(15) 0.93393(18)
H20 H 0.3950 0.1165 0.9096
H21 H 0.2925 0.1279 0.9338
H22 H 0.3406 0.0896 0.9381
C18 C 0.5261(5) 0.09976(15) 0.9712(2)
H23 H 0.4947 0.0770 0.9763
H24 H 0.5723 0.1066 0.9925
H25 H 0.5691 0.0987 0.9481
C19 C 0.3686(5) 0.12986(16) 1.00330(18)
H26 H 0.3401 0.1071 1.0102
H27 H 0.3088 0.1461 0.9995
H28 H 0.4154 0.1384 1.0237
C20 C 0.6988(3) 0.22201(13) 0.99979(12)
C21 C 0.7519(4) 0.25676(14) 0.98906(14)
H29 H 0.7987 0.2534 0.9671
H30 H 0.7949 0.2653 1.0105
H31 H 0.6960 0.2737 0.9828
C22 C 0.7885(4) 0.19613(14) 1.01250(14)
H32 H 0.8435 0.1946 0.9928
H33 H 0.7567 0.1732 1.0166
H34 H 0.8217 0.2044 1.0360
C23 C 0.6257(4) 0.22968(14) 1.03467(14)
H35 H 0.6667 0.2428 1.0536
H36 H 0.6015 0.2078 1.0458
H37 H 0.5630 0.2432 1.0265
B1 B 0.8192(4) 0.21940(14) 0.88649(15)
C24 C 0.8740(3) 0.19028(12) 0.91439(12)
C25 C 0.9831(4) 0.18716(13) 0.92587(14)
F1 F 1.0571(2) 0.21145(8) 0.91546(9)
C26 C 1.0231(4) 0.16029(15) 0.94803(16)
F2 F 1.1280(2) 0.16069(10) 0.95867(11)
C27 C 0.9576(5) 0.13308(14) 0.95782(16)
F3 F 0.9963(3) 0.10676(10) 0.97904(12)
C28 C 0.8513(4) 0.13305(13) 0.94566(15)
F4 F 0.7857(3) 0.10611(8) 0.95413(10)
C29 C 0.8135(4) 0.16099(13) 0.92449(13)
F5 F 0.71011(19) 0.15801(7) 0.91112(7)
C30 C 0.9012(3) 0.24940(11) 0.86991(13)
C31 C 0.9664(3) 0.26981(12) 0.89401(13)
F6 F 0.9545(2) 0.26735(7) 0.93219(7)
C32 C 1.0456(3) 0.29262(12) 0.88128(14)
F7 F 1.1084(2) 0.30990(8) 0.90611(8)
C33 C 1.0585(4) 0.29706(12) 0.84280(15)
F8 F 1.1335(2) 0.31945(8) 0.82979(9)
C34 C 0.9931(4) 0.27954(12) 0.81777(14)
F9 F 1.0026(2) 0.28562(7) 0.78019(8)
C35 C 0.9159(3) 0.25638(12) 0.83164(13)
F10 F 0.8525(2) 0.24043(7) 0.80499(7)
B2 B 0.7947(4) 0.14554(15) 0.80382(14)
C36 C 0.9104(4) 0.12424(13) 0.80181(13)
C37 C 1.0086(4) 0.13428(15) 0.81720(15)
F11 F 1.0226(2) 0.16679(9) 0.83204(10)
C38 C 1.0996(4) 0.11279(17) 0.82031(18)
F12 F 1.1897(3) 0.12455(12) 0.83805(12)
C39 C 1.0990(5) 0.08060(17) 0.80472(19)
F13 F 1.1860(3) 0.05992(11) 0.80618(14)
C40 C 1.0053(5) 0.06910(15) 0.78680(17)
F14 F 1.0022(3) 0.03698(9) 0.77083(12)
C41 C 0.9144(4) 0.09023(14) 0.78592(15)
F15 F 0.8232(2) 0.07708(7) 0.76945(8)
C42 C 0.7000(4) 0.12064(12) 0.82209(13)
C43 C 0.5918(4) 0.12001(14) 0.81161(14)
F16 F 0.5568(2) 0.14149(9) 0.78358(9)
C44 C 0.5143(4) 0.09810(16) 0.82688(17)
F17 F 0.4120(3) 0.09901(11) 0.81452(11)
C45 C 0.5429(5) 0.07606(15) 0.85530(18)
F18 F 0.4696(3) 0.05407(9) 0.87099(11)
C46 C 0.6479(5) 0.07565(14) 0.86888(15)
F19 F 0.6787(3) 0.05436(8) 0.89755(9)
C47 C 0.7236(4) 0.09782(13) 0.85237(15)
F20 F 0.8246(2) 0.09657(8) 0.86751(8)
P2 P 0.84310(9) 0.38570(3) 0.73435(3)
C48 C 0.9091(3) 0.36066(12) 0.77260(12)
H38 H 0.9001 0.3356 0.7676
H39 H 0.9872 0.3658 0.7728
C49 C 0.8612(3) 0.36941(12) 0.81144(12)
H40 H 0.8753 0.3503 0.8295
H41 H 0.8943 0.3908 0.8216
C50 C 0.7401(3) 0.37446(11) 0.80624(13)
O2 O 0.6734(2) 0.37153(8) 0.83247(8)
C51 C 0.8395(4) 0.35733(11) 0.69133(13)
H42 H 0.7675 0.3600 0.6796
H43 H 0.8925 0.3667 0.6732
C52 C 0.8617(3) 0.31772(11) 0.69512(13)
H44 H 0.7997 0.3065 0.7077
H45 H 0.9261 0.3141 0.7112
C53 C 0.9223(3) 0.42623(11) 0.72776(13)
C54 C 0.8696(4) 0.45830(12) 0.71823(14)
C55 C 0.9096(4) 0.48876(13) 0.73511(16)
H46 H 0.8741 0.5100 0.7296
C56 C 0.9973(4) 0.48959(13) 0.75907(17)
C57 C 1.0595(4) 0.45940(13) 0.76074(16)
H47 H 1.1259 0.4602 0.7741
C58 C 1.0294(4) 0.42815(12) 0.74381(14)
C59 C 0.7848(4) 0.46406(13) 0.68566(15)
C60 C 0.7410(4) 0.43063(15) 0.66808(16)
H48 H 0.7026 0.4173 0.6874
H49 H 0.8010 0.4168 0.6583
H50 H 0.6915 0.4364 0.6473
C61 C 0.8476(5) 0.48279(17) 0.65404(19)
H51 H 0.9118 0.4693 0.6476
H52 H 0.8693 0.5058 0.6629
H53 H 0.8014 0.4851 0.6316
C62 C 0.6866(5) 0.48599(17) 0.69768(19)
H54 H 0.6436 0.4919 0.6753
H55 H 0.7116 0.5073 0.7100
H56 H 0.6424 0.4727 0.7154
C63 C 1.0327(5) 0.52234(16) 0.7812(2)
C64 C 1.0343(7) 0.5136(2) 0.8242(3)
H57 H 0.9631 0.5053 0.8319
H58 H 1.0529 0.5344 0.8387
H59 H 1.0880 0.4955 0.8291
C65 C 0.9531(6) 0.55276(17) 0.7750(3)
H60 H 0.9513 0.5590 0.7482
H61 H 0.9768 0.5728 0.7900
H62 H 0.8810 0.5458 0.7831
C66 C 1.1457(6) 0.5340(2) 0.7682(3)
H63 H 1.1980 0.5156 0.7738
H64 H 1.1663 0.5551 0.7818
H65 H 1.1445 0.5385 0.7410
C67 C 1.1275(4) 0.40296(13) 0.73650(15)
C68 C 1.1028(4) 0.37138(13) 0.71070(15)
H66 H 1.1705 0.3603 0.7032
H67 H 1.0640 0.3792 0.6881
H68 H 1.0584 0.3547 0.7245
C69 C 1.1856(4) 0.39138(15) 0.77351(17)
H69 H 1.1348 0.3788 0.7896
H70 H 1.2125 0.4118 0.7870
H71 H 1.2461 0.3762 0.7672
C70 C 1.2095(4) 0.42508(14) 0.71259(18)
H72 H 1.2353 0.4446 0.7278
H73 H 1.1734 0.4338 0.6898
H74 H 1.2707 0.4105 0.7053
B3 B 0.6967(4) 0.38763(13) 0.76466(14)
C71 C 0.6406(3) 0.42495(11) 0.77503(13)
C72 C 0.5302(4) 0.43298(13) 0.77553(14)
F21 F 0.4543(2) 0.40896(8) 0.76688(9)
C73 C 0.4893(4) 0.46471(14) 0.78741(17)
F22 F 0.3813(2) 0.47039(9) 0.78687(12)
C74 C 0.5570(4) 0.49062(13) 0.80083(17)
F23 F 0.5181(3) 0.52111(8) 0.81242(12)
C75 C 0.6667(4) 0.48341(13) 0.80262(16)
F24 F 0.7348(2) 0.50732(8) 0.81739(10)
C76 C 0.7044(4) 0.45165(12) 0.79078(14)
F25 F 0.81121(19) 0.44505(7) 0.79805(8)
C77 C 0.6176(3) 0.35751(12) 0.74626(13)
C78 C 0.5373(3) 0.36372(12) 0.71946(14)
F26 F 0.5310(2) 0.39500(7) 0.70162(8)
C79 C 0.4584(3) 0.34012(14) 0.70936(14)
F27 F 0.3795(2) 0.34877(8) 0.68401(9)
C80 C 0.4593(4) 0.30697(15) 0.72463(15)
F28 F 0.3841(3) 0.28304(9) 0.71574(11)
C81 C 0.5431(4) 0.29839(12) 0.74916(15)
F29 F 0.5508(3) 0.26569(7) 0.76399(9)
C82 C 0.6190(3) 0.32303(11) 0.75946(13)
F30 F 0.6999(2) 0.31253(7) 0.78323(8)
B4 B 0.6870(4) 0.36014(14) 0.87698(15)
C83 C 0.7786(4) 0.38704(12) 0.89242(13)
C84 C 0.8801(4) 0.37883(13) 0.90801(14)
F31 F 0.9065(2) 0.34498(7) 0.91280(9)
C85 C 0.9588(5) 0.40324(15) 0.91727(18)
F32 F 1.0558(3) 0.39326(10) 0.93034(13)
C86 C 0.9364(6) 0.43828(18) 0.9131(2)
F33 F 1.0122(4) 0.46207(10) 0.92146(15)
C87 C 0.8358(6) 0.44778(14) 0.89921(19)
F34 F 0.8131(4) 0.48203(9) 0.89535(13)
C88 C 0.7611(4) 0.42302(13) 0.88923(15)
F35 F 0.6662(3) 0.43445(8) 0.87484(10)
C89 C 0.5697(4) 0.36785(12) 0.89677(15)
C90 C 0.5623(5) 0.37264(15) 0.93546(17)
F36 F 0.6536(3) 0.37043(10) 0.95733(9)
C91 C 0.4670(6) 0.37929(18) 0.9545(2)
F37 F 0.4667(4) 0.38377(12) 0.99260(12)
C92 C 0.3726(6) 0.38103(19) 0.9341(3)
F38 F 0.2781(3) 0.38739(15) 0.95175(16)
C93 C 0.3734(5) 0.37507(19) 0.8954(3)
F39 F 0.2796(3) 0.37623(15) 0.87487(15)
C94 C 0.4704(4) 0.36843(16) 0.87775(19)
F40 F 0.4644(2) 0.36178(11) 0.83991(11)
P3 P 0.74603(9) 0.16923(3) 0.68247(3)
C95 C 0.6780(4) 0.21106(11) 0.69323(14)
H75 H 0.6299 0.2174 0.6719
H76 H 0.6331 0.2083 0.7161
C96 C 0.7596(4) 0.23985(12) 0.69970(16)
H77 H 0.7262 0.2626 0.6941
H78 H 0.7834 0.2399 0.7265
C97 C 0.8552(4) 0.23411(12) 0.67418(13)
O3 O 0.9019(2) 0.25806(8) 0.65657(8)
C98 C 0.7617(4) 0.14486(12) 0.72783(12)
H79 H 0.6991 0.1292 0.7305
H80 H 0.8268 0.1302 0.7259
C99 C 0.7712(4) 0.16697(12) 0.76425(12)
H81 H 0.7034 0.1802 0.7673
H82 H 0.8299 0.1840 0.7607
C100 C 0.6570(3) 0.15130(12) 0.64432(12)
C101 C 0.7008(4) 0.13243(12) 0.61282(13)
C102 C 0.6611(4) 0.13990(13) 0.57618(13)
H83 H 0.6935 0.1286 0.5553
C103 C 0.5767(4) 0.16302(14) 0.56908(15)
C104 C 0.5190(4) 0.17382(14) 0.60103(14)
H84 H 0.4547 0.1867 0.5973
C105 C 0.5515(4) 0.16654(12) 0.63836(13)
C106 C 0.5381(4) 0.17381(16) 0.52936(15)
C107 C 0.4231(5) 0.1589(2) 0.52218(19)
H85 H 0.3723 0.1696 0.5398
H86 H 0.4239 0.1338 0.5260
H87 H 0.4008 0.1640 0.4962
C108 C 0.6133(5) 0.15946(19) 0.49794(16)
H88 H 0.5892 0.1681 0.4732
H89 H 0.6107 0.1341 0.4980
H90 H 0.6873 0.1671 0.5028
C109 C 0.5360(5) 0.21385(17) 0.52732(17)
H91 H 0.6079 0.2229 0.5331
H92 H 0.4843 0.2228 0.5457
H93 H 0.5145 0.2211 0.5018
C110 C 0.7753(4) 0.09991(12) 0.61579(13)
C111 C 0.8803(4) 0.10297(14) 0.59217(15)
H94 H 0.9200 0.0811 0.5934
H95 H 0.9251 0.1216 0.6024
H96 H 0.8618 0.1081 0.5658
C112 C 0.7084(5) 0.06904(14) 0.59994(19)
H97 H 0.6962 0.0723 0.5728
H98 H 0.6390 0.0679 0.6130
H99 H 0.7480 0.0474 0.6041
C113 C 0.8032(4) 0.09100(13) 0.65705(14)
H100 H 0.8505 0.0707 0.6577
H101 H 0.7368 0.0859 0.6709
H102 H 0.8399 0.1107 0.6689
C114 C 0.4579(4) 0.16841(14) 0.66772(14)
C115 C 0.3713(4) 0.14204(19) 0.65256(17)
H103 H 0.3118 0.1405 0.6706
H104 H 0.4044 0.1192 0.6496
H105 H 0.3438 0.1500 0.6280
C116 C 0.4869(4) 0.15477(14) 0.70762(14)
H106 H 0.5340 0.1715 0.7204
H107 H 0.5241 0.1325 0.7054
H108 H 0.4209 0.1517 0.7223
C117 C 0.4056(5) 0.20505(17) 0.67126(18)
H109 H 0.4586 0.2214 0.6815
H110 H 0.3435 0.2038 0.6882
H111 H 0.3818 0.2129 0.6462
B5 B 0.8943(4) 0.19350(14) 0.66788(16)
C118 C 0.9883(4) 0.18267(13) 0.69877(13)
F41 F 1.0135(2) 0.12589(8) 0.67426(11)
C119 C 1.0420(4) 0.15101(15) 0.69954(16)
F42 F 1.1762(3) 0.11154(11) 0.72176(11)
C120 C 1.1287(4) 0.14268(18) 0.72365(18)
F43 F 1.2518(3) 0.16088(13) 0.77060(11)
C121 C 1.1666(5) 0.1672(2) 0.74791(19)
C122 C 1.1171(5) 0.1995(2) 0.74912(17)
F44 F 1.1524(3) 0.22412(13) 0.77381(11)
F45 F 0.9849(3) 0.23830(9) 0.72881(9)
C123 C 1.0297(4) 0.20592(16) 0.72524(15)
C124 C 0.9324(3) 0.19026(11) 0.62343(12)
F46 F 1.1183(2) 0.17516(9) 0.63338(9)
C125 C 1.0346(4) 0.18277(13) 0.60954(15)
F47 F 1.1619(3) 0.17409(10) 0.55991(10)
C126 C 1.0608(4) 0.18196(14) 0.57120(16)
F48 F 1.0080(3) 0.19142(9) 0.50710(9)
C127 C 0.9840(5) 0.19063(14) 0.54465(15)
F49 F 0.8092(3) 0.21211(10) 0.53113(9)
C128 C 0.8820(4) 0.20073(14) 0.55649(15)
F50 F 0.7609(2) 0.21231(7) 0.60539(8)
C129 C 0.8604(4) 0.20016(12) 0.59488(13)
B6 B 0.8813(4) 0.29937(13) 0.65324(15)
C130 C 0.7817(3) 0.30065(11) 0.62132(13)
F51 F 0.9001(2) 0.28280(8) 0.57177(8)
C131 C 0.8002(3) 0.29286(12) 0.58308(15)
F52 F 0.7475(2) 0.28694(9) 0.51833(9)
C132 C 0.7232(4) 0.29454(14) 0.55481(14)
F53 F 0.5414(3) 0.30489(12) 0.53662(11)
C133 C 0.6189(4) 0.30315(16) 0.56383(17)
F54 F 0.4921(2) 0.31809(13) 0.61097(12)
C134 C 0.5935(4) 0.30995(16) 0.60102(18)
F55 F 0.6425(2) 0.31472(9) 0.66473(9)
C135 C 0.6740(4) 0.30822(14) 0.62851(15)
C136 C 0.9948(3) 0.31419(12) 0.63572(13)
F56 F 1.1045(2) 0.27036(9) 0.66522(10)
C137 C 1.0964(4) 0.29908(13) 0.64300(15)
F57 F 1.2861(2) 0.29418(9) 0.63561(10)
C138 C 1.1927(4) 0.31126(16) 0.62875(16)
F58 F 1.2870(2) 0.35399(10) 0.59354(10)
C139 C 1.1931(4) 0.34133(17) 0.60723(16)
F59 F 1.0949(3) 0.38718(10) 0.57867(10)
C140 C 1.0974(5) 0.35767(14) 0.59946(14)
F60 F 0.9082(2) 0.36160(7) 0.60442(8)
C141 C 1.0012(4) 0.34391(13) 0.61330(14)
loop_
_geom_bond_atom_site_label_1
_geom_bond_atom_site_label_2
_geom_bond_site_symmetry_1
_geom_bond_site_symmetry_2
P1 C1 1_555 1_555
C1 H1 1_555 1_555
H2 C1 1_555 1_555
C2 C1 1_555 1_555
H3 C2 1_555 1_555
H4 C2 1_555 1_555
C3 C2 1_555 1_555
O1 C3 1_555 1_555
C4 P1 1_555 1_555
H5 C4 1_555 1_555
H6 C4 1_555 1_555
C5 C4 1_555 1_555
H7 C5 1_555 1_555
H8 C5 1_555 1_555
C6 P1 1_555 1_555
C7 C6 1_555 1_555
C8 C7 1_555 1_555
H9 C8 1_555 1_555
C9 C8 1_555 1_555
C10 C9 1_555 1_555
H10 C10 1_555 1_555
C11 C6 1_555 1_555
C12 C7 1_555 1_555
C13 C12 1_555 1_555
H11 C13 1_555 1_555
H12 C13 1_555 1_555
H13 C13 1_555 1_555
C14 C12 1_555 1_555
H14 C14 1_555 1_555
H15 C14 1_555 1_555
H16 C14 1_555 1_555
C15 C12 1_555 1_555
H17 C15 1_555 1_555
H18 C15 1_555 1_555
H19 C15 1_555 1_555
C16 C9 1_555 1_555
C17 C16 1_555 1_555
H20 C17 1_555 1_555
H21 C17 1_555 1_555
H22 C17 1_555 1_555
C18 C16 1_555 1_555
H23 C18 1_555 1_555
H24 C18 1_555 1_555
H25 C18 1_555 1_555
C19 C16 1_555 1_555
H26 C19 1_555 1_555
H27 C19 1_555 1_555
H28 C19 1_555 1_555
C20 C11 1_555 1_555
C21 C20 1_555 1_555
H29 C21 1_555 1_555
H30 C21 1_555 1_555
H31 C21 1_555 1_555
C22 C20 1_555 1_555
H32 C22 1_555 1_555
H33 C22 1_555 1_555
H34 C22 1_555 1_555
C23 C20 1_555 1_555
H35 C23 1_555 1_555
H36 C23 1_555 1_555
H37 C23 1_555 1_555
B1 P1 1_555 1_555
C24 B1 1_555 1_555
C25 C24 1_555 1_555
F1 C25 1_555 1_555
C26 C25 1_555 1_555
F2 C26 1_555 1_555
C27 C26 1_555 1_555
F3 C27 1_555 1_555
C28 C27 1_555 1_555
F4 C28 1_555 1_555
C29 C24 1_555 1_555
F5 C29 1_555 1_555
C30 B1 1_555 1_555
C31 C30 1_555 1_555
F6 C31 1_555 1_555
C32 C31 1_555 1_555
F7 C32 1_555 1_555
C33 C32 1_555 1_555
F8 C33 1_555 1_555
C34 C33 1_555 1_555
F9 C34 1_555 1_555
C35 C30 1_555 1_555
F10 C35 1_555 1_555
B2 O1 1_555 1_555
C36 B2 1_555 1_555
C37 C36 1_555 1_555
F11 C37 1_555 1_555
C38 C37 1_555 1_555
F12 C38 1_555 1_555
C39 C38 1_555 1_555
F13 C39 1_555 1_555
C40 C39 1_555 1_555
F14 C40 1_555 1_555
C41 C36 1_555 1_555
F15 C41 1_555 1_555
C42 B2 1_555 1_555
C43 C42 1_555 1_555
F16 C43 1_555 1_555
C44 C43 1_555 1_555
F17 C44 1_555 1_555
C45 C44 1_555 1_555
F18 C45 1_555 1_555
C46 C45 1_555 1_555
F19 C46 1_555 1_555
C47 C42 1_555 1_555
F20 C47 1_555 1_555
P2 C48 1_555 1_555
C48 H38 1_555 1_555
H39 C48 1_555 1_555
C49 C48 1_555 1_555
H40 C49 1_555 1_555
H41 C49 1_555 1_555
C50 C49 1_555 1_555
O2 C50 1_555 1_555
C51 P2 1_555 1_555
H42 C51 1_555 1_555
H43 C51 1_555 1_555
C52 C51 1_555 1_555
H44 C52 1_555 1_555
H45 C52 1_555 1_555
C53 P2 1_555 1_555
C54 C53 1_555 1_555
C55 C54 1_555 1_555
H46 C55 1_555 1_555
C56 C55 1_555 1_555
C57 C56 1_555 1_555
H47 C57 1_555 1_555
C58 C53 1_555 1_555
C59 C54 1_555 1_555
C60 C59 1_555 1_555
H48 C60 1_555 1_555
H49 C60 1_555 1_555
H50 C60 1_555 1_555
C61 C59 1_555 1_555
H51 C61 1_555 1_555
H52 C61 1_555 1_555
H53 C61 1_555 1_555
C62 C59 1_555 1_555
H54 C62 1_555 1_555
H55 C62 1_555 1_555
H56 C62 1_555 1_555
C63 C56 1_555 1_555
C64 C63 1_555 1_555
H57 C64 1_555 1_555
H58 C64 1_555 1_555
H59 C64 1_555 1_555
C65 C63 1_555 1_555
H60 C65 1_555 1_555
H61 C65 1_555 1_555
H62 C65 1_555 1_555
C66 C63 1_555 1_555
H63 C66 1_555 1_555
H64 C66 1_555 1_555
H65 C66 1_555 1_555
C67 C58 1_555 1_555
C68 C67 1_555 1_555
H66 C68 1_555 1_555
H67 C68 1_555 1_555
H68 C68 1_555 1_555
C69 C67 1_555 1_555
H69 C69 1_555 1_555
H70 C69 1_555 1_555
H71 C69 1_555 1_555
C70 C67 1_555 1_555
H72 C70 1_555 1_555
H73 C70 1_555 1_555
H74 C70 1_555 1_555
B3 P2 1_555 1_555
C71 B3 1_555 1_555
C72 C71 1_555 1_555
F21 C72 1_555 1_555
C73 C72 1_555 1_555
F22 C73 1_555 1_555
C74 C73 1_555 1_555
F23 C74 1_555 1_555
C75 C74 1_555 1_555
F24 C75 1_555 1_555
C76 C71 1_555 1_555
F25 C76 1_555 1_555
C77 B3 1_555 1_555
C78 C77 1_555 1_555
F26 C78 1_555 1_555
C79 C78 1_555 1_555
F27 C79 1_555 1_555
C80 C79 1_555 1_555
F28 C80 1_555 1_555
C81 C80 1_555 1_555
F29 C81 1_555 1_555
C82 C77 1_555 1_555
F30 C82 1_555 1_555
B4 C5 1_555 1_555
C83 B4 1_555 1_555
C84 C83 1_555 1_555
F31 C84 1_555 1_555
C85 C84 1_555 1_555
F32 C85 1_555 1_555
C86 C85 1_555 1_555
F33 C86 1_555 1_555
C87 C86 1_555 1_555
F34 C87 1_555 1_555
C88 C83 1_555 1_555
F35 C88 1_555 1_555
C89 B4 1_555 1_555
C90 C89 1_555 1_555
F36 C90 1_555 1_555
C91 C90 1_555 1_555
F37 C91 1_555 1_555
C92 C91 1_555 1_555
F38 C92 1_555 1_555
C93 C92 1_555 1_555
F39 C93 1_555 1_555
C94 C89 1_555 1_555
F40 C94 1_555 1_555
P3 C95 1_555 1_555
C95 H75 1_555 1_555
H76 C95 1_555 1_555
C96 C95 1_555 1_555
H77 C96 1_555 1_555
H78 C96 1_555 1_555
C97 C96 1_555 1_555
O3 C97 1_555 1_555
C98 P3 1_555 1_555
H79 C98 1_555 1_555
H80 C98 1_555 1_555
C99 B2 1_555 1_555
H81 C99 1_555 1_555
H82 C99 1_555 1_555
C100 P3 1_555 1_555
C101 C100 1_555 1_555
C102 C101 1_555 1_555
H83 C102 1_555 1_555
C103 C102 1_555 1_555
C104 C103 1_555 1_555
H84 C104 1_555 1_555
C105 C100 1_555 1_555
C106 C103 1_555 1_555
C107 C106 1_555 1_555
H85 C107 1_555 1_555
H86 C107 1_555 1_555
H87 C107 1_555 1_555
C108 C106 1_555 1_555
H88 C108 1_555 1_555
H89 C108 1_555 1_555
H90 C108 1_555 1_555
C109 C106 1_555 1_555
H91 C109 1_555 1_555
H92 C109 1_555 1_555
H93 C109 1_555 1_555
C110 C101 1_555 1_555
C111 C110 1_555 1_555
H94 C111 1_555 1_555
H95 C111 1_555 1_555
H96 C111 1_555 1_555
C112 C110 1_555 1_555
H97 C112 1_555 1_555
H98 C112 1_555 1_555
H99 C112 1_555 1_555
C113 C110 1_555 1_555
H100 C113 1_555 1_555
H101 C113 1_555 1_555
H102 C113 1_555 1_555
C114 C105 1_555 1_555
C115 C114 1_555 1_555
H103 C115 1_555 1_555
H104 C115 1_555 1_555
H105 C115 1_555 1_555
C116 C114 1_555 1_555
H106 C116 1_555 1_555
H107 C116 1_555 1_555
H108 C116 1_555 1_555
C117 C114 1_555 1_555
H109 C117 1_555 1_555
H110 C117 1_555 1_555
H111 C117 1_555 1_555
B5 P3 1_555 1_555
C118 B5 1_555 1_555
F41 C119 1_555 1_555
C119 C118 1_555 1_555
F42 C120 1_555 1_555
C120 C119 1_555 1_555
F43 C121 1_555 1_555
C121 C120 1_555 1_555
C122 C121 1_555 1_555
F44 C122 1_555 1_555
F45 C123 1_555 1_555
C123 C118 1_555 1_555
C124 B5 1_555 1_555
F46 C125 1_555 1_555
C125 C124 1_555 1_555
F47 C126 1_555 1_555
C126 C125 1_555 1_555
F48 C127 1_555 1_555
C127 C126 1_555 1_555
F49 C128 1_555 1_555
C128 C127 1_555 1_555
F50 C129 1_555 1_555
C129 C124 1_555 1_555
B6 C52 1_555 1_555
C130 B6 1_555 1_555
F51 C131 1_555 1_555
C131 C130 1_555 1_555
F52 C132 1_555 1_555
C132 C131 1_555 1_555
F53 C133 1_555 1_555
C133 C132 1_555 1_555
F54 C134 1_555 1_555
C134 C133 1_555 1_555
F55 C135 1_555 1_555
C135 C130 1_555 1_555
C136 B6 1_555 1_555
F56 C137 1_555 1_555
C137 C136 1_555 1_555
F57 C138 1_555 1_555
C138 C137 1_555 1_555
F58 C139 1_555 1_555
C139 C138 1_555 1_555
F59 C140 1_555 1_555
C140 C139 1_555 1_555
F60 C141 1_555 1_555
C141 C136 1_555 1_555
C3 B1 1_555 1_555
C10 C11 1_555 1_555
C28 C29 1_555 1_555
C34 C35 1_555 1_555
C40 C41 1_555 1_555
C46 C47 1_555 1_555
C50 B3 1_555 1_555
O2 B4 1_555 1_555
C57 C58 1_555 1_555
C75 C76 1_555 1_555
C81 C82 1_555 1_555
C87 C88 1_555 1_555
C93 C94 1_555 1_555
C97 B5 1_555 1_555
O3 B6 1_555 1_555
C98 C99 1_555 1_555
C104 C105 1_555 1_555
C122 C123 1_555 1_555
C128 C129 1_555 1_555
C134 C135 1_555 1_555
C140 C141 1_555 1_555

#END
