
#######################################################################
#
#                 Cambridge Crystallographic Data Centre
#                                CCDC 
#
#######################################################################
#
# If this CIF has been generated from an entry in the Cambridge 
# Structural Database, then it will include bibliographic, chemical, 
# crystal, experimental, refinement or atomic coordinate data resulting 
# from the CCDC's data processing and validation procedures.
#
#######################################################################

data_MENSOO
_chemical_formula_moiety         'C14 H20 O1'
_chemical_name_systematic        4-(4-Ethylcyclohexyl)phenol
_symmetry_cell_setting           monoclinic
_symmetry_space_group_name_H-M   'P 21/c'
_symmetry_Int_Tables_number      14
_space_group_name_Hall           '-P 2ybc'
loop_
_symmetry_equiv_pos_site_id
_symmetry_equiv_pos_as_xyz
1 x,y,z
2 -x,1/2+y,1/2-z
3 -x,-y,-z
4 x,1/2-y,1/2+z
_cell_length_a                   16.121(5)
_cell_length_b                   5.4451(17)
_cell_length_c                   13.478(4)
_cell_angle_alpha                90
_cell_angle_beta                 92.727(6)
_cell_angle_gamma                90
_cell_volume                     1181.77
_exptl_crystal_colour            colorless
_exptl_crystal_description       block
_chemical_melting_point          '400-402 K'
_cell_formula_units_Z            4
_exptl_crystal_recrystallization_method methanol
loop_
_atom_site_label
_atom_site_type_symbol
_atom_site_fract_x
_atom_site_fract_y
_atom_site_fract_z
O1 O 0.01778(8) 0.2470(2) 0.03426(9)
H1 H 0.0077 0.1034 0.0144
C1 C 0.41441(13) 0.0380(4) 0.62128(15)
H3 H 0.4696 0.0904 0.6050
H4 H 0.3919 0.1630 0.6637
C2 C 0.11000(12) 0.4034(3) 0.27864(14)
H5 H 0.1062 0.5276 0.3256
C3 C 0.06088(12) 0.4169(3) 0.19176(14)
H6 H 0.0244 0.5476 0.1811
C4 C 0.06642(11) 0.2361(3) 0.12162(13)
C5 C 0.11976(12) 0.0414(3) 0.13846(13)
H7 H 0.1232 -0.0823 0.0913
C6 C 0.16798(12) 0.0308(3) 0.22560(13)
H8 H 0.2039 -0.1013 0.2362
C7 C 0.16452(12) 0.2111(3) 0.29784(13)
C8 C 0.21922(11) 0.2033(3) 0.39217(13)
H9 H 0.1989 0.3300 0.4366
C9 C 0.21608(12) -0.0410(3) 0.44758(14)
H10 H 0.1591 -0.0752 0.4633
H11 H 0.2343 -0.1713 0.4047
C10 C 0.27024(12) -0.0400(4) 0.54285(14)
H12 H 0.2683 -0.2012 0.5733
H13 H 0.2481 0.0774 0.5887
C11 C 0.36019(12) 0.0255(3) 0.52531(13)
H14 H 0.3829 -0.1027 0.4833
C12 C 0.36312(12) 0.2667(4) 0.46901(15)
H15 H 0.4201 0.3008 0.4535
H16 H 0.3447 0.3980 0.5114
C13 C 0.30941(12) 0.2656(4) 0.37330(15)
H17 H 0.3311 0.1459 0.3279
H18 H 0.3118 0.4258 0.3422
C14 C 0.42205(16) -0.1993(4) 0.67964(17)
H19 H 0.3682 -0.2487 0.6997
H20 H 0.4582 -0.1746 0.7374
H21 H 0.4446 -0.3249 0.6388
H2? H 0.0078 0.3907 0.0144
loop_
_geom_bond_atom_site_label_1
_geom_bond_atom_site_label_2
_geom_bond_site_symmetry_1
_geom_bond_site_symmetry_2
O1 H1 1_555 1_555
C1 H3 1_555 1_555
H4 C1 1_555 1_555
C2 H5 1_555 1_555
C3 C2 1_555 1_555
H6 C3 1_555 1_555
C4 O1 1_555 1_555
C5 C4 1_555 1_555
H7 C5 1_555 1_555
C6 C5 1_555 1_555
H8 C6 1_555 1_555
C7 C2 1_555 1_555
C8 C7 1_555 1_555
H9 C8 1_555 1_555
C9 C8 1_555 1_555
H10 C9 1_555 1_555
H11 C9 1_555 1_555
C10 C9 1_555 1_555
H12 C10 1_555 1_555
H13 C10 1_555 1_555
C11 C1 1_555 1_555
H14 C11 1_555 1_555
C12 C11 1_555 1_555
H15 C12 1_555 1_555
H16 C12 1_555 1_555
C13 C8 1_555 1_555
H17 C13 1_555 1_555
H18 C13 1_555 1_555
C14 C1 1_555 1_555
H19 C14 1_555 1_555
H20 C14 1_555 1_555
H21 C14 1_555 1_555
C3 C4 1_555 1_555
C6 C7 1_555 1_555
C10 C11 1_555 1_555
C12 C13 1_555 1_555

#END
