
#######################################################################
#
#                 Cambridge Crystallographic Data Centre
#                                CCDC 
#
#######################################################################
#
# If this CIF has been generated from an entry in the Cambridge 
# Structural Database, then it will include bibliographic, chemical, 
# crystal, experimental, refinement or atomic coordinate data resulting 
# from the CCDC's data processing and validation procedures.
#
#######################################################################

data_MENVOR
_chemical_name_common            (15)triangulane
_chemical_formula_moiety         'C31 H34'
_chemical_name_systematic        
(4S,5S,6S,7S,8S,9R,10R,11S,12S,13S,14S,15S)-tetradecaspiro(2.0.0.0.0.0.0.0.0.0.0.0.0.0.2^16^.1^15^.1^14^.1^13^.1^12^.1^11^.1^10^.1^9^.1^8^.1^7^.1^6^.1^5^.1^4^.1^3^)untriacontane
_symmetry_cell_setting           monoclinic
_symmetry_space_group_name_H-M   'C 2'
_symmetry_Int_Tables_number      5
_space_group_name_Hall           'C 2y'
loop_
_symmetry_equiv_pos_site_id
_symmetry_equiv_pos_as_xyz
1 x,y,z
2 -x,y,-z
3 1/2+x,1/2+y,z
4 1/2-x,1/2+y,-z
_cell_length_a                   27.2928(7)
_cell_length_b                   10.6234(3)
_cell_length_c                   14.0357(4)
_cell_angle_alpha                90
_cell_angle_beta                 112.18(1)
_cell_angle_gamma                90
_cell_volume                     3768.41
_exptl_crystal_colour            colorless
_exptl_crystal_description       prism
_chemical_melting_point          '146 deg.C'
_cell_formula_units_Z            6
_exptl_crystal_recrystallization_method toluene
loop_
_atom_site_label
_atom_site_type_symbol
_atom_site_fract_x
_atom_site_fract_y
_atom_site_fract_z
C1 C 0.71771(9) 1.3712(2) 0.0462(2)
C2 C 0.75669(8) 1.2698(2) 0.08509(15)
C3 C 0.75558(7) 1.13708(19) 0.11079(14)
C4 C 0.76121(7) 1.0645(2) 0.20270(15)
C5 C 0.79804(7) 0.9856(2) 0.28247(14)
C6 C 0.80542(8) 0.8534(2) 0.31162(14)
C7 C 0.78969(7) 0.7695(2) 0.37731(14)
C8 C 0.81101(7) 0.71870(19) 0.48153(14)
C9 C 0.85940(7) 0.72460(19) 0.57349(14)
C10 C 0.88015(8) 0.80159(18) 0.66630(14)
C11 C 0.86419(8) 0.91198(19) 0.70896(15)
C12 C 0.87263(8) 1.04816(19) 0.71293(15)
C13 C 0.90835(7) 1.14022(19) 0.77999(14)
C14 C 0.91110(7) 1.22866(19) 0.86115(14)
C15 C 0.90267(8) 1.36243(19) 0.86770(15)
C16 C 0.88682(10) 1.4674(2) 0.79340(17)
C17 C 0.93359(11) 1.4796(2) 0.89637(18)
C18 C 0.87682(9) 1.2725(2) 0.91661(16)
C19 C 0.95641(8) 1.1395(2) 0.87849(15)
C20 C 0.89765(8) 1.1430(2) 0.66669(15)
C21 C 0.81738(8) 0.9973(2) 0.68915(17)
C22 C 0.88769(9) 0.8014(2) 0.77814(16)
C23 C 0.91363(8) 0.7812(2) 0.60361(15)
C24 C 0.83415(9) 0.59863(19) 0.53640(16)
C25 C 0.75770(8) 0.7813(2) 0.44366(15)
C26 C 0.78056(9) 0.7277(2) 0.26969(16)
C27 C 0.85250(8) 0.9293(2) 0.31577(18)
C28 C 0.77272(9) 1.0952(2) 0.31352(16)
C29 C 0.71249(8) 1.0467(2) 0.10642(15)
C30 C 0.78478(9) 1.1761(2) 0.04359(17)
C31 C 0.76867(10) 1.3903(2) 0.1407(2)
H1 H 0.7158(9) 1.415(2) -0.0187(18)
H2 H 0.6881(11) 1.364(3) 0.063(2)
H3 H 0.8951(9) 1.457(3) 0.7336(19)
H4 H 0.8536(11) 1.516(3) 0.7827(19)
H5 H 0.9672(11) 1.476(3) 0.895(2)
H6 H 0.9285(10) 1.533(3) 0.9522(19)
H7 H 0.8923(8) 1.266(2) 0.9919(17)
H8 H 0.8388(9) 1.253(2) 0.8840(16)
H9 H 0.9913(9) 1.176(2) 0.8799(16)
H10 H 0.9598(8) 1.073(2) 0.9237(17)
H11 H 0.9275(9) 1.115(2) 0.6477(16)
H12 H 0.8760(9) 1.212(2) 0.6276(16)
H13 H 0.7912(9) 1.005(2) 0.6145(17)
H14 H 0.8031(10) 1.008(3) 0.7435(19)
H15 H 0.8641(10) 0.749(2) 0.8018(18)
H16 H 0.9242(10) 0.807(2) 0.8287(19)
H17 H 0.9446(8) 0.726(2) 0.6315(16)
H18 H 0.9195(8) 0.851(2) 0.5633(17)
H19 H 0.8525(9) 0.544(2) 0.5043(17)
H20 H 0.8173(9) 0.556(2) 0.5756(18)
H21 H 0.7563(8) 0.862(2) 0.4725(15)
H22 H 0.7258(8) 0.726(2) 0.4280(16)
H23 H 0.7438(10) 0.730(3) 0.2219(19)
H24 H 0.8041(11) 0.658(3) 0.263(2)
H25 H 0.8773(9) 0.956(2) 0.3825(17)
H26 H 0.8663(9) 0.911(2) 0.2614(18)
H27 H 0.7453(9) 1.077(2) 0.3417(18)
H28 H 0.7951(9) 1.170(2) 0.3436(17)
H29 H 0.6774(9) 1.084(2) 0.1054(16)
H30 H 0.7090(9) 0.964(3) 0.0673(18)
H31 H 0.8228(9) 1.174(2) 0.0738(15)
H32 H 0.7690(9) 1.152(2) -0.0304(19)
H33 H 0.7644(10) 1.393(3) 0.203(2)
H34 H 0.7941(11) 1.442(3) 0.129(2)
C32 C 0.92198(9) 0.9703(2) 0.12026(16)
C33 C 0.94304(7) 0.84281(19) 0.15148(15)
C34 C 0.92425(8) 0.71630(19) 0.15855(14)
C35 C 0.92019(7) 0.63195(18) 0.23693(14)
C36 C 0.95190(8) 0.53247(18) 0.30241(15)
C37 C 0.95699(8) 0.39490(19) 0.30805(15)
C38 C 0.94534(7) 0.29096(19) 0.36354(15)
C39 C 0.97371(7) 0.22364(18) 0.45894(14)
C40 C 1.0000 0.0996(3) 0.5000
C41 C 0.92019(8) 0.2785(2) 0.44114(16)
C42 C 0.92943(10) 0.2808(2) 0.24908(16)
C43 C 1.00456(9) 0.4734(2) 0.31901(19)
C44 C 0.93249(8) 0.6369(2) 0.35082(15)
C45 C 0.87309(8) 0.6470(2) 0.13763(15)
C46 C 0.96205(9) 0.7350(2) 0.10481(18)
C47 C 0.96795(8) 0.94794(19) 0.22266(16)
H35 H 0.8878(9) 0.986(2) 0.1234(16)
H36 H 0.9312(8) 1.010(2) 0.0656(16)
H37 H 1.0135(9) 0.055(2) 0.4594(18)
H38 H 0.9181(8) 0.351(2) 0.4814(16)
H39 H 0.8911(9) 0.221(2) 0.4246(17)
H40 H 0.9480(9) 0.225(3) 0.2225(18)
H41 H 0.8921(10) 0.294(3) 0.2090(19)
H42 H 1.0318(9) 0.475(3) 0.3877(19)
H43 H 1.0143(9) 0.472(3) 0.2593(18)
H44 H 0.9048(8) 0.615(2) 0.3726(14)
H45 H 0.9588(9) 0.700(2) 0.3900(18)
H46 H 0.8673(9) 0.581(2) 0.0909(17)
H47 H 0.8409(9) 0.698(2) 0.1359(16)
H48 H 0.9468(9) 0.726(2) 0.0288(19)
H49 H 0.9988(9) 0.709(2) 0.1379(18)
H50 H 0.9598(9) 0.955(2) 0.2863(18)
H51 H 1.0043(9) 0.980(2) 0.2280(16)
C32A C 1.07802(9) 0.9703(2) 0.87974(16)
C33A C 1.05696(7) 0.84281(19) 0.84852(15)
C34A C 1.07575(8) 0.71630(19) 0.84145(14)
C35A C 1.07981(7) 0.63195(18) 0.76307(14)
C36A C 1.04810(8) 0.53247(18) 0.69759(15)
C37A C 1.04301(8) 0.39490(19) 0.69195(15)
C38A C 1.05466(7) 0.29096(19) 0.63646(15)
C39A C 1.02629(7) 0.22364(18) 0.54106(14)
C41A C 1.07981(8) 0.2785(2) 0.55886(16)
C42A C 1.07057(10) 0.2808(2) 0.75092(16)
C43A C 0.99544(9) 0.4734(2) 0.68099(19)
C44A C 1.06751(8) 0.6369(2) 0.64918(15)
C45A C 1.12691(8) 0.6470(2) 0.86237(15)
C46A C 1.03795(9) 0.7350(2) 0.89519(18)
C47A C 1.03205(8) 0.94794(19) 0.77734(16)
H35A H 1.1122(9) 0.986(2) 0.8766(16)
H36A H 1.0688(8) 1.010(2) 0.9344(16)
H37A H 0.9865(9) 0.055(2) 0.5406(18)
H38A H 1.0819(8) 0.351(2) 0.5186(16)
H39A H 1.1089(9) 0.221(2) 0.5754(17)
H40A H 1.0520(9) 0.225(3) 0.7775(18)
H41A H 1.1079(10) 0.294(3) 0.7910(19)
H42A H 0.9682(9) 0.475(3) 0.6123(19)
H43A H 0.9857(9) 0.472(3) 0.7407(18)
H44A H 1.0952(8) 0.615(2) 0.6274(14)
H45A H 1.0412(9) 0.700(2) 0.6100(18)
H46A H 1.1327(9) 0.581(2) 0.9091(17)
H47A H 1.1591(9) 0.698(2) 0.8641(16)
H48A H 1.0532(9) 0.726(2) 0.9712(19)
H49A H 1.0012(9) 0.709(2) 0.8621(18)
H50A H 1.0402(9) 0.955(2) 0.7137(18)
H51A H 0.9957(9) 0.980(2) 0.7720(16)
loop_
_geom_bond_atom_site_label_1
_geom_bond_atom_site_label_2
_geom_bond_site_symmetry_1
_geom_bond_site_symmetry_2
C1 C2 1_555 1_555
C2 C3 1_555 1_555
C3 C4 1_555 1_555
C4 C5 1_555 1_555
C5 C6 1_555 1_555
C6 C7 1_555 1_555
C7 C8 1_555 1_555
C8 C9 1_555 1_555
C9 C10 1_555 1_555
C10 C11 1_555 1_555
C11 C12 1_555 1_555
C12 C13 1_555 1_555
C13 C14 1_555 1_555
C14 C15 1_555 1_555
C15 C16 1_555 1_555
C16 C17 1_555 1_555
C17 C15 1_555 1_555
C18 C14 1_555 1_555
C19 C13 1_555 1_555
C20 C12 1_555 1_555
C21 C11 1_555 1_555
C22 C10 1_555 1_555
C23 C9 1_555 1_555
C24 C8 1_555 1_555
C25 C7 1_555 1_555
C26 C6 1_555 1_555
C27 C5 1_555 1_555
C28 C4 1_555 1_555
C29 C3 1_555 1_555
C30 C2 1_555 1_555
C31 C1 1_555 1_555
C32 C33 1_555 1_555
C33 C34 1_555 1_555
C34 C35 1_555 1_555
C35 C36 1_555 1_555
C36 C37 1_555 1_555
C37 C38 1_555 1_555
C38 C39 1_555 1_555
C39 C40 1_555 1_555
C40 H37 1_555 1_555
C41 C38 1_555 1_555
C42 C37 1_555 1_555
C43 C36 1_555 1_555
C44 C35 1_555 1_555
C45 C34 1_555 1_555
C46 C33 1_555 1_555
C47 C32 1_555 1_555
H1 C1 1_555 1_555
H2 C1 1_555 1_555
H3 C16 1_555 1_555
H4 C16 1_555 1_555
H5 C17 1_555 1_555
H6 C17 1_555 1_555
H7 C18 1_555 1_555
H8 C18 1_555 1_555
H9 C19 1_555 1_555
H10 C19 1_555 1_555
H11 C20 1_555 1_555
H12 C20 1_555 1_555
H13 C21 1_555 1_555
H14 C21 1_555 1_555
H15 C22 1_555 1_555
H16 C22 1_555 1_555
H17 C23 1_555 1_555
H18 C23 1_555 1_555
H19 C24 1_555 1_555
H20 C24 1_555 1_555
H21 C25 1_555 1_555
H22 C25 1_555 1_555
H23 C26 1_555 1_555
H24 C26 1_555 1_555
H25 C27 1_555 1_555
H26 C27 1_555 1_555
H27 C28 1_555 1_555
H28 C28 1_555 1_555
H29 C29 1_555 1_555
H30 C29 1_555 1_555
H31 C30 1_555 1_555
H32 C30 1_555 1_555
H33 C31 1_555 1_555
H34 C31 1_555 1_555
H35 C32 1_555 1_555
H36 C32 1_555 1_555
H38 C41 1_555 1_555
H39 C41 1_555 1_555
H40 C42 1_555 1_555
H41 C42 1_555 1_555
H42 C43 1_555 1_555
H43 C43 1_555 1_555
H44 C44 1_555 1_555
H45 C44 1_555 1_555
H46 C45 1_555 1_555
H47 C45 1_555 1_555
H48 C46 1_555 1_555
H49 C46 1_555 1_555
H50 C47 1_555 1_555
H51 C47 1_555 1_555
C32A C33A 1_555 1_555
C33A C34A 1_555 1_555
C34A C35A 1_555 1_555
C35A C36A 1_555 1_555
C36A C37A 1_555 1_555
C37A C38A 1_555 1_555
C38A C39A 1_555 1_555
C39A C39 1_555 1_555
C41A C38A 1_555 1_555
C42A C37A 1_555 1_555
C43A C36A 1_555 1_555
C44A C35A 1_555 1_555
C45A C34A 1_555 1_555
C46A C33A 1_555 1_555
C47A C32A 1_555 1_555
H35A C32A 1_555 1_555
H36A C32A 1_555 1_555
H37A C40 1_555 1_555
H38A C41A 1_555 1_555
H39A C41A 1_555 1_555
H40A C42A 1_555 1_555
H41A C42A 1_555 1_555
H42A C43A 1_555 1_555
H43A C43A 1_555 1_555
H44A C44A 1_555 1_555
H45A C44A 1_555 1_555
H46A C45A 1_555 1_555
H47A C45A 1_555 1_555
H48A C46A 1_555 1_555
H49A C46A 1_555 1_555
H50A C47A 1_555 1_555
H51A C47A 1_555 1_555
C2 C31 1_555 1_555
C3 C30 1_555 1_555
C4 C29 1_555 1_555
C5 C28 1_555 1_555
C6 C27 1_555 1_555
C7 C26 1_555 1_555
C8 C25 1_555 1_555
C9 C24 1_555 1_555
C10 C23 1_555 1_555
C11 C22 1_555 1_555
C12 C21 1_555 1_555
C13 C20 1_555 1_555
C14 C19 1_555 1_555
C15 C18 1_555 1_555
C33 C47 1_555 1_555
C34 C46 1_555 1_555
C35 C45 1_555 1_555
C36 C44 1_555 1_555
C37 C43 1_555 1_555
C38 C42 1_555 1_555
C39 C41 1_555 1_555
C40 C39A 1_555 1_555
C33A C47A 1_555 1_555
C34A C46A 1_555 1_555
C35A C45A 1_555 1_555
C36A C44A 1_555 1_555
C37A C43A 1_555 1_555
C38A C42A 1_555 1_555
C39A C41A 1_555 1_555

#END
