
#######################################################################
#
#                 Cambridge Crystallographic Data Centre
#                                CCDC 
#
#######################################################################
#
# If this CIF has been generated from an entry in the Cambridge 
# Structural Database, then it will include bibliographic, chemical, 
# crystal, experimental, refinement or atomic coordinate data resulting 
# from the CCDC's data processing and validation procedures.
#
#######################################################################

data_MENVUX
_chemical_name_common            (M)-(-)-(15)triangulane
_chemical_formula_moiety         'C31 H34'
_chemical_name_systematic        
(4S,5S,6S,7S,8S,9S,10S,11S,12S,13S,14S,15S)-tetradecaspiro(2.0.0.0.0.0.0.0.0.0.0.0.0.0.2^16^.1^15^.1^14^.1^13^.1^12^.1^11^.1^10^.1^9^.1^8^.1^7^.1^6^.1^5^.1^4^.1^3^)untriacontane
_symmetry_cell_setting           monoclinic
_symmetry_space_group_name_H-M   'P 21'
_symmetry_Int_Tables_number      4
_space_group_name_Hall           'P 2yb'
loop_
_symmetry_equiv_pos_site_id
_symmetry_equiv_pos_as_xyz
1 x,y,z
2 -x,1/2+y,-z
_cell_length_a                   10.2656(3)
_cell_length_b                   6.0517(2)
_cell_length_c                   20.0823(6)
_cell_angle_alpha                90
_cell_angle_beta                 94.55(1)
_cell_angle_gamma                90
_cell_volume                     1243.67
_exptl_crystal_colour            colorless
_exptl_crystal_description       prism
_chemical_melting_point          '149 deg.C'
_cell_formula_units_Z            2
_exptl_crystal_recrystallization_method toluene
loop_
_atom_site_label
_atom_site_type_symbol
_atom_site_fract_x
_atom_site_fract_y
_atom_site_fract_z
C1 C 0.0192(2) 0.5487(5) 0.30605(11)
C2 C 0.10106(17) 0.6910(4) 0.35221(9)
C3 C 0.19371(17) 0.6543(4) 0.41000(9)
C4 C 0.19514(16) 0.6634(3) 0.48261(8)
C5 C 0.24934(16) 0.8006(3) 0.53744(8)
C6 C 0.36092(16) 0.7843(3) 0.58646(8)
C7 C 0.38512(15) 0.7190(3) 0.65605(8)
C8 C 0.41024(16) 0.8253(3) 0.72089(8)
C9 C 0.52214(16) 0.8782(3) 0.76719(8)
C10 C 0.59020(16) 0.7933(3) 0.82814(8)
C11 C 0.59666(16) 0.8313(3) 0.89993(8)
C12 C 0.67383(17) 0.9613(3) 0.94947(9)
C13 C 0.79184(17) 0.9373(3) 0.99461(9)
C14 C 0.83899(16) 0.9015(3) 1.06440(8)
C15 C 0.89278(17) 1.0289(3) 1.12207(8)
C16 C 0.9162(2) 1.2620(4) 1.14148(10)
C17 C 1.02130(19) 1.0873(4) 1.15614(10)
C18 C 0.78753(19) 0.8635(4) 1.13139(9)
C19 C 0.89052(18) 0.7586(3) 1.01152(9)
C20 C 0.7825(2) 1.1273(4) 0.94641(10)
C21 C 0.52695(18) 0.9690(4) 0.94799(9)
C22 C 0.58785(19) 0.5982(3) 0.87406(9)
C23 C 0.66879(18) 0.8588(4) 0.77110(10)
C24 C 0.42374(19) 1.0555(4) 0.74828(10)
C25 C 0.30734(18) 0.6486(4) 0.71283(9)
C26 C 0.46679(18) 0.6179(3) 0.60523(9)
C27 C 0.33889(18) 0.9962(3) 0.54811(9)
C28 C 0.10724(17) 0.7384(4) 0.53472(9)
C29 C 0.23974(19) 0.4558(4) 0.44997(10)
C30 C 0.2343(2) 0.7951(4) 0.35355(10)
C31 C -0.0371(2) 0.7538(5) 0.33799(11)
H1 H 0.030(2) 0.554(5) 0.2562(11)
H2 H -0.008(2) 0.397(5) 0.3241(12)
H3 H 0.8679(19) 1.315(4) 1.1797(11)
H4 H 0.9263(19) 1.371(4) 1.1063(10)
H5 H 1.0402(18) 1.041(4) 1.2017(10)
H6 H 1.0970(19) 1.086(4) 1.1287(10)
H7 H 0.6999(18) 0.921(4) 1.1399(9)
H8 H 0.814(2) 0.731(4) 1.1546(10)
H9 H 0.986(2) 0.787(4) 0.9991(11)
H10 H 0.8536(18) 0.610(4) 1.0087(9)
H11 H 0.768(2) 1.272(4) 0.9651(10)
H12 H 0.8347(19) 1.118(4) 0.9081(11)
H13 H 0.4829(19) 0.890(4) 0.9845(10)
H14 H 0.4842(19) 1.110(4) 0.9304(10)
H15 H 0.5053(19) 0.520(4) 0.8778(9)
H16 H 0.6651(19) 0.505(4) 0.8784(9)
H17 H 0.7085(19) 0.737(4) 0.7469(10)
H18 H 0.719(2) 0.996(4) 0.7756(11)
H19 H 0.3640(19) 1.103(4) 0.7842(10)
H20 H 0.4460(19) 1.163(4) 0.7164(10)
H21 H 0.2151(18) 0.688(3) 0.7116(8)
H22 H 0.3283(19) 0.509(4) 0.7362(10)
H23 H 0.4479(17) 0.464(4) 0.5907(9)
H24 H 0.5580(18) 0.668(4) 0.6061(9)
H25 H 0.3987(16) 1.031(3) 0.5125(9)
H26 H 0.3069(18) 1.124(4) 0.5731(10)
H27 H 0.0440(17) 0.851(4) 0.5193(9)
H28 H 0.0776(18) 0.635(4) 0.5671(10)
H29 H 0.3327(19) 0.427(4) 0.4552(10)
H30 H 0.1828(19) 0.324(4) 0.4473(10)
H31 H 0.2974(19) 0.730(4) 0.3221(10)
H32 H 0.237(2) 0.966(5) 0.3625(11)
H33 H -0.0981(19) 0.723(4) 0.3741(10)
H34 H -0.060(2) 0.881(4) 0.3083(11)
loop_
_geom_bond_atom_site_label_1
_geom_bond_atom_site_label_2
_geom_bond_site_symmetry_1
_geom_bond_site_symmetry_2
C1 C2 1_555 1_555
C2 C3 1_555 1_555
C3 C4 1_555 1_555
C4 C5 1_555 1_555
C5 C6 1_555 1_555
C6 C7 1_555 1_555
C7 C8 1_555 1_555
C8 C9 1_555 1_555
C9 C10 1_555 1_555
C10 C11 1_555 1_555
C11 C12 1_555 1_555
C12 C13 1_555 1_555
C13 C14 1_555 1_555
C14 C15 1_555 1_555
C15 C16 1_555 1_555
C16 C17 1_555 1_555
C17 C15 1_555 1_555
C18 C14 1_555 1_555
C19 C13 1_555 1_555
C20 C12 1_555 1_555
C21 C11 1_555 1_555
C22 C10 1_555 1_555
C23 C9 1_555 1_555
C24 C8 1_555 1_555
C25 C7 1_555 1_555
C26 C6 1_555 1_555
C27 C5 1_555 1_555
C28 C4 1_555 1_555
C29 C3 1_555 1_555
C30 C2 1_555 1_555
C31 C1 1_555 1_555
H1 C1 1_555 1_555
H2 C1 1_555 1_555
H3 C16 1_555 1_555
H4 C16 1_555 1_555
H5 C17 1_555 1_555
H6 C17 1_555 1_555
H7 C18 1_555 1_555
H8 C18 1_555 1_555
H9 C19 1_555 1_555
H10 C19 1_555 1_555
H11 C20 1_555 1_555
H12 C20 1_555 1_555
H13 C21 1_555 1_555
H14 C21 1_555 1_555
H15 C22 1_555 1_555
H16 C22 1_555 1_555
H17 C23 1_555 1_555
H18 C23 1_555 1_555
H19 C24 1_555 1_555
H20 C24 1_555 1_555
H21 C25 1_555 1_555
H22 C25 1_555 1_555
H23 C26 1_555 1_555
H24 C26 1_555 1_555
H25 C27 1_555 1_555
H26 C27 1_555 1_555
H27 C28 1_555 1_555
H28 C28 1_555 1_555
H29 C29 1_555 1_555
H30 C29 1_555 1_555
H31 C30 1_555 1_555
H32 C30 1_555 1_555
H33 C31 1_555 1_555
H34 C31 1_555 1_555
C2 C31 1_555 1_555
C3 C30 1_555 1_555
C4 C29 1_555 1_555
C5 C28 1_555 1_555
C6 C27 1_555 1_555
C7 C26 1_555 1_555
C8 C25 1_555 1_555
C9 C24 1_555 1_555
C10 C23 1_555 1_555
C11 C22 1_555 1_555
C12 C21 1_555 1_555
C13 C20 1_555 1_555
C14 C19 1_555 1_555
C15 C18 1_555 1_555

#END
