
#######################################################################
#
#                 Cambridge Crystallographic Data Centre
#                                CCDC 
#
#######################################################################
#
# If this CIF has been generated from an entry in the Cambridge 
# Structural Database, then it will include bibliographic, chemical, 
# crystal, experimental, refinement or atomic coordinate data resulting 
# from the CCDC's data processing and validation procedures.
#
#######################################################################

data_MENWAE
_chemical_name_common            rac-(7)triangulane-1,9-dimethanol
_chemical_formula_moiety         'C17 H22 O2'
_chemical_name_systematic        
rac-(9-Hydroxymethylhexaspiro(2.0.0.0.0.0.2^8^.1^7^.1^6^.1^5^.1^4^.1^3^)pentadec-1-yl)methanol
_symmetry_cell_setting           monoclinic
_symmetry_space_group_name_H-M   'P 21/c'
_symmetry_Int_Tables_number      14
_space_group_name_Hall           '-P 2ybc'
loop_
_symmetry_equiv_pos_site_id
_symmetry_equiv_pos_as_xyz
1 x,y,z
2 -x,1/2+y,1/2-z
3 -x,-y,-z
4 x,1/2-y,1/2+z
_cell_length_a                   13.3211(8)
_cell_length_b                   19.416(1)
_cell_length_c                   11.6168(7)
_cell_angle_alpha                90
_cell_angle_beta                 104.433(2)
_cell_angle_gamma                90
_cell_volume                     2909.77
_exptl_crystal_colour            colorless
_exptl_crystal_description       plate
_cell_formula_units_Z            8
_exptl_crystal_recrystallization_method ethanol
loop_
_atom_site_label
_atom_site_type_symbol
_atom_site_fract_x
_atom_site_fract_y
_atom_site_fract_z
O1 O 1.22917(14) 0.43748(10) 1.33339(16)
O2 O 0.31343(15) 0.35878(10) 0.52135(16)
C1 C 1.0531(2) 0.46302(14) 1.2378(2)
C2 C 0.9515(2) 0.42806(12) 1.1964(2)
C3 C 0.84065(19) 0.44205(12) 1.1612(2)
C4 C 0.76488(19) 0.44844(12) 1.0480(2)
C5 C 0.6985(2) 0.40478(13) 0.9590(2)
C6 C 0.58988(19) 0.38746(12) 0.9081(2)
C7 C 0.5120(2) 0.40570(13) 0.7998(2)
C8 C 0.4671(2) 0.37615(14) 0.6808(2)
C9 C 0.5042(3) 0.45112(16) 0.6958(3)
C10 C 0.4834(2) 0.40558(16) 0.9168(2)
C11 C 0.6667(2) 0.33047(14) 0.9445(3)
C12 C 0.7769(2) 0.45014(15) 0.9222(2)
C13 C 0.7646(2) 0.50051(15) 1.1443(3)
C14 C 0.8812(2) 0.38563(14) 1.2509(3)
C15 C 1.0317(2) 0.41382(16) 1.1320(2)
C16 C 1.1258(2) 0.43856(15) 1.3486(2)
C17 C 0.3543(2) 0.36144(15) 0.6483(2)
H1 H 1.270(2) 0.4222(13) 1.390(2)
H2 H 0.278(3) 0.3219(17) 0.503(3)
H5 H 1.0605(18) 0.5111(12) 1.220(2)
H6 H 0.5080(16) 0.3425(10) 0.6455(19)
H7 H 0.5698(19) 0.4609(12) 0.672(2)
H8 H 0.4500(19) 0.4861(12) 0.680(2)
H9 H 0.4373(16) 0.3692(11) 0.9346(19)
H10 H 0.4727(17) 0.4534(11) 0.9470(19)
H11 H 0.6874(17) 0.3037(11) 0.879(2)
H12 H 0.6644(18) 0.3038(11) 1.016(2)
H13 H 0.7452(18) 0.4901(12) 0.867(2)
H14 H 0.8409(18) 0.4290(11) 0.907(2)
H15 H 0.701(2) 0.4999(13) 1.177(2)
H16 H 0.7925(19) 0.5483(13) 1.125(2)
H17 H 0.8632(17) 0.3335(12) 1.2175(19)
H18 H 0.8794(17) 0.3966(12) 1.328(2)
H19 H 1.0685(18) 0.3714(12) 1.139(2)
H20 H 1.014(2) 0.4367(12) 1.048(2)
H21 H 1.1069(16) 0.3882(11) 1.3708(18)
H22 H 1.1242(17) 0.4701(11) 1.419(2)
H23 H 0.3108(19) 0.3973(13) 0.681(2)
H24 H 0.3373(15) 0.3169(10) 0.6792(17)
O3 O 1.23818(17) 0.26648(11) 0.96959(17)
O4 O 0.28584(14) 0.35594(10) 0.15930(16)
C18 C 1.0800(2) 0.28490(14) 0.8122(2)
C19 C 1.02162(19) 0.33149(13) 0.7180(2)
C20 C 0.94466(19) 0.32667(13) 0.6051(2)
C21 C 0.8319(2) 0.32648(13) 0.5661(2)
C22 C 0.74103(19) 0.36820(13) 0.5099(2)
C23 C 0.66452(19) 0.37382(12) 0.3960(2)
C24 C 0.56254(19) 0.34605(12) 0.3374(2)
C25 C 0.45186(19) 0.36683(13) 0.3086(2)
C26 C 0.4860(2) 0.29617(14) 0.3611(2)
C27 C 0.6471(2) 0.34460(14) 0.2728(2)
C28 C 0.7117(2) 0.43871(13) 0.4592(2)
C29 C 0.7449(2) 0.33324(15) 0.6262(2)
C30 C 0.8915(2) 0.26842(15) 0.5286(3)
C31 C 1.0394(2) 0.37121(16) 0.6131(2)
C32 C 1.0212(2) 0.34665(14) 0.8428(2)
C33 C 1.1960(2) 0.28601(15) 0.8475(2)
C34 C 0.3946(2) 0.37243(16) 0.1802(2)
H3 H 1.228(3) 0.3045(17) 1.011(3)
H4 H 0.258(2) 0.3836(13) 0.202(2)
H25 H 1.0471(18) 0.2395(12) 0.816(2)
H26 H 0.4292(16) 0.4015(10) 0.3651(18)
H27 H 0.4875(16) 0.2834(10) 0.4453(19)
H28 H 0.4708(19) 0.2523(12) 0.307(2)
H29 H 0.6453(17) 0.3766(12) 0.208(2)
H30 H 0.6772(18) 0.2985(12) 0.262(2)
H31 H 0.6688(17) 0.4699(11) 0.4998(19)
H32 H 0.7689(18) 0.4688(11) 0.425(2)
H33 H 0.7568(18) 0.3642(12) 0.699(2)
H34 H 0.6980(17) 0.2931(11) 0.6294(18)
H35 H 0.8939(15) 0.2673(10) 0.4440(19)
H36 H 0.8904(16) 0.2243(10) 0.5637(19)
H37 H 1.0974(18) 0.3498(12) 0.575(2)
H38 H 1.028(2) 0.4221(12) 0.612(2)
H39 H 0.9552(16) 0.3415(10) 0.8678(17)
H40 H 1.0680(18) 0.3864(12) 0.885(2)
H41 H 1.2267(16) 0.3343(12) 0.8369(19)
H42 H 1.2281(17) 0.2497(11) 0.7998(19)
H43 H 0.4250(15) 0.3379(10) 0.1305(18)
H44 H 0.3972(17) 0.4199(11) 0.1473(19)
loop_
_geom_bond_atom_site_label_1
_geom_bond_atom_site_label_2
_geom_bond_site_symmetry_1
_geom_bond_site_symmetry_2
O1 C16 1_555 1_555
O2 C17 1_555 1_555
O3 C33 1_555 1_555
O4 C34 1_555 1_555
C1 C2 1_555 1_555
C2 C3 1_555 1_555
C3 C4 1_555 1_555
C4 C5 1_555 1_555
C5 C6 1_555 1_555
C6 C7 1_555 1_555
C7 C8 1_555 1_555
C8 C9 1_555 1_555
C9 C7 1_555 1_555
C10 C6 1_555 1_555
C11 C5 1_555 1_555
C12 C4 1_555 1_555
C13 C3 1_555 1_555
C14 C2 1_555 1_555
C15 C1 1_555 1_555
C16 C1 1_555 1_555
C17 C8 1_555 1_555
C18 C19 1_555 1_555
C19 C20 1_555 1_555
C20 C21 1_555 1_555
C21 C22 1_555 1_555
C22 C23 1_555 1_555
C23 C24 1_555 1_555
C24 C25 1_555 1_555
C25 C26 1_555 1_555
C26 C24 1_555 1_555
C27 C23 1_555 1_555
C28 C22 1_555 1_555
C29 C21 1_555 1_555
C30 C20 1_555 1_555
C31 C19 1_555 1_555
C32 C18 1_555 1_555
C33 C18 1_555 1_555
C34 C25 1_555 1_555
H1 O1 1_555 1_555
H2 O2 1_555 1_555
H3 O3 1_555 1_555
H4 O4 1_555 1_555
H5 C1 1_555 1_555
H6 C8 1_555 1_555
H7 C9 1_555 1_555
H8 C9 1_555 1_555
H9 C10 1_555 1_555
H10 C10 1_555 1_555
H11 C11 1_555 1_555
H12 C11 1_555 1_555
H13 C12 1_555 1_555
H14 C12 1_555 1_555
H15 C13 1_555 1_555
H16 C13 1_555 1_555
H17 C14 1_555 1_555
H18 C14 1_555 1_555
H19 C15 1_555 1_555
H20 C15 1_555 1_555
H21 C16 1_555 1_555
H22 C16 1_555 1_555
H23 C17 1_555 1_555
H24 C17 1_555 1_555
H25 C18 1_555 1_555
H26 C25 1_555 1_555
H27 C26 1_555 1_555
H28 C26 1_555 1_555
H29 C27 1_555 1_555
H30 C27 1_555 1_555
H31 C28 1_555 1_555
H32 C28 1_555 1_555
H33 C29 1_555 1_555
H34 C29 1_555 1_555
H35 C30 1_555 1_555
H36 C30 1_555 1_555
H37 C31 1_555 1_555
H38 C31 1_555 1_555
H39 C32 1_555 1_555
H40 C32 1_555 1_555
H41 C33 1_555 1_555
H42 C33 1_555 1_555
H43 C34 1_555 1_555
H44 C34 1_555 1_555
C2 C15 1_555 1_555
C3 C14 1_555 1_555
C4 C13 1_555 1_555
C5 C12 1_555 1_555
C6 C11 1_555 1_555
C7 C10 1_555 1_555
C19 C32 1_555 1_555
C20 C31 1_555 1_555
C21 C30 1_555 1_555
C22 C29 1_555 1_555
C23 C28 1_555 1_555
C24 C27 1_555 1_555

#END
