
#######################################################################
#
#                 Cambridge Crystallographic Data Centre
#                                CCDC 
#
#######################################################################
#
# If this CIF has been generated from an entry in the Cambridge 
# Structural Database, then it will include bibliographic, chemical, 
# crystal, experimental, refinement or atomic coordinate data resulting 
# from the CCDC's data processing and validation procedures.
#
#######################################################################

data_MEPDUH
_chemical_formula_moiety         'C21 H34 N2 O4 S1,C2 H6 O1'
_chemical_name_systematic        
"(2S,2'S,4'R)-2-(1-Hydroxy-1-ethylpropyl)-1-((1'-p-tosyl-4'-hydroxypyrolidin-2'-yl)methyl)pyrrolidine ethanol solvate"
_symmetry_cell_setting           triclinic
_symmetry_space_group_name_H-M   'P 1'
_symmetry_Int_Tables_number      1
_space_group_name_Hall           'P 1'
loop_
_symmetry_equiv_pos_site_id
_symmetry_equiv_pos_as_xyz
1 x,y,z
_cell_length_a                   6.5628(13)
_cell_length_b                   8.4228(17)
_cell_length_c                   11.957(2)
_cell_angle_alpha                80.54(3)
_cell_angle_beta                 83.19(3)
_cell_angle_gamma                89.89(3)
_cell_volume                     647.257
_exptl_crystal_colour            colorless
_exptl_crystal_description       prismatic
_chemical_melting_point          220-222deg.C
_cell_formula_units_Z            1
_exptl_crystal_recrystallization_method ethanol
loop_
_atom_site_label
_atom_site_type_symbol
_atom_site_fract_x
_atom_site_fract_y
_atom_site_fract_z
S1 S 0.20993(16) 0.35523(13) 0.22044(11)
N1 N 0.2222(6) 0.3093(5) 0.3561(4)
N2 N 0.5909(6) -0.0019(4) 0.4749(4)
O1 O 0.3101(7) 0.2301(5) 0.1677(4)
O2 O -0.0008(6) 0.3904(5) 0.2090(4)
O3 O 0.2026(6) 0.4933(5) 0.6088(4)
O4 O 0.5325(6) -0.3798(4) 0.6920(4)
C1 C 0.3530(8) 0.5352(6) 0.1712(4)
C2 C 0.5622(9) 0.5286(7) 0.1339(5)
H2 H 0.6257 0.4302 0.1319
C3 C 0.6709(10) 0.6688(8) 0.1006(5)
H3 H 0.8105 0.6647 0.0764
C4 C 0.5805(11) 0.8190(7) 0.1014(5)
C5 C 0.3751(10) 0.8227(7) 0.1397(5)
H4 H 0.3123 0.9214 0.1420
C6 C 0.2605(10) 0.6827(7) 0.1749(5)
H5 H 0.1216 0.6871 0.2009
C7 C 0.7104(13) 0.9717(10) 0.0595(7)
H6 H 0.6266 1.0641 0.0656
H7 H 0.7656 0.9739 -0.0188
H8 H 0.8208 0.9731 0.1053
C8 C 0.1165(8) 0.4101(7) 0.4334(5)
H9 H -0.0293 0.3844 0.4479
H10 H 0.1353 0.5235 0.4017
C9 C 0.2188(8) 0.3684(6) 0.5423(4)
H11 H 0.1565 0.2693 0.5878
C10 C 0.4388(7) 0.3374(6) 0.4982(5)
H12 H 0.5059 0.2709 0.5568
H13 H 0.5158 0.4377 0.4737
C11 C 0.4216(7) 0.2502(5) 0.3977(4)
H14 H 0.5363 0.2820 0.3379
C12 C 0.4095(7) 0.0669(6) 0.4303(4)
H15 H 0.2918 0.0376 0.4872
H16 H 0.3876 0.0208 0.3634
C13 C 0.7715(8) 0.0185(7) 0.3894(6)
H17 H 0.8441 0.1183 0.3907
H18 H 0.7322 0.0202 0.3135
C14 C 0.9029(9) -0.1227(8) 0.4212(7)
H19 H 0.9905 -0.1462 0.3549
H20 H 0.9883 -0.1027 0.4785
C15 C 0.7554(8) -0.2572(7) 0.4673(6)
H21 H 0.8141 -0.3365 0.5222
H22 H 0.7158 -0.3094 0.4064
C16 C 0.5683(7) -0.1755(5) 0.5256(4)
H23 H 0.4439 -0.2172 0.5018
C17 C 0.5450(7) -0.2065(5) 0.6580(4)
C18 C 0.7349(8) -0.1592(7) 0.7110(6)
H24 H 0.7196 -0.2085 0.7908
H25 H 0.8548 -0.2053 0.6737
C19 C 0.7768(10) 0.0208(7) 0.7041(6)
H26 H 0.8979 0.0360 0.7392
H27 H 0.6619 0.0680 0.7432
H28 H 0.7968 0.0714 0.6255
C20 C 0.3474(8) -0.1327(7) 0.7061(4)
H29 H 0.3575 -0.0168 0.6834
H30 H 0.2338 -0.1708 0.6721
C21 C 0.2987(11) -0.1710(10) 0.8360(6)
H31 H 0.1729 -0.1205 0.8592
H32 H 0.4082 -0.1310 0.8709
H33 H 0.2843 -0.2854 0.8595
H39 H 0.106(9) 0.474(7) 0.658(5)
H40 H 0.424(13) -0.427(15) 0.670(13)
O5 O -0.1440(6) 0.4298(5) -0.2525(4)
H1 H -0.2535 0.4694 -0.2679
C22 C -0.1458(15) 0.3955(13) -0.1327(9)
H34 H -0.2579 0.3210 -0.0998
H35 H -0.1671 0.4938 -0.1008
C23 C 0.0556(18) 0.3226(15) -0.1032(11)
H36 H 0.0528 0.2989 -0.0218
H37 H 0.1658 0.3975 -0.1346
H38 H 0.0760 0.2252 -0.1347
loop_
_geom_bond_atom_site_label_1
_geom_bond_atom_site_label_2
_geom_bond_site_symmetry_1
_geom_bond_site_symmetry_2
S1 N1 1_555 1_555
N1 C8 1_555 1_555
N2 C12 1_555 1_555
O1 S1 1_555 1_555
O2 S1 1_555 1_555
O3 C9 1_555 1_555
O4 C17 1_555 1_555
O5 H1 1_555 1_555
C1 S1 1_555 1_555
C2 C1 1_555 1_555
H2 C2 1_555 1_555
C3 C2 1_555 1_555
H3 C3 1_555 1_555
C4 C3 1_555 1_555
C5 C4 1_555 1_555
H4 C5 1_555 1_555
C6 C1 1_555 1_555
H5 C6 1_555 1_555
C7 C4 1_555 1_555
H6 C7 1_555 1_555
H7 C7 1_555 1_555
H8 C7 1_555 1_555
C8 H9 1_555 1_555
H10 C8 1_555 1_555
C9 C8 1_555 1_555
H11 C9 1_555 1_555
C10 C9 1_555 1_555
H12 C10 1_555 1_555
H13 C10 1_555 1_555
C11 N1 1_555 1_555
H14 C11 1_555 1_555
C12 C11 1_555 1_555
H15 C12 1_555 1_555
H16 C12 1_555 1_555
C13 N2 1_555 1_555
H17 C13 1_555 1_555
H18 C13 1_555 1_555
C14 C13 1_555 1_555
H19 C14 1_555 1_555
H20 C14 1_555 1_555
C15 C14 1_555 1_555
H21 C15 1_555 1_555
H22 C15 1_555 1_555
C16 N2 1_555 1_555
H23 C16 1_555 1_555
C17 C16 1_555 1_555
C18 C17 1_555 1_555
H24 C18 1_555 1_555
H25 C18 1_555 1_555
C19 C18 1_555 1_555
H26 C19 1_555 1_555
H27 C19 1_555 1_555
H28 C19 1_555 1_555
C20 C17 1_555 1_555
H29 C20 1_555 1_555
H30 C20 1_555 1_555
C21 C20 1_555 1_555
H31 C21 1_555 1_555
H32 C21 1_555 1_555
H33 C21 1_555 1_555
C22 O5 1_555 1_555
H34 C22 1_555 1_555
H35 C22 1_555 1_555
C23 C22 1_555 1_555
H36 C23 1_555 1_555
H37 C23 1_555 1_555
H38 C23 1_555 1_555
H39 O3 1_555 1_555
H40 O4 1_555 1_555
C5 C6 1_555 1_555
C10 C11 1_555 1_555
C15 C16 1_555 1_555

#END
