
#######################################################################
#
#                 Cambridge Crystallographic Data Centre
#                                CCDC 
#
#######################################################################
#
# If this CIF has been generated from an entry in the Cambridge 
# Structural Database, then it will include bibliographic, chemical, 
# crystal, experimental, refinement or atomic coordinate data resulting 
# from the CCDC's data processing and validation procedures.
#
#######################################################################

data_MEPSIK
_chemical_formula_moiety         'C17 H8 O1'
_chemical_name_systematic        2-(Buta-1,3-diynyl)-9H-fluoren-9-one
_symmetry_cell_setting           monoclinic
_symmetry_space_group_name_H-M   'P 21/c'
_symmetry_Int_Tables_number      14
_space_group_name_Hall           '-P 2ybc'
loop_
_symmetry_equiv_pos_site_id
_symmetry_equiv_pos_as_xyz
1 x,y,z
2 -x,1/2+y,1/2-z
3 -x,-y,-z
4 x,1/2-y,1/2+z
_cell_length_a                   3.7873(3)
_cell_length_b                   21.832(2)
_cell_length_c                   13.6754(12)
_cell_angle_alpha                90
_cell_angle_beta                 96.58(1)
_cell_angle_gamma                90
_cell_volume                     1123.29
_exptl_crystal_colour            green
_exptl_crystal_description       needle
_chemical_melting_point          'above 523 K'
_cell_formula_units_Z            4
_exptl_crystal_recrystallization_method chloroform
loop_
_atom_site_label
_atom_site_type_symbol
_atom_site_fract_x
_atom_site_fract_y
_atom_site_fract_z
O1 O 0.1428(2) 0.31470(4) 0.33097(6)
C1 C 0.1375(3) 0.17867(6) 0.39081(9)
H1 H 0.228(3) 0.1813(5) 0.3249(9)
C2 C 0.1092(3) 0.12155(6) 0.43671(8)
C3 C -0.0112(3) 0.11872(7) 0.52985(9)
H2 H -0.028(4) 0.0783(7) 0.5607(10)
C4 C -0.1030(3) 0.17129(6) 0.57846(9)
H3 H -0.180(3) 0.1688(6) 0.6443(10)
C5 C -0.2731(3) 0.31228(7) 0.64906(9)
H4 H -0.331(4) 0.2842(7) 0.7020(11)
C6 C -0.3104(3) 0.37548(7) 0.65979(10)
H5 H -0.392(3) 0.3908(6) 0.7205(10)
C7 C -0.2324(4) 0.41580(7) 0.58657(11)
H6 H -0.257(4) 0.4587(7) 0.5966(10)
C8 C -0.1149(3) 0.39406(6) 0.50012(10)
H7 H -0.060(3) 0.4212(7) 0.4478(10)
C9 C 0.0495(3) 0.29552(6) 0.40785(9)
C10 C 0.0418(3) 0.23021(6) 0.43943(8)
C11 C -0.0779(3) 0.22731(6) 0.53253(8)
C12 C -0.1534(3) 0.29059(6) 0.56384(8)
C13 C -0.0768(3) 0.33141(6) 0.48993(9)
C14 C 0.2091(3) 0.06745(6) 0.38760(9)
C15 C 0.3023(3) 0.02434(6) 0.34220(9)
C16 C 0.4141(3) -0.02486(6) 0.29058(9)
C17 C 0.5161(3) -0.06731(7) 0.24718(10)
H8 H 0.608(4) -0.1030(8) 0.2150(11)
loop_
_geom_bond_atom_site_label_1
_geom_bond_atom_site_label_2
_geom_bond_site_symmetry_1
_geom_bond_site_symmetry_2
O1 C9 1_555 1_555
C1 H1 1_555 1_555
C2 C1 1_555 1_555
C3 C2 1_555 1_555
H2 C3 1_555 1_555
C4 C3 1_555 1_555
H3 C4 1_555 1_555
C5 H4 1_555 1_555
C6 C5 1_555 1_555
H5 C6 1_555 1_555
C7 C6 1_555 1_555
H6 C7 1_555 1_555
C8 C7 1_555 1_555
H7 C8 1_555 1_555
C9 C10 1_555 1_555
C10 C1 1_555 1_555
C11 C4 1_555 1_555
C12 C5 1_555 1_555
C13 C8 1_555 1_555
C14 C2 1_555 1_555
C15 C14 1_555 1_555
C16 C15 1_555 1_555
C17 C16 1_555 1_555
H8 C17 1_555 1_555
C9 C13 1_555 1_555
C10 C11 1_555 1_555
C11 C12 1_555 1_555
C12 C13 1_555 1_555

#END
