
#######################################################################
#
#                 Cambridge Crystallographic Data Centre
#                                CCDC 
#
#######################################################################
#
# If this CIF has been generated from an entry in the Cambridge 
# Structural Database, then it will include bibliographic, chemical, 
# crystal, experimental, refinement or atomic coordinate data resulting 
# from the CCDC's data processing and validation procedures.
#
#######################################################################

data_MEPWAI
_chemical_formula_moiety         'C26 H32 B1 N3 O4 S1'
_chemical_name_systematic        
(1,3-dimethyl-1H-imidazol-3-ium-2-yl)(dihydrido){4-[4-(methoxycarbonyl)phenyl]-5-methyl-1-[(4-methylphenyl)sulfonyl]-1,2,5,6-tetrahydropyridin-3-yl}borate
_symmetry_cell_setting           monoclinic
_symmetry_space_group_name_H-M   'C 2/c'
_symmetry_Int_Tables_number      15
_space_group_name_Hall           '-C 2yn'
loop_
_symmetry_equiv_pos_site_id
_symmetry_equiv_pos_as_xyz
1 x,y,z
2 -x,y,1/2-z
3 1/2+x,1/2+y,z
4 1/2-x,1/2+y,1/2-z
5 -x,-y,-z
6 x,-y,1/2+z
7 1/2-x,1/2-y,-z
8 1/2+x,1/2-y,1/2+z
_cell_length_a                   43.8470(8)
_cell_length_b                   7.65070(10)
_cell_length_c                   16.1916(3)
_cell_angle_alpha                90
_cell_angle_beta                 97.673(2)
_cell_angle_gamma                90
_cell_volume                     5383
_exptl_crystal_colour            colorless
_exptl_crystal_description       block
_cell_formula_units_Z            8
_exptl_crystal_recrystallization_method 'Ethylacetate/ petroleum ether'
loop_
_atom_site_label
_atom_site_type_symbol
_atom_site_fract_x
_atom_site_fract_y
_atom_site_fract_z
S1 S 0.19537(2) 0.86570(12) 0.19382(5)
N1 N 0.09467(6) 1.5132(4) 0.03647(17)
N2 N 0.05178(5) 1.4442(3) 0.07451(17)
C1 C 0.12242(6) 1.1790(4) 0.14716(17)
C2 C 0.06391(7) 1.6253(4) 0.30832(19)
C3 C 0.07915(6) 1.3771(4) 0.06221(18)
O1 O 0.02071(6) 1.6819(3) 0.3781(2)
C4 C 0.10523(7) 1.4003(4) 0.24429(17)
O2 O 0.04658(7) 1.9035(3) 0.3376(2)
C5 C 0.21308(7) 0.9070(4) 0.04024(18)
H1 H 0.1939 0.8623 0.0193
O3 O 0.17821(6) 0.7238(3) 0.16019(19)
C6 C 0.14614(7) 1.0486(4) 0.12676(18)
H2 H 0.1362 0.9368 0.1138
H3 H 0.1547 1.0877 0.0776
C7 C 0.04147(7) 1.7369(4) 0.3444(2)
C8 C 0.12818(6) 1.2781(4) 0.21539(17)
C9 C 0.08910(7) 1.6911(4) 0.2756(2)
H4 H 0.0922 1.8113 0.2741
C10 C 0.22135(6) 0.9206(4) 0.12473(18)
C11 C 0.07983(8) 1.3358(4) 0.2768(2)
H5 H 0.0764 1.2159 0.2771
N3 N 0.17138(6) 1.0253(4) 0.19584(15)
C12 C 0.23297(7) 0.9589(4) -0.0134(2)
H6 H 0.2269 0.9492 -0.0705
O4 O 0.21269(7) 0.8541(5) 0.27507(16)
C13 C 0.10963(7) 1.5802(4) 0.2452(2)
H7 H 0.1268 1.6264 0.2249
C14 C 0.05957(8) 1.4473(4) 0.3088(2)
H8 H 0.0428 1.4013 0.3310
C15 C 0.26142(7) 1.0242(4) 0.0141(2)
C16 C 0.05038(8) 1.6199(5) 0.0587(2)
H9 H 0.0339 1.6942 0.0636
C17 C 0.25009(7) 0.9878(5) 0.1545(2)
H10 H 0.2561 0.9999 0.2115
C18 C 0.18324(8) 1.1918(5) 0.2305(2)
H11 H 0.1886 1.2672 0.1864
H12 H 0.2016 1.1728 0.2701
C19 C 0.07718(9) 1.6633(5) 0.0349(3)
H13 H 0.0831 1.7744 0.0199
C20 C 0.26968(7) 1.0366(5) 0.0987(3)
H14 H 0.2891 1.0792 0.1190
B1 B 0.09201(8) 1.1825(5) 0.0778(2)
H15 H 0.0971 1.1345 0.0259
H16 H 0.0762 1.1097 0.0965
C21 C 0.02608(7) 1.3455(5) 0.0988(3)
H17 H 0.0151 1.2896 0.0506
H18 H 0.0125 1.4233 0.1227
H19 H 0.0337 1.2585 0.1391
C22 C 0.15828(9) 1.2759(6) 0.2735(2)
H20 H 0.1643 1.3971 0.2868
C23 C 0.28295(10) 1.0812(5) -0.0465(3)
H21 H 0.2872 0.9837 -0.0804
H22 H 0.3018 1.1232 -0.0161
H23 H 0.2735 1.1729 -0.0813
C24 C 0.02628(14) 2.0158(5) 0.3770(5)
H24 H 0.0076 2.0336 0.3398
H25 H 0.0361 2.1263 0.3898
H26 H 0.0217 1.9620 0.4274
C25 C 0.15494(15) 1.1823(10) 0.3539(3)
H27 H 0.1364 1.2202 0.3740
H28 H 0.1723 1.2087 0.3946
H29 H 0.1540 1.0585 0.3442
C26 C 0.12562(8) 1.5020(6) 0.0130(3)
H30 H 0.1405 1.5261 0.0608
H31 H 0.1278 1.5859 -0.0299
H32 H 0.1290 1.3866 -0.0072
loop_
_geom_bond_atom_site_label_1
_geom_bond_atom_site_label_2
_geom_bond_site_symmetry_1
_geom_bond_site_symmetry_2
S1 O3 1_555 1_555
N1 C3 1_555 1_555
N2 C3 1_555 1_555
C1 C6 1_555 1_555
C2 C7 1_555 1_555
C3 B1 1_555 1_555
O1 C7 1_555 1_555
C4 C8 1_555 1_555
O2 C7 1_555 1_555
C5 H1 1_555 1_555
C6 H2 1_555 1_555
H3 C6 1_555 1_555
C8 C1 1_555 1_555
C9 C2 1_555 1_555
H4 C9 1_555 1_555
C10 S1 1_555 1_555
C11 C4 1_555 1_555
H5 C11 1_555 1_555
N3 S1 1_555 1_555
C12 C5 1_555 1_555
H6 C12 1_555 1_555
O4 S1 1_555 1_555
C13 C4 1_555 1_555
H7 C13 1_555 1_555
C14 C2 1_555 1_555
H8 C14 1_555 1_555
C15 C12 1_555 1_555
C16 N2 1_555 1_555
H9 C16 1_555 1_555
C17 C10 1_555 1_555
H10 C17 1_555 1_555
C18 N3 1_555 1_555
H11 C18 1_555 1_555
H12 C18 1_555 1_555
C19 N1 1_555 1_555
H13 C19 1_555 1_555
C20 C15 1_555 1_555
H14 C20 1_555 1_555
B1 C1 1_555 1_555
H15 B1 1_555 1_555
H16 B1 1_555 1_555
C21 N2 1_555 1_555
H17 C21 1_555 1_555
H18 C21 1_555 1_555
H19 C21 1_555 1_555
C22 C8 1_555 1_555
H20 C22 1_555 1_555
C23 C15 1_555 1_555
H21 C23 1_555 1_555
H22 C23 1_555 1_555
H23 C23 1_555 1_555
C24 O2 1_555 1_555
H24 C24 1_555 1_555
H25 C24 1_555 1_555
H26 C24 1_555 1_555
C25 C22 1_555 1_555
H27 C25 1_555 1_555
H28 C25 1_555 1_555
H29 C25 1_555 1_555
C26 N1 1_555 1_555
H30 C26 1_555 1_555
H31 C26 1_555 1_555
H32 C26 1_555 1_555
C5 C10 1_555 1_555
C6 N3 1_555 1_555
C9 C13 1_555 1_555
C11 C14 1_555 1_555
C16 C19 1_555 1_555
C17 C20 1_555 1_555
C18 C22 1_555 1_555

#END
