
#######################################################################
#
#                 Cambridge Crystallographic Data Centre
#                                CCDC 
#
#######################################################################
#
# If this CIF has been generated from an entry in the Cambridge 
# Structural Database, then it will include bibliographic, chemical, 
# crystal, experimental, refinement or atomic coordinate data resulting 
# from the CCDC's data processing and validation procedures.
#
#######################################################################

data_MEPYAH
_chemical_formula_moiety         'C12 H9 Cl1 N4 O2'
_chemical_name_systematic        
1-(4-chlorophenyl)-3-(2-nitrophenyl)-1-triazene
_symmetry_cell_setting           orthorhombic
_symmetry_space_group_name_H-M   'P b c a'
_symmetry_Int_Tables_number      61
_space_group_name_Hall           '-P 2ac 2ab'
loop_
_symmetry_equiv_pos_site_id
_symmetry_equiv_pos_as_xyz
1 x,y,z
2 1/2-x,-y,1/2+z
3 1/2+x,1/2-y,-z
4 -x,1/2+y,1/2-z
5 -x,-y,-z
6 1/2+x,y,1/2-z
7 1/2-x,1/2+y,z
8 x,1/2-y,1/2+z
_cell_length_a                   7.040(1)
_cell_length_b                   13.520(2)
_cell_length_c                   26.253(3)
_cell_angle_alpha                90
_cell_angle_beta                 90
_cell_angle_gamma                90
_cell_volume                     2498.78
_exptl_crystal_colour            yellow
_exptl_crystal_description       prismatic
_chemical_melting_point          152-153deg.C
_cell_formula_units_Z            8
_exptl_crystal_recrystallization_method ethanol
loop_
_atom_site_label
_atom_site_type_symbol
_atom_site_fract_x
_atom_site_fract_y
_atom_site_fract_z
Cl1 Cl 0.0657(1) 0.7564(1) 0.1372(1)
O1 O 0.4222(3) 1.2949(1) -0.1127(1)
O2 O 0.4781(3) 1.3355(1) -0.1897(1)
N1 N 0.2777(3) 1.0634(1) -0.0126(1)
N2 N 0.3100(2) 1.0343(1) -0.0572(1)
N3 N 0.3549(3) 1.1108(1) -0.0883(1)
N4 N 0.4495(3) 1.2727(1) -0.1573(1)
C1 C 0.1283(3) 0.8453(2) 0.0922(1)
C2 C 0.1346(3) 0.9427(2) 0.1058(1)
C3 C 0.1852(3) 1.0124(2) 0.0700(1)
C4 C 0.2280(3) 0.9844(2) 0.0209(1)
C5 C 0.2215(4) 0.8852(2) 0.0076(1)
C6 C 0.1719(4) 0.8155(2) 0.0436(1)
C7 C 0.4009(3) 1.0934(2) -0.1385(1)
C8 C 0.4017(4) 0.9970(2) -0.1573(1)
C9 C 0.4546(4) 0.9774(2) -0.2063(1)
C10 C 0.5065(4) 1.0528(2) -0.2390(1)
C11 C 0.5020(4) 1.1481(2) -0.2223(1)
C12 C 0.4495(3) 1.1690(2) -0.1721(1)
H1 H 0.365(3) 1.169(1) -0.0752(7)
H2 H 0.103(3) 0.960(1) 0.1390(7)
H3 H 0.179(3) 1.077(1) 0.0789(7)
H4 H 0.248(3) 0.865(2) -0.0256(8)
H5 H 0.165(3) 0.749(2) 0.0342(8)
H6 H 0.365(3) 0.948(2) -0.1350(8)
H7 H 0.447(3) 0.908(2) -0.2182(8)
H8 H 0.540(4) 1.040(2) -0.2713(8)
H9 H 0.532(3) 1.212(1) -0.2419(8)
loop_
_geom_bond_atom_site_label_1
_geom_bond_atom_site_label_2
_geom_bond_site_symmetry_1
_geom_bond_site_symmetry_2
Cl1 C1 1_555 1_555
O1 N4 1_555 1_555
O2 N4 1_555 1_555
N1 N2 1_555 1_555
N2 N3 1_555 1_555
N3 C7 1_555 1_555
N4 C12 1_555 1_555
C1 C2 1_555 1_555
C2 C3 1_555 1_555
C3 C4 1_555 1_555
C4 N1 1_555 1_555
C5 C4 1_555 1_555
C6 C1 1_555 1_555
C7 C8 1_555 1_555
C8 C9 1_555 1_555
C9 C10 1_555 1_555
C10 C11 1_555 1_555
C11 C12 1_555 1_555
C12 C7 1_555 1_555
H1 N3 1_555 1_555
H2 C2 1_555 1_555
H3 C3 1_555 1_555
H4 C5 1_555 1_555
H5 C6 1_555 1_555
H6 C8 1_555 1_555
H7 C9 1_555 1_555
H8 C10 1_555 1_555
H9 C11 1_555 1_555
C5 C6 1_555 1_555

#END
