
#######################################################################
#
#                 Cambridge Crystallographic Data Centre
#                                CCDC 
#
#######################################################################
#
# If this CIF has been generated from an entry in the Cambridge 
# Structural Database, then it will include bibliographic, chemical, 
# crystal, experimental, refinement or atomic coordinate data resulting 
# from the CCDC's data processing and validation procedures.
#
#######################################################################

data_MEPZOX
_chemical_formula_moiety         'C22 H23 B1 F2 N2 O1'
_chemical_name_systematic        
4,4-Difluoro-3-((4-methoxyphenyl)styryl)-1,5,7,8-tetramethyl-4-bora-3a,4a-diaza-s-indacene
_symmetry_cell_setting           triclinic
_symmetry_space_group_name_H-M   'P -1'
_symmetry_Int_Tables_number      2
_space_group_name_Hall           '-P 1'
loop_
_symmetry_equiv_pos_site_id
_symmetry_equiv_pos_as_xyz
1 x,y,z
2 -x,-y,-z
_cell_length_a                   8.6442(2)
_cell_length_b                   11.0246(3)
_cell_length_c                   12.0034(3)
_cell_angle_alpha                64.5650(10)
_cell_angle_beta                 73.311(2)
_cell_angle_gamma                68.0070(10)
_cell_volume                     946.895
_exptl_crystal_colour            'dark blue'
_exptl_crystal_description       cube
_chemical_melting_point          192.0deg.C
_cell_formula_units_Z            2
_exptl_crystal_recrystallization_method hexane/dichloromethane
loop_
_atom_site_label
_atom_site_type_symbol
_atom_site_fract_x
_atom_site_fract_y
_atom_site_fract_z
N1 N 0.36476(16) 0.67075(14) 0.19591(12)
F1 F 0.10390(11) 0.65366(11) 0.17985(10)
F2 F 0.17586(13) 0.56574(11) 0.37107(9)
N2 N 0.33360(15) 0.44167(14) 0.23143(12)
C1 C 0.53238(19) 0.62762(18) 0.14186(14)
C2 C 0.50183(19) 0.40301(17) 0.17676(14)
C3 C 0.2675(2) 0.33585(17) 0.26462(15)
C4 C 0.59970(19) 0.49473(17) 0.13254(14)
C5 C -0.4596(2) 0.19315(17) 0.52047(15)
C6 C -0.1409(2) 0.22971(16) 0.40255(14)
C7 C 0.5384(2) 0.26409(18) 0.17899(15)
C8 C 0.6018(2) 0.73986(19) 0.10410(15)
C9 C -0.1788(2) 0.10801(17) 0.42635(16)
H1 H -0.0959 0.0372 0.4020
C10 C 0.0945(2) 0.34170(17) 0.32130(15)
H2 H 0.0266 0.4196 0.3420
C11 C -0.3342(2) 0.08877(18) 0.48446(17)
H3 H -0.3550 0.0058 0.4995
O1 O -0.60802(16) 0.16346(14) 0.57983(14)
C12 C 0.3309(2) 0.80130(18) 0.19290(16)
C13 C 0.0283(2) 0.24025(17) 0.34520(15)
H4 H 0.1009 0.1653 0.3218
C14 C 0.4754(2) 0.8453(2) 0.13713(17)
H5 H 0.4850 0.9318 0.1243
B1 B 0.2385(2) 0.58434(19) 0.24703(17)
C15 C 0.3939(2) 0.22544(18) 0.23256(16)
H6 H 0.3809 0.1400 0.2458
C16 C -0.4275(2) 0.31659(18) 0.49603(18)
H7 H -0.5117 0.3878 0.5190
C17 C -0.2705(2) 0.33435(18) 0.43756(18)
H8 H -0.2508 0.4182 0.4211
C18 C 0.7799(2) 0.4522(2) 0.07340(18)
H9 H 0.8079 0.3592 0.0735
H10 H 0.8527 0.4533 0.1198
H11 H 0.7942 0.5167 -0.0109
C19 C 0.7756(2) 0.7516(2) 0.0404(2)
H12 H 0.7824 0.8416 0.0277
H13 H 0.7978 0.7416 -0.0388
H14 H 0.8575 0.6789 0.0915
C20 C 0.1633(3) 0.8809(2) 0.2414(2)
H15 H 0.0875 0.8242 0.2747
H16 H 0.1189 0.9653 0.1748
H17 H 0.1753 0.9047 0.3060
C21 C -0.7436(2) 0.2661(2) 0.6177(2)
H18 H -0.8390 0.2303 0.6582
H19 H -0.7735 0.3492 0.5458
H20 H -0.7103 0.2884 0.6746
C22 C 0.6989(2) 0.1702(2) 0.13461(19)
H21 H 0.6812 0.0832 0.1496
H22 H 0.7863 0.1521 0.1790
H23 H 0.7318 0.2153 0.0468
loop_
_geom_bond_atom_site_label_1
_geom_bond_atom_site_label_2
_geom_bond_site_symmetry_1
_geom_bond_site_symmetry_2
N1 C1 1_555 1_555
F1 B1 1_555 1_555
F2 B1 1_555 1_555
N2 C2 1_555 1_555
C1 C4 1_555 1_555
C2 C4 1_555 1_555
C3 N2 1_555 1_555
C4 C18 1_555 1_555
C5 C11 1_555 1_555
C6 C9 1_555 1_555
C7 C2 1_555 1_555
C8 C1 1_555 1_555
C9 H1 1_555 1_555
C10 C3 1_555 1_555
H2 C10 1_555 1_555
C11 C9 1_555 1_555
H3 C11 1_555 1_555
O1 C5 1_555 1_555
C12 N1 1_555 1_555
C13 C6 1_555 1_555
H4 C13 1_555 1_555
C14 C8 1_555 1_555
H5 C14 1_555 1_555
B1 N1 1_555 1_555
C15 C3 1_555 1_555
H6 C15 1_555 1_555
C16 C5 1_555 1_555
H7 C16 1_555 1_555
C17 C6 1_555 1_555
H8 C17 1_555 1_555
C18 H9 1_555 1_555
H10 C18 1_555 1_555
H11 C18 1_555 1_555
C19 C8 1_555 1_555
H12 C19 1_555 1_555
H13 C19 1_555 1_555
H14 C19 1_555 1_555
C20 C12 1_555 1_555
H15 C20 1_555 1_555
H16 C20 1_555 1_555
H17 C20 1_555 1_555
C21 O1 1_555 1_555
H18 C21 1_555 1_555
H19 C21 1_555 1_555
H20 C21 1_555 1_555
C22 C7 1_555 1_555
H21 C22 1_555 1_555
H22 C22 1_555 1_555
H23 C22 1_555 1_555
N2 B1 1_555 1_555
C7 C15 1_555 1_555
C10 C13 1_555 1_555
C12 C14 1_555 1_555
C16 C17 1_555 1_555

#END
