
#######################################################################
#
#                 Cambridge Crystallographic Data Centre
#                                CCDC 
#
#######################################################################
#
# If this CIF has been generated from an entry in the Cambridge 
# Structural Database, then it will include bibliographic, chemical, 
# crystal, experimental, refinement or atomic coordinate data resulting 
# from the CCDC's data processing and validation procedures.
#
#######################################################################

data_MEQFAS
_chemical_formula_moiety         'C22 H40 N2 O4'
_chemical_name_systematic        
'methyl 2-{[2,2,10-trimethyl-3-oxo-4,7-di-isopropyl-1,4-diazaspiro[5.5]undecan-1-yl]oxy}propanoate'
_symmetry_cell_setting           orthorhombic
_symmetry_space_group_name_H-M   'P 21 21 21'
_symmetry_Int_Tables_number      19
_space_group_name_Hall           'P 2ac 2ab'
loop_
_symmetry_equiv_pos_site_id
_symmetry_equiv_pos_as_xyz
1 x,y,z
2 1/2-x,-y,1/2+z
3 -x,1/2+y,1/2-z
4 1/2+x,1/2-y,-z
_cell_length_a                   9.6886(2)
_cell_length_b                   12.1523(3)
_cell_length_c                   19.9135(4)
_cell_angle_alpha                90
_cell_angle_beta                 90
_cell_angle_gamma                90
_cell_volume                     2344.59
_exptl_crystal_colour            colorless
_exptl_crystal_description       needle
_cell_formula_units_Z            4
loop_
_atom_site_label
_atom_site_type_symbol
_atom_site_fract_x
_atom_site_fract_y
_atom_site_fract_z
O1 O 0.59438(14) 0.32592(11) 0.97936(7)
N1 N 0.78677(14) 0.26509(11) 0.92829(7)
C1 C 0.71121(17) 0.34326(14) 0.95760(8)
O2 O 0.90690(13) 0.59529(9) 0.90914(6)
N2 N 0.90586(14) 0.47937(11) 0.92851(6)
C2 C 0.77653(18) 0.45823(13) 0.96933(8)
C3 C 0.91457(17) 0.41017(13) 0.86685(8)
O3 O 0.87789(18) 0.73531(13) 1.02974(8)
O4 O 1.08454(16) 0.66309(12) 1.05465(7)
C4 C 0.91693(17) 0.29304(13) 0.89570(8)
H1 H 0.9349 0.2405 0.8594
H2 H 0.9922 0.2869 0.9284
C5 C 0.72844(18) 0.15299(14) 0.92161(9)
H3 H 0.6575 0.1445 0.9570
C6 C 0.8363(2) 0.06550(15) 0.93340(11)
H4 H 0.9003 0.0644 0.8960
H5 H 0.7918 -0.0057 0.9373
H6 H 0.8861 0.0816 0.9745
C7 C 0.6560(2) 0.14026(18) 0.85437(10)
H7 H 0.5849 0.1960 0.8501
H8 H 0.6143 0.0678 0.8517
H9 H 0.7226 0.1488 0.8184
C8 C 0.6638(2) 0.54441(15) 0.95834(11)
H10 H 0.6975 0.6160 0.9724
H11 H 0.5830 0.5251 0.9846
H12 H 0.6395 0.5468 0.9111
C9 C 0.8189(2) 0.45504(17) 1.04363(9)
H13 H 0.8875 0.3979 1.0503
H14 H 0.7386 0.4395 1.0711
H15 H 0.8574 0.5257 1.0564
C10 C 0.79232(18) 0.42022(15) 0.81734(8)
H16 H 0.7931 0.3556 0.7879
H17 H 0.7065 0.4178 0.8433
C11 C 0.78912(19) 0.52241(16) 0.77339(8)
H18 H 0.7843 0.5882 0.8026
C12 C 0.9227(2) 0.52672(18) 0.73305(9)
H19 H 0.9263 0.4635 0.7025
H20 H 0.9238 0.5938 0.7058
C13 C 1.0488(2) 0.52526(17) 0.77825(10)
H21 H 1.0508 0.5934 0.8045
H22 H 1.1319 0.5237 0.7502
C14 C 1.05242(18) 0.42667(15) 0.82661(9)
H23 H 1.0577 0.3616 0.7968
C15 C 1.18673(18) 0.41970(16) 0.87038(11)
H24 H 1.1584 0.4269 0.9179
C16 C 1.2949(2) 0.5081(2) 0.85687(12)
H25 H 1.3708 0.4998 0.8882
H26 H 1.2536 0.5803 0.8624
H27 H 1.3292 0.5006 0.8113
C17 C 1.2567(2) 0.3085(2) 0.86283(15)
H28 H 1.2835 0.2977 0.8164
H29 H 1.1932 0.2507 0.8762
H30 H 1.3381 0.3060 0.8912
C18 C 0.6622(2) 0.5205(2) 0.72807(11)
H31 H 0.6631 0.5847 0.6991
H32 H 0.5794 0.5214 0.7555
H33 H 0.6634 0.4544 0.7008
C19 C 1.0333(3) 0.76088(19) 0.90168(13)
H34 H 1.0575 0.7434 0.8556
H35 H 1.1062 0.8048 0.9217
H36 H 0.9476 0.8021 0.9024
C20 C 1.0157(2) 0.65477(16) 0.94147(10)
H37 H 1.1022 0.6114 0.9406
C21 C 0.9806(2) 0.68811(15) 1.01299(10)
C22 C 1.0707(4) 0.6996(2) 1.12305(11)
H38 H 1.0284 0.7719 1.1238
H39 H 1.1612 0.7033 1.1438
H40 H 1.0132 0.6482 1.1477
loop_
_geom_bond_atom_site_label_1
_geom_bond_atom_site_label_2
_geom_bond_site_symmetry_1
_geom_bond_site_symmetry_2
O1 C1 1_555 1_555
N1 C1 1_555 1_555
C1 C2 1_555 1_555
O2 N2 1_555 1_555
N2 C2 1_555 1_555
C2 C8 1_555 1_555
C3 N2 1_555 1_555
O3 C21 1_555 1_555
O4 C21 1_555 1_555
C4 N1 1_555 1_555
H1 C4 1_555 1_555
H2 C4 1_555 1_555
C5 N1 1_555 1_555
H3 C5 1_555 1_555
C6 C5 1_555 1_555
H4 C6 1_555 1_555
H5 C6 1_555 1_555
H6 C6 1_555 1_555
C7 C5 1_555 1_555
H7 C7 1_555 1_555
H8 C7 1_555 1_555
H9 C7 1_555 1_555
C8 H10 1_555 1_555
H11 C8 1_555 1_555
H12 C8 1_555 1_555
C9 C2 1_555 1_555
H13 C9 1_555 1_555
H14 C9 1_555 1_555
H15 C9 1_555 1_555
C10 C3 1_555 1_555
H16 C10 1_555 1_555
H17 C10 1_555 1_555
C11 C10 1_555 1_555
H18 C11 1_555 1_555
C12 C11 1_555 1_555
H19 C12 1_555 1_555
H20 C12 1_555 1_555
C13 C12 1_555 1_555
H21 C13 1_555 1_555
H22 C13 1_555 1_555
C14 C3 1_555 1_555
H23 C14 1_555 1_555
C15 C14 1_555 1_555
H24 C15 1_555 1_555
C16 C15 1_555 1_555
H25 C16 1_555 1_555
H26 C16 1_555 1_555
H27 C16 1_555 1_555
C17 C15 1_555 1_555
H28 C17 1_555 1_555
H29 C17 1_555 1_555
H30 C17 1_555 1_555
C18 C11 1_555 1_555
H31 C18 1_555 1_555
H32 C18 1_555 1_555
H33 C18 1_555 1_555
C19 H34 1_555 1_555
H35 C19 1_555 1_555
H36 C19 1_555 1_555
C20 O2 1_555 1_555
H37 C20 1_555 1_555
C21 C20 1_555 1_555
C22 O4 1_555 1_555
H38 C22 1_555 1_555
H39 C22 1_555 1_555
H40 C22 1_555 1_555
C3 C4 1_555 1_555
C13 C14 1_555 1_555
C19 C20 1_555 1_555

#END
