
#######################################################################
#
#                 Cambridge Crystallographic Data Centre
#                                CCDC 
#
#######################################################################
#
# If this CIF has been generated from an entry in the Cambridge 
# Structural Database, then it will include bibliographic, chemical, 
# crystal, experimental, refinement or atomic coordinate data resulting 
# from the CCDC's data processing and validation procedures.
#
#######################################################################

data_MEQFEU
_chemical_formula_moiety         'C18 H20 N4'
_chemical_name_systematic        
(1R,2R)-N,N'-bis(2-Pyridylmethylene)cyclohexane-1,2-diamine
_symmetry_cell_setting           orthorhombic
_symmetry_space_group_name_H-M   'P 21 21 21'
_symmetry_Int_Tables_number      19
_space_group_name_Hall           'P 2ac 2ab'
loop_
_symmetry_equiv_pos_site_id
_symmetry_equiv_pos_as_xyz
1 x,y,z
2 1/2+x,1/2-y,-z
3 -x,1/2+y,1/2-z
4 1/2-x,-y,1/2+z
_cell_length_a                   8.5865(18)
_cell_length_b                   8.7487(18)
_cell_length_c                   21.661(5)
_cell_angle_alpha                90
_cell_angle_beta                 90
_cell_angle_gamma                90
_cell_volume                     1627.19
_exptl_crystal_colour            yellow
_exptl_crystal_description       block
_chemical_melting_point          '400 K'
_cell_formula_units_Z            4
_exptl_crystal_recrystallization_method hexane
loop_
_atom_site_label
_atom_site_type_symbol
_atom_site_fract_x
_atom_site_fract_y
_atom_site_fract_z
N1 N 0.43996(17) 0.71366(16) 0.04279(6)
N2 N 0.22884(17) 0.46445(16) 0.07296(6)
N3 N 0.57189(18) 0.88405(17) 0.18254(6)
N4 N -0.12533(19) 0.54853(19) 0.15088(7)
C1 C 0.4501(2) 0.56284(19) 0.01357(7)
H1 H 0.5193 0.4950 0.0386
C2 C 0.2869(2) 0.49372(19) 0.01022(7)
H2 H 0.2155 0.5672 -0.0110
C3 C 0.2890(2) 0.34281(19) -0.02540(8)
H3 H 0.1816 0.3024 -0.0286
H4 H 0.3526 0.2671 -0.0026
C4 C 0.3562(2) 0.3648(2) -0.09025(8)
H5 H 0.3589 0.2653 -0.1120
H6 H 0.2886 0.4349 -0.1141
C5 C 0.5202(2) 0.4305(2) -0.08663(8)
H7 H 0.5609 0.4475 -0.1288
H8 H 0.5897 0.3570 -0.0655
C6 C 0.5184(2) 0.5820(2) -0.05118(7)
H9 H 0.6260 0.6217 -0.0479
H10 H 0.4558 0.6578 -0.0744
C7 C 0.5091(2) 0.73287(19) 0.09390(8)
H11 H 0.5649 0.6502 0.1118
C8 C 0.5044(2) 0.88202(19) 0.12629(8)
C9 C 0.43678(19) 1.01000(19) 0.09945(7)
H12 H 0.3908 1.0035 0.0596
C10 C 0.4372(2) 1.1476(2) 0.13146(8)
H13 H 0.3910 1.2366 0.1143
C11 C 0.5072(2) 1.1510(2) 0.18938(8)
H14 H 0.5106 1.2431 0.2126
C12 C 0.5716(2) 1.0181(2) 0.21249(8)
H15 H 0.6187 1.0220 0.2521
C13 C 0.0938(2) 0.51433(18) 0.08546(8)
H16 H 0.0397 0.5718 0.0551
C14 C 0.0172(2) 0.48635(19) 0.14571(7)
C15 C 0.0855(2) 0.3996(2) 0.19206(8)
H17 H 0.1871 0.3585 0.1868
C16 C 0.0033(3) 0.3738(2) 0.24607(9)
H18 H 0.0476 0.3159 0.2787
C17 C -0.1456(2) 0.4346(2) 0.25137(8)
H19 H -0.2066 0.4163 0.2872
C18 C -0.2031(2) 0.5221(2) 0.20350(8)
H20 H -0.3036 0.5662 0.2081
loop_
_geom_bond_atom_site_label_1
_geom_bond_atom_site_label_2
_geom_bond_site_symmetry_1
_geom_bond_site_symmetry_2
N1 C1 1_555 1_555
N2 C2 1_555 1_555
N3 C8 1_555 1_555
N4 C14 1_555 1_555
C1 H1 1_555 1_555
C2 C1 1_555 1_555
H2 C2 1_555 1_555
C3 C2 1_555 1_555
H3 C3 1_555 1_555
H4 C3 1_555 1_555
C4 C3 1_555 1_555
H5 C4 1_555 1_555
H6 C4 1_555 1_555
C5 C4 1_555 1_555
H7 C5 1_555 1_555
H8 C5 1_555 1_555
C6 C1 1_555 1_555
H9 C6 1_555 1_555
H10 C6 1_555 1_555
C7 N1 1_555 1_555
H11 C7 1_555 1_555
C8 C7 1_555 1_555
C9 C8 1_555 1_555
H12 C9 1_555 1_555
C10 C9 1_555 1_555
H13 C10 1_555 1_555
C11 C10 1_555 1_555
H14 C11 1_555 1_555
C12 N3 1_555 1_555
H15 C12 1_555 1_555
C13 N2 1_555 1_555
H16 C13 1_555 1_555
C14 C13 1_555 1_555
C15 C14 1_555 1_555
H17 C15 1_555 1_555
C16 C15 1_555 1_555
H18 C16 1_555 1_555
C17 C16 1_555 1_555
H19 C17 1_555 1_555
C18 N4 1_555 1_555
H20 C18 1_555 1_555
C5 C6 1_555 1_555
C11 C12 1_555 1_555
C17 C18 1_555 1_555

#END
