
#######################################################################
#
#                 Cambridge Crystallographic Data Centre
#                                CCDC 
#
#######################################################################
#
# If this CIF has been generated from an entry in the Cambridge 
# Structural Database, then it will include bibliographic, chemical, 
# crystal, experimental, refinement or atomic coordinate data resulting 
# from the CCDC's data processing and validation procedures.
#
#######################################################################

data_MEQGIY
_chemical_formula_moiety         'C70 H58 O10,C60,2(C7 H8)'
_chemical_name_systematic        
'C60fullerene 31,32,33,34,35-pentakis(benzoyloxy)calix[5]arene clathrate toluene solvate'
_symmetry_cell_setting           orthorhombic
_symmetry_space_group_name_H-M   'P n m a'
_symmetry_Int_Tables_number      62
_space_group_name_Hall           '-P 2ac 2n'
loop_
_symmetry_equiv_pos_site_id
_symmetry_equiv_pos_as_xyz
1 x,y,z
2 1/2-x,-y,1/2+z
3 1/2+x,1/2-y,1/2-z
4 -x,1/2+y,-z
5 -x,-y,-z
6 1/2+x,y,1/2-z
7 1/2-x,1/2+y,1/2+z
8 x,1/2-y,z
_cell_length_a                   23.701(3)
_cell_length_b                   30.019(4)
_cell_length_c                   12.8464(17)
_cell_angle_alpha                90
_cell_angle_beta                 90
_cell_angle_gamma                90
_cell_volume                     9139.96
_cell_formula_units_Z            4
loop_
_atom_site_label
_atom_site_type_symbol
_atom_site_fract_x
_atom_site_fract_y
_atom_site_fract_z
C36 C 0.0270(3) 0.6044(3) 0.2474(5)
C37 C 0.0657(4) 0.5884(2) 0.3107(6)
C38 C 0.1125(4) 0.6147(3) 0.3448(7)
C39 C 0.1206(4) 0.6582(3) 0.3123(6)
C40 C 0.0794(4) 0.6760(3) 0.2467(6)
C41 C 0.0332(3) 0.6499(2) 0.2134(5)
C42 C -0.0221(4) 0.5769(3) 0.2125(6)
H30 H 0.0626 0.5592 0.3339
H31 H 0.1384 0.6022 0.3905
H32 H 0.1518 0.6747 0.3331
H33 H 0.0825 0.7054 0.2245
H34 H 0.0064 0.6622 0.1690
H35 H -0.0130 0.5459 0.2190
H36 H -0.0306 0.5836 0.1411
H37 H -0.0544 0.5836 0.2550
C43 C 0.1180(5) 0.3602(2) 0.5379(7)
C44 C 0.1165(5) 0.3596(3) 0.3895(17)
C45 C 0.0775(7) 0.3490(5) 0.3975(19)
C46 C 0.0303(4) 0.3212(4) 0.4371(14)
C47 C 0.0291(4) 0.3131(4) 0.5385(10)
C48 C 0.0905(10) 0.3381(4) 0.6039(15)
C49 C 0.1917(9) 0.3217(3) 0.6594(9)
C50 C 0.2398(5) 0.2936(5) 0.6469(8)
C51 C 0.2751(5) 0.2930(6) 0.5536(9)
C52 C 0.2631(4) 0.3219(4) 0.4839(13)
C53 C 0.2652(4) 0.3128(4) 0.3838(10)
C54 C 0.0782(8) 0.3081(4) 0.6609(12)
C55 C 0.2216(8) 0.3080(4) 0.2672(13)
C56 C 0.2046(10) 0.3387(3) 0.3209(14)
C57 C 0.1756(4) 0.3605(2) 0.3851(7)
C58 C 0.1788(6) 0.3603(3) 0.5291(16)
C59 C 0.2167(6) 0.3489(5) 0.5220(20)
C60 C 0.1444(7) 0.3016(11) 0.7013(12)
C61 C 0.1227(8) 0.2500 0.1929(9)
C62 C 0.1395(6) 0.3161(4) 0.2365(10)
C63 C 0.2490(10) 0.2500 0.6540(20)
C64 C 0.0942(6) 0.3215(4) 0.2679(8)
C65 C 0.0509(4) 0.2916(6) 0.2748(7)
C66 C 0.0186(5) 0.2907(9) 0.3631(11)
C67 C 0.2299(6) 0.2711(4) 0.2387(9)
C68 C 0.0680(6) 0.2500 0.2283(10)
C69 C 0.1692(15) 0.2810(20) 0.2090(20)
C70 C 0.0009(4) 0.2500 0.4139(15)
C71 C 0.0100(4) 0.2676(4) 0.5536(15)
C72 C 0.0677(7) 0.2718(4) 0.6865(9)
C73 C 0.2835(4) 0.2669(4) 0.3672(13)
C74 C 0.2930(4) 0.2500 0.5069(13)
C75 C 0.1705(9) 0.2500 0.7296(7)
C62G C 0.1395(6) 0.1839(4) 0.2365(10)
C55G C 0.2216(8) 0.1920(4) 0.2672(13)
C53G C 0.2652(4) 0.1872(4) 0.3838(10)
C52G C 0.2631(4) 0.1781(4) 0.4839(13)
C51G C 0.2751(5) 0.2070(6) 0.5536(9)
C50G C 0.2398(5) 0.2064(5) 0.6469(8)
C49G C 0.1917(9) 0.1783(3) 0.6594(9)
C58G C 0.1788(6) 0.1397(3) 0.5291(16)
C43G C 0.1180(5) 0.1398(2) 0.5379(7)
C44G C 0.1165(5) 0.1404(3) 0.3895(17)
C45G C 0.0775(7) 0.1510(5) 0.3975(19)
C48G C 0.0905(10) 0.1619(4) 0.6039(15)
C47G C 0.0291(4) 0.1869(4) 0.5385(10)
C46G C 0.0303(4) 0.1788(4) 0.4371(14)
C64G C 0.0942(6) 0.1785(4) 0.2679(8)
C57G C 0.1756(4) 0.1395(2) 0.3851(7)
C56G C 0.2046(10) 0.1613(3) 0.3209(14)
C73G C 0.2835(4) 0.2331(4) 0.3672(13)
C67G C 0.2299(6) 0.2289(4) 0.2387(9)
C65G C 0.0509(4) 0.2084(6) 0.2748(7)
C66G C 0.0186(5) 0.2093(9) 0.3631(11)
C71G C 0.0100(4) 0.2324(4) 0.5536(15)
C54G C 0.0782(8) 0.1919(4) 0.6609(12)
C60G C 0.1444(7) 0.1984(11) 0.7013(12)
C59G C 0.2167(6) 0.1511(5) 0.5220(20)
C72G C 0.0677(7) 0.2282(4) 0.6865(9)
C69G C 0.1692(15) 0.2190(20) 0.2090(20)
O1 O 0.2169(2) 0.5876(1) 0.5782(3)
O2 O 0.1659(2) 0.5600(1) 0.7672(3)
O3 O 0.3287(1) 0.5582(1) 0.5736(3)
O4 O 0.2498(2) 0.5172(1) 0.8811(3)
O5 O 0.3489(1) 0.5157(1) 0.7640(3)
C1 C 0.2099(2) 0.6329(2) 0.5576(4)
C2 C 0.2497(2) 0.6543(2) 0.4938(3)
C3 C 0.2446(2) 0.7003(2) 0.4810(4)
C4 C 0.2014(2) 0.7251(2) 0.5269(4)
C5 C 0.1598(2) 0.7009(2) 0.5793(4)
C6 C 0.1629(2) 0.6554(2) 0.5949(4)
C7 C 0.1155(2) 0.6310(2) 0.6493(4)
C8 C 0.1185(2) 0.6309(2) 0.7668(4)
C9 C 0.0968(2) 0.6664(2) 0.8247(5)
C10 C 0.0965(2) 0.6657(2) 0.9326(5)
C11 C 0.1364(2) 0.5916(2) 0.9292(4)
C12 C 0.1406(2) 0.5947(2) 0.8219(4)
C13 C 0.1521(2) 0.5493(2) 0.9879(4)
C14 C 0.1148(2) 0.6281(2) 0.9844(5)
C15 C 0.2103(2) 0.5478(2) 1.0368(4)
C16 C 0.2177(3) 0.5615(2) 1.1399(4)
C17 C 0.2691(3) 0.5566(2) 1.1886(4)
C18 C 0.3135(3) 0.5365(2) 1.1368(4)
C19 C 0.3081(2) 0.5223(2) 1.0337(4)
C20 C 0.2564(2) 0.5301(2) 0.9839(4)
C21 C 0.3551(2) 0.4967(2) 0.9820(4)
C22 C 0.4000(2) 0.5232(2) 0.9241(4)
C23 C 0.4477(2) 0.5384(2) 0.9760(4)
C24 C 0.4923(2) 0.5571(2) 0.9221(5)
C25 C 0.4905(2) 0.5592(2) 0.8153(4)
C26 C 0.4433(2) 0.5446(2) 0.7601(4)
C27 C 0.3971(2) 0.5289(2) 0.8166(4)
C28 C 0.4439(2) 0.5444(2) 0.6427(4)
C29 C 0.4238(5) 0.5865(2) 0.5889(4)
C30 C 0.4609(2) 0.6211(2) 0.5717(4)
C31 C 0.4448(2) 0.6589(2) 0.5179(4)
C32 C 0.3912(2) 0.6616(2) 0.4757(4)
C33 C 0.3523(2) 0.6272(2) 0.4911(4)
C34 C 0.3684(2) 0.5909(2) 0.5524(4)
C35 C 0.2954(2) 0.6289(2) 0.4383(4)
H1 H 0.1981 0.5807 0.6292
H2 H 0.1716 0.5678 0.7070
H3 H 0.3337 0.5486 0.6327
H4 H 0.2804 0.5180 0.8514
H5 H 0.3468 0.5292 0.7086
H6 H 0.2711 0.7150 0.4402
H7 H 0.1286 0.7161 0.6050
H8 H 0.1152 0.6004 0.6252
H9 H 0.0800 0.6445 0.6285
H10 H 0.0821 0.6910 0.7901
H11 H 0.0842 0.6904 0.9698
H12 H 0.1245 0.5448 1.0425
H13 H 0.1489 0.5244 0.9401
H14 H 0.1127 0.6269 1.0566
H15 H 0.1877 0.5741 1.1759
H16 H 0.2740 0.5668 1.2563
H17 H 0.3475 0.5322 1.1713
H18 H 0.3382 0.4760 0.9332
H19 H 0.3739 0.4791 1.0351
H20 H 0.4497 0.5359 1.0481
H21 H 0.5234 0.5682 0.9579
H22 H 0.5214 0.5705 0.7792
H23 H 0.4208 0.5197 0.6191
H24 H 0.4822 0.5385 0.6199
H25 H 0.4976 0.6189 0.5968
H26 H 0.4700 0.6824 0.5101
H27 H 0.3709 0.6865 0.4369
H28 H 0.3004 0.6420 0.3699
H29 H 0.2824 0.5986 0.4282
C4G C 0.2014(2) 0.7749(2) 0.5269(4)
C3G C 0.2446(2) 0.7997(2) 0.4810(4)
C2G C 0.2497(2) 0.8457(2) 0.4938(3)
C1G C 0.2099(2) 0.8671(2) 0.5576(4)
O1G O 0.2169(2) 0.9124(1) 0.5782(3)
H1G H 0.1981 0.9193 0.6292
C6G C 0.1629(2) 0.8446(2) 0.5949(4)
C5G C 0.1598(2) 0.7991(2) 0.5793(4)
H7G H 0.1286 0.7839 0.6050
C7G C 0.1155(2) 0.8690(2) 0.6493(4)
C8G C 0.1185(2) 0.8691(2) 0.7668(4)
C9G C 0.0968(2) 0.8336(2) 0.8247(5)
C10G C 0.0965(2) 0.8343(2) 0.9326(5)
C14G C 0.1148(2) 0.8719(2) 0.9844(5)
C11G C 0.1364(2) 0.9084(2) 0.9292(4)
C12G C 0.1406(2) 0.9053(2) 0.8219(4)
O2G O 0.1659(2) 0.9400(1) 0.7672(3)
H2G H 0.1716 0.9322 0.7070
C13G C 0.1521(2) 0.9507(2) 0.9879(4)
C15G C 0.2103(2) 0.9522(2) 1.0368(4)
C16G C 0.2177(3) 0.9385(2) 1.1399(4)
C17G C 0.2691(3) 0.9434(2) 1.1886(4)
C18G C 0.3135(3) 0.9635(2) 1.1368(4)
C19G C 0.3081(2) 0.9777(2) 1.0337(4)
C20G C 0.2564(2) 0.9699(2) 0.9839(4)
O4G O 0.2498(2) 0.9828(1) 0.8811(3)
H4G H 0.2804 0.9820 0.8514
C21G C 0.3551(2) 1.0033(2) 0.9820(4)
C22G C 0.4000(2) 0.9768(2) 0.9241(4)
C23G C 0.4477(2) 0.9616(2) 0.9760(4)
C24G C 0.4923(2) 0.9429(2) 0.9221(5)
C25G C 0.4905(2) 0.9408(2) 0.8153(4)
C26G C 0.4433(2) 0.9554(2) 0.7601(4)
C27G C 0.3971(2) 0.9711(2) 0.8166(4)
O5G O 0.3489(1) 0.9843(1) 0.7640(3)
H5G H 0.3468 0.9708 0.7086
C28G C 0.4439(2) 0.9556(2) 0.6427(4)
C29G C 0.4238(5) 0.9135(2) 0.5889(4)
C30G C 0.4609(2) 0.8789(2) 0.5717(4)
C31G C 0.4448(2) 0.8411(2) 0.5179(4)
C32G C 0.3912(2) 0.8384(2) 0.4757(4)
C33G C 0.3523(2) 0.8728(2) 0.4911(4)
C34G C 0.3684(2) 0.9091(2) 0.5524(4)
O3G O 0.3287(1) 0.9418(1) 0.5736(3)
H3G H 0.3337 0.9514 0.6327
C35G C 0.2954(2) 0.8711(2) 0.4383(4)
H28G H 0.3004 0.8580 0.3699
H29G H 0.2824 0.9014 0.4282
H27G H 0.3709 0.8135 0.4369
H26G H 0.4700 0.8176 0.5101
H25G H 0.4976 0.8811 0.5968
H23G H 0.4208 0.9803 0.6191
H24G H 0.4822 0.9615 0.6199
H22G H 0.5214 0.9295 0.7792
H21G H 0.5234 0.9318 0.9579
H20G H 0.4497 0.9641 1.0481
H18G H 0.3382 1.0240 0.9332
H19G H 0.3739 1.0209 1.0351
H17G H 0.3475 0.9678 1.1713
H16G H 0.2740 0.9332 1.2563
H15G H 0.1877 0.9259 1.1759
H12G H 0.1245 0.9552 1.0425
H13G H 0.1489 0.9756 0.9401
H14G H 0.1127 0.8731 1.0566
H11G H 0.0842 0.8096 0.9698
H10G H 0.0821 0.8090 0.7901
H8G H 0.1152 0.8996 0.6252
H9G H 0.0800 0.8555 0.6285
H6G H 0.2711 0.7850 0.4402
loop_
_geom_bond_atom_site_label_1
_geom_bond_atom_site_label_2
_geom_bond_site_symmetry_1
_geom_bond_site_symmetry_2
O1 C1 1_555 1_555
O2 C12 1_555 1_555
O3 C34 1_555 1_555
O4 C20 1_555 1_555
O5 C27 1_555 1_555
C1 C2 1_555 1_555
C2 C3 1_555 1_555
C3 C4 1_555 1_555
C4 C5 1_555 1_555
C5 C6 1_555 1_555
C6 C1 1_555 1_555
C7 C6 1_555 1_555
C8 C7 1_555 1_555
C9 C8 1_555 1_555
C10 C9 1_555 1_555
C11 C12 1_555 1_555
C12 C8 1_555 1_555
C13 C11 1_555 1_555
C14 C10 1_555 1_555
C15 C13 1_555 1_555
C16 C15 1_555 1_555
C17 C16 1_555 1_555
C18 C17 1_555 1_555
C19 C18 1_555 1_555
C20 C15 1_555 1_555
C21 C19 1_555 1_555
C22 C21 1_555 1_555
C23 C22 1_555 1_555
C24 C23 1_555 1_555
C25 C24 1_555 1_555
C26 C25 1_555 1_555
C27 C22 1_555 1_555
C28 C26 1_555 1_555
C29 C28 1_555 1_555
C30 C29 1_555 1_555
C31 C30 1_555 1_555
C32 C31 1_555 1_555
C33 C32 1_555 1_555
C34 C29 1_555 1_555
C35 C2 1_555 1_555
C36 C37 1_555 1_555
C37 C38 1_555 1_555
C38 C39 1_555 1_555
C39 C40 1_555 1_555
C40 C41 1_555 1_555
C41 C36 1_555 1_555
C42 C36 1_555 1_555
C43 C44 1_555 1_555
C44 C45 1_555 1_555
C45 C43 1_555 1_555
C46 C45 1_555 1_555
C47 C46 1_555 1_555
C48 C43 1_555 1_555
C49 C50 1_555 1_555
C50 C51 1_555 1_555
C51 C52 1_555 1_555
C52 C53 1_555 1_555
C53 C55 1_555 1_555
C54 C47 1_555 1_555
C55 C56 1_555 1_555
C56 C53 1_555 1_555
C57 C44 1_555 1_555
C58 C43 1_555 1_555
C59 C49 1_555 1_555
C60 C48 1_555 1_555
C61 C62 1_555 1_555
C62 C55 1_555 1_555
C63 C50 1_555 1_555
C64 C44 1_555 1_555
C65 C64 1_555 1_555
C66 C46 1_555 1_555
C67 C55 1_555 1_555
C68 C61 1_555 1_555
C69 C55 1_555 1_555
C70 C66 1_555 1_555
C71 C47 1_555 1_555
C72 C54 1_555 1_555
C73 C53 1_555 1_555
C74 C51 1_555 1_555
C75 C60 1_555 1_555
H1 O1 1_555 1_555
H2 O2 1_555 1_555
H3 O3 1_555 1_555
H4 O4 1_555 1_555
H5 O5 1_555 1_555
H6 C3 1_555 1_555
H7 C5 1_555 1_555
H8 C7 1_555 1_555
H9 C7 1_555 1_555
H10 C9 1_555 1_555
H11 C10 1_555 1_555
H12 C13 1_555 1_555
H13 C13 1_555 1_555
H14 C14 1_555 1_555
H15 C16 1_555 1_555
H16 C17 1_555 1_555
H17 C18 1_555 1_555
H18 C21 1_555 1_555
H19 C21 1_555 1_555
H20 C23 1_555 1_555
H21 C24 1_555 1_555
H22 C25 1_555 1_555
H23 C28 1_555 1_555
H24 C28 1_555 1_555
H25 C30 1_555 1_555
H26 C31 1_555 1_555
H27 C32 1_555 1_555
H28 C35 1_555 1_555
H29 C35 1_555 1_555
H30 C37 1_555 1_555
H31 C38 1_555 1_555
H32 C39 1_555 1_555
H33 C40 1_555 1_555
H34 C41 1_555 1_555
H35 C42 1_555 1_555
H36 C42 1_555 1_555
H37 C42 1_555 1_555
C4G C4 1_555 1_555
C3G C4G 1_555 1_555
C2G C3G 1_555 1_555
C1G C2G 1_555 1_555
O1G C1G 1_555 1_555
H1G O1G 1_555 1_555
C6G C1G 1_555 1_555
C5G C4G 1_555 1_555
H7G C5G 1_555 1_555
C7G C6G 1_555 1_555
C8G C7G 1_555 1_555
C9G C8G 1_555 1_555
C10G C9G 1_555 1_555
C14G C10G 1_555 1_555
C11G C14G 1_555 1_555
C12G C8G 1_555 1_555
O2G C12G 1_555 1_555
H2G O2G 1_555 1_555
C13G C11G 1_555 1_555
C15G C13G 1_555 1_555
C16G C15G 1_555 1_555
C17G C16G 1_555 1_555
C18G C17G 1_555 1_555
C19G C18G 1_555 1_555
C20G C15G 1_555 1_555
O4G C20G 1_555 1_555
H4G O4G 1_555 1_555
C21G C19G 1_555 1_555
C22G C21G 1_555 1_555
C23G C22G 1_555 1_555
C24G C23G 1_555 1_555
C25G C24G 1_555 1_555
C26G C25G 1_555 1_555
C27G C22G 1_555 1_555
O5G C27G 1_555 1_555
H5G O5G 1_555 1_555
C28G C26G 1_555 1_555
C29G C28G 1_555 1_555
C30G C29G 1_555 1_555
C31G C30G 1_555 1_555
C32G C31G 1_555 1_555
C33G C32G 1_555 1_555
C34G C29G 1_555 1_555
O3G C34G 1_555 1_555
H3G O3G 1_555 1_555
C35G C2G 1_555 1_555
H28G C35G 1_555 1_555
H29G C35G 1_555 1_555
H27G C32G 1_555 1_555
H26G C31G 1_555 1_555
H25G C30G 1_555 1_555
H23G C28G 1_555 1_555
H24G C28G 1_555 1_555
H22G C25G 1_555 1_555
H21G C24G 1_555 1_555
H20G C23G 1_555 1_555
H18G C21G 1_555 1_555
H19G C21G 1_555 1_555
H17G C18G 1_555 1_555
H16G C17G 1_555 1_555
H15G C16G 1_555 1_555
H12G C13G 1_555 1_555
H13G C13G 1_555 1_555
H14G C14G 1_555 1_555
H11G C10G 1_555 1_555
H10G C9G 1_555 1_555
H8G C7G 1_555 1_555
H9G C7G 1_555 1_555
H6G C3G 1_555 1_555
C62G C61 1_555 1_555
C55G C62G 1_555 1_555
C53G C55G 1_555 1_555
C52G C53G 1_555 1_555
C51G C63 1_555 1_555
C50G C63 1_555 1_555
C49G C50G 1_555 1_555
C58G C49G 1_555 1_555
C43G C58G 1_555 1_555
C44G C43G 1_555 1_555
C45G C43G 1_555 1_555
C48G C43G 1_555 1_555
C47G C48G 1_555 1_555
C46G C45G 1_555 1_555
C64G C62G 1_555 1_555
C57G C58G 1_555 1_555
C56G C62G 1_555 1_555
C73G C73 1_555 1_555
C67G C67 1_555 1_555
C65G C68 1_555 1_555
C66G C70 1_555 1_555
C71G C70 1_555 1_555
C54G C48G 1_555 1_555
C60G C75 1_555 1_555
C59G C52G 1_555 1_555
C72G C72 1_555 1_555
C69G C61 1_555 1_555
C11 C14 1_555 1_555
C19 C20 1_555 1_555
C26 C27 1_555 1_555
C33 C34 1_555 1_555
C33 C35 1_555 1_555
C45 C64 1_555 1_555
C47 C48 1_555 1_555
C48 C54 1_555 1_555
C49 C58 1_555 1_555
C49 C60 1_555 1_555
C51 C63 1_555 1_555
C52 C59 1_555 1_555
C54 C60 1_555 1_555
C56 C57 1_555 1_555
C56 C62 1_555 1_555
C57 C59 1_555 1_555
C57 C58 1_555 1_555
C58 C59 1_555 1_555
C60 C72 1_555 1_555
C61 C69 1_555 1_555
C62 C64 1_555 1_555
C62 C69 1_555 1_555
C63 C75 1_555 1_555
C63 C74 1_555 1_555
C65 C66 1_555 1_555
C65 C68 1_555 1_555
C67 C73 1_555 1_555
C67 C69 1_555 1_555
C67 C69G 1_555 1_555
C69 C69G 1_555 1_555
C69 C67G 1_555 1_555
C70 C71 1_555 1_555
C71 C71G 1_555 1_555
C73 C74 1_555 1_555
C74 C51G 1_555 1_555
C74 C73G 1_555 1_555
C6G C5G 1_555 1_555
C11G C12G 1_555 1_555
C19G C20G 1_555 1_555
C26G C27G 1_555 1_555
C33G C34G 1_555 1_555
C33G C35G 1_555 1_555
C62G C69G 1_555 1_555
C55G C67G 1_555 1_555
C55G C56G 1_555 1_555
C55G C69G 1_555 1_555
C53G C73G 1_555 1_555
C53G C56G 1_555 1_555
C52G C51G 1_555 1_555
C51G C50G 1_555 1_555
C49G C59G 1_555 1_555
C49G C60G 1_555 1_555
C58G C59G 1_555 1_555
C44G C45G 1_555 1_555
C44G C57G 1_555 1_555
C44G C64G 1_555 1_555
C45G C64G 1_555 1_555
C48G C60G 1_555 1_555
C47G C46G 1_555 1_555
C47G C54G 1_555 1_555
C47G C71G 1_555 1_555
C46G C66G 1_555 1_555
C64G C65G 1_555 1_555
C57G C56G 1_555 1_555
C57G C59G 1_555 1_555
C73G C67G 1_555 1_555
C67G C69G 1_555 1_555
C65G C66G 1_555 1_555
C54G C72G 1_555 1_555
C54G C60G 1_555 1_555
C60G C72G 1_555 1_555

#END
