
#######################################################################
#
#                 Cambridge Crystallographic Data Centre
#                                CCDC 
#
#######################################################################
#
# If this CIF has been generated from an entry in the Cambridge 
# Structural Database, then it will include bibliographic, chemical, 
# crystal, experimental, refinement or atomic coordinate data resulting 
# from the CCDC's data processing and validation procedures.
#
#######################################################################

data_MEQJOI
_chemical_compound_source        'heartwood of Osmanthus armatus'
_chemical_name_common            
'4-(3-Hydroxy-1-propenyl)-2,6-dimethoxyphenyl-beta-D-glucopyranoside monohydrate'
_chemical_formula_moiety         'C17 H24 O9,H2 O1'
_chemical_name_systematic        'Syringin monohydrate'
_chemical_properties_biological  
'immunomodulatory, anti-inflammatory and antinociceptive activities'
_symmetry_cell_setting           orthorhombic
_symmetry_space_group_name_H-M   'P 21 21 21'
_symmetry_Int_Tables_number      19
_space_group_name_Hall           'P 2ac 2ab'
loop_
_symmetry_equiv_pos_site_id
_symmetry_equiv_pos_as_xyz
1 x,y,z
2 1/2-x,-y,1/2+z
3 -x,1/2+y,1/2-z
4 1/2+x,1/2-y,-z
_cell_length_a                   4.855(2)
_cell_length_b                   19.519(3)
_cell_length_c                   20.084(3)
_cell_angle_alpha                90
_cell_angle_beta                 90
_cell_angle_gamma                90
_cell_volume                     1903.26
_exptl_crystal_colour            colorless
_exptl_crystal_description       prism
_chemical_melting_point          '464-465 K'
_cell_formula_units_Z            4
_exptl_crystal_recrystallization_method methanol
loop_
_atom_site_label
_atom_site_type_symbol
_atom_site_fract_x
_atom_site_fract_y
_atom_site_fract_z
O1 O 0.4406(14) 0.2149(2) 0.1672(2)
H1 H 0.4456 0.1877 0.1360
O2 O 0.1102(10) 0.5076(2) 0.37876(19)
O3 O 0.3809(9) 0.48704(19) 0.49027(19)
O4 O 0.7253(12) 0.3803(2) 0.5063(2)
O5 O 0.6507(9) 0.51822(19) 0.57673(18)
O6 O 0.5074(11) 0.6101(2) 0.42269(19)
H2 H 0.3829 0.5843 0.4113
O7 O 0.7343(10) 0.71510(19) 0.5040(3)
H3 H 0.8766 0.7373 0.4996
O8 O 1.1187(10) 0.6610(2) 0.6061(2)
H4 H 1.0910 0.7001 0.6193
O9 O 0.9502(12) 0.4670(2) 0.6876(3)
H5 H 0.8060 0.4464 0.6805
C1 C 0.642(2) 0.1964(4) 0.2152(3)
H8 H 0.8234 0.1979 0.1949
H9 H 0.6089 0.1499 0.2300
C2 C 0.636(2) 0.2436(4) 0.2740(4)
H10 H 0.7667 0.2369 0.3073
C3 C 0.4587(17) 0.2938(3) 0.2816(3)
H11 H 0.3271 0.2991 0.2484
C4 C 0.4474(16) 0.3429(3) 0.3382(3)
C5 C 0.2749(16) 0.3989(3) 0.3317(3)
H12 H 0.1665 0.4035 0.2938
C6 C 0.2623(15) 0.4485(3) 0.3816(3)
C7 C 0.4160(15) 0.4398(3) 0.4392(3)
C8 C 0.5837(16) 0.3833(3) 0.4462(3)
C9 C 0.6067(17) 0.3348(3) 0.3955(3)
H13 H 0.7257 0.2977 0.3998
C10 C -0.0512(16) 0.5191(4) 0.3190(3)
H14 H 0.0693 0.5216 0.2812
H15 H -0.1511 0.5613 0.3232
H16 H -0.1787 0.4820 0.3131
C11 C 0.9154(19) 0.3266(3) 0.5171(4)
H17 H 0.8197 0.2836 0.5172
H18 H 1.0050 0.3331 0.5592
H19 H 1.0506 0.3267 0.4822
C12 C 0.6166(15) 0.5272(3) 0.5070(3)
H20 H 0.7797 0.5114 0.4827
C13 C 0.5606(14) 0.6017(3) 0.4929(3)
H21 H 0.3971 0.6159 0.5179
C14 C 0.8008(14) 0.6446(3) 0.5145(3)
H22 H 0.9619 0.6326 0.4875
C15 C 0.8645(15) 0.6304(3) 0.5878(3)
H23 H 0.7165 0.6489 0.6156
C16 C 0.8925(15) 0.5538(3) 0.6002(3)
H24 H 1.0560 0.5363 0.5772
C17 C 0.9124(19) 0.5378(3) 0.6738(3)
H25 H 1.0653 0.5632 0.6926
H26 H 0.7454 0.5533 0.6956
O10 O 0.4528(13) 0.3975(2) 0.6482(3)
H6 H 0.3013 0.4180 0.6555
H7 H 0.4971 0.4082 0.6086
loop_
_geom_bond_atom_site_label_1
_geom_bond_atom_site_label_2
_geom_bond_site_symmetry_1
_geom_bond_site_symmetry_2
O1 H1 1_555 1_555
O2 C6 1_555 1_555
O3 C7 1_555 1_555
O4 C8 1_555 1_555
O5 C12 1_555 1_555
O6 H2 1_555 1_555
O7 H3 1_555 1_555
O8 H4 1_555 1_555
O9 H5 1_555 1_555
O10 H6 1_555 1_555
H7 O10 1_555 1_555
C1 O1 1_555 1_555
H8 C1 1_555 1_555
H9 C1 1_555 1_555
C2 C1 1_555 1_555
H10 C2 1_555 1_555
C3 C2 1_555 1_555
H11 C3 1_555 1_555
C4 C3 1_555 1_555
C5 C4 1_555 1_555
H12 C5 1_555 1_555
C6 C5 1_555 1_555
C7 C6 1_555 1_555
C8 C7 1_555 1_555
C9 C4 1_555 1_555
H13 C9 1_555 1_555
C10 O2 1_555 1_555
H14 C10 1_555 1_555
H15 C10 1_555 1_555
H16 C10 1_555 1_555
C11 O4 1_555 1_555
H17 C11 1_555 1_555
H18 C11 1_555 1_555
H19 C11 1_555 1_555
C12 O3 1_555 1_555
H20 C12 1_555 1_555
C13 O6 1_555 1_555
H21 C13 1_555 1_555
C14 O7 1_555 1_555
H22 C14 1_555 1_555
C15 O8 1_555 1_555
H23 C15 1_555 1_555
C16 O5 1_555 1_555
H24 C16 1_555 1_555
C17 O9 1_555 1_555
H25 C17 1_555 1_555
H26 C17 1_555 1_555
C8 C9 1_555 1_555
C12 C13 1_555 1_555
C13 C14 1_555 1_555
C14 C15 1_555 1_555
C15 C16 1_555 1_555
C16 C17 1_555 1_555

#END
