
#######################################################################
#
#                 Cambridge Crystallographic Data Centre
#                                CCDC 
#
#######################################################################
#
# If this CIF has been generated from an entry in the Cambridge 
# Structural Database, then it will include bibliographic, chemical, 
# crystal, experimental, refinement or atomic coordinate data resulting 
# from the CCDC's data processing and validation procedures.
#
#######################################################################

data_MEQJEY
_chemical_formula_moiety         'C9 H8 N2 O2'
_chemical_name_systematic        1H-Pyrido(3,4-b)azepine-2,5(3H,4H)-dione
_symmetry_cell_setting           monoclinic
_symmetry_space_group_name_H-M   'P 21/n'
_symmetry_Int_Tables_number      14
_space_group_name_Hall           '-P 2yn'
loop_
_symmetry_equiv_pos_site_id
_symmetry_equiv_pos_as_xyz
1 x,y,z
2 1/2-x,1/2+y,1/2-z
3 -x,-y,-z
4 1/2+x,1/2-y,1/2+z
_cell_length_a                   11.346(3)
_cell_length_b                   10.708(2)
_cell_length_c                   13.161(3)
_cell_angle_alpha                90
_cell_angle_beta                 93.219(4)
_cell_angle_gamma                90
_cell_volume                     1596.45
_exptl_crystal_colour            colorless
_exptl_crystal_description       needle
_cell_formula_units_Z            8
_exptl_crystal_recrystallization_method ethanol
loop_
_atom_site_label
_atom_site_type_symbol
_atom_site_fract_x
_atom_site_fract_y
_atom_site_fract_z
O1 O 0.92832(14) 0.34685(16) 0.58596(15)
O2 O 0.49085(13) 0.14925(13) 0.44495(11)
N1 N 0.79771(16) -0.01408(16) 0.78660(13)
N2 N 0.63103(14) 0.08729(15) 0.55935(12)
H1 H 0.6027 0.0135 0.5498
C1 C 0.71824(18) 0.00235(18) 0.71090(15)
H3 H 0.6538 -0.0514 0.7073
C2 C 0.8882(2) 0.0660(2) 0.79283(18)
H4 H 0.9458 0.0566 0.8454
C3 C 0.89929(18) 0.1615(2) 0.72483(17)
H5 H 0.9625 0.2165 0.7336
C4 C 0.81774(17) 0.17801(17) 0.64259(16)
C5 C 0.84270(18) 0.28056(19) 0.56858(18)
C6 C 0.7639(2) 0.2982(2) 0.47648(17)
H6 H 0.7768 0.2306 0.4293
H7 H 0.7846 0.3757 0.4437
C7 C 0.63421(18) 0.30187(18) 0.49841(18)
H8 H 0.6258 0.3407 0.5642
H9 H 0.5923 0.3531 0.4475
C8 C 0.57923(17) 0.17528(18) 0.49855(15)
C9 C 0.72275(16) 0.09412(17) 0.63536(14)
O3 O 0.39107(14) 0.39429(14) 0.59979(13)
O4 O 0.01771(13) 0.11902(13) 0.41305(11)
N3 N 0.32730(17) -0.01729(18) 0.76018(14)
N4 N 0.12895(14) 0.09758(15) 0.55752(12)
H2 H 0.0730 0.0510 0.5774
C10 C 0.24010(19) 0.0010(2) 0.69185(16)
H10 H 0.1817 -0.0599 0.6863
C11 C 0.4098(2) 0.0719(2) 0.76781(17)
H11 H 0.4742 0.0606 0.8138
C12 C 0.40395(18) 0.1789(2) 0.71106(16)
H12 H 0.4624 0.2392 0.7211
C13 C 0.31193(17) 0.19879(18) 0.63854(15)
C14 C 0.31014(18) 0.32150(19) 0.58292(16)
C15 C 0.21102(18) 0.35180(19) 0.50885(16)
H13 H 0.2290 0.4286 0.4738
H14 H 0.1403 0.3658 0.5453
C16 C 0.18724(18) 0.24887(18) 0.43076(15)
H15 H 0.1537 0.2857 0.3683
H16 H 0.2616 0.2101 0.4157
C17 C 0.10543(18) 0.15081(18) 0.46539(16)
C18 C 0.22728(17) 0.10405(17) 0.62656(14)
loop_
_geom_bond_atom_site_label_1
_geom_bond_atom_site_label_2
_geom_bond_site_symmetry_1
_geom_bond_site_symmetry_2
O1 C5 1_555 1_555
O2 C8 1_555 1_555
O3 C14 1_555 1_555
O4 C17 1_555 1_555
N1 C1 1_555 1_555
N2 H1 1_555 1_555
N3 C10 1_555 1_555
N4 H2 1_555 1_555
C1 H3 1_555 1_555
C2 N1 1_555 1_555
H4 C2 1_555 1_555
C3 C2 1_555 1_555
H5 C3 1_555 1_555
C4 C3 1_555 1_555
C5 C4 1_555 1_555
C6 C5 1_555 1_555
H6 C6 1_555 1_555
H7 C6 1_555 1_555
C7 C6 1_555 1_555
H8 C7 1_555 1_555
H9 C7 1_555 1_555
C8 N2 1_555 1_555
C9 N2 1_555 1_555
C10 H10 1_555 1_555
C11 N3 1_555 1_555
H11 C11 1_555 1_555
C12 C11 1_555 1_555
H12 C12 1_555 1_555
C13 C12 1_555 1_555
C14 C13 1_555 1_555
C15 C14 1_555 1_555
H13 C15 1_555 1_555
H14 C15 1_555 1_555
C16 C15 1_555 1_555
H15 C16 1_555 1_555
H16 C16 1_555 1_555
C17 N4 1_555 1_555
C18 N4 1_555 1_555
C1 C9 1_555 1_555
C4 C9 1_555 1_555
C7 C8 1_555 1_555
C10 C18 1_555 1_555
C13 C18 1_555 1_555
C16 C17 1_555 1_555

#END
