
#######################################################################
#
#                 Cambridge Crystallographic Data Centre
#                                CCDC 
#
#######################################################################
#
# If this CIF has been generated from an entry in the Cambridge 
# Structural Database, then it will include bibliographic, chemical, 
# crystal, experimental, refinement or atomic coordinate data resulting 
# from the CCDC's data processing and validation procedures.
#
#######################################################################

data_MEQKID
_chemical_formula_moiety         'C15 H12 F1 N3 O1'
_chemical_name_systematic        
3-(1H-Benzotriazol-1-yl)-1-(2-fluorophenyl)propan-1-one
_symmetry_cell_setting           monoclinic
_symmetry_space_group_name_H-M   'P 21/c'
_symmetry_Int_Tables_number      14
_space_group_name_Hall           '-P 2ybc'
loop_
_symmetry_equiv_pos_site_id
_symmetry_equiv_pos_as_xyz
1 x,y,z
2 -x,1/2+y,1/2-z
3 -x,-y,-z
4 x,1/2-y,1/2+z
_cell_length_a                   15.551(6)
_cell_length_b                   5.971(2)
_cell_length_c                   14.221(6)
_cell_angle_alpha                90
_cell_angle_beta                 104.339(6)
_cell_angle_gamma                90
_cell_volume                     1279.35
_exptl_crystal_colour            colorless
_exptl_crystal_description       column
_cell_formula_units_Z            4
_exptl_crystal_recrystallization_method 'ethanol/petroleum ether'
loop_
_atom_site_label
_atom_site_type_symbol
_atom_site_fract_x
_atom_site_fract_y
_atom_site_fract_z
F1 F 0.73132(8) 0.0299(2) 0.82666(8)
C1 C 1.07969(11) 0.3440(3) 1.17473(11)
H1 H 1.1198 0.2328 1.2026
N1 N 0.84451(9) 0.5051(2) 1.09814(10)
C2 C 0.74309(10) 0.2240(3) 1.00551(10)
H2 H 0.7236 0.3328 0.9540
H3 H 0.7925 0.1414 0.9922
N2 N 0.82312(10) 0.7122(3) 1.06016(11)
C3 C 0.93446(10) 0.4781(2) 1.12024(9)
N3 N 0.89552(10) 0.8195(2) 1.05724(11)
C4 C 0.99127(11) 0.3037(3) 1.16131(10)
H4 H 0.9700 0.1681 1.1785
C5 C 1.05736(11) 0.7183(3) 1.10718(11)
H5 H 1.0790 0.8525 1.0891
O1 O 0.63199(9) 0.0660(3) 1.07216(10)
C6 C 0.96620(11) 0.6808(2) 1.09384(10)
C7 C 0.66832(10) 0.0648(3) 1.00583(12)
C8 C 0.63805(10) -0.1001(3) 0.92444(11)
C9 C 0.67040(11) -0.1186(3) 0.84222(12)
C10 C 0.77424(11) 0.3463(3) 1.10168(12)
H6 H 0.7246 0.4255 1.1163
H7 H 0.7960 0.2385 1.1531
C11 C 1.11281(11) 0.5484(3) 1.14793(11)
H8 H 1.1738 0.5676 1.1583
C12 C 0.57469(11) -0.2587(3) 0.93320(14)
H9 H 0.5505 -0.2532 0.9868
C13 C 0.64411(13) -0.2827(3) 0.77343(14)
H10 H 0.6681 -0.2893 0.7198
C14 C 0.58224(13) -0.4361(4) 0.78476(15)
H11 H 0.5640 -0.5486 0.7389
C15 C 0.54705(13) -0.4230(4) 0.86449(16)
H12 H 0.5043 -0.5260 0.8719
loop_
_geom_bond_atom_site_label_1
_geom_bond_atom_site_label_2
_geom_bond_site_symmetry_1
_geom_bond_site_symmetry_2
F1 C9 1_555 1_555
C1 H1 1_555 1_555
N1 N2 1_555 1_555
C2 H2 1_555 1_555
H3 C2 1_555 1_555
N2 N3 1_555 1_555
C3 N1 1_555 1_555
N3 C6 1_555 1_555
C4 C1 1_555 1_555
H4 C4 1_555 1_555
C5 H5 1_555 1_555
O1 C7 1_555 1_555
C6 C3 1_555 1_555
C7 C2 1_555 1_555
C8 C7 1_555 1_555
C9 C8 1_555 1_555
C10 N1 1_555 1_555
H6 C10 1_555 1_555
H7 C10 1_555 1_555
C11 C1 1_555 1_555
H8 C11 1_555 1_555
C12 C8 1_555 1_555
H9 C12 1_555 1_555
C13 C9 1_555 1_555
H10 C13 1_555 1_555
C14 C13 1_555 1_555
H11 C14 1_555 1_555
C15 C12 1_555 1_555
H12 C15 1_555 1_555
C2 C10 1_555 1_555
C3 C4 1_555 1_555
C5 C6 1_555 1_555
C5 C11 1_555 1_555
C14 C15 1_555 1_555

#END
