
#######################################################################
#
#                 Cambridge Crystallographic Data Centre
#                                CCDC 
#
#######################################################################
#
# If this CIF has been generated from an entry in the Cambridge 
# Structural Database, then it will include bibliographic, chemical, 
# crystal, experimental, refinement or atomic coordinate data resulting 
# from the CCDC's data processing and validation procedures.
#
#######################################################################

data_MEQPIK
_chemical_formula_moiety         'C11 H5 Br1 F2 O1 S1'
_chemical_name_systematic        
7-bromo-2,2-difluoro-2H-naphtho[1,2-d][1,3]oxathiole
_symmetry_cell_setting           monoclinic
_symmetry_space_group_name_H-M   'P 21/n'
_symmetry_Int_Tables_number      14
_space_group_name_Hall           '-P 2yn'
loop_
_symmetry_equiv_pos_site_id
_symmetry_equiv_pos_as_xyz
1 x,y,z
2 1/2-x,1/2+y,1/2-z
3 -x,-y,-z
4 1/2+x,1/2-y,1/2+z
_cell_length_a                   12.442(7)
_cell_length_b                   4.509(3)
_cell_length_c                   19.518(11)
_cell_angle_alpha                90
_cell_angle_beta                 99.184(7)
_cell_angle_gamma                90
_cell_volume                     1080.94
_exptl_crystal_colour            colorless
_exptl_crystal_description       Block
_cell_formula_units_Z            4
loop_
_atom_site_label
_atom_site_type_symbol
_atom_site_fract_x
_atom_site_fract_y
_atom_site_fract_z
Br1 Br 0.14434(7) 0.0244(3) 0.06251(5)
S1 S -0.18144(16) 0.5426(5) 0.32090(10)
F1 F -0.2534(4) 0.2773(12) 0.4241(2)
F2 F -0.1709(5) 0.6777(12) 0.4530(3)
O1 O -0.0743(4) 0.2902(14) 0.4327(2)
C1 C -0.1673(7) 0.4450(19) 0.4123(4)
C2 C -0.0217(5) 0.2125(18) 0.3771(4)
C3 C -0.0652(5) 0.3317(17) 0.3156(3)
C4 C -0.0188(5) 0.2681(17) 0.2554(3)
C5 C 0.0742(5) 0.0783(19) 0.2643(3)
C6 C 0.1155(6) -0.030(2) 0.3305(4)
C7 C 0.0694(6) 0.032(2) 0.3871(4)
C8 C -0.0581(6) 0.382(2) 0.1895(4)
C9 C -0.0110(6) 0.309(2) 0.1339(4)
C10 C 0.0792(5) 0.121(2) 0.1411(4)
C11 C 0.1218(5) 0.008(2) 0.2040(4)
H1 H 0.182(5) -0.125(14) 0.213(3)
H2 H -0.105(4) 0.485(12) 0.187(3)
H3 H 0.172(5) -0.145(15) 0.334(3)
H4 H 0.108(7) -0.070(18) 0.435(5)
H5 H -0.041(4) 0.365(12) 0.089(3)
loop_
_geom_bond_atom_site_label_1
_geom_bond_atom_site_label_2
_geom_bond_site_symmetry_1
_geom_bond_site_symmetry_2
Br1 C10 1_555 1_555
S1 C1 1_555 1_555
F1 C1 1_555 1_555
F2 C1 1_555 1_555
O1 C1 1_555 1_555
C2 O1 1_555 1_555
C3 S1 1_555 1_555
C4 C3 1_555 1_555
C5 C4 1_555 1_555
C6 C5 1_555 1_555
C7 C2 1_555 1_555
C8 C4 1_555 1_555
C9 C8 1_555 1_555
C10 C9 1_555 1_555
C11 C5 1_555 1_555
H1 C11 1_555 1_555
H2 C8 1_555 1_555
H3 C6 1_555 1_555
H4 C7 1_555 1_555
H5 C9 1_555 1_555
C2 C3 1_555 1_555
C6 C7 1_555 1_555
C10 C11 1_555 1_555

#END
