
#######################################################################
#
#                 Cambridge Crystallographic Data Centre
#                                CCDC 
#
#######################################################################
#
# If this CIF has been generated from an entry in the Cambridge 
# Structural Database, then it will include bibliographic, chemical, 
# crystal, experimental, refinement or atomic coordinate data resulting 
# from the CCDC's data processing and validation procedures.
#
#######################################################################

data_MEQPOO
_chemical_formula_moiety         'C40 H32 N2'
_chemical_name_systematic        
1,2-bis(1-Naphthyl)-N,N'-bis(3-phenylprop-2-en-1-ylidene)ethane-1,2-diamine
_symmetry_cell_setting           monoclinic
_symmetry_space_group_name_H-M   'C 2/c'
_symmetry_Int_Tables_number      15
_space_group_name_Hall           '-C 2yn'
loop_
_symmetry_equiv_pos_site_id
_symmetry_equiv_pos_as_xyz
1 x,y,z
2 1/2+x,1/2+y,z
3 -x,y,1/2-z
4 1/2-x,1/2+y,1/2-z
5 -x,-y,-z
6 1/2-x,1/2-y,-z
7 x,-y,1/2+z
8 1/2+x,1/2-y,1/2+z
_cell_length_a                   36.957(3)
_cell_length_b                   9.8273(9)
_cell_length_c                   16.7524(17)
_cell_angle_alpha                90
_cell_angle_beta                 104.949(4)
_cell_angle_gamma                90
_cell_volume                     5878.35
_exptl_crystal_colour            colorless
_exptl_crystal_description       block
_cell_formula_units_Z            8
loop_
_atom_site_label
_atom_site_type_symbol
_atom_site_fract_x
_atom_site_fract_y
_atom_site_fract_z
N1 N 0.07362(10) 0.4050(3) 0.3348(2)
N2 N 0.07027(10) 0.1382(3) 0.2511(2)
C1 C 0.10401(11) 0.3056(4) 0.3507(3)
H1 H 0.1005 0.2388 0.3931
C2 C 0.10256(11) 0.2298(4) 0.2684(3)
H2 H 0.0996 0.2974 0.2226
C3 C 0.14126(12) 0.3799(4) 0.3828(3)
C4 C 0.14796(13) 0.4946(4) 0.3416(3)
H3 H 0.1291 0.5267 0.2955
C5 C 0.18209(16) 0.5648(4) 0.3664(4)
H4 H 0.1865 0.6415 0.3358
C6 C 0.20887(15) 0.5235(5) 0.4343(4)
H5 H 0.2317 0.5730 0.4510
C7 C 0.20336(13) 0.4090(4) 0.4799(3)
C8 C 0.23077(13) 0.3659(6) 0.5506(3)
H6 H 0.2533 0.4167 0.5685
C9 C 0.22572(14) 0.2533(6) 0.5939(3)
H7 H 0.2444 0.2260 0.6417
C10 C 0.19276(13) 0.1789(5) 0.5670(3)
H8 H 0.1892 0.1001 0.5969
C11 C 0.16552(12) 0.2154(4) 0.4993(3)
H9 H 0.1437 0.1607 0.4821
C12 C 0.16921(11) 0.3349(4) 0.4533(3)
C13 C 0.04800(11) 0.3903(4) 0.3716(3)
H10 H 0.0495 0.3166 0.4089
C14 C 0.01639(11) 0.4830(4) 0.3583(3)
H11 H 0.0156 0.5563 0.3209
C15 C -0.01133(11) 0.4727(4) 0.3944(3)
H12 H -0.0091 0.4018 0.4339
C16 C -0.04498(11) 0.5567(4) 0.3812(3)
C17 C -0.05049(12) 0.6710(4) 0.3300(3)
H13 H -0.0316 0.6963 0.3038
C18 C -0.08285(13) 0.7487(4) 0.3164(3)
H14 H -0.0859 0.8262 0.2814
C19 C -0.11044(13) 0.7128(5) 0.3540(3)
H15 H -0.1329 0.7646 0.3443
C20 C -0.10547(12) 0.6017(5) 0.4054(3)
H16 H -0.1244 0.5777 0.4320
C21 C -0.07302(12) 0.5242(4) 0.4188(3)
H17 H -0.0700 0.4475 0.4545
C22 C 0.13735(11) 0.1461(4) 0.2743(2)
C23 C 0.14181(12) 0.0271(4) 0.3199(3)
H18 H 0.1232 0.0027 0.3471
C24 C 0.17222(16) -0.0575(5) 0.3272(3)
H19 H 0.1749 -0.1362 0.3612
C25 C 0.19835(15) -0.0280(5) 0.2857(3)
H20 H 0.2186 -0.0891 0.2886
C26 C 0.19596(12) 0.0915(5) 0.2384(3)
C27 C 0.22263(14) 0.1233(6) 0.1945(4)
H21 H 0.2429 0.0625 0.1969
C28 C 0.22011(14) 0.2388(6) 0.1490(3)
H22 H 0.2384 0.2581 0.1197
C29 C 0.19055(13) 0.3293(5) 0.1452(3)
H23 H 0.1890 0.4105 0.1138
C30 C 0.16398(12) 0.3022(4) 0.1861(3)
H24 H 0.1443 0.3657 0.1834
C31 C 0.16502(11) 0.1808(4) 0.2328(3)
C32 C 0.04742(12) 0.1425(4) 0.1801(3)
H25 H 0.0512 0.2071 0.1408
C33 C 0.01561(12) 0.0503(4) 0.1578(3)
H26 H 0.0143 -0.0185 0.1968
C34 C -0.01125(12) 0.0527(4) 0.0897(3)
H27 H -0.0089 0.1195 0.0503
C35 C -0.04452(12) -0.0340(4) 0.0661(3)
C36 C -0.04967(12) -0.1469(4) 0.1128(3)
H28 H -0.0309 -0.1697 0.1614
C37 C -0.08136(14) -0.2254(4) 0.0896(3)
H29 H -0.0841 -0.3019 0.1222
C38 C -0.10943(14) -0.1950(5) 0.0196(3)
H30 H -0.1313 -0.2499 0.0039
C39 C -0.10502(14) -0.0833(5) -0.0269(3)
H31 H -0.1241 -0.0599 -0.0747
C40 C -0.07260(13) -0.0047(4) -0.0037(3)
H32 H -0.0698 0.0711 -0.0368
loop_
_geom_bond_atom_site_label_1
_geom_bond_atom_site_label_2
_geom_bond_site_symmetry_1
_geom_bond_site_symmetry_2
N1 C1 1_555 1_555
N2 C2 1_555 1_555
C1 H1 1_555 1_555
C2 C1 1_555 1_555
H2 C2 1_555 1_555
C3 C1 1_555 1_555
C4 C3 1_555 1_555
H3 C4 1_555 1_555
C5 C4 1_555 1_555
H4 C5 1_555 1_555
C6 C5 1_555 1_555
H5 C6 1_555 1_555
C7 C6 1_555 1_555
C8 C7 1_555 1_555
H6 C8 1_555 1_555
C9 C8 1_555 1_555
H7 C9 1_555 1_555
C10 C9 1_555 1_555
H8 C10 1_555 1_555
C11 C10 1_555 1_555
H9 C11 1_555 1_555
C12 C3 1_555 1_555
C13 N1 1_555 1_555
H10 C13 1_555 1_555
C14 C13 1_555 1_555
H11 C14 1_555 1_555
C15 C14 1_555 1_555
H12 C15 1_555 1_555
C16 C15 1_555 1_555
C17 C16 1_555 1_555
H13 C17 1_555 1_555
C18 C17 1_555 1_555
H14 C18 1_555 1_555
C19 C18 1_555 1_555
H15 C19 1_555 1_555
C20 C19 1_555 1_555
H16 C20 1_555 1_555
C21 C16 1_555 1_555
H17 C21 1_555 1_555
C22 C2 1_555 1_555
C23 C22 1_555 1_555
H18 C23 1_555 1_555
C24 C23 1_555 1_555
H19 C24 1_555 1_555
C25 C24 1_555 1_555
H20 C25 1_555 1_555
C26 C25 1_555 1_555
C27 C26 1_555 1_555
H21 C27 1_555 1_555
C28 C27 1_555 1_555
H22 C28 1_555 1_555
C29 C28 1_555 1_555
H23 C29 1_555 1_555
C30 C29 1_555 1_555
H24 C30 1_555 1_555
C31 C22 1_555 1_555
C32 N2 1_555 1_555
H25 C32 1_555 1_555
C33 C32 1_555 1_555
H26 C33 1_555 1_555
C34 C33 1_555 1_555
H27 C34 1_555 1_555
C35 C34 1_555 1_555
C36 C35 1_555 1_555
H28 C36 1_555 1_555
C37 C36 1_555 1_555
H29 C37 1_555 1_555
C38 C37 1_555 1_555
H30 C38 1_555 1_555
C39 C38 1_555 1_555
H31 C39 1_555 1_555
C40 C35 1_555 1_555
H32 C40 1_555 1_555
C7 C12 1_555 1_555
C11 C12 1_555 1_555
C20 C21 1_555 1_555
C26 C31 1_555 1_555
C30 C31 1_555 1_555
C39 C40 1_555 1_555

#END
