
#######################################################################
#
#                 Cambridge Crystallographic Data Centre
#                                CCDC 
#
#######################################################################
#
# If this CIF has been generated from an entry in the Cambridge 
# Structural Database, then it will include bibliographic, chemical, 
# crystal, experimental, refinement or atomic coordinate data resulting 
# from the CCDC's data processing and validation procedures.
#
#######################################################################

data_MEQRAC
_chemical_formula_moiety         'C12 H19 N1 O2'
_chemical_name_systematic        
9a-Allyl-9-hydroxyoctahydro-5H-pyrrolo(1,2-a)azepin-5-one
_symmetry_cell_setting           orthorhombic
_symmetry_space_group_name_H-M   'P b c a'
_symmetry_Int_Tables_number      61
_space_group_name_Hall           '-P 2ac 2ab'
loop_
_symmetry_equiv_pos_site_id
_symmetry_equiv_pos_as_xyz
1 x,y,z
2 1/2-x,-y,1/2+z
3 -x,1/2+y,1/2-z
4 1/2+x,1/2-y,-z
5 -x,-y,-z
6 1/2+x,y,1/2-z
7 x,1/2-y,1/2+z
8 1/2-x,1/2+y,z
_cell_length_a                   11.177(2)
_cell_length_b                   14.030(2)
_cell_length_c                   14.477(2)
_cell_angle_alpha                90
_cell_angle_beta                 90
_cell_angle_gamma                90
_cell_volume                     2270.19
_cell_formula_units_Z            8
loop_
_atom_site_label
_atom_site_type_symbol
_atom_site_fract_x
_atom_site_fract_y
_atom_site_fract_z
O1 O 0.83313(12) 0.80031(9) 0.46078(9)
O2 O 0.46901(13) 0.76913(10) 0.39941(10)
N1 N 0.70747(12) 0.78718(9) 0.34264(9)
C1 C 0.76583(16) 0.74892(13) 0.41385(12)
C2 C 0.75357(18) 0.64448(13) 0.43603(14)
H1 H 0.8084 0.6292 0.4858
H2 H 0.7782 0.6081 0.3823
C3 C 0.6289(2) 0.61206(14) 0.46391(14)
H3 H 0.6353 0.5499 0.4927
H4 H 0.5983 0.6559 0.5100
C4 C 0.53895(18) 0.60568(14) 0.38601(15)
H5 H 0.5684 0.5604 0.3408
H6 H 0.4646 0.5806 0.4106
C5 C 0.51242(16) 0.69872(13) 0.33729(13)
H7 H 0.4476 0.6858 0.2934
C6 C 0.61350(14) 0.74435(12) 0.28220(11)
C7 C 0.56460(17) 0.83396(14) 0.23294(14)
H8 H 0.5390 0.8186 0.1707
H9 H 0.4972 0.8603 0.2666
C8 C 0.66692(19) 0.90336(15) 0.23126(16)
H10 H 0.7228 0.8885 0.1820
H11 H 0.6387 0.9683 0.2237
C9 C 0.72314(18) 0.88916(13) 0.32442(14)
H12 H 0.8073 0.9061 0.3233
H13 H 0.6831 0.9273 0.3710
C10 C 0.6737(4) 0.6799(5) 0.2097(5)
H14 H 0.7342 0.7162 0.1771
H15 H 0.7134 0.6275 0.2409
C11 C 0.5846(4) 0.6399(6) 0.1402(3)
H16 H 0.5346 0.6825 0.1097
C12 C 0.5745(5) 0.5508(5) 0.1210(5)
H17 H 0.6233 0.5064 0.1503
H18 H 0.5184 0.5306 0.0778
H24 H 0.4293(18) 0.7450(15) 0.4419(11)
C13? C 0.6675(11) 0.6665(14) 0.2204(15)
H19? H 0.7141 0.6994 0.1737
H20? H 0.7244 0.6322 0.2585
C14? C 0.5949(10) 0.5907(15) 0.1693(13)
H21? H 0.5474 0.5470 0.2007
C15? C 0.6030(13) 0.5903(16) 0.0776(12)
H22? H 0.6512 0.6348 0.0477
H23? H 0.5606 0.5456 0.0433
loop_
_geom_bond_atom_site_label_1
_geom_bond_atom_site_label_2
_geom_bond_site_symmetry_1
_geom_bond_site_symmetry_2
O1 C1 1_555 1_555
O2 C5 1_555 1_555
N1 C1 1_555 1_555
C1 C2 1_555 1_555
C2 H1 1_555 1_555
H2 C2 1_555 1_555
C3 C2 1_555 1_555
H3 C3 1_555 1_555
H4 C3 1_555 1_555
C4 C3 1_555 1_555
H5 C4 1_555 1_555
H6 C4 1_555 1_555
C5 C4 1_555 1_555
H7 C5 1_555 1_555
C6 N1 1_555 1_555
C7 C6 1_555 1_555
H8 C7 1_555 1_555
H9 C7 1_555 1_555
C8 C7 1_555 1_555
H10 C8 1_555 1_555
H11 C8 1_555 1_555
C9 N1 1_555 1_555
H12 C9 1_555 1_555
H13 C9 1_555 1_555
C10 C6 1_555 1_555
H14 C10 1_555 1_555
H15 C10 1_555 1_555
C11 C10 1_555 1_555
H16 C11 1_555 1_555
C12 C11 1_555 1_555
H17 C12 1_555 1_555
H18 C12 1_555 1_555
H24 O2 1_555 1_555
C5 C6 1_555 1_555
C8 C9 1_555 1_555

#END
