
#######################################################################
#
#                 Cambridge Crystallographic Data Centre
#                                CCDC 
#
#######################################################################
#
# If this CIF has been generated from an entry in the Cambridge 
# Structural Database, then it will include bibliographic, chemical, 
# crystal, experimental, refinement or atomic coordinate data resulting 
# from the CCDC's data processing and validation procedures.
#
#######################################################################

data_MEQREG
_chemical_formula_moiety         'C12 H19 N1 O2'
_chemical_name_systematic        
11-Hydroxyoctahydro-6H-pyrido(2,1-i)indol-4(1H)-one
_symmetry_cell_setting           monoclinic
_symmetry_space_group_name_H-M   'P 21/c'
_symmetry_Int_Tables_number      14
_space_group_name_Hall           '-P 2ybc'
loop_
_symmetry_equiv_pos_site_id
_symmetry_equiv_pos_as_xyz
1 x,y,z
2 -x,1/2+y,1/2-z
3 -x,-y,-z
4 x,1/2-y,1/2+z
_cell_length_a                   8.192(2)
_cell_length_b                   7.778(2)
_cell_length_c                   17.823(4)
_cell_angle_alpha                90
_cell_angle_beta                 99.82(2)
_cell_angle_gamma                90
_cell_volume                     1119
_cell_formula_units_Z            4
loop_
_atom_site_label
_atom_site_type_symbol
_atom_site_fract_x
_atom_site_fract_y
_atom_site_fract_z
O1 O 0.2854(2) 0.46045(19) 0.63050(9)
O2 O 0.63412(19) 0.6962(2) 0.49692(9)
N1 N 0.44718(17) 0.7301(2) 0.57381(8)
C1 C 0.5732(2) 0.7164(3) 0.64279(11)
H1 H 0.6622 0.7980 0.6415
H2 H 0.6194 0.6013 0.6482
C2 C 0.4800(3) 0.7575(3) 0.70746(11)
H3 H 0.4503 0.6530 0.7316
H4 H 0.5466 0.8289 0.7455
C3 C 0.3269(2) 0.8526(3) 0.66981(10)
H5 H 0.3603 0.9709 0.6609
C4 C 0.1852(3) 0.8621(3) 0.71430(12)
H6 H 0.2275 0.9019 0.7655
H7 H 0.1051 0.9458 0.6904
C5 C 0.0991(3) 0.6921(3) 0.71888(13)
H8 H 0.0047 0.7073 0.7445
H9 H 0.1746 0.6112 0.7482
C6 C 0.0411(3) 0.6211(3) 0.63945(13)
H10 H -0.0388 0.6997 0.6114
H11 H -0.0140 0.5119 0.6433
C7 C 0.1835(2) 0.5953(3) 0.59554(11)
H12 H 0.1369 0.5599 0.5435
C8 C 0.2817(2) 0.7649(2) 0.59133(10)
C9 C 0.1895(3) 0.8832(3) 0.53083(11)
H13 H 0.0747 0.8912 0.5376
H14 H 0.2373 0.9974 0.5375
C10 C 0.1957(3) 0.8222(4) 0.45125(12)
H15 H 0.1223 0.7242 0.4401
H16 H 0.1544 0.9130 0.4157
C11 C 0.3621(3) 0.7727(4) 0.43877(12)
H17 H 0.4054 0.8668 0.4123
H18 H 0.3497 0.6750 0.4044
C12 C 0.4898(3) 0.7274(3) 0.50512(13)
H19 H 0.322(3) 0.403(4) 0.5935(13)
loop_
_geom_bond_atom_site_label_1
_geom_bond_atom_site_label_2
_geom_bond_site_symmetry_1
_geom_bond_site_symmetry_2
O1 C7 1_555 1_555
O2 C12 1_555 1_555
N1 C1 1_555 1_555
C1 H1 1_555 1_555
H2 C1 1_555 1_555
C2 C1 1_555 1_555
H3 C2 1_555 1_555
H4 C2 1_555 1_555
C3 C2 1_555 1_555
H5 C3 1_555 1_555
C4 C3 1_555 1_555
H6 C4 1_555 1_555
H7 C4 1_555 1_555
C5 C4 1_555 1_555
H8 C5 1_555 1_555
H9 C5 1_555 1_555
C6 C5 1_555 1_555
H10 C6 1_555 1_555
H11 C6 1_555 1_555
C7 C6 1_555 1_555
H12 C7 1_555 1_555
C8 N1 1_555 1_555
C9 C8 1_555 1_555
H13 C9 1_555 1_555
H14 C9 1_555 1_555
C10 C9 1_555 1_555
H15 C10 1_555 1_555
H16 C10 1_555 1_555
C11 C10 1_555 1_555
H17 C11 1_555 1_555
H18 C11 1_555 1_555
C12 N1 1_555 1_555
H19 O1 1_555 1_555
C3 C8 1_555 1_555
C7 C8 1_555 1_555
C11 C12 1_555 1_555

#END
