
#######################################################################
#
#                 Cambridge Crystallographic Data Centre
#                                CCDC 
#
#######################################################################
#
# If this CIF has been generated from an entry in the Cambridge 
# Structural Database, then it will include bibliographic, chemical, 
# crystal, experimental, refinement or atomic coordinate data resulting 
# from the CCDC's data processing and validation procedures.
#
#######################################################################

data_MERBUH
_chemical_formula_moiety         'C23 H22 O2'
_chemical_name_systematic        
8-Hydroxy-15-phenylgona-1(10),2,4,14-tetraene-16-one
_symmetry_cell_setting           orthorhombic
_symmetry_space_group_name_H-M   'P c 21 b'
_symmetry_Int_Tables_number      29
_space_group_name_Hall           'P -2bc -2c'
loop_
_symmetry_equiv_pos_site_id
_symmetry_equiv_pos_as_xyz
1 x,y,z
2 x,1/2+y,1/2-z
3 -x,y,1/2+z
4 -x,1/2+y,-z
_cell_length_a                   8.5096(5)
_cell_length_b                   9.1160(3)
_cell_length_c                   22.3675(12)
_cell_angle_alpha                90
_cell_angle_beta                 90
_cell_angle_gamma                90
_cell_volume                     1735.13
_exptl_crystal_colour            colorless
_exptl_crystal_description       block
_cell_formula_units_Z            4
_exptl_crystal_recrystallization_method 'dichloromethane/diethyl ether'
loop_
_atom_site_label
_atom_site_type_symbol
_atom_site_fract_x
_atom_site_fract_y
_atom_site_fract_z
O1 O 0.2969(2) 0.9322(2) 0.53601(7)
O2 O 0.5301(2) 0.56696(17) 0.35947(7)
H1 H 0.550(5) 0.511(6) 0.3916(19)
C1 C 0.6636(3) 0.7469(3) 0.19780(10)
H2 H 0.5762 0.7986 0.1844
C2 C 0.7709(4) 0.6937(3) 0.15667(12)
H3 H 0.7562 0.7122 0.1162
C3 C 0.8979(4) 0.6144(3) 0.17503(13)
H4 H 0.9674 0.5751 0.1473
C4 C 0.9216(3) 0.5934(3) 0.23564(12)
H5 H 1.0092 0.5412 0.2485
C5 C 0.8172(3) 0.6487(3) 0.27755(11)
C6 C 0.8514(3) 0.6234(3) 0.34303(10)
H6 H 0.9620 0.6418 0.3504
H7 H 0.8305 0.5215 0.3526
C7 C 0.7541(3) 0.7206(3) 0.38397(10)
H8 H 0.7927 0.8205 0.3820
H9 H 0.7641 0.6868 0.4249
C8 C 0.5818(3) 0.7166(2) 0.36533(9)
C9 C 0.5659(3) 0.7881(2) 0.30322(9)
H10 H 0.5929 0.8919 0.3081
C10 C 0.6839(3) 0.7244(3) 0.25899(10)
C11 C 0.3952(3) 0.7832(3) 0.28097(10)
H11 H 0.3883 0.8318 0.2425
H12 H 0.3636 0.6818 0.2755
C12 C 0.2834(3) 0.8574(3) 0.32483(11)
H13 H 0.3081 0.9611 0.3273
H14 H 0.1763 0.8479 0.3105
C13 C 0.2967(3) 0.7887(3) 0.38673(10)
H15 H 0.2596 0.6871 0.3844
C14 C 0.4661(3) 0.7879(2) 0.40775(9)
C15 C 0.4814(3) 0.8434(2) 0.46345(9)
C16 C 0.3255(3) 0.8872(3) 0.48581(10)
C17 C 0.2068(3) 0.8667(3) 0.43663(11)
H16 H 0.1671 0.9607 0.4230
H17 H 0.1192 0.8075 0.4503
C18 C 0.6194(3) 0.8578(3) 0.50367(10)
C19 C 0.7390(3) 0.9573(3) 0.49356(12)
H18 H 0.7343 1.0195 0.4606
C20 C 0.8677(3) 0.9651(3) 0.53275(16)
H19 H 0.9498 1.0300 0.5255
C21 C 0.8702(4) 0.8744(4) 0.58232(16)
H20 H 0.9559 0.8772 0.6081
C22 C 0.7505(4) 0.7824(4) 0.59380(14)
H21 H 0.7517 0.7254 0.6283
C23 C 0.6260(3) 0.7724(3) 0.55463(11)
H22 H 0.5449 0.7070 0.5626
loop_
_geom_bond_atom_site_label_1
_geom_bond_atom_site_label_2
_geom_bond_site_symmetry_1
_geom_bond_site_symmetry_2
O1 C16 1_555 1_555
O2 H1 1_555 1_555
C1 H2 1_555 1_555
C2 C1 1_555 1_555
H3 C2 1_555 1_555
C3 C2 1_555 1_555
H4 C3 1_555 1_555
C4 C3 1_555 1_555
H5 C4 1_555 1_555
C5 C4 1_555 1_555
C6 C5 1_555 1_555
H6 C6 1_555 1_555
H7 C6 1_555 1_555
C7 C6 1_555 1_555
H8 C7 1_555 1_555
H9 C7 1_555 1_555
C8 O2 1_555 1_555
C9 C8 1_555 1_555
H10 C9 1_555 1_555
C10 C1 1_555 1_555
C11 C9 1_555 1_555
H11 C11 1_555 1_555
H12 C11 1_555 1_555
C12 C11 1_555 1_555
H13 C12 1_555 1_555
H14 C12 1_555 1_555
C13 C12 1_555 1_555
H15 C13 1_555 1_555
C14 C8 1_555 1_555
C15 C14 1_555 1_555
C16 C15 1_555 1_555
C17 C13 1_555 1_555
H16 C17 1_555 1_555
H17 C17 1_555 1_555
C18 C15 1_555 1_555
C19 C18 1_555 1_555
H18 C19 1_555 1_555
C20 C19 1_555 1_555
H19 C20 1_555 1_555
C21 C20 1_555 1_555
H20 C21 1_555 1_555
C22 C21 1_555 1_555
H21 C22 1_555 1_555
C23 C18 1_555 1_555
H22 C23 1_555 1_555
C5 C10 1_555 1_555
C7 C8 1_555 1_555
C9 C10 1_555 1_555
C13 C14 1_555 1_555
C16 C17 1_555 1_555
C22 C23 1_555 1_555

#END
