
#######################################################################
#
#                 Cambridge Crystallographic Data Centre
#                                CCDC 
#
#######################################################################
#
# If this CIF has been generated from an entry in the Cambridge 
# Structural Database, then it will include bibliographic, chemical, 
# crystal, experimental, refinement or atomic coordinate data resulting 
# from the CCDC's data processing and validation procedures.
#
#######################################################################

data_MERGEW
_chemical_formula_moiety         'C22 H22 O1'
_chemical_name_systematic        
Spiro(benzo(c)chromene-6,2'-tricyclo(3.3.1.1^3,7^)decane)
_symmetry_cell_setting           monoclinic
_symmetry_space_group_name_H-M   'P 21/c'
_symmetry_Int_Tables_number      14
_space_group_name_Hall           '-P 2ybc'
loop_
_symmetry_equiv_pos_site_id
_symmetry_equiv_pos_as_xyz
1 x,y,z
2 -x,1/2+y,1/2-z
3 -x,-y,-z
4 x,1/2-y,1/2+z
_cell_length_a                   14.210(4)
_cell_length_b                   8.578(3)
_cell_length_c                   13.297(4)
_cell_angle_alpha                90
_cell_angle_beta                 103.330(6)
_cell_angle_gamma                90
_cell_volume                     1577.15
_exptl_crystal_colour            'light yellow'
_chemical_melting_point          123-124deg.C
_cell_formula_units_Z            4
loop_
_atom_site_label
_atom_site_type_symbol
_atom_site_fract_x
_atom_site_fract_y
_atom_site_fract_z
O1 O 0.66102(8) 0.99327(14) 0.47307(9)
C1 C 0.68261(13) 1.0842(2) 0.39616(14)
C2 C 0.60694(15) 1.1359(2) 0.31787(15)
H1 H 0.5437 1.1073 0.3172
C3 C 0.62620(16) 1.2302(2) 0.24084(16)
H2 H 0.5757 1.2674 0.1889
C4 C 0.72040(17) 1.2692(2) 0.24100(17)
H3 H 0.7334 1.3292 0.1876
C5 C 0.79509(16) 1.2199(2) 0.31979(17)
H4 H 0.8582 1.2477 0.3192
C6 C 0.77756(14) 1.1284(2) 0.40105(15)
C7 C 0.84971(13) 1.0905(2) 0.49635(15)
C8 C 0.93416(14) 1.1773(2) 0.52901(17)
H5 H 0.9491 1.2546 0.4862
C9 C 0.99543(16) 1.1504(3) 0.62305(19)
H6 H 1.0525 1.2070 0.6428
C10 C 0.97243(16) 1.0391(3) 0.68855(18)
H7 H 1.0132 1.0224 0.7531
C11 C 0.88885(15) 0.9530(3) 0.65799(16)
H8 H 0.8732 0.8800 0.7032
C12 C 0.82745(13) 0.9726(2) 0.56107(14)
C13 C 0.73554(13) 0.8786(2) 0.51865(13)
C14 C 0.74810(13) 0.7621(2) 0.43337(14)
H9 H 0.7787 0.8155 0.3841
C15 C 0.64898(14) 0.6998(2) 0.37626(14)
H10 H 0.6083 0.7855 0.3445
H11 H 0.6567 0.6285 0.3221
C16 C 0.60133(14) 0.6152(2) 0.45292(15)
H12 H 0.5373 0.5776 0.4167
C17 C 0.59052(14) 0.7267(2) 0.53959(16)
H13 H 0.5607 0.6724 0.5882
H14 H 0.5491 0.8132 0.5107
C18 C 0.69022(14) 0.7885(2) 0.59587(14)
H15 H 0.6828 0.8585 0.6518
C19 C 0.75042(16) 0.6447(2) 0.64226(15)
H16 H 0.8132 0.6781 0.6821
H17 H 0.7178 0.5900 0.6883
C20 C 0.76339(14) 0.5354(2) 0.55593(16)
H18 H 0.8041 0.4470 0.5855
C21 C 0.66480(15) 0.4765(2) 0.49750(16)
H19 H 0.6344 0.4181 0.5439
H20 H 0.6724 0.4076 0.4421
C22 C 0.81223(14) 0.6260(2) 0.48266(16)
H21 H 0.8742 0.6656 0.5207
H22 H 0.8237 0.5569 0.4290
loop_
_geom_bond_atom_site_label_1
_geom_bond_atom_site_label_2
_geom_bond_site_symmetry_1
_geom_bond_site_symmetry_2
O1 C1 1_555 1_555
C1 C2 1_555 1_555
C2 H1 1_555 1_555
C3 C2 1_555 1_555
H2 C3 1_555 1_555
C4 C3 1_555 1_555
H3 C4 1_555 1_555
C5 C4 1_555 1_555
H4 C5 1_555 1_555
C6 C1 1_555 1_555
C7 C6 1_555 1_555
C8 C7 1_555 1_555
H5 C8 1_555 1_555
C9 C8 1_555 1_555
H6 C9 1_555 1_555
C10 C9 1_555 1_555
H7 C10 1_555 1_555
C11 C10 1_555 1_555
H8 C11 1_555 1_555
C12 C7 1_555 1_555
C13 O1 1_555 1_555
C14 C13 1_555 1_555
H9 C14 1_555 1_555
C15 C14 1_555 1_555
H10 C15 1_555 1_555
H11 C15 1_555 1_555
C16 C15 1_555 1_555
H12 C16 1_555 1_555
C17 C16 1_555 1_555
H13 C17 1_555 1_555
H14 C17 1_555 1_555
C18 C13 1_555 1_555
H15 C18 1_555 1_555
C19 C18 1_555 1_555
H16 C19 1_555 1_555
H17 C19 1_555 1_555
C20 C19 1_555 1_555
H18 C20 1_555 1_555
C21 C16 1_555 1_555
H19 C21 1_555 1_555
H20 C21 1_555 1_555
C22 C14 1_555 1_555
H21 C22 1_555 1_555
H22 C22 1_555 1_555
C5 C6 1_555 1_555
C11 C12 1_555 1_555
C12 C13 1_555 1_555
C17 C18 1_555 1_555
C20 C21 1_555 1_555
C20 C22 1_555 1_555

#END
