
#######################################################################
#
#                 Cambridge Crystallographic Data Centre
#                                CCDC 
#
#######################################################################
#
# If this CIF has been generated from an entry in the Cambridge 
# Structural Database, then it will include bibliographic, chemical, 
# crystal, experimental, refinement or atomic coordinate data resulting 
# from the CCDC's data processing and validation procedures.
#
#######################################################################

data_MERGOG
_chemical_formula_moiety         'C25 H18 O1 S1'
_chemical_name_systematic        
6-(2-Phenylethenyl)-6-(2-thienyl)-6H-benzo(c)chromene
_symmetry_cell_setting           triclinic
_symmetry_space_group_name_H-M   'P -1'
_symmetry_Int_Tables_number      2
_space_group_name_Hall           '-P 1'
loop_
_symmetry_equiv_pos_site_id
_symmetry_equiv_pos_as_xyz
1 x,y,z
2 -x,-y,-z
_cell_length_a                   9.1968(18)
_cell_length_b                   9.722(2)
_cell_length_c                   11.602(2)
_cell_angle_alpha                66.783(3)
_cell_angle_beta                 82.017(4)
_cell_angle_gamma                75.466(3)
_cell_volume                     921.905
_exptl_crystal_colour            'light yellow'
_chemical_melting_point          199-200deg.C
_cell_formula_units_Z            2
loop_
_atom_site_label
_atom_site_type_symbol
_atom_site_fract_x
_atom_site_fract_y
_atom_site_fract_z
S1 S 0.17714(6) 0.69550(8) 0.71953(6)
O1 O 0.49042(14) 0.77673(15) 0.70249(13)
C1 C 0.6100(2) 0.7562(2) 0.77201(19)
C2 C 0.6521(2) 0.8871(3) 0.7628(2)
H1 H 0.6053 0.9827 0.7076
C3 C 0.7642(3) 0.8745(3) 0.8363(3)
H2 H 0.7925 0.9621 0.8316
C4 C 0.8344(3) 0.7325(3) 0.9165(3)
H3 H 0.9106 0.7242 0.9654
C5 C 0.7919(3) 0.6024(3) 0.9247(2)
H4 H 0.8409 0.5072 0.9787
C6 C 0.6769(2) 0.6108(2) 0.85357(19)
C7 C 0.6183(2) 0.4788(2) 0.86320(19)
C8 C 0.6507(2) 0.3359(2) 0.9603(2)
H5 H 0.7110 0.3219 1.0238
C9 C 0.5952(3) 0.2151(3) 0.9642(2)
H6 H 0.6200 0.1201 1.0290
C10 C 0.5034(3) 0.2344(3) 0.8728(2)
H7 H 0.4665 0.1525 0.8754
C11 C 0.4659(2) 0.3763(2) 0.7766(2)
H8 H 0.4026 0.3896 0.7153
C12 C 0.5223(2) 0.4988(2) 0.77125(18)
C13 C 0.4884(2) 0.6528(2) 0.66234(18)
C14 C 0.6052(2) 0.6520(2) 0.55611(19)
H9 H 0.6383 0.5613 0.5417
C15 C 0.6631(2) 0.7702(2) 0.4829(2)
H10 H 0.6283 0.8601 0.4982
C16 C 0.7767(2) 0.7753(2) 0.37948(19)
C17 C 0.7945(2) 0.9171(3) 0.2910(2)
H11 H 0.7338 1.0059 0.2980
C18 C 0.9002(3) 0.9285(3) 0.1933(2)
H12 H 0.9095 1.0244 0.1346
C19 C 0.9920(3) 0.7985(3) 0.1822(2)
H13 H 1.0639 0.8064 0.1164
C20 C 0.9772(3) 0.6567(3) 0.2689(3)
H14 H 1.0394 0.5686 0.2616
C21 C 0.8701(2) 0.6447(3) 0.3668(2)
H15 H 0.8605 0.5484 0.4246
C22 C 0.3304(2) 0.6946(2) 0.61572(19)
C23 C 0.2865(2) 0.7464(2) 0.4952(2)
H16 H 0.3526 0.7545 0.4256
C24 C 0.1265(3) 0.7864(3) 0.4896(2)
H17 H 0.0767 0.8236 0.4152
C25 C 0.0554(3) 0.7651(3) 0.6020(3)
H18 H -0.0486 0.7859 0.6145
loop_
_geom_bond_atom_site_label_1
_geom_bond_atom_site_label_2
_geom_bond_site_symmetry_1
_geom_bond_site_symmetry_2
S1 C22 1_555 1_555
O1 C1 1_555 1_555
C1 C2 1_555 1_555
C2 H1 1_555 1_555
C3 C2 1_555 1_555
H2 C3 1_555 1_555
C4 C3 1_555 1_555
H3 C4 1_555 1_555
C5 C4 1_555 1_555
H4 C5 1_555 1_555
C6 C1 1_555 1_555
C7 C6 1_555 1_555
C8 C7 1_555 1_555
H5 C8 1_555 1_555
C9 C8 1_555 1_555
H6 C9 1_555 1_555
C10 C9 1_555 1_555
H7 C10 1_555 1_555
C11 C10 1_555 1_555
H8 C11 1_555 1_555
C12 C7 1_555 1_555
C13 O1 1_555 1_555
C14 C13 1_555 1_555
H9 C14 1_555 1_555
C15 C14 1_555 1_555
H10 C15 1_555 1_555
C16 C15 1_555 1_555
C17 C16 1_555 1_555
H11 C17 1_555 1_555
C18 C17 1_555 1_555
H12 C18 1_555 1_555
C19 C18 1_555 1_555
H13 C19 1_555 1_555
C20 C19 1_555 1_555
H14 C20 1_555 1_555
C21 C16 1_555 1_555
H15 C21 1_555 1_555
C22 C13 1_555 1_555
C23 C22 1_555 1_555
H16 C23 1_555 1_555
C24 C23 1_555 1_555
H17 C24 1_555 1_555
C25 S1 1_555 1_555
H18 C25 1_555 1_555
C5 C6 1_555 1_555
C11 C12 1_555 1_555
C12 C13 1_555 1_555
C20 C21 1_555 1_555
C24 C25 1_555 1_555

#END
