
#######################################################################
#
#                 Cambridge Crystallographic Data Centre
#                                CCDC 
#
#######################################################################
#
# If this CIF has been generated from an entry in the Cambridge 
# Structural Database, then it will include bibliographic, chemical, 
# crystal, experimental, refinement or atomic coordinate data resulting 
# from the CCDC's data processing and validation procedures.
#
#######################################################################

data_MERGIA
_chemical_formula_moiety         'C20 H16 O1'
_chemical_name_systematic        6-Methyl-6-phenyl-6H-benzo(c)chromene
_symmetry_cell_setting           monoclinic
_symmetry_space_group_name_H-M   'P 21/c'
_symmetry_Int_Tables_number      14
_space_group_name_Hall           '-P 2ybc'
loop_
_symmetry_equiv_pos_site_id
_symmetry_equiv_pos_as_xyz
1 x,y,z
2 -x,1/2+y,1/2-z
3 -x,-y,-z
4 x,1/2-y,1/2+z
_cell_length_a                   16.447(3)
_cell_length_b                   13.067(2)
_cell_length_c                   13.693(2)
_cell_angle_alpha                90
_cell_angle_beta                 101.532(3)
_cell_angle_gamma                90
_cell_volume                     2883.4
_exptl_crystal_colour            colorless
_chemical_melting_point          160-161deg.C
_cell_formula_units_Z            8
loop_
_atom_site_label
_atom_site_type_symbol
_atom_site_fract_x
_atom_site_fract_y
_atom_site_fract_z
O1 O 0.11129(8) 0.98346(10) 0.24402(10)
C1 C 0.17662(12) 0.97727(17) 0.32406(14)
C2 C 0.19273(14) 1.06260(18) 0.38489(17)
H1 H 0.1588 1.1200 0.3730
C3 C 0.26021(15) 1.0609(2) 0.46364(17)
H2 H 0.2723 1.1178 0.5047
C4 C 0.30946(14) 0.9751(2) 0.48128(16)
H3 H 0.3544 0.9741 0.5347
C5 C 0.29280(12) 0.89128(19) 0.42079(15)
H4 H 0.3262 0.8335 0.4344
C6 C 0.22678(11) 0.89071(16) 0.33924(13)
C7 C 0.21037(11) 0.80917(15) 0.26506(14)
C8 C 0.26972(12) 0.73631(18) 0.25377(16)
H5 H 0.3210 0.7363 0.2973
C9 C 0.25334(14) 0.66449(18) 0.17916(18)
H6 H 0.2934 0.6161 0.1729
C10 C 0.17863(14) 0.66360(18) 0.11405(17)
H7 H 0.1678 0.6149 0.0636
C11 C 0.11957(13) 0.73524(18) 0.12365(16)
H8 H 0.0688 0.7345 0.0791
C12 C 0.13398(11) 0.80853(16) 0.19832(14)
C13 C 0.06979(11) 0.88757(16) 0.21228(14)
C14 C 0.01164(13) 0.91612(19) 0.11495(15)
H9 H -0.0212 0.9742 0.1257
H10 H -0.0242 0.8594 0.0921
H11 H 0.0437 0.9328 0.0657
C15 C 0.01901(11) 0.85424(16) 0.28900(14)
C16 C -0.01144(12) 0.92564(17) 0.34727(16)
H12 H 0.0021 0.9943 0.3425
C17 C -0.06116(13) 0.8969(2) 0.41191(17)
H13 H -0.0799 0.9461 0.4513
C18 C -0.08343(12) 0.7971(2) 0.41915(16)
H14 H -0.1179 0.7783 0.4623
C19 C -0.05455(14) 0.72493(19) 0.36219(18)
H15 H -0.0692 0.6566 0.3667
C20 C -0.00357(13) 0.75346(18) 0.29793(17)
H16 H 0.0159 0.7037 0.2599
O2 O 0.38608(7) 0.23950(10) 0.08425(9)
C21 C 0.44985(11) 0.22078(15) 0.03489(13)
C22 C 0.45998(12) 0.28883(16) -0.03885(14)
H17 H 0.4239 0.3439 -0.0545
C23 C 0.52367(12) 0.27467(17) -0.08894(15)
H18 H 0.5306 0.3202 -0.1389
C24 C 0.57705(12) 0.19363(17) -0.06549(15)
H19 H 0.6196 0.1836 -0.1001
C25 C 0.56754(11) 0.12722(16) 0.00925(14)
H20 H 0.6043 0.0729 0.0251
C26 C 0.50380(10) 0.13976(14) 0.06172(13)
C27 C 0.49259(10) 0.07494(14) 0.14562(13)
C28 C 0.55382(11) 0.00889(16) 0.19420(15)
H21 H 0.6042 0.0047 0.1733
C29 C 0.54089(13) -0.05058(17) 0.27299(15)
H22 H 0.5820 -0.0954 0.3040
C30 C 0.46743(13) -0.04368(17) 0.30568(16)
H23 H 0.4587 -0.0836 0.3589
C31 C 0.40654(12) 0.02273(17) 0.25927(14)
H24 H 0.3573 0.0281 0.2826
C32 C 0.41736(11) 0.08162(14) 0.17842(13)
C33 C 0.34935(11) 0.15055(15) 0.12326(13)
C34 C 0.29731(12) 0.19843(17) 0.19174(15)
H25 H 0.3332 0.2304 0.2473
H26 H 0.2651 0.1462 0.2156
H27 H 0.2608 0.2488 0.1555
C35 C 0.29387(10) 0.09344(16) 0.03719(14)
C36 C 0.25969(12) -0.00027(18) 0.05336(17)
H28 H 0.2700 -0.0278 0.1173
C37 C 0.21084(12) -0.05370(19) -0.0232(2)
H29 H 0.1889 -0.1168 -0.0105
C38 C 0.19423(13) -0.0143(2) -0.1181(2)
H30 H 0.1620 -0.0508 -0.1701
C39 C 0.22568(13) 0.0793(2) -0.13505(17)
H31 H 0.2136 0.1072 -0.1988
C40 C 0.27527(12) 0.13314(18) -0.05856(15)
H32 H 0.2963 0.1966 -0.0716
loop_
_geom_bond_atom_site_label_1
_geom_bond_atom_site_label_2
_geom_bond_site_symmetry_1
_geom_bond_site_symmetry_2
O1 C1 1_555 1_555
O2 C21 1_555 1_555
C1 C2 1_555 1_555
C2 H1 1_555 1_555
C3 C2 1_555 1_555
H2 C3 1_555 1_555
C4 C3 1_555 1_555
H3 C4 1_555 1_555
C5 C4 1_555 1_555
H4 C5 1_555 1_555
C6 C1 1_555 1_555
C7 C6 1_555 1_555
C8 C7 1_555 1_555
H5 C8 1_555 1_555
C9 C8 1_555 1_555
H6 C9 1_555 1_555
C10 C9 1_555 1_555
H7 C10 1_555 1_555
C11 C10 1_555 1_555
H8 C11 1_555 1_555
C12 C7 1_555 1_555
C13 O1 1_555 1_555
C14 C13 1_555 1_555
H9 C14 1_555 1_555
H10 C14 1_555 1_555
H11 C14 1_555 1_555
C15 C13 1_555 1_555
C16 C15 1_555 1_555
H12 C16 1_555 1_555
C17 C16 1_555 1_555
H13 C17 1_555 1_555
C18 C17 1_555 1_555
H14 C18 1_555 1_555
C19 C18 1_555 1_555
H15 C19 1_555 1_555
C20 C15 1_555 1_555
H16 C20 1_555 1_555
C21 C22 1_555 1_555
C22 H17 1_555 1_555
C23 C22 1_555 1_555
H18 C23 1_555 1_555
C24 C23 1_555 1_555
H19 C24 1_555 1_555
C25 C24 1_555 1_555
H20 C25 1_555 1_555
C26 C21 1_555 1_555
C27 C26 1_555 1_555
C28 C27 1_555 1_555
H21 C28 1_555 1_555
C29 C28 1_555 1_555
H22 C29 1_555 1_555
C30 C29 1_555 1_555
H23 C30 1_555 1_555
C31 C30 1_555 1_555
H24 C31 1_555 1_555
C32 C27 1_555 1_555
C33 O2 1_555 1_555
C34 C33 1_555 1_555
H25 C34 1_555 1_555
H26 C34 1_555 1_555
H27 C34 1_555 1_555
C35 C33 1_555 1_555
C36 C35 1_555 1_555
H28 C36 1_555 1_555
C37 C36 1_555 1_555
H29 C37 1_555 1_555
C38 C37 1_555 1_555
H30 C38 1_555 1_555
C39 C38 1_555 1_555
H31 C39 1_555 1_555
C40 C35 1_555 1_555
H32 C40 1_555 1_555
C5 C6 1_555 1_555
C11 C12 1_555 1_555
C12 C13 1_555 1_555
C19 C20 1_555 1_555
C25 C26 1_555 1_555
C31 C32 1_555 1_555
C32 C33 1_555 1_555
C39 C40 1_555 1_555

#END
