
#######################################################################
#
#                 Cambridge Crystallographic Data Centre
#                                CCDC 
#
#######################################################################
#
# If this CIF has been generated from an entry in the Cambridge 
# Structural Database, then it will include bibliographic, chemical, 
# crystal, experimental, refinement or atomic coordinate data resulting 
# from the CCDC's data processing and validation procedures.
#
#######################################################################

data_MERHEX
_chemical_formula_moiety         'C25 H16 O1'
_chemical_name_systematic        Spiro(benzo(c)chromene-6,9'-fluorene)
_symmetry_cell_setting           tetragonal
_symmetry_space_group_name_H-M   'P 41 21 2'
_symmetry_Int_Tables_number      92
_space_group_name_Hall           'P 4abw 2nw'
loop_
_symmetry_equiv_pos_site_id
_symmetry_equiv_pos_as_xyz
1 x,y,z
2 -x,-y,1/2+z
3 1/2-y,1/2+x,1/4+z
4 1/2+y,1/2-x,3/4+z
5 1/2-x,1/2+y,1/4-z
6 1/2+x,1/2-y,3/4-z
7 y,x,-z
8 -y,-x,1/2-z
_cell_length_a                   8.6562(15)
_cell_length_b                   8.6562(15)
_cell_length_c                   22.961(6)
_cell_angle_alpha                90
_cell_angle_beta                 90
_cell_angle_gamma                90
_cell_volume                     1720.46
_exptl_crystal_colour            colorless
_chemical_melting_point          302-303deg.C
_cell_formula_units_Z            4
loop_
_atom_site_label
_atom_site_type_symbol
_atom_site_fract_x
_atom_site_fract_y
_atom_site_fract_z
O1 O 0.7594(4) 0.8411(4) -0.00713(16)
C1 C 0.9588(3) 0.9709(3) 0.05458(10)
C2 C 1.1048(3) 0.9494(4) 0.07705(11)
H1 H 1.1734 0.8819 0.0591
C3 C 1.1487(4) 1.0294(4) 0.12665(13)
H2 H 1.2470 1.0152 0.1421
C4 C 1.0481(5) 1.1289(5) 0.15302(13)
H3 H 1.0782 1.1816 0.1864
C5 C 0.9024(5) 1.1517(4) 0.13041(15)
H4 H 0.8346 1.2194 0.1487
C6 C 0.8564(3) 1.0744(4) 0.08070(12)
C7 C 0.7010(6) 1.0693(6) 0.0476(3)
C8 C 0.5978(8) 1.1859(7) 0.0625(3)
H5 H 0.6260 1.2616 0.0911
C9 C 0.4538(7) 1.1929(7) 0.0358(4)
H6 H 0.3826 1.2734 0.0460
C10 C 0.4130(4) 1.0832(7) -0.0057(3)
H7 H 0.3135 1.0881 -0.0241
C11 C 0.5161(5) 0.9666(6) -0.0205(2)
H8 H 0.4879 0.8909 -0.0491
C12 C 0.6601(5) 0.9597(5) 0.0062(3)
C13 C 0.9225(5) 0.8728(6) -0.0001(4)
O1F O 0.8411(4) 0.7594(4) 0.00713(16)
C1F C 0.9709(3) 0.9588(3) -0.05458(10)
C2F C 0.9494(4) 1.1048(3) -0.07705(11)
H1F H 0.8819 1.1734 -0.0591
C3F C 1.0294(4) 1.1487(4) -0.12665(13)
H2F H 1.0152 1.2470 -0.1421
C4F C 1.1289(5) 1.0481(5) -0.15302(13)
H3F H 1.1816 1.0782 -0.1864
C5F C 1.1517(4) 0.9024(5) -0.13041(15)
H4F H 1.2194 0.8346 -0.1487
C6F C 1.0744(4) 0.8564(3) -0.08070(12)
C7F C 1.0693(6) 0.7010(6) -0.0476(3)
C8F C 1.1859(7) 0.5978(8) -0.0625(3)
H5F H 1.2616 0.6260 -0.0911
C9F C 1.1929(7) 0.4538(7) -0.0358(4)
H6F H 1.2734 0.3826 -0.0460
C10F C 1.0832(7) 0.4130(4) 0.0057(3)
H7F H 1.0881 0.3135 0.0241
C11F C 0.9666(6) 0.5161(5) 0.0205(2)
H8F H 0.8909 0.4879 0.0491
C12F C 0.9597(5) 0.6601(5) -0.0062(3)
C13F C 0.8728(6) 0.9225(5) 0.0001(4)
C14? C 0.9991(6) 0.7164(4) -0.0090(3)
C15? C 0.9736(7) 0.5851(5) 0.0245(2)
H9? H 0.9009 0.5881 0.0561
C16? C 1.0532(7) 0.4495(5) 0.0122(3)
H10? H 1.0355 0.3588 0.0354
C17? C 1.1583(7) 0.4452(6) -0.0335(3)
H11? H 1.2133 0.3515 -0.0419
C18? C 1.1839(8) 0.5765(8) -0.0669(3)
H12? H 1.2566 0.5735 -0.0985
C19? C 1.1043(7) 0.7121(7) -0.0547(3)
loop_
_geom_bond_atom_site_label_1
_geom_bond_atom_site_label_2
_geom_bond_site_symmetry_1
_geom_bond_site_symmetry_2
O1 C12 1_555 1_555
C1 C2 1_555 1_555
C2 H1 1_555 1_555
C3 C2 1_555 1_555
H2 C3 1_555 1_555
C4 C3 1_555 1_555
H3 C4 1_555 1_555
C5 C4 1_555 1_555
H4 C5 1_555 1_555
C6 C1 1_555 1_555
C7 C6 1_555 1_555
C8 C7 1_555 1_555
H5 C8 1_555 1_555
C9 C8 1_555 1_555
H6 C9 1_555 1_555
C10 C9 1_555 1_555
H7 C10 1_555 1_555
C11 C10 1_555 1_555
H8 C11 1_555 1_555
C12 C7 1_555 1_555
C13 O1 1_555 1_555
O1F O1 1_555 1_555
C1F C13 1_555 1_555
C2F C1F 1_555 1_555
H1F C2F 1_555 1_555
C3F C2F 1_555 1_555
H2F C3F 1_555 1_555
C4F C3F 1_555 1_555
H3F C4F 1_555 1_555
C5F C4F 1_555 1_555
H4F C5F 1_555 1_555
C6F C1F 1_555 1_555
C7F C6F 1_555 1_555
C8F C7F 1_555 1_555
H5F C8F 1_555 1_555
C9F C8F 1_555 1_555
H6F C9F 1_555 1_555
C10F C9F 1_555 1_555
H7F C10F 1_555 1_555
C11F C10F 1_555 1_555
H8F C11F 1_555 1_555
C12F O1F 1_555 1_555
C13F O1 1_555 1_555
C1 C13 1_555 1_555
C1 C13F 1_555 1_555
C5 C6 1_555 1_555
C11 C12 1_555 1_555
C13 O1F 1_555 1_555
C13 C13F 1_555 1_555
O1F C13F 1_555 1_555
C1F C13F 1_555 1_555
C5F C6F 1_555 1_555
C7F C12F 1_555 1_555
C11F C12F 1_555 1_555

#END
