
#######################################################################
#
#                 Cambridge Crystallographic Data Centre
#                                CCDC 
#
#######################################################################
#
# If this CIF has been generated from an entry in the Cambridge 
# Structural Database, then it will include bibliographic, chemical, 
# crystal, experimental, refinement or atomic coordinate data resulting 
# from the CCDC's data processing and validation procedures.
#
#######################################################################

data_MERHIB
_chemical_formula_moiety         'C22 H24 O2'
_chemical_name_systematic        
2-(2'-Hydroxy-1,1'-biphenyl-2-yl)adamantan-2-ol
_symmetry_cell_setting           monoclinic
_symmetry_space_group_name_H-M   'C 2/c'
_symmetry_Int_Tables_number      15
_space_group_name_Hall           '-C 2yn'
loop_
_symmetry_equiv_pos_site_id
_symmetry_equiv_pos_as_xyz
1 x,y,z
2 1/2+x,1/2+y,z
3 -x,y,1/2-z
4 1/2-x,1/2+y,1/2-z
5 -x,-y,-z
6 1/2-x,1/2-y,-z
7 x,-y,1/2+z
8 1/2+x,1/2-y,1/2+z
_cell_length_a                   19.510(3)
_cell_length_b                   18.790(3)
_cell_length_c                   11.821(2)
_cell_angle_alpha                90
_cell_angle_beta                 126.895(2)
_cell_angle_gamma                90
_cell_volume                     3465.66
_exptl_crystal_colour            colorless
_chemical_melting_point          213-214deg.C
_cell_formula_units_Z            8
loop_
_atom_site_label
_atom_site_type_symbol
_atom_site_fract_x
_atom_site_fract_y
_atom_site_fract_z
O1 O 0.04105(8) 0.22460(7) 0.69304(14)
H1 H 0.0933 0.2177 0.7631
O2 O 0.20607(8) 0.19712(7) 0.89530(12)
H2 H 0.2296 0.2344 0.9417
C1 C 0.01905(11) 0.17360(10) 0.59331(19)
C2 C -0.04915(12) 0.12855(11) 0.5467(2)
H3 H -0.0788 0.1317 0.5854
C3 C -0.07326(14) 0.07918(12) 0.4432(2)
H4 H -0.1191 0.0489 0.4121
C4 C -0.02962(15) 0.07446(12) 0.3853(2)
H5 H -0.0461 0.0412 0.3150
C5 C 0.03856(13) 0.11934(11) 0.4322(2)
H6 H 0.0673 0.1163 0.3919
C6 C 0.06525(11) 0.16911(10) 0.53848(18)
C7 C 0.13499(12) 0.22108(10) 0.57923(18)
C8 C 0.11213(14) 0.27134(11) 0.4740(2)
H7 H 0.0578 0.2689 0.3881
C9 C 0.16726(16) 0.32402(12) 0.4935(3)
H8 H 0.1504 0.3566 0.4219
C10 C 0.24682(16) 0.32779(12) 0.6192(3)
H9 H 0.2847 0.3632 0.6340
C11 C 0.27123(14) 0.27921(10) 0.7242(2)
H10 H 0.3258 0.2831 0.8094
C12 C 0.21784(11) 0.22424(9) 0.70880(19)
C13 C 0.24924(11) 0.17375(9) 0.83533(18)
C14 C 0.22705(11) 0.09453(9) 0.79325(19)
H11 H 0.1655 0.0901 0.7175
C15 C 0.25060(13) 0.04945(11) 0.9202(2)
H12 H 0.2194 0.0664 0.9548
H13 H 0.2346 0.0003 0.8912
C16 C 0.34672(14) 0.05420(12) 1.0377(2)
H14 H 0.3614 0.0258 1.1190
C17 C 0.39619(15) 0.02652(13) 0.9838(3)
H15 H 0.4573 0.0292 1.0587
H16 H 0.3814 -0.0228 0.9552
C18 C 0.37336(14) 0.07162(11) 0.8580(2)
H17 H 0.4048 0.0541 0.8231
C19 C 0.27712(13) 0.06734(11) 0.7396(2)
H18 H 0.2611 0.0185 0.7080
H19 H 0.2630 0.0959 0.6599
C20 C 0.39769(13) 0.14902(11) 0.9042(2)
H20 H 0.3854 0.1775 0.8255
H21 H 0.4586 0.1524 0.9802
C21 C 0.34640(11) 0.17731(10) 0.95486(19)
H22 H 0.3627 0.2269 0.9852
C22 C 0.36939(13) 0.13234(11) 1.0813(2)
H23 H 0.4302 0.1366 1.1571
H24 H 0.3382 0.1497 1.1158
loop_
_geom_bond_atom_site_label_1
_geom_bond_atom_site_label_2
_geom_bond_site_symmetry_1
_geom_bond_site_symmetry_2
O1 H1 1_555 1_555
O2 H2 1_555 1_555
C1 O1 1_555 1_555
C2 C1 1_555 1_555
H3 C2 1_555 1_555
C3 C2 1_555 1_555
H4 C3 1_555 1_555
C4 C3 1_555 1_555
H5 C4 1_555 1_555
C5 C4 1_555 1_555
H6 C5 1_555 1_555
C6 C1 1_555 1_555
C7 C6 1_555 1_555
C8 C7 1_555 1_555
H7 C8 1_555 1_555
C9 C8 1_555 1_555
H8 C9 1_555 1_555
C10 C9 1_555 1_555
H9 C10 1_555 1_555
C11 C10 1_555 1_555
H10 C11 1_555 1_555
C12 C7 1_555 1_555
C13 O2 1_555 1_555
C14 C13 1_555 1_555
H11 C14 1_555 1_555
C15 C14 1_555 1_555
H12 C15 1_555 1_555
H13 C15 1_555 1_555
C16 C15 1_555 1_555
H14 C16 1_555 1_555
C17 C16 1_555 1_555
H15 C17 1_555 1_555
H16 C17 1_555 1_555
C18 C17 1_555 1_555
H17 C18 1_555 1_555
C19 C14 1_555 1_555
H18 C19 1_555 1_555
H19 C19 1_555 1_555
C20 C18 1_555 1_555
H20 C20 1_555 1_555
H21 C20 1_555 1_555
C21 C13 1_555 1_555
H22 C21 1_555 1_555
C22 C16 1_555 1_555
H23 C22 1_555 1_555
H24 C22 1_555 1_555
C5 C6 1_555 1_555
C11 C12 1_555 1_555
C12 C13 1_555 1_555
C18 C19 1_555 1_555
C20 C21 1_555 1_555
C21 C22 1_555 1_555

#END
