
#######################################################################
#
#                 Cambridge Crystallographic Data Centre
#                                CCDC 
#
#######################################################################
#
# If this CIF has been generated from an entry in the Cambridge 
# Structural Database, then it will include bibliographic, chemical, 
# crystal, experimental, refinement or atomic coordinate data resulting 
# from the CCDC's data processing and validation procedures.
#
#######################################################################

data_MERJOI
_chemical_formula_moiety         'C21 H28 N8 S4'
_chemical_name_systematic        
syn-1,3-bis(4,6-bis(Ethylthio)-1H-pyrazolo(3,4-d)pyrimidin-1-yl)propane
_symmetry_cell_setting           monoclinic
_symmetry_space_group_name_H-M   'C 2/c'
_symmetry_Int_Tables_number      15
_space_group_name_Hall           '-C 2yn'
loop_
_symmetry_equiv_pos_site_id
_symmetry_equiv_pos_as_xyz
1 x,y,z
2 1/2+x,1/2+y,z
3 x,-y,1/2+z
4 1/2+x,1/2-y,1/2+z
5 -x,-y,-z
6 1/2-x,1/2-y,-z
7 -x,y,1/2-z
8 1/2-x,1/2+y,1/2-z
_cell_length_a                   17.7770(12)
_cell_length_b                   9.3127(6)
_cell_length_c                   15.2386(10)
_cell_angle_alpha                90.00
_cell_angle_beta                 98.3880(10)
_cell_angle_gamma                90.00
_cell_volume                     2495.79
_exptl_crystal_colour            colorless
_exptl_crystal_description       block
_chemical_melting_point          98deg.C
_cell_formula_units_Z            4
_exptl_crystal_recrystallization_method 'ethyl acetate/hexane'
loop_
_atom_site_label
_atom_site_type_symbol
_atom_site_fract_x
_atom_site_fract_y
_atom_site_fract_z
S1 S 0.127252(18) 0.77911(4) 0.21395(2)
S2 S -0.135851(17) 0.73274(3) 0.00957(2)
N1 N -0.00119(6) 0.73064(11) 0.11504(7)
N2 N 0.06550(6) 0.51927(12) 0.17961(7)
N3 N -0.00424(6) 0.30032(12) 0.14009(7)
N4 N -0.07099(7) 0.26042(12) 0.08917(8)
C1 C -0.18356(8) 1.00460(15) -0.02161(10)
H1 H -0.1750 1.1078 -0.0126
H2 H -0.2306 0.9769 0.0005
H3 H -0.1880 0.9824 -0.0850
C2 C -0.05818(7) 0.65201(13) 0.07407(8)
C3 C 0.00616(7) 0.44418(14) 0.13733(8)
C4 C -0.05711(7) 0.50121(14) 0.08256(8)
C5 C 0.05709(7) 0.65926(14) 0.16489(8)
C6 C 0.0000 0.10434(19) 0.2500
H4 H -0.0362 0.0416 0.2121
H5 H 0.0362 0.0416 0.2879
C7 C 0.04383(8) 0.19385(14) 0.19101(9)
H6 H 0.0863 0.2433 0.2283
H7 H 0.0659 0.1296 0.1497
C8 C -0.11745(7) 0.92223(14) 0.02832(9)
H8 H -0.1124 0.9441 0.0925
H9 H -0.0696 0.9498 0.0067
C9 C -0.10247(7) 0.38003(14) 0.05472(9)
H10 H -0.1495 0.3842 0.0162
C10 C 0.20224(7) 0.66062(16) 0.26335(9)
H11 H 0.2366 0.7145 0.3087
H12 H 0.1795 0.5812 0.2937
C11 C 0.24850(9) 0.5978(2) 0.19675(11)
H13 H 0.2881 0.5350 0.2274
H14 H 0.2722 0.6757 0.1673
H15 H 0.2151 0.5422 0.1524
C7F C -0.04383(8) 0.19385(14) 0.30899(9)
N3F N 0.00424(6) 0.30032(12) 0.35991(7)
N4F N 0.07099(7) 0.26042(12) 0.41083(8)
C9F C 0.10247(7) 0.38003(14) 0.44528(9)
C4F C 0.05711(7) 0.50121(14) 0.41744(8)
C2F C 0.05818(7) 0.65201(13) 0.42593(8)
S2F S 0.135851(17) 0.73274(3) 0.49043(2)
C8F C 0.11745(7) 0.92223(14) 0.47168(9)
C1F C 0.18356(8) 1.00460(15) 0.52161(10)
H1F H 0.1750 1.1078 0.5126
H2F H 0.2306 0.9769 0.4995
H3F H 0.1880 0.9824 0.5850
H8F H 0.1124 0.9441 0.4075
H9F H 0.0696 0.9498 0.4933
N1F N 0.00119(6) 0.73064(11) 0.38496(7)
C5F C -0.05709(7) 0.65926(14) 0.33511(8)
S1F S -0.127252(18) 0.77911(4) 0.28605(2)
C10F C -0.20224(7) 0.66062(16) 0.23665(9)
H11F H -0.2366 0.7145 0.1913
H12F H -0.1795 0.5812 0.2063
C11F C -0.24850(9) 0.5978(2) 0.30325(11)
H13F H -0.2881 0.5350 0.2726
H14F H -0.2722 0.6757 0.3327
H15F H -0.2151 0.5422 0.3476
N2F N -0.06550(6) 0.51927(12) 0.32039(7)
C3F C -0.00616(7) 0.44418(14) 0.36267(8)
H10F H 0.1495 0.3842 0.4838
H6F H -0.0863 0.2433 0.2717
H7F H -0.0659 0.1296 0.3503
loop_
_geom_bond_atom_site_label_1
_geom_bond_atom_site_label_2
_geom_bond_site_symmetry_1
_geom_bond_site_symmetry_2
S1 C5 1_555 1_555
S2 C2 1_555 1_555
N1 C2 1_555 1_555
N2 C3 1_555 1_555
N3 N4 1_555 1_555
N4 C9 1_555 1_555
C1 H1 1_555 1_555
H2 C1 1_555 1_555
H3 C1 1_555 1_555
C2 C4 1_555 1_555
C3 N3 1_555 1_555
C4 C3 1_555 1_555
C5 N1 1_555 1_555
C6 H4 1_555 1_555
H5 C6 1_555 1_555
C7 N3 1_555 1_555
H6 C7 1_555 1_555
H7 C7 1_555 1_555
C8 S2 1_555 1_555
H8 C8 1_555 1_555
H9 C8 1_555 1_555
C9 C4 1_555 1_555
H10 C9 1_555 1_555
C10 S1 1_555 1_555
H11 C10 1_555 1_555
H12 C10 1_555 1_555
C11 C10 1_555 1_555
H13 C11 1_555 1_555
H14 C11 1_555 1_555
H15 C11 1_555 1_555
C7F C6 1_555 1_555
N3F C7F 1_555 1_555
N4F N3F 1_555 1_555
C9F N4F 1_555 1_555
C4F C9F 1_555 1_555
C2F C4F 1_555 1_555
S2F C2F 1_555 1_555
C8F S2F 1_555 1_555
C1F C8F 1_555 1_555
H1F C1F 1_555 1_555
H2F C1F 1_555 1_555
H3F C1F 1_555 1_555
H8F C8F 1_555 1_555
H9F C8F 1_555 1_555
N1F C2F 1_555 1_555
C5F N1F 1_555 1_555
S1F C5F 1_555 1_555
C10F S1F 1_555 1_555
H11F C10F 1_555 1_555
H12F C10F 1_555 1_555
C11F C10F 1_555 1_555
H13F C11F 1_555 1_555
H14F C11F 1_555 1_555
H15F C11F 1_555 1_555
N2F C5F 1_555 1_555
C3F N3F 1_555 1_555
H10F C9F 1_555 1_555
H6F C7F 1_555 1_555
H7F C7F 1_555 1_555
N2 C5 1_555 1_555
C1 C8 1_555 1_555
C6 C7 1_555 1_555
C4F C3F 1_555 1_555
N2F C3F 1_555 1_555

#END
