
#######################################################################
#
#                 Cambridge Crystallographic Data Centre
#                                CCDC 
#
#######################################################################
#
# If this CIF has been generated from an entry in the Cambridge 
# Structural Database, then it will include bibliographic, chemical, 
# crystal, experimental, refinement or atomic coordinate data resulting 
# from the CCDC's data processing and validation procedures.
#
#######################################################################

data_MERLOK
_chemical_formula_moiety         'C1 H6 N3 1+,C6 H4 I1 O3 S1 1-,C8 H10'
_chemical_name_systematic        
'Guanidinium (4-iodobenzenesulfonate) (m-xylene) clathrate'
_symmetry_cell_setting           orthorhombic
_symmetry_space_group_name_H-M   'P 21 21 21'
_symmetry_Int_Tables_number      19
_space_group_name_Hall           'P 2ac 2ab'
loop_
_symmetry_equiv_pos_site_id
_symmetry_equiv_pos_as_xyz
1 x,y,z
2 1/2-x,-y,1/2+z
3 1/2+x,1/2-y,-z
4 -x,1/2+y,1/2-z
_cell_length_a                   7.7730(4)
_cell_length_b                   11.4676(6)
_cell_length_c                   20.6006(11)
_cell_angle_alpha                90
_cell_angle_beta                 90
_cell_angle_gamma                90
_cell_volume                     1836.29
_exptl_crystal_colour            colorless
_exptl_crystal_description       'flat block'
_cell_formula_units_Z            4
loop_
_atom_site_label
_atom_site_type_symbol
_atom_site_fract_x
_atom_site_fract_y
_atom_site_fract_z
I1 I 0.75969(4) 0.42596(2) -0.131052(10)
S1 S 0.74892(17) 0.34130(7) 0.18691(4)
O1 O 0.9053(3) 0.2764(3) 0.20291(15)
C1 C 0.7496(6) 0.3621(2) 0.10165(14)
O2 O 0.5934(3) 0.2761(3) 0.20141(14)
C2 C 0.8344(5) 0.4582(3) 0.07613(19)
H5 H 0.8891 0.5125 0.1042
O3 O 0.7500(4) 0.45826(17) 0.21519(10)
C3 C 0.8388(5) 0.4745(3) 0.00922(19)
H8 H 0.8963 0.5400 -0.0088
C4 C 0.7583(6) 0.3940(2) -0.03089(14)
C5 C 0.6777(5) 0.2977(3) -0.00561(19)
H9 H 0.6258 0.2424 -0.0338
C6 C 0.6721(5) 0.2810(3) 0.06063(19)
H10 H 0.6157 0.2147 0.0782
N1 N 1.2489(6) 0.3810(2) 0.20652(12)
H1 H 1.1513 0.3440 0.1998
H2 H 1.3469 0.3482 0.1953
N2 N 1.1029(4) 0.5357(4) 0.25038(19)
H3 H 1.0046 0.4995 0.2439
H4 H 1.1039 0.6054 0.2682
N3 N 1.3966(4) 0.5417(4) 0.24285(18)
H6 H 1.3967 0.6117 0.2604
H7 H 1.4943 0.5087 0.2316
C7 C 1.2484(8) 0.4857(3) 0.23339(14)
C8 C 0.6829(5) 0.8246(4) 0.0696(2)
C9 C 0.6450(5) 0.7748(3) 0.0102(2)
H11 H 0.5871 0.7019 0.0095
C10 C 0.6879(5) 0.8269(3) -0.0484(2)
C11 C 0.7716(5) 0.9339(3) -0.0461(2)
H12 H 0.8035 0.9720 -0.0852
C12 C 0.8084(5) 0.9847(4) 0.0130(3)
H13 H 0.8646 1.0583 0.0139
C13 C 0.7664(6) 0.9324(4) 0.0703(2)
H14 H 0.7937 0.9689 0.1103
C14 C 0.6336(6) 0.7641(5) 0.1325(2)
H15 H 0.5924 0.6852 0.1230
H16 H 0.5422 0.8085 0.1541
H17 H 0.7343 0.7598 0.1611
C15 C 0.6428(6) 0.7691(4) -0.1117(2)
H18 H 0.7422 0.7723 -0.1410
H19 H 0.5454 0.8099 -0.1317
H20 H 0.6116 0.6876 -0.1038
loop_
_geom_bond_atom_site_label_1
_geom_bond_atom_site_label_2
_geom_bond_site_symmetry_1
_geom_bond_site_symmetry_2
I1 C4 1_555 1_555
S1 O1 1_555 1_555
N1 H1 1_555 1_555
H2 N1 1_555 1_555
C1 S1 1_555 1_555
O2 S1 1_555 1_555
N2 H3 1_555 1_555
H4 N2 1_555 1_555
C2 C1 1_555 1_555
H5 C2 1_555 1_555
O3 S1 1_555 1_555
N3 H6 1_555 1_555
H7 N3 1_555 1_555
C3 C2 1_555 1_555
H8 C3 1_555 1_555
C4 C3 1_555 1_555
C5 C4 1_555 1_555
H9 C5 1_555 1_555
C6 C1 1_555 1_555
H10 C6 1_555 1_555
C7 N1 1_555 1_555
C8 C9 1_555 1_555
C9 H11 1_555 1_555
C10 C9 1_555 1_555
C11 C10 1_555 1_555
H12 C11 1_555 1_555
C12 C11 1_555 1_555
H13 C12 1_555 1_555
C13 C8 1_555 1_555
H14 C13 1_555 1_555
C14 C8 1_555 1_555
H15 C14 1_555 1_555
H16 C14 1_555 1_555
H17 C14 1_555 1_555
C15 C10 1_555 1_555
H18 C15 1_555 1_555
H19 C15 1_555 1_555
H20 C15 1_555 1_555
N2 C7 1_555 1_555
N3 C7 1_555 1_555
C5 C6 1_555 1_555
C12 C13 1_555 1_555

#END
