
#######################################################################
#
#                 Cambridge Crystallographic Data Centre
#                                CCDC 
#
#######################################################################
#
# If this CIF has been generated from an entry in the Cambridge 
# Structural Database, then it will include bibliographic, chemical, 
# crystal, experimental, refinement or atomic coordinate data resulting 
# from the CCDC's data processing and validation procedures.
#
#######################################################################

data_MERLON
_chemical_formula_moiety         'C18 H20 N2 O6 S1'
_chemical_name_systematic        
'ethyl N-[(4-methylphenyl)sulfonyl]-3-nitro-2-phenylalaninate'
_symmetry_cell_setting           orthorhombic
_symmetry_space_group_name_H-M   'P 21 21 21'
_symmetry_Int_Tables_number      19
_space_group_name_Hall           'P 2ac 2ab'
loop_
_symmetry_equiv_pos_site_id
_symmetry_equiv_pos_as_xyz
1 x,y,z
2 1/2-x,-y,1/2+z
3 1/2+x,1/2-y,-z
4 -x,1/2+y,1/2-z
_cell_length_a                   9.815(2)
_cell_length_b                   10.370(2)
_cell_length_c                   19.071(4)
_cell_angle_alpha                90
_cell_angle_beta                 90
_cell_angle_gamma                90
_cell_volume                     1941.08
_exptl_crystal_colour            colorless
_exptl_crystal_description       block
_cell_formula_units_Z            4
loop_
_atom_site_label
_atom_site_type_symbol
_atom_site_fract_x
_atom_site_fract_y
_atom_site_fract_z
C1 C 0.3176(3) 0.7276(3) 0.36847(15)
C2 C 0.3687(3) 0.5628(3) 0.52927(17)
C3 C 0.4961(4) 0.5075(4) 0.5219(2)
H1 H 0.570089 0.556837 0.507444
C4 C 0.5117(4) 0.3775(4) 0.5365(2)
H2 H 0.597281 0.340158 0.531443
C5 C 0.4054(5) 0.3024(4) 0.5579(2)
C6 C 0.2780(5) 0.3594(4) 0.5642(2)
H3 H 0.204212 0.309220 0.578046
C7 C 0.2584(4) 0.4887(4) 0.5506(2)
H4 H 0.172623 0.525657 0.555503
C8 C 0.4231(7) 0.1595(5) 0.5733(3)
H5 H 0.497824 0.126289 0.546271
H6 H 0.341209 0.114225 0.561006
H7 H 0.441551 0.147699 0.622315
C9 C 0.4196(4) 0.8350(3) 0.3529(2)
H8 H 0.499119 0.824007 0.382573
H9 H 0.449061 0.828418 0.304518
C10 C 0.3835(3) 0.5934(3) 0.35774(18)
C11 C 0.5172(4) 0.5778(4) 0.33757(19)
H10 H 0.572288 0.649514 0.330022
C12 C 0.5693(5) 0.4545(4) 0.3286(2)
H11 H 0.659647 0.444157 0.314924
C13 C 0.4903(5) 0.3485(4) 0.3394(2)
H12 H 0.526375 0.266419 0.332900
C14 C 0.3568(5) 0.3631(4) 0.3599(2)
H13 H 0.302459 0.290965 0.367556
C15 C 0.3040(4) 0.4852(3) 0.3692(2)
H14 H 0.213910 0.494959 0.383331
C16 C 0.2033(4) 0.7349(4) 0.31311(18)
C17 C -0.0365(14) 0.6957(13) 0.2910(8)
H15 H -0.006216 0.652570 0.248628
H16 H -0.107644 0.645010 0.313033
C18 C -0.0831(11) 0.8301(14) 0.2762(5)
H17 H -0.102636 0.873228 0.319619
H18 H -0.163813 0.827610 0.247852
H19 H -0.012660 0.875939 0.251718
N1 N 0.2595(2) 0.7441(2) 0.43917(13)
H20 H 0.174546 0.763784 0.442025
N2 N 0.3609(5) 0.9652(3) 0.3651(2)
O1 O 0.2541(2) 0.7771(2) 0.56518(12)
O2 O 0.4749(2) 0.7855(2) 0.50277(12)
O3 O 0.2454(4) 0.9864(3) 0.3472(2)
O4 O 0.4320(5) 1.0455(3) 0.3924(3)
O5 O 0.2275(3) 0.7455(3) 0.25186(12)
O6 O 0.0808(2) 0.7206(4) 0.34076(13)
S1 S 0.34363(8) 0.72790(9) 0.51242(4)
C19? C -0.0336(19) 0.765(2) 0.2923(12)
H21? H -0.107101 0.805420 0.318043
H22? H -0.000641 0.823187 0.256351
C20? C -0.076(3) 0.638(2) 0.2620(14)
H23? H 0.000319 0.598353 0.239011
H24? H -0.148029 0.651096 0.228740
H25? H -0.107651 0.582439 0.298964
loop_
_geom_bond_atom_site_label_1
_geom_bond_atom_site_label_2
_geom_bond_site_symmetry_1
_geom_bond_site_symmetry_2
C1 C9 1_555 1_555
C2 C3 1_555 1_555
C3 H1 1_555 1_555
C4 C3 1_555 1_555
H2 C4 1_555 1_555
C5 C4 1_555 1_555
C6 C5 1_555 1_555
H3 C6 1_555 1_555
C7 C2 1_555 1_555
H4 C7 1_555 1_555
C8 C5 1_555 1_555
H5 C8 1_555 1_555
H6 C8 1_555 1_555
H7 C8 1_555 1_555
C9 H8 1_555 1_555
H9 C9 1_555 1_555
C10 C1 1_555 1_555
C11 C10 1_555 1_555
H10 C11 1_555 1_555
C12 C11 1_555 1_555
H11 C12 1_555 1_555
C13 C12 1_555 1_555
H12 C13 1_555 1_555
C14 C13 1_555 1_555
H13 C14 1_555 1_555
C15 C10 1_555 1_555
H14 C15 1_555 1_555
C16 C1 1_555 1_555
C17 H15 1_555 1_555
H16 C17 1_555 1_555
C18 C17 1_555 1_555
H17 C18 1_555 1_555
H18 C18 1_555 1_555
H19 C18 1_555 1_555
N1 C1 1_555 1_555
H20 N1 1_555 1_555
N2 C9 1_555 1_555
O1 S1 1_555 1_555
O2 S1 1_555 1_555
O3 N2 1_555 1_555
O4 N2 1_555 1_555
O5 C16 1_555 1_555
O6 C16 1_555 1_555
S1 C2 1_555 1_555
C6 C7 1_555 1_555
C14 C15 1_555 1_555
C17 O6 1_555 1_555
N1 S1 1_555 1_555

#END
