
#######################################################################
#
#                 Cambridge Crystallographic Data Centre
#                                CCDC 
#
#######################################################################
#
# If this CIF has been generated from an entry in the Cambridge 
# Structural Database, then it will include bibliographic, chemical, 
# crystal, experimental, refinement or atomic coordinate data resulting 
# from the CCDC's data processing and validation procedures.
#
#######################################################################

data_MERMEB
_chemical_formula_moiety         
'C1 H6 N3 1+,C6 H4 Br1 O3 S1 1-,0.67(C7 H7 Cl1)'
_chemical_name_systematic        
'Guanidinium 4-bromobenzenesulfonate 2-chlorotoluene clathrate'
_symmetry_cell_setting           hexagonal
_symmetry_space_group_name_H-M   'P 63/m'
_symmetry_Int_Tables_number      176
_space_group_name_Hall           '-P 6c'
loop_
_symmetry_equiv_pos_site_id
_symmetry_equiv_pos_as_xyz
1 x,y,z
2 x-y,x,1/2+z
3 -y,x-y,z
4 -x+y,-x,z
5 y,-x+y,1/2+z
6 x,y,1/2-z
7 -x,-y,-z
8 -x+y,-x,1/2-z
9 y,-x+y,-z
10 x-y,x,-z
11 -y,x-y,1/2-z
12 -x,-y,1/2+z
_cell_length_a                   19.3051(10)
_cell_length_b                   19.3051(10)
_cell_length_c                   7.6998(6)
_cell_angle_alpha                90
_cell_angle_beta                 90
_cell_angle_gamma                120
_cell_volume                     2485.16
_exptl_crystal_colour            colorless
_exptl_crystal_description       'hexagonal needles'
_cell_formula_units_Z            6
loop_
_atom_site_label
_atom_site_type_symbol
_atom_site_fract_x
_atom_site_fract_y
_atom_site_fract_z
C7 C 0.7991(2) 0.6835(2) 0.7500
N1 N 0.7336(2) 0.6894(2) 0.7500
H5 H 0.7116 0.6911 0.8490
H6 H 0.7120 0.6917 0.6510
N2 N 0.83156(14) 0.68008(15) 0.6009(3)
H7 H 0.8096 0.6817 0.5019
H8 H 0.8751 0.6762 0.6008
N2E N 0.83156(14) 0.68008(15) 0.8991(3)
H7E H 0.8096 0.6817 0.9981
H8E H 0.8751 0.6762 0.8992
C8 C 0.5495(13) 0.2038(12) 0.852(3)
C9 C 0.552(3) 0.277(3) 0.7500
C10 C 0.533(2) 0.312(3) 0.7500
C11 C 0.619(2) 0.306(3) 0.7500
C12 C 0.619(2) 0.217(2) 0.870(6)
C8E C 0.5495(13) 0.2038(12) 0.648(3)
C10B C 0.688(3) 0.221(4) 0.7500
C9B C 0.723(3) 0.275(4) 0.7500
C8B C 0.7962(12) 0.3457(18) 0.852(3)
C8J C 0.7962(12) 0.3457(18) 0.648(3)
C12B C 0.783(2) 0.402(3) 0.870(6)
C10C C 0.779(4) 0.467(2) 0.7500
C9C C 0.725(4) 0.448(3) 0.7500
C8C C 0.6543(18) 0.4505(13) 0.852(3)
C8G C 0.6543(18) 0.4505(13) 0.648(3)
C12C C 0.598(3) 0.381(2) 0.870(6)
C12G C 0.598(3) 0.381(2) 0.630(6)
C11C C 0.687(4) 0.381(2) 0.7500
C12J C 0.783(2) 0.402(3) 0.630(6)
C11B C 0.694(3) 0.313(4) 0.7500
C12E C 0.619(2) 0.217(2) 0.630(6)
C14 C 1.0465(5) 1.0194(7) 0.2500
C15 C 1.1292(5) 1.0140(6) 0.2500
C16 C 1.1346(6) 1.0944(8) 0.2500
C17 C 1.0379(9) 0.9441(9) 0.2500
C14B C 0.9806(7) 1.0271(9) 0.2500
C14C C 0.9729(9) 0.9535(5) 0.2500
C15C C 0.8848(8) 0.8708(5) 0.2500
C16C C 0.9598(10) 0.8654(6) 0.2500
C17C C 0.9062(13) 0.9621(9) 0.2500
C15B C 0.9860(6) 1.1152(8) 0.2500
C16B C 0.9056(8) 1.0402(10) 0.2500
C17B C 1.0559(9) 1.0938(13) 0.2500
Br1 Br 0.44422(3) 0.27953(2) 0.2500
S1 S 0.68420(5) 0.65889(5) 0.2500
C1 C 0.6164(2) 0.5544(2) 0.2500
C4 C 0.5137(2) 0.3921(2) 0.2500
C5 C 0.5808(3) 0.4247(3) 0.3708(8)
H3 H 0.5889 0.3911 0.4485
C6 C 0.6324(3) 0.5066(3) 0.3676(8)
H4 H 0.6776 0.5307 0.4421
O1 O 0.66770(11) 0.69033(10) 0.4074(2)
O2 O 0.76406(15) 0.66831(15) 0.2500
O1E O 0.66770(11) 0.69033(10) 0.0926(2)
C6E C 0.6324(3) 0.5066(3) 0.1324(8)
C5E C 0.5808(3) 0.4247(3) 0.1292(8)
H3E H 0.5889 0.3911 0.0515
H4E H 0.6776 0.5307 0.0579
C2? C 0.5489(3) 0.5215(3) 0.1565(8)
H1? H 0.5362 0.5547 0.0883
C3? C 0.4967(4) 0.4387(3) 0.1583(8)
H2? H 0.4487 0.4162 0.0925
C13? C 0.599(3) 0.289(4) 0.970(11)
loop_
_geom_bond_atom_site_label_1
_geom_bond_atom_site_label_2
_geom_bond_site_symmetry_1
_geom_bond_site_symmetry_2
Br1 C4 1_555 1_555
S1 C1 1_555 1_555
C1 C6 1_555 1_555
C4 C5 1_555 1_555
C5 H3 1_555 1_555
C6 C5 1_555 1_555
H4 C6 1_555 1_555
C7 N1 1_555 1_555
O1 S1 1_555 1_555
O2 S1 1_555 1_555
N1 H5 1_555 1_555
H6 N1 1_555 1_555
N2 C7 1_555 1_555
H7 N2 1_555 1_555
H8 N2 1_555 1_555
C8 C9 1_555 1_555
C9 C10 1_555 1_555
C10 C11 1_555 1_555
C11 C9 1_555 1_555
C12 C8 1_555 1_555
C14 C15 1_555 1_555
C15 C16 1_555 1_555
C16 C14 1_555 1_555
C17 C14 1_555 1_555
O1E S1 1_555 1_555
C6E C1 1_555 1_555
C5E C4 1_555 1_555
H3E C5E 1_555 1_555
H4E C6E 1_555 1_555
N2E C7 1_555 1_555
H7E N2E 1_555 1_555
H8E N2E 1_555 1_555
C8E C8 1_555 1_555
C10B C12 1_555 1_555
C9B C10B 1_555 1_555
C8B C9B 1_555 1_555
C8J C9B 1_555 1_555
C12B C8B 1_555 1_555
C10C C12B 1_555 1_555
C9C C10C 1_555 1_555
C8C C9C 1_555 1_555
C8G C9C 1_555 1_555
C12C C10 1_555 1_555
C12G C10 1_555 1_555
C11C C11 1_555 1_555
C12J C8J 1_555 1_555
C11B C11 1_555 1_555
C12E C8E 1_555 1_555
C14B C14 1_555 1_555
C14C C14 1_555 1_555
C15C C14C 1_555 1_555
C16C C17 1_555 1_555
C17C C14B 1_555 1_555
C15B C14B 1_555 1_555
C16B C14B 1_555 1_555
C17B C14 1_555 1_555
C9 C8E 1_555 1_555
C15 C17 1_555 1_555
C16 C17B 1_555 1_555
C17 C14C 1_555 1_555
C6E C5E 1_555 1_555
C10B C12E 1_555 1_555
C10B C11B 1_555 1_555
C9B C11B 1_555 1_555
C8B C8J 1_555 1_555
C10C C12J 1_555 1_555
C10C C11C 1_555 1_555
C9C C11C 1_555 1_555
C8C C8G 1_555 1_555
C8C C12C 1_555 1_555
C8G C12G 1_555 1_555
C11C C11B 1_555 1_555
C14B C14C 1_555 1_555
C14B C17B 1_555 1_555
C14C C17C 1_555 1_555
C14C C16C 1_555 1_555
C15C C16C 1_555 1_555
C15C C17C 1_555 1_555
C17C C16B 1_555 1_555
C15B C16B 1_555 1_555
C15B C17B 1_555 1_555

#END
