
#######################################################################
#
#                 Cambridge Crystallographic Data Centre
#                                CCDC 
#
#######################################################################
#
# If this CIF has been generated from an entry in the Cambridge 
# Structural Database, then it will include bibliographic, chemical, 
# crystal, experimental, refinement or atomic coordinate data resulting 
# from the CCDC's data processing and validation procedures.
#
#######################################################################

data_MERMOL
_chemical_formula_moiety         'C1 H6 N3 1+,C7 H7 O3 S1 1-,C8 H10'
_chemical_name_systematic        
'Guanidinium (p-toluenesulfonate) (p-xylene) clathrate'
_symmetry_cell_setting           monoclinic
_symmetry_space_group_name_H-M   'P 21/c'
_symmetry_Int_Tables_number      14
_space_group_name_Hall           '-P 2ybc'
loop_
_symmetry_equiv_pos_site_id
_symmetry_equiv_pos_as_xyz
1 x,y,z
2 x,1/2-y,1/2+z
3 -x,-y,-z
4 -x,1/2+y,1/2-z
_cell_length_a                   24.072(3)
_cell_length_b                   7.4740(8)
_cell_length_c                   23.334(3)
_cell_angle_alpha                90
_cell_angle_beta                 118.726(2)
_cell_angle_gamma                90
_cell_volume                     3681.45
_exptl_crystal_colour            colorless
_exptl_crystal_description       'flat block'
_cell_formula_units_Z            8
loop_
_atom_site_label
_atom_site_type_symbol
_atom_site_fract_x
_atom_site_fract_y
_atom_site_fract_z
S1 S 0.18130(6) 0.26327(17) 0.17195(6)
O1 O 0.20637(16) 0.2491(5) 0.12616(16)
C1 C 0.0991(2) 0.2945(6) 0.1249(2)
O2 O 0.19127(16) 0.0984(4) 0.20971(16)
C2 C 0.0666(3) 0.2379(8) 0.0604(2)
H5 H 0.0888 0.1820 0.0408
O3 O 0.20488(15) 0.4186(4) 0.21443(15)
C3 C 0.0021(3) 0.2630(9) 0.0249(3)
H8 H -0.0199 0.2236 -0.0192
C4 C -0.0313(3) 0.3450(8) 0.0524(3)
C5 C 0.0013(3) 0.4003(7) 0.1163(3)
H13 H -0.0210 0.4560 0.1359
C6 C 0.0658(2) 0.3759(7) 0.1524(3)
H16 H 0.0876 0.4153 0.1965
C7 C -0.1019(3) 0.3728(10) 0.0124(3)
H17 H -0.1115 0.4295 -0.0293
H18 H -0.1165 0.4499 0.0364
H19 H -0.1235 0.2569 0.0039
N1 N 0.25563(18) 0.6029(5) 0.10950(19)
H1 H 0.2482 0.5026 0.1244
H2 H 0.2738 0.6001 0.0846
N2 N 0.25115(19) 0.9092(5) 0.10211(19)
H3 H 0.2407 1.0128 0.1122
H4 H 0.2693 0.9057 0.0772
N3 N 0.21226(18) 0.7638(6) 0.16195(19)
H6 H 0.2047 0.6640 0.1770
H7 H 0.2017 0.8675 0.1718
C8 C 0.2395(2) 0.7579(7) 0.1246(2)
S2 S 0.31761(6) 0.75732(17) 0.48965(6)
O4 O 0.29332(16) 0.7502(5) 0.41916(15)
O5 O 0.29213(16) 0.9099(4) 0.50860(16)
O6 O 0.30800(15) 0.5902(4) 0.51625(15)
C17 C 0.3999(2) 0.7925(6) 0.5250(2)
C18 C 0.4315(3) 0.8756(7) 0.5856(3)
H30 H 0.4090 0.9135 0.6075
C19 C 0.4964(3) 0.9028(8) 0.6138(3)
H31 H 0.5181 0.9608 0.6550
C20 C 0.5298(3) 0.8475(8) 0.5830(3)
C21 C 0.4977(3) 0.7679(8) 0.5232(3)
H32 H 0.5203 0.7309 0.5013
C22 C 0.4333(3) 0.7397(8) 0.4938(2)
H33 H 0.4120 0.6841 0.4522
C23 C 0.6007(3) 0.8772(10) 0.6147(3)
H34 H 0.6228 0.7757 0.6431
H35 H 0.6119 0.9873 0.6407
H36 H 0.6134 0.8879 0.5807
N4 N 0.25055(19) 0.4067(5) 0.3531(2)
H9 H 0.2320 0.4083 0.3102
H10 H 0.2623 0.5076 0.3752
N5 N 0.28861(19) 0.2507(6) 0.44927(18)
H11 H 0.2955 0.1487 0.4705
H12 H 0.3002 0.3521 0.4710
N6 N 0.24330(18) 0.1003(5) 0.35148(19)
H14 H 0.2500 -0.0023 0.3723
H15 H 0.2249 0.1022 0.3085
C24 C 0.2609(2) 0.2514(7) 0.3847(2)
C9 C -0.0503(3) 0.2807(7) 0.2670(3)
C10 C -0.0426(3) 0.3671(7) 0.3226(3)
H20 H -0.0789 0.4065 0.3250
C11 C 0.0170(3) 0.3974(7) 0.3748(3)
H21 H 0.0208 0.4577 0.4123
C12 C 0.0712(3) 0.3414(8) 0.3733(3)
C13 C 0.0631(3) 0.2543(8) 0.3179(3)
H22 H 0.0994 0.2129 0.3157
C14 C 0.0040(3) 0.2254(7) 0.2656(3)
H23 H 0.0003 0.1666 0.2278
C15 C -0.1150(3) 0.2488(9) 0.2097(3)
H24 H -0.1470 0.2579 0.2241
H25 H -0.1166 0.1290 0.1919
H26 H -0.1236 0.3386 0.1759
C16 C 0.1358(3) 0.3774(11) 0.4306(3)
H27 H 0.1580 0.2639 0.4475
H28 H 0.1310 0.4391 0.4651
H29 H 0.1602 0.4528 0.4164
C25 C 0.5508(3) 0.7189(7) 0.3165(3)
C26 C 0.5433(3) 0.6310(7) 0.3648(3)
H37 H 0.5797 0.5900 0.4029
C27 C 0.4838(3) 0.6020(7) 0.3585(2)
H38 H 0.4800 0.5436 0.3926
C28 C 0.4300(3) 0.6565(8) 0.3034(3)
C29 C 0.4371(3) 0.7443(8) 0.2550(2)
H39 H 0.4008 0.7855 0.2170
C30 C 0.4963(3) 0.7724(7) 0.2614(3)
H40 H 0.4998 0.8302 0.2271
C31 C 0.6151(3) 0.7483(9) 0.3228(4)
H41 H 0.6207 0.8756 0.3167
H42 H 0.6190 0.6782 0.2894
H43 H 0.6477 0.7104 0.3662
C32 C 0.3649(3) 0.6243(10) 0.2967(3)
H44 H 0.3692 0.5938 0.3395
H45 H 0.3442 0.5254 0.2662
H46 H 0.3392 0.7328 0.2801
loop_
_geom_bond_atom_site_label_1
_geom_bond_atom_site_label_2
_geom_bond_site_symmetry_1
_geom_bond_site_symmetry_2
S1 O1 1_555 1_555
N1 H1 1_555 1_555
H2 N1 1_555 1_555
C1 S1 1_555 1_555
S2 O4 1_555 1_555
O2 S1 1_555 1_555
N2 H3 1_555 1_555
H4 N2 1_555 1_555
C2 C1 1_555 1_555
H5 C2 1_555 1_555
O3 S1 1_555 1_555
N3 H6 1_555 1_555
H7 N3 1_555 1_555
C3 C2 1_555 1_555
H8 C3 1_555 1_555
N4 H9 1_555 1_555
H10 N4 1_555 1_555
C4 C3 1_555 1_555
O5 S2 1_555 1_555
N5 H11 1_555 1_555
H12 N5 1_555 1_555
C5 C4 1_555 1_555
H13 C5 1_555 1_555
O6 S2 1_555 1_555
N6 H14 1_555 1_555
H15 N6 1_555 1_555
C6 C1 1_555 1_555
H16 C6 1_555 1_555
C7 C4 1_555 1_555
H17 C7 1_555 1_555
H18 C7 1_555 1_555
H19 C7 1_555 1_555
C8 N1 1_555 1_555
C9 C10 1_555 1_555
C10 H20 1_555 1_555
C11 C10 1_555 1_555
H21 C11 1_555 1_555
C12 C11 1_555 1_555
C13 C12 1_555 1_555
H22 C13 1_555 1_555
C14 C9 1_555 1_555
H23 C14 1_555 1_555
C15 C9 1_555 1_555
H24 C15 1_555 1_555
H25 C15 1_555 1_555
H26 C15 1_555 1_555
C16 C12 1_555 1_555
H27 C16 1_555 1_555
H28 C16 1_555 1_555
H29 C16 1_555 1_555
C17 S2 1_555 1_555
C18 C17 1_555 1_555
H30 C18 1_555 1_555
C19 C18 1_555 1_555
H31 C19 1_555 1_555
C20 C19 1_555 1_555
C21 C20 1_555 1_555
H32 C21 1_555 1_555
C22 C17 1_555 1_555
H33 C22 1_555 1_555
C23 C20 1_555 1_555
H34 C23 1_555 1_555
H35 C23 1_555 1_555
H36 C23 1_555 1_555
C24 N4 1_555 1_555
C25 C26 1_555 1_555
C26 H37 1_555 1_555
C27 C26 1_555 1_555
H38 C27 1_555 1_555
C28 C27 1_555 1_555
C29 C28 1_555 1_555
H39 C29 1_555 1_555
C30 C25 1_555 1_555
H40 C30 1_555 1_555
C31 C25 1_555 1_555
H41 C31 1_555 1_555
H42 C31 1_555 1_555
H43 C31 1_555 1_555
C32 C28 1_555 1_555
H44 C32 1_555 1_555
H45 C32 1_555 1_555
H46 C32 1_555 1_555
N2 C8 1_555 1_555
N3 C8 1_555 1_555
N5 C24 1_555 1_555
C5 C6 1_555 1_555
N6 C24 1_555 1_555
C13 C14 1_555 1_555
C21 C22 1_555 1_555
C29 C30 1_555 1_555

#END
