
#######################################################################
#
#                 Cambridge Crystallographic Data Centre
#                                CCDC 
#
#######################################################################
#
# If this CIF has been generated from an entry in the Cambridge 
# Structural Database, then it will include bibliographic, chemical, 
# crystal, experimental, refinement or atomic coordinate data resulting 
# from the CCDC's data processing and validation procedures.
#
#######################################################################

data_MERMOO
_chemical_formula_moiety         'C10 H8 N10 O4'
_chemical_name_systematic        
2,4-dinitro-5,6-bis(1H-1,2,4-triazol-1-yl)benzene-1,3-diamine
_symmetry_cell_setting           monoclinic
_symmetry_space_group_name_H-M   'P 21/c'
_symmetry_Int_Tables_number      14
_space_group_name_Hall           '-P 2ybc'
loop_
_symmetry_equiv_pos_site_id
_symmetry_equiv_pos_as_xyz
1 x,y,z
2 -x,1/2+y,1/2-z
3 -x,-y,-z
4 x,1/2-y,1/2+z
_cell_length_a                   8.941(3)
_cell_length_b                   7.445(3)
_cell_length_c                   20.759(7)
_cell_angle_alpha                90
_cell_angle_beta                 106.328(15)
_cell_angle_gamma                90
_cell_volume                     1326.11
_exptl_crystal_colour            yellow
_exptl_crystal_description       prismatic
_cell_formula_units_Z            4
loop_
_atom_site_label
_atom_site_type_symbol
_atom_site_fract_x
_atom_site_fract_y
_atom_site_fract_z
N1 N 0.6391(3) 0.1625(3) 0.13308(10)
N2 N 0.5398(3) 0.0266(4) 0.13734(12)
N3 N 0.6335(3) 0.1640(4) 0.23724(12)
N4 N 0.4033(3) 0.2320(4) 0.02045(16)
N5 N 0.4586(3) 0.3580(3) -0.10076(11)
N6 N 0.7745(3) 0.3631(4) -0.10320(12)
H1 H 0.8698 0.3632 -0.1045
H2 H 0.7015 0.3960 -0.1379
N7 N 1.0180(3) 0.2393(4) 0.00657(12)
N8 N 0.9422(3) 0.1677(3) 0.12809(11)
N9 N 1.0470(3) 0.2973(4) 0.15763(13)
N10 N 1.0973(4) 0.0343(5) 0.21333(15)
O1 O 0.3245(3) 0.3633(4) -0.09662(10)
O2 O 0.4836(2) 0.3994(3) -0.15336(10)
O3 O 1.0609(3) 0.3248(4) -0.03375(12)
O4 O 1.1022(2) 0.1296(3) 0.04463(11)
C1 C 0.6717(3) 0.2005(4) 0.07142(12)
C2 C 0.5463(3) 0.2446(4) 0.01427(13)
C3 C 0.5830(3) 0.3051(4) -0.04400(13)
C4 C 0.7404(3) 0.3127(4) -0.04820(13)
C5 C 0.8583(3) 0.2580(4) 0.00959(14)
C6 C 0.8221(3) 0.2063(4) 0.06842(13)
C7 C 0.6926(3) 0.2417(4) 0.19327(13)
H3 H 0.7617 0.3380 0.2025
C8 C 0.5415(4) 0.0351(5) 0.20038(15)
H4 H 0.4831 -0.0426 0.2188
C9 C 0.9759(4) 0.0148(5) 0.16200(16)
H5 H 0.9202 -0.0916 0.1506
C10 C 1.1351(4) 0.2078(6) 0.20822(18)
H6 H 1.2195 0.2609 0.2391
H7 H 0.332(4) 0.252(4) -0.0149(15)
H8 H 0.396(4) 0.175(4) 0.0584(17)
loop_
_geom_bond_atom_site_label_1
_geom_bond_atom_site_label_2
_geom_bond_site_symmetry_1
_geom_bond_site_symmetry_2
N1 N2 1_555 1_555
N2 C8 1_555 1_555
N3 C7 1_555 1_555
N4 C2 1_555 1_555
N5 O1 1_555 1_555
N6 H1 1_555 1_555
H2 N6 1_555 1_555
N7 O3 1_555 1_555
N8 N9 1_555 1_555
N9 C10 1_555 1_555
N10 C9 1_555 1_555
O2 N5 1_555 1_555
O4 N7 1_555 1_555
C1 N1 1_555 1_555
C2 C1 1_555 1_555
C3 N5 1_555 1_555
C4 N6 1_555 1_555
C5 N7 1_555 1_555
C6 N8 1_555 1_555
C7 N1 1_555 1_555
H3 C7 1_555 1_555
C8 N3 1_555 1_555
H4 C8 1_555 1_555
C9 N8 1_555 1_555
H5 C9 1_555 1_555
C10 N10 1_555 1_555
H6 C10 1_555 1_555
H7 N4 1_555 1_555
H8 N4 1_555 1_555
C1 C6 1_555 1_555
C2 C3 1_555 1_555
C3 C4 1_555 1_555
C4 C5 1_555 1_555
C5 C6 1_555 1_555

#END
