
#######################################################################
#
#                 Cambridge Crystallographic Data Centre
#                                CCDC 
#
#######################################################################
#
# If this CIF has been generated from an entry in the Cambridge 
# Structural Database, then it will include bibliographic, chemical, 
# crystal, experimental, refinement or atomic coordinate data resulting 
# from the CCDC's data processing and validation procedures.
#
#######################################################################

data_MERMIF
_chemical_formula_moiety         'C1 H6 N3 1+,C6 H4 I1 O3 S1 1-,C8 H10'
_chemical_name_systematic        
'Guanidinium (iodobenzenesulfonate) (o-xylene) clathrate'
_symmetry_cell_setting           monoclinic
_symmetry_space_group_name_H-M   'C c'
_symmetry_Int_Tables_number      9
_space_group_name_Hall           'C -2yc'
loop_
_symmetry_equiv_pos_site_id
_symmetry_equiv_pos_as_xyz
1 x,y,z
2 x,-y,1/2+z
3 1/2+x,1/2+y,z
4 1/2+x,1/2-y,1/2+z
_cell_length_a                   7.5319(5)
_cell_length_b                   20.7652(15)
_cell_length_c                   11.9471(9)
_cell_angle_alpha                90
_cell_angle_beta                 94.1680(10)
_cell_angle_gamma                90
_cell_volume                     1863.6
_exptl_crystal_colour            colorless
_exptl_crystal_description       'flat block'
_cell_formula_units_Z            4
loop_
_atom_site_label
_atom_site_type_symbol
_atom_site_fract_x
_atom_site_fract_y
_atom_site_fract_z
I1 I 0.76294(10) 0.87720(2) 0.20524(8)
S1 S 0.8704(2) 1.19122(9) 0.13987(16)
O1 O 0.7194(6) 1.2201(2) 0.1917(5)
C1 C 0.8473(9) 1.1074(4) 0.1559(6)
O2 O 1.0389(6) 1.2086(3) 0.1994(4)
C2 C 0.9123(10) 1.0774(4) 0.2547(7)
H5 H 0.9727 1.1019 0.3129
O3 O 0.8658(7) 1.2037(2) 0.0199(4)
C3 C 0.8885(11) 1.0114(4) 0.2683(7)
H8 H 0.9356 0.9907 0.3348
C4 C 0.7970(10) 0.9765(3) 0.1854(8)
C5 C 0.7314(12) 1.0060(4) 0.0860(8)
H9 H 0.6707 0.9812 0.0283
C6 C 0.7551(10) 1.0713(4) 0.0719(7)
H10 H 0.7087 1.0918 0.0049
N1 N 0.8640(8) 1.2844(3) 0.5842(5)
H1 H 0.9679 1.2892 0.6221
H2 H 0.7652 1.2898 0.6181
N2 N 1.0032(8) 1.2608(3) 0.4241(6)
H3 H 1.1082 1.2654 0.4605
H4 H 0.9957 1.2506 0.3524
N3 N 0.6991(8) 1.2625(3) 0.4187(6)
H6 H 0.5999 1.2684 0.4520
H7 H 0.6948 1.2524 0.3471
C7 C 0.8566(10) 1.2692(3) 0.4770(7)
C8 C 1.2727(12) 1.0562(5) 0.4870(8)
C9 C 1.3619(12) 1.0535(5) 0.3855(9)
C10 C 1.3777(13) 0.9941(6) 0.3368(8)
H11 H 1.4316 0.9914 0.2675
C11 C 1.3191(13) 0.9390(5) 0.3838(9)
H12 H 1.3373 0.8987 0.3487
C12 C 1.2356(13) 0.9413(5) 0.4797(11)
H13 H 1.1912 0.9031 0.5112
C13 C 1.2155(12) 0.9999(5) 0.5317(7)
H14 H 1.1601 1.0011 0.6006
C14 C 1.2458(16) 1.1195(5) 0.5480(12)
H15 H 1.2281 1.1107 0.6270
H16 H 1.1410 1.1416 0.5132
H17 H 1.3511 1.1467 0.5430
C15 C 1.4269(15) 1.1140(6) 0.3338(13)
H18 H 1.4589 1.1049 0.2573
H19 H 1.5318 1.1300 0.3788
H20 H 1.3328 1.1466 0.3316
loop_
_geom_bond_atom_site_label_1
_geom_bond_atom_site_label_2
_geom_bond_site_symmetry_1
_geom_bond_site_symmetry_2
I1 C4 1_555 1_555
S1 O1 1_555 1_555
N1 H1 1_555 1_555
H2 N1 1_555 1_555
C1 S1 1_555 1_555
O2 S1 1_555 1_555
N2 H3 1_555 1_555
H4 N2 1_555 1_555
C2 C1 1_555 1_555
H5 C2 1_555 1_555
O3 S1 1_555 1_555
N3 H6 1_555 1_555
H7 N3 1_555 1_555
C3 C2 1_555 1_555
H8 C3 1_555 1_555
C4 C3 1_555 1_555
C5 C4 1_555 1_555
H9 C5 1_555 1_555
C6 C1 1_555 1_555
H10 C6 1_555 1_555
C7 N1 1_555 1_555
C8 C9 1_555 1_555
C9 C10 1_555 1_555
C10 H11 1_555 1_555
C11 C10 1_555 1_555
H12 C11 1_555 1_555
C12 C11 1_555 1_555
H13 C12 1_555 1_555
C13 C8 1_555 1_555
H14 C13 1_555 1_555
C14 C8 1_555 1_555
H15 C14 1_555 1_555
H16 C14 1_555 1_555
H17 C14 1_555 1_555
C15 C9 1_555 1_555
H18 C15 1_555 1_555
H19 C15 1_555 1_555
H20 C15 1_555 1_555
N2 C7 1_555 1_555
N3 C7 1_555 1_555
C5 C6 1_555 1_555
C12 C13 1_555 1_555

#END
