
#######################################################################
#
#                 Cambridge Crystallographic Data Centre
#                                CCDC 
#
#######################################################################
#
# If this CIF has been generated from an entry in the Cambridge 
# Structural Database, then it will include bibliographic, chemical, 
# crystal, experimental, refinement or atomic coordinate data resulting 
# from the CCDC's data processing and validation procedures.
#
#######################################################################

data_MERPUV
_chemical_formula_moiety         'C25 H22 O2'
_chemical_name_systematic        
'Ethyl 4-(2-phenylethyl)phenanthrene-2-carboxylate'
_symmetry_cell_setting           monoclinic
_symmetry_space_group_name_H-M   'P 21/n'
_symmetry_Int_Tables_number      14
_space_group_name_Hall           '-P 2yn'
loop_
_symmetry_equiv_pos_site_id
_symmetry_equiv_pos_as_xyz
1 x,y,z
2 1/2-x,1/2+y,1/2-z
3 -x,-y,-z
4 1/2+x,1/2-y,1/2+z
_cell_length_a                   6.0057(6)
_cell_length_b                   12.2328(12)
_cell_length_c                   25.351(3)
_cell_angle_alpha                90
_cell_angle_beta                 90.591(5)
_cell_angle_gamma                90
_cell_volume                     1862.35
_exptl_crystal_colour            colorless
_exptl_crystal_description       prism
_chemical_melting_point          '92-93 deg.C'
_cell_formula_units_Z            4
loop_
_atom_site_label
_atom_site_type_symbol
_atom_site_fract_x
_atom_site_fract_y
_atom_site_fract_z
C1 C 0.4455(2) 0.39933(11) 0.39688(5)
H1 H 0.3634 0.4019 0.4287
C2 C 0.3755(2) 0.45976(11) 0.35439(5)
C3 C 0.5022(2) 0.45575(11) 0.30830(5)
H2 H 0.4566 0.4993 0.2791
C4 C 0.6902(2) 0.39170(11) 0.30322(5)
C5 C 0.7598(2) 0.32425(10) 0.34659(5)
C6 C 0.9507(2) 0.24885(11) 0.34742(5)
C7 C 1.0751(2) 0.21744(13) 0.30290(5)
H3 H 1.0308 0.2442 0.2692
C8 C 1.2567(2) 0.15002(13) 0.30622(6)
H4 H 1.3361 0.1322 0.2752
C9 C 1.3261(2) 0.10745(12) 0.35431(6)
H5 H 1.4546 0.0624 0.3567
C10 C 1.2059(2) 0.13165(11) 0.39831(5)
H6 H 1.2504 0.1014 0.4313
C11 C 1.0185(2) 0.20007(10) 0.39604(5)
C12 C 0.8923(2) 0.21835(11) 0.44276(5)
H7 H 0.9405 0.1870 0.4752
C13 C 0.7073(2) 0.27908(11) 0.44130(5)
H8 H 0.6209 0.2861 0.4723
C14 C 0.6363(2) 0.33378(10) 0.39419(5)
O1 O 0.11323(16) 0.58792(9) 0.31975(4)
O2 O 0.08101(15) 0.53250(8) 0.40354(3)
C15 C 0.1784(2) 0.53284(11) 0.35632(5)
C16 C -0.1152(2) 0.60112(11) 0.40780(5)
H9 H -0.2304 0.5774 0.3820
H10 H -0.0764 0.6782 0.4003
C17 C -0.2012(3) 0.59055(13) 0.46291(6)
H11 H -0.2339 0.5136 0.4703
H12 H -0.3375 0.6339 0.4664
H13 H -0.0884 0.6172 0.4880
C18 C 0.8026(2) 0.40294(11) 0.24997(5)
H14 H 0.9642 0.3893 0.2544
H15 H 0.7835 0.4788 0.2371
C19 C 0.7074(2) 0.32318(12) 0.20852(5)
H16 H 0.7408 0.2473 0.2196
H17 H 0.5435 0.3315 0.2067
C20 C 0.8031(2) 0.34290(11) 0.15451(5)
C21 C 1.0057(2) 0.29876(12) 0.13977(5)
H18 H 1.0867 0.2545 0.1641
C22 C 1.0919(2) 0.31818(13) 0.09018(6)
H19 H 1.2309 0.2872 0.0807
C23 C 0.9767(3) 0.38220(12) 0.05454(5)
H20 H 1.0355 0.3952 0.0205
C24 C 0.7760(3) 0.42720(12) 0.06856(5)
H21 H 0.6960 0.4715 0.0441
C25 C 0.6900(2) 0.40812(11) 0.11833(5)
H22 H 0.5518 0.4401 0.1277
loop_
_geom_bond_atom_site_label_1
_geom_bond_atom_site_label_2
_geom_bond_site_symmetry_1
_geom_bond_site_symmetry_2
C1 H1 1_555 1_555
C2 C1 1_555 1_555
C3 C2 1_555 1_555
H2 C3 1_555 1_555
C4 C3 1_555 1_555
C5 C4 1_555 1_555
C6 C5 1_555 1_555
C7 C6 1_555 1_555
H3 C7 1_555 1_555
C8 C7 1_555 1_555
H4 C8 1_555 1_555
C9 C8 1_555 1_555
H5 C9 1_555 1_555
C10 C9 1_555 1_555
H6 C10 1_555 1_555
C11 C6 1_555 1_555
C12 C11 1_555 1_555
H7 C12 1_555 1_555
C13 C12 1_555 1_555
H8 C13 1_555 1_555
C14 C1 1_555 1_555
O1 C15 1_555 1_555
O2 C15 1_555 1_555
C15 C2 1_555 1_555
C16 O2 1_555 1_555
H9 C16 1_555 1_555
H10 C16 1_555 1_555
C17 C16 1_555 1_555
H11 C17 1_555 1_555
H12 C17 1_555 1_555
H13 C17 1_555 1_555
C18 C4 1_555 1_555
H14 C18 1_555 1_555
H15 C18 1_555 1_555
C19 C18 1_555 1_555
H16 C19 1_555 1_555
H17 C19 1_555 1_555
C20 C19 1_555 1_555
C21 C20 1_555 1_555
H18 C21 1_555 1_555
C22 C21 1_555 1_555
H19 C22 1_555 1_555
C23 C22 1_555 1_555
H20 C23 1_555 1_555
C24 C23 1_555 1_555
H21 C24 1_555 1_555
C25 C20 1_555 1_555
H22 C25 1_555 1_555
C5 C14 1_555 1_555
C10 C11 1_555 1_555
C13 C14 1_555 1_555
C24 C25 1_555 1_555

#END
