
#######################################################################
#
#                 Cambridge Crystallographic Data Centre
#                                CCDC 
#
#######################################################################
#
# If this CIF has been generated from an entry in the Cambridge 
# Structural Database, then it will include bibliographic, chemical, 
# crystal, experimental, refinement or atomic coordinate data resulting 
# from the CCDC's data processing and validation procedures.
#
#######################################################################

data_MERPAA
_chemical_formula_moiety         'C1 H6 N3 1+,C7 H7 O3 S1 1-,C8 H10'
_chemical_name_systematic        
'Guanidinium (p-toluenesulfonate) (o-xylene) clathrate'
_symmetry_cell_setting           orthorhombic
_symmetry_space_group_name_H-M   'P 21 21 21'
_symmetry_Int_Tables_number      19
_space_group_name_Hall           'P 2ac 2ab'
loop_
_symmetry_equiv_pos_site_id
_symmetry_equiv_pos_as_xyz
1 x,y,z
2 1/2-x,-y,1/2+z
3 1/2+x,1/2-y,-z
4 -x,1/2+y,1/2-z
_cell_length_a                   7.5282(14)
_cell_length_b                   12.087(2)
_cell_length_c                   20.315(4)
_cell_angle_alpha                90
_cell_angle_beta                 90
_cell_angle_gamma                90
_cell_volume                     1848.53
_exptl_crystal_colour            colorless
_exptl_crystal_description       'flat block'
_cell_formula_units_Z            4
loop_
_atom_site_label
_atom_site_type_symbol
_atom_site_fract_x
_atom_site_fract_y
_atom_site_fract_z
S1 S 0.74720(9) 0.85692(4) 0.20121(2)
O1 O 0.7510(2) 0.74051(10) 0.21875(7)
C1 C 0.7274(3) 0.86356(15) 0.11481(10)
O2 O 0.9103(2) 0.91458(12) 0.21810(7)
C2 C 0.7874(3) 0.95626(17) 0.08168(11)
H5 H 0.8435 1.0146 0.1051
O3 O 0.5913(2) 0.91318(12) 0.22803(7)
C3 C 0.7651(4) 0.96353(19) 0.01432(12)
H8 H 0.8071 1.0271 -0.0083
C4 C 0.6828(3) 0.8798(2) -0.02075(13)
C5 C 0.6222(4) 0.7886(2) 0.01350(14)
H9 H 0.5641 0.7308 -0.0097
C6 C 0.6444(3) 0.77971(18) 0.08084(12)
H10 H 0.6025 0.7161 0.1035
C7 C 0.6617(4) 0.8883(3) -0.09434(13)
H11 H 0.5355 0.8832 -0.1058
H12 H 0.7267 0.8278 -0.1156
H13 H 0.7091 0.9594 -0.1095
N1 N 0.4036(2) 0.65034(18) 0.25711(9)
H1 H 0.4046 0.5794 0.2668
H2 H 0.5044 0.6864 0.2524
N2 N 0.2490(3) 0.80988(12) 0.23569(8)
H3 H 0.1472 0.8449 0.2312
H4 H 0.3496 0.8460 0.2310
N3 N 0.0993(2) 0.64878(18) 0.25653(9)
H6 H 0.1001 0.5778 0.2662
H7 H -0.0023 0.6837 0.2515
C8 C 0.2506(3) 0.70277(15) 0.24954(9)
C9 C 0.6368(3) 0.32173(19) -0.02797(12)
C10 C 0.7178(3) 0.4245(2) -0.03452(12)
C11 C 0.7427(5) 0.48920(18) 0.02114(14)
H14 H 0.7987 0.5593 0.0169
C12 C 0.6887(4) 0.4546(3) 0.08182(16)
H15 H 0.7057 0.5008 0.1191
C13 C 0.6104(4) 0.3539(3) 0.08881(15)
H16 H 0.5737 0.3292 0.1311
C14 C 0.5845(3) 0.2877(2) 0.03435(14)
H17 H 0.5298 0.2175 0.0396
C15 C 0.6039(4) 0.2470(2) -0.08615(14)
H18 H 0.5292 0.2855 -0.1184
H19 H 0.5435 0.1796 -0.0713
H20 H 0.7175 0.2273 -0.1066
C16 C 0.7781(4) 0.4657(2) -0.10114(14)
H21 H 0.8583 0.4113 -0.1210
H22 H 0.8405 0.5363 -0.0959
H23 H 0.6745 0.4762 -0.1297
loop_
_geom_bond_atom_site_label_1
_geom_bond_atom_site_label_2
_geom_bond_site_symmetry_1
_geom_bond_site_symmetry_2
S1 O1 1_555 1_555
N1 H1 1_555 1_555
H2 N1 1_555 1_555
C1 S1 1_555 1_555
O2 S1 1_555 1_555
N2 H3 1_555 1_555
H4 N2 1_555 1_555
C2 C1 1_555 1_555
H5 C2 1_555 1_555
O3 S1 1_555 1_555
N3 H6 1_555 1_555
H7 N3 1_555 1_555
C3 C2 1_555 1_555
H8 C3 1_555 1_555
C4 C3 1_555 1_555
C5 C4 1_555 1_555
H9 C5 1_555 1_555
C6 C1 1_555 1_555
H10 C6 1_555 1_555
C7 C4 1_555 1_555
H11 C7 1_555 1_555
H12 C7 1_555 1_555
H13 C7 1_555 1_555
C8 N1 1_555 1_555
C9 C10 1_555 1_555
C10 C11 1_555 1_555
C11 H14 1_555 1_555
C12 C11 1_555 1_555
H15 C12 1_555 1_555
C13 C12 1_555 1_555
H16 C13 1_555 1_555
C14 C9 1_555 1_555
H17 C14 1_555 1_555
C15 C9 1_555 1_555
H18 C15 1_555 1_555
H19 C15 1_555 1_555
H20 C15 1_555 1_555
C16 C10 1_555 1_555
H21 C16 1_555 1_555
H22 C16 1_555 1_555
H23 C16 1_555 1_555
N2 C8 1_555 1_555
N3 C8 1_555 1_555
C5 C6 1_555 1_555
C13 C14 1_555 1_555

#END
