
#######################################################################
#
#                 Cambridge Crystallographic Data Centre
#                                CCDC 
#
#######################################################################
#
# If this CIF has been generated from an entry in the Cambridge 
# Structural Database, then it will include bibliographic, chemical, 
# crystal, experimental, refinement or atomic coordinate data resulting 
# from the CCDC's data processing and validation procedures.
#
#######################################################################

data_MERQAE
_chemical_formula_moiety         'C28 H33 N4 O2 1-,C16 H36 N1 1+,2(C2 H3 N1)'
_chemical_name_systematic        
'tetra-n-butylammonium 5,10,10,15,15,20,20-heptamethylalix[4]pyrrole-5-carboxylate acetonitrile solvate'
_symmetry_cell_setting           triclinic
_symmetry_space_group_name_H-M   'P -1'
_symmetry_Int_Tables_number      2
_space_group_name_Hall           '-P 1'
loop_
_symmetry_equiv_pos_site_id
_symmetry_equiv_pos_as_xyz
1 x,y,z
2 -x,-y,-z
_cell_length_a                   12.0322(10)
_cell_length_b                   13.1344(10)
_cell_length_c                   16.6364(13)
_cell_angle_alpha                70.528(2)
_cell_angle_beta                 69.876(2)
_cell_angle_gamma                85.758(2)
_cell_volume                     2324.98
_exptl_crystal_colour            colorless
_exptl_crystal_description       prism
_cell_formula_units_Z            2
_chemical_properties_physical    Moisture-sensitive
_exptl_crystal_recrystallization_method 'acetonitrile and diethyl ether'
loop_
_atom_site_label
_atom_site_type_symbol
_atom_site_fract_x
_atom_site_fract_y
_atom_site_fract_z
C1 C -0.04975(13) 0.30043(11) 0.49494(10)
C2 C 0.03240(14) 0.38466(12) 0.44594(11)
H1 H 0.0185 0.4588 0.4386
C3 C 0.14173(14) 0.34174(12) 0.40807(10)
H2 H 0.2142 0.3820 0.3708
C4 C 0.12459(13) 0.23223(12) 0.43454(10)
C5 C 0.21015(13) 0.14673(12) 0.41192(11)
C6 C -0.21350(15) 0.05074(13) 0.86396(11)
C7 C -0.21441(14) 0.15724(12) 0.79067(10)
C8 C -0.22666(16) 0.26084(14) 0.79279(11)
H3 H -0.2396 0.2822 0.8444
C9 C -0.21674(15) 0.33051(13) 0.70469(11)
H4 H -0.2216 0.4069 0.6867
C10 C -0.19896(13) 0.26843(12) 0.64986(10)
C11 C -0.18040(13) 0.30003(12) 0.54938(10)
C12 C 0.32192(14) 0.20232(13) 0.33311(11)
H5 H 0.3615 0.2485 0.3518
H6 H 0.2998 0.2466 0.2810
H7 H 0.3758 0.1474 0.3162
C13 C -0.2577(2) 0.06922(18) 0.95588(12)
H8 H -0.2570 0.0013 1.0038
H9 H -0.3387 0.0943 0.9675
H10 H -0.2058 0.1239 0.9551
C14 C -0.29707(19) -0.03408(16) 0.86707(16)
H11 H -0.2724 -0.0447 0.8079
H12 H -0.3782 -0.0092 0.8817
H13 H -0.2941 -0.1026 0.9136
C15 C -0.22310(15) 0.41448(13) 0.51728(11)
H14 H -0.1798 0.4647 0.5295
H15 H -0.3081 0.4153 0.5497
H16 H -0.2086 0.4367 0.4520
C16 C -0.25406(14) 0.22340(14) 0.53263(11)
H17 H -0.2430 0.2461 0.4679
H18 H -0.3380 0.2258 0.5672
H19 H -0.2281 0.1495 0.5521
N1 N 0.00780(10) 0.20791(9) 0.48804(8)
H20 H -0.0255 0.1422 0.5142
N2 N -0.19748(11) 0.16298(10) 0.70311(8)
H21 H -0.1872 0.1070 0.6839
O1 O 0.1973(2) 0.04543(19) 0.32215(16)
O2 O 0.06518(18) 0.00597(16) 0.46178(14)
C17 C 0.1545(4) 0.0573(4) 0.3983(3)
N3 N 0.1802(4) 0.0138(4) 0.5796(3)
H22 H 0.1052 -0.0023 0.5917
N4 N -0.0223(5) -0.0414(6) 0.7905(5)
H23 H -0.0516 -0.0653 0.7581
C18 C 0.2529(5) 0.0844(4) 0.4990(3)
C19 C 0.3612(5) 0.0868(4) 0.5074(3)
H24 H 0.4295 0.1284 0.4626
C20 C 0.3540(3) 0.0164(3) 0.5948(3)
H25 H 0.4168 0.0023 0.6189
C21 C 0.2422(3) -0.0274(3) 0.6381(2)
C22 C 0.1849(3) -0.1086(2) 0.7330(2)
C23 C 0.0923(4) -0.0527(3) 0.7905(3)
C24 C 0.1013(4) -0.0057(4) 0.8497(3)
H26 H 0.1703 -0.0020 0.8642
C25 C -0.0089(6) 0.0365(5) 0.8862(5)
H27 H -0.0268 0.0743 0.9286
C26 C -0.0849(6) 0.0131(7) 0.8492(6)
C27 C 0.2817(3) -0.1458(3) 0.7754(2)
H28 H 0.3180 -0.0830 0.7779
H29 H 0.3424 -0.1813 0.7385
H30 H 0.2468 -0.1967 0.8369
C28 C 0.1342(3) -0.2079(3) 0.7273(2)
H31 H 0.0992 -0.2596 0.7885
H32 H 0.1977 -0.2417 0.6908
H33 H 0.0732 -0.1862 0.6990
N5 N 0.61473(13) 0.56057(11) 0.17493(9)
C29 C 0.55220(18) 0.50394(16) 0.13563(13)
H34 H 0.4660 0.5014 0.1688
H35 H 0.5657 0.5490 0.0718
C30 C 0.58709(16) 0.39050(15) 0.13739(12)
H36 H 0.5648 0.3416 0.2009
H37 H 0.6740 0.3897 0.1086
C31 C 0.52484(19) 0.35109(19) 0.08669(14)
H38 H 0.4382 0.3545 0.1149
H39 H 0.5482 0.4005 0.0232
C32 C 0.5528(2) 0.2381(2) 0.08647(18)
H40 H 0.6383 0.2344 0.0573
H41 H 0.5103 0.2177 0.0530
H42 H 0.5282 0.1884 0.1490
C33 C 0.61704(14) 0.48900(12) 0.26713(10)
H43 H 0.6587 0.4230 0.2600
H44 H 0.6647 0.5277 0.2870
C34 C 0.49852(14) 0.45476(13) 0.34166(11)
H45 H 0.4454 0.4238 0.3208
H46 H 0.4610 0.5182 0.3578
C35 C 0.51736(15) 0.37050(14) 0.42426(11)
H47 H 0.5437 0.3035 0.4097
H48 H 0.5813 0.3977 0.4376
C36 C 0.40699(17) 0.34354(15) 0.50811(12)
H49 H 0.3857 0.4074 0.5272
H50 H 0.4224 0.2845 0.5570
H51 H 0.3416 0.3213 0.4943
C37 C 0.54732(18) 0.66175(15) 0.18129(12)
H52 H 0.5475 0.7053 0.1199
H53 H 0.4639 0.6394 0.2198
C38 C 0.59262(18) 0.73328(15) 0.21843(14)
H54 H 0.6776 0.7531 0.1835
H55 H 0.5845 0.6943 0.2825
C39 C 0.5217(2) 0.83533(16) 0.21183(15)
H56 H 0.5338 0.8753 0.1472
H57 H 0.4363 0.8141 0.2428
C40 C 0.5552(2) 0.90890(17) 0.2527(2)
H58 H 0.5388 0.8714 0.3176
H59 H 0.5088 0.9738 0.2444
H60 H 0.6398 0.9297 0.2228
C41 C 0.74403(16) 0.58839(14) 0.11593(11)
H61 H 0.7844 0.6110 0.1504
H62 H 0.7804 0.5216 0.1059
C42 C 0.7697(2) 0.6756(2) 0.02415(14)
H63 H 0.7387 0.7447 0.0325
H64 H 0.7291 0.6554 -0.0114
C43 C 0.9026(3) 0.6899(2) -0.02720(16)
H65 H 0.9315 0.6208 -0.0366
H66 H 0.9164 0.7448 -0.0877
C44 C 0.9750(4) 0.7237(3) 0.0187(3)
H67 H 0.9468 0.7917 0.0290
H68 H 1.0586 0.7338 -0.0200
H69 H 0.9667 0.6675 0.0769
N6 N 0.83523(16) 0.63801(15) 0.28098(12)
C45 C 0.86158(15) 0.69824(14) 0.30764(11)
C46 C 0.89490(17) 0.77414(15) 0.34209(12)
H70 H 0.8333 0.8267 0.3495
H71 H 0.9701 0.8120 0.2993
H72 H 0.9039 0.7353 0.4009
N7 N -0.2635(4) 0.4977(4) 0.8836(4)
C47 C -0.0526(4) 0.4944(4) 0.7869(3)
H73 H -0.0533 0.4216 0.7829
H74 H 0.0158 0.5046 0.8030
H75 H -0.0471 0.5482 0.7282
C48 C -0.1581(7) 0.5282(9) 0.8310(5)
O3? O 0.1492(2) -0.0093(2) 0.38498(17)
O4? O 0.1105(2) 0.1496(2) 0.30153(18)
C49? C 0.1493(3) 0.0910(3) 0.3614(3)
N8? N 0.1553(4) 0.0076(4) 0.5603(3)
H76? H 0.0799 0.0017 0.5674
N9? N -0.0480(5) -0.0400(6) 0.7821(5)
H77? H -0.0857 -0.0499 0.7482
C50? C 0.2393(5) 0.0756(4) 0.4848(3)
C51? C 0.3438(5) 0.0611(4) 0.5005(3)
H78? H 0.4176 0.0972 0.4602
C52? C 0.3237(4) -0.0173(3) 0.5876(3)
H79? H 0.3814 -0.0427 0.6160
C53? C 0.2071(3) -0.0495(3) 0.6228(2)
C54? C 0.1361(3) -0.1311(3) 0.7140(2)
C55? C 0.0644(4) -0.0729(2) 0.7791(3)
C56? C 0.0917(4) -0.0437(4) 0.8412(4)
H80? H 0.1637 -0.0560 0.8537
C57? C -0.0070(6) 0.0086(5) 0.8841(5)
H81? H -0.0127 0.0371 0.9309
C58? C -0.0925(6) 0.0108(7) 0.8466(6)
C59? C 0.2237(3) -0.2008(3) 0.7547(2)
H82? H 0.2767 -0.1546 0.7625
H83? H 0.2706 -0.2395 0.7139
H84? H 0.1801 -0.2532 0.8137
C60? C 0.0555(3) -0.2058(2) 0.7025(2)
H85? H 0.0112 -0.2570 0.7619
H86? H 0.1037 -0.2456 0.6632
H87? H -0.0001 -0.1626 0.6750
C61? C -0.1656(6) 0.5076(8) 0.8587(5)
N10? N -0.0545(4) 0.5669(4) 0.7723(3)
C62? C -0.2326(6) 0.5131(6) 0.9195(4)
H88? H -0.1891 0.4805 0.9613
H89? H -0.3005 0.4652 0.9340
H90? H -0.2608 0.5831 0.9254
loop_
_geom_bond_atom_site_label_1
_geom_bond_atom_site_label_2
_geom_bond_site_symmetry_1
_geom_bond_site_symmetry_2
C1 C2 1_555 1_555
C2 H1 1_555 1_555
C3 C2 1_555 1_555
H2 C3 1_555 1_555
C4 C3 1_555 1_555
C5 C4 1_555 1_555
C6 C7 1_555 1_555
C7 C8 1_555 1_555
C8 H3 1_555 1_555
C9 C8 1_555 1_555
H4 C9 1_555 1_555
C10 C9 1_555 1_555
C11 C1 1_555 1_555
C12 C5 1_555 1_555
H5 C12 1_555 1_555
H6 C12 1_555 1_555
H7 C12 1_555 1_555
C13 C6 1_555 1_555
H8 C13 1_555 1_555
H9 C13 1_555 1_555
H10 C13 1_555 1_555
C14 C6 1_555 1_555
H11 C14 1_555 1_555
H12 C14 1_555 1_555
H13 C14 1_555 1_555
C15 C11 1_555 1_555
H14 C15 1_555 1_555
H15 C15 1_555 1_555
H16 C15 1_555 1_555
C16 C11 1_555 1_555
H17 C16 1_555 1_555
H18 C16 1_555 1_555
H19 C16 1_555 1_555
N1 C1 1_555 1_555
H20 N1 1_555 1_555
N2 C7 1_555 1_555
H21 N2 1_555 1_555
O1 C17 1_555 1_555
O2 C17 1_555 1_555
C17 C5 1_555 1_555
N3 H22 1_555 1_555
N4 H23 1_555 1_555
C18 C5 1_555 1_555
C19 C18 1_555 1_555
H24 C19 1_555 1_555
C20 C19 1_555 1_555
H25 C20 1_555 1_555
C21 N3 1_555 1_555
C22 C21 1_555 1_555
C23 N4 1_555 1_555
C24 C23 1_555 1_555
H26 C24 1_555 1_555
C25 C24 1_555 1_555
H27 C25 1_555 1_555
C26 C6 1_555 1_555
C27 C22 1_555 1_555
H28 C27 1_555 1_555
H29 C27 1_555 1_555
H30 C27 1_555 1_555
C28 C22 1_555 1_555
H31 C28 1_555 1_555
H32 C28 1_555 1_555
H33 C28 1_555 1_555
N5 C29 1_555 1_555
C29 H34 1_555 1_555
H35 C29 1_555 1_555
C30 C29 1_555 1_555
H36 C30 1_555 1_555
H37 C30 1_555 1_555
C31 C30 1_555 1_555
H38 C31 1_555 1_555
H39 C31 1_555 1_555
C32 C31 1_555 1_555
H40 C32 1_555 1_555
H41 C32 1_555 1_555
H42 C32 1_555 1_555
C33 N5 1_555 1_555
H43 C33 1_555 1_555
H44 C33 1_555 1_555
C34 C33 1_555 1_555
H45 C34 1_555 1_555
H46 C34 1_555 1_555
C35 C34 1_555 1_555
H47 C35 1_555 1_555
H48 C35 1_555 1_555
C36 C35 1_555 1_555
H49 C36 1_555 1_555
H50 C36 1_555 1_555
H51 C36 1_555 1_555
C37 N5 1_555 1_555
H52 C37 1_555 1_555
H53 C37 1_555 1_555
C38 C37 1_555 1_555
H54 C38 1_555 1_555
H55 C38 1_555 1_555
C39 C38 1_555 1_555
H56 C39 1_555 1_555
H57 C39 1_555 1_555
C40 C39 1_555 1_555
H58 C40 1_555 1_555
H59 C40 1_555 1_555
H60 C40 1_555 1_555
C41 N5 1_555 1_555
H61 C41 1_555 1_555
H62 C41 1_555 1_555
C42 C41 1_555 1_555
H63 C42 1_555 1_555
H64 C42 1_555 1_555
C43 C42 1_555 1_555
H65 C43 1_555 1_555
H66 C43 1_555 1_555
C44 C43 1_555 1_555
H67 C44 1_555 1_555
H68 C44 1_555 1_555
H69 C44 1_555 1_555
N6 C45 1_555 1_555
C45 C46 1_555 1_555
C46 H70 1_555 1_555
H71 C46 1_555 1_555
H72 C46 1_555 1_555
N7 C48 1_555 1_555
C47 H73 1_555 1_555
H74 C47 1_555 1_555
H75 C47 1_555 1_555
C48 C47 1_555 1_555
C4 N1 1_555 1_555
C10 C11 1_555 1_555
C10 N2 1_555 1_555
N3 C18 1_555 1_555
N4 C26 1_555 1_555
C20 C21 1_555 1_555
C22 C23 1_555 1_555
C25 C26 1_555 1_555

#END
