
#######################################################################
#
#                 Cambridge Crystallographic Data Centre
#                                CCDC 
#
#######################################################################
#
# If this CIF has been generated from an entry in the Cambridge 
# Structural Database, then it will include bibliographic, chemical, 
# crystal, experimental, refinement or atomic coordinate data resulting 
# from the CCDC's data processing and validation procedures.
#
#######################################################################

data_MERSEH
_chemical_formula_moiety         '2(C1 H6 N3 1+),C12 H8 O6 S2 2-,C12 H12'
_chemical_name_systematic        
"bis(Guanidinium) 4,4'-biphenyldisulfonate (1,5-dimethylnaphthalene) clathrate"
_symmetry_cell_setting           triclinic
_symmetry_space_group_name_H-M   'P -1'
_symmetry_Int_Tables_number      2
_space_group_name_Hall           '-P 1'
loop_
_symmetry_equiv_pos_site_id
_symmetry_equiv_pos_as_xyz
1 x,y,z
2 -x,-y,-z
_cell_length_a                   7.3080(4)
_cell_length_b                   7.4666(5)
_cell_length_c                   15.0563(9)
_cell_angle_alpha                90.319(1)
_cell_angle_beta                 97.553(1)
_cell_angle_gamma                118.995(1)
_cell_volume                     710.076
_exptl_crystal_colour            colorless
_exptl_crystal_description       'hexagonal plate'
_cell_formula_units_Z            1
loop_
_atom_site_label
_atom_site_type_symbol
_atom_site_fract_x
_atom_site_fract_y
_atom_site_fract_z
S1 S 0.34752(12) -0.08203(13) 0.14266(5)
O1 O 0.4415(3) 0.1260(3) 0.11307(15)
O2 O 0.4477(4) -0.1959(4) 0.11484(14)
O3 O 0.1178(3) -0.1933(4) 0.11920(14)
C1 C 0.3987(5) -0.0552(5) 0.2617(2)
C2 C 0.2584(6) -0.0405(7) 0.3099(2)
H1 H 0.1336(6) -0.0453(7) 0.2794(2)
C3 C 0.2995(6) -0.0186(7) 0.4033(2)
H2 H 0.2010(6) -0.0094(7) 0.4358(2)
C4 C 0.4802(5) -0.0099(5) 0.4500(2)
C5 C 0.6216(6) -0.0171(8) 0.4001(3)
H3 H 0.7499(6) -0.0057(8) 0.4303(3)
C6 C 0.5823(6) -0.0406(7) 0.3068(2)
H4 H 0.6822(6) -0.0466(7) 0.2742(2)
C4A C 0.5198(5) 0.0099(5) 0.5500(2)
C3A C 0.7005(6) 0.0186(7) 0.5967(2)
C2A C 0.7416(6) 0.0405(7) 0.6901(2)
C1A C 0.6013(5) 0.0552(5) 0.7383(2)
S1A S 0.65248(12) 0.08203(13) 0.85734(5)
O1A O 0.5585(3) -0.1260(3) 0.88693(15)
O2A O 0.5523(4) 0.1959(4) 0.88516(14)
O3A O 0.8822(3) 0.1933(4) 0.88080(14)
C6A C 0.4177(6) 0.0406(7) 0.6932(2)
C5A C 0.3784(6) 0.0171(8) 0.5999(3)
H3A H 0.2501(6) 0.0057(8) 0.5697(3)
H4A H 0.3178(6) 0.0466(7) 0.7258(2)
H1A H 0.8664(6) 0.0453(7) 0.7206(2)
H2A H 0.7990(6) 0.0094(7) 0.5642(2)
N1 N 0.7950(4) 0.6486(5) 0.9073(2)
H5 H 0.7240(4) 0.7159(5) 0.9071(2)
H6 H 0.7286(4) 0.5140(5) 0.9082(2)
N2 N 1.1071(5) 0.6477(5) 0.9065(2)
H7 H 1.2445(5) 0.7140(5) 0.9057(2)
H8 H 1.0398(5) 0.5131(5) 0.9074(2)
N3 N 1.1006(4) 0.9517(4) 0.9050(2)
H9 H 1.2379(4) 1.0195(4) 0.9042(2)
H10 H 1.0290(4) 1.0184(4) 0.9049(2)
C7 C 1.0019(5) 0.7499(5) 0.9063(2)
C8 C 0.2074(80) 0.4278(86) 0.4997(40)
H11 H 0.2973(80) 0.3983(86) 0.5411(40)
C9 C 0.2161(24) 0.4172(34) 0.4043(15)
H12 H 0.3131(24) 0.3843(34) 0.3823(15)
C10 C 0.0763(11) 0.4570(11) 0.3455(5)
H13 H 0.0809(11) 0.4503(11) 0.2828(5)
C11 C -0.0651(11) 0.5046(11) 0.3739(5)
C12 C 0.0696(11) 0.4805(11) 0.5303(5)
C13 C -0.2139(15) 0.5420(15) 0.3088(5)
H14 H -0.2074(15) 0.6709(15) 0.3279(5)
H15 H -0.3585(15) 0.4284(15) 0.3072(5)
H16 H -0.1735(15) 0.5511(15) 0.2488(5)
C12A C -0.0696(11) 0.5195(11) 0.4697(5)
C8A C -0.2074(80) 0.5722(86) 0.5003(40)
H11A H -0.2973(80) 0.6017(86) 0.4589(40)
C9A C -0.2161(24) 0.5828(34) 0.5957(15)
H12A H -0.3131(24) 0.6157(34) 0.6177(15)
C10A C -0.0763(11) 0.5430(11) 0.6545(5)
H13A H -0.0809(11) 0.5497(11) 0.7172(5)
C11A C 0.0651(11) 0.4954(11) 0.6261(5)
C13A C 0.2139(15) 0.4580(15) 0.6912(5)
H14A H 0.2074(15) 0.3291(15) 0.6721(5)
H15A H 0.3585(15) 0.5716(15) 0.6928(5)
H16A H 0.1735(15) 0.4489(15) 0.7512(5)
C14? C 0.2211(82) 0.4272(88) 0.4969(41)
H17? H 0.1247(82) 0.3982(88) 0.5384(41)
C15? C 0.1471(24) 0.4127(34) 0.4094(15)
H18? H 0.0036(24) 0.3765(34) 0.3898(15)
C16? C 0.2881(14) 0.4526(13) 0.3474(6)
H19? H 0.2378(14) 0.4431(13) 0.2851(6)
C17? C 0.4952(12) 0.5048(11) 0.3740(5)
C18? C 0.5695(12) 0.5179(11) 0.4684(5)
C19? C 0.6371(15) 0.5391(18) 0.3062(6)
H20? H 0.6642(15) 0.4232(18) 0.3022(6)
H21? H 0.7714(15) 0.6661(18) 0.3242(6)
H22? H 0.5695(15) 0.5507(18) 0.2475(6)
loop_
_geom_bond_atom_site_label_1
_geom_bond_atom_site_label_2
_geom_bond_site_symmetry_1
_geom_bond_site_symmetry_2
S1 O1 1_555 1_555
O2 S1 1_555 1_555
O3 S1 1_555 1_555
C1 S1 1_555 1_555
C2 C1 1_555 1_555
H1 C2 1_555 1_555
C3 C2 1_555 1_555
H2 C3 1_555 1_555
C4 C3 1_555 1_555
C5 C4 1_555 1_555
H3 C5 1_555 1_555
C6 C1 1_555 1_555
H4 C6 1_555 1_555
N1 H5 1_555 1_555
H6 N1 1_555 1_555
N2 H7 1_555 1_555
H8 N2 1_555 1_555
N3 H9 1_555 1_555
H10 N3 1_555 1_555
C7 N1 1_555 1_555
C8 H11 1_555 1_555
C9 C8 1_555 1_555
H12 C9 1_555 1_555
C10 C9 1_555 1_555
H13 C10 1_555 1_555
C11 C10 1_555 1_555
C12 C8 1_555 1_555
C13 C11 1_555 1_555
H14 C13 1_555 1_555
H15 C13 1_555 1_555
H16 C13 1_555 1_555
C4A C4 1_555 1_555
C3A C4A 1_555 1_555
C2A C3A 1_555 1_555
C1A C2A 1_555 1_555
S1A C1A 1_555 1_555
O1A S1A 1_555 1_555
O2A S1A 1_555 1_555
O3A S1A 1_555 1_555
C6A C1A 1_555 1_555
C5A C4A 1_555 1_555
H3A C5A 1_555 1_555
H4A C6A 1_555 1_555
H1A C2A 1_555 1_555
H2A C3A 1_555 1_555
C12A C11 1_555 1_555
C8A C12A 1_555 1_555
H11A C8A 1_555 1_555
C9A C8A 1_555 1_555
H12A C9A 1_555 1_555
C10A C9A 1_555 1_555
H13A C10A 1_555 1_555
C11A C12 1_555 1_555
C13A C11A 1_555 1_555
H14A C13A 1_555 1_555
H15A C13A 1_555 1_555
H16A C13A 1_555 1_555
C5 C6 1_555 1_555
N2 C7 1_555 1_555
N3 C7 1_555 1_555
C12 C12A 1_555 1_555
C6A C5A 1_555 1_555
C10A C11A 1_555 1_555

#END
