
#######################################################################
#
#                 Cambridge Crystallographic Data Centre
#                                CCDC 
#
#######################################################################
#
# If this CIF has been generated from an entry in the Cambridge 
# Structural Database, then it will include bibliographic, chemical, 
# crystal, experimental, refinement or atomic coordinate data resulting 
# from the CCDC's data processing and validation procedures.
#
#######################################################################

data_MERSAD
_chemical_formula_moiety         '2(C1 H6 N3 1+),C12 H8 O6 S2 2-,C12 H12'
_chemical_name_systematic        
"bis(Guanidinium) 4,4'-biphenyldisulfonate (1,2-dimethylnaphthalene) clathrate"
_symmetry_cell_setting           triclinic
_symmetry_space_group_name_H-M   'P -1'
_symmetry_Int_Tables_number      2
_space_group_name_Hall           '-P 1'
loop_
_symmetry_equiv_pos_site_id
_symmetry_equiv_pos_as_xyz
1 x,y,z
2 -x,-y,-z
_cell_length_a                   7.2214(10)
_cell_length_b                   7.5155(10)
_cell_length_c                   14.9226(19)
_cell_angle_alpha                88.007(2)
_cell_angle_beta                 82.683(2)
_cell_angle_gamma                61.762(2)
_cell_volume                     707.39
_exptl_crystal_colour            colorless
_exptl_crystal_description       'hexagonal plate'
_cell_formula_units_Z            1
loop_
_atom_site_label
_atom_site_type_symbol
_atom_site_fract_x
_atom_site_fract_y
_atom_site_fract_z
N1 N 1.1138(5) 0.3368(5) 0.5952(2)
H1 H 1.0475 0.4697 0.5960
H2 H 1.2522 0.2709 0.5948
N2 N 0.7974(5) 0.3342(5) 0.5953(2)
H3 H 0.7307 0.4672 0.5961
H4 H 0.7256 0.2668 0.5949
N3 N 1.1051(5) 0.0354(5) 0.5948(2)
H6 H 1.0330 -0.0318 0.5954
H7 H 1.2435 -0.0302 0.5944
C7 C 1.0052(6) 0.2357(6) 0.5946(2)
S1 S 0.66238(14) 0.89173(13) 0.64234(6)
O1 O 0.8926(4) 0.7831(4) 0.62074(17)
C1 C 0.6097(6) 0.9249(5) 0.7617(3)
O2 O 0.5708(4) 1.0947(4) 0.60677(18)
C2 C 0.7531(7) 0.9374(8) 0.8099(3)
H5 H 0.8825 0.9251 0.7794
O3 O 0.5594(4) 0.7778(4) 0.61735(18)
C3 C 0.7098(7) 0.9678(8) 0.9027(3)
H8 H 0.8102 0.9771 0.9350
C4 C 0.5221(6) 0.9853(5) 0.9499(3)
C5 C 0.3822(8) 0.9696(8) 0.8991(3)
H9 H 0.2531 0.9800 0.9291
C6 C 0.4240(8) 0.9395(8) 0.8069(3)
H10 H 0.3249 0.9288 0.7743
C4A C 0.4779(6) 1.0147(5) 1.0501(3)
C3A C 0.2902(7) 1.0322(8) 1.0973(3)
C2A C 0.2469(7) 1.0626(8) 1.1901(3)
C1A C 0.3903(6) 1.0751(5) 1.2383(3)
S1A S 0.33762(14) 1.10827(13) 1.35766(6)
O1A O 0.1074(4) 1.2169(4) 1.37926(17)
O2A O 0.4292(4) 0.9053(4) 1.39323(18)
O3A O 0.4406(4) 1.2222(4) 1.38265(18)
C6A C 0.5760(8) 1.0605(8) 1.1931(3)
C5A C 0.6178(8) 1.0304(8) 1.1009(3)
H9A H 0.7469 1.0200 1.0709
H10A H 0.6751 1.0712 1.2257
H5A H 0.1175 1.0749 1.2206
H8A H 0.1898 1.0229 1.0650
C8? C 0.3166(19) 0.4776(11) 0.7962(7)
C9? C 0.345(2) 0.5220(16) 0.8780(9)
C10? C 0.2305(10) 0.5678(8) 0.9610(5)
C11? C 0.070(3) 0.524(4) 0.996(2)
C12? C -0.0128(19) 0.5515(16) 1.0811(8)
C13? C 0.585(2) 0.4511(15) 0.9199(9)
C14? C 0.1886(17) 0.6042(15) 1.0387(9)
C15? C 0.201(2) 0.5223(16) 0.8828(9)
C16? C 0.011(5) 0.596(5) 1.165(2)
C17? C 0.415(3) 0.515(3) 1.0039(14)
C18? C 0.771(5) 0.388(5) 0.841(2)
C19? C 0.593(5) 0.417(4) 0.8429(19)
loop_
_geom_bond_atom_site_label_1
_geom_bond_atom_site_label_2
_geom_bond_site_symmetry_1
_geom_bond_site_symmetry_2
S1 O1 1_555 1_555
N1 H1 1_555 1_555
H2 N1 1_555 1_555
C1 S1 1_555 1_555
O2 S1 1_555 1_555
N2 H3 1_555 1_555
H4 N2 1_555 1_555
C2 C1 1_555 1_555
H5 C2 1_555 1_555
O3 S1 1_555 1_555
N3 H6 1_555 1_555
H7 N3 1_555 1_555
C3 C2 1_555 1_555
H8 C3 1_555 1_555
C4 C3 1_555 1_555
C5 C4 1_555 1_555
H9 C5 1_555 1_555
C6 C1 1_555 1_555
H10 C6 1_555 1_555
C7 N1 1_555 1_555
C4A C4 1_555 1_555
C3A C4A 1_555 1_555
C2A C3A 1_555 1_555
C1A C2A 1_555 1_555
S1A C1A 1_555 1_555
O1A S1A 1_555 1_555
O2A S1A 1_555 1_555
O3A S1A 1_555 1_555
C6A C1A 1_555 1_555
C5A C4A 1_555 1_555
H9A C5A 1_555 1_555
H10A C6A 1_555 1_555
H5A C2A 1_555 1_555
H8A C3A 1_555 1_555
N2 C7 1_555 1_555
N3 C7 1_555 1_555
C5 C6 1_555 1_555
C6A C5A 1_555 1_555

#END
