
#######################################################################
#
#                 Cambridge Crystallographic Data Centre
#                                CCDC 
#
#######################################################################
#
# If this CIF has been generated from an entry in the Cambridge 
# Structural Database, then it will include bibliographic, chemical, 
# crystal, experimental, refinement or atomic coordinate data resulting 
# from the CCDC's data processing and validation procedures.
#
#######################################################################

data_MERSUX01
_chemical_formula_moiety         '2(C1 H6 N3 1+),C12 H8 O6 S2 2-,0.75(C12 H12)'
_chemical_name_systematic        
"bis(Guanidinium) (4,4'-biphenyldisulfonate)(1,7-dimethylnaphthalene) clathrate"
_symmetry_cell_setting           triclinic
_symmetry_space_group_name_H-M   'P -1'
_symmetry_Int_Tables_number      2
_space_group_name_Hall           '-P 1'
loop_
_symmetry_equiv_pos_site_id
_symmetry_equiv_pos_as_xyz
1 x,y,z
2 -x,-y,-z
_cell_length_a                   6.2313(8)
_cell_length_b                   7.1774(10)
_cell_length_c                   14.736(2)
_cell_angle_alpha                78.793(2)
_cell_angle_beta                 89.763(2)
_cell_angle_gamma                86.279(2)
_cell_volume                     645.106
_exptl_crystal_colour            colorless
_exptl_crystal_description       plate
_cell_formula_units_Z            1
loop_
_atom_site_label
_atom_site_type_symbol
_atom_site_fract_x
_atom_site_fract_y
_atom_site_fract_z
N1 N 0.1699(4) 1.2600(4) 0.9032(3)
H1 H 0.2466 1.3594 0.9013
H2 H 0.2343 1.1475 0.9024
N2 N -0.1559(4) 1.1292(3) 0.9082(2)
H3 H -0.0912 1.0174 0.9062
H4 H -0.2970 1.1419 0.9109
N3 N -0.1370(4) 1.4496(3) 0.90833(19)
H5 H -0.0601 1.5488 0.9064
H6 H -0.2781 1.4628 0.9110
C3 C -0.0399(5) 1.2795(4) 0.9072(2)
C12 C 0.8241(14) 1.5898(10) 0.3668(3)
C13 C 0.9890(17) 1.6554(13) 0.3077(4)
C14 C 1.1914(16) 1.6720(15) 0.3434(6)
C15 C 1.2289(12) 1.6231(14) 0.4383(6)
C16 C 1.0639(9) 1.5576(10) 0.4974(4)
C17 C 0.8615(10) 1.5410(7) 0.4616(3)
C18 C 1.3034(9) 1.5246(7) 0.4793(4)
C19 C 1.2660(11) 1.5735(8) 0.3845(4)
C20 C 1.0636(13) 1.5568(9) 0.3487(4)
C21 C 0.8986(10) 1.4913(11) 0.4078(5)
C22 C 0.5811(16) 1.5728(13) 0.3327(5)
C23 C 1.3853(16) 1.6682(11) 0.3096(5)
C16A C 0.9361(9) 1.4424(10) 0.5026(4)
C17A C 1.1385(10) 1.4590(7) 0.5384(3)
C21A C 1.1014(10) 1.5087(11) 0.5922(5)
C18A C 0.6966(9) 1.4754(7) 0.5207(4)
C23_2 C 0.3853(16) 1.6682(11) 0.3096(5)
C22_2 C 1.5811(16) 1.5728(13) 0.3327(5)
S1 S 0.33610(11) 0.78151(9) 0.85822(5)
O1 O 0.4453(3) 0.9055(3) 0.90728(16)
C1 C 0.3891(5) 0.8580(4) 0.7392(2)
O2 O 0.1025(3) 0.7982(3) 0.86752(15)
O3 O 0.4217(3) 0.5835(3) 0.88218(14)
C2 C 0.4765(5) 0.9707(4) 0.5508(2)
C4 C 0.5869(13) 0.9037(12) 0.7173(5)
H7 H 0.6960 0.8971 0.7629
C5 C 0.6258(13) 0.9622(12) 0.6237(6)
H8 H 0.7661 1.0002 0.6070
C6 C 0.2683(19) 0.9318(16) 0.5889(9)
H9 H 0.1510 0.9441 0.5467
C7 C 0.224(2) 0.8770(16) 0.6833(9)
H10 H 0.0825 0.8551 0.7052
C2A C 0.5235(5) 1.0293(4) 0.4492(2)
C8? C 0.5963(13) 0.8088(14) 0.6973(6)
H11? H 0.7043 0.7339 0.7359
C9? C 0.6386(13) 0.8664(14) 0.6055(6)
H12? H 0.7740 0.8360 0.5803
C10? C 0.282(2) 1.0154(12) 0.5781(8)
H13? H 0.1774 1.0848 0.5358
C11? C 0.236(2) 0.9579(13) 0.6702(9)
H14? H 0.0939 0.9856 0.6899
C24? C 0.5628(9) 1.4947(10) 0.5182(5)
C25? C 0.6107(11) 1.4516(10) 0.6104(5)
C26? C 0.5570(14) 1.3907(12) 0.6746(5)
C27? C 0.6828(15) 1.6018(11) 0.3410(4)
C28? C 0.8419(11) 1.4350(7) 0.6247(3)
C29? C 0.8723(10) 1.4754(7) 0.4782(3)
C30? C 0.6666(9) 1.5256(8) 0.4834(4)
C31? C 1.0247(13) 1.4080(10) 0.6574(4)
C32? C 0.9952(10) 1.5706(9) 0.4571(4)
C33? C 0.9526(11) 1.4789(8) 0.6071(4)
C34? C 1.1845(10) 1.4833(13) 0.6002(5)
C35? C 0.7267(10) 1.4688(7) 0.5786(4)
loop_
_geom_bond_atom_site_label_1
_geom_bond_atom_site_label_2
_geom_bond_site_symmetry_1
_geom_bond_site_symmetry_2
S1 O1 1_555 1_555
N1 H1 1_555 1_555
H2 N1 1_555 1_555
C1 S1 1_555 1_555
O2 S1 1_555 1_555
N2 H3 1_555 1_555
H4 N2 1_555 1_555
O3 S1 1_555 1_555
N3 H5 1_555 1_555
H6 N3 1_555 1_555
C2 C5 1_555 1_555
C3 N1 1_555 1_555
C4 C1 1_555 1_555
H7 C4 1_555 1_555
C5 C4 1_555 1_555
H8 C5 1_555 1_555
C6 C2 1_555 1_555
H9 C6 1_555 1_555
C7 C1 1_555 1_555
H10 C7 1_555 1_555
C12 C13 1_555 1_555
C13 C14 1_555 1_555
C14 C15 1_555 1_555
C15 C16 1_555 1_555
C16 C17 1_555 1_555
C17 C12 1_555 1_555
C18 C15 1_555 1_555
C19 C14 1_555 1_555
C20 C12 1_555 1_555
C21 C12 1_555 1_555
C22 C12 1_555 1_555
C23 C14 1_555 1_555
C2A C2 1_555 1_555
C16A C16 1_555 1_555
C17A C16 1_555 1_555
C21A C16 1_555 1_555
C18A C17 1_555 1_555
C23_2 C22 1_555 1_555
C22_2 C23 1_555 1_555
N2 C3 1_555 1_555
N3 C3 1_555 1_555
C6 C7 1_555 1_555
C13 C20 1_555 1_555
C14 C20 1_555 1_555
C15 C19 1_555 1_555
C16 C18 1_555 1_555
C17 C16A 1_555 1_555
C17 C21 1_555 1_555
C18 C19 1_555 1_555
C18 C17A 1_555 1_555
C19 C20 1_555 1_555
C19 C23 1_555 1_555
C20 C21 1_555 1_555
C21 C16A 1_555 1_555
C16A C17A 1_555 1_555
C16A C18A 1_555 1_555
C17A C21A 1_555 1_555

#END
