
#######################################################################
#
#                 Cambridge Crystallographic Data Centre
#                                CCDC 
#
#######################################################################
#
# If this CIF has been generated from an entry in the Cambridge 
# Structural Database, then it will include bibliographic, chemical, 
# crystal, experimental, refinement or atomic coordinate data resulting 
# from the CCDC's data processing and validation procedures.
#
#######################################################################

data_MERSIL
_chemical_formula_moiety         '2(C1 H6 N3 1+),C12 H8 O6 S2 2-,3(C12 H12)'
_chemical_name_systematic        
"bis(Guanidinium) (4,4'-biphenyldisulfonate) tris(1,6-dimethylnaphthalene) clathrate"
_symmetry_cell_setting           monoclinic
_symmetry_space_group_name_H-M   'P 21/n'
_symmetry_Int_Tables_number      14
_space_group_name_Hall           '-P 2yn'
loop_
_symmetry_equiv_pos_site_id
_symmetry_equiv_pos_as_xyz
1 x,y,z
2 1/2+x,1/2-y,1/2+z
3 -x,-y,-z
4 1/2-x,1/2+y,1/2-z
_cell_length_a                   7.5289(4)
_cell_length_b                   12.4257(7)
_cell_length_c                   25.4206(15)
_cell_angle_alpha                90
_cell_angle_beta                 95.5390(10)
_cell_angle_gamma                90
_cell_volume                     2367.04
_exptl_crystal_colour            colorless
_exptl_crystal_description       needle
_cell_formula_units_Z            2
loop_
_atom_site_label
_atom_site_type_symbol
_atom_site_fract_x
_atom_site_fract_y
_atom_site_fract_z
N1 N 0.8599(4) 1.2404(2) 0.25486(13)
H1 H 0.8576 1.1709 0.2483
H2 H 0.7602 1.2749 0.2591
N2 N 1.1644(4) 1.2417(2) 0.25198(13)
H3 H 1.2664 1.2767 0.2546
H4 H 1.1621 1.1723 0.2451
N3 N 1.0172(4) 1.3982(2) 0.26877(13)
H6 H 1.1191 1.4334 0.2714
H7 H 0.9173 1.4325 0.2730
C7 C 1.0142(5) 1.2935(3) 0.25839(14)
C8 C 0.5104(4) 0.7957(3) -0.10960(9)
C9 C 0.4541(6) 0.7185(4) -0.14713(9)
C10 C 0.3882(6) 0.6204(3) -0.13129(12)
C11 C 0.3786(6) 0.5995(2) -0.07792(14)
C12 C 0.4348(4) 0.6768(2) -0.04039(10)
C13 C 0.5007(3) 0.7748(2) -0.05623(9)
C14 C 0.5569(5) 0.8521(2) -0.01871(11)
C15 C 0.5473(5) 0.8312(3) 0.03466(10)
C16 C 0.4814(6) 0.7331(3) 0.05051(9)
C17 C 0.4251(5) 0.6559(3) 0.01298(11)
C18 C 0.5824(7) 0.9003(3) -0.12851(14)
C19 C 0.4882(8) 0.7142(5) 0.11114(9)
C32 C 1.0553(7) 0.4687(4) 0.07853(14)
C33 C 1.0082(8) 0.5549(5) 0.10910(15)
C34 C 0.9267(9) 0.6450(4) 0.0850(2)
C35 C 0.8922(8) 0.6488(4) 0.0303(2)
C36 C 0.9393(6) 0.5625(3) -0.00026(15)
C37 C 1.0208(6) 0.4725(3) 0.02384(14)
C42 C 1.0878(11) 0.5242(7) 0.14750(14)
C43 C 1.1145(10) 0.3682(5) 0.10530(19)
C36B C 1.0607(6) 0.4375(3) 0.00026(15)
C35B C 1.1078(8) 0.3512(4) -0.0303(2)
C34B C 1.0733(9) 0.3550(4) -0.0850(2)
C33B C 0.9918(8) 0.4451(5) -0.10910(15)
C32B C 0.9447(7) 0.5313(4) -0.07853(14)
C37B C 0.9792(6) 0.5275(3) -0.02384(14)
C43B C 0.8855(10) 0.6318(5) -0.10530(19)
C42B C 0.9122(11) 0.4758(7) -0.14750(14)
S1 S 0.97730(12) 0.95878(7) 0.20742(4)
O1 O 0.8182(3) 1.0144(2) 0.22198(10)
C1 C 0.9757(5) 0.9708(3) 0.13796(14)
O2 O 1.1423(3) 1.0110(2) 0.23017(10)
C2 C 0.9015(6) 1.0590(3) 0.11172(17)
H5 H 0.8423 1.1120 0.1305
O3 O 0.9766(3) 0.8435(2) 0.21886(10)
C3 C 0.9126(6) 1.0709(4) 0.05784(17)
H8 H 0.8629 1.1333 0.0405
C4 C 0.9944(5) 0.9941(3) 0.02859(14)
C5 C 1.0668(7) 0.9055(3) 0.05695(17)
H9 H 1.1248 0.8511 0.0386
C6 C 1.0574(7) 0.8943(3) 0.11000(16)
H10 H 1.1081 0.8326 0.1277
C4B C 1.0056(5) 1.0059(3) -0.02859(14)
C3B C 1.0874(6) 0.9291(4) -0.05784(17)
C2B C 1.0985(6) 0.9410(3) -0.11172(17)
C1B C 1.0243(5) 1.0292(3) -0.13796(14)
S1B S 1.02270(12) 1.04122(7) -0.20742(4)
O1B O 1.1818(3) 0.9856(2) -0.22198(10)
O2B O 0.8577(3) 0.9890(2) -0.23017(10)
O3B O 1.0234(3) 1.1565(2) -0.21886(10)
C6B C 0.9426(7) 1.1057(3) -0.11000(16)
C5B C 0.9332(7) 1.0945(3) -0.05695(17)
H9B H 0.8752 1.1489 -0.0386
H10B H 0.8919 1.1674 -0.1277
H5B H 1.1577 0.8880 -0.1305
H8B H 1.1371 0.8667 -0.0405
C20? C 0.4406(13) 0.7020(7) -0.1150(3)
C21? C 0.5031(16) 0.7769(9) -0.1494(3)
C22? C 0.5809(17) 0.8720(8) -0.1297(3)
C23? C 0.5962(16) 0.8922(6) -0.0757(3)
C24? C 0.5338(11) 0.8172(5) -0.0413(3)
C25? C 0.4560(9) 0.7221(5) -0.0609(3)
C26? C 0.3935(14) 0.6472(6) -0.0265(3)
C27? C 0.4089(17) 0.6673(8) 0.0275(3)
C28? C 0.4867(17) 0.7624(8) 0.0471(3)
C29? C 0.5491(15) 0.8374(7) 0.0127(3)
C30? C 0.410(2) 0.5903(8) -0.1414(4)
C31? C 0.505(3) 0.7817(12) 0.1092(3)
C38? C 1.0679(7) 0.3862(3) -0.00673(18)
C39? C 1.0334(8) 0.3900(4) -0.06141(17)
C40? C 0.9519(8) 0.4800(5) -0.08552(14)
C41? C 0.9048(8) 0.5663(4) -0.05494(16)
loop_
_geom_bond_atom_site_label_1
_geom_bond_atom_site_label_2
_geom_bond_site_symmetry_1
_geom_bond_site_symmetry_2
S1 O1 1_555 1_555
N1 H1 1_555 1_555
H2 N1 1_555 1_555
C1 S1 1_555 1_555
O2 S1 1_555 1_555
N2 H3 1_555 1_555
H4 N2 1_555 1_555
C2 C1 1_555 1_555
H5 C2 1_555 1_555
O3 S1 1_555 1_555
N3 H6 1_555 1_555
H7 N3 1_555 1_555
C3 C2 1_555 1_555
H8 C3 1_555 1_555
C4 C3 1_555 1_555
C5 C4 1_555 1_555
H9 C5 1_555 1_555
C6 C1 1_555 1_555
H10 C6 1_555 1_555
C7 N1 1_555 1_555
C8 C9 1_555 1_555
C9 C10 1_555 1_555
C10 C11 1_555 1_555
C11 C12 1_555 1_555
C12 C13 1_555 1_555
C13 C8 1_555 1_555
C14 C13 1_555 1_555
C15 C14 1_555 1_555
C16 C15 1_555 1_555
C17 C12 1_555 1_555
C18 C8 1_555 1_555
C19 C16 1_555 1_555
C32 C33 1_555 1_555
C33 C34 1_555 1_555
C34 C35 1_555 1_555
C35 C36 1_555 1_555
C36 C37 1_555 1_555
C37 C32 1_555 1_555
C42 C33 1_555 1_555
C43 C32 1_555 1_555
C4B C4 1_555 1_555
C3B C4B 1_555 1_555
C2B C3B 1_555 1_555
C1B C2B 1_555 1_555
S1B C1B 1_555 1_555
O1B S1B 1_555 1_555
O2B S1B 1_555 1_555
O3B S1B 1_555 1_555
C6B C1B 1_555 1_555
C5B C4B 1_555 1_555
H9B C5B 1_555 1_555
H10B C6B 1_555 1_555
H5B C2B 1_555 1_555
H8B C3B 1_555 1_555
C36B C37 1_555 1_555
C35B C36B 1_555 1_555
C34B C35B 1_555 1_555
C33B C34B 1_555 1_555
C32B C33B 1_555 1_555
C37B C36 1_555 1_555
C43B C32B 1_555 1_555
C42B C33B 1_555 1_555
N2 C7 1_555 1_555
N3 C7 1_555 1_555
C5 C6 1_555 1_555
C16 C17 1_555 1_555
C37 C37B 1_555 1_555
C6B C5B 1_555 1_555
C36B C37B 1_555 1_555
C32B C37B 1_555 1_555

#END
