
#######################################################################
#
#                 Cambridge Crystallographic Data Centre
#                                CCDC 
#
#######################################################################
#
# If this CIF has been generated from an entry in the Cambridge 
# Structural Database, then it will include bibliographic, chemical, 
# crystal, experimental, refinement or atomic coordinate data resulting 
# from the CCDC's data processing and validation procedures.
#
#######################################################################

data_MERTIM
_chemical_formula_moiety         '2(C1 H6 N3 1+),C12 H8 O6 S2 2-,3(C12 H12)'
_chemical_name_systematic        
"bis(Guanidinium) (4,4'-biphenyldisulfonate) tris(2,3-dimethylnaphthalene) clathrate"
_symmetry_cell_setting           monoclinic
_symmetry_space_group_name_H-M   'P 21/n'
_symmetry_Int_Tables_number      14
_space_group_name_Hall           '-P 2yn'
loop_
_symmetry_equiv_pos_site_id
_symmetry_equiv_pos_as_xyz
1 x,y,z
2 1/2+x,1/2-y,1/2+z
3 -x,-y,-z
4 1/2-x,1/2+y,1/2-z
_cell_length_a                   7.5509(7)
_cell_length_b                   25.493(2)
_cell_length_c                   12.0573(12)
_cell_angle_alpha                90
_cell_angle_beta                 91.574(2)
_cell_angle_gamma                90
_cell_volume                     2320.1
_exptl_crystal_colour            colorless
_exptl_crystal_description       needle
_cell_formula_units_Z            2
loop_
_atom_site_label
_atom_site_type_symbol
_atom_site_fract_x
_atom_site_fract_y
_atom_site_fract_z
N1 N 1.1113(2) 0.25483(7) 0.24989(15)
H1 H 1.1138 0.2494 0.3220
H2 H 1.2109 0.2570 0.2140
N2 N 0.8079(2) 0.25654(7) 0.24905(15)
H3 H 0.8101 0.2511 0.3212
H4 H 0.7058 0.2598 0.2127
N3 N 0.9543(2) 0.26787(7) 0.08677(15)
H6 H 0.8523 0.2712 0.0504
H7 H 1.0541 0.2700 0.0510
C7 C 0.9576(3) 0.25973(8) 0.19543(19)
C8 C 0.4255(3) 0.03879(7) 0.35271(13)
H11 H 0.3707 0.0378 0.4226
C9 C 0.4613(3) 0.08672(6) 0.30314(15)
C10 C 0.5416(3) 0.08819(6) 0.20082(16)
C11 C 0.5861(3) 0.04172(7) 0.14807(14)
H12 H 0.6410 0.0427 0.0781
C12 C 0.5503(2) -0.00620(6) 0.19764(12)
C13 C 0.4700(2) -0.00767(6) 0.29996(12)
C14 C 0.4342(3) -0.05560(7) 0.34954(16)
H13 H 0.3794 -0.0566 0.4195
C15 C 0.4787(3) -0.10206(6) 0.2968(2)
H14 H 0.4543 -0.1348 0.3307
C16 C 0.5590(3) -0.10060(6) 0.1945(2)
H15 H 0.5895 -0.1324 0.1584
C17 C 0.5948(3) -0.05267(7) 0.14490(16)
H16 H 0.6497 -0.0517 0.0750
C18 C 0.4111(4) 0.13759(7) 0.3618(2)
H17 H 0.3574 0.1292 0.4328
H18 H 0.3262 0.1572 0.3150
H19 H 0.5176 0.1589 0.3753
C19 C 0.5708(4) 0.14046(7) 0.1409(2)
H20 H 0.4585 0.1597 0.1351
H21 H 0.6141 0.1337 0.0664
H22 H 0.6583 0.1614 0.1829
C32 C 0.9107(5) 0.03486(12) -0.1050(3)
H35 H 0.8540 0.0362 -0.1763
C33 C 0.9498(4) 0.08106(10) -0.0482(3)
C34 C 1.0329(4) 0.07914(8) 0.0560(3)
C35 C 0.9232(5) -0.03101(9) -0.1035(3)
H36 H 0.8665 -0.0297 -0.1747
C36 C 0.9624(5) 0.01519(8) -0.0467(3)
C37 C 0.9546(5) -0.01326(11) -0.0576(3)
C38 C 1.0845(6) 0.05946(13) 0.1144(4)
H37 H 0.8587 -0.0581 -0.1856
C39 C 1.0406(7) 0.10759(11) 0.0669(5)
H38 H 1.0674 0.1392 0.1057
C40 C 0.9576(7) 0.10951(8) -0.0374(5)
H39 H 0.9276 0.1424 -0.0698
C41 C 0.9185(6) 0.06331(9) -0.0941(4)
H40 H 0.8617 0.0646 -0.1654
C42 C 0.9110(5) 0.13349(12) -0.0993(3)
H41 H 1.0226 0.1518 -0.1127
H42 H 0.8399 0.1544 -0.0487
H43 H 0.8452 0.1287 -0.1697
C43 C 1.0714(5) 0.12828(9) 0.1219(3)
H44 H 1.1238 0.1188 0.1945
H45 H 0.9610 0.1476 0.1324
H46 H 1.1545 0.1503 0.0818
C35B C 1.0768(5) 0.03101(9) 0.1035(3)
C32B C 1.0893(5) -0.03486(12) 0.1050(3)
H35B H 1.1460 -0.0362 0.1763
C41B C 1.0815(6) -0.06331(9) 0.0941(4)
C33B C 1.0502(4) -0.08106(10) 0.0482(3)
C34B C 0.9671(4) -0.07914(8) -0.0560(3)
C37B C 1.0454(5) 0.01326(11) 0.0576(3)
C36B C 1.0376(5) -0.01519(8) 0.0467(3)
C39B C 0.9594(7) -0.10759(11) -0.0669(5)
H36B H 1.1335 0.0297 0.1747
C38B C 0.9155(6) -0.05946(13) -0.1144(4)
C40B C 1.0424(7) -0.10951(8) 0.0374(5)
H37B H 1.1413 0.0581 0.1856
H38B H 0.9326 -0.1392 -0.1057
C43B C 0.9286(5) -0.12828(9) -0.1219(3)
H39B H 1.0724 -0.1424 0.0698
C42B C 1.0890(5) -0.13349(12) 0.0993(3)
H40B H 1.1383 -0.0646 0.1654
H41B H 0.9774 -0.1518 0.1127
H42B H 1.1601 -0.1544 0.0487
H43B H 1.1548 -0.1287 0.1697
H44B H 0.8762 -0.1188 -0.1945
H45B H 1.0390 -0.1476 -0.1324
H46B H 0.8455 -0.1503 -0.0818
S1 S 0.95261(7) 0.20737(2) 0.53550(5)
O1 O 1.10847(18) 0.22843(6) 0.48177(11)
C1 C 0.9655(3) 0.13861(8) 0.52420(17)
O2 O 0.78925(18) 0.22319(5) 0.47768(11)
C2 C 0.9044(3) 0.11315(9) 0.42974(19)
H5 H 0.8525 0.1329 0.3704
O3 O 0.95307(18) 0.21934(5) 0.65349(11)
C3 C 0.9178(3) 0.05933(9) 0.42049(18)
H8 H 0.8742 0.0427 0.3548
C4 C 0.9935(3) 0.02888(8) 0.50489(17)
C5 C 1.0560(3) 0.05546(9) 0.59865(19)
H9 H 1.1101 0.0360 0.6577
C6 C 1.0422(3) 0.10901(9) 0.60864(19)
H10 H 1.0857 0.1258 0.6742
C4B C 1.0065(3) -0.02888(8) 0.49511(17)
C3B C 1.0822(3) -0.05933(9) 0.57951(18)
C2B C 1.0956(3) -0.11315(9) 0.57026(19)
C1B C 1.0345(3) -0.13861(8) 0.47580(17)
S1B S 1.04739(7) -0.20737(2) 0.46450(5)
O1B O 0.89153(18) -0.22843(6) 0.51823(11)
O2B O 1.21075(18) -0.22319(5) 0.52232(11)
O3B O 1.04693(18) -0.21934(5) 0.34651(11)
C6B C 0.9578(3) -0.10901(9) 0.39136(19)
C5B C 0.9440(3) -0.05546(9) 0.40135(19)
H9B H 0.8899 -0.0360 0.3423
H10B H 0.9143 -0.1258 0.3258
H5B H 1.1475 -0.1329 0.6296
H8B H 1.1258 -0.0427 0.6452
C20? C 0.4348(8) 0.0023(2) 0.3583(4)
H23? H 0.3842 0.0009 0.4295
C21? C 0.4844(8) -0.0438(2) 0.3059(4)
C22? C 0.5584(8) -0.0417(2) 0.2017(4)
C23? C 0.5828(8) 0.0063(2) 0.1499(4)
H24? H 0.6333 0.0077 0.0787
C24? C 0.5331(7) 0.0524(2) 0.2024(4)
C25? C 0.4591(7) 0.0504(2) 0.3066(4)
C26? C 0.4094(10) 0.0964(2) 0.3591(5)
H25? H 0.3589 0.0950 0.4303
C27? C 0.4338(11) 0.1445(2) 0.3073(6)
H26? H 0.3998 0.1760 0.3432
C28? C 0.5078(11) 0.1465(2) 0.2031(6)
H27? H 0.5244 0.1794 0.1677
C29? C 0.5574(10) 0.1005(2) 0.1506(5)
H28? H 0.6080 0.1019 0.0794
C30? C 0.4493(12) -0.0918(2) 0.3596(6)
H29? H 0.3779 -0.1143 0.3099
H30? H 0.3842 -0.0849 0.4273
H31? H 0.5613 -0.1094 0.3788
C31? C 0.6021(12) -0.0878(2) 0.1403(6)
H32? H 0.7015 -0.1059 0.1776
H33? H 0.6354 -0.0778 0.0652
H34? H 0.4992 -0.1112 0.1360
loop_
_geom_bond_atom_site_label_1
_geom_bond_atom_site_label_2
_geom_bond_site_symmetry_1
_geom_bond_site_symmetry_2
S1 O1 1_555 1_555
N1 H1 1_555 1_555
H2 N1 1_555 1_555
C1 S1 1_555 1_555
O2 S1 1_555 1_555
N2 H3 1_555 1_555
H4 N2 1_555 1_555
C2 C1 1_555 1_555
H5 C2 1_555 1_555
O3 S1 1_555 1_555
N3 H6 1_555 1_555
H7 N3 1_555 1_555
C3 C2 1_555 1_555
H8 C3 1_555 1_555
C4 C3 1_555 1_555
C5 C4 1_555 1_555
H9 C5 1_555 1_555
C6 C1 1_555 1_555
H10 C6 1_555 1_555
C7 N1 1_555 1_555
C8 H11 1_555 1_555
C9 C8 1_555 1_555
C10 C9 1_555 1_555
C11 C10 1_555 1_555
H12 C11 1_555 1_555
C12 C11 1_555 1_555
C13 C8 1_555 1_555
C14 C13 1_555 1_555
H13 C14 1_555 1_555
C15 C14 1_555 1_555
H14 C15 1_555 1_555
C16 C15 1_555 1_555
H15 C16 1_555 1_555
C17 C12 1_555 1_555
H16 C17 1_555 1_555
C18 C9 1_555 1_555
H17 C18 1_555 1_555
H18 C18 1_555 1_555
H19 C18 1_555 1_555
C19 C10 1_555 1_555
H20 C19 1_555 1_555
H21 C19 1_555 1_555
H22 C19 1_555 1_555
C32 H35 1_555 1_555
H35 C41 1_555 1_555
C33 C32 1_555 1_555
C34 C33 1_555 1_555
C35 C32 1_555 1_555
H36 C35 1_555 1_555
C36 C32 1_555 1_555
C37 C32 1_555 1_555
C38 C34 1_555 1_555
H37 C35 1_555 1_555
C39 C33 1_555 1_555
H38 C39 1_555 1_555
C40 C33 1_555 1_555
H39 C40 1_555 1_555
C41 C32 1_555 1_555
H40 C32 1_555 1_555
C42 C33 1_555 1_555
H41 C42 1_555 1_555
H42 H39 1_555 1_555
H43 C42 1_555 1_555
C43 C34 1_555 1_555
H44 C43 1_555 1_555
H45 C43 1_555 1_555
H46 H38 1_555 1_555
C4B C4 1_555 1_555
C3B C4B 1_555 1_555
C2B C3B 1_555 1_555
C1B C2B 1_555 1_555
S1B C1B 1_555 1_555
O1B S1B 1_555 1_555
O2B S1B 1_555 1_555
O3B S1B 1_555 1_555
C6B C1B 1_555 1_555
C5B C4B 1_555 1_555
H9B C5B 1_555 1_555
H10B C6B 1_555 1_555
H5B C2B 1_555 1_555
H8B C3B 1_555 1_555
C35B C34 1_555 1_555
C32B C35B 1_555 1_555
H35B C32B 1_555 1_555
C41B C32B 1_555 1_555
C33B C32B 1_555 1_555
C34B C35 1_555 1_555
C37B C34 1_555 1_555
C36B C36 1_555 1_555
C39B C33B 1_555 1_555
H36B C38 1_555 1_555
C38B C35 1_555 1_555
C40B C41B 1_555 1_555
H37B C38 1_555 1_555
H38B C39B 1_555 1_555
C43B C34B 1_555 1_555
H39B C40B 1_555 1_555
C42B C33B 1_555 1_555
H40B C32B 1_555 1_555
H41B C42B 1_555 1_555
H42B H39B 1_555 1_555
H43B C42B 1_555 1_555
H44B C43B 1_555 1_555
H45B C43B 1_555 1_555
H46B H38B 1_555 1_555
N2 C7 1_555 1_555
N3 C7 1_555 1_555
C5 C6 1_555 1_555
C12 C13 1_555 1_555
C16 C17 1_555 1_555
H35 H40 1_555 1_555
C33 C36 1_555 1_555
C33 C41 1_555 1_555
C34 C39 1_555 1_555
C34 C40 1_555 1_555
C35 C36 1_555 1_555
C35 C37 1_555 1_555
H36 C38B 1_555 1_555
H36 H37 1_555 1_555
C36 C37 1_555 1_555
C36 C37B 1_555 1_555
C36 C41 1_555 1_555
C37 C34B 1_555 1_555
C37 C36B 1_555 1_555
C37 C38B 1_555 1_555
C37 C37B 1_555 1_555
C38 C43 1_555 1_555
C38 C35B 1_555 1_555
C38 C37B 1_555 1_555
C38 C39 1_555 1_555
H37 C38B 1_555 1_555
C39 C40 1_555 1_555
C39 C43 1_555 1_555
H38 C43 1_555 1_555
C40 C41 1_555 1_555
C40 C42 1_555 1_555
H39 C42 1_555 1_555
C41 H40 1_555 1_555
C42 H42 1_555 1_555
C43 H46 1_555 1_555
C6B C5B 1_555 1_555
C35B H36B 1_555 1_555
C35B C37B 1_555 1_555
C35B C36B 1_555 1_555
C35B H37B 1_555 1_555
C32B C36B 1_555 1_555
C32B C37B 1_555 1_555
H35B C41B 1_555 1_555
H35B H40B 1_555 1_555
C41B H40B 1_555 1_555
C41B C33B 1_555 1_555
C41B C36B 1_555 1_555
C33B C34B 1_555 1_555
C33B C36B 1_555 1_555
C33B C40B 1_555 1_555
C34B C40B 1_555 1_555
C34B C39B 1_555 1_555
C34B C38B 1_555 1_555
C37B C36B 1_555 1_555
C39B C38B 1_555 1_555
C39B C43B 1_555 1_555
C39B C40B 1_555 1_555
H36B H37B 1_555 1_555
C38B C43B 1_555 1_555
C40B C42B 1_555 1_555
H38B C43B 1_555 1_555
C43B H46B 1_555 1_555
H39B C42B 1_555 1_555
C42B H42B 1_555 1_555

#END
