
#######################################################################
#
#                 Cambridge Crystallographic Data Centre
#                                CCDC 
#
#######################################################################
#
# If this CIF has been generated from an entry in the Cambridge 
# Structural Database, then it will include bibliographic, chemical, 
# crystal, experimental, refinement or atomic coordinate data resulting 
# from the CCDC's data processing and validation procedures.
#
#######################################################################

data_MERTOS
_chemical_formula_moiety         '2(C1 H6 N3 1+),C12 H8 O6 S2 2-,C12 H12'
_chemical_name_systematic        
"bis(Guanidinium) (4,4'-biphenyldisulfonate) (2,6-dimethylnaphthalene) clathrate"
_symmetry_cell_setting           monoclinic
_symmetry_space_group_name_H-M   'C 2/c'
_symmetry_Int_Tables_number      15
_space_group_name_Hall           '-C 2yn'
loop_
_symmetry_equiv_pos_site_id
_symmetry_equiv_pos_as_xyz
1 x,y,z
2 1/2+x,1/2+y,z
3 x,-y,1/2+z
4 1/2+x,1/2-y,1/2+z
5 -x,-y,-z
6 1/2-x,1/2-y,-z
7 -x,y,1/2-z
8 1/2-x,1/2+y,1/2-z
_cell_length_a                   31.569(2)
_cell_length_b                   7.3560(5)
_cell_length_c                   12.7025(9)
_cell_angle_alpha                90
_cell_angle_beta                 109.611(3)
_cell_angle_gamma                90
_cell_volume                     2778.69
_exptl_crystal_colour            colorless
_exptl_crystal_description       plate
_cell_formula_units_Z            4
loop_
_atom_site_label
_atom_site_type_symbol
_atom_site_fract_x
_atom_site_fract_y
_atom_site_fract_z
S1 S 0.176257(18) 0.19042(8) 0.84237(5)
O1 O 0.18401(5) 0.1962(2) 0.73537(13)
C1 C 0.11765(7) 0.1536(3) 0.81128(19)
O2 O 0.19907(5) 0.0384(2) 0.91255(13)
C2 C 0.09837(8) 0.1966(3) 0.8917(2)
H5 H 0.1166 0.2402 0.9629
O3 O 0.18646(5) 0.3630(2) 0.90249(13)
C3 C 0.05246(7) 0.1755(3) 0.8681(2)
H8 H 0.0395 0.2052 0.9234
C4 C 0.02506(7) 0.1115(3) 0.76413(19)
C5 C 0.04503(7) 0.0631(3) 0.6853(2)
H9 H 0.0269 0.0165 0.6149
C6 C 0.09128(7) 0.0824(3) 0.7086(2)
H10 H 0.1046 0.0473 0.6549
C4F C -0.02506(7) 0.1115(3) 0.73587(19)
C3F C -0.05246(7) 0.1755(3) 0.6319(2)
C2F C -0.09837(8) 0.1966(3) 0.6083(2)
C1F C -0.11765(7) 0.1536(3) 0.68872(19)
S1F S -0.176257(18) 0.19042(8) 0.65763(5)
O1F O -0.18401(5) 0.1962(2) 0.76463(13)
O2F O -0.19907(5) 0.0384(2) 0.58745(13)
O3F O -0.18646(5) 0.3630(2) 0.59751(13)
C6F C -0.09128(7) 0.0824(3) 0.7914(2)
C5F C -0.04503(7) 0.0631(3) 0.8147(2)
H9F H -0.0269 0.0165 0.8851
H10F H -0.1046 0.0473 0.8451
H5F H -0.1166 0.2402 0.5371
H8F H -0.0395 0.2052 0.5766
N1 N 0.20573(6) 0.5475(3) 0.64178(16)
H1 H 0.2041 0.4425 0.6734
H2 H 0.2075 0.5505 0.5741
N2 N 0.20731(6) 0.8602(3) 0.64769(16)
H3 H 0.2068 0.9622 0.6834
H4 H 0.2090 0.8634 0.5800
N3 N 0.20290(7) 0.6979(3) 0.79777(17)
H6 H 0.2013 0.5933 0.8298
H7 H 0.2028 0.8004 0.8334
C7 C 0.20550(7) 0.7012(3) 0.6961(2)
C8 C 0.07378(8) 0.3809(3) 0.4848(2)
C9 C 0.08440(8) 0.4823(3) 0.5852(2)
H11 H 0.1150 0.4935 0.6315
C10 C 0.05191(8) 0.5641(3) 0.6170(2)
H12 H 0.0602 0.6307 0.6850
C11 C 0.00576(7) 0.5512(3) 0.55015(19)
C12 C 0.02928(8) 0.3640(3) 0.4199(2)
H13 H 0.0216 0.2939 0.3533
C13 C 0.11064(8) 0.2959(3) 0.4498(2)
H14 H 0.0974 0.2096 0.3889
H15 H 0.1318 0.2318 0.5136
H16 H 0.1266 0.3912 0.4244
C11D C -0.00576(7) 0.4488(3) 0.44985(19)
C10D C -0.05191(8) 0.4359(3) 0.3830(2)
C9D C -0.08440(8) 0.5177(3) 0.4148(2)
C8D C -0.07378(8) 0.6191(3) 0.5152(2)
C12D C -0.02928(8) 0.6360(3) 0.5801(2)
H13D H -0.0216 0.7061 0.6467
C13D C -0.11064(8) 0.7041(3) 0.5502(2)
H14D H -0.0974 0.7904 0.6111
H15D H -0.1318 0.7682 0.4864
H16D H -0.1266 0.6088 0.5756
H11D H -0.1150 0.5065 0.3685
H12D H -0.0602 0.3693 0.3150
loop_
_geom_bond_atom_site_label_1
_geom_bond_atom_site_label_2
_geom_bond_site_symmetry_1
_geom_bond_site_symmetry_2
S1 O1 1_555 1_555
N1 H1 1_555 1_555
H2 N1 1_555 1_555
C1 S1 1_555 1_555
O2 S1 1_555 1_555
N2 H3 1_555 1_555
H4 N2 1_555 1_555
C2 C1 1_555 1_555
H5 C2 1_555 1_555
O3 S1 1_555 1_555
N3 H6 1_555 1_555
H7 N3 1_555 1_555
C3 C2 1_555 1_555
H8 C3 1_555 1_555
C4 C3 1_555 1_555
C5 C4 1_555 1_555
H9 C5 1_555 1_555
C6 C1 1_555 1_555
H10 C6 1_555 1_555
C7 N1 1_555 1_555
C8 C9 1_555 1_555
C9 H11 1_555 1_555
C10 C9 1_555 1_555
H12 C10 1_555 1_555
C11 C10 1_555 1_555
C12 C8 1_555 1_555
H13 C12 1_555 1_555
C13 C8 1_555 1_555
H14 C13 1_555 1_555
H15 C13 1_555 1_555
H16 C13 1_555 1_555
C4F C4 1_555 1_555
C3F C4F 1_555 1_555
C2F C3F 1_555 1_555
C1F C2F 1_555 1_555
S1F C1F 1_555 1_555
O1F S1F 1_555 1_555
O2F S1F 1_555 1_555
O3F S1F 1_555 1_555
C6F C1F 1_555 1_555
C5F C4F 1_555 1_555
H9F C5F 1_555 1_555
H10F C6F 1_555 1_555
H5F C2F 1_555 1_555
H8F C3F 1_555 1_555
C11D C11 1_555 1_555
C10D C11D 1_555 1_555
C9D C10D 1_555 1_555
C8D C9D 1_555 1_555
C12D C11 1_555 1_555
H13D C12D 1_555 1_555
C13D C8D 1_555 1_555
H14D C13D 1_555 1_555
H15D C13D 1_555 1_555
H16D C13D 1_555 1_555
H11D C9D 1_555 1_555
H12D C10D 1_555 1_555
N2 C7 1_555 1_555
N3 C7 1_555 1_555
C5 C6 1_555 1_555
C12 C11D 1_555 1_555
C6F C5F 1_555 1_555
C8D C12D 1_555 1_555

#END
