
#######################################################################
#
#                 Cambridge Crystallographic Data Centre
#                                CCDC 
#
#######################################################################
#
# If this CIF has been generated from an entry in the Cambridge 
# Structural Database, then it will include bibliographic, chemical, 
# crystal, experimental, refinement or atomic coordinate data resulting 
# from the CCDC's data processing and validation procedures.
#
#######################################################################

data_MERVAJ
_chemical_formula_moiety         'C8 H2 Cl3 N5 O4'
_chemical_name_systematic        
1-(2,4,6-trichloro-3,5-dinitrophenyl)-1H-1,2,4-triazole
_symmetry_cell_setting           monoclinic
_symmetry_space_group_name_H-M   'P 21/n'
_symmetry_Int_Tables_number      14
_space_group_name_Hall           '-P 2yn'
loop_
_symmetry_equiv_pos_site_id
_symmetry_equiv_pos_as_xyz
1 x,y,z
2 1/2-x,1/2+y,1/2-z
3 -x,-y,-z
4 1/2+x,1/2-y,1/2+z
_cell_length_a                   8.8432(19)
_cell_length_b                   17.400(4)
_cell_length_c                   16.430(4)
_cell_angle_alpha                90
_cell_angle_beta                 91.832(4)
_cell_angle_gamma                90
_cell_volume                     2526.82
_exptl_crystal_colour            colorless
_exptl_crystal_description       prismatic
_cell_formula_units_Z            8
loop_
_atom_site_label
_atom_site_type_symbol
_atom_site_fract_x
_atom_site_fract_y
_atom_site_fract_z
Cl1 Cl 1.01961(7) 0.36092(5) -0.02499(4)
Cl2 Cl 0.41890(7) 0.35621(4) -0.08209(4)
Cl3 Cl 0.64354(8) 0.43846(4) 0.21164(4)
N1 N 0.7397(2) 0.33774(10) -0.12632(11)
N2 N 0.7305(3) 0.26374(12) -0.14907(14)
N3 N 0.7592(3) 0.34016(14) -0.25705(13)
N4 N 0.3973(2) 0.40432(14) 0.09052(13)
N5 N 0.9470(2) 0.41248(15) 0.14266(13)
O1 O 0.3371(2) 0.34897(14) 0.11723(16)
O2 O 0.3413(2) 0.46632(13) 0.08354(19)
O3 O 1.0066(2) 0.35671(15) 0.17252(14)
O4 O 0.9823(3) 0.47741(15) 0.15478(17)
C1 C 0.8407(2) 0.37381(13) 0.00777(13)
C2 C 0.7179(2) 0.35996(12) -0.04444(13)
C3 C 0.5718(2) 0.37015(12) -0.01766(14)
C4 C 0.5519(2) 0.39438(13) 0.06114(13)
C5 C 0.6727(2) 0.40950(12) 0.11393(13)
C6 C 0.8164(2) 0.39854(13) 0.08606(13)
C7 C 0.7565(3) 0.38111(16) -0.19158(15)
H1 H 0.7652 0.4344 -0.1904
C8 C 0.7437(4) 0.26921(18) -0.22772(17)
H2 H 0.7424 0.2262 -0.2613
Cl4 Cl 0.76442(8) 0.06372(4) -0.18336(4)
Cl5 Cl 0.40291(7) 0.14394(5) 0.05711(4)
Cl6 Cl 1.00478(7) 0.14954(4) 0.10701(4)
N6 N 0.6870(2) 0.16638(10) 0.15514(11)
N7 N 0.6885(3) 0.24080(12) 0.17753(13)
N8 N 0.6722(3) 0.16448(14) 0.28625(12)
N9 N 0.4682(2) 0.09089(14) -0.11040(12)
N10 N 1.0194(2) 0.10191(16) -0.06742(13)
O5 O 0.4166(2) 0.14476(14) -0.14679(14)
O6 O 0.4204(3) 0.02647(13) -0.11379(15)
O7 O 1.0673(3) 0.03911(15) -0.07787(18)
O8 O 1.0849(3) 0.16034(15) -0.08174(17)
C9 C 0.7431(3) 0.09393(13) -0.08556(13)
C10 C 0.6013(2) 0.10526(12) -0.05597(13)
C11 C 0.5806(2) 0.13100(13) 0.02202(13)
C12 C 0.7063(2) 0.14414(12) 0.07314(13)
C13 C 0.8497(2) 0.13435(13) 0.04383(13)
C14 C 0.8664(2) 0.10960(13) -0.03524(13)
C15 C 0.6760(3) 0.12278(16) 0.22102(15)
H3 H 0.6716 0.0694 0.2204
C16 C 0.6796(3) 0.23504(17) 0.25665(16)
H4 H 0.6784 0.2781 0.2902
loop_
_geom_bond_atom_site_label_1
_geom_bond_atom_site_label_2
_geom_bond_site_symmetry_1
_geom_bond_site_symmetry_2
Cl1 C1 1_555 1_555
Cl2 C3 1_555 1_555
Cl3 C5 1_555 1_555
N1 N2 1_555 1_555
N2 C8 1_555 1_555
N3 C7 1_555 1_555
N4 O1 1_555 1_555
N5 O3 1_555 1_555
O2 N4 1_555 1_555
O4 N5 1_555 1_555
C1 C2 1_555 1_555
C2 N1 1_555 1_555
C3 C2 1_555 1_555
C4 N4 1_555 1_555
C5 C4 1_555 1_555
C6 N5 1_555 1_555
C7 N1 1_555 1_555
H1 C7 1_555 1_555
C8 N3 1_555 1_555
H2 C8 1_555 1_555
Cl4 C9 1_555 1_555
Cl5 C11 1_555 1_555
Cl6 C13 1_555 1_555
N6 N7 1_555 1_555
N7 C16 1_555 1_555
N8 C15 1_555 1_555
N9 O5 1_555 1_555
N10 O7 1_555 1_555
O6 N9 1_555 1_555
O8 N10 1_555 1_555
C9 C10 1_555 1_555
C10 N9 1_555 1_555
C11 C10 1_555 1_555
C12 N6 1_555 1_555
C13 C12 1_555 1_555
C14 N10 1_555 1_555
C15 N6 1_555 1_555
H3 C15 1_555 1_555
C16 N8 1_555 1_555
H4 C16 1_555 1_555
C1 C6 1_555 1_555
C3 C4 1_555 1_555
C5 C6 1_555 1_555
C9 C14 1_555 1_555
C11 C12 1_555 1_555
C13 C14 1_555 1_555

#END
