
#######################################################################
#
#                 Cambridge Crystallographic Data Centre
#                                CCDC 
#
#######################################################################
#
# If this CIF has been generated from an entry in the Cambridge 
# Structural Database, then it will include bibliographic, chemical, 
# crystal, experimental, refinement or atomic coordinate data resulting 
# from the CCDC's data processing and validation procedures.
#
#######################################################################

data_MERVUB
_chemical_formula_moiety         'C25 H36 N2 O4 S1'
_chemical_name_systematic        
"N,N'-Dihexyl 3-benzyloxy-4-hydroxythiophene-2,5-dicarboxamide"
_symmetry_cell_setting           triclinic
_symmetry_space_group_name_H-M   'P -1'
_symmetry_Int_Tables_number      2
_space_group_name_Hall           '-P 1'
loop_
_symmetry_equiv_pos_site_id
_symmetry_equiv_pos_as_xyz
1 x,y,z
2 -x,-y,-z
_cell_length_a                   10.111(3)
_cell_length_b                   11.761(3)
_cell_length_c                   12.014(3)
_cell_angle_alpha                72.987(5)
_cell_angle_beta                 88.576(5)
_cell_angle_gamma                71.441(5)
_cell_volume                     1291.41
_exptl_crystal_colour            white
_cell_formula_units_Z            2
_exptl_crystal_recrystallization_method chloroform
loop_
_atom_site_label
_atom_site_type_symbol
_atom_site_fract_x
_atom_site_fract_y
_atom_site_fract_z
S1 S 0.66167(6) 0.90173(6) 0.47689(6)
C1 C 0.8097(2) 0.9000(2) 0.54536(18)
C2 C 0.9260(2) 0.8084(2) 0.53185(19)
C3 C 0.8948(2) 0.7378(2) 0.46459(19)
C4 C 0.7558(2) 0.77732(19) 0.42885(18)
C5 C 0.7926(3) 0.9927(2) 0.61061(19)
O1 O 0.67727(17) 1.06958(16) 0.61170(15)
N1 N 0.9071(2) 0.9869(2) 0.66689(18)
H1 H 0.985(2) 0.929(2) 0.6612(18)
C6 C 0.9084(3) 1.0736(3) 0.7320(3)
H2 H 0.836(2) 1.071(2) 0.789(2)
H3 H 0.887(2) 1.161(2) 0.680(2)
C7 C 1.0498(3) 1.0328(3) 0.7971(3)
H4 H 1.063(2) 0.954(2) 0.847(2)
H5 H 1.120(2) 1.035(2) 0.738(2)
C8 C 1.0588(4) 1.1206(3) 0.8651(3)
H6 H 0.987(2) 1.127(2) 0.918(2)
H7 H 1.041(3) 1.203(3) 0.811(2)
C9 C 1.1983(4) 1.0828(4) 0.9314(3)
H8 H 1.218(2) 1.003(2) 0.985(2)
H9 H 1.275(3) 1.077(2) 0.876(2)
C10 C 1.2057(5) 1.1718(4) 0.9991(4)
H10 H 1.189(3) 1.267(3) 0.947(3)
H11 H 1.124(4) 1.204(4) 1.044(3)
C11 C 1.3443(7) 1.1300(7) 1.0684(6)
H12 H 1.351(7) 1.048(6) 1.128(5)
H13 H 1.409(6) 1.120(5) 1.006(5)
H14 H 1.323(5) 1.213(5) 1.096(4)
C12 C 0.7014(2) 0.7183(2) 0.3575(2)
O2 O 0.78423(16) 0.63035(15) 0.32770(14)
N2 N 0.5656(2) 0.7623(2) 0.32464(18)
H15 H 0.513(2) 0.8201(18) 0.3446(16)
C13 C 0.5004(3) 0.7082(3) 0.2561(3)
H16 H 0.426(2) 0.781(2) 0.2033(17)
H17 H 0.568(2) 0.676(2) 0.2096(19)
C14 C 0.4398(3) 0.6128(3) 0.3273(3)
H18 H 0.512(3) 0.538(2) 0.386(2)
H19 H 0.379(2) 0.647(2) 0.3810(19)
C15 C 0.3617(3) 0.5662(3) 0.2532(3)
H20 H 0.282(3) 0.643(2) 0.202(2)
H21 H 0.424(3) 0.537(2) 0.199(2)
C16 C 0.3028(4) 0.4670(4) 0.3211(3)
H22 H 0.235(3) 0.504(2) 0.369(2)
H23 H 0.399(4) 0.396(4) 0.386(3)
C17 C 0.2364(5) 0.4111(5) 0.2443(5)
H24 H 0.296(4) 0.380(3) 0.175(3)
H25 H 0.224(4) 0.331(3) 0.288(3)
C18 C 0.1034(5) 0.5014(7) 0.1772(6)
H26 H 0.128(5) 0.405(5) 0.158(4)
H27 H 0.090(5) 0.486(4) 0.270(4)
H28 H 0.102(6) 0.580(6) 0.111(5)
O3 O 1.05453(16) 0.79708(15) 0.57387(15)
C19 C 1.1617(3) 0.6752(3) 0.6146(3)
H29 H 1.113(3) 0.612(2) 0.642(2)
H30 H 1.210(3) 0.666(3) 0.553(3)
C20 C 1.2451(2) 0.6801(2) 0.7124(2)
C21 C 1.2438(4) 0.6086(4) 0.8238(3)
H31 H 1.196(3) 0.556(3) 0.836(3)
C22 C 1.3176(4) 0.6191(5) 0.9147(4)
H32 H 1.320(4) 0.561(3) 0.985(3)
C23 C 1.3909(4) 0.7003(5) 0.8929(4)
H33 H 1.445(3) 0.710(3) 0.953(3)
C24 C 1.3943(3) 0.7704(3) 0.7837(4)
H34 H 1.450(3) 0.830(2) 0.764(2)
C25 C 1.3232(3) 0.7607(3) 0.6923(3)
H35 H 1.332(3) 0.802(3) 0.612(2)
O4 O 0.99428(17) 0.64304(17) 0.43887(17)
H36 H 0.947(3) 0.610(3) 0.401(3)
loop_
_geom_bond_atom_site_label_1
_geom_bond_atom_site_label_2
_geom_bond_site_symmetry_1
_geom_bond_site_symmetry_2
S1 C1 1_555 1_555
C1 C2 1_555 1_555
C2 C3 1_555 1_555
C3 C4 1_555 1_555
C4 S1 1_555 1_555
C5 C1 1_555 1_555
O1 C5 1_555 1_555
N1 C5 1_555 1_555
H1 N1 1_555 1_555
C6 N1 1_555 1_555
H2 C6 1_555 1_555
H3 C6 1_555 1_555
C7 C6 1_555 1_555
H4 C7 1_555 1_555
H5 C7 1_555 1_555
C8 C7 1_555 1_555
H6 C8 1_555 1_555
H7 C8 1_555 1_555
C9 C8 1_555 1_555
H8 C9 1_555 1_555
H9 C9 1_555 1_555
C10 C9 1_555 1_555
H10 C10 1_555 1_555
H11 C10 1_555 1_555
C11 C10 1_555 1_555
H12 C11 1_555 1_555
H13 C11 1_555 1_555
H14 C11 1_555 1_555
C12 C4 1_555 1_555
O2 C12 1_555 1_555
N2 C12 1_555 1_555
H15 N2 1_555 1_555
C13 N2 1_555 1_555
H16 C13 1_555 1_555
H17 C13 1_555 1_555
C14 C13 1_555 1_555
H18 C14 1_555 1_555
H19 C14 1_555 1_555
C15 C14 1_555 1_555
H20 C15 1_555 1_555
H21 C15 1_555 1_555
C16 C15 1_555 1_555
H22 C16 1_555 1_555
H23 C16 1_555 1_555
C17 C16 1_555 1_555
H24 C17 1_555 1_555
H25 C17 1_555 1_555
C18 C17 1_555 1_555
H26 C18 1_555 1_555
H27 C18 1_555 1_555
H28 C18 1_555 1_555
O3 C2 1_555 1_555
C19 O3 1_555 1_555
H29 C19 1_555 1_555
H30 C19 1_555 1_555
C20 C19 1_555 1_555
C21 C20 1_555 1_555
H31 C21 1_555 1_555
C22 C21 1_555 1_555
H32 C22 1_555 1_555
C23 C22 1_555 1_555
H33 C23 1_555 1_555
C24 C23 1_555 1_555
H34 C24 1_555 1_555
C25 C20 1_555 1_555
H35 C25 1_555 1_555
O4 C3 1_555 1_555
H36 O4 1_555 1_555
C24 C25 1_555 1_555

#END
