
#######################################################################
#
#                 Cambridge Crystallographic Data Centre
#                                CCDC 
#
#######################################################################
#
# If this CIF has been generated from an entry in the Cambridge 
# Structural Database, then it will include bibliographic, chemical, 
# crystal, experimental, refinement or atomic coordinate data resulting 
# from the CCDC's data processing and validation procedures.
#
#######################################################################

data_MESFAU
_chemical_name_common            
'(S)-1-Adamantanyl 2-(2-ethoxy-1,1-difluoro-2-oxoethyl)-5,6-dimethoxy-1-oxo-2,3 -dihydro-1H- indene-2-carboxylate'
_chemical_formula_moiety         'C26 H30 F2 O7'
_chemical_name_systematic        
'tricyclo[3.3.1.1^3,7^]decan-1-yl 2-(2-ethoxy-1,1-difluoro-2-oxoethyl)-5,6-dimethoxy-1-oxo-2,3-dihydro-1H-indene-2-carboxylate'
_symmetry_cell_setting           orthorhombic
_symmetry_space_group_name_H-M   'P 21 21 21'
_symmetry_Int_Tables_number      19
_space_group_name_Hall           'P 2ac 2ab'
loop_
_symmetry_equiv_pos_site_id
_symmetry_equiv_pos_as_xyz
1 x,y,z
2 1/2-x,-y,1/2+z
3 -x,1/2+y,1/2-z
4 1/2+x,1/2-y,-z
_cell_length_a                   11.5403(3)
_cell_length_b                   14.4173(4)
_cell_length_c                   14.4525(4)
_cell_angle_alpha                90
_cell_angle_beta                 90
_cell_angle_gamma                90
_cell_volume                     2404.61
_exptl_crystal_description       block
_cell_formula_units_Z            4
_chemical_properties_physical    Heat-sensitive
loop_
_atom_site_label
_atom_site_type_symbol
_atom_site_fract_x
_atom_site_fract_y
_atom_site_fract_z
C1 C -0.0317(2) 0.41673(18) 0.43873(17)
C2 C -0.1109(3) 0.3728(2) 0.3667(2)
H1 H -0.0657 0.3370 0.3228
H2 H -0.1526 0.4206 0.3331
C3 C -0.1963(3) 0.3096(2) 0.4179(2)
H3 H -0.2485 0.2809 0.3726
C4 C -0.1302(3) 0.2339(2) 0.4682(2)
H4 H -0.0853 0.1979 0.4243
H5 H -0.1841 0.1924 0.4990
C5 C -0.0496(3) 0.2782(2) 0.5394(2)
H6 H -0.0071 0.2296 0.5724
C6 C 0.0366(2) 0.3423(2) 0.4898(2)
H7 H 0.0883 0.3707 0.5344
H8 H 0.0828 0.3068 0.4463
C7 C -0.1015(2) 0.4731(2) 0.5074(2)
H9 H -0.1425 0.5223 0.4753
H10 H -0.0501 0.5013 0.5524
C8 C -0.1883(3) 0.4099(2) 0.5565(2)
H11 H -0.2337 0.4463 0.6009
C9 C -0.1215(3) 0.3337(3) 0.6079(2)
H12 H -0.0711 0.3615 0.6539
H13 H -0.1755 0.2930 0.6394
C10 C -0.2682(3) 0.3671(2) 0.4858(3)
H14 H -0.3095 0.4155 0.4527
H15 H -0.3246 0.3278 0.5164
C11 C 0.1285(3) 0.46561(19) 0.33665(19)
C12 C 0.2085(2) 0.54943(18) 0.32763(19)
C13 C 0.2677(3) 0.5736(2) 0.4209(2)
H16 H 0.2473 0.5286 0.4681
H17 H 0.3513 0.5746 0.4142
C14 C 0.1300(2) 0.63598(19) 0.30549(19)
C15 C 0.1471(2) 0.70285(18) 0.38005(18)
C16 C 0.2224(2) 0.6686(2) 0.4458(2)
C17 C 0.2477(2) 0.7193(2) 0.5247(2)
H18 H 0.2979 0.6958 0.5692
C18 C 0.1966(3) 0.8055(2) 0.5359(2)
C19 C 0.1192(2) 0.8410(2) 0.4676(2)
C20 C 0.0942(2) 0.78967(19) 0.3899(2)
H19 H 0.0435 0.8121 0.3451
C21 C 0.2959(3) 0.5330(2) 0.2503(2)
C22 C 0.3751(3) 0.4481(2) 0.2654(2)
C23 C 0.4933(4) 0.3347(4) 0.1903(4)
H20 H 0.4660 0.2910 0.2365
H21 H 0.4951 0.3034 0.1309
C24 C 0.6050(5) 0.3657(5) 0.2135(5)
H22 H 0.6247 0.4183 0.1760
H23 H 0.6598 0.3168 0.2028
H24 H 0.6068 0.3831 0.2776
C25 C 0.0118(3) 0.9716(2) 0.4173(3)
H25 H 0.0597 0.9789 0.3635
H26 H -0.0125 1.0315 0.4390
H27 H -0.0551 0.9353 0.4018
C26 C 0.3007(4) 0.8354(3) 0.6748(2)
H28 H 0.2813 0.7770 0.7027
H29 H 0.3066 0.8821 0.7218
H30 H 0.3735 0.8299 0.6431
F1 F 0.24344(17) 0.52609(16) 0.16705(12)
F2 F 0.36632(18) 0.60888(15) 0.24381(16)
O1 O 0.04827(17) 0.48602(13) 0.39922(14)
O2 O 0.1388(2) 0.39519(17) 0.29409(19)
O3 O 0.06587(19) 0.64082(16) 0.24049(14)
O4 O 0.3964(3) 0.4186(2) 0.34032(19)
O5 O 0.4139(3) 0.4157(2) 0.1858(2)
O6 O 0.0755(2) 0.92620(16) 0.48770(17)
O7 O 0.2128(2) 0.86068(17) 0.61033(15)
loop_
_geom_bond_atom_site_label_1
_geom_bond_atom_site_label_2
_geom_bond_site_symmetry_1
_geom_bond_site_symmetry_2
C1 C2 1_555 1_555
C2 H1 1_555 1_555
H2 C2 1_555 1_555
C3 C2 1_555 1_555
H3 C3 1_555 1_555
C4 C3 1_555 1_555
H4 C4 1_555 1_555
H5 C4 1_555 1_555
C5 C4 1_555 1_555
H6 C5 1_555 1_555
C6 C1 1_555 1_555
H7 C6 1_555 1_555
H8 C6 1_555 1_555
C7 C1 1_555 1_555
H9 C7 1_555 1_555
H10 C7 1_555 1_555
C8 C7 1_555 1_555
H11 C8 1_555 1_555
C9 C5 1_555 1_555
H12 C9 1_555 1_555
H13 C9 1_555 1_555
C10 C3 1_555 1_555
H14 C10 1_555 1_555
H15 C10 1_555 1_555
C11 C12 1_555 1_555
C12 C13 1_555 1_555
C13 H16 1_555 1_555
H17 C13 1_555 1_555
C14 C12 1_555 1_555
C15 C14 1_555 1_555
C16 C13 1_555 1_555
C17 C16 1_555 1_555
H18 C17 1_555 1_555
C18 C17 1_555 1_555
C19 C18 1_555 1_555
C20 C15 1_555 1_555
H19 C20 1_555 1_555
C21 C12 1_555 1_555
C22 C21 1_555 1_555
C23 H20 1_555 1_555
H21 C23 1_555 1_555
C24 C23 1_555 1_555
H22 C24 1_555 1_555
H23 C24 1_555 1_555
H24 C24 1_555 1_555
C25 H25 1_555 1_555
H26 C25 1_555 1_555
H27 C25 1_555 1_555
C26 H28 1_555 1_555
H29 C26 1_555 1_555
H30 C26 1_555 1_555
F1 C21 1_555 1_555
F2 C21 1_555 1_555
O1 C1 1_555 1_555
O2 C11 1_555 1_555
O3 C14 1_555 1_555
O4 C22 1_555 1_555
O5 C22 1_555 1_555
O6 C19 1_555 1_555
O7 C18 1_555 1_555
C5 C6 1_555 1_555
C8 C9 1_555 1_555
C8 C10 1_555 1_555
C11 O1 1_555 1_555
C15 C16 1_555 1_555
C19 C20 1_555 1_555
C23 O5 1_555 1_555
C25 O6 1_555 1_555
C26 O7 1_555 1_555

#END
