
#######################################################################
#
#                 Cambridge Crystallographic Data Centre
#                                CCDC 
#
#######################################################################
#
# If this CIF has been generated from an entry in the Cambridge 
# Structural Database, then it will include bibliographic, chemical, 
# crystal, experimental, refinement or atomic coordinate data resulting 
# from the CCDC's data processing and validation procedures.
#
#######################################################################

data_MESGID
_chemical_formula_moiety         'C105 H81 N9 O6'
_chemical_name_systematic        
'2,20,38-tris(bis(4-methylphenyl)methylene)-7,15,25,33,43,51,57,62,67-nonaazadecacyclo[50.2.2.2^3,6^.2^16,19^.2^21,24^.2^34,37^.2^39,42^.1^9,13^.1^27,31^.1^45,49^]nonahexaconta-1(54),3,5,9(67),10,12,16,18,21,23,27(62),28,30,34,36,39,41,45(57),46,48,52,55,58,60,63,65,68-heptacosaene-8,14,26,32,44,50-hexone unknown solvate'
_symmetry_cell_setting           triclinic
_symmetry_space_group_name_H-M   'P -1'
_symmetry_Int_Tables_number      2
_space_group_name_Hall           '-P 1'
loop_
_symmetry_equiv_pos_site_id
_symmetry_equiv_pos_as_xyz
1 x,y,z
2 -x,-y,-z
_cell_length_a                   18.667(3)
_cell_length_b                   20.535(4)
_cell_length_c                   21.003(4)
_cell_angle_alpha                70.511(2)
_cell_angle_beta                 79.684(2)
_cell_angle_gamma                78.678(2)
_cell_volume                     7385.64
_exptl_crystal_colour            colorless
_exptl_crystal_description       block
_cell_formula_units_Z            2
_chemical_properties_physical    ', Efflorescent'
_exptl_crystal_recrystallization_method 'dimethyl sulfoxide'
_exptl_crystal_preparation       ', Luminescent'
loop_
_atom_site_label
_atom_site_type_symbol
_atom_site_fract_x
_atom_site_fract_y
_atom_site_fract_z
N1 N 0.8901(2) 0.97412(18) 0.06397(17)
H1 H 0.8943 0.9333 0.0936
N2 N 0.9433(2) 0.68864(19) -0.20701(18)
H2 H 0.9072 0.6660 -0.2014
N3 N 0.8412(2) 0.48108(18) -0.12093(16)
N4 N 0.5197(2) 0.36919(19) 0.28346(17)
H3 H 0.5543 0.3824 0.2960
N5 N 0.6364(2) 0.43911(18) 0.41476(18)
H4 H 0.6250 0.4346 0.3787
N6 N 0.9257(2) 0.80791(19) 0.27201(18)
H5 H 0.9212 0.8251 0.2293
N7 N 0.9087(2) 0.94365(19) 0.19681(18)
N8 N 0.9627(2) 0.54576(18) -0.17134(16)
N9 N 0.5182(2) 0.38982(18) 0.40403(17)
O1 O 0.8888(2) 1.09013(18) 0.04793(18)
O2 O 1.0683(2) 0.68494(18) -0.23309(17)
O3 O 0.91429(19) 0.37569(18) -0.10193(18)
O4 O 0.40822(19) 0.32926(17) 0.32031(15)
O5 O 0.58810(18) 0.44225(18) 0.52112(17)
O6 O 0.9425(2) 0.83588(17) 0.36190(18)
C1 C 0.8904(3) 1.0288(2) 0.0861(2)
C2 C 0.8837(2) 0.9775(2) -0.0038(2)
C3 C 0.8447(3) 0.9325(2) -0.0126(2)
H6 H 0.8207 0.9025 0.0253
C4 C 0.8400(3) 0.9304(2) -0.0756(2)
H7 H 0.8142 0.8980 -0.0798
C5 C 0.8730(2) 0.9757(2) -0.1344(2)
C6 C 0.9125(2) 1.0232(2) -0.1252(2)
H8 H 0.9343 1.0552 -0.1627
C7 C 0.9187(2) 1.0218(2) -0.0599(2)
H9 H 0.9471 1.0514 -0.0540
C8 C 0.8715(3) 0.9700(2) -0.2030(2)
C9 C 0.8550(2) 1.0271(2) -0.2573(2)
C10 C 0.8293(3) 1.0978(2) -0.2505(2)
C11 C 0.7667(3) 1.1116(2) -0.2056(2)
H10 H 0.7397 1.0760 -0.1797
C12 C 0.7453(3) 1.1795(3) -0.2001(2)
H11 H 0.7038 1.1878 -0.1705
C13 C 0.7819(3) 1.2318(2) -0.2355(2)
C14 C 0.8441(3) 1.2192(2) -0.2779(2)
H12 H 0.8718 1.2550 -0.3012
C15 C 0.8664(3) 1.1538(2) -0.2868(2)
H13 H 0.9074 1.1474 -0.3178
C16 C 0.7571(3) 1.3042(3) -0.2287(3)
H14 H 0.7301 1.3326 -0.2657
H15 H 0.7994 1.3248 -0.2296
H16 H 0.7261 1.3010 -0.1864
C17 C 0.8628(3) 1.0239(2) -0.3278(2)
C18 C 0.9212(3) 0.9868(2) -0.3573(2)
H17 H 0.9601 0.9626 -0.3326
C19 C 0.9232(3) 0.9846(2) -0.4225(2)
H18 H 0.9637 0.9591 -0.4406
C20 C 0.8688(3) 1.0182(2) -0.4609(2)
C21 C 0.8085(3) 1.0573(3) -0.4334(3)
H19 H 0.7702 1.0812 -0.4590
C22 C 0.8060(3) 1.0604(2) -0.3689(2)
H20 H 0.7661 1.0872 -0.3516
C23 C 0.8743(4) 1.0143(3) -0.5336(3)
H21 H 0.8938 0.9675 -0.5340
H22 H 0.9063 1.0458 -0.5638
H23 H 0.8262 1.0270 -0.5483
C24 C 0.8888(2) 0.8974(2) -0.2060(2)
C25 C 0.9476(3) 0.8550(2) -0.1778(2)
H24 H 0.9756 0.8725 -0.1566
C26 C 0.9685(3) 0.7866(2) -0.1790(2)
H25 H 1.0101 0.7595 -0.1601
C27 C 0.9259(3) 0.7596(2) -0.2089(2)
C28 C 0.8659(3) 0.7998(2) -0.2377(2)
H26 H 0.8377 0.7818 -0.2582
C29 C 0.8470(2) 0.8691(2) -0.2359(2)
H27 H 0.8057 0.8966 -0.2552
C30 C 1.0138(3) 0.6532(3) -0.2135(2)
C31 C 1.0231(3) 0.5771(2) -0.1971(2)
C32 C 1.0916(3) 0.5412(2) -0.2035(2)
H28 H 1.1319 0.5652 -0.2198
C33 C 1.1022(3) 0.4704(3) -0.1864(2)
H29 H 1.1489 0.4454 -0.1922
C34 C 1.0408(3) 0.4365(2) -0.1599(2)
H30 H 1.0457 0.3881 -0.1469
C35 C 0.9730(3) 0.4753(2) -0.1531(2)
C36 C 0.9064(3) 0.4411(2) -0.1231(2)
C37 C 0.7729(2) 0.4552(2) -0.09201(19)
C38 C 0.7205(3) 0.4922(2) -0.0566(2)
H31 H 0.7284 0.5343 -0.0535
C39 C 0.6545(3) 0.4646(2) -0.0249(2)
H32 H 0.6200 0.4882 0.0007
C40 C 0.6399(2) 0.4038(2) -0.0310(2)
C41 C 0.6928(2) 0.3699(2) -0.0688(2)
H33 H 0.6837 0.3294 -0.0746
C42 C 0.7601(2) 0.3944(2) -0.0989(2)
H34 H 0.7953 0.3699 -0.1231
C43 C 0.5740(2) 0.3716(2) 0.0062(2)
C44 C 0.5310(3) 0.3482(2) -0.0249(2)
C45 C 0.5364(3) 0.3637(3) -0.0995(2)
C46 C 0.5406(3) 0.4288(3) -0.1434(2)
H35 H 0.5429 0.4644 -0.1260
C47 C 0.5415(3) 0.4447(3) -0.2124(2)
H36 H 0.5451 0.4901 -0.2404
C48 C 0.5373(3) 0.3950(3) -0.2399(2)
C49 C 0.5372(3) 0.3268(3) -0.1972(2)
H37 H 0.5384 0.2913 -0.2159
C50 C 0.5355(3) 0.3103(3) -0.1271(2)
H38 H 0.5338 0.2646 -0.0990
C51 C 0.5365(3) 0.4123(3) -0.3166(2)
H39 H 0.4910 0.4033 -0.3248
H40 H 0.5769 0.3838 -0.3343
H41 H 0.5412 0.4607 -0.3387
C52 C 0.4741(3) 0.3027(3) 0.0151(3)
C53 C 0.4028(4) 0.3193(4) 0.0003(3)
H42 H 0.3886 0.3610 -0.0327
C54 C 0.3502(5) 0.2730(6) 0.0352(4)
H43 H 0.3014 0.2841 0.0266
C55 C 0.3760(5) 0.2098(5) 0.0831(4)
C56 C 0.4409(5) 0.1944(4) 0.0985(4)
H44 H 0.4543 0.1530 0.1322
C57 C 0.4923(3) 0.2390(3) 0.0651(3)
H45 H 0.5402 0.2263 0.0762
C58 C 0.3138(5) 0.1593(5) 0.1230(4)
H46 H 0.3368 0.1163 0.1521
H47 H 0.2908 0.1496 0.0904
H48 H 0.2773 0.1823 0.1500
C59 C 0.5576(3) 0.3670(2) 0.0790(2)
C60 C 0.4862(3) 0.3875(2) 0.1103(2)
H49 H 0.4472 0.4027 0.0843
C61 C 0.4730(3) 0.3858(2) 0.1763(2)
H50 H 0.4253 0.3981 0.1951
C62 C 0.5298(3) 0.3660(2) 0.2161(2)
C63 C 0.5992(3) 0.3464(2) 0.1878(2)
H51 H 0.6375 0.3314 0.2145
C64 C 0.6136(3) 0.3484(2) 0.1204(2)
H52 H 0.6618 0.3370 0.1023
C65 C 0.4588(3) 0.3529(2) 0.3307(2)
C66 C 0.4614(2) 0.3626(2) 0.3973(2)
C67 C 0.4061(3) 0.3440(2) 0.4488(2)
H53 H 0.3671 0.3256 0.4425
C68 C 0.4089(3) 0.3530(2) 0.5116(2)
H54 H 0.3729 0.3392 0.5480
C69 C 0.4661(3) 0.3827(2) 0.5184(2)
H55 H 0.4680 0.3918 0.5585
C70 C 0.5205(2) 0.3986(2) 0.4638(2)
C71 C 0.5854(2) 0.4292(2) 0.4692(2)
C72 C 0.7078(2) 0.4564(2) 0.41042(19)
C73 C 0.7203(2) 0.5060(2) 0.4366(2)
H56 H 0.6815 0.5276 0.4605
C74 C 0.7880(3) 0.5236(2) 0.4279(2)
H57 H 0.7946 0.5577 0.4454
C75 C 0.8488(2) 0.4923(2) 0.39328(19)
C76 C 0.8350(2) 0.4420(2) 0.3678(2)
H58 H 0.8738 0.4199 0.3443
C77 C 0.7663(3) 0.4241(2) 0.3760(2)
H59 H 0.7590 0.3903 0.3585
C78 C 0.9234(3) 0.5124(2) 0.3838(2)
C79 C 0.9859(2) 0.4648(2) 0.39523(19)
C80 C 0.9798(2) 0.3894(2) 0.4253(2)
C81 C 1.0171(2) 0.3418(2) 0.3923(2)
H60 H 1.0465 0.3577 0.3513
C82 C 1.0118(3) 0.2719(2) 0.4185(2)
H61 H 1.0361 0.2425 0.3935
C83 C 0.9731(3) 0.2443(2) 0.4784(2)
C84 C 0.9381(3) 0.2894(2) 0.5136(2)
H62 H 0.9121 0.2716 0.5562
C85 C 0.9404(2) 0.3617(2) 0.4874(2)
H63 H 0.9150 0.3910 0.5123
C86 C 0.9687(3) 0.1669(2) 0.5103(3)
H64 H 0.9956 0.1421 0.4799
H65 H 0.9181 0.1597 0.5187
H66 H 0.9895 0.1500 0.5525
C87 C 1.0613(2) 0.4802(2) 0.3759(2)
C88 C 1.0865(3) 0.5165(2) 0.3095(2)
H67 H 1.0538 0.5351 0.2771
C89 C 1.1613(3) 0.5254(2) 0.2905(2)
H68 H 1.1771 0.5490 0.2455
C90 C 1.2106(3) 0.5005(2) 0.3362(2)
C91 C 1.1854(3) 0.4664(2) 0.4014(2)
H69 H 1.2183 0.4491 0.4337
C92 C 1.1117(3) 0.4562(2) 0.4217(2)
H70 H 1.0967 0.4328 0.4669
C93 C 1.2912(3) 0.5060(3) 0.3162(2)
H71 H 1.3169 0.4634 0.3085
H72 H 1.3106 0.5137 0.3520
H73 H 1.2976 0.5443 0.2752
C94 C 0.9258(2) 0.5902(2) 0.3553(2)
C95 C 0.8837(2) 0.6312(2) 0.3043(2)
H74 H 0.8538 0.6101 0.2885
C96 C 0.8846(2) 0.7020(2) 0.2761(2)
H75 H 0.8569 0.7277 0.2408
C97 C 0.9270(3) 0.7348(2) 0.3006(2)
C98 C 0.9689(2) 0.6944(2) 0.3536(2)
H76 H 0.9975 0.7154 0.3709
C99 C 0.9673(2) 0.6231(2) 0.3800(2)
H77 H 0.9948 0.5967 0.4153
C100 C 0.9304(3) 0.8527(2) 0.3032(2)
C101 C 0.9158(2) 0.9287(2) 0.2622(2)
C102 C 0.9121(3) 0.9792(2) 0.2949(2)
H78 H 0.9177 0.9663 0.3408
C103 C 0.8997(3) 1.0496(3) 0.2558(3)
H79 H 0.8973 1.0848 0.2750
C104 C 0.8911(3) 1.0655(2) 0.1878(2)
H80 H 0.8811 1.1118 0.1613
C105 C 0.8973(3) 1.0121(2) 0.1592(2)
loop_
_geom_bond_atom_site_label_1
_geom_bond_atom_site_label_2
_geom_bond_site_symmetry_1
_geom_bond_site_symmetry_2
N1 H1 1_555 1_555
N2 H2 1_555 1_555
N3 C36 1_555 1_555
N4 H3 1_555 1_555
N5 H4 1_555 1_555
N6 H5 1_555 1_555
N7 C101 1_555 1_555
N8 C31 1_555 1_555
N9 C66 1_555 1_555
O1 C1 1_555 1_555
O2 C30 1_555 1_555
O3 C36 1_555 1_555
O4 C65 1_555 1_555
O5 C71 1_555 1_555
O6 C100 1_555 1_555
C1 N1 1_555 1_555
C2 N1 1_555 1_555
C3 C2 1_555 1_555
H6 C3 1_555 1_555
C4 C3 1_555 1_555
H7 C4 1_555 1_555
C5 C4 1_555 1_555
C6 C5 1_555 1_555
H8 C6 1_555 1_555
C7 C2 1_555 1_555
H9 C7 1_555 1_555
C8 C5 1_555 1_555
C9 C8 1_555 1_555
C10 C9 1_555 1_555
C11 C10 1_555 1_555
H10 C11 1_555 1_555
C12 C11 1_555 1_555
H11 C12 1_555 1_555
C13 C12 1_555 1_555
C14 C13 1_555 1_555
H12 C14 1_555 1_555
C15 C10 1_555 1_555
H13 C15 1_555 1_555
C16 C13 1_555 1_555
H14 C16 1_555 1_555
H15 C16 1_555 1_555
H16 C16 1_555 1_555
C17 C9 1_555 1_555
C18 C17 1_555 1_555
H17 C18 1_555 1_555
C19 C18 1_555 1_555
H18 C19 1_555 1_555
C20 C19 1_555 1_555
C21 C20 1_555 1_555
H19 C21 1_555 1_555
C22 C17 1_555 1_555
H20 C22 1_555 1_555
C23 C20 1_555 1_555
H21 C23 1_555 1_555
H22 C23 1_555 1_555
H23 C23 1_555 1_555
C24 C8 1_555 1_555
C25 C24 1_555 1_555
H24 C25 1_555 1_555
C26 C25 1_555 1_555
H25 C26 1_555 1_555
C27 N2 1_555 1_555
C28 C27 1_555 1_555
H26 C28 1_555 1_555
C29 C24 1_555 1_555
H27 C29 1_555 1_555
C30 N2 1_555 1_555
C31 C30 1_555 1_555
C32 C31 1_555 1_555
H28 C32 1_555 1_555
C33 C32 1_555 1_555
H29 C33 1_555 1_555
C34 C33 1_555 1_555
H30 C34 1_555 1_555
C35 N8 1_555 1_555
C36 C35 1_555 1_555
C37 N3 1_555 1_555
C38 C37 1_555 1_555
H31 C38 1_555 1_555
C39 C38 1_555 1_555
H32 C39 1_555 1_555
C40 C39 1_555 1_555
C41 C40 1_555 1_555
H33 C41 1_555 1_555
C42 C37 1_555 1_555
H34 C42 1_555 1_555
C43 C40 1_555 1_555
C44 C43 1_555 1_555
C45 C44 1_555 1_555
C46 C45 1_555 1_555
H35 C46 1_555 1_555
C47 C46 1_555 1_555
H36 C47 1_555 1_555
C48 C47 1_555 1_555
C49 C48 1_555 1_555
H37 C49 1_555 1_555
C50 C45 1_555 1_555
H38 C50 1_555 1_555
C51 C48 1_555 1_555
H39 C51 1_555 1_555
H40 C51 1_555 1_555
H41 C51 1_555 1_555
C52 C44 1_555 1_555
C53 C52 1_555 1_555
H42 C53 1_555 1_555
C54 C53 1_555 1_555
H43 C54 1_555 1_555
C55 C54 1_555 1_555
C56 C55 1_555 1_555
H44 C56 1_555 1_555
C57 C52 1_555 1_555
H45 C57 1_555 1_555
C58 C55 1_555 1_555
H46 C58 1_555 1_555
H47 C58 1_555 1_555
H48 C58 1_555 1_555
C59 C43 1_555 1_555
C60 C59 1_555 1_555
H49 C60 1_555 1_555
C61 C60 1_555 1_555
H50 C61 1_555 1_555
C62 N4 1_555 1_555
C63 C62 1_555 1_555
H51 C63 1_555 1_555
C64 C59 1_555 1_555
H52 C64 1_555 1_555
C65 N4 1_555 1_555
C66 C65 1_555 1_555
C67 C66 1_555 1_555
H53 C67 1_555 1_555
C68 C67 1_555 1_555
H54 C68 1_555 1_555
C69 C68 1_555 1_555
H55 C69 1_555 1_555
C70 N9 1_555 1_555
C71 N5 1_555 1_555
C72 N5 1_555 1_555
C73 C72 1_555 1_555
H56 C73 1_555 1_555
C74 C73 1_555 1_555
H57 C74 1_555 1_555
C75 C74 1_555 1_555
C76 C75 1_555 1_555
H58 C76 1_555 1_555
C77 C72 1_555 1_555
H59 C77 1_555 1_555
C78 C75 1_555 1_555
C79 C78 1_555 1_555
C80 C79 1_555 1_555
C81 C80 1_555 1_555
H60 C81 1_555 1_555
C82 C81 1_555 1_555
H61 C82 1_555 1_555
C83 C82 1_555 1_555
C84 C83 1_555 1_555
H62 C84 1_555 1_555
C85 C80 1_555 1_555
H63 C85 1_555 1_555
C86 C83 1_555 1_555
H64 C86 1_555 1_555
H65 C86 1_555 1_555
H66 C86 1_555 1_555
C87 C79 1_555 1_555
C88 C87 1_555 1_555
H67 C88 1_555 1_555
C89 C88 1_555 1_555
H68 C89 1_555 1_555
C90 C89 1_555 1_555
C91 C90 1_555 1_555
H69 C91 1_555 1_555
C92 C87 1_555 1_555
H70 C92 1_555 1_555
C93 C90 1_555 1_555
H71 C93 1_555 1_555
H72 C93 1_555 1_555
H73 C93 1_555 1_555
C94 C78 1_555 1_555
C95 C94 1_555 1_555
H74 C95 1_555 1_555
C96 C95 1_555 1_555
H75 C96 1_555 1_555
C97 N6 1_555 1_555
C98 C97 1_555 1_555
H76 C98 1_555 1_555
C99 C94 1_555 1_555
H77 C99 1_555 1_555
C100 N6 1_555 1_555
C101 C100 1_555 1_555
C102 C101 1_555 1_555
H78 C102 1_555 1_555
C103 C102 1_555 1_555
H79 C103 1_555 1_555
C104 C103 1_555 1_555
H80 C104 1_555 1_555
C105 N7 1_555 1_555
C1 C105 1_555 1_555
C6 C7 1_555 1_555
C14 C15 1_555 1_555
C21 C22 1_555 1_555
C26 C27 1_555 1_555
C28 C29 1_555 1_555
C34 C35 1_555 1_555
C41 C42 1_555 1_555
C49 C50 1_555 1_555
C56 C57 1_555 1_555
C61 C62 1_555 1_555
C63 C64 1_555 1_555
C69 C70 1_555 1_555
C70 C71 1_555 1_555
C76 C77 1_555 1_555
C84 C85 1_555 1_555
C91 C92 1_555 1_555
C96 C97 1_555 1_555
C98 C99 1_555 1_555
C104 C105 1_555 1_555

#END
