
#######################################################################
#
#                 Cambridge Crystallographic Data Centre
#                                CCDC 
#
#######################################################################
#
# If this CIF has been generated from an entry in the Cambridge 
# Structural Database, then it will include bibliographic, chemical, 
# crystal, experimental, refinement or atomic coordinate data resulting 
# from the CCDC's data processing and validation procedures.
#
#######################################################################

data_MESHEY
_chemical_formula_moiety         'C17 H17 N1 O1 S2'
_chemical_name_systematic        
'Thiobenzoyl-(p-tolyl)thiocarbamic acid O-ethyl ester'
_symmetry_cell_setting           triclinic
_symmetry_space_group_name_H-M   'P -1'
_symmetry_Int_Tables_number      2
_space_group_name_Hall           '-P 1'
loop_
_symmetry_equiv_pos_site_id
_symmetry_equiv_pos_as_xyz
1 x,y,z
2 -x,-y,-z
_cell_length_a                   8.291(3)
_cell_length_b                   10.008(3)
_cell_length_c                   10.083(3)
_cell_angle_alpha                86.098(4)
_cell_angle_beta                 77.008(4)
_cell_angle_gamma                77.293(4)
_cell_volume                     795.114
_exptl_crystal_colour            pink
_exptl_crystal_description       plate
_cell_formula_units_Z            2
loop_
_atom_site_label
_atom_site_type_symbol
_atom_site_fract_x
_atom_site_fract_y
_atom_site_fract_z
S1 S 0.79886(10) 0.73352(10) 0.11355(8)
C1 C 0.5937(4) 0.7465(3) 0.1673(3)
C2 C 0.4868(3) 0.7296(3) 0.0726(3)
C3 C 0.5068(4) 0.7942(3) -0.0545(3)
H1 H 0.5841 0.8537 -0.0783
C4 C 0.4143(4) 0.7724(4) -0.1468(3)
H2 H 0.4272 0.8178 -0.2332
C5 C 0.3042(4) 0.6849(4) -0.1133(3)
H3 H 0.2413 0.6700 -0.1769
C6 C 0.2843(4) 0.6185(3) 0.0122(3)
H4 H 0.2082 0.5579 0.0348
C7 C 0.3756(4) 0.6407(3) 0.1048(3)
H5 H 0.3622 0.5949 0.1910
N1 N 0.5184(3) 0.7632(2) 0.3064(2)
C8 C 0.6246(3) 0.7277(3) 0.4048(3)
C9 C 0.6711(4) 0.5920(3) 0.4439(3)
H6 H 0.6377 0.5223 0.4035
C10 C 0.7667(3) 0.5586(3) 0.5423(3)
H7 H 0.8000 0.4652 0.5679
C11 C 0.8148(3) 0.6585(3) 0.6043(3)
C12 C 0.9133(4) 0.6224(3) 0.7151(3)
H8 H 0.9580 0.5233 0.7167
H9 H 0.8385 0.6501 0.8032
H10 H 1.0073 0.6704 0.6974
C13 C 0.7687(4) 0.7937(3) 0.5610(3)
H11 H 0.8031 0.8635 0.6003
C14 C 0.6745(3) 0.8288(3) 0.4626(3)
H12 H 0.6441 0.9218 0.4347
C15 C 0.3472(3) 0.8187(3) 0.3581(3)
S2 S 0.25243(10) 0.80014(8) 0.51757(8)
O1 O 0.2758(2) 0.88979(19) 0.26271(19)
C16 C 0.0913(3) 0.9188(3) 0.2853(3)
H13 H 0.0399 0.9758 0.3667
H14 H 0.0493 0.8325 0.2990
C17 C 0.0477(4) 0.9939(4) 0.1605(3)
H15 H 0.0886 1.0796 0.1491
H16 H -0.0755 1.0146 0.1699
H17 H 0.1013 0.9369 0.0807
loop_
_geom_bond_atom_site_label_1
_geom_bond_atom_site_label_2
_geom_bond_site_symmetry_1
_geom_bond_site_symmetry_2
S1 C1 1_555 1_555
C1 C2 1_555 1_555
C2 C3 1_555 1_555
C3 H1 1_555 1_555
C4 C3 1_555 1_555
H2 C4 1_555 1_555
C5 C4 1_555 1_555
H3 C5 1_555 1_555
C6 C5 1_555 1_555
H4 C6 1_555 1_555
C7 C2 1_555 1_555
H5 C7 1_555 1_555
N1 C1 1_555 1_555
C8 N1 1_555 1_555
C9 C8 1_555 1_555
H6 C9 1_555 1_555
C10 C9 1_555 1_555
H7 C10 1_555 1_555
C11 C10 1_555 1_555
C12 C11 1_555 1_555
H8 C12 1_555 1_555
H9 C12 1_555 1_555
H10 C12 1_555 1_555
C13 C11 1_555 1_555
H11 C13 1_555 1_555
C14 C8 1_555 1_555
H12 C14 1_555 1_555
C15 N1 1_555 1_555
S2 C15 1_555 1_555
O1 C15 1_555 1_555
C16 O1 1_555 1_555
H13 C16 1_555 1_555
H14 C16 1_555 1_555
C17 C16 1_555 1_555
H15 C17 1_555 1_555
H16 C17 1_555 1_555
H17 C17 1_555 1_555
C6 C7 1_555 1_555
C13 C14 1_555 1_555

#END
