
#######################################################################
#
#                 Cambridge Crystallographic Data Centre
#                                CCDC 
#
#######################################################################
#
# If this CIF has been generated from an entry in the Cambridge 
# Structural Database, then it will include bibliographic, chemical, 
# crystal, experimental, refinement or atomic coordinate data resulting 
# from the CCDC's data processing and validation procedures.
#
#######################################################################

data_MESHIC
_chemical_formula_moiety         'C25 H25 N1 Se1'
_chemical_name_systematic        
'(Z)-4-Methyl-N-((2-pent-1-enyl)phenyl)selenobenzimidic acid phenyl ester'
_symmetry_cell_setting           triclinic
_symmetry_space_group_name_H-M   'P -1'
_symmetry_Int_Tables_number      2
_space_group_name_Hall           '-P 1'
loop_
_symmetry_equiv_pos_site_id
_symmetry_equiv_pos_as_xyz
1 x,y,z
2 -x,-y,-z
_cell_length_a                   7.4658(4)
_cell_length_b                   10.2919(6)
_cell_length_c                   13.7980(7)
_cell_angle_alpha                91.041(2)
_cell_angle_beta                 97.163(2)
_cell_angle_gamma                90.451(2)
_cell_volume                     1051.7
_exptl_crystal_colour            yellow
_exptl_crystal_description       block
_cell_formula_units_Z            2
loop_
_atom_site_label
_atom_site_type_symbol
_atom_site_fract_x
_atom_site_fract_y
_atom_site_fract_z
C1 C 0.5475(3) 0.1298(2) 0.30806(16)
C2 C 0.4484(3) 0.0130(2) 0.30745(19)
C3 C 0.5151(4) -0.0817(2) 0.3741(2)
H1 H 0.4516 -0.1619 0.3749
C4 C 0.6687(4) -0.0620(2) 0.43785(19)
H2 H 0.7102 -0.1278 0.4823
C5 C 0.7632(4) 0.0533(2) 0.43759(18)
H3 H 0.8697 0.0673 0.4820
C6 C 0.7030(3) 0.1487(2) 0.37265(17)
H4 H 0.7689 0.2279 0.3724
N1 N 0.4925(3) 0.22486(17) 0.23767(13)
C7 C 0.4181(3) 0.32975(19) 0.25984(14)
C8 C 0.3645(3) 0.42648(19) 0.18359(14)
C9 C 0.3004(3) 0.3830(2) 0.08946(16)
H5 H 0.2899 0.2923 0.0755
C10 C 0.2519(3) 0.4704(3) 0.01612(17)
H6 H 0.2074 0.4389 -0.0476
C11 C 0.2674(3) 0.6037(2) 0.03405(17)
C12 C 0.3328(3) 0.6460(2) 0.12776(18)
H7 H 0.3461 0.7366 0.1414
C13 C 0.3794(3) 0.5592(2) 0.20217(16)
H8 H 0.4217 0.5908 0.2661
C14 C 0.2150(4) 0.6992(3) -0.0459(2)
H9 H 0.3132 0.7072 -0.0865
H10 H 0.1927 0.7842 -0.0168
H11 H 0.1052 0.6683 -0.0864
Se1 Se 0.37486(3) 0.36677(2) 0.393836(15)
C15 C 0.1613(3) 0.4694(2) 0.37088(15)
C16 C 0.0151(3) 0.4279(2) 0.30594(16)
H12 H 0.0210 0.3489 0.2699
C17 C -0.1403(3) 0.5021(2) 0.29361(19)
H13 H -0.2399 0.4749 0.2479
C18 C -0.1503(3) 0.6154(2) 0.3478(2)
H14 H -0.2567 0.6660 0.3394
C19 C -0.0059(3) 0.6549(2) 0.4142(2)
H15 H -0.0144 0.7317 0.4525
C20 C 0.1519(3) 0.5832(2) 0.42545(18)
H16 H 0.2523 0.6118 0.4700
C21 C 0.2825(4) -0.0049(3) 0.2406(3)
H17 H 0.2655 0.0598 0.1921
C22 C 0.1498(8) -0.0930(6) 0.2333(7)
H19 H 0.1491 -0.1526 0.2850
C23 C 0.0008(7) -0.1052(6) 0.1493(4)
H20 H 0.0360 -0.0586 0.0924
H21 H -0.0187 -0.1980 0.1303
C24 C -0.1695(7) -0.0499(6) 0.1774(4)
H22 H -0.1545 0.0437 0.1944
H23 H -0.2083 -0.0960 0.2337
C25 C -0.3039(6) -0.0710(4) 0.0869(3)
H24 H -0.4215 -0.0365 0.0988
H25 H -0.3159 -0.1641 0.0714
H26 H -0.2616 -0.0258 0.0320
H18? H 0.2689 0.0314 0.1773
H27? H -0.3429 -0.0176 0.0302
H28? H -0.3852 -0.0574 0.1367
H29? H -0.3070 -0.1628 0.0668
C26? C 0.1462(9) -0.0767(8) 0.2732(6)
H30? H 0.1699 -0.1081 0.3378
C27? C -0.0366(8) -0.1117(6) 0.2184(4)
H31? H -0.0346 -0.2031 0.1949
H32? H -0.1286 -0.1053 0.2640
C28? C -0.0907(8) -0.0279(7) 0.1339(5)
H33? H -0.0076 -0.0399 0.0839
H34? H -0.0862 0.0646 0.1551
loop_
_geom_bond_atom_site_label_1
_geom_bond_atom_site_label_2
_geom_bond_site_symmetry_1
_geom_bond_site_symmetry_2
C1 C2 1_555 1_555
C2 C3 1_555 1_555
C3 H1 1_555 1_555
C4 C3 1_555 1_555
H2 C4 1_555 1_555
C5 C4 1_555 1_555
H3 C5 1_555 1_555
C6 C1 1_555 1_555
H4 C6 1_555 1_555
N1 C1 1_555 1_555
C7 N1 1_555 1_555
C8 C7 1_555 1_555
C9 C8 1_555 1_555
H5 C9 1_555 1_555
C10 C9 1_555 1_555
H6 C10 1_555 1_555
C11 C10 1_555 1_555
C12 C11 1_555 1_555
H7 C12 1_555 1_555
C13 C8 1_555 1_555
H8 C13 1_555 1_555
C14 C11 1_555 1_555
H9 C14 1_555 1_555
H10 C14 1_555 1_555
H11 C14 1_555 1_555
Se1 C7 1_555 1_555
C15 Se1 1_555 1_555
C16 C15 1_555 1_555
H12 C16 1_555 1_555
C17 C16 1_555 1_555
H13 C17 1_555 1_555
C18 C17 1_555 1_555
H14 C18 1_555 1_555
C19 C18 1_555 1_555
H15 C19 1_555 1_555
C20 C15 1_555 1_555
H16 C20 1_555 1_555
C21 C2 1_555 1_555
H17 C21 1_555 1_555
C22 C21 1_555 1_555
H19 C22 1_555 1_555
C23 C22 1_555 1_555
H20 C23 1_555 1_555
H21 C23 1_555 1_555
C24 C23 1_555 1_555
H22 C24 1_555 1_555
H23 C24 1_555 1_555
C25 C24 1_555 1_555
H24 C25 1_555 1_555
H25 C25 1_555 1_555
H26 C25 1_555 1_555
C5 C6 1_555 1_555
C12 C13 1_555 1_555
C19 C20 1_555 1_555

#END
