
#######################################################################
#
#                 Cambridge Crystallographic Data Centre
#                                CCDC 
#
#######################################################################
#
# If this CIF has been generated from an entry in the Cambridge 
# Structural Database, then it will include bibliographic, chemical, 
# crystal, experimental, refinement or atomic coordinate data resulting 
# from the CCDC's data processing and validation procedures.
#
#######################################################################

data_MESKIE
_chemical_formula_moiety         'C36 H75 N16 3+,3(Cl1 O4 1-),2(H2 O1)'
_chemical_name_systematic        
'7,26-Diaza-1,13-diazonia-4,10,16,21(1,3,5)-tetrakis(1,3,5-triazacyclohexana)-pentacyclo(11.5.5.5^4,10^.2^7,21^.2^16,26^)dotriacosaphane triperchlorate dihydrate clathrate'
_symmetry_cell_setting           monoclinic
_symmetry_space_group_name_H-M   'P 21'
_symmetry_Int_Tables_number      4
_space_group_name_Hall           'P 2yb'
loop_
_symmetry_equiv_pos_site_id
_symmetry_equiv_pos_as_xyz
1 x,y,z
2 -x,1/2+y,-z
_cell_length_a                   11.483(2)
_cell_length_b                   16.512(3)
_cell_length_c                   13.051(3)
_cell_angle_alpha                90
_cell_angle_beta                 94.82(3)
_cell_angle_gamma                90
_cell_volume                     2465.81
_exptl_crystal_colour            'pale yellow'
_exptl_crystal_description       block
_cell_formula_units_Z            2
loop_
_atom_site_label
_atom_site_type_symbol
_atom_site_fract_x
_atom_site_fract_y
_atom_site_fract_z
O1 O 0.7318(3) 1.0888(2) 0.3392(3)
H1 H 0.7942 1.0774 0.3919
H2 H 0.7376 1.0506 0.2833
O2 O 0.7751(3) 0.9924(2) 0.1678(3)
H3 H 0.7326 1.0158 0.1075
H4 H 0.7476 0.9372 0.1742
N1 N 0.6895(4) 0.9722(3) 0.5295(4)
N2 N 0.9206(4) 1.0515(3) 0.5051(4)
N3 N 1.0796(4) 1.0838(3) 0.3991(4)
N4 N 0.9349(4) 1.1836(3) 0.4342(4)
N5 N 0.5127(4) 1.0865(3) 0.4253(4)
H5 H 0.5770 1.0673 0.3970
N6 N 0.5134(4) 1.1922(3) 0.3034(4)
N7 N 0.4028(4) 1.0720(3) 0.2595(4)
N8 N 0.7530(7) 0.8091(4) 0.3448(4)
N9 N 0.7004(4) 0.8304(3) 0.1625(3)
N10 N 0.9011(5) 0.8350(3) 0.2250(4)
N11 N 0.7458(4) 1.2637(3) 0.2811(4)
H6 H 0.7408 1.2114 0.3024
N12 N 0.5283(4) 0.9444(3) 0.0563(4)
N13 N 1.0417(4) 0.9728(4) 0.1458(5)
H7 H 0.9632 0.9801 0.1466
N14 N 0.7989(6) 1.1962(3) 0.0129(4)
N15 N 0.6830(4) 1.0750(3) -0.0232(4)
N16 N 0.8896(4) 1.0673(3) -0.0091(4)
C1 C 0.7691(6) 1.0007(4) 0.6165(5)
H8 H 0.7608 0.9657 0.6751
H9 H 0.7456 1.0548 0.6352
C2 C 0.8963(6) 1.0027(5) 0.5949(5)
H10 H 0.9417 1.0240 0.6550
H11 H 0.9223 0.9477 0.5844
C3 C 0.5648(6) 0.9811(5) 0.5565(5)
H12 H 0.5153 0.9432 0.5161
H13 H 0.5602 0.9684 0.6286
C4 C 0.5231(6) 1.0641(5) 0.5360(5)
H14 H 0.5765 1.1015 0.5730
H15 H 0.4473 1.0703 0.5627
C5 C 0.7142(6) 0.8892(4) 0.4952(5)
H16 H 0.6482 0.8543 0.5052
H17 H 0.7821 0.8678 0.5355
C6 C 0.7362(9) 0.8904(4) 0.3850(5)
H18 H 0.6705 0.9158 0.3459
H19 H 0.8052 0.9227 0.3763
C7 C 1.0461(5) 1.0389(4) 0.4844(5)
H20 H 1.0957 1.0544 0.5451
H21 H 1.0588 0.9818 0.4721
C8 C 1.0555(5) 1.1695(4) 0.4168(5)
H22 H 1.1049 1.1883 0.4760
H23 H 1.0750 1.2007 0.3576
C9 C 0.9085(5) 1.1399(4) 0.5241(4)
H24 H 0.8294 1.1520 0.5401
H25 H 0.9616 1.1561 0.5823
C10 C 0.9005(5) 1.2677(4) 0.4322(5)
H26 H 0.9658 1.3001 0.4608
H27 H 0.8369 1.2747 0.4760
C11 C 0.8617(5) 1.2991(4) 0.3256(4)
H28 H 0.9215 1.2864 0.2798
H29 H 0.8546 1.3576 0.3285
C12 C 0.6468(5) 1.3112(4) 0.3195(6)
H30 H 0.6561 1.3116 0.3940
H31 H 0.6527 1.3667 0.2964
C13 C 0.5288(6) 1.2811(4) 0.2868(6)
H32 H 0.5116 1.2929 0.2143
H33 H 0.4725 1.3103 0.3243
C14 C 0.5099(5) 1.1745(4) 0.4115(5)
H34 H 0.4391 1.1966 0.4363
H35 H 0.5765 1.1990 0.4505
C15 C 0.4085(5) 1.1595(4) 0.2474(6)
H36 H 0.4089 1.1727 0.1750
H37 H 0.3398 1.1841 0.2729
C16 C 0.4078(5) 1.0511(4) 0.3670(5)
H38 H 0.4097 0.9927 0.3741
H39 H 0.3379 1.0708 0.3958
C17 C 0.4887(5) 1.0263(4) 0.2035(5)
H40 H 0.5538 1.0617 0.1921
H41 H 0.5187 0.9817 0.2462
C18 C 0.4399(5) 0.9940(4) 0.1036(5)
H42 H 0.4157 1.0385 0.0582
H43 H 0.3718 0.9612 0.1136
C19 C 0.5080(5) 0.8575(4) 0.0708(6)
H44 H 0.4526 0.8386 0.0158
H45 H 0.4726 0.8500 0.1351
C20 C 0.6156(5) 0.8066(4) 0.0726(5)
H46 H 0.6522 0.8137 0.0089
H47 H 0.5948 0.7499 0.0785
C21 C 0.6786(7) 0.7880(4) 0.2618(5)
H48 H 0.5993 0.7996 0.2776
H49 H 0.6844 0.7301 0.2513
C22 C 0.8246(5) 0.8082(4) 0.1400(4)
H50 H 0.8314 0.7500 0.1316
H51 H 0.8444 0.8343 0.0772
C23 C 0.8713(9) 0.7931(4) 0.3214(6)
H52 H 0.8816 0.7352 0.3136
H53 H 0.9248 0.8110 0.3784
C24 C 1.0231(8) 0.8251(6) 0.2026(9)
H54 H 1.0725 0.8305 0.2663
H55 H 1.0334 0.7707 0.1769
C25 C 1.0629(6) 0.8826(6) 0.1281(7)
H56 H 1.0255 0.8685 0.0610
H57 H 1.1462 0.8748 0.1250
C26 C 1.0983(5) 0.9998(5) 0.2491(6)
H58 H 1.1106 0.9530 0.2937
H59 H 1.1740 1.0235 0.2399
C27 C 1.0252(5) 1.0597(5) 0.2983(5)
H60 H 1.0144 1.1070 0.2545
H61 H 0.9489 1.0365 0.3062
C28 C 0.7403(6) 1.2654(4) 0.1656(5)
H62 H 0.7714 1.3165 0.1435
H63 H 0.6593 1.2619 0.1381
C29 C 0.8085(6) 1.1964(4) 0.1224(5)
H64 H 0.8902 1.2012 0.1474
H65 H 0.7797 1.1453 0.1469
C30 C 0.5373(5) 0.9620(4) -0.0534(4)
H66 H 0.4626 0.9500 -0.0906
H67 H 0.5946 0.9256 -0.0788
C31 C 0.5707(6) 1.0473(4) -0.0777(5)
H68 H 0.5765 1.0518 -0.1512
H69 H 0.5088 1.0834 -0.0599
C32 C 1.0805(5) 1.0218(5) 0.0626(6)
H70 H 1.1544 1.0004 0.0437
H71 H 1.0947 1.0765 0.0879
C33 C 0.9960(6) 1.0258(6) -0.0333(6)
H72 H 1.0318 1.0548 -0.0872
H73 H 0.9773 0.9715 -0.0577
C34 C 0.6939(7) 1.1639(4) -0.0351(5)
H74 H 0.6895 1.1768 -0.1079
H75 H 0.6283 1.1899 -0.0064
C35 C 0.7843(5) 1.0382(4) -0.0654(4)
H76 H 0.7800 0.9797 -0.0598
H77 H 0.7850 1.0522 -0.1375
C36 C 0.8963(8) 1.1556(5) -0.0274(5)
H78 H 0.9689 1.1767 0.0056
H79 H 0.8956 1.1659 -0.1006
Cl1 Cl 1.14648(10) 1.30175(8) 0.16077(10)
O3 O 1.2529(6) 1.3342(5) 0.1398(7)
O4 O 1.1419(14) 1.2243(6) 0.1337(8)
O5 O 1.1575(12) 1.3023(9) 0.2720(6)
O6 O 1.0510(10) 1.3448(8) 0.1346(10)
Cl2 Cl 0.33345(10) 0.80698(10) 0.34524(10)
O10 O 0.2568(7) 0.8574(5) 0.3992(6)
O11 O 0.4465(8) 0.8330(9) 0.3729(12)
O12 O 0.3092(12) 0.8235(10) 0.2393(7)
O13 O 0.3067(14) 0.7272(6) 0.3643(11)
Cl3 Cl 1.24741(14) 1.04859(12) 0.79293(14)
O17 O 1.1442(5) 1.0837(4) 0.7498(5)
O18 O 1.3445(10) 1.0644(10) 0.7372(11)
O19 O 1.2705(12) 1.0918(9) 0.8877(8)
O20 O 1.2322(16) 0.9675(5) 0.8158(13)
O7? O 1.1493(13) 1.2224(6) 0.1767(8)
O8? O 1.0608(12) 1.3225(9) 0.0902(10)
O9? O 1.1233(15) 1.3390(9) 0.2528(9)
O14? O 0.4404(9) 0.8008(10) 0.3991(12)
O15? O 0.3432(13) 0.8522(9) 0.2531(8)
O16? O 0.2712(13) 0.7367(7) 0.3219(11)
O21? O 1.3187(13) 1.0215(10) 0.7167(11)
O22? O 1.3074(14) 1.1041(9) 0.8603(11)
O23? O 1.2224(15) 0.9797(6) 0.8514(11)
loop_
_geom_bond_atom_site_label_1
_geom_bond_atom_site_label_2
_geom_bond_site_symmetry_1
_geom_bond_site_symmetry_2
O1 H1 1_555 1_555
H2 O1 1_555 1_555
O2 H3 1_555 1_555
H4 O2 1_555 1_555
N1 C1 1_555 1_555
N2 C2 1_555 1_555
N3 C7 1_555 1_555
N4 C8 1_555 1_555
N5 H5 1_555 1_555
N6 C13 1_555 1_555
N7 C15 1_555 1_555
N8 C6 1_555 1_555
N9 C20 1_555 1_555
N10 C22 1_555 1_555
N11 H6 1_555 1_555
N12 C18 1_555 1_555
N13 H7 1_555 1_555
N14 C29 1_555 1_555
N15 C31 1_555 1_555
N16 C33 1_555 1_555
C1 H8 1_555 1_555
H9 C1 1_555 1_555
C2 C1 1_555 1_555
H10 C2 1_555 1_555
H11 C2 1_555 1_555
C3 N1 1_555 1_555
H12 C3 1_555 1_555
H13 C3 1_555 1_555
C4 N5 1_555 1_555
H14 C4 1_555 1_555
H15 C4 1_555 1_555
C5 N1 1_555 1_555
H16 C5 1_555 1_555
H17 C5 1_555 1_555
C6 C5 1_555 1_555
H18 C6 1_555 1_555
H19 C6 1_555 1_555
C7 N2 1_555 1_555
H20 C7 1_555 1_555
H21 C7 1_555 1_555
C8 N3 1_555 1_555
H22 C8 1_555 1_555
H23 C8 1_555 1_555
C9 N2 1_555 1_555
H24 C9 1_555 1_555
H25 C9 1_555 1_555
C10 N4 1_555 1_555
H26 C10 1_555 1_555
H27 C10 1_555 1_555
C11 N11 1_555 1_555
H28 C11 1_555 1_555
H29 C11 1_555 1_555
C12 N11 1_555 1_555
H30 C12 1_555 1_555
H31 C12 1_555 1_555
C13 C12 1_555 1_555
H32 C13 1_555 1_555
H33 C13 1_555 1_555
C14 N5 1_555 1_555
H34 C14 1_555 1_555
H35 C14 1_555 1_555
C15 N6 1_555 1_555
H36 C15 1_555 1_555
H37 C15 1_555 1_555
C16 N5 1_555 1_555
H38 C16 1_555 1_555
H39 C16 1_555 1_555
C17 N7 1_555 1_555
H40 C17 1_555 1_555
H41 C17 1_555 1_555
C18 C17 1_555 1_555
H42 C18 1_555 1_555
H43 C18 1_555 1_555
C19 N12 1_555 1_555
H44 C19 1_555 1_555
H45 C19 1_555 1_555
C20 C19 1_555 1_555
H46 C20 1_555 1_555
H47 C20 1_555 1_555
C21 N8 1_555 1_555
H48 C21 1_555 1_555
H49 C21 1_555 1_555
C22 N9 1_555 1_555
H50 C22 1_555 1_555
H51 C22 1_555 1_555
C23 N8 1_555 1_555
H52 C23 1_555 1_555
H53 C23 1_555 1_555
C24 N10 1_555 1_555
H54 C24 1_555 1_555
H55 C24 1_555 1_555
C25 N13 1_555 1_555
H56 C25 1_555 1_555
H57 C25 1_555 1_555
C26 N13 1_555 1_555
H58 C26 1_555 1_555
H59 C26 1_555 1_555
C27 N3 1_555 1_555
H60 C27 1_555 1_555
H61 C27 1_555 1_555
C28 N11 1_555 1_555
H62 C28 1_555 1_555
H63 C28 1_555 1_555
C29 C28 1_555 1_555
H64 C29 1_555 1_555
H65 C29 1_555 1_555
C30 N12 1_555 1_555
H66 C30 1_555 1_555
H67 C30 1_555 1_555
C31 C30 1_555 1_555
H68 C31 1_555 1_555
H69 C31 1_555 1_555
C32 N13 1_555 1_555
H70 C32 1_555 1_555
H71 C32 1_555 1_555
C33 C32 1_555 1_555
H72 C33 1_555 1_555
H73 C33 1_555 1_555
C34 N14 1_555 1_555
H74 C34 1_555 1_555
H75 C34 1_555 1_555
C35 N15 1_555 1_555
H76 C35 1_555 1_555
H77 C35 1_555 1_555
C36 N14 1_555 1_555
H78 C36 1_555 1_555
H79 C36 1_555 1_555
Cl1 O3 1_555 1_555
O4 Cl1 1_555 1_555
O5 Cl1 1_555 1_555
O6 Cl1 1_555 1_555
Cl2 O10 1_555 1_555
O11 Cl2 1_555 1_555
O12 Cl2 1_555 1_555
O13 Cl2 1_555 1_555
Cl3 O17 1_555 1_555
O18 Cl3 1_555 1_555
O19 Cl3 1_555 1_555
O20 Cl3 1_555 1_555
N4 C9 1_555 1_555
N6 C14 1_555 1_555
N7 C16 1_555 1_555
N9 C21 1_555 1_555
N10 C23 1_555 1_555
N15 C34 1_555 1_555
N16 C36 1_555 1_555
N16 C35 1_555 1_555
C3 C4 1_555 1_555
C10 C11 1_555 1_555
C24 C25 1_555 1_555
C26 C27 1_555 1_555

#END
