
#######################################################################
#
#                 Cambridge Crystallographic Data Centre
#                                CCDC 
#
#######################################################################
#
# If this CIF has been generated from an entry in the Cambridge 
# Structural Database, then it will include bibliographic, chemical, 
# crystal, experimental, refinement or atomic coordinate data resulting 
# from the CCDC's data processing and validation procedures.
#
#######################################################################

data_MESPOS
_chemical_formula_moiety         'C22 H13 Cl1 N4 O1'
_chemical_name_systematic        
6-[(4-chlorophenyl)diazenyl]benzo[a]phenazin-5-ol
_symmetry_cell_setting           orthorhombic
_symmetry_space_group_name_H-M   'P 21 21 2'
_symmetry_Int_Tables_number      18
_space_group_name_Hall           'P 2 2ab'
loop_
_symmetry_equiv_pos_site_id
_symmetry_equiv_pos_as_xyz
1 x,y,z
2 -x,-y,z
3 1/2-x,1/2+y,-z
4 1/2+x,1/2-y,-z
_cell_length_a                   14.8928(7)
_cell_length_b                   29.9679(12)
_cell_length_c                   4.48010(10)
_cell_angle_alpha                90
_cell_angle_beta                 90
_cell_angle_gamma                90
_cell_volume                     1999.5
_exptl_crystal_colour            orange
_exptl_crystal_description       needle
_cell_formula_units_Z            4
loop_
_atom_site_label
_atom_site_type_symbol
_atom_site_fract_x
_atom_site_fract_y
_atom_site_fract_z
Cl1 Cl 0.7102(3) 0.95293(9) 1.1249(8)
O1 O 0.9412(6) 0.6946(3) 0.808(3)
N1 N 0.6793(5) 0.7144(2) 0.2012(19)
N2 N 0.6989(6) 0.6245(3) 0.022(2)
N3 N 0.8037(5) 0.7470(2) 0.6476(18)
N4 N 0.7365(5) 0.7740(2) 0.5777(18)
C1 C 0.7462(6) 0.6877(3) 0.309(2)
C2 C 0.7541(6) 0.6419(3) 0.226(2)
C3 C 0.6341(6) 0.6518(3) -0.097(2)
C4 C 0.6241(6) 0.6960(3) 0.001(2)
C5 C 0.5553(7) 0.7227(3) -0.132(3)
H1 H 0.548520 0.753107 -0.076699
C6 C 0.4999(6) 0.7042(4) -0.338(2)
H2 H 0.453049 0.722000 -0.418922
C7 C 0.5085(7) 0.6611(4) -0.434(3)
H3 H 0.469536 0.650145 -0.584727
C8 C 0.5743(8) 0.6328(4) -0.311(2)
H4 H 0.578809 0.602345 -0.368675
C9 C 0.8074(6) 0.7067(3) 0.527(2)
C10 C 0.8843(7) 0.6791(3) 0.637(3)
C11 C 0.8855(6) 0.6318(3) 0.552(2)
C12 C 0.8216(6) 0.6134(3) 0.354(2)
C13 C 0.8256(8) 0.5679(4) 0.288(3)
H5 H 0.782841 0.555111 0.156200
C14 C 0.8905(8) 0.5414(3) 0.413(3)
H6 H 0.892344 0.510483 0.366853
C15 C 0.9562(8) 0.5603(3) 0.612(3)
H7 H 1.001343 0.541966 0.698313
C16 C 0.9526(7) 0.6050(3) 0.677(3)
H8 H 0.995862 0.617845 0.806690
C17 C 0.7323(6) 0.8162(3) 0.720(2)
C18 C 0.7982(7) 0.8308(3) 0.916(2)
H9 H 0.846977 0.811884 0.968339
C19 C 0.7914(8) 0.8730(3) 1.034(3)
H10 H 0.837175 0.884097 1.162087
C20 C 0.7194(7) 0.8988(3) 0.969(3)
C21 C 0.6532(8) 0.8846(3) 0.780(3)
H11 H 0.603887 0.903485 0.735221
C22 C 0.6584(7) 0.8426(3) 0.655(3)
H12 H 0.612226 0.832024 0.527353
loop_
_geom_bond_atom_site_label_1
_geom_bond_atom_site_label_2
_geom_bond_site_symmetry_1
_geom_bond_site_symmetry_2
Cl1 C20 1_555 1_555
O1 C10 1_555 1_555
N1 C1 1_555 1_555
N2 C2 1_555 1_555
N3 N4 1_555 1_555
N4 C17 1_555 1_555
C1 C2 1_555 1_555
C2 C12 1_555 1_555
C3 N2 1_555 1_555
C4 N1 1_555 1_555
C5 C4 1_555 1_555
H1 C5 1_555 1_555
C6 C5 1_555 1_555
H2 C6 1_555 1_555
C7 C6 1_555 1_555
H3 C7 1_555 1_555
C8 C3 1_555 1_555
H4 C8 1_555 1_555
C9 N3 1_555 1_555
C10 C9 1_555 1_555
C11 C10 1_555 1_555
C12 C11 1_555 1_555
C13 C12 1_555 1_555
H5 C13 1_555 1_555
C14 C13 1_555 1_555
H6 C14 1_555 1_555
C15 C14 1_555 1_555
H7 C15 1_555 1_555
C16 C11 1_555 1_555
H8 C16 1_555 1_555
C17 C18 1_555 1_555
C18 H9 1_555 1_555
C19 C18 1_555 1_555
H10 C19 1_555 1_555
C20 C19 1_555 1_555
C21 C20 1_555 1_555
H11 C21 1_555 1_555
C22 C17 1_555 1_555
H12 C22 1_555 1_555
C1 C9 1_555 1_555
C3 C4 1_555 1_555
C7 C8 1_555 1_555
C15 C16 1_555 1_555
C21 C22 1_555 1_555

#END
