
#######################################################################
#
#                 Cambridge Crystallographic Data Centre
#                                CCDC 
#
#######################################################################
#
# If this CIF has been generated from an entry in the Cambridge 
# Structural Database, then it will include bibliographic, chemical, 
# crystal, experimental, refinement or atomic coordinate data resulting 
# from the CCDC's data processing and validation procedures.
#
#######################################################################

data_MESQUX
_chemical_formula_moiety         'C35 H52 O6'
_chemical_name_systematic        
'Methyl 3,12-diacetoxy-8,14-seco-olean-8Z,11E,13E-trien-28-oate'
_symmetry_cell_setting           orthorhombic
_symmetry_space_group_name_H-M   'P 21 21 21'
_symmetry_Int_Tables_number      19
_space_group_name_Hall           'P 2ac 2ab'
loop_
_symmetry_equiv_pos_site_id
_symmetry_equiv_pos_as_xyz
1 x,y,z
2 1/2-x,-y,1/2+z
3 -x,1/2+y,1/2-z
4 1/2+x,1/2-y,-z
_cell_length_a                   12.343(2)
_cell_length_b                   15.760(2)
_cell_length_c                   17.293(2)
_cell_angle_alpha                90
_cell_angle_beta                 90
_cell_angle_gamma                90
_cell_volume                     3363.93
_exptl_crystal_colour            colorless
_exptl_crystal_description       cubes
_chemical_melting_point          128.5-129.7deg.C
_cell_formula_units_Z            4
loop_
_atom_site_label
_atom_site_type_symbol
_atom_site_fract_x
_atom_site_fract_y
_atom_site_fract_z
O1 O 0.3398(3) 0.6329(3) -0.03878(15)
O2 O 0.25579(18) 0.64290(15) 0.07434(13)
O3 O 0.7667(2) 0.77572(15) 0.25395(17)
O4 O 0.87746(16) 0.66715(13) 0.28501(11)
O5 O 0.5772(2) 0.48752(18) 0.47291(14)
O6 O 0.6888(3) 0.43387(17) 0.56029(16)
C1 C 0.5321(2) 0.64561(18) 0.16715(15)
H1 H 0.5792 0.6929 0.1798
H2 H 0.5694 0.6105 0.1296
C2 C 0.1581(3) 0.6814(3) -0.0346(2)
H3 H 0.1674 0.6945 -0.0884
H4 H 0.1360 0.7315 -0.0073
H5 H 0.1036 0.6384 -0.0291
C3 C 0.4287(3) 0.6798(2) 0.13084(17)
H6 H 0.3940 0.7191 0.1662
H7 H 0.4462 0.7103 0.0837
C4 C 0.2620(4) 0.6501(3) -0.0023(2)
C5 C 0.3524(2) 0.6079(2) 0.11258(17)
C6 C 0.9583(3) 0.7900(2) 0.2352(2)
H8 H 0.9464 0.8215 0.1884
H9 H 1.0140 0.7484 0.2267
H10 H 0.9805 0.8280 0.2756
C7 C 0.3148(2) 0.5602(2) 0.18476(17)
C8 C 0.8551(3) 0.7461(2) 0.25845(19)
C9 C 0.4215(2) 0.52678(17) 0.22241(16)
H11 H 0.4538 0.4911 0.1822
C10 C 0.6246(5) 0.3569(3) 0.5591(3)
H12 H 0.5541 0.3683 0.5801
H13 H 0.6597 0.3141 0.5896
H14 H 0.6175 0.3373 0.5068
C11 C 0.4083(3) 0.4670(2) 0.29090(18)
H15 H 0.3966 0.4994 0.3379
H16 H 0.3462 0.4303 0.2829
C12 C 0.5106(3) 0.4142(2) 0.2982(2)
H17 H 0.5119 0.3882 0.3490
H18 H 0.5081 0.3690 0.2602
C13 C 0.6137(3) 0.46354(19) 0.28709(16)
C14 C 0.6151(2) 0.54407(17) 0.26387(15)
C15 C 0.5115(2) 0.59295(17) 0.24094(16)
C16 C 0.7157(2) 0.59424(17) 0.25613(16)
H19 H 0.7293 0.6150 0.2067
C17 C 0.7891(2) 0.61407(17) 0.30844(16)
C18 C 0.8002(2) 0.58825(17) 0.39127(16)
C19 C 0.8833(3) 0.53901(19) 0.41371(17)
C20 C 0.8994(3) 0.5133(2) 0.49626(17)
H20 H 0.9753 0.5204 0.5093
H21 H 0.8823 0.4535 0.5013
C21 C 0.8322(3) 0.5623(2) 0.55353(17)
H22 H 0.8668 0.6164 0.5636
H23 H 0.8295 0.5311 0.6019
C22 C 0.7162(3) 0.5780(2) 0.52494(16)
C23 C 0.7196(2) 0.62730(18) 0.44776(16)
H24 H 0.6473 0.6248 0.4243
C24 C 0.7495(2) 0.72117(19) 0.45996(16)
H25 H 0.8252 0.7240 0.4747
H26 H 0.7421 0.7503 0.4108
C25 C 0.6839(3) 0.7693(2) 0.51987(18)
C26 C 0.6861(3) 0.7190(2) 0.59565(16)
H27 H 0.7590 0.7198 0.6165
H28 H 0.6388 0.7463 0.6329
C27 C 0.6501(3) 0.6269(2) 0.58501(17)
H29 H 0.5746 0.6263 0.5696
H30 H 0.6556 0.5979 0.6343
C28 C 0.2417(3) 0.6126(2) 0.2376(2)
H31 H 0.2746 0.6668 0.2470
H32 H 0.2321 0.5834 0.2858
H33 H 0.1726 0.6205 0.2132
C29 C 0.2495(3) 0.4830(2) 0.1574(2)
H34 H 0.1949 0.5010 0.1214
H35 H 0.2156 0.4563 0.2011
H36 H 0.2971 0.4433 0.1326
C30 C 0.4847(2) 0.6547(2) 0.30772(16)
H37 H 0.4597 0.6231 0.3517
H38 H 0.4292 0.6934 0.2914
H39 H 0.5486 0.6860 0.3215
C31 C 0.7141(3) 0.4117(2) 0.30062(19)
H40 H 0.7763 0.4425 0.2827
H41 H 0.7085 0.3590 0.2729
H42 H 0.7216 0.4003 0.3549
C32 C 0.9656(3) 0.5041(2) 0.3593(2)
H43 H 0.9445 0.5167 0.3071
H44 H 0.9704 0.4437 0.3659
H45 H 1.0348 0.5294 0.3698
C33 C 0.6542(3) 0.4959(3) 0.51410(18)
C34 C 0.7365(3) 0.8559(2) 0.5336(2)
H46 H 0.8091 0.8481 0.5521
H47 H 0.6953 0.8868 0.5714
H48 H 0.7380 0.8872 0.4860
C35 C 0.5667(3) 0.7821(3) 0.4920(2)
H49 H 0.5669 0.8145 0.4449
H50 H 0.5263 0.8120 0.5308
H51 H 0.5338 0.7279 0.4827
loop_
_geom_bond_atom_site_label_1
_geom_bond_atom_site_label_2
_geom_bond_site_symmetry_1
_geom_bond_site_symmetry_2
O1 C4 1_555 1_555
O2 C4 1_555 1_555
O3 C8 1_555 1_555
O4 C8 1_555 1_555
O5 C33 1_555 1_555
O6 C10 1_555 1_555
C1 H1 1_555 1_555
H2 C1 1_555 1_555
C2 H3 1_555 1_555
H4 C2 1_555 1_555
H5 C2 1_555 1_555
C3 C1 1_555 1_555
H6 C3 1_555 1_555
H7 C3 1_555 1_555
C4 C2 1_555 1_555
C5 O2 1_555 1_555
C6 H8 1_555 1_555
H9 C6 1_555 1_555
H10 C6 1_555 1_555
C7 C5 1_555 1_555
C8 C6 1_555 1_555
C9 C7 1_555 1_555
H11 C9 1_555 1_555
C10 H12 1_555 1_555
H13 C10 1_555 1_555
H14 C10 1_555 1_555
C11 C9 1_555 1_555
H15 C11 1_555 1_555
H16 C11 1_555 1_555
C12 C11 1_555 1_555
H17 C12 1_555 1_555
H18 C12 1_555 1_555
C13 C12 1_555 1_555
C14 C13 1_555 1_555
C15 C1 1_555 1_555
C16 C14 1_555 1_555
H19 C16 1_555 1_555
C17 O4 1_555 1_555
C18 C17 1_555 1_555
C19 C18 1_555 1_555
C20 C19 1_555 1_555
H20 C20 1_555 1_555
H21 C20 1_555 1_555
C21 C20 1_555 1_555
H22 C21 1_555 1_555
H23 C21 1_555 1_555
C22 C21 1_555 1_555
C23 C18 1_555 1_555
H24 C23 1_555 1_555
C24 C23 1_555 1_555
H25 C24 1_555 1_555
H26 C24 1_555 1_555
C25 C24 1_555 1_555
C26 C25 1_555 1_555
H27 C26 1_555 1_555
H28 C26 1_555 1_555
C27 C22 1_555 1_555
H29 C27 1_555 1_555
H30 C27 1_555 1_555
C28 C7 1_555 1_555
H31 C28 1_555 1_555
H32 C28 1_555 1_555
H33 C28 1_555 1_555
C29 C7 1_555 1_555
H34 C29 1_555 1_555
H35 C29 1_555 1_555
H36 C29 1_555 1_555
C30 C15 1_555 1_555
H37 C30 1_555 1_555
H38 C30 1_555 1_555
H39 C30 1_555 1_555
C31 C13 1_555 1_555
H40 C31 1_555 1_555
H41 C31 1_555 1_555
H42 C31 1_555 1_555
C32 C19 1_555 1_555
H43 C32 1_555 1_555
H44 C32 1_555 1_555
H45 C32 1_555 1_555
C33 O6 1_555 1_555
C34 C25 1_555 1_555
H46 C34 1_555 1_555
H47 C34 1_555 1_555
H48 C34 1_555 1_555
C35 C25 1_555 1_555
H49 C35 1_555 1_555
H50 C35 1_555 1_555
H51 C35 1_555 1_555
C3 C5 1_555 1_555
C9 C15 1_555 1_555
C14 C15 1_555 1_555
C16 C17 1_555 1_555
C22 C23 1_555 1_555
C22 C33 1_555 1_555
C26 C27 1_555 1_555

#END
