
#######################################################################
#
#                 Cambridge Crystallographic Data Centre
#                                CCDC 
#
#######################################################################
#
# If this CIF has been generated from an entry in the Cambridge 
# Structural Database, then it will include bibliographic, chemical, 
# crystal, experimental, refinement or atomic coordinate data resulting 
# from the CCDC's data processing and validation procedures.
#
#######################################################################

data_MESQAF
_chemical_formula_moiety         'C21 H21 N1 O2'
_chemical_name_systematic        
3-(4-methoxyphenyl)-4,4-dimethyl-5-(3-phenylprop-2-yn-1-yl)-4,5-dihydro-1,2-oxazole
_symmetry_cell_setting           monoclinic
_symmetry_space_group_name_H-M   'C 2/c'
_symmetry_Int_Tables_number      15
_space_group_name_Hall           '-C 2yn'
loop_
_symmetry_equiv_pos_site_id
_symmetry_equiv_pos_as_xyz
1 x,y,z
2 -x,y,1/2-z
3 1/2+x,1/2+y,z
4 1/2-x,1/2+y,1/2-z
5 -x,-y,-z
6 x,-y,1/2+z
7 1/2-x,1/2-y,-z
8 1/2+x,1/2-y,1/2+z
_cell_length_a                   17.8381(5)
_cell_length_b                   10.6919(3)
_cell_length_c                   19.0278(6)
_cell_angle_alpha                90
_cell_angle_beta                 107.7809(13)
_cell_angle_gamma                90
_cell_volume                     3455.69
_exptl_crystal_colour            colorless
_exptl_crystal_description       block
_cell_formula_units_Z            8
loop_
_atom_site_label
_atom_site_type_symbol
_atom_site_fract_x
_atom_site_fract_y
_atom_site_fract_z
O1 O 0.23384(16) 0.3753(3) 0.20018(19)
O2 O -0.21582(17) 0.3214(3) 0.0776(2)
N1 N 0.1552(2) 0.3329(4) 0.1707(2)
C1 C 0.5655(3) 0.3841(4) 0.3618(2)
H1 H 0.5626 0.4075 0.3128
C2 C 0.6339(2) 0.3342(4) 0.4074(2)
H2 H 0.6781 0.3234 0.3900
C3 C 0.6387(2) 0.2997(4) 0.4782(2)
H3 H 0.6864 0.2657 0.5095
C4 C 0.5755(2) 0.3137(4) 0.5040(2)
H4 H 0.5793 0.2892 0.5530
C5 C 0.5063(2) 0.3636(4) 0.4585(2)
H5 H 0.4621 0.3730 0.4761
C6 C 0.5008(2) 0.4007(4) 0.3863(2)
C7 C 0.4303(3) 0.4550(4) 0.3380(3)
C8 C 0.3735(3) 0.5018(5) 0.2952(3)
C9 C 0.3025(3) 0.5607(5) 0.2446(3)
H6 H 0.2969 0.6457 0.2630
H7 H 0.3101 0.5698 0.1954
C10 C 0.2299(2) 0.4923(5) 0.2361(2)
H8 H 0.2265 0.4736 0.2865
C11 C 0.1508(2) 0.5497(4) 0.1903(2)
C12 C 0.1083(2) 0.4261(4) 0.1669(2)
C13 C 0.0233(2) 0.4030(4) 0.1411(2)
C14 C -0.0312(2) 0.4934(4) 0.1038(2)
H9 H -0.0130 0.5732 0.0942
C15 C -0.1113(2) 0.4688(4) 0.0807(2)
H10 H -0.1473 0.5307 0.0547
C16 C -0.1385(2) 0.3543(4) 0.0955(2)
C17 C -0.0853(3) 0.2621(5) 0.1306(3)
H11 H -0.1038 0.1816 0.1386
C18 C -0.0057(2) 0.2870(4) 0.1538(3)
H12 H 0.0300 0.2240 0.1789
C19 C 0.1555(3) 0.6199(5) 0.1223(3)
H13 H 0.1822 0.5678 0.0949
H14 H 0.1850 0.6977 0.1374
H15 H 0.1021 0.6395 0.0907
C20 C 0.1150(2) 0.6314(4) 0.2378(2)
H16 H 0.0643 0.6646 0.2073
H17 H 0.1507 0.7009 0.2585
H18 H 0.1070 0.5811 0.2779
C21 C -0.2728(3) 0.4103(6) 0.0372(4)
H19 H -0.2626 0.4301 -0.0094
H20 H -0.2689 0.4867 0.0665
H21 H -0.3257 0.3748 0.0268
loop_
_geom_bond_atom_site_label_1
_geom_bond_atom_site_label_2
_geom_bond_site_symmetry_1
_geom_bond_site_symmetry_2
O1 N1 1_555 1_555
O2 C16 1_555 1_555
N1 C12 1_555 1_555
C1 H1 1_555 1_555
C2 C1 1_555 1_555
H2 C2 1_555 1_555
C3 C2 1_555 1_555
H3 C3 1_555 1_555
C4 C3 1_555 1_555
H4 C4 1_555 1_555
C5 C4 1_555 1_555
H5 C5 1_555 1_555
C6 C1 1_555 1_555
C7 C6 1_555 1_555
C8 C7 1_555 1_555
C9 C8 1_555 1_555
H6 C9 1_555 1_555
H7 C9 1_555 1_555
C10 O1 1_555 1_555
H8 C10 1_555 1_555
C11 C10 1_555 1_555
C12 C11 1_555 1_555
C13 C12 1_555 1_555
C14 C13 1_555 1_555
H9 C14 1_555 1_555
C15 C14 1_555 1_555
H10 C15 1_555 1_555
C16 C15 1_555 1_555
C17 C16 1_555 1_555
H11 C17 1_555 1_555
C18 C13 1_555 1_555
H12 C18 1_555 1_555
C19 C11 1_555 1_555
H13 C19 1_555 1_555
H14 C19 1_555 1_555
H15 C19 1_555 1_555
C20 C11 1_555 1_555
H16 C20 1_555 1_555
H17 C20 1_555 1_555
H18 C20 1_555 1_555
C21 O2 1_555 1_555
H19 C21 1_555 1_555
H20 C21 1_555 1_555
H21 C21 1_555 1_555
C5 C6 1_555 1_555
C9 C10 1_555 1_555
C17 C18 1_555 1_555

#END
