
#######################################################################
#
#                 Cambridge Crystallographic Data Centre
#                                CCDC 
#
#######################################################################
#
# If this CIF has been generated from an entry in the Cambridge 
# Structural Database, then it will include bibliographic, chemical, 
# crystal, experimental, refinement or atomic coordinate data resulting 
# from the CCDC's data processing and validation procedures.
#
#######################################################################

data_MESROS
_chemical_formula_moiety         'C33 H50 O7'
_chemical_name_systematic        
'Methyl 3-acetoxy-8,14-seco-olean-8,9:13,14-diepoxy-12-on-28-oate'
_symmetry_cell_setting           orthorhombic
_symmetry_space_group_name_H-M   'P 21 21 21'
_symmetry_Int_Tables_number      19
_space_group_name_Hall           'P 2ac 2ab'
loop_
_symmetry_equiv_pos_site_id
_symmetry_equiv_pos_as_xyz
1 x,y,z
2 1/2-x,-y,1/2+z
3 -x,1/2+y,1/2-z
4 1/2+x,1/2-y,-z
_cell_length_a                   10.7597(8)
_cell_length_b                   13.4323(10)
_cell_length_c                   21.8977(16)
_cell_angle_alpha                90
_cell_angle_beta                 90
_cell_angle_gamma                90
_cell_volume                     3164.82
_exptl_crystal_colour            colorless
_exptl_crystal_description       block
_cell_formula_units_Z            4
loop_
_atom_site_label
_atom_site_type_symbol
_atom_site_fract_x
_atom_site_fract_y
_atom_site_fract_z
O1 O 0.74642(18) 0.8374(2) 0.79351(10)
O2 O 0.94716(13) 0.86016(12) 0.81381(7)
O3 O 1.16018(12) 0.56055(11) 1.03562(6)
O4 O 0.79020(13) 0.51372(12) 1.01046(7)
O5 O 0.69646(12) 0.31838(11) 0.99336(6)
O6 O 1.02935(15) 0.30765(13) 0.87223(9)
O7 O 0.98052(17) 0.15853(12) 0.83657(8)
C1 C 0.9626(2) 0.61086(15) 0.89336(8)
H1 H 0.9788 0.5450 0.8771
H2 H 0.8807 0.6100 0.9119
C2 C 0.9632(2) 0.68598(16) 0.84104(9)
H3 H 1.0427 0.6834 0.8202
H4 H 0.8989 0.6688 0.8118
C3 C 0.94113(18) 0.78994(15) 0.86458(9)
H5 H 0.8575 0.7928 0.8822
C4 C 1.03426(17) 0.82514(14) 0.91287(9)
C5 C 1.03469(16) 0.74410(13) 0.96364(8)
H6 H 0.9487 0.7428 0.9784
C6 C 1.11125(19) 0.77020(16) 1.02016(9)
H7 H 1.1977 0.7530 1.0135
H8 H 1.1063 0.8411 1.0281
C7 C 1.0607(2) 0.71271(16) 1.07429(9)
H9 H 1.1151 0.7230 1.1090
H10 H 0.9795 0.7389 1.0848
C8 C 1.04943(17) 0.60297(15) 1.06248(8)
C9 C 1.04731(16) 0.56488(14) 0.99880(8)
C10 C 1.06013(17) 0.63499(14) 0.94283(8)
C11 C 0.99619(16) 0.46179(13) 0.98627(9)
H11 H 1.0242 0.4411 0.9461
H12 H 1.0321 0.4162 1.0157
C12 C 0.85666(17) 0.45106(14) 0.98863(8)
C13 C 0.80280(16) 0.35815(14) 0.96115(8)
C14 C 0.81099(17) 0.26135(16) 0.99370(10)
C15 C 0.8064(2) 0.16698(16) 0.95747(11)
H13 H 0.7586 0.1180 0.9800
H14 H 0.8903 0.1414 0.9531
C16 C 0.7497(2) 0.17922(17) 0.89445(11)
H15 H 0.6615 0.1923 0.8984
H16 H 0.7598 0.1179 0.8716
C17 C 0.81184(19) 0.26564(16) 0.85915(10)
C18 C 0.78678(17) 0.36495(15) 0.89168(8)
H17 H 0.8483 0.4129 0.8767
C19 C 0.65810(18) 0.40901(18) 0.87903(9)
H18 H 0.6546 0.4753 0.8965
H19 H 0.5964 0.3687 0.8998
C20 C 0.6233(2) 0.4157(2) 0.81118(10)
C21 C 0.6390(2) 0.3132(2) 0.78370(11)
H20 H 0.6202 0.3165 0.7404
H21 H 0.5796 0.2683 0.8024
C22 C 0.7691(2) 0.2709(2) 0.79191(11)
H22 H 0.8273 0.3118 0.7692
H23 H 0.7715 0.2044 0.7746
C23 C 0.9857(2) 0.92296(16) 0.93954(11)
H24 H 0.9659 0.9680 0.9069
H25 H 1.0483 0.9521 0.9652
H26 H 0.9124 0.9102 0.9633
C24 C 1.16309(18) 0.84462(16) 0.88497(10)
H27 H 1.1850 0.7905 0.8584
H28 H 1.2236 0.8500 0.9170
H29 H 1.1611 0.9055 0.8620
C25 C 1.1904(2) 0.61396(16) 0.91649(10)
H30 H 1.2039 0.5434 0.9148
H31 H 1.2522 0.6441 0.9422
H32 H 1.1962 0.6414 0.8761
C26 C 0.9965(2) 0.54519(17) 1.11544(9)
H33 H 0.9960 0.4755 1.1057
H34 H 0.9131 0.5671 1.1233
H35 H 1.0468 0.5561 1.1510
C27 C 0.8714(2) 0.2538(2) 1.05522(11)
H36 H 0.8643 0.3164 1.0761
H37 H 0.9576 0.2372 1.0503
H38 H 0.8309 0.2029 1.0787
C28 C 0.9518(2) 0.24853(16) 0.85776(10)
C29 C 0.4864(2) 0.4481(3) 0.80705(12)
H39 H 0.4757 0.5103 0.8280
H40 H 0.4347 0.3983 0.8256
H41 H 0.4635 0.4559 0.7649
C30 C 0.7029(3) 0.4934(2) 0.77868(11)
H42 H 0.7889 0.4750 0.7816
H43 H 0.6907 0.5572 0.7975
H44 H 0.6792 0.4969 0.7365
C31 C 0.8427(2) 0.8811(2) 0.78413(10)
C32 C 0.8611(3) 0.9602(2) 0.73766(12)
H45 H 0.8179 0.9425 0.7009
H46 H 0.9482 0.9670 0.7291
H47 H 0.8293 1.0221 0.7529
C33 C 1.1100(2) 0.1347(2) 0.83528(14)
H48 H 1.1540 0.1849 0.8128
H49 H 1.1215 0.0713 0.8159
H50 H 1.1414 0.1320 0.8763
loop_
_geom_bond_atom_site_label_1
_geom_bond_atom_site_label_2
_geom_bond_site_symmetry_1
_geom_bond_site_symmetry_2
O1 C31 1_555 1_555
O2 C3 1_555 1_555
O3 C8 1_555 1_555
O4 C12 1_555 1_555
O5 C13 1_555 1_555
O6 C28 1_555 1_555
O7 C28 1_555 1_555
C1 H1 1_555 1_555
H2 C1 1_555 1_555
C2 C1 1_555 1_555
H3 C2 1_555 1_555
H4 C2 1_555 1_555
C3 C2 1_555 1_555
H5 C3 1_555 1_555
C4 C3 1_555 1_555
C5 C4 1_555 1_555
H6 C5 1_555 1_555
C6 C5 1_555 1_555
H7 C6 1_555 1_555
H8 C6 1_555 1_555
C7 C6 1_555 1_555
H9 C7 1_555 1_555
H10 C7 1_555 1_555
C8 C7 1_555 1_555
C9 O3 1_555 1_555
C10 C1 1_555 1_555
C11 C9 1_555 1_555
H11 C11 1_555 1_555
H12 C11 1_555 1_555
C12 C11 1_555 1_555
C13 C12 1_555 1_555
C14 O5 1_555 1_555
C15 C14 1_555 1_555
H13 C15 1_555 1_555
H14 C15 1_555 1_555
C16 C15 1_555 1_555
H15 C16 1_555 1_555
H16 C16 1_555 1_555
C17 C16 1_555 1_555
C18 C13 1_555 1_555
H17 C18 1_555 1_555
C19 C18 1_555 1_555
H18 C19 1_555 1_555
H19 C19 1_555 1_555
C20 C19 1_555 1_555
C21 C20 1_555 1_555
H20 C21 1_555 1_555
H21 C21 1_555 1_555
C22 C17 1_555 1_555
H22 C22 1_555 1_555
H23 C22 1_555 1_555
C23 C4 1_555 1_555
H24 C23 1_555 1_555
H25 C23 1_555 1_555
H26 C23 1_555 1_555
C24 C4 1_555 1_555
H27 C24 1_555 1_555
H28 C24 1_555 1_555
H29 C24 1_555 1_555
C25 C10 1_555 1_555
H30 C25 1_555 1_555
H31 C25 1_555 1_555
H32 C25 1_555 1_555
C26 C8 1_555 1_555
H33 C26 1_555 1_555
H34 C26 1_555 1_555
H35 C26 1_555 1_555
C27 C14 1_555 1_555
H36 C27 1_555 1_555
H37 C27 1_555 1_555
H38 C27 1_555 1_555
C28 C17 1_555 1_555
C29 C20 1_555 1_555
H39 C29 1_555 1_555
H40 C29 1_555 1_555
H41 C29 1_555 1_555
C30 C20 1_555 1_555
H42 C30 1_555 1_555
H43 C30 1_555 1_555
H44 C30 1_555 1_555
C31 O2 1_555 1_555
C32 C31 1_555 1_555
H45 C32 1_555 1_555
H46 C32 1_555 1_555
H47 C32 1_555 1_555
C33 O7 1_555 1_555
H48 C33 1_555 1_555
H49 C33 1_555 1_555
H50 C33 1_555 1_555
C5 C10 1_555 1_555
C8 C9 1_555 1_555
C9 C10 1_555 1_555
C13 C14 1_555 1_555
C17 C18 1_555 1_555
C21 C22 1_555 1_555

#END
