
#######################################################################
#
#                 Cambridge Crystallographic Data Centre
#                                CCDC 
#
#######################################################################
#
# If this CIF has been generated from an entry in the Cambridge 
# Structural Database, then it will include bibliographic, chemical, 
# crystal, experimental, refinement or atomic coordinate data resulting 
# from the CCDC's data processing and validation procedures.
#
#######################################################################

data_MESREI
_chemical_formula_moiety         'C18 H26 O4,H2 O1'
_chemical_name_systematic        '\D^9(11)^-3\b-8-epi-sclareolide monohydrate'
_symmetry_cell_setting           orthorhombic
_symmetry_space_group_name_H-M   'P 21 21 21'
_symmetry_Int_Tables_number      19
_space_group_name_Hall           'P 2ac 2ab'
loop_
_symmetry_equiv_pos_site_id
_symmetry_equiv_pos_as_xyz
1 x,y,z
2 1/2-x,-y,1/2+z
3 -x,1/2+y,1/2-z
4 1/2+x,1/2-y,-z
_cell_length_a                   6.630(1)
_cell_length_b                   8.180(2)
_cell_length_c                   32.887(6)
_cell_angle_alpha                90
_cell_angle_beta                 90
_cell_angle_gamma                90
_cell_volume                     1783.57
_exptl_crystal_colour            colorless
_exptl_crystal_description       needles
_chemical_melting_point          65.5-66.8deg.C
_cell_formula_units_Z            4
loop_
_atom_site_label
_atom_site_type_symbol
_atom_site_fract_x
_atom_site_fract_y
_atom_site_fract_z
O1 O 0.3104(3) 0.8922(2) 0.25012(4)
O2 O 0.5354(3) 0.4716(2) 0.45629(4)
O3 O 0.1000(3) 0.7833(2) 0.20504(5)
C1 C 0.3511(4) 0.4691(3) 0.34755(6)
H1 H 0.2596 0.3950 0.3338
H2 H 0.4794 0.4661 0.3334
C2 C 0.3811(4) 0.4119(3) 0.39140(6)
H3 H 0.2512 0.4042 0.4048
H4 H 0.4420 0.3041 0.3914
C3 C 0.5143(4) 0.5289(3) 0.41439(6)
H5 H 0.6480 0.5286 0.4017
C4 C 0.4382(4) 0.7063(3) 0.41604(6)
C5 C 0.4044(4) 0.7564(2) 0.37090(6)
H6 H 0.5373 0.7430 0.3583
C6 C 0.3542(5) 0.9379(3) 0.36457(7)
H7 H 0.2274 0.9616 0.3780
H8 H 0.4578 1.0032 0.3776
C7 C 0.3379(5) 0.9902(3) 0.32022(7)
H9 H 0.2018 1.0284 0.3150
H10 H 0.4293 1.0807 0.3154
C8 C 0.3872(4) 0.8530(3) 0.29079(6)
C9 C 0.2662(3) 0.7060(2) 0.30248(6)
C10 C 0.2648(3) 0.6441(3) 0.34578(6)
C11 C 0.1487(4) 0.6635(3) 0.27153(6)
H11 H 0.0617 0.5743 0.2712
C12 C 0.1768(5) 0.7770(3) 0.23836(7)
C13 C 0.6083(4) 0.8118(3) 0.43379(7)
H12 H 0.5615 0.9220 0.4371
H13 H 0.7218 0.8105 0.4157
H14 H 0.6481 0.7687 0.4597
C14 C 0.2539(4) 0.7228(4) 0.44412(7)
H15 H 0.2983 0.7324 0.4718
H16 H 0.1700 0.6278 0.4414
H17 H 0.1785 0.8184 0.4367
C15 C 0.0433(4) 0.6433(4) 0.35907(7)
H18 H -0.0084 0.7529 0.3586
H19 H 0.0332 0.6003 0.3861
H20 H -0.0336 0.5761 0.3408
C16 C 0.6120(4) 0.8234(4) 0.28440(7)
H21 H 0.6311 0.7223 0.2701
H22 H 0.6784 0.8178 0.3103
H23 H 0.6681 0.9115 0.2688
C17 C 0.7005(5) 0.3926(5) 0.46653(8)
C18 C 0.7006(5) 0.3430(4) 0.51043(7)
H24 H 0.6977 0.2259 0.5124
H25 H 0.5839 0.3876 0.5237
H26 H 0.8203 0.3837 0.5234
O4 O 0.814(3) 0.333(3) 0.4418(2)
O5 O 0.1354(5) 0.6320(4) 0.12689(7)
O6? O 0.8508(15) 0.406(3) 0.4460(5)
loop_
_geom_bond_atom_site_label_1
_geom_bond_atom_site_label_2
_geom_bond_site_symmetry_1
_geom_bond_site_symmetry_2
O1 C8 1_555 1_555
O2 C3 1_555 1_555
O3 C12 1_555 1_555
C1 H1 1_555 1_555
H2 C1 1_555 1_555
C2 C1 1_555 1_555
H3 C2 1_555 1_555
H4 C2 1_555 1_555
C3 C2 1_555 1_555
H5 C3 1_555 1_555
C4 C3 1_555 1_555
C5 C4 1_555 1_555
H6 C5 1_555 1_555
C6 C5 1_555 1_555
H7 C6 1_555 1_555
H8 C6 1_555 1_555
C7 C6 1_555 1_555
H9 C7 1_555 1_555
H10 C7 1_555 1_555
C8 C7 1_555 1_555
C9 C8 1_555 1_555
C10 C1 1_555 1_555
C11 C9 1_555 1_555
H11 C11 1_555 1_555
C12 O1 1_555 1_555
C13 C4 1_555 1_555
H12 C13 1_555 1_555
H13 C13 1_555 1_555
H14 C13 1_555 1_555
C14 C4 1_555 1_555
H15 C14 1_555 1_555
H16 C14 1_555 1_555
H17 C14 1_555 1_555
C15 C10 1_555 1_555
H18 C15 1_555 1_555
H19 C15 1_555 1_555
H20 C15 1_555 1_555
C16 C8 1_555 1_555
H21 C16 1_555 1_555
H22 C16 1_555 1_555
H23 C16 1_555 1_555
C17 O2 1_555 1_555
C18 C17 1_555 1_555
H24 C18 1_555 1_555
H25 C18 1_555 1_555
H26 C18 1_555 1_555
O4 C17 1_555 1_555
C5 C10 1_555 1_555
C9 C10 1_555 1_555
C11 C12 1_555 1_555

#END
