
#######################################################################
#
#                 Cambridge Crystallographic Data Centre
#                                CCDC 
#
#######################################################################
#
# If this CIF has been generated from an entry in the Cambridge 
# Structural Database, then it will include bibliographic, chemical, 
# crystal, experimental, refinement or atomic coordinate data resulting 
# from the CCDC's data processing and validation procedures.
#
#######################################################################

data_MESSIM
_chemical_formula_moiety         'C14 H17 N3 O1'
_chemical_name_systematic        N-t-Butyl-2-(pyrazol-3-yl)benzamide
_symmetry_cell_setting           monoclinic
_symmetry_space_group_name_H-M   'P 21/c'
_symmetry_Int_Tables_number      14
_space_group_name_Hall           '-P 2ybc'
loop_
_symmetry_equiv_pos_site_id
_symmetry_equiv_pos_as_xyz
1 x,y,z
2 -x,1/2+y,1/2-z
3 -x,-y,-z
4 x,1/2-y,1/2+z
_cell_length_a                   10.922(2)
_cell_length_b                   9.557(1)
_cell_length_c                   13.551(3)
_cell_angle_alpha                90
_cell_angle_beta                 113.20(1)
_cell_angle_gamma                90
_cell_volume                     1300.09
_exptl_crystal_colour            colorless
_exptl_crystal_description       platelet
_chemical_melting_point          189-190deg.C
_cell_formula_units_Z            4
loop_
_atom_site_label
_atom_site_type_symbol
_atom_site_fract_x
_atom_site_fract_y
_atom_site_fract_z
O1 O 0.7166(1) 0.2059(2) 0.1720(1)
N1 N 0.4639(2) 0.5955(2) 0.2507(1)
N2 N 0.3945(2) 0.5136(2) 0.1662(1)
N3 N 0.7426(1) 0.2814(2) 0.0225(1)
C1 C 0.4395(2) 0.3466(2) 0.0514(1)
C2 C 0.5215(2) 0.2625(2) 0.0174(1)
C3 C 0.4656(2) 0.1749(2) -0.0714(2)
C4 C 0.3286(2) 0.1658(2) -0.1266(2)
C5 C 0.2468(2) 0.2465(2) -0.0935(2)
C6 C 0.3013(2) 0.3357(2) -0.0072(2)
C7 C 0.4873(2) 0.4445(2) 0.1431(1)
C8 C 0.6158(2) 0.4842(2) 0.2146(2)
C9 C 0.5958(2) 0.5804(2) 0.2816(2)
C10 C 0.6695(2) 0.2501(2) 0.0786(1)
C11 C 0.8889(2) 0.2641(2) 0.0599(2)
C12 C 0.9600(2) 0.3642(3) 0.1525(2)
C13 C 0.9272(2) 0.1127(3) 0.0936(2)
C14 C 0.9223(2) 0.3000(3) -0.0360(2)
H1 H 0.4239 0.6570 0.2845
H2 H 0.5222 0.1205 -0.0945
H3 H 0.6968 0.3181 -0.0476
H4 H 0.2915 0.1048 -0.1864
H5 H 0.1528 0.2406 -0.1303
H6 H 0.2435 0.3917 0.0134
H7 H 0.6986 0.4512 0.2161
H8 H 0.6630 0.6277 0.3393
H9 H 1.0536 0.3529 0.1758
H10 H 0.9364 0.4578 0.1292
H11 H 0.9342 0.3443 0.2103
H12 H 1.0189 0.0991 0.1083
H13 H 0.9114 0.0928 0.1563
H14 H 0.8750 0.0518 0.0373
H15 H 0.8816 0.3864 -0.0660
H16 H 1.0161 0.3078 -0.0134
H17 H 0.8900 0.2282 -0.0885
loop_
_geom_bond_atom_site_label_1
_geom_bond_atom_site_label_2
_geom_bond_site_symmetry_1
_geom_bond_site_symmetry_2
O1 C10 1_555 1_555
N1 N2 1_555 1_555
N2 C7 1_555 1_555
N3 C10 1_555 1_555
C1 C2 1_555 1_555
C2 C3 1_555 1_555
C3 C4 1_555 1_555
C4 C5 1_555 1_555
C5 C6 1_555 1_555
C6 C1 1_555 1_555
C7 C1 1_555 1_555
C8 C7 1_555 1_555
C9 N1 1_555 1_555
C10 C2 1_555 1_555
C11 N3 1_555 1_555
C12 C11 1_555 1_555
C13 C11 1_555 1_555
C14 C11 1_555 1_555
H1 N1 1_555 1_555
H2 C3 1_555 1_555
H3 N3 1_555 1_555
H4 C4 1_555 1_555
H5 C5 1_555 1_555
H6 C6 1_555 1_555
H7 C8 1_555 1_555
H8 C9 1_555 1_555
H9 C12 1_555 1_555
H10 C12 1_555 1_555
H11 C12 1_555 1_555
H12 C13 1_555 1_555
H13 C13 1_555 1_555
H14 C13 1_555 1_555
H15 C14 1_555 1_555
H16 C14 1_555 1_555
H17 C14 1_555 1_555
C8 C9 1_555 1_555

#END
