
#######################################################################
#
#                 Cambridge Crystallographic Data Centre
#                                CCDC 
#
#######################################################################
#
# If this CIF has been generated from an entry in the Cambridge 
# Structural Database, then it will include bibliographic, chemical, 
# crystal, experimental, refinement or atomic coordinate data resulting 
# from the CCDC's data processing and validation procedures.
#
#######################################################################

data_METDEU
_chemical_formula_moiety         'C23 H24 N1 P1'
_chemical_name_systematic        
N,N-Dimethyl-3-(triphenylphosphoranylidene)prop-1-ene-2-amine
_symmetry_cell_setting           triclinic
_symmetry_space_group_name_H-M   'P -1'
_symmetry_Int_Tables_number      2
_space_group_name_Hall           '-P 1'
loop_
_symmetry_equiv_pos_site_id
_symmetry_equiv_pos_as_xyz
1 x,y,z
2 -x,-y,-z
_cell_length_a                   9.170(2)
_cell_length_b                   11.054(2)
_cell_length_c                   20.471(4)
_cell_angle_alpha                78.21(3)
_cell_angle_beta                 83.39(3)
_cell_angle_gamma                80.61(3)
_cell_volume                     1996.86
_exptl_crystal_colour            orange
_exptl_crystal_description       prism
_chemical_melting_point          '99 deg.C'
_cell_formula_units_Z            4
loop_
_atom_site_label
_atom_site_type_symbol
_atom_site_fract_x
_atom_site_fract_y
_atom_site_fract_z
C1 C -0.1634(5) 0.2780(4) -0.0154(2)
C2 C -0.2670(5) 0.3833(4) -0.0258(2)
H1 H -0.2990(5) 0.4263(4) 0.0090(2)
C3 C -0.3244(5) 0.4261(4) -0.0870(2)
H2 H -0.3950(5) 0.4973(4) -0.0930(2)
C4 C -0.2789(6) 0.3652(5) -0.1389(2)
H3 H -0.3174(6) 0.3949(5) -0.1802(2)
C5 C -0.1761(6) 0.2600(5) -0.1296(2)
H4 H -0.1456(6) 0.2172(5) -0.1646(2)
C6 C -0.1170(5) 0.2169(4) -0.0685(2)
H5 H -0.0456(5) 0.1462(4) -0.0630(2)
C7 C 0.1121(5) 0.2071(4) 0.0451(2)
C8 C 0.2045(6) 0.0982(4) 0.0695(2)
H6 H 0.1638(6) 0.0315(4) 0.0965(2)
C9 C 0.3562(6) 0.0881(5) 0.0540(3)
H7 H 0.4167(6) 0.0145(5) 0.0703(3)
C10 C 0.4171(6) 0.1849(6) 0.0152(3)
H8 H 0.5194(6) 0.1777(6) 0.0055(3)
C11 C 0.3281(6) 0.2948(5) -0.0102(3)
H9 H 0.3699(6) 0.3612(5) -0.0370(3)
C12 C 0.1762(5) 0.3040(4) 0.0051(2)
H10 H 0.1160(5) 0.3772(4) -0.0120(2)
C13 C -0.1518(6) 0.0773(4) 0.0962(2)
C14 C -0.1380(5) 0.0077(4) 0.1630(2)
C15 C -0.0569(6) 0.0383(5) 0.2071(3)
C16 C -0.1424(5) 0.3297(4) 0.1183(2)
C17 C -0.0552(5) 0.4134(4) 0.1288(2)
H11 H 0.0398(5) 0.4135(4) 0.1074(2)
C18 C -0.1077(6) 0.4973(4) 0.1710(3)
H12 H -0.0495(6) 0.5552(4) 0.1767(3)
C19 C -0.2459(7) 0.4942(5) 0.2043(3)
H13 H -0.2798(7) 0.5481(5) 0.2340(3)
C20 C -0.3351(6) 0.4118(5) 0.1941(2)
H14 H -0.4301(6) 0.4121(5) 0.2157(2)
C21 C -0.2837(5) 0.3295(4) 0.1520(2)
H15 H -0.3433(5) 0.2730(4) 0.1459(2)
C45 C -0.2957(6) -0.1363(5) 0.1417(3)
H37 H -0.3375(6) -0.2079(5) 0.1665(3)
H38 H -0.2325(6) -0.1589(5) 0.1041(3)
H39 H -0.3740(6) -0.0715(5) 0.1262(3)
C46 C -0.1941(7) -0.1727(5) 0.2482(2)
H40 H -0.1361(7) -0.1355(5) 0.2727(2)
H41 H -0.1438(7) -0.2537(5) 0.2428(2)
H42 H -0.2893(7) -0.1808(5) 0.2722(2)
P1 P -0.08792(13) 0.21386(10) 0.06456(6)
N2 N -0.2138(6) -0.0939(4) 0.1826(2)
H43 H -0.0412(46) -0.0060(37) 0.2508(22)
H45 H -0.0067(49) 0.1148(43) 0.1909(22)
H48 H -0.2058(57) 0.0617(45) 0.0700(24)
C22 C 0.2718(5) 0.2729(4) 0.3135(2)
C23 C 0.3768(6) 0.1697(5) 0.3301(3)
H16 H 0.3963(6) 0.1409(5) 0.3746(3)
C24 C 0.4535(6) 0.1084(5) 0.2810(3)
H17 H 0.5253(6) 0.0399(5) 0.2930(3)
C25 C 0.4249(6) 0.1475(5) 0.2153(3)
H18 H 0.4746(6) 0.1047(5) 0.1826(3)
C26 C 0.3235(6) 0.2491(5) 0.1986(3)
H19 H 0.3043(6) 0.2763(5) 0.1540(3)
C27 C 0.2476(5) 0.3136(4) 0.2457(2)
H20 H 0.1800(5) 0.3845(4) 0.2325(2)
C28 C 0.2422(5) 0.2996(5) 0.4517(2)
C29 C 0.3088(5) 0.3754(5) 0.4825(2)
H21 H 0.3118(5) 0.4584(5) 0.4622(2)
C30 C 0.3707(6) 0.3291(7) 0.5428(3)
H22 H 0.4157(6) 0.3808(7) 0.5623(3)
C31 C 0.3659(7) 0.2084(9) 0.5738(3)
H23 H 0.4081(7) 0.1778(9) 0.6142(3)
C32 C 0.2980(8) 0.1307(7) 0.5452(3)
H24 H 0.2947(8) 0.0480(7) 0.5660(3)
C33 C 0.2352(6) 0.1785(6) 0.4850(3)
H25 H 0.1870(6) 0.1274(6) 0.4665(3)
C34 C 0.1380(6) 0.5185(4) 0.3490(2)
C35 C 0.2545(6) 0.5968(5) 0.3313(2)
C36 C 0.4011(7) 0.5544(7) 0.3230(3)
C37 C -0.0207(5) 0.3155(4) 0.3845(2)
C38 C -0.0662(6) 0.2420(5) 0.3447(3)
H26 H -0.0009(6) 0.2132(5) 0.3111(3)
C39 C -0.2094(7) 0.2122(6) 0.3557(3)
H27 H -0.2403(7) 0.1644(6) 0.3288(3)
C40 C -0.3054(7) 0.2524(6) 0.4055(3)
H28 H -0.4010(7) 0.2316(6) 0.4126(3)
C41 C -0.2610(7) 0.3234(6) 0.4449(3)
H29 H -0.3266(7) 0.3507(6) 0.4788(3)
C42 C -0.1205(6) 0.3544(5) 0.4347(3)
H30 H -0.0916(6) 0.4024(5) 0.4620(3)
C43 C 0.0995(7) 0.7732(5) 0.3704(3)
H31 H 0.0697(7) 0.8612(5) 0.3563(3)
H32 H 0.1483(7) 0.7587(5) 0.4109(3)
H33 H 0.0136(7) 0.7312(5) 0.3784(3)
C44 C 0.3063(7) 0.8108(5) 0.2917(3)
H34 H 0.2562(7) 0.8952(5) 0.2856(3)
H35 H 0.3516(7) 0.7931(5) 0.2494(3)
H36 H 0.3812(7) 0.8006(5) 0.3223(3)
P2 P 0.16144(14) 0.36231(12) 0.37288(6)
N1 N 0.2002(5) 0.7257(4) 0.3187(2)
H44 H 0.0450(58) 0.5545(44) 0.3433(24)
H46 H 0.4766(61) 0.6125(46) 0.3104(23)
H47 H 0.4415(58) 0.4740(45) 0.3272(24)
loop_
_geom_bond_atom_site_label_1
_geom_bond_atom_site_label_2
_geom_bond_site_symmetry_1
_geom_bond_site_symmetry_2
C1 C2 1_555 1_555
C2 H1 1_555 1_555
C3 C2 1_555 1_555
H2 C3 1_555 1_555
C4 C3 1_555 1_555
H3 C4 1_555 1_555
C5 C4 1_555 1_555
H4 C5 1_555 1_555
C6 C1 1_555 1_555
H5 C6 1_555 1_555
C7 C8 1_555 1_555
C8 H6 1_555 1_555
C9 C8 1_555 1_555
H7 C9 1_555 1_555
C10 C9 1_555 1_555
H8 C10 1_555 1_555
C11 C10 1_555 1_555
H9 C11 1_555 1_555
C12 C7 1_555 1_555
H10 C12 1_555 1_555
C13 C14 1_555 1_555
C14 C15 1_555 1_555
C15 H43 1_555 1_555
C16 C17 1_555 1_555
C17 H11 1_555 1_555
C18 C17 1_555 1_555
H12 C18 1_555 1_555
C19 C18 1_555 1_555
H13 C19 1_555 1_555
C20 C19 1_555 1_555
H14 C20 1_555 1_555
C21 C16 1_555 1_555
H15 C21 1_555 1_555
C22 C23 1_555 1_555
C23 H16 1_555 1_555
C24 C23 1_555 1_555
H17 C24 1_555 1_555
C25 C24 1_555 1_555
H18 C25 1_555 1_555
C26 C25 1_555 1_555
H19 C26 1_555 1_555
C27 C22 1_555 1_555
H20 C27 1_555 1_555
C28 C29 1_555 1_555
C29 H21 1_555 1_555
C30 C29 1_555 1_555
H22 C30 1_555 1_555
C31 C30 1_555 1_555
H23 C31 1_555 1_555
C32 C31 1_555 1_555
H24 C32 1_555 1_555
C33 C28 1_555 1_555
H25 C33 1_555 1_555
C34 C35 1_555 1_555
C35 C36 1_555 1_555
C36 H46 1_555 1_555
C37 C38 1_555 1_555
C38 H26 1_555 1_555
C39 C38 1_555 1_555
H27 C39 1_555 1_555
C40 C39 1_555 1_555
H28 C40 1_555 1_555
C41 C40 1_555 1_555
H29 C41 1_555 1_555
C42 C37 1_555 1_555
H30 C42 1_555 1_555
C43 H31 1_555 1_555
H32 C43 1_555 1_555
H33 C43 1_555 1_555
C44 H34 1_555 1_555
H35 C44 1_555 1_555
H36 C44 1_555 1_555
C45 H37 1_555 1_555
H38 C45 1_555 1_555
H39 C45 1_555 1_555
C46 H40 1_555 1_555
H41 C46 1_555 1_555
H42 C46 1_555 1_555
P1 C1 1_555 1_555
P2 C22 1_555 1_555
N1 C35 1_555 1_555
N2 C14 1_555 1_555
H44 C34 1_555 1_555
H45 C15 1_555 1_555
H47 C36 1_555 1_555
H48 C13 1_555 1_555
C5 C6 1_555 1_555
C7 P1 1_555 1_555
C11 C12 1_555 1_555
C13 P1 1_555 1_555
C16 P1 1_555 1_555
C20 C21 1_555 1_555
C26 C27 1_555 1_555
C28 P2 1_555 1_555
C32 C33 1_555 1_555
C34 P2 1_555 1_555
C37 P2 1_555 1_555
C41 C42 1_555 1_555
C43 N1 1_555 1_555
C44 N1 1_555 1_555
C45 N2 1_555 1_555
C46 N2 1_555 1_555

#END
