
#######################################################################
#
#                 Cambridge Crystallographic Data Centre
#                                CCDC 
#
#######################################################################
#
# If this CIF has been generated from an entry in the Cambridge 
# Structural Database, then it will include bibliographic, chemical, 
# crystal, experimental, refinement or atomic coordinate data resulting 
# from the CCDC's data processing and validation procedures.
#
#######################################################################

data_METDIY
_chemical_formula_moiety         'C22 H22 N1 O1 P1'
_chemical_name_systematic        
N,N-Dimethyl-2-(diphenylphosphoryl)-1-phenylethene-1-amine
_symmetry_cell_setting           monoclinic
_symmetry_space_group_name_H-M   'P 21/c'
_symmetry_Int_Tables_number      14
_space_group_name_Hall           '-P 2ybc'
loop_
_symmetry_equiv_pos_site_id
_symmetry_equiv_pos_as_xyz
1 x,y,z
2 x,1/2-y,1/2+z
3 -x,-y,-z
4 -x,1/2+y,1/2-z
_cell_length_a                   9.484(2)
_cell_length_b                   12.105(2)
_cell_length_c                   16.523(3)
_cell_angle_alpha                90
_cell_angle_beta                 99.48(3)
_cell_angle_gamma                90
_cell_volume                     1871
_exptl_crystal_colour            'light yellow'
_exptl_crystal_description       prism
_chemical_melting_point          '153 deg.C'
_cell_formula_units_Z            4
loop_
_atom_site_label
_atom_site_type_symbol
_atom_site_fract_x
_atom_site_fract_y
_atom_site_fract_z
C1 C 0.6645(2) 0.2082(2) -0.03915(11)
C2 C 0.6970(2) 0.2545(2) -0.11116(12)
H1 H 0.7676(2) 0.3084(2) -0.10821(12)
C3 C 0.6252(2) 0.2211(2) -0.18701(13)
H2 H 0.6472(2) 0.2526(2) -0.23472(13)
C4 C 0.5203(2) 0.1404(2) -0.19165(13)
H3 H 0.4726(2) 0.1175(2) -0.24259(13)
C5 C 0.4863(2) 0.0940(2) -0.12093(13)
H4 H 0.4156(2) 0.0402(2) -0.12410(13)
C6 C 0.5585(2) 0.1281(2) -0.04520(12)
H5 H 0.5354(2) 0.0968(2) 0.00235(12)
C7 C 0.7387(2) 0.3917(2) 0.07220(12)
C8 C 0.8313(3) 0.4684(2) 0.04775(14)
H6 H 0.9097(3) 0.4446(2) 0.02527(14)
C9 C 0.8080(3) 0.5812(2) 0.0566(2)
H7 H 0.8707(3) 0.6323(2) 0.0401(2)
C10 C 0.6924(3) 0.6164(2) 0.0896(2)
H8 H 0.6772(3) 0.6916(2) 0.0959(2)
C11 C 0.5994(3) 0.5414(2) 0.1133(2)
H9 H 0.5209(3) 0.5659(2) 0.1354(2)
C12 C 0.6216(3) 0.4291(2) 0.10461(14)
H10 H 0.5576(3) 0.3786(2) 0.12062(14)
C13 C 0.9361(2) 0.2065(2) 0.05552(12)
H11 H 0.9462(2) 0.1637(2) 0.01007(12)
C14 C 1.0608(2) 0.2308(2) 0.10619(12)
C15 C 1.0676(2) 0.3125(2) 0.17449(12)
C16 C 1.1577(2) 0.4044(2) 0.17599(13)
H12 H 1.2149(2) 0.4126(2) 0.13576(13)
C17 C 1.1620(2) 0.4833(2) 0.23702(14)
H13 H 1.2219(2) 0.5443(2) 0.23763(14)
C18 C 1.0777(3) 0.4718(2) 0.29676(14)
H14 H 1.0809(3) 0.5246(2) 0.33786(14)
C19 C 0.9886(3) 0.3819(2) 0.29566(14)
H15 H 0.9312(3) 0.3747(2) 0.33586(14)
C20 C 0.9837(2) 0.3016(2) 0.23482(12)
H16 H 0.9239(2) 0.2407(2) 0.23486(12)
C21 C 1.3046(3) 0.1666(2) 0.1626(2)
H17 H 1.3858(3) 0.1366(2) 0.1423(2)
H18 H 1.2724(3) 0.1147(2) 0.1996(2)
H19 H 1.3313(3) 0.2345(2) 0.1911(2)
C22 C 1.1926(3) 0.1148(2) 0.0242(2)
H20 H 1.2890(3) 0.0911(2) 0.0234(2)
H21 H 1.1574(3) 0.1538(2) -0.0257(2)
H22 H 1.1334(3) 0.0515(2) 0.0287(2)
N1 N 1.1898(2) 0.18764(14) 0.09410(11)
O1 O 0.69201(15) 0.18364(11) 0.12610(8)
P1 P 0.75793(5) 0.24346(4) 0.06268(3)
loop_
_geom_bond_atom_site_label_1
_geom_bond_atom_site_label_2
_geom_bond_site_symmetry_1
_geom_bond_site_symmetry_2
C1 C2 1_555 1_555
C2 H1 1_555 1_555
C3 C2 1_555 1_555
H2 C3 1_555 1_555
C4 C3 1_555 1_555
H3 C4 1_555 1_555
C5 C4 1_555 1_555
H4 C5 1_555 1_555
C6 C1 1_555 1_555
H5 C6 1_555 1_555
C7 C8 1_555 1_555
C8 H6 1_555 1_555
C9 C8 1_555 1_555
H7 C9 1_555 1_555
C10 C9 1_555 1_555
H8 C10 1_555 1_555
C11 C10 1_555 1_555
H9 C11 1_555 1_555
C12 C7 1_555 1_555
H10 C12 1_555 1_555
C13 H11 1_555 1_555
C14 C13 1_555 1_555
C15 C14 1_555 1_555
C16 C15 1_555 1_555
H12 C16 1_555 1_555
C17 C16 1_555 1_555
H13 C17 1_555 1_555
C18 C17 1_555 1_555
H14 C18 1_555 1_555
C19 C18 1_555 1_555
H15 C19 1_555 1_555
C20 C15 1_555 1_555
H16 C20 1_555 1_555
C21 H17 1_555 1_555
H18 C21 1_555 1_555
H19 C21 1_555 1_555
C22 H20 1_555 1_555
H21 C22 1_555 1_555
H22 C22 1_555 1_555
N1 C14 1_555 1_555
O1 P1 1_555 1_555
P1 C1 1_555 1_555
C5 C6 1_555 1_555
C7 P1 1_555 1_555
C11 C12 1_555 1_555
C13 P1 1_555 1_555
C19 C20 1_555 1_555
C21 N1 1_555 1_555
C22 N1 1_555 1_555

#END
