
#######################################################################
#
#                 Cambridge Crystallographic Data Centre
#                                CCDC 
#
#######################################################################
#
# If this CIF has been generated from an entry in the Cambridge 
# Structural Database, then it will include bibliographic, chemical, 
# crystal, experimental, refinement or atomic coordinate data resulting 
# from the CCDC's data processing and validation procedures.
#
#######################################################################

data_METJED
_chemical_name_common            
'(diphenylmethylidene)pillar[5]arene hexanedinitrile'
_chemical_formula_moiety         'C68 H78 O10,1.5(C6 H8 N2)'
_chemical_name_systematic        
'2-(diphenylmethylidene)-4,9,14,19,24,26,28,30,32,34-decaethoxyhexacyclo[21.2.2.2^3,6^.2^8,11^.2^13,16^.2^18,21^]pentatriaconta-1(25),3,5,8,10,13,15,18,20,23,26,28,30,32,34-pentadecaene sesqui-hexanedinitrile'
_symmetry_cell_setting           triclinic
_symmetry_space_group_name_H-M   'P -1'
_symmetry_Int_Tables_number      2
_space_group_name_Hall           '-P 1'
loop_
_symmetry_equiv_pos_site_id
_symmetry_equiv_pos_as_xyz
1 x,y,z
2 -x,-y,-z
_cell_length_a                   12.1005(3)
_cell_length_b                   23.9666(4)
_cell_length_c                   26.7943(6)
_cell_angle_alpha                66.5281(19)
_cell_angle_beta                 81.376(2)
_cell_angle_gamma                83.4678(18)
_cell_volume                     7034.48
_exptl_crystal_description       block
_cell_formula_units_Z            4
loop_
_atom_site_label
_atom_site_type_symbol
_atom_site_fract_x
_atom_site_fract_y
_atom_site_fract_z
O1 O 0.3823(2) 0.70115(11) -0.07928(10)
O2 O 0.7429(2) 0.81844(12) -0.11334(12)
O3 O 0.3901(2) 0.52481(13) 0.09594(11)
O4 O 0.7950(2) 0.59140(12) -0.01441(13)
O5 O 0.7472(3) 0.53679(15) 0.19840(12)
O6 O 0.3118(3) 0.90150(16) -0.06440(16)
O7 O 0.6740(3) 0.92502(15) 0.01937(14)
C1 C 0.4835(3) 0.67196(16) -0.06229(14)
O8 O 0.3210(3) 0.60437(17) 0.25663(15)
C2 C 0.5784(3) 0.70395(15) -0.08817(14)
C3 C 0.5495(3) 0.81732(16) -0.11341(15)
C4 C 0.6911(3) 0.61907(16) -0.03045(15)
C5 C 0.4925(3) 0.61331(16) -0.02243(14)
H1 H 0.4286 0.5916 -0.0066
O9 O 0.2868(4) 0.8306(2) 0.14970(16)
C6 C 0.5973(3) 0.58642(16) -0.00576(14)
C7 C 0.6374(3) 0.84035(16) -0.10079(15)
C8 C 0.6821(3) 0.67695(16) -0.07164(15)
H2 H 0.7464 0.6980 -0.0884
C9 C 0.4766(3) 0.52881(16) 0.12236(16)
C10 C 0.5102(4) 0.68050(18) -0.19121(16)
H3 H 0.4398 0.6891 -0.1756
C11 C 0.5967(3) 0.71804(17) -0.20022(15)
C12 C 0.5835(3) 0.52749(15) 0.09552(15)
C13 C 0.5793(3) 0.77253(16) -0.18538(15)
C14 C 0.5702(3) 0.76613(16) -0.13332(15)
C15 C 0.6740(4) 0.53057(16) 0.12078(15)
H4 H 0.7461 0.5298 0.1031
C16 C 0.4405(3) 0.83792(17) -0.10203(16)
H5 H 0.3813 0.8233 -0.1108
C17 C 0.5758(3) 0.83242(17) -0.23296(16)
C18 C 0.6148(4) 0.88234(17) -0.07608(16)
H6 H 0.6739 0.8972 -0.0674
C19 C 0.6031(4) 0.52372(16) 0.03998(15)
H7 H 0.5472 0.4993 0.0374
H8 H 0.6762 0.5037 0.0359
O10 O 0.6892(4) 0.74367(18) 0.20085(18)
C20 C 0.4186(4) 0.88039(18) -0.07752(18)
C21 C 0.5057(3) 0.90250(17) -0.06407(16)
C22 C 0.4614(4) 0.53415(17) 0.17314(16)
H9 H 0.3892 0.5365 0.1902
C23 C 0.5523(4) 0.53599(18) 0.19861(16)
C24 C 0.2835(3) 0.66843(18) -0.05695(18)
H10 H 0.2731 0.6554 -0.0174
H11 H 0.2893 0.6326 -0.0658
C25 C 0.6593(4) 0.53476(18) 0.17179(17)
C26 C 0.6995(4) 0.70430(19) -0.22326(18)
H12 H 0.7577 0.7296 -0.2301
C27 C 0.4823(4) 0.91121(19) 0.02723(19)
C28 C 0.6315(4) 0.61686(19) -0.22793(18)
H13 H 0.6434 0.5832 -0.2375
C29 C 0.5283(4) 0.63005(19) -0.20544(17)
H14 H 0.4699 0.6053 -0.1996
C30 C 0.5791(4) 0.9003(2) 0.0528(2)
C31 C 0.5772(5) 0.8660(2) 0.1088(2)
H15 H 0.6430 0.8586 0.1250
C32 C 0.4909(4) 0.8467(2) -0.26615(19)
H16 H 0.4346 0.8198 -0.2573
C33 C 0.8361(4) 0.8417(2) -0.1029(2)
H17 H 0.8308 0.8344 -0.0644
H18 H 0.8374 0.8853 -0.1240
C34 C 0.4843(4) 0.94549(19) -0.03409(18)
H19 H 0.5425 0.9743 -0.0471
H20 H 0.4132 0.9683 -0.0421
C35 C 0.2792(4) 0.5223(2) 0.12233(19)
H21 H 0.2535 0.5615 0.1240
H22 H 0.2761 0.4917 0.1594
C36 C 0.6591(4) 0.8731(2) -0.24755(19)
H23 H 0.7166 0.8649 -0.2257
C37 C 0.5160(4) 0.6110(2) 0.24267(18)
C38 C 0.4795(5) 0.8428(2) 0.1407(2)
C39 C 0.4099(5) 0.6404(2) 0.24281(19)
C40 C 0.9401(4) 0.8100(2) -0.1190(2)
H24 H 0.9378 0.7669 -0.0981
H25 H 1.0042 0.8248 -0.1120
H26 H 0.9451 0.8179 -0.1573
C41 C 0.5315(5) 0.5437(2) 0.25277(18)
H27 H 0.5944 0.5253 0.2736
H28 H 0.4650 0.5232 0.2740
C42 C 0.1870(4) 0.7102(2) -0.0814(2)
H29 H 0.1802 0.7447 -0.0711
H30 H 0.1194 0.6888 -0.0681
H31 H 0.1995 0.7239 -0.1205
C43 C 0.8670(4) 0.6272(2) -0.0049(2)
H32 H 0.8285 0.6443 0.0207
H33 H 0.8899 0.6606 -0.0390
C44 C 0.7185(4) 0.6537(2) -0.2365(2)
H34 H 0.7894 0.6443 -0.2511
C45 C 0.3838(4) 0.8885(2) 0.0594(2)
H35 H 0.3180 0.8958 0.0433
C46 C 0.5716(5) 0.9393(2) -0.3268(2)
H36 H 0.5707 0.9747 -0.3583
C47 C 0.9679(4) 0.5884(2) 0.0180(2)
H37 H 0.9444 0.5531 0.0495
H38 H 1.0131 0.6114 0.0286
H39 H 1.0109 0.5758 -0.0092
C48 C 0.5983(5) 0.7074(2) 0.2157(2)
C49 C 0.6088(5) 0.6455(2) 0.2290(2)
H40 H 0.6800 0.6263 0.2288
C50 C 0.4933(5) 0.7373(2) 0.21576(19)
C51 C 0.3995(5) 0.7029(2) 0.22981(19)
H41 H 0.3285 0.7222 0.2305
C52 C 0.4882(5) 0.9003(2) -0.3122(2)
H42 H 0.4291 0.9097 -0.3333
C53 C 0.3819(5) 0.8550(2) 0.1154(2)
C54 C 0.4791(6) 0.8055(2) 0.2016(2)
H43 H 0.4089 0.8145 0.2205
H44 H 0.5391 0.8176 0.2147
C55 C 0.2069(4) 0.5065(3) 0.0897(2)
H45 H 0.2075 0.5382 0.0538
H46 H 0.1317 0.5025 0.1077
H47 H 0.2353 0.4687 0.0868
C56 C 0.6574(5) 0.9262(2) -0.2947(2)
H48 H 0.7144 0.9529 -0.3046
C57 C 0.9377(5) 0.5408(3) 0.2064(2)
H49 H 0.9138 0.5714 0.2211
H50 H 1.0100 0.5495 0.1857
H51 H 0.9421 0.5015 0.2359
C58 C 0.8012(7) 0.7128(4) 0.2024(5)
H52 H 0.8152 0.6893 0.2400
H53 H 0.8065 0.6851 0.1837
C59 C 0.2208(5) 0.8806(4) -0.0778(4)
H54 H 0.2188 0.8367 -0.0593
H55 H 0.2263 0.8914 -0.1170
C60 C 0.7716(5) 0.9210(3) 0.0441(2)
H56 H 0.8001 0.8789 0.0600
H57 H 0.7550 0.9366 0.0728
C61 C 0.8552(4) 0.5409(3) 0.1699(2)
H58 H 0.8587 0.5781 0.1371
H59 H 0.8732 0.5066 0.1589
C62 C 0.2108(5) 0.6329(3) 0.2548(3)
H60 H 0.2009 0.6611 0.2177
H61 H 0.1990 0.6554 0.2784
C63 C 0.1836(6) 0.8494(4) 0.1280(3)
H62 H 0.1807 0.8356 0.0988
H63 H 0.1727 0.8935 0.1135
C64 C 0.1294(6) 0.5846(4) 0.2737(4)
H64 H 0.1420 0.5623 0.2502
H65 H 0.0546 0.6030 0.2724
H66 H 0.1390 0.5572 0.3106
C65 C 0.8554(5) 0.9580(3) 0.0005(3)
H67 H 0.8717 0.9418 -0.0275
H68 H 0.9227 0.9567 0.0159
H69 H 0.8258 0.9994 -0.0152
C66 C 0.0947(7) 0.8208(6) 0.1752(4)
H70 H 0.1176 0.7790 0.1953
H71 H 0.0252 0.8227 0.1613
H72 H 0.0851 0.8425 0.1991
C67 C 0.1166(6) 0.9119(7) -0.0586(8)
H73 H 0.1142 0.9021 -0.0201
H74 H 0.0512 0.8981 -0.0654
H75 H 0.1188 0.9552 -0.0782
C68 C 0.8781(13) 0.7556(8) 0.1773(8)
H76 H 0.8820 0.7682 0.1383
H77 H 0.9502 0.7386 0.1889
H78 H 0.8565 0.7901 0.1870
O11 O 0.6688(2) 0.29793(11) 0.34016(11)
O12 O 1.0568(2) 0.18131(12) 0.38283(11)
O13 O 0.6317(2) 0.45986(13) 0.41545(11)
O14 O 1.0497(2) 0.40738(14) 0.33806(13)
O15 O 0.6455(3) 0.08436(14) 0.47573(15)
O16 O 1.0003(3) 0.41869(16) 0.52802(13)
O17 O 0.5873(3) 0.35600(14) 0.61846(13)
O18 O 1.0019(3) 0.04191(16) 0.58957(14)
C69 C 0.9567(3) 0.15539(16) 0.40688(15)
O19 O 0.5795(5) 0.13304(19) 0.6445(2)
C70 C 0.8632(3) 0.18223(16) 0.37905(15)
C71 C 0.7610(3) 0.32723(16) 0.33929(15)
C72 C 0.8651(3) 0.29751(16) 0.33303(14)
C73 C 0.8513(3) 0.40961(16) 0.34460(14)
C74 C 0.7553(3) 0.38302(17) 0.34420(14)
H79 H 0.6857 0.4031 0.3473
C75 C 0.7215(3) 0.45111(18) 0.44430(16)
C76 C 0.8743(3) 0.23789(17) 0.32616(15)
C77 C 0.9059(3) 0.17707(17) 0.26790(15)
C78 C 0.8908(3) 0.23542(17) 0.27675(15)
C79 C 0.8941(3) 0.29203(17) 0.22556(16)
C80 C 0.9606(3) 0.32446(18) 0.33269(15)
H80 H 1.0303 0.3053 0.3280
C81 C 0.9548(3) 0.37936(17) 0.33912(16)
C82 C 0.8269(3) 0.45609(17) 0.41479(16)
C83 C 0.7598(3) 0.15859(17) 0.40160(17)
H81 H 0.6976 0.1758 0.3828
C84 C 0.8414(3) 0.46871(17) 0.35381(15)
H82 H 0.7776 0.4939 0.3372
H83 H 0.9081 0.4909 0.3363
C85 C 0.9438(3) 0.10629(17) 0.45669(16)
H84 H 1.0063 0.0883 0.4749
C86 C 0.5606(3) 0.32704(18) 0.34565(18)
H85 H 0.5519 0.3647 0.3140
H86 H 0.5506 0.3365 0.3781
C87 C 0.7988(4) 0.33015(18) 0.21119(17)
H87 H 0.7314 0.3203 0.2336
O20 O 0.9559(5) 0.1968(2) 0.67404(18)
C88 C 0.8398(4) 0.08328(17) 0.47998(17)
C89 C 0.9210(4) 0.44604(18) 0.44206(17)
H88 H 0.9919 0.4493 0.4225
C90 C 0.9103(4) 0.4311(2) 0.49827(18)
C91 C 0.7112(4) 0.43780(18) 0.50053(16)
H89 H 0.6403 0.4359 0.5199
C92 C 0.7472(3) 0.10982(18) 0.45161(18)
C93 C 0.8048(4) 0.42736(19) 0.52805(17)
C94 C 0.8091(5) 0.05898(19) 0.57960(19)
C95 C 0.5224(3) 0.4547(2) 0.44479(18)
H90 H 0.5081 0.4845 0.4614
H91 H 0.5156 0.4143 0.4736
C96 C 1.1567(3) 0.1496(2) 0.40511(18)
H92 H 1.1637 0.1089 0.4051
H93 H 1.1546 0.1462 0.4425
C97 C 0.9962(4) 0.1356(2) 0.28478(19)
H94 H 1.0484 0.1436 0.3029
C98 C 0.9934(4) 0.3073(2) 0.19121(18)
H95 H 1.0575 0.2816 0.1995
C99 C 0.4759(3) 0.28332(19) 0.3502(2)
H96 H 0.4889 0.2729 0.3187
H97 H 0.4019 0.3021 0.3523
H98 H 0.4831 0.2471 0.3827
C100 C 0.8292(4) 0.1636(2) 0.24176(19)
H99 H 0.7685 0.1910 0.2301
C101 C 0.7818(5) 0.3410(2) 0.61919(18)
C102 C 0.8973(5) 0.0646(2) 0.60483(19)
C103 C 0.8028(5) 0.3825(2) 0.16403(19)
H100 H 0.7380 0.4071 0.1545
C104 C 0.8277(4) 0.03257(18) 0.53641(19)
H101 H 0.7648 0.0090 0.5399
H102 H 0.8948 0.0056 0.5414
C105 C 0.4405(4) 0.4656(2) 0.4050(2)
H103 H 0.4437 0.5067 0.3784
H104 H 0.3664 0.4593 0.4242
H105 H 0.4587 0.4378 0.3868
C106 C 1.2537(4) 0.1850(2) 0.3702(2)
H106 H 1.2535 0.1893 0.3331
H107 H 1.3223 0.1638 0.3835
H108 H 1.2477 0.2246 0.3718
C107 C 0.7021(5) 0.0816(2) 0.5931(2)
H109 H 0.6422 0.0779 0.5768
C108 C 0.6791(5) 0.3157(2) 0.63165(17)
C109 C 0.8790(6) 0.0912(2) 0.6430(2)
H110 H 0.9383 0.0936 0.6603
C110 C 0.9026(5) 0.3984(2) 0.1308(2)
H111 H 0.9056 0.4342 0.0995
C111 C 1.1386(4) 0.3699(3) 0.3646(3)
H112 H 1.1675 0.3420 0.3470
H113 H 1.1127 0.3461 0.4025
C112 C 0.6694(6) 0.2521(2) 0.65624(18)
H114 H 0.5993 0.2365 0.6632
C113 C 0.7716(6) 0.1146(2) 0.6559(2)
C114 C 0.5465(4) 0.1188(2) 0.4572(2)
H115 H 0.5430 0.1245 0.4195
H116 H 0.5453 0.1585 0.4589
C115 C 0.8636(7) 0.2374(3) 0.6594(2)
C116 C 1.2289(4) 0.4093(3) 0.3616(3)
H117 H 1.2581 0.4304 0.3240
H118 H 1.2880 0.3844 0.3818
H119 H 1.1985 0.4385 0.3771
C117 C 1.1913(5) 0.3995(3) 0.5416(2)
H120 H 1.1816 0.4271 0.5600
H121 H 1.2664 0.4004 0.5237
H122 H 1.1779 0.3590 0.5678
C118 C 0.7538(7) 0.1449(3) 0.6970(2)
H123 H 0.6806 0.1360 0.7178
H124 H 0.8095 0.1278 0.7225
C119 C 0.7926(5) 0.4087(2) 0.58962(18)
H125 H 0.8575 0.4203 0.5998
H126 H 0.7269 0.4302 0.6006
C120 C 0.9977(4) 0.3609(2) 0.1445(2)
H127 H 1.0652 0.3714 0.1223
C121 C 0.8759(5) 0.3019(3) 0.6333(2)
H128 H 0.9464 0.3174 0.6258
C122 C 1.1101(4) 0.4182(2) 0.4998(2)
H129 H 1.1250 0.4584 0.4722
H130 H 1.1170 0.3896 0.4820
C123 C 1.0093(5) 0.0826(2) 0.2749(2)
H131 H 1.0706 0.0554 0.2859
C124 C 0.8403(5) 0.1100(2) 0.2324(2)
H132 H 0.7870 0.1012 0.2153
C125 C 0.9315(5) 0.0702(2) 0.2488(2)
H133 H 0.9406 0.0346 0.2422
C126 C 0.6838(6) 0.1093(2) 0.6303(2)
C127 C 1.0964(5) 0.0501(2) 0.6113(2)
H134 H 1.0837 0.0339 0.6510
H135 H 1.1092 0.0931 0.5982
C128 C 0.4480(5) 0.0847(3) 0.4934(3)
H136 H 0.4419 0.0489 0.4865
H137 H 0.3807 0.1105 0.4858
H138 H 0.4587 0.0730 0.5311
C129 C 0.4781(5) 0.3327(2) 0.6349(2)
H139 H 0.4704 0.3065 0.6735
H140 H 0.4662 0.3092 0.6142
C130 C 0.7620(7) 0.2131(3) 0.6700(2)
C131 C 0.3952(5) 0.3858(3) 0.6243(2)
H141 H 0.4087 0.4092 0.6445
H142 H 0.3209 0.3716 0.6357
H143 H 0.4024 0.4109 0.5859
C132 C 1.1961(5) 0.0166(3) 0.5926(3)
H144 H 1.1816 -0.0256 0.6049
H145 H 1.2609 0.0203 0.6075
H146 H 1.2092 0.0338 0.5533
C133 C 1.0561(8) 0.2193(4) 0.6783(4)
H147 H 1.0743 0.2598 0.6646
C134 C 0.4880(7) 0.1317(4) 0.6171(4)
H148 H 0.4723 0.0900 0.6253
H149 H 0.5055 0.1523 0.5778
C135 C 1.1282(8) 0.1628(5) 0.7104(4)
H150 H 1.0852 0.1386 0.7437
H151 H 1.1931 0.1753 0.7189
H152 H 1.1512 0.1391 0.6886
C136 C 0.3893(7) 0.1637(4) 0.6374(5)
H153 H 0.3916 0.1552 0.6754
H154 H 0.3215 0.1496 0.6331
H155 H 0.3913 0.2068 0.6166
C137 C 0.3465(13) 0.9910(4) 0.1974(4)
H156 H 0.3381 1.0351 0.1831
H157 H 0.3187 0.9763 0.2360
C138 C 0.1393(15) 0.9852(5) 0.1703(5)
C139 C 0.4710(13) 0.9727(4) 0.1926(4)
H158 H 0.4964 0.9853 0.1538
H159 H 0.4781 0.9285 0.2083
C140 C 0.6843(16) 0.9877(13) 0.2078(9)
C141 C 0.2688(15) 0.9681(4) 0.1680(4)
H160 H 0.2985 0.9824 0.1296
H161 H 0.2783 0.9240 0.1825
C142 C 0.5546(16) 0.9949(5) 0.2173(5)
H162 H 0.5351 0.9764 0.2567
H163 H 0.5364 1.0383 0.2069
N1 N 0.0423(14) 0.9776(10) 0.1655(11)
N2 N 0.7189(17) 0.9721(7) 0.2525(10)
N3 N 0.8658(17) 0.7707(12) 0.0368(12)
C143 C 0.4340(15) 0.6987(5) 0.0796(7)
H164 H 0.4505 0.6611 0.0737
H165 H 0.4248 0.6887 0.1187
C144 C 0.7685(17) 0.7531(9) 0.0489(8)
C145 C 0.236(2) 0.6951(15) 0.0966(13)
N4 N 0.1383(17) 0.6799(9) 0.1004(9)
C146 C 0.6609(14) 0.7201(8) 0.0674(9)
H166 H 0.6543 0.7057 0.1070
H167 H 0.6799 0.6839 0.0593
C147 C 0.3288(18) 0.7293(8) 0.0565(8)
H168 H 0.3271 0.7277 0.0210
H169 H 0.3223 0.7716 0.0522
C148 C 0.5285(16) 0.7390(5) 0.0531(5)
H170 H 0.5070 0.7762 0.0594
H171 H 0.5306 0.7500 0.0141
C149 C 0.440(3) 0.7185(8) 0.4959(8)
C150 C 0.1980(17) 0.7264(7) 0.4939(5)
H172 H 0.2097 0.7294 0.4563
H173 H 0.1836 0.6844 0.5174
C151 C -0.115(3) 0.7730(9) 0.4827(6)
C152 C 0.313(3) 0.7441(9) 0.5088(6)
H174 H 0.3138 0.7882 0.4915
H175 H 0.3019 0.7341 0.5480
C153 C 0.0052(18) 0.7484(10) 0.4813(8)
H176 H 0.0027 0.7046 0.5010
H177 H 0.0294 0.7549 0.4433
N5 N -0.215(2) 0.7911(10) 0.4945(9)
C154 C 0.099(2) 0.7661(7) 0.5005(6)
H178 H 0.0808 0.7605 0.5387
H179 H 0.1131 0.8086 0.4790
N6 N 0.537(2) 0.6973(9) 0.5058(9)
loop_
_geom_bond_atom_site_label_1
_geom_bond_atom_site_label_2
_geom_bond_site_symmetry_1
_geom_bond_site_symmetry_2
O1 C1 1_555 1_555
O2 C7 1_555 1_555
O3 C9 1_555 1_555
O4 C4 1_555 1_555
O5 C25 1_555 1_555
O6 C20 1_555 1_555
O7 C30 1_555 1_555
C1 C2 1_555 1_555
O8 C39 1_555 1_555
C2 C8 1_555 1_555
C3 C7 1_555 1_555
C4 C6 1_555 1_555
C5 C1 1_555 1_555
H1 C5 1_555 1_555
O9 C53 1_555 1_555
C6 C5 1_555 1_555
C7 C18 1_555 1_555
C8 C4 1_555 1_555
H2 C8 1_555 1_555
C9 C12 1_555 1_555
C10 H3 1_555 1_555
C11 C10 1_555 1_555
C12 C15 1_555 1_555
C13 C11 1_555 1_555
C14 C2 1_555 1_555
C15 H4 1_555 1_555
C16 C3 1_555 1_555
H5 C16 1_555 1_555
C17 C13 1_555 1_555
C18 H6 1_555 1_555
C19 C6 1_555 1_555
H7 C19 1_555 1_555
H8 C19 1_555 1_555
O10 C48 1_555 1_555
C20 C16 1_555 1_555
C21 C18 1_555 1_555
C22 C9 1_555 1_555
H9 C22 1_555 1_555
C23 C22 1_555 1_555
C24 O1 1_555 1_555
H10 C24 1_555 1_555
H11 C24 1_555 1_555
C25 C15 1_555 1_555
C26 C11 1_555 1_555
H12 C26 1_555 1_555
C27 C30 1_555 1_555
C28 H13 1_555 1_555
C29 C10 1_555 1_555
H14 C29 1_555 1_555
C30 C31 1_555 1_555
C31 H15 1_555 1_555
C32 C17 1_555 1_555
H16 C32 1_555 1_555
C33 O2 1_555 1_555
H17 C33 1_555 1_555
H18 C33 1_555 1_555
C34 C21 1_555 1_555
H19 C34 1_555 1_555
H20 C34 1_555 1_555
C35 O3 1_555 1_555
H21 C35 1_555 1_555
H22 C35 1_555 1_555
C36 C17 1_555 1_555
H23 C36 1_555 1_555
C37 C39 1_555 1_555
C38 C31 1_555 1_555
C39 C51 1_555 1_555
C40 C33 1_555 1_555
H24 C40 1_555 1_555
H25 C40 1_555 1_555
H26 C40 1_555 1_555
C41 C23 1_555 1_555
H27 C41 1_555 1_555
H28 C41 1_555 1_555
C42 C24 1_555 1_555
H29 C42 1_555 1_555
H30 C42 1_555 1_555
H31 C42 1_555 1_555
C43 O4 1_555 1_555
H32 C43 1_555 1_555
H33 C43 1_555 1_555
C44 C26 1_555 1_555
H34 C44 1_555 1_555
C45 C27 1_555 1_555
H35 C45 1_555 1_555
C46 H36 1_555 1_555
C47 C43 1_555 1_555
H37 C47 1_555 1_555
H38 C47 1_555 1_555
H39 C47 1_555 1_555
C48 C49 1_555 1_555
C49 C37 1_555 1_555
H40 C49 1_555 1_555
C50 C48 1_555 1_555
C51 C50 1_555 1_555
H41 C51 1_555 1_555
C52 C32 1_555 1_555
H42 C52 1_555 1_555
C53 C38 1_555 1_555
C54 C38 1_555 1_555
H43 C54 1_555 1_555
H44 C54 1_555 1_555
C55 C35 1_555 1_555
H45 C55 1_555 1_555
H46 C55 1_555 1_555
H47 C55 1_555 1_555
C56 C36 1_555 1_555
H48 C56 1_555 1_555
C57 H49 1_555 1_555
H50 C57 1_555 1_555
H51 C57 1_555 1_555
C58 O10 1_555 1_555
H52 C58 1_555 1_555
H53 C58 1_555 1_555
C59 O6 1_555 1_555
H54 C59 1_555 1_555
H55 C59 1_555 1_555
C60 O7 1_555 1_555
H56 C60 1_555 1_555
H57 C60 1_555 1_555
C61 O5 1_555 1_555
H58 C61 1_555 1_555
H59 C61 1_555 1_555
C62 O8 1_555 1_555
H60 C62 1_555 1_555
H61 C62 1_555 1_555
C63 O9 1_555 1_555
H62 C63 1_555 1_555
H63 C63 1_555 1_555
C64 C62 1_555 1_555
H64 C64 1_555 1_555
H65 C64 1_555 1_555
H66 C64 1_555 1_555
C65 C60 1_555 1_555
H67 C65 1_555 1_555
H68 C65 1_555 1_555
H69 C65 1_555 1_555
C66 C63 1_555 1_555
H70 C66 1_555 1_555
H71 C66 1_555 1_555
H72 C66 1_555 1_555
C67 C59 1_555 1_555
H73 C67 1_555 1_555
H74 C67 1_555 1_555
H75 C67 1_555 1_555
C68 C58 1_555 1_555
H76 C68 1_555 1_555
H77 C68 1_555 1_555
H78 C68 1_555 1_555
O11 C71 1_555 1_555
O12 C69 1_555 1_555
O13 C75 1_555 1_555
O14 C81 1_555 1_555
O15 C92 1_555 1_555
O16 C90 1_555 1_555
O17 C108 1_555 1_555
O18 C102 1_555 1_555
C69 C70 1_555 1_555
O19 C126 1_555 1_555
C70 C76 1_555 1_555
C71 C72 1_555 1_555
C72 C76 1_555 1_555
C73 C74 1_555 1_555
C74 C71 1_555 1_555
H79 C74 1_555 1_555
C75 C82 1_555 1_555
C76 C78 1_555 1_555
C77 C78 1_555 1_555
C78 C79 1_555 1_555
C79 C87 1_555 1_555
C80 C72 1_555 1_555
H80 C80 1_555 1_555
C81 C73 1_555 1_555
C82 C84 1_555 1_555
C83 C70 1_555 1_555
H81 C83 1_555 1_555
C84 C73 1_555 1_555
H82 C84 1_555 1_555
H83 C84 1_555 1_555
C85 C69 1_555 1_555
H84 C85 1_555 1_555
C86 O11 1_555 1_555
H85 C86 1_555 1_555
H86 C86 1_555 1_555
C87 H87 1_555 1_555
O20 C115 1_555 1_555
C88 C85 1_555 1_555
C89 C82 1_555 1_555
H88 C89 1_555 1_555
C90 C89 1_555 1_555
C91 C75 1_555 1_555
H89 C91 1_555 1_555
C92 C83 1_555 1_555
C93 C90 1_555 1_555
C94 C102 1_555 1_555
C95 O13 1_555 1_555
H90 C95 1_555 1_555
H91 C95 1_555 1_555
C96 O12 1_555 1_555
H92 C96 1_555 1_555
H93 C96 1_555 1_555
C97 C77 1_555 1_555
H94 C97 1_555 1_555
C98 C79 1_555 1_555
H95 C98 1_555 1_555
C99 C86 1_555 1_555
H96 C99 1_555 1_555
H97 C99 1_555 1_555
H98 C99 1_555 1_555
C100 C77 1_555 1_555
H99 C100 1_555 1_555
C101 C108 1_555 1_555
C102 C109 1_555 1_555
C103 C87 1_555 1_555
H100 C103 1_555 1_555
C104 C88 1_555 1_555
H101 C104 1_555 1_555
H102 C104 1_555 1_555
C105 C95 1_555 1_555
H103 C105 1_555 1_555
H104 C105 1_555 1_555
H105 C105 1_555 1_555
C106 C96 1_555 1_555
H106 C106 1_555 1_555
H107 C106 1_555 1_555
H108 C106 1_555 1_555
C107 C94 1_555 1_555
H109 C107 1_555 1_555
C108 C112 1_555 1_555
C109 H110 1_555 1_555
C110 C103 1_555 1_555
H111 C110 1_555 1_555
C111 O14 1_555 1_555
H112 C111 1_555 1_555
H113 C111 1_555 1_555
C112 H114 1_555 1_555
C113 C109 1_555 1_555
C114 O15 1_555 1_555
H115 C114 1_555 1_555
H116 C114 1_555 1_555
C115 C121 1_555 1_555
C116 C111 1_555 1_555
H117 C116 1_555 1_555
H118 C116 1_555 1_555
H119 C116 1_555 1_555
C117 H120 1_555 1_555
H121 C117 1_555 1_555
H122 C117 1_555 1_555
C118 C113 1_555 1_555
H123 C118 1_555 1_555
H124 C118 1_555 1_555
C119 C93 1_555 1_555
H125 C119 1_555 1_555
H126 C119 1_555 1_555
C120 C98 1_555 1_555
H127 C120 1_555 1_555
C121 C101 1_555 1_555
H128 C121 1_555 1_555
C122 O16 1_555 1_555
H129 C122 1_555 1_555
H130 C122 1_555 1_555
C123 C97 1_555 1_555
H131 C123 1_555 1_555
C124 C100 1_555 1_555
H132 C124 1_555 1_555
C125 C123 1_555 1_555
H133 C125 1_555 1_555
C126 C107 1_555 1_555
C127 O18 1_555 1_555
H134 C127 1_555 1_555
H135 C127 1_555 1_555
C128 C114 1_555 1_555
H136 C128 1_555 1_555
H137 C128 1_555 1_555
H138 C128 1_555 1_555
C129 O17 1_555 1_555
H139 C129 1_555 1_555
H140 C129 1_555 1_555
C130 C112 1_555 1_555
C131 C129 1_555 1_555
H141 C131 1_555 1_555
H142 C131 1_555 1_555
H143 C131 1_555 1_555
C132 C127 1_555 1_555
H144 C132 1_555 1_555
H145 C132 1_555 1_555
H146 C132 1_555 1_555
C133 O20 1_555 1_555
H147 C133 1_555 1_555
C134 O19 1_555 1_555
H148 C134 1_555 1_555
H149 C134 1_555 1_555
C135 C133 1_555 1_555
H150 C135 1_555 1_555
H151 C135 1_555 1_555
H152 C135 1_555 1_555
C136 C134 1_555 1_555
H153 C136 1_555 1_555
H154 C136 1_555 1_555
H155 C136 1_555 1_555
C137 H156 1_555 1_555
H157 C137 1_555 1_555
C138 C141 1_555 1_555
C139 C137 1_555 1_555
H158 C139 1_555 1_555
H159 C139 1_555 1_555
C140 C142 1_555 1_555
C141 C137 1_555 1_555
H160 C141 1_555 1_555
H161 C141 1_555 1_555
C142 C139 1_555 1_555
H162 C142 1_555 1_555
H163 C142 1_555 1_555
N1 C138 1_555 1_555
N2 C140 1_555 1_555
N3 C144 1_555 1_555
C143 H164 1_555 1_555
H165 C143 1_555 1_555
C144 C146 1_555 1_555
C145 N4 1_555 1_555
C146 H166 1_555 1_555
H167 C146 1_555 1_555
C147 C143 1_555 1_555
H168 C147 1_555 1_555
H169 C147 1_555 1_555
C148 C143 1_555 1_555
H170 C148 1_555 1_555
H171 C148 1_555 1_555
C149 C152 1_555 1_555
C150 H172 1_555 1_555
H173 C150 1_555 1_555
C151 C153 1_555 1_555
C152 C150 1_555 1_555
H174 C152 1_555 1_555
H175 C152 1_555 1_555
C153 H176 1_555 1_555
H177 C153 1_555 1_555
N5 C151 1_555 1_555
C154 C150 1_555 1_555
H178 C154 1_555 1_555
H179 C154 1_555 1_555
N6 C149 1_555 1_555
C3 C14 1_555 1_555
C12 C19 1_555 1_555
C13 C14 1_555 1_555
C20 C21 1_555 1_555
C23 C25 1_555 1_555
C27 C34 1_555 1_555
C28 C29 1_555 1_555
C28 C44 1_555 1_555
C37 C41 1_555 1_555
C45 C53 1_555 1_555
C46 C52 1_555 1_555
C46 C56 1_555 1_555
C50 C54 1_555 1_555
C57 C61 1_555 1_555
C80 C81 1_555 1_555
C88 C92 1_555 1_555
C91 C93 1_555 1_555
C94 C104 1_555 1_555
C101 C119 1_555 1_555
C110 C120 1_555 1_555
C113 C126 1_555 1_555
C115 C130 1_555 1_555
C117 C122 1_555 1_555
C118 C130 1_555 1_555
C124 C125 1_555 1_555
C145 C147 1_555 1_555
C146 C148 1_555 1_555
C153 C154 1_555 1_555

#END
