
#######################################################################
#
#                 Cambridge Crystallographic Data Centre
#                                CCDC 
#
#######################################################################
#
# If this CIF has been generated from an entry in the Cambridge 
# Structural Database, then it will include bibliographic, chemical, 
# crystal, experimental, refinement or atomic coordinate data resulting 
# from the CCDC's data processing and validation procedures.
#
#######################################################################

data_METNAB
_chemical_formula_moiety         'C21 H16 Cl2 N2'
_chemical_name_systematic        
5-(2-Chlorophenyl)-3-(4-chlorophenyl)-1-phenyl-2-pyrazoline
_symmetry_cell_setting           triclinic
_symmetry_space_group_name_H-M   'P -1'
_symmetry_Int_Tables_number      2
_space_group_name_Hall           '-P 1'
loop_
_symmetry_equiv_pos_site_id
_symmetry_equiv_pos_as_xyz
1 x,y,z
2 -x,-y,-z
_cell_length_a                   8.3520(17)
_cell_length_b                   9.5020(19)
_cell_length_c                   11.751(2)
_cell_angle_alpha                89.57(3)
_cell_angle_beta                 80.43(3)
_cell_angle_gamma                81.83(3)
_cell_volume                     910.132
_exptl_crystal_colour            yellow
_exptl_crystal_description       block
_cell_formula_units_Z            2
_exptl_crystal_recrystallization_method ethanol
loop_
_atom_site_label
_atom_site_type_symbol
_atom_site_fract_x
_atom_site_fract_y
_atom_site_fract_z
Cl1 Cl 0.26126(8) 0.39535(6) 0.33790(6)
Cl2 Cl -0.57901(7) 1.32802(7) 0.63871(6)
N1 N 0.1241(2) 0.82601(15) 0.21194(13)
N2 N 0.00678(18) 0.93922(14) 0.25339(13)
C1 C -0.0678(2) 0.6073(2) 0.16516(17)
H1 H -0.1065 0.7009 0.1495
C2 C -0.1341(3) 0.4978(3) 0.12114(18)
H2 H -0.2180 0.5185 0.0780
C3 C -0.0759(3) 0.3583(2) 0.14127(18)
H3 H -0.1193 0.2851 0.1106
C4 C 0.0460(3) 0.3275(2) 0.20645(19)
H4 H 0.0861 0.2335 0.2199
C5 C 0.1092(2) 0.43830(18) 0.25222(16)
C6 C 0.0555(2) 0.58008(17) 0.23234(14)
C7 C 0.1191(2) 0.70129(17) 0.28708(15)
H5 H 0.2282 0.6689 0.3059
C8 C 0.0010(2) 0.76404(17) 0.39588(15)
H6 H -0.0853 0.7062 0.4191
H7 H 0.0591 0.7732 0.4598
C9 C -0.0667(2) 0.90789(17) 0.35459(14)
C10 C 0.2301(2) 0.83345(18) 0.10791(15)
C11 C 0.2128(2) 0.9510(2) 0.03643(16)
H8 H 0.1291 1.0261 0.0580
C12 C 0.3202(3) 0.9556(2) -0.06654(18)
H9 H 0.3082 1.0346 -0.1133
C13 C 0.4452(3) 0.8446(3) -0.10096(19)
H10 H 0.5164 0.8483 -0.1704
C14 C 0.4622(3) 0.7286(2) -0.03071(19)
H11 H 0.5459 0.6537 -0.0533
C15 C 0.3570(2) 0.7216(2) 0.07298(17)
H12 H 0.3707 0.6426 0.1194
C16 C -0.1960(2) 1.00868(17) 0.42237(15)
C17 C -0.2592(2) 0.98018(19) 0.53662(16)
H13 H -0.2216 0.8946 0.5688
C18 C -0.3775(2) 1.0776(2) 0.60297(17)
H14 H -0.4192 1.0574 0.6788
C19 C -0.4321(2) 1.2042(2) 0.55497(17)
C20 C -0.3735(2) 1.2361(2) 0.44178(18)
H15 H -0.4117 1.3220 0.4105
C21 C -0.2571(2) 1.13772(19) 0.37612(16)
H16 H -0.2187 1.1577 0.2997
loop_
_geom_bond_atom_site_label_1
_geom_bond_atom_site_label_2
_geom_bond_site_symmetry_1
_geom_bond_site_symmetry_2
Cl1 C5 1_555 1_555
Cl2 C19 1_555 1_555
N1 N2 1_555 1_555
N2 C9 1_555 1_555
C1 H1 1_555 1_555
C2 C1 1_555 1_555
H2 C2 1_555 1_555
C3 C2 1_555 1_555
H3 C3 1_555 1_555
C4 C3 1_555 1_555
H4 C4 1_555 1_555
C5 C4 1_555 1_555
C6 C1 1_555 1_555
C7 N1 1_555 1_555
H5 C7 1_555 1_555
C8 C7 1_555 1_555
H6 C8 1_555 1_555
H7 C8 1_555 1_555
C9 C8 1_555 1_555
C10 N1 1_555 1_555
C11 C10 1_555 1_555
H8 C11 1_555 1_555
C12 C11 1_555 1_555
H9 C12 1_555 1_555
C13 C12 1_555 1_555
H10 C13 1_555 1_555
C14 C13 1_555 1_555
H11 C14 1_555 1_555
C15 C10 1_555 1_555
H12 C15 1_555 1_555
C16 C9 1_555 1_555
C17 C16 1_555 1_555
H13 C17 1_555 1_555
C18 C17 1_555 1_555
H14 C18 1_555 1_555
C19 C18 1_555 1_555
C20 C19 1_555 1_555
H15 C20 1_555 1_555
C21 C16 1_555 1_555
H16 C21 1_555 1_555
C5 C6 1_555 1_555
C6 C7 1_555 1_555
C14 C15 1_555 1_555
C20 C21 1_555 1_555

#END
