
#######################################################################
#
#                 Cambridge Crystallographic Data Centre
#                                CCDC 
#
#######################################################################
#
# If this CIF has been generated from an entry in the Cambridge 
# Structural Database, then it will include bibliographic, chemical, 
# crystal, experimental, refinement or atomic coordinate data resulting 
# from the CCDC's data processing and validation procedures.
#
#######################################################################

data_METNOP
_chemical_name_common            4-Methyl-7-phenylsulfonamidocoumarin
_chemical_formula_moiety         'C16 H13 N1 O4 S1'
_chemical_name_systematic        
4-Methyl-7-phenylsulfonamido-2H-1-benzopyran-2-one
_symmetry_cell_setting           triclinic
_symmetry_space_group_name_H-M   'P -1'
_symmetry_Int_Tables_number      2
_space_group_name_Hall           '-P 1'
loop_
_symmetry_equiv_pos_site_id
_symmetry_equiv_pos_as_xyz
1 x,y,z
2 -x,-y,-z
_cell_length_a                   8.040(3)
_cell_length_b                   8.193(3)
_cell_length_c                   11.656(5)
_cell_angle_alpha                83.246(5)
_cell_angle_beta                 85.316(5)
_cell_angle_gamma                70.287(4)
_cell_volume                     717.063
_exptl_crystal_colour            yellow
_exptl_crystal_description       block
_chemical_melting_point          '518-519 K'
_cell_formula_units_Z            2
_exptl_crystal_recrystallization_method ethanol
loop_
_atom_site_label
_atom_site_type_symbol
_atom_site_fract_x
_atom_site_fract_y
_atom_site_fract_z
O1 O 0.6429(3) 0.7223(2) 0.45846(15)
O2 O 0.7076(3) 0.6107(3) 0.29165(19)
O3 O 0.8542(3) 0.9148(2) 0.78300(17)
O4 O 0.7141(3) 0.9654(2) 0.97720(16)
N1 N 0.5329(3) 0.9637(3) 0.82199(18)
H1 H 0.4588 0.9541 0.8826
S1 S 0.73206(9) 0.88610(8) 0.87159(6)
C1 C 0.5938(5) 0.6607(4) 0.3657(2)
C2 C 0.4156(5) 0.6617(4) 0.3674(2)
H2 H 0.3804 0.6217 0.3052
C3 C 0.2958(4) 0.7175(4) 0.4542(2)
C4 C 0.3509(3) 0.7829(3) 0.5494(2)
C5 C 0.5244(3) 0.7819(3) 0.5484(2)
C6 C 0.5893(4) 0.8398(3) 0.6354(2)
H3 H 0.7057 0.8386 0.6311
C7 C 0.4780(3) 0.8998(3) 0.7296(2)
C8 C 0.3032(4) 0.9036(3) 0.7332(2)
H4 H 0.2278 0.9453 0.7960
C9 C 0.2415(4) 0.8465(3) 0.6453(2)
H5 H 0.1244 0.8500 0.6492
C10 C 0.1119(5) 0.7116(5) 0.4550(3)
H6 H 0.0991 0.6595 0.3881
H7 H 0.0290 0.8278 0.4537
H8 H 0.0896 0.6437 0.5237
C11 C 0.7784(3) 0.6610(3) 0.9037(2)
C12 C 0.9009(4) 0.5469(4) 0.8365(3)
H9 H 0.9605 0.5874 0.7739
C13 C 0.9337(5) 0.3706(4) 0.8640(3)
H10 H 1.0152 0.2913 0.8188
C14 C 0.8474(5) 0.3120(4) 0.9569(4)
H11 H 0.8697 0.1931 0.9747
C15 C 0.7279(5) 0.4286(5) 1.0241(4)
H12 H 0.6703 0.3883 1.0878
C16 C 0.6927(4) 0.6039(4) 0.9978(3)
H13 H 0.6117 0.6830 1.0433
loop_
_geom_bond_atom_site_label_1
_geom_bond_atom_site_label_2
_geom_bond_site_symmetry_1
_geom_bond_site_symmetry_2
O1 C1 1_555 1_555
O2 C1 1_555 1_555
O3 S1 1_555 1_555
O4 S1 1_555 1_555
N1 H1 1_555 1_555
S1 N1 1_555 1_555
C1 C2 1_555 1_555
C2 H2 1_555 1_555
C3 C2 1_555 1_555
C4 C3 1_555 1_555
C5 O1 1_555 1_555
C6 C5 1_555 1_555
H3 C6 1_555 1_555
C7 N1 1_555 1_555
C8 C7 1_555 1_555
H4 C8 1_555 1_555
C9 C4 1_555 1_555
H5 C9 1_555 1_555
C10 C3 1_555 1_555
H6 C10 1_555 1_555
H7 C10 1_555 1_555
H8 C10 1_555 1_555
C11 S1 1_555 1_555
C12 C11 1_555 1_555
H9 C12 1_555 1_555
C13 C12 1_555 1_555
H10 C13 1_555 1_555
C14 C13 1_555 1_555
H11 C14 1_555 1_555
C15 C14 1_555 1_555
H12 C15 1_555 1_555
C16 C11 1_555 1_555
H13 C16 1_555 1_555
C4 C5 1_555 1_555
C6 C7 1_555 1_555
C8 C9 1_555 1_555
C15 C16 1_555 1_555

#END
