
#######################################################################
#
#                 Cambridge Crystallographic Data Centre
#                                CCDC 
#
#######################################################################
#
# If this CIF has been generated from an entry in the Cambridge 
# Structural Database, then it will include bibliographic, chemical, 
# crystal, experimental, refinement or atomic coordinate data resulting 
# from the CCDC's data processing and validation procedures.
#
#######################################################################

data_METPUX
_chemical_formula_moiety         'C17 H16 N2'
_chemical_name_systematic        2,3-Diphenyl-6,7-dihydro-5H-1,4-diazepine
_symmetry_cell_setting           monoclinic
_symmetry_space_group_name_H-M   'P 21/n'
_symmetry_Int_Tables_number      14
_space_group_name_Hall           '-P 2yn'
loop_
_symmetry_equiv_pos_site_id
_symmetry_equiv_pos_as_xyz
1 x,y,z
2 1/2-x,1/2+y,1/2-z
3 -x,-y,-z
4 1/2+x,1/2-y,1/2+z
_cell_length_a                   8.708(2)
_cell_length_b                   17.649(3)
_cell_length_c                   9.171(2)
_cell_angle_alpha                90
_cell_angle_beta                 105.115(2)
_cell_angle_gamma                90
_cell_volume                     1360.71
_exptl_crystal_colour            colorless
_exptl_crystal_description       block
_chemical_melting_point          '392-393 K'
_cell_formula_units_Z            4
_exptl_crystal_recrystallization_method ethanol
loop_
_atom_site_label
_atom_site_type_symbol
_atom_site_fract_x
_atom_site_fract_y
_atom_site_fract_z
N1 N 0.59292(17) 0.23436(8) 0.28612(18)
N2 N 0.82982(19) 0.12753(9) 0.48271(17)
C1 C 0.7445(2) 0.23589(9) 0.31722(18)
C2 C 0.8424(2) 0.16496(9) 0.3676(2)
C3 C 0.7154(3) 0.15663(12) 0.5611(2)
H1 H 0.7297 0.2109 0.5757
H2 H 0.7344 0.1330 0.6597
C4 C 0.5471(3) 0.14030(12) 0.4705(3)
H3 H 0.4736 0.1688 0.5127
H4 H 0.5247 0.0869 0.4788
C5 C 0.5199(2) 0.16097(11) 0.3041(3)
H5 H 0.5651 0.1219 0.2535
H6 H 0.4066 0.1633 0.2568
C6 C 0.82478(19) 0.30969(9) 0.31339(18)
C7 C 0.9817(2) 0.32035(10) 0.3942(2)
H7 H 1.0394 0.2800 0.4467
C8 C 1.0530(2) 0.39047(11) 0.3972(2)
H8 H 1.1577 0.3973 0.4530
C9 C 0.9700(2) 0.45008(10) 0.3184(2)
H9 H 1.0184 0.4972 0.3208
C10 C 0.8156(2) 0.44011(10) 0.2361(2)
H10 H 0.7597 0.4804 0.1816
C11 C 0.7427(2) 0.37049(10) 0.2338(2)
H11 H 0.6376 0.3643 0.1784
C12 C 0.94575(19) 0.13572(9) 0.27481(19)
C13 C 1.0447(2) 0.07384(10) 0.3245(2)
H12 H 1.0506 0.0529 0.4189
C14 C 1.1338(2) 0.04337(12) 0.2351(3)
H13 H 1.1997 0.0021 0.2697
C15 C 1.1262(2) 0.07337(12) 0.0950(3)
H14 H 1.1861 0.0522 0.0349
C16 C 1.0299(2) 0.13449(11) 0.0440(2)
H15 H 1.0246 0.1550 -0.0506
C17 C 0.9405(2) 0.16563(10) 0.1342(2)
H16 H 0.8760 0.2073 0.0995
loop_
_geom_bond_atom_site_label_1
_geom_bond_atom_site_label_2
_geom_bond_site_symmetry_1
_geom_bond_site_symmetry_2
N1 C1 1_555 1_555
N2 C2 1_555 1_555
C1 C2 1_555 1_555
C2 C12 1_555 1_555
C3 N2 1_555 1_555
H1 C3 1_555 1_555
H2 C3 1_555 1_555
C4 C3 1_555 1_555
H3 C4 1_555 1_555
H4 C4 1_555 1_555
C5 N1 1_555 1_555
H5 C5 1_555 1_555
H6 C5 1_555 1_555
C6 C1 1_555 1_555
C7 C6 1_555 1_555
H7 C7 1_555 1_555
C8 C7 1_555 1_555
H8 C8 1_555 1_555
C9 C8 1_555 1_555
H9 C9 1_555 1_555
C10 C9 1_555 1_555
H10 C10 1_555 1_555
C11 C6 1_555 1_555
H11 C11 1_555 1_555
C12 C13 1_555 1_555
C13 H12 1_555 1_555
C14 C13 1_555 1_555
H13 C14 1_555 1_555
C15 C14 1_555 1_555
H14 C15 1_555 1_555
C16 C15 1_555 1_555
H15 C16 1_555 1_555
C17 C12 1_555 1_555
H16 C17 1_555 1_555
C4 C5 1_555 1_555
C10 C11 1_555 1_555
C16 C17 1_555 1_555

#END
