
#######################################################################
#
#                 Cambridge Crystallographic Data Centre
#                                CCDC 
#
#######################################################################
#
# If this CIF has been generated from an entry in the Cambridge 
# Structural Database, then it will include bibliographic, chemical, 
# crystal, experimental, refinement or atomic coordinate data resulting 
# from the CCDC's data processing and validation procedures.
#
#######################################################################

data_METQAE
_chemical_formula_moiety         'C22 H28 N2 O4'
_chemical_name_systematic        
6,6'-Dimethoxy-2,2'-(hexane-1,6-diyldinitrilodimethylidyne)diphenol
_symmetry_cell_setting           monoclinic
_symmetry_space_group_name_H-M   'P 21/c'
_symmetry_Int_Tables_number      14
_space_group_name_Hall           '-P 2ybc'
loop_
_symmetry_equiv_pos_site_id
_symmetry_equiv_pos_as_xyz
1 x,y,z
2 -x,1/2+y,1/2-z
3 -x,-y,-z
4 x,1/2-y,1/2+z
_cell_length_a                   21.834(11)
_cell_length_b                   8.420(4)
_cell_length_c                   11.203(6)
_cell_angle_alpha                90
_cell_angle_beta                 91.778(9)
_cell_angle_gamma                90
_cell_volume                     2058.59
_exptl_crystal_colour            yellow
_exptl_crystal_description       plate
_cell_formula_units_Z            4
loop_
_atom_site_label
_atom_site_type_symbol
_atom_site_fract_x
_atom_site_fract_y
_atom_site_fract_z
N1 N 0.4265(3) 0.0897(7) 0.8446(5)
O1 O 0.43011(18) -0.0516(5) 1.0496(4)
H1 H 0.4420 -0.0233 0.9842
O2 O 0.37742(19) -0.1263(5) 1.2498(4)
C1 C 0.3737(4) 0.1425(7) 0.8714(6)
H2 H 0.3529 0.2082 0.8172
C2 C 0.3451(3) 0.1044(7) 0.9821(6)
C3 C 0.3757(3) 0.0073(7) 1.0666(6)
C4 C 0.3457(3) -0.0280(7) 1.1736(6)
C5 C 0.2890(3) 0.0350(8) 1.1948(6)
H3 H 0.2694 0.0111 1.2651
C6 C 0.2611(3) 0.1356(8) 1.1098(8)
H4 H 0.2237 0.1820 1.1264
C7 C 0.2868(3) 0.1672(7) 1.0050(7)
H5 H 0.2663 0.2298 0.9482
C8 C 0.3501(3) -0.1648(9) 1.3594(6)
H6 H 0.3764 -0.2357 1.4042
H7 H 0.3113 -0.2153 1.3435
H8 H 0.3441 -0.0695 1.4046
C9 C 0.4527(4) 0.1385(10) 0.7304(7)
H9 H 0.4266 0.2194 0.6938
H10 H 0.4927 0.1853 0.7462
C10 C 0.4586(4) 0.0125(10) 0.6498(7)
H11 H 0.4188 -0.0362 0.6362
H12 H 0.4855 -0.0669 0.6858
C11 C 0.4838(4) 0.0605(8) 0.5297(7)
H13 H 0.4499 0.0951 0.4780
H14 H 0.5109 0.1507 0.5420
N1B N 0.5735(3) -0.0897(7) 0.1554(5)
O1B O 0.56989(18) 0.0516(5) -0.0496(4)
H1B H 0.5580 0.0233 0.0158
O2B O 0.62258(19) 0.1263(5) -0.2498(4)
C1B C 0.6263(4) -0.1425(7) 0.1286(6)
H2B H 0.6471 -0.2082 0.1828
C2B C 0.6549(3) -0.1044(7) 0.0179(6)
C3B C 0.6243(3) -0.0073(7) -0.0666(6)
C4B C 0.6543(3) 0.0280(7) -0.1736(6)
C5B C 0.7110(3) -0.0350(8) -0.1948(6)
H3B H 0.7306 -0.0111 -0.2651
C6B C 0.7389(3) -0.1356(8) -0.1098(8)
H4B H 0.7763 -0.1820 -0.1264
C7B C 0.7132(3) -0.1672(7) -0.0050(7)
H5B H 0.7337 -0.2298 0.0518
C8B C 0.6499(3) 0.1648(9) -0.3594(6)
H6B H 0.6236 0.2357 -0.4042
H7B H 0.6887 0.2153 -0.3435
H8B H 0.6559 0.0695 -0.4046
C9B C 0.5473(4) -0.1385(10) 0.2696(7)
H9B H 0.5734 -0.2194 0.3062
H10B H 0.5073 -0.1853 0.2538
C10B C 0.5414(4) -0.0125(10) 0.3502(7)
H11B H 0.5812 0.0362 0.3638
H12B H 0.5145 0.0669 0.3142
C11B C 0.5162(4) -0.0605(8) 0.4703(7)
H13B H 0.5501 -0.0951 0.5220
H14B H 0.4891 -0.1507 0.4580
N2 N 0.0901(2) 0.3990(6) 0.6828(4)
O3 O 0.15944(16) 0.3791(4) 0.8715(3)
H15 H 0.1390 0.3480 0.8135
O4 O 0.2200(2) 0.5193(5) 1.0454(4)
C12 C 0.0887(2) 0.5478(8) 0.6962(5)
H16 H 0.0659 0.6091 0.6420
C13 C 0.1218(2) 0.6251(6) 0.7938(5)
C14 C 0.1562(2) 0.5402(7) 0.8781(5)
C15 C 0.1882(3) 0.6160(7) 0.9706(5)
C16 C 0.1864(3) 0.7786(8) 0.9770(6)
H17 H 0.2083 0.8307 1.0378
C17 C 0.1526(3) 0.8655(8) 0.8943(6)
H18 H 0.1516 0.9757 0.8999
C18 C 0.1203(3) 0.7906(8) 0.8035(6)
H19 H 0.0974 0.8501 0.7482
C19 C 0.2583(3) 0.5889(9) 1.1358(6)
H20 H 0.2778 0.5067 1.1826
H21 H 0.2340 0.6541 1.1864
H22 H 0.2890 0.6530 1.0996
C20 C 0.0555(3) 0.3314(7) 0.5804(5)
H23 H 0.0782 0.3482 0.5084
H24 H 0.0166 0.3861 0.5708
C21 C 0.0443(2) 0.1582(6) 0.5958(5)
H25 H 0.0245 0.1410 0.6711
H26 H 0.0833 0.1029 0.5995
C22 C 0.0047(2) 0.0892(6) 0.4958(5)
H27 H 0.0234 0.1131 0.4204
H28 H -0.0350 0.1409 0.4955
N2B N -0.0901(2) -0.3990(6) 0.3172(4)
O3B O -0.15944(16) -0.3791(4) 0.1285(3)
H15B H -0.1390 -0.3480 0.1865
O4B O -0.2200(2) -0.5193(5) -0.0454(4)
C12B C -0.0887(2) -0.5478(8) 0.3038(5)
H16B H -0.0659 -0.6091 0.3580
C13B C -0.1218(2) -0.6251(6) 0.2062(5)
C14B C -0.1562(2) -0.5402(7) 0.1219(5)
C15B C -0.1882(3) -0.6160(7) 0.0294(5)
C16B C -0.1864(3) -0.7786(8) 0.0230(6)
H17B H -0.2083 -0.8307 -0.0378
C17B C -0.1526(3) -0.8655(8) 0.1057(6)
H18B H -0.1516 -0.9757 0.1001
C18B C -0.1203(3) -0.7906(8) 0.1965(6)
H19B H -0.0974 -0.8501 0.2518
C19B C -0.2583(3) -0.5889(9) -0.1358(6)
H20B H -0.2778 -0.5067 -0.1826
H21B H -0.2340 -0.6541 -0.1864
H22B H -0.2890 -0.6530 -0.0996
C20B C -0.0555(3) -0.3314(7) 0.4196(5)
H23B H -0.0782 -0.3482 0.4916
H24B H -0.0166 -0.3861 0.4292
C21B C -0.0443(2) -0.1582(6) 0.4042(5)
H25B H -0.0245 -0.1410 0.3289
H26B H -0.0833 -0.1029 0.4005
C22B C -0.0047(2) -0.0892(6) 0.5042(5)
H27B H -0.0234 -0.1131 0.5796
H28B H 0.0350 -0.1409 0.5045
loop_
_geom_bond_atom_site_label_1
_geom_bond_atom_site_label_2
_geom_bond_site_symmetry_1
_geom_bond_site_symmetry_2
N1 C1 1_555 1_555
O1 H1 1_555 1_555
O2 C4 1_555 1_555
C1 H2 1_555 1_555
C2 C1 1_555 1_555
C3 O1 1_555 1_555
C4 C3 1_555 1_555
C5 C4 1_555 1_555
H3 C5 1_555 1_555
C6 C5 1_555 1_555
H4 C6 1_555 1_555
C7 C2 1_555 1_555
H5 C7 1_555 1_555
C8 O2 1_555 1_555
H6 C8 1_555 1_555
H7 C8 1_555 1_555
H8 C8 1_555 1_555
C9 N1 1_555 1_555
H9 C9 1_555 1_555
H10 C9 1_555 1_555
C10 C9 1_555 1_555
H11 C10 1_555 1_555
H12 C10 1_555 1_555
C11 C10 1_555 1_555
H13 C11 1_555 1_555
H14 C11 1_555 1_555
N2 C12 1_555 1_555
O3 H15 1_555 1_555
O4 C15 1_555 1_555
C12 H16 1_555 1_555
C13 C12 1_555 1_555
C14 O3 1_555 1_555
C15 C14 1_555 1_555
C16 C15 1_555 1_555
H17 C16 1_555 1_555
C17 C16 1_555 1_555
H18 C17 1_555 1_555
C18 C13 1_555 1_555
H19 C18 1_555 1_555
C19 O4 1_555 1_555
H20 C19 1_555 1_555
H21 C19 1_555 1_555
H22 C19 1_555 1_555
C20 N2 1_555 1_555
H23 C20 1_555 1_555
H24 C20 1_555 1_555
C21 C20 1_555 1_555
H25 C21 1_555 1_555
H26 C21 1_555 1_555
C22 C21 1_555 1_555
H27 C22 1_555 1_555
H28 C22 1_555 1_555
N1B C1B 1_555 1_555
O1B H1B 1_555 1_555
O2B C4B 1_555 1_555
C1B H2B 1_555 1_555
C2B C1B 1_555 1_555
C3B O1B 1_555 1_555
C4B C3B 1_555 1_555
C5B C4B 1_555 1_555
H3B C5B 1_555 1_555
C6B C5B 1_555 1_555
H4B C6B 1_555 1_555
C7B C2B 1_555 1_555
H5B C7B 1_555 1_555
C8B O2B 1_555 1_555
H6B C8B 1_555 1_555
H7B C8B 1_555 1_555
H8B C8B 1_555 1_555
C9B N1B 1_555 1_555
H9B C9B 1_555 1_555
H10B C9B 1_555 1_555
C10B C9B 1_555 1_555
H11B C10B 1_555 1_555
H12B C10B 1_555 1_555
C11B C11 1_555 1_555
H13B C11B 1_555 1_555
H14B C11B 1_555 1_555
N2B C12B 1_555 1_555
O3B H15B 1_555 1_555
O4B C15B 1_555 1_555
C12B H16B 1_555 1_555
C13B C12B 1_555 1_555
C14B O3B 1_555 1_555
C15B C14B 1_555 1_555
C16B C15B 1_555 1_555
H17B C16B 1_555 1_555
C17B C16B 1_555 1_555
H18B C17B 1_555 1_555
C18B C13B 1_555 1_555
H19B C18B 1_555 1_555
C19B O4B 1_555 1_555
H20B C19B 1_555 1_555
H21B C19B 1_555 1_555
H22B C19B 1_555 1_555
C20B N2B 1_555 1_555
H23B C20B 1_555 1_555
H24B C20B 1_555 1_555
C21B C20B 1_555 1_555
H25B C21B 1_555 1_555
H26B C21B 1_555 1_555
C22B C22 1_555 1_555
H27B C22B 1_555 1_555
H28B C22B 1_555 1_555
C2 C3 1_555 1_555
C6 C7 1_555 1_555
C13 C14 1_555 1_555
C17 C18 1_555 1_555
C2B C3B 1_555 1_555
C6B C7B 1_555 1_555
C10B C11B 1_555 1_555
C13B C14B 1_555 1_555
C17B C18B 1_555 1_555
C21B C22B 1_555 1_555

#END
