
#######################################################################
#
#                 Cambridge Crystallographic Data Centre
#                                CCDC 
#
#######################################################################
#
# If this CIF has been generated from an entry in the Cambridge 
# Structural Database, then it will include bibliographic, chemical, 
# crystal, experimental, refinement or atomic coordinate data resulting 
# from the CCDC's data processing and validation procedures.
#
#######################################################################

data_METTIP
_chemical_formula_moiety         'C22 H21 N3 S1'
_chemical_name_systematic        
1-((Phenyl)(p-tolylimino)methyl)-3-(o-tolyl)thiourea
_symmetry_cell_setting           triclinic
_symmetry_space_group_name_H-M   'P -1'
_symmetry_Int_Tables_number      2
_space_group_name_Hall           '-P 1'
loop_
_symmetry_equiv_pos_site_id
_symmetry_equiv_pos_as_xyz
1 x,y,z
2 -x,-y,-z
_cell_length_a                   10.085(3)
_cell_length_b                   10.288(3)
_cell_length_c                   10.301(3)
_cell_angle_alpha                76.521(13)
_cell_angle_beta                 65.832(11)
_cell_angle_gamma                88.294(16)
_cell_volume                     945.637
_exptl_crystal_colour            colorless
_exptl_crystal_description       block
_chemical_melting_point          '398 K'
_cell_formula_units_Z            2
_exptl_crystal_recrystallization_method acetonitrile
loop_
_atom_site_label
_atom_site_type_symbol
_atom_site_fract_x
_atom_site_fract_y
_atom_site_fract_z
S1 S 0.27239(4) 0.47037(4) 0.13913(5)
N1 N 0.24082(13) 0.21211(12) 0.28180(14)
N2 N 0.47596(13) 0.30014(12) 0.12381(14)
N3 N 0.48027(13) 0.06990(12) 0.19435(14)
C1 C 0.32871(15) 0.31906(14) 0.18604(16)
C2 C 0.08984(15) 0.21861(14) 0.37220(16)
C3 C -0.01396(16) 0.13439(14) 0.36960(17)
C4 C -0.16066(17) 0.14406(17) 0.46157(19)
H1 H -0.2344 0.0879 0.4627
C5 C -0.19943(18) 0.23297(17) 0.5497(2)
H2 H -0.2994 0.2387 0.6091
C6 C -0.09486(18) 0.31399(16) 0.55274(18)
H3 H -0.1221 0.3745 0.6148
C7 C 0.04992(17) 0.30614(14) 0.46460(17)
H4 H 0.1229 0.3608 0.4669
C8 C 0.02648(19) 0.04044(16) 0.27128(19)
H5 H -0.0589 0.0161 0.2569
H6 H 0.0608 -0.0406 0.3159
H7 H 0.1041 0.0840 0.1763
C9 C 0.54938(15) 0.18572(14) 0.14271(16)
C10 C 0.70875(15) 0.21818(14) 0.09395(16)
C11 C 0.75291(16) 0.30245(15) 0.15872(17)
H8 H 0.6821 0.3358 0.2355
C12 C 0.89968(16) 0.33833(15) 0.11214(18)
H9 H 0.9294 0.3945 0.1581
C13 C 1.00203(17) 0.29207(16) -0.00099(19)
H10 H 1.1025 0.3175 -0.0341
C14 C 0.95923(17) 0.20872(18) -0.0666(2)
H11 H 1.0304 0.1773 -0.1448
C15 C 0.81253(16) 0.17067(17) -0.01863(18)
H12 H 0.7835 0.1122 -0.0629
C16 C 0.54960(14) -0.04758(14) 0.22946(16)
C17 C 0.55373(16) -0.15284(15) 0.16456(18)
H13 H 0.5237 -0.1413 0.0867
C18 C 0.60153(16) -0.27442(15) 0.21311(18)
H14 H 0.6042 -0.3452 0.1673
C19 C 0.64584(16) -0.29554(15) 0.32765(18)
C20 C 0.64441(17) -0.18834(15) 0.38910(18)
H15 H 0.6757 -0.1993 0.4661
C21 C 0.59807(16) -0.06548(15) 0.34009(17)
H16 H 0.5996 0.0067 0.3826
C22 C 0.6940(2) -0.42925(16) 0.3837(2)
H17 H 0.6458 -0.5009 0.3668
H18 H 0.6676 -0.4436 0.4890
H19 H 0.7999 -0.4300 0.3317
H20 H 0.2820(17) 0.1338(16) 0.2815(18)
H21 H 0.5340(17) 0.3706(17) 0.0598(19)
loop_
_geom_bond_atom_site_label_1
_geom_bond_atom_site_label_2
_geom_bond_site_symmetry_1
_geom_bond_site_symmetry_2
S1 C1 1_555 1_555
N1 C1 1_555 1_555
N2 C1 1_555 1_555
N3 C9 1_555 1_555
C2 N1 1_555 1_555
C3 C2 1_555 1_555
C4 C3 1_555 1_555
H1 C4 1_555 1_555
C5 C4 1_555 1_555
H2 C5 1_555 1_555
C6 C5 1_555 1_555
H3 C6 1_555 1_555
C7 C2 1_555 1_555
H4 C7 1_555 1_555
C8 C3 1_555 1_555
H5 C8 1_555 1_555
H6 C8 1_555 1_555
H7 C8 1_555 1_555
C9 N2 1_555 1_555
C10 C9 1_555 1_555
C11 C10 1_555 1_555
H8 C11 1_555 1_555
C12 C11 1_555 1_555
H9 C12 1_555 1_555
C13 C12 1_555 1_555
H10 C13 1_555 1_555
C14 C13 1_555 1_555
H11 C14 1_555 1_555
C15 C10 1_555 1_555
H12 C15 1_555 1_555
C16 N3 1_555 1_555
C17 C16 1_555 1_555
H13 C17 1_555 1_555
C18 C17 1_555 1_555
H14 C18 1_555 1_555
C19 C18 1_555 1_555
C20 C19 1_555 1_555
H15 C20 1_555 1_555
C21 C16 1_555 1_555
H16 C21 1_555 1_555
C22 C19 1_555 1_555
H17 C22 1_555 1_555
H18 C22 1_555 1_555
H19 C22 1_555 1_555
H20 N1 1_555 1_555
H21 N2 1_555 1_555
C6 C7 1_555 1_555
C14 C15 1_555 1_555
C20 C21 1_555 1_555

#END
