
#######################################################################
#
#                 Cambridge Crystallographic Data Centre
#                                CCDC 
#
#######################################################################
#
# If this CIF has been generated from an entry in the Cambridge 
# Structural Database, then it will include bibliographic, chemical, 
# crystal, experimental, refinement or atomic coordinate data resulting 
# from the CCDC's data processing and validation procedures.
#
#######################################################################

data_METYAM
_chemical_formula_moiety         'C20 H18 O6 S2'
_chemical_name_systematic        p-Phenylenebis(4-methylbenzenesulfonate)
_symmetry_cell_setting           monoclinic
_symmetry_space_group_name_H-M   'P 21/c'
_symmetry_Int_Tables_number      14
_space_group_name_Hall           '-P 2ybc'
loop_
_symmetry_equiv_pos_site_id
_symmetry_equiv_pos_as_xyz
1 x,y,z
2 -x,1/2+y,1/2-z
3 -x,-y,-z
4 x,1/2-y,1/2+z
_cell_length_a                   8.8736(10)
_cell_length_b                   12.3084(14)
_cell_length_c                   9.3696(10)
_cell_angle_alpha                90
_cell_angle_beta                 103.890(2)
_cell_angle_gamma                90
_cell_volume                     993.422
_exptl_crystal_colour            colorless
_exptl_crystal_description       Block
_cell_formula_units_Z            2
_exptl_crystal_recrystallization_method acetone
loop_
_atom_site_label
_atom_site_type_symbol
_atom_site_fract_x
_atom_site_fract_y
_atom_site_fract_z
S1 S 0.79443(6) -0.10023(4) 0.11458(6)
O1 O 0.70069(17) -0.16592(12) 0.18345(17)
O2 O 0.82983(17) -0.13375(12) -0.01880(16)
O3 O 0.96324(15) -0.08875(11) 0.22244(16)
C1 C 0.7250(2) 0.03245(15) 0.0998(2)
C2 C 0.7876(2) 0.10675(19) 0.0196(2)
H1 H 0.8631 0.0855 -0.0285
C3 C 0.7366(2) 0.21246(19) 0.0118(2)
H2 H 0.7786 0.2627 -0.0419
C4 C 0.6250(2) 0.24570(16) 0.0815(2)
C5 C 0.5638(2) 0.17070(19) 0.1593(2)
H3 H 0.4873 0.1920 0.2062
C6 C 0.6132(2) 0.06385(17) 0.1698(2)
H4 H 0.5711 0.0139 0.2237
C7 C 0.5709(3) 0.36218(19) 0.0713(3)
H5 H 0.6349 0.4047 0.0234
H6 H 0.5784 0.3902 0.1684
H7 H 0.4650 0.3657 0.0158
C8 C 0.9779(2) -0.04374(17) 0.3642(2)
C9 C 1.0471(2) 0.05671(17) 0.3910(3)
H8 H 1.0785 0.0941 0.3168
C10 C 0.9311(2) -0.10049(17) 0.4712(3)
H9 H 0.8849 -0.1683 0.4507
S1B S 1.20557(6) 0.10023(4) 0.88542(6)
O1B O 1.29931(17) 0.16592(12) 0.81655(17)
O2B O 1.17017(17) 0.13375(12) 1.01880(16)
O3B O 1.03676(15) 0.08875(11) 0.77756(16)
C1B C 1.2750(2) -0.03245(15) 0.9002(2)
C2B C 1.2124(2) -0.10675(19) 0.9804(2)
H1B H 1.1369 -0.0855 1.0285
C3B C 1.2634(2) -0.21246(19) 0.9882(2)
H2B H 1.2214 -0.2627 1.0419
C4B C 1.3750(2) -0.24570(16) 0.9185(2)
C5B C 1.4362(2) -0.17070(19) 0.8407(2)
H3B H 1.5127 -0.1920 0.7938
C6B C 1.3868(2) -0.06385(17) 0.8302(2)
H4B H 1.4289 -0.0139 0.7763
C7B C 1.4291(3) -0.36218(19) 0.9287(3)
H5B H 1.3651 -0.4047 0.9766
H6B H 1.4216 -0.3902 0.8316
H7B H 1.5350 -0.3657 0.9842
C8B C 1.0221(2) 0.04374(17) 0.6358(2)
C9B C 0.9529(2) -0.05671(17) 0.6090(3)
H8B H 0.9215 -0.0941 0.6832
C10B C 1.0689(2) 0.10049(17) 0.5288(3)
H9B H 1.1151 0.1683 0.5493
loop_
_geom_bond_atom_site_label_1
_geom_bond_atom_site_label_2
_geom_bond_site_symmetry_1
_geom_bond_site_symmetry_2
S1 O1 1_555 1_555
O2 S1 1_555 1_555
O3 S1 1_555 1_555
C1 S1 1_555 1_555
C2 C1 1_555 1_555
H1 C2 1_555 1_555
C3 C2 1_555 1_555
H2 C3 1_555 1_555
C4 C3 1_555 1_555
C5 C4 1_555 1_555
H3 C5 1_555 1_555
C6 C1 1_555 1_555
H4 C6 1_555 1_555
C7 C4 1_555 1_555
H5 C7 1_555 1_555
H6 C7 1_555 1_555
H7 C7 1_555 1_555
C8 O3 1_555 1_555
C9 C8 1_555 1_555
H8 C9 1_555 1_555
C10 C8 1_555 1_555
H9 C10 1_555 1_555
S1B O1B 1_555 1_555
O2B S1B 1_555 1_555
O3B S1B 1_555 1_555
C1B S1B 1_555 1_555
C2B C1B 1_555 1_555
H1B C2B 1_555 1_555
C3B C2B 1_555 1_555
H2B C3B 1_555 1_555
C4B C3B 1_555 1_555
C5B C4B 1_555 1_555
H3B C5B 1_555 1_555
C6B C1B 1_555 1_555
H4B C6B 1_555 1_555
C7B C4B 1_555 1_555
H5B C7B 1_555 1_555
H6B C7B 1_555 1_555
H7B C7B 1_555 1_555
C8B O3B 1_555 1_555
C9B C10 1_555 1_555
H8B C9B 1_555 1_555
C10B C9 1_555 1_555
H9B C10B 1_555 1_555
C5 C6 1_555 1_555
C5B C6B 1_555 1_555
C8B C9B 1_555 1_555
C8B C10B 1_555 1_555

#END
