
#######################################################################
#
#                 Cambridge Crystallographic Data Centre
#                                CCDC 
#
#######################################################################
#
# If this CIF has been generated from an entry in the Cambridge 
# Structural Database, then it will include bibliographic, chemical, 
# crystal, experimental, refinement or atomic coordinate data resulting 
# from the CCDC's data processing and validation procedures.
#
#######################################################################

data_MEVNUZ
_chemical_formula_moiety         'C19 H19 N1 O1'
_chemical_name_systematic        
1-(2,5a-dimethyl-5a,6-dihydronaphtho[3,2,1-cd]indol-4(5H)-yl)ethan-1-one
_symmetry_cell_setting           orthorhombic
_symmetry_space_group_name_H-M   'P b c a'
_symmetry_Int_Tables_number      61
_space_group_name_Hall           '-P 2ac 2ab'
loop_
_symmetry_equiv_pos_site_id
_symmetry_equiv_pos_as_xyz
1 x,y,z
2 1/2+x,1/2-y,-z
3 -x,1/2+y,1/2-z
4 1/2-x,-y,1/2+z
5 -x,-y,-z
6 1/2-x,1/2+y,z
7 x,1/2-y,1/2+z
8 1/2+x,y,1/2-z
_cell_length_a                   9.46989(15)
_cell_length_b                   15.7728(3)
_cell_length_c                   19.6273(3)
_cell_angle_alpha                90
_cell_angle_beta                 90
_cell_angle_gamma                90
_cell_volume                     2931.66
_exptl_crystal_colour            yellow
_exptl_crystal_description       block
_cell_formula_units_Z            8
_exptl_crystal_recrystallization_method methanol
loop_
_atom_site_label
_atom_site_type_symbol
_atom_site_fract_x
_atom_site_fract_y
_atom_site_fract_z
O1 O 0.07028(9) 0.23453(5) 0.49470(4)
C1 C 0.10544(12) 0.10673(7) 0.38822(6)
H1 H 0.16327(12) 0.15282(7) 0.40207(6)
C2 C -0.11294(14) 0.21775(8) 0.57779(6)
H2 H -0.0631(6) 0.2635(4) 0.6015(2)
H3 H -0.2089(4) 0.2363(6) 0.56657(7)
H4 H -0.1174(9) 0.16772(18) 0.6073(2)
N1 N -0.08954(10) 0.13014(6) 0.47631(5)
C3 C -0.02459(12) 0.09186(7) 0.41910(6)
C4 C -0.27575(12) -0.11849(7) 0.37822(6)
C5 C 0.06383(12) -0.01639(7) 0.31617(6)
H5 H 0.09610(12) -0.05412(7) 0.28180(6)
C6 C -0.11059(12) 0.02699(7) 0.39631(6)
C7 C -0.23835(13) -0.22027(7) 0.26238(6)
H6 H -0.22527(13) -0.25497(7) 0.22333(6)
C8 C -0.16549(12) -0.10117(7) 0.33181(6)
C9 C -0.36255(13) 0.07282(8) 0.39060(6)
H7 H -0.3321(5) 0.13142(18) 0.3829(4)
H8 H -0.3749(7) 0.0442(3) 0.3467(2)
H9 H -0.4523(3) 0.0728(5) 0.4154(2)
C10 C -0.34686(13) -0.23735(7) 0.30796(6)
H10 H -0.40844(13) -0.28388(7) 0.30011(6)
C11 C 0.29148(12) 0.06371(7) 0.30337(6)
H11 H 0.27942(13) 0.0753(6) 0.25467(11)
H12 H 0.3400(4) 0.1116(4) 0.3250(3)
H13 H 0.3478(4) 0.0121(2) 0.3093(4)
C12 C 0.14867(12) 0.05163(7) 0.33601(6)
C13 C -0.21334(13) 0.07754(7) 0.49718(6)
H14 H -0.18836(13) 0.03953(7) 0.53547(6)
H15 H -0.29361(13) 0.11384(7) 0.51108(6)
C14 C -0.14932(12) -0.15217(7) 0.27436(6)
H16 H -0.07593(12) -0.14002(7) 0.24284(6)
C15 C -0.36538(12) -0.18651(7) 0.36496(7)
H17 H -0.44064(12) -0.19833(7) 0.39553(7)
C16 C -0.06860(12) -0.02968(7) 0.34641(6)
C17 C -0.25021(12) 0.02591(7) 0.43264(6)
C18 C -0.03541(12) 0.19582(7) 0.51345(6)
C19 C -0.29175(13) -0.06710(7) 0.44349(6)
H18 H -0.39101(13) -0.07001(7) 0.45916(6)
H19 H -0.23137(13) -0.09204(7) 0.47946(6)
loop_
_geom_bond_atom_site_label_1
_geom_bond_atom_site_label_2
_geom_bond_site_symmetry_1
_geom_bond_site_symmetry_2
O1 C18 1_555 1_555
C1 H1 1_555 1_555
C2 H2 1_555 1_555
H3 C2 1_555 1_555
H4 C2 1_555 1_555
N1 C3 1_555 1_555
C3 C1 1_555 1_555
C4 C8 1_555 1_555
C5 H5 1_555 1_555
C6 C3 1_555 1_555
C7 H6 1_555 1_555
C8 C14 1_555 1_555
C9 H7 1_555 1_555
H8 C9 1_555 1_555
H9 C9 1_555 1_555
C10 C7 1_555 1_555
H10 C10 1_555 1_555
C11 H11 1_555 1_555
H12 C11 1_555 1_555
H13 C11 1_555 1_555
C12 C1 1_555 1_555
C13 N1 1_555 1_555
H14 C13 1_555 1_555
H15 C13 1_555 1_555
C14 C7 1_555 1_555
H16 C14 1_555 1_555
C15 C4 1_555 1_555
H17 C15 1_555 1_555
C16 C5 1_555 1_555
C17 C6 1_555 1_555
C18 C2 1_555 1_555
C19 C4 1_555 1_555
H18 C19 1_555 1_555
H19 C19 1_555 1_555
N1 C18 1_555 1_555
C5 C12 1_555 1_555
C6 C16 1_555 1_555
C8 C16 1_555 1_555
C9 C17 1_555 1_555
C10 C15 1_555 1_555
C11 C12 1_555 1_555
C13 C17 1_555 1_555
C17 C19 1_555 1_555

#END
