
#######################################################################
#
#                 Cambridge Crystallographic Data Centre
#                                CCDC 
#
#######################################################################
#
# If this CIF has been generated from an entry in the Cambridge 
# Structural Database, then it will include bibliographic, chemical, 
# crystal, experimental, refinement or atomic coordinate data resulting 
# from the CCDC's data processing and validation procedures.
#
#######################################################################

data_MEVWUF
_chemical_name_common            
3-(Benzoyl(4-methoxyphenyl)methylene)-2,3-dihydro-1H-indol-2-one
_chemical_formula_moiety         'C25 H19 N1 O4'
_chemical_name_systematic        
1-Acetyl-3-(benzoyl(4-methoxyphenyl)methylene)-2,3-dihydro-1H-indol-2-one
_symmetry_cell_setting           monoclinic
_symmetry_space_group_name_H-M   'P 21/c'
_symmetry_Int_Tables_number      14
_space_group_name_Hall           '-P 2ybc'
loop_
_symmetry_equiv_pos_site_id
_symmetry_equiv_pos_as_xyz
1 x,y,z
2 x,1/2-y,1/2+z
3 -x,-y,-z
4 -x,1/2+y,1/2-z
_cell_length_a                   8.0395(3)
_cell_length_b                   16.7881(5)
_cell_length_c                   14.8438(5)
_cell_angle_alpha                90
_cell_angle_beta                 96.9540(10)
_cell_angle_gamma                90
_cell_volume                     1988.7
_exptl_crystal_colour            yellow
_exptl_crystal_description       block
_chemical_melting_point          453K
_cell_formula_units_Z            4
_exptl_crystal_recrystallization_method 'petroleum ether/ethyl acetate'
loop_
_atom_site_label
_atom_site_type_symbol
_atom_site_fract_x
_atom_site_fract_y
_atom_site_fract_z
O1 O 0.8466(2) -0.11836(9) 0.51135(11)
O2 O 0.92050(19) 0.05665(8) 0.70865(9)
O3 O 0.85943(16) 0.22279(7) 0.78816(8)
O4 O 0.7318(2) 0.52297(8) 0.48966(11)
N1 N 0.82185(19) 0.00548(8) 0.56590(10)
C1 C 0.7254(2) 0.03884(10) 0.48790(11)
C2 C 0.6493(3) -0.00042(12) 0.41222(13)
H1 H 0.6624 -0.0550 0.4047
C3 C 0.5527(3) 0.04500(13) 0.34811(14)
H2 H 0.5001 0.0201 0.2964
C4 C 0.5313(3) 0.12558(13) 0.35797(13)
H3 H 0.4639 0.1540 0.3138
C5 C 0.6105(3) 0.16458(12) 0.43394(13)
H4 H 0.5971 0.2192 0.4408
C6 C 0.7095(2) 0.12134(10) 0.49923(11)
C7 C 0.8035(2) 0.14297(10) 0.58651(11)
C8 C 0.8573(2) 0.06629(10) 0.63084(12)
C9 C 0.8729(3) -0.07465(11) 0.57524(14)
C10 C 0.9613(3) -0.10116(13) 0.66339(15)
H5 H 1.0541 -0.0663 0.6812
H6 H 1.0017 -0.1545 0.6576
H7 H 0.8854 -0.0999 0.7086
C11 C 0.8464(2) 0.21246(9) 0.62867(11)
C12 C 0.8138(2) 0.29326(10) 0.58980(11)
C13 C 0.8507(2) 0.31184(11) 0.50349(12)
H8 H 0.8939 0.2724 0.4689
C14 C 0.8252(2) 0.38720(11) 0.46736(12)
H9 H 0.8504 0.3981 0.4091
C15 C 0.7623(3) 0.44627(11) 0.51813(13)
C16 C 0.7274(3) 0.42918(11) 0.60552(13)
H10 H 0.6858 0.4689 0.6403
C17 C 0.7538(3) 0.35421(11) 0.64088(12)
H11 H 0.7314 0.3439 0.6998
C18 C 0.7631(4) 0.54352(14) 0.40031(16)
H12 H 0.7332 0.5982 0.3885
H13 H 0.6973 0.5100 0.3573
H14 H 0.8799 0.5362 0.3948
C19 C 0.9387(2) 0.21135(9) 0.72443(11)
C20 C 1.1223(2) 0.20053(10) 0.73653(12)
C21 C 1.2186(2) 0.21474(11) 0.66717(14)
H15 H 1.1681 0.2323 0.6110
C22 C 1.3900(3) 0.20283(13) 0.68117(17)
H16 H 1.4549 0.2139 0.6349
C23 C 1.4647(3) 0.17483(14) 0.76303(19)
H17 H 1.5797 0.1659 0.7717
C24 C 1.3702(3) 0.15992(13) 0.83217(18)
H18 H 1.4211 0.1405 0.8874
C25 C 1.2004(3) 0.17361(12) 0.81995(14)
H19 H 1.1373 0.1649 0.8676
loop_
_geom_bond_atom_site_label_1
_geom_bond_atom_site_label_2
_geom_bond_site_symmetry_1
_geom_bond_site_symmetry_2
O1 C9 1_555 1_555
O2 C8 1_555 1_555
O3 C19 1_555 1_555
O4 C15 1_555 1_555
N1 C1 1_555 1_555
C1 C2 1_555 1_555
C2 H1 1_555 1_555
C3 C2 1_555 1_555
H2 C3 1_555 1_555
C4 C3 1_555 1_555
H3 C4 1_555 1_555
C5 C4 1_555 1_555
H4 C5 1_555 1_555
C6 C1 1_555 1_555
C7 C6 1_555 1_555
C8 N1 1_555 1_555
C9 N1 1_555 1_555
C10 C9 1_555 1_555
H5 C10 1_555 1_555
H6 C10 1_555 1_555
H7 C10 1_555 1_555
C11 C7 1_555 1_555
C12 C11 1_555 1_555
C13 C12 1_555 1_555
H8 C13 1_555 1_555
C14 C13 1_555 1_555
H9 C14 1_555 1_555
C15 C14 1_555 1_555
C16 C15 1_555 1_555
H10 C16 1_555 1_555
C17 C12 1_555 1_555
H11 C17 1_555 1_555
C18 O4 1_555 1_555
H12 C18 1_555 1_555
H13 C18 1_555 1_555
H14 C18 1_555 1_555
C19 C11 1_555 1_555
C20 C19 1_555 1_555
C21 C20 1_555 1_555
H15 C21 1_555 1_555
C22 C21 1_555 1_555
H16 C22 1_555 1_555
C23 C22 1_555 1_555
H17 C23 1_555 1_555
C24 C23 1_555 1_555
H18 C24 1_555 1_555
C25 C20 1_555 1_555
H19 C25 1_555 1_555
C5 C6 1_555 1_555
C7 C8 1_555 1_555
C16 C17 1_555 1_555
C24 C25 1_555 1_555

#END
