
#######################################################################
#
#                 Cambridge Crystallographic Data Centre
#                                CCDC 
#
#######################################################################
#
# If this CIF has been generated from an entry in the Cambridge 
# Structural Database, then it will include bibliographic, chemical, 
# crystal, experimental, refinement or atomic coordinate data resulting 
# from the CCDC's data processing and validation procedures.
#
#######################################################################

data_MEVWAO
_chemical_formula_moiety         'C32 H26 N2 O2 S1'
_chemical_name_systematic        
4-methyl-2,6-bis(2-phenylethenyl)-N-(quinolin-8-yl)benzene-1-sulfonamide
_symmetry_cell_setting           orthorhombic
_symmetry_space_group_name_H-M   'P b c a'
_symmetry_Int_Tables_number      61
_space_group_name_Hall           '-P 2ac 2ab'
loop_
_symmetry_equiv_pos_site_id
_symmetry_equiv_pos_as_xyz
1 x,y,z
2 1/2-x,-y,1/2+z
3 -x,1/2+y,1/2-z
4 1/2+x,1/2-y,-z
5 -x,-y,-z
6 1/2+x,y,1/2-z
7 x,1/2-y,1/2+z
8 1/2-x,1/2+y,z
_cell_length_a                   18.5545(8)
_cell_length_b                   14.7937(6)
_cell_length_c                   18.5942(8)
_cell_angle_alpha                90
_cell_angle_beta                 90
_cell_angle_gamma                90
_cell_volume                     5103.92
_exptl_crystal_colour            colorless
_exptl_crystal_description       block
_cell_formula_units_Z            8
loop_
_atom_site_label
_atom_site_type_symbol
_atom_site_fract_x
_atom_site_fract_y
_atom_site_fract_z
S1 S 0.35493(4) 0.61521(5) 0.53700(4)
C1 C 0.44902(17) 0.6219(2) 0.55300(15)
N1 N 0.31588(15) 0.68804(19) 0.58904(14)
O1 O 0.33986(12) 0.64644(14) 0.46613(10)
O2 O 0.32909(12) 0.52818(14) 0.55735(11)
N2 N 0.29705(14) 0.84982(17) 0.64600(14)
C2 C 0.48465(17) 0.7033(2) 0.53478(16)
C3 C 0.55874(17) 0.7075(2) 0.54396(17)
H1 H 0.583136 0.761936 0.532015
C4 C 0.59829(18) 0.6357(2) 0.56977(17)
C5 C 0.56241(18) 0.5578(2) 0.58792(16)
H2 H 0.589644 0.508340 0.605903
C6 C 0.48822(17) 0.5477(2) 0.58129(15)
C7 C 0.44729(19) 0.7845(2) 0.50868(18)
H3 H 0.398252 0.791197 0.522388
C8 C 0.47433(19) 0.8480(2) 0.46886(19)
H4 H 0.522746 0.839915 0.453524
C9 C 0.43829(18) 0.9305(2) 0.44508(17)
C10 C 0.37069(19) 0.9562(2) 0.46829(19)
H5 H 0.346549 0.920834 0.503456
C11 C 0.3376(2) 1.0325(2) 0.4412(2)
H6 H 0.290904 1.048960 0.457669
C12 C 0.3717(2) 1.0845(2) 0.3910(2)
H7 H 0.348213 1.136070 0.371398
C13 C 0.4394(2) 1.0622(2) 0.3690(2)
H8 H 0.463838 1.099483 0.335258
C14 C 0.4729(2) 0.9857(2) 0.39535(19)
H9 H 0.520035 0.970665 0.379385
C15 C 0.67854(19) 0.6421(2) 0.5775(2)
H10 H 0.697616 0.683851 0.541213
H11 H 0.699991 0.582209 0.570577
H12 H 0.690493 0.664536 0.625598
C16 C 0.45746(18) 0.4597(2) 0.60178(16)
H13 H 0.420254 0.435198 0.572580
C17 C 0.47863(18) 0.4126(2) 0.65858(17)
H14 H 0.514253 0.439448 0.688436
C18 C 0.45240(18) 0.3235(2) 0.67963(17)
C19 C 0.49013(19) 0.2747(2) 0.73067(17)
H15 H 0.532566 0.299850 0.751090
C20 C 0.4675(2) 0.1904(2) 0.7525(2)
H16 H 0.494006 0.158195 0.787942
C21 C 0.4064(2) 0.1529(3) 0.7231(2)
H17 H 0.390764 0.094722 0.737975
C22 C 0.3681(2) 0.2000(2) 0.6718(2)
H18 H 0.326376 0.173780 0.650730
C23 C 0.39026(19) 0.2853(2) 0.65100(19)
H19 H 0.362711 0.318198 0.616786
C24 C 0.32493(16) 0.6952(2) 0.66434(15)
C25 C 0.34177(17) 0.6247(2) 0.70856(17)
H20 H 0.351154 0.566548 0.689038
C26 C 0.34511(18) 0.6388(2) 0.78302(17)
H21 H 0.356954 0.589583 0.813655
C27 C 0.33181(18) 0.7210(2) 0.81229(17)
H22 H 0.333980 0.728741 0.862962
C28 C 0.31487(16) 0.7946(2) 0.76804(16)
C29 C 0.30079(17) 0.8822(2) 0.79365(18)
H23 H 0.302231 0.894503 0.843777
C30 C 0.28517(19) 0.9490(2) 0.74640(19)
H24 H 0.274702 1.008184 0.763193
C31 C 0.28453(18) 0.9303(2) 0.67282(19)
H25 H 0.274500 0.978350 0.640473
C32 C 0.31171(16) 0.7822(2) 0.69263(16)
H26 H 0.3099(17) 0.736(2) 0.5709(17)
loop_
_geom_bond_atom_site_label_1
_geom_bond_atom_site_label_2
_geom_bond_site_symmetry_1
_geom_bond_site_symmetry_2
S1 C1 1_555 1_555
C1 C2 1_555 1_555
N1 S1 1_555 1_555
O1 S1 1_555 1_555
O2 S1 1_555 1_555
N2 C31 1_555 1_555
C2 C3 1_555 1_555
C3 H1 1_555 1_555
C4 C3 1_555 1_555
C5 C4 1_555 1_555
H2 C5 1_555 1_555
C6 C1 1_555 1_555
C7 C2 1_555 1_555
H3 C7 1_555 1_555
C8 C7 1_555 1_555
H4 C8 1_555 1_555
C9 C8 1_555 1_555
C10 C9 1_555 1_555
H5 C10 1_555 1_555
C11 C10 1_555 1_555
H6 C11 1_555 1_555
C12 C11 1_555 1_555
H7 C12 1_555 1_555
C13 C12 1_555 1_555
H8 C13 1_555 1_555
C14 C9 1_555 1_555
H9 C14 1_555 1_555
C15 C4 1_555 1_555
H10 C15 1_555 1_555
H11 C15 1_555 1_555
H12 C15 1_555 1_555
C16 C6 1_555 1_555
H13 C16 1_555 1_555
C17 C16 1_555 1_555
H14 C17 1_555 1_555
C18 C17 1_555 1_555
C19 C18 1_555 1_555
H15 C19 1_555 1_555
C20 C19 1_555 1_555
H16 C20 1_555 1_555
C21 C20 1_555 1_555
H17 C21 1_555 1_555
C22 C21 1_555 1_555
H18 C22 1_555 1_555
C23 C18 1_555 1_555
H19 C23 1_555 1_555
C24 N1 1_555 1_555
C25 C24 1_555 1_555
H20 C25 1_555 1_555
C26 C25 1_555 1_555
H21 C26 1_555 1_555
C27 C26 1_555 1_555
H22 C27 1_555 1_555
C28 C27 1_555 1_555
C29 C28 1_555 1_555
H23 C29 1_555 1_555
C30 C29 1_555 1_555
H24 C30 1_555 1_555
C31 C30 1_555 1_555
H25 C31 1_555 1_555
C32 N2 1_555 1_555
H26 N1 1_555 1_555
C5 C6 1_555 1_555
C13 C14 1_555 1_555
C22 C23 1_555 1_555
C24 C32 1_555 1_555
C28 C32 1_555 1_555

#END
