
#######################################################################
#
#                 Cambridge Crystallographic Data Centre
#                                CCDC 
#
#######################################################################
#
# If this CIF has been generated from an entry in the Cambridge 
# Structural Database, then it will include bibliographic, chemical, 
# crystal, experimental, refinement or atomic coordinate data resulting 
# from the CCDC's data processing and validation procedures.
#
#######################################################################

data_MEWCAV
_chemical_formula_moiety         'C19 H24 B1 N3'
_chemical_name_systematic        
(1,3-dimethyl-1H-imidazol-3-ium-2-yl)(dihydrido)[(4-methylphenyl)(phenylamino)methyl]borate
_symmetry_cell_setting           monoclinic
_symmetry_space_group_name_H-M   'P 21/c'
_symmetry_Int_Tables_number      14
_space_group_name_Hall           '-P 2ybc'
loop_
_symmetry_equiv_pos_site_id
_symmetry_equiv_pos_as_xyz
1 x,y,z
2 -x,1/2+y,1/2-z
3 -x,-y,-z
4 x,1/2-y,1/2+z
_cell_length_a                   5.846(7)
_cell_length_b                   15.521(17)
_cell_length_c                   19.81(2)
_cell_angle_alpha                90
_cell_angle_beta                 92.73(2)
_cell_angle_gamma                90
_cell_volume                     1795.44
_cell_formula_units_Z            4
loop_
_atom_site_label
_atom_site_type_symbol
_atom_site_fract_x
_atom_site_fract_y
_atom_site_fract_z
B1 B 0.8715(4) 0.44404(14) 0.61326(12)
H1 H 0.8870 0.4399 0.5542
H2 H 1.0407 0.4375 0.6430
C1 C 0.6470(6) 0.55268(17) 0.91878(12)
H3 H 0.5358 0.5958 0.9289
H4 H 0.7900 0.5658 0.9423
H5 H 0.5941 0.4973 0.9329
C2 C 0.6794(4) 0.55143(13) 0.84463(11)
C3 C 0.5104(4) 0.52346(13) 0.79944(11)
H6 H 0.3723 0.5043 0.8154
C4 C 0.5406(3) 0.52324(12) 0.73155(10)
H7 H 0.4216 0.5048 0.7022
C5 C 0.7428(3) 0.54957(11) 0.70547(9)
C6 C 0.9122(3) 0.57887(13) 0.75076(10)
H8 H 1.0500 0.5983 0.7348
C7 C 0.8807(4) 0.57982(14) 0.81880(11)
H9 H 0.9975 0.6000 0.8482
C8 C 0.7778(3) 0.54054(11) 0.63158(9)
H10 H 0.6307 0.5499 0.6068
C9 C 0.7191(3) 0.72932(12) 0.62372(9)
H11 H 0.6079 0.6978 0.6449
C10 C 0.6933(4) 0.81721(14) 0.61623(11)
H12 H 0.5647 0.8441 0.6323
C11 C 0.8538(5) 0.86502(15) 0.58557(12)
H13 H 0.8366 0.9243 0.5811
C12 C 1.0381(5) 0.82486(15) 0.56184(12)
H14 H 1.1474 0.8570 0.5402
C13 C 1.0675(4) 0.73767(14) 0.56892(11)
H15 H 1.1970 0.7116 0.5525
C14 C 0.9073(3) 0.68791(12) 0.60020(9)
C15 C 0.7050(3) 0.37041(11) 0.63697(9)
C16 C 0.4136(5) 0.27836(16) 0.63768(16)
H16 H 0.2801 0.2491 0.6245
C17 C 0.5397(6) 0.26559(15) 0.69304(15)
H17 H 0.5119 0.2255 0.7266
C18 C 0.8956(5) 0.3322(2) 0.74714(12)
H18 H 1.0366 0.3504 0.7287
H19 H 0.9185 0.2782 0.7700
H20 H 0.8466 0.3747 0.7786
C19 C 0.4237(4) 0.37587(18) 0.53908(11)
H21 H 0.2916 0.4107 0.5465
H22 H 0.3810 0.3288 0.5096
H23 H 0.5383 0.4102 0.5187
N1 N 0.9432(3) 0.60110(11) 0.60704(9)
H24 H 1.0594 0.5783 0.5835
N2 N 0.7213(3) 0.32221(11) 0.69280(8)
N3 N 0.5144(3) 0.34248(11) 0.60296(8)
loop_
_geom_bond_atom_site_label_1
_geom_bond_atom_site_label_2
_geom_bond_site_symmetry_1
_geom_bond_site_symmetry_2
B1 H1 1_555 1_555
H2 B1 1_555 1_555
C1 H3 1_555 1_555
H4 C1 1_555 1_555
H5 C1 1_555 1_555
C2 C1 1_555 1_555
C3 C2 1_555 1_555
H6 C3 1_555 1_555
C4 C3 1_555 1_555
H7 C4 1_555 1_555
C5 C4 1_555 1_555
C6 C5 1_555 1_555
H8 C6 1_555 1_555
C7 C2 1_555 1_555
H9 C7 1_555 1_555
C8 B1 1_555 1_555
H10 C8 1_555 1_555
C9 H11 1_555 1_555
C10 C9 1_555 1_555
H12 C10 1_555 1_555
C11 C10 1_555 1_555
H13 C11 1_555 1_555
C12 C11 1_555 1_555
H14 C12 1_555 1_555
C13 C12 1_555 1_555
H15 C13 1_555 1_555
C14 C9 1_555 1_555
C15 B1 1_555 1_555
C16 H16 1_555 1_555
C17 C16 1_555 1_555
H17 C17 1_555 1_555
C18 H18 1_555 1_555
H19 C18 1_555 1_555
H20 C18 1_555 1_555
C19 H21 1_555 1_555
H22 C19 1_555 1_555
H23 C19 1_555 1_555
N1 C8 1_555 1_555
H24 N1 1_555 1_555
N2 C15 1_555 1_555
N3 C15 1_555 1_555
C5 C8 1_555 1_555
C6 C7 1_555 1_555
C13 C14 1_555 1_555
C14 N1 1_555 1_555
C16 N3 1_555 1_555
C17 N2 1_555 1_555
C18 N2 1_555 1_555
C19 N3 1_555 1_555

#END
