
#######################################################################
#
#                 Cambridge Crystallographic Data Centre
#                                CCDC 
#
#######################################################################
#
# If this CIF has been generated from an entry in the Cambridge 
# Structural Database, then it will include bibliographic, chemical, 
# crystal, experimental, refinement or atomic coordinate data resulting 
# from the CCDC's data processing and validation procedures.
#
#######################################################################

data_MEWHAA
_chemical_formula_moiety         'C42 H56 F2 N8 O6,0.25(C1 H4 O1),0.5(H2 O1)'
_chemical_name_systematic        
"N,N'-{(6,6'-difluoro-1H,1'H-2,2'-biindole-3,3'-diyl)bis[methanediyl(4-hydroxypyrrolidine-2,1-diyl)(1-oxobutane-1,2-diyl)]}bis[2-(methylamino)propanamide] methanol solvate hemihydrate"
_symmetry_cell_setting           monoclinic
_symmetry_space_group_name_H-M   'P 21'
_symmetry_Int_Tables_number      4
_space_group_name_Hall           'P 2yb'
loop_
_symmetry_equiv_pos_site_id
_symmetry_equiv_pos_as_xyz
1 x,y,z
2 -x,1/2+y,-z
_cell_length_a                   15.5722(8)
_cell_length_b                   17.6996(9)
_cell_length_c                   16.4977(9)
_cell_angle_alpha                90
_cell_angle_beta                 100.302(3)
_cell_angle_gamma                90
_cell_volume                     4473.82
_cell_formula_units_Z            4
loop_
_atom_site_label
_atom_site_type_symbol
_atom_site_fract_x
_atom_site_fract_y
_atom_site_fract_z
F1 F 0.4902(3) 0.6327(4) 0.3546(3)
F2 F 0.2505(3) 0.2609(3) -0.3282(3)
O1 O 0.6722(3) 0.3990(4) -0.1483(3)
O2 O 0.6270(3) 0.4910(3) 0.1325(3)
O3 O 0.9127(3) 0.5881(4) 0.2189(4)
O4 O 0.0580(4) 0.5477(4) 0.1439(4)
O5 O 0.1133(3) 0.3700(3) -0.0837(3)
O6 O -0.1852(3) 0.3650(3) -0.2219(3)
N1 N 0.4451(4) 0.4800(4) 0.1082(3)
N2 N 0.2961(3) 0.3813(4) -0.0615(4)
N3 N 0.6648(3) 0.4872(4) 0.0073(4)
N4 N 0.7866(4) 0.5204(4) 0.2132(4)
N5 N 0.7734(5) 0.5385(5) 0.3664(4)
N6 N 0.0666(3) 0.4714(4) -0.0205(4)
N7 N -0.0439(3) 0.3368(4) -0.1666(3)
N8 N -0.0206(5) 0.2453(5) -0.2834(5)
C1 C 0.4404(5) 0.5901(6) 0.2940(5)
C2 C 0.3524(5) 0.5842(5) 0.2974(5)
C3 C 0.2984(4) 0.5426(5) 0.2380(5)
C4 C 0.3348(4) 0.5084(4) 0.1743(4)
C5 C 0.4255(4) 0.5174(5) 0.1749(5)
C6 C 0.4807(5) 0.5575(5) 0.2347(5)
C7 C 0.3683(4) 0.4482(4) 0.0632(4)
C8 C 0.2998(4) 0.4659(4) 0.1027(5)
C9 C 0.3722(4) 0.4078(4) -0.0123(4)
C10 C 0.4436(4) 0.3888(5) -0.0500(4)
C11 C 0.4084(4) 0.3519(5) -0.1243(4)
C12 C 0.3163(4) 0.3467(5) -0.1301(5)
C13 C 0.2615(5) 0.3160(5) -0.1981(5)
C14 C 0.3025(5) 0.2902(5) -0.2598(5)
C15 C 0.3928(5) 0.2909(5) -0.2558(5)
C16 C 0.4461(5) 0.3211(5) -0.1903(5)
C17 C 0.5386(4) 0.4010(5) -0.0207(4)
C18 C 0.5709(4) 0.4809(5) -0.0340(4)
C19 C 0.5779(4) 0.4984(5) -0.1242(4)
C20 C 0.6702(5) 0.4778(6) -0.1337(5)
C21 C 0.7244(4) 0.5015(6) -0.0531(5)
C22 C 0.6844(4) 0.4915(5) 0.0884(5)
C23 C 0.7821(5) 0.4930(6) 0.1297(5)
C24 C 0.8208(6) 0.4154(8) 0.1296(7)
C25 C 0.7820(9) 0.3589(9) 0.1692(8)
C26 C 0.8534(5) 0.5626(5) 0.2513(5)
C27 C 0.8490(5) 0.5763(6) 0.3413(5)
C28 C 0.9344(6) 0.5490(7) 0.3946(6)
C29 C 0.7020(6) 0.5892(6) 0.3767(6)
C30 C 0.2031(4) 0.4451(4) 0.0782(4)
C31 C 0.1565(4) 0.4991(4) 0.0109(4)
C32 C 0.1400(4) 0.5787(4) 0.0370(5)
C33 C 0.0496(5) 0.5773(5) 0.0626(6)
C34 C -0.0005(5) 0.5234(5) -0.0011(5)
C35 C 0.0527(4) 0.4092(5) -0.0650(4)
C36 C -0.0397(4) 0.3796(5) -0.0899(4)
C37 C -0.0591(4) 0.3287(5) -0.0211(4)
C38 C -0.1466(4) 0.2883(5) -0.0378(5)
C39 C -0.1172(5) 0.3311(5) -0.2240(5)
C40 C -0.1071(5) 0.2780(5) -0.2930(6)
C41 C -0.1758(7) 0.2168(7) -0.2974(9)
C42 C 0.0259(6) 0.2555(7) -0.3495(8)
F3 F 0.9051(3) 0.2398(3) 0.3487(3)
F4 F 0.8668(3) 0.7475(3) 0.9114(3)
O7 O 1.2347(3) 0.6179(3) 0.7640(4)
O8 O 1.1106(3) 0.4127(3) 0.5548(3)
O9 O 1.3632(3) 0.3421(5) 0.4497(4)
O10 O 0.5318(3) 0.3858(4) 0.4932(3)
O11 O 0.6619(3) 0.5910(3) 0.6935(3)
O12 O 0.3903(3) 0.6764(4) 0.7413(4)
N9 N 0.9361(3) 0.4270(4) 0.5636(3)
N10 N 0.8372(3) 0.5519(3) 0.7046(4)
N11 N 1.1953(3) 0.4737(4) 0.6582(3)
N12 N 1.2303(3) 0.3729(4) 0.4761(4)
N13 N 1.1504(4) 0.2679(5) 0.3757(4)
N14 N 0.5837(3) 0.4893(4) 0.6426(3)
N15 N 0.5254(3) 0.6734(4) 0.7094(4)
N16 N 0.5817(4) 0.7828(5) 0.8189(5)
C43 C 0.8736(5) 0.2887(5) 0.3999(5)
C44 C 0.7817(5) 0.2934(5) 0.3922(5)
C45 C 0.7469(5) 0.3432(5) 0.4416(5)
C46 C 0.8028(4) 0.3864(5) 0.5003(4)
C47 C 0.8948(4) 0.3783(5) 0.5048(4)
C48 C 0.9327(4) 0.3290(5) 0.4549(5)
C49 C 0.7907(4) 0.4435(4) 0.5571(4)
C50 C 0.8732(4) 0.4670(4) 0.5959(4)
C51 C 0.8996(4) 0.5234(4) 0.6588(4)
C52 C 0.9782(4) 0.5590(4) 0.6868(4)
C53 C 0.9659(4) 0.6105(4) 0.7506(4)
C54 C 0.8770(4) 0.6043(4) 0.7587(4)
C55 C 0.8424(4) 0.6511(5) 0.8140(4)
C56 C 0.8977(5) 0.6987(5) 0.8566(5)
C57 C 0.9838(5) 0.7102(5) 0.8495(5)
C58 C 1.0195(4) 0.6648(4) 0.7957(5)
C59 C 1.0626(4) 0.5499(4) 0.6559(4)
C60 C 1.1193(4) 0.4864(4) 0.7003(4)
C61 C 1.1651(4) 0.5048(5) 0.7874(4)
C62 C 1.2521(4) 0.5405(5) 0.7809(5)
C63 C 1.2790(4) 0.4997(4) 0.7089(4)
C64 C 1.1830(4) 0.4363(5) 0.5864(5)
C65 C 1.2583(4) 0.4287(5) 0.5400(4)
C66 C 1.2787(5) 0.5043(5) 0.5016(5)
C67 C 1.1988(6) 0.5419(7) 0.4510(6)
C68 C 1.2831(5) 0.3363(6) 0.4346(5)
C69 C 1.2362(5) 0.2884(6) 0.3638(5)
C70 C 1.2287(6) 0.3374(6) 0.2844(6)
C71 C 1.1497(6) 0.2081(6) 0.4354(6)
C72 C 0.7030(4) 0.4758(5) 0.5645(4)
C73 C 0.6620(4) 0.4440(4) 0.6357(4)
C74 C 0.6266(4) 0.3650(4) 0.6220(5)
C75 C 0.5313(4) 0.3751(5) 0.5786(5)
C76 C 0.5031(4) 0.4443(5) 0.6193(5)
C77 C 0.5913(4) 0.5604(4) 0.6669(4)
C78 C 0.5104(4) 0.6105(5) 0.6541(5)
C79 C 0.4961(5) 0.6382(5) 0.5606(5)
C80 C 0.4196(6) 0.6893(6) 0.5369(6)
C81 C 0.4648(4) 0.7025(5) 0.7481(5)
C82 C 0.4879(5) 0.7746(5) 0.7947(6)
C83 C 0.4508(6) 0.8412(6) 0.7416(6)
C84 C 0.6200(7) 0.7410(7) 0.8930(8)
O13 O 0.7040(30) 0.6560(40) 0.0690(40)
O14 O 0.8651(9) 0.6799(10) 0.0728(9)
O15 O 0.3750(20) 0.6870(20) 0.0696(19)
C85 C 0.4045(19) 0.6500(20) -0.0130(20)
loop_
_geom_bond_atom_site_label_1
_geom_bond_atom_site_label_2
_geom_bond_site_symmetry_1
_geom_bond_site_symmetry_2
F1 C1 1_555 1_555
F2 C14 1_555 1_555
O1 C20 1_555 1_555
O2 C22 1_555 1_555
O3 C26 1_555 1_555
O4 C33 1_555 1_555
O5 C35 1_555 1_555
O6 C39 1_555 1_555
N1 C5 1_555 1_555
N2 C9 1_555 1_555
N3 C18 1_555 1_555
N4 C23 1_555 1_555
N5 C27 1_555 1_555
N6 C31 1_555 1_555
N7 C36 1_555 1_555
N8 C40 1_555 1_555
C1 C2 1_555 1_555
C2 C3 1_555 1_555
C3 C4 1_555 1_555
C4 C5 1_555 1_555
C5 C6 1_555 1_555
C6 C1 1_555 1_555
C7 N1 1_555 1_555
C8 C4 1_555 1_555
C9 C7 1_555 1_555
C10 C9 1_555 1_555
C11 C10 1_555 1_555
C12 N2 1_555 1_555
C13 C12 1_555 1_555
C14 C13 1_555 1_555
C15 C14 1_555 1_555
C16 C11 1_555 1_555
C17 C10 1_555 1_555
C18 C17 1_555 1_555
C19 C18 1_555 1_555
C20 C19 1_555 1_555
C21 N3 1_555 1_555
C22 N3 1_555 1_555
C23 C22 1_555 1_555
C24 C23 1_555 1_555
C25 C24 1_555 1_555
C26 N4 1_555 1_555
C27 C26 1_555 1_555
C28 C27 1_555 1_555
C29 N5 1_555 1_555
C30 C8 1_555 1_555
C31 C30 1_555 1_555
C32 C31 1_555 1_555
C33 C32 1_555 1_555
C34 N6 1_555 1_555
C35 N6 1_555 1_555
C36 C35 1_555 1_555
C37 C36 1_555 1_555
C38 C37 1_555 1_555
C39 N7 1_555 1_555
C40 C39 1_555 1_555
C41 C40 1_555 1_555
C42 N8 1_555 1_555
F3 C43 1_555 1_555
F4 C56 1_555 1_555
O7 C62 1_555 1_555
O8 C64 1_555 1_555
O9 C68 1_555 1_555
O10 C75 1_555 1_555
O11 C77 1_555 1_555
O12 C81 1_555 1_555
N9 C47 1_555 1_555
N10 C51 1_555 1_555
N11 C60 1_555 1_555
N12 C65 1_555 1_555
N13 C69 1_555 1_555
N14 C73 1_555 1_555
N15 C78 1_555 1_555
N16 C82 1_555 1_555
C43 C44 1_555 1_555
C44 C45 1_555 1_555
C45 C46 1_555 1_555
C46 C47 1_555 1_555
C47 C48 1_555 1_555
C48 C43 1_555 1_555
C49 C46 1_555 1_555
C50 N9 1_555 1_555
C51 C50 1_555 1_555
C52 C51 1_555 1_555
C53 C52 1_555 1_555
C54 N10 1_555 1_555
C55 C54 1_555 1_555
C56 C55 1_555 1_555
C57 C56 1_555 1_555
C58 C53 1_555 1_555
C59 C52 1_555 1_555
C60 C59 1_555 1_555
C61 C60 1_555 1_555
C62 C61 1_555 1_555
C63 N11 1_555 1_555
C64 N11 1_555 1_555
C65 C64 1_555 1_555
C66 C65 1_555 1_555
C67 C66 1_555 1_555
C68 N12 1_555 1_555
C69 C68 1_555 1_555
C70 C69 1_555 1_555
C71 N13 1_555 1_555
C72 C49 1_555 1_555
C73 C72 1_555 1_555
C74 C73 1_555 1_555
C75 C74 1_555 1_555
C76 N14 1_555 1_555
C77 N14 1_555 1_555
C78 C77 1_555 1_555
C79 C78 1_555 1_555
C80 C79 1_555 1_555
C81 N15 1_555 1_555
C82 C81 1_555 1_555
C83 C82 1_555 1_555
C84 N16 1_555 1_555
O15 C85 1_555 1_555
C7 C8 1_555 1_555
C11 C12 1_555 1_555
C15 C16 1_555 1_555
C20 C21 1_555 1_555
C33 C34 1_555 1_555
C49 C50 1_555 1_555
C53 C54 1_555 1_555
C57 C58 1_555 1_555
C62 C63 1_555 1_555
C75 C76 1_555 1_555

#END
