
#######################################################################
#
#                 Cambridge Crystallographic Data Centre
#                                CCDC 
#
#######################################################################
#
# If this CIF has been generated from an entry in the Cambridge 
# Structural Database, then it will include bibliographic, chemical, 
# crystal, experimental, refinement or atomic coordinate data resulting 
# from the CCDC's data processing and validation procedures.
#
#######################################################################

data_MEWJOP
_chemical_name_common            
6,7,8,9-Tetrahydro-15H-dibenzo[g,l][1,6]dioxacyclotridecin-15-one
_chemical_formula_moiety         'C19 H18 O3'
_chemical_name_systematic        
(3E)-11,16-Dioxatricyclo[15.4.0.0^5,10^]henicosa-1(21),3,5,7,9,17,19-heptaen-2-one
_symmetry_cell_setting           triclinic
_symmetry_space_group_name_H-M   'P -1'
_symmetry_Int_Tables_number      2
_space_group_name_Hall           '-P 1'
loop_
_symmetry_equiv_pos_site_id
_symmetry_equiv_pos_as_xyz
1 x,y,z
2 -x,-y,-z
_cell_length_a                   9.0976(6)
_cell_length_b                   16.9797(11)
_cell_length_c                   17.2713(9)
_cell_angle_alpha                62.590(2)
_cell_angle_beta                 88.440(2)
_cell_angle_gamma                78.092(2)
_cell_volume                     2310.42
_exptl_crystal_colour            white
_exptl_crystal_description       block
_cell_formula_units_Z            6
loop_
_atom_site_label
_atom_site_type_symbol
_atom_site_fract_x
_atom_site_fract_y
_atom_site_fract_z
C1 C 0.2486(2) 0.55742(11) 0.08728(12)
C2 C 0.3295(3) 0.56983(13) 0.01475(14)
H1 H 0.4339 0.5592 0.0212
C3 C 0.2613(3) 0.59712(15) -0.06609(15)
H2 H 0.3189 0.6037 -0.1132
C4 C 0.1071(3) 0.61454(15) -0.07661(15)
H3 H 0.0599 0.6341 -0.1314
C5 C 0.0222(3) 0.60341(13) -0.00704(13)
H4 H -0.0822 0.6151 -0.0149
C6 C 0.0908(2) 0.57491(12) 0.07496(12)
C7 C -0.1490(2) 0.58850(16) 0.13795(14)
H5 H -0.1910 0.5576 0.1115
H6 H -0.1840 0.6536 0.1023
C8 C -0.1943(2) 0.55946(15) 0.22954(14)
H7 H -0.3007 0.5853 0.2272
H8 H -0.1389 0.5840 0.2573
C9 C -0.1666(2) 0.45690(16) 0.28566(15)
H9 H -0.2619 0.4386 0.2900
H10 H -0.1012 0.4281 0.2563
C10 C -0.0971(2) 0.42235(16) 0.37628(14)
H11 H -0.1556 0.4536 0.4057
H12 H -0.0919 0.3577 0.4105
C11 C 0.1433(2) 0.42178(13) 0.43431(13)
C12 C 0.1029(2) 0.38431(14) 0.51991(13)
H13 H 0.0078 0.3714 0.5316
C13 C 0.2019(3) 0.36627(15) 0.58727(14)
H14 H 0.1743 0.3402 0.6445
C14 C 0.3413(3) 0.38636(16) 0.57095(15)
H15 H 0.4080 0.3749 0.6167
C15 C 0.3817(2) 0.42369(13) 0.48619(14)
H16 H 0.4765 0.4372 0.4757
C16 C 0.2861(2) 0.44200(12) 0.41563(12)
C17 C 0.3411(2) 0.47976(13) 0.32785(14)
C18 C 0.2732(2) 0.49489(13) 0.25304(13)
H17 H 0.1781 0.4823 0.2549
C19 C 0.3368(2) 0.52898(12) 0.17062(13)
O1 O 0.4695(2) 0.54064(15) 0.16521(13)
O2 O 0.01235(14) 0.56378(11) 0.14559(9)
O3 O 0.05022(15) 0.44048(11) 0.36520(9)
H18 H 0.4431(7) 0.4810(13) 0.327(3)
C20 C 0.7253(2) -0.13378(14) 0.66919(13)
C21 C 0.6521(2) -0.17445(13) 0.75325(13)
C22 C 0.6970(3) -0.26840(16) 0.80557(16)
H20 H 0.7659 -0.3022 0.7855
C23 C 0.6422(3) -0.31261(17) 0.88618(18)
H21 H 0.6719 -0.3754 0.9190
C24 C 0.5441(3) -0.26358(19) 0.91737(18)
H22 H 0.5100 -0.2930 0.9726
C25 C 0.4957(3) -0.17205(16) 0.86847(15)
H23 H 0.4280 -0.1395 0.8903
C26 C 0.5470(2) -0.12669(14) 0.78589(13)
C27 C 0.3856(2) 0.01519(14) 0.76303(13)
H24 H 0.4206 0.0144 0.8160
H25 H 0.2971 -0.0108 0.7746
C28 C 0.3489(2) 0.11039(14) 0.69007(12)
H26 H 0.4423 0.1304 0.6721
H27 H 0.2909 0.1495 0.7121
C29 C 0.2608(2) 0.12287(15) 0.60977(13)
H28 H 0.2617 0.0635 0.6148
H29 H 0.1569 0.1520 0.6090
C30 C 0.3217(2) 0.17845(14) 0.52471(12)
H30 H 0.2539 0.1920 0.4757
H31 H 0.3349 0.2352 0.5213
C31 C 0.5525(2) 0.15677(13) 0.45736(12)
C32 C 0.5141(2) 0.24309(14) 0.38767(12)
H32 H 0.4224 0.2812 0.3844
C33 C 0.6110(3) 0.27270(17) 0.32327(15)
H33 H 0.5843 0.3307 0.2763
C34 C 0.7463(3) 0.2176(2) 0.32775(18)
H34 H 0.8125 0.2382 0.2845
C35 C 0.7843(3) 0.13101(18) 0.39687(16)
H35 H 0.8769 0.0940 0.3994
C36 C 0.6886(2) 0.09715(14) 0.46310(12)
C37 C 0.7366(2) 0.00422(16) 0.53391(14)
C38 C 0.6604(2) -0.04329(13) 0.60039(12)
H36 H 0.5610 -0.0171 0.6027
O5 O 0.84438(19) -0.17918(15) 0.66161(14)
O6 O 0.50151(15) -0.03546(9) 0.73550(8)
O7 O 0.46332(14) 0.12368(9) 0.52412(8)
H37 H 0.8275(6) -0.024(3) 0.522(3)
C39 C 0.93750(19) 0.19043(12) 0.74456(11)
C40 C 0.8673(2) 0.28237(13) 0.69700(13)
H39 H 0.8908 0.3236 0.7134
C41 C 0.7645(2) 0.31371(15) 0.62675(15)
H40 H 0.7184 0.3751 0.5969
C42 C 0.7305(2) 0.25418(16) 0.60102(15)
H41 H 0.6623 0.2754 0.5529
C43 C 0.7958(2) 0.16383(14) 0.64527(13)
H42 H 0.7717 0.1240 0.6270
C44 C 0.89803(19) 0.13060(12) 0.71742(11)
C45 C 0.9246(2) -0.02235(13) 0.73831(13)
H43 H 0.9565 -0.0116 0.6809
H44 H 0.8162 -0.0159 0.7369
C46 C 1.0010(2) -0.11563(13) 0.80595(13)
H45 H 1.1071 -0.1172 0.8130
H46 H 0.9933 -0.1587 0.7848
C47 C 0.9366(2) -0.14613(13) 0.89507(13)
H47 H 0.8698 -0.0941 0.8960
H48 H 0.8769 -0.1901 0.9030
C48 C 1.0545(2) -0.18769(13) 0.97021(13)
H49 H 1.0096 -0.2139 1.0256
H50 H 1.1307 -0.2349 0.9666
C49 C 1.2255(2) -0.12862(13) 1.02307(11)
C50 C 1.2922(2) -0.21385(14) 1.08800(13)
H51 H 1.2628 -0.2649 1.0921
C51 C 1.4023(3) -0.22336(17) 1.14669(14)
H52 H 1.4475 -0.2810 1.1902
C52 C 1.4454(3) -0.14910(19) 1.14138(15)
H53 H 1.5192 -0.1558 1.1814
C53 C 1.3792(2) -0.06407(17) 1.07647(14)
H54 H 1.4099 -0.0139 1.0735
C54 C 1.26825(19) -0.05043(13) 1.01523(11)
C55 C 1.2065(2) 0.04182(13) 0.94696(12)
H55 H 1.2542 0.0861 0.9449
C56 C 1.09217(19) 0.07140(12) 0.88751(11)
H56 H 1.0363 0.0303 0.8898
C57 C 1.0495(2) 0.16541(12) 0.81842(12)
O9 O 1.10487(18) 0.22515(9) 0.81922(10)
O10 O 0.96687(14) 0.04133(8) 0.76207(8)
O11 O 1.11850(16) -0.11450(8) 0.96222(8)
O4? O 0.4746(8) 0.4998(7) 0.3293(9)
H19? H 0.4298(5) 0.5422(5) 0.1523(6)
O8? O 0.8606(10) -0.036(2) 0.519(2)
H38? H 0.815(2) -0.166(11) 0.662(11)
loop_
_geom_bond_atom_site_label_1
_geom_bond_atom_site_label_2
_geom_bond_site_symmetry_1
_geom_bond_site_symmetry_2
C1 C2 1_555 1_555
C2 H1 1_555 1_555
C3 C2 1_555 1_555
H2 C3 1_555 1_555
C4 C3 1_555 1_555
H3 C4 1_555 1_555
C5 C4 1_555 1_555
H4 C5 1_555 1_555
C6 C1 1_555 1_555
C7 H5 1_555 1_555
H6 C7 1_555 1_555
C8 C7 1_555 1_555
H7 C8 1_555 1_555
H8 C8 1_555 1_555
C9 C8 1_555 1_555
H9 C9 1_555 1_555
H10 C9 1_555 1_555
C10 C9 1_555 1_555
H11 C10 1_555 1_555
H12 C10 1_555 1_555
C11 C12 1_555 1_555
C12 H13 1_555 1_555
C13 C12 1_555 1_555
H14 C13 1_555 1_555
C14 C13 1_555 1_555
H15 C14 1_555 1_555
C15 C14 1_555 1_555
H16 C15 1_555 1_555
C16 C11 1_555 1_555
C17 C16 1_555 1_555
C18 C17 1_555 1_555
H17 C18 1_555 1_555
C19 C1 1_555 1_555
O1 C19 1_555 1_555
O2 C6 1_555 1_555
O3 C10 1_555 1_555
H18 C17 1_555 1_555
C20 C21 1_555 1_555
C21 C22 1_555 1_555
C22 H20 1_555 1_555
C23 C22 1_555 1_555
H21 C23 1_555 1_555
C24 C23 1_555 1_555
H22 C24 1_555 1_555
C25 C24 1_555 1_555
H23 C25 1_555 1_555
C26 C21 1_555 1_555
C27 H24 1_555 1_555
H25 C27 1_555 1_555
C28 C27 1_555 1_555
H26 C28 1_555 1_555
H27 C28 1_555 1_555
C29 C28 1_555 1_555
H28 C29 1_555 1_555
H29 C29 1_555 1_555
C30 C29 1_555 1_555
H30 C30 1_555 1_555
H31 C30 1_555 1_555
C31 C32 1_555 1_555
C32 H32 1_555 1_555
C33 C32 1_555 1_555
H33 C33 1_555 1_555
C34 C33 1_555 1_555
H34 C34 1_555 1_555
C35 C34 1_555 1_555
H35 C35 1_555 1_555
C36 C31 1_555 1_555
C37 C36 1_555 1_555
C38 C20 1_555 1_555
H36 C38 1_555 1_555
O5 C20 1_555 1_555
O6 C26 1_555 1_555
O7 C30 1_555 1_555
H37 C37 1_555 1_555
C39 C40 1_555 1_555
C40 H39 1_555 1_555
C41 C40 1_555 1_555
H40 C41 1_555 1_555
C42 C41 1_555 1_555
H41 C42 1_555 1_555
C43 C42 1_555 1_555
H42 C43 1_555 1_555
C44 C39 1_555 1_555
C45 H43 1_555 1_555
H44 C45 1_555 1_555
C46 C45 1_555 1_555
H45 C46 1_555 1_555
H46 C46 1_555 1_555
C47 C46 1_555 1_555
H47 C47 1_555 1_555
H48 C47 1_555 1_555
C48 C47 1_555 1_555
H49 C48 1_555 1_555
H50 C48 1_555 1_555
C49 C50 1_555 1_555
C50 H51 1_555 1_555
C51 C50 1_555 1_555
H52 C51 1_555 1_555
C52 C51 1_555 1_555
H53 C52 1_555 1_555
C53 C52 1_555 1_555
H54 C53 1_555 1_555
C54 C49 1_555 1_555
C55 C54 1_555 1_555
H55 C55 1_555 1_555
C56 C55 1_555 1_555
H56 C56 1_555 1_555
C57 C39 1_555 1_555
O9 C57 1_555 1_555
O10 C44 1_555 1_555
O11 C48 1_555 1_555
C5 C6 1_555 1_555
C7 O2 1_555 1_555
C11 O3 1_555 1_555
C15 C16 1_555 1_555
C18 C19 1_555 1_555
C25 C26 1_555 1_555
C27 O6 1_555 1_555
C31 O7 1_555 1_555
C35 C36 1_555 1_555
C37 C38 1_555 1_555
C43 C44 1_555 1_555
C45 O10 1_555 1_555
C49 O11 1_555 1_555
C53 C54 1_555 1_555
C56 C57 1_555 1_555

#END
