
#######################################################################
#
#                 Cambridge Crystallographic Data Centre
#                                CCDC 
#
#######################################################################
#
# If this CIF has been generated from an entry in the Cambridge 
# Structural Database, then it will include bibliographic, chemical, 
# crystal, experimental, refinement or atomic coordinate data resulting 
# from the CCDC's data processing and validation procedures.
#
#######################################################################

data_MEWKUX
_chemical_formula_moiety         'C25 H25 N1 O2 S1'
_chemical_name_systematic        
5-methyl-1-[(4-methylphenyl)sulfonyl]-3,3-diphenyl-1,2,3,4-tetrahydropyridine
_symmetry_cell_setting           monoclinic
_symmetry_space_group_name_H-M   'P 21'
_symmetry_Int_Tables_number      4
_space_group_name_Hall           'P 2yb'
loop_
_symmetry_equiv_pos_site_id
_symmetry_equiv_pos_as_xyz
1 x,y,z
2 -x,1/2+y,-z
_cell_length_a                   9.371(4)
_cell_length_b                   11.397(4)
_cell_length_c                   9.777(4)
_cell_angle_alpha                90
_cell_angle_beta                 95.117(6)
_cell_angle_gamma                90
_cell_volume                     1040.03
_exptl_crystal_colour            colorless
_exptl_crystal_description       block
_cell_formula_units_Z            2
loop_
_atom_site_label
_atom_site_type_symbol
_atom_site_fract_x
_atom_site_fract_y
_atom_site_fract_z
S1 S 0.75726(9) 0.25438(6) 0.78180(7)
N1 N 0.7289(2) 0.2942(2) 0.6209(2)
O1 O 0.6424(2) 0.17697(18) 0.8069(2)
O2 O 0.9025(2) 0.2161(2) 0.8022(2)
C1 C 0.7110(4) 0.7004(3) 1.1058(4)
H1 H 0.8040 0.7226 1.1468
H2 H 0.6470 0.6902 1.1763
H3 H 0.6747 0.7608 1.0436
C2 C 0.7223(3) 0.5872(3) 1.0285(3)
C3 C 0.6010(3) 0.5315(3) 0.9699(3)
H4 H 0.5115 0.5638 0.9803
C4 C 0.6100(3) 0.4296(3) 0.8967(3)
H5 H 0.5273 0.3930 0.8582
C5 C 0.7422(3) 0.3820(2) 0.8808(2)
C6 C 0.8644(3) 0.4348(3) 0.9405(3)
H6 H 0.9537 0.4014 0.9315
C7 C 0.8540(3) 0.5371(3) 1.0135(3)
H7 H 0.9367 0.5729 1.0532
C8 C 0.8287(3) 0.3717(3) 0.5678(3)
H8 H 0.9178 0.3816 0.6165
C9 C 0.8003(3) 0.4302(3) 0.4526(3)
C10 C 0.6593(3) 0.4179(3) 0.3693(3)
H9 H 0.6748 0.4208 0.2725
H10 H 0.5986 0.4837 0.3887
C11 C 0.5819(3) 0.3033(3) 0.3987(2)
C12 C 0.5811(3) 0.3008(3) 0.5577(3)
H11 H 0.5353 0.3711 0.5887
H12 H 0.5272 0.2334 0.5849
C13 C 0.9056(4) 0.5146(4) 0.4000(3)
H13 H 0.9912 0.5160 0.4616
H14 H 0.8642 0.5917 0.3940
H15 H 0.9286 0.4901 0.3106
C14 C 0.4247(3) 0.3014(3) 0.3381(3)
C15 C 0.3631(3) 0.3923(3) 0.2617(3)
H16 H 0.4182 0.4576 0.2441
C16 C 0.2206(4) 0.3886(3) 0.2103(4)
H17 H 0.1813 0.4514 0.1592
C17 C 0.1372(4) 0.2940(3) 0.2338(4)
H18 H 0.0417 0.2914 0.1988
C18 C 0.1975(4) 0.2028(3) 0.3102(4)
H19 H 0.1420 0.1379 0.3283
C19 C 0.3381(3) 0.2063(3) 0.3598(3)
H20 H 0.3769 0.1427 0.4098
C20 C 0.6597(3) 0.1964(3) 0.3463(3)
C21 C 0.7077(3) 0.1977(3) 0.2154(3)
H21 H 0.6947 0.2649 0.1618
C22 C 0.7735(4) 0.1021(4) 0.1641(3)
H22 H 0.8063 0.1058 0.0772
C23 C 0.7913(4) 0.0020(3) 0.2387(4)
H23 H 0.8356 -0.0626 0.2027
C24 C 0.7435(3) -0.0037(3) 0.3687(4)
H24 H 0.7544 -0.0723 0.4202
C25 C 0.6796(3) 0.0937(3) 0.4204(3)
H25 H 0.6489 0.0901 0.5082
loop_
_geom_bond_atom_site_label_1
_geom_bond_atom_site_label_2
_geom_bond_site_symmetry_1
_geom_bond_site_symmetry_2
S1 N1 1_555 1_555
N1 C8 1_555 1_555
O1 S1 1_555 1_555
O2 S1 1_555 1_555
C1 H1 1_555 1_555
H2 C1 1_555 1_555
H3 C1 1_555 1_555
C2 C1 1_555 1_555
C3 C2 1_555 1_555
H4 C3 1_555 1_555
C4 C3 1_555 1_555
H5 C4 1_555 1_555
C5 S1 1_555 1_555
C6 C5 1_555 1_555
H6 C6 1_555 1_555
C7 C2 1_555 1_555
H7 C7 1_555 1_555
C8 H8 1_555 1_555
C9 C8 1_555 1_555
C10 C9 1_555 1_555
H9 C10 1_555 1_555
H10 C10 1_555 1_555
C11 C10 1_555 1_555
C12 N1 1_555 1_555
H11 C12 1_555 1_555
H12 C12 1_555 1_555
C13 C9 1_555 1_555
H13 C13 1_555 1_555
H14 C13 1_555 1_555
H15 C13 1_555 1_555
C14 C11 1_555 1_555
C15 C14 1_555 1_555
H16 C15 1_555 1_555
C16 C15 1_555 1_555
H17 C16 1_555 1_555
C17 C16 1_555 1_555
H18 C17 1_555 1_555
C18 C17 1_555 1_555
H19 C18 1_555 1_555
C19 C14 1_555 1_555
H20 C19 1_555 1_555
C20 C11 1_555 1_555
C21 C20 1_555 1_555
H21 C21 1_555 1_555
C22 C21 1_555 1_555
H22 C22 1_555 1_555
C23 C22 1_555 1_555
H23 C23 1_555 1_555
C24 C23 1_555 1_555
H24 C24 1_555 1_555
C25 C20 1_555 1_555
H25 C25 1_555 1_555
C4 C5 1_555 1_555
C6 C7 1_555 1_555
C11 C12 1_555 1_555
C18 C19 1_555 1_555
C24 C25 1_555 1_555

#END
