
#######################################################################
#
#                 Cambridge Crystallographic Data Centre
#                                CCDC 
#
#######################################################################
#
# If this CIF has been generated from an entry in the Cambridge 
# Structural Database, then it will include bibliographic, chemical, 
# crystal, experimental, refinement or atomic coordinate data resulting 
# from the CCDC's data processing and validation procedures.
#
#######################################################################

data_MEWMIM
_chemical_formula_moiety         'C42 H48 O6'
_chemical_name_systematic        
5,17-Diformyl-25,26,27,28-tetrapropoxycalix[4]arene
_symmetry_cell_setting           orthorhombic
_symmetry_space_group_name_H-M   'P b c a'
_symmetry_Int_Tables_number      61
_space_group_name_Hall           '-P 2ac 2ab'
loop_
_symmetry_equiv_pos_site_id
_symmetry_equiv_pos_as_xyz
1 x,y,z
2 1/2-x,-y,1/2+z
3 -x,1/2+y,1/2-z
4 1/2+x,1/2-y,-z
5 -x,-y,-z
6 1/2+x,y,1/2-z
7 x,1/2-y,1/2+z
8 1/2-x,1/2+y,z
_cell_length_a                   14.7121(15)
_cell_length_b                   17.5133(19)
_cell_length_c                   28.912(3)
_cell_angle_alpha                90
_cell_angle_beta                 90
_cell_angle_gamma                90
_cell_volume                     7449.39
_exptl_crystal_colour            colorless
_exptl_crystal_description       block
_cell_formula_units_Z            8
loop_
_atom_site_label
_atom_site_type_symbol
_atom_site_fract_x
_atom_site_fract_y
_atom_site_fract_z
O1 O 0.75730(12) 0.16233(10) 0.59545(6)
O2 O 0.98908(12) 0.13116(9) 0.59448(6)
O3 O 0.91208(13) 0.31123(10) 0.61795(7)
O4 O 1.14504(13) 0.28445(10) 0.60310(7)
O5 O 0.86628(16) 0.06906(13) 0.80074(8)
C1 C 0.88905(18) 0.36103(13) 0.65298(9)
C2 C 0.84777(15) 0.08053(13) 0.70120(9)
H1 H 0.8748 0.0356 0.7114
C3 C 0.82985(15) 0.13841(13) 0.73289(9)
C4 C 0.82641(15) 0.08821(13) 0.65480(9)
C5 C 1.07862(15) 0.21843(14) 0.73661(9)
C6 C 1.06269(16) 0.29248(14) 0.72202(9)
H2 H 1.0380 0.3275 0.7426
C7 C 1.08283(16) 0.31549(13) 0.67726(9)
C8 C 0.79508(15) 0.20714(12) 0.71674(9)
H3 H 0.7875 0.2474 0.7373
C9 C 0.78363(15) 0.15595(13) 0.64102(9)
C10 C 1.12262(16) 0.26208(14) 0.64775(9)
C11 C 0.80146(18) 0.35706(13) 0.67044(10)
C12 C 1.11350(16) 0.16595(14) 0.70534(9)
H4 H 1.1218 0.1157 0.7148
O6 O 1.02457(15) 0.23488(13) 0.81322(7)
C13 C 1.01733(18) 0.06375(13) 0.61494(8)
C14 C 0.95571(18) 0.40740(13) 0.67259(10)
C15 C 1.13630(15) 0.18610(14) 0.66045(9)
C16 C 0.77141(15) 0.21727(13) 0.67091(9)
C17 C 0.85238(18) 0.02586(14) 0.62104(9)
H5 H 0.8172 -0.0198 0.6274
H6 H 0.8390 0.0422 0.5897
C18 C 0.84557(16) 0.12809(16) 0.78227(10)
H7 H 0.8390 0.1708 0.8011
C19 C 0.95255(17) 0.00841(13) 0.62548(9)
C20 C 0.73768(17) 0.29499(14) 0.65468(10)
H8 H 0.7336 0.2954 0.6212
H9 H 0.6774 0.3044 0.6671
C21 C 1.05459(18) 0.39427(14) 0.66110(11)
H10 H 1.0917 0.4327 0.6762
H11 H 1.0637 0.3986 0.6280
C22 C 1.16861(17) 0.12626(15) 0.62629(10)
H12 H 1.1682 0.1474 0.5953
H13 H 1.2304 0.1114 0.6337
C23 C 1.10750(18) 0.05747(14) 0.62828(9)
C24 C 1.1346(2) -0.01116(16) 0.64855(10)
H14 H 1.1951 -0.0178 0.6571
C25 C 0.9293(2) 0.45609(14) 0.70747(11)
H15 H 0.9720 0.4886 0.7206
C26 C 0.7783(2) 0.40644(15) 0.70581(10)
H16 H 0.7198 0.4052 0.7180
C27 C 0.9842(2) -0.05922(14) 0.64578(10)
H17 H 0.9433 -0.0982 0.6523
C28 C 1.0738(2) -0.06872(16) 0.65606(11)
H18 H 1.0938 -0.1149 0.6683
C29 C 0.8413(2) 0.45786(16) 0.72333(11)
H19 H 0.8241 0.4933 0.7457
C30 C 1.05586(19) 0.19441(17) 0.78352(11)
H20 H 1.0664 0.1436 0.7911
C31 C 0.6601(2) 0.15937(19) 0.58853(11)
H21 H 0.6466 0.1754 0.5572
H22 H 0.6314 0.1954 0.6094
C32 C 1.0501(4) 0.1401(4) 0.51739(16)
H23 H 1.0788 0.1872 0.5273
H24 H 1.0928 0.0989 0.5230
C33 C 0.9706(3) 0.1274(2) 0.54593(13)
H25 H 0.9249 0.1653 0.5383
H26 H 0.9455 0.0776 0.5388
C34 C 0.9231(3) 0.3447(2) 0.57389(13)
H27 H 0.9649 0.3139 0.5558
H28 H 0.9498 0.3950 0.5775
C35 C 0.6201(2) 0.0831(2) 0.59624(14)
H29 H 0.6340 0.0662 0.6274
H30 H 0.6470 0.0469 0.5748
C36 C 0.8426(4) 0.3775(5) 0.50134(19)
H31 H 0.8726 0.4262 0.5008
H32 H 0.7832 0.3824 0.4879
H33 H 0.8775 0.3413 0.4839
C37 C 0.5179(3) 0.0840(3) 0.58954(17)
H34 H 0.4911 0.1204 0.6103
H35 H 0.4937 0.0342 0.5959
H36 H 0.5040 0.0979 0.5582
C38 C 1.2359(3) 0.3127(2) 0.59968(13)
H37 H 1.2786 0.2723 0.6070
H38 H 1.2448 0.3539 0.6217
C39 C 0.8345(3) 0.3518(4) 0.54810(17)
H39 H 0.8047 0.3024 0.5481
H40 H 0.7955 0.3871 0.5647
C40 C 1.0344(4) 0.1447(4) 0.46906(16)
H41 H 0.9974 0.1024 0.4595
H42 H 1.0914 0.1431 0.4530
H43 H 1.0037 0.1917 0.4621
C41 C 1.2117(6) 0.4091(4) 0.5406(2)
H44 H 1.1523 0.3992 0.5282
H45 H 1.2478 0.4352 0.5179
H46 H 1.2063 0.4403 0.5677
C42 C 1.2528(4) 0.3410(4) 0.55198(19)
H47 H 1.3179 0.3468 0.5479
H48 H 1.2324 0.3023 0.5303
loop_
_geom_bond_atom_site_label_1
_geom_bond_atom_site_label_2
_geom_bond_site_symmetry_1
_geom_bond_site_symmetry_2
O1 C9 1_555 1_555
O2 C13 1_555 1_555
O3 C1 1_555 1_555
O4 C10 1_555 1_555
O5 C18 1_555 1_555
C1 C11 1_555 1_555
C2 H1 1_555 1_555
C3 C2 1_555 1_555
C4 C2 1_555 1_555
C5 C6 1_555 1_555
C6 H2 1_555 1_555
C7 C6 1_555 1_555
C8 C3 1_555 1_555
H3 C8 1_555 1_555
C9 C4 1_555 1_555
C10 C7 1_555 1_555
C11 C20 1_555 1_555
C12 C5 1_555 1_555
H4 C12 1_555 1_555
O6 C30 1_555 1_555
C13 C19 1_555 1_555
C14 C1 1_555 1_555
C15 C10 1_555 1_555
C16 C8 1_555 1_555
C17 C4 1_555 1_555
H5 C17 1_555 1_555
H6 C17 1_555 1_555
C18 C3 1_555 1_555
H7 C18 1_555 1_555
C19 C17 1_555 1_555
C20 C16 1_555 1_555
H8 C20 1_555 1_555
H9 C20 1_555 1_555
C21 C7 1_555 1_555
H10 C21 1_555 1_555
H11 C21 1_555 1_555
C22 C15 1_555 1_555
H12 C22 1_555 1_555
H13 C22 1_555 1_555
C23 C13 1_555 1_555
C24 C23 1_555 1_555
H14 C24 1_555 1_555
C25 C14 1_555 1_555
H15 C25 1_555 1_555
C26 C11 1_555 1_555
H16 C26 1_555 1_555
C27 C19 1_555 1_555
H17 C27 1_555 1_555
C28 C24 1_555 1_555
H18 C28 1_555 1_555
C29 C25 1_555 1_555
H19 C29 1_555 1_555
C30 C5 1_555 1_555
H20 C30 1_555 1_555
C31 O1 1_555 1_555
H21 C31 1_555 1_555
H22 C31 1_555 1_555
C32 H23 1_555 1_555
H24 C32 1_555 1_555
C33 O2 1_555 1_555
H25 C33 1_555 1_555
H26 C33 1_555 1_555
C34 O3 1_555 1_555
H27 C34 1_555 1_555
H28 C34 1_555 1_555
C35 C31 1_555 1_555
H29 C35 1_555 1_555
H30 C35 1_555 1_555
C36 H31 1_555 1_555
H32 C36 1_555 1_555
H33 C36 1_555 1_555
C37 C35 1_555 1_555
H34 C37 1_555 1_555
H35 C37 1_555 1_555
H36 C37 1_555 1_555
C38 O4 1_555 1_555
H37 C38 1_555 1_555
H38 C38 1_555 1_555
C39 C34 1_555 1_555
H39 C39 1_555 1_555
H40 C39 1_555 1_555
C40 C32 1_555 1_555
H41 C40 1_555 1_555
H42 C40 1_555 1_555
H43 C40 1_555 1_555
C41 H44 1_555 1_555
H45 C41 1_555 1_555
H46 C41 1_555 1_555
C42 C38 1_555 1_555
H47 C42 1_555 1_555
H48 C42 1_555 1_555
C9 C16 1_555 1_555
C12 C15 1_555 1_555
C14 C21 1_555 1_555
C22 C23 1_555 1_555
C26 C29 1_555 1_555
C27 C28 1_555 1_555
C32 C33 1_555 1_555
C36 C39 1_555 1_555
C41 C42 1_555 1_555

#END
