
#######################################################################
#
#                 Cambridge Crystallographic Data Centre
#                                CCDC 
#
#######################################################################
#
# If this CIF has been generated from an entry in the Cambridge 
# Structural Database, then it will include bibliographic, chemical, 
# crystal, experimental, refinement or atomic coordinate data resulting 
# from the CCDC's data processing and validation procedures.
#
#######################################################################

data_MEWSUE
_chemical_formula_moiety         'C7 H6 N4 O2'
_chemical_name_systematic        4-(1H-Tetrazol-5-yl)benzene-1,3-diol
_symmetry_cell_setting           orthorhombic
_symmetry_space_group_name_H-M   'P c c n'
_symmetry_Int_Tables_number      56
_space_group_name_Hall           '-P 2ab 2ac'
loop_
_symmetry_equiv_pos_site_id
_symmetry_equiv_pos_as_xyz
1 x,y,z
2 1/2-x,1/2-y,z
3 -x,1/2+y,1/2-z
4 1/2+x,-y,1/2-z
5 -x,-y,-z
6 1/2+x,1/2+y,-z
7 x,1/2-y,1/2+z
8 1/2-x,y,1/2+z
_cell_length_a                   16.109(2)
_cell_length_b                   7.2931(11)
_cell_length_c                   12.8708(17)
_cell_angle_alpha                90
_cell_angle_beta                 90
_cell_angle_gamma                90
_cell_volume                     1512.12
_exptl_crystal_colour            white
_exptl_crystal_description       block
_cell_formula_units_Z            8
loop_
_atom_site_label
_atom_site_type_symbol
_atom_site_fract_x
_atom_site_fract_y
_atom_site_fract_z
N1 N 0.86210(12) 1.0811(3) 0.86101(16)
H1 H 0.8653(17) 1.079(4) 0.792(2)
N2 N 0.92672(12) 1.1375(3) 0.91859(16)
N3 N 0.90167(12) 1.1289(3) 1.01390(16)
N4 N 0.82224(11) 1.0674(3) 1.01992(15)
O1 O 0.74465(11) 1.0193(3) 0.71535(12)
H2 H 0.7208 1.0311 0.6595
O2 O 0.47535(11) 0.8148(3) 0.81787(15)
H3 H 0.4521 0.7686 0.8681
C1 C 0.71543(13) 0.9735(3) 0.89292(17)
C2 C 0.66041(14) 0.9179(4) 0.97055(18)
H4 H 0.6780 0.9178 1.0394
C3 C 0.58072(14) 0.8633(4) 0.94770(18)
H5 H 0.5449 0.8270 1.0005
C4 C 0.55424(14) 0.8628(4) 0.84451(19)
C5 C 0.60837(15) 0.9128(4) 0.76517(19)
H6 H 0.5909 0.9091 0.6963
C6 C 0.68889(14) 0.9686(3) 0.78936(17)
C7 C 0.79789(13) 1.0372(3) 0.92276(17)
loop_
_geom_bond_atom_site_label_1
_geom_bond_atom_site_label_2
_geom_bond_site_symmetry_1
_geom_bond_site_symmetry_2
N1 H1 1_555 1_555
N2 N1 1_555 1_555
N3 N2 1_555 1_555
N4 N3 1_555 1_555
O1 H2 1_555 1_555
O2 H3 1_555 1_555
C1 C2 1_555 1_555
C2 H4 1_555 1_555
C3 C2 1_555 1_555
H5 C3 1_555 1_555
C4 O2 1_555 1_555
C5 C4 1_555 1_555
H6 C5 1_555 1_555
C6 O1 1_555 1_555
C7 N1 1_555 1_555
N4 C7 1_555 1_555
C1 C6 1_555 1_555
C1 C7 1_555 1_555
C3 C4 1_555 1_555
C5 C6 1_555 1_555

#END
