
#######################################################################
#
#                 Cambridge Crystallographic Data Centre
#                                CCDC 
#
#######################################################################
#
# If this CIF has been generated from an entry in the Cambridge 
# Structural Database, then it will include bibliographic, chemical, 
# crystal, experimental, refinement or atomic coordinate data resulting 
# from the CCDC's data processing and validation procedures.
#
#######################################################################

data_MEWWOC
_chemical_formula_moiety         'C11 H12 O3'
_chemical_name_systematic        
(Z)-3-Hydroxy-4-(4-methoxyphenyl)but-3-en-2-one
_symmetry_cell_setting           monoclinic
_symmetry_space_group_name_H-M   'P 21/c'
_symmetry_Int_Tables_number      14
_space_group_name_Hall           '-P 2ybc'
loop_
_symmetry_equiv_pos_site_id
_symmetry_equiv_pos_as_xyz
1 x,y,z
2 -x,1/2+y,1/2-z
3 -x,-y,-z
4 x,1/2-y,1/2+z
_cell_length_a                   18.8076(13)
_cell_length_b                   5.3007(4)
_cell_length_c                   10.1439(8)
_cell_angle_alpha                90
_cell_angle_beta                 103.425(7)
_cell_angle_gamma                90
_cell_volume                     983.647
_exptl_crystal_colour            yellow
_exptl_crystal_description       block
_cell_formula_units_Z            4
loop_
_atom_site_label
_atom_site_type_symbol
_atom_site_fract_x
_atom_site_fract_y
_atom_site_fract_z
O1 O 0.48064(6) 0.4343(3) 0.31418(12)
O2 O 0.38385(6) 0.2608(2) 0.10575(12)
H1 H 0.4252 0.2145 0.1431
O3 O 0.06871(6) 0.4633(2) -0.32947(11)
C1 C 0.40895(10) 0.7551(4) 0.38093(17)
H2 H 0.3996 0.9078 0.3289
H3 H 0.4513 0.7774 0.4538
H4 H 0.3675 0.7155 0.4173
C2 C 0.42216(9) 0.5450(3) 0.29207(16)
C3 C 0.36530(8) 0.4639(3) 0.17241(15)
C4 C 0.30191(8) 0.5866(3) 0.12778(15)
H5 H 0.2938 0.7202 0.1818
C5 C 0.24383(8) 0.5416(3) 0.00700(15)
C6 C 0.18417(9) 0.7074(3) -0.02124(16)
H6 H 0.1830 0.8411 0.0375
C7 C 0.12736(9) 0.6784(3) -0.13315(16)
H7 H 0.0886 0.7918 -0.1494
C8 C 0.12795(8) 0.4798(3) -0.22176(15)
C9 C 0.18628(9) 0.3141(3) -0.19755(16)
H8 H 0.1872 0.1815 -0.2572
C10 C 0.24337(9) 0.3452(3) -0.08458(16)
H9 H 0.2823 0.2323 -0.0695
C11 C 0.06626(10) 0.2552(4) -0.41902(18)
H10 H 0.0221 0.2630 -0.4891
H11 H 0.0672 0.1005 -0.3694
H12 H 0.1077 0.2616 -0.4590
loop_
_geom_bond_atom_site_label_1
_geom_bond_atom_site_label_2
_geom_bond_site_symmetry_1
_geom_bond_site_symmetry_2
O1 C2 1_555 1_555
O2 H1 1_555 1_555
O3 C8 1_555 1_555
C1 H2 1_555 1_555
H3 C1 1_555 1_555
H4 C1 1_555 1_555
C2 C1 1_555 1_555
C3 O2 1_555 1_555
C4 C3 1_555 1_555
H5 C4 1_555 1_555
C5 C4 1_555 1_555
C6 C5 1_555 1_555
H6 C6 1_555 1_555
C7 C6 1_555 1_555
H7 C7 1_555 1_555
C8 C7 1_555 1_555
C9 C8 1_555 1_555
H8 C9 1_555 1_555
C10 C5 1_555 1_555
H9 C10 1_555 1_555
C11 O3 1_555 1_555
H10 C11 1_555 1_555
H11 C11 1_555 1_555
H12 C11 1_555 1_555
C2 C3 1_555 1_555
C9 C10 1_555 1_555

#END
