
#######################################################################
#
#                 Cambridge Crystallographic Data Centre
#                                CCDC 
#
#######################################################################
#
# If this CIF has been generated from an entry in the Cambridge 
# Structural Database, then it will include bibliographic, chemical, 
# crystal, experimental, refinement or atomic coordinate data resulting 
# from the CCDC's data processing and validation procedures.
#
#######################################################################

data_MEWYAQ
_chemical_formula_moiety         'C16 H22 O2'
_chemical_name_systematic        (4-Ethylcyclohexyl)(4-methoxyphenyl)methanone
_symmetry_cell_setting           monoclinic
_symmetry_space_group_name_H-M   'P 21/c'
_symmetry_Int_Tables_number      14
_space_group_name_Hall           '-P 2ybc'
loop_
_symmetry_equiv_pos_site_id
_symmetry_equiv_pos_as_xyz
1 x,y,z
2 -x,1/2+y,1/2-z
3 -x,-y,-z
4 x,1/2-y,1/2+z
_cell_length_a                   7.613(2)
_cell_length_b                   5.7513(15)
_cell_length_c                   31.085(9)
_cell_angle_alpha                90
_cell_angle_beta                 94.674(4)
_cell_angle_gamma                90
_cell_volume                     1356.52
_exptl_crystal_colour            colorless
_exptl_crystal_description       Prism
_cell_formula_units_Z            4
loop_
_atom_site_label
_atom_site_type_symbol
_atom_site_fract_x
_atom_site_fract_y
_atom_site_fract_z
O1 O 0.34006(12) 0.74119(17) 0.16856(3)
O2 O 0.05937(15) 0.53751(18) 0.34949(3)
C1 C 0.3969(2) 0.9518(3) 0.14967(4)
H1 H 0.3107 1.0750 0.1536
H2 H 0.4073 0.9276 0.1188
H3 H 0.5117 0.9974 0.1637
C2 C 0.29562(17) 0.7517(2) 0.21018(4)
C3 C 0.20950(17) 0.5560(2) 0.22446(4)
H4 H 0.1869 0.4273 0.2057
C4 C 0.15706(17) 0.5488(2) 0.26592(4)
H5 H 0.0986 0.4147 0.2755
C5 C 0.18896(17) 0.7370(2) 0.29413(4)
C6 C 0.27745(17) 0.9302(2) 0.27951(4)
H6 H 0.3013 1.0582 0.2984
C7 C 0.33165(18) 0.9393(2) 0.23779(4)
H7 H 0.3923 1.0718 0.2283
C8 C 0.12147(18) 0.7220(2) 0.33787(4)
C9 C 0.13144(17) 0.9305(2) 0.36774(4)
H8 H 0.1151 1.0748 0.3499
C10 C -0.01352(18) 0.9211(2) 0.39925(4)
H9 H -0.1303 0.9292 0.3828
H10 H -0.0061 0.7714 0.4150
C11 C 0.00388(17) 1.1215(2) 0.43170(4)
H11 H -0.0890 1.1069 0.4521
H12 H -0.0144 1.2708 0.4161
C12 C 0.18477(18) 1.1241(2) 0.45716(4)
H13 H 0.2001 0.9730 0.4730
C13 C 0.32707(18) 1.1398(2) 0.42528(4)
H14 H 0.4446 1.1378 0.4414
H15 H 0.3147 1.2892 0.4095
C14 C 0.31498(18) 0.9391(2) 0.39280(4)
H16 H 0.3376 0.7903 0.4083
H17 H 0.4064 0.9588 0.3722
C15 C 0.19885(19) 1.3203(3) 0.49047(4)
H18 H 0.2086 1.4700 0.4751
H19 H 0.0886 1.3248 0.5053
C16 C 0.3545(2) 1.2989(3) 0.52446(4)
H20 H 0.3385 1.1616 0.5424
H21 H 0.3609 1.4383 0.5427
H22 H 0.4639 1.2832 0.5101
loop_
_geom_bond_atom_site_label_1
_geom_bond_atom_site_label_2
_geom_bond_site_symmetry_1
_geom_bond_site_symmetry_2
O1 C1 1_555 1_555
O2 C8 1_555 1_555
C1 H1 1_555 1_555
H2 C1 1_555 1_555
H3 C1 1_555 1_555
C2 O1 1_555 1_555
C3 C2 1_555 1_555
H4 C3 1_555 1_555
C4 C3 1_555 1_555
H5 C4 1_555 1_555
C5 C4 1_555 1_555
C6 C5 1_555 1_555
H6 C6 1_555 1_555
C7 C2 1_555 1_555
H7 C7 1_555 1_555
C8 C5 1_555 1_555
C9 C8 1_555 1_555
H8 C9 1_555 1_555
C10 C9 1_555 1_555
H9 C10 1_555 1_555
H10 C10 1_555 1_555
C11 C10 1_555 1_555
H11 C11 1_555 1_555
H12 C11 1_555 1_555
C12 C11 1_555 1_555
H13 C12 1_555 1_555
C13 C12 1_555 1_555
H14 C13 1_555 1_555
H15 C13 1_555 1_555
C14 C9 1_555 1_555
H16 C14 1_555 1_555
H17 C14 1_555 1_555
C15 C12 1_555 1_555
H18 C15 1_555 1_555
H19 C15 1_555 1_555
C16 C15 1_555 1_555
H20 C16 1_555 1_555
H21 C16 1_555 1_555
H22 C16 1_555 1_555
C6 C7 1_555 1_555
C13 C14 1_555 1_555

#END
