
#######################################################################
#
#                 Cambridge Crystallographic Data Centre
#                                CCDC 
#
#######################################################################
#
# If this CIF has been generated from an entry in the Cambridge 
# Structural Database, then it will include bibliographic, chemical, 
# crystal, experimental, refinement or atomic coordinate data resulting 
# from the CCDC's data processing and validation procedures.
#
#######################################################################

data_MEXBAU
_chemical_name_common            2,2'-(5-Methoxy-1,3-phenylene)dipyrimidine
_chemical_formula_moiety         'C15 H12 N4 O1'
_chemical_name_systematic        
2-[3-Methoxy-5-(pyrimidin-2-yl)phenyl]pyrimidine
_symmetry_cell_setting           orthorhombic
_symmetry_space_group_name_H-M   'P b c a'
_symmetry_Int_Tables_number      61
_space_group_name_Hall           '-P 2ac 2ab'
loop_
_symmetry_equiv_pos_site_id
_symmetry_equiv_pos_as_xyz
1 x,y,z
2 1/2-x,-y,1/2+z
3 -x,1/2+y,1/2-z
4 1/2+x,1/2-y,-z
5 -x,-y,-z
6 1/2+x,y,1/2-z
7 x,1/2-y,1/2+z
8 1/2-x,1/2+y,z
_cell_length_a                   11.3779(8)
_cell_length_b                   8.0954(6)
_cell_length_c                   27.3371(18)
_cell_angle_alpha                90
_cell_angle_beta                 90
_cell_angle_gamma                90
_cell_volume                     2517.98
_exptl_crystal_colour            colorless
_exptl_crystal_description       prismatic
_cell_formula_units_Z            8
loop_
_atom_site_label
_atom_site_type_symbol
_atom_site_fract_x
_atom_site_fract_y
_atom_site_fract_z
N1 N 1.03793(11) 0.23473(17) 0.28017(4)
N2 N 1.20879(9) 0.20037(16) 0.32842(4)
N3 N 0.65549(10) -0.04972(17) 0.43132(4)
N4 N 0.65653(10) 0.05619(16) 0.35048(4)
O1 O 1.07030(9) -0.16817(14) 0.46649(3)
C1 C 1.02113(12) -0.07963(17) 0.42928(4)
C2 C 0.89954(12) -0.07835(17) 0.42817(5)
H1 H 0.8574 -0.1340 0.4522
C3 C 0.84023(11) 0.00505(16) 0.39159(4)
C4 C 0.90336(11) 0.08851(16) 0.35561(4)
H2 H 0.8639 0.1440 0.3308
C5 C 1.02519(11) 0.08866(16) 0.35693(4)
C6 C 1.08424(11) 0.00412(16) 0.39390(4)
H3 H 1.1660 0.0040 0.3948
C7 C 1.09451(11) 0.17957(16) 0.31955(4)
C8 C 1.10177(14) 0.3194(2) 0.24815(6)
H4 H 1.0644 0.3616 0.2206
C9 C 1.21922(13) 0.3476(2) 0.25355(6)
H5 H 1.2626 0.4064 0.2306
C10 C 1.26891(12) 0.2841(2) 0.29482(6)
H6 H 1.3490 0.3001 0.2998
C11 C 0.70953(11) 0.00467(17) 0.39113(4)
C12 C 0.53848(13) -0.0495(2) 0.43016(6)
H7 H 0.4977 -0.0875 0.4574
C13 C 0.47587(13) 0.0040(2) 0.39070(6)
H8 H 0.3941 0.0056 0.3907
C14 C 0.53930(13) 0.0549(2) 0.35126(6)
H9 H 0.4991 0.0905 0.3236
C15 C 1.19460(14) -0.1760(2) 0.46883(6)
H10 H 1.2246 -0.2221 0.4390
H11 H 1.2177 -0.2443 0.4959
H12 H 1.2258 -0.0668 0.4732
loop_
_geom_bond_atom_site_label_1
_geom_bond_atom_site_label_2
_geom_bond_site_symmetry_1
_geom_bond_site_symmetry_2
N1 C7 1_555 1_555
N2 C7 1_555 1_555
N3 C11 1_555 1_555
N4 C11 1_555 1_555
O1 C1 1_555 1_555
C1 C2 1_555 1_555
C2 H1 1_555 1_555
C3 C2 1_555 1_555
C4 C3 1_555 1_555
H2 C4 1_555 1_555
C5 C4 1_555 1_555
C6 C1 1_555 1_555
H3 C6 1_555 1_555
C7 C5 1_555 1_555
C8 N1 1_555 1_555
H4 C8 1_555 1_555
C9 C8 1_555 1_555
H5 C9 1_555 1_555
C10 N2 1_555 1_555
H6 C10 1_555 1_555
C11 C3 1_555 1_555
C12 N3 1_555 1_555
H7 C12 1_555 1_555
C13 C12 1_555 1_555
H8 C13 1_555 1_555
C14 N4 1_555 1_555
H9 C14 1_555 1_555
C15 O1 1_555 1_555
H10 C15 1_555 1_555
H11 C15 1_555 1_555
H12 C15 1_555 1_555
C5 C6 1_555 1_555
C9 C10 1_555 1_555
C13 C14 1_555 1_555

#END
