
#######################################################################
#
#                 Cambridge Crystallographic Data Centre
#                                CCDC 
#
#######################################################################
#
# If this CIF has been generated from an entry in the Cambridge 
# Structural Database, then it will include bibliographic, chemical, 
# crystal, experimental, refinement or atomic coordinate data resulting 
# from the CCDC's data processing and validation procedures.
#
#######################################################################

data_MEXBUO
_chemical_name_common            
2-((E)-4-[4-(Trifluoromethyl)phenoxy]but-2-enyloxy)phenylN-methylcarbamate
_chemical_formula_moiety         'C19 H18 F3 N1 O4'
_chemical_name_systematic        
'2-((4-(4-(Trifluoromethyl)phenoxy)but-2-en-1-yl)oxy)phenyl methylcarbamate'
_symmetry_cell_setting           monoclinic
_symmetry_space_group_name_H-M   'P 21/c'
_symmetry_Int_Tables_number      14
_space_group_name_Hall           '-P 2ybc'
loop_
_symmetry_equiv_pos_site_id
_symmetry_equiv_pos_as_xyz
1 x,y,z
2 -x,1/2+y,1/2-z
3 -x,-y,-z
4 x,1/2-y,1/2+z
_cell_length_a                   12.413(3)
_cell_length_b                   9.3936(19)
_cell_length_c                   16.202(3)
_cell_angle_alpha                90
_cell_angle_beta                 111.65(3)
_cell_angle_gamma                90
_cell_volume                     1755.92
_exptl_crystal_colour            colorless
_exptl_crystal_description       block
_cell_formula_units_Z            4
loop_
_atom_site_label
_atom_site_type_symbol
_atom_site_fract_x
_atom_site_fract_y
_atom_site_fract_z
F1 F 0.4769(4) -0.2372(3) 0.2853(4)
F2 F 0.4529(5) -0.0522(5) 0.2121(3)
F3 F 0.5816(4) -0.0554(8) 0.3412(5)
O1 O 0.13692(11) 0.11336(15) 0.41856(9)
O2 O -0.17712(11) 0.32576(15) 0.48990(9)
O3 O 0.02201(12) 0.28785(14) 0.67050(9)
O4 O -0.03869(11) 0.50607(14) 0.60863(9)
N1 N 0.12414(13) 0.41620(18) 0.60530(11)
H1 H 0.1242 0.4945 0.5755
C1 C 0.47480(19) -0.0960(2) 0.29620(17)
C2 C 0.38579(17) -0.0443(2) 0.32947(14)
C3 C 0.27526(17) -0.1023(2) 0.29649(13)
H2 H 0.2584 -0.1773 0.2543
C4 C 0.18957(17) -0.0526(2) 0.32412(13)
H3 H 0.1141 -0.0930 0.3009
C5 C 0.21432(16) 0.0570(2) 0.38617(13)
C6 C 0.32588(18) 0.1133(2) 0.42067(15)
H4 H 0.3437 0.1868 0.4640
C7 C 0.41034(18) 0.0630(2) 0.39219(15)
H5 H 0.4862 0.1022 0.4158
C8 C 0.01688(16) 0.0769(2) 0.37353(13)
H6 H 0.0055 -0.0264 0.3792
H7 H -0.0081 0.1005 0.3096
C9 C -0.05238(17) 0.1595(2) 0.41472(13)
H8 H -0.0182 0.2416 0.4485
C10 C -0.15720(18) 0.1256(2) 0.40707(14)
H9 H -0.1877 0.0412 0.3745
C11 C -0.23549(17) 0.2024(2) 0.44281(13)
H10 H -0.3074 0.2308 0.3935
H11 H -0.2569 0.1392 0.4832
C12 C -0.22437(16) 0.3914(2) 0.54436(12)
C13 C -0.33741(17) 0.3764(2) 0.53971(13)
H12 H -0.3893 0.3149 0.4967
C14 C -0.37483(18) 0.4512(2) 0.59798(14)
H13 H -0.4523 0.4402 0.5948
C15 C -0.30069(18) 0.5415(2) 0.66040(14)
H14 H -0.3271 0.5922 0.7001
C16 C -0.18725(17) 0.5581(2) 0.66513(13)
H15 H -0.1360 0.6209 0.7076
C17 C -0.14992(16) 0.4832(2) 0.60820(12)
C18 C 0.03597(16) 0.3915(2) 0.63119(12)
C19 C 0.22029(18) 0.3175(2) 0.62487(16)
H16 H 0.2818 0.3611 0.6091
H17 H 0.1936 0.2300 0.5904
H18 H 0.2504 0.2947 0.6884
F4? F 0.5251(13) -0.2132(15) 0.3448(14)
F5? F 0.4491(9) -0.111(2) 0.2122(6)
F6? F 0.5655(11) -0.0074(18) 0.3219(13)
loop_
_geom_bond_atom_site_label_1
_geom_bond_atom_site_label_2
_geom_bond_site_symmetry_1
_geom_bond_site_symmetry_2
F1 C1 1_555 1_555
F2 C1 1_555 1_555
F3 C1 1_555 1_555
O1 C5 1_555 1_555
O2 C11 1_555 1_555
O3 C18 1_555 1_555
O4 C17 1_555 1_555
N1 H1 1_555 1_555
C1 C2 1_555 1_555
C2 C3 1_555 1_555
C3 H2 1_555 1_555
C4 C3 1_555 1_555
H3 C4 1_555 1_555
C5 C4 1_555 1_555
C6 C5 1_555 1_555
H4 C6 1_555 1_555
C7 C2 1_555 1_555
H5 C7 1_555 1_555
C8 O1 1_555 1_555
H6 C8 1_555 1_555
H7 C8 1_555 1_555
C9 C8 1_555 1_555
H8 C9 1_555 1_555
C10 C9 1_555 1_555
H9 C10 1_555 1_555
C11 C10 1_555 1_555
H10 C11 1_555 1_555
H11 C11 1_555 1_555
C12 O2 1_555 1_555
C13 C12 1_555 1_555
H12 C13 1_555 1_555
C14 C13 1_555 1_555
H13 C14 1_555 1_555
C15 C14 1_555 1_555
H14 C15 1_555 1_555
C16 C15 1_555 1_555
H15 C16 1_555 1_555
C17 C12 1_555 1_555
C18 O4 1_555 1_555
C19 N1 1_555 1_555
H16 C19 1_555 1_555
H17 C19 1_555 1_555
H18 C19 1_555 1_555
N1 C18 1_555 1_555
C6 C7 1_555 1_555
C16 C17 1_555 1_555

#END
