
#######################################################################
#
#                 Cambridge Crystallographic Data Centre
#                                CCDC 
#
#######################################################################
#
# If this CIF has been generated from an entry in the Cambridge 
# Structural Database, then it will include bibliographic, chemical, 
# crystal, experimental, refinement or atomic coordinate data resulting 
# from the CCDC's data processing and validation procedures.
#
#######################################################################

data_MEXCEA01
_chemical_formula_moiety         'C19 H29 Br1 O2,0.5(H2 O1)'
_chemical_name_systematic        
'16-bromo-3-hydroxyandrostan-17-one hemihydrate'
_symmetry_cell_setting           monoclinic
_symmetry_space_group_name_H-M   'P 21'
_symmetry_Int_Tables_number      4
_space_group_name_Hall           'P 2yb'
loop_
_symmetry_equiv_pos_site_id
_symmetry_equiv_pos_as_xyz
1 x,y,z
2 -x,1/2+y,-z
_cell_length_a                   15.0763(3)
_cell_length_b                   6.09680(10)
_cell_length_c                   19.8376(4)
_cell_angle_alpha                90
_cell_angle_beta                 95.739(2)
_cell_angle_gamma                90
_cell_volume                     1814.28
_exptl_crystal_colour            colorless
_exptl_crystal_description       needle
_cell_formula_units_Z            4
loop_
_atom_site_label
_atom_site_type_symbol
_atom_site_fract_x
_atom_site_fract_y
_atom_site_fract_z
Br1 Br 0.08247(2) 0.60815(6) 0.02970(2)
O1 O 0.24624(16) 0.6404(5) -0.06861(14)
O2 O 0.53546(17) -0.0032(4) 0.41642(13)
H1 H 0.555954 0.098895 0.441829
C1 C 0.1470(2) 0.3851(6) -0.01797(18)
H2 H 0.111918 0.339900 -0.061204
C2 C 0.2370(2) 0.4885(6) -0.03179(19)
C3 C 0.3106(2) 0.3582(6) 0.00966(18)
C4 C 0.2594(2) 0.2579(5) 0.06530(18)
H3 H 0.244925 0.383096 0.094870
C5 C 0.1705(2) 0.1857(6) 0.02766(18)
H4 H 0.124841 0.159825 0.059359
H5 H 0.177465 0.051377 0.000636
C6 C 0.31672(19) 0.1010(6) 0.11111(15)
H6 H 0.343517 -0.010013 0.082059
C7 C 0.3932(2) 0.2424(6) 0.14742(17)
H7 H 0.363330 0.361973 0.171265
C8 C 0.4459(2) 0.3574(6) 0.09499(19)
H8 H 0.491554 0.453499 0.119170
H9 H 0.477462 0.244933 0.070428
C9 C 0.3874(2) 0.4960(6) 0.04316(19)
H10 H 0.363307 0.623611 0.066218
H11 H 0.424067 0.551817 0.008125
C10 C 0.45221(18) 0.1158(7) 0.20356(15)
C11 C 0.3883(2) 0.0142(5) 0.25184(18)
H12 H 0.352601 0.139049 0.267577
C12 C 0.4372(2) -0.0870(6) 0.31611(18)
H13 H 0.393411 -0.147010 0.345210
H14 H 0.475896 -0.208690 0.303610
C13 C 0.4933(2) 0.0875(6) 0.35437(17)
H15 H 0.452891 0.208733 0.366064
C14 C 0.5611(2) 0.1817(6) 0.31074(19)
H16 H 0.602166 0.064566 0.298795
H17 H 0.596663 0.296412 0.336327
C15 C 0.5131(2) 0.2812(6) 0.24573(18)
H18 H 0.558292 0.337918 0.217257
H19 H 0.476492 0.406925 0.258162
C16 C 0.3213(2) -0.1422(6) 0.21472(18)
H20 H 0.353421 -0.261165 0.193432
H21 H 0.283922 -0.209448 0.247447
C17 C 0.2621(2) -0.0195(6) 0.16044(18)
H22 H 0.224984 0.087798 0.182449
H23 H 0.221600 -0.124947 0.134951
C18 C 0.5097(2) -0.0564(6) 0.17237(19)
H24 H 0.534324 -0.157998 0.207707
H25 H 0.558574 0.016500 0.152143
H26 H 0.473063 -0.138084 0.137290
C19 C 0.3440(2) 0.1887(6) -0.03982(19)
H27 H 0.368516 0.265417 -0.077227
H28 H 0.294250 0.095493 -0.057834
H29 H 0.390547 0.097597 -0.015802
Br2 Br -0.27620(2) 0.62844(7) 0.27013(2)
O3 O -0.15084(18) 0.6477(6) 0.14782(15)
O4 O 0.33759(17) 0.1767(4) 0.56469(13)
H30 H 0.376284 0.272358 0.576132
C20 C -0.2195(2) 0.3943(7) 0.2220(2)
H31 H -0.262699 0.322273 0.187329
C21 C -0.1427(3) 0.5044(7) 0.1893(2)
C22 C -0.0557(2) 0.4010(6) 0.21930(19)
C23 C -0.0814(2) 0.3259(6) 0.28921(18)
H32 H -0.089930 0.463093 0.315431
C24 C -0.1751(2) 0.2268(6) 0.2727(2)
H33 H -0.172044 0.079676 0.251962
H34 H -0.207195 0.216228 0.313745
C25 C -0.0074(2) 0.1999(6) 0.32951(18)
H35 H 0.008103 0.068635 0.302861
C26 C 0.0751(2) 0.3537(6) 0.33987(18)
H36 H 0.056278 0.482959 0.366008
C27 C 0.1009(2) 0.4446(6) 0.27205(19)
H37 H 0.149867 0.552004 0.281338
H38 H 0.123621 0.322734 0.245585
C28 C 0.0230(2) 0.5561(6) 0.2292(2)
H39 H 0.005472 0.691041 0.252265
H40 H 0.041860 0.598116 0.184589
C29 C -0.0376(3) 0.2110(7) 0.1710(2)
H41 H 0.013812 0.126022 0.190549
H42 H -0.025138 0.270951 0.127120
H43 H -0.090133 0.115638 0.164772
C30 C 0.1541(2) 0.2451(6) 0.38469(18)
C31 C 0.1197(2) 0.1882(6) 0.45375(18)
H44 H 0.097417 0.328511 0.472039
C32 C 0.1936(2) 0.1043(8) 0.50662(17)
H45 H 0.168275 0.076890 0.550020
H46 H 0.217319 -0.036103 0.490947
C33 C 0.2689(2) 0.2707(7) 0.51770(19)
H47 H 0.245721 0.406471 0.538161
C34 C 0.3046(2) 0.3299(7) 0.45150(19)
H48 H 0.333651 0.199558 0.433586
H49 H 0.350391 0.445858 0.459793
C35 C 0.2309(2) 0.4110(6) 0.3985(2)
H50 H 0.257088 0.441120 0.355645
H51 H 0.206640 0.550533 0.414388
C36 C 0.0399(2) 0.0317(7) 0.4455(2)
H52 H 0.059106 -0.110499 0.427716
H53 H 0.018634 0.004660 0.490404
C37 C -0.0362(2) 0.1238(8) 0.39770(17)
H54 H -0.063036 0.249348 0.419956
H55 H -0.082782 0.009694 0.389327
C38 C 0.1877(2) 0.0416(6) 0.3501(2)
H56 H 0.234137 -0.030037 0.380445
H57 H 0.212306 0.084810 0.308149
H58 H 0.138048 -0.060551 0.339372
O5 O 0.4130(2) 0.8345(6) 0.50187(17)
H59 H 0.381(2) 0.930(5) 0.518(2)
H60 H 0.445(2) 0.878(9) 0.4720(16)
loop_
_geom_bond_atom_site_label_1
_geom_bond_atom_site_label_2
_geom_bond_site_symmetry_1
_geom_bond_site_symmetry_2
Br1 C1 1_555 1_555
O1 C2 1_555 1_555
O2 H1 1_555 1_555
C1 H2 1_555 1_555
C2 C1 1_555 1_555
C3 C2 1_555 1_555
C4 C3 1_555 1_555
H3 C4 1_555 1_555
C5 C1 1_555 1_555
H4 C5 1_555 1_555
H5 C5 1_555 1_555
C6 C4 1_555 1_555
H6 C6 1_555 1_555
C7 C6 1_555 1_555
H7 C7 1_555 1_555
C8 C7 1_555 1_555
H8 C8 1_555 1_555
H9 C8 1_555 1_555
C9 C3 1_555 1_555
H10 C9 1_555 1_555
H11 C9 1_555 1_555
C10 C7 1_555 1_555
C11 C10 1_555 1_555
H12 C11 1_555 1_555
C12 C11 1_555 1_555
H13 C12 1_555 1_555
H14 C12 1_555 1_555
C13 O2 1_555 1_555
H15 C13 1_555 1_555
C14 C13 1_555 1_555
H16 C14 1_555 1_555
H17 C14 1_555 1_555
C15 C10 1_555 1_555
H18 C15 1_555 1_555
H19 C15 1_555 1_555
C16 C11 1_555 1_555
H20 C16 1_555 1_555
H21 C16 1_555 1_555
C17 C6 1_555 1_555
H22 C17 1_555 1_555
H23 C17 1_555 1_555
C18 C10 1_555 1_555
H24 C18 1_555 1_555
H25 C18 1_555 1_555
H26 C18 1_555 1_555
C19 C3 1_555 1_555
H27 C19 1_555 1_555
H28 C19 1_555 1_555
H29 C19 1_555 1_555
Br2 C20 1_555 1_555
O3 C21 1_555 1_555
O4 H30 1_555 1_555
C20 H31 1_555 1_555
C21 C20 1_555 1_555
C22 C21 1_555 1_555
C23 C22 1_555 1_555
H32 C23 1_555 1_555
C24 C20 1_555 1_555
H33 C24 1_555 1_555
H34 C24 1_555 1_555
C25 C23 1_555 1_555
H35 C25 1_555 1_555
C26 C25 1_555 1_555
H36 C26 1_555 1_555
C27 C26 1_555 1_555
H37 C27 1_555 1_555
H38 C27 1_555 1_555
C28 C22 1_555 1_555
H39 C28 1_555 1_555
H40 C28 1_555 1_555
C29 C22 1_555 1_555
H41 C29 1_555 1_555
H42 C29 1_555 1_555
H43 C29 1_555 1_555
C30 C26 1_555 1_555
C31 C30 1_555 1_555
H44 C31 1_555 1_555
C32 C31 1_555 1_555
H45 C32 1_555 1_555
H46 C32 1_555 1_555
C33 O4 1_555 1_555
H47 C33 1_555 1_555
C34 C33 1_555 1_555
H48 C34 1_555 1_555
H49 C34 1_555 1_555
C35 C30 1_555 1_555
H50 C35 1_555 1_555
H51 C35 1_555 1_555
C36 C31 1_555 1_555
H52 C36 1_555 1_555
H53 C36 1_555 1_555
C37 C25 1_555 1_555
H54 C37 1_555 1_555
H55 C37 1_555 1_555
C38 C30 1_555 1_555
H56 C38 1_555 1_555
H57 C38 1_555 1_555
H58 C38 1_555 1_555
O5 H59 1_555 1_555
H60 O5 1_555 1_555
C4 C5 1_555 1_555
C8 C9 1_555 1_555
C12 C13 1_555 1_555
C14 C15 1_555 1_555
C16 C17 1_555 1_555
C23 C24 1_555 1_555
C27 C28 1_555 1_555
C32 C33 1_555 1_555
C34 C35 1_555 1_555
C36 C37 1_555 1_555

#END
