
#######################################################################
#
#                 Cambridge Crystallographic Data Centre
#                                CCDC 
#
#######################################################################
#
# If this CIF has been generated from an entry in the Cambridge 
# Structural Database, then it will include bibliographic, chemical, 
# crystal, experimental, refinement or atomic coordinate data resulting 
# from the CCDC's data processing and validation procedures.
#
#######################################################################

data_MEXJOO
_chemical_name_common            
"2,8,14,20-tetramethylcalix[4]resorcinarene bis(4,4'-bipyridine) dihydrate"
_chemical_formula_moiety         'C32 H32 O8,2(C10 H8 N2),2(H2 O1)'
_chemical_name_systematic        
"4,6,10,12,16,18,22,24-octahydroxy-2,8,14,20-tetramethylcalix(4)arene bis(4,4'-bipyridine) dihydrate"
_symmetry_cell_setting           triclinic
_symmetry_space_group_name_H-M   'P -1'
_symmetry_Int_Tables_number      2
_space_group_name_Hall           '-P 1'
loop_
_symmetry_equiv_pos_site_id
_symmetry_equiv_pos_as_xyz
1 x,y,z
2 -x,-y,-z
_cell_length_a                   13.0965(11)
_cell_length_b                   13.8019(13)
_cell_length_c                   13.9915(12)
_cell_angle_alpha                63.410(2)
_cell_angle_beta                 84.946(4)
_cell_angle_gamma                75.216(3)
_cell_volume                     2185.7
_exptl_crystal_colour            yellow
_exptl_crystal_description       Prismatic
_cell_formula_units_Z            2
loop_
_atom_site_label
_atom_site_type_symbol
_atom_site_fract_x
_atom_site_fract_y
_atom_site_fract_z
O1 O 0.09581(8) 0.20229(8) 0.61256(8)
O2 O 0.24896(8) 0.51603(8) 0.44879(8)
H1 H 0.3050(15) 0.5451(15) 0.4225(15)
O3 O 0.55456(8) 0.54388(9) 0.23722(8)
H2 H 0.5793(16) 0.6036(17) 0.1957(16)
O4 O 0.34432(9) 0.67131(9) -0.08104(8)
H3 H 0.3970(16) 0.7046(16) -0.1110(15)
O5 O 0.04904(8) 0.63435(8) 0.15141(9)
H4 H 0.0895(17) 0.6728(18) 0.1042(17)
O6 O -0.09517(8) 0.31495(9) 0.31176(8)
H5 H -0.1416(17) 0.3639(17) 0.3306(16)
O7 O -0.00513(8) -0.01368(9) 0.29928(8)
H6 H -0.0307(15) -0.0708(16) 0.3383(15)
O8 O 0.19251(8) -0.13722(8) 0.62611(8)
H7 H 0.1601(15) -0.1931(16) 0.6479(15)
C1 C 0.17493(11) 0.24982(11) 0.55261(11)
C2 C 0.17529(12) 0.35987(12) 0.52746(12)
H12 H 0.1179(13) 0.4050(13) 0.5522(12)
C3 C 0.25666(11) 0.40595(11) 0.46778(11)
C4 C 0.33898(11) 0.34555(11) 0.43074(11)
C5 C 0.33554(11) 0.23468(12) 0.45890(11)
H13 H 0.3934(12) 0.1905(12) 0.4349(12)
C6 C 0.25633(11) 0.18382(11) 0.51919(11)
C7 C 0.42966(11) 0.39527(12) 0.36728(11)
H14 H 0.4473(12) 0.4412(12) 0.4003(12)
C8 C 0.53014(12) 0.30449(12) 0.37485(12)
H15 H 0.5191(13) 0.2610(14) 0.3385(13)
C9 C 0.40103(11) 0.47416(11) 0.24905(11)
C10 C 0.46878(11) 0.54281(12) 0.18732(11)
C11 C 0.45050(12) 0.60763(12) 0.07756(12)
H16 H 0.4980(13) 0.6518(14) 0.0373(13)
C12 C 0.36422(12) 0.60711(12) 0.02650(11)
C13 C 0.29329(11) 0.54086(12) 0.08521(11)
C14 C 0.31456(11) 0.47614(11) 0.19526(11)
H17 H 0.2664(12) 0.4266(13) 0.2384(12)
C15 C 0.20135(11) 0.53895(12) 0.02578(11)
H18 H 0.1634(12) 0.6208(13) -0.0206(12)
C16 C 0.24456(13) 0.48684(13) -0.05136(12)
H19 H 0.2913(13) 0.5311(13) -0.1041(13)
H20 H 0.1855(14) 0.4820(14) -0.0868(13)
H21 H 0.2899(13) 0.4090(15) -0.0112(13)
C17 C 0.12148(11) 0.48081(11) 0.10214(11)
C18 C 0.05254(11) 0.52986(11) 0.15916(11)
C19 C -0.01792(11) 0.47394(12) 0.23059(11)
H22 H -0.0648(13) 0.5091(13) 0.2711(12)
C20 C -0.02279(11) 0.36883(11) 0.24402(11)
C21 C 0.04471(11) 0.31564(11) 0.18927(11)
C22 C 0.11517(11) 0.37404(12) 0.11992(11)
H23 H 0.1634(12) 0.3383(13) 0.0804(12)
C23 C 0.04174(12) 0.19860(11) 0.20715(11)
H24 H -0.0337(13) 0.2009(12) 0.2007(12)
C24 C 0.10325(13) 0.16554(13) 0.12264(12)
H25 H 0.0975(12) 0.0896(14) 0.1374(12)
H26 H 0.1818(14) 0.1632(13) 0.1278(13)
H27 H 0.0753(13) 0.2204(13) 0.0491(13)
C25 C 0.08167(11) 0.10912(11) 0.31947(11)
C26 C 0.05700(11) 0.00423(11) 0.36180(11)
C27 C 0.09381(11) -0.07854(12) 0.46328(11)
H28 H 0.0720(12) -0.1510(13) 0.4940(12)
C28 C 0.15584(11) -0.05814(11) 0.52529(11)
C29 C 0.18286(11) 0.04566(11) 0.48580(11)
C30 C 0.14444(11) 0.12618(11) 0.38382(11)
H29 H 0.1619(12) 0.2006(12) 0.3552(11)
C31 C 0.25830(11) 0.06182(11) 0.55207(11)
H30 H 0.2360(12) 0.0310(12) 0.6286(12)
C32 C 0.36974(12) -0.00821(12) 0.54809(12)
H31 H 0.3898(13) 0.0135(14) 0.4742(14)
H32 H 0.4233(13) 0.0021(13) 0.5859(12)
H33 H 0.3673(13) -0.0909(14) 0.5819(13)
H50 H 0.5493(12) 0.2516(13) 0.4490(13)
H51 H 0.5899(13) 0.3389(13) 0.3395(13)
H52 H 0.0480(16) 0.2534(16) 0.6268(15)
O9 O -0.25120(9) 0.45514(9) 0.35908(9)
H8 H -0.2557(17) 0.4609(18) 0.4215(18)
H9 H -0.3174(19) 0.4704(18) 0.3321(18)
O10 O 0.05481(10) 0.65996(10) 0.33637(10)
H10 H 0.0521(18) 0.6495(19) 0.2758(18)
H11 H 0.1157(17) 0.6129(17) 0.3747(16)
C33 C 0.73658(13) 0.71489(13) 0.16241(13)
H34 H 0.7723(14) 0.6417(15) 0.2144(14)
C34 C 0.78454(13) 0.80353(13) 0.12939(13)
H35 H 0.8527(14) 0.7906(14) 0.1603(13)
C35 C 0.73256(12) 0.90923(12) 0.05348(11)
C36 C 0.63536(13) 0.91835(13) 0.01249(12)
H36 H 0.5973(13) 0.9866(14) -0.0398(13)
C37 C 0.59330(13) 0.82516(13) 0.04996(12)
H37 H 0.5235(14) 0.8295(13) 0.0240(13)
C38 C 0.77628(12) 1.00907(12) 0.02076(12)
C39 C 0.84382(13) 1.01449(13) 0.08903(13)
H38 H 0.8671(13) 0.9539(14) 0.1556(14)
C40 C 0.87738(13) 1.11200(13) 0.05818(13)
H39 H 0.9223(14) 1.1187(14) 0.1087(13)
C41 C 0.78449(14) 1.19735(14) -0.10108(13)
H40 H 0.7648(14) 1.2618(15) -0.1673(15)
C42 C 0.74628(14) 1.10375(14) -0.07618(13)
H41 H 0.6973(14) 1.1102(14) -0.1262(14)
N1 N 0.64160(10) 0.72447(10) 0.12474(10)
N2 N 0.84964(10) 1.20270(11) -0.03563(10)
C43 C 0.52474(13) 0.32932(13) -0.37450(12)
H42 H 0.4738(14) 0.4005(14) -0.3922(13)
C44 C 0.49291(12) 0.22968(13) -0.33569(12)
H43 H 0.4183(13) 0.2311(12) -0.3281(11)
C45 C 0.56861(12) 0.12901(12) -0.31040(11)
C46 C 0.67404(12) 0.13596(13) -0.33024(12)
H44 H 0.7336(13) 0.0675(14) -0.3141(13)
C47 C 0.69856(13) 0.23937(13) -0.36891(13)
H45 H 0.7715(14) 0.2419(14) -0.3796(13)
C48 C 0.53901(12) 0.01931(12) -0.26327(11)
C49 C 0.43715(12) 0.01023(13) -0.22653(12)
H46 H 0.3842(13) 0.0739(14) -0.2313(13)
C50 C 0.41258(13) -0.09325(13) -0.18429(12)
H47 H 0.3395(13) -0.1004(13) -0.1601(12)
C51 C 0.57965(13) -0.17923(13) -0.21015(12)
H48 H 0.6306(14) -0.2494(15) -0.1997(13)
C52 C 0.61103(12) -0.07928(12) -0.25381(12)
H49 H 0.6825(13) -0.0789(12) -0.2792(12)
N3 N 0.62608(10) 0.33570(10) -0.38940(10)
N4 N 0.48148(10) -0.18768(11) -0.17540(10)
loop_
_geom_bond_atom_site_label_1
_geom_bond_atom_site_label_2
_geom_bond_site_symmetry_1
_geom_bond_site_symmetry_2
O1 C1 1_555 1_555
O2 H1 1_555 1_555
O3 H2 1_555 1_555
O4 H3 1_555 1_555
O5 H4 1_555 1_555
O6 H5 1_555 1_555
O7 H6 1_555 1_555
O8 H7 1_555 1_555
O9 H8 1_555 1_555
H9 O9 1_555 1_555
O10 H10 1_555 1_555
H11 O10 1_555 1_555
C1 C2 1_555 1_555
C2 H12 1_555 1_555
C3 O2 1_555 1_555
C4 C3 1_555 1_555
C5 C4 1_555 1_555
H13 C5 1_555 1_555
C6 C1 1_555 1_555
C7 C4 1_555 1_555
H14 C7 1_555 1_555
C8 C7 1_555 1_555
H15 C8 1_555 1_555
C9 C7 1_555 1_555
C10 O3 1_555 1_555
C11 C10 1_555 1_555
H16 C11 1_555 1_555
C12 O4 1_555 1_555
C13 C12 1_555 1_555
C14 C9 1_555 1_555
H17 C14 1_555 1_555
C15 C13 1_555 1_555
H18 C15 1_555 1_555
C16 C15 1_555 1_555
H19 C16 1_555 1_555
H20 C16 1_555 1_555
H21 C16 1_555 1_555
C17 C15 1_555 1_555
C18 O5 1_555 1_555
C19 C18 1_555 1_555
H22 C19 1_555 1_555
C20 O6 1_555 1_555
C21 C20 1_555 1_555
C22 C17 1_555 1_555
H23 C22 1_555 1_555
C23 C21 1_555 1_555
H24 C23 1_555 1_555
C24 C23 1_555 1_555
H25 C24 1_555 1_555
H26 C24 1_555 1_555
H27 C24 1_555 1_555
C25 C23 1_555 1_555
C26 O7 1_555 1_555
C27 C26 1_555 1_555
H28 C27 1_555 1_555
C28 O8 1_555 1_555
C29 C28 1_555 1_555
C30 C25 1_555 1_555
H29 C30 1_555 1_555
C31 C6 1_555 1_555
H30 C31 1_555 1_555
C32 C31 1_555 1_555
H31 C32 1_555 1_555
H32 C32 1_555 1_555
H33 C32 1_555 1_555
C33 H34 1_555 1_555
C34 C33 1_555 1_555
H35 C34 1_555 1_555
C35 C34 1_555 1_555
C36 C35 1_555 1_555
H36 C36 1_555 1_555
C37 C36 1_555 1_555
H37 C37 1_555 1_555
C38 C35 1_555 1_555
C39 C38 1_555 1_555
H38 C39 1_555 1_555
C40 C39 1_555 1_555
H39 C40 1_555 1_555
C41 H40 1_555 1_555
C42 C38 1_555 1_555
H41 C42 1_555 1_555
C43 H42 1_555 1_555
C44 C43 1_555 1_555
H43 C44 1_555 1_555
C45 C44 1_555 1_555
C46 C45 1_555 1_555
H44 C46 1_555 1_555
C47 C46 1_555 1_555
H45 C47 1_555 1_555
C48 C45 1_555 1_555
C49 C48 1_555 1_555
H46 C49 1_555 1_555
C50 C49 1_555 1_555
H47 C50 1_555 1_555
C51 H48 1_555 1_555
C52 C48 1_555 1_555
H49 C52 1_555 1_555
N1 C33 1_555 1_555
N2 C40 1_555 1_555
N3 C43 1_555 1_555
N4 C50 1_555 1_555
H50 C8 1_555 1_555
H51 C8 1_555 1_555
H52 O1 1_555 1_555
C2 C3 1_555 1_555
C5 C6 1_555 1_555
C9 C10 1_555 1_555
C11 C12 1_555 1_555
C13 C14 1_555 1_555
C17 C18 1_555 1_555
C19 C20 1_555 1_555
C21 C22 1_555 1_555
C25 C26 1_555 1_555
C27 C28 1_555 1_555
C29 C31 1_555 1_555
C29 C30 1_555 1_555
C37 N1 1_555 1_555
C41 N2 1_555 1_555
C41 C42 1_555 1_555
C47 N3 1_555 1_555
C51 N4 1_555 1_555
C51 C52 1_555 1_555

#END
