
#######################################################################
#
#                 Cambridge Crystallographic Data Centre
#                                CCDC 
#
#######################################################################
#
# If this CIF has been generated from an entry in the Cambridge 
# Structural Database, then it will include bibliographic, chemical, 
# crystal, experimental, refinement or atomic coordinate data resulting 
# from the CCDC's data processing and validation procedures.
#
#######################################################################

data_MEXJII
_chemical_name_common            
"2,8,14,20-tetramethylcalix[4]resorcinarene bis(4,4'-bipyridine)"
_chemical_formula_moiety         'C32 H32 O8,2(C10 H8 N2)'
_chemical_name_systematic        
"4,6,10,12,16,18,22,24-octahydroxy-2,8,14,20-tetramethylcalix(4)arene bis(4,4'-bipyridine)"
_symmetry_cell_setting           triclinic
_symmetry_space_group_name_H-M   'P -1'
_symmetry_Int_Tables_number      2
_space_group_name_Hall           '-P 1'
loop_
_symmetry_equiv_pos_site_id
_symmetry_equiv_pos_as_xyz
1 x,y,z
2 -x,-y,-z
_cell_length_a                   6.9270(11)
_cell_length_b                   10.8968(18)
_cell_length_c                   14.735(2)
_cell_angle_alpha                101.312(6)
_cell_angle_beta                 100.335(6)
_cell_angle_gamma                95.999(4)
_cell_volume                     1061.62
_exptl_crystal_colour            'light yellow'
_exptl_crystal_description       block
_cell_formula_units_Z            1
loop_
_atom_site_label
_atom_site_type_symbol
_atom_site_fract_x
_atom_site_fract_y
_atom_site_fract_z
O1 O 0.1426(3) 1.85598(16) 0.72772(13)
O2 O 0.2952(3) 1.45919(17) 0.79501(13)
O3 O 0.0560(3) 1.09307(18) 0.70948(13)
O4 O 0.3528(3) 1.0374(2) 0.43719(15)
C1 C -0.4506(4) 1.6823(3) 0.5929(2)
C2 C -0.2329(4) 1.7464(2) 0.61485(18)
C3 C -0.0887(4) 1.6687(2) 0.65826(16)
C4 C 0.0948(4) 1.7271(2) 0.71521(17)
C5 C 0.2233(4) 1.6582(2) 0.76045(17)
C6 C 0.1742(4) 1.5294(2) 0.75016(16)
C7 C -0.0079(4) 1.4659(2) 0.69304(16)
C8 C -0.1317(4) 1.5383(2) 0.64912(16)
C9 C -0.0600(4) 1.3252(2) 0.68432(17)
C10 C -0.2870(4) 1.2802(3) 0.6594(2)
C11 C 0.0457(3) 1.2476(2) 0.61616(17)
C12 C 0.1046(4) 1.1341(2) 0.63276(17)
C13 C 0.2074(4) 1.0645(2) 0.57426(18)
C14 C 0.2468(3) 1.1053(2) 0.49558(17)
C15 C -0.1831(3) 1.7862(2) 0.52770(16)
C16 C 0.0846(4) 1.2833(2) 0.53444(16)
H1 H -0.258(4) 1.498(3) 0.6098(19)
H2 H 0.253(3) 0.992(2) 0.5859(16)
H3 H 0.349(4) 1.700(3) 0.8019(19)
H4 H -0.348(4) 1.282(3) 0.594(2)
H5 H -0.536(4) 1.742(3) 0.5757(19)
H6 H -0.225(4) 1.821(3) 0.659(2)
H7 H -0.482(6) 1.590(4) 0.534(3)
H8 H -0.009(4) 1.311(2) 0.7484(19)
H9 H 0.057(4) 1.364(3) 0.5167(18)
H10 H -0.309(4) 1.196(3) 0.6664(19)
H11 H -0.368(4) 1.332(3) 0.705(2)
H12 H -0.485(4) 1.656(3) 0.646(2)
H13 H 0.086(7) 1.006(5) 0.704(3)
H14 H 0.405(7) 1.513(4) 0.825(3)
H15 H 0.275(7) 1.887(4) 0.758(3)
H16 H 0.371(11) 0.989(8) 0.463(6)
C14A C -0.2468(3) 1.8947(2) 0.50442(17)
O4A O -0.3528(3) 1.9626(2) 0.56281(15)
H16A H -0.371(11) 2.011(8) 0.537(6)
C13A C -0.2074(4) 1.9355(2) 0.42574(18)
C12A C -0.1046(4) 1.8659(2) 0.36724(17)
O3A O -0.0560(3) 1.90693(18) 0.29052(13)
H13A H -0.086(7) 1.994(5) 0.296(3)
C11A C -0.0457(3) 1.7524(2) 0.38384(17)
C9A C 0.0600(4) 1.6748(2) 0.31568(17)
C7A C 0.0079(4) 1.5341(2) 0.30696(16)
C6A C -0.1742(4) 1.4706(2) 0.24984(16)
O2A O -0.2952(3) 1.54081(17) 0.20499(13)
H14A H -0.405(7) 1.487(4) 0.175(3)
C5A C -0.2233(4) 1.3418(2) 0.23955(17)
C4A C -0.0948(4) 1.2729(2) 0.28479(17)
O1A O -0.1426(3) 1.14402(16) 0.27228(13)
H15A H -0.275(7) 1.113(4) 0.242(3)
C3A C 0.0887(4) 1.3313(2) 0.34174(16)
C2A C 0.2329(4) 1.2536(2) 0.38515(18)
C1A C 0.4506(4) 1.3177(3) 0.4071(2)
H5A H 0.536(4) 1.258(3) 0.4243(19)
H7A H 0.482(6) 1.410(4) 0.466(3)
H12A H 0.485(4) 1.344(3) 0.354(2)
C15A C 0.1831(3) 1.2138(2) 0.47230(16)
H6A H 0.225(4) 1.179(3) 0.341(2)
C8A C 0.1317(4) 1.4617(2) 0.35088(16)
H1A H 0.258(4) 1.502(3) 0.3902(19)
H3A H -0.349(4) 1.300(3) 0.1981(19)
C10A C 0.2870(4) 1.7198(3) 0.3406(2)
H4A H 0.348(4) 1.718(3) 0.406(2)
H10A H 0.309(4) 1.804(3) 0.3336(19)
H11A H 0.368(4) 1.668(3) 0.295(2)
H8A H 0.009(4) 1.689(2) 0.2516(19)
C16A C -0.0846(4) 1.7167(2) 0.46556(16)
H9A H -0.057(4) 1.636(3) 0.4833(18)
H2A H -0.253(3) 2.008(2) 0.4141(16)
C17 C 1.2787(16) 1.3796(11) 1.0069(7)
C18 C 1.0984(19) 1.2963(12) 0.9588(6)
C19 C 1.0915(8) 1.2200(7) 1.0916(4)
C20 C 1.2578(9) 1.3041(7) 1.1371(4)
C21 C 0.7754(8) 1.1010(5) 0.8502(4)
C22 C 0.5986(10) 1.0184(7) 0.8067(4)
C23 C 0.5317(9) 0.9921(5) 0.9467(4)
C24 C 0.6998(9) 1.0717(5) 0.9962(4)
N1 N 1.3641(4) 1.3949(3) 1.0850(2)
C27 C 1.0210(6) 1.2288(4) 0.9839(4)
C30 C 0.8410(6) 1.1395(4) 0.9321(4)
N2 N 0.4977(6) 0.9724(3) 0.8335(4)
C23A C 0.4683(9) 1.0079(5) 1.0533(4)
C24A C 0.3002(9) 0.9283(5) 1.0038(4)
C30A C 0.1590(6) 0.8605(4) 1.0679(4)
C21A C 0.2246(8) 0.8990(5) 1.1498(4)
C22A C 0.4014(10) 0.9816(7) 1.1933(4)
N2A N 0.5023(6) 1.0276(3) 1.1665(4)
C27A C -0.0210(6) 0.7712(4) 1.0161(4)
C18A C -0.0984(19) 0.7037(12) 1.0412(6)
C17A C -0.2787(16) 0.6204(11) 0.9931(7)
N1A N -0.3641(4) 0.6051(3) 0.9150(2)
C20A C -0.2578(9) 0.6959(7) 0.8629(4)
C19A C -0.0915(8) 0.7800(7) 0.9084(4)
C25? C 1.1959(10) 1.4067(6) 1.1003(4)
C26? C 1.0230(9) 1.3306(7) 1.0469(5)
C28? C 1.2143(9) 1.2391(6) 0.9410(4)
C29? C 1.3804(10) 1.3212(6) 0.9964(5)
C31? C 0.6793(10) 1.1917(7) 0.8841(5)
C32? C 0.5116(10) 1.1022(6) 0.8333(4)
C33? C 0.6951(9) 0.9408(6) 0.8382(4)
C34? C 0.8681(9) 1.0224(6) 0.8865(4)
loop_
_geom_bond_atom_site_label_1
_geom_bond_atom_site_label_2
_geom_bond_site_symmetry_1
_geom_bond_site_symmetry_2
O1 C4 1_555 1_555
O2 C6 1_555 1_555
O3 C12 1_555 1_555
O4 C14 1_555 1_555
C1 C2 1_555 1_555
C2 C3 1_555 1_555
C3 C4 1_555 1_555
C4 C5 1_555 1_555
C5 C6 1_555 1_555
C6 C7 1_555 1_555
C7 C8 1_555 1_555
C8 C3 1_555 1_555
C9 C7 1_555 1_555
C10 C9 1_555 1_555
C11 C9 1_555 1_555
C12 C11 1_555 1_555
C13 C12 1_555 1_555
C14 C13 1_555 1_555
C15 C2 1_555 1_555
C16 C11 1_555 1_555
C17 C18 1_555 1_555
C18 C27 1_555 1_555
C19 C20 1_555 1_555
C20 N1 1_555 1_555
C21 C22 1_555 1_555
C22 N2 1_555 1_555
C23 C24 1_555 1_555
C24 C30 1_555 1_555
N1 C17 1_555 1_555
C27 C19 1_555 1_555
C30 C21 1_555 1_555
N2 C23 1_555 1_555
H1 C8 1_555 1_555
H2 C13 1_555 1_555
H3 C5 1_555 1_555
H4 C10 1_555 1_555
H5 C1 1_555 1_555
H6 C2 1_555 1_555
H7 C1 1_555 1_555
H8 C9 1_555 1_555
H9 C16 1_555 1_555
H10 C10 1_555 1_555
H11 C10 1_555 1_555
H12 C1 1_555 1_555
H13 O3 1_555 1_555
H14 O2 1_555 1_555
H15 O1 1_555 1_555
H16 O4 1_555 1_555
C14A C15 1_555 1_555
O4A C14A 1_555 1_555
H16A O4A 1_555 1_555
C13A C14A 1_555 1_555
C12A C13A 1_555 1_555
O3A C12A 1_555 1_555
H13A O3A 1_555 1_555
C11A C12A 1_555 1_555
C9A C11A 1_555 1_555
C7A C9A 1_555 1_555
C6A C7A 1_555 1_555
O2A C6A 1_555 1_555
H14A O2A 1_555 1_555
C5A C6A 1_555 1_555
C4A C5A 1_555 1_555
O1A C4A 1_555 1_555
H15A O1A 1_555 1_555
C3A C4A 1_555 1_555
C2A C3A 1_555 1_555
C1A C2A 1_555 1_555
H5A C1A 1_555 1_555
H7A C1A 1_555 1_555
H12A C1A 1_555 1_555
C15A C14 1_555 1_555
H6A C2A 1_555 1_555
C8A C7A 1_555 1_555
H1A C8A 1_555 1_555
H3A C5A 1_555 1_555
C10A C9A 1_555 1_555
H4A C10A 1_555 1_555
H10A C10A 1_555 1_555
H11A C10A 1_555 1_555
H8A C9A 1_555 1_555
C16A C15 1_555 1_555
H9A C16A 1_555 1_555
H2A C13A 1_555 1_555
C23A C24A 1_555 1_555
C24A C30A 1_555 1_555
C30A C21A 1_555 1_555
C21A C22A 1_555 1_555
C22A N2A 1_555 1_555
N2A C23A 1_555 1_555
C27A C30A 1_555 1_555
C18A C27A 1_555 1_555
C17A C18A 1_555 1_555
N1A C17A 1_555 1_555
C20A N1A 1_555 1_555
C19A C27A 1_555 1_555
C16 C15A 1_555 1_555
C27 C30 1_555 1_555
C11A C16A 1_555 1_555
C3A C8A 1_555 1_555
C2A C15A 1_555 1_555
C20A C19A 1_555 1_555

#END
