
#######################################################################
#
#                 Cambridge Crystallographic Data Centre
#                                CCDC 
#
#######################################################################
#
# If this CIF has been generated from an entry in the Cambridge 
# Structural Database, then it will include bibliographic, chemical, 
# crystal, experimental, refinement or atomic coordinate data resulting 
# from the CCDC's data processing and validation procedures.
#
#######################################################################

data_MEXKAB
_chemical_name_common            
"2,8,14,20-tetramethylcalix[4]resorcinarene bis(4,4'-bipyridine) ethanol monohydrate clathrate"
_chemical_formula_moiety         'C32 H32 O8,2(C10 H8 N2),3.5(C2 H6 O1),H2 O1'
_chemical_name_systematic        
"4,6,10,12,16,18,22,24-octahydroxy-2,8,14,20-tetramethylcalix(4)arene bis(4,4'-bipyridine) ethanol monohydrate clathrate"
_symmetry_cell_setting           monoclinic
_symmetry_space_group_name_H-M   'C 2/c'
_symmetry_Int_Tables_number      15
_space_group_name_Hall           '-C 2yn'
loop_
_symmetry_equiv_pos_site_id
_symmetry_equiv_pos_as_xyz
1 x,y,z
2 1/2+x,1/2+y,z
3 x,-y,1/2+z
4 1/2+x,1/2-y,1/2+z
5 -x,-y,-z
6 1/2-x,1/2-y,-z
7 -x,y,1/2-z
8 1/2-x,1/2+y,1/2-z
_cell_length_a                   30.608(3)
_cell_length_b                   16.8606(16)
_cell_length_c                   22.005(2)
_cell_angle_alpha                90
_cell_angle_beta                 105.517(2)
_cell_angle_gamma                90
_cell_volume                     10942.2
_exptl_crystal_colour            colorless
_exptl_crystal_description       needle
_cell_formula_units_Z            8
loop_
_atom_site_label
_atom_site_type_symbol
_atom_site_fract_x
_atom_site_fract_y
_atom_site_fract_z
O9 O 0.37959(7) 0.74337(14) -0.04998(10)
H8 H 0.3993(16) 0.771(3) -0.066(2)
C53 C 0.40501(10) 0.6974(2) 0.00303(15)
H52 H 0.4299(12) 0.662(2) -0.0112(18)
H53 H 0.4240(12) 0.737(2) 0.0379(19)
C54 C 0.37323(11) 0.6483(2) 0.02872(17)
H54 H 0.3510(12) 0.683(2) 0.0395(16)
H55 H 0.3605(12) 0.612(2) -0.0093(19)
H56 H 0.3917(12) 0.617(2) 0.0710(19)
O10 O 0.72285(6) 0.88185(13) 0.76461(9)
H9 H 0.6971(15) 0.872(3) 0.774(2)
C55 C 0.72061(9) 0.9357(2) 0.71285(13)
H57 H 0.7505(11) 0.9344(19) 0.7062(14)
H58 H 0.7169(10) 0.991(2) 0.7270(14)
C56 C 0.68247(10) 0.9154(3) 0.65585(15)
H59 H 0.6836(10) 0.9435(19) 0.6221(16)
H60 H 0.6539(12) 0.927(2) 0.6652(16)
H61 H 0.6848(12) 0.860(2) 0.6453(17)
O11 O 0.32431(11) 0.6573(2) -0.14656(15)
C57 C 0.3561(4) 0.5962(4) -0.1624(3)
H62 H 0.3861 0.6039 -0.1319
H63 H 0.3451 0.5434 -0.1534
C59 C 0.3629(5) 0.5921(7) -0.2156(7)
H64 H 0.3833 0.5476 -0.2167
H65 H 0.3767 0.6415 -0.2246
H66 H 0.3339 0.5838 -0.2473
H68 H 0.3429(15) 0.693(3) -0.119(2)
O12 O 0.76342(7) 0.78385(18) 0.25070(11)
H10 H 0.7856(15) 0.803(3) 0.282(2)
H11 H 0.7675(15) 0.736(3) 0.245(2)
C33 C 0.81486(8) 0.93678(19) 0.62531(12)
H36 H 0.8370(10) 0.9840(19) 0.6449(15)
C34 C 0.78289(8) 0.94247(19) 0.56725(12)
H37 H 0.7799(9) 0.9901(19) 0.5443(14)
C35 C 0.75485(8) 0.87724(17) 0.54519(12)
C36 C 0.75850(8) 0.81144(19) 0.58414(12)
H38 H 0.7415(11) 0.764(2) 0.5780(15)
C37 C 0.79166(8) 0.81069(19) 0.64151(13)
H39 H 0.7945(9) 0.7627(17) 0.6702(13)
C38 C 0.72303(8) 0.87929(17) 0.48114(12)
C39 C 0.73658(9) 0.91188(18) 0.43050(12)
H40 H 0.7658(10) 0.9349(18) 0.4341(13)
C40 C 0.70695(9) 0.91101(18) 0.37062(13)
H41 H 0.7169(9) 0.9333(17) 0.3328(13)
C41 C 0.65173(8) 0.84938(18) 0.40734(12)
H42 H 0.6205(10) 0.8315(18) 0.3958(14)
C42 C 0.67927(8) 0.84762(18) 0.46866(12)
H43 H 0.6680(9) 0.8235(17) 0.5014(13)
N1 N 0.82023(7) 0.87224(15) 0.66167(10)
N2 N 0.66499(7) 0.87938(15) 0.35840(10)
C43 C 0.61364(9) 0.9278(2) 0.79406(14)
H44 H 0.6202(10) 0.979(2) 0.7816(14)
C44 C 0.57633(9) 0.9188(2) 0.81794(13)
H45 H 0.5573(9) 0.9658(19) 0.8202(13)
C45 C 0.56749(8) 0.84469(19) 0.83918(13)
C46 C 0.59608(9) 0.7821(2) 0.83436(15)
H46 H 0.5914(11) 0.734(2) 0.8455(16)
C47 C 0.63218(9) 0.7965(2) 0.80873(14)
H47 H 0.6532(10) 0.7532(18) 0.8053(14)
C48 C 0.52840(9) 0.83192(19) 0.86643(13)
C49 C 0.48674(9) 0.8663(2) 0.83937(14)
H48 H 0.4822(11) 0.909(2) 0.8013(17)
C50 C 0.45064(10) 0.8510(2) 0.86467(15)
H49 H 0.4228(13) 0.873(2) 0.8411(18)
C51 C 0.49500(10) 0.7757(2) 0.94372(16)
H50 H 0.4978(11) 0.746(2) 0.9827(17)
C52 C 0.53261(10) 0.7871(2) 0.92108(15)
H51 H 0.5645(12) 0.765(2) 0.9419(17)
N3 N 0.64140(7) 0.86803(17) 0.78903(11)
N4 N 0.45354(8) 0.80612(18) 0.91521(13)
C58 C 0.5000 0.4055(8) 0.2500
O13 O 0.4683(3) 0.4275(5) 0.1983(3)
O13F O 0.5317(3) 0.4275(5) 0.3017(3)
O1 O 0.71621(5) 0.61588(12) 0.12076(8)
O2 O 0.60519(6) 0.62210(12) 0.23875(8)
H1 H 0.6278(12) 0.622(2) 0.2642(18)
O3 O 0.45809(6) 0.60819(12) 0.18627(9)
H2 H 0.4399(12) 0.616(2) 0.2128(18)
O4 O 0.46026(6) 0.89480(12) 0.18733(9)
H3 H 0.4433(14) 0.891(2) 0.213(2)
O5 O 0.60220(6) 0.86867(12) 0.24782(8)
H4 H 0.6242(12) 0.875(2) 0.2811(18)
O6 O 0.72236(5) 0.86313(12) 0.14519(8)
H5 H 0.7366(11) 0.835(2) 0.1892(17)
O7 O 0.72187(6) 0.90508(12) -0.05201(8)
H6 H 0.7449(11) 0.894(2) -0.0754(16)
O8 O 0.70595(6) 0.62249(12) -0.08200(8)
H7 H 0.7289(13) 0.630(2) -0.1002(19)
C1 C 0.67138(7) 0.61639(16) 0.12216(11)
C2 C 0.66080(8) 0.62178(17) 0.17929(12)
H12 H 0.6844(9) 0.6317(17) 0.2176(14)
C3 C 0.61592(8) 0.61760(17) 0.18223(11)
C4 C 0.58075(7) 0.60625(16) 0.12697(11)
C5 C 0.59266(8) 0.60429(16) 0.06979(12)
H13 H 0.5701(9) 0.5961(17) 0.0333(14)
C6 C 0.63742(8) 0.60941(16) 0.06478(11)
C7 C 0.53211(8) 0.59805(17) 0.13205(12)
H14 H 0.5334(9) 0.5596(17) 0.1718(13)
C8 C 0.50077(8) 0.5555(2) 0.07506(13)
H15 H 0.4958(9) 0.5849(17) 0.0399(14)
H16 H 0.5116(9) 0.498(2) 0.0691(13)
H17 H 0.4714(9) 0.5466(17) 0.0864(13)
C9 C 0.51220(7) 0.67739(17) 0.14495(11)
C10 C 0.47557(7) 0.67939(17) 0.17227(11)
C11 C 0.45752(8) 0.75121(18) 0.18555(11)
H18 H 0.4332(10) 0.7545(17) 0.2083(14)
C12 C 0.47655(8) 0.82265(17) 0.17335(11)
C13 C 0.51362(7) 0.82405(17) 0.14683(11)
C14 C 0.53009(8) 0.75048(17) 0.13302(11)
H19 H 0.5583(10) 0.7481(17) 0.1186(14)
C15 C 0.53431(8) 0.90294(17) 0.13548(12)
H20 H 0.5332(9) 0.9429(18) 0.1717(14)
C16 C 0.50544(9) 0.9422(2) 0.07472(13)
H21 H 0.5039(9) 0.9128(19) 0.0380(15)
H22 H 0.4734(10) 0.9484(18) 0.0765(14)
H23 H 0.5182(11) 0.999(2) 0.0685(15)
C17 C 0.58459(7) 0.89519(16) 0.13726(11)
C18 C 0.61656(8) 0.87579(17) 0.19374(11)
C19 C 0.66216(8) 0.86380(17) 0.19685(11)
H24 H 0.6843(8) 0.8463(16) 0.2378(12)
C20 C 0.67700(7) 0.87404(16) 0.14238(11)
C21 C 0.64696(8) 0.89700(16) 0.08535(11)
C22 C 0.60113(8) 0.90561(17) 0.08451(12)
H25 H 0.5794(10) 0.9203(19) 0.0460(16)
C23 C 0.66399(8) 0.91035(17) 0.02720(11)
H26 H 0.6923(10) 0.9386(19) 0.0429(14)
C24 C 0.63159(9) 0.96157(19) -0.02309(13)
H27 H 0.6002(10) 0.9318(19) -0.0448(14)
H28 H 0.6241(9) 1.0120(19) -0.0054(14)
H29 H 0.6427(9) 0.9748(18) -0.0587(14)
C25 C 0.67499(7) 0.83286(17) -0.00103(11)
C26 C 0.70387(8) 0.83319(17) -0.04138(11)
C27 C 0.71380(8) 0.76389(17) -0.06833(11)
H30 H 0.7345(9) 0.7644(17) -0.0968(13)
C28 C 0.69612(7) 0.69208(17) -0.05512(11)
C29 C 0.66815(7) 0.68810(16) -0.01363(11)
C30 C 0.65827(8) 0.75937(17) 0.01157(11)
H31 H 0.6402(9) 0.7593(16) 0.0423(13)
C31 C 0.64979(8) 0.60839(17) 0.00206(11)
H32 H 0.6741(8) 0.5689(16) 0.0067(11)
C32 C 0.61070(9) 0.5805(2) -0.05360(13)
H33 H 0.5846(10) 0.6159(18) -0.0648(13)
H34 H 0.6206(10) 0.5793(19) -0.0953(15)
H35 H 0.5987(9) 0.5302(19) -0.0456(13)
H67 H 0.7359(15) 0.619(3) 0.164(2)
C60? C 0.4683(3) 0.4275(5) 0.1983(3)
loop_
_geom_bond_atom_site_label_1
_geom_bond_atom_site_label_2
_geom_bond_site_symmetry_1
_geom_bond_site_symmetry_2
O1 C1 1_555 1_555
O2 H1 1_555 1_555
O3 H2 1_555 1_555
O4 H3 1_555 1_555
O5 H4 1_555 1_555
O6 H5 1_555 1_555
O7 H6 1_555 1_555
O8 H7 1_555 1_555
O9 H8 1_555 1_555
O10 H9 1_555 1_555
O11 C57 1_555 1_555
O12 H10 1_555 1_555
H11 O12 1_555 1_555
C1 C2 1_555 1_555
C2 H12 1_555 1_555
C3 O2 1_555 1_555
C4 C3 1_555 1_555
C5 C4 1_555 1_555
H13 C5 1_555 1_555
C6 C1 1_555 1_555
C7 C4 1_555 1_555
H14 C7 1_555 1_555
C8 C7 1_555 1_555
H15 C8 1_555 1_555
H16 C8 1_555 1_555
H17 C8 1_555 1_555
C9 C7 1_555 1_555
C10 O3 1_555 1_555
C11 C10 1_555 1_555
H18 C11 1_555 1_555
C12 O4 1_555 1_555
C13 C12 1_555 1_555
C14 C9 1_555 1_555
H19 C14 1_555 1_555
C15 C13 1_555 1_555
H20 C15 1_555 1_555
C16 C15 1_555 1_555
H21 C16 1_555 1_555
H22 C16 1_555 1_555
H23 C16 1_555 1_555
C17 C15 1_555 1_555
C18 O5 1_555 1_555
C19 C18 1_555 1_555
H24 C19 1_555 1_555
C20 O6 1_555 1_555
C21 C20 1_555 1_555
C22 C17 1_555 1_555
H25 C22 1_555 1_555
C23 C21 1_555 1_555
H26 C23 1_555 1_555
C24 C23 1_555 1_555
H27 C24 1_555 1_555
H28 C24 1_555 1_555
H29 C24 1_555 1_555
C25 C23 1_555 1_555
C26 O7 1_555 1_555
C27 C26 1_555 1_555
H30 C27 1_555 1_555
C28 O8 1_555 1_555
C29 C28 1_555 1_555
C30 C25 1_555 1_555
H31 C30 1_555 1_555
C31 C6 1_555 1_555
H32 C31 1_555 1_555
C32 C31 1_555 1_555
H33 C32 1_555 1_555
H34 C32 1_555 1_555
H35 C32 1_555 1_555
C33 H36 1_555 1_555
C34 C33 1_555 1_555
H37 C34 1_555 1_555
C35 C34 1_555 1_555
C36 C35 1_555 1_555
H38 C36 1_555 1_555
C37 C36 1_555 1_555
H39 C37 1_555 1_555
C38 C35 1_555 1_555
C39 C38 1_555 1_555
H40 C39 1_555 1_555
C40 C39 1_555 1_555
H41 C40 1_555 1_555
C41 H42 1_555 1_555
C42 C38 1_555 1_555
H43 C42 1_555 1_555
C43 H44 1_555 1_555
C44 C43 1_555 1_555
H45 C44 1_555 1_555
C45 C44 1_555 1_555
C46 C45 1_555 1_555
H46 C46 1_555 1_555
C47 C46 1_555 1_555
H47 C47 1_555 1_555
C48 C45 1_555 1_555
C49 C48 1_555 1_555
H48 C49 1_555 1_555
C50 C49 1_555 1_555
H49 C50 1_555 1_555
C51 H50 1_555 1_555
C52 C48 1_555 1_555
H51 C52 1_555 1_555
C53 O9 1_555 1_555
H52 C53 1_555 1_555
H53 C53 1_555 1_555
C54 C53 1_555 1_555
H54 C54 1_555 1_555
H55 C54 1_555 1_555
H56 C54 1_555 1_555
C55 O10 1_555 1_555
H57 C55 1_555 1_555
H58 C55 1_555 1_555
C56 C55 1_555 1_555
H59 C56 1_555 1_555
H60 C56 1_555 1_555
H61 C56 1_555 1_555
C57 H62 1_555 1_555
H63 C57 1_555 1_555
C58 O13 1_555 1_555
C59 C57 1_555 1_555
H64 C59 1_555 1_555
H65 C59 1_555 1_555
H66 C59 1_555 1_555
N1 C33 1_555 1_555
N2 C40 1_555 1_555
N3 C43 1_555 1_555
N4 C50 1_555 1_555
H67 O1 1_555 1_555
H68 O11 1_555 1_555
O13F C58 1_555 1_555
C2 C3 1_555 1_555
C5 C6 1_555 1_555
C9 C10 1_555 1_555
C11 C12 1_555 1_555
C13 C14 1_555 1_555
C17 C18 1_555 1_555
C19 C20 1_555 1_555
C21 C22 1_555 1_555
C25 C26 1_555 1_555
C27 C28 1_555 1_555
C29 C31 1_555 1_555
C29 C30 1_555 1_555
C37 N1 1_555 1_555
C41 N2 1_555 1_555
C41 C42 1_555 1_555
C47 N3 1_555 1_555
C51 N4 1_555 1_555
C51 C52 1_555 1_555

#END
