
#######################################################################
#
#                 Cambridge Crystallographic Data Centre
#                                CCDC 
#
#######################################################################
#
# If this CIF has been generated from an entry in the Cambridge 
# Structural Database, then it will include bibliographic, chemical, 
# crystal, experimental, refinement or atomic coordinate data resulting 
# from the CCDC's data processing and validation procedures.
#
#######################################################################

data_MEXNAG
_chemical_formula_moiety         'C33 H30 O5'
_chemical_name_systematic        
'4-(4-(4-(Benzoyloxy)-3-methoxyphenyl)hex-3-en-3-yl)phenyl benzoate'
_symmetry_cell_setting           monoclinic
_symmetry_space_group_name_H-M   'P 21/n'
_symmetry_Int_Tables_number      14
_space_group_name_Hall           '-P 2yn'
loop_
_symmetry_equiv_pos_site_id
_symmetry_equiv_pos_as_xyz
1 x,y,z
2 1/2-x,1/2+y,1/2-z
3 -x,-y,-z
4 1/2+x,1/2-y,1/2+z
_cell_length_a                   9.722(4)
_cell_length_b                   14.962(5)
_cell_length_c                   19.088(7)
_cell_angle_alpha                90
_cell_angle_beta                 96.195(5)
_cell_angle_gamma                90
_cell_volume                     2760.34
_exptl_crystal_colour            colorless
_exptl_crystal_description       block
_cell_formula_units_Z            4
loop_
_atom_site_label
_atom_site_type_symbol
_atom_site_fract_x
_atom_site_fract_y
_atom_site_fract_z
C1 C -0.57500(19) 0.99963(12) 0.08097(10)
H1 H -0.4835 1.0156 0.0775
C2 C -0.6797(2) 1.06204(13) 0.06633(11)
H2 H -0.6585 1.1199 0.0533
C3 C -0.8140(2) 1.03831(16) 0.07114(12)
H3 H -0.8842 1.0802 0.0612
C4 C -0.8462(2) 0.95324(15) 0.09045(13)
H4 H -0.9380 0.9372 0.0928
C5 C -0.7424(2) 0.89155(13) 0.10638(11)
H5 H -0.7640 0.8345 0.1211
C6 C -0.60638(17) 0.91408(11) 0.10060(9)
C7 C -0.49882(19) 0.84498(11) 0.11701(10)
C8 C -0.26472(18) 0.80702(11) 0.10810(10)
C9 C -0.26291(19) 0.73103(12) 0.06780(10)
H6 H -0.3349 0.7187 0.0330
C10 C -0.15125(19) 0.67300(12) 0.08018(10)
H7 H -0.1484 0.6218 0.0528
C11 C -0.04422(17) 0.68977(11) 0.13241(9)
C12 C -0.04964(18) 0.76744(11) 0.17153(9)
H8 H 0.0215 0.7802 0.2067
C13 C -0.15984(19) 0.82657(11) 0.15900(9)
H9 H -0.1619 0.8789 0.1851
C14 C -0.0576(2) 0.52021(16) 0.22523(12)
H10 H -0.0546 0.4953 0.2717
H11 H -0.0564 0.4728 0.1914
H12 H -0.1406 0.5547 0.2152
C15 C 0.0679(2) 0.58034(13) 0.22106(10)
H13 H 0.0674 0.6270 0.2563
H14 H 0.1513 0.5453 0.2321
C16 C 0.07168(18) 0.62339(11) 0.14906(9)
C17 C 0.16400(18) 0.60637(11) 0.10372(9)
C18 C 0.1670(2) 0.65587(12) 0.03508(10)
H15 H 0.2571 0.6835 0.0344
H16 H 0.0986 0.7033 0.0327
C19 C 0.1384(2) 0.59669(14) -0.02981(11)
H17 H 0.1422 0.6321 -0.0715
H18 H 0.0482 0.5704 -0.0304
H19 H 0.2068 0.5503 -0.0284
C20 C 0.27608(18) 0.53695(11) 0.11738(10)
C21 C 0.24424(18) 0.44892(11) 0.13356(10)
H20 H 0.1524 0.4333 0.1363
C22 C 0.34572(19) 0.38420(12) 0.14565(10)
C23 C 0.48198(18) 0.40780(12) 0.14020(10)
C24 C 0.51562(19) 0.49356(12) 0.12380(11)
H21 H 0.6075 0.5086 0.1204
C25 C 0.41310(19) 0.55807(12) 0.11217(11)
H22 H 0.4368 0.6161 0.1008
C26 C 0.1874(2) 0.27114(16) 0.17350(17)
H23 H 0.1865 0.2089 0.1857
H24 H 0.1274 0.2809 0.1308
H25 H 0.1557 0.3059 0.2109
C27 C 0.60256(17) 0.27941(12) 0.10794(10)
C28 C 0.71163(16) 0.21420(11) 0.13347(9)
C29 C 0.79097(18) 0.22193(12) 0.19746(10)
H26 H 0.7796 0.2712 0.2260
C30 C 0.8872(2) 0.15732(13) 0.21971(10)
H27 H 0.9406 0.1634 0.2629
C31 C 0.9040(2) 0.08461(13) 0.17837(11)
H28 H 0.9674 0.0405 0.1939
C32 C 0.8280(2) 0.07638(13) 0.11414(12)
H29 H 0.8410 0.0272 0.0858
C33 C 0.73207(19) 0.14085(12) 0.09126(10)
H30 H 0.6809 0.1352 0.0474
O1 O -0.51724(15) 0.77536(9) 0.14553(8)
O2 O -0.37579(12) 0.86857(8) 0.09593(7)
O3 O 0.32376(14) 0.29716(8) 0.16331(9)
O4 O 0.58892(12) 0.34493(8) 0.15633(7)
O5 O 0.53470(14) 0.27651(9) 0.05174(7)
loop_
_geom_bond_atom_site_label_1
_geom_bond_atom_site_label_2
_geom_bond_site_symmetry_1
_geom_bond_site_symmetry_2
C1 H1 1_555 1_555
C2 C1 1_555 1_555
H2 C2 1_555 1_555
C3 C2 1_555 1_555
H3 C3 1_555 1_555
C4 C3 1_555 1_555
H4 C4 1_555 1_555
C5 C4 1_555 1_555
H5 C5 1_555 1_555
C6 C1 1_555 1_555
C7 C6 1_555 1_555
C8 C9 1_555 1_555
C9 H6 1_555 1_555
C10 C9 1_555 1_555
H7 C10 1_555 1_555
C11 C10 1_555 1_555
C12 C11 1_555 1_555
H8 C12 1_555 1_555
C13 C8 1_555 1_555
H9 C13 1_555 1_555
C14 H10 1_555 1_555
H11 C14 1_555 1_555
H12 C14 1_555 1_555
C15 C14 1_555 1_555
H13 C15 1_555 1_555
H14 C15 1_555 1_555
C16 C11 1_555 1_555
C17 C16 1_555 1_555
C18 C17 1_555 1_555
H15 C18 1_555 1_555
H16 C18 1_555 1_555
C19 C18 1_555 1_555
H17 C19 1_555 1_555
H18 C19 1_555 1_555
H19 C19 1_555 1_555
C20 C17 1_555 1_555
C21 C20 1_555 1_555
H20 C21 1_555 1_555
C22 C21 1_555 1_555
C23 C22 1_555 1_555
C24 C23 1_555 1_555
H21 C24 1_555 1_555
C25 C20 1_555 1_555
H22 C25 1_555 1_555
C26 H23 1_555 1_555
H24 C26 1_555 1_555
H25 C26 1_555 1_555
C27 C28 1_555 1_555
C28 C29 1_555 1_555
C29 H26 1_555 1_555
C30 C29 1_555 1_555
H27 C30 1_555 1_555
C31 C30 1_555 1_555
H28 C31 1_555 1_555
C32 C31 1_555 1_555
H29 C32 1_555 1_555
C33 C28 1_555 1_555
H30 C33 1_555 1_555
O1 C7 1_555 1_555
O2 C7 1_555 1_555
O3 C22 1_555 1_555
O4 C23 1_555 1_555
O5 C27 1_555 1_555
C5 C6 1_555 1_555
C8 O2 1_555 1_555
C12 C13 1_555 1_555
C15 C16 1_555 1_555
C24 C25 1_555 1_555
C26 O3 1_555 1_555
C27 O4 1_555 1_555
C32 C33 1_555 1_555

#END
