
#######################################################################
#
#                 Cambridge Crystallographic Data Centre
#                                CCDC 
#
#######################################################################
#
# If this CIF has been generated from an entry in the Cambridge 
# Structural Database, then it will include bibliographic, chemical, 
# crystal, experimental, refinement or atomic coordinate data resulting 
# from the CCDC's data processing and validation procedures.
#
#######################################################################

data_MEXNOV
_chemical_formula_moiety         'C20 H16 N2 O4'
_chemical_name_systematic        
4-ethyl-4-hydroxy-1H-pyrano[3',4':6,7]indolizino[1,2-b]quinoline-3,14(4H,12H)-dione
_symmetry_cell_setting           monoclinic
_symmetry_space_group_name_H-M   'P 21'
_symmetry_Int_Tables_number      4
_space_group_name_Hall           'P 2yb'
loop_
_symmetry_equiv_pos_site_id
_symmetry_equiv_pos_as_xyz
1 x,y,z
2 -x,1/2+y,-z
_cell_length_a                   8.0094(5)
_cell_length_b                   6.7689(3)
_cell_length_c                   29.577(2)
_cell_angle_alpha                90
_cell_angle_beta                 95.809(6)
_cell_angle_gamma                90
_cell_volume                     1595.28
_exptl_crystal_colour            'light yellow'
_exptl_crystal_description       needle
_cell_formula_units_Z            4
loop_
_atom_site_label
_atom_site_type_symbol
_atom_site_fract_x
_atom_site_fract_y
_atom_site_fract_z
N1 N -0.0325(5) 0.4660(6) 0.23580(13)
O1 O 0.3506(5) -0.1684(5) 0.32979(12)
N2 N 0.2024(5) 0.0847(5) 0.29496(13)
C1 C -0.1049(6) 0.4640(7) 0.19204(16)
C2 C 0.1358(6) 0.2713(6) 0.29446(15)
C3 C 0.0467(6) 0.3025(7) 0.24926(16)
C4 C 0.3204(6) 0.1326(7) 0.37061(16)
C5 C -0.1939(7) 0.6353(8) 0.17519(17)
H1 H -0.2029 0.7435 0.1942
C6 C -0.0996(6) 0.2981(8) 0.16277(17)
O2 O 0.5247(5) 0.2263(6) 0.43384(12)
C7 C 0.2960(6) 0.0031(7) 0.33232(16)
C8 C 0.0619(6) 0.1291(7) 0.22312(16)
O3 O 0.2495(5) 0.6425(5) 0.40474(12)
H2 H 0.3071 0.6834 0.3854
C9 C -0.0086(6) 0.1272(7) 0.17966(16)
H3 H 0.0018 0.0176 0.1612
C10 C 0.2527(6) 0.3187(7) 0.37031(16)
C11 C -0.2603(7) 0.4798(10) 0.10330(18)
H4 H -0.3126 0.4862 0.0738
C12 C -0.1794(6) 0.3104(9) 0.11811(17)
H5 H -0.1770 0.2028 0.0986
C13 C 0.1631(7) -0.0208(7) 0.25146(15)
H6 H 0.0984 -0.1395 0.2555
H7 H 0.2646 -0.0557 0.2380
C14 C 0.1587(6) 0.3917(7) 0.33114(15)
H8 H 0.1137 0.5184 0.3304
C15 C 0.4662(7) 0.4127(8) 0.43145(19)
C16 C 0.2829(7) 0.4418(7) 0.41269(16)
O4 O 0.5591(6) 0.5453(7) 0.44316(19)
C17 C 0.4281(7) 0.0652(7) 0.41236(19)
H9 H 0.3573 0.0091 0.4338
H10 H 0.5039 -0.0373 0.4040
C18 C 0.1671(8) 0.3769(10) 0.44853(17)
H11 H 0.0516 0.4001 0.4365
H12 H 0.1806 0.2359 0.4535
C19 C -0.2655(7) 0.6420(9) 0.13166(18)
H13 H -0.3187 0.7571 0.1207
C20 C 0.1983(13) 0.4798(17) 0.4934(2)
H14 H 0.1887 0.6200 0.4889
H15 H 0.3091 0.4486 0.5070
H16 H 0.1171 0.4369 0.5130
C21 C 0.6776(6) 1.0495(7) 0.83776(16)
O5 O 0.7326(5) 1.2176(5) 0.83315(11)
C22 C 0.5281(6) 0.7618(6) 0.80417(14)
N3 N 0.5932(5) 0.9503(5) 0.80164(12)
C23 C 0.6924(6) 0.9371(6) 0.87931(15)
N4 N 0.3623(5) 0.5509(6) 0.74856(12)
C24 C 0.6307(5) 0.7495(6) 0.88193(14)
C25 C 0.4406(6) 0.7161(7) 0.75967(15)
C26 C 0.2856(6) 0.7025(8) 0.67425(15)
O6 O 0.7023(5) 0.9753(5) 0.96206(10)
C27 C 0.5510(6) 1.0440(7) 0.75692(15)
H17 H 0.6511 1.0764 0.7426
H18 H 0.4847 1.1626 0.7594
C28 C 0.5490(6) 0.6563(6) 0.84340(13)
H19 H 0.5105 0.5270 0.8447
C29 C 0.2848(6) 0.5429(7) 0.70522(15)
C30 C 0.6552(6) 0.6468(6) 0.92751(14)
O7 O 0.5380(4) 0.4948(5) 0.92857(10)
H20 H 0.5304 0.4625 0.9550
C31 C 0.4504(6) 0.8836(7) 0.73125(16)
O8 O 0.5583(5) 0.7590(5) 0.99745(12)
C32 C 0.3750(7) 0.8776(7) 0.68805(16)
H21 H 0.3815 0.9836 0.6683
C33 C 0.2005(7) 0.6808(9) 0.63060(17)
H22 H 0.1996 0.7848 0.6100
C34 C 0.1988(7) 0.3676(8) 0.69093(16)
H23 H 0.1954 0.2621 0.7110
C35 C 0.8763(7) 0.4715(8) 0.98215(16)
H24 H 0.9847 0.4101 0.9835
H25 H 0.7930 0.3735 0.9867
H26 H 0.8767 0.5704 1.0054
C36 C 0.7678(7) 1.0402(7) 0.92075(16)
H27 H 0.8882 1.0192 0.9237
H28 H 0.7480 1.1810 0.9171
C37 C 0.8359(6) 0.5671(7) 0.93602(16)
H29 H 0.8536 0.4709 0.9127
H30 H 0.9135 0.6753 0.9331
C38 C 0.1213(7) 0.3530(9) 0.64804(17)
H31 H 0.0684 0.2356 0.6386
C39 C 0.1200(7) 0.5110(10) 0.61814(18)
H32 H 0.0632 0.5000 0.5892
C40 C 0.6320(6) 0.7988(7) 0.96485(16)
loop_
_geom_bond_atom_site_label_1
_geom_bond_atom_site_label_2
_geom_bond_site_symmetry_1
_geom_bond_site_symmetry_2
N1 C1 1_555 1_555
O1 C7 1_555 1_555
N2 C2 1_555 1_555
C1 C5 1_555 1_555
C2 C3 1_555 1_555
C3 N1 1_555 1_555
C4 C7 1_555 1_555
C5 H1 1_555 1_555
C6 C1 1_555 1_555
O2 C15 1_555 1_555
C7 N2 1_555 1_555
C8 C3 1_555 1_555
O3 H2 1_555 1_555
C9 C6 1_555 1_555
H3 C9 1_555 1_555
C10 C4 1_555 1_555
C11 H4 1_555 1_555
C12 C6 1_555 1_555
H5 C12 1_555 1_555
C13 N2 1_555 1_555
H6 C13 1_555 1_555
H7 C13 1_555 1_555
C14 C2 1_555 1_555
H8 C14 1_555 1_555
C15 C16 1_555 1_555
C16 O3 1_555 1_555
O4 C15 1_555 1_555
C17 C4 1_555 1_555
H9 C17 1_555 1_555
H10 C17 1_555 1_555
C18 C16 1_555 1_555
H11 C18 1_555 1_555
H12 C18 1_555 1_555
C19 C5 1_555 1_555
H13 C19 1_555 1_555
C20 C18 1_555 1_555
H14 C20 1_555 1_555
H15 C20 1_555 1_555
H16 C20 1_555 1_555
C21 O5 1_555 1_555
C22 N3 1_555 1_555
N3 C21 1_555 1_555
C23 C21 1_555 1_555
N4 C25 1_555 1_555
C24 C23 1_555 1_555
C25 C22 1_555 1_555
C26 C29 1_555 1_555
O6 C36 1_555 1_555
C27 N3 1_555 1_555
H17 C27 1_555 1_555
H18 C27 1_555 1_555
C28 C22 1_555 1_555
H19 C28 1_555 1_555
C29 N4 1_555 1_555
C30 C24 1_555 1_555
O7 C30 1_555 1_555
H20 O7 1_555 1_555
C31 C25 1_555 1_555
O8 C40 1_555 1_555
C32 C26 1_555 1_555
H21 C32 1_555 1_555
C33 C26 1_555 1_555
H22 C33 1_555 1_555
C34 C29 1_555 1_555
H23 C34 1_555 1_555
C35 H24 1_555 1_555
H25 C35 1_555 1_555
H26 C35 1_555 1_555
C36 C23 1_555 1_555
H27 C36 1_555 1_555
H28 C36 1_555 1_555
C37 C30 1_555 1_555
H29 C37 1_555 1_555
H30 C37 1_555 1_555
C38 C34 1_555 1_555
H31 C38 1_555 1_555
C39 C33 1_555 1_555
H32 C39 1_555 1_555
C40 O6 1_555 1_555
O2 C17 1_555 1_555
C8 C9 1_555 1_555
C8 C13 1_555 1_555
C10 C14 1_555 1_555
C10 C16 1_555 1_555
C11 C12 1_555 1_555
C11 C19 1_555 1_555
C24 C28 1_555 1_555
C27 C31 1_555 1_555
C30 C40 1_555 1_555
C31 C32 1_555 1_555
C35 C37 1_555 1_555
C38 C39 1_555 1_555

#END
