
#######################################################################
#
#                 Cambridge Crystallographic Data Centre
#                                CCDC 
#
#######################################################################
#
# If this CIF has been generated from an entry in the Cambridge 
# Structural Database, then it will include bibliographic, chemical, 
# crystal, experimental, refinement or atomic coordinate data resulting 
# from the CCDC's data processing and validation procedures.
#
#######################################################################

data_MEXPUC
_chemical_compound_source        'Fusarium oxysporum SC1301'
_chemical_name_common            Testololactone
_chemical_formula_moiety         'C19 H26 O3'
_chemical_name_systematic        3-Oxo-13,17-secoandrost-4-ene-17,13\a-lactone
_chemical_properties_biological  'antineoplastic agent'
_symmetry_cell_setting           monoclinic
_symmetry_space_group_name_H-M   'P 21'
_symmetry_Int_Tables_number      4
_space_group_name_Hall           'P 2yb'
loop_
_symmetry_equiv_pos_site_id
_symmetry_equiv_pos_as_xyz
1 x,y,z
2 -x,1/2+y,-z
_cell_length_a                   10.171(5)
_cell_length_b                   12.377(8)
_cell_length_c                   12.640(8)
_cell_angle_alpha                90
_cell_angle_beta                 90.115(17)
_cell_angle_gamma                90
_cell_volume                     1591.2
_exptl_crystal_colour            colorless
_cell_formula_units_Z            4
loop_
_atom_site_label
_atom_site_type_symbol
_atom_site_fract_x
_atom_site_fract_y
_atom_site_fract_z
O1 O -0.08755(13) -0.01481(13) 0.54790(10)
O2 O 0.30230(14) 0.07076(11) 1.41552(10)
O3 O 0.29487(13) 0.10150(11) 1.24352(9)
C1 C 0.13133(18) 0.10645(17) 0.74000(13)
H1 H 0.1735 0.0355 0.7522
C2 C 0.06502(18) 0.10498(18) 0.63116(13)
C3 C -0.0523(2) 0.03067(17) 0.62941(15)
C4 C -0.12358(19) 0.01916(16) 0.72832(13)
H2 H -0.2012 -0.0236 0.7278
C5 C -0.08775(18) 0.06433(15) 0.81980(14)
C6 C -0.17318(19) 0.05552(17) 0.91696(13)
H3 H -0.2449 0.0034 0.9029
H4 H -0.2137 0.1267 0.9314
C7 C -0.09723(18) 0.01915(17) 1.01433(14)
H5 H -0.0640 -0.0552 1.0033
H6 H -0.1565 0.0184 1.0763
C8 C 0.01866(18) 0.09548(15) 1.03584(13)
H7 H -0.0169 0.1698 1.0479
C9 C 0.10921(18) 0.09876(16) 0.93798(13)
H8 H 0.1415 0.0232 0.9277
C10 C 0.03735(18) 0.13032(15) 0.83293(13)
C11 C 0.23143(18) 0.16773(17) 0.95801(13)
H9 H 0.2050 0.2445 0.9638
H10 H 0.2915 0.1611 0.8968
C12 C 0.30493(18) 0.13468(18) 1.05885(13)
H11 H 0.3401 0.0606 1.0507
H12 H 0.3799 0.1843 1.0709
C13 C 0.21219(18) 0.13880(16) 1.15318(13)
C14 C 0.09703(18) 0.06130(16) 1.13488(13)
H13 H 0.1347 -0.0119 1.1208
C15 C 0.01605(19) 0.05375(16) 1.23551(13)
H14 H -0.0550 0.0000 1.2258
H15 H -0.0251 0.1246 1.2504
C16 C 0.10270(19) 0.02050(18) 1.32917(14)
H16 H 0.0556 0.0390 1.3952
H17 H 0.1127 -0.0591 1.3276
C17 C 0.2373(2) 0.06969(16) 1.33465(15)
C18 C -0.00180(18) 0.25170(15) 0.83221(14)
H18 H -0.0528 0.2675 0.7682
H19 H 0.0778 0.2963 0.8332
H20 H -0.0551 0.2677 0.8948
C19 C 0.17033(19) 0.25378(16) 1.18022(15)
H21 H 0.1281 0.2545 1.2498
H22 H 0.1082 0.2799 1.1267
H23 H 0.2478 0.3008 1.1815
H24 H 0.0366 0.1791 0.6125
H25 H 0.1293 0.0809 0.5774
H26 H 0.2016 0.1618 0.7396
O4 O 0.58808(13) 0.90602(13) 0.04707(10)
O5 O 0.19771(14) 0.82075(11) 0.91445(10)
O6 O 0.20522(12) 0.78979(11) 0.74280(9)
C20 C 0.36895(17) 0.78498(17) 0.23931(13)
C21 C 0.43528(18) 0.78626(18) 0.13052(13)
C22 C 0.5521(2) 0.86129(17) 0.12901(15)
C23 C 0.62373(19) 0.87254(16) 0.22814(13)
H27 H 0.7016 0.9149 0.2278
C24 C 0.58757(18) 0.82734(15) 0.31978(14)
C25 C 0.67386(18) 0.83632(16) 0.41686(13)
H28 H 0.7451 0.8889 0.4029
H29 H 0.7150 0.7653 0.4312
C26 C 0.59763(18) 0.87204(17) 0.51390(14)
H30 H 0.5644 0.9464 0.5030
H31 H 0.6569 0.8728 0.5761
C27 C 0.48180(18) 0.79612(15) 0.53535(13)
H32 H 0.5172 0.7217 0.5474
C28 C 0.39099(17) 0.79312(16) 0.43744(13)
H33 H 0.3588 0.8687 0.4271
C29 C 0.46262(17) 0.76111(15) 0.33229(13)
C30 C 0.26866(18) 0.72398(17) 0.45722(13)
H34 H 0.2084 0.7307 0.3960
H35 H 0.2951 0.6472 0.4631
C31 C 0.19571(18) 0.75713(18) 0.55784(13)
H36 H 0.1609 0.8313 0.5496
H37 H 0.1205 0.7078 0.5696
C32 C 0.28793(18) 0.75279(16) 0.65240(13)
C33 C 0.40277(18) 0.83007(16) 0.63423(13)
H38 H 0.3651 0.9033 0.6201
C34 C 0.48469(19) 0.83764(16) 0.73497(13)
H39 H 0.5555 0.8916 0.7253
H40 H 0.5260 0.7668 0.7498
C35 C 0.3977(2) 0.87077(18) 0.82864(14)
H41 H 0.4447 0.8519 0.8948
H42 H 0.3881 0.9504 0.8273
C36 C 0.2628(2) 0.82212(16) 0.83362(15)
C37 C 0.50182(18) 0.63989(15) 0.33167(14)
H43 H 0.5530 0.6241 0.2679
H44 H 0.4223 0.5952 0.3322
H45 H 0.5549 0.6238 0.3945
C38 C 0.32912(19) 0.63739(16) 0.67961(15)
H46 H 0.3686 0.6360 0.7504
H47 H 0.3934 0.6119 0.6276
H48 H 0.2518 0.5902 0.6783
H49 H 0.2985 0.7298 0.2387
H50 H 0.4644 0.7122 0.1123
H51 H 0.3708 0.8097 0.0764
H52 H 0.3269 0.8561 0.2514
loop_
_geom_bond_atom_site_label_1
_geom_bond_atom_site_label_2
_geom_bond_site_symmetry_1
_geom_bond_site_symmetry_2
O1 C3 1_555 1_555
O2 C17 1_555 1_555
O3 C13 1_555 1_555
C1 H1 1_555 1_555
C2 C1 1_555 1_555
C3 C2 1_555 1_555
C4 C3 1_555 1_555
H2 C4 1_555 1_555
C5 C4 1_555 1_555
C6 C5 1_555 1_555
H3 C6 1_555 1_555
H4 C6 1_555 1_555
C7 C6 1_555 1_555
H5 C7 1_555 1_555
H6 C7 1_555 1_555
C8 C7 1_555 1_555
H7 C8 1_555 1_555
C9 C8 1_555 1_555
H8 C9 1_555 1_555
C10 C1 1_555 1_555
C11 C9 1_555 1_555
H9 C11 1_555 1_555
H10 C11 1_555 1_555
C12 C11 1_555 1_555
H11 C12 1_555 1_555
H12 C12 1_555 1_555
C13 C12 1_555 1_555
C14 C8 1_555 1_555
H13 C14 1_555 1_555
C15 C14 1_555 1_555
H14 C15 1_555 1_555
H15 C15 1_555 1_555
C16 C15 1_555 1_555
H16 C16 1_555 1_555
H17 C16 1_555 1_555
C17 O3 1_555 1_555
C18 C10 1_555 1_555
H18 C18 1_555 1_555
H19 C18 1_555 1_555
H20 C18 1_555 1_555
C19 C13 1_555 1_555
H21 C19 1_555 1_555
H22 C19 1_555 1_555
H23 C19 1_555 1_555
H24 C2 1_555 1_555
H25 C2 1_555 1_555
H26 C1 1_555 1_555
O4 C22 1_555 1_555
O5 C36 1_555 1_555
O6 C32 1_555 1_555
C20 C21 1_555 1_555
C21 C22 1_555 1_555
C22 C23 1_555 1_555
C23 H27 1_555 1_555
C24 C23 1_555 1_555
C25 C24 1_555 1_555
H28 C25 1_555 1_555
H29 C25 1_555 1_555
C26 C25 1_555 1_555
H30 C26 1_555 1_555
H31 C26 1_555 1_555
C27 C26 1_555 1_555
H32 C27 1_555 1_555
C28 C27 1_555 1_555
H33 C28 1_555 1_555
C29 C20 1_555 1_555
C30 C28 1_555 1_555
H34 C30 1_555 1_555
H35 C30 1_555 1_555
C31 C30 1_555 1_555
H36 C31 1_555 1_555
H37 C31 1_555 1_555
C32 C31 1_555 1_555
C33 C27 1_555 1_555
H38 C33 1_555 1_555
C34 C33 1_555 1_555
H39 C34 1_555 1_555
H40 C34 1_555 1_555
C35 C34 1_555 1_555
H41 C35 1_555 1_555
H42 C35 1_555 1_555
C36 O6 1_555 1_555
C37 C29 1_555 1_555
H43 C37 1_555 1_555
H44 C37 1_555 1_555
H45 C37 1_555 1_555
C38 C32 1_555 1_555
H46 C38 1_555 1_555
H47 C38 1_555 1_555
H48 C38 1_555 1_555
H49 C20 1_555 1_555
H50 C21 1_555 1_555
H51 C21 1_555 1_555
H52 C20 1_555 1_555
C5 C10 1_555 1_555
C9 C10 1_555 1_555
C13 C14 1_555 1_555
C16 C17 1_555 1_555
C24 C29 1_555 1_555
C28 C29 1_555 1_555
C32 C33 1_555 1_555
C35 C36 1_555 1_555

#END
