
#######################################################################
#
#                 Cambridge Crystallographic Data Centre
#                                CCDC 
#
#######################################################################
#
# If this CIF has been generated from an entry in the Cambridge 
# Structural Database, then it will include bibliographic, chemical, 
# crystal, experimental, refinement or atomic coordinate data resulting 
# from the CCDC's data processing and validation procedures.
#
#######################################################################

data_MEXWAN
_chemical_formula_moiety         'C21 H15 N3 O3,C4 H8 O1'
_chemical_name_systematic        
"N,N',N''-Triphenylcyanuric acid tetrahydrofuran solvate"
_symmetry_cell_setting           triclinic
_symmetry_space_group_name_H-M   'P -1'
_symmetry_Int_Tables_number      2
_space_group_name_Hall           '-P 1'
loop_
_symmetry_equiv_pos_site_id
_symmetry_equiv_pos_as_xyz
1 x,y,z
2 -x,-y,-z
_cell_length_a                   11.2424(8)
_cell_length_b                   11.3102(9)
_cell_length_c                   11.4925(9)
_cell_angle_alpha                91.145(2)
_cell_angle_beta                 115.0720(10)
_cell_angle_gamma                119.0930(10)
_cell_volume                     1108.46
_exptl_crystal_colour            'pale yellow'
_chemical_melting_point          278deg.C
_cell_formula_units_Z            2
_exptl_crystal_recrystallization_method toluene/hexane
loop_
_atom_site_label
_atom_site_type_symbol
_atom_site_fract_x
_atom_site_fract_y
_atom_site_fract_z
C1 C 0.51027(18) 0.48101(17) 0.28623(17)
O1 O 0.63190(15) 0.50722(14) 0.29605(16)
N1 N 0.40360(14) 0.35253(13) 0.29065(13)
C2 C 0.25930(17) 0.31528(16) 0.27542(15)
O2 O 0.16828(14) 0.20076(12) 0.27541(14)
N2 N 0.23056(14) 0.42202(13) 0.26457(13)
C3 C 0.32599(17) 0.55260(16) 0.25392(16)
O3 O 0.29162(14) 0.63824(12) 0.23477(14)
N3 N 0.46814(15) 0.57897(13) 0.27223(14)
C4 C 0.43715(17) 0.24331(16) 0.29657(16)
C5 C 0.3662(2) 0.1419(2) 0.1810(2)
H1 H 0.294(3) 0.141(2) 0.098(2)
C6 C 0.3967(3) 0.0371(2) 0.1857(3)
H2 H 0.345(3) -0.038(3) 0.100(3)
C7 C 0.4965(3) 0.0346(2) 0.3047(3)
H3 H 0.520(3) -0.039(3) 0.308(2)
C8 C 0.5684(3) 0.1368(3) 0.4189(3)
H4 H 0.632(3) 0.136(3) 0.500(3)
C9 C 0.5390(2) 0.2434(2) 0.4165(2)
H5 H 0.587(3) 0.318(3) 0.500(2)
C10 C 0.08056(18) 0.38715(16) 0.24779(17)
C11 C 0.0639(2) 0.39418(19) 0.3589(2)
H6 H 0.152(3) 0.424(2) 0.447(2)
C12 C -0.0814(3) 0.3580(2) 0.3406(3)
H7 H -0.092(3) 0.364(3) 0.419(3)
C13 C -0.2043(3) 0.3159(2) 0.2148(3)
H8 H -0.307(4) 0.292(3) 0.199(3)
C14 C -0.1858(2) 0.3088(2) 0.1052(3)
H9 H -0.271(3) 0.281(3) 0.010(3)
C15 C -0.0419(2) 0.3458(2) 0.1211(2)
H10 H -0.027(3) 0.347(3) 0.041(2)
C16 C 0.57984(17) 0.71816(16) 0.27488(16)
C17 C 0.5683(2) 0.7486(2) 0.1572(2)
H11 H 0.485(3) 0.673(2) 0.071(2)
C18 C 0.6760(3) 0.8828(3) 0.1623(3)
H12 H 0.667(3) 0.903(3) 0.075(3)
C19 C 0.7917(3) 0.9819(2) 0.2812(3)
H13 H 0.874(4) 1.078(3) 0.284(3)
C20 C 0.8023(2) 0.9513(2) 0.3974(3)
H14 H 0.888(3) 1.019(3) 0.487(3)
C21 C 0.6958(2) 0.8185(2) 0.3959(2)
H15 H 0.707(3) 0.798(3) 0.480(3)
O4 O 0.83615(18) 0.72034(16) 0.02296(15)
C22 C 0.8128(4) 0.6315(3) 0.1052(3)
H16 H 0.814(4) 0.551(4) 0.063(3)
H17 H 0.710(5) 0.589(4) 0.095(4)
C23 C 0.9455(4) 0.7119(3) 0.2437(3)
H18 H 0.9141 0.7429 0.2982
H19 H 0.9837 0.6545 0.2850
C24 C 1.0654(3) 0.8322(3) 0.2290(3)
H20 H 1.1402 0.8134 0.2275
H21 H 1.1210 0.9158 0.3023
C25 C 0.9795(3) 0.8517(2) 0.0998(2)
H22 H 1.038(4) 0.883(3) 0.050(3)
H23 H 0.951(4) 0.924(3) 0.108(3)
loop_
_geom_bond_atom_site_label_1
_geom_bond_atom_site_label_2
_geom_bond_site_symmetry_1
_geom_bond_site_symmetry_2
C1 O1 1_555 1_555
N1 C1 1_555 1_555
C2 N1 1_555 1_555
O2 C2 1_555 1_555
N2 C2 1_555 1_555
C3 N2 1_555 1_555
O3 C3 1_555 1_555
N3 C1 1_555 1_555
C4 N1 1_555 1_555
C5 C4 1_555 1_555
H1 C5 1_555 1_555
C6 C5 1_555 1_555
H2 C6 1_555 1_555
C7 C6 1_555 1_555
H3 C7 1_555 1_555
C8 C7 1_555 1_555
H4 C8 1_555 1_555
C9 C4 1_555 1_555
H5 C9 1_555 1_555
C10 N2 1_555 1_555
C11 C10 1_555 1_555
H6 C11 1_555 1_555
C12 C11 1_555 1_555
H7 C12 1_555 1_555
C13 C12 1_555 1_555
H8 C13 1_555 1_555
C14 C13 1_555 1_555
H9 C14 1_555 1_555
C15 C10 1_555 1_555
H10 C15 1_555 1_555
C16 N3 1_555 1_555
C17 C16 1_555 1_555
H11 C17 1_555 1_555
C18 C17 1_555 1_555
H12 C18 1_555 1_555
C19 C18 1_555 1_555
H13 C19 1_555 1_555
C20 C19 1_555 1_555
H14 C20 1_555 1_555
C21 C16 1_555 1_555
H15 C21 1_555 1_555
O4 C22 1_555 1_555
C22 H16 1_555 1_555
H17 C22 1_555 1_555
C23 C22 1_555 1_555
H18 C23 1_555 1_555
H19 C23 1_555 1_555
C24 C23 1_555 1_555
H20 C24 1_555 1_555
H21 C24 1_555 1_555
C25 O4 1_555 1_555
H22 C25 1_555 1_555
H23 C25 1_555 1_555
C3 N3 1_555 1_555
C8 C9 1_555 1_555
C14 C15 1_555 1_555
C20 C21 1_555 1_555
C24 C25 1_555 1_555

#END
