
#######################################################################
#
#                 Cambridge Crystallographic Data Centre
#                                CCDC 
#
#######################################################################
#
# If this CIF has been generated from an entry in the Cambridge 
# Structural Database, then it will include bibliographic, chemical, 
# crystal, experimental, refinement or atomic coordinate data resulting 
# from the CCDC's data processing and validation procedures.
#
#######################################################################

data_MEXWAN01
_chemical_formula_moiety         'C21 H15 N3 O3,C4 H8 O1'
_chemical_name_systematic        
'1,3,5-Triphenyl-1,3,5-triazine-2,4,6-(1H,3H,5H)-trione tetrahydrofuran solvate'
_symmetry_cell_setting           triclinic
_symmetry_space_group_name_H-M   'P -1'
_symmetry_Int_Tables_number      2
_space_group_name_Hall           '-P 1'
loop_
_symmetry_equiv_pos_site_id
_symmetry_equiv_pos_as_xyz
1 x,y,z
2 -x,-y,-z
_cell_length_a                   11.2432(17)
_cell_length_b                   11.3103(17)
_cell_length_c                   11.493(3)
_cell_angle_alpha                91.117(2)
_cell_angle_beta                 115.099(2)
_cell_angle_gamma                119.092(2)
_cell_volume                     1108.47
_exptl_crystal_colour            white
_chemical_melting_point          '280.8-281.3 deg.C'
_cell_formula_units_Z            2
loop_
_atom_site_label
_atom_site_type_symbol
_atom_site_fract_x
_atom_site_fract_y
_atom_site_fract_z
N1 N 0.9038(3) 0.8528(3) 0.2908(2)
N2 N 0.7309(3) 0.9228(3) 0.2647(2)
N3 N 0.9687(3) 1.0795(3) 0.2727(2)
O1 O 0.7920(3) 1.1388(3) 0.2353(2)
O2 O 0.6681(3) 0.7010(3) 0.2754(2)
O3 O 1.1323(3) 1.0074(3) 0.2971(3)
C1 C 0.8257(3) 1.0519(3) 0.2544(3)
C2 C 0.7593(3) 0.8148(3) 0.2760(2)
C3 C 1.0105(4) 0.9805(4) 0.2873(3)
C4 C 1.0795(3) 1.2177(3) 0.2744(3)
C5 C 0.5806(3) 0.8870(3) 0.2482(3)
C6 C 0.9371(3) 0.7428(3) 0.2973(3)
C7 C 1.0689(4) 1.2488(4) 0.1587(3)
H1 H 0.9899 1.1805 0.0769
C8 C 1.1966(4) 1.3194(4) 0.3964(3)
H2 H 1.2036 1.2987 0.4761
C9 C 0.8667(4) 0.6422(4) 0.1816(3)
H3 H 0.7991 0.6442 0.1004
C10 C 0.4571(4) 0.8453(4) 0.1210(3)
H4 H 0.4705 0.8417 0.0468
C11 C 1.0390(4) 0.7436(4) 0.4162(3)
H5 H 1.0879 0.8135 0.4943
C12 C 0.5648(4) 0.8950(4) 0.3593(3)
H6 H 0.6490 0.9239 0.4447
C13 C 1.0688(5) 0.6370(6) 0.4188(4)
H7 H 1.1381 0.6358 0.4994
C14 C 0.9973(5) 0.5356(5) 0.3046(5)
H8 H 1.0171 0.4645 0.3074
C15 C 0.3151(5) 0.8092(5) 0.1050(5)
H9 H 0.2310 0.7797 0.0194
C16 C 0.8971(5) 0.5370(5) 0.1865(5)
H10 H 0.8486 0.4672 0.1084
C17 C 1.3018(4) 1.4507(4) 0.3982(4)
H11 H 1.3806 1.5191 0.4800
C18 C 0.2956(5) 0.8161(5) 0.2142(5)
H12 H 0.1987 0.7919 0.2024
C19 C 0.4193(5) 0.8589(5) 0.3413(5)
H13 H 0.4057 0.8636 0.4152
C20 C 1.2934(5) 1.4830(4) 0.2830(5)
H14 H 1.3664 1.5722 0.2857
C21 C 1.1753(6) 1.3820(6) 0.1619(4)
H15 H 1.1673 1.4035 0.0823
C22 C 0.4788(5) 0.3507(5) 0.0999(4)
H16 H 0.4597 0.4235 0.1131
H17 H 0.5402 0.3781 0.0549
C23 C 0.4466(7) 0.2141(7) 0.2431(5)
H18 H 0.4138 0.2442 0.2969
H19 H 0.4860 0.1579 0.2855
C24 C 0.3132(6) 0.1310(5) 0.1048(5)
H20 H 0.3110 0.0489 0.0745
H21 H 0.2146 0.0992 0.1020
C25 C 0.5636(7) 0.3326(7) 0.2303(4)
H22 H 0.6406 0.3155 0.2312
H23 H 0.6166 0.4159 0.3028
O4 O 0.3361(4) 0.2205(3) 0.0228(2)
loop_
_geom_bond_atom_site_label_1
_geom_bond_atom_site_label_2
_geom_bond_site_symmetry_1
_geom_bond_site_symmetry_2
N1 C2 1_555 1_555
N2 C1 1_555 1_555
N3 C1 1_555 1_555
O1 C1 1_555 1_555
O2 C2 1_555 1_555
O3 C3 1_555 1_555
C2 N2 1_555 1_555
C3 N1 1_555 1_555
C4 N3 1_555 1_555
C5 N2 1_555 1_555
C6 N1 1_555 1_555
C7 C4 1_555 1_555
H1 C7 1_555 1_555
C8 C4 1_555 1_555
H2 C8 1_555 1_555
C9 C6 1_555 1_555
H3 C9 1_555 1_555
C10 C5 1_555 1_555
H4 C10 1_555 1_555
C11 C6 1_555 1_555
H5 C11 1_555 1_555
C12 C5 1_555 1_555
H6 C12 1_555 1_555
C13 C11 1_555 1_555
H7 C13 1_555 1_555
C14 C13 1_555 1_555
H8 C14 1_555 1_555
C15 C10 1_555 1_555
H9 C15 1_555 1_555
C16 C9 1_555 1_555
H10 C16 1_555 1_555
C17 C8 1_555 1_555
H11 C17 1_555 1_555
C18 C15 1_555 1_555
H12 C18 1_555 1_555
C19 C12 1_555 1_555
H13 C19 1_555 1_555
C20 C17 1_555 1_555
H14 C20 1_555 1_555
C21 C7 1_555 1_555
H15 C21 1_555 1_555
C22 H16 1_555 1_555
H17 C22 1_555 1_555
C23 H18 1_555 1_555
H19 C23 1_555 1_555
C24 C23 1_555 1_555
H20 C24 1_555 1_555
H21 C24 1_555 1_555
C25 C22 1_555 1_555
H22 C25 1_555 1_555
H23 C25 1_555 1_555
O4 C22 1_555 1_555
N3 C3 1_555 1_555
C14 C16 1_555 1_555
C18 C19 1_555 1_555
C20 C21 1_555 1_555
C23 C25 1_555 1_555
C24 O4 1_555 1_555

#END
