
#######################################################################
#
#                 Cambridge Crystallographic Data Centre
#                                CCDC 
#
#######################################################################
#
# If this CIF has been generated from an entry in the Cambridge 
# Structural Database, then it will include bibliographic, chemical, 
# crystal, experimental, refinement or atomic coordinate data resulting 
# from the CCDC's data processing and validation procedures.
#
#######################################################################

data_MEYCOK
_chemical_formula_moiety         'C9 H12 N2 O2 S1,2(H2 O1)'
_chemical_name_systematic        
'N-(2-Hydroxyethyl)-2-(methylsulfanyl)nicotinamide dihydrate'
_symmetry_cell_setting           monoclinic
_symmetry_space_group_name_H-M   'P 21/n'
_symmetry_Int_Tables_number      14
_space_group_name_Hall           '-P 2yn'
loop_
_symmetry_equiv_pos_site_id
_symmetry_equiv_pos_as_xyz
1 x,y,z
2 1/2-x,1/2+y,1/2-z
3 -x,-y,-z
4 1/2+x,1/2-y,1/2+z
_cell_length_a                   7.194(2)
_cell_length_b                   7.285(3)
_cell_length_c                   22.388(8)
_cell_angle_alpha                90
_cell_angle_beta                 90.341(5)
_cell_angle_gamma                90
_cell_volume                     1173.3
_exptl_crystal_colour            colorless
_exptl_crystal_description       plate
_cell_formula_units_Z            4
loop_
_atom_site_label
_atom_site_type_symbol
_atom_site_fract_x
_atom_site_fract_y
_atom_site_fract_z
S1 S 0.16008(5) 0.17288(4) 0.496490(14)
O1 O 0.14465(13) 0.15851(13) 0.35800(4)
O2 O 0.63288(13) 0.21703(14) 0.22908(4)
H1 H 0.6034 0.3265 0.2359
N1 N 0.45696(15) 0.17664(14) 0.34545(5)
H2 H 0.5746 0.2354 0.3572
N2 N 0.25158(14) 0.52793(15) 0.50671(5)
C1 C 0.29727(17) 0.23204(18) 0.36899(6)
C2 C 0.24506(17) 0.38431(18) 0.46972(6)
C3 C 0.30932(17) 0.39415(18) 0.41033(6)
C4 C 0.37886(17) 0.55973(18) 0.38990(6)
H3 H 0.4243 0.5702 0.3503
C5 C 0.38137(18) 0.71039(18) 0.42798(6)
H4 H 0.4257 0.8262 0.4147
C6 C 0.31791(18) 0.68745(18) 0.48552(6)
H5 H 0.3213 0.7902 0.5116
C7 C 0.46845(19) 0.02847(18) 0.30153(6)
H6 H 0.3589 -0.0527 0.3057
H7 H 0.5811 -0.0457 0.3096
C8 C 0.47580(19) 0.10174(19) 0.23793(6)
H8 H 0.4812 -0.0026 0.2097
H9 H 0.3609 0.1720 0.2293
C9 C 0.11816(19) 0.2207(2) 0.57439(6)
H10 H 0.2350 0.2567 0.5938
H11 H 0.0689 0.1105 0.5938
H12 H 0.0278 0.3208 0.5778
O3 O 0.80120(13) 0.33454(13) 0.37567(4)
H13 H 0.7959 0.3934 0.4074
H14 H 0.8969 0.2784 0.3749
O4 O 0.52737(13) 0.56527(13) 0.25016(4)
H15 H 0.6327 0.6270 0.2546
H16 H 0.4761 0.5936 0.2199
loop_
_geom_bond_atom_site_label_1
_geom_bond_atom_site_label_2
_geom_bond_site_symmetry_1
_geom_bond_site_symmetry_2
S1 C2 1_555 1_555
O1 C1 1_555 1_555
O2 H1 1_555 1_555
N1 H2 1_555 1_555
N2 C2 1_555 1_555
C1 N1 1_555 1_555
C2 C3 1_555 1_555
C3 C1 1_555 1_555
C4 C3 1_555 1_555
H3 C4 1_555 1_555
C5 C4 1_555 1_555
H4 C5 1_555 1_555
C6 N2 1_555 1_555
H5 C6 1_555 1_555
C7 N1 1_555 1_555
H6 C7 1_555 1_555
H7 C7 1_555 1_555
C8 O2 1_555 1_555
H8 C8 1_555 1_555
H9 C8 1_555 1_555
C9 S1 1_555 1_555
H10 C9 1_555 1_555
H11 C9 1_555 1_555
H12 C9 1_555 1_555
O3 H13 1_555 1_555
H14 O3 1_555 1_555
O4 H15 1_555 1_555
H16 O4 1_555 1_555
C5 C6 1_555 1_555
C7 C8 1_555 1_555

#END
