
#######################################################################
#
#                 Cambridge Crystallographic Data Centre
#                                CCDC 
#
#######################################################################
#
# If this CIF has been generated from an entry in the Cambridge 
# Structural Database, then it will include bibliographic, chemical, 
# crystal, experimental, refinement or atomic coordinate data resulting 
# from the CCDC's data processing and validation procedures.
#
#######################################################################

data_MEYCEY
_chemical_formula_moiety         'C11 H10'
_chemical_name_systematic        7,7-Diethynyldispiro(2.0.2.1)heptane
_symmetry_cell_setting           monoclinic
_symmetry_space_group_name_H-M   'I 2'
_symmetry_Int_Tables_number      5
_space_group_name_Hall           'I 2y'
loop_
_symmetry_equiv_pos_site_id
_symmetry_equiv_pos_as_xyz
1 x,y,z
2 -x,y,-z
3 1/2+x,1/2+y,1/2+z
4 1/2-x,1/2+y,1/2-z
_cell_length_a                   7.3403(11)
_cell_length_b                   6.3766(13)
_cell_length_c                   9.3513(19)
_cell_angle_alpha                90
_cell_angle_beta                 95.94(3)
_cell_angle_gamma                90
_cell_volume                     435.348
_exptl_crystal_colour            colorless
_exptl_crystal_description       plate
_cell_formula_units_Z            2
_exptl_crystal_recrystallization_method pentane/methanol
loop_
_atom_site_label
_atom_site_type_symbol
_atom_site_fract_x
_atom_site_fract_y
_atom_site_fract_z
C1 C 0.2645(3) -0.2465(5) 0.0753(2)
H1 H 0.3712 -0.1529 0.0939
H2 H 0.2874 -0.3842 0.0227
C2 C 0.1364(3) -0.2518(4) 0.1955(2)
H3 H 0.0840 -0.3971 0.2213
H4 H 0.1713 -0.1687 0.2817
C3 C 0.0776(3) -0.1562(3) 0.0545(2)
C4 C 0.0000 0.0555(5) 0.0000
C5 C 0.1073(3) 0.1743(3) -0.0935(2)
C6 C 0.1964(3) 0.2704(4) -0.1695(2)
H5 H 0.2609 0.3406 -0.2294
C3A C -0.0776(3) -0.1562(3) -0.0545(2)
C1A C -0.2645(3) -0.2465(5) -0.0753(2)
H1A H -0.3712 -0.1529 -0.0939
H2A H -0.2874 -0.3842 -0.0227
C2A C -0.1364(3) -0.2518(4) -0.1955(2)
H3A H -0.0840 -0.3971 -0.2213
H4A H -0.1713 -0.1687 -0.2817
C5A C -0.1073(3) 0.1743(3) 0.0935(2)
C6A C -0.1964(3) 0.2704(4) 0.1695(2)
H5A H -0.2609 0.3406 0.2294
loop_
_geom_bond_atom_site_label_1
_geom_bond_atom_site_label_2
_geom_bond_site_symmetry_1
_geom_bond_site_symmetry_2
C1 H1 1_555 1_555
H2 C1 1_555 1_555
C2 C1 1_555 1_555
H3 C2 1_555 1_555
H4 C2 1_555 1_555
C3 C1 1_555 1_555
C4 C3 1_555 1_555
C5 C4 1_555 1_555
C6 C5 1_555 1_555
H5 C6 1_555 1_555
C3A C3 1_555 1_555
C1A C3A 1_555 1_555
H1A C1A 1_555 1_555
H2A C1A 1_555 1_555
C2A C3A 1_555 1_555
H3A C2A 1_555 1_555
H4A C2A 1_555 1_555
C5A C4 1_555 1_555
C6A C5A 1_555 1_555
H5A C6A 1_555 1_555
C2 C3 1_555 1_555
C4 C3A 1_555 1_555
C1A C2A 1_555 1_555

#END
