
#######################################################################
#
#                 Cambridge Crystallographic Data Centre
#                                CCDC 
#
#######################################################################
#
# If this CIF has been generated from an entry in the Cambridge 
# Structural Database, then it will include bibliographic, chemical, 
# crystal, experimental, refinement or atomic coordinate data resulting 
# from the CCDC's data processing and validation procedures.
#
#######################################################################

data_MEYCOI
_chemical_formula_moiety         'C22 H36 Si4'
_chemical_name_systematic        
1,4,8-tris(Trimethylsilyl)-3-(2-(trimethylsilyl)ethynyl)octa-1,5,7-triyne-3-ene
_symmetry_cell_setting           monoclinic
_symmetry_space_group_name_H-M   'C c'
_symmetry_Int_Tables_number      9
_space_group_name_Hall           'C -2yc'
loop_
_symmetry_equiv_pos_site_id
_symmetry_equiv_pos_as_xyz
1 x,y,z
2 x,-y,1/2+z
3 1/2+x,1/2+y,z
4 1/2+x,1/2-y,1/2+z
_cell_length_a                   11.9166(2)
_cell_length_b                   22.0673(1)
_cell_length_c                   11.8199(2)
_cell_angle_alpha                90
_cell_angle_beta                 114.36(1)
_cell_angle_gamma                90
_cell_volume                     2831.52
_exptl_crystal_colour            colorless
_exptl_crystal_description       prism
_chemical_melting_point          169-171deg.C.(dec.)
_cell_formula_units_Z            4
_exptl_crystal_recrystallization_method hexane
loop_
_atom_site_label
_atom_site_type_symbol
_atom_site_fract_x
_atom_site_fract_y
_atom_site_fract_z
Si1 Si -0.05108(16) 0.45770(9) 0.69713(18)
Si3 Si 0.12538(8) 0.25773(4) 0.24158(7)
Si4 Si 0.39568(7) 0.47874(3) 0.71911(7)
Si5 Si 0.69231(8) 0.30516(4) 0.28653(8)
C1 C 0.0635(3) 0.42219(16) 0.6455(3)
C2 C 0.1371(3) 0.40790(14) 0.6048(3)
C3 C 0.2233(3) 0.39144(13) 0.5527(2)
C4 C 0.3382(3) 0.41769(12) 0.5936(2)
C5 C 0.4145(3) 0.39837(12) 0.5351(2)
C6 C 0.4800(3) 0.38031(13) 0.4862(2)
C7 C 0.5477(3) 0.35635(13) 0.4275(3)
C8 C 0.6067(3) 0.33434(14) 0.3741(3)
C9 C 0.1825(3) 0.34745(13) 0.4545(3)
C10 C 0.1544(3) 0.31190(13) 0.3696(3)
C11 C 0.0373(7) 0.5209(4) 0.8040(8)
C13 C -0.1807(11) 0.4934(6) 0.5678(11)
C15 C -0.0282(10) 0.3870(5) 0.8460(10)
C17 C 0.2495(4) 0.26873(19) 0.1873(4)
H1 H 0.248(4) 0.3081(12) 0.150(4)
H2 H 0.245(4) 0.2393(16) 0.124(3)
H3 H 0.333(2) 0.263(2) 0.250(3)
C18 C -0.0285(4) 0.27372(18) 0.1137(3)
H4 H -0.030(4) 0.3172(9) 0.100(4)
H5 H -0.093(3) 0.257(2) 0.135(4)
H6 H -0.029(4) 0.2521(19) 0.042(3)
C19 C 0.1313(4) 0.18071(16) 0.3076(3)
H7 H 0.071(3) 0.176(2) 0.340(4)
H8 H 0.208(2) 0.1745(19) 0.376(3)
H9 H 0.132(4) 0.1537(16) 0.245(3)
C20 C 0.2937(3) 0.54631(14) 0.6644(3)
H10 H 0.310(4) 0.5780(14) 0.723(3)
H11 H 0.210(2) 0.5340(17) 0.638(4)
H12 H 0.324(3) 0.5620(17) 0.608(3)
C21 C 0.3950(3) 0.44775(16) 0.8657(3)
H13 H 0.417(4) 0.4802(14) 0.927(3)
H14 H 0.458(3) 0.4166(14) 0.900(3)
H15 H 0.311(2) 0.4387(19) 0.856(4)
C22 C 0.5558(3) 0.49834(16) 0.7421(3)
H16 H 0.585(4) 0.5311(14) 0.803(3)
H17 H 0.559(4) 0.5134(17) 0.665(2)
H18 H 0.616(3) 0.4664(14) 0.782(3)
C23 C 0.7720(10) 0.2337(5) 0.3527(9)
C25 C 0.5697(9) 0.2851(5) 0.1246(9)
C27 C 0.7966(9) 0.3675(4) 0.2767(10)
Si2? Si -0.02999(18) 0.44277(10) 0.7307(2)
C12? C 0.0381(7) 0.5048(4) 0.8315(8)
C14? C -0.1898(10) 0.4600(5) 0.6026(9)
C16? C -0.0993(15) 0.3900(7) 0.7711(15)
C24? C 0.7276(12) 0.2225(5) 0.3306(11)
C26? C 0.5924(11) 0.3140(6) 0.1207(11)
C28? C 0.8294(10) 0.3566(5) 0.3330(11)
loop_
_geom_bond_atom_site_label_1
_geom_bond_atom_site_label_2
_geom_bond_site_symmetry_1
_geom_bond_site_symmetry_2
Si1 C1 1_555 1_555
Si3 C10 1_555 1_555
Si4 C4 1_555 1_555
Si5 C8 1_555 1_555
C1 C2 1_555 1_555
C2 C3 1_555 1_555
C3 C4 1_555 1_555
C4 C5 1_555 1_555
C5 C6 1_555 1_555
C6 C7 1_555 1_555
C7 C8 1_555 1_555
C9 C3 1_555 1_555
C10 C9 1_555 1_555
C11 Si1 1_555 1_555
C13 Si1 1_555 1_555
C15 Si1 1_555 1_555
C17 Si3 1_555 1_555
H1 C17 1_555 1_555
H2 C17 1_555 1_555
H3 C17 1_555 1_555
C18 Si3 1_555 1_555
H4 C18 1_555 1_555
H5 C18 1_555 1_555
H6 C18 1_555 1_555
C19 Si3 1_555 1_555
H7 C19 1_555 1_555
H8 C19 1_555 1_555
H9 C19 1_555 1_555
C20 Si4 1_555 1_555
H10 C20 1_555 1_555
H11 C20 1_555 1_555
H12 C20 1_555 1_555
C21 Si4 1_555 1_555
H13 C21 1_555 1_555
H14 C21 1_555 1_555
H15 C21 1_555 1_555
C22 Si4 1_555 1_555
H16 C22 1_555 1_555
H17 C22 1_555 1_555
H18 C22 1_555 1_555
C23 Si5 1_555 1_555
C25 Si5 1_555 1_555
C27 Si5 1_555 1_555

#END
