
#######################################################################
#
#                 Cambridge Crystallographic Data Centre
#                                CCDC 
#
#######################################################################
#
# If this CIF has been generated from an entry in the Cambridge 
# Structural Database, then it will include bibliographic, chemical, 
# crystal, experimental, refinement or atomic coordinate data resulting 
# from the CCDC's data processing and validation procedures.
#
#######################################################################

data_MEYDIF
_chemical_formula_moiety         'C15 H13 N1 O2'
_chemical_name_systematic        10-(2-Hydroxyethyl)acridin-9(10H)-one
_symmetry_cell_setting           monoclinic
_symmetry_space_group_name_H-M   'P 21/c'
_symmetry_Int_Tables_number      14
_space_group_name_Hall           '-P 2ybc'
loop_
_symmetry_equiv_pos_site_id
_symmetry_equiv_pos_as_xyz
1 x,y,z
2 -x,1/2+y,1/2-z
3 -x,-y,-z
4 x,1/2-y,1/2+z
_cell_length_a                   8.8247(12)
_cell_length_b                   12.0858(17)
_cell_length_c                   10.9511(15)
_cell_angle_alpha                90
_cell_angle_beta                 102.510(2)
_cell_angle_gamma                90
_cell_volume                     1140.24
_exptl_crystal_colour            yellow
_exptl_crystal_description       block
_chemical_melting_point          '486-487 K'
_cell_formula_units_Z            4
_exptl_crystal_recrystallization_method ethanol
loop_
_atom_site_label
_atom_site_type_symbol
_atom_site_fract_x
_atom_site_fract_y
_atom_site_fract_z
C1 C 0.5682(2) -0.05103(16) 0.24433(19)
H1 H 0.4970 -0.0982 0.2689
C2 C 0.7233(3) -0.06954(18) 0.2874(2)
H2 H 0.7578 -0.1288 0.3403
C3 C 0.8282(3) 0.00171(17) 0.2507(2)
H3 H 0.9340 -0.0102 0.2797
C4 C 0.7798(2) 0.08916(16) 0.1727(2)
H4 H 0.8530 0.1363 0.1510
C5 C 0.6207(2) 0.10876(15) 0.12486(18)
C6 C 0.5136(2) 0.03793(15) 0.16356(18)
C7 C 0.3003(2) 0.14745(15) 0.03713(18)
C8 C 0.4115(2) 0.21551(14) -0.00030(18)
C9 C 0.3575(2) 0.30460(16) -0.08135(19)
H5 H 0.4286 0.3520 -0.1057
C10 C 0.2023(2) 0.32211(17) -0.1244(2)
H6 H 0.1694 0.3808 -0.1787
C11 C 0.0924(2) 0.25420(18) -0.0890(2)
H7 H -0.0130 0.2670 -0.1191
C12 C 0.1414(2) 0.16846(16) -0.0093(2)
H8 H 0.0683 0.1228 0.0149
C13 C 0.3474(2) 0.05380(15) 0.11983(18)
C14 C 0.6815(2) 0.25855(16) -0.0130(2)
H9 H 0.6354 0.2746 -0.0999
H10 H 0.7729 0.2134 -0.0112
C15 C 0.7311(3) 0.36602(16) 0.0542(2)
H11 H 0.7985 0.4064 0.0107
H12 H 0.6406 0.4114 0.0548
N1 N 0.56956(17) 0.19453(12) 0.04085(15)
O1 O 0.24949(16) -0.00814(11) 0.15119(14)
O2 O 0.8097(2) 0.34461(13) 0.17700(16)
H13 H 0.7849 0.3908 0.2240
loop_
_geom_bond_atom_site_label_1
_geom_bond_atom_site_label_2
_geom_bond_site_symmetry_1
_geom_bond_site_symmetry_2
C1 H1 1_555 1_555
C2 C1 1_555 1_555
H2 C2 1_555 1_555
C3 C2 1_555 1_555
H3 C3 1_555 1_555
C4 C3 1_555 1_555
H4 C4 1_555 1_555
C5 C4 1_555 1_555
C6 C1 1_555 1_555
C7 C8 1_555 1_555
C8 C9 1_555 1_555
C9 H5 1_555 1_555
C10 C9 1_555 1_555
H6 C10 1_555 1_555
C11 C10 1_555 1_555
H7 C11 1_555 1_555
C12 C7 1_555 1_555
H8 C12 1_555 1_555
C13 C6 1_555 1_555
C14 H9 1_555 1_555
H10 C14 1_555 1_555
C15 C14 1_555 1_555
H11 C15 1_555 1_555
H12 C15 1_555 1_555
N1 C5 1_555 1_555
O1 C13 1_555 1_555
O2 C15 1_555 1_555
H13 O2 1_555 1_555
C5 C6 1_555 1_555
C7 C13 1_555 1_555
C8 N1 1_555 1_555
C11 C12 1_555 1_555
C14 N1 1_555 1_555

#END
