
#######################################################################
#
#                 Cambridge Crystallographic Data Centre
#                                CCDC 
#
#######################################################################
#
# If this CIF has been generated from an entry in the Cambridge 
# Structural Database, then it will include bibliographic, chemical, 
# crystal, experimental, refinement or atomic coordinate data resulting 
# from the CCDC's data processing and validation procedures.
#
#######################################################################

data_MEYDEC
_chemical_formula_moiety         'C15 H15 Cl1 N4'
_chemical_name_systematic        
6-(3-chloro-4-methylphenyl)-9-(propan-2-yl)-9H-purine
_symmetry_cell_setting           monoclinic
_symmetry_space_group_name_H-M   'P 21/c'
_symmetry_Int_Tables_number      14
_space_group_name_Hall           '-P 2ybc'
loop_
_symmetry_equiv_pos_site_id
_symmetry_equiv_pos_as_xyz
1 x,y,z
2 -x,1/2+y,1/2-z
3 -x,-y,-z
4 x,1/2-y,1/2+z
_cell_length_a                   13.886(12)
_cell_length_b                   14.758(12)
_cell_length_c                   6.953(6)
_cell_angle_alpha                90
_cell_angle_beta                 102.04(2)
_cell_angle_gamma                90
_cell_volume                     1393.53
_exptl_crystal_colour            colorless
_exptl_crystal_description       needle
_cell_formula_units_Z            4
_exptl_crystal_recrystallization_method 
'Re-crystallisation from solvent: chloroform/hexane'
loop_
_atom_site_label
_atom_site_type_symbol
_atom_site_fract_x
_atom_site_fract_y
_atom_site_fract_z
Cl1 Cl 0.05673(10) 0.88035(10) 0.0227(2)
N1 N 0.6072(3) 0.7927(3) 0.3314(7)
N2 N 0.4356(3) 0.8317(3) 0.2333(7)
N3 N 0.6320(3) 0.6302(3) 0.3427(8)
N4 N 0.4741(3) 0.5845(3) 0.2604(8)
C1 C 0.4790(4) 0.6773(3) 0.2611(8)
C2 C 0.2999(4) 0.7279(4) 0.1543(8)
C3 C 0.4069(4) 0.7447(3) 0.2164(8)
C4 C 0.5759(4) 0.7073(3) 0.3139(8)
C5 C 0.2336(4) 0.8014(4) 0.1177(8)
H1 H 0.2579 0.8617 0.1301
C6 C 0.5324(4) 0.8499(4) 0.2878(8)
H2 H 0.5494 0.9123 0.2962
C7 C 0.0950(4) 0.6998(4) 0.0397(8)
C8 C 0.1341(4) 0.7860(4) 0.0641(8)
C9 C 0.2602(4) 0.6410(4) 0.1257(8)
H3 H 0.3033 0.5903 0.1438
C10 C 0.1603(4) 0.6268(4) 0.0719(8)
H4 H 0.1355 0.5666 0.0566
C11 C -0.0161(4) 0.6817(4) -0.0173(9)
H5 H -0.0490 0.7109 0.0782
H6 H -0.0281 0.6163 -0.0177
H7 H -0.0423 0.7064 -0.1487
C12 C 0.5672(4) 0.5605(4) 0.3090(10)
H8 H 0.5875 0.4989 0.3197
C13 C 0.7399(4) 0.6258(4) 0.3948(10)
H9 H 0.7653 0.6893 0.4131
C14 C 0.7738(5) 0.5756(5) 0.5899(9)
H10 H 0.7463 0.6054 0.6925
H11 H 0.8458 0.5765 0.6268
H12 H 0.7508 0.5127 0.5752
C15 C 0.7783(5) 0.5844(5) 0.2268(10)
H13 H 0.7603 0.5201 0.2147
H14 H 0.8501 0.5903 0.2525
H15 H 0.7494 0.6158 0.1042
loop_
_geom_bond_atom_site_label_1
_geom_bond_atom_site_label_2
_geom_bond_site_symmetry_1
_geom_bond_site_symmetry_2
Cl1 C8 1_555 1_555
N1 C4 1_555 1_555
N2 C3 1_555 1_555
N3 C4 1_555 1_555
N4 C1 1_555 1_555
C1 C3 1_555 1_555
C2 C3 1_555 1_555
C4 C1 1_555 1_555
C5 C2 1_555 1_555
H1 C5 1_555 1_555
C6 N1 1_555 1_555
H2 C6 1_555 1_555
C7 C8 1_555 1_555
C8 C5 1_555 1_555
C9 C2 1_555 1_555
H3 C9 1_555 1_555
C10 C7 1_555 1_555
H4 C10 1_555 1_555
C11 C7 1_555 1_555
H5 C11 1_555 1_555
H6 C11 1_555 1_555
H7 C11 1_555 1_555
C12 N3 1_555 1_555
H8 C12 1_555 1_555
C13 N3 1_555 1_555
H9 C13 1_555 1_555
C14 C13 1_555 1_555
H10 C14 1_555 1_555
H11 C14 1_555 1_555
H12 C14 1_555 1_555
C15 C13 1_555 1_555
H13 C15 1_555 1_555
H14 C15 1_555 1_555
H15 C15 1_555 1_555
N2 C6 1_555 1_555
N4 C12 1_555 1_555
C9 C10 1_555 1_555

#END
