
#######################################################################
#
#                 Cambridge Crystallographic Data Centre
#                                CCDC 
#
#######################################################################
#
# If this CIF has been generated from an entry in the Cambridge 
# Structural Database, then it will include bibliographic, chemical, 
# crystal, experimental, refinement or atomic coordinate data resulting 
# from the CCDC's data processing and validation procedures.
#
#######################################################################

data_MEYPAK
_chemical_formula_moiety         'C20 H14 Cl2 N2 O1'
_chemical_name_systematic        
2,4-dichloro-5-(4-methylphenyl)-7-phenyl-5H-pyrano[2,3-d]pyrimidine
_symmetry_cell_setting           monoclinic
_symmetry_space_group_name_H-M   'P 21/n'
_symmetry_Int_Tables_number      14
_space_group_name_Hall           '-P 2yn'
loop_
_symmetry_equiv_pos_site_id
_symmetry_equiv_pos_as_xyz
1 x,y,z
2 1/2-x,1/2+y,1/2-z
3 -x,-y,-z
4 1/2+x,1/2-y,1/2+z
_cell_length_a                   9.1373(5)
_cell_length_b                   22.4412(10)
_cell_length_c                   17.6747(10)
_cell_angle_alpha                90
_cell_angle_beta                 103.855(6)
_cell_angle_gamma                90
_cell_volume                     3518.78
_exptl_crystal_colour            colorless
_exptl_crystal_description       Block
_cell_formula_units_Z            8
loop_
_atom_site_label
_atom_site_type_symbol
_atom_site_fract_x
_atom_site_fract_y
_atom_site_fract_z
Cl1 Cl 0.66031(7) 0.44147(3) 0.58879(4)
Cl2 Cl 0.54319(8) 0.66222(3) 0.62880(5)
O1 O 0.43178(18) 0.51706(7) 0.80657(10)
N1 N 0.5944(2) 0.54988(9) 0.61686(12)
N2 N 0.4858(2) 0.58052(9) 0.72045(13)
C1 C 0.5437(2) 0.47704(10) 0.70742(13)
C2 C 0.7021(2) 0.38663(10) 0.76170(13)
C3 C 0.4885(2) 0.52382(10) 0.74337(14)
C4 C 0.5937(2) 0.49381(11) 0.64259(14)
C5 C 0.5450(2) 0.41394(10) 0.73686(14)
H1 H 0.4845 0.3893 0.6951
C6 C 0.5399(2) 0.58880(10) 0.65880(16)
C7 C 0.7299(3) 0.33039(10) 0.73823(14)
H2 H 0.6534 0.3095 0.7045
C8 C 0.3643(2) 0.46084(10) 0.90627(15)
C9 C 0.4271(2) 0.45940(10) 0.83728(14)
C10 C 0.9867(3) 0.33368(11) 0.81433(15)
C11 C 0.8188(3) 0.41646(11) 0.81163(15)
H3 H 0.8030 0.4547 0.8282
C12 C 0.4728(2) 0.41262(11) 0.80445(14)
H4 H 0.4589 0.3755 0.8250
C13 C 0.8703(3) 0.30424(11) 0.76398(16)
H5 H 0.8865 0.2661 0.7470
C14 C 0.9588(3) 0.39007(12) 0.83717(16)
H6 H 1.0357 0.4111 0.8706
C15 C 0.4019(3) 0.41693(12) 0.96287(16)
H7 H 0.4690 0.3870 0.9575
C16 C 0.2664(3) 0.50544(11) 0.91639(17)
H8 H 0.2410 0.5357 0.8796
C17 C 0.2435(3) 0.46128(13) 1.03579(19)
H9 H 0.2028 0.4614 1.0792
C18 C 0.2059(3) 0.50522(12) 0.98116(19)
H10 H 0.1393 0.5351 0.9875
C19 C 0.3411(3) 0.41719(13) 1.02674(17)
H11 H 0.3663 0.3873 1.0640
C20 C 1.1393(3) 0.30498(14) 0.8429(2)
H12 H 1.1610 0.3006 0.8985
H13 H 1.2149 0.3296 0.8291
H14 H 1.1391 0.2665 0.8192
Cl3 Cl 1.08266(8) 0.25924(3) 0.35136(5)
Cl4 Cl 0.77200(12) 0.25945(3) 0.55838(5)
O2 O 0.83580(18) 0.44393(7) 0.43242(10)
N3 N 0.8134(2) 0.35617(9) 0.48709(12)
N4 N 0.9257(2) 0.26738(9) 0.45411(12)
C21 C 0.9548(2) 0.35955(10) 0.38920(13)
C22 C 0.9651(2) 0.37360(9) 0.24834(14)
C23 C 0.8703(2) 0.38559(10) 0.43556(14)
C24 C 0.8970(2) 0.48112(10) 0.38459(13)
C25 C 0.8546(2) 0.54367(10) 0.39414(13)
C26 C 0.8187(3) 0.35625(10) 0.21651(14)
H15 H 0.7487 0.3573 0.2470
C27 C 0.9777(2) 0.29916(11) 0.40294(14)
C28 C 1.0173(2) 0.39510(10) 0.33201(14)
H16 H 1.1273 0.3914 0.3472
C29 C 0.7719(3) 0.55900(11) 0.44752(14)
H17 H 0.7429 0.5295 0.4779
C30 C 0.9793(2) 0.45953(10) 0.33925(14)
H18 H 1.0173 0.4866 0.3090
C31 C 0.8456(3) 0.29912(12) 0.49230(15)
C32 C 0.7320(3) 0.61756(11) 0.45625(16)
H19 H 0.6762 0.6272 0.4922
C33 C 0.7742(3) 0.33738(11) 0.14022(16)
H20 H 0.6748 0.3255 0.1207
C34 C 1.0184(4) 0.35329(12) 0.12422(18)
H21 H 1.0877 0.3526 0.0933
C35 C 0.8719(4) 0.33564(11) 0.09235(16)
C36 C 1.0649(3) 0.37191(12) 0.20057(17)
H22 H 1.1645 0.3835 0.2202
C37 C 0.8970(3) 0.58880(11) 0.35025(16)
H23 H 0.9528 0.5796 0.3141
C38 C 0.7748(3) 0.66136(11) 0.41185(17)
H24 H 0.7474 0.7008 0.4173
C39 C 0.8579(3) 0.64691(12) 0.35939(18)
H25 H 0.8880 0.6767 0.3298
C40 C 0.8226(5) 0.31622(15) 0.00811(19)
H26 H 0.7192 0.3037 -0.0031
H27 H 0.8846 0.2837 -0.0009
H28 H 0.8328 0.3490 -0.0252
loop_
_geom_bond_atom_site_label_1
_geom_bond_atom_site_label_2
_geom_bond_site_symmetry_1
_geom_bond_site_symmetry_2
Cl1 C4 1_555 1_555
Cl2 C6 1_555 1_555
O1 C3 1_555 1_555
N1 C4 1_555 1_555
N2 C3 1_555 1_555
C1 C3 1_555 1_555
C2 C5 1_555 1_555
C4 C1 1_555 1_555
C5 C1 1_555 1_555
H1 C5 1_555 1_555
C6 N1 1_555 1_555
C7 C2 1_555 1_555
H2 C7 1_555 1_555
C8 C9 1_555 1_555
C9 O1 1_555 1_555
C10 C13 1_555 1_555
C11 C2 1_555 1_555
H3 C11 1_555 1_555
C12 C5 1_555 1_555
H4 C12 1_555 1_555
C13 C7 1_555 1_555
H5 C13 1_555 1_555
C14 C10 1_555 1_555
H6 C14 1_555 1_555
C15 C8 1_555 1_555
H7 C15 1_555 1_555
C16 C8 1_555 1_555
H8 C16 1_555 1_555
C17 H9 1_555 1_555
C18 C16 1_555 1_555
H10 C18 1_555 1_555
C19 C15 1_555 1_555
H11 C19 1_555 1_555
C20 C10 1_555 1_555
H12 C20 1_555 1_555
H13 C20 1_555 1_555
H14 C20 1_555 1_555
Cl3 C27 1_555 1_555
Cl4 C31 1_555 1_555
O2 C23 1_555 1_555
N3 C23 1_555 1_555
N4 C27 1_555 1_555
C21 C23 1_555 1_555
C22 C26 1_555 1_555
C24 O2 1_555 1_555
C25 C24 1_555 1_555
C26 H15 1_555 1_555
C27 C21 1_555 1_555
C28 C21 1_555 1_555
H16 C28 1_555 1_555
C29 C25 1_555 1_555
H17 C29 1_555 1_555
C30 C24 1_555 1_555
H18 C30 1_555 1_555
C31 N3 1_555 1_555
C32 C29 1_555 1_555
H19 C32 1_555 1_555
C33 C26 1_555 1_555
H20 C33 1_555 1_555
C34 H21 1_555 1_555
C35 C33 1_555 1_555
C36 C22 1_555 1_555
H22 C36 1_555 1_555
C37 C25 1_555 1_555
H23 C37 1_555 1_555
C38 C32 1_555 1_555
H24 C38 1_555 1_555
C39 C37 1_555 1_555
H25 C39 1_555 1_555
C40 C35 1_555 1_555
H26 C40 1_555 1_555
H27 C40 1_555 1_555
H28 C40 1_555 1_555
N2 C6 1_555 1_555
C9 C12 1_555 1_555
C11 C14 1_555 1_555
C17 C18 1_555 1_555
C17 C19 1_555 1_555
N4 C31 1_555 1_555
C22 C28 1_555 1_555
C28 C30 1_555 1_555
C34 C35 1_555 1_555
C34 C36 1_555 1_555
C38 C39 1_555 1_555

#END
