
#######################################################################
#
#                 Cambridge Crystallographic Data Centre
#                                CCDC 
#
#######################################################################
#
# If this CIF has been generated from an entry in the Cambridge 
# Structural Database, then it will include bibliographic, chemical, 
# crystal, experimental, refinement or atomic coordinate data resulting 
# from the CCDC's data processing and validation procedures.
#
#######################################################################

data_MEYREN
_chemical_compound_source        'seeds of Caesalpinia minax Hance'
_chemical_name_common            'Caesalmin D methanol solvate'
_chemical_formula_moiety         'C26 H36 O9,C1 H4 O1'
_chemical_name_systematic        
'5\a,14\a-Dihydroxy-1\a,6\a,7\b-triacetoxyvouacapane methanol solvate'
_chemical_properties_biological  'significant activity against the Para3 virus'
_symmetry_cell_setting           orthorhombic
_symmetry_space_group_name_H-M   'P 21 21 21'
_symmetry_Int_Tables_number      19
_space_group_name_Hall           'P 2ac 2ab'
loop_
_symmetry_equiv_pos_site_id
_symmetry_equiv_pos_as_xyz
1 x,y,z
2 1/2-x,-y,1/2+z
3 -x,1/2+y,1/2-z
4 1/2+x,1/2-y,-z
_cell_length_a                   10.921(2)
_cell_length_b                   11.175(2)
_cell_length_c                   21.584(4)
_cell_angle_alpha                90
_cell_angle_beta                 90
_cell_angle_gamma                90
_cell_volume                     2634.16
_exptl_crystal_colour            colorless
_exptl_crystal_description       block
_chemical_melting_point          '192-193 deg.C'
_cell_formula_units_Z            4
loop_
_atom_site_label
_atom_site_type_symbol
_atom_site_fract_x
_atom_site_fract_y
_atom_site_fract_z
O1 O 0.67241(16) 0.03387(17) 0.02280(8)
O2 O 0.5538(3) -0.0780(2) 0.08490(12)
O3 O 0.84660(17) 0.15409(15) -0.06361(8)
H1 H 0.7824 0.1721 -0.0463
O4 O 0.97706(16) 0.11573(15) -0.17348(7)
O5 O 1.0418(2) -0.01609(19) -0.24584(8)
O6 O 1.15407(16) -0.06156(16) -0.11604(8)
O7 O 1.26823(19) 0.0891(2) -0.15486(9)
O8 O 1.11177(18) 0.15240(16) 0.03066(8)
H2 H 1.0526 0.1640 0.0533
O9 O 1.0188(2) -0.14449(19) 0.16062(8)
C1 C 0.6909(2) -0.0695(2) -0.01775(12)
H4 H 0.6841 -0.1429 0.0068
C2 C 0.5900(2) -0.0679(3) -0.06608(13)
H5 H 0.5970 -0.1381 -0.0923
H6 H 0.5109 -0.0705 -0.0457
C3 C 0.5982(3) 0.0432(3) -0.10543(13)
H7 H 0.5893 0.1126 -0.0788
H8 H 0.5302 0.0435 -0.1343
C4 C 0.7189(2) 0.0557(3) -0.14249(12)
C5 C 0.8311(2) 0.0427(2) -0.09590(11)
C6 C 0.9541(2) 0.0211(2) -0.12860(10)
H9 H 0.9496 -0.0553 -0.1507
C7 C 1.0650(2) 0.0176(2) -0.08480(11)
H10 H 1.0998 0.0981 -0.0811
C8 C 1.0486(2) -0.0362(2) -0.02019(11)
H11 H 1.0749 -0.1199 -0.0230
C9 C 0.9162(2) -0.0376(2) 0.00505(10)
H12 H 0.8991 0.0423 0.0216
C10 C 0.8201(2) -0.0629(2) -0.04647(11)
C11 C 0.9100(3) -0.1267(3) 0.05989(12)
H13 H 0.8339 -0.1165 0.0825
H14 H 0.9141 -0.2084 0.0448
C12 C 1.0168(3) -0.1005(3) 0.10105(11)
C13 C 1.1153(3) -0.0343(3) 0.08966(12)
C14 C 1.1367(2) 0.0264(3) 0.02743(12)
C15 C 1.1872(3) -0.0341(3) 0.14519(13)
H15 H 1.2617 0.0043 0.1516
C16 C 1.1245(3) -0.1010(3) 0.18618(14)
H16 H 1.1498 -0.1158 0.2266
C17 C 1.2709(3) 0.0185(3) 0.00840(13)
H17 H 1.3206 0.0582 0.0388
H18 H 1.2818 0.0563 -0.0311
H19 H 1.2947 -0.0640 0.0056
C18 C 0.7154(3) 0.1793(3) -0.17304(14)
H20 H 0.6466 0.1837 -0.2006
H21 H 0.7896 0.1918 -0.1960
H22 H 0.7078 0.2397 -0.1417
C19 C 0.7194(3) -0.0380(3) -0.19519(13)
H23 H 0.6495 -0.0256 -0.2214
H24 H 0.7159 -0.1170 -0.1777
H25 H 0.7929 -0.0297 -0.2191
C20 C 0.8428(3) -0.1887(2) -0.07483(12)
H26 H 0.8351 -0.2484 -0.0431
H27 H 0.9237 -0.1918 -0.0921
H28 H 0.7837 -0.2037 -0.1068
C21 C 0.5974(3) 0.0181(3) 0.07230(13)
C22 C 0.5721(3) 0.1310(3) 0.10507(15)
H29 H 0.5185 0.1158 0.1395
H30 H 0.5337 0.1864 0.0772
H31 H 0.6475 0.1645 0.1200
C23 C 1.0201(3) 0.0852(3) -0.23035(12)
C24 C 1.0369(3) 0.1921(3) -0.27017(13)
H32 H 1.0670 0.1678 -0.3100
H33 H 1.0946 0.2455 -0.2512
H34 H 0.9598 0.2323 -0.2751
C25 C 1.2455(2) -0.0161(3) -0.15029(11)
C26 C 1.3132(3) -0.1150(3) -0.18206(14)
H35 H 1.3787 -0.0819 -0.2063
H36 H 1.2582 -0.1579 -0.2087
H37 H 1.3463 -0.1686 -0.1516
O10 O 1.4025(3) 0.2933(2) -0.10830(10)
H3 H 1.3724 0.2261 -0.1094
C27 C 1.3961(4) 0.3460(3) -0.16789(16)
H38 H 1.3670 0.4267 -0.1643
H39 H 1.3408 0.3008 -0.1934
H40 H 1.4760 0.3460 -0.1864
loop_
_geom_bond_atom_site_label_1
_geom_bond_atom_site_label_2
_geom_bond_site_symmetry_1
_geom_bond_site_symmetry_2
O1 C1 1_555 1_555
O2 C21 1_555 1_555
O3 H1 1_555 1_555
O4 C6 1_555 1_555
O5 C23 1_555 1_555
O6 C7 1_555 1_555
O7 C25 1_555 1_555
O8 H2 1_555 1_555
O9 C12 1_555 1_555
O10 H3 1_555 1_555
C1 H4 1_555 1_555
C2 C1 1_555 1_555
H5 C2 1_555 1_555
H6 C2 1_555 1_555
C3 C2 1_555 1_555
H7 C3 1_555 1_555
H8 C3 1_555 1_555
C4 C3 1_555 1_555
C5 O3 1_555 1_555
C6 C5 1_555 1_555
H9 C6 1_555 1_555
C7 C6 1_555 1_555
H10 C7 1_555 1_555
C8 C7 1_555 1_555
H11 C8 1_555 1_555
C9 C8 1_555 1_555
H12 C9 1_555 1_555
C10 C1 1_555 1_555
C11 C9 1_555 1_555
H13 C11 1_555 1_555
H14 C11 1_555 1_555
C12 C11 1_555 1_555
C13 C12 1_555 1_555
C14 O8 1_555 1_555
C15 C13 1_555 1_555
H15 C15 1_555 1_555
C16 O9 1_555 1_555
H16 C16 1_555 1_555
C17 C14 1_555 1_555
H17 C17 1_555 1_555
H18 C17 1_555 1_555
H19 C17 1_555 1_555
C18 C4 1_555 1_555
H20 C18 1_555 1_555
H21 C18 1_555 1_555
H22 C18 1_555 1_555
C19 C4 1_555 1_555
H23 C19 1_555 1_555
H24 C19 1_555 1_555
H25 C19 1_555 1_555
C20 C10 1_555 1_555
H26 C20 1_555 1_555
H27 C20 1_555 1_555
H28 C20 1_555 1_555
C21 O1 1_555 1_555
C22 C21 1_555 1_555
H29 C22 1_555 1_555
H30 C22 1_555 1_555
H31 C22 1_555 1_555
C23 O4 1_555 1_555
C24 C23 1_555 1_555
H32 C24 1_555 1_555
H33 C24 1_555 1_555
H34 C24 1_555 1_555
C25 O6 1_555 1_555
C26 C25 1_555 1_555
H35 C26 1_555 1_555
H36 C26 1_555 1_555
H37 C26 1_555 1_555
C27 O10 1_555 1_555
H38 C27 1_555 1_555
H39 C27 1_555 1_555
H40 C27 1_555 1_555
C4 C5 1_555 1_555
C5 C10 1_555 1_555
C8 C14 1_555 1_555
C9 C10 1_555 1_555
C13 C14 1_555 1_555
C15 C16 1_555 1_555

#END
