
#######################################################################
#
#                 Cambridge Crystallographic Data Centre
#                                CCDC 
#
#######################################################################
#
# If this CIF has been generated from an entry in the Cambridge 
# Structural Database, then it will include bibliographic, chemical, 
# crystal, experimental, refinement or atomic coordinate data resulting 
# from the CCDC's data processing and validation procedures.
#
#######################################################################

data_MEYRIR
_chemical_compound_source        'seeds of Caesalpinia minax Hance'
_chemical_name_common            'Caesalmin D monohydrate'
_chemical_formula_moiety         'C26 H36 O9,H2 O1'
_chemical_name_systematic        
'5\a,14\a-Dihydroxy-1\a,6\a,7\b-triacetoxyvouacapane monohydrate'
_chemical_properties_biological  'significant activity against the Para3 virus'
_symmetry_cell_setting           orthorhombic
_symmetry_space_group_name_H-M   'P 21 21 21'
_symmetry_Int_Tables_number      19
_space_group_name_Hall           'P 2ac 2ab'
loop_
_symmetry_equiv_pos_site_id
_symmetry_equiv_pos_as_xyz
1 x,y,z
2 1/2-x,-y,1/2+z
3 -x,1/2+y,1/2-z
4 1/2+x,1/2-y,-z
_cell_length_a                   21.2009(8)
_cell_length_b                   10.8654(4)
_cell_length_c                   11.1099(4)
_cell_angle_alpha                90
_cell_angle_beta                 90
_cell_angle_gamma                90
_cell_volume                     2559.24
_exptl_crystal_colour            colorless
_exptl_crystal_description       plate
_chemical_melting_point          '178-180 deg.C'
_cell_formula_units_Z            4
loop_
_atom_site_label
_atom_site_type_symbol
_atom_site_fract_x
_atom_site_fract_y
_atom_site_fract_z
O1 O 0.3764(2) 0.3943(5) 0.3045(5)
O2 O 0.47854(8) 0.15913(15) 0.46474(17)
O3 O 0.41616(12) 0.0403(3) 0.5779(2)
O4 O 0.56614(8) 0.33336(16) 0.34379(14)
H1 H 0.5488 0.2681 0.3270
O5 O 0.67569(7) 0.46971(15) 0.38322(14)
O6 O 0.74768(8) 0.5401(2) 0.51499(18)
O7 O 0.61558(8) 0.64662(15) 0.55962(16)
O8 O 0.65616(10) 0.75980(18) 0.40893(19)
O9 O 0.46802(9) 0.59941(18) 0.34325(17)
H2 H 0.4444 0.5411 0.3305
O10 O 0.33591(9) 0.5011(2) 0.6408(2)
C1 C 0.51995(12) 0.1780(2) 0.5681(2)
H3 H 0.4948 0.1708 0.6419
C2 C 0.56907(13) 0.0782(2) 0.5680(2)
H4 H 0.5486 -0.0016 0.5694
H5 H 0.5950 0.0852 0.6396
C3 C 0.61053(13) 0.0878(2) 0.4569(3)
H6 H 0.5843 0.0784 0.3859
H7 H 0.6406 0.0205 0.4576
C4 C 0.64688(12) 0.2099(2) 0.4472(2)
C5 C 0.59882(11) 0.3210(2) 0.4569(2)
C6 C 0.63038(10) 0.4454(2) 0.4780(2)
H8 H 0.6530 0.4421 0.5549
C7 C 0.58535(11) 0.5557(2) 0.4806(2)
H9 H 0.5816 0.5900 0.3993
C8 C 0.51926(11) 0.5376(2) 0.5337(2)
H10 H 0.5215 0.5639 0.6179
C9 C 0.49518(10) 0.4035(2) 0.5346(2)
H11 H 0.4793 0.3855 0.4536
C10 C 0.54777(11) 0.3091(2) 0.5618(2)
C11 C 0.43817(12) 0.3953(3) 0.6218(3)
H12 H 0.4157 0.3185 0.6097
H13 H 0.4526 0.3985 0.7046
C12 C 0.39634(11) 0.5005(3) 0.5960(3)
C13 C 0.40748(11) 0.6009(2) 0.5307(3)
C14 C 0.47023(12) 0.6240(2) 0.4707(2)
C15 C 0.35071(13) 0.6721(3) 0.5321(3)
H14 H 0.3439 0.7470 0.4937
C16 C 0.30967(14) 0.6099(3) 0.5991(3)
H15 H 0.2688 0.6360 0.6158
C17 C 0.48868(14) 0.7597(3) 0.4781(3)
H16 H 0.4572 0.8087 0.4386
H17 H 0.5287 0.7717 0.4393
H18 H 0.4917 0.7839 0.5610
C18 C 0.67973(15) 0.2079(3) 0.3228(3)
H19 H 0.7088 0.1401 0.3196
H20 H 0.7022 0.2836 0.3110
H21 H 0.6486 0.1986 0.2608
C19 C 0.69985(13) 0.2125(3) 0.5424(3)
H22 H 0.7270 0.1428 0.5312
H23 H 0.6816 0.2094 0.6214
H24 H 0.7238 0.2869 0.5339
C20 C 0.57578(13) 0.3335(3) 0.6886(2)
H25 H 0.5432 0.3251 0.7481
H26 H 0.5927 0.4154 0.6917
H27 H 0.6087 0.2752 0.7046
C21 C 0.42811(13) 0.0855(3) 0.4823(3)
C22 C 0.39228(16) 0.0664(3) 0.3697(3)
H28 H 0.3569 0.0135 0.3852
H29 H 0.4192 0.0289 0.3106
H30 H 0.3775 0.1442 0.3401
C23 C 0.73228(11) 0.5169(2) 0.4138(2)
C24 C 0.77179(13) 0.5392(3) 0.3050(3)
H31 H 0.8117 0.5731 0.3289
H32 H 0.7506 0.5960 0.2526
H33 H 0.7785 0.4629 0.2634
C25 C 0.65067(12) 0.7380(2) 0.5143(3)
C26 C 0.68167(14) 0.8069(3) 0.6139(3)
H34 H 0.7070 0.8719 0.5810
H35 H 0.7080 0.7519 0.6593
H36 H 0.6500 0.8413 0.6658
loop_
_geom_bond_atom_site_label_1
_geom_bond_atom_site_label_2
_geom_bond_site_symmetry_1
_geom_bond_site_symmetry_2
O2 C1 1_555 1_555
O3 C21 1_555 1_555
O4 H1 1_555 1_555
O5 C6 1_555 1_555
O6 C23 1_555 1_555
O7 C7 1_555 1_555
O8 C25 1_555 1_555
O9 H2 1_555 1_555
O10 C12 1_555 1_555
C1 H3 1_555 1_555
C2 C1 1_555 1_555
H4 C2 1_555 1_555
H5 C2 1_555 1_555
C3 C2 1_555 1_555
H6 C3 1_555 1_555
H7 C3 1_555 1_555
C4 C3 1_555 1_555
C5 O4 1_555 1_555
C6 C5 1_555 1_555
H8 C6 1_555 1_555
C7 C6 1_555 1_555
H9 C7 1_555 1_555
C8 C7 1_555 1_555
H10 C8 1_555 1_555
C9 C8 1_555 1_555
H11 C9 1_555 1_555
C10 C1 1_555 1_555
C11 C9 1_555 1_555
H12 C11 1_555 1_555
H13 C11 1_555 1_555
C12 C11 1_555 1_555
C13 C12 1_555 1_555
C14 O9 1_555 1_555
C15 C13 1_555 1_555
H14 C15 1_555 1_555
C16 O10 1_555 1_555
H15 C16 1_555 1_555
C17 C14 1_555 1_555
H16 C17 1_555 1_555
H17 C17 1_555 1_555
H18 C17 1_555 1_555
C18 C4 1_555 1_555
H19 C18 1_555 1_555
H20 C18 1_555 1_555
H21 C18 1_555 1_555
C19 C4 1_555 1_555
H22 C19 1_555 1_555
H23 C19 1_555 1_555
H24 C19 1_555 1_555
C20 C10 1_555 1_555
H25 C20 1_555 1_555
H26 C20 1_555 1_555
H27 C20 1_555 1_555
C21 O2 1_555 1_555
C22 C21 1_555 1_555
H28 C22 1_555 1_555
H29 C22 1_555 1_555
H30 C22 1_555 1_555
C23 O5 1_555 1_555
C24 C23 1_555 1_555
H31 C24 1_555 1_555
H32 C24 1_555 1_555
H33 C24 1_555 1_555
C25 O7 1_555 1_555
C26 C25 1_555 1_555
H34 C26 1_555 1_555
H35 C26 1_555 1_555
H36 C26 1_555 1_555
C4 C5 1_555 1_555
C5 C10 1_555 1_555
C8 C14 1_555 1_555
C9 C10 1_555 1_555
C13 C14 1_555 1_555
C15 C16 1_555 1_555

#END
