
#######################################################################
#
#                 Cambridge Crystallographic Data Centre
#                                CCDC 
#
#######################################################################
#
# If this CIF has been generated from an entry in the Cambridge 
# Structural Database, then it will include bibliographic, chemical, 
# crystal, experimental, refinement or atomic coordinate data resulting 
# from the CCDC's data processing and validation procedures.
#
#######################################################################

data_MEYSEO
_chemical_compound_source        'seeds of Caesalpinia minax Hance'
_chemical_formula_moiety         'C29 H48 O1,0.5(H2 O1)'
_chemical_name_systematic        'Stigmasterol hemihydrate'
_chemical_properties_biological  'moderate activity against the Para3 virus'
_symmetry_cell_setting           orthorhombic
_symmetry_space_group_name_H-M   'P 21 21 21'
_symmetry_Int_Tables_number      19
_space_group_name_Hall           'P 2ac 2ab'
loop_
_symmetry_equiv_pos_site_id
_symmetry_equiv_pos_as_xyz
1 x,y,z
2 1/2-x,-y,1/2+z
3 -x,1/2+y,1/2-z
4 1/2+x,1/2-y,-z
_cell_length_a                   9.5737(11)
_cell_length_b                   74.144(8)
_cell_length_c                   7.5420(8)
_cell_angle_alpha                90
_cell_angle_beta                 90
_cell_angle_gamma                90
_cell_volume                     5353.56
_exptl_crystal_colour            colorless
_exptl_crystal_description       plate
_cell_formula_units_Z            8
_exptl_crystal_recrystallization_method acetone
loop_
_atom_site_label
_atom_site_type_symbol
_atom_site_fract_x
_atom_site_fract_y
_atom_site_fract_z
O1 O 0.6227(8) 0.50801(10) -0.3132(12)
O2 O 0.4649(8) 0.50719(7) 0.0454(10)
H1 H 0.5222 0.5115 0.1140
C1 C 0.4476(8) 0.46159(9) 0.2634(10)
H2 H 0.4354 0.4579 0.3857
H3 H 0.5389 0.4574 0.2255
C2 C 0.4470(10) 0.48201(10) 0.2577(10)
H4 H 0.5227 0.4867 0.3293
H5 H 0.3595 0.4866 0.3044
C3 C 0.4651(10) 0.48791(10) 0.0626(12)
H6 H 0.5546 0.4833 0.0189
C4 C 0.3502(10) 0.48024(9) -0.0488(11)
H7 H 0.3644 0.4839 -0.1710
H8 H 0.2618 0.4852 -0.0096
C5 C 0.3424(8) 0.45961(10) -0.0400(10)
C6 C 0.3438(8) 0.44963(11) -0.1832(10)
H9 H 0.3506 0.4556 -0.2911
C7 C 0.3356(8) 0.42999(10) -0.1892(9)
H10 H 0.4259 0.4252 -0.2230
H11 H 0.2684 0.4264 -0.2789
C8 C 0.2917(7) 0.42184(9) -0.0075(8)
H12 H 0.1911 0.4238 0.0074
C9 C 0.3668(7) 0.43148(9) 0.1430(9)
H13 H 0.4667 0.4304 0.1169
C10 C 0.3368(7) 0.45200(9) 0.1504(9)
C11 C 0.3448(9) 0.42201(10) 0.3219(10)
H14 H 0.2510 0.4245 0.3637
H15 H 0.4099 0.4270 0.4076
C12 C 0.3654(8) 0.40135(10) 0.3123(10)
H16 H 0.4629 0.3988 0.2885
H17 H 0.3424 0.3961 0.4266
C13 C 0.2778(7) 0.39256(9) 0.1729(9)
C14 C 0.3187(7) 0.40192(9) -0.0024(8)
H18 H 0.4204 0.4007 -0.0101
C15 C 0.2606(9) 0.38966(10) -0.1500(9)
H19 H 0.1641 0.3926 -0.1761
H20 H 0.3154 0.3908 -0.2576
C16 C 0.2723(10) 0.37061(11) -0.0743(10)
H21 H 0.3434 0.3639 -0.1375
H22 H 0.1840 0.3643 -0.0865
C17 C 0.3124(8) 0.37235(9) 0.1257(9)
H23 H 0.4141 0.3710 0.1331
C18 C 0.1239(7) 0.39439(10) 0.2108(11)
H24 H 0.1029 0.4067 0.2396
H25 H 0.0992 0.3868 0.3088
H26 H 0.0715 0.3909 0.1079
C19 C 0.1898(8) 0.45602(11) 0.2270(11)
H27 H 0.1204 0.4500 0.1566
H28 H 0.1733 0.4688 0.2248
H29 H 0.1848 0.4517 0.3469
C20 C 0.2485(10) 0.35726(10) 0.2408(10)
H30 H 0.1467 0.3586 0.2353
C21 C 0.2905(11) 0.35898(11) 0.4332(11)
H31 H 0.2622 0.3706 0.4773
H32 H 0.3900 0.3578 0.4434
H33 H 0.2458 0.3497 0.5011
C22 C 0.2838(12) 0.33932(11) 0.1624(14)
H34 H 0.3740 0.3370 0.1225
C23 C 0.1846(17) 0.32650(19) 0.150(2)
H35 H 0.0955 0.3294 0.1894
C24 C 0.2063(16) 0.30753(17) 0.075(2)
H36 H 0.3025 0.3083 0.0313
C25 C 0.124(2) 0.3049(2) -0.099(3)
H37 H 0.0250 0.3062 -0.0681
C26 C 0.144(3) 0.2841(4) -0.166(4)
H38 H 0.0894 0.2822 -0.2708
H39 H 0.1136 0.2760 -0.0744
H40 H 0.2408 0.2820 -0.1915
C27 C 0.153(3) 0.3186(3) -0.229(4)
H41 H 0.1328 0.3303 -0.1801
H42 H 0.0969 0.3166 -0.3323
H43 H 0.2504 0.3181 -0.2613
C28 C 0.223(4) 0.2923(4) 0.248(5)
H44 H 0.2462 0.2801 0.2110
H45 H 0.2837 0.2963 0.3435
C29 C 0.067(4) 0.2956(5) 0.280(6)
H46 H 0.0363 0.2884 0.3786
H47 H 0.0155 0.2923 0.1759
H48 H 0.0522 0.3081 0.3054
O3 O 0.8251(6) 0.48268(7) 0.8042(8)
H49 H 0.7632 0.4895 0.7709
C30 C 0.7286(8) 0.43816(8) 0.5848(10)
H50 H 0.6326 0.4372 0.6247
H51 H 0.7317 0.4345 0.4614
C31 C 0.7756(9) 0.45812(9) 0.5996(10)
H52 H 0.8679 0.4594 0.5482
H53 H 0.7116 0.4657 0.5331
C32 C 0.7786(9) 0.46398(9) 0.7831(10)
H54 H 0.6836 0.4630 0.8306
C33 C 0.8715(9) 0.45251(10) 0.8941(10)
H55 H 0.8656 0.4564 1.0168
H56 H 0.9675 0.4540 0.8553
C34 C 0.8300(7) 0.43272(9) 0.8802(8)
C35 C 0.8054(8) 0.42292(9) 1.0305(9)
H57 H 0.8110 0.4285 1.1405
C36 C 0.7696(8) 0.40326(10) 1.0208(9)
H58 H 0.8201 0.3970 1.1139
H59 H 0.6707 0.4019 1.0452
C37 C 0.8009(7) 0.39426(8) 0.8492(8)
H60 H 0.9025 0.3931 0.8387
C38 C 0.7493(7) 0.40609(8) 0.6959(8)
H61 H 0.6496 0.4082 0.7176
C39 C 0.8200(7) 0.42524(8) 0.6945(8)
C40 C 0.7586(9) 0.39654(8) 0.5203(9)
H62 H 0.8562 0.3957 0.4865
H63 H 0.7115 0.4038 0.4317
C41 C 0.6956(9) 0.37747(9) 0.5170(10)
H64 H 0.7104 0.3721 0.4013
H65 H 0.5958 0.3781 0.5380
C42 C 0.7644(7) 0.36567(9) 0.6605(10)
C43 C 0.7375(8) 0.37569(9) 0.8350(9)
H66 H 0.6362 0.3775 0.8411
C44 C 0.7711(10) 0.36203(10) 0.9735(10)
H67 H 0.7195 0.3645 1.0814
H68 H 0.8701 0.3622 1.0004
C45 C 0.7290(12) 0.34376(11) 0.8980(12)
H69 H 0.6493 0.3389 0.9613
H70 H 0.8057 0.3353 0.9060
C46 C 0.6907(9) 0.34764(10) 0.6982(12)
H71 H 0.5897 0.3497 0.6911
C47 C 0.9201(8) 0.36294(10) 0.6221(12)
H72 H 0.9628 0.3744 0.5980
H73 H 0.9308 0.3552 0.5210
H74 H 0.9642 0.3575 0.7232
C48 C 0.9665(8) 0.42472(10) 0.6087(12)
H75 H 1.0256 0.4167 0.6749
H76 H 1.0060 0.4366 0.6091
H77 H 0.9588 0.4205 0.4888
C49 C 0.7266(11) 0.33083(10) 0.5837(12)
H78 H 0.8256 0.3280 0.6008
C50 C 0.7016(16) 0.33399(13) 0.3881(15)
H79 H 0.7260 0.3233 0.3229
H80 H 0.7581 0.3439 0.3484
H81 H 0.6048 0.3368 0.3689
C51 C 0.6392(14) 0.31487(12) 0.652(2)
H82 H 0.5528 0.3162 0.7065
C52 C 0.7030(19) 0.2980(2) 0.622(2)
H83 H 0.7848 0.2968 0.5568
C53 C 0.621(2) 0.2803(2) 0.714(3)
H84 H 0.5186 0.2798 0.7098
C54 C 0.705(4) 0.2750(5) 0.909(5)
H85 H 0.8010 0.2706 0.9212
C55 C 0.546(5) 0.2614(5) 0.911(6)
H86 H 0.5510 0.2525 0.8187
H87 H 0.4669 0.2690 0.8923
H88 H 0.5378 0.2555 1.0238
C56 C 0.625(6) 0.2893(6) 1.039(9)
H89 H 0.6881 0.2988 1.0714
H90 H 0.5935 0.2832 1.1437
H91 H 0.5460 0.2943 0.9778
C57 C 0.727(4) 0.2611(4) 0.605(4)
H92 H 0.8208 0.2642 0.5675
H93 H 0.7201 0.2494 0.6611
C58 C 0.605(7) 0.2661(6) 0.470(8)
H94 H 0.6141 0.2590 0.3645
H95 H 0.6110 0.2787 0.4397
H96 H 0.5161 0.2638 0.5242
loop_
_geom_bond_atom_site_label_1
_geom_bond_atom_site_label_2
_geom_bond_site_symmetry_1
_geom_bond_site_symmetry_2
O2 H1 1_555 1_555
C1 H2 1_555 1_555
H3 C1 1_555 1_555
C2 C1 1_555 1_555
H4 C2 1_555 1_555
H5 C2 1_555 1_555
C3 O2 1_555 1_555
H6 C3 1_555 1_555
C4 C3 1_555 1_555
H7 C4 1_555 1_555
H8 C4 1_555 1_555
C5 C4 1_555 1_555
C6 C5 1_555 1_555
H9 C6 1_555 1_555
C7 C6 1_555 1_555
H10 C7 1_555 1_555
H11 C7 1_555 1_555
C8 C7 1_555 1_555
H12 C8 1_555 1_555
C9 C8 1_555 1_555
H13 C9 1_555 1_555
C10 C1 1_555 1_555
C11 C9 1_555 1_555
H14 C11 1_555 1_555
H15 C11 1_555 1_555
C12 C11 1_555 1_555
H16 C12 1_555 1_555
H17 C12 1_555 1_555
C13 C12 1_555 1_555
C14 C8 1_555 1_555
H18 C14 1_555 1_555
C15 C14 1_555 1_555
H19 C15 1_555 1_555
H20 C15 1_555 1_555
C16 C15 1_555 1_555
H21 C16 1_555 1_555
H22 C16 1_555 1_555
C17 C13 1_555 1_555
H23 C17 1_555 1_555
C18 C13 1_555 1_555
H24 C18 1_555 1_555
H25 C18 1_555 1_555
H26 C18 1_555 1_555
C19 C10 1_555 1_555
H27 C19 1_555 1_555
H28 C19 1_555 1_555
H29 C19 1_555 1_555
C20 C17 1_555 1_555
H30 C20 1_555 1_555
C21 C20 1_555 1_555
H31 C21 1_555 1_555
H32 C21 1_555 1_555
H33 C21 1_555 1_555
C22 C20 1_555 1_555
H34 C22 1_555 1_555
C23 C22 1_555 1_555
H35 C23 1_555 1_555
C24 C23 1_555 1_555
H36 C24 1_555 1_555
C25 C24 1_555 1_555
H37 C25 1_555 1_555
C26 C25 1_555 1_555
H38 C26 1_555 1_555
H39 C26 1_555 1_555
H40 C26 1_555 1_555
C27 C25 1_555 1_555
H41 C27 1_555 1_555
H42 C27 1_555 1_555
H43 C27 1_555 1_555
C28 C24 1_555 1_555
H44 C28 1_555 1_555
H45 C28 1_555 1_555
C29 C28 1_555 1_555
H46 C29 1_555 1_555
H47 C29 1_555 1_555
H48 C29 1_555 1_555
O3 H49 1_555 1_555
C30 H50 1_555 1_555
H51 C30 1_555 1_555
C31 C30 1_555 1_555
H52 C31 1_555 1_555
H53 C31 1_555 1_555
C32 O3 1_555 1_555
H54 C32 1_555 1_555
C33 C32 1_555 1_555
H55 C33 1_555 1_555
H56 C33 1_555 1_555
C34 C33 1_555 1_555
C35 C34 1_555 1_555
H57 C35 1_555 1_555
C36 C35 1_555 1_555
H58 C36 1_555 1_555
H59 C36 1_555 1_555
C37 C36 1_555 1_555
H60 C37 1_555 1_555
C38 C37 1_555 1_555
H61 C38 1_555 1_555
C39 C30 1_555 1_555
C40 C38 1_555 1_555
H62 C40 1_555 1_555
H63 C40 1_555 1_555
C41 C40 1_555 1_555
H64 C41 1_555 1_555
H65 C41 1_555 1_555
C42 C41 1_555 1_555
C43 C37 1_555 1_555
H66 C43 1_555 1_555
C44 C43 1_555 1_555
H67 C44 1_555 1_555
H68 C44 1_555 1_555
C45 C44 1_555 1_555
H69 C45 1_555 1_555
H70 C45 1_555 1_555
C46 C42 1_555 1_555
H71 C46 1_555 1_555
C47 C42 1_555 1_555
H72 C47 1_555 1_555
H73 C47 1_555 1_555
H74 C47 1_555 1_555
C48 C39 1_555 1_555
H75 C48 1_555 1_555
H76 C48 1_555 1_555
H77 C48 1_555 1_555
C49 C46 1_555 1_555
H78 C49 1_555 1_555
C50 C49 1_555 1_555
H79 C50 1_555 1_555
H80 C50 1_555 1_555
H81 C50 1_555 1_555
C51 C49 1_555 1_555
H82 C51 1_555 1_555
C52 C51 1_555 1_555
H83 C52 1_555 1_555
C53 C52 1_555 1_555
H84 C53 1_555 1_555
C54 C53 1_555 1_555
H85 C54 1_555 1_555
C55 C54 1_555 1_555
H86 C55 1_555 1_555
H87 C55 1_555 1_555
H88 C55 1_555 1_555
C56 C54 1_555 1_555
H89 C56 1_555 1_555
H90 C56 1_555 1_555
H91 C56 1_555 1_555
C57 C53 1_555 1_555
H92 C57 1_555 1_555
H93 C57 1_555 1_555
C58 C57 1_555 1_555
H94 C58 1_555 1_555
H95 C58 1_555 1_555
H96 C58 1_555 1_555
C2 C3 1_555 1_555
C5 C10 1_555 1_555
C9 C10 1_555 1_555
C13 C14 1_555 1_555
C16 C17 1_555 1_555
C31 C32 1_555 1_555
C34 C39 1_555 1_555
C38 C39 1_555 1_555
C42 C43 1_555 1_555
C45 C46 1_555 1_555

#END
