
#######################################################################
#
#                 Cambridge Crystallographic Data Centre
#                                CCDC 
#
#######################################################################
#
# If this CIF has been generated from an entry in the Cambridge 
# Structural Database, then it will include bibliographic, chemical, 
# crystal, experimental, refinement or atomic coordinate data resulting 
# from the CCDC's data processing and validation procedures.
#
#######################################################################

data_MEYWUK
_chemical_formula_moiety         'C14 H18 O2'
_chemical_name_systematic        
1,1,1b,2-Tetramethyl-1,1a,1b,2,3,6a-hexahydrocyclopropa[a]indene-4,6-dione
_symmetry_cell_setting           orthorhombic
_symmetry_space_group_name_H-M   'P 21 21 21'
_symmetry_Int_Tables_number      19
_space_group_name_Hall           'P 2ac 2ab'
loop_
_symmetry_equiv_pos_site_id
_symmetry_equiv_pos_as_xyz
1 x,y,z
2 1/2-x,-y,1/2+z
3 -x,1/2+y,1/2-z
4 1/2+x,1/2-y,-z
_cell_length_a                   8.06899(12)
_cell_length_b                   9.64395(14)
_cell_length_c                   15.6052(3)
_cell_angle_alpha                90
_cell_angle_beta                 90
_cell_angle_gamma                90
_cell_volume                     1214.35
_exptl_crystal_colour            colorless
_exptl_crystal_description       block
_cell_formula_units_Z            4
loop_
_atom_site_label
_atom_site_type_symbol
_atom_site_fract_x
_atom_site_fract_y
_atom_site_fract_z
O1 O -0.00023(12) 0.60617(9) 0.52448(5)
O2 O -0.12305(11) 0.86400(10) 0.81688(6)
C1 C -0.00182(15) 0.71349(14) 0.65930(8)
H1 H -0.1188 0.7072 0.6648
C2 C 0.08125(16) 0.65260(13) 0.58407(8)
C3 C 0.26777(16) 0.65248(13) 0.58235(8)
H2 H 0.3051 0.7255 0.5422
H3 H 0.3056 0.5623 0.5592
C4 C 0.35318(14) 0.67634(12) 0.66903(8)
H4 H 0.3354 0.5913 0.7045
C5 C 0.27109(14) 0.79822(12) 0.71624(7)
C6 C 0.31981(15) 0.81587(13) 0.81046(8)
H5 H 0.4206 0.8730 0.8224
C7 C 0.16295(16) 0.85174(13) 0.86150(8)
H6 H 0.1646 0.9305 0.9032
C8 C 0.02132(16) 0.83506(13) 0.80295(8)
C9 C 0.08642(14) 0.77727(13) 0.71953(8)
C10 C 0.26419(16) 0.71977(13) 0.88012(8)
C11 C 0.3648(2) 0.72944(16) 0.96226(9)
H7 H 0.4080 0.8238 0.9687
H8 H 0.4574 0.6638 0.9597
H9 H 0.2939 0.7069 1.0113
C12 C 0.19047(16) 0.57729(13) 0.86649(8)
H10 H 0.2789 0.5077 0.8677
H11 H 0.1343 0.5743 0.8108
H12 H 0.1104 0.5576 0.9121
C13 C 0.30240(16) 0.93946(13) 0.67167(8)
H13 H 0.2366 1.0116 0.7000
H14 H 0.2700 0.9331 0.6113
H15 H 0.4203 0.9630 0.6756
C14 C 0.53944(14) 0.69482(14) 0.65791(8)
H16 H 0.5608 0.7736 0.6198
H17 H 0.5868 0.6105 0.6329
H18 H 0.5905 0.7122 0.7139
loop_
_geom_bond_atom_site_label_1
_geom_bond_atom_site_label_2
_geom_bond_site_symmetry_1
_geom_bond_site_symmetry_2
O1 C2 1_555 1_555
O2 C8 1_555 1_555
C1 H1 1_555 1_555
C2 C1 1_555 1_555
C3 C2 1_555 1_555
H2 C3 1_555 1_555
H3 C3 1_555 1_555
C4 C3 1_555 1_555
H4 C4 1_555 1_555
C5 C4 1_555 1_555
C6 C5 1_555 1_555
H5 C6 1_555 1_555
C7 C6 1_555 1_555
H6 C7 1_555 1_555
C8 C7 1_555 1_555
C9 C1 1_555 1_555
C10 C6 1_555 1_555
C11 C10 1_555 1_555
H7 C11 1_555 1_555
H8 C11 1_555 1_555
H9 C11 1_555 1_555
C12 C10 1_555 1_555
H10 C12 1_555 1_555
H11 C12 1_555 1_555
H12 C12 1_555 1_555
C13 C5 1_555 1_555
H13 C13 1_555 1_555
H14 C13 1_555 1_555
H15 C13 1_555 1_555
C14 C4 1_555 1_555
H16 C14 1_555 1_555
H17 C14 1_555 1_555
H18 C14 1_555 1_555
C5 C9 1_555 1_555
C7 C10 1_555 1_555
C8 C9 1_555 1_555

#END
