
#######################################################################
#
#                 Cambridge Crystallographic Data Centre
#                                CCDC 
#
#######################################################################
#
# If this CIF has been generated from an entry in the Cambridge 
# Structural Database, then it will include bibliographic, chemical, 
# crystal, experimental, refinement or atomic coordinate data resulting 
# from the CCDC's data processing and validation procedures.
#
#######################################################################

data_MEYXOF
_chemical_formula_moiety         'C17 H22 N2 O2'
_chemical_name_systematic        
10-Butylidene-5-hydroxy-3,3-dimethyl-2,3,5,10-tetrahydro-1H-pyrazolo[1,2-b]phthalazin-1-one
_symmetry_cell_setting           monoclinic
_symmetry_space_group_name_H-M   'P 21/n'
_symmetry_Int_Tables_number      14
_space_group_name_Hall           '-P 2yn'
loop_
_symmetry_equiv_pos_site_id
_symmetry_equiv_pos_as_xyz
1 x,y,z
2 1/2-x,1/2+y,1/2-z
3 -x,-y,-z
4 1/2+x,1/2-y,1/2+z
_cell_length_a                   11.0475(3)
_cell_length_b                   8.7287(2)
_cell_length_c                   16.2757(6)
_cell_angle_alpha                90
_cell_angle_beta                 98.023(3)
_cell_angle_gamma                90
_cell_volume                     1554.11
_exptl_crystal_colour            colorless
_exptl_crystal_description       block
_cell_formula_units_Z            4
loop_
_atom_site_label
_atom_site_type_symbol
_atom_site_fract_x
_atom_site_fract_y
_atom_site_fract_z
N1 N 0.82682(11) 0.49211(14) 0.15432(7)
N2 N 0.93401(11) 0.43239(13) 0.12455(7)
O1 O 1.10925(10) 0.52150(14) 0.07976(7)
O2 O 0.74090(11) 0.60549(12) 0.02218(7)
H1 H 0.7856 0.5707 -0.0095
C1 C 0.67352(19) 0.0528(2) -0.02586(12)
H2 H 0.6617 -0.0424 -0.0514
C2 C 0.9299(2) 0.6057(2) 0.28138(11)
H3 H 0.8677 0.5741 0.3135
H4 H 0.9702 0.6954 0.3059
H5 H 0.9885 0.5247 0.2804
C3 C 0.7687(2) 0.7568(2) 0.19385(14)
H6 H 0.7332 0.7791 0.1379
H7 H 0.8005 0.8493 0.2205
H8 H 0.7074 0.7145 0.2237
C4 C 0.57831(19) 0.1547(2) -0.03018(12)
H9 H 0.5020 0.1290 -0.0584
C5 C 0.59674(15) 0.2948(2) 0.00752(11)
H10 H 0.5318 0.3632 0.0054
C6 C 0.78627(17) 0.09062(19) 0.01593(11)
H11 H 0.8496 0.0197 0.0191
C7 C 0.97039(16) 0.69055(18) 0.14106(11)
H12 H 0.9364 0.7558 0.0953
H13 H 1.0360 0.7450 0.1748
C8 C 1.02423(16) 0.18481(19) 0.11689(11)
H14 H 1.0166 0.0879 0.0929
C9 C 0.72755(14) 0.49611(17) 0.08471(10)
H15 H 0.6526 0.5221 0.1075
C10 C 0.87176(16) 0.64174(17) 0.19298(10)
C11 C 1.01533(15) 0.54233(17) 0.10987(9)
C12 C 0.71062(14) 0.33671(17) 0.04896(9)
C13 C 0.92851(14) 0.27703(16) 0.09870(9)
C14 C 0.80775(14) 0.23348(17) 0.05375(9)
C15 C 1.14211(16) 0.2163(2) 0.17061(13)
H16 H 1.1337 0.3079 0.2031
H17 H 1.2052 0.2353 0.1359
C16 C 1.1805(2) 0.0837(2) 0.22844(15)
H18 H 1.1882 -0.0075 0.1955
H19 H 1.2604 0.1058 0.2590
C17 C 1.0931(3) 0.0509(3) 0.28941(15)
H20 H 1.1222 -0.0351 0.3233
H21 H 1.0138 0.0279 0.2598
H22 H 1.0876 0.1391 0.3240
loop_
_geom_bond_atom_site_label_1
_geom_bond_atom_site_label_2
_geom_bond_site_symmetry_1
_geom_bond_site_symmetry_2
N1 N2 1_555 1_555
N2 C11 1_555 1_555
O1 C11 1_555 1_555
O2 H1 1_555 1_555
C1 H2 1_555 1_555
C2 H3 1_555 1_555
H4 C2 1_555 1_555
H5 C2 1_555 1_555
C3 H6 1_555 1_555
H7 C3 1_555 1_555
H8 C3 1_555 1_555
C4 C1 1_555 1_555
H9 C4 1_555 1_555
C5 C4 1_555 1_555
H10 C5 1_555 1_555
C6 C1 1_555 1_555
H11 C6 1_555 1_555
C7 H12 1_555 1_555
H13 C7 1_555 1_555
C8 H14 1_555 1_555
C9 N1 1_555 1_555
H15 C9 1_555 1_555
C10 N1 1_555 1_555
C11 C7 1_555 1_555
C12 C5 1_555 1_555
C13 N2 1_555 1_555
C14 C6 1_555 1_555
C15 C8 1_555 1_555
H16 C15 1_555 1_555
H17 C15 1_555 1_555
C16 C15 1_555 1_555
H18 C16 1_555 1_555
H19 C16 1_555 1_555
C17 C16 1_555 1_555
H20 C17 1_555 1_555
H21 C17 1_555 1_555
H22 C17 1_555 1_555
O2 C9 1_555 1_555
C2 C10 1_555 1_555
C3 C10 1_555 1_555
C7 C10 1_555 1_555
C8 C13 1_555 1_555
C9 C12 1_555 1_555
C12 C14 1_555 1_555
C13 C14 1_555 1_555

#END
