
#######################################################################
#
#                 Cambridge Crystallographic Data Centre
#                                CCDC 
#
#######################################################################
#
# If this CIF has been generated from an entry in the Cambridge 
# Structural Database, then it will include bibliographic, chemical, 
# crystal, experimental, refinement or atomic coordinate data resulting 
# from the CCDC's data processing and validation procedures.
#
#######################################################################

data_MEZFOO
_chemical_formula_moiety         'C34 H29 Cl1 N2 O9,0.5(C2 H6 O1)'
_chemical_name_systematic        
'Tetramethyl 6-(4-chlorophenyl)-8,8-dimethyl-5-oxo-6,8,9,10-tetrahydro-5H-cyclobuta[4,5]pyrrolo[3,2,1-de]pyrrolo[4,3,2-mn]acridine-8b,9,10,10a-tetracarboxylate ethanol solvate'
_symmetry_cell_setting           triclinic
_symmetry_space_group_name_H-M   'P -1'
_symmetry_Int_Tables_number      2
_space_group_name_Hall           '-P 1'
loop_
_symmetry_equiv_pos_site_id
_symmetry_equiv_pos_as_xyz
1 x,y,z
2 -x,-y,-z
_cell_length_a                   10.1026(11)
_cell_length_b                   12.2338(13)
_cell_length_c                   13.8484(14)
_cell_angle_alpha                102.226(2)
_cell_angle_beta                 100.2550(10)
_cell_angle_gamma                94.0670(10)
_cell_volume                     1635.49
_exptl_crystal_colour            red
_exptl_crystal_description       block
_cell_formula_units_Z            2
loop_
_atom_site_label
_atom_site_type_symbol
_atom_site_fract_x
_atom_site_fract_y
_atom_site_fract_z
Cl1 Cl -0.1546(5) 0.9226(4) 1.9077(3)
N1 N 0.5001(8) 0.7451(7) 1.4094(6)
N2 N 0.2379(8) 0.8800(7) 1.6373(6)
O1 O 0.4166(8) 1.0081(7) 1.7393(5)
O2 O 0.5886(7) 0.5142(6) 1.2293(5)
O3 O 0.6904(8) 0.5864(6) 1.3907(6)
O4 O 0.3881(7) 0.4564(6) 1.3527(5)
O5 O 0.2549(8) 0.4147(6) 1.1990(5)
O6 O 0.1336(8) 0.6236(6) 1.0612(6)
O7 O 0.2099(8) 0.7934(7) 1.1598(6)
O8 O 0.5360(8) 0.6908(7) 1.0610(6)
O9 O 0.7023(8) 0.7303(7) 1.1942(6)
C1 C 0.3690(10) 0.7401(8) 1.4257(7)
C2 C 0.2734(9) 0.6707(8) 1.3584(7)
C3 C 0.1301(10) 0.6529(8) 1.3834(7)
C4 C 0.1172(10) 0.7316(8) 1.4817(7)
H1 H 0.0329 0.7314 1.4999
C5 C 0.2210(10) 0.8012(9) 1.5433(7)
C6 C 0.3481(10) 0.8086(8) 1.5158(7)
C7 C 0.4425(10) 0.8834(8) 1.5811(7)
C8 C 0.5766(10) 0.8996(8) 1.5602(7)
C9 C 0.6003(9) 0.8308(8) 1.4685(7)
C10 C 0.7264(10) 0.8456(8) 1.4454(7)
H2 H 0.7449 0.7998 1.3878
C11 C 0.8255(11) 0.9264(9) 1.5053(8)
H3 H 0.9081 0.9374 1.4860
C12 C 0.8037(11) 0.9902(9) 1.5925(8)
H4 H 0.8734 1.0417 1.6343
C13 C 0.6771(10) 0.9797(8) 1.6207(7)
H5 H 0.6615 1.0259 1.6792
C14 C 0.3746(11) 0.9345(9) 1.6646(8)
C15 C 0.4966(10) 0.6653(8) 1.3144(7)
C16 C 0.3436(10) 0.6067(8) 1.2799(7)
C17 C 0.3397(10) 0.6416(9) 1.1746(7)
H6 H 0.3550 0.5773 1.1237
C18 C 0.4703(10) 0.7174(9) 1.2186(7)
H7 H 0.4508 0.7954 1.2385
C19 C 0.6052(11) 0.5858(9) 1.3185(8)
C20 C 0.6904(14) 0.4348(11) 1.2179(11)
H8 H 0.7793 0.4747 1.2434
H9 H 0.6819 0.3997 1.1478
H10 H 0.6765 0.3783 1.2548
C21 C 0.3236(10) 0.4816(9) 1.2695(8)
C22 C 0.3737(14) 0.3385(10) 1.3594(10)
H11 H 0.2843 0.3185 1.3694
H12 H 0.4394 0.3284 1.4152
H13 H 0.3879 0.2914 1.2981
C23 C 0.2218(11) 0.6956(10) 1.1326(8)
C24 C 0.0170(14) 0.6705(12) 1.0136(10)
H14 H -0.0290 0.7071 1.0643
H15 H -0.0438 0.6111 0.9668
H16 H 0.0470 0.7243 0.9785
C25 C 0.5839(12) 0.7122(9) 1.1578(8)
C26 C 0.6354(15) 0.6867(14) 0.9952(10)
H17 H 0.6842 0.7599 1.0067
H18 H 0.5893 0.6636 0.9260
H19 H 0.6975 0.6338 1.0098
C27 C 0.0203(11) 0.6737(10) 1.2987(8)
H20 H -0.0655 0.6725 1.3194
H21 H 0.0148 0.6157 1.2389
H22 H 0.0432 0.7456 1.2851
C28 C 0.0951(12) 0.5324(9) 1.3947(9)
H23 H 0.1619 0.5161 1.4468
H24 H 0.0939 0.4800 1.3322
H25 H 0.0076 0.5259 1.4123
C29 C 0.1458(10) 0.8915(9) 1.7033(7)
C30 C 0.0733(11) 0.7969(10) 1.7155(8)
H26 H 0.0878 0.7261 1.6812
C31 C -0.0195(11) 0.8053(10) 1.7770(8)
H27 H -0.0700 0.7412 1.7827
C32 C -0.0369(12) 0.9102(11) 1.8304(8)
C33 C 0.0349(12) 1.0067(10) 1.8215(8)
H28 H 0.0228 1.0772 1.8579
C34 C 0.1255(11) 0.9954(9) 1.7567(7)
H29 H 0.1738 1.0596 1.7491
O10 O 0.480(3) 0.860(3) 0.856(2)
H30 H 0.4599 0.8922 0.8097
C35 C 0.496(4) 0.940(4) 0.952(3)
H31 H 0.4998 1.0160 0.9417
H32 H 0.5788 0.9323 0.9957
C36 C 0.376(4) 0.916(3) 0.998(3)
H33 H 0.3028 0.9556 0.9741
H34 H 0.4010 0.9401 1.0703
H35 H 0.3465 0.8364 0.9800
loop_
_geom_bond_atom_site_label_1
_geom_bond_atom_site_label_2
_geom_bond_site_symmetry_1
_geom_bond_site_symmetry_2
Cl1 C32 1_555 1_555
N1 C1 1_555 1_555
N2 C5 1_555 1_555
O1 C14 1_555 1_555
O2 C19 1_555 1_555
O3 C19 1_555 1_555
O4 C21 1_555 1_555
O5 C21 1_555 1_555
O6 C23 1_555 1_555
O7 C23 1_555 1_555
O8 C25 1_555 1_555
O9 C25 1_555 1_555
C1 C2 1_555 1_555
C2 C3 1_555 1_555
C3 C4 1_555 1_555
C4 H1 1_555 1_555
C5 C4 1_555 1_555
C6 C1 1_555 1_555
C7 C6 1_555 1_555
C8 C7 1_555 1_555
C9 N1 1_555 1_555
C10 C9 1_555 1_555
H2 C10 1_555 1_555
C11 C10 1_555 1_555
H3 C11 1_555 1_555
C12 C11 1_555 1_555
H4 C12 1_555 1_555
C13 C8 1_555 1_555
H5 C13 1_555 1_555
C14 N2 1_555 1_555
C15 N1 1_555 1_555
C16 C2 1_555 1_555
C17 C16 1_555 1_555
H6 C17 1_555 1_555
C18 C15 1_555 1_555
H7 C18 1_555 1_555
C19 C15 1_555 1_555
C20 O2 1_555 1_555
H8 C20 1_555 1_555
H9 C20 1_555 1_555
H10 C20 1_555 1_555
C21 C16 1_555 1_555
C22 O4 1_555 1_555
H11 C22 1_555 1_555
H12 C22 1_555 1_555
H13 C22 1_555 1_555
C23 C17 1_555 1_555
C24 O6 1_555 1_555
H14 C24 1_555 1_555
H15 C24 1_555 1_555
H16 C24 1_555 1_555
C25 C18 1_555 1_555
C26 O8 1_555 1_555
H17 C26 1_555 1_555
H18 C26 1_555 1_555
H19 C26 1_555 1_555
C27 C3 1_555 1_555
H20 C27 1_555 1_555
H21 C27 1_555 1_555
H22 C27 1_555 1_555
C28 C3 1_555 1_555
H23 C28 1_555 1_555
H24 C28 1_555 1_555
H25 C28 1_555 1_555
C29 N2 1_555 1_555
C30 C29 1_555 1_555
H26 C30 1_555 1_555
C31 C30 1_555 1_555
H27 C31 1_555 1_555
C32 C31 1_555 1_555
C33 C32 1_555 1_555
H28 C33 1_555 1_555
C34 C29 1_555 1_555
H29 C34 1_555 1_555
O10 H30 1_555 1_555
C35 O10 1_555 1_555
H31 C35 1_555 1_555
H32 C35 1_555 1_555
C36 C35 1_555 1_555
H33 C36 1_555 1_555
H34 C36 1_555 1_555
H35 C36 1_555 1_555
C5 C6 1_555 1_555
C7 C14 1_555 1_555
C8 C9 1_555 1_555
C12 C13 1_555 1_555
C15 C16 1_555 1_555
C17 C18 1_555 1_555
C33 C34 1_555 1_555

#END
