
#######################################################################
#
#                 Cambridge Crystallographic Data Centre
#                                CCDC 
#
#######################################################################
#
# If this CIF has been generated from an entry in the Cambridge 
# Structural Database, then it will include bibliographic, chemical, 
# crystal, experimental, refinement or atomic coordinate data resulting 
# from the CCDC's data processing and validation procedures.
#
#######################################################################

data_MEZGOQ
_chemical_formula_moiety         'C36 H30 Br1 N5 O4 S1,C1 H2 Cl2'
_chemical_name_systematic        
"t-butyl 1-benzyl-6-bromo-2,5''-dioxo-1'',3''-diphenyl-2'-sulfanylidene-1,1'',2,5''-tetrahydro-1'H-dispiro[indole-3,5'-imidazolidine-4',4''-pyrazole]-1'-carboxylate dichloromethane solvate"
_symmetry_cell_setting           orthorhombic
_symmetry_space_group_name_H-M   'P 21 21 21'
_symmetry_Int_Tables_number      19
_space_group_name_Hall           'P 2ac 2ab'
loop_
_symmetry_equiv_pos_site_id
_symmetry_equiv_pos_as_xyz
1 x,y,z
2 1/2-x,-y,1/2+z
3 -x,1/2+y,1/2-z
4 1/2+x,1/2-y,-z
_cell_length_a                   13.1755(14)
_cell_length_b                   15.4815(16)
_cell_length_c                   19.324(2)
_cell_angle_alpha                90
_cell_angle_beta                 90
_cell_angle_gamma                90
_cell_volume                     3941.64
_exptl_crystal_colour            black
_exptl_crystal_description       block
_cell_formula_units_Z            4
loop_
_atom_site_label
_atom_site_type_symbol
_atom_site_fract_x
_atom_site_fract_y
_atom_site_fract_z
Br1 Br 0.57067(10) 0.01493(5) 0.90734(5)
S1 S 0.76961(14) 0.55627(12) 0.96713(10)
O1 O 0.4768(3) 0.5950(2) 0.8633(2)
O2 O 0.5092(3) 0.4617(2) 0.7561(2)
O3 O 0.7225(3) 0.3985(3) 0.77111(19)
C1 C 0.5787(4) 0.4048(3) 0.8657(3)
O4 O 0.8295(3) 0.4879(3) 0.8269(2)
N1 N 0.5033(3) 0.3161(3) 0.7809(2)
C2 C 0.5282(4) 0.4002(4) 0.7926(3)
C3 C 0.4472(4) 0.5265(4) 0.8835(3)
N2 N 0.5856(4) 0.4870(3) 0.9644(2)
H1 H 0.5750 0.4977 1.0075
N3 N 0.3372(4) 0.4213(3) 0.9251(3)
C4 C 0.4243(5) 0.3992(3) 0.9492(3)
C5 C 0.6750(4) 0.4999(3) 0.9330(3)
N4 N 0.3490(3) 0.4942(3) 0.8821(2)
C6 C 0.5425(4) 0.2611(3) 0.8320(3)
C7 C 0.7509(4) 0.4511(4) 0.8215(3)
N5 N 0.6716(3) 0.4568(3) 0.8706(2)
C8 C 0.5940(4) 0.3100(3) 0.8820(3)
C9 C 0.5380(5) 0.1730(4) 0.8368(3)
H2 H 0.5035 0.1401 0.8041
C10 C 0.4555(4) 0.2878(4) 0.7161(3)
H3 H 0.4867 0.2340 0.7016
H4 H 0.4689 0.3306 0.6806
C11 C 0.3422(4) 0.2746(4) 0.7217(3)
C12 C 0.5872(4) 0.1351(4) 0.8926(3)
C13 C 0.6447(4) 0.2708(4) 0.9348(3)
H5 H 0.6808 0.3033 0.9669
C14 C 0.6413(5) 0.1813(4) 0.9400(3)
H6 H 0.6757 0.1532 0.9755
C15 C 0.1659(5) 0.5161(5) 0.8784(4)
H7 H 0.1590 0.4877 0.9206
C16 C 0.7779(5) 0.3992(5) 0.7038(3)
C17 C 0.5096(4) 0.4537(3) 0.9188(3)
C18 C 0.2961(5) 0.2052(4) 0.6941(4)
H8 H 0.3351 0.1621 0.6738
C19 C 0.2714(6) 0.5731(5) 0.7891(5)
H9 H 0.3357 0.5818 0.7705
C20 C 0.1331(5) 0.2607(5) 0.7209(5)
H10 H 0.0628 0.2556 0.7209
C21 C 0.0928(7) 0.5892(6) 0.7818(6)
H11 H 0.0355 0.6084 0.7583
C22 C 0.2827(6) 0.3384(7) 0.7495(7)
H12 H 0.3130 0.3859 0.7705
C23 C 0.7770(8) 0.4887(6) 0.6746(4)
H13 H 0.7081 0.5077 0.6690
H14 H 0.8104 0.4889 0.6304
H15 H 0.8119 0.5270 0.7056
C24 C 0.0822(6) 0.5455(6) 0.8433(6)
H16 H 0.0177 0.5359 0.8613
C25 C 0.2620(4) 0.5297(4) 0.8493(3)
C26 C 0.1914(6) 0.1968(5) 0.6955(5)
H17 H 0.1613 0.1467 0.6788
C27 C 0.4356(5) 0.3253(4) 0.9978(4)
C28 C 0.1884(7) 0.6046(6) 0.7546(5)
H18 H 0.1961 0.6357 0.7138
C29 C 0.7144(7) 0.3405(7) 0.6605(4)
H19 H 0.6485 0.3657 0.6540
H20 H 0.7075 0.2858 0.6833
H21 H 0.7463 0.3324 0.6163
C30 C 0.8825(5) 0.3627(7) 0.7144(5)
H22 H 0.9189 0.3638 0.6714
H23 H 0.8772 0.3042 0.7305
H24 H 0.9180 0.3968 0.7481
C31 C 0.1780(6) 0.3327(7) 0.7466(7)
H25 H 0.1383 0.3783 0.7623
C32 C 0.3988(8) 0.1758(7) 1.0226(10)
H26 H 0.3706 0.1223 1.0121
C33 C 0.3866(6) 0.2457(5) 0.9792(6)
H27 H 0.3479 0.2415 0.9392
C34 C 0.4577(12) 0.1889(10) 1.0855(8)
H28 H 0.4673 0.1423 1.1152
C35 C 0.4881(8) 0.3342(6) 1.0582(4)
H29 H 0.5169 0.3873 1.0695
C36 C 0.4987(13) 0.2653(10) 1.1027(6)
H30 H 0.5339 0.2717 1.1441
Cl1 Cl 0.4391(9) 0.5977(7) 1.0516(4)
C37 C 0.4129(11) 0.7004(13) 1.0274(10)
H31 H 0.3634 0.6974 0.9904
H32 H 0.3799 0.7283 1.0663
Cl2 Cl 0.501(2) 0.7626(14) 1.0022(13)
loop_
_geom_bond_atom_site_label_1
_geom_bond_atom_site_label_2
_geom_bond_site_symmetry_1
_geom_bond_site_symmetry_2
Br1 C12 1_555 1_555
S1 C5 1_555 1_555
O1 C3 1_555 1_555
O2 C2 1_555 1_555
O3 C7 1_555 1_555
C1 C2 1_555 1_555
O4 C7 1_555 1_555
N1 C2 1_555 1_555
C3 N4 1_555 1_555
N2 H1 1_555 1_555
N3 C4 1_555 1_555
C4 C17 1_555 1_555
C5 N2 1_555 1_555
N4 N3 1_555 1_555
C6 N1 1_555 1_555
C7 N5 1_555 1_555
N5 C1 1_555 1_555
C8 C1 1_555 1_555
C9 C6 1_555 1_555
H2 C9 1_555 1_555
C10 N1 1_555 1_555
H3 C10 1_555 1_555
H4 C10 1_555 1_555
C11 C10 1_555 1_555
C12 C9 1_555 1_555
C13 C8 1_555 1_555
H5 C13 1_555 1_555
C14 C12 1_555 1_555
H6 C14 1_555 1_555
C15 H7 1_555 1_555
C16 O3 1_555 1_555
C17 C1 1_555 1_555
C18 C11 1_555 1_555
H8 C18 1_555 1_555
C19 H9 1_555 1_555
C20 H10 1_555 1_555
C21 H11 1_555 1_555
C22 C11 1_555 1_555
H12 C22 1_555 1_555
C23 C16 1_555 1_555
H13 C23 1_555 1_555
H14 C23 1_555 1_555
H15 C23 1_555 1_555
C24 C15 1_555 1_555
H16 C24 1_555 1_555
C25 N4 1_555 1_555
C26 C18 1_555 1_555
H17 C26 1_555 1_555
C27 C4 1_555 1_555
C28 C19 1_555 1_555
H18 C28 1_555 1_555
C29 C16 1_555 1_555
H19 C29 1_555 1_555
H20 C29 1_555 1_555
H21 C29 1_555 1_555
C30 C16 1_555 1_555
H22 C30 1_555 1_555
H23 C30 1_555 1_555
H24 C30 1_555 1_555
C31 C20 1_555 1_555
H25 C31 1_555 1_555
C32 H26 1_555 1_555
C33 C27 1_555 1_555
H27 C33 1_555 1_555
C34 C32 1_555 1_555
H28 C34 1_555 1_555
C35 C27 1_555 1_555
H29 C35 1_555 1_555
C36 C34 1_555 1_555
H30 C36 1_555 1_555
Cl1 C37 1_555 1_555
C37 H31 1_555 1_555
H32 C37 1_555 1_555
Cl2 C37 1_555 1_555
C3 C17 1_555 1_555
N2 C17 1_555 1_555
C5 N5 1_555 1_555
C6 C8 1_555 1_555
C13 C14 1_555 1_555
C15 C25 1_555 1_555
C19 C25 1_555 1_555
C20 C26 1_555 1_555
C21 C24 1_555 1_555
C21 C28 1_555 1_555
C22 C31 1_555 1_555
C32 C33 1_555 1_555
C35 C36 1_555 1_555

#END
