
#######################################################################
#
#                 Cambridge Crystallographic Data Centre
#                                CCDC 
#
#######################################################################
#
# If this CIF has been generated from an entry in the Cambridge 
# Structural Database, then it will include bibliographic, chemical, 
# crystal, experimental, refinement or atomic coordinate data resulting 
# from the CCDC's data processing and validation procedures.
#
#######################################################################

data_MEZHAA
_chemical_formula_moiety         'C12 H9 I1 N2 O4 S1'
_chemical_name_systematic        N-(4'-Iodophenylsulfonyl)-3-nitroaniline
_symmetry_cell_setting           triclinic
_symmetry_space_group_name_H-M   'P -1'
_symmetry_Int_Tables_number      2
_space_group_name_Hall           '-P 1'
loop_
_symmetry_equiv_pos_site_id
_symmetry_equiv_pos_as_xyz
1 x,y,z
2 -x,-y,-z
_cell_length_a                   7.6482(2)
_cell_length_b                   8.4274(3)
_cell_length_c                   10.8790(3)
_cell_angle_alpha                88.8029(12)
_cell_angle_beta                 75.8302(12)
_cell_angle_gamma                83.5777(11)
_cell_volume                     675.584
_exptl_crystal_colour            colorless
_exptl_crystal_description       plate
_cell_formula_units_Z            2
_exptl_crystal_recrystallization_method ethanol
loop_
_atom_site_label
_atom_site_type_symbol
_atom_site_fract_x
_atom_site_fract_y
_atom_site_fract_z
S1 S 0.27750(10) 0.10143(8) 0.17566(7)
O1 O 0.3322(3) -0.0602(2) 0.13082(19)
O2 O 0.0900(3) 0.1555(2) 0.2265(2)
N1 N 0.3571(3) 0.2100(3) 0.0539(2)
C1 C 0.2991(4) 0.3680(3) 0.0245(3)
C2 C 0.1784(4) 0.4730(3) 0.1123(3)
C3 C 0.1276(4) 0.6233(3) 0.0699(3)
N2 N -0.0049(3) 0.7306(3) 0.1592(3)
O3 O -0.0485(3) 0.6909(3) 0.2712(2)
O4 O -0.0688(3) 0.8536(3) 0.1178(2)
C4 C 0.1906(4) 0.6751(3) -0.0520(3)
C5 C 0.3137(4) 0.5689(3) -0.1371(3)
C6 C 0.3663(4) 0.4182(3) -0.0983(3)
C7 C 0.3988(4) 0.1360(3) 0.2895(3)
C8 C 0.5732(4) 0.0579(3) 0.2748(3)
C9 C 0.6775(4) 0.0921(3) 0.3552(3)
C10 C 0.6043(4) 0.2050(3) 0.4523(3)
I1 I 0.77070(3) 0.26547(2) 0.567313(17)
C11 C 0.4291(4) 0.2799(4) 0.4690(3)
C12 C 0.3243(4) 0.2443(3) 0.3881(3)
H1 H 0.4506 0.1631 -0.0024
H2 H 0.1331 0.4421 0.1976
H3 H 0.1520 0.7790 -0.0776
H4 H 0.3612 0.6009 -0.2218
H5 H 0.4501 0.3474 -0.1568
H6 H 0.6201 -0.0192 0.2091
H7 H 0.7970 0.0402 0.3451
H8 H 0.3811 0.3553 0.5357
H9 H 0.2033 0.2931 0.3998
loop_
_geom_bond_atom_site_label_1
_geom_bond_atom_site_label_2
_geom_bond_site_symmetry_1
_geom_bond_site_symmetry_2
S1 O1 1_555 1_555
O2 S1 1_555 1_555
N1 S1 1_555 1_555
C1 N1 1_555 1_555
C2 C1 1_555 1_555
C3 C2 1_555 1_555
N2 C3 1_555 1_555
O3 N2 1_555 1_555
O4 N2 1_555 1_555
C4 C3 1_555 1_555
C5 C4 1_555 1_555
C6 C1 1_555 1_555
C7 S1 1_555 1_555
C8 C7 1_555 1_555
C9 C8 1_555 1_555
C10 C9 1_555 1_555
I1 C10 1_555 1_555
C11 C10 1_555 1_555
C12 C7 1_555 1_555
H1 N1 1_555 1_555
H2 C2 1_555 1_555
H3 C4 1_555 1_555
H4 C5 1_555 1_555
H5 C6 1_555 1_555
H6 C8 1_555 1_555
H7 C9 1_555 1_555
H8 C11 1_555 1_555
H9 C12 1_555 1_555
C5 C6 1_555 1_555
C11 C12 1_555 1_555

#END
