
#######################################################################
#
#                 Cambridge Crystallographic Data Centre
#                                CCDC 
#
#######################################################################
#
# If this CIF has been generated from an entry in the Cambridge 
# Structural Database, then it will include bibliographic, chemical, 
# crystal, experimental, refinement or atomic coordinate data resulting 
# from the CCDC's data processing and validation procedures.
#
#######################################################################

data_MEZHII
_chemical_formula_moiety         'C12 H9 I1 N2 O4 S1'
_chemical_name_systematic        N-(4'-Iodophenylsulfonyl)-2-nitroaniline
_symmetry_cell_setting           triclinic
_symmetry_space_group_name_H-M   'P -1'
_symmetry_Int_Tables_number      2
_space_group_name_Hall           '-P 1'
loop_
_symmetry_equiv_pos_site_id
_symmetry_equiv_pos_as_xyz
1 x,y,z
2 -x,-y,-z
_cell_length_a                   8.1228(2)
_cell_length_b                   13.0723(2)
_cell_length_c                   14.4738(3)
_cell_angle_alpha                113.4712(11)
_cell_angle_beta                 100.7181(9)
_cell_angle_gamma                97.3706(10)
_cell_volume                     1349.76
_exptl_crystal_colour            colorless
_exptl_crystal_description       plate
_cell_formula_units_Z            4
_exptl_crystal_recrystallization_method ethanol
loop_
_atom_site_label
_atom_site_type_symbol
_atom_site_fract_x
_atom_site_fract_y
_atom_site_fract_z
S1 S 0.84857(13) 0.44387(9) 0.24485(8)
O1 O 0.8201(4) 0.3253(2) 0.1747(2)
O2 O 1.0105(4) 0.5187(3) 0.2675(2)
N1 N 0.8150(4) 0.4423(3) 0.3524(2)
C1 C 0.8160(5) 0.5373(3) 0.4423(3)
C2 C 0.7590(5) 0.5267(3) 0.5252(3)
N2 N 0.6923(4) 0.4150(3) 0.5200(3)
O3 O 0.7378(4) 0.3304(2) 0.4626(2)
O4 O 0.5953(4) 0.4094(3) 0.5747(2)
C3 C 0.7644(6) 0.6212(4) 0.6156(3)
C4 C 0.8239(6) 0.7295(4) 0.6267(3)
C5 C 0.8745(6) 0.7427(3) 0.5453(3)
C6 C 0.8715(5) 0.6498(3) 0.4549(3)
C7 C 0.6847(5) 0.5040(3) 0.2024(3)
C8 C 0.5172(5) 0.4667(3) 0.2037(3)
C9 C 0.3879(6) 0.5125(3) 0.1709(3)
C10 C 0.4255(6) 0.5921(3) 0.1326(3)
I1 I 0.22489(4) 0.65677(2) 0.07762(2)
C11 C 0.5917(6) 0.6297(4) 0.1316(3)
C12 C 0.7233(6) 0.5861(3) 0.1662(3)
H1 H 0.7944 0.3751 0.3536
H2 H 0.7266 0.6109 0.6703
H3 H 0.8303 0.7944 0.6893
H4 H 0.9122 0.8177 0.5518
H5 H 0.9074 0.6618 0.4005
H6 H 0.4923 0.4097 0.2273
H7 H 0.2742 0.4899 0.1745
H8 H 0.6156 0.6860 0.1070
H9 H 0.8377 0.6114 0.1653
S2 S 0.45171(13) 0.10296(8) 0.22612(8)
O5 O 0.5202(4) 0.2203(2) 0.2508(2)
O6 O 0.2746(4) 0.0516(2) 0.1746(2)
N3 N 0.4919(4) 0.0963(3) 0.3391(2)
C13 C 0.4299(5) -0.0059(3) 0.3476(3)
C14 C 0.5372(5) -0.0731(3) 0.3702(3)
N4 N 0.7211(5) -0.0467(3) 0.3836(3)
O7 O 0.7971(5) -0.1236(3) 0.3745(4)
O8 O 0.7951(4) 0.0507(3) 0.4049(3)
C15 C 0.4697(6) -0.1714(4) 0.3809(3)
C16 C 0.2964(6) -0.2017(4) 0.3684(3)
C17 C 0.1892(6) -0.1363(4) 0.3449(3)
C18 C 0.2558(5) -0.0395(3) 0.3347(3)
C19 C 0.5742(5) 0.0174(3) 0.1514(3)
C20 C 0.7514(6) 0.0570(4) 0.1783(3)
C21 C 0.8486(5) -0.0102(4) 0.1222(3)
C22 C 0.7654(5) -0.1162(3) 0.0375(3)
I2 I 0.91695(4) -0.21363(2) -0.04833(2)
C23 C 0.5891(5) -0.1534(3) 0.0099(3)
C24 C 0.4919(5) -0.0866(3) 0.0682(3)
H10 H 0.5528 0.1571 0.3955
H11 H 0.5437 -0.2162 0.3968
H12 H 0.2497 -0.2677 0.3757
H13 H 0.0690 -0.1580 0.3357
H14 H 0.1805 0.0045 0.3186
H15 H 0.8051 0.1296 0.2348
H16 H 0.9701 0.0148 0.1405
H17 H 0.5343 -0.2242 -0.0486
H18 H 0.3706 -0.1120 0.0509
loop_
_geom_bond_atom_site_label_1
_geom_bond_atom_site_label_2
_geom_bond_site_symmetry_1
_geom_bond_site_symmetry_2
S1 O1 1_555 1_555
O2 S1 1_555 1_555
N1 S1 1_555 1_555
C1 N1 1_555 1_555
C2 C1 1_555 1_555
N2 C2 1_555 1_555
O3 N2 1_555 1_555
O4 N2 1_555 1_555
C3 C2 1_555 1_555
C4 C3 1_555 1_555
C5 C4 1_555 1_555
C6 C1 1_555 1_555
C7 S1 1_555 1_555
C8 C7 1_555 1_555
C9 C8 1_555 1_555
C10 C9 1_555 1_555
I1 C10 1_555 1_555
C11 C10 1_555 1_555
C12 C7 1_555 1_555
S2 O5 1_555 1_555
O6 S2 1_555 1_555
N3 S2 1_555 1_555
C13 N3 1_555 1_555
C14 C13 1_555 1_555
N4 C14 1_555 1_555
O7 N4 1_555 1_555
O8 N4 1_555 1_555
C15 C14 1_555 1_555
C16 C15 1_555 1_555
C17 C16 1_555 1_555
C18 C13 1_555 1_555
C19 S2 1_555 1_555
C20 C19 1_555 1_555
C21 C20 1_555 1_555
C22 C21 1_555 1_555
I2 C22 1_555 1_555
C23 C22 1_555 1_555
C24 C19 1_555 1_555
H1 N1 1_555 1_555
H2 C3 1_555 1_555
H3 C4 1_555 1_555
H4 C5 1_555 1_555
H5 C6 1_555 1_555
H6 C8 1_555 1_555
H7 C9 1_555 1_555
H8 C11 1_555 1_555
H9 C12 1_555 1_555
H10 N3 1_555 1_555
H11 C15 1_555 1_555
H12 C16 1_555 1_555
H13 C17 1_555 1_555
H14 C18 1_555 1_555
H15 C20 1_555 1_555
H16 C21 1_555 1_555
H17 C23 1_555 1_555
H18 C24 1_555 1_555
C5 C6 1_555 1_555
C11 C12 1_555 1_555
C17 C18 1_555 1_555
C23 C24 1_555 1_555

#END
