
#######################################################################
#
#                 Cambridge Crystallographic Data Centre
#                                CCDC 
#
#######################################################################
#
# If this CIF has been generated from an entry in the Cambridge 
# Structural Database, then it will include bibliographic, chemical, 
# crystal, experimental, refinement or atomic coordinate data resulting 
# from the CCDC's data processing and validation procedures.
#
#######################################################################

data_MEZKOU
_chemical_formula_moiety         'C62 H74 Mg1 N2 O3 P2'
_chemical_name_systematic        
bis(3-(diphenylphosphino)-4-((2,6-di-isopropylphenyl)imino)penten-2-olato)-tetrahydrofuran-magnesium
_symmetry_cell_setting           monoclinic
_symmetry_space_group_name_H-M   'P 21/c'
_symmetry_Int_Tables_number      14
_space_group_name_Hall           '-P 2ybc'
loop_
_symmetry_equiv_pos_site_id
_symmetry_equiv_pos_as_xyz
1 x,y,z
2 -x,1/2+y,1/2-z
3 -x,-y,-z
4 x,1/2-y,1/2+z
_cell_length_a                   11.3871(11)
_cell_length_b                   33.758(3)
_cell_length_c                   14.6823(14)
_cell_angle_alpha                90
_cell_angle_beta                 102.663(9)
_cell_angle_gamma                90
_cell_volume                     5506.68
_exptl_crystal_colour            colorless
_exptl_crystal_description       block
_cell_formula_units_Z            4
loop_
_atom_site_label
_atom_site_type_symbol
_atom_site_fract_x
_atom_site_fract_y
_atom_site_fract_z
P1 P 1.18118(9) 0.41048(4) 0.34954(8)
P2 P 0.43251(10) 0.33724(4) -0.16247(9)
Mg1 Mg 0.79835(10) 0.39695(4) 0.07239(9)
O1 O 0.6261(2) 0.39153(9) 0.0552(2)
O2 O 0.9721(2) 0.40029(8) 0.09775(18)
N1 N 0.8212(2) 0.41033(9) 0.2168(2)
O3 O 0.7806(2) 0.44486(8) -0.0177(2)
N2 N 0.7838(3) 0.34665(9) -0.0173(2)
C1 C 0.9238(3) 0.41411(11) 0.2811(3)
C2 C 1.0426(3) 0.40779(11) 0.2616(3)
C3 C 1.0562(3) 0.39954(11) 0.1703(3)
C4 C 0.6836(3) 0.33111(12) -0.0680(3)
C5 C 0.9156(4) 0.42500(13) 0.3793(3)
H1 H 0.8548 0.4458 0.3771
H2 H 0.9939 0.4347 0.4138
H3 H 0.8926 0.4016 0.4109
C6 C 0.5430(3) 0.37387(13) -0.0029(3)
C7 C 0.5643(3) 0.34629(12) -0.0691(3)
C8 C 0.7106(3) 0.41826(12) 0.2462(3)
C9 C 0.9674(4) 0.33901(13) -0.0794(3)
C10 C 1.1972(4) 0.46187(14) 0.3896(3)
C11 C 0.8964(3) 0.32642(12) -0.0170(3)
C12 C 0.6929(4) 0.34492(14) 0.2822(3)
H4 H 0.7704 0.3449 0.2608
C13 C 0.4869(4) 0.34851(14) -0.2684(3)
C14 C 0.5365(4) 0.39558(17) 0.2970(3)
H5 H 0.4906 0.3748 0.3158
C15 C 1.1916(4) 0.39436(15) 0.5425(3)
H6 H 1.2320 0.4190 0.5566
C16 C 0.4931(4) 0.43352(18) 0.2914(3)
H7 H 0.4187 0.4388 0.3083
C17 C 1.1159(4) 0.49173(15) 0.3571(3)
H8 H 1.0450 0.4856 0.3118
C18 C 0.6469(3) 0.38687(13) 0.2754(3)
C19 C 0.8687(4) 0.47547(14) -0.0198(4)
H9 H 0.9480 0.4637 -0.0210
H10 H 0.8776 0.4929 0.0354
C20 C 0.7318(4) 0.49119(14) 0.2066(4)
H11 H 0.8071 0.4803 0.1917
C21 C 1.1770(3) 0.38855(14) 0.1488(3)
H12 H 1.1755 0.3607 0.1296
H13 H 1.2410 0.3925 0.2046
H14 H 1.1921 0.4054 0.0982
C22 C 0.5316(5) 0.40327(18) -0.3627(4)
H15 H 0.5364 0.4310 -0.3725
C23 C 0.9371(4) 0.29661(12) 0.0481(3)
C24 C 0.4173(4) 0.26266(16) -0.0831(4)
H16 H 0.4579 0.2750 -0.0269
C25 C 1.0446(4) 0.27797(13) 0.0465(4)
H17 H 1.0729 0.2575 0.0901
C26 C 1.1532(4) 0.38288(13) 0.4504(3)
C27 C 0.3991(4) 0.28400(14) -0.1663(4)
C28 C 1.0961(4) 0.34687(15) 0.4333(4)
H18 H 1.0715 0.3379 0.3707
C29 C 0.4930(4) 0.38934(16) -0.2863(3)
H19 H 0.4698 0.4077 -0.2445
C30 C 1.1122(4) 0.28869(16) -0.0179(4)
H20 H 1.1846 0.2750 -0.0196
C31 C 0.9317(4) 0.37415(15) -0.1436(3)
H21 H 0.8695 0.3893 -0.1194
C32 C 0.3378(4) 0.26540(15) -0.2459(4)
H22 H 0.3195 0.2797 -0.3030
C33 C 0.6928(4) 0.29459(13) -0.1254(3)
H23 H 0.7456 0.3001 -0.1684
H24 H 0.6126 0.2873 -0.1612
H25 H 0.7262 0.2727 -0.0839
C34 C 0.8673(4) 0.28434(13) 0.1210(3)
H26 H 0.7990 0.3034 0.1166
C35 C 0.6646(3) 0.45700(13) 0.2386(3)
C36 C 1.0734(5) 0.32345(16) 0.5044(4)
H27 H 1.0314 0.2991 0.4903
C37 C 1.0374(4) 0.40245(15) -0.1427(4)
H28 H 1.0766 0.4087 -0.0780
H29 H 1.0075 0.4269 -0.1758
H30 H 1.0956 0.3898 -0.1736
C38 C 0.5634(5) 0.3769(2) -0.4253(4)
H31 H 0.5884 0.3863 -0.4790
C39 C 0.5208(4) 0.32305(16) -0.3311(3)
H32 H 0.5184 0.2953 -0.3210
C40 C 0.5554(4) 0.46422(15) 0.2618(3)
H33 H 0.5232 0.4903 0.2573
C41 C 1.3030(4) 0.47313(17) 0.4528(3)
H34 H 1.3630 0.4537 0.4750
C42 C 0.6572(5) 0.51020(17) 0.1169(4)
H35 H 0.6275 0.4895 0.0709
H36 H 0.7079 0.5287 0.0912
H37 H 0.5889 0.5245 0.1316
C43 C 1.0738(4) 0.31886(15) -0.0785(4)
H38 H 1.1212 0.3264 -0.1214
C44 C 0.3782(5) 0.2243(2) -0.0802(5)
H39 H 0.3906 0.2103 -0.0227
C45 C 0.7198(5) 0.32948(17) 0.3833(4)
H40 H 0.7778 0.3471 0.4229
H41 H 0.7535 0.3027 0.3851
H42 H 0.6451 0.3288 0.4061
C46 C 1.2372(7) 0.5405(2) 0.4525(5)
H43 H 1.2496 0.5669 0.4748
C47 C 0.4171(4) 0.38398(15) 0.0096(4)
H44 H 0.4211 0.3920 0.0743
H45 H 0.3650 0.3607 -0.0053
H46 H 0.3842 0.4058 -0.0324
C48 C 0.6872(4) 0.44646(15) -0.1027(3)
H47 H 0.6111 0.4566 -0.0894
H48 H 0.6725 0.4198 -0.1310
C49 C 0.3021(5) 0.22624(17) -0.2442(5)
H49 H 0.2648 0.2133 -0.3006
C50 C 0.9449(5) 0.28778(19) 0.2183(4)
H50 H 1.0082 0.2676 0.2272
H51 H 0.8951 0.2838 0.2642
H52 H 0.9816 0.3142 0.2266
C51 C 0.3204(5) 0.20650(17) -0.1625(6)
H53 H 0.2931 0.1799 -0.1615
C52 C 1.1348(6) 0.53082(16) 0.3891(4)
H54 H 1.0762 0.5506 0.3666
C53 C 0.5584(5) 0.3370(2) -0.4087(4)
H55 H 0.5811 0.3188 -0.4510
C54 C 1.3222(6) 0.5121(2) 0.4838(4)
H56 H 1.3945 0.5190 0.5268
C55 C 0.6069(5) 0.31672(16) 0.2187(4)
H57 H 0.5291 0.3166 0.2369
H58 H 0.6408 0.2899 0.2249
H59 H 0.5958 0.3255 0.1538
C56 C 0.8200(7) 0.49827(19) -0.1083(5)
H60 H 0.7822 0.5232 -0.0938
H61 H 0.8860 0.5049 -0.1397
C57 C 0.8748(5) 0.36229(19) -0.2441(4)
H62 H 0.9306 0.3452 -0.2684
H63 H 0.8578 0.3861 -0.2829
H64 H 0.7997 0.3479 -0.2455
C58 C 1.1721(5) 0.37049(17) 0.6147(4)
H65 H 1.2009 0.3785 0.6777
C59 C 0.7684(5) 0.52291(15) 0.2821(4)
H66 H 0.6960 0.5344 0.2974
H67 H 0.8142 0.5438 0.2590
H68 H 0.8183 0.5109 0.3381
C60 C 1.1113(5) 0.33526(16) 0.5954(4)
H69 H 1.0958 0.3192 0.6446
C61 C 0.7336(5) 0.4741(2) -0.1669(5)
H70 H 0.7710 0.4590 -0.2110
H71 H 0.6673 0.4904 -0.2032
C62 C 0.8135(5) 0.24305(17) 0.1041(4)
H72 H 0.7601 0.2419 0.0419
H73 H 0.7673 0.2370 0.1514
H74 H 0.8782 0.2236 0.1080
loop_
_geom_bond_atom_site_label_1
_geom_bond_atom_site_label_2
_geom_bond_site_symmetry_1
_geom_bond_site_symmetry_2
P1 C2 1_555 1_555
P2 C7 1_555 1_555
Mg1 O1 1_555 1_555
O1 C6 1_555 1_555
O2 Mg1 1_555 1_555
N1 Mg1 1_555 1_555
O3 Mg1 1_555 1_555
N2 Mg1 1_555 1_555
C1 N1 1_555 1_555
C2 C1 1_555 1_555
C3 O2 1_555 1_555
C4 N2 1_555 1_555
C5 C1 1_555 1_555
H1 C5 1_555 1_555
H2 C5 1_555 1_555
H3 C5 1_555 1_555
C6 C7 1_555 1_555
C7 C4 1_555 1_555
C8 N1 1_555 1_555
C9 C11 1_555 1_555
C10 P1 1_555 1_555
C11 N2 1_555 1_555
C12 H4 1_555 1_555
C13 P2 1_555 1_555
C14 H5 1_555 1_555
C15 H6 1_555 1_555
C16 C14 1_555 1_555
H7 C16 1_555 1_555
C17 C10 1_555 1_555
H8 C17 1_555 1_555
C18 C8 1_555 1_555
C19 O3 1_555 1_555
H9 C19 1_555 1_555
H10 C19 1_555 1_555
C20 H11 1_555 1_555
C21 C3 1_555 1_555
H12 C21 1_555 1_555
H13 C21 1_555 1_555
H14 C21 1_555 1_555
C22 H15 1_555 1_555
C23 C11 1_555 1_555
C24 H16 1_555 1_555
C25 C23 1_555 1_555
H17 C25 1_555 1_555
C26 P1 1_555 1_555
C27 P2 1_555 1_555
C28 C26 1_555 1_555
H18 C28 1_555 1_555
C29 C13 1_555 1_555
H19 C29 1_555 1_555
C30 C25 1_555 1_555
H20 C30 1_555 1_555
C31 C9 1_555 1_555
H21 C31 1_555 1_555
C32 C27 1_555 1_555
H22 C32 1_555 1_555
C33 C4 1_555 1_555
H23 C33 1_555 1_555
H24 C33 1_555 1_555
H25 C33 1_555 1_555
C34 C23 1_555 1_555
H26 C34 1_555 1_555
C35 C8 1_555 1_555
C36 C28 1_555 1_555
H27 C36 1_555 1_555
C37 C31 1_555 1_555
H28 C37 1_555 1_555
H29 C37 1_555 1_555
H30 C37 1_555 1_555
C38 C22 1_555 1_555
H31 C38 1_555 1_555
C39 C13 1_555 1_555
H32 C39 1_555 1_555
C40 C16 1_555 1_555
H33 C40 1_555 1_555
C41 C10 1_555 1_555
H34 C41 1_555 1_555
C42 C20 1_555 1_555
H35 C42 1_555 1_555
H36 C42 1_555 1_555
H37 C42 1_555 1_555
C43 C9 1_555 1_555
H38 C43 1_555 1_555
C44 C24 1_555 1_555
H39 C44 1_555 1_555
C45 C12 1_555 1_555
H40 C45 1_555 1_555
H41 C45 1_555 1_555
H42 C45 1_555 1_555
C46 H43 1_555 1_555
C47 C6 1_555 1_555
H44 C47 1_555 1_555
H45 C47 1_555 1_555
H46 C47 1_555 1_555
C48 O3 1_555 1_555
H47 C48 1_555 1_555
H48 C48 1_555 1_555
C49 C32 1_555 1_555
H49 C49 1_555 1_555
C50 C34 1_555 1_555
H50 C50 1_555 1_555
H51 C50 1_555 1_555
H52 C50 1_555 1_555
C51 C44 1_555 1_555
H53 C51 1_555 1_555
C52 C17 1_555 1_555
H54 C52 1_555 1_555
C53 C38 1_555 1_555
H55 C53 1_555 1_555
C54 C41 1_555 1_555
H56 C54 1_555 1_555
C55 C12 1_555 1_555
H57 C55 1_555 1_555
H58 C55 1_555 1_555
H59 C55 1_555 1_555
C56 C19 1_555 1_555
H60 C56 1_555 1_555
H61 C56 1_555 1_555
C57 C31 1_555 1_555
H62 C57 1_555 1_555
H63 C57 1_555 1_555
H64 C57 1_555 1_555
C58 C15 1_555 1_555
H65 C58 1_555 1_555
C59 C20 1_555 1_555
H66 C59 1_555 1_555
H67 C59 1_555 1_555
H68 C59 1_555 1_555
C60 C36 1_555 1_555
H69 C60 1_555 1_555
C61 C48 1_555 1_555
H70 C61 1_555 1_555
H71 C61 1_555 1_555
C62 C34 1_555 1_555
H72 C62 1_555 1_555
H73 C62 1_555 1_555
H74 C62 1_555 1_555
C2 C3 1_555 1_555
C12 C18 1_555 1_555
C14 C18 1_555 1_555
C15 C26 1_555 1_555
C20 C35 1_555 1_555
C22 C29 1_555 1_555
C24 C27 1_555 1_555
C30 C43 1_555 1_555
C35 C40 1_555 1_555
C39 C53 1_555 1_555
C46 C52 1_555 1_555
C46 C54 1_555 1_555
C49 C51 1_555 1_555
C56 C61 1_555 1_555
C58 C60 1_555 1_555

#END
