
#######################################################################
#
#                 Cambridge Crystallographic Data Centre
#                                CCDC 
#
#######################################################################
#
# If this CIF has been generated from an entry in the Cambridge 
# Structural Database, then it will include bibliographic, chemical, 
# crystal, experimental, refinement or atomic coordinate data resulting 
# from the CCDC's data processing and validation procedures.
#
#######################################################################

data_MEZKAF
_chemical_formula_moiety         'C50 H42 N2 O4 S2,2(C1 H2 Cl2)'
_chemical_name_systematic        
'2-(2,5-Diisopropylphenyl)-10-(2,6-diisopropylphenyl)benzo[2,3][1]benzothieno[4,5,6,7-lmn][1]benzothieno[3,2-f][3,8]phenanthroline-1,3,9,11(2H,10H)-tetrone dichloromethane solvate'
_symmetry_cell_setting           triclinic
_symmetry_space_group_name_H-M   'P -1'
_symmetry_Int_Tables_number      2
_space_group_name_Hall           '-P 1'
loop_
_symmetry_equiv_pos_site_id
_symmetry_equiv_pos_as_xyz
1 x,y,z
2 -x,-y,-z
_cell_length_a                   11.967(2)
_cell_length_b                   13.253(3)
_cell_length_c                   15.005(3)
_cell_angle_alpha                88.88(3)
_cell_angle_beta                 79.64(3)
_cell_angle_gamma                87.14(3)
_cell_volume                     2337.92
_exptl_crystal_colour            red
_exptl_crystal_description       plate
_cell_formula_units_Z            2
loop_
_atom_site_label
_atom_site_type_symbol
_atom_site_fract_x
_atom_site_fract_y
_atom_site_fract_z
Cl1 Cl 0.3297(3) 0.2906(2) 0.13955(18)
Cl2 Cl 0.3057(3) 0.1088(3) 0.0449(2)
C1 C 0.3554(8) 0.2299(8) 0.0383(6)
H1 H 0.4384 0.2260 0.0152
H2 H 0.3189 0.2700 -0.0059
S1 S 0.42192(14) 0.43366(12) 0.31857(11)
S2 S 0.64833(14) 0.16576(12) 0.77530(11)
O1 O 0.7990(4) 0.1039(3) 0.4241(3)
O2 O 0.6066(4) 0.3171(3) 0.2633(3)
O3 O 0.4484(3) 0.2636(3) 0.8285(3)
O4 O 0.2810(4) 0.5069(3) 0.6763(3)
N1 N 0.7164(4) 0.2230(3) 0.3455(3)
N2 N 0.3538(4) 0.3761(3) 0.7499(3)
C2 C 0.7848(5) 0.1824(4) 0.2614(4)
C3 C 0.7395(6) 0.1066(4) 0.2171(4)
C4 C 0.8069(7) 0.0701(5) 0.1376(5)
H3 H 0.7789 0.0187 0.1054
C5 C 0.9113(7) 0.1054(5) 0.1045(5)
H4 H 0.9544 0.0783 0.0501
C6 C 0.9554(6) 0.1800(5) 0.1489(5)
H5 H 1.0283 0.2040 0.1249
C7 C 0.8925(5) 0.2205(4) 0.2294(4)
C8 C 0.6260(6) 0.0625(5) 0.2534(5)
H6 H 0.5928 0.0984 0.3108
C9 C 0.6421(7) -0.0505(5) 0.2770(6)
H7 H 0.5695 -0.0756 0.3083
H8 H 0.6989 -0.0591 0.3164
H9 H 0.6680 -0.0887 0.2212
C10 C 0.5428(7) 0.0787(6) 0.1883(7)
H10 H 0.5733 0.0442 0.1313
H11 H 0.5318 0.1511 0.1765
H12 H 0.4698 0.0511 0.2152
C11 C 0.9419(6) 0.3007(5) 0.2789(5)
H13 H 0.8824 0.3235 0.3312
C12 C 0.9742(6) 0.3935(5) 0.2182(5)
H14 H 1.0368 0.3742 0.1690
H15 H 0.9982 0.4464 0.2544
H16 H 0.9083 0.4188 0.1926
C13 C 1.0434(7) 0.2561(6) 0.3167(6)
H17 H 1.0188 0.2017 0.3598
H18 H 1.0758 0.3089 0.3477
H19 H 1.1010 0.2291 0.2671
C14 C 0.6254(5) 0.2907(4) 0.3370(4)
C15 C 0.5520(5) 0.3221(4) 0.4233(4)
C16 C 0.5748(4) 0.2878(4) 0.5078(4)
C17 C 0.6722(4) 0.2223(4) 0.5128(4)
C18 C 0.7357(5) 0.1788(4) 0.4262(4)
C19 C 0.4571(5) 0.3869(4) 0.4204(4)
C20 C 0.3013(5) 0.4974(4) 0.3789(4)
C21 C 0.2246(6) 0.5563(5) 0.3360(5)
H20 H 0.2387 0.5663 0.2722
C22 C 0.1288(6) 0.5989(5) 0.3892(5)
H21 H 0.0770 0.6407 0.3622
C23 C 0.1072(6) 0.5809(5) 0.4823(5)
H22 H 0.0389 0.6083 0.5176
C24 C 0.1831(5) 0.5241(5) 0.5243(5)
H23 H 0.1658 0.5125 0.5878
C25 C 0.2840(5) 0.4839(4) 0.4751(4)
C26 C 0.3805(5) 0.4213(4) 0.4998(4)
C27 C 0.4064(5) 0.3893(4) 0.5839(4)
C28 C 0.3416(5) 0.4305(4) 0.6713(4)
C29 C 0.4410(5) 0.3044(4) 0.7560(4)
C30 C 0.5202(5) 0.2817(4) 0.6717(4)
C31 C 0.4997(4) 0.3209(4) 0.5885(4)
C32 C 0.6166(5) 0.2197(4) 0.6769(4)
C33 C 0.7787(5) 0.1165(4) 0.7161(5)
C34 C 0.8588(5) 0.0633(5) 0.7587(5)
H24 H 0.8425 0.0475 0.8216
C35 C 0.9608(6) 0.0349(5) 0.7073(5)
H25 H 1.0154 -0.0037 0.7340
C36 C 0.9859(6) 0.0621(5) 0.6153(5)
H26 H 1.0589 0.0448 0.5811
C37 C 0.9049(5) 0.1141(4) 0.5732(5)
H27 H 0.9231 0.1329 0.5111
C38 C 0.8000(5) 0.1379(4) 0.6218(4)
C39 C 0.6988(5) 0.1946(4) 0.5966(4)
C40 C 0.2835(5) 0.4103(4) 0.8352(4)
C41 C 0.1838(5) 0.3606(4) 0.8696(4)
C42 C 0.1222(6) 0.3970(5) 0.9528(4)
H28 H 0.0536 0.3668 0.9794
C43 C 0.1605(6) 0.4762(5) 0.9964(5)
H29 H 0.1167 0.4986 1.0523
C44 C 0.2584(7) 0.5239(5) 0.9625(5)
C45 C 0.3208(6) 0.4892(5) 0.8797(5)
H30 H 0.3893 0.5200 0.8539
C46 C 0.1443(5) 0.2755(5) 0.8210(4)
H31 H 0.2131 0.2421 0.7833
C47 C 0.0862(6) 0.1949(5) 0.8858(5)
H32 H 0.0131 0.2229 0.9181
H33 H 0.1350 0.1744 0.9295
H34 H 0.0735 0.1361 0.8510
C48 C 0.0664(7) 0.3126(6) 0.7578(5)
H35 H 0.0484 0.2557 0.7229
H36 H 0.1041 0.3635 0.7163
H37 H -0.0039 0.3425 0.7930
C49 C 0.2842(12) 0.6073(8) 1.0225(9)
H38 H 0.2207 0.6180 1.0752
C50 C 0.3074(16) 0.7060(11) 0.9688(11)
H39 H 0.3752 0.6959 0.9218
H40 H 0.3200 0.7592 1.0099
H41 H 0.2419 0.7260 0.9404
C51 C 0.3971(13) 0.5805(12) 1.0555(12)
H42 H 0.3939 0.5132 1.0838
H43 H 0.4089 0.6304 1.0998
H44 H 0.4601 0.5810 1.0038
Cl5 Cl 1.2111(10) 0.2162(8) 0.5175(7)
Cl6 Cl 1.3997(11) 0.0737(11) 0.4635(9)
C56 C 1.2637(11) 0.1153(10) 0.4425(10)
H54 H 1.2113 0.0591 0.4528
H55 H 1.2694 0.1387 0.3789
C52? C 0.3194(16) 0.6092(10) 0.9973(11)
H45? H 0.3988 0.6149 0.9632
C53? C 0.2438(18) 0.7049(15) 0.9873(17)
H46? H 0.2568 0.7275 0.9239
H47? H 0.2629 0.7584 1.0254
H48? H 0.1637 0.6897 1.0064
C54? C 0.316(2) 0.5875(16) 1.0988(11)
H49? H 0.2378 0.5967 1.1315
H50? H 0.3645 0.6341 1.1224
H51? H 0.3441 0.5178 1.1071
Cl3? Cl 1.2222(17) 0.2197(13) 0.4789(11)
Cl4? Cl 1.393(2) 0.0614(19) 0.4332(15)
C55? C 1.3071(19) 0.1519(17) 0.3882(14)
H52? H 1.2578 0.1186 0.3524
H53? H 1.3549 0.1988 0.3476
loop_
_geom_bond_atom_site_label_1
_geom_bond_atom_site_label_2
_geom_bond_site_symmetry_1
_geom_bond_site_symmetry_2
Cl1 C1 1_555 1_555
Cl2 C1 1_555 1_555
C1 H1 1_555 1_555
H2 C1 1_555 1_555
S1 C19 1_555 1_555
S2 C32 1_555 1_555
O1 C18 1_555 1_555
O2 C14 1_555 1_555
O3 C29 1_555 1_555
O4 C28 1_555 1_555
N1 C2 1_555 1_555
N2 C28 1_555 1_555
C2 C3 1_555 1_555
C3 C4 1_555 1_555
C4 H3 1_555 1_555
C5 C4 1_555 1_555
H4 C5 1_555 1_555
C6 C5 1_555 1_555
H5 C6 1_555 1_555
C7 C2 1_555 1_555
C8 C3 1_555 1_555
H6 C8 1_555 1_555
C9 C8 1_555 1_555
H7 C9 1_555 1_555
H8 C9 1_555 1_555
H9 C9 1_555 1_555
C10 C8 1_555 1_555
H10 C10 1_555 1_555
H11 C10 1_555 1_555
H12 C10 1_555 1_555
C11 C7 1_555 1_555
H13 C11 1_555 1_555
C12 C11 1_555 1_555
H14 C12 1_555 1_555
H15 C12 1_555 1_555
H16 C12 1_555 1_555
C13 C11 1_555 1_555
H17 C13 1_555 1_555
H18 C13 1_555 1_555
H19 C13 1_555 1_555
C14 N1 1_555 1_555
C15 C14 1_555 1_555
C16 C15 1_555 1_555
C17 C16 1_555 1_555
C18 N1 1_555 1_555
C19 C15 1_555 1_555
C20 S1 1_555 1_555
C21 C20 1_555 1_555
H20 C21 1_555 1_555
C22 C21 1_555 1_555
H21 C22 1_555 1_555
C23 C22 1_555 1_555
H22 C23 1_555 1_555
C24 C23 1_555 1_555
H23 C24 1_555 1_555
C25 C20 1_555 1_555
C26 C19 1_555 1_555
C27 C26 1_555 1_555
C28 C27 1_555 1_555
C29 N2 1_555 1_555
C30 C29 1_555 1_555
C31 C16 1_555 1_555
C32 C30 1_555 1_555
C33 S2 1_555 1_555
C34 C33 1_555 1_555
H24 C34 1_555 1_555
C35 C34 1_555 1_555
H25 C35 1_555 1_555
C36 C35 1_555 1_555
H26 C36 1_555 1_555
C37 C36 1_555 1_555
H27 C37 1_555 1_555
C38 C33 1_555 1_555
C39 C17 1_555 1_555
C40 N2 1_555 1_555
C41 C40 1_555 1_555
C42 C41 1_555 1_555
H28 C42 1_555 1_555
C43 C42 1_555 1_555
H29 C43 1_555 1_555
C44 C43 1_555 1_555
C45 C40 1_555 1_555
H30 C45 1_555 1_555
C46 C41 1_555 1_555
H31 C46 1_555 1_555
C47 C46 1_555 1_555
H32 C47 1_555 1_555
H33 C47 1_555 1_555
H34 C47 1_555 1_555
C48 C46 1_555 1_555
H35 C48 1_555 1_555
H36 C48 1_555 1_555
H37 C48 1_555 1_555
C49 C44 1_555 1_555
H38 C49 1_555 1_555
C50 C49 1_555 1_555
H39 C50 1_555 1_555
H40 C50 1_555 1_555
H41 C50 1_555 1_555
C51 C49 1_555 1_555
H42 C51 1_555 1_555
H43 C51 1_555 1_555
H44 C51 1_555 1_555
Cl5 C56 1_555 1_555
Cl6 C56 1_555 1_555
C56 H54 1_555 1_555
H55 C56 1_555 1_555
C6 C7 1_555 1_555
C17 C18 1_555 1_555
C24 C25 1_555 1_555
C25 C26 1_555 1_555
C27 C31 1_555 1_555
C30 C31 1_555 1_555
C32 C39 1_555 1_555
C37 C38 1_555 1_555
C38 C39 1_555 1_555
C44 C45 1_555 1_555

#END
