
#######################################################################
#
#                 Cambridge Crystallographic Data Centre
#                                CCDC 
#
#######################################################################
#
# If this CIF has been generated from an entry in the Cambridge 
# Structural Database, then it will include bibliographic, chemical, 
# crystal, experimental, refinement or atomic coordinate data resulting 
# from the CCDC's data processing and validation procedures.
#
#######################################################################

data_MEZMIQ
_chemical_formula_moiety         'C38 H74 Li6 N8 S2'
_chemical_name_systematic        
bis(\m-2-(methylsulfanyl)phenyl)-bis(\m-((2-(dimethylamino)ethyl)(methyl)amino)methyl)-bis(1,2-bis(dimethylamino)ethane)-hexa-lithium
_symmetry_cell_setting           monoclinic
_symmetry_space_group_name_H-M   'P 21/c'
_symmetry_Int_Tables_number      14
_space_group_name_Hall           '-P 2ybc'
loop_
_symmetry_equiv_pos_site_id
_symmetry_equiv_pos_as_xyz
1 x,y,z
2 -x,1/2+y,1/2-z
3 -x,-y,-z
4 x,1/2-y,1/2+z
_cell_length_a                   10.4586(2)
_cell_length_b                   9.5667(2)
_cell_length_c                   23.5841(5)
_cell_angle_alpha                90
_cell_angle_beta                 100.344(2)
_cell_angle_gamma                90
_cell_volume                     2321.34
_cell_formula_units_Z            2
_chemical_properties_physical    'air- and moisture-sensitive'
_exptl_crystal_recrystallization_method 'diethyl ether /n-hexane'
loop_
_atom_site_label
_atom_site_type_symbol
_atom_site_fract_x
_atom_site_fract_y
_atom_site_fract_z
S1 S 0.52034(3) 0.28845(3) 0.37302(2)
N1 N 0.78464(10) 0.15945(11) 0.49171(4)
N2 N 0.66408(10) 0.26973(10) 0.58632(4)
N3 N 0.83076(12) 0.70148(13) 0.69220(5)
N4 N 0.68710(11) 0.50695(12) 0.75415(4)
C1 C 0.45096(11) 0.23398(13) 0.43353(5)
H1 H 0.3568(18) 0.2381(19) 0.4222(8)
H2 H 0.4699(18) 0.135(2) 0.4417(8)
C2 C 0.63019(10) 0.42993(11) 0.39965(5)
C3 C 0.63816(10) 0.48946(12) 0.45498(5)
C4 C 0.73441(11) 0.59473(13) 0.46646(5)
H3 H 0.7521(18) 0.640(2) 0.5024(8)
C5 C 0.81342(12) 0.63876(14) 0.42817(6)
H4 H 0.8744 0.7092 0.4386
C6 C 0.79997(13) 0.57627(14) 0.37426(6)
H5 H 0.8518 0.6044 0.3482
C7 C 0.70824(12) 0.47138(13) 0.35980(5)
H6 H 0.6983 0.4286 0.3239
C8 C 0.87203(13) 0.21226(15) 0.45468(6)
H7 H 0.8978 0.3060 0.4659
H8 H 0.8280 0.2117 0.4153
H9 H 0.9476 0.1537 0.4586
C9 C 0.74252(15) 0.01808(15) 0.47355(7)
H10 H 0.8170 -0.0420 0.4768
H11 H 0.6981 0.0200 0.4342
H12 H 0.6848 -0.0165 0.4977
C10 C 0.85245(12) 0.16265(14) 0.55241(5)
H13 H 0.9019 0.2487 0.5594
H14 H 0.9130 0.0851 0.5593
C11 C 0.75749(13) 0.15329(13) 0.59397(5)
H15 H 0.8137(17) 0.1539(19) 0.6342(8)
H16 H 0.7102(17) 0.0626(19) 0.5890(8)
C12 C 0.72219(11) 0.40917(12) 0.60512(5)
H17 H 0.7811(19) 0.393(2) 0.6401(8)
H18 H 0.7806(18) 0.438(2) 0.5788(8)
C13 C 0.55911(13) 0.23456(15) 0.61767(6)
H19 H 0.5951 0.2179 0.6575
H20 H 0.5151 0.1520 0.6013
H21 H 0.4985 0.3107 0.6148
C14 C 0.92557(17) 0.6941(3) 0.65368(9)
H22 H 1.0010 0.7479 0.6696
H23 H 0.8878 0.7312 0.6166
H24 H 0.9502 0.5985 0.6495
C15 C 0.79256(19) 0.84745(17) 0.69857(7)
H25 H 0.7296 0.8518 0.7235
H26 H 0.7554 0.8848 0.6615
H27 H 0.8677 0.9013 0.7149
C16 C 0.88372(16) 0.6427(2) 0.74919(7)
H28 H 0.9443 0.7089 0.7705
H29 H 0.9312 0.5578 0.7443
C17 C 0.7786(2) 0.61013(18) 0.78344(6)
H30 H 0.8180 0.5747 0.8211
H31 H 0.7322 0.6953 0.7891
C18 C 0.73694(16) 0.36544(15) 0.76768(6)
H32 H 0.8180 0.3542 0.7545
H33 H 0.6753 0.2984 0.7488
H34 H 0.7502 0.3510 0.8086
C19 C 0.56024(17) 0.5170(2) 0.77306(7)
H35 H 0.5015 0.4495 0.7526
H36 H 0.5253 0.6091 0.7652
H37 H 0.5715 0.4988 0.8137
Li1 Li 0.6192(2) 0.2864(2) 0.49752(9)
Li2 Li 0.6705(2) 0.5622(2) 0.66445(9)
Li3 Li 0.4195(2) 0.4574(2) 0.45673(9)
S1B S 0.47966(3) 0.71155(3) 0.62698(2)
N1B N 0.21536(10) 0.84055(11) 0.50829(4)
N2B N 0.33592(10) 0.73027(10) 0.41368(4)
N3B N 0.16924(12) 0.29852(13) 0.30780(5)
N4B N 0.31290(11) 0.49305(12) 0.24585(4)
C1B C 0.54904(11) 0.76602(13) 0.56647(5)
H1B H 0.6432(18) 0.7619(19) 0.5778(8)
H2B H 0.5301(18) 0.865(2) 0.5583(8)
C2B C 0.36981(10) 0.57007(11) 0.60035(5)
C3B C 0.36184(10) 0.51054(12) 0.54502(5)
C4B C 0.26559(11) 0.40527(13) 0.53354(5)
H3B H 0.2479(18) 0.360(2) 0.4976(8)
C5B C 0.18658(12) 0.36124(14) 0.57183(6)
H4B H 0.1256 0.2908 0.5614
C6B C 0.20003(13) 0.42373(14) 0.62574(6)
H5B H 0.1482 0.3956 0.6518
C7B C 0.29176(12) 0.52862(13) 0.64020(5)
H6B H 0.3017 0.5714 0.6761
C8B C 0.12797(13) 0.78774(15) 0.54532(6)
H7B H 0.1022 0.6940 0.5341
H8B H 0.1720 0.7883 0.5847
H9B H 0.0524 0.8463 0.5414
C9B C 0.25748(15) 0.98192(15) 0.52645(7)
H10B H 0.1830 1.0420 0.5232
H11B H 0.3019 0.9800 0.5658
H12B H 0.3152 1.0165 0.5023
C10B C 0.14755(12) 0.83735(14) 0.44759(5)
H13B H 0.0981 0.7513 0.4406
H14B H 0.0870 0.9149 0.4407
C11B C 0.24251(13) 0.84671(13) 0.40603(5)
H15B H 0.1863(17) 0.8461(19) 0.3658(8)
H16B H 0.2898(17) 0.9374(19) 0.4110(8)
C12B C 0.27781(11) 0.59083(12) 0.39488(5)
H17B H 0.2189(19) 0.607(2) 0.3599(8)
H18B H 0.2194(18) 0.562(2) 0.4212(8)
C13B C 0.44089(13) 0.76544(15) 0.38233(6)
H19B H 0.4049 0.7821 0.3425
H20B H 0.4849 0.8480 0.3987
H21B H 0.5015 0.6893 0.3852
C14B C 0.07443(17) 0.3059(3) 0.34632(9)
H22B H -0.0010 0.2521 0.3304
H23B H 0.1122 0.2688 0.3834
H24B H 0.0498 0.4015 0.3505
C15B C 0.20744(19) 0.15255(17) 0.30143(7)
H25B H 0.2704 0.1482 0.2765
H26B H 0.2446 0.1152 0.3385
H27B H 0.1323 0.0987 0.2851
C16B C 0.11628(16) 0.3573(2) 0.25081(7)
H28B H 0.0557 0.2911 0.2295
H29B H 0.0688 0.4422 0.2557
C17B C 0.2214(2) 0.38987(18) 0.21656(6)
H30B H 0.1820 0.4253 0.1789
H31B H 0.2678 0.3047 0.2109
C18B C 0.26306(16) 0.63456(15) 0.23232(6)
H32B H 0.1820 0.6458 0.2455
H33B H 0.3247 0.7016 0.2512
H34B H 0.2498 0.6490 0.1914
C19B C 0.43976(17) 0.4830(2) 0.22694(7)
H35B H 0.4985 0.5505 0.2474
H36B H 0.4747 0.3909 0.2348
H37B H 0.4285 0.5012 0.1863
Li1B Li 0.3808(2) 0.7136(2) 0.50248(9)
Li2B Li 0.3295(2) 0.4378(2) 0.33555(9)
Li3B Li 0.5805(2) 0.5426(2) 0.54327(9)
loop_
_geom_bond_atom_site_label_1
_geom_bond_atom_site_label_2
_geom_bond_site_symmetry_1
_geom_bond_site_symmetry_2
S1 C1 1_555 1_555
N1 C8 1_555 1_555
N2 C11 1_555 1_555
N3 C14 1_555 1_555
N4 C17 1_555 1_555
C1 H1 1_555 1_555
H2 C1 1_555 1_555
C2 S1 1_555 1_555
C3 C2 1_555 1_555
C4 C3 1_555 1_555
H3 C4 1_555 1_555
C5 C4 1_555 1_555
H4 C5 1_555 1_555
C6 C5 1_555 1_555
H5 C6 1_555 1_555
C7 C2 1_555 1_555
H6 C7 1_555 1_555
C8 H7 1_555 1_555
H8 C8 1_555 1_555
H9 C8 1_555 1_555
C9 N1 1_555 1_555
H10 C9 1_555 1_555
H11 C9 1_555 1_555
H12 C9 1_555 1_555
C10 N1 1_555 1_555
H13 C10 1_555 1_555
H14 C10 1_555 1_555
C11 C10 1_555 1_555
H15 C11 1_555 1_555
H16 C11 1_555 1_555
C12 N2 1_555 1_555
H17 C12 1_555 1_555
H18 C12 1_555 1_555
C13 N2 1_555 1_555
H19 C13 1_555 1_555
H20 C13 1_555 1_555
H21 C13 1_555 1_555
C14 H22 1_555 1_555
H23 C14 1_555 1_555
H24 C14 1_555 1_555
C15 N3 1_555 1_555
H25 C15 1_555 1_555
H26 C15 1_555 1_555
H27 C15 1_555 1_555
C16 N3 1_555 1_555
H28 C16 1_555 1_555
H29 C16 1_555 1_555
C17 C16 1_555 1_555
H30 C17 1_555 1_555
H31 C17 1_555 1_555
C18 N4 1_555 1_555
H32 C18 1_555 1_555
H33 C18 1_555 1_555
H34 C18 1_555 1_555
C19 N4 1_555 1_555
H35 C19 1_555 1_555
H36 C19 1_555 1_555
H37 C19 1_555 1_555
Li1 N1 1_555 1_555
Li2 N3 1_555 1_555
Li3 C1 1_555 1_555
S1B Li2 1_555 1_555
N1B C8B 1_555 1_555
N2B C11B 1_555 1_555
N3B C14B 1_555 1_555
N4B C17B 1_555 1_555
C1B S1B 1_555 1_555
H1B C1B 1_555 1_555
H2B C1B 1_555 1_555
C2B S1B 1_555 1_555
C3B Li3 1_555 1_555
C4B C3B 1_555 1_555
H3B C4B 1_555 1_555
C5B C4B 1_555 1_555
H4B C5B 1_555 1_555
C6B C5B 1_555 1_555
H5B C6B 1_555 1_555
C7B C2B 1_555 1_555
H6B C7B 1_555 1_555
C8B H7B 1_555 1_555
H8B C8B 1_555 1_555
H9B C8B 1_555 1_555
C9B N1B 1_555 1_555
H10B C9B 1_555 1_555
H11B C9B 1_555 1_555
H12B C9B 1_555 1_555
C10B N1B 1_555 1_555
H13B C10B 1_555 1_555
H14B C10B 1_555 1_555
C11B C10B 1_555 1_555
H15B C11B 1_555 1_555
H16B C11B 1_555 1_555
C12B Li3 1_555 1_555
H17B C12B 1_555 1_555
H18B C12B 1_555 1_555
C13B N2B 1_555 1_555
H19B C13B 1_555 1_555
H20B C13B 1_555 1_555
H21B C13B 1_555 1_555
C14B H22B 1_555 1_555
H23B C14B 1_555 1_555
H24B C14B 1_555 1_555
C15B N3B 1_555 1_555
H25B C15B 1_555 1_555
H26B C15B 1_555 1_555
H27B C15B 1_555 1_555
C16B N3B 1_555 1_555
H28B C16B 1_555 1_555
H29B C16B 1_555 1_555
C17B C16B 1_555 1_555
H30B C17B 1_555 1_555
H31B C17B 1_555 1_555
C18B N4B 1_555 1_555
H32B C18B 1_555 1_555
H33B C18B 1_555 1_555
H34B C18B 1_555 1_555
C19B N4B 1_555 1_555
H35B C19B 1_555 1_555
H36B C19B 1_555 1_555
H37B C19B 1_555 1_555
Li1B N1B 1_555 1_555
Li2B S1 1_555 1_555
Li3B C3 1_555 1_555
N2 Li1 1_555 1_555
N4 Li2 1_555 1_555
C1 Li1 1_555 1_555
C3 Li1 1_555 1_555
C3 Li3 1_555 1_555
C6 C7 1_555 1_555
C12 Li2 1_555 1_555
C12 Li3B 1_555 1_555
N2B C12B 1_555 1_555
N2B Li1B 1_555 1_555
N3B Li2B 1_555 1_555
N4B Li2B 1_555 1_555
C1B Li1B 1_555 1_555
C1B Li3B 1_555 1_555
C2B C3B 1_555 1_555
C3B Li1B 1_555 1_555
C3B Li3B 1_555 1_555
C6B C7B 1_555 1_555
C12B Li2B 1_555 1_555

#END
