
#######################################################################
#
#                 Cambridge Crystallographic Data Centre
#                                CCDC 
#
#######################################################################
#
# If this CIF has been generated from an entry in the Cambridge 
# Structural Database, then it will include bibliographic, chemical, 
# crystal, experimental, refinement or atomic coordinate data resulting 
# from the CCDC's data processing and validation procedures.
#
#######################################################################

data_MEZNOX
_chemical_formula_moiety         'C23 H22 N2 O3'
_chemical_name_systematic        
(S)-2-((S)-((4-nitrophenyl)amino)(phenyl)methyl)-1-phenylbutan-1-one
_symmetry_cell_setting           monoclinic
_symmetry_space_group_name_H-M   'P 21/c'
_symmetry_Int_Tables_number      14
_space_group_name_Hall           '-P 2ybc'
loop_
_symmetry_equiv_pos_site_id
_symmetry_equiv_pos_as_xyz
1 x,y,z
2 -x,1/2+y,1/2-z
3 -x,-y,-z
4 x,1/2-y,1/2+z
_cell_length_a                   15.2536(3)
_cell_length_b                   5.94561(12)
_cell_length_c                   20.9336(4)
_cell_angle_alpha                90
_cell_angle_beta                 97.5206(18)
_cell_angle_gamma                90
_cell_volume                     1882.18
_exptl_crystal_colour            'pale yellow'
_exptl_crystal_description       needle
_cell_formula_units_Z            4
_exptl_crystal_recrystallization_method 
'n-heptane/dichloromethane/ethyl acetate'
loop_
_atom_site_label
_atom_site_type_symbol
_atom_site_fract_x
_atom_site_fract_y
_atom_site_fract_z
N1 N 0.06802(9) -0.1910(3) -0.07341(7)
N2 N 0.19995(9) -0.0026(2) 0.18228(6)
H1 H 0.2025(14) -0.126(4) 0.2107(10)
O1 O 0.04622(10) -0.3852(2) -0.08742(6)
O2 O 0.06364(11) -0.0394(3) -0.11361(6)
O3 O 0.24989(8) 0.6179(2) 0.27425(6)
C1 C 0.10071(10) -0.1372(3) -0.00730(8)
C2 C 0.09820(10) -0.3006(3) 0.03940(8)
H2 H 0.0745 -0.4451 0.0281
C3 C 0.13030(10) -0.2522(3) 0.10232(8)
H3 H 0.1272 -0.3630 0.1346
C4 C 0.16763(10) -0.0412(3) 0.11955(7)
C5 C 0.16870(11) 0.1227(3) 0.07105(8)
H4 H 0.1933 0.2668 0.0817
C6 C 0.13435(11) 0.0756(3) 0.00824(8)
H5 H 0.1337 0.1878 -0.0241
C7 C 0.23921(10) 0.2093(3) 0.20647(7)
H6 H 0.2016 0.3348 0.1863
C8 C 0.33245(10) 0.2393(3) 0.18893(7)
C9 C 0.35641(11) 0.4321(3) 0.15798(8)
H7 H 0.3146 0.5497 0.1484
C10 C 0.44114(12) 0.4547(3) 0.14079(9)
H8 H 0.4568 0.5867 0.1193
C11 C 0.50241(12) 0.2846(3) 0.15503(9)
H9 H 0.5602 0.2994 0.1432
C12 C 0.47946(12) 0.0920(3) 0.18658(9)
H10 H 0.5218 -0.0242 0.1968
C13 C 0.39520(11) 0.0693(3) 0.20315(8)
H11 H 0.3797 -0.0632 0.2244
C14 C 0.23722(10) 0.2175(3) 0.27972(7)
H12 H 0.2807 0.1051 0.3006
C15 C 0.14473(11) 0.1615(3) 0.29915(8)
H13 H 0.1330 -0.0010 0.2921
H14 H 0.1457 0.1916 0.3457
C16 C 0.06970(12) 0.2944(4) 0.26212(9)
H15 H 0.0851 0.4545 0.2630
H16 H 0.0157 0.2727 0.2821
H17 H 0.0599 0.2419 0.2174
C17 C 0.26306(10) 0.4479(3) 0.30692(8)
C18 C 0.29978(10) 0.4690(3) 0.37661(8)
C19 C 0.34944(12) 0.2988(3) 0.41006(9)
H18 H 0.3589 0.1609 0.3891
C20 C 0.38490(14) 0.3306(4) 0.47379(10)
H19 H 0.4200 0.2158 0.4960
C21 C 0.36960(14) 0.5280(4) 0.50519(9)
H20 H 0.3933 0.5478 0.5491
C22 C 0.31975(13) 0.6971(4) 0.47277(9)
H21 H 0.3090 0.8326 0.4945
C23 C 0.28536(11) 0.6689(3) 0.40849(8)
H22 H 0.2519 0.7862 0.3862
loop_
_geom_bond_atom_site_label_1
_geom_bond_atom_site_label_2
_geom_bond_site_symmetry_1
_geom_bond_site_symmetry_2
N1 O1 1_555 1_555
N2 H1 1_555 1_555
O2 N1 1_555 1_555
O3 C17 1_555 1_555
C1 N1 1_555 1_555
C2 C1 1_555 1_555
H2 C2 1_555 1_555
C3 C2 1_555 1_555
H3 C3 1_555 1_555
C4 N2 1_555 1_555
C5 C4 1_555 1_555
H4 C5 1_555 1_555
C6 C1 1_555 1_555
H5 C6 1_555 1_555
C7 N2 1_555 1_555
H6 C7 1_555 1_555
C8 C7 1_555 1_555
C9 C8 1_555 1_555
H7 C9 1_555 1_555
C10 C9 1_555 1_555
H8 C10 1_555 1_555
C11 C10 1_555 1_555
H9 C11 1_555 1_555
C12 C11 1_555 1_555
H10 C12 1_555 1_555
C13 C8 1_555 1_555
H11 C13 1_555 1_555
C14 C7 1_555 1_555
H12 C14 1_555 1_555
C15 C14 1_555 1_555
H13 C15 1_555 1_555
H14 C15 1_555 1_555
C16 C15 1_555 1_555
H15 C16 1_555 1_555
H16 C16 1_555 1_555
H17 C16 1_555 1_555
C17 C14 1_555 1_555
C18 C17 1_555 1_555
C19 C18 1_555 1_555
H18 C19 1_555 1_555
C20 C19 1_555 1_555
H19 C20 1_555 1_555
C21 C20 1_555 1_555
H20 C21 1_555 1_555
C22 C21 1_555 1_555
H21 C22 1_555 1_555
C23 C18 1_555 1_555
H22 C23 1_555 1_555
C3 C4 1_555 1_555
C5 C6 1_555 1_555
C12 C13 1_555 1_555
C22 C23 1_555 1_555

#END
