
#######################################################################
#
#                 Cambridge Crystallographic Data Centre
#                                CCDC 
#
#######################################################################
#
# If this CIF has been generated from an entry in the Cambridge 
# Structural Database, then it will include bibliographic, chemical, 
# crystal, experimental, refinement or atomic coordinate data resulting 
# from the CCDC's data processing and validation procedures.
#
#######################################################################

data_MEZWUJ
_chemical_formula_moiety         'C26 H36 S12'
_chemical_name_systematic        
2,5-bis(4,5-bis(Butylthio)-1,3-dithiol-2-ylidene)-1,3,4,6-tetrathiapentalene
_symmetry_cell_setting           triclinic
_symmetry_space_group_name_H-M   'P -1'
_symmetry_Int_Tables_number      2
_space_group_name_Hall           '-P 1'
loop_
_symmetry_equiv_pos_site_id
_symmetry_equiv_pos_as_xyz
1 x,y,z
2 -x,-y,-z
_cell_length_a                   8.956(4)
_cell_length_b                   18.300(9)
_cell_length_c                   5.325(3)
_cell_angle_alpha                98.41(4)
_cell_angle_beta                 99.55(4)
_cell_angle_gamma                80.53(4)
_cell_volume                     842.543
_exptl_crystal_colour            red
_exptl_crystal_description       plate
_chemical_melting_point          132-133deg.C
_cell_formula_units_Z            1
loop_
_atom_site_label
_atom_site_type_symbol
_atom_site_fract_x
_atom_site_fract_y
_atom_site_fract_z
S1 S 0.2303(2) 0.0039(1) 0.1496(4)
S2 S 0.0730(2) -0.0835(1) -0.3083(4)
S3 S 0.3929(2) 0.0927(1) 0.6428(4)
S4 S 0.0936(2) 0.1678(1) 0.8028(4)
S5 S 0.5627(2) 0.1729(1) 1.0849(4)
S6 S 0.2267(2) 0.2595(1) 1.2608(4)
C1 C 0.0666(7) -0.0177(4) -0.035(1)
C2 C 0.1951(7) 0.1054(4) 0.573(1)
C3 C 0.1273(7) 0.0693(4) 0.370(1)
C4 C 0.3907(7) 0.1618(4) 0.911(1)
C5 C 0.2546(7) 0.1950(4) 0.981(1)
C6 C 0.6678(7) 0.2021(4) 0.854(1)
C7 C 0.0727(9) 0.3282(4) 1.155(2)
C8 C 0.6057(9) 0.2789(5) 0.779(2)
C9 C 0.105(1) 0.3695(5) 0.949(2)
C10 C 0.710(1) 0.3049(5) 0.612(2)
C11 C 0.215(1) 0.4225(6) 1.026(2)
C12 C 0.653(1) 0.3792(7) 0.525(2)
C13 C 0.248(2) 0.4639(7) 0.815(2)
H1 H 0.7715 0.2018 0.9206
H2 H 0.6686 0.1657 0.7022
H3 H -0.0141 0.3032 1.0944
H4 H 0.0429 0.3643 1.2974
H5 H 0.5076 0.2779 0.6869
H6 H 0.5923 0.3146 0.9284
H7 H 0.1432 0.3337 0.8105
H8 H 0.0125 0.3978 0.8852
H9 H 0.8074 0.3063 0.7056
H10 H 0.7259 0.2675 0.4647
H11 H 0.1820 0.4573 1.1685
H12 H 0.3122 0.3941 1.0839
H13 H 0.6248 0.4158 0.6692
H14 H 0.7270 0.3965 0.4422
H15 H 0.5638 0.3766 0.4103
H16 H 0.2762 0.5112 0.8810
H17 H 0.3222 0.4357 0.7123
H18 H 0.1538 0.4735 0.7066
C3A C -0.1273(7) -0.0693(4) -0.370(1)
S1A S -0.2303(2) -0.0039(1) -0.1496(4)
C1A C -0.0666(7) 0.0177(4) 0.035(1)
S2A S -0.0730(2) 0.0835(1) 0.3083(4)
C2A C -0.1951(7) -0.1054(4) -0.573(1)
S3A S -0.3929(2) -0.0927(1) -0.6428(4)
C4A C -0.3907(7) -0.1618(4) -0.911(1)
S5A S -0.5627(2) -0.1729(1) -1.0849(4)
C6A C -0.6678(7) -0.2021(4) -0.854(1)
C8A C -0.6057(9) -0.2789(5) -0.779(2)
C10A C -0.710(1) -0.3049(5) -0.612(2)
C12A C -0.653(1) -0.3792(7) -0.525(2)
H13A H -0.6248 -0.4158 -0.6692
H14A H -0.7270 -0.3965 -0.4422
H15A H -0.5638 -0.3766 -0.4103
H9A H -0.8074 -0.3063 -0.7056
H10A H -0.7259 -0.2675 -0.4647
H5A H -0.5076 -0.2779 -0.6869
H6A H -0.5923 -0.3146 -0.9284
H1A H -0.7715 -0.2018 -0.9206
H2A H -0.6686 -0.1657 -0.7022
C5A C -0.2546(7) -0.1950(4) -0.981(1)
S4A S -0.0936(2) -0.1678(1) -0.8028(4)
S6A S -0.2267(2) -0.2595(1) -1.2608(4)
C7A C -0.0727(9) -0.3282(4) -1.155(2)
C9A C -0.105(1) -0.3695(5) -0.949(2)
C11A C -0.215(1) -0.4225(6) -1.026(2)
C13A C -0.248(2) -0.4639(7) -0.815(2)
H16A H -0.2762 -0.5112 -0.8810
H17A H -0.3222 -0.4357 -0.7123
H18A H -0.1538 -0.4735 -0.7066
H11A H -0.1820 -0.4573 -1.1685
H12A H -0.3122 -0.3941 -1.0839
H7A H -0.1432 -0.3337 -0.8105
H8A H -0.0125 -0.3978 -0.8852
H3A H 0.0141 -0.3032 -1.0944
H4A H -0.0429 -0.3643 -1.2974
loop_
_geom_bond_atom_site_label_1
_geom_bond_atom_site_label_2
_geom_bond_site_symmetry_1
_geom_bond_site_symmetry_2
S1 C1 1_555 1_555
S2 C1 1_555 1_555
S3 C2 1_555 1_555
S4 C2 1_555 1_555
S5 C4 1_555 1_555
S6 C5 1_555 1_555
C1 C1A 1_555 1_555
C2 C3 1_555 1_555
C3 S1 1_555 1_555
C4 S3 1_555 1_555
C5 S4 1_555 1_555
C6 S5 1_555 1_555
C7 S6 1_555 1_555
C8 C6 1_555 1_555
C9 C7 1_555 1_555
C10 C8 1_555 1_555
C11 C9 1_555 1_555
C12 C10 1_555 1_555
C13 C11 1_555 1_555
H1 C6 1_555 1_555
H2 C6 1_555 1_555
H3 C7 1_555 1_555
H4 C7 1_555 1_555
H5 C8 1_555 1_555
H6 C8 1_555 1_555
H7 C9 1_555 1_555
H8 C9 1_555 1_555
H9 C10 1_555 1_555
H10 C10 1_555 1_555
H11 C11 1_555 1_555
H12 C11 1_555 1_555
H13 C12 1_555 1_555
H14 C12 1_555 1_555
H15 C12 1_555 1_555
H16 C13 1_555 1_555
H17 C13 1_555 1_555
H18 C13 1_555 1_555
C3A S2 1_555 1_555
S1A C3A 1_555 1_555
C1A S1A 1_555 1_555
S2A C3 1_555 1_555
C2A C3A 1_555 1_555
S3A C2A 1_555 1_555
C4A S3A 1_555 1_555
S5A C4A 1_555 1_555
C6A S5A 1_555 1_555
C8A C6A 1_555 1_555
C10A C8A 1_555 1_555
C12A C10A 1_555 1_555
H13A C12A 1_555 1_555
H14A C12A 1_555 1_555
H15A C12A 1_555 1_555
H9A C10A 1_555 1_555
H10A C10A 1_555 1_555
H5A C8A 1_555 1_555
H6A C8A 1_555 1_555
H1A C6A 1_555 1_555
H2A C6A 1_555 1_555
C5A C4A 1_555 1_555
S4A C2A 1_555 1_555
S6A C5A 1_555 1_555
C7A S6A 1_555 1_555
C9A C7A 1_555 1_555
C11A C9A 1_555 1_555
C13A C11A 1_555 1_555
H16A C13A 1_555 1_555
H17A C13A 1_555 1_555
H18A C13A 1_555 1_555
H11A C11A 1_555 1_555
H12A C11A 1_555 1_555
H7A C9A 1_555 1_555
H8A C9A 1_555 1_555
H3A C7A 1_555 1_555
H4A C7A 1_555 1_555
C4 C5 1_555 1_555
C1A S2A 1_555 1_555
C5A S4A 1_555 1_555

#END
