
#######################################################################
#
#                 Cambridge Crystallographic Data Centre
#                                CCDC 
#
#######################################################################
#
# If this CIF has been generated from an entry in the Cambridge 
# Structural Database, then it will include bibliographic, chemical, 
# crystal, experimental, refinement or atomic coordinate data resulting 
# from the CCDC's data processing and validation procedures.
#
#######################################################################

data_MEZWEW
_chemical_formula_moiety         'C14 H26 B10 O1'
_chemical_name_systematic        
1,2-(2-(1-hydroxyhexan-1,2-diyl)phenyl)-1,2-dicarba-closo-dodecaborane(10)
_symmetry_cell_setting           triclinic
_symmetry_space_group_name_H-M   'P -1'
_symmetry_Int_Tables_number      2
_space_group_name_Hall           '-P 1'
loop_
_symmetry_equiv_pos_site_id
_symmetry_equiv_pos_as_xyz
1 x,y,z
2 -x,-y,-z
_cell_length_a                   7.058(2)
_cell_length_b                   10.201(2)
_cell_length_c                   13.060(3)
_cell_angle_alpha                98.127(5)
_cell_angle_beta                 91.781(5)
_cell_angle_gamma                105.866(3)
_cell_volume                     892.993
_cell_formula_units_Z            2
loop_
_atom_site_label
_atom_site_type_symbol
_atom_site_fract_x
_atom_site_fract_y
_atom_site_fract_z
O1 O 0.9248(2) 0.43110(13) 0.57909(10)
H1 H 0.9774 0.4757 0.5349
B1 B 1.0818(3) 0.62557(19) 0.86917(16)
H2 H 1.1756 0.5715 0.9047
B2 B 1.1735(3) 0.74311(19) 0.78371(18)
H3 H 1.3279 0.7660 0.7633
B3 B 0.9794(3) 0.7343(2) 0.69113(17)
H4 H 1.0084 0.7513 0.6111
B4 B 0.7649(3) 0.61181(19) 0.71849(16)
H5 H 0.6539 0.5492 0.6569
B5 B 0.8927(3) 0.6758(2) 0.93524(17)
H6 H 0.8625 0.6547 1.0143
B6 B 1.1082(3) 0.8017(2) 0.90804(18)
H7 H 1.2196 0.8643 0.9695
B7 B 1.0447(3) 0.8699(2) 0.79797(18)
H8 H 1.1151 0.9772 0.7879
B8 B 0.7927(3) 0.7879(2) 0.75810(17)
H9 H 0.6992 0.8419 0.7224
B9 B 0.6999(3) 0.6677(2) 0.84319(18)
H10 H 0.5450 0.6413 0.8629
B10 B 0.8708(3) 0.8286(2) 0.89242(18)
H11 H 0.8277 0.9088 0.9441
C1 C 0.9971(2) 0.59181(16) 0.74063(14)
C2 C 0.8364(2) 0.55267(17) 0.82757(14)
C3 C 0.7501(2) 0.40035(16) 0.82812(14)
C4 C 0.5781(3) 0.35843(19) 0.87848(15)
H12 H 0.5246 0.4242 0.9135
C5 C 0.4861(3) 0.22015(19) 0.87690(16)
H13 H 0.3708 0.1925 0.9104
C6 C 0.5669(3) 0.12316(19) 0.82520(16)
H14 H 0.5054 0.0297 0.8234
C7 C 0.7390(3) 0.16469(18) 0.77601(16)
H15 H 0.7914 0.0981 0.7413
C8 C 0.8360(3) 0.30380(17) 0.77701(14)
C9 C 1.0319(3) 0.34685(17) 0.72752(14)
H16 H 1.1362 0.3754 0.7840
C10 C 1.0465(3) 0.47220(17) 0.67251(14)
H17 H 1.1833 0.5054 0.6544
C11 C 1.0762(3) 0.23015(17) 0.65343(15)
H18 H 1.0758 0.1550 0.6915
H19 H 0.9699 0.1960 0.5991
C12 C 1.2697(3) 0.26844(18) 0.60313(16)
H20 H 1.3771 0.3046 0.6566
H21 H 1.2694 0.3405 0.5620
C13 C 1.3041(3) 0.14572(19) 0.53421(16)
H22 H 1.2005 0.1134 0.4784
H23 H 1.2951 0.0716 0.5745
C14 C 1.5032(3) 0.1785(2) 0.48781(19)
H24 H 1.5165 0.0974 0.4449
H25 H 1.6067 0.2082 0.5425
H26 H 1.5123 0.2506 0.4467
loop_
_geom_bond_atom_site_label_1
_geom_bond_atom_site_label_2
_geom_bond_site_symmetry_1
_geom_bond_site_symmetry_2
O1 H1 1_555 1_555
B1 H2 1_555 1_555
B2 B1 1_555 1_555
H3 B2 1_555 1_555
B3 B2 1_555 1_555
H4 B3 1_555 1_555
B4 B3 1_555 1_555
H5 B4 1_555 1_555
B5 B1 1_555 1_555
H6 B5 1_555 1_555
B6 B1 1_555 1_555
H7 B6 1_555 1_555
B7 B2 1_555 1_555
H8 B7 1_555 1_555
B8 B3 1_555 1_555
H9 B8 1_555 1_555
B9 B4 1_555 1_555
H10 B9 1_555 1_555
B10 B5 1_555 1_555
H11 B10 1_555 1_555
C1 B1 1_555 1_555
C2 B1 1_555 1_555
C3 C2 1_555 1_555
C4 C3 1_555 1_555
H12 C4 1_555 1_555
C5 C4 1_555 1_555
H13 C5 1_555 1_555
C6 C5 1_555 1_555
H14 C6 1_555 1_555
C7 C6 1_555 1_555
H15 C7 1_555 1_555
C8 C3 1_555 1_555
C9 C8 1_555 1_555
H16 C9 1_555 1_555
C10 O1 1_555 1_555
H17 C10 1_555 1_555
C11 C9 1_555 1_555
H18 C11 1_555 1_555
H19 C11 1_555 1_555
C12 C11 1_555 1_555
H20 C12 1_555 1_555
H21 C12 1_555 1_555
C13 C12 1_555 1_555
H22 C13 1_555 1_555
H23 C13 1_555 1_555
C14 C13 1_555 1_555
H24 C14 1_555 1_555
H25 C14 1_555 1_555
H26 C14 1_555 1_555
B2 B6 1_555 1_555
B2 C1 1_555 1_555
B3 B7 1_555 1_555
B3 C1 1_555 1_555
B4 B8 1_555 1_555
B4 C1 1_555 1_555
B4 C2 1_555 1_555
B5 B6 1_555 1_555
B5 B9 1_555 1_555
B5 C2 1_555 1_555
B6 B7 1_555 1_555
B6 B10 1_555 1_555
B7 B8 1_555 1_555
B7 B10 1_555 1_555
B8 B9 1_555 1_555
B8 B10 1_555 1_555
B9 B10 1_555 1_555
B9 C2 1_555 1_555
C1 C2 1_555 1_555
C1 C10 1_555 1_555
C7 C8 1_555 1_555
C9 C10 1_555 1_555

#END
