
#######################################################################
#
#                 Cambridge Crystallographic Data Centre
#                                CCDC 
#
#######################################################################
#
# If this CIF has been generated from an entry in the Cambridge 
# Structural Database, then it will include bibliographic, chemical, 
# crystal, experimental, refinement or atomic coordinate data resulting 
# from the CCDC's data processing and validation procedures.
#
#######################################################################

data_MEZWOD
_chemical_formula_moiety         'C22 H28 S12'
_chemical_name_systematic        
2,5-bis(4,5-bis(Propylthio)-1,3-dithiol-2-ylidene)-1,3,4,6-tetrathiapentalene
_symmetry_cell_setting           orthorhombic
_symmetry_space_group_name_H-M   'P b c a'
_symmetry_Int_Tables_number      61
_space_group_name_Hall           '-P 2ac 2ab'
loop_
_symmetry_equiv_pos_site_id
_symmetry_equiv_pos_as_xyz
1 x,y,z
2 1/2-x,1/2+y,z
3 x,1/2-y,1/2+z
4 1/2+x,y,1/2-z
5 -x,-y,-z
6 1/2+x,1/2-y,-z
7 -x,1/2+y,1/2-z
8 1/2-x,-y,1/2+z
_cell_length_a                   10.611(5)
_cell_length_b                   31.83(1)
_cell_length_c                   9.110(6)
_cell_angle_alpha                90
_cell_angle_beta                 90
_cell_angle_gamma                90
_cell_volume                     3076.89
_exptl_crystal_colour            orange
_exptl_crystal_description       plate
_chemical_melting_point          160-161deg.C
_cell_formula_units_Z            4
loop_
_atom_site_label
_atom_site_type_symbol
_atom_site_fract_x
_atom_site_fract_y
_atom_site_fract_z
S1 S 0.1842(1) 0.09846(4) 0.6965(2)
S2 S 0.0592(1) 0.05259(4) 0.4561(2)
S3 S -0.1424(1) 0.11833(5) 0.4201(2)
S4 S -0.0048(2) 0.16864(5) 0.6931(2)
S5 S 0.3091(1) -0.00862(4) 0.4289(2)
S6 S 0.4299(1) 0.04105(4) 0.6674(2)
C1 C -0.005(1) 0.1255(4) 0.153(1)
C2 C 0.2883(7) 0.2491(3) 0.580(1)
C3 C 0.1788(8) 0.2181(2) 0.563(1)
C4 C 0.005(1) 0.1667(4) 0.145(2)
C5 C 0.4738(4) -0.0111(1) 0.4473(7)
C6 C -0.0008(5) 0.1031(2) 0.5014(7)
C7 C 0.0547(5) 0.1232(1) 0.6108(7)
C8 C -0.1194(7) 0.1062(2) 0.230(1)
C9 C 0.1948(4) 0.0580(1) 0.5662(6)
C10 C 0.2971(4) 0.0336(1) 0.5539(6)
C11 C 0.1322(7) 0.2029(2) 0.706(1)
H1 H -0.0001 0.1151 0.0524
H2 H 0.0708 0.1141 0.2012
H3 H 0.3071 0.2531 0.6821
H4 H 0.3636 0.2381 0.5341
H5 H 0.2702 0.2756 0.5371
H6 H 0.1100 0.2320 0.5122
H7 H 0.2038 0.1947 0.5031
H8 H 0.0070 0.1777 0.2496
H9 H 0.0778 0.1766 0.1006
H10 H -0.0682 0.1787 0.1036
H11 H -0.1157 0.0761 0.2180
H12 H -0.1918 0.1159 0.1748
H13 H 0.1135 0.2266 0.7656
H14 H 0.2008 0.1877 0.7518
S6D S 0.5701(1) -0.04105(4) 0.3326(2)
C10D C 0.7029(4) -0.0336(1) 0.4461(6)
S5D S 0.6909(1) 0.00862(4) 0.5711(2)
C5D C 0.5262(4) 0.0111(1) 0.5527(7)
C9D C 0.8052(4) -0.0580(1) 0.4338(6)
S1D S 0.8158(1) -0.09846(4) 0.3035(2)
C7D C 0.9453(5) -0.1232(1) 0.3892(7)
S4D S 1.0048(2) -0.16864(5) 0.3069(2)
C11D C 0.8678(7) -0.2029(2) 0.294(1)
C3D C 0.8212(8) -0.2181(2) 0.437(1)
C2D C 0.7117(7) -0.2491(3) 0.420(1)
H3D H 0.6929 -0.2531 0.3179
H4D H 0.6364 -0.2381 0.4659
H5D H 0.7298 -0.2756 0.4629
H6D H 0.8900 -0.2320 0.4878
H7D H 0.7962 -0.1947 0.4969
H13D H 0.8865 -0.2266 0.2344
H14D H 0.7992 -0.1877 0.2482
C6D C 1.0008(5) -0.1031(2) 0.4986(7)
S2D S 0.9408(1) -0.05259(4) 0.5439(2)
S3D S 1.1424(1) -0.11833(5) 0.5799(2)
C8D C 1.1194(7) -0.1062(2) 0.770(1)
C1D C 1.005(1) -0.1255(4) 0.847(1)
C4D C 0.995(1) -0.1667(4) 0.855(2)
H8D H 0.9930 -0.1777 0.7504
H9D H 0.9222 -0.1766 0.8994
H10D H 1.0682 -0.1787 0.8964
H1D H 1.0001 -0.1151 0.9476
H2D H 0.9292 -0.1141 0.7988
H11D H 1.1157 -0.0761 0.7820
H12D H 1.1918 -0.1159 0.8252
loop_
_geom_bond_atom_site_label_1
_geom_bond_atom_site_label_2
_geom_bond_site_symmetry_1
_geom_bond_site_symmetry_2
S1 C7 1_555 1_555
S2 C6 1_555 1_555
S3 C6 1_555 1_555
S4 C7 1_555 1_555
S5 C5 1_555 1_555
S6 C10 1_555 1_555
C1 C4 1_555 1_555
C2 C3 1_555 1_555
C3 C11 1_555 1_555
C4 H8 1_555 1_555
C5 S6D 1_555 1_555
C6 C7 1_555 1_555
C8 S3 1_555 1_555
C9 S1 1_555 1_555
C10 S5 1_555 1_555
C11 S4 1_555 1_555
H1 C1 1_555 1_555
H2 C1 1_555 1_555
H3 C2 1_555 1_555
H4 C2 1_555 1_555
H5 C2 1_555 1_555
H6 C3 1_555 1_555
H7 C3 1_555 1_555
H9 C4 1_555 1_555
H10 C4 1_555 1_555
H11 C8 1_555 1_555
H12 C8 1_555 1_555
H13 C11 1_555 1_555
H14 C11 1_555 1_555
S6D C10D 1_555 1_555
C10D S5D 1_555 1_555
S5D C5D 1_555 1_555
C5D S6 1_555 1_555
C9D C10D 1_555 1_555
S1D C9D 1_555 1_555
C7D S1D 1_555 1_555
S4D C7D 1_555 1_555
C11D S4D 1_555 1_555
C3D C11D 1_555 1_555
C2D C3D 1_555 1_555
H3D C2D 1_555 1_555
H4D C2D 1_555 1_555
H5D C2D 1_555 1_555
H6D C3D 1_555 1_555
H7D C3D 1_555 1_555
H13D C11D 1_555 1_555
H14D C11D 1_555 1_555
C6D C7D 1_555 1_555
S2D C9D 1_555 1_555
S3D C6D 1_555 1_555
C8D S3D 1_555 1_555
C1D C8D 1_555 1_555
C4D C1D 1_555 1_555
H8D C4D 1_555 1_555
H9D C4D 1_555 1_555
H10D C4D 1_555 1_555
H1D C1D 1_555 1_555
H2D C1D 1_555 1_555
H11D C8D 1_555 1_555
H12D C8D 1_555 1_555
S2 C9 1_555 1_555
C1 C8 1_555 1_555
C5 C5D 1_555 1_555
C9 C10 1_555 1_555
C6D S2D 1_555 1_555

#END
