
#######################################################################
#
#                 Cambridge Crystallographic Data Centre
#                                CCDC 
#
#######################################################################
#
# If this CIF has been generated from an entry in the Cambridge 
# Structural Database, then it will include bibliographic, chemical, 
# crystal, experimental, refinement or atomic coordinate data resulting 
# from the CCDC's data processing and validation procedures.
#
#######################################################################

data_MEZZAV
_chemical_compound_source        
'Isolated from the EtOAc extracts of the coculture of two marine algal-derived endophytic fungal strains Aspergillus sydowii EN-534 and Penicillium citrinum EN-535.'
_chemical_name_common            'penicitrinone A acetic acid solvate'
_chemical_formula_moiety         'C23 H24 O5,x(C2 H4 O2)'
_chemical_name_systematic        
'5-hydroxy-2,3,4,7,8,9-hexamethyl-2,3,7,8-tetrahydro-10H-furo[3,2-c]pyrano[4,3,2-kl]xanthen-10-one acetic acid solvate'
_chemical_properties_biological  'antimicrobial activity'
_symmetry_cell_setting           orthorhombic
_symmetry_space_group_name_H-M   'P 21 21 21'
_symmetry_Int_Tables_number      19
_space_group_name_Hall           'P 2ac 2ab'
loop_
_symmetry_equiv_pos_site_id
_symmetry_equiv_pos_as_xyz
1 x,y,z
2 1/2-x,-y,1/2+z
3 -x,1/2+y,1/2-z
4 1/2+x,1/2-y,-z
_cell_length_a                   12.2105(7)
_cell_length_b                   14.2268(7)
_cell_length_c                   26.4545(12)
_cell_angle_alpha                90
_cell_angle_beta                 90
_cell_angle_gamma                90
_cell_volume                     4595.58
_cell_formula_units_Z            8
loop_
_atom_site_label
_atom_site_type_symbol
_atom_site_fract_x
_atom_site_fract_y
_atom_site_fract_z
O1 O 0.7219(2) 0.15004(17) 0.17785(9)
O2 O 0.9412(2) 0.44823(18) 0.09398(9)
H1 H 0.9695 0.4828 0.1151
O3 O 0.8250(2) 0.27417(15) 0.24318(8)
O4 O 0.9821(2) 0.50889(17) 0.18633(9)
O5 O 0.9272(2) 0.35618(18) 0.40818(9)
C1 C 0.6578(3) 0.1166(3) 0.13429(14)
H2 H 0.5841 0.1435 0.1366
C2 C 0.7136(3) 0.1574(3) 0.08751(13)
H3 H 0.7658 0.1110 0.0745
C3 C 0.7773(3) 0.2397(3) 0.10928(13)
C4 C 0.7759(3) 0.2287(2) 0.16116(13)
C5 C 0.8275(3) 0.2917(2) 0.19205(12)
C6 C 0.8828(3) 0.3695(2) 0.17120(12)
C7 C 0.8862(3) 0.3776(3) 0.11791(13)
C8 C 0.8355(3) 0.3113(3) 0.08630(13)
C9 C 0.8758(3) 0.3350(2) 0.27641(12)
C10 C 0.8735(3) 0.3132(2) 0.32626(12)
H4 H 0.8394 0.2584 0.3372
C11 C 0.9240(3) 0.3751(3) 0.36179(13)
C12 C 0.9731(3) 0.4632(2) 0.34376(13)
C13 C 0.9722(3) 0.4836(2) 0.29323(13)
C14 C 0.9262(3) 0.4184(2) 0.25759(12)
C15 C 0.9318(3) 0.4336(2) 0.20628(12)
C16 C 1.0607(3) 0.5583(2) 0.21865(14)
H5 H 1.0752 0.6198 0.2034
C17 C 1.0131(3) 0.5748(2) 0.27099(13)
H6 H 1.0718 0.5986 0.2928
C18 C 0.6479(4) 0.0116(3) 0.13755(16)
H7 H 0.7192 -0.0163 0.1347
H8 H 0.6021 -0.0107 0.1106
H9 H 0.6159 -0.0054 0.1694
C19 C 0.6294(4) 0.1786(3) 0.04614(15)
H10 H 0.5857 0.2317 0.0560
H11 H 0.5830 0.1249 0.0414
H12 H 0.6668 0.1927 0.0151
C20 C 0.8473(4) 0.3198(3) 0.02955(13)
H13 H 0.8621 0.2590 0.0154
H14 H 0.9067 0.3617 0.0218
H15 H 0.7807 0.3442 0.0155
C21 C 1.0180(3) 0.5273(3) 0.38354(13)
H16 H 1.0584 0.5772 0.3678
H17 H 1.0656 0.4925 0.4055
H18 H 0.9588 0.5534 0.4028
C22 C 1.1674(3) 0.5033(3) 0.21896(16)
H19 H 1.1562 0.4439 0.2354
H20 H 1.2222 0.5383 0.2369
H21 H 1.1912 0.4929 0.1848
C23 C 0.9213(3) 0.6482(2) 0.26971(15)
H22 H 0.8643 0.6273 0.2474
H23 H 0.9501 0.7069 0.2578
H24 H 0.8921 0.6563 0.3031
O6 O 0.7487(2) 0.64203(18) 0.15083(9)
O7 O 0.4740(3) 0.3509(2) 0.10197(10)
H25 H 0.4566 0.3189 0.1265
O8 O 0.6785(2) 0.52763(16) 0.22832(8)
O9 O 0.4909(2) 0.29274(17) 0.19827(9)
O10 O 0.6569(2) 0.47297(19) 0.40204(8)
C24 C 0.7847(4) 0.6737(3) 0.10068(14)
H26 H 0.8588 0.6496 0.0947
C25 C 0.7070(4) 0.6291(3) 0.06167(13)
H27 H 0.6509 0.6751 0.0523
C26 C 0.6539(3) 0.5511(3) 0.09261(13)
C27 C 0.6845(3) 0.5649(2) 0.14230(12)
C28 C 0.6474(3) 0.5058(2) 0.17955(11)
C29 C 0.5797(3) 0.4293(2) 0.16790(12)
C30 C 0.5452(3) 0.4193(3) 0.11685(13)
C31 C 0.5818(4) 0.4800(3) 0.07910(13)
C32 C 0.6423(3) 0.4728(2) 0.26761(12)
C33 C 0.6703(3) 0.5012(3) 0.31472(12)
H28 H 0.7106 0.5560 0.3193
C34 C 0.6373(3) 0.4463(3) 0.35737(13)
C35 C 0.5812(3) 0.3567(3) 0.34843(13)
C36 C 0.5528(3) 0.3307(2) 0.30053(13)
C37 C 0.5811(3) 0.3901(2) 0.25832(12)
C38 C 0.5501(3) 0.3694(2) 0.20923(12)
C39 C 0.4301(3) 0.2483(3) 0.23989(14)
H29 H 0.4098 0.1848 0.2290
C40 C 0.4980(3) 0.2390(2) 0.28782(13)
H30 H 0.4479 0.2238 0.3156
C41 C 0.7897(4) 0.7797(3) 0.10162(17)
H31 H 0.7169 0.8047 0.1042
H32 H 0.8232 0.8020 0.0711
H33 H 0.8322 0.7999 0.1302
C42 C 0.7689(4) 0.5995(3) 0.01426(15)
H34 H 0.8202 0.5508 0.0226
H35 H 0.8075 0.6526 0.0007
H36 H 0.7179 0.5764 -0.0104
C43 C 0.5381(4) 0.4690(3) 0.02559(13)
H37 H 0.5812 0.4234 0.0078
H38 H 0.5421 0.5283 0.0084
H39 H 0.4632 0.4484 0.0268
C44 C 0.5591(4) 0.2984(3) 0.39478(13)
H40 H 0.5273 0.2395 0.3850
H41 H 0.5093 0.3314 0.4166
H42 H 0.6266 0.2872 0.4124
C45 C 0.3253(3) 0.3033(3) 0.24763(15)
H43 H 0.3423 0.3644 0.2608
H44 H 0.2790 0.2704 0.2711
H45 H 0.2879 0.3099 0.2159
C46 C 0.5825(3) 0.1592(2) 0.28431(15)
H46 H 0.6340 0.1729 0.2579
H47 H 0.5457 0.1012 0.2769
H48 H 0.6206 0.1536 0.3159
O11 O 0.6575(3) 0.7026(2) 0.37126(13)
O12 O 0.7708(2) 0.6179(2) 0.41726(10)
H49 H 0.7250 0.5768 0.4123
C47 C 0.7392(5) 0.6960(3) 0.39542(15)
C48 C 0.8176(5) 0.7752(3) 0.40266(18)
H50 H 0.8619 0.7820 0.3729
H51 H 0.8637 0.7623 0.4312
H52 H 0.7776 0.8322 0.4085
O13 O 0.1381(4) 0.7128(2) 0.04295(12)
H53 H 0.1249 0.7518 0.0650
O14 O 0.0906(4) 0.6144(2) 0.10152(12)
C49 C 0.1294(6) 0.6295(4) 0.0617(2)
C50 C 0.1578(8) 0.5534(4) 0.0258(2)
H54 H 0.2181 0.5177 0.0390
H55 H 0.1780 0.5803 -0.0061
H56 H 0.0956 0.5129 0.0213
loop_
_geom_bond_atom_site_label_1
_geom_bond_atom_site_label_2
_geom_bond_site_symmetry_1
_geom_bond_site_symmetry_2
O1 C1 1_555 1_555
O2 H1 1_555 1_555
O3 C5 1_555 1_555
O4 C15 1_555 1_555
O5 C11 1_555 1_555
C1 H2 1_555 1_555
C2 C1 1_555 1_555
H3 C2 1_555 1_555
C3 C2 1_555 1_555
C4 O1 1_555 1_555
C5 C4 1_555 1_555
C6 C5 1_555 1_555
C7 O2 1_555 1_555
C8 C3 1_555 1_555
C9 O3 1_555 1_555
C10 C9 1_555 1_555
H4 C10 1_555 1_555
C11 C10 1_555 1_555
C12 C11 1_555 1_555
C13 C12 1_555 1_555
C14 C9 1_555 1_555
C15 C6 1_555 1_555
C16 O4 1_555 1_555
H5 C16 1_555 1_555
C17 C13 1_555 1_555
H6 C17 1_555 1_555
C18 C1 1_555 1_555
H7 C18 1_555 1_555
H8 C18 1_555 1_555
H9 C18 1_555 1_555
C19 C2 1_555 1_555
H10 C19 1_555 1_555
H11 C19 1_555 1_555
H12 C19 1_555 1_555
C20 C8 1_555 1_555
H13 C20 1_555 1_555
H14 C20 1_555 1_555
H15 C20 1_555 1_555
C21 C12 1_555 1_555
H16 C21 1_555 1_555
H17 C21 1_555 1_555
H18 C21 1_555 1_555
C22 C16 1_555 1_555
H19 C22 1_555 1_555
H20 C22 1_555 1_555
H21 C22 1_555 1_555
C23 C17 1_555 1_555
H22 C23 1_555 1_555
H23 C23 1_555 1_555
H24 C23 1_555 1_555
O6 C24 1_555 1_555
O7 H25 1_555 1_555
O8 C28 1_555 1_555
O9 C38 1_555 1_555
O10 C34 1_555 1_555
C24 H26 1_555 1_555
C25 C24 1_555 1_555
H27 C25 1_555 1_555
C26 C25 1_555 1_555
C27 O6 1_555 1_555
C28 C27 1_555 1_555
C29 C28 1_555 1_555
C30 O7 1_555 1_555
C31 C26 1_555 1_555
C32 O8 1_555 1_555
C33 C32 1_555 1_555
H28 C33 1_555 1_555
C34 C33 1_555 1_555
C35 C34 1_555 1_555
C36 C35 1_555 1_555
C37 C32 1_555 1_555
C38 C29 1_555 1_555
C39 O9 1_555 1_555
H29 C39 1_555 1_555
C40 C36 1_555 1_555
H30 C40 1_555 1_555
C41 C24 1_555 1_555
H31 C41 1_555 1_555
H32 C41 1_555 1_555
H33 C41 1_555 1_555
C42 C25 1_555 1_555
H34 C42 1_555 1_555
H35 C42 1_555 1_555
H36 C42 1_555 1_555
C43 C31 1_555 1_555
H37 C43 1_555 1_555
H38 C43 1_555 1_555
H39 C43 1_555 1_555
C44 C35 1_555 1_555
H40 C44 1_555 1_555
H41 C44 1_555 1_555
H42 C44 1_555 1_555
C45 C39 1_555 1_555
H43 C45 1_555 1_555
H44 C45 1_555 1_555
H45 C45 1_555 1_555
C46 C40 1_555 1_555
H46 C46 1_555 1_555
H47 C46 1_555 1_555
H48 C46 1_555 1_555
O11 C47 1_555 1_555
O12 H49 1_555 1_555
C47 O12 1_555 1_555
C48 C47 1_555 1_555
H50 C48 1_555 1_555
H51 C48 1_555 1_555
H52 C48 1_555 1_555
O13 H53 1_555 1_555
O14 C49 1_555 1_555
C49 O13 1_555 1_555
C50 C49 1_555 1_555
H54 C50 1_555 1_555
H55 C50 1_555 1_555
H56 C50 1_555 1_555
C3 C4 1_555 1_555
C6 C7 1_555 1_555
C7 C8 1_555 1_555
C13 C14 1_555 1_555
C14 C15 1_555 1_555
C16 C17 1_555 1_555
C26 C27 1_555 1_555
C29 C30 1_555 1_555
C30 C31 1_555 1_555
C36 C37 1_555 1_555
C37 C38 1_555 1_555
C39 C40 1_555 1_555

#END
