
#######################################################################
#
#                 Cambridge Crystallographic Data Centre
#                                CCDC 
#
#######################################################################
#
# If this CIF has been generated from an entry in the Cambridge 
# Structural Database, then it will include bibliographic, chemical, 
# crystal, experimental, refinement or atomic coordinate data resulting 
# from the CCDC's data processing and validation procedures.
#
#######################################################################

data_MHBNPH10
_chemical_formula_moiety         'C24 H18 O6,C6 H5 Br1'
_chemical_name_systematic        
"(+)-2,2'-Dihydroxy-1,1'-binaphthalene-3,3'-dicarboxylic acid dimethyl ester bromobenzene solvate"
_symmetry_cell_setting           monoclinic
_symmetry_space_group_name_H-M   'P 21'
_symmetry_Int_Tables_number      4
_space_group_name_Hall           'P 2yb'
loop_
_symmetry_equiv_pos_site_id
_symmetry_equiv_pos_as_xyz
1 x,y,z
2 -x,1/2+y,-z
_cell_length_a                   15.780(20)
_cell_length_b                   9.220(10)
_cell_length_c                   9.120(10)
_cell_angle_alpha                90
_cell_angle_beta                 97.0(20)
_cell_angle_gamma                90
_cell_volume                     1316.99
_cell_formula_units_Z            2
loop_
_atom_site_label
_atom_site_type_symbol
_atom_site_fract_x
_atom_site_fract_y
_atom_site_fract_z
Br1 Br 0.05300 0.00170 0.18220
C18 C 0.11230 -0.04340 0.00970
C19 C 0.17200 0.04100 -0.04000
C20 C 0.21000 -0.01200 -0.15500
C21 C 0.17300 -0.12240 -0.24100
C22 C 0.10700 -0.20410 -0.19700
C24 C 0.07940 -0.17180 -0.06430
C1 C 0.34510 0.21650 -0.50910
C2 C 0.34120 0.06040 -0.51240
C3 C 0.53360 0.29400 -0.21870
C4 C 0.64300 0.26510 -0.02800
C5 C 0.28290 0.30290 -0.61050
C6 C 0.21650 0.37750 -0.55150
C7 C 0.15660 0.46380 -0.64280
C8 C 0.17040 0.47820 -0.79720
C9 C 0.23370 0.40540 -0.85650
C10 C 0.24170 0.42690 -1.01220
C11 C 0.30700 0.34740 -1.07000
C12 C 0.40680 0.28110 -0.41660
C13 C 0.36500 0.26400 -0.97600
C14 C 0.36080 0.24070 -0.82280
C15 C 0.29420 0.31550 -0.76260
C16 C 0.08920 0.53950 -0.57870
C17 C -0.03640 0.68770 -0.62130
C23 C 0.46440 0.19920 -0.32170
C25 C 0.46370 0.05080 -0.32230
C26 C 0.40150 -0.02160 -0.41420
C27 C 0.39470 -0.16980 -0.41870
C28 C 0.33120 -0.25430 -0.51210
C29 C 0.27120 -0.16320 -0.60200
C30 C 0.27490 -0.01740 -0.60510
O1 O 0.40910 0.42710 -0.42060
O2 O 0.20870 0.35900 -0.40540
O3 O 0.53450 0.41360 -0.21160
O4 O 0.07780 0.53590 -0.45530
O5 O 0.57930 0.19810 -0.12550
O6 O 0.03700 0.60950 -0.67410
loop_
_geom_bond_atom_site_label_1
_geom_bond_atom_site_label_2
_geom_bond_site_symmetry_1
_geom_bond_site_symmetry_2
Br1 C18 1_555 1_555
C1 C2 1_555 1_555
C2 C26 1_555 1_555
C3 C23 1_555 1_555
C4 O5 1_555 1_555
C5 C1 1_555 1_555
C6 C5 1_555 1_555
C7 C6 1_555 1_555
C8 C7 1_555 1_555
C9 C8 1_555 1_555
C10 C9 1_555 1_555
C11 C10 1_555 1_555
C12 C1 1_555 1_555
C13 C11 1_555 1_555
C14 C13 1_555 1_555
C15 C5 1_555 1_555
C16 C7 1_555 1_555
C17 O6 1_555 1_555
C18 C19 1_555 1_555
C19 C20 1_555 1_555
C20 C21 1_555 1_555
C21 C22 1_555 1_555
C22 C24 1_555 1_555
C23 C12 1_555 1_555
C24 C18 1_555 1_555
C25 C23 1_555 1_555
C26 C25 1_555 1_555
C27 C26 1_555 1_555
C28 C27 1_555 1_555
C29 C28 1_555 1_555
C30 C2 1_555 1_555
O1 C12 1_555 1_555
O2 C6 1_555 1_555
O3 C3 1_555 1_555
O4 C16 1_555 1_555
O5 C3 1_555 1_555
O6 C16 1_555 1_555
C9 C15 1_555 1_555
C14 C15 1_555 1_555
C29 C30 1_555 1_555

#END
