
#######################################################################
#
#                 Cambridge Crystallographic Data Centre
#                                CCDC 
#
#######################################################################
#
# If this CIF has been generated from an entry in the Cambridge 
# Structural Database, then it will include bibliographic, chemical, 
# crystal, experimental, refinement or atomic coordinate data resulting 
# from the CCDC's data processing and validation procedures.
#
#######################################################################

data_MHOCUM01
_chemical_name_common            Dicoumarol
_chemical_formula_moiety         'C19 H12 O6'
_chemical_name_systematic        3,3'-methylenebis(4-hydroxy-2H-chromen-2-one)
_symmetry_cell_setting           monoclinic
_symmetry_space_group_name_H-M   'P 21/c'
_symmetry_Int_Tables_number      14
_space_group_name_Hall           '-P 2ybc'
loop_
_symmetry_equiv_pos_site_id
_symmetry_equiv_pos_as_xyz
1 x,y,z
2 -x,1/2+y,1/2-z
3 -x,-y,-z
4 x,1/2-y,1/2+z
_cell_length_a                   8.403(6)
_cell_length_b                   15.083(10)
_cell_length_c                   11.686(8)
_cell_angle_alpha                90
_cell_angle_beta                 98.565(6)
_cell_angle_gamma                90
_cell_volume                     1464.59
_cell_formula_units_Z            4
loop_
_atom_site_label
_atom_site_type_symbol
_atom_site_fract_x
_atom_site_fract_y
_atom_site_fract_z
C1 C 0.94937(19) 0.23548(11) 0.42317(14)
H1 H 0.9547 0.2236 0.3423
H2 H 1.0583 0.2464 0.4611
C2 C 0.88754(18) 0.15388(11) 0.47545(14)
C3 C 0.94714(19) 0.13690(11) 0.59572(14)
C4 C 0.7823(2) 0.09727(11) 0.41554(14)
C5 C 0.73880(19) 0.01506(11) 0.46753(14)
C6 C 0.80323(19) 0.00006(11) 0.58171(15)
C7 C 0.7664(2) -0.07461(12) 0.64078(16)
H3 H 0.8108 -0.0835 0.7177
C8 C 0.6622(2) -0.13559(12) 0.58284(18)
H4 H 0.6351 -0.1861 0.6213
C9 C 0.5970(2) -0.12256(12) 0.46759(18)
H5 H 0.5271 -0.1643 0.4292
C10 C 0.6359(2) -0.04801(12) 0.41068(17)
H6 H 0.5930 -0.0397 0.3334
C11 C 0.85267(19) 0.31866(11) 0.43054(14)
C12 C 0.7284(2) 0.33687(11) 0.33437(14)
C13 C 0.87869(19) 0.37636(12) 0.52063(14)
C14 C 0.79602(19) 0.46018(11) 0.51582(14)
C15 C 0.68671(19) 0.47831(11) 0.41717(14)
C16 C 0.6034(2) 0.55699(12) 0.40297(16)
H7 H 0.5314 0.5681 0.3361
C17 C 0.6294(2) 0.61874(12) 0.49001(18)
H8 H 0.5742 0.6724 0.4817
C18 C 0.7361(2) 0.60265(12) 0.58973(17)
H9 H 0.7517 0.6452 0.6480
C19 C 0.8186(2) 0.52444(12) 0.60293(15)
H10 H 0.8903 0.5139 0.6702
O1 O 1.03307(14) 0.18764(9) 0.65914(11)
O2 O 0.90547(15) 0.06062(8) 0.64464(10)
O3 O 0.71250(16) 0.11155(9) 0.30716(11)
H11 H 0.698(3) 0.1700(18) 0.274(2)
O4 O 0.68461(16) 0.28537(9) 0.25573(11)
O5 O 0.65305(14) 0.41651(8) 0.32922(10)
O6 O 0.98204(14) 0.36093(9) 0.61637(10)
H12 H 1.022(3) 0.2972(16) 0.6326(19)
loop_
_geom_bond_atom_site_label_1
_geom_bond_atom_site_label_2
_geom_bond_site_symmetry_1
_geom_bond_site_symmetry_2
C1 H1 1_555 1_555
H2 C1 1_555 1_555
C2 C1 1_555 1_555
C3 C2 1_555 1_555
C4 C2 1_555 1_555
C5 C4 1_555 1_555
C6 C5 1_555 1_555
C7 C6 1_555 1_555
H3 C7 1_555 1_555
C8 C7 1_555 1_555
H4 C8 1_555 1_555
C9 C8 1_555 1_555
H5 C9 1_555 1_555
C10 C5 1_555 1_555
H6 C10 1_555 1_555
C11 C1 1_555 1_555
C12 C11 1_555 1_555
C13 C11 1_555 1_555
C14 C13 1_555 1_555
C15 C14 1_555 1_555
C16 C15 1_555 1_555
H7 C16 1_555 1_555
C17 C16 1_555 1_555
H8 C17 1_555 1_555
C18 C17 1_555 1_555
H9 C18 1_555 1_555
C19 C14 1_555 1_555
H10 C19 1_555 1_555
O1 C3 1_555 1_555
O2 C3 1_555 1_555
O3 C4 1_555 1_555
H11 O3 1_555 1_555
O4 C12 1_555 1_555
O5 C12 1_555 1_555
O6 C13 1_555 1_555
H12 O6 1_555 1_555
C6 O2 1_555 1_555
C9 C10 1_555 1_555
C15 O5 1_555 1_555
C18 C19 1_555 1_555

#END
