
#######################################################################
#
#                 Cambridge Crystallographic Data Centre
#                                CCDC 
#
#######################################################################
#
# If this CIF has been generated from an entry in the Cambridge 
# Structural Database, then it will include bibliographic, chemical, 
# crystal, experimental, refinement or atomic coordinate data resulting 
# from the CCDC's data processing and validation procedures.
#
#######################################################################

data_MHTPDX
_chemical_formula_moiety         'C14 H18 O3 S1'
_chemical_name_systematic        
8-Methoxy-1,2,3,4,5,6-cis-4a,10b-octahydro-6-thiaphenanthrene-6,6-dioxide
_symmetry_cell_setting           orthorhombic
_symmetry_space_group_name_H-M   'P b n b'
_symmetry_Int_Tables_number      56
_space_group_name_Hall           '-P 2bc 2ab'
loop_
_symmetry_equiv_pos_site_id
_symmetry_equiv_pos_as_xyz
1 x,y,z
2 1/2-x,1/2+y,z
3 1/2+x,-y,1/2+z
4 -x,1/2-y,1/2+z
5 -x,-y,-z
6 1/2+x,1/2-y,-z
7 1/2-x,y,1/2-z
8 x,1/2+y,1/2-z
_cell_length_a                   30.60(2)
_cell_length_b                   10.56(1)
_cell_length_c                   8.03(1)
_cell_angle_alpha                90
_cell_angle_beta                 90
_cell_angle_gamma                90
_cell_volume                     2594.78
_cell_formula_units_Z            8
loop_
_atom_site_label
_atom_site_type_symbol
_atom_site_fract_x
_atom_site_fract_y
_atom_site_fract_z
C1 C 0.15000 0.24140 -0.39770
C2 C 0.09540 0.43560 -0.17200
C3 C 0.11820 0.45190 -0.32420
C4 C 0.09940 0.53350 -0.43790
C5 C 0.16020 0.37910 -0.35100
C6 C 0.19070 0.44130 -0.48060
C7 C -0.02300 0.70140 -0.33930
C8 C 0.19180 0.16290 -0.41770
C9 C 0.22120 0.22260 -0.54920
C10 C 0.23170 0.35950 -0.50520
C11 C 0.16720 0.46210 -0.64570
C12 C 0.05980 0.59530 -0.41120
C13 C 0.03780 0.57410 -0.26290
C14 C 0.05610 0.49420 -0.14430
H1 H 0.13400 0.20100 -0.30600
H2 H 0.12800 0.24700 -0.52400
H3 H 0.10700 0.36700 -0.11000
H4 H 0.17800 0.36700 -0.24100
H5 H 0.20200 0.53000 -0.42600
H6 H -0.02200 0.65100 -0.44000
H7 H -0.05000 0.71600 -0.27600
H8 H -0.00900 0.78200 -0.34800
H9 H 0.20500 0.15600 -0.32100
H10 H 0.18600 0.06900 -0.42700
H11 H 0.25200 0.19200 -0.56100
H12 H 0.20700 0.22700 -0.64000
H13 H 0.25000 0.37100 -0.40400
H14 H 0.24900 0.39000 -0.58200
H15 H 0.14400 0.39500 -0.68100
H16 H 0.18700 0.50600 -0.74300
H17 H 0.04400 0.64300 -0.49800
H18 H 0.04100 0.49300 -0.05800
O1 O 0.14760 0.69880 -0.59340
O2 O 0.09660 0.57160 -0.76020
O3 O -0.00170 0.62630 -0.22030
S1 S 0.12640 0.57850 -0.62310
loop_
_geom_bond_atom_site_label_1
_geom_bond_atom_site_label_2
_geom_bond_site_symmetry_1
_geom_bond_site_symmetry_2
C1 C5 1_555 1_555
C2 C3 1_555 1_555
C3 C4 1_555 1_555
C4 C12 1_555 1_555
C5 C3 1_555 1_555
C6 C5 1_555 1_555
C7 H6 1_555 1_555
C8 C1 1_555 1_555
C9 C8 1_555 1_555
C10 C6 1_555 1_555
C11 C6 1_555 1_555
C12 C13 1_555 1_555
C13 C14 1_555 1_555
C14 C2 1_555 1_555
H1 C1 1_555 1_555
H2 C1 1_555 1_555
H3 C2 1_555 1_555
H4 C5 1_555 1_555
H5 C6 1_555 1_555
H7 C7 1_555 1_555
H8 C7 1_555 1_555
H9 C8 1_555 1_555
H10 C8 1_555 1_555
H11 C9 1_555 1_555
H12 C9 1_555 1_555
H13 C10 1_555 1_555
H14 C10 1_555 1_555
H15 C11 1_555 1_555
H16 C11 1_555 1_555
H17 C12 1_555 1_555
H18 C14 1_555 1_555
O1 S1 1_555 1_555
O2 S1 1_555 1_555
O3 C7 1_555 1_555
S1 C4 1_555 1_555
C9 C10 1_555 1_555
C11 S1 1_555 1_555
C13 O3 1_555 1_555

#END
