
#######################################################################
#
#                 Cambridge Crystallographic Data Centre
#                                CCDC 
#
#######################################################################
#
# If this CIF has been generated from an entry in the Cambridge 
# Structural Database, then it will include bibliographic, chemical, 
# crystal, experimental, refinement or atomic coordinate data resulting 
# from the CCDC's data processing and validation procedures.
#
#######################################################################

data_MIBHEM
_chemical_formula_moiety         'C43 H30 N4 O1,C1 H4 O1,0.5(H2 O1)'
_chemical_name_systematic        
'meso-Tetraphenyl-2-oxachlorin methanol solvate hemihydrate'
_symmetry_cell_setting           tetragonal
_symmetry_space_group_name_H-M   'I 4/m'
_symmetry_Int_Tables_number      87
_space_group_name_Hall           '-I 4'
loop_
_symmetry_equiv_pos_site_id
_symmetry_equiv_pos_as_xyz
1 x,y,z
2 -y,x,z
3 -x,-y,z
4 y,-x,z
5 1/2+x,1/2+y,1/2+z
6 1/2-y,1/2+x,1/2+z
7 1/2-x,1/2-y,1/2+z
8 1/2+y,1/2-x,1/2+z
9 -x,-y,-z
10 y,-x,-z
11 x,y,-z
12 -y,x,-z
13 1/2-x,1/2-y,1/2-z
14 1/2+y,1/2-x,1/2-z
15 1/2+x,1/2+y,1/2-z
16 1/2-y,1/2+x,1/2-z
_cell_length_a                   13.460(3)
_cell_length_b                   13.460(3)
_cell_length_c                   9.7678(18)
_cell_angle_alpha                90
_cell_angle_beta                 90
_cell_angle_gamma                90
_cell_volume                     1769.65
_exptl_crystal_colour            yellow
_exptl_crystal_description       block
_cell_formula_units_Z            2
loop_
_atom_site_label
_atom_site_type_symbol
_atom_site_fract_x
_atom_site_fract_y
_atom_site_fract_z
C1 C 0.62754(16) 0.31151(16) 0.0000
C2 C 0.6211(11) 0.2009(7) 0.0000
H1 H 0.6740 0.1542 0.0000
C3 C 0.52192(17) 0.18241(16) 0.0000
H2 H 0.4927 0.1182 0.0000
C4 C 0.46757(16) 0.27491(15) 0.0000
C5 C 0.36455(16) 0.28257(15) 0.0000
C6 C 0.30523(15) 0.18801(16) 0.0000
C7 C 0.27867(17) 0.14271(15) 0.1201(2)
H3 H 0.2976 0.1717 0.2048
C8 C 0.22428(17) 0.05458(16) 0.1196(3)
H4 H 0.2055 0.0248 0.2039
C9 C 0.19806(18) 0.01101(18) 0.0000
H5 H 0.1617 -0.0495 0.0000
N1 N 0.53454(12) 0.35147(13) 0.0000
H6 H 0.5201 0.4152 0.0000
O1 O 0.624(2) 0.2197(17) -0.008(7)
H7 H 0.5031 0.1359 -0.0755
C1A C 0.68849(16) 0.62754(16) 0.0000
C2A C 0.7991(7) 0.6211(11) 0.0000
H1A H 0.8458 0.6740 0.0000
C3A C 0.81759(16) 0.52192(17) 0.0000
H2A H 0.8818 0.4927 0.0000
C4A C 0.72509(15) 0.46757(16) 0.0000
C5A C 0.71743(15) 0.36455(16) 0.0000
C6A C 0.81199(16) 0.30523(15) 0.0000
C7A C 0.85729(15) 0.27867(17) 0.1201(2)
H3A H 0.8283 0.2976 0.2048
C8A C 0.94542(16) 0.22428(17) 0.1196(3)
H4A H 0.9752 0.2055 0.2039
C9A C 0.98899(18) 0.19806(18) 0.0000
H5A H 1.0495 0.1617 0.0000
N1A N 0.64853(13) 0.53454(12) 0.0000
H6A H 0.5848 0.5201 0.0000
O1A O 0.7803(17) 0.624(2) -0.008(7)
H7A H 0.8641 0.5031 -0.0755
C1C C 0.31151(16) 0.37246(16) 0.0000
C2C C 0.2009(7) 0.3789(11) 0.0000
H1C H 0.1542 0.3260 0.0000
C3C C 0.18241(16) 0.47808(17) 0.0000
H2C H 0.1182 0.5073 0.0000
C4C C 0.27491(15) 0.53243(16) 0.0000
C5C C 0.28257(15) 0.63545(16) 0.0000
C6C C 0.18801(16) 0.69477(15) 0.0000
C7C C 0.14271(15) 0.72133(17) 0.1201(2)
H3C H 0.1717 0.7024 0.2048
C8C C 0.05458(16) 0.77572(17) 0.1196(3)
H4C H 0.0248 0.7945 0.2039
C9C C 0.01101(18) 0.80194(18) 0.0000
H5C H -0.0495 0.8383 0.0000
N1C N 0.35147(13) 0.46546(12) 0.0000
H6C H 0.4152 0.4799 0.0000
O1C O 0.2197(17) 0.376(2) -0.008(7)
H7C H 0.1359 0.4969 -0.0755
C7I C 0.14271(15) 0.72133(17) -0.1201(2)
H3I H 0.1717 0.7024 -0.2048
C8I C 0.05458(16) 0.77572(17) -0.1196(3)
H4I H 0.0248 0.7945 -0.2039
O1I O 0.2197(17) 0.376(2) 0.008(7)
H7I H 0.1359 0.4969 0.0755
C7J C 0.27867(17) 0.14271(15) -0.1201(2)
H3J H 0.2976 0.1717 -0.2048
C8J C 0.22428(17) 0.05458(16) -0.1196(3)
H4J H 0.2055 0.0248 -0.2039
O1J O 0.624(2) 0.2197(17) 0.008(7)
H7J H 0.5031 0.1359 0.0755
C7K C 0.85729(15) 0.27867(17) -0.1201(2)
H3K H 0.8283 0.2976 -0.2048
C8K C 0.94542(16) 0.22428(17) -0.1196(3)
H4K H 0.9752 0.2055 -0.2039
O1K O 0.7803(17) 0.624(2) 0.008(7)
H7K H 0.8641 0.5031 0.0755
C1B C 0.37246(16) 0.68849(16) 0.0000
C2B C 0.3789(11) 0.7991(7) 0.0000
H1B H 0.3260 0.8458 0.0000
C3B C 0.47808(17) 0.81759(16) 0.0000
H2B H 0.5073 0.8818 0.0000
C4B C 0.53243(16) 0.72509(15) 0.0000
C5B C 0.63545(16) 0.71743(15) 0.0000
C6B C 0.69477(15) 0.81199(16) 0.0000
C7B C 0.72133(17) 0.85729(15) 0.1201(2)
H3B H 0.7024 0.8283 0.2048
C8B C 0.77572(17) 0.94542(16) 0.1196(3)
H4B H 0.7945 0.9752 0.2039
C9B C 0.80194(18) 0.98899(18) 0.0000
H5B H 0.8383 1.0495 0.0000
N1B N 0.46546(12) 0.64853(13) 0.0000
H6B H 0.4799 0.5848 0.0000
O1B O 0.376(2) 0.7803(17) -0.008(7)
H7B H 0.4969 0.8641 -0.0755
C7H C 0.72133(17) 0.85729(15) -0.1201(2)
H3H H 0.7024 0.8283 -0.2048
C8H C 0.77572(17) 0.94542(16) -0.1196(3)
H4H H 0.7945 0.9752 -0.2039
O1H O 0.376(2) 0.7803(17) 0.008(7)
H7H H 0.4969 0.8641 0.0755
O2 O 0.5000 0.0000 0.2500
H8 H 0.505(19) -0.059(6) 0.22(2)
C10 C 0.5678(16) 0.0462(11) 0.154(2)
H8B H 0.495(19) 0.059(6) 0.22(2)
C10B C 0.4322(16) -0.0462(11) 0.154(2)
H8M H 0.441(6) -0.005(19) 0.28(2)
C10M C 0.5462(11) -0.0678(16) 0.346(2)
H8O H 0.559(6) 0.005(19) 0.28(2)
C10O C 0.4538(11) 0.0678(16) 0.346(2)
O3? O 0.5143(8) 0.1426(8) 0.1285(14)
H9? H 0.5549 0.0003 0.0784
H10? H 0.5438 0.0168 0.2399
H11? H 0.6393 0.0587 0.1611
C11? C 0.52192(17) 0.18241(16) 0.0000
loop_
_geom_bond_atom_site_label_1
_geom_bond_atom_site_label_2
_geom_bond_site_symmetry_1
_geom_bond_site_symmetry_2
C1 C2 1_555 1_555
C2 H1 1_555 1_555
H1 O1 1_555 1_555
C3 C2 1_555 1_555
H2 C3 1_555 1_555
C4 C3 1_555 1_555
C5 C4 1_555 1_555
C6 C5 1_555 1_555
C7 C6 1_555 1_555
H3 C7 1_555 1_555
C8 C7 1_555 1_555
H4 C8 1_555 1_555
C9 C8 1_555 1_555
H5 C9 1_555 1_555
N1 C1 1_555 1_555
H6 N1 1_555 1_555
O1 C1 1_555 1_555
H7 C3 1_555 1_555
O2 H8 1_555 1_555
H8 C10B 1_555 1_555
C10 O2 1_555 1_555
C1A C2A 1_555 1_555
C2A H1A 1_555 1_555
H1A O1A 1_555 1_555
C3A C2A 1_555 1_555
H2A C3A 1_555 1_555
C4A C3A 1_555 1_555
C5A C1 1_555 1_555
C6A C5A 1_555 1_555
C7A C6A 1_555 1_555
H3A C7A 1_555 1_555
C8A C7A 1_555 1_555
H4A C8A 1_555 1_555
C9A C8A 1_555 1_555
H5A C9A 1_555 1_555
N1A C1A 1_555 1_555
H6A N1A 1_555 1_555
O1A C1A 1_555 1_555
H7A C3A 1_555 1_555
C1C C5 1_555 1_555
C2C C1C 1_555 1_555
H1C C2C 1_555 1_555
C3C C2C 1_555 1_555
H2C C3C 1_555 1_555
C4C C3C 1_555 1_555
C5C C4C 1_555 1_555
C6C C5C 1_555 1_555
C7C C6C 1_555 1_555
H3C C7C 1_555 1_555
C8C C7C 1_555 1_555
H4C C8C 1_555 1_555
C9C C8C 1_555 1_555
H5C C9C 1_555 1_555
N1C C1C 1_555 1_555
H6C N1C 1_555 1_555
O1C C1C 1_555 1_555
H7C C3C 1_555 1_555
C7I C6C 1_555 1_555
H3I C7I 1_555 1_555
C8I C9C 1_555 1_555
H4I C8I 1_555 1_555
O1I C1C 1_555 1_555
H7I C3C 1_555 1_555
C7J C6 1_555 1_555
H3J C7J 1_555 1_555
C8J C9 1_555 1_555
H4J C8J 1_555 1_555
O1J C1 1_555 1_555
H7J C3 1_555 1_555
C7K C6A 1_555 1_555
H3K C7K 1_555 1_555
C8K C9A 1_555 1_555
H4K C8K 1_555 1_555
O1K C1A 1_555 1_555
H7K C3A 1_555 1_555
C1B C5C 1_555 1_555
C2B C1B 1_555 1_555
H1B C2B 1_555 1_555
C3B C2B 1_555 1_555
H2B C3B 1_555 1_555
C4B C3B 1_555 1_555
C5B C1A 1_555 1_555
C6B C5B 1_555 1_555
C7B C6B 1_555 1_555
H3B C7B 1_555 1_555
C8B C7B 1_555 1_555
H4B C8B 1_555 1_555
C9B C8B 1_555 1_555
H5B C9B 1_555 1_555
N1B C1B 1_555 1_555
H6B N1B 1_555 1_555
O1B C1B 1_555 1_555
H7B C3B 1_555 1_555
C7H C6B 1_555 1_555
H3H C7H 1_555 1_555
C8H C9B 1_555 1_555
H4H C8H 1_555 1_555
O1H C1B 1_555 1_555
H7H C3B 1_555 1_555
H8B O2 1_555 1_555
C10B O2 1_555 1_555
H8M O2 1_555 1_555
C10M O2 1_555 1_555
H8O O2 1_555 1_555
C10O O2 1_555 1_555
H1 O1J 1_555 1_555
C3 O1 1_555 1_555
C3 O1J 1_555 1_555
C4 N1 1_555 1_555
H8 C10M 1_555 1_555
C10 H8B 1_555 1_555
C10 H8O 1_555 1_555
H1A O1K 1_555 1_555
C3A O1A 1_555 1_555
C3A O1K 1_555 1_555
C4A C5A 1_555 1_555
C4A N1A 1_555 1_555
H1C O1C 1_555 1_555
H1C O1I 1_555 1_555
C3C O1C 1_555 1_555
C3C O1I 1_555 1_555
C4C N1C 1_555 1_555
C7I C8I 1_555 1_555
C7J C8J 1_555 1_555
C7K C8K 1_555 1_555
H1B O1B 1_555 1_555
H1B O1H 1_555 1_555
C3B O1B 1_555 1_555
C3B O1H 1_555 1_555
C4B C5B 1_555 1_555
C4B N1B 1_555 1_555
C7H C8H 1_555 1_555
H8B C10O 1_555 1_555
C10B H8M 1_555 1_555
H8M C10O 1_555 1_555
C10M H8O 1_555 1_555

#END
