
#######################################################################
#
#                 Cambridge Crystallographic Data Centre
#                                CCDC 
#
#######################################################################
#
# If this CIF has been generated from an entry in the Cambridge 
# Structural Database, then it will include bibliographic, chemical, 
# crystal, experimental, refinement or atomic coordinate data resulting 
# from the CCDC's data processing and validation procedures.
#
#######################################################################

data_MIBKEO
_chemical_name_common            
2-((3-Ammoniopropanoyl)amino)-3-methylpentanoate
_chemical_formula_moiety         'C9 H18 N2 O3'
_chemical_name_systematic        \b-Alanyl-L-isoleucine
_symmetry_cell_setting           triclinic
_symmetry_space_group_name_H-M   'P 1'
_symmetry_Int_Tables_number      1
_space_group_name_Hall           'P 1'
loop_
_symmetry_equiv_pos_site_id
_symmetry_equiv_pos_as_xyz
1 x,y,z
_cell_length_a                   12.5522(14)
_cell_length_b                   5.5160(5)
_cell_length_c                   15.9248(19)
_cell_angle_alpha                89.816(9)
_cell_angle_beta                 87.074(10)
_cell_angle_gamma                89.234(8)
_cell_volume                     1101.06
_exptl_crystal_colour            white
_exptl_crystal_description       needle
_cell_formula_units_Z            4
loop_
_atom_site_label
_atom_site_type_symbol
_atom_site_fract_x
_atom_site_fract_y
_atom_site_fract_z
O1 O 0.1301(3) 0.1839(7) 0.1695(2)
C1 C 0.1920(4) 0.0482(9) 0.1246(3)
O2 O 0.1938(4) -0.1737(7) 0.1268(3)
C2 C 0.2689(4) 0.1735(9) 0.0610(3)
H1 H 0.2839 0.0601 0.0145
C3 C 0.3768(5) 0.2343(12) 0.0981(4)
H2 H 0.4148 0.3431 0.0585
C4 C 0.4459(5) 0.0035(14) 0.1064(5)
H3 H 0.4158 -0.0942 0.1522
H4 H 0.4430 -0.0903 0.0551
C5 C 0.3640(6) 0.3636(13) 0.1822(5)
H5 H 0.3277 0.2602 0.2226
H6 H 0.3231 0.5103 0.1758
H7 H 0.4330 0.4022 0.2013
C6 C 0.5624(5) 0.053(2) 0.1224(5)
H8 H 0.5664 0.1374 0.1748
H9 H 0.5928 0.1515 0.0776
H10 H 0.6012 -0.0974 0.1248
N1 N 0.2195(4) 0.3931(7) 0.0254(3)
H11 H 0.2241 0.5293 0.0511
C7 C 0.1685(5) 0.3845(10) -0.0449(4)
O3 O 0.1642(5) 0.1995(8) -0.0880(3)
C8 C 0.1152(5) 0.6186(9) -0.0733(3)
H12 H 0.0383 0.6050 -0.0659
H13 H 0.1373 0.7527 -0.0393
C9 C 0.1465(5) 0.6661(10) -0.1654(4)
H14 H 0.2218 0.7031 -0.1711
H15 H 0.1347 0.5212 -0.1978
N2 N 0.0830(4) 0.8728(8) -0.1995(3)
H16 H 0.0141 0.8515 -0.1861
H17 H 0.0933 0.8784 -0.2552
H18 H 0.1040 1.0112 -0.1774
C10 C -0.2629(4) 0.7545(9) -0.0725(3)
H19 H -0.2714 0.6443 -0.0242
O4 O -0.2001(4) 0.4062(7) -0.1505(2)
O5 O -0.1275(3) 0.7580(8) -0.1843(3)
C11 C -0.1893(4) 0.6260(10) -0.1407(3)
C12 C -0.3757(4) 0.8059(11) -0.1056(4)
H20 H -0.4117 0.9210 -0.0666
C13 C -0.4424(6) 0.5772(15) -0.1039(6)
H21 H -0.4416 0.5056 -0.0482
H22 H -0.4098 0.4613 -0.1434
C14 C -0.5582(6) 0.6214(19) -0.1259(5)
H23 H -0.5987 0.4778 -0.1140
H24 H -0.5607 0.6606 -0.1845
H25 H -0.5880 0.7535 -0.0929
C15 C -0.3706(5) 0.9253(13) -0.1915(4)
H26 H -0.3411 0.8127 -0.2326
H27 H -0.3263 1.0657 -0.1904
H28 H -0.4412 0.9732 -0.2060
N3 N -0.2148(4) 0.9741(8) -0.0438(3)
H29 H -0.2190 1.1041 -0.0735
C16 C -0.1643(5) 0.9789(10) 0.0273(4)
O6 O -0.1622(5) 0.8057(8) 0.0771(3)
C17 C -0.1062(5) 1.2082(10) 0.0457(3)
H30 H -0.1274 1.3346 0.0073
H31 H -0.0301 1.1804 0.0366
N4 N -0.0846(4) 1.1193(8) 0.1992(3)
H32 H -0.1039 0.9691 0.1875
H33 H -0.1091 1.1582 0.2509
H34 H -0.0137 1.1280 0.1960
C18 C -0.1303(5) 1.2933(11) 0.1369(3)
H35 H -0.1003 1.4525 0.1441
H36 H -0.2069 1.3068 0.1477
C19 C -0.1593(4) 0.5500(9) 0.3457(3)
O7 O -0.1551(4) 0.3253(7) 0.3504(3)
O8 O -0.1021(3) 0.6803(7) 0.2996(3)
C20 C -0.3406(4) 0.7744(11) 0.3504(4)
H37 H -0.3149 0.9078 0.3143
C21 C -0.2459(4) 0.6815(9) 0.4023(3)
H38 H -0.2739 0.5660 0.4446
C22 C -0.3772(9) 0.5740(17) 0.2948(8)
H39 H -0.4061 0.4449 0.3291
H40 H -0.3177 0.5137 0.2604
H41 H -0.4311 0.6360 0.2595
C23 C -0.4307(6) 0.872(2) 0.4095(5)
H42 H -0.4499 0.7472 0.4502
H43 H -0.4040 1.0085 0.4402
C24 C -0.5298(6) 0.953(2) 0.3678(6)
H44 H -0.5120 1.0753 0.3265
H45 H -0.5803 1.0190 0.4093
H46 H -0.5606 0.8172 0.3409
N5 N -0.2014(4) 0.8853(7) 0.4459(3)
H47 H -0.1958 1.0230 0.4207
C25 C -0.1693(5) 0.8628(9) 0.5241(3)
O9 O -0.1815(5) 0.6755(8) 0.5659(3)
C26 C -0.1183(5) 1.0834(10) 0.5603(3)
H48 H -0.0419 1.0564 0.5622
H49 H -0.1303 1.2230 0.5246
C27 C -0.1655(5) 1.1318(10) 0.6478(3)
H50 H -0.2416 1.1619 0.6453
H51 H -0.1554 0.9895 0.6826
N6 N -0.1157(4) 1.3420(9) 0.6865(3)
H52 H -0.0454 1.3185 0.6862
H53 H -0.1417 1.3591 0.7392
H54 H -0.1300 1.4754 0.6573
C28 C 0.1585(4) 0.1785(10) -0.3676(3)
O10 O 0.1494(4) -0.0488(8) -0.3679(3)
O11 O 0.1012(3) 0.3208(8) -0.3236(3)
C29 C 0.2493(4) 0.2882(9) -0.4225(3)
H55 H 0.2740 0.1691 -0.4650
C30 C 0.3437(5) 0.3509(12) -0.3671(4)
H56 H 0.3232 0.4971 -0.3351
C31 C 0.3646(6) 0.1532(17) -0.3048(6)
H57 H 0.3044 0.1400 -0.2655
H58 H 0.4269 0.1910 -0.2751
H59 H 0.3759 0.0022 -0.3339
C32 C 0.4422(6) 0.410(2) -0.4216(5)
H60 H 0.4651 0.2649 -0.4520
H61 H 0.4227 0.5304 -0.4628
C33 C 0.5355(7) 0.504(2) -0.3760(6)
H62 H 0.5116 0.6316 -0.3386
H63 H 0.5882 0.5647 -0.4162
H64 H 0.5660 0.3743 -0.3443
N7 N 0.2110(4) 0.5050(8) -0.4650(3)
H65 H 0.2057 0.6384 -0.4372
C34 C 0.1838(5) 0.5055(10) -0.5446(4)
O12 O 0.2006(5) 0.3375(9) -0.5940(3)
C35 C 0.1267(5) 0.7355(10) -0.5725(4)
H66 H 0.0503 0.7117 -0.5657
H67 H 0.1447 0.8676 -0.5360
C36 C 0.1537(5) 0.8069(11) -0.6614(3)
H68 H 0.2305 0.8208 -0.6696
H69 H 0.1220 0.9646 -0.6722
N8 N 0.1146(4) 0.6268(9) -0.7227(3)
H70 H 0.0438 0.6196 -0.7172
H71 H 0.1427 0.4813 -0.7124
H72 H 0.1341 0.6725 -0.7748
loop_
_geom_bond_atom_site_label_1
_geom_bond_atom_site_label_2
_geom_bond_site_symmetry_1
_geom_bond_site_symmetry_2
O1 C1 1_555 1_555
C1 O2 1_555 1_555
C2 C1 1_555 1_555
H1 C2 1_555 1_555
C3 C2 1_555 1_555
H2 C3 1_555 1_555
C4 C3 1_555 1_555
H3 C4 1_555 1_555
H4 C4 1_555 1_555
C5 C3 1_555 1_555
H5 C5 1_555 1_555
H6 C5 1_555 1_555
H7 C5 1_555 1_555
C6 C4 1_555 1_555
H8 C6 1_555 1_555
H9 C6 1_555 1_555
H10 C6 1_555 1_555
N1 C2 1_555 1_555
H11 N1 1_555 1_555
C7 N1 1_555 1_555
O3 C7 1_555 1_555
C8 C7 1_555 1_555
H12 C8 1_555 1_555
H13 C8 1_555 1_555
C9 C8 1_555 1_555
H14 C9 1_555 1_555
H15 C9 1_555 1_555
N2 C9 1_555 1_555
H16 N2 1_555 1_555
H17 N2 1_555 1_555
H18 N2 1_555 1_555
C10 H19 1_555 1_555
O4 C11 1_555 1_555
O5 C11 1_555 1_555
C11 C10 1_555 1_555
C12 C10 1_555 1_555
H20 C12 1_555 1_555
C13 C12 1_555 1_555
H21 C13 1_555 1_555
H22 C13 1_555 1_555
C14 C13 1_555 1_555
H23 C14 1_555 1_555
H24 C14 1_555 1_555
H25 C14 1_555 1_555
C15 C12 1_555 1_555
H26 C15 1_555 1_555
H27 C15 1_555 1_555
H28 C15 1_555 1_555
N3 C10 1_555 1_555
H29 N3 1_555 1_555
C16 N3 1_555 1_555
O6 C16 1_555 1_555
C17 C16 1_555 1_555
H30 C17 1_555 1_555
H31 C17 1_555 1_555
N4 H32 1_555 1_555
H33 N4 1_555 1_555
H34 N4 1_555 1_555
C18 C17 1_555 1_555
H35 C18 1_555 1_555
H36 C18 1_555 1_555
C19 O7 1_555 1_555
O8 C19 1_555 1_555
C20 H37 1_555 1_555
C21 C19 1_555 1_555
H38 C21 1_555 1_555
C22 C20 1_555 1_555
H39 C22 1_555 1_555
H40 C22 1_555 1_555
H41 C22 1_555 1_555
C23 C20 1_555 1_555
H42 C23 1_555 1_555
H43 C23 1_555 1_555
C24 C23 1_555 1_555
H44 C24 1_555 1_555
H45 C24 1_555 1_555
H46 C24 1_555 1_555
N5 C21 1_555 1_555
H47 N5 1_555 1_555
C25 N5 1_555 1_555
O9 C25 1_555 1_555
C26 C25 1_555 1_555
H48 C26 1_555 1_555
H49 C26 1_555 1_555
C27 C26 1_555 1_555
H50 C27 1_555 1_555
H51 C27 1_555 1_555
N6 C27 1_555 1_555
H52 N6 1_555 1_555
H53 N6 1_555 1_555
H54 N6 1_555 1_555
C28 O10 1_555 1_555
O11 C28 1_555 1_555
C29 C28 1_555 1_555
H55 C29 1_555 1_555
C30 C29 1_555 1_555
H56 C30 1_555 1_555
C31 C30 1_555 1_555
H57 C31 1_555 1_555
H58 C31 1_555 1_555
H59 C31 1_555 1_555
C32 C30 1_555 1_555
H60 C32 1_555 1_555
H61 C32 1_555 1_555
C33 C32 1_555 1_555
H62 C33 1_555 1_555
H63 C33 1_555 1_555
H64 C33 1_555 1_555
N7 C29 1_555 1_555
H65 N7 1_555 1_555
C34 N7 1_555 1_555
O12 C34 1_555 1_555
C35 C34 1_555 1_555
H66 C35 1_555 1_555
H67 C35 1_555 1_555
C36 C35 1_555 1_555
H68 C36 1_555 1_555
H69 C36 1_555 1_555
N8 C36 1_555 1_555
H70 N8 1_555 1_555
H71 N8 1_555 1_555
H72 N8 1_555 1_555
N4 C18 1_555 1_555
C20 C21 1_555 1_555

#END
