
#######################################################################
#
#                 Cambridge Crystallographic Data Centre
#                                CCDC 
#
#######################################################################
#
# If this CIF has been generated from an entry in the Cambridge 
# Structural Database, then it will include bibliographic, chemical, 
# crystal, experimental, refinement or atomic coordinate data resulting 
# from the CCDC's data processing and validation procedures.
#
#######################################################################

data_MIBKIT
_chemical_formula_moiety         'C42 H48 N2 S2'
_chemical_name_systematic        
"4,9-Dioctyl-2,7-diphenyl-4,9-dihydrothieno[3,2-b]thieno[2',3':4,5]pyrrolo[2,3-f]indole unknown solvate"
_symmetry_cell_setting           monoclinic
_symmetry_space_group_name_H-M   'C 2/c'
_symmetry_Int_Tables_number      15
_space_group_name_Hall           '-C 2yn'
loop_
_symmetry_equiv_pos_site_id
_symmetry_equiv_pos_as_xyz
1 x,y,z
2 -x,y,1/2-z
3 1/2+x,1/2+y,z
4 1/2-x,1/2+y,1/2-z
5 -x,-y,-z
6 x,-y,1/2+z
7 1/2-x,1/2-y,-z
8 1/2+x,1/2-y,1/2+z
_cell_length_a                   35.045(3)
_cell_length_b                   5.4519(5)
_cell_length_c                   24.299(2)
_cell_angle_alpha                90
_cell_angle_beta                 117.063(2)
_cell_angle_gamma                90
_cell_volume                     4134.28
_exptl_crystal_colour            yellow
_exptl_crystal_description       prismatic
_cell_formula_units_Z            4
loop_
_atom_site_label
_atom_site_type_symbol
_atom_site_fract_x
_atom_site_fract_y
_atom_site_fract_z
S1 S 0.137032(17) -0.02971(11) 1.11918(3)
N1 N 0.05340(5) 0.3402(3) 0.98728(8)
C1 C 0.16299(7) 0.2087(4) 1.10187(9)
C2 C 0.13521(7) 0.3495(4) 1.05402(9)
H1 H 0.1433 0.4836 1.0381
C3 C 0.09268(6) 0.2658(4) 1.03181(9)
C4 C 0.08816(7) 0.0634(4) 1.06173(9)
C5 C 0.04404(7) 0.0016(4) 1.03627(9)
C6 C 0.02286(7) 0.1791(4) 0.98852(9)
C7 C -0.02068(6) 0.1790(4) 0.95240(9)
H2 H -0.0340 0.2955 0.9216
C8 C 0.20954(7) 0.2332(4) 1.13700(9)
C9 C 0.23074(8) 0.4291(5) 1.12649(12)
H3 H 0.2151 0.5484 1.0977
C10 C 0.27467(9) 0.4489(5) 1.15812(13)
H4 H 0.2884 0.5792 1.1498
C11 C 0.29829(8) 0.2787(5) 1.20165(12)
H5 H 0.3279 0.2936 1.2231
C12 C 0.27811(8) 0.0872(5) 1.21331(12)
H6 H 0.2941 -0.0285 1.2430
C13 C 0.23418(8) 0.0629(5) 1.18151(11)
H7 H 0.2209 -0.0692 1.1900
C14 C 0.04507(7) 0.5270(4) 0.94066(10)
H8 H 0.0698 0.6342 0.9542
H9 H 0.0208 0.6254 0.9364
C15 C 0.03569(8) 0.4198(5) 0.87830(10)
H10 H 0.0100 0.3203 0.8640
H11 H 0.0297 0.5534 0.8491
C16 C 0.07048(8) 0.2674(5) 0.87745(11)
H12 H 0.0789 0.1448 0.9098
H13 H 0.0951 0.3709 0.8865
C17 C 0.05766(8) 0.1398(5) 0.81623(11)
H14 H 0.0329 0.0374 0.8075
H15 H 0.0489 0.2636 0.7841
C18 C 0.09112(9) -0.0142(6) 0.81238(13)
H16 H 0.1016 -0.1302 0.8464
H17 H 0.1149 0.0899 0.8174
C19 C 0.07599(9) -0.1553(5) 0.75217(12)
H18 H 0.0525 -0.2615 0.7475
H19 H 0.0650 -0.0394 0.7182
C20 C 0.10928(9) -0.3057(6) 0.74747(13)
H20 H 0.1216 -0.4150 0.7828
H21 H 0.1320 -0.1985 0.7494
C21 C 0.09333(10) -0.4555(6) 0.68960(13)
H22 H 0.0734 -0.5761 0.6897
H23 H 0.1171 -0.5362 0.6877
H24 H 0.0793 -0.3504 0.6543
S1D S -0.137032(17) 0.02971(11) 0.88082(3)
N1D N -0.05340(5) -0.3402(3) 1.01272(8)
C1D C -0.16299(7) -0.2087(4) 0.89813(9)
C2D C -0.13521(7) -0.3495(4) 0.94598(9)
H1D H -0.1433 -0.4836 0.9619
C3D C -0.09268(6) -0.2658(4) 0.96819(9)
C4D C -0.08816(7) -0.0634(4) 0.93827(9)
C5D C -0.04404(7) -0.0016(4) 0.96373(9)
C6D C -0.02286(7) -0.1791(4) 1.01148(9)
C7D C 0.02068(6) -0.1790(4) 1.04760(9)
H2D H 0.0340 -0.2955 1.0784
C8D C -0.20954(7) -0.2332(4) 0.86300(9)
C9D C -0.23074(8) -0.4291(5) 0.87351(12)
H3D H -0.2151 -0.5484 0.9023
C10D C -0.27467(9) -0.4489(5) 0.84188(13)
H4D H -0.2884 -0.5792 0.8502
C11D C -0.29829(8) -0.2787(5) 0.79835(12)
H5D H -0.3279 -0.2936 0.7769
C12D C -0.27811(8) -0.0872(5) 0.78669(12)
H6D H -0.2941 0.0285 0.7570
C13D C -0.23418(8) -0.0629(5) 0.81849(11)
H7D H -0.2209 0.0692 0.8100
C14D C -0.04507(7) -0.5270(4) 1.05934(10)
H8D H -0.0698 -0.6342 1.0458
H9D H -0.0208 -0.6254 1.0636
C15D C -0.03569(8) -0.4198(5) 1.12170(10)
H10D H -0.0100 -0.3203 1.1360
H11D H -0.0297 -0.5534 1.1509
C16D C -0.07048(8) -0.2674(5) 1.12255(11)
H12D H -0.0789 -0.1448 1.0902
H13D H -0.0951 -0.3709 1.1135
C17D C -0.05766(8) -0.1398(5) 1.18377(11)
H14D H -0.0329 -0.0374 1.1925
H15D H -0.0489 -0.2636 1.2159
C18D C -0.09112(9) 0.0142(6) 1.18762(13)
H16D H -0.1016 0.1302 1.1536
H17D H -0.1149 -0.0899 1.1826
C19D C -0.07599(9) 0.1553(5) 1.24783(12)
H18D H -0.0525 0.2615 1.2525
H19D H -0.0650 0.0394 1.2818
C20D C -0.10928(9) 0.3057(6) 1.25253(13)
H20D H -0.1216 0.4150 1.2172
H21D H -0.1320 0.1985 1.2506
C21D C -0.09333(10) 0.4555(6) 1.31040(13)
H22D H -0.0734 0.5761 1.3103
H23D H -0.1171 0.5362 1.3123
H24D H -0.0793 0.3504 1.3457
loop_
_geom_bond_atom_site_label_1
_geom_bond_atom_site_label_2
_geom_bond_site_symmetry_1
_geom_bond_site_symmetry_2
S1 C1 1_555 1_555
N1 C3 1_555 1_555
C1 C2 1_555 1_555
C2 H1 1_555 1_555
C3 C2 1_555 1_555
C4 S1 1_555 1_555
C5 C4 1_555 1_555
C6 N1 1_555 1_555
C7 C6 1_555 1_555
H2 C7 1_555 1_555
C8 C1 1_555 1_555
C9 C8 1_555 1_555
H3 C9 1_555 1_555
C10 C9 1_555 1_555
H4 C10 1_555 1_555
C11 C10 1_555 1_555
H5 C11 1_555 1_555
C12 C11 1_555 1_555
H6 C12 1_555 1_555
C13 C8 1_555 1_555
H7 C13 1_555 1_555
C14 N1 1_555 1_555
H8 C14 1_555 1_555
H9 C14 1_555 1_555
C15 C14 1_555 1_555
H10 C15 1_555 1_555
H11 C15 1_555 1_555
C16 C15 1_555 1_555
H12 C16 1_555 1_555
H13 C16 1_555 1_555
C17 C16 1_555 1_555
H14 C17 1_555 1_555
H15 C17 1_555 1_555
C18 C17 1_555 1_555
H16 C18 1_555 1_555
H17 C18 1_555 1_555
C19 C18 1_555 1_555
H18 C19 1_555 1_555
H19 C19 1_555 1_555
C20 C19 1_555 1_555
H20 C20 1_555 1_555
H21 C20 1_555 1_555
C21 C20 1_555 1_555
H22 C21 1_555 1_555
H23 C21 1_555 1_555
H24 C21 1_555 1_555
S1D C1D 1_555 1_555
N1D C3D 1_555 1_555
C1D C2D 1_555 1_555
C2D H1D 1_555 1_555
C3D C2D 1_555 1_555
C4D S1D 1_555 1_555
C5D C7 1_555 1_555
C6D N1D 1_555 1_555
C7D C5 1_555 1_555
H2D C7D 1_555 1_555
C8D C1D 1_555 1_555
C9D C8D 1_555 1_555
H3D C9D 1_555 1_555
C10D C9D 1_555 1_555
H4D C10D 1_555 1_555
C11D C10D 1_555 1_555
H5D C11D 1_555 1_555
C12D C11D 1_555 1_555
H6D C12D 1_555 1_555
C13D C8D 1_555 1_555
H7D C13D 1_555 1_555
C14D N1D 1_555 1_555
H8D C14D 1_555 1_555
H9D C14D 1_555 1_555
C15D C14D 1_555 1_555
H10D C15D 1_555 1_555
H11D C15D 1_555 1_555
C16D C15D 1_555 1_555
H12D C16D 1_555 1_555
H13D C16D 1_555 1_555
C17D C16D 1_555 1_555
H14D C17D 1_555 1_555
H15D C17D 1_555 1_555
C18D C17D 1_555 1_555
H16D C18D 1_555 1_555
H17D C18D 1_555 1_555
C19D C18D 1_555 1_555
H18D C19D 1_555 1_555
H19D C19D 1_555 1_555
C20D C19D 1_555 1_555
H20D C20D 1_555 1_555
H21D C20D 1_555 1_555
C21D C20D 1_555 1_555
H22D C21D 1_555 1_555
H23D C21D 1_555 1_555
H24D C21D 1_555 1_555
C3 C4 1_555 1_555
C5 C6 1_555 1_555
C12 C13 1_555 1_555
C3D C4D 1_555 1_555
C4D C5D 1_555 1_555
C5D C6D 1_555 1_555
C6D C7D 1_555 1_555
C12D C13D 1_555 1_555

#END
