
#######################################################################
#
#                 Cambridge Crystallographic Data Centre
#                                CCDC 
#
#######################################################################
#
# If this CIF has been generated from an entry in the Cambridge 
# Structural Database, then it will include bibliographic, chemical, 
# crystal, experimental, refinement or atomic coordinate data resulting 
# from the CCDC's data processing and validation procedures.
#
#######################################################################

data_MIBLUH
_chemical_formula_moiety         'C23 H31 N2 1+,B1 F4 1-'
_chemical_name_systematic        
'1,3-bis(2,4,6-trimethylphenyl)-4,5,6,7-tetrahydro-1H-1,3-diazepin-3-ium tetrafluoroborate'
_symmetry_cell_setting           monoclinic
_symmetry_space_group_name_H-M   'P 21/c'
_symmetry_Int_Tables_number      14
_space_group_name_Hall           '-P 2ybc'
loop_
_symmetry_equiv_pos_site_id
_symmetry_equiv_pos_as_xyz
1 x,y,z
2 -x,1/2+y,1/2-z
3 -x,-y,-z
4 x,1/2-y,1/2+z
_cell_length_a                   15.5061(6)
_cell_length_b                   15.3089(8)
_cell_length_c                   9.2595(4)
_cell_angle_alpha                90
_cell_angle_beta                 90.915(2)
_cell_angle_gamma                90
_cell_volume                     2197.75
_exptl_crystal_colour            colorless
_exptl_crystal_description       Block
_cell_formula_units_Z            4
loop_
_atom_site_label
_atom_site_type_symbol
_atom_site_fract_x
_atom_site_fract_y
_atom_site_fract_z
N1 N 0.33543(8) 0.56768(9) 0.07383(15)
N2 N 0.18403(8) 0.58113(9) 0.07276(15)
C1 C 0.26231(10) 0.59926(11) 0.12173(17)
H1 H 0.2664 0.6394 0.1998
C2 C 0.34439(11) 0.49053(12) -0.02316(19)
H2 H 0.4016 0.4634 -0.0063
H3 H 0.3413 0.5102 -0.1250
C3 C 0.27451(11) 0.42266(12) 0.00167(19)
H4 H 0.2636 0.4185 0.1065
H5 H 0.2954 0.3650 -0.0311
C4 C 0.18966(11) 0.44391(12) -0.07768(19)
H6 H 0.1936 0.4252 -0.1797
H7 H 0.1421 0.4108 -0.0330
C5 C 0.16940(11) 0.54102(12) -0.07221(18)
H8 H 0.2057 0.5717 -0.1431
H9 H 0.1084 0.5499 -0.1016
C6 C 0.41448(10) 0.61203(11) 0.11752(18)
C7 C 0.43470(11) 0.69063(12) 0.04938(18)
C8 C 0.50988(11) 0.73331(12) 0.09441(19)
H10 H 0.5248 0.7871 0.0502
C9 C 0.56359(11) 0.69949(12) 0.20184(19)
C10 C 0.54243(11) 0.61955(12) 0.26414(19)
H11 H 0.5795 0.5955 0.3365
C11 C 0.46819(10) 0.57402(11) 0.22285(18)
C12 C 0.37860(12) 0.72992(13) -0.0688(2)
H12 H 0.4148 0.7624 -0.1361
H13 H 0.3366 0.7697 -0.0260
H14 H 0.3481 0.6832 -0.1209
C13 C 0.64239(12) 0.74908(13) 0.2537(2)
H15 H 0.6676 0.7805 0.1723
H16 H 0.6848 0.7080 0.2940
H17 H 0.6258 0.7910 0.3283
C14 C 0.44880(12) 0.48680(12) 0.2909(2)
H18 H 0.4654 0.4398 0.2250
H19 H 0.3869 0.4828 0.3099
H20 H 0.4815 0.4812 0.3819
C15 C 0.11041(10) 0.61853(11) 0.14613(18)
C16 C 0.08987(11) 0.70613(12) 0.1201(2)
C17 C 0.01726(11) 0.74000(12) 0.1868(2)
H21 H 0.0020 0.7993 0.1705
C18 C -0.03348(11) 0.68932(13) 0.2765(2)
C19 C -0.01056(11) 0.60274(12) 0.30017(19)
H22 H -0.0449 0.5679 0.3617
C20 C 0.06141(10) 0.56562(11) 0.23615(18)
C21 C 0.14450(12) 0.76322(13) 0.0255(2)
H23 H 0.1579 0.7319 -0.0636
H24 H 0.1983 0.7780 0.0770
H25 H 0.1129 0.8169 0.0018
C22 C -0.11212(12) 0.72778(15) 0.3474(2)
H26 H -0.1457 0.7612 0.2759
H27 H -0.0938 0.7665 0.4264
H28 H -0.1478 0.6806 0.3858
C23 C 0.08332(12) 0.47146(12) 0.2635(2)
H29 H 0.0650 0.4363 0.1800
H30 H 0.0535 0.4512 0.3497
H31 H 0.1458 0.4655 0.2785
B1 B 0.25521(13) 0.52291(14) 0.5475(2)
F1 F 0.26094(7) 0.56284(8) 0.41365(12)
F2 F 0.30657(9) 0.56463(11) 0.64686(14)
F3 F 0.27831(9) 0.43537(9) 0.53591(18)
F4 F 0.16834(7) 0.52649(8) 0.59134(12)
loop_
_geom_bond_atom_site_label_1
_geom_bond_atom_site_label_2
_geom_bond_site_symmetry_1
_geom_bond_site_symmetry_2
N1 C1 1_555 1_555
N2 C1 1_555 1_555
C1 H1 1_555 1_555
C2 N1 1_555 1_555
H2 C2 1_555 1_555
H3 C2 1_555 1_555
C3 C2 1_555 1_555
H4 C3 1_555 1_555
H5 C3 1_555 1_555
C4 C3 1_555 1_555
H6 C4 1_555 1_555
H7 C4 1_555 1_555
C5 N2 1_555 1_555
H8 C5 1_555 1_555
H9 C5 1_555 1_555
C6 N1 1_555 1_555
C7 C6 1_555 1_555
C8 C7 1_555 1_555
H10 C8 1_555 1_555
C9 C8 1_555 1_555
C10 C9 1_555 1_555
H11 C10 1_555 1_555
C11 C6 1_555 1_555
C12 C7 1_555 1_555
H12 C12 1_555 1_555
H13 C12 1_555 1_555
H14 C12 1_555 1_555
C13 C9 1_555 1_555
H15 C13 1_555 1_555
H16 C13 1_555 1_555
H17 C13 1_555 1_555
C14 C11 1_555 1_555
H18 C14 1_555 1_555
H19 C14 1_555 1_555
H20 C14 1_555 1_555
C15 N2 1_555 1_555
C16 C15 1_555 1_555
C17 C16 1_555 1_555
H21 C17 1_555 1_555
C18 C17 1_555 1_555
C19 C18 1_555 1_555
H22 C19 1_555 1_555
C20 C15 1_555 1_555
C21 C16 1_555 1_555
H23 C21 1_555 1_555
H24 C21 1_555 1_555
H25 C21 1_555 1_555
C22 C18 1_555 1_555
H26 C22 1_555 1_555
H27 C22 1_555 1_555
H28 C22 1_555 1_555
C23 C20 1_555 1_555
H29 C23 1_555 1_555
H30 C23 1_555 1_555
H31 C23 1_555 1_555
B1 F1 1_555 1_555
F2 B1 1_555 1_555
F3 B1 1_555 1_555
F4 B1 1_555 1_555
C4 C5 1_555 1_555
C10 C11 1_555 1_555
C19 C20 1_555 1_555

#END
