
#######################################################################
#
#                 Cambridge Crystallographic Data Centre
#                                CCDC 
#
#######################################################################
#
# If this CIF has been generated from an entry in the Cambridge 
# Structural Database, then it will include bibliographic, chemical, 
# crystal, experimental, refinement or atomic coordinate data resulting 
# from the CCDC's data processing and validation procedures.
#
#######################################################################

data_MIBLOB
_chemical_formula_moiety         'C26 H37 N2 1+,I1 1-'
_chemical_name_systematic        
'1-[2,6-bis(propan-2-yl)phenyl]-3-(2,4,6-trimethylphenyl)-4,5,6,7-tetrahydro-1H-1,3-diazepin-3-ium iodide'
_symmetry_cell_setting           monoclinic
_symmetry_space_group_name_H-M   'P 21/n'
_symmetry_Int_Tables_number      14
_space_group_name_Hall           '-P 2yn'
loop_
_symmetry_equiv_pos_site_id
_symmetry_equiv_pos_as_xyz
1 x,y,z
2 1/2-x,1/2+y,1/2-z
3 -x,-y,-z
4 1/2+x,1/2-y,1/2+z
_cell_length_a                   9.4821(7)
_cell_length_b                   14.8496(8)
_cell_length_c                   17.7290(12)
_cell_angle_alpha                90
_cell_angle_beta                 100.901(2)
_cell_angle_gamma                90
_cell_volume                     2451.29
_exptl_crystal_colour            colorless
_exptl_crystal_description       'prism fragment'
_cell_formula_units_Z            4
loop_
_atom_site_label
_atom_site_type_symbol
_atom_site_fract_x
_atom_site_fract_y
_atom_site_fract_z
I1 I 0.72679(2) 0.84043(2) 0.11057(2)
N1 N 0.62759(12) 0.61640(8) 0.30542(6)
N2 N 0.62042(12) 0.54561(8) 0.18635(6)
C1 C 0.64313(14) 0.60800(9) 0.38821(7)
C2 C 0.64372(13) 0.54580(9) 0.26263(7)
H1 H 0.6743 0.4910 0.2883
C3 C 0.51993(15) 0.61224(10) 0.42071(8)
C4 C 0.58013(14) 0.40356(9) 0.11482(8)
C5 C 0.78122(14) 0.60430(9) 0.43339(8)
C6 C 0.67539(14) 0.47262(9) 0.14583(7)
C7 C 0.79376(15) 0.60693(10) 0.51314(8)
H2 H 0.8864 0.6043 0.5448
C8 C 0.81621(14) 0.47876(9) 0.13192(8)
C9 C 0.67321(16) 0.61341(10) 0.54711(8)
C10 C 0.53873(15) 0.61451(10) 0.13430(8)
H3 H 0.4962 0.5853 0.0850
H4 H 0.6064 0.6613 0.1233
C11 C 0.62893(15) 0.33976(9) 0.06770(8)
H5 H 0.5668 0.2926 0.0457
C12 C 0.53769(16) 0.61443(10) 0.50062(8)
H6 H 0.4552 0.6167 0.5238
C13 C 0.61929(17) 0.70931(9) 0.27359(8)
H7 H 0.6933 0.7161 0.2414
H8 H 0.6423 0.7525 0.3167
C14 C 0.92090(15) 0.55155(10) 0.16748(9)
H9 H 0.8670 0.5954 0.1942
C15 C 0.91330(15) 0.59589(11) 0.39838(9)
H10 H 0.9983 0.6118 0.4367
H11 H 0.9053 0.6366 0.3543
H12 H 0.9223 0.5337 0.3813
C16 C 0.76769(16) 0.34462(9) 0.05261(8)
H13 H 0.7993 0.3011 0.0202
C17 C 0.85986(15) 0.41282(10) 0.08484(8)
H14 H 0.9547 0.4147 0.0747
C18 C 0.43037(15) 0.39583(10) 0.13315(8)
H15 H 0.4125 0.4509 0.1624
C19 C 0.41912(16) 0.65980(10) 0.16739(9)
H16 H 0.3686 0.6136 0.1925
H17 H 0.3487 0.6863 0.1248
C20 C 0.47407(17) 0.73370(10) 0.22574(9)
H18 H 0.4824 0.7909 0.1983
H19 H 0.4041 0.7428 0.2600
C21 C 0.68602(18) 0.62107(12) 0.63308(9)
H20 H 0.6877 0.6848 0.6477
H21 H 0.7750 0.5920 0.6587
H22 H 0.6037 0.5914 0.6486
C22 C 0.36937(16) 0.61483(12) 0.37413(9)
H23 H 0.3042 0.5833 0.4020
H24 H 0.3676 0.5853 0.3245
H25 H 0.3385 0.6776 0.3656
C23 C 0.42124(18) 0.31367(13) 0.18470(10)
H26 H 0.4323 0.2584 0.1561
H27 H 0.3277 0.3132 0.2006
H28 H 0.4979 0.3170 0.2302
C24 C 0.31457(17) 0.39166(14) 0.06047(10)
H29 H 0.3187 0.4464 0.0301
H30 H 0.2199 0.3870 0.0747
H31 H 0.3309 0.3389 0.0300
C25 C 0.98653(18) 0.60377(12) 0.10802(10)
H32 H 1.0423 0.5625 0.0820
H33 H 1.0497 0.6512 0.1339
H34 H 0.9096 0.6310 0.0702
C26 C 1.03921(17) 0.50900(13) 0.22822(10)
H35 H 0.9952 0.4751 0.2652
H36 H 1.1006 0.5565 0.2552
H37 H 1.0972 0.4683 0.2031
loop_
_geom_bond_atom_site_label_1
_geom_bond_atom_site_label_2
_geom_bond_site_symmetry_1
_geom_bond_site_symmetry_2
N1 C1 1_555 1_555
N2 C2 1_555 1_555
C1 C3 1_555 1_555
C2 N1 1_555 1_555
H1 C2 1_555 1_555
C3 C12 1_555 1_555
C4 C6 1_555 1_555
C5 C1 1_555 1_555
C6 N2 1_555 1_555
C7 C5 1_555 1_555
H2 C7 1_555 1_555
C8 C6 1_555 1_555
C9 C7 1_555 1_555
C10 N2 1_555 1_555
H3 C10 1_555 1_555
H4 C10 1_555 1_555
C11 C4 1_555 1_555
H5 C11 1_555 1_555
C12 C9 1_555 1_555
H6 C12 1_555 1_555
C13 N1 1_555 1_555
H7 C13 1_555 1_555
H8 C13 1_555 1_555
C14 C8 1_555 1_555
H9 C14 1_555 1_555
C15 C5 1_555 1_555
H10 C15 1_555 1_555
H11 C15 1_555 1_555
H12 C15 1_555 1_555
C16 C11 1_555 1_555
H13 C16 1_555 1_555
C17 C8 1_555 1_555
H14 C17 1_555 1_555
C18 C4 1_555 1_555
H15 C18 1_555 1_555
C19 C10 1_555 1_555
H16 C19 1_555 1_555
H17 C19 1_555 1_555
C20 C13 1_555 1_555
H18 C20 1_555 1_555
H19 C20 1_555 1_555
C21 C9 1_555 1_555
H20 C21 1_555 1_555
H21 C21 1_555 1_555
H22 C21 1_555 1_555
C22 C3 1_555 1_555
H23 C22 1_555 1_555
H24 C22 1_555 1_555
H25 C22 1_555 1_555
C23 C18 1_555 1_555
H26 C23 1_555 1_555
H27 C23 1_555 1_555
H28 C23 1_555 1_555
C24 C18 1_555 1_555
H29 C24 1_555 1_555
H30 C24 1_555 1_555
H31 C24 1_555 1_555
C25 C14 1_555 1_555
H32 C25 1_555 1_555
H33 C25 1_555 1_555
H34 C25 1_555 1_555
C26 C14 1_555 1_555
H35 C26 1_555 1_555
H36 C26 1_555 1_555
H37 C26 1_555 1_555
C16 C17 1_555 1_555
C19 C20 1_555 1_555

#END
