
#######################################################################
#
#                 Cambridge Crystallographic Data Centre
#                                CCDC 
#
#######################################################################
#
# If this CIF has been generated from an entry in the Cambridge 
# Structural Database, then it will include bibliographic, chemical, 
# crystal, experimental, refinement or atomic coordinate data resulting 
# from the CCDC's data processing and validation procedures.
#
#######################################################################

data_MIBMAO
_chemical_formula_moiety         'C17 H19 N2 1+,0.5(H2 O1),I1 1-'
_chemical_name_systematic        
'1,3-diphenyl-4,5,6,7-tetrahydro-1H-1,3-diazepin-3-ium iodide hemihydrate'
_symmetry_cell_setting           monoclinic
_symmetry_space_group_name_H-M   'C 2'
_symmetry_Int_Tables_number      5
_space_group_name_Hall           'C 2y'
loop_
_symmetry_equiv_pos_site_id
_symmetry_equiv_pos_as_xyz
1 x,y,z
2 -x,y,-z
3 1/2+x,1/2+y,z
4 1/2-x,1/2+y,-z
_cell_length_a                   17.5096(8)
_cell_length_b                   10.5339(5)
_cell_length_c                   11.1338(6)
_cell_angle_alpha                90
_cell_angle_beta                 126.3150(10)
_cell_angle_gamma                90
_cell_volume                     1654.71
_exptl_crystal_colour            colorless
_exptl_crystal_description       Block
_cell_formula_units_Z            4
loop_
_atom_site_label
_atom_site_type_symbol
_atom_site_fract_x
_atom_site_fract_y
_atom_site_fract_z
I1 I 0.43973(2) 0.07770(2) 0.70244(2)
N1 N 0.31696(11) 0.42374(14) 0.39164(16)
N2 N 0.24521(11) 0.39935(15) 0.13608(16)
C1 C 0.31728(13) 0.43047(17) 0.2731(2)
H1 H 0.3735 0.4599 0.2877
C2 C 0.25878(13) 0.33383(17) 0.40975(19)
H2 H 0.2032 0.3795 0.3906
H3 H 0.2969 0.3031 0.5140
C3 C 0.22448(14) 0.21992(18) 0.3050(2)
H4 H 0.2063 0.1511 0.3441
H5 H 0.2775 0.1884 0.3044
C4 C 0.14008(14) 0.2495(2) 0.1446(2)
H6 H 0.1365 0.1852 0.0766
H7 H 0.0807 0.2451 0.1365
C5 C 0.14967(14) 0.3810(2) 0.0982(2)
H8 H 0.1016 0.3916 -0.0106
H9 H 0.1378 0.4462 0.1493
C6 C 0.38200(16) 0.5066(2) 0.5134(2)
C7 C 0.38598(18) 0.6327(2) 0.4804(3)
H10 H 0.3451 0.6619 0.3804
C8 C 0.44916(16) 0.71586(19) 0.5926(2)
H11 H 0.4526 0.8017 0.5699
C9 C 0.50739(15) 0.6730(2) 0.7383(2)
H12 H 0.5513 0.7294 0.8157
C10 C 0.50204(14) 0.54801(17) 0.7719(2)
H13 H 0.5414 0.5201 0.8725
C11 C 0.43969(13) 0.46323(17) 0.6599(2)
H14 H 0.4365 0.3774 0.6828
C12 C 0.26210(13) 0.37710(17) 0.02592(19)
C13 C 0.33617(13) 0.29769(18) 0.0612(2)
H15 H 0.3742 0.2576 0.1560
C14 C 0.35411(16) 0.2773(2) -0.0436(3)
H16 H 0.4049 0.2239 -0.0204
C15 C 0.29733(16) 0.3356(2) -0.1821(2)
H17 H 0.3098 0.3222 -0.2534
C16 C 0.22245(15) 0.4132(2) -0.2176(2)
H18 H 0.1837 0.4518 -0.3131
C17 C 0.20387(14) 0.43483(18) -0.1134(2)
H19 H 0.1527 0.4877 -0.1370
O1 O 0.5000 0.2592(2) 0.5000
H20 H 0.517(2) 0.211(2) 0.461(3)
H20A H 0.483(2) 0.211(2) 0.539(3)
loop_
_geom_bond_atom_site_label_1
_geom_bond_atom_site_label_2
_geom_bond_site_symmetry_1
_geom_bond_site_symmetry_2
N1 C1 1_555 1_555
N2 C1 1_555 1_555
C1 H1 1_555 1_555
C2 N1 1_555 1_555
H2 C2 1_555 1_555
H3 C2 1_555 1_555
C3 C2 1_555 1_555
H4 C3 1_555 1_555
H5 C3 1_555 1_555
C4 C3 1_555 1_555
H6 C4 1_555 1_555
H7 C4 1_555 1_555
C5 N2 1_555 1_555
H8 C5 1_555 1_555
H9 C5 1_555 1_555
C6 N1 1_555 1_555
C7 C6 1_555 1_555
H10 C7 1_555 1_555
C8 C7 1_555 1_555
H11 C8 1_555 1_555
C9 C8 1_555 1_555
H12 C9 1_555 1_555
C10 C9 1_555 1_555
H13 C10 1_555 1_555
C11 C6 1_555 1_555
H14 C11 1_555 1_555
C12 N2 1_555 1_555
C13 C12 1_555 1_555
H15 C13 1_555 1_555
C14 C13 1_555 1_555
H16 C14 1_555 1_555
C15 C14 1_555 1_555
H17 C15 1_555 1_555
C16 C15 1_555 1_555
H18 C16 1_555 1_555
C17 C12 1_555 1_555
H19 C17 1_555 1_555
O1 H20 1_555 1_555
H20A O1 1_555 1_555
C4 C5 1_555 1_555
C10 C11 1_555 1_555
C16 C17 1_555 1_555

#END
