
#######################################################################
#
#                 Cambridge Crystallographic Data Centre
#                                CCDC 
#
#######################################################################
#
# If this CIF has been generated from an entry in the Cambridge 
# Structural Database, then it will include bibliographic, chemical, 
# crystal, experimental, refinement or atomic coordinate data resulting 
# from the CCDC's data processing and validation procedures.
#
#######################################################################

data_MIBMES
_chemical_formula_moiety         'C21 H22 F1 O5 P1'
_chemical_name_systematic        
'diethyl [4-(4-fluorophenyl)-6-oxo-2-phenyl-3,6-dihydro-2H-pyran-2-yl]phosphonate'
_symmetry_cell_setting           orthorhombic
_symmetry_space_group_name_H-M   'P 21 21 21'
_symmetry_Int_Tables_number      19
_space_group_name_Hall           'P 2ac 2ab'
loop_
_symmetry_equiv_pos_site_id
_symmetry_equiv_pos_as_xyz
1 x,y,z
2 1/2-x,-y,1/2+z
3 -x,1/2+y,1/2-z
4 1/2+x,1/2-y,-z
_cell_length_a                   8.7032(4)
_cell_length_b                   13.2565(6)
_cell_length_c                   18.0076(9)
_cell_angle_alpha                90
_cell_angle_beta                 90
_cell_angle_gamma                90
_cell_volume                     2077.61
_cell_formula_units_Z            4
loop_
_atom_site_label
_atom_site_type_symbol
_atom_site_fract_x
_atom_site_fract_y
_atom_site_fract_z
P1 P 0.23560(9) 0.32474(6) 0.10177(5)
F1 F -0.1123(3) -0.27995(17) -0.08490(14)
O1 O 0.2652(2) 0.17294(16) 0.18666(12)
O2 O 0.3391(4) 0.0556(2) 0.26421(16)
O3 O 0.2233(3) 0.39296(19) 0.17205(16)
O4 O 0.1080(3) 0.3635(2) 0.04747(17)
O5 O 0.3890(3) 0.3164(2) 0.07009(14)
C1 C 0.2685(4) 0.0756(3) 0.2087(2)
C2 C 0.1916(4) 0.0012(3) 0.16179(19)
H1 H 0.1785 -0.0638 0.1801
C3 C 0.1397(3) 0.0222(2) 0.09407(17)
C4 C 0.1593(3) 0.1284(2) 0.06546(16)
H2 H 0.0781 0.1439 0.0304
H3 H 0.2570 0.1344 0.0399
C5 C 0.1536(3) 0.2023(2) 0.13037(16)
C6 C 0.0698(4) -0.0552(2) 0.04617(17)
C7 C -0.0109(4) -0.1351(3) 0.07692(18)
H4 H -0.0227 -0.1385 0.1282
C8 C -0.0740(5) -0.2095(3) 0.0331(2)
H5 H -0.1301 -0.2618 0.0542
C9 C -0.0524(5) -0.2047(3) -0.0420(2)
C10 C 0.0250(4) -0.1286(3) -0.07536(18)
H6 H 0.0380 -0.1277 -0.1266
C11 C 0.0854(4) -0.0510(3) -0.03085(18)
H7 H 0.1358 0.0032 -0.0528
C12 C -0.0058(3) 0.2118(2) 0.16523(17)
C13 C -0.0259(4) 0.2061(3) 0.24197(19)
H8 H 0.0588 0.1970 0.2728
C14 C -0.1696(5) 0.2136(3) 0.2721(2)
H9 H -0.1810 0.2096 0.3234
C15 C -0.2964(5) 0.2269(3) 0.2291(2)
H10 H -0.3936 0.2308 0.2503
C16 C -0.2779(4) 0.2345(3) 0.1527(2)
H11 H -0.3627 0.2451 0.1223
C17 C -0.1330(4) 0.2264(3) 0.12217(19)
H12 H -0.1217 0.2309 0.0709
C18 C 0.3561(5) 0.4319(4) 0.2108(2)
H13 H 0.3599 0.5046 0.2052
H14 H 0.4487 0.4039 0.1890
C19 C 0.350(4) 0.406(3) 0.2913(11)
H15 H 0.2615 0.4367 0.3135
H16 H 0.4413 0.4301 0.3154
H17 H 0.3438 0.3339 0.2969
C20 C 0.1343(11) 0.4462(8) -0.0057(9)
H18 H 0.2436 0.4584 -0.0112
H19 H 0.0927 0.4285 -0.0539
C21 C 0.0583(16) 0.5367(10) 0.0227(10)
H20 H 0.0363 0.5816 -0.0177
H21 H 0.1245 0.5699 0.0577
H22 H -0.0359 0.5181 0.0469
C22? C 0.308(4) 0.451(5) 0.2897(15)
H23? H 0.2158 0.4903 0.2902
H24? H 0.3883 0.4866 0.3152
H25? H 0.2900 0.3875 0.3141
C23? C 0.126(3) 0.481(3) 0.040(3)
H26? H 0.0891 0.5157 0.0837
H27? H 0.2324 0.4997 0.0308
C24? C 0.026(5) 0.502(3) -0.027(3)
H28? H -0.0119 0.4389 -0.0463
H29? H 0.0857 0.5352 -0.0643
H30? H -0.0584 0.5435 -0.0125
loop_
_geom_bond_atom_site_label_1
_geom_bond_atom_site_label_2
_geom_bond_site_symmetry_1
_geom_bond_site_symmetry_2
P1 O3 1_555 1_555
F1 C9 1_555 1_555
O1 C1 1_555 1_555
O2 C1 1_555 1_555
O3 C18 1_555 1_555
O4 P1 1_555 1_555
O5 P1 1_555 1_555
C1 C2 1_555 1_555
C2 H1 1_555 1_555
C3 C2 1_555 1_555
C4 C3 1_555 1_555
H2 C4 1_555 1_555
H3 C4 1_555 1_555
C5 P1 1_555 1_555
C6 C3 1_555 1_555
C7 C6 1_555 1_555
H4 C7 1_555 1_555
C8 C7 1_555 1_555
H5 C8 1_555 1_555
C9 C8 1_555 1_555
C10 C9 1_555 1_555
H6 C10 1_555 1_555
C11 C6 1_555 1_555
H7 C11 1_555 1_555
C12 C5 1_555 1_555
C13 C12 1_555 1_555
H8 C13 1_555 1_555
C14 C13 1_555 1_555
H9 C14 1_555 1_555
C15 C14 1_555 1_555
H10 C15 1_555 1_555
C16 C15 1_555 1_555
H11 C16 1_555 1_555
C17 C12 1_555 1_555
H12 C17 1_555 1_555
C18 H13 1_555 1_555
H14 C18 1_555 1_555
C19 C18 1_555 1_555
H15 C19 1_555 1_555
H16 C19 1_555 1_555
H17 C19 1_555 1_555
C20 O4 1_555 1_555
H18 C20 1_555 1_555
H19 C20 1_555 1_555
C21 C20 1_555 1_555
H20 C21 1_555 1_555
H21 C21 1_555 1_555
H22 C21 1_555 1_555
O1 C5 1_555 1_555
C4 C5 1_555 1_555
C10 C11 1_555 1_555
C16 C17 1_555 1_555

#END
