
#######################################################################
#
#                 Cambridge Crystallographic Data Centre
#                                CCDC 
#
#######################################################################
#
# If this CIF has been generated from an entry in the Cambridge 
# Structural Database, then it will include bibliographic, chemical, 
# crystal, experimental, refinement or atomic coordinate data resulting 
# from the CCDC's data processing and validation procedures.
#
#######################################################################

data_MIBNOD
_chemical_formula_moiety         'C22 H18 O5'
_chemical_name_systematic        
2-(benzyloxy)-4-hydroxy-5-methoxybiphenyl-3,4'-dicarbaldehyde
_symmetry_cell_setting           triclinic
_symmetry_space_group_name_H-M   'P -1'
_symmetry_Int_Tables_number      2
_space_group_name_Hall           '-P 1'
loop_
_symmetry_equiv_pos_site_id
_symmetry_equiv_pos_as_xyz
1 x,y,z
2 -x,-y,-z
_cell_length_a                   8.7167(6)
_cell_length_b                   8.7713(6)
_cell_length_c                   13.0319(9)
_cell_angle_alpha                76.476(2)
_cell_angle_beta                 78.236(2)
_cell_angle_gamma                69.690(2)
_cell_volume                     900.256
_exptl_crystal_colour            yellow
_cell_formula_units_Z            2
loop_
_atom_site_label
_atom_site_type_symbol
_atom_site_fract_x
_atom_site_fract_y
_atom_site_fract_z
O1 O 0.41757(9) -0.10795(9) 0.75700(6)
O2 O 0.23590(16) 0.53023(14) 0.32881(9)
O3 O 0.83045(10) 0.06878(10) 0.94746(6)
O4 O 0.77002(10) -0.21269(10) 1.02198(6)
H1 H 0.7421 -0.2988 1.0396
O5 O 0.62582(11) -0.41670(10) 1.00937(7)
C1 C -0.06596(16) -0.2496(2) 0.70020(13)
H2 H -0.1373 -0.2982 0.6833
C2 C 0.02060(17) -0.32472(18) 0.78639(12)
H3 H 0.0094 -0.4257 0.8280
C3 C 0.12355(15) -0.25329(15) 0.81221(10)
H4 H 0.1821 -0.3053 0.8716
C4 C 0.14154(13) -0.10569(14) 0.75140(9)
C5 C 0.24295(14) -0.02117(14) 0.78327(10)
H5 H 0.2166 0.0947 0.7453
H6 H 0.2166 -0.0204 0.8608
C6 C 0.51723(13) -0.05513(13) 0.80194(9)
C7 C 0.54335(13) 0.09594(14) 0.76327(9)
C8 C 0.46662(13) 0.21465(14) 0.67192(9)
C9 C 0.38696(14) 0.37989(14) 0.68028(10)
H7 H 0.3820 0.4162 0.7444
C10 C 0.31473(14) 0.49193(15) 0.59564(10)
H8 H 0.2610 0.6045 0.6020
C11 C 0.32079(15) 0.43998(15) 0.50154(10)
C12 C 0.24208(17) 0.56178(18) 0.41346(12)
H9 H 0.1925 0.6731 0.4236
C13 C 0.59162(13) -0.16175(13) 0.89053(9)
C14 C 0.69526(13) -0.11524(14) 0.93832(9)
C15 C 0.72417(13) 0.03688(14) 0.89800(9)
C16 C 0.86947(15) 0.21894(14) 0.90417(9)
H10 H 0.9103 0.2224 0.8281
H11 H 0.9547 0.2235 0.9411
H12 H 0.7701 0.3136 0.9137
C17 C 0.64659(13) 0.14052(14) 0.81351(9)
H13 H 0.6631 0.2452 0.7883
C18 C 0.47604(16) 0.16422(15) 0.57565(10)
H14 H 0.5325 0.0524 0.5683
C19 C 0.40392(17) 0.27566(16) 0.49136(10)
H15 H 0.4110 0.2403 0.4265
C20 C 0.56493(14) -0.32026(14) 0.93159(9)
H16 H 0.4974 -0.3517 0.8971
C21 C 0.05556(15) -0.03226(16) 0.66422(10)
H17 H 0.0678 0.0677 0.6215
C22 C -0.04819(16) -0.10432(19) 0.63928(12)
H18 H -0.1070 -0.0530 0.5799
loop_
_geom_bond_atom_site_label_1
_geom_bond_atom_site_label_2
_geom_bond_site_symmetry_1
_geom_bond_site_symmetry_2
O1 C5 1_555 1_555
O2 C12 1_555 1_555
O3 C15 1_555 1_555
O4 H1 1_555 1_555
O5 C20 1_555 1_555
C1 H2 1_555 1_555
C2 C1 1_555 1_555
H3 C2 1_555 1_555
C3 C2 1_555 1_555
H4 C3 1_555 1_555
C4 C3 1_555 1_555
C5 C4 1_555 1_555
H5 C5 1_555 1_555
H6 C5 1_555 1_555
C6 O1 1_555 1_555
C7 C6 1_555 1_555
C8 C7 1_555 1_555
C9 C8 1_555 1_555
H7 C9 1_555 1_555
C10 C9 1_555 1_555
H8 C10 1_555 1_555
C11 C10 1_555 1_555
C12 C11 1_555 1_555
H9 C12 1_555 1_555
C13 C6 1_555 1_555
C14 O4 1_555 1_555
C15 C14 1_555 1_555
C16 O3 1_555 1_555
H10 C16 1_555 1_555
H11 C16 1_555 1_555
H12 C16 1_555 1_555
C17 C7 1_555 1_555
H13 C17 1_555 1_555
C18 C8 1_555 1_555
H14 C18 1_555 1_555
C19 C11 1_555 1_555
H15 C19 1_555 1_555
C20 C13 1_555 1_555
H16 C20 1_555 1_555
C21 C4 1_555 1_555
H17 C21 1_555 1_555
C22 C1 1_555 1_555
H18 C22 1_555 1_555
C13 C14 1_555 1_555
C15 C17 1_555 1_555
C18 C19 1_555 1_555
C21 C22 1_555 1_555

#END
