
#######################################################################
#
#                 Cambridge Crystallographic Data Centre
#                                CCDC 
#
#######################################################################
#
# If this CIF has been generated from an entry in the Cambridge 
# Structural Database, then it will include bibliographic, chemical, 
# crystal, experimental, refinement or atomic coordinate data resulting 
# from the CCDC's data processing and validation procedures.
#
#######################################################################

data_MIBYEB
_chemical_formula_moiety         'C7 H10 N1 1+,C4 H3 O4 1-'
_chemical_name_systematic        '2,6-Dimethylpyridinium hydrogen fumarate'
_symmetry_cell_setting           monoclinic
_symmetry_space_group_name_H-M   'P 21/c'
_symmetry_Int_Tables_number      14
_space_group_name_Hall           '-P 2ybc'
loop_
_symmetry_equiv_pos_site_id
_symmetry_equiv_pos_as_xyz
1 x,y,z
2 x,1/2-y,1/2+z
3 -x,-y,-z
4 -x,1/2+y,1/2-z
_cell_length_a                   9.898(2)
_cell_length_b                   15.347(2)
_cell_length_c                   7.4970(10)
_cell_angle_alpha                90
_cell_angle_beta                 107.810(10)
_cell_angle_gamma                90
_cell_volume                     1084.25
_exptl_crystal_colour            colorless
_exptl_crystal_description       prism
_cell_formula_units_Z            4
loop_
_atom_site_label
_atom_site_type_symbol
_atom_site_fract_x
_atom_site_fract_y
_atom_site_fract_z
O1 O 0.30136(14) 0.86276(9) 0.01990(17)
O2 O 0.08188(14) 0.81554(9) -0.02052(18)
O3 O 0.26795(17) 0.85651(10) 0.66876(19)
H1 H 0.2917 0.8615 0.7831
O4 O 0.4098(2) 0.96976(12) 0.6903(2)
C1 C 0.20194(19) 0.84136(12) 0.0809(3)
C2 C 0.22464(19) 0.84836(12) 0.2866(3)
H2 H 0.1717 0.8125 0.3399
C3 C 0.3156(2) 0.90267(12) 0.3964(3)
H3 H 0.3709 0.9366 0.3432
C4 C 0.3358(2) 0.91336(13) 0.6002(3)
N1 N -0.15263(17) 0.77978(10) 0.0572(2)
H4 H -0.0690 0.7885 0.0487
C5 C -0.0946(2) 0.62644(14) 0.0555(3)
H5 H -0.0294 0.6168 0.1782
H6 H -0.0429 0.6431 -0.0286
H7 H -0.1465 0.5739 0.0113
C6 C -0.1951(2) 0.69710(13) 0.0642(3)
C7 C -0.3288(2) 0.68343(15) 0.0810(3)
H8 H -0.3616 0.6270 0.0861
C8 C -0.4131(2) 0.75330(16) 0.0901(3)
H9 H -0.5027 0.7440 0.1023
C9 C -0.3655(2) 0.83706(15) 0.0812(3)
H10 H -0.4226 0.8844 0.0876
C10 C -0.2335(2) 0.85013(13) 0.0628(3)
C11 C -0.1739(3) 0.93811(14) 0.0482(4)
H11 H -0.1683 0.9464 -0.0763
H12 H -0.0807 0.9427 0.1366
H13 H -0.2343 0.9819 0.0747
loop_
_geom_bond_atom_site_label_1
_geom_bond_atom_site_label_2
_geom_bond_site_symmetry_1
_geom_bond_site_symmetry_2
O1 C1 1_555 1_555
O2 C1 1_555 1_555
O3 H1 1_555 1_555
O4 C4 1_555 1_555
C1 C2 1_555 1_555
C2 H2 1_555 1_555
C3 C2 1_555 1_555
H3 C3 1_555 1_555
C4 O3 1_555 1_555
N1 H4 1_555 1_555
C5 H5 1_555 1_555
H6 C5 1_555 1_555
H7 C5 1_555 1_555
C6 N1 1_555 1_555
C7 C6 1_555 1_555
H8 C7 1_555 1_555
C8 C7 1_555 1_555
H9 C8 1_555 1_555
C9 C8 1_555 1_555
H10 C9 1_555 1_555
C10 N1 1_555 1_555
C11 C10 1_555 1_555
H11 C11 1_555 1_555
H12 C11 1_555 1_555
H13 C11 1_555 1_555
C3 C4 1_555 1_555
C5 C6 1_555 1_555
C9 C10 1_555 1_555

#END
