
#######################################################################
#
#                 Cambridge Crystallographic Data Centre
#                                CCDC 
#
#######################################################################
#
# If this CIF has been generated from an entry in the Cambridge 
# Structural Database, then it will include bibliographic, chemical, 
# crystal, experimental, refinement or atomic coordinate data resulting 
# from the CCDC's data processing and validation procedures.
#
#######################################################################

data_MICBAC
_chemical_formula_moiety         'C54 H44 N2 O4,3(C1 H1 Cl3)'
_chemical_name_systematic        
"2,11-bis(2,6-Di-isopropylphenyl)-benzo(4,5)isoquino(4',5',6':7,8,9)pyreno(2,1,10-def)isoquinoline-1,3,10,12(2H,11H)-tetrone chloroform solvate"
_symmetry_cell_setting           monoclinic
_symmetry_space_group_name_H-M   'P 21/n'
_symmetry_Int_Tables_number      14
_space_group_name_Hall           '-P 2yn'
loop_
_symmetry_equiv_pos_site_id
_symmetry_equiv_pos_as_xyz
1 x,y,z
2 1/2-x,1/2+y,1/2-z
3 -x,-y,-z
4 1/2+x,1/2-y,1/2+z
_cell_length_a                   11.064(2)
_cell_length_b                   38.215(8)
_cell_length_c                   12.976(3)
_cell_angle_alpha                90
_cell_angle_beta                 104.53(3)
_cell_angle_gamma                90
_cell_volume                     5310.92
_exptl_crystal_colour            'salmon pink'
_exptl_crystal_description       block
_cell_formula_units_Z            4
_exptl_crystal_recrystallization_method methanol/chloroform
loop_
_atom_site_label
_atom_site_type_symbol
_atom_site_fract_x
_atom_site_fract_y
_atom_site_fract_z
O1 O 0.6203(5) 0.43966(12) -0.5408(4)
O2 O 0.7609(5) 0.32766(12) -0.5182(4)
O3 O 0.0687(4) 0.38168(11) 0.0648(3)
O4 O 0.2195(4) 0.27036(12) 0.1015(4)
N1 N 0.6893(5) 0.38403(13) -0.5308(4)
N2 N 0.1419(4) 0.32593(13) 0.0827(4)
C1 C 0.4133(5) 0.42232(15) -0.3118(5)
C2 C 0.4822(6) 0.42841(15) -0.3864(5)
H1 H 0.4814 0.4507 -0.4153
C3 C 0.5514(5) 0.40279(18) -0.4190(5)
C4 C 0.6230(5) 0.34201(17) -0.4108(5)
C5 C 0.6220(6) 0.30850(16) -0.3697(5)
H2 H 0.6671 0.2908 -0.3922
C6 C 0.5554(6) 0.30114(15) -0.2964(5)
H3 H 0.5551 0.2783 -0.2715
C7 C 0.4170(6) 0.28671(16) -0.1328(5)
H4 H 0.4615 0.2685 -0.1533
C8 C 0.3513(6) 0.27997(17) -0.0576(5)
H5 H 0.3528 0.2576 -0.0287
C9 C 0.2831(5) 0.30614(16) -0.0248(4)
C10 C 0.2105(5) 0.36734(15) -0.0379(5)
C11 C 0.2119(5) 0.39943(15) -0.0793(5)
H6 H 0.1655 0.4170 -0.0577
C12 C 0.2802(6) 0.40772(16) -0.1539(5)
C13 C 0.3477(5) 0.38153(15) -0.1893(4)
C14 C 0.4151(5) 0.38845(15) -0.2666(4)
C15 C 0.4859(5) 0.36121(15) -0.3006(5)
C16 C 0.4886(5) 0.32645(15) -0.2580(4)
C17 C 0.4203(5) 0.31920(16) -0.1793(5)
C18 C 0.3493(5) 0.34671(15) -0.1459(5)
C19 C 0.2804(5) 0.33978(15) -0.0705(5)
C20 C 0.5558(5) 0.36822(15) -0.3755(5)
C21 C 0.6205(6) 0.4107(2) -0.5016(5)
C22 C 0.6966(6) 0.34935(19) -0.4899(5)
C23 C 0.1337(6) 0.35995(18) 0.0378(5)
C24 C 0.2139(6) 0.29917(19) 0.0553(5)
C25 C 0.3413(6) 0.44998(15) -0.2779(5)
C26 C 0.3332(6) 0.48455(17) -0.3227(5)
H7 H 0.3735 0.4896 -0.3757
C27 C 0.2681(6) 0.50957(16) -0.2886(5)
H8 H 0.2655 0.5318 -0.3180
C28 C 0.2043(7) 0.50348(17) -0.2113(6)
H9 H 0.1583 0.5213 -0.1904
C29 C 0.2096(7) 0.47120(19) -0.1660(6)
H10 H 0.1687 0.4674 -0.1125
C30 C 0.2767(6) 0.44306(15) -0.1987(5)
C31 C 0.7594(6) 0.39076(14) -0.6078(5)
C32 C 0.8814(6) 0.40420(15) -0.5723(5)
C33 C 0.9460(6) 0.41052(17) -0.6488(6)
H11 H 1.0262 0.4197 -0.6280
C34 C 0.8951(7) 0.40358(17) -0.7548(6)
H12 H 0.9422 0.4069 -0.8041
C35 C 0.7746(6) 0.39177(16) -0.7875(5)
H13 H 0.7398 0.3879 -0.8596
C36 C 0.7038(6) 0.38545(15) -0.7159(5)
C37 C 0.5709(6) 0.37313(18) -0.7551(6)
H14 H 0.5366 0.3708 -0.6927
C38 C 0.4918(8) 0.4013(3) -0.8289(8)
H15 H 0.4072 0.3933 -0.8535
H16 H 0.5262 0.4054 -0.8888
H17 H 0.4932 0.4227 -0.7899
C39 C 0.5619(9) 0.3374(3) -0.8083(9)
H18 H 0.6127 0.3209 -0.7605
H19 H 0.5907 0.3391 -0.8721
H20 H 0.4766 0.3296 -0.8260
C40 C 0.9403(7) 0.41130(19) -0.4557(6)
H21 H 0.8824 0.4035 -0.4143
C41 C 0.9612(11) 0.4511(2) -0.4389(7)
H22 H 0.8834 0.4631 -0.4651
H23 H 1.0203 0.4590 -0.4768
H24 H 0.9928 0.4559 -0.3644
C42 C 1.0618(8) 0.3918(2) -0.4168(7)
H25 H 1.0475 0.3672 -0.4286
H26 H 1.0946 0.3961 -0.3421
H27 H 1.1206 0.3998 -0.4549
C43 C 0.0733(6) 0.31928(15) 0.1633(5)
C44 C 0.1323(6) 0.32727(15) 0.2677(5)
C45 C 0.0619(8) 0.32072(17) 0.3420(5)
H28 H 0.0981 0.3253 0.4134
C46 C -0.0529(7) 0.30834(16) 0.3153(6)
H29 H -0.0956 0.3048 0.3677
C47 C -0.1108(6) 0.30048(16) 0.2100(6)
H30 H -0.1920 0.2918 0.1922
C48 C -0.0469(6) 0.30557(15) 0.1309(5)
C49 C -0.1123(6) 0.29903(18) 0.0148(5)
H31 H -0.0488 0.3001 -0.0259
C50 C -0.1742(13) 0.2638(3) -0.0055(8)
H32 H -0.2136 0.2614 -0.0800
H33 H -0.2360 0.2617 0.0346
H34 H -0.1127 0.2458 0.0159
C51 C -0.2086(9) 0.3262(2) -0.0296(7)
H35 H -0.2471 0.3209 -0.1028
H36 H -0.1696 0.3488 -0.0247
H37 H -0.2709 0.3262 0.0103
C52 C 0.2636(6) 0.34187(17) 0.3028(5)
H38 H 0.2933 0.3452 0.2384
C53 C 0.2677(7) 0.3774(2) 0.3564(8)
H39 H 0.2110 0.3931 0.3104
H40 H 0.3509 0.3867 0.3705
H41 H 0.2437 0.3749 0.4222
C54 C 0.3512(8) 0.3171(2) 0.3724(8)
H42 H 0.4328 0.3274 0.3932
H43 H 0.3551 0.2958 0.3342
H44 H 0.3223 0.3121 0.4347
C55 C 0.8377(8) 0.4227(2) -0.0764(7)
H45 H 0.8773 0.4047 -0.0254
Cl1 Cl 0.8632(3) 0.41153(11) -0.1977(2)
Cl2 Cl 0.6803(3) 0.42249(9) -0.0809(2)
Cl3 Cl 0.9091(3) 0.46152(7) -0.0324(2)
C56 C -0.0090(9) 0.2825(4) -0.3038(8)
H46 H -0.0886 0.2747 -0.3503
Cl4 Cl 0.0372(5) 0.25298(10) -0.2033(4)
Cl5 Cl -0.0321(3) 0.32423(9) -0.24739(19)
Cl6 Cl 0.0984(3) 0.28656(9) -0.3783(2)
C57 C 0.2501(14) 0.4843(4) -0.7335(14)
Cl7 Cl 0.3666(7) 0.4974(2) -0.7634(11)
Cl8 Cl 0.2404(9) 0.47356(17) -0.6012(6)
Cl9 Cl 0.1692(6) 0.45287(14) -0.8190(4)
Cl10? Cl 0.300(3) 0.4713(7) -0.8587(13)
Cl11? Cl 0.1355(17) 0.4823(6) -0.726(2)
Cl12? Cl 0.3845(9) 0.4733(2) -0.6528(8)
loop_
_geom_bond_atom_site_label_1
_geom_bond_atom_site_label_2
_geom_bond_site_symmetry_1
_geom_bond_site_symmetry_2
O1 C21 1_555 1_555
O2 C22 1_555 1_555
O3 C23 1_555 1_555
O4 C24 1_555 1_555
N1 C21 1_555 1_555
N2 C23 1_555 1_555
C1 C2 1_555 1_555
C2 H1 1_555 1_555
C3 C2 1_555 1_555
C4 C5 1_555 1_555
C5 H2 1_555 1_555
C6 C5 1_555 1_555
H3 C6 1_555 1_555
C7 H4 1_555 1_555
C8 C7 1_555 1_555
H5 C8 1_555 1_555
C9 C8 1_555 1_555
C10 C11 1_555 1_555
C11 H6 1_555 1_555
C12 C11 1_555 1_555
C13 C12 1_555 1_555
C14 C1 1_555 1_555
C15 C14 1_555 1_555
C16 C6 1_555 1_555
C17 C7 1_555 1_555
C18 C13 1_555 1_555
C19 C9 1_555 1_555
C20 C3 1_555 1_555
C21 C3 1_555 1_555
C22 N1 1_555 1_555
C23 C10 1_555 1_555
C24 N2 1_555 1_555
C25 C1 1_555 1_555
C26 C25 1_555 1_555
H7 C26 1_555 1_555
C27 C26 1_555 1_555
H8 C27 1_555 1_555
C28 C27 1_555 1_555
H9 C28 1_555 1_555
C29 C28 1_555 1_555
H10 C29 1_555 1_555
C30 C12 1_555 1_555
C31 N1 1_555 1_555
C32 C31 1_555 1_555
C33 C32 1_555 1_555
H11 C33 1_555 1_555
C34 C33 1_555 1_555
H12 C34 1_555 1_555
C35 C34 1_555 1_555
H13 C35 1_555 1_555
C36 C31 1_555 1_555
C37 C36 1_555 1_555
H14 C37 1_555 1_555
C38 C37 1_555 1_555
H15 C38 1_555 1_555
H16 C38 1_555 1_555
H17 C38 1_555 1_555
C39 C37 1_555 1_555
H18 C39 1_555 1_555
H19 C39 1_555 1_555
H20 C39 1_555 1_555
C40 C32 1_555 1_555
H21 C40 1_555 1_555
C41 C40 1_555 1_555
H22 C41 1_555 1_555
H23 C41 1_555 1_555
H24 C41 1_555 1_555
C42 C40 1_555 1_555
H25 C42 1_555 1_555
H26 C42 1_555 1_555
H27 C42 1_555 1_555
C43 N2 1_555 1_555
C44 C43 1_555 1_555
C45 C44 1_555 1_555
H28 C45 1_555 1_555
C46 C45 1_555 1_555
H29 C46 1_555 1_555
C47 C46 1_555 1_555
H30 C47 1_555 1_555
C48 C43 1_555 1_555
C49 C48 1_555 1_555
H31 C49 1_555 1_555
C50 C49 1_555 1_555
H32 C50 1_555 1_555
H33 C50 1_555 1_555
H34 C50 1_555 1_555
C51 C49 1_555 1_555
H35 C51 1_555 1_555
H36 C51 1_555 1_555
H37 C51 1_555 1_555
C52 C44 1_555 1_555
H38 C52 1_555 1_555
C53 C52 1_555 1_555
H39 C53 1_555 1_555
H40 C53 1_555 1_555
H41 C53 1_555 1_555
C54 C52 1_555 1_555
H42 C54 1_555 1_555
H43 C54 1_555 1_555
H44 C54 1_555 1_555
C55 H45 1_555 1_555
C56 H46 1_555 1_555
C57 Cl7 1_555 1_555
Cl1 C55 1_555 1_555
Cl2 C55 1_555 1_555
Cl3 C55 1_555 1_555
Cl4 C56 1_555 1_555
Cl5 C56 1_555 1_555
Cl6 C56 1_555 1_555
Cl8 C57 1_555 1_555
Cl9 C57 1_555 1_555
C4 C20 1_555 1_555
C4 C22 1_555 1_555
C9 C24 1_555 1_555
C10 C19 1_555 1_555
C13 C14 1_555 1_555
C15 C16 1_555 1_555
C15 C20 1_555 1_555
C16 C17 1_555 1_555
C17 C18 1_555 1_555
C18 C19 1_555 1_555
C25 C30 1_555 1_555
C29 C30 1_555 1_555
C35 C36 1_555 1_555
C47 C48 1_555 1_555

#END
