
#######################################################################
#
#                 Cambridge Crystallographic Data Centre
#                                CCDC 
#
#######################################################################
#
# If this CIF has been generated from an entry in the Cambridge 
# Structural Database, then it will include bibliographic, chemical, 
# crystal, experimental, refinement or atomic coordinate data resulting 
# from the CCDC's data processing and validation procedures.
#
#######################################################################

data_MICGAH
_chemical_formula_moiety         'C31 H36 N4 O2'
_chemical_name_systematic        
3',6'-bis(diethylamino)-2-[(1-methylethylidene)amino]spiro[isoindole-1,9'-xanthen]-3(2H)-one
_symmetry_cell_setting           monoclinic
_symmetry_space_group_name_H-M   'P 21/c'
_symmetry_Int_Tables_number      14
_space_group_name_Hall           '-P 2ybc'
loop_
_symmetry_equiv_pos_site_id
_symmetry_equiv_pos_as_xyz
1 x,y,z
2 -x,1/2+y,1/2-z
3 -x,-y,-z
4 x,1/2-y,1/2+z
_cell_length_a                   12.199(2)
_cell_length_b                   12.303(2)
_cell_length_c                   18.536(3)
_cell_angle_alpha                90
_cell_angle_beta                 107.501(3)
_cell_angle_gamma                90
_cell_volume                     2653.19
_exptl_crystal_colour            colorless
_chemical_melting_point          210-213deg.C
_cell_formula_units_Z            4
_exptl_crystal_recrystallization_method acetone
_exptl_crystal_preparation       fluorescent
loop_
_atom_site_label
_atom_site_type_symbol
_atom_site_fract_x
_atom_site_fract_y
_atom_site_fract_z
N1 N 0.2825(2) 0.6539(2) 0.16447(15)
N2 N 0.2888(2) 0.7210(2) 0.22573(17)
N3 N 0.8355(2) 0.6202(2) 0.29404(18)
N4 N 0.2936(2) 1.1062(2) -0.00946(17)
O1 O 0.0994(2) 0.58240(19) 0.14395(15)
O2 O 0.53844(17) 0.84901(17) 0.15173(14)
C1 C 0.3196(3) 0.5944(2) 0.05697(19)
C2 C 0.3664(3) 0.5648(3) 0.0011(2)
H1 H 0.4373 0.5918 0.0005
C3 C 0.3040(3) 0.4923(3) -0.0552(2)
H2 H 0.3341 0.4710 -0.0936
C4 C 0.1992(3) 0.4528(3) -0.0540(2)
H3 H 0.1583 0.4068 -0.0925
C5 C 0.1538(3) 0.4800(3) 0.0032(2)
H4 H 0.0836 0.4519 0.0045
C6 C 0.2160(3) 0.5509(2) 0.0589(2)
C7 C 0.1879(3) 0.5948(2) 0.1253(2)
C8 C 0.2809(3) 0.6759(3) 0.2862(2)
C9 C 0.2695(3) 0.5571(3) 0.2970(2)
H5 H 0.2672 0.5196 0.2511
H6 H 0.1999 0.5431 0.3094
H7 H 0.3341 0.5320 0.3373
C10 C 0.2859(3) 0.7487(3) 0.3511(2)
H8 H 0.2930 0.8227 0.3367
H9 H 0.3511 0.7298 0.3931
H10 H 0.2168 0.7406 0.3653
C11 C 0.3445(2) 0.7915(2) 0.08739(18)
C12 C 0.2392(3) 0.8245(3) 0.03757(19)
H11 H 0.1792 0.7746 0.0244
C13 C 0.2205(3) 0.9269(3) 0.0071(2)
H12 H 0.1482 0.9451 -0.0249
C14 C 0.3083(3) 1.0045(3) 0.02349(19)
C15 C 0.4134(3) 0.9729(3) 0.0740(2)
H13 H 0.4735 1.0225 0.0879
C16 C 0.4295(3) 0.8690(2) 0.10372(18)
C17 C 0.5663(3) 0.7448(2) 0.17922(19)
C18 C 0.6800(3) 0.7320(3) 0.22050(19)
H14 H 0.7298 0.7909 0.2267
C19 C 0.7217(3) 0.6330(3) 0.25291(19)
C20 C 0.6418(3) 0.5478(3) 0.24294(19)
H15 H 0.6656 0.4808 0.2653
C21 C 0.5281(3) 0.5623(2) 0.20017(19)
H16 H 0.4778 0.5038 0.1936
C22 C 0.4866(2) 0.6618(2) 0.16666(17)
C23 C 0.3627(2) 0.6771(2) 0.11933(18)
C24 C 0.8817(3) 0.5155(3) 0.3265(2)
H17 H 0.8239 0.4779 0.3434
H18 H 0.9477 0.5281 0.3705
C25 C 0.9178(3) 0.4434(3) 0.2714(3)
H19 H 0.9467 0.3758 0.2956
H20 H 0.9767 0.4791 0.2557
H21 H 0.8527 0.4296 0.2280
C26 C 0.9214(3) 0.7030(3) 0.2899(2)
H22 H 0.8949 0.7396 0.2413
H23 H 0.9932 0.6669 0.2926
C27 C 0.9431(4) 0.7863(4) 0.3516(3)
H24 H 1.0002 0.8369 0.3465
H25 H 0.9699 0.7508 0.3999
H26 H 0.8730 0.8245 0.3481
C28 C 0.1849(3) 1.1368(3) -0.0650(2)
H27 H 0.1557 1.0747 -0.0974
H28 H 0.1996 1.1944 -0.0966
C29 C 0.0943(3) 1.1741(3) -0.0316(2)
H29 H 0.0261 1.1927 -0.0715
H30 H 0.1214 1.2368 -0.0005
H31 H 0.0773 1.1170 -0.0014
C30 C 0.3818(3) 1.1898(3) 0.0146(2)
H32 H 0.3680 1.2450 -0.0246
H33 H 0.4560 1.1573 0.0191
C31 C 0.3871(3) 1.2443(3) 0.0887(2)
H34 H 0.4469 1.2981 0.1004
H35 H 0.4031 1.1909 0.1282
H36 H 0.3147 1.2786 0.0845
H37? H 0.2978 0.7901 0.2232
loop_
_geom_bond_atom_site_label_1
_geom_bond_atom_site_label_2
_geom_bond_site_symmetry_1
_geom_bond_site_symmetry_2
N1 N2 1_555 1_555
N2 C8 1_555 1_555
N3 C19 1_555 1_555
N4 C14 1_555 1_555
O1 C7 1_555 1_555
O2 C16 1_555 1_555
C1 C2 1_555 1_555
C2 H1 1_555 1_555
C3 C2 1_555 1_555
H2 C3 1_555 1_555
C4 C3 1_555 1_555
H3 C4 1_555 1_555
C5 C4 1_555 1_555
H4 C5 1_555 1_555
C6 C1 1_555 1_555
C7 N1 1_555 1_555
C8 C9 1_555 1_555
C9 H5 1_555 1_555
H6 C9 1_555 1_555
H7 C9 1_555 1_555
C10 C8 1_555 1_555
H8 C10 1_555 1_555
H9 C10 1_555 1_555
H10 C10 1_555 1_555
C11 C12 1_555 1_555
C12 H11 1_555 1_555
C13 C12 1_555 1_555
H12 C13 1_555 1_555
C14 C13 1_555 1_555
C15 C14 1_555 1_555
H13 C15 1_555 1_555
C16 C11 1_555 1_555
C17 O2 1_555 1_555
C18 C17 1_555 1_555
H14 C18 1_555 1_555
C19 C18 1_555 1_555
C20 C19 1_555 1_555
H15 C20 1_555 1_555
C21 C20 1_555 1_555
H16 C21 1_555 1_555
C22 C17 1_555 1_555
C23 N1 1_555 1_555
C24 N3 1_555 1_555
H17 C24 1_555 1_555
H18 C24 1_555 1_555
C25 C24 1_555 1_555
H19 C25 1_555 1_555
H20 C25 1_555 1_555
H21 C25 1_555 1_555
C26 N3 1_555 1_555
H22 C26 1_555 1_555
H23 C26 1_555 1_555
C27 C26 1_555 1_555
H24 C27 1_555 1_555
H25 C27 1_555 1_555
H26 C27 1_555 1_555
C28 N4 1_555 1_555
H27 C28 1_555 1_555
H28 C28 1_555 1_555
C29 C28 1_555 1_555
H29 C29 1_555 1_555
H30 C29 1_555 1_555
H31 C29 1_555 1_555
C30 N4 1_555 1_555
H32 C30 1_555 1_555
H33 C30 1_555 1_555
C31 C30 1_555 1_555
H34 C31 1_555 1_555
H35 C31 1_555 1_555
H36 C31 1_555 1_555
C1 C23 1_555 1_555
C5 C6 1_555 1_555
C6 C7 1_555 1_555
C11 C23 1_555 1_555
C15 C16 1_555 1_555
C21 C22 1_555 1_555
C22 C23 1_555 1_555

#END
