
#######################################################################
#
#                 Cambridge Crystallographic Data Centre
#                                CCDC 
#
#######################################################################
#
# If this CIF has been generated from an entry in the Cambridge 
# Structural Database, then it will include bibliographic, chemical, 
# crystal, experimental, refinement or atomic coordinate data resulting 
# from the CCDC's data processing and validation procedures.
#
#######################################################################

data_MICGEN
_chemical_formula_moiety         '2(C4 H8 N5 1+),C8 H4 O4 2-,2(H2 O1)'
_chemical_name_systematic        
'bis(2,4-diamino-6-methyl-1,3,5-triazin-1-ium) benzene-1,4-dicarboxylate dihydrate'
_symmetry_cell_setting           triclinic
_symmetry_space_group_name_H-M   'P -1'
_symmetry_Int_Tables_number      2
_space_group_name_Hall           '-P 1'
loop_
_symmetry_equiv_pos_site_id
_symmetry_equiv_pos_as_xyz
1 x,y,z
2 -x,-y,-z
_cell_length_a                   6.7608(9)
_cell_length_b                   7.2664(10)
_cell_length_c                   10.5712(15)
_cell_angle_alpha                94.719(12)
_cell_angle_beta                 98.954(11)
_cell_angle_gamma                91.567(11)
_cell_volume                     510.835
_exptl_crystal_colour            colorless
_exptl_crystal_description       block
_cell_formula_units_Z            1
loop_
_atom_site_label
_atom_site_type_symbol
_atom_site_fract_x
_atom_site_fract_y
_atom_site_fract_z
O1 O 0.0124(4) -0.1702(4) 0.8156(3)
O2 O 0.2238(4) -0.1202(5) 0.6797(3)
C1 C 0.3445(5) -0.0590(5) 0.9002(4)
C2 C 0.1792(6) -0.1225(6) 0.7955(4)
C3 C 0.3103(6) -0.0357(7) 1.0269(4)
H1 H 0.1827 -0.0592 1.0459
C4 C 0.5348(6) -0.0221(7) 0.8757(4)
H2 H 0.5596 -0.0364 0.7914
O1A O 0.9876(4) 0.1702(4) 1.1844(3)
O2A O 0.7762(4) 0.1202(5) 1.3203(3)
C1A C 0.6555(5) 0.0590(5) 1.0998(4)
C2A C 0.8208(6) 0.1225(6) 1.2045(4)
C3A C 0.6897(6) 0.0357(7) 0.9731(4)
H1A H 0.8173 0.0592 0.9541
C4A C 0.4652(6) 0.0221(7) 1.1243(4)
H2A H 0.4404 0.0364 1.2086
N1 N 0.0347(4) 0.2615(4) 0.5139(3)
H3 H -0.0342 0.2119 0.4436
N2 N 0.0648(5) 0.3369(5) 0.7367(3)
N3 N 0.2859(6) 0.3440(5) 0.4038(4)
H4 H 0.4074 0.3900 0.4176
N4 N 0.3583(6) 0.4740(6) 0.8427(4)
H5 H 0.291(7) 0.471(6) 0.910(5)
N5 N 0.3321(5) 0.4164(5) 0.6230(3)
C5 C 0.2185(5) 0.3417(5) 0.5164(4)
C6 C -0.0357(5) 0.2626(5) 0.6266(4)
C7 C 0.2496(6) 0.4067(6) 0.7320(4)
C8 C -0.2353(6) 0.1769(6) 0.6243(4)
H6 H -0.3190 0.1967 0.5449
H7 H -0.2936 0.2313 0.6950
H8 H -0.2241 0.0466 0.6314
H9 H 0.486(6) 0.510(5) 0.845(4)
H10 H 0.206(6) 0.304(6) 0.336(5)
O3 O -0.2025(5) 0.5433(6) 0.9052(3)
H11 H -0.1253 0.4683 0.8734
H12 H -0.121(10) 0.629(10) 0.913(7)
loop_
_geom_bond_atom_site_label_1
_geom_bond_atom_site_label_2
_geom_bond_site_symmetry_1
_geom_bond_site_symmetry_2
O1 C2 1_555 1_555
O2 C2 1_555 1_555
C1 C2 1_555 1_555
C3 C1 1_555 1_555
H1 C3 1_555 1_555
C4 C1 1_555 1_555
H2 C4 1_555 1_555
N1 H3 1_555 1_555
N2 C6 1_555 1_555
N3 H4 1_555 1_555
N4 H5 1_555 1_555
N5 C5 1_555 1_555
C5 N1 1_555 1_555
C6 N1 1_555 1_555
C7 N2 1_555 1_555
C8 C6 1_555 1_555
H6 C8 1_555 1_555
H7 C8 1_555 1_555
H8 C8 1_555 1_555
H9 N4 1_555 1_555
H10 N3 1_555 1_555
O3 H11 1_555 1_555
H12 O3 1_555 1_555
O1A C2A 1_555 1_555
O2A C2A 1_555 1_555
C1A C2A 1_555 1_555
C3A C4 1_555 1_555
H1A C3A 1_555 1_555
C4A C3 1_555 1_555
H2A C4A 1_555 1_555
N3 C5 1_555 1_555
N4 C7 1_555 1_555
N5 C7 1_555 1_555
C1A C3A 1_555 1_555
C1A C4A 1_555 1_555

#END
