
#######################################################################
#
#                 Cambridge Crystallographic Data Centre
#                                CCDC 
#
#######################################################################
#
# If this CIF has been generated from an entry in the Cambridge 
# Structural Database, then it will include bibliographic, chemical, 
# crystal, experimental, refinement or atomic coordinate data resulting 
# from the CCDC's data processing and validation procedures.
#
#######################################################################

data_MICJIS
_chemical_formula_moiety         'C19 H22 O4'
_chemical_name_systematic        
'Ethyl 3-(3,5-dimethylphenoxy)-6-hydroxy-2,4-dimethylbenzoate'
_symmetry_cell_setting           monoclinic
_symmetry_space_group_name_H-M   'P 21/n'
_symmetry_Int_Tables_number      14
_space_group_name_Hall           '-P 2yn'
loop_
_symmetry_equiv_pos_site_id
_symmetry_equiv_pos_as_xyz
1 x,y,z
2 1/2-x,1/2+y,1/2-z
3 -x,-y,-z
4 1/2+x,1/2-y,1/2+z
_cell_length_a                   8.3840(17)
_cell_length_b                   7.5820(15)
_cell_length_c                   26.597(5)
_cell_angle_alpha                90
_cell_angle_beta                 94.16(3)
_cell_angle_gamma                90
_cell_volume                     1686.25
_exptl_crystal_colour            colorless
_exptl_crystal_description       prism
_chemical_melting_point          125-126deg.C
_cell_formula_units_Z            4
loop_
_atom_site_label
_atom_site_type_symbol
_atom_site_fract_x
_atom_site_fract_y
_atom_site_fract_z
O1 O 0.38000(19) 0.48838(19) 1.09284(5)
O2 O 0.24581(18) 0.71155(17) 1.05593(5)
O3 O 0.06529(17) 0.45945(17) 0.88126(5)
O4 O 0.46229(18) 0.22525(19) 1.04145(6)
H1 H 0.453(4) 0.307(4) 1.0711(13)
C1 C 0.2875(2) 0.4580(2) 1.00618(7)
C2 C 0.3666(2) 0.2937(2) 1.00273(8)
C3 C 0.3492(3) 0.1942(2) 0.95912(8)
H2 H 0.4033 0.0844 0.9577
C4 C 0.2548(3) 0.2511(2) 0.91755(8)
C5 C 0.1748(2) 0.4124(2) 0.92146(7)
C6 C 0.1901(2) 0.5194(2) 0.96383(7)
C7 C 0.3094(2) 0.5518(3) 1.05503(8)
C8 C 0.2583(3) 0.8036(3) 1.10401(9)
H3 H 0.3718 0.8248 1.1153
H4 H 0.2084 0.7335 1.1301
C9 C 0.1713(3) 0.9755(3) 1.09517(10)
H5 H 0.1760 1.0434 1.1266
H6 H 0.0595 0.9521 1.0839
H7 H 0.2220 1.0431 1.0692
C10 C 0.1015(3) 0.6937(3) 0.96245(8)
H8 H 0.0423 0.7080 0.9296
H9 H 0.1783 0.7905 0.9679
H10 H 0.0265 0.6955 0.9891
C11 C 0.2395(3) 0.1449(3) 0.86986(9)
H11 H 0.3035 0.0371 0.8743
H12 H 0.2779 0.2146 0.8422
H13 H 0.1271 0.1135 0.8620
C12 C 0.1135(3) 0.5757(2) 0.84501(7)
C13 C 0.2703(3) 0.6257(2) 0.84125(7)
H14 H 0.3524 0.5799 0.8641
C14 C 0.3077(3) 0.7436(2) 0.80371(7)
C15 C 0.1859(3) 0.8074(3) 0.77060(8)
H15 H 0.2111 0.8877 0.7449
C16 C 0.0275(3) 0.7566(3) 0.77411(7)
C17 C -0.0078(3) 0.6399(2) 0.81215(7)
H16 H -0.1152 0.6045 0.8155
C18 C 0.4782(3) 0.8002(3) 0.79931(10)
H17 H 0.4830 0.8826 0.7711
H18 H 0.5441 0.6965 0.7934
H19 H 0.5186 0.8582 0.8306
C19 C -0.1051(3) 0.8286(4) 0.73828(10)
H20 H -0.0596 0.9082 0.7140
H21 H -0.1817 0.8934 0.7574
H22 H -0.1598 0.7308 0.7202
loop_
_geom_bond_atom_site_label_1
_geom_bond_atom_site_label_2
_geom_bond_site_symmetry_1
_geom_bond_site_symmetry_2
O1 C7 1_555 1_555
O2 C7 1_555 1_555
O3 C5 1_555 1_555
O4 H1 1_555 1_555
C1 C2 1_555 1_555
C2 O4 1_555 1_555
C3 C2 1_555 1_555
H2 C3 1_555 1_555
C4 C3 1_555 1_555
C5 C4 1_555 1_555
C6 C1 1_555 1_555
C7 C1 1_555 1_555
C8 O2 1_555 1_555
H3 C8 1_555 1_555
H4 C8 1_555 1_555
C9 C8 1_555 1_555
H5 C9 1_555 1_555
H6 C9 1_555 1_555
H7 C9 1_555 1_555
C10 C6 1_555 1_555
H8 C10 1_555 1_555
H9 C10 1_555 1_555
H10 C10 1_555 1_555
C11 C4 1_555 1_555
H11 C11 1_555 1_555
H12 C11 1_555 1_555
H13 C11 1_555 1_555
C12 O3 1_555 1_555
C13 C12 1_555 1_555
H14 C13 1_555 1_555
C14 C13 1_555 1_555
C15 C14 1_555 1_555
H15 C15 1_555 1_555
C16 C15 1_555 1_555
C17 C12 1_555 1_555
H16 C17 1_555 1_555
C18 C14 1_555 1_555
H17 C18 1_555 1_555
H18 C18 1_555 1_555
H19 C18 1_555 1_555
C19 C16 1_555 1_555
H20 C19 1_555 1_555
H21 C19 1_555 1_555
H22 C19 1_555 1_555
C5 C6 1_555 1_555
C16 C17 1_555 1_555

#END
