
#######################################################################
#
#                 Cambridge Crystallographic Data Centre
#                                CCDC 
#
#######################################################################
#
# If this CIF has been generated from an entry in the Cambridge 
# Structural Database, then it will include bibliographic, chemical, 
# crystal, experimental, refinement or atomic coordinate data resulting 
# from the CCDC's data processing and validation procedures.
#
#######################################################################

data_MICJUE
_chemical_formula_moiety         'C9 H10 Br1 F2 N3'
_chemical_name_systematic        
8-bromo-6,7-difluoro-1,4-dimethyl-1,2,3,4-tetrahydropyrido(2,3-b)pyrazine
_symmetry_cell_setting           monoclinic
_symmetry_space_group_name_H-M   'C 2/c'
_symmetry_Int_Tables_number      15
_space_group_name_Hall           '-C 2yn'
loop_
_symmetry_equiv_pos_site_id
_symmetry_equiv_pos_as_xyz
1 x,y,z
2 1/2+x,1/2+y,z
3 -x,y,1/2-z
4 1/2-x,1/2+y,1/2-z
5 -x,-y,-z
6 1/2-x,1/2-y,-z
7 x,-y,1/2+z
8 1/2+x,1/2-y,1/2+z
_cell_length_a                   9.8077(3)
_cell_length_b                   15.1523(5)
_cell_length_c                   14.1039(5)
_cell_angle_alpha                90
_cell_angle_beta                 101.77(1)
_cell_angle_gamma                90
_cell_volume                     2051.9
_exptl_crystal_colour            colorless
_chemical_melting_point          76.2-77.0deg.C
_cell_formula_units_Z            8
loop_
_atom_site_label
_atom_site_type_symbol
_atom_site_fract_x
_atom_site_fract_y
_atom_site_fract_z
Br1 Br 0.52844(3) 0.385207(15) 0.014043(19)
F1 F 0.59172(16) 0.08772(9) -0.14723(12)
F2 F 0.50969(16) 0.18711(10) -0.00979(11)
N1 N 0.6739(2) 0.20651(13) -0.21374(15)
N2 N 0.6758(2) 0.44617(13) -0.15435(16)
N3 N 0.7547(2) 0.32515(15) -0.28950(17)
C1 C 0.6141(2) 0.17564(15) -0.14593(17)
C2 C 0.5727(2) 0.22523(15) -0.07622(18)
C3 C 0.5936(2) 0.31611(15) -0.07766(17)
C4 C 0.6569(2) 0.35325(15) -0.14772(17)
C5 C 0.6961(2) 0.29412(15) -0.21660(18)
C6 C 0.7911(3) 0.48276(17) -0.0816(2)
H1 H 0.7818 0.4635 -0.0169
H2 H 0.7882 0.5474 -0.0848
H3 H 0.8800 0.4618 -0.0946
C7 C 0.6828(2) 0.47249(17) -0.25332(19)
H4 H 0.7083 0.5357 -0.2537
H5 H 0.5898 0.4652 -0.2958
C8 C 0.7883(3) 0.41839(18) -0.2933(2)
H6 H 0.7868 0.4359 -0.3612
H7 H 0.8829 0.4295 -0.2548
C9 C 0.8127(3) 0.2648(2) -0.3513(2)
H8 H 0.7818 0.2045 -0.3418
H9 H 0.9147 0.2674 -0.3345
H10 H 0.7807 0.2818 -0.4192
loop_
_geom_bond_atom_site_label_1
_geom_bond_atom_site_label_2
_geom_bond_site_symmetry_1
_geom_bond_site_symmetry_2
Br1 C3 1_555 1_555
F1 C1 1_555 1_555
F2 C2 1_555 1_555
N1 C1 1_555 1_555
N2 C4 1_555 1_555
N3 C5 1_555 1_555
C1 C2 1_555 1_555
C2 C3 1_555 1_555
C3 C4 1_555 1_555
C4 C5 1_555 1_555
C5 N1 1_555 1_555
C6 N2 1_555 1_555
H1 C6 1_555 1_555
H2 C6 1_555 1_555
H3 C6 1_555 1_555
C7 N2 1_555 1_555
H4 C7 1_555 1_555
H5 C7 1_555 1_555
C8 N3 1_555 1_555
H6 C8 1_555 1_555
H7 C8 1_555 1_555
C9 N3 1_555 1_555
H8 C9 1_555 1_555
H9 C9 1_555 1_555
H10 C9 1_555 1_555
C7 C8 1_555 1_555

#END
