
#######################################################################
#
#                 Cambridge Crystallographic Data Centre
#                                CCDC 
#
#######################################################################
#
# If this CIF has been generated from an entry in the Cambridge 
# Structural Database, then it will include bibliographic, chemical, 
# crystal, experimental, refinement or atomic coordinate data resulting 
# from the CCDC's data processing and validation procedures.
#
#######################################################################

data_MICKOZ
_chemical_formula_moiety         'C25 H22 Br1 Cl1 N2 O4 S1'
_chemical_name_systematic        
'(2S,3R)-Ethyl 3-(5-bromo-1H-indol-3-yl)-3-(4-chlorophenyl)-2-(phenylsulfonamido)propanoate'
_symmetry_cell_setting           orthorhombic
_symmetry_space_group_name_H-M   'P 21 21 21'
_symmetry_Int_Tables_number      19
_space_group_name_Hall           'P 2ac 2ab'
loop_
_symmetry_equiv_pos_site_id
_symmetry_equiv_pos_as_xyz
1 x,y,z
2 1/2-x,-y,1/2+z
3 -x,1/2+y,1/2-z
4 1/2+x,1/2-y,-z
_cell_length_a                   25.926(5)
_cell_length_b                   9.861(2)
_cell_length_c                   10.282(2)
_cell_angle_alpha                90
_cell_angle_beta                 90
_cell_angle_gamma                90
_cell_volume                     2628.66
_exptl_crystal_colour            colorless
_chemical_melting_point          182-184deg.C
_cell_formula_units_Z            4
loop_
_atom_site_label
_atom_site_type_symbol
_atom_site_fract_x
_atom_site_fract_y
_atom_site_fract_z
Br1 Br 0.18269(3) 0.65664(10) 0.86414(8)
Cl1 Cl -0.23966(9) 0.5861(3) 1.0164(4)
S1 S -0.04755(6) 0.1608(2) 1.26677(14)
O1 O 0.07386(17) 0.2549(5) 1.1131(5)
O2 O 0.05103(17) 0.1210(5) 0.9494(5)
O3 O -0.03706(17) 0.2035(5) 1.3969(4)
O4 O -0.02561(17) 0.0353(5) 1.2219(4)
N1 N 0.0146(2) 0.3310(6) 0.6194(5)
H1 H 0.0095 0.2972 0.5434
N2 N -0.02980(19) 0.2842(5) 1.1744(5)
H2 H -0.0299 0.3654 1.2049
C1 C -0.0188(3) 0.3194(8) 0.7221(6)
H3 H -0.0502 0.2741 0.7204
C2 C 0.0015(2) 0.3850(6) 0.8274(6)
C3 C 0.0888(2) 0.5128(6) 0.8503(7)
H4 H 0.0860 0.5373 0.9374
C4 C 0.1311(2) 0.5485(7) 0.7790(7)
C5 C 0.1383(3) 0.5160(7) 0.6495(8)
H5 H 0.1679 0.5437 0.6059
C6 C 0.1016(3) 0.4434(8) 0.5871(7)
H6 H 0.1056 0.4195 0.5002
C7 C 0.0576(3) 0.4051(7) 0.6558(6)
C8 C 0.0499(2) 0.4386(6) 0.7892(6)
C9 C -0.0201(2) 0.3959(6) 0.9647(6)
H7 H 0.0011 0.4633 1.0099
C10 C -0.0135(2) 0.2619(7) 1.0399(6)
H8 H -0.0355 0.1924 1.0005
C11 C 0.0422(3) 0.2121(7) 1.0402(7)
C12 C 0.1062(3) 0.0638(11) 0.9476(11)
H9 H 0.1209 0.0665 1.0344
H10 H 0.1058 -0.0298 0.9184
C13 C 0.1367(4) 0.1445(13) 0.8609(13)
H11 H 0.1712 0.1095 0.8580
H12 H 0.1373 0.2366 0.8913
H13 H 0.1219 0.1416 0.7754
C14 C -0.0764(2) 0.4469(7) 0.9736(6)
C15 C -0.0884(3) 0.5587(7) 1.0435(8)
H14 H -0.0623 0.6083 1.0832
C16 C -0.1399(4) 0.6008(9) 1.0566(10)
H15 H -0.1476 0.6770 1.1063
C17 C -0.1777(3) 0.5327(11) 0.9987(10)
C18 C -0.1675(3) 0.4241(11) 0.9263(8)
H16 H -0.1940 0.3778 0.8845
C19 C -0.1168(3) 0.3812(9) 0.9140(7)
H17 H -0.1099 0.3050 0.8635
C20 C -0.1157(2) 0.1490(8) 1.2486(5)
C21 C -0.1370(3) 0.0211(9) 1.2579(7)
H18 H -0.1164 -0.0555 1.2683
C22 C -0.1901(3) 0.0112(11) 1.2510(10)
H19 H -0.2062 -0.0730 1.2562
C23 C -0.2197(3) 0.1301(12) 1.2359(10)
H20 H -0.2554 0.1227 1.2310
C24 C -0.1982(3) 0.2537(10) 1.2283(10)
H21 H -0.2188 0.3303 1.2191
C25 C -0.1453(3) 0.2655(9) 1.2342(8)
H22 H -0.1297 0.3502 1.2286
loop_
_geom_bond_atom_site_label_1
_geom_bond_atom_site_label_2
_geom_bond_site_symmetry_1
_geom_bond_site_symmetry_2
Br1 C4 1_555 1_555
Cl1 C17 1_555 1_555
S1 O3 1_555 1_555
O1 C11 1_555 1_555
O2 C11 1_555 1_555
O4 S1 1_555 1_555
N1 H1 1_555 1_555
N2 S1 1_555 1_555
H2 N2 1_555 1_555
C1 N1 1_555 1_555
H3 C1 1_555 1_555
C2 C1 1_555 1_555
C3 H4 1_555 1_555
C4 C3 1_555 1_555
C5 C4 1_555 1_555
H5 C5 1_555 1_555
C6 C5 1_555 1_555
H6 C6 1_555 1_555
C7 N1 1_555 1_555
C8 C2 1_555 1_555
C9 C2 1_555 1_555
H7 C9 1_555 1_555
C10 N2 1_555 1_555
H8 C10 1_555 1_555
C11 C10 1_555 1_555
C12 O2 1_555 1_555
H9 C12 1_555 1_555
H10 C12 1_555 1_555
C13 C12 1_555 1_555
H11 C13 1_555 1_555
H12 C13 1_555 1_555
H13 C13 1_555 1_555
C14 C9 1_555 1_555
C15 C14 1_555 1_555
H14 C15 1_555 1_555
C16 C15 1_555 1_555
H15 C16 1_555 1_555
C17 C16 1_555 1_555
C18 C17 1_555 1_555
H16 C18 1_555 1_555
C19 C14 1_555 1_555
H17 C19 1_555 1_555
C20 S1 1_555 1_555
C21 C20 1_555 1_555
H18 C21 1_555 1_555
C22 C21 1_555 1_555
H19 C22 1_555 1_555
C23 C22 1_555 1_555
H20 C23 1_555 1_555
C24 C23 1_555 1_555
H21 C24 1_555 1_555
C25 C20 1_555 1_555
H22 C25 1_555 1_555
C3 C8 1_555 1_555
C6 C7 1_555 1_555
C7 C8 1_555 1_555
C9 C10 1_555 1_555
C18 C19 1_555 1_555
C24 C25 1_555 1_555

#END
