
#######################################################################
#
#                 Cambridge Crystallographic Data Centre
#                                CCDC 
#
#######################################################################
#
# If this CIF has been generated from an entry in the Cambridge 
# Structural Database, then it will include bibliographic, chemical, 
# crystal, experimental, refinement or atomic coordinate data resulting 
# from the CCDC's data processing and validation procedures.
#
#######################################################################

data_MICMUJ
_chemical_formula_moiety         'C35 H28 F3 N5 O9'
_chemical_name_systematic        
'ethyl 8-hydroxy-6,10-bis(4-nitrophenyl)-1,4-dioxo-2,3-diphenyl-8-(trifluoromethyl)-2,3,7-triazaspiro[4.5]decane-9-carboxylate'
_symmetry_cell_setting           triclinic
_symmetry_space_group_name_H-M   'P -1'
_symmetry_Int_Tables_number      2
_space_group_name_Hall           '-P 1'
loop_
_symmetry_equiv_pos_site_id
_symmetry_equiv_pos_as_xyz
1 x,y,z
2 -x,-y,-z
_cell_length_a                   13.3827(2)
_cell_length_b                   14.8494(2)
_cell_length_c                   19.5580(3)
_cell_angle_alpha                88.1030(10)
_cell_angle_beta                 80.3100(10)
_cell_angle_gamma                89.2380(10)
_cell_volume                     3829
_exptl_crystal_colour            colorless
_exptl_crystal_description       block
_cell_formula_units_Z            4
loop_
_atom_site_label
_atom_site_type_symbol
_atom_site_fract_x
_atom_site_fract_y
_atom_site_fract_z
O1 O 0.61619(8) 0.32153(8) -0.07459(6)
O2 O 0.57090(9) 0.59969(8) 0.02493(6)
H1 H 0.521904 0.583299 0.053454
O3 O 0.85998(9) 0.39761(8) 0.06302(6)
O4 O 0.60686(10) 0.51207(10) 0.22315(6)
F1 F 0.71458(12) 0.73204(8) 0.04008(7)
F2 F 0.61637(12) 0.69286(9) 0.13411(7)
F3 F 0.77126(12) 0.64963(10) 0.11626(8)
N1 N 0.83917(9) 0.28486(9) -0.00975(7)
N2 N 0.75955(9) 0.25723(9) -0.04492(7)
O5 O 0.47951(10) 0.51636(11) 0.16190(7)
N3 N 0.74200(10) 0.56320(9) -0.00525(7)
H2 H 0.794790 0.596744 -0.014050
O6 O 1.06265(12) 0.40706(14) -0.31389(8)
N4 N 1.07424(13) 0.44361(12) -0.26063(8)
O7 O 1.15559(11) 0.47209(13) -0.25068(9)
C1 C 0.68712(11) 0.32293(10) -0.04331(7)
C2 C 0.71430(11) 0.39889(10) 0.00084(7)
C3 C 0.81273(11) 0.36426(10) 0.02278(8)
C4 C 0.72879(11) 0.48529(10) -0.04648(8)
H3 H 0.668169 0.494930 -0.067849
C5 C 0.65136(12) 0.49803(10) 0.10244(8)
H4 H 0.716131 0.489154 0.118902
C6 C 0.82010(11) 0.47623(10) -0.10341(8)
C7 C 0.62887(11) 0.41354(10) 0.06437(7)
H5 H 0.565807 0.425220 0.046258
C8 C 0.66053(12) 0.57990(11) 0.05111(8)
C9 C 0.61328(12) 0.32899(11) 0.11019(8)
C10 C 0.78239(12) 0.19304(11) -0.09856(8)
C11 C 0.56805(13) 0.51064(11) 0.16489(8)
C12 C 0.91729(12) 0.49542(12) -0.09177(9)
H6 H 0.926144 0.516374 -0.048916
C13 C 0.80775(13) 0.44602(12) -0.16811(8)
H7 H 0.743115 0.433929 -0.176794
C14 C 0.89724(13) 0.21540(11) 0.01831(9)
C15 C 0.98555(13) 0.45335(11) -0.20598(9)
O8 O 0.6063(2) 0.08143(13) 0.28313(10)
C16 C 1.00043(13) 0.48383(12) -0.14270(9)
H8 H 1.065267 0.496307 -0.134599
C17 C 0.54331(14) 0.26620(12) 0.09754(9)
H9 H 0.504708 0.278250 0.062917
C18 C 0.89089(14) 0.43389(13) -0.21950(9)
H10 H 0.882857 0.412899 -0.262509
N5 N 0.5702(2) 0.08644(14) 0.22976(11)
C19 C 0.87613(14) 0.19083(14) -0.13954(10)
H11 H 0.926266 0.230867 -0.132978
C20 C 0.66981(15) 0.31080(13) 0.16316(9)
H12 H 0.716956 0.352285 0.172290
C21 C 0.69155(17) 0.66403(13) 0.08558(10)
C22 C 0.53016(17) 0.18573(14) 0.13584(11)
H13 H 0.484259 0.143124 0.126662
O9 O 0.5201(2) 0.02707(14) 0.21039(13)
C23 C 0.58641(18) 0.17051(13) 0.18751(10)
C24 C 0.65536(17) 0.23061(15) 0.20211(10)
H14 H 0.692232 0.218151 0.237628
C25 C 0.70782(17) 0.13491(15) -0.10815(13)
H15 H 0.644762 0.136242 -0.079672
C26 C 1.00092(15) 0.22669(17) 0.01205(12)
H16 H 1.031837 0.277915 -0.010196
C27 C 0.85055(19) 0.13999(15) 0.05072(13)
H17 H 0.780755 0.133132 0.055217
C28 C 0.53766(18) 0.52267(17) 0.28834(10)
H18 H 0.475637 0.489799 0.287872
H19 H 0.520555 0.585792 0.295123
C29 C 0.89475(18) 0.12780(17) -0.19093(12)
H20 H 0.958414 0.124902 -0.218535
C30 C 0.8210(2) 0.06999(18) -0.20157(14)
H21 H 0.834279 0.028088 -0.236316
C31 C 0.5893(2) 0.4868(2) 0.34494(12)
H22 H 0.545321 0.492908 0.388688
H23 H 0.605724 0.424280 0.337781
H24 H 0.650456 0.519873 0.345002
C32 C 0.7279(2) 0.07381(18) -0.16121(16)
H25 H 0.677236 0.035204 -0.169143
C33 C 1.0579(2) 0.1605(2) 0.03947(17)
H26 H 1.127449 0.167663 0.036224
C34 C 0.9101(3) 0.07418(18) 0.07662(17)
H27 H 0.880157 0.022049 0.097993
C35 C 1.0130(3) 0.0856(2) 0.07088(18)
H28 H 1.052101 0.041340 0.088795
O10 O 0.60047(9) 0.64543(8) 0.52041(7)
O11 O 0.73866(9) 0.93815(8) 0.50617(7)
O12 O 0.37243(10) 0.90663(10) 0.54347(7)
H29 H 0.367231 0.928477 0.505162
F4 F 0.32703(11) 0.66961(11) 0.54146(9)
N6 N 0.80062(10) 0.79368(9) 0.51090(7)
O13 O 0.89194(11) 0.73411(11) 0.19290(8)
N7 N 0.75897(10) 0.70595(9) 0.50861(8)
N8 N 0.45811(10) 0.79008(10) 0.59110(7)
H30 H 0.435315 0.751853 0.623819
F5 F 0.25648(10) 0.76482(14) 0.61453(8)
O14 O 0.41356(12) 0.76523(12) 0.35959(8)
F6 F 0.24283(10) 0.78009(13) 0.50709(8)
O15 O 0.38148(14) 0.90313(12) 0.39944(8)
N9 N 0.83828(13) 0.80059(13) 0.19856(9)
C36 C 0.72510(12) 0.85788(11) 0.51136(8)
C37 C 0.65517(12) 0.71009(11) 0.51576(8)
C38 C 0.62453(12) 0.80929(10) 0.51764(8)
C39 C 0.63497(12) 0.82738(11) 0.38676(8)
C40 C 0.66097(13) 0.74222(12) 0.36069(9)
H31 H 0.633575 0.691177 0.385335
C41 C 0.60433(12) 0.80551(11) 0.64951(8)
C42 C 0.55624(12) 0.83332(11) 0.58700(8)
H32 H 0.545541 0.898737 0.587181
C43 C 0.56939(12) 0.84076(11) 0.45716(8)
H33 H 0.556652 0.905617 0.461582
C44 C 0.90123(12) 0.80926(12) 0.47377(9)
C45 C 0.81226(13) 0.62990(11) 0.53240(9)
N10 N 0.72989(16) 0.73665(16) 0.82817(10)
C46 C 0.46568(12) 0.79476(12) 0.46528(8)
H34 H 0.476155 0.729474 0.462256
C47 C 0.76334(13) 0.80949(13) 0.26253(9)
C48 C 0.72688(13) 0.73270(12) 0.29875(9)
H35 H 0.745930 0.675958 0.282144
O16 O 0.84285(19) 0.86080(14) 0.15521(10)
O17 O 0.7283(2) 0.66027(16) 0.84882(11)
C49 C 0.59466(14) 0.71867(12) 0.67840(9)
H36 H 0.558724 0.676028 0.658829
C50 C 0.40213(13) 0.81548(13) 0.53699(9)
C51 C 0.69047(14) 0.75956(14) 0.76391(9)
C52 C 0.41432(14) 0.82829(15) 0.40531(9)
C53 C 0.65891(15) 0.86818(13) 0.67850(10)
H37 H 0.666532 0.926181 0.659023
C54 C 0.63798(16) 0.69492(13) 0.73605(10)
H38 H 0.631740 0.636796 0.755402
C55 C 0.67197(17) 0.90267(13) 0.34798(10)
H39 H 0.654319 0.959722 0.364503
C56 C 0.70225(17) 0.84540(15) 0.73615(11)
H40 H 0.738746 0.887617 0.755717
C57 C 0.93473(15) 0.76709(15) 0.41225(11)
H41 H 0.893434 0.726846 0.394794
C58 C 0.96186(15) 0.86894(14) 0.50042(12)
H42 H 0.939209 0.895756 0.542588
C59 C 0.87100(18) 0.63878(15) 0.58296(12)
H43 H 0.878126 0.694583 0.601749
O18 O 0.7597(2) 0.79789(18) 0.85863(12)
C60 C 0.73525(18) 0.89414(14) 0.28458(10)
H44 H 0.758133 0.944868 0.257611
C61 C 0.30647(15) 0.75649(19) 0.55004(12)
C62 C 0.80168(18) 0.54752(14) 0.50418(14)
H45 H 0.763385 0.542037 0.469041
C63 C 1.05702(17) 0.88807(17) 0.46315(16)
H46 H 1.097900 0.929518 0.479715
C64 C 1.09132(18) 0.84666(19) 0.40236(16)
H47 H 1.155613 0.859535 0.377938
C65 C 1.03113(19) 0.78595(19) 0.37708(14)
H48 H 1.055422 0.757288 0.335955
C66 C 0.9084(2) 0.48107(17) 0.57900(17)
H49 H 0.940958 0.430795 0.594825
C67 C 0.8495(2) 0.47261(15) 0.52930(17)
H50 H 0.841047 0.416172 0.511919
C68 C 0.9195(2) 0.56313(18) 0.60549(15)
H51 H 0.960228 0.568586 0.639222
C69 C 0.3752(3) 0.7921(3) 0.29573(14)
H52 H 0.325061 0.839799 0.305145
H53 H 0.430378 0.814408 0.260901
C70 C 0.3314(6) 0.7168(4) 0.2714(3)
H54 H 0.306052 0.733367 0.229650
H55 H 0.381646 0.670013 0.261936
H56 H 0.276686 0.695318 0.306030
loop_
_geom_bond_atom_site_label_1
_geom_bond_atom_site_label_2
_geom_bond_site_symmetry_1
_geom_bond_site_symmetry_2
O1 C1 1_555 1_555
O2 H1 1_555 1_555
O3 C3 1_555 1_555
O4 C11 1_555 1_555
F1 C21 1_555 1_555
F2 C21 1_555 1_555
F3 C21 1_555 1_555
N1 N2 1_555 1_555
N2 C1 1_555 1_555
O5 C11 1_555 1_555
N3 H2 1_555 1_555
O6 N4 1_555 1_555
N4 O7 1_555 1_555
C1 C2 1_555 1_555
C2 C3 1_555 1_555
C3 N1 1_555 1_555
C4 N3 1_555 1_555
H3 C4 1_555 1_555
C5 H4 1_555 1_555
C6 C4 1_555 1_555
C7 C2 1_555 1_555
H5 C7 1_555 1_555
C8 O2 1_555 1_555
C9 C7 1_555 1_555
C10 N2 1_555 1_555
C11 C5 1_555 1_555
C12 C6 1_555 1_555
H6 C12 1_555 1_555
C13 C6 1_555 1_555
H7 C13 1_555 1_555
C14 N1 1_555 1_555
C15 N4 1_555 1_555
O8 N5 1_555 1_555
C16 C12 1_555 1_555
H8 C16 1_555 1_555
C17 C9 1_555 1_555
H9 C17 1_555 1_555
C18 C13 1_555 1_555
H10 C18 1_555 1_555
N5 O9 1_555 1_555
C19 C10 1_555 1_555
H11 C19 1_555 1_555
C20 C9 1_555 1_555
H12 C20 1_555 1_555
C21 C8 1_555 1_555
C22 C17 1_555 1_555
H13 C22 1_555 1_555
C23 N5 1_555 1_555
C24 C20 1_555 1_555
H14 C24 1_555 1_555
C25 C10 1_555 1_555
H15 C25 1_555 1_555
C26 C14 1_555 1_555
H16 C26 1_555 1_555
C27 C14 1_555 1_555
H17 C27 1_555 1_555
C28 O4 1_555 1_555
H18 C28 1_555 1_555
H19 C28 1_555 1_555
C29 C19 1_555 1_555
H20 C29 1_555 1_555
C30 C29 1_555 1_555
H21 C30 1_555 1_555
C31 C28 1_555 1_555
H22 C31 1_555 1_555
H23 C31 1_555 1_555
H24 C31 1_555 1_555
C32 C25 1_555 1_555
H25 C32 1_555 1_555
C33 C26 1_555 1_555
H26 C33 1_555 1_555
C34 C27 1_555 1_555
H27 C34 1_555 1_555
C35 C33 1_555 1_555
H28 C35 1_555 1_555
O10 C37 1_555 1_555
O11 C36 1_555 1_555
O12 H29 1_555 1_555
F4 C61 1_555 1_555
N6 N7 1_555 1_555
O13 N9 1_555 1_555
N7 C37 1_555 1_555
N8 H30 1_555 1_555
F5 C61 1_555 1_555
O14 C52 1_555 1_555
F6 C61 1_555 1_555
O15 C52 1_555 1_555
N9 C47 1_555 1_555
C36 N6 1_555 1_555
C37 C38 1_555 1_555
C38 C36 1_555 1_555
C39 C40 1_555 1_555
C40 H31 1_555 1_555
C41 C42 1_555 1_555
C42 N8 1_555 1_555
H32 C42 1_555 1_555
C43 C38 1_555 1_555
H33 C43 1_555 1_555
C44 N6 1_555 1_555
C45 N7 1_555 1_555
N10 O17 1_555 1_555
C46 C43 1_555 1_555
H34 C46 1_555 1_555
C47 C48 1_555 1_555
C48 C40 1_555 1_555
H35 C48 1_555 1_555
O16 N9 1_555 1_555
C49 C41 1_555 1_555
H36 C49 1_555 1_555
C50 O12 1_555 1_555
C51 N10 1_555 1_555
C52 C46 1_555 1_555
C53 C41 1_555 1_555
H37 C53 1_555 1_555
C54 C49 1_555 1_555
H38 C54 1_555 1_555
C55 C39 1_555 1_555
H39 C55 1_555 1_555
C56 C51 1_555 1_555
H40 C56 1_555 1_555
C57 C44 1_555 1_555
H41 C57 1_555 1_555
C58 C44 1_555 1_555
H42 C58 1_555 1_555
C59 C45 1_555 1_555
H43 C59 1_555 1_555
O18 N10 1_555 1_555
C60 C47 1_555 1_555
H44 C60 1_555 1_555
C61 C50 1_555 1_555
C62 C45 1_555 1_555
H45 C62 1_555 1_555
C63 C58 1_555 1_555
H46 C63 1_555 1_555
C64 C63 1_555 1_555
H47 C64 1_555 1_555
C65 C57 1_555 1_555
H48 C65 1_555 1_555
C66 H49 1_555 1_555
C67 C62 1_555 1_555
H50 C67 1_555 1_555
C68 C59 1_555 1_555
H51 C68 1_555 1_555
C69 O14 1_555 1_555
H52 C69 1_555 1_555
H53 C69 1_555 1_555
C70 C69 1_555 1_555
H54 C70 1_555 1_555
H55 C70 1_555 1_555
H56 C70 1_555 1_555
N3 C8 1_555 1_555
C2 C4 1_555 1_555
C5 C7 1_555 1_555
C5 C8 1_555 1_555
C15 C16 1_555 1_555
C15 C18 1_555 1_555
C22 C23 1_555 1_555
C23 C24 1_555 1_555
C30 C32 1_555 1_555
C34 C35 1_555 1_555
N8 C50 1_555 1_555
C38 C42 1_555 1_555
C39 C43 1_555 1_555
C46 C50 1_555 1_555
C51 C54 1_555 1_555
C53 C56 1_555 1_555
C55 C60 1_555 1_555
C64 C65 1_555 1_555
C66 C67 1_555 1_555
C66 C68 1_555 1_555

#END
