
#######################################################################
#
#                 Cambridge Crystallographic Data Centre
#                                CCDC 
#
#######################################################################
#
# If this CIF has been generated from an entry in the Cambridge 
# Structural Database, then it will include bibliographic, chemical, 
# crystal, experimental, refinement or atomic coordinate data resulting 
# from the CCDC's data processing and validation procedures.
#
#######################################################################

data_MICNAQ
_chemical_formula_moiety         'C35 H28 F3 N3 O4'
_chemical_name_systematic        
'ethyl 1,4-dioxo-2,3,6,10-tetraphenyl-8-(trifluoromethyl)-2,3,7-triazaspiro[4.5]dec-7-ene-9-carboxylate'
_symmetry_cell_setting           monoclinic
_symmetry_space_group_name_H-M   'P 21/n'
_symmetry_Int_Tables_number      14
_space_group_name_Hall           '-P 2yn'
loop_
_symmetry_equiv_pos_site_id
_symmetry_equiv_pos_as_xyz
1 x,y,z
2 1/2-x,1/2+y,1/2-z
3 -x,-y,-z
4 1/2+x,1/2-y,1/2+z
_cell_length_a                   13.1221(4)
_cell_length_b                   13.0906(3)
_cell_length_c                   18.6471(5)
_cell_angle_alpha                90
_cell_angle_beta                 92.023(2)
_cell_angle_gamma                90
_cell_volume                     3201.13
_exptl_crystal_colour            colorless
_exptl_crystal_description       block
_cell_formula_units_Z            4
loop_
_atom_site_label
_atom_site_type_symbol
_atom_site_fract_x
_atom_site_fract_y
_atom_site_fract_z
F1 F 0.57585(11) 0.37940(17) 0.81159(8)
F2 F 0.58040(15) 0.45162(15) 0.70905(12)
F3 F 0.66555(9) 0.31805(16) 0.73049(8)
O1 O 0.29104(9) 0.41415(8) 0.65929(7)
O2 O 0.22161(9) 0.06206(8) 0.63532(7)
O3 O 0.63122(10) 0.31500(11) 0.57469(7)
O4 O 0.60502(12) 0.15533(13) 0.61066(12)
N1 N 0.12767(10) 0.20985(9) 0.62828(7)
N2 N 0.15125(10) 0.31673(9) 0.62804(7)
N3 N 0.42736(11) 0.26800(12) 0.76092(8)
C1 C 0.25136(13) 0.23050(12) 0.79147(8)
C2 C 0.23659(14) 0.32628(13) 0.82054(9)
H1 H 0.280564 0.379437 0.809862
C3 C 0.15687(15) 0.34335(16) 0.86533(10)
H2 H 0.147619 0.407952 0.884793
C4 C 0.09103(16) 0.26570(17) 0.88142(11)
H3 H 0.037375 0.277600 0.911603
C5 C 0.10505(18) 0.17025(17) 0.85257(12)
H4 H 0.060536 0.117509 0.863158
C6 C 0.18497(16) 0.15234(14) 0.80791(10)
H5 H 0.194223 0.087504 0.788812
C7 C 0.07242(12) 0.38674(12) 0.64606(9)
C8 C 0.00442(18) 0.36360(19) 0.69739(12)
H6 H 0.005988 0.299967 0.719581
C9 C -0.0668(2) 0.4358(3) 0.71600(17)
H7 H -0.113409 0.420209 0.750783
C10 C -0.0698(2) 0.5294(2) 0.68432(18)
H8 H -0.117731 0.577504 0.697559
C11 C -0.0030(2) 0.55154(18) 0.63380(19)
H9 H -0.004520 0.615660 0.612320
C12 C 0.06874(17) 0.47973(15) 0.61305(14)
H10 H 0.113599 0.495086 0.577075
C13 C 0.04581(12) 0.17475(12) 0.58100(9)
C14 C -0.02090(14) 0.10441(15) 0.60701(11)
H11 H -0.015391 0.083403 0.654630
C15 C -0.09654(16) 0.06511(17) 0.56137(15)
H12 H -0.141404 0.016443 0.578266
C16 C -0.10590(17) 0.09692(17) 0.49217(14)
H13 H -0.157486 0.070580 0.462094
C17 C -0.03935(18) 0.16789(18) 0.46650(12)
H14 H -0.046267 0.189727 0.419121
C18 C 0.03820(15) 0.20724(15) 0.51087(10)
H15 H 0.084079 0.254600 0.493542
C19 C 0.34359(17) 0.3051(2) 0.49749(11)
H16 H 0.348273 0.366411 0.522546
C20 C 0.3156(2) 0.3054(3) 0.42486(14)
H17 H 0.300588 0.366652 0.401546
C21 C 0.3103(2) 0.2148(4) 0.38769(15)
H18 H 0.292519 0.215110 0.338958
C22 C 0.3306(3) 0.1255(3) 0.42133(16)
H19 H 0.325876 0.064572 0.395809
C23 C 0.35815(19) 0.1241(2) 0.49327(12)
H20 H 0.372725 0.062108 0.515682
C24 C 0.36456(13) 0.21374(17) 0.53280(10)
C25 C 0.33585(12) 0.20999(12) 0.73987(8)
H21 H 0.353464 0.137495 0.744576
C26 C 0.30061(11) 0.22760(11) 0.66024(8)
C27 C 0.39281(12) 0.20957(13) 0.61230(9)
H22 H 0.417868 0.140384 0.622523
C28 C 0.47914(12) 0.28340(13) 0.63374(9)
H23 H 0.464817 0.349790 0.611287
C29 C 0.48763(13) 0.29787(14) 0.71442(10)
C30 C 0.57924(14) 0.24206(15) 0.60530(10)
C31 C 0.73273(17) 0.2873(2) 0.55156(15)
H24 H 0.772617 0.258530 0.591409
H25 H 0.727526 0.236782 0.513586
C32 C 0.7816(2) 0.3793(3) 0.5257(2)
H26 H 0.742173 0.406644 0.485837
H27 H 0.848909 0.362973 0.510700
H28 H 0.785999 0.429019 0.563549
C33 C 0.21501(11) 0.15394(11) 0.64045(8)
C34 C 0.25157(12) 0.33121(11) 0.64967(8)
C35 C 0.57717(16) 0.3637(2) 0.74249(13)
loop_
_geom_bond_atom_site_label_1
_geom_bond_atom_site_label_2
_geom_bond_site_symmetry_1
_geom_bond_site_symmetry_2
F1 C35 1_555 1_555
F2 C35 1_555 1_555
F3 C35 1_555 1_555
O1 C34 1_555 1_555
O2 C33 1_555 1_555
O3 C30 1_555 1_555
O4 C30 1_555 1_555
N1 N2 1_555 1_555
N2 C7 1_555 1_555
N3 C25 1_555 1_555
C1 C2 1_555 1_555
C2 H1 1_555 1_555
C3 C2 1_555 1_555
H2 C3 1_555 1_555
C4 C3 1_555 1_555
H3 C4 1_555 1_555
C5 C4 1_555 1_555
H4 C5 1_555 1_555
C6 C1 1_555 1_555
H5 C6 1_555 1_555
C7 C8 1_555 1_555
C8 H6 1_555 1_555
C9 C8 1_555 1_555
H7 C9 1_555 1_555
C10 C9 1_555 1_555
H8 C10 1_555 1_555
C11 C10 1_555 1_555
H9 C11 1_555 1_555
C12 C7 1_555 1_555
H10 C12 1_555 1_555
C13 N1 1_555 1_555
C14 C13 1_555 1_555
H11 C14 1_555 1_555
C15 C14 1_555 1_555
H12 C15 1_555 1_555
C16 C15 1_555 1_555
H13 C16 1_555 1_555
C17 C16 1_555 1_555
H14 C17 1_555 1_555
C18 C13 1_555 1_555
H15 C18 1_555 1_555
C19 H16 1_555 1_555
C20 C19 1_555 1_555
H17 C20 1_555 1_555
C21 C20 1_555 1_555
H18 C21 1_555 1_555
C22 C21 1_555 1_555
H19 C22 1_555 1_555
C23 C22 1_555 1_555
H20 C23 1_555 1_555
C24 C19 1_555 1_555
C25 C1 1_555 1_555
H21 C25 1_555 1_555
C26 C25 1_555 1_555
C27 C24 1_555 1_555
H22 C27 1_555 1_555
C28 C27 1_555 1_555
H23 C28 1_555 1_555
C29 N3 1_555 1_555
C30 C28 1_555 1_555
C31 O3 1_555 1_555
H24 C31 1_555 1_555
H25 C31 1_555 1_555
C32 C31 1_555 1_555
H26 C32 1_555 1_555
H27 C32 1_555 1_555
H28 C32 1_555 1_555
C33 N1 1_555 1_555
C34 N2 1_555 1_555
C35 C29 1_555 1_555
C5 C6 1_555 1_555
C11 C12 1_555 1_555
C17 C18 1_555 1_555
C23 C24 1_555 1_555
C26 C27 1_555 1_555
C26 C33 1_555 1_555
C26 C34 1_555 1_555
C28 C29 1_555 1_555

#END
