
#######################################################################
#
#                 Cambridge Crystallographic Data Centre
#                                CCDC 
#
#######################################################################
#
# If this CIF has been generated from an entry in the Cambridge 
# Structural Database, then it will include bibliographic, chemical, 
# crystal, experimental, refinement or atomic coordinate data resulting 
# from the CCDC's data processing and validation procedures.
#
#######################################################################

data_MICXAY
_chemical_formula_moiety         'C32 H24 N2 O10'
_chemical_name_systematic        
(2S,3S)-2-(4-nitrophenylcarbonyloxymethyl)-2-((2S,3S)-2-(4-nitrophenylcarbonyloxymethyl)-3-phenyloxiran-2-yl)-3-phenyloxirane
_symmetry_cell_setting           orthorhombic
_symmetry_space_group_name_H-M   'P 21 21 21'
_symmetry_Int_Tables_number      19
_space_group_name_Hall           'P 2ac 2ab'
loop_
_symmetry_equiv_pos_site_id
_symmetry_equiv_pos_as_xyz
1 x,y,z
2 1/2-x,-y,1/2+z
3 -x,1/2+y,1/2-z
4 1/2+x,1/2-y,-z
_cell_length_a                   10.5922(2)
_cell_length_b                   11.9304(2)
_cell_length_c                   21.6245(4)
_cell_angle_alpha                90
_cell_angle_beta                 90
_cell_angle_gamma                90
_cell_volume                     2732.67
_exptl_crystal_colour            colorless
_exptl_crystal_description       plate
_chemical_melting_point          '460 K'
_cell_formula_units_Z            4
_exptl_crystal_recrystallization_method acetonitrile
loop_
_atom_site_label
_atom_site_type_symbol
_atom_site_fract_x
_atom_site_fract_y
_atom_site_fract_z
O1 O 0.26587(12) 0.51756(10) 0.08471(6)
O2 O -0.03853(12) 0.49423(10) 0.17338(5)
O3 O -0.08379(11) 0.35019(10) 0.07475(6)
O4 O -0.05939(13) 0.21761(12) 0.14808(7)
O5 O 0.23812(12) 0.39424(9) 0.20118(5)
O6 O 0.35759(13) 0.41403(11) 0.28620(6)
O7 O -0.71435(13) 0.23076(15) 0.05699(7)
O8 O -0.66442(15) 0.05584(14) 0.06444(7)
O9 O 0.32459(18) -0.17026(13) 0.19922(9)
O10 O 0.41117(16) -0.16542(12) 0.28934(7)
N1 N -0.63868(15) 0.15581(15) 0.06590(7)
N2 N 0.35877(16) -0.12038(13) 0.24590(8)
C1 C -0.06872(16) 0.56960(14) 0.12316(7)
H1 H -0.1405 0.5451 0.0963
C2 C 0.04362(16) 0.49706(14) 0.12075(7)
C3 C 0.17631(16) 0.53989(13) 0.13369(7)
C4 C 0.23444(17) 0.63255(14) 0.09816(8)
H2 H 0.3016 0.6741 0.1212
C5 C 0.04376(16) 0.38902(14) 0.08366(8)
H3 H 0.0841 0.4021 0.0430
H4 H 0.0932 0.3312 0.1058
C6 C 0.22817(17) 0.51453(14) 0.19690(8)
H5 H 0.3121 0.5497 0.2022
H6 H 0.1709 0.5437 0.2293
C7 C -0.06537(15) 0.69162(14) 0.13712(7)
C8 C -0.12438(16) 0.76537(15) 0.09660(8)
H7 H -0.1691 0.7370 0.0619
C9 C -0.11846(18) 0.87974(16) 0.10653(9)
H8 H -0.1584 0.9297 0.0785
C10 C -0.05431(18) 0.92142(16) 0.15741(9)
H9 H -0.0480 1.0000 0.1636
C11 C 0.00034(17) 0.84856(16) 0.19891(9)
H10 H 0.0419 0.8772 0.2345
C12 C -0.00479(16) 0.73392(15) 0.18919(8)
H11 H 0.0330 0.6842 0.2181
C13 C 0.17195(16) 0.69951(14) 0.04881(7)
C14 C 0.10563(18) 0.65100(15) 0.00021(8)
H12 H 0.1013 0.5717 -0.0031
C15 C 0.04579(19) 0.71719(17) -0.04345(8)
H13 H -0.0001 0.6834 -0.0763
C16 C 0.0530(2) 0.83287(17) -0.03913(9)
H14 H 0.0109 0.8786 -0.0686
C17 C 0.12135(19) 0.88167(16) 0.00806(8)
H15 H 0.1276 0.9610 0.0106
C18 C 0.18077(17) 0.81532(14) 0.05172(8)
H16 H 0.2280 0.8494 0.0840
C19 C -0.26044(17) 0.24095(14) 0.09989(7)
C20 C -0.33825(18) 0.31547(14) 0.06858(8)
H17 H -0.3050 0.3843 0.0536
C21 C -0.46387(18) 0.28979(16) 0.05908(8)
H18 H -0.5191 0.3414 0.0394
C22 C -0.50680(17) 0.18656(15) 0.07910(8)
C23 C -0.43243(18) 0.11102(15) 0.11033(8)
H19 H -0.4653 0.0409 0.1236
C24 C -0.30800(17) 0.14032(14) 0.12191(8)
H20 H -0.2552 0.0913 0.1450
C25 C -0.12451(17) 0.26664(14) 0.11144(8)
C26 C 0.31146(16) 0.22991(14) 0.24891(7)
C27 C 0.24465(17) 0.16595(14) 0.20658(8)
H21 H 0.1887 0.2013 0.1783
C28 C 0.25943(18) 0.05026(15) 0.20541(8)
H22 H 0.2159 0.0057 0.1759
C29 C 0.33896(17) 0.00183(14) 0.24825(8)
C30 C 0.40239(18) 0.06302(15) 0.29253(8)
H23 H 0.4543 0.0270 0.3224
C31 C 0.38843(18) 0.17806(15) 0.29234(8)
H24 H 0.4318 0.2221 0.3221
C32 C 0.30556(16) 0.35508(14) 0.24906(8)
loop_
_geom_bond_atom_site_label_1
_geom_bond_atom_site_label_2
_geom_bond_site_symmetry_1
_geom_bond_site_symmetry_2
O1 C3 1_555 1_555
O2 C1 1_555 1_555
O3 C5 1_555 1_555
O4 C25 1_555 1_555
O5 C6 1_555 1_555
O6 C32 1_555 1_555
O7 N1 1_555 1_555
O8 N1 1_555 1_555
O9 N2 1_555 1_555
O10 N2 1_555 1_555
N1 C22 1_555 1_555
N2 C29 1_555 1_555
C1 H1 1_555 1_555
C2 O2 1_555 1_555
C3 C2 1_555 1_555
C4 O1 1_555 1_555
H2 C4 1_555 1_555
C5 C2 1_555 1_555
H3 C5 1_555 1_555
H4 C5 1_555 1_555
C6 C3 1_555 1_555
H5 C6 1_555 1_555
H6 C6 1_555 1_555
C7 C1 1_555 1_555
C8 C7 1_555 1_555
H7 C8 1_555 1_555
C9 C8 1_555 1_555
H8 C9 1_555 1_555
C10 C9 1_555 1_555
H9 C10 1_555 1_555
C11 C10 1_555 1_555
H10 C11 1_555 1_555
C12 C7 1_555 1_555
H11 C12 1_555 1_555
C13 C4 1_555 1_555
C14 C13 1_555 1_555
H12 C14 1_555 1_555
C15 C14 1_555 1_555
H13 C15 1_555 1_555
C16 C15 1_555 1_555
H14 C16 1_555 1_555
C17 C16 1_555 1_555
H15 C17 1_555 1_555
C18 C13 1_555 1_555
H16 C18 1_555 1_555
C19 C20 1_555 1_555
C20 H17 1_555 1_555
C21 C20 1_555 1_555
H18 C21 1_555 1_555
C22 C21 1_555 1_555
C23 C22 1_555 1_555
H19 C23 1_555 1_555
C24 C19 1_555 1_555
H20 C24 1_555 1_555
C25 O3 1_555 1_555
C26 C27 1_555 1_555
C27 H21 1_555 1_555
C28 C27 1_555 1_555
H22 C28 1_555 1_555
C29 C28 1_555 1_555
C30 C29 1_555 1_555
H23 C30 1_555 1_555
C31 C26 1_555 1_555
H24 C31 1_555 1_555
C32 O5 1_555 1_555
C1 C2 1_555 1_555
C3 C4 1_555 1_555
C11 C12 1_555 1_555
C17 C18 1_555 1_555
C19 C25 1_555 1_555
C23 C24 1_555 1_555
C26 C32 1_555 1_555
C30 C31 1_555 1_555

#END
