
#######################################################################
#
#                 Cambridge Crystallographic Data Centre
#                                CCDC 
#
#######################################################################
#
# If this CIF has been generated from an entry in the Cambridge 
# Structural Database, then it will include bibliographic, chemical, 
# crystal, experimental, refinement or atomic coordinate data resulting 
# from the CCDC's data processing and validation procedures.
#
#######################################################################

data_MIDDEL
_chemical_formula_moiety         'C16 H10,C12 F4 N4'
_chemical_name_systematic        
"2,2'-(2,3,5,6-tetrafluorocyclohexa-2,5-diene-1,4-diylidene)dipropanedinitrile pyrene"
_symmetry_cell_setting           monoclinic
_symmetry_space_group_name_H-M   'P 21/n'
_symmetry_Int_Tables_number      14
_space_group_name_Hall           '-P 2yn'
loop_
_symmetry_equiv_pos_site_id
_symmetry_equiv_pos_as_xyz
1 x,y,z
2 1/2-x,1/2+y,1/2-z
3 -x,-y,-z
4 1/2+x,1/2-y,1/2+z
_cell_length_a                   6.5612(15)
_cell_length_b                   18.654(4)
_cell_length_c                   8.5145(19)
_cell_angle_alpha                90
_cell_angle_beta                 99.983(3)
_cell_angle_gamma                90
_cell_volume                     1026.33
_exptl_crystal_colour            black
_exptl_crystal_description       prism
_cell_formula_units_Z            2
loop_
_atom_site_label
_atom_site_type_symbol
_atom_site_fract_x
_atom_site_fract_y
_atom_site_fract_z
F1 F 0.42124(12) 0.50127(4) 0.17537(8)
N1 N 0.47075(19) 0.24144(6) 0.45859(15)
C1 C 0.4338(2) 0.36167(7) 0.16279(16)
C2 C 0.46097(19) 0.36772(7) 0.33355(15)
F2 F 0.45817(12) 0.62433(4) 0.33030(9)
N2 N 0.41648(18) 0.35046(6) 0.02839(14)
C3 C 0.4695(2) 0.29871(7) 0.41023(16)
C4 C 0.47958(18) 0.43199(7) 0.41493(15)
C5 C 0.4617(2) 0.50054(6) 0.33479(15)
C6 C 0.48062(19) 0.56352(7) 0.41375(15)
F1B F 0.57876(12) 0.49873(4) 0.82463(8)
N1B N 0.52925(19) 0.75856(6) 0.54141(15)
C1B C 0.5662(2) 0.63833(7) 0.83721(16)
C2B C 0.53903(19) 0.63228(7) 0.66645(15)
F2B F 0.54183(12) 0.37567(4) 0.66970(9)
N2B N 0.58352(18) 0.64954(6) 0.97161(14)
C3B C 0.5305(2) 0.70129(7) 0.58977(16)
C4B C 0.52042(18) 0.56801(7) 0.58507(15)
C5B C 0.5383(2) 0.49946(6) 0.66521(15)
C6B C 0.51938(19) 0.43648(7) 0.58625(15)
C7 C 0.9360(2) 0.58941(7) 0.26949(16)
H1 H 0.9179 0.6301 0.2054
C8 C 0.9173(2) 0.52377(8) 0.20066(15)
H2 H 0.8849 0.5203 0.0902
C9 C 0.98322(19) 0.59743(7) 0.43927(16)
C10 C 1.00897(19) 0.53455(7) 0.53665(15)
C11 C 1.05366(19) 0.54086(7) 0.70538(15)
C12 C 1.0689(2) 0.60950(7) 0.77415(17)
H3 H 1.0962 0.6143 0.8845
C13 C 1.0437(2) 0.67021(7) 0.67869(18)
H4 H 1.0550 0.7153 0.7260
C14 C 1.00191(19) 0.66470(7) 0.51369(18)
H5 H 0.9861 0.7061 0.4519
C7B C 1.0640(2) 0.41059(7) 0.73051(16)
H1B H 1.0821 0.3699 0.7946
C8B C 1.0827(2) 0.47623(8) 0.79934(15)
H2B H 1.1151 0.4797 0.9098
C9B C 1.01678(19) 0.40257(7) 0.56073(16)
C10B C 0.99103(19) 0.46545(7) 0.46335(15)
C11B C 0.94634(19) 0.45914(7) 0.29462(15)
C12B C 0.9311(2) 0.39050(7) 0.22585(17)
H3B H 0.9038 0.3857 0.1155
C13B C 0.9563(2) 0.32979(7) 0.32131(18)
H4B H 0.9450 0.2847 0.2740
C14B C 0.99809(19) 0.33530(7) 0.48631(18)
H5B H 1.0139 0.2939 0.5481
loop_
_geom_bond_atom_site_label_1
_geom_bond_atom_site_label_2
_geom_bond_site_symmetry_1
_geom_bond_site_symmetry_2
F1 C5 1_555 1_555
N1 C3 1_555 1_555
C1 C2 1_555 1_555
C2 C3 1_555 1_555
F2 C6 1_555 1_555
N2 C1 1_555 1_555
C4 C2 1_555 1_555
C5 C4 1_555 1_555
C6 C5 1_555 1_555
C7 H1 1_555 1_555
C8 C7 1_555 1_555
H2 C8 1_555 1_555
C9 C7 1_555 1_555
C10 C9 1_555 1_555
C11 C10 1_555 1_555
C12 C11 1_555 1_555
H3 C12 1_555 1_555
C13 C12 1_555 1_555
H4 C13 1_555 1_555
C14 C9 1_555 1_555
H5 C14 1_555 1_555
F1B C5B 1_555 1_555
N1B C3B 1_555 1_555
C1B C2B 1_555 1_555
C2B C3B 1_555 1_555
F2B C6B 1_555 1_555
N2B C1B 1_555 1_555
C4B C6 1_555 1_555
C5B C4B 1_555 1_555
C6B C4 1_555 1_555
C7B H1B 1_555 1_555
C8B C11 1_555 1_555
H2B C8B 1_555 1_555
C9B C7B 1_555 1_555
C10B C10 1_555 1_555
C11B C8 1_555 1_555
C12B C11B 1_555 1_555
H3B C12B 1_555 1_555
C13B C12B 1_555 1_555
H4B C13B 1_555 1_555
C14B C9B 1_555 1_555
H5B C14B 1_555 1_555
C13 C14 1_555 1_555
C2B C4B 1_555 1_555
C5B C6B 1_555 1_555
C7B C8B 1_555 1_555
C9B C10B 1_555 1_555
C10B C11B 1_555 1_555
C13B C14B 1_555 1_555

#END
