
#######################################################################
#
#                 Cambridge Crystallographic Data Centre
#                                CCDC 
#
#######################################################################
#
# If this CIF has been generated from an entry in the Cambridge 
# Structural Database, then it will include bibliographic, chemical, 
# crystal, experimental, refinement or atomic coordinate data resulting 
# from the CCDC's data processing and validation procedures.
#
#######################################################################

data_MIDDAG
_chemical_formula_moiety         'C51 H51 B1 O6,2(C7 H8)'
_chemical_name_systematic        
"4',4'',4'''-Boranetriyltris(2',3',5',6'-tetramethylbiphenyl-4-carboxylic acid) toluene solvate"
_symmetry_cell_setting           monoclinic
_symmetry_space_group_name_H-M   'P 21/c'
_symmetry_Int_Tables_number      14
_space_group_name_Hall           '-P 2ybc'
loop_
_symmetry_equiv_pos_site_id
_symmetry_equiv_pos_as_xyz
1 x,y,z
2 -x,1/2+y,1/2-z
3 -x,-y,-z
4 x,1/2-y,1/2+z
_cell_length_a                   19.2797(12)
_cell_length_b                   14.2385(8)
_cell_length_c                   43.804(2)
_cell_angle_alpha                90
_cell_angle_beta                 113.085(5)
_cell_angle_gamma                90
_cell_volume                     11061.9
_cell_formula_units_Z            8
loop_
_atom_site_label
_atom_site_type_symbol
_atom_site_fract_x
_atom_site_fract_y
_atom_site_fract_z
O1 O 1.0423(5) 0.1233(6) -0.08336(19)
H1 H 1.0593 0.1245 -0.0978
O2 O 0.9310(5) 0.1172(6) -0.1272(2)
O3 O 0.9912(3) 0.1289(5) 0.31659(15)
O4 O 1.0611(4) 0.0497(5) 0.29532(14)
H2 H 1.0953 0.0626 0.3131
O5 O 0.1109(4) 0.3687(5) -0.12548(14)
H3 H 0.0778 0.3713 -0.1442
O6 O 0.1806(4) 0.4267(5) -0.15112(16)
C1 C 0.7360(5) 0.2187(6) 0.03181(19)
C2 C 0.7814(5) 0.1376(6) 0.0359(2)
C3 C 0.8230(5) 0.1243(7) 0.0160(2)
C4 C 0.8208(5) 0.1929(7) -0.0066(2)
C5 C 0.7811(5) 0.2745(7) -0.0101(2)
C6 C 0.7369(5) 0.2875(6) 0.0089(2)
C7 C 0.6964(5) 0.3790(6) 0.00507(19)
H4 H 0.6647 0.3887 -0.0179
H5 H 0.7325 0.4290 0.0127
H6 H 0.6660 0.3779 0.0180
C8 C 0.7855(6) 0.3529(7) -0.0325(2)
H7 H 0.8248 0.3396 -0.0402
H8 H 0.7963 0.4111 -0.0205
H9 H 0.7382 0.3580 -0.0512
C9 C 0.8677(5) 0.0344(6) 0.0197(2)
H10 H 0.8771 0.0240 0.0000
H11 H 0.8394 -0.0175 0.0230
H12 H 0.9148 0.0396 0.0385
C10 C 0.7828(5) 0.0607(6) 0.0607(2)
H13 H 0.7489 0.0771 0.0710
H14 H 0.8330 0.0548 0.0773
H15 H 0.7676 0.0021 0.0492
C11 C 0.8614(6) 0.1751(7) -0.0300(3)
C12 C 0.9390(7) 0.1755(7) -0.0185(3)
H16 H 0.9675 0.1876 0.0038
C13 C 0.9754(7) 0.1582(7) -0.0399(3)
H17 H 1.0278 0.1593 -0.0318
C14 C 0.9333(7) 0.1391(7) -0.0734(3)
C15 C 0.8572(7) 0.1433(7) -0.0846(3)
H18 H 0.8289 0.1354 -0.1072
C16 C 0.8193(6) 0.1589(7) -0.0638(3)
H19 H 0.7669 0.1586 -0.0722
C17 C 0.9728(8) 0.1268(8) -0.0963(3)
C18 C 0.7173(5) 0.2231(6) 0.09070(19)
C19 C 0.7826(5) 0.2753(6) 0.1100(2)
C20 C 0.8241(4) 0.2541(7) 0.1434(2)
C21 C 0.7990(5) 0.1840(7) 0.1584(2)
C22 C 0.7320(5) 0.1375(6) 0.1413(2)
C23 C 0.6912(5) 0.1560(6) 0.1076(2)
C24 C 0.8478(5) 0.1578(6) 0.1937(2)
C25 C 0.9079(5) 0.0968(7) 0.1992(2)
H20 H 0.9146 0.0701 0.1812
C26 C 0.9572(5) 0.0753(7) 0.2307(2)
H21 H 0.9970 0.0343 0.2340
C27 C 0.9475(5) 0.1153(7) 0.2577(2)
C28 C 0.8863(5) 0.1717(7) 0.2525(2)
H22 H 0.8784 0.1959 0.2706
C29 C 0.8364(5) 0.1933(7) 0.2210(2)
H23 H 0.7950 0.2316 0.2179
C30 C 0.8953(5) 0.3112(6) 0.16227(19)
H24 H 0.9152 0.2935 0.1853
H25 H 0.8831 0.3769 0.1603
H26 H 0.9322 0.2989 0.1531
C31 C 0.8070(5) 0.3563(6) 0.0941(2)
H27 H 0.7670 0.3720 0.0734
H28 H 0.8510 0.3385 0.0903
H29 H 0.8185 0.4097 0.1086
C32 C 0.7012(5) 0.0656(6) 0.15850(19)
H30 H 0.7374 0.0553 0.1807
H31 H 0.6917 0.0075 0.1464
H32 H 0.6551 0.0886 0.1592
C33 C 0.6217(4) 0.0962(6) 0.08916(18)
H33 H 0.5869 0.1016 0.0998
H34 H 0.6365 0.0318 0.0894
H35 H 0.5981 0.1176 0.0666
C34 C 1.0026(5) 0.0966(7) 0.2922(3)
C35 C 0.5947(4) 0.2486(6) 0.02983(18)
C36 C 0.5558(5) 0.1866(6) 0.00313(19)
C37 C 0.4825(5) 0.2106(6) -0.01933(19)
C38 C 0.4477(4) 0.2946(6) -0.01590(19)
C39 C 0.4829(5) 0.3494(6) 0.0120(2)
C40 C 0.5564(5) 0.3260(7) 0.03505(19)
C41 C 0.5899(5) 0.0962(6) -0.0014(2)
H36 H 0.6364 0.0857 0.0174
H37 H 0.5996 0.0992 -0.0212
H38 H 0.5557 0.0455 -0.0031
C42 C 0.4401(5) 0.1432(6) -0.04773(19)
H39 H 0.3878 0.1603 -0.0574
H40 H 0.4449 0.0802 -0.0393
H41 H 0.4610 0.1467 -0.0643
C43 C 0.4436(5) 0.4361(6) 0.0178(2)
H42 H 0.4012 0.4514 -0.0022
H43 H 0.4782 0.4878 0.0241
H44 H 0.4265 0.4236 0.0353
C44 C 0.5943(4) 0.3915(6) 0.06470(19)
H45 H 0.6381 0.3613 0.0806
H46 H 0.5595 0.4057 0.0748
H47 H 0.6090 0.4486 0.0572
C45 C 0.3741(5) 0.3204(6) -0.0431(2)
C46 C 0.3777(5) 0.3522(6) -0.0725(2)
H48 H 0.4239 0.3575 -0.0744
C47 C 0.3105(5) 0.3760(6) -0.0993(2)
H49 H 0.3123 0.3994 -0.1188
C48 C 0.2424(5) 0.3649(6) -0.0967(2)
C49 C 0.2399(6) 0.3337(7) -0.0674(2)
H50 H 0.1938 0.3275 -0.0655
C50 C 0.3065(6) 0.3113(8) -0.0406(2)
H51 H 0.3045 0.2900 -0.0209
C51 C 0.1724(6) 0.3887(7) -0.1266(3)
B1 B 0.6810(6) 0.2313(7) 0.0516(2)
O7 O 0.8877(4) 0.0847(5) 0.40729(16)
H52 H 0.9279 0.0817 0.4234
O8 O 0.9589(4) 0.1542(5) 0.38490(14)
O9 O 0.0744(3) 0.3431(5) -0.05762(15)
H53 H 0.0366 0.3464 -0.0749
O10 O 0.0062(4) 0.4333(5) -0.03910(15)
O11 O 0.0057(5) 0.3616(5) 0.3341(2)
H54 H -0.0103 0.3684 0.3487
O12 O 0.1140(5) 0.3742(5) 0.3778(2)
C52 C 0.4744(5) 0.2690(6) 0.2284(2)
C53 C 0.5190(5) 0.1995(6) 0.2220(2)
C54 C 0.5936(5) 0.1822(6) 0.2451(2)
C55 C 0.6210(5) 0.2319(7) 0.2753(2)
C56 C 0.5809(5) 0.3090(6) 0.28027(19)
C57 C 0.5070(5) 0.3245(6) 0.2566(2)
C58 C 0.4682(5) 0.4122(6) 0.2614(2)
H55 H 0.4206 0.4193 0.2430
H56 H 0.4993 0.4659 0.2627
H57 H 0.4600 0.4070 0.2816
C59 C 0.4897(5) 0.1451(6) 0.19018(19)
H58 H 0.5258 0.1473 0.1801
H59 H 0.4430 0.1722 0.1754
H60 H 0.4814 0.0810 0.1946
C60 C 0.6409(5) 0.1093(6) 0.2377(2)
H61 H 0.6793 0.0878 0.2581
H62 H 0.6641 0.1361 0.2239
H63 H 0.6097 0.0574 0.2264
C61 C 0.6163(5) 0.3700(6) 0.3112(2)
H64 H 0.6690 0.3557 0.3220
H65 H 0.5920 0.3577 0.3262
H66 H 0.6102 0.4351 0.3049
C62 C 0.6933(5) 0.2035(6) 0.3021(2)
C63 C 0.7642(5) 0.2181(7) 0.3017(2)
H67 H 0.7674 0.2460 0.2831
C64 C 0.8303(5) 0.1926(7) 0.3278(2)
H68 H 0.8767 0.2026 0.3265
C65 C 0.8267(5) 0.1523(6) 0.3559(2)
C66 C 0.7579(6) 0.1374(6) 0.3567(2)
H69 H 0.7557 0.1096 0.3755
C67 C 0.6898(5) 0.1617(6) 0.3306(2)
H70 H 0.6438 0.1504 0.3321
C68 C 0.8974(6) 0.1285(7) 0.3837(2)
C69 C 0.3329(5) 0.2799(6) 0.2266(2)
C70 C 0.3385(5) 0.2142(6) 0.2519(2)
C71 C 0.2935(6) 0.2218(7) 0.2703(2)
C72 C 0.2434(6) 0.2963(7) 0.2644(2)
C73 C 0.2344(5) 0.3629(7) 0.2391(2)
C74 C 0.2781(5) 0.3529(6) 0.2205(2)
C75 C 0.2681(5) 0.4245(6) 0.1934(2)
H71 H 0.2378 0.4757 0.1953
H72 H 0.2437 0.3952 0.1720
H73 H 0.3166 0.4477 0.1955
C76 C 0.3918(5) 0.1320(6) 0.2586(2)
H74 H 0.4241 0.1306 0.2818
H75 H 0.4219 0.1385 0.2457
H76 H 0.3634 0.0747 0.2527
C77 C 0.2999(6) 0.1470(6) 0.2968(2)
H77 H 0.2516 0.1386 0.2980
H78 H 0.3359 0.1672 0.3180
H79 H 0.3161 0.0885 0.2908
C78 C 0.1813(5) 0.4438(7) 0.2345(2)
H80 H 0.1630 0.4434 0.2520
H81 H 0.1396 0.4382 0.2135
H82 H 0.2074 0.5017 0.2352
C79 C 0.1981(7) 0.3058(7) 0.2858(3)
C80 C 0.2346(6) 0.3291(7) 0.3187(3)
H83 H 0.2868 0.3346 0.3275
C81 C 0.1957(7) 0.3446(7) 0.3391(3)
H84 H 0.2214 0.3588 0.3614
C82 C 0.1182(8) 0.3385(7) 0.3254(3)
C83 C 0.0813(6) 0.3157(7) 0.2929(3)
H85 H 0.0290 0.3109 0.2840
C84 C 0.1206(7) 0.2995(7) 0.2727(3)
H86 H 0.0946 0.2845 0.2505
C85 C 0.0769(9) 0.3590(9) 0.3469(4)
C86 C 0.3489(4) 0.2790(7) 0.16848(19)
C87 C 0.3679(5) 0.3509(7) 0.1505(2)
C88 C 0.3243(5) 0.3654(7) 0.1167(2)
C89 C 0.2617(5) 0.3057(7) 0.1005(2)
C90 C 0.2454(5) 0.2307(6) 0.1171(2)
C91 C 0.2900(5) 0.2173(7) 0.1511(2)
C92 C 0.2740(5) 0.1334(6) 0.1682(2)
H87 H 0.2774 0.0771 0.1568
H88 H 0.2241 0.1386 0.1680
H89 H 0.3101 0.1309 0.1907
C93 C 0.1801(5) 0.1671(7) 0.0982(2)
H90 H 0.1531 0.1923 0.0764
H91 H 0.1469 0.1629 0.1097
H92 H 0.1987 0.1057 0.0964
C94 C 0.3425(5) 0.4452(7) 0.0981(2)
H93 H 0.3958 0.4466 0.1035
H94 H 0.3270 0.5037 0.1043
H95 H 0.3162 0.4357 0.0747
C95 C 0.4316(5) 0.4185(6) 0.1680(2)
H96 H 0.4678 0.4158 0.1580
H97 H 0.4555 0.4015 0.1910
H98 H 0.4119 0.4811 0.1662
C96 C 0.2128(5) 0.3291(7) 0.0649(2)
C97 C 0.1546(5) 0.3915(7) 0.0578(2)
H99 H 0.1471 0.4209 0.0752
C98 C 0.1068(6) 0.4119(7) 0.0258(2)
H100 H 0.0687 0.4562 0.0217
C99 C 0.1155(5) 0.3664(7) -0.0006(2)
C100 C 0.1726(5) 0.3010(8) 0.0061(2)
H101 H 0.1785 0.2695 -0.0114
C101 C 0.2218(5) 0.2815(7) 0.0390(2)
H102 H 0.2599 0.2371 0.0434
C102 C 0.0616(6) 0.3839(8) -0.0339(2)
B2 B 0.3848(6) 0.2777(7) 0.2072(3)
C103 C -0.0117(15) 0.3449(19) 0.0790(8)
H103 H -0.0279 0.4034 0.0849
H104 H -0.0530 0.3166 0.0611
H105 H 0.0292 0.3560 0.0722
C104 C 0.0111(8) 0.2873(11) 0.1052(3)
C105 C 0.0684(7) 0.3130(8) 0.1351(5)
H106 H 0.0902 0.3722 0.1374
C106 C 0.0929(5) 0.2503(14) 0.1615(3)
H107 H 0.1312 0.2676 0.1815
C107 C 0.0603(8) 0.1619(12) 0.1580(4)
H108 H 0.0767 0.1199 0.1757
C108 C 0.0030(8) 0.1361(7) 0.1282(5)
H109 H -0.0189 0.0769 0.1259
C109 C -0.0216(5) 0.1988(13) 0.1018(3)
H110 H -0.0599 0.1816 0.0818
C110 C 0.4785(6) 0.2443(8) 0.1033(3)
H111 H 0.4857 0.2939 0.0900
H112 H 0.5258 0.2136 0.1152
H113 H 0.4595 0.2701 0.1188
C111 C 0.4231(4) 0.1747(5) 0.0814(2)
C112 C 0.4099(5) 0.1624(5) 0.0481(2)
H114 H 0.4369 0.1974 0.0385
C113 C 0.3563(5) 0.0979(7) 0.02902(14)
H115 H 0.3474 0.0897 0.0067
C114 C 0.3158(4) 0.0457(5) 0.0433(3)
H116 H 0.2800 0.0025 0.0305
C115 C 0.3291(5) 0.0579(6) 0.0766(3)
H117 H 0.3020 0.0230 0.0861
C116 C 0.3827(5) 0.1224(7) 0.09563(15)
H118 H 0.3915 0.1307 0.1179
C117 C 0.4932(5) -0.1623(7) 0.1289(3)
C118 C 0.4419(6) -0.1636(8) 0.0960(3)
H119 H 0.4259 -0.1075 0.0845
C119 C 0.4145(5) -0.2486(11) 0.08037(19)
H120 H 0.3802 -0.2494 0.0584
C120 C 0.4384(7) -0.3325(8) 0.0976(3)
H121 H 0.4200 -0.3894 0.0871
C121 C 0.4896(7) -0.3312(8) 0.1304(3)
H122 H 0.5056 -0.3873 0.1419
C122 C 0.5171(5) -0.2462(10) 0.14605(18)
H123 H 0.5514 -0.2454 0.1680
C123 C 0.5245(8) -0.0711(9) 0.1441(3)
H124 H 0.5348 -0.0331 0.1282
H125 H 0.5704 -0.0813 0.1631
H126 H 0.4887 -0.0395 0.1507
C124 C 0.7671(7) 0.4246(6) 0.2359(3)
C125 C 0.6969(9) 0.3925(7) 0.2333(3)
H127 H 0.6858 0.3889 0.2521
C126 C 0.6433(5) 0.3658(7) 0.2026(5)
H128 H 0.5963 0.3443 0.2008
C127 C 0.6599(10) 0.3712(7) 0.1745(3)
H129 H 0.6240 0.3533 0.1540
C128 C 0.7301(12) 0.4033(8) 0.1771(4)
H130 H 0.7412 0.4069 0.1583
C129 C 0.7837(7) 0.4300(7) 0.2078(5)
H131 H 0.8306 0.4515 0.2096
C130 C 0.8255(13) 0.4523(12) 0.2682(4)
H132 H 0.8034 0.4915 0.2798
H133 H 0.8647 0.4862 0.2647
H134 H 0.8463 0.3971 0.2812
loop_
_geom_bond_atom_site_label_1
_geom_bond_atom_site_label_2
_geom_bond_site_symmetry_1
_geom_bond_site_symmetry_2
O1 H1 1_555 1_555
O2 C17 1_555 1_555
O3 C34 1_555 1_555
O4 H2 1_555 1_555
O5 H3 1_555 1_555
O6 C51 1_555 1_555
C1 C2 1_555 1_555
C2 C3 1_555 1_555
C3 C4 1_555 1_555
C4 C5 1_555 1_555
C5 C6 1_555 1_555
C6 C1 1_555 1_555
C7 C6 1_555 1_555
H4 C7 1_555 1_555
H5 C7 1_555 1_555
H6 C7 1_555 1_555
C8 C5 1_555 1_555
H7 C8 1_555 1_555
H8 C8 1_555 1_555
H9 C8 1_555 1_555
C9 C3 1_555 1_555
H10 C9 1_555 1_555
H11 C9 1_555 1_555
H12 C9 1_555 1_555
C10 C2 1_555 1_555
H13 C10 1_555 1_555
H14 C10 1_555 1_555
H15 C10 1_555 1_555
C11 C4 1_555 1_555
C12 C11 1_555 1_555
H16 C12 1_555 1_555
C13 C12 1_555 1_555
H17 C13 1_555 1_555
C14 C13 1_555 1_555
C15 C14 1_555 1_555
H18 C15 1_555 1_555
C16 C11 1_555 1_555
H19 C16 1_555 1_555
C17 O1 1_555 1_555
C18 C19 1_555 1_555
C19 C20 1_555 1_555
C20 C21 1_555 1_555
C21 C22 1_555 1_555
C22 C23 1_555 1_555
C23 C18 1_555 1_555
C24 C21 1_555 1_555
C25 C24 1_555 1_555
H20 C25 1_555 1_555
C26 C25 1_555 1_555
H21 C26 1_555 1_555
C27 C26 1_555 1_555
C28 C27 1_555 1_555
H22 C28 1_555 1_555
C29 C24 1_555 1_555
H23 C29 1_555 1_555
C30 C20 1_555 1_555
H24 C30 1_555 1_555
H25 C30 1_555 1_555
H26 C30 1_555 1_555
C31 C19 1_555 1_555
H27 C31 1_555 1_555
H28 C31 1_555 1_555
H29 C31 1_555 1_555
C32 C22 1_555 1_555
H30 C32 1_555 1_555
H31 C32 1_555 1_555
H32 C32 1_555 1_555
C33 C23 1_555 1_555
H33 C33 1_555 1_555
H34 C33 1_555 1_555
H35 C33 1_555 1_555
C34 O4 1_555 1_555
C35 C36 1_555 1_555
C36 C37 1_555 1_555
C37 C38 1_555 1_555
C38 C39 1_555 1_555
C39 C40 1_555 1_555
C40 C35 1_555 1_555
C41 C36 1_555 1_555
H36 C41 1_555 1_555
H37 C41 1_555 1_555
H38 C41 1_555 1_555
C42 C37 1_555 1_555
H39 C42 1_555 1_555
H40 C42 1_555 1_555
H41 C42 1_555 1_555
C43 C39 1_555 1_555
H42 C43 1_555 1_555
H43 C43 1_555 1_555
H44 C43 1_555 1_555
C44 C40 1_555 1_555
H45 C44 1_555 1_555
H46 C44 1_555 1_555
H47 C44 1_555 1_555
C45 C38 1_555 1_555
C46 C45 1_555 1_555
H48 C46 1_555 1_555
C47 C46 1_555 1_555
H49 C47 1_555 1_555
C48 C47 1_555 1_555
C49 C48 1_555 1_555
H50 C49 1_555 1_555
C50 C45 1_555 1_555
H51 C50 1_555 1_555
C51 O5 1_555 1_555
B1 C1 1_555 1_555
O7 H52 1_555 1_555
O8 C68 1_555 1_555
O9 H53 1_555 1_555
O10 C102 1_555 1_555
O11 H54 1_555 1_555
O12 C85 1_555 1_555
C52 C53 1_555 1_555
C53 C54 1_555 1_555
C54 C55 1_555 1_555
C55 C56 1_555 1_555
C56 C57 1_555 1_555
C57 C52 1_555 1_555
C58 C57 1_555 1_555
H55 C58 1_555 1_555
H56 C58 1_555 1_555
H57 C58 1_555 1_555
C59 C53 1_555 1_555
H58 C59 1_555 1_555
H59 C59 1_555 1_555
H60 C59 1_555 1_555
C60 C54 1_555 1_555
H61 C60 1_555 1_555
H62 C60 1_555 1_555
H63 C60 1_555 1_555
C61 C56 1_555 1_555
H64 C61 1_555 1_555
H65 C61 1_555 1_555
H66 C61 1_555 1_555
C62 C55 1_555 1_555
C63 C62 1_555 1_555
H67 C63 1_555 1_555
C64 C63 1_555 1_555
H68 C64 1_555 1_555
C65 C64 1_555 1_555
C66 C65 1_555 1_555
H69 C66 1_555 1_555
C67 C62 1_555 1_555
H70 C67 1_555 1_555
C68 O7 1_555 1_555
C69 C70 1_555 1_555
C70 C71 1_555 1_555
C71 C72 1_555 1_555
C72 C73 1_555 1_555
C73 C74 1_555 1_555
C74 C69 1_555 1_555
C75 C74 1_555 1_555
H71 C75 1_555 1_555
H72 C75 1_555 1_555
H73 C75 1_555 1_555
C76 C70 1_555 1_555
H74 C76 1_555 1_555
H75 C76 1_555 1_555
H76 C76 1_555 1_555
C77 C71 1_555 1_555
H77 C77 1_555 1_555
H78 C77 1_555 1_555
H79 C77 1_555 1_555
C78 C73 1_555 1_555
H80 C78 1_555 1_555
H81 C78 1_555 1_555
H82 C78 1_555 1_555
C79 C72 1_555 1_555
C80 C79 1_555 1_555
H83 C80 1_555 1_555
C81 C80 1_555 1_555
H84 C81 1_555 1_555
C82 C81 1_555 1_555
C83 C82 1_555 1_555
H85 C83 1_555 1_555
C84 C79 1_555 1_555
H86 C84 1_555 1_555
C85 O11 1_555 1_555
C86 C87 1_555 1_555
C87 C88 1_555 1_555
C88 C89 1_555 1_555
C89 C90 1_555 1_555
C90 C91 1_555 1_555
C91 C86 1_555 1_555
C92 C91 1_555 1_555
H87 C92 1_555 1_555
H88 C92 1_555 1_555
H89 C92 1_555 1_555
C93 C90 1_555 1_555
H90 C93 1_555 1_555
H91 C93 1_555 1_555
H92 C93 1_555 1_555
C94 C88 1_555 1_555
H93 C94 1_555 1_555
H94 C94 1_555 1_555
H95 C94 1_555 1_555
C95 C87 1_555 1_555
H96 C95 1_555 1_555
H97 C95 1_555 1_555
H98 C95 1_555 1_555
C96 C89 1_555 1_555
C97 C96 1_555 1_555
H99 C97 1_555 1_555
C98 C97 1_555 1_555
H100 C98 1_555 1_555
C99 C98 1_555 1_555
C100 C99 1_555 1_555
H101 C100 1_555 1_555
C101 C96 1_555 1_555
H102 C101 1_555 1_555
C102 O9 1_555 1_555
B2 C52 1_555 1_555
C103 H103 1_555 1_555
H104 C103 1_555 1_555
H105 C103 1_555 1_555
C104 C103 1_555 1_555
C105 C104 1_555 1_555
H106 C105 1_555 1_555
C106 C105 1_555 1_555
H107 C106 1_555 1_555
C107 C106 1_555 1_555
H108 C107 1_555 1_555
C108 C107 1_555 1_555
H109 C108 1_555 1_555
C109 C104 1_555 1_555
H110 C109 1_555 1_555
C110 H111 1_555 1_555
H112 C110 1_555 1_555
H113 C110 1_555 1_555
C111 C110 1_555 1_555
C112 C111 1_555 1_555
H114 C112 1_555 1_555
C113 C112 1_555 1_555
H115 C113 1_555 1_555
C114 C113 1_555 1_555
H116 C114 1_555 1_555
C115 C114 1_555 1_555
H117 C115 1_555 1_555
C116 C111 1_555 1_555
H118 C116 1_555 1_555
C117 C118 1_555 1_555
C118 H119 1_555 1_555
C119 C118 1_555 1_555
H120 C119 1_555 1_555
C120 C119 1_555 1_555
H121 C120 1_555 1_555
C121 C120 1_555 1_555
H122 C121 1_555 1_555
C122 C117 1_555 1_555
H123 C122 1_555 1_555
C123 C117 1_555 1_555
H124 C123 1_555 1_555
H125 C123 1_555 1_555
H126 C123 1_555 1_555
C124 C125 1_555 1_555
C125 H127 1_555 1_555
C126 C125 1_555 1_555
H128 C126 1_555 1_555
C127 C126 1_555 1_555
H129 C127 1_555 1_555
C128 C127 1_555 1_555
H130 C128 1_555 1_555
C129 C124 1_555 1_555
H131 C129 1_555 1_555
C130 C124 1_555 1_555
H132 C130 1_555 1_555
H133 C130 1_555 1_555
H134 C130 1_555 1_555
C14 C17 1_555 1_555
C15 C16 1_555 1_555
C18 B1 1_555 1_555
C27 C34 1_555 1_555
C28 C29 1_555 1_555
C35 B1 1_555 1_555
C48 C51 1_555 1_555
C49 C50 1_555 1_555
C65 C68 1_555 1_555
C66 C67 1_555 1_555
C69 B2 1_555 1_555
C82 C85 1_555 1_555
C83 C84 1_555 1_555
C86 B2 1_555 1_555
C99 C102 1_555 1_555
C100 C101 1_555 1_555
C108 C109 1_555 1_555
C115 C116 1_555 1_555
C121 C122 1_555 1_555
C128 C129 1_555 1_555

#END
