
#######################################################################
#
#                 Cambridge Crystallographic Data Centre
#                                CCDC 
#
#######################################################################
#
# If this CIF has been generated from an entry in the Cambridge 
# Structural Database, then it will include bibliographic, chemical, 
# crystal, experimental, refinement or atomic coordinate data resulting 
# from the CCDC's data processing and validation procedures.
#
#######################################################################

data_MIDQUO
_chemical_formula_moiety         'C14 H20 O4'
_chemical_name_systematic        
3-sec-butyl-8,8a-dihydroxy-4-methyl-1,7,8,8a-tetrahydro-6H-isochromen-6-one
_symmetry_cell_setting           hexagonal
_symmetry_space_group_name_H-M   'P 65'
_symmetry_Int_Tables_number      170
_space_group_name_Hall           'P 65'
loop_
_symmetry_equiv_pos_site_id
_symmetry_equiv_pos_as_xyz
1 x,y,z
2 -x,-y,1/2+z
3 -y,x-y,2/3+z
4 -x+y,-x,1/3+z
5 x-y,x,5/6+z
6 y,-x+y,1/6+z
_cell_length_a                   15.77120(10)
_cell_length_b                   15.77120(10)
_cell_length_c                   10.46120(10)
_cell_angle_alpha                90
_cell_angle_beta                 90
_cell_angle_gamma                120
_cell_volume                     2253.42
_exptl_crystal_colour            colorless
_exptl_crystal_description       block
_cell_formula_units_Z            6
loop_
_atom_site_label
_atom_site_type_symbol
_atom_site_fract_x
_atom_site_fract_y
_atom_site_fract_z
O1 O 0.4199(3) 0.9126(3) 1.0692(4)
H1 H 0.4514 0.8876 1.0952
O2 O 0.5838(2) 0.9599(2) 0.8986(4)
O3 O 0.3174(3) 0.9296(3) 0.7667(4)
H2 H 0.3419 0.9874 0.7464
O4 O 0.1276(2) 0.6760(3) 0.8794(5)
C1 C 0.2953(3) 0.7289(3) 0.8781(5)
H3 H 0.2833 0.6673 0.8529
C2 C 0.4733(3) 0.7886(3) 0.8744(5)
C3 C 0.5045(4) 0.9771(3) 0.8687(6)
H4 H 0.4946 0.9732 0.7769
H5 H 0.5216 1.0425 0.8961
C4 C 0.3282(4) 0.9226(3) 0.9008(6)
H6 H 0.3407 0.9838 0.9416
C5 C 0.3891(3) 0.8017(3) 0.8926(5)
C6 C 0.7313(4) 0.9232(5) 0.9737(8)
H7 H 0.7908 0.9216 0.9607
H8 H 0.7032 0.8939 1.0546
H9 H 0.7453 0.9898 0.9729
C7 C 0.6591(4) 0.8663(4) 0.8671(6)
H10 H 0.6449 0.7984 0.8708
C8 C 0.5649(4) 0.8660(3) 0.8814(6)
C9 C 0.4546(4) 0.6861(4) 0.8496(7)
H11 H 0.4169 0.6610 0.7727
H12 H 0.4192 0.6445 0.9202
H13 H 0.5160 0.6878 0.8400
C10 C 0.4114(4) 0.9038(3) 0.9331(5)
C11 C 0.2333(4) 0.8400(4) 0.9508(6)
H14 H 0.2359 0.8391 1.0434
H15 H 0.1801 0.8510 0.9268
C12 C 0.2131(4) 0.7434(4) 0.9002(5)
C13 C 0.7049(5) 0.9087(5) 0.7353(8)
H16 H 0.7176 0.9754 0.7300
H17 H 0.7674 0.9109 0.7294
C14 C 0.6429(8) 0.8521(8) 0.6230(8)
H18 H 0.6762 0.8830 0.5451
H19 H 0.5814 0.8507 0.6265
H20 H 0.6316 0.7863 0.6257
loop_
_geom_bond_atom_site_label_1
_geom_bond_atom_site_label_2
_geom_bond_site_symmetry_1
_geom_bond_site_symmetry_2
O1 H1 1_555 1_555
O2 C3 1_555 1_555
O3 H2 1_555 1_555
O4 C12 1_555 1_555
C1 H3 1_555 1_555
C2 C5 1_555 1_555
C3 H4 1_555 1_555
H5 C3 1_555 1_555
C4 O3 1_555 1_555
H6 C4 1_555 1_555
C5 C1 1_555 1_555
C6 H7 1_555 1_555
H8 C6 1_555 1_555
H9 C6 1_555 1_555
C7 C6 1_555 1_555
H10 C7 1_555 1_555
C8 O2 1_555 1_555
C9 C2 1_555 1_555
H11 C9 1_555 1_555
H12 C9 1_555 1_555
H13 C9 1_555 1_555
C10 O1 1_555 1_555
C11 C4 1_555 1_555
H14 C11 1_555 1_555
H15 C11 1_555 1_555
C12 C1 1_555 1_555
C13 C7 1_555 1_555
H16 C13 1_555 1_555
H17 C13 1_555 1_555
C14 C13 1_555 1_555
H18 C14 1_555 1_555
H19 C14 1_555 1_555
H20 C14 1_555 1_555
C2 C8 1_555 1_555
C3 C10 1_555 1_555
C4 C10 1_555 1_555
C5 C10 1_555 1_555
C7 C8 1_555 1_555
C11 C12 1_555 1_555

#END
