
#######################################################################
#
#                 Cambridge Crystallographic Data Centre
#                                CCDC 
#
#######################################################################
#
# If this CIF has been generated from an entry in the Cambridge 
# Structural Database, then it will include bibliographic, chemical, 
# crystal, experimental, refinement or atomic coordinate data resulting 
# from the CCDC's data processing and validation procedures.
#
#######################################################################

data_MIDROJ
_chemical_compound_source        'Rhododendron decorum'
_chemical_name_common            'rhododecorumin I monohydrate'
_chemical_formula_moiety         'C20 H32 O4,H2 O1'
_chemical_name_systematic        
'3,3,7-trimethyl-11-methylidenedodecahydro-5a,8-methanocyclohepta[b]naphthalene-2,4,7,8(2H)-tetrol monohydrate'
_symmetry_cell_setting           monoclinic
_symmetry_space_group_name_H-M   'P 21'
_symmetry_Int_Tables_number      4
_space_group_name_Hall           'P 2yb'
loop_
_symmetry_equiv_pos_site_id
_symmetry_equiv_pos_as_xyz
1 x,y,z
2 -x,1/2+y,-z
_cell_length_a                   6.6038(6)
_cell_length_b                   20.8285(14)
_cell_length_c                   7.1958(6)
_cell_angle_alpha                90
_cell_angle_beta                 112.565(10)
_cell_angle_gamma                90
_cell_volume                     913.991
_exptl_crystal_colour            colorless
_cell_formula_units_Z            2
loop_
_atom_site_label
_atom_site_type_symbol
_atom_site_fract_x
_atom_site_fract_y
_atom_site_fract_z
O1 O -0.7813(3) -0.32375(7) -0.1570(2)
H1 H -0.7362 -0.2940 -0.0768
O2 O -1.3086(3) -0.71764(8) -0.0718(2)
H2 H -1.4159 -0.6944 -0.1231
O3 O -0.5167(3) -0.36604(8) -0.3296(2)
H3 H -0.6129 -0.3387 -0.3558
C1 C -0.8779(4) -0.58724(10) -0.1971(3)
H4 H -0.9999 -0.5569 -0.2526
O4 O -0.7629(2) -0.69278(7) -0.2516(2)
H5 H -0.7779 -0.7202 -0.3377
C2 C -0.8435(4) -0.59902(10) 0.0247(3)
H6 H -0.7257 -0.6307 0.0795
C3 C -1.1215(4) -0.68882(11) -0.0946(3)
H7 H -1.0006 -0.7195 -0.0395
C4 C -1.2030(4) -0.74336(11) -0.4251(4)
H8 H -1.3406 -0.7598 -0.4294
H9 H -1.0880 -0.7730 -0.3541
H10 H -1.2096 -0.7380 -0.5599
C5 C -0.9440(4) -0.64877(10) -0.3225(3)
H11 H -0.9710 -0.6379 -0.4625
C6 C -1.1563(4) -0.67852(10) -0.3168(3)
C7 C -0.6163(4) -0.49288(10) -0.0970(3)
C8 C -0.5695(4) -0.50631(10) 0.1281(3)
H12 H -0.4505 -0.5379 0.1746
C9 C -0.6773(4) -0.55580(11) -0.2137(3)
H13 H -0.7063 -0.5476 -0.3543
H14 H -0.5541 -0.5852 -0.1628
C10 C -0.4155(4) -0.46004(10) -0.1190(3)
H15 H -0.2820 -0.4713 -0.0064
H16 H -0.4017 -0.4738 -0.2424
C11 C -0.7691(4) -0.53768(11) 0.1471(3)
C12 C -1.0521(4) -0.62839(11) 0.0340(3)
H17 H -1.0265 -0.6389 0.1725
H18 H -1.1697 -0.5971 -0.0127
C13 C -0.4842(4) -0.44526(10) 0.2541(3)
H19 H -0.3305 -0.4397 0.2774
H20 H -0.4945 -0.4509 0.3840
C14 C -0.7934(4) -0.44041(10) -0.1729(3)
H21 H -0.8507 -0.4367 -0.3184
H22 H -0.9134 -0.4484 -0.1297
C15 C -0.6622(4) -0.38088(11) -0.0711(3)
C16 C -0.8695(4) -0.51349(11) 0.2595(3)
H23 H -0.9914 -0.5342 0.2660
H24 H -0.8180 -0.4758 0.3317
C17 C -0.2600(4) -0.34640(12) 0.0066(4)
H25 H -0.3054 -0.3026 0.0059
H26 H -0.1466 -0.3486 -0.0457
H27 H -0.2051 -0.3625 0.1420
C18 C -0.6092(4) -0.38399(11) 0.1552(3)
H28 H -0.7450 -0.3820 0.1775
H29 H -0.5218 -0.3468 0.2196
C19 C -0.4544(4) -0.38671(11) -0.1235(3)
C20 C -1.3498(4) -0.63406(11) -0.4308(3)
H30 H -1.3267 -0.5929 -0.3658
H31 H -1.4831 -0.6526 -0.4311
H32 H -1.3607 -0.6289 -0.5669
O5 O -1.2019(3) -0.29169(11) -0.4537(3)
H33 H -1.079(3) -0.302(2) -0.362(5)
H34 H -1.298(4) -0.3122(17) -0.425(6)
loop_
_geom_bond_atom_site_label_1
_geom_bond_atom_site_label_2
_geom_bond_site_symmetry_1
_geom_bond_site_symmetry_2
O1 H1 1_555 1_555
O2 H2 1_555 1_555
O3 H3 1_555 1_555
C1 H4 1_555 1_555
O4 H5 1_555 1_555
C2 C1 1_555 1_555
H6 C2 1_555 1_555
C3 O2 1_555 1_555
H7 C3 1_555 1_555
C4 H8 1_555 1_555
H9 C4 1_555 1_555
H10 C4 1_555 1_555
C5 C1 1_555 1_555
H11 C5 1_555 1_555
C6 C3 1_555 1_555
C7 C8 1_555 1_555
C8 H12 1_555 1_555
C9 C1 1_555 1_555
H13 C9 1_555 1_555
H14 C9 1_555 1_555
C10 C7 1_555 1_555
H15 C10 1_555 1_555
H16 C10 1_555 1_555
C11 C2 1_555 1_555
C12 C2 1_555 1_555
H17 C12 1_555 1_555
H18 C12 1_555 1_555
C13 C8 1_555 1_555
H19 C13 1_555 1_555
H20 C13 1_555 1_555
C14 C7 1_555 1_555
H21 C14 1_555 1_555
H22 C14 1_555 1_555
C15 O1 1_555 1_555
C16 C11 1_555 1_555
H23 C16 1_555 1_555
H24 C16 1_555 1_555
C17 H25 1_555 1_555
H26 C17 1_555 1_555
H27 C17 1_555 1_555
C18 C13 1_555 1_555
H28 C18 1_555 1_555
H29 C18 1_555 1_555
C19 O3 1_555 1_555
C20 C6 1_555 1_555
H30 C20 1_555 1_555
H31 C20 1_555 1_555
H32 C20 1_555 1_555
O5 H33 1_555 1_555
H34 O5 1_555 1_555
O4 C5 1_555 1_555
C3 C12 1_555 1_555
C4 C6 1_555 1_555
C5 C6 1_555 1_555
C7 C9 1_555 1_555
C8 C11 1_555 1_555
C10 C19 1_555 1_555
C14 C15 1_555 1_555
C15 C18 1_555 1_555
C15 C19 1_555 1_555
C17 C19 1_555 1_555

#END
