
#######################################################################
#
#                 Cambridge Crystallographic Data Centre
#                                CCDC 
#
#######################################################################
#
# If this CIF has been generated from an entry in the Cambridge 
# Structural Database, then it will include bibliographic, chemical, 
# crystal, experimental, refinement or atomic coordinate data resulting 
# from the CCDC's data processing and validation procedures.
#
#######################################################################

data_MIDRAV
_chemical_formula_moiety         'C19 H26 O4'
_chemical_name_systematic        
1-[5-hydroxy-7-methoxy-2,2-dimethyl-6-(3-methylbut-2-en-1-yl)-3,4-dihydro-2H-1-benzopyran-8-yl]ethan-1-one
_symmetry_cell_setting           monoclinic
_symmetry_space_group_name_H-M   'P 21/c'
_symmetry_Int_Tables_number      14
_space_group_name_Hall           '-P 2ybc'
loop_
_symmetry_equiv_pos_site_id
_symmetry_equiv_pos_as_xyz
1 x,y,z
2 -x,1/2+y,1/2-z
3 -x,-y,-z
4 x,1/2-y,1/2+z
_cell_length_a                   11.1679(3)
_cell_length_b                   16.8618(3)
_cell_length_c                   10.2322(3)
_cell_angle_alpha                90
_cell_angle_beta                 114.826(3)
_cell_angle_gamma                90
_cell_volume                     1748.77
_exptl_crystal_colour            colorless
_exptl_crystal_description       block
_cell_formula_units_Z            4
loop_
_atom_site_label
_atom_site_type_symbol
_atom_site_fract_x
_atom_site_fract_y
_atom_site_fract_z
O1 O 0.75546(8) 0.80290(5) 0.36483(9)
O2 O 0.62553(9) 0.53470(5) 0.34835(10)
H1 H 0.5589 0.5072 0.3150
O3 O 0.32205(9) 0.74685(5) 0.31078(11)
O4 O 0.52803(9) 0.90511(5) 0.25654(11)
C1 C 0.68922(11) 0.66673(7) 0.35224(11)
C2 C 0.44136(11) 0.71672(7) 0.32807(12)
C3 C 0.65897(11) 0.74705(7) 0.34763(12)
C4 C 0.53685(11) 0.77338(7) 0.33807(12)
C5 C 0.46593(12) 0.63554(7) 0.32823(13)
C6 C 0.59073(12) 0.61240(7) 0.34173(12)
C7 C 0.22481(12) 0.69324(7) 0.32230(13)
C8 C 0.82464(12) 0.60517(7) 0.23441(13)
H2 H 0.8045 0.6413 0.1595
C9 C 0.82326(12) 0.63696(7) 0.37157(13)
H3 H 0.8864 0.6800 0.4071
H4 H 0.8512 0.5953 0.4437
C10 C 0.51015(11) 0.86004(7) 0.34031(13)
C11 C 0.85120(12) 0.53159(7) 0.20770(13)
C12 C 0.47024(13) 0.89117(8) 0.45337(14)
H5 H 0.5475 0.9067 0.5367
H6 H 0.4242 0.8505 0.4796
H7 H 0.4135 0.9362 0.4163
C13 C 0.88453(15) 0.46349(8) 0.31159(15)
H8 H 0.9713 0.4443 0.3310
H9 H 0.8215 0.4217 0.2705
H10 H 0.8821 0.4810 0.3997
C14 C 0.3562(7) 0.5766(4) 0.3037(8)
H11 H 0.3719 0.5505 0.3939
H12 H 0.3567 0.5364 0.2361
C15 C 0.76367(14) 0.82458(8) 0.23278(15)
H13 H 0.6781 0.8405 0.1630
H14 H 0.7939 0.7800 0.1967
H15 H 0.8245 0.8678 0.2506
C16 C 0.84758(15) 0.51037(9) 0.06339(15)
H16 H 0.8241 0.5563 0.0024
H17 H 0.7834 0.4694 0.0199
H18 H 0.9329 0.4918 0.0757
C17 C 0.22206(18) 0.61671(10) 0.2455(2)
H19 H 0.1935 0.6273 0.1436
H20 H 0.1584 0.5811 0.2559
C18 C 0.09570(19) 0.73767(11) 0.2544(2)
H21 H 0.1040 0.7878 0.3019
H22 H 0.0273 0.7071 0.2641
H23 H 0.0737 0.7463 0.1542
C19 C 0.2694(3) 0.68325(13) 0.4832(2)
H24 H 0.3566 0.6611 0.5246
H25 H 0.2098 0.6484 0.5007
H26 H 0.2701 0.7340 0.5260
C20? C 0.2794(4) 0.6140(2) 0.4023(4)
H27? H 0.3265 0.6242 0.5047
H28? H 0.2065 0.5787 0.3883
C21? C 0.1376(4) 0.6776(3) 0.1628(5)
H29? H 0.0996 0.7266 0.1160
H30? H 0.0685 0.6413 0.1543
H31? H 0.1901 0.6551 0.1181
C22? C 0.1468(4) 0.7354(3) 0.3929(5)
H32? H 0.2015 0.7421 0.4938
H33? H 0.0709 0.7043 0.3807
H34? H 0.1189 0.7864 0.3489
C23? C 0.3728(14) 0.5739(9) 0.3471(17)
H35? H 0.3215 0.5483 0.2555
H36? H 0.4242 0.5335 0.4150
loop_
_geom_bond_atom_site_label_1
_geom_bond_atom_site_label_2
_geom_bond_site_symmetry_1
_geom_bond_site_symmetry_2
O1 C3 1_555 1_555
O2 H1 1_555 1_555
O3 C2 1_555 1_555
O4 C10 1_555 1_555
C1 C3 1_555 1_555
C2 C4 1_555 1_555
C3 C4 1_555 1_555
C4 C10 1_555 1_555
C5 C2 1_555 1_555
C6 O2 1_555 1_555
C7 O3 1_555 1_555
C8 H2 1_555 1_555
C9 C1 1_555 1_555
H3 C9 1_555 1_555
H4 C9 1_555 1_555
C10 C12 1_555 1_555
C11 C8 1_555 1_555
C12 H5 1_555 1_555
H6 C12 1_555 1_555
H7 C12 1_555 1_555
C13 C11 1_555 1_555
H8 C13 1_555 1_555
H9 C13 1_555 1_555
H10 C13 1_555 1_555
C14 C5 1_555 1_555
H11 C14 1_555 1_555
H12 C14 1_555 1_555
C15 O1 1_555 1_555
H13 C15 1_555 1_555
H14 C15 1_555 1_555
H15 C15 1_555 1_555
C16 C11 1_555 1_555
H16 C16 1_555 1_555
H17 C16 1_555 1_555
H18 C16 1_555 1_555
C17 C7 1_555 1_555
H19 C17 1_555 1_555
H20 C17 1_555 1_555
C18 C7 1_555 1_555
H21 C18 1_555 1_555
H22 C18 1_555 1_555
H23 C18 1_555 1_555
C19 C7 1_555 1_555
H24 C19 1_555 1_555
H25 C19 1_555 1_555
H26 C19 1_555 1_555
C1 C6 1_555 1_555
C5 C6 1_555 1_555
C8 C9 1_555 1_555
C14 C17 1_555 1_555

#END
