
#######################################################################
#
#                 Cambridge Crystallographic Data Centre
#                                CCDC 
#
#######################################################################
#
# If this CIF has been generated from an entry in the Cambridge 
# Structural Database, then it will include bibliographic, chemical, 
# crystal, experimental, refinement or atomic coordinate data resulting 
# from the CCDC's data processing and validation procedures.
#
#######################################################################

data_MIDSOK
_chemical_compound_source        'Euphorbia resinifera Berger'
_chemical_name_common            'euphorblin A'
_chemical_formula_moiety         'C34 H42 O11'
_chemical_name_systematic        
'10-{[hydroxy(phenyl)acetyl]oxy}-1,1,3,6,9-pentamethyl-4-oxo-1,1a,2,3,4,6,7,10,11,11a-decahydro-5H-4a,7a-epoxycyclopenta[a]cyclopropa[f][11]annulene-2,7,11-triyl triacetate'
_symmetry_cell_setting           orthorhombic
_symmetry_space_group_name_H-M   'P 21 21 21'
_symmetry_Int_Tables_number      19
_space_group_name_Hall           'P 2ac 2ab'
loop_
_symmetry_equiv_pos_site_id
_symmetry_equiv_pos_as_xyz
1 x,y,z
2 1/2+x,1/2-y,-z
3 -x,1/2+y,1/2-z
4 1/2-x,-y,1/2+z
_cell_length_a                   14.5146(6)
_cell_length_b                   15.1172(6)
_cell_length_c                   15.1784(6)
_cell_angle_alpha                90
_cell_angle_beta                 90
_cell_angle_gamma                90
_cell_volume                     3330.45
_exptl_crystal_colour            colorless
_exptl_crystal_description       block
_chemical_melting_point          '485-489 K'
_cell_formula_units_Z            4
_chemical_properties_physical    Deliquescent
_exptl_crystal_recrystallization_method 
'Re-crystallisation from solvent: methanol'
_exptl_crystal_preparation       lump
loop_
_atom_site_label
_atom_site_type_symbol
_atom_site_fract_x
_atom_site_fract_y
_atom_site_fract_z
O1 O 0.13994(14) 0.88564(14) 0.98729(14)
O2 O -0.27419(14) 0.97684(14) 0.89737(15)
O3 O 0.38263(14) 0.91961(16) 0.98244(17)
H1 H 0.402(3) 0.882(3) 0.950(3)
O4 O -0.04674(14) 0.79832(13) 0.70531(13)
O5 O 0.15138(14) 0.78564(14) 0.65739(15)
O6 O 0.26522(18) 0.85508(18) 0.5843(2)
O7 O -0.14206(16) 1.01331(15) 0.75514(15)
O8 O -0.37340(16) 0.88394(17) 0.9641(2)
O9 O 0.01194(14) 0.84848(14) 1.12261(14)
O10 O -0.04253(18) 0.71055(16) 1.14038(16)
O11 O 0.25603(16) 0.78714(15) 0.96842(19)
C1 C 0.2277(3) 1.0816(2) 0.7303(3)
H2 H 0.2127 1.1111 0.6769
C2 C 0.2950(3) 1.0168(2) 0.7310(2)
H3 H 0.3273 1.0028 0.6783
C3 C 0.3155(2) 0.9721(2) 0.8088(2)
H4 H 0.3607 0.9267 0.8088
C4 C 0.2700(2) 0.9937(2) 0.8866(2)
C5 C 0.28966(19) 0.9437(2) 0.9719(2)
H5 H 0.2723 0.9830 1.0223
C6 C 0.22834(19) 0.8615(2) 0.9755(2)
C7 C 0.0717(2) 0.81572(19) 0.97915(19)
H6 H 0.0954 0.7608 1.0081
C8 C -0.01348(19) 0.84883(19) 1.02891(18)
H7 H -0.0670 0.8086 1.0183
C9 C -0.03978(19) 0.94376(19) 1.00913(19)
H8 H 0.0150 0.9832 1.0021
C10 C -0.12354(19) 0.9760(2) 0.9569(2)
H9 H -0.1115 1.0315 0.9230
C11 C -0.19603(19) 0.91782(19) 0.9154(2)
H10 H -0.2155 0.8716 0.9587
C12 C -0.3590(2) 0.9470(2) 0.9189(2)
C13 C -0.4318(2) 1.0039(2) 0.8781(2)
H11 H -0.4443 0.9833 0.8180
H12 H -0.4104 1.0654 0.8762
H13 H -0.4883 1.0003 0.9132
C14 C 0.05023(19) 0.79645(19) 0.8832(2)
C15 C 0.05671(18) 0.8605(2) 0.82362(19)
H14 H 0.0823 0.9149 0.8431
C16 C 0.02807(19) 0.85598(19) 0.72957(19)
C17 C -0.05981(19) 0.89335(19) 0.6970(2)
C18 C -0.0470(2) 0.9264(2) 0.6037(2)
H15 H -0.0424 0.9917 0.6025
H16 H -0.0993 0.9079 0.5660
C19 C 0.0438(2) 0.8837(2) 0.5715(2)
H17 H 0.0783 0.9280 0.5354
C20 C 0.0986(2) 0.86625(19) 0.6581(2)
H18 H 0.1397 0.9177 0.6713
C21 C 0.2350(2) 0.7902(2) 0.6195(2)
C22 C 0.2832(3) 0.7033(3) 0.6272(4)
H19 H 0.2443 0.6566 0.6025
H20 H 0.2955 0.6906 0.6895
H21 H 0.3416 0.7057 0.5949
C23 C 0.0295(2) 0.8006(2) 0.5164(2)
H22 H 0.0001 0.7549 0.5526
H23 H 0.0892 0.7790 0.4953
H24 H -0.0101 0.8144 0.4659
C24 C -0.12580(19) 0.9345(2) 0.7614(2)
C25 C -0.16876(19) 0.87346(19) 0.8295(2)
H25 H -0.1216 0.8275 0.8443
C26 C -0.2498(2) 0.8255(2) 0.7855(2)
H26 H -0.2750 0.7814 0.8263
H27 H -0.2283 0.7959 0.7319
H28 H -0.2978 0.8685 0.7704
C27 C -0.0050(2) 0.7757(2) 1.1694(2)
C28 C 0.0298(2) 0.7857(2) 1.2627(2)
H29 H 0.0020 0.7399 1.3000
H30 H 0.0129 0.8442 1.2853
H31 H 0.0970 0.7793 1.2635
C29 C -0.1194(2) 0.9890(2) 1.0560(2)
C30 C -0.1824(2) 0.9361(2) 1.1151(2)
H32 H -0.1578 0.9361 1.1753
H33 H -0.1863 0.8751 1.0935
H34 H -0.2439 0.9627 1.1150
C31 C -0.1008(2) 1.0818(2) 1.0888(2)
H35 H -0.1589 1.1147 1.0918
H36 H -0.0585 1.1118 1.0483
H37 H -0.0730 1.0790 1.1476
C32 C 0.0210(2) 0.7023(2) 0.8655(2)
H38 H 0.0060 0.6955 0.8029
H39 H -0.0334 0.6882 0.9011
H40 H 0.0713 0.6620 0.8811
C33 C 0.2029(2) 1.0602(2) 0.8857(2)
H41 H 0.1717 1.0757 0.9385
C34 C 0.1820(2) 1.1033(2) 0.8075(3)
H42 H 0.1361 1.1481 0.8070
loop_
_geom_bond_atom_site_label_1
_geom_bond_atom_site_label_2
_geom_bond_site_symmetry_1
_geom_bond_site_symmetry_2
O1 C6 1_555 1_555
O2 C11 1_555 1_555
O3 H1 1_555 1_555
O4 C16 1_555 1_555
O5 C20 1_555 1_555
O6 C21 1_555 1_555
O7 C24 1_555 1_555
O8 C12 1_555 1_555
O9 C8 1_555 1_555
O10 C27 1_555 1_555
O11 C6 1_555 1_555
C1 H2 1_555 1_555
C2 C1 1_555 1_555
H3 C2 1_555 1_555
C3 C2 1_555 1_555
H4 C3 1_555 1_555
C4 C3 1_555 1_555
C5 O3 1_555 1_555
H5 C5 1_555 1_555
C6 C5 1_555 1_555
C7 O1 1_555 1_555
H6 C7 1_555 1_555
C8 C7 1_555 1_555
H7 C8 1_555 1_555
C9 C8 1_555 1_555
H8 C9 1_555 1_555
C10 C9 1_555 1_555
H9 C10 1_555 1_555
C11 C10 1_555 1_555
H10 C11 1_555 1_555
C12 O2 1_555 1_555
C13 C12 1_555 1_555
H11 C13 1_555 1_555
H12 C13 1_555 1_555
H13 C13 1_555 1_555
C14 C7 1_555 1_555
C15 C14 1_555 1_555
H14 C15 1_555 1_555
C16 C15 1_555 1_555
C17 O4 1_555 1_555
C18 C17 1_555 1_555
H15 C18 1_555 1_555
H16 C18 1_555 1_555
C19 C18 1_555 1_555
H17 C19 1_555 1_555
C20 C16 1_555 1_555
H18 C20 1_555 1_555
C21 O5 1_555 1_555
C22 C21 1_555 1_555
H19 C22 1_555 1_555
H20 C22 1_555 1_555
H21 C22 1_555 1_555
C23 C19 1_555 1_555
H22 C23 1_555 1_555
H23 C23 1_555 1_555
H24 C23 1_555 1_555
C24 C17 1_555 1_555
C25 C11 1_555 1_555
H25 C25 1_555 1_555
C26 C25 1_555 1_555
H26 C26 1_555 1_555
H27 C26 1_555 1_555
H28 C26 1_555 1_555
C27 O9 1_555 1_555
C28 C27 1_555 1_555
H29 C28 1_555 1_555
H30 C28 1_555 1_555
H31 C28 1_555 1_555
C29 C9 1_555 1_555
C30 C29 1_555 1_555
H32 C30 1_555 1_555
H33 C30 1_555 1_555
H34 C30 1_555 1_555
C31 C29 1_555 1_555
H35 C31 1_555 1_555
H36 C31 1_555 1_555
H37 C31 1_555 1_555
C32 C14 1_555 1_555
H38 C32 1_555 1_555
H39 C32 1_555 1_555
H40 C32 1_555 1_555
C33 C4 1_555 1_555
H41 C33 1_555 1_555
C34 C1 1_555 1_555
H42 C34 1_555 1_555
C4 C5 1_555 1_555
C10 C29 1_555 1_555
C16 C17 1_555 1_555
C19 C20 1_555 1_555
C24 C25 1_555 1_555
C33 C34 1_555 1_555

#END
