
#######################################################################
#
#                 Cambridge Crystallographic Data Centre
#                                CCDC 
#
#######################################################################
#
# If this CIF has been generated from an entry in the Cambridge 
# Structural Database, then it will include bibliographic, chemical, 
# crystal, experimental, refinement or atomic coordinate data resulting 
# from the CCDC's data processing and validation procedures.
#
#######################################################################

data_MIFDUD
_chemical_formula_moiety         'C27 H28 Br1 N5 O3'
_chemical_name_systematic        
't-butyl {1-[4-amino-6-bromo-5-(4-phenoxyphenyl)-7H-pyrrolo[2,3-d]pyrimidin-7-yl]but-3-en-2-yl}carbamate'
_symmetry_cell_setting           monoclinic
_symmetry_space_group_name_H-M   'P 21'
_symmetry_Int_Tables_number      4
_space_group_name_Hall           'P 2yb'
loop_
_symmetry_equiv_pos_site_id
_symmetry_equiv_pos_as_xyz
1 x,y,z
2 -x,1/2+y,-z
_cell_length_a                   13.774(4)
_cell_length_b                   18.775(6)
_cell_length_c                   10.658(3)
_cell_angle_alpha                90
_cell_angle_beta                 110.084(9)
_cell_angle_gamma                90
_cell_volume                     2588.63
_exptl_crystal_colour            colorless
_exptl_crystal_description       block
_cell_formula_units_Z            4
loop_
_atom_site_label
_atom_site_type_symbol
_atom_site_fract_x
_atom_site_fract_y
_atom_site_fract_z
Br1 Br 0.98637(6) 0.52080(4) 0.57472(9)
O1 O 0.6377(4) 0.7058(3) 0.3967(5)
O2 O 0.7307(5) 0.2177(3) 0.3922(5)
N1 N 0.8006(5) 0.7228(3) 0.5219(6)
H1 H 0.7775 0.7589 0.5544
N2 N 0.7455(5) 0.6472(4) 0.7877(6)
N3 N 0.5798(5) 0.4591(4) 0.6632(6)
H2 H 0.6179 0.4214 0.6735
H3 H 0.5383 0.4536 0.7078
N4 N 0.6040(5) 0.5679(4) 0.7740(7)
N5 N 0.8670(5) 0.5996(4) 0.6920(6)
C1 C 0.6413(6) 0.5174(5) 0.7082(7)
C2 C 0.6596(7) 0.6268(5) 0.8088(8)
H4 H 0.6344 0.6599 0.8563
C3 C 0.7588(7) 0.2922(4) 0.5894(7)
H5 H 0.7542 0.2531 0.6422
O3 O 0.7612(5) 0.6397(4) 0.3554(6)
C4 C 0.7504(6) 0.2826(4) 0.4578(7)
C5 C 0.7792(6) 0.4190(4) 0.5666(7)
C6 C 0.7337(5) 0.5292(4) 0.6857(7)
C7 C 0.7742(7) 0.3604(4) 0.6427(8)
H6 H 0.7814 0.3669 0.7329
C8 C 0.7959(6) 0.4921(4) 0.6243(7)
C9 C 0.9080(6) 0.7027(4) 0.5763(8)
H7 H 0.9220 0.6694 0.5126
C10 C 0.7697(6) 0.4083(4) 0.4347(8)
H8 H 0.7734 0.4474 0.3814
C11 C 0.7779(6) 0.5960(4) 0.7259(8)
C12 C 0.7352(7) 0.6840(5) 0.4176(9)
C13 C 0.7482(7) 0.1553(5) 0.4673(8)
C14 C 0.8747(6) 0.5379(4) 0.6302(7)
C15 C 0.7549(7) 0.3408(4) 0.3806(8)
H9 H 0.7477 0.3343 0.2904
C16 C 0.9796(6) 0.7653(5) 0.5936(9)
H10 H 1.0506 0.7563 0.6350
C17 C 0.9301(6) 0.6636(5) 0.7082(8)
H11 H 1.0034 0.6505 0.7436
H12 H 0.9161 0.6954 0.7729
C18 C 0.8451(7) 0.1359(5) 0.5459(8)
H13 H 0.9004 0.1675 0.5570
C19 C 0.8642(9) 0.0690(6) 0.6113(9)
H14 H 0.9307 0.0549 0.6661
C20 C 0.5507(8) 0.6695(5) 0.2971(10)
C21 C 0.6661(8) 0.1106(6) 0.4483(10)
H15 H 0.5996 0.1244 0.3927
C22 C 0.9526(8) 0.8314(6) 0.5565(10)
H16 H 0.8825 0.8431 0.5147
H17 H 1.0035 0.8670 0.5718
C23 C 0.4582(7) 0.7091(6) 0.3127(11)
H18 H 0.4607 0.7055 0.4045
H19 H 0.3945 0.6881 0.2539
H20 H 0.4610 0.7588 0.2895
C24 C 0.6813(10) 0.0452(6) 0.5110(10)
H21 H 0.6241 0.0152 0.4986
C25 C 0.5563(10) 0.6795(7) 0.1611(11)
H22 H 0.5717 0.7289 0.1493
H23 H 0.4905 0.6667 0.0945
H24 H 0.6103 0.6494 0.1509
C26 C 0.7736(9) 0.0233(6) 0.5880(10)
H25 H 0.7813 -0.0219 0.6281
C27 C 0.5490(10) 0.5915(6) 0.3353(13)
H26 H 0.6050 0.5663 0.3189
H27 H 0.4835 0.5704 0.2820
H28 H 0.5573 0.5880 0.4292
Br2 Br 0.01669(7) 0.46388(5) 0.94477(9)
O4 O 0.3123(5) 0.3126(3) 1.1254(5)
N6 N 0.1471(6) 0.3899(4) 0.8367(7)
N7 N 0.2726(6) 0.3488(4) 0.7420(8)
N8 N 0.4075(5) 0.4332(4) 0.7608(7)
C28 C 0.2101(6) 0.5766(5) 0.9453(8)
N9 N 0.4272(5) 0.5397(3) 0.8730(6)
H29 H 0.4511 0.5557 0.8137
H30 H 0.3886 0.5716 0.8900
C29 C 0.1335(6) 0.4536(5) 0.8965(7)
C30 C 0.2090(6) 0.5021(4) 0.9028(7)
N10 N 0.1420(6) 0.2974(4) 1.0554(9)
H31 H 0.0831 0.3019 1.0678
C31 C 0.2243(7) 0.6315(5) 0.8664(8)
H32 H 0.2348 0.6206 0.7859
C32 C 0.1957(6) 0.5942(5) 1.0636(8)
H33 H 0.1895 0.5581 1.1214
C33 C 0.2761(6) 0.4668(5) 0.8435(7)
O5 O 0.1943(7) 0.7866(4) 1.0611(7)
O6 O 0.2217(7) 0.3348(4) 1.2656(7)
C34 C 0.2234(7) 0.7023(5) 0.9039(8)
H34 H 0.2374 0.7389 0.8522
C35 C 0.3698(6) 0.4808(4) 0.8237(8)
C36 C 0.2452(10) 0.9712(7) 0.8857(11)
H35 H 0.2569 1.0152 0.8513
C37 C 0.2343(7) 0.3996(5) 0.8034(8)
C38 C 0.0876(7) 0.3238(5) 0.8142(9)
H36 H 0.0840 0.3031 0.7283
H37 H 0.0170 0.3338 0.8108
C39 C 0.2127(10) 0.8453(5) 0.9912(10)
C40 C 0.1906(7) 0.6640(5) 1.0966(8)
H38 H 0.1788 0.6754 1.1761
C41 C 0.2278(8) 0.3167(6) 1.1585(11)
C42 C 0.2022(8) 0.7180(5) 1.0160(9)
C43 C 0.4107(8) 0.3416(5) 1.2161(9)
C44 C 0.1302(10) 0.8783(6) 0.9008(11)
H39 H 0.0634 0.8587 0.8747
C45 C 0.1504(10) 0.9435(7) 0.8484(11)
H40 H 0.0956 0.9679 0.7854
C46 C 0.3572(7) 0.3711(5) 0.7239(9)
H41 H 0.3866 0.3392 0.6790
C47 C 0.1386(7) 0.2702(5) 0.9272(10)
H42 H 0.2077 0.2551 0.9282
C48 C 0.3999(10) 0.4201(6) 1.2306(12)
H43 H 0.3548 0.4397 1.1466
H44 H 0.4674 0.4424 1.2547
H45 H 0.3706 0.4292 1.2998
C49 C 0.4456(9) 0.3026(7) 1.3492(10)
H46 H 0.4034 0.3173 1.4009
H47 H 0.5175 0.3139 1.3980
H48 H 0.4384 0.2516 1.3335
C50 C 0.3234(10) 0.9353(7) 0.9731(11)
H49 H 0.3903 0.9546 0.9975
C51 C 0.3105(10) 0.8712(7) 1.0292(10)
H50 H 0.3664 0.8469 1.0905
C52 C 0.4804(8) 0.3250(7) 1.1385(11)
H51 H 0.4868 0.2738 1.1323
H52 H 0.5481 0.3456 1.1836
H53 H 0.4514 0.3450 1.0494
C53 C 0.098(2) 0.1511(14) 0.860(2)
H54 H 0.1551 0.1564 0.8317
H55 H 0.0620 0.1075 0.8467
C54 C 0.0668(15) 0.2062(10) 0.9189(19)
H56 H 0.0106 0.2054 0.9499
H57? H 0.2121 0.2704 0.9337
C55? C 0.0979(19) 0.1962(11) 0.861(2)
H58? H 0.0969 0.1885 0.7732
C56? C 0.0662(19) 0.1459(12) 0.917(2)
H59? H 0.0661 0.1516 1.0047
H60? H 0.0429 0.1030 0.8711
loop_
_geom_bond_atom_site_label_1
_geom_bond_atom_site_label_2
_geom_bond_site_symmetry_1
_geom_bond_site_symmetry_2
Br1 C14 1_555 1_555
O1 C12 1_555 1_555
O2 C4 1_555 1_555
N1 H1 1_555 1_555
N2 C2 1_555 1_555
N3 H2 1_555 1_555
H3 N3 1_555 1_555
N4 C1 1_555 1_555
N5 C11 1_555 1_555
C1 N3 1_555 1_555
C2 N4 1_555 1_555
H4 C2 1_555 1_555
C3 H5 1_555 1_555
O3 C12 1_555 1_555
C4 C3 1_555 1_555
C5 C7 1_555 1_555
C6 C1 1_555 1_555
C7 C3 1_555 1_555
H6 C7 1_555 1_555
C8 C5 1_555 1_555
C9 N1 1_555 1_555
H7 C9 1_555 1_555
C10 C5 1_555 1_555
H8 C10 1_555 1_555
C11 N2 1_555 1_555
C12 N1 1_555 1_555
C13 O2 1_555 1_555
C14 N5 1_555 1_555
C15 C4 1_555 1_555
H9 C15 1_555 1_555
C16 C9 1_555 1_555
H10 C16 1_555 1_555
C17 N5 1_555 1_555
H11 C17 1_555 1_555
H12 C17 1_555 1_555
C18 C13 1_555 1_555
H13 C18 1_555 1_555
C19 C18 1_555 1_555
H14 C19 1_555 1_555
C20 O1 1_555 1_555
C21 C13 1_555 1_555
H15 C21 1_555 1_555
C22 C16 1_555 1_555
H16 C22 1_555 1_555
H17 C22 1_555 1_555
C23 C20 1_555 1_555
H18 C23 1_555 1_555
H19 C23 1_555 1_555
H20 C23 1_555 1_555
C24 C21 1_555 1_555
H21 C24 1_555 1_555
C25 C20 1_555 1_555
H22 C25 1_555 1_555
H23 C25 1_555 1_555
H24 C25 1_555 1_555
C26 C19 1_555 1_555
H25 C26 1_555 1_555
C27 C20 1_555 1_555
H26 C27 1_555 1_555
H27 C27 1_555 1_555
H28 C27 1_555 1_555
Br2 C29 1_555 1_555
O4 C41 1_555 1_555
N6 C29 1_555 1_555
N7 C37 1_555 1_555
N8 C35 1_555 1_555
C28 C30 1_555 1_555
N9 H29 1_555 1_555
H30 N9 1_555 1_555
C29 C30 1_555 1_555
C30 C33 1_555 1_555
N10 H31 1_555 1_555
C31 C28 1_555 1_555
H32 C31 1_555 1_555
C32 C28 1_555 1_555
H33 C32 1_555 1_555
C33 C35 1_555 1_555
O5 C39 1_555 1_555
O6 C41 1_555 1_555
C34 C31 1_555 1_555
H34 C34 1_555 1_555
C35 N9 1_555 1_555
C36 H35 1_555 1_555
C37 N6 1_555 1_555
C38 N6 1_555 1_555
H36 C38 1_555 1_555
H37 C38 1_555 1_555
C39 C44 1_555 1_555
C40 C32 1_555 1_555
H38 C40 1_555 1_555
C41 N10 1_555 1_555
C42 O5 1_555 1_555
C43 O4 1_555 1_555
C44 H39 1_555 1_555
C45 C36 1_555 1_555
H40 C45 1_555 1_555
C46 N7 1_555 1_555
H41 C46 1_555 1_555
C47 N10 1_555 1_555
H42 C47 1_555 1_555
C48 C43 1_555 1_555
H43 C48 1_555 1_555
H44 C48 1_555 1_555
H45 C48 1_555 1_555
C49 C43 1_555 1_555
H46 C49 1_555 1_555
H47 C49 1_555 1_555
H48 C49 1_555 1_555
C50 C36 1_555 1_555
H49 C50 1_555 1_555
C51 C39 1_555 1_555
H50 C51 1_555 1_555
C52 C43 1_555 1_555
H51 C52 1_555 1_555
H52 C52 1_555 1_555
H53 C52 1_555 1_555
C53 H54 1_555 1_555
H55 C53 1_555 1_555
C54 C47 1_555 1_555
H56 C54 1_555 1_555
C6 C8 1_555 1_555
C6 C11 1_555 1_555
C8 C14 1_555 1_555
C9 C17 1_555 1_555
C10 C15 1_555 1_555
C24 C26 1_555 1_555
N8 C46 1_555 1_555
C33 C37 1_555 1_555
C34 C42 1_555 1_555
C38 C47 1_555 1_555
C40 C42 1_555 1_555
C44 C45 1_555 1_555
C50 C51 1_555 1_555
C53 C54 1_555 1_555

#END
