
#######################################################################
#
#                 Cambridge Crystallographic Data Centre
#                                CCDC 
#
#######################################################################
#
# If this CIF has been generated from an entry in the Cambridge 
# Structural Database, then it will include bibliographic, chemical, 
# crystal, experimental, refinement or atomic coordinate data resulting 
# from the CCDC's data processing and validation procedures.
#
#######################################################################

data_MIFFAL
_chemical_formula_moiety         'C12 H11 N1 O3'
_chemical_name_systematic        
2-(1-hydroxybut-3-en-2-yl)-1H-isoindole-1,3(2H)-dione
_symmetry_cell_setting           orthorhombic
_symmetry_space_group_name_H-M   'P 21 21 21'
_symmetry_Int_Tables_number      19
_space_group_name_Hall           'P 2ac 2ab'
loop_
_symmetry_equiv_pos_site_id
_symmetry_equiv_pos_as_xyz
1 x,y,z
2 1/2-x,-y,1/2+z
3 -x,1/2+y,1/2-z
4 1/2+x,1/2-y,-z
_cell_length_a                   6.9170(3)
_cell_length_b                   8.4769(3)
_cell_length_c                   18.1729(7)
_cell_angle_alpha                90
_cell_angle_beta                 90
_cell_angle_gamma                90
_cell_volume                     1065.56
_exptl_crystal_colour            colorless
_exptl_crystal_description       needle
_cell_formula_units_Z            4
loop_
_atom_site_label
_atom_site_type_symbol
_atom_site_fract_x
_atom_site_fract_y
_atom_site_fract_z
O1 O 0.3637(3) 0.3254(3) 0.32822(10)
O2 O 0.3270(4) 0.6555(3) 0.52591(10)
N1 N 0.3324(3) 0.5240(3) 0.41467(11)
O3 O 0.5146(4) 0.8725(3) 0.31702(13)
H1 H 0.5468 0.8748 0.2725
C1 C 0.3504(4) 0.3688(3) 0.39150(14)
C2 C 0.3532(3) 0.2701(3) 0.45920(14)
C3 C 0.3332(4) 0.5340(3) 0.49195(13)
C4 C 0.3422(4) 0.3697(3) 0.51949(14)
C5 C 0.3619(4) 0.1087(4) 0.46723(16)
H2 H 0.3690 0.0408 0.4257
C6 C 0.3394(4) 0.3117(4) 0.59038(14)
H3 H 0.3318 0.3802 0.6317
C7 C 0.3171(4) 0.6665(3) 0.36845(14)
H4 H 0.2668 0.7532 0.4004
C8 C 0.3598(4) 0.0495(4) 0.53809(17)
H5 H 0.3664 -0.0613 0.5455
C9 C 0.1757(5) 0.6459(4) 0.30598(16)
H6 H 0.2017 0.5667 0.2704
C10 C 0.3482(4) 0.1491(4) 0.59893(16)
H7 H 0.3462 0.1050 0.6470
C11 C 0.5182(4) 0.7156(4) 0.34248(17)
H8 H 0.6112 0.7062 0.3837
H9 H 0.5613 0.6448 0.3024
C12 C 0.0196(5) 0.7308(5) 0.29807(19)
H10 H -0.0102 0.8109 0.3328
H11 H -0.0643 0.7124 0.2576
loop_
_geom_bond_atom_site_label_1
_geom_bond_atom_site_label_2
_geom_bond_site_symmetry_1
_geom_bond_site_symmetry_2
O1 C1 1_555 1_555
O2 C3 1_555 1_555
N1 C1 1_555 1_555
O3 H1 1_555 1_555
C1 C2 1_555 1_555
C2 C4 1_555 1_555
C3 N1 1_555 1_555
C4 C3 1_555 1_555
C5 C2 1_555 1_555
H2 C5 1_555 1_555
C6 C4 1_555 1_555
H3 C6 1_555 1_555
C7 N1 1_555 1_555
H4 C7 1_555 1_555
C8 C5 1_555 1_555
H5 C8 1_555 1_555
C9 C7 1_555 1_555
H6 C9 1_555 1_555
C10 C6 1_555 1_555
H7 C10 1_555 1_555
C11 O3 1_555 1_555
H8 C11 1_555 1_555
H9 C11 1_555 1_555
C12 C9 1_555 1_555
H10 C12 1_555 1_555
H11 C12 1_555 1_555
C7 C11 1_555 1_555
C8 C10 1_555 1_555

#END
