
#######################################################################
#
#                 Cambridge Crystallographic Data Centre
#                                CCDC 
#
#######################################################################
#
# If this CIF has been generated from an entry in the Cambridge 
# Structural Database, then it will include bibliographic, chemical, 
# crystal, experimental, refinement or atomic coordinate data resulting 
# from the CCDC's data processing and validation procedures.
#
#######################################################################

data_MIFGUG
_chemical_formula_moiety         'C49 H56 Cl1 N3 O2,C7 H8'
_chemical_name_systematic        
'{4-[2-(5-t-butyl-2-chloro-3-{2-[2,6-bis(tricyclo[3.3.1.1^3,7^]decan-1-yl)-4H-pyran-4-ylidene]ethylidene}cyclohex-1-en-1-yl)ethenyl]-3-cyano-5,5-dimethylfuran-2(5H)-ylidene}propanedinitrile toluene solvate'
_symmetry_cell_setting           triclinic
_symmetry_space_group_name_H-M   'P -1'
_symmetry_Int_Tables_number      2
_space_group_name_Hall           '-P 1'
loop_
_symmetry_equiv_pos_site_id
_symmetry_equiv_pos_as_xyz
1 x,y,z
2 -x,-y,-z
_cell_length_a                   12.8656(9)
_cell_length_b                   13.6192(7)
_cell_length_c                   15.3699(9)
_cell_angle_alpha                78.844(4)
_cell_angle_beta                 82.313(5)
_cell_angle_gamma                64.432(6)
_cell_volume                     2379.62
_exptl_crystal_colour            green
_exptl_crystal_description       needle
_cell_formula_units_Z            2
_exptl_crystal_recrystallization_method toluene
loop_
_atom_site_label
_atom_site_type_symbol
_atom_site_fract_x
_atom_site_fract_y
_atom_site_fract_z
Cl1 Cl 0.36648(14) 0.39272(10) 0.62793(10)
C1 C 0.3361(4) 0.5177(3) 0.5571(3)
C2 C 0.2733(4) 0.5384(3) 0.4850(3)
C3 C 0.2332(4) 0.4634(4) 0.4669(3)
C4 C 0.1617(4) 0.4802(4) 0.4016(3)
C5 C 0.1123(4) 0.4104(3) 0.3904(3)
C6 C 0.0272(4) 0.4376(3) 0.3321(3)
C7 C -0.0021(4) 0.3465(3) 0.3374(3)
O1 O 0.0629(3) 0.2632(2) 0.3961(2)
C8 C 0.1396(4) 0.2952(4) 0.4370(3)
C9 C 0.2611(5) 0.2142(4) 0.4184(4)
C10 C 0.1021(6) 0.2865(5) 0.5360(3)
C11 C -0.0773(4) 0.3334(4) 0.2914(3)
C12 C -0.0887(5) 0.2317(4) 0.3059(3)
N1 N -0.0986(5) 0.1513(4) 0.3157(4)
C13 C -0.1479(5) 0.4176(4) 0.2263(3)
N2 N -0.2045(5) 0.4810(4) 0.1742(4)
C14 C -0.0201(4) 0.5404(4) 0.2758(3)
N3 N -0.0535(5) 0.6249(4) 0.2332(4)
C15 C 0.2442(5) 0.6454(4) 0.4266(4)
C16 C 0.2594(5) 0.7307(4) 0.4547(3)
C17 C 0.2213(6) 0.8448(4) 0.3988(4)
C18 C 0.3179(9) 0.8392(7) 0.3321(6)
C19 C 0.1192(8) 0.8727(6) 0.3439(6)
C20 C 0.1931(9) 0.9351(6) 0.4506(6)
C21 C 0.3364(4) 0.7049(4) 0.5266(3)
C22 C 0.3707(4) 0.5943(3) 0.5823(3)
C23 C 0.4358(4) 0.5668(3) 0.6551(3)
C24 C 0.4740(4) 0.6345(4) 0.6870(3)
C25 C 0.5440(4) 0.6011(3) 0.7573(3)
C26 C 0.5786(4) 0.6744(3) 0.7884(3)
C27 C 0.6477(4) 0.6423(3) 0.8556(3)
O2 O 0.6895(3) 0.5353(2) 0.89792(19)
C28 C 0.6563(4) 0.4619(3) 0.8746(3)
C29 C 0.5867(4) 0.4916(3) 0.8070(3)
C30 C 0.7089(3) 0.3516(3) 0.9311(3)
C31 C 0.8408(4) 0.3026(4) 0.9180(3)
C32 C 0.8943(4) 0.1909(4) 0.9766(4)
C33 C 0.8590(5) 0.2057(4) 1.0733(4)
C34 C 0.7285(5) 0.2502(4) 1.0880(3)
C35 C 0.6748(4) 0.3628(4) 1.0290(3)
C36 C 0.6857(5) 0.1719(5) 1.0621(4)
C37 C 0.7214(5) 0.1588(4) 0.9660(4)
C38 C 0.8511(5) 0.1128(4) 0.9528(4)
C39 C 0.6680(4) 0.2707(3) 0.9058(3)
C40 C 0.6938(4) 0.7067(3) 0.8956(3)
C41 C 0.6381(5) 0.8305(4) 0.8578(3)
C42 C 0.6894(5) 0.8928(4) 0.9000(4)
C43 C 0.6631(5) 0.8788(4) 0.9998(4)
C44 C 0.7198(5) 0.7573(4) 1.0376(3)
C45 C 0.6672(4) 0.6954(4) 0.9969(3)
C46 C 0.8477(5) 0.7117(5) 1.0181(4)
C47 C 0.8728(5) 0.7269(5) 0.9183(4)
C48 C 0.8176(6) 0.8474(5) 0.8797(4)
C49 C 0.8244(4) 0.6623(4) 0.8770(4)
H1 H 0.2562 0.3961 0.5051
H2 H 0.1455 0.5443 0.3589
H3 H 0.2683 0.1407 0.4241
H4 H 0.3093 0.2160 0.4610
H5 H 0.2899 0.2349 0.3600
H6 H 0.0934 0.2201 0.5558
H7 H 0.1611 0.2878 0.5693
H8 H 0.0302 0.3482 0.5466
H9 H 0.2866 0.8981 0.2819
H10 H 0.3786 0.8462 0.3542
H11 H 0.3455 0.7701 0.3096
H12 H 0.1032 0.9419 0.3065
H13 H 0.0542 0.8737 0.3806
H14 H 0.1455 0.8156 0.3075
H15 H 0.1403 1.0034 0.4189
H16 H 0.2561 0.9437 0.4661
H17 H 0.1497 0.9188 0.5052
H18 H 0.4530 0.4971 0.6895
H19 H 0.4499 0.7077 0.6574
H20 H 0.5497 0.7476 0.7607
H21 H 0.5661 0.4370 0.7915
H22 H 0.8673 0.3551 0.9346
H23 H 0.8638 0.2957 0.8567
H24 H 0.9793 0.1586 0.9673
H25 H 0.8818 0.2608 1.0860
H26 H 0.8947 0.1370 1.1134
H27 H 0.7048 0.2597 1.1505
H28 H 0.7003 0.4149 1.0453
H29 H 0.5898 0.3923 1.0373
H30 H 0.7153 0.1007 1.1017
H31 H 0.6007 0.2034 1.0704
H32 H 0.6940 0.1071 0.9493
H33 H 0.8856 0.0393 0.9878
H34 H 0.8720 0.1044 0.8897
H35 H 0.5839 0.3025 0.9138
H36 H 0.6900 0.2621 0.8440
H37 H 0.5533 0.8624 0.8698
H38 H 0.6523 0.8416 0.7947
H39 H 0.6540 0.9714 0.8739
H40 H 0.6903 0.9218 1.0287
H41 H 0.5757 0.9089 1.0118
H42 H 0.7036 0.7483 1.1024
H43 H 0.6981 0.6187 1.0234
H44 H 0.5827 0.7294 1.0074
H45 H 0.8773 0.7546 1.0453
H46 H 0.8826 0.6354 1.0467
H47 H 0.9587 0.6942 0.9050
H48 H 0.8486 0.8890 0.9073
H49 H 0.8338 0.8597 0.8161
H50 H 0.8596 0.5847 0.9009
H51 H 0.8401 0.6714 0.8129
H52 H 0.3661 0.7562 0.5350
H53 H 0.2314 0.6518 0.3645
C50 C 0.2415(5) 0.0621(5) 0.7262(4)
C51 C 0.2889(7) -0.0158(5) 0.6704(5)
C52 C 0.3960(9) -0.0353(6) 0.6303(6)
C53 C 0.4568(7) 0.0191(6) 0.6447(6)
C54 C 0.4108(7) 0.0963(7) 0.7033(6)
C55 C 0.3061(7) 0.1168(5) 0.7402(5)
C56 C 0.1268(7) 0.0871(6) 0.7684(5)
H54 H 0.2471 -0.0554 0.6593
H55 H 0.4303 -0.0902 0.5921
H56 H 0.5274 0.0064 0.6140
H57 H 0.4529 0.1329 0.7207
H58 H 0.2703 0.1706 0.7786
H59 H 0.1253 0.0976 0.8298
H60 H 0.1051 0.0261 0.7694
H61 H 0.0710 0.1530 0.7372
loop_
_geom_bond_atom_site_label_1
_geom_bond_atom_site_label_2
_geom_bond_site_symmetry_1
_geom_bond_site_symmetry_2
Cl1 C1 1_555 1_555
C1 C2 1_555 1_555
C2 C3 1_555 1_555
C3 C4 1_555 1_555
C4 C5 1_555 1_555
C5 C6 1_555 1_555
C6 C7 1_555 1_555
C7 O1 1_555 1_555
O1 C8 1_555 1_555
C8 C5 1_555 1_555
C9 C8 1_555 1_555
C10 C8 1_555 1_555
C11 C7 1_555 1_555
C12 C11 1_555 1_555
N1 C12 1_555 1_555
C13 C11 1_555 1_555
N2 C13 1_555 1_555
C14 C6 1_555 1_555
N3 C14 1_555 1_555
C15 C2 1_555 1_555
C16 C15 1_555 1_555
C17 C16 1_555 1_555
C18 C17 1_555 1_555
C19 C17 1_555 1_555
C20 C17 1_555 1_555
C21 C16 1_555 1_555
C22 C1 1_555 1_555
C23 C22 1_555 1_555
C24 C23 1_555 1_555
C25 C24 1_555 1_555
C26 C25 1_555 1_555
C27 C26 1_555 1_555
O2 C27 1_555 1_555
C28 O2 1_555 1_555
C29 C25 1_555 1_555
C30 C28 1_555 1_555
C31 C30 1_555 1_555
C32 C31 1_555 1_555
C33 C32 1_555 1_555
C34 C33 1_555 1_555
C35 C30 1_555 1_555
C36 C34 1_555 1_555
C37 C36 1_555 1_555
C38 C32 1_555 1_555
C39 C30 1_555 1_555
C40 C27 1_555 1_555
C41 C40 1_555 1_555
C42 C41 1_555 1_555
C43 C42 1_555 1_555
C44 C43 1_555 1_555
C45 C40 1_555 1_555
C46 C44 1_555 1_555
C47 C46 1_555 1_555
C48 C42 1_555 1_555
C49 C40 1_555 1_555
H1 C3 1_555 1_555
H2 C4 1_555 1_555
H3 C9 1_555 1_555
H4 C9 1_555 1_555
H5 C9 1_555 1_555
H6 C10 1_555 1_555
H7 C10 1_555 1_555
H8 C10 1_555 1_555
H9 C18 1_555 1_555
H10 C18 1_555 1_555
H11 C18 1_555 1_555
H12 C19 1_555 1_555
H13 C19 1_555 1_555
H14 C19 1_555 1_555
H15 C20 1_555 1_555
H16 C20 1_555 1_555
H17 C20 1_555 1_555
H18 C23 1_555 1_555
H19 C24 1_555 1_555
H20 C26 1_555 1_555
H21 C29 1_555 1_555
H22 C31 1_555 1_555
H23 C31 1_555 1_555
H24 C32 1_555 1_555
H25 C33 1_555 1_555
H26 C33 1_555 1_555
H27 C34 1_555 1_555
H28 C35 1_555 1_555
H29 C35 1_555 1_555
H30 C36 1_555 1_555
H31 C36 1_555 1_555
H32 C37 1_555 1_555
H33 C38 1_555 1_555
H34 C38 1_555 1_555
H35 C39 1_555 1_555
H36 C39 1_555 1_555
H37 C41 1_555 1_555
H38 C41 1_555 1_555
H39 C42 1_555 1_555
H40 C43 1_555 1_555
H41 C43 1_555 1_555
H42 C44 1_555 1_555
H43 C45 1_555 1_555
H44 C45 1_555 1_555
H45 C46 1_555 1_555
H46 C46 1_555 1_555
H47 C47 1_555 1_555
H48 C48 1_555 1_555
H49 C48 1_555 1_555
H50 C49 1_555 1_555
H51 C49 1_555 1_555
H52 C21 1_555 1_555
H53 C15 1_555 1_555
C50 C51 1_555 1_555
C51 C52 1_555 1_555
C52 C53 1_555 1_555
C53 C54 1_555 1_555
C54 C55 1_555 1_555
C55 C50 1_555 1_555
C56 C50 1_555 1_555
H54 C51 1_555 1_555
H55 C52 1_555 1_555
H56 C53 1_555 1_555
H57 C54 1_555 1_555
H58 C55 1_555 1_555
H59 C56 1_555 1_555
H60 C56 1_555 1_555
H61 C56 1_555 1_555
C21 C22 1_555 1_555
C28 C29 1_555 1_555
C34 C35 1_555 1_555
C37 C38 1_555 1_555
C37 C39 1_555 1_555
C44 C45 1_555 1_555
C47 C48 1_555 1_555
C47 C49 1_555 1_555

#END
