
#######################################################################
#
#                 Cambridge Crystallographic Data Centre
#                                CCDC 
#
#######################################################################
#
# If this CIF has been generated from an entry in the Cambridge 
# Structural Database, then it will include bibliographic, chemical, 
# crystal, experimental, refinement or atomic coordinate data resulting 
# from the CCDC's data processing and validation procedures.
#
#######################################################################

data_MIFHOB
_chemical_formula_moiety         'C30 H32 N2 O3 S1'
_chemical_name_systematic        
8-[(benzyloxy)methyl]-7-methylidene-1-[(4-methylphenyl)sulfonyl]-3-phenyl-1,2-diazaspiro[4.5]dec-2-ene
_symmetry_cell_setting           monoclinic
_symmetry_space_group_name_H-M   'P 21/c'
_symmetry_Int_Tables_number      14
_space_group_name_Hall           '-P 2ybc'
loop_
_symmetry_equiv_pos_site_id
_symmetry_equiv_pos_as_xyz
1 x,y,z
2 -x,1/2+y,1/2-z
3 -x,-y,-z
4 x,1/2-y,1/2+z
_cell_length_a                   23.4195(13)
_cell_length_b                   6.1479(4)
_cell_length_c                   21.5093(12)
_cell_angle_alpha                90
_cell_angle_beta                 114.733(3)
_cell_angle_gamma                90
_cell_volume                     2812.84
_exptl_crystal_colour            colorless
_exptl_crystal_description       block
_cell_formula_units_Z            4
loop_
_atom_site_label
_atom_site_type_symbol
_atom_site_fract_x
_atom_site_fract_y
_atom_site_fract_z
S1 S 0.20600(2) 0.52558(8) 0.25469(2)
C1 C 0.21859(8) 0.1866(3) 0.46963(10)
N1 N 0.20260(7) 0.3580(3) 0.36264(8)
O1 O 0.49200(6) 0.7186(2) 0.37657(7)
O2 O 0.19755(7) 0.3107(2) 0.22680(7)
C2 C 0.17348(10) 0.0248(4) 0.44039(11)
H1 H 0.1514 0.0157 0.3920
N2 N 0.23059(7) 0.5216(3) 0.33899(8)
O3 O 0.24793(6) 0.6722(2) 0.24223(7)
C3 C 0.16075(12) -0.1229(4) 0.48173(13)
H2 H 0.1299 -0.2324 0.4616
C4 C 0.23510(8) 0.3411(3) 0.42777(10)
C5 C 0.25008(9) 0.1959(3) 0.54088(10)
H3 H 0.2809 0.3051 0.5617
C6 C 0.23674(11) 0.0470(4) 0.58160(12)
H4 H 0.2582 0.0553 0.6300
C7 C 0.19273(12) -0.1114(5) 0.55196(13)
H5 H 0.1841 -0.2141 0.5799
C8 C 0.28957(8) 0.4963(3) 0.45531(10)
H6 H 0.3282 0.4221 0.4873
H7 H 0.2804 0.6200 0.4792
C9 C 0.29626(8) 0.5726(3) 0.39078(9)
C10 C 0.37649(8) 0.8546(3) 0.44808(10)
C11 C 0.31076(8) 0.8167(3) 0.39336(10)
H8 H 0.3080 0.8662 0.3484
H9 H 0.2799 0.9000 0.4042
C12 C 0.42798(8) 0.7332(3) 0.43743(10)
H10 H 0.4679 0.7530 0.4795
C13 C 0.41256(8) 0.4888(3) 0.42971(10)
H11 H 0.4428 0.4131 0.4159
H12 H 0.4178 0.4295 0.4746
C14 C 0.34555(8) 0.4419(3) 0.37672(10)
H13 H 0.3367 0.2847 0.3773
H14 H 0.3423 0.4786 0.3305
C15 C 0.38763(10) 0.9746(3) 0.50297(11)
H15 H 0.3537 1.0408 0.5092
H16 H 0.4295 0.9947 0.5362
C16 C 0.43814(9) 0.8250(3) 0.37710(11)
H17 H 0.4009 0.7970 0.3338
H18 H 0.4452 0.9840 0.3823
C17 C 0.50874(9) 0.7998(3) 0.32462(10)
H19 H 0.5207 0.9550 0.3333
H20 H 0.4724 0.7880 0.2795
C18 C 0.56327(9) 0.6694(3) 0.32457(10)
C19 C 0.59541(10) 0.7454(4) 0.28703(11)
H21 H 0.5835 0.8796 0.2632
C20 C 0.64476(10) 0.6258(4) 0.28427(11)
H22 H 0.6665 0.6789 0.2587
C21 C 0.66222(10) 0.4305(4) 0.31865(11)
H23 H 0.6957 0.3484 0.3164
C22 C 0.63082(10) 0.3544(4) 0.35644(11)
H24 H 0.6431 0.2205 0.3804
C23 C 0.58140(9) 0.4733(3) 0.35941(11)
H25 H 0.5600 0.4201 0.3854
C24 C 0.13163(8) 0.6512(3) 0.22759(9)
C25 C 0.07829(9) 0.5452(3) 0.18268(11)
H26 H 0.0810 0.4032 0.1667
C26 C 0.02060(9) 0.6505(4) 0.16122(11)
H27 H -0.0163 0.5791 0.1301
C27 C 0.01576(9) 0.8573(4) 0.18425(10)
C28 C 0.07060(10) 0.9590(3) 0.22952(11)
H28 H 0.0681 1.1003 0.2461
C29 C 0.12850(9) 0.8591(3) 0.25088(10)
H29 H 0.1656 0.9317 0.2810
C30 C -0.04646(11) 0.9730(4) 0.16020(13)
H30 H -0.0472 1.0940 0.1302
H31 H -0.0522 1.0292 0.1998
H32 H -0.0805 0.8710 0.1349
loop_
_geom_bond_atom_site_label_1
_geom_bond_atom_site_label_2
_geom_bond_site_symmetry_1
_geom_bond_site_symmetry_2
S1 O2 1_555 1_555
C1 C2 1_555 1_555
N1 N2 1_555 1_555
O1 C16 1_555 1_555
C2 H1 1_555 1_555
N2 S1 1_555 1_555
O3 S1 1_555 1_555
C3 C2 1_555 1_555
H2 C3 1_555 1_555
C4 C1 1_555 1_555
C5 C1 1_555 1_555
H3 C5 1_555 1_555
C6 C5 1_555 1_555
H4 C6 1_555 1_555
C7 C3 1_555 1_555
H5 C7 1_555 1_555
C8 C4 1_555 1_555
H6 C8 1_555 1_555
H7 C8 1_555 1_555
C9 N2 1_555 1_555
C10 C11 1_555 1_555
C11 C9 1_555 1_555
H8 C11 1_555 1_555
H9 C11 1_555 1_555
C12 C10 1_555 1_555
H10 C12 1_555 1_555
C13 C12 1_555 1_555
H11 C13 1_555 1_555
H12 C13 1_555 1_555
C14 C9 1_555 1_555
H13 C14 1_555 1_555
H14 C14 1_555 1_555
C15 C10 1_555 1_555
H15 C15 1_555 1_555
H16 C15 1_555 1_555
C16 C12 1_555 1_555
H17 C16 1_555 1_555
H18 C16 1_555 1_555
C17 O1 1_555 1_555
H19 C17 1_555 1_555
H20 C17 1_555 1_555
C18 C17 1_555 1_555
C19 C18 1_555 1_555
H21 C19 1_555 1_555
C20 C19 1_555 1_555
H22 C20 1_555 1_555
C21 C20 1_555 1_555
H23 C21 1_555 1_555
C22 C21 1_555 1_555
H24 C22 1_555 1_555
C23 C18 1_555 1_555
H25 C23 1_555 1_555
C24 S1 1_555 1_555
C25 C24 1_555 1_555
H26 C25 1_555 1_555
C26 C25 1_555 1_555
H27 C26 1_555 1_555
C27 C26 1_555 1_555
C28 C27 1_555 1_555
H28 C28 1_555 1_555
C29 C24 1_555 1_555
H29 C29 1_555 1_555
C30 C27 1_555 1_555
H30 C30 1_555 1_555
H31 C30 1_555 1_555
H32 C30 1_555 1_555
N1 C4 1_555 1_555
C6 C7 1_555 1_555
C8 C9 1_555 1_555
C13 C14 1_555 1_555
C22 C23 1_555 1_555
C28 C29 1_555 1_555

#END
