
#######################################################################
#
#                 Cambridge Crystallographic Data Centre
#                                CCDC 
#
#######################################################################
#
# If this CIF has been generated from an entry in the Cambridge 
# Structural Database, then it will include bibliographic, chemical, 
# crystal, experimental, refinement or atomic coordinate data resulting 
# from the CCDC's data processing and validation procedures.
#
#######################################################################

data_MIFJET
_chemical_formula_moiety         'C33 H25 B1 F2 N4'
_chemical_name_systematic        
5,5-difluoro-1,3,7,9-tetramethyl-10-phenyl-2,8-bis[(pyridin-4-yl)ethynyl]-5H-6\l^5^,5\l^5^-dipyrrolo[1,2-c:2',1'-f][1,3,2]diazaborinine
_symmetry_cell_setting           monoclinic
_symmetry_space_group_name_H-M   'P 21/n'
_symmetry_Int_Tables_number      14
_space_group_name_Hall           '-P 2yn'
loop_
_symmetry_equiv_pos_site_id
_symmetry_equiv_pos_as_xyz
1 x,y,z
2 1/2-x,1/2+y,1/2-z
3 -x,-y,-z
4 1/2+x,1/2-y,1/2+z
_cell_length_a                   6.8589(4)
_cell_length_b                   18.4294(11)
_cell_length_c                   20.7665(12)
_cell_angle_alpha                90
_cell_angle_beta                 94.9492(19)
_cell_angle_gamma                90
_cell_volume                     2615.21
_exptl_crystal_colour            'greenish red'
_exptl_crystal_description       prism
_cell_formula_units_Z            4
loop_
_atom_site_label
_atom_site_type_symbol
_atom_site_fract_x
_atom_site_fract_y
_atom_site_fract_z
F1 F 0.37536(15) 0.59703(5) 0.01240(5)
F2 F 0.55192(15) 0.68865(6) 0.06133(5)
N1 N 0.2855(2) 0.71994(8) -0.01704(7)
N2 N 0.5913(2) 0.66384(8) -0.05123(7)
N3 N -0.8025(3) 0.96100(10) 0.07435(9)
N4 N 1.6327(3) 0.48141(9) -0.23599(9)
C1 C 0.1411(3) 0.74142(9) 0.01850(8)
C2 C 0.0168(3) 0.79014(9) -0.01844(8)
C3 C 0.0924(2) 0.80014(9) -0.07798(8)
C4 C 0.2604(2) 0.75512(9) -0.07725(8)
C5 C 0.3932(2) 0.74353(9) -0.12343(8)
C6 C 0.5541(2) 0.69754(9) -0.11156(8)
C7 C 0.7020(2) 0.67655(9) -0.15138(8)
C8 C 0.8302(3) 0.63213(9) -0.11313(8)
C9 C 0.7567(2) 0.62485(9) -0.05200(8)
C10 C 0.1243(3) 0.71879(11) 0.08636(9)
H1 H 0.1676 0.6683 0.0920
H2 H -0.0123 0.7229 0.0964
H3 H 0.2065 0.7502 0.1155
C11 C 0.0105(3) 0.85228(10) -0.12826(8)
H4 H 0.1176 0.8793 -0.1455
H5 H -0.0776 0.8863 -0.1089
H6 H -0.0623 0.8255 -0.1634
C12 C 0.3632(2) 0.78141(9) -0.18652(8)
C13 C 0.2271(3) 0.75501(10) -0.23428(8)
H7 H 0.1549 0.7123 -0.2268
C14 C 0.1972(3) 0.79122(11) -0.29285(9)
H8 H 0.1043 0.7733 -0.3256
C15 C 0.3020(3) 0.85318(11) -0.30371(9)
H9 H 0.2802 0.8780 -0.3438
C16 C 0.4390(3) 0.87945(10) -0.25650(9)
H10 H 0.5116 0.9220 -0.2643
C17 C 0.4698(3) 0.84335(10) -0.19777(9)
H11 H 0.5640 0.8611 -0.1653
C18 C 0.7193(3) 0.69208(10) -0.22143(8)
H12 H 0.5918 0.6850 -0.2457
H13 H 0.8152 0.6590 -0.2380
H14 H 0.7623 0.7423 -0.2264
C19 C 0.8375(3) 0.57887(10) 0.00256(9)
H15 H 0.8063 0.6007 0.0435
H16 H 0.9798 0.5753 0.0018
H17 H 0.7797 0.5303 -0.0016
C20 C -0.1541(3) 0.82327(10) 0.00198(8)
C21 C -0.3009(3) 0.85117(10) 0.01713(9)
C22 C -0.7645(3) 0.95661(10) 0.01258(10)
H18 H -0.8528 0.9795 -0.0189
C23 C -0.6048(3) 0.92083(10) -0.00864(9)
H19 H -0.5851 0.9198 -0.0534
C24 C -0.4731(3) 0.88640(10) 0.03607(9)
C25 C -0.5133(3) 0.88921(12) 0.10041(10)
H20 H -0.4303 0.8654 0.1328
C26 C -0.6755(3) 0.92706(14) 0.11672(11)
H21 H -0.6987 0.9292 0.1611
C27 C 1.0007(3) 0.59811(9) -0.13286(8)
C28 C 1.1438(3) 0.57061(10) -0.15223(9)
C29 C 1.4849(3) 0.51305(11) -0.27124(10)
H22 H 1.4911 0.5153 -0.3167
C30 C 1.3236(3) 0.54270(10) -0.24589(9)
H23 H 1.2225 0.5646 -0.2735
C31 C 1.3103(3) 0.54024(9) -0.17904(9)
C32 C 1.4625(3) 0.50671(10) -0.14160(9)
H24 H 1.4602 0.5032 -0.0960
C33 C 1.6173(3) 0.47857(11) -0.17219(11)
H25 H 1.7200 0.4556 -0.1461
B1 B 0.4524(3) 0.66576(11) 0.00413(9)
loop_
_geom_bond_atom_site_label_1
_geom_bond_atom_site_label_2
_geom_bond_site_symmetry_1
_geom_bond_site_symmetry_2
F1 B1 1_555 1_555
F2 B1 1_555 1_555
N1 C1 1_555 1_555
N2 C6 1_555 1_555
N3 C22 1_555 1_555
N4 C29 1_555 1_555
C1 C2 1_555 1_555
C2 C3 1_555 1_555
C3 C4 1_555 1_555
C4 N1 1_555 1_555
C5 C4 1_555 1_555
C6 C5 1_555 1_555
C7 C6 1_555 1_555
C8 C7 1_555 1_555
C9 N2 1_555 1_555
C10 C1 1_555 1_555
H1 C10 1_555 1_555
H2 C10 1_555 1_555
H3 C10 1_555 1_555
C11 C3 1_555 1_555
H4 C11 1_555 1_555
H5 C11 1_555 1_555
H6 C11 1_555 1_555
C12 C5 1_555 1_555
C13 C12 1_555 1_555
H7 C13 1_555 1_555
C14 C13 1_555 1_555
H8 C14 1_555 1_555
C15 C14 1_555 1_555
H9 C15 1_555 1_555
C16 C15 1_555 1_555
H10 C16 1_555 1_555
C17 C12 1_555 1_555
H11 C17 1_555 1_555
C18 C7 1_555 1_555
H12 C18 1_555 1_555
H13 C18 1_555 1_555
H14 C18 1_555 1_555
C19 C9 1_555 1_555
H15 C19 1_555 1_555
H16 C19 1_555 1_555
H17 C19 1_555 1_555
C20 C2 1_555 1_555
C21 C20 1_555 1_555
C22 H18 1_555 1_555
C23 C22 1_555 1_555
H19 C23 1_555 1_555
C24 C21 1_555 1_555
C25 C24 1_555 1_555
H20 C25 1_555 1_555
C26 N3 1_555 1_555
H21 C26 1_555 1_555
C27 C8 1_555 1_555
C28 C27 1_555 1_555
C29 H22 1_555 1_555
C30 C29 1_555 1_555
H23 C30 1_555 1_555
C31 C28 1_555 1_555
C32 C31 1_555 1_555
H24 C32 1_555 1_555
C33 N4 1_555 1_555
H25 C33 1_555 1_555
B1 N1 1_555 1_555
N2 B1 1_555 1_555
C8 C9 1_555 1_555
C16 C17 1_555 1_555
C23 C24 1_555 1_555
C25 C26 1_555 1_555
C30 C31 1_555 1_555
C32 C33 1_555 1_555

#END
