
#######################################################################
#
#                 Cambridge Crystallographic Data Centre
#                                CCDC 
#
#######################################################################
#
# If this CIF has been generated from an entry in the Cambridge 
# Structural Database, then it will include bibliographic, chemical, 
# crystal, experimental, refinement or atomic coordinate data resulting 
# from the CCDC's data processing and validation procedures.
#
#######################################################################

data_MIFPAV
_chemical_formula_moiety         'C15 H14 O2 S1'
_chemical_name_systematic        
'2-{[(4-methylphenyl)methyl]sulfanyl}benzoic acid'
_symmetry_cell_setting           monoclinic
_symmetry_space_group_name_H-M   'C 2/c'
_symmetry_Int_Tables_number      15
_space_group_name_Hall           '-C 2yn'
loop_
_symmetry_equiv_pos_site_id
_symmetry_equiv_pos_as_xyz
1 x,y,z
2 -x,y,1/2-z
3 1/2+x,1/2+y,z
4 1/2-x,1/2+y,1/2-z
5 -x,-y,-z
6 x,-y,1/2+z
7 1/2-x,1/2-y,-z
8 1/2+x,1/2-y,1/2+z
_cell_length_a                   14.934(13)
_cell_length_b                   5.116(5)
_cell_length_c                   33.76(3)
_cell_angle_alpha                90
_cell_angle_beta                 91.523(12)
_cell_angle_gamma                90
_cell_volume                     2578.43
_exptl_crystal_colour            colorless
_exptl_crystal_description       BLOCK
_cell_formula_units_Z            8
loop_
_atom_site_label
_atom_site_type_symbol
_atom_site_fract_x
_atom_site_fract_y
_atom_site_fract_z
S1 S 0.95649(5) 0.05772(17) 0.40184(2)
C1 C 1.10655(16) -0.0180(6) 0.44986(8)
C2 C 1.19508(18) 0.0349(6) 0.46154(9)
H1 H 1.2220 -0.0644 0.4816
C3 C 1.06613(17) 0.1272(6) 0.41909(8)
C4 C 1.11632(18) 0.3286(6) 0.40281(9)
H2 H 1.0905 0.4326 0.3830
C5 C 1.20262(19) 0.3765(7) 0.41534(10)
H3 H 1.2343 0.5123 0.4039
C6 C 1.24290(19) 0.2285(7) 0.44423(10)
H4 H 1.3022 0.2591 0.4520
C7 C 0.85443(19) 0.2280(6) 0.34018(9)
C8 C 0.6908(2) 0.1272(10) 0.30145(11)
C9 C 0.7642(3) -0.0209(9) 0.29492(12)
H5 H 0.7600 -0.1597 0.2772
C10 C 0.8443(2) 0.0302(8) 0.31397(10)
H6 H 0.8934 -0.0748 0.3087
C11 C 0.7810(2) 0.3765(8) 0.34713(11)
H7 H 0.7853 0.5144 0.3650
C12 C 0.7000(2) 0.3247(10) 0.32787(13)
H8 H 0.6506 0.4284 0.3332
C13 C 1.05877(17) -0.2264(6) 0.47096(8)
O1 O 1.10577(13) -0.3387(5) 0.49922(7)
O2 O 0.98138(11) -0.2858(4) 0.46322(7)
C14 C 0.6025(3) 0.0730(12) 0.27987(14)
H9 H 0.6050 0.1372 0.2532
H10 H 0.5550 0.1592 0.2933
H11 H 0.5916 -0.1120 0.2794
C15 C 0.9426(2) 0.2821(7) 0.36077(10)
H12 H 0.9441 0.4608 0.3704
H13 H 0.9909 0.2595 0.3424
H14 H 1.074(3) -0.446(10) 0.5144(15)
loop_
_geom_bond_atom_site_label_1
_geom_bond_atom_site_label_2
_geom_bond_site_symmetry_1
_geom_bond_site_symmetry_2
S1 C3 1_555 1_555
C1 C2 1_555 1_555
C2 H1 1_555 1_555
C3 C1 1_555 1_555
C4 C3 1_555 1_555
H2 C4 1_555 1_555
C5 C4 1_555 1_555
H3 C5 1_555 1_555
C6 C2 1_555 1_555
H4 C6 1_555 1_555
C7 C10 1_555 1_555
C8 C9 1_555 1_555
C9 H5 1_555 1_555
C10 C9 1_555 1_555
H6 C10 1_555 1_555
C11 C7 1_555 1_555
H7 C11 1_555 1_555
C12 C8 1_555 1_555
H8 C12 1_555 1_555
C13 C1 1_555 1_555
O1 C13 1_555 1_555
O2 C13 1_555 1_555
C14 C8 1_555 1_555
H9 C14 1_555 1_555
H10 C14 1_555 1_555
H11 C14 1_555 1_555
C15 S1 1_555 1_555
H12 C15 1_555 1_555
H13 C15 1_555 1_555
H14 O1 1_555 1_555
C5 C6 1_555 1_555
C7 C15 1_555 1_555
C11 C12 1_555 1_555

#END
