
#######################################################################
#
#                 Cambridge Crystallographic Data Centre
#                                CCDC 
#
#######################################################################
#
# If this CIF has been generated from an entry in the Cambridge 
# Structural Database, then it will include bibliographic, chemical, 
# crystal, experimental, refinement or atomic coordinate data resulting 
# from the CCDC's data processing and validation procedures.
#
#######################################################################

data_MIFSAV01
_chemical_formula_moiety         'C25 H17 N3'
_chemical_name_systematic        
5-(4-phenyl-1,2,3,4-tetrahydronaphthalen-1-yl)benzene-1,2,4-tricarbonitrile
_symmetry_cell_setting           orthorhombic
_symmetry_space_group_name_H-M   'P n a 21'
_symmetry_Int_Tables_number      33
_space_group_name_Hall           'P 2c -2n'
loop_
_symmetry_equiv_pos_site_id
_symmetry_equiv_pos_as_xyz
1 x,y,z
2 -x,-y,1/2+z
3 1/2+x,1/2-y,z
4 1/2-x,1/2+y,1/2+z
_cell_length_a                   22.249(3)
_cell_length_b                   9.2420(14)
_cell_length_c                   9.1181(12)
_cell_angle_alpha                90
_cell_angle_beta                 90
_cell_angle_gamma                90
_cell_volume                     1874.91
_cell_formula_units_Z            4
loop_
_atom_site_label
_atom_site_type_symbol
_atom_site_fract_x
_atom_site_fract_y
_atom_site_fract_z
C1 C 0.55523(11) 0.0114(3) 0.2842(3)
H1 H 0.5924 0.0372 0.2401
C2 C 0.54370(12) -0.1329(3) 0.3160(3)
H2 H 0.5734 -0.2045 0.2973
C3 C 0.48867(12) -0.1719(3) 0.3750(3)
H3 H 0.4799 -0.2706 0.3943
C4 C 0.44672(12) -0.0662(3) 0.4054(3)
H4 H 0.4091 -0.0930 0.4468
C5 C 0.41107(11) 0.1911(2) 0.4199(3)
H5 H 0.3998 0.1708 0.5241
C6 C 0.43494(11) 0.3473(3) 0.4141(3)
H6 H 0.4007 0.4156 0.4132
H7 H 0.4592 0.3670 0.5028
C7 C 0.47329(11) 0.3714(3) 0.2783(3)
H8 H 0.4851 0.4745 0.2721
H9 H 0.4497 0.3472 0.1895
C8 C 0.52993(10) 0.2763(2) 0.2848(3)
H10 H 0.5491 0.2793 0.1857
C9 C 0.45852(10) 0.0803(2) 0.3765(3)
C10 C 0.51324(10) 0.1195(2) 0.3159(3)
C11 C 0.30160(11) 0.1233(2) 0.1028(3)
C12 C 0.24696(11) 0.1690(2) 0.1635(3)
C13 C 0.24559(10) 0.2161(2) 0.3079(3)
H11 H 0.2087 0.2441 0.3519
C14 C 0.29857(10) 0.2218(2) 0.3873(3)
C15 C 0.35392(10) 0.1780(2) 0.3286(3)
C16 C 0.35409(11) 0.1273(3) 0.1848(3)
H12 H 0.3907 0.0949 0.1422
C17 C 0.30175(11) 0.0725(3) -0.0465(3)
C18 C 0.19231(12) 0.1679(3) 0.0777(3)
C19 C 0.29552(11) 0.2780(3) 0.5354(3)
C20 C 0.57557(10) 0.3357(2) 0.3947(3)
C21 C 0.58735(11) 0.2703(3) 0.5296(3)
H13 H 0.5667 0.1842 0.5560
C22 C 0.62899(12) 0.3297(3) 0.6259(3)
H14 H 0.6364 0.2842 0.7175
C23 C 0.65967(12) 0.4544(3) 0.5891(3)
H15 H 0.6884 0.4942 0.6548
C24 C 0.64838(11) 0.5211(3) 0.4564(3)
H16 H 0.6692 0.6071 0.4308
C25 C 0.60671(11) 0.4626(2) 0.3606(3)
H17 H 0.5991 0.5096 0.2699
N1 N 0.29985(10) 0.0308(2) -0.1650(3)
N2 N 0.14923(10) 0.1690(3) 0.0103(3)
N3 N 0.29254(11) 0.3264(2) 0.6499(3)
loop_
_geom_bond_atom_site_label_1
_geom_bond_atom_site_label_2
_geom_bond_site_symmetry_1
_geom_bond_site_symmetry_2
C1 H1 1_555 1_555
C2 C1 1_555 1_555
H2 C2 1_555 1_555
C3 C2 1_555 1_555
H3 C3 1_555 1_555
C4 C3 1_555 1_555
H4 C4 1_555 1_555
C5 H5 1_555 1_555
C6 C5 1_555 1_555
H6 C6 1_555 1_555
H7 C6 1_555 1_555
C7 C6 1_555 1_555
H8 C7 1_555 1_555
H9 C7 1_555 1_555
C8 C7 1_555 1_555
H10 C8 1_555 1_555
C9 C4 1_555 1_555
C10 C1 1_555 1_555
C11 C12 1_555 1_555
C12 C13 1_555 1_555
C13 H11 1_555 1_555
C14 C13 1_555 1_555
C15 C5 1_555 1_555
C16 C11 1_555 1_555
H12 C16 1_555 1_555
C17 C11 1_555 1_555
C18 C12 1_555 1_555
C19 C14 1_555 1_555
C20 C8 1_555 1_555
C21 C20 1_555 1_555
H13 C21 1_555 1_555
C22 C21 1_555 1_555
H14 C22 1_555 1_555
C23 C22 1_555 1_555
H15 C23 1_555 1_555
C24 C23 1_555 1_555
H16 C24 1_555 1_555
C25 C20 1_555 1_555
H17 C25 1_555 1_555
N1 C17 1_555 1_555
N2 C18 1_555 1_555
N3 C19 1_555 1_555
C5 C9 1_555 1_555
C8 C10 1_555 1_555
C9 C10 1_555 1_555
C14 C15 1_555 1_555
C15 C16 1_555 1_555
C24 C25 1_555 1_555

#END
