
#######################################################################
#
#                 Cambridge Crystallographic Data Centre
#                                CCDC 
#
#######################################################################
#
# If this CIF has been generated from an entry in the Cambridge 
# Structural Database, then it will include bibliographic, chemical, 
# crystal, experimental, refinement or atomic coordinate data resulting 
# from the CCDC's data processing and validation procedures.
#
#######################################################################

data_MIFTAW
_chemical_formula_moiety         'C20 H16 N2 O4'
_chemical_name_systematic        
1-Acetyl-2-oxo-4'-methyl-2a'-phenylspiro(3H-indole-3,2'(2a'H,5a'H)oxeto(3,2-d)oxazole)
_symmetry_cell_setting           triclinic
_symmetry_space_group_name_H-M   'P -1'
_symmetry_Int_Tables_number      2
_space_group_name_Hall           '-P 1'
loop_
_symmetry_equiv_pos_site_id
_symmetry_equiv_pos_as_xyz
1 x,y,z
2 -x,-y,-z
_cell_length_a                   9.2852(2)
_cell_length_b                   9.5994(4)
_cell_length_c                   10.6206(5)
_cell_angle_alpha                67.3230(10)
_cell_angle_beta                 73.2870(10)
_cell_angle_gamma                84.7610(10)
_cell_volume                     836.355
_exptl_crystal_colour            colorless
_exptl_crystal_description       block
_chemical_melting_point          424K
_cell_formula_units_Z            2
_exptl_crystal_recrystallization_method 'acetone/petroleum ether'
loop_
_atom_site_label
_atom_site_type_symbol
_atom_site_fract_x
_atom_site_fract_y
_atom_site_fract_z
O1 O 0.73162(18) 0.46115(18) 0.17428(18)
O2 O 0.4581(3) 0.8073(2) 0.2535(3)
O3 O 0.59034(17) 0.17230(17) 0.38008(17)
O4 O 0.68861(17) 0.09000(18) 0.18859(17)
N1 N 0.5148(2) 0.5662(2) 0.2788(2)
N2 N 0.5650(2) 0.2937(2) 0.0733(2)
C1 C 0.3804(3) 0.4986(3) 0.3896(3)
C2 C 0.2673(3) 0.5662(3) 0.4634(3)
H1 H 0.2694 0.6694 0.4430
C3 C 0.1508(3) 0.4725(4) 0.5693(3)
H2 H 0.0729 0.5147 0.6197
C4 C 0.1478(3) 0.3191(4) 0.6014(3)
H3 H 0.0688 0.2596 0.6733
C5 C 0.2614(3) 0.2524(3) 0.5277(3)
H4 H 0.2598 0.1490 0.5490
C6 C 0.3779(3) 0.3446(3) 0.4210(2)
C7 C 0.5068(2) 0.3057(2) 0.3206(2)
C8 C 0.6032(2) 0.4503(3) 0.2458(2)
C9 C 0.5495(3) 0.7224(3) 0.2165(3)
C10 C 0.6952(4) 0.7772(3) 0.1085(3)
H5 H 0.7758 0.7253 0.1465
H6 H 0.7067 0.8837 0.0833
H7 H 0.6976 0.7579 0.0257
C11 C 0.4711(2) 0.2319(2) 0.2206(2)
C12 C 0.5591(2) 0.0973(3) 0.2963(2)
H8 H 0.5007 0.0025 0.3511
C13 C 0.6799(2) 0.2101(3) 0.0673(3)
C14 C 0.8079(3) 0.2259(3) -0.0594(3)
H9 H 0.8187 0.1334 -0.0757
H10 H 0.8986 0.2479 -0.0437
H11 H 0.7894 0.3067 -0.1407
C15 C 0.3073(2) 0.2197(2) 0.2306(2)
C16 C 0.2345(3) 0.3512(3) 0.1696(2)
H12 H 0.2876 0.4428 0.1218
C17 C 0.0826(3) 0.3456(3) 0.1801(3)
H13 H 0.0340 0.4335 0.1389
C18 C 0.0033(3) 0.2098(3) 0.2516(3)
H14 H -0.0990 0.2063 0.2599
C19 C 0.0760(3) 0.0794(3) 0.3105(3)
H15 H 0.0230 -0.0123 0.3568
C20 C 0.2277(3) 0.0836(3) 0.3011(3)
H16 H 0.2758 -0.0046 0.3421
loop_
_geom_bond_atom_site_label_1
_geom_bond_atom_site_label_2
_geom_bond_site_symmetry_1
_geom_bond_site_symmetry_2
O1 C8 1_555 1_555
O2 C9 1_555 1_555
O3 C7 1_555 1_555
O4 C12 1_555 1_555
N1 C1 1_555 1_555
N2 C11 1_555 1_555
C1 C2 1_555 1_555
C2 H1 1_555 1_555
C3 C2 1_555 1_555
H2 C3 1_555 1_555
C4 C3 1_555 1_555
H3 C4 1_555 1_555
C5 C4 1_555 1_555
H4 C5 1_555 1_555
C6 C1 1_555 1_555
C7 C6 1_555 1_555
C8 N1 1_555 1_555
C9 N1 1_555 1_555
C10 C9 1_555 1_555
H5 C10 1_555 1_555
H6 C10 1_555 1_555
H7 C10 1_555 1_555
C11 C7 1_555 1_555
C12 O3 1_555 1_555
H8 C12 1_555 1_555
C13 O4 1_555 1_555
C14 C13 1_555 1_555
H9 C14 1_555 1_555
H10 C14 1_555 1_555
H11 C14 1_555 1_555
C15 C11 1_555 1_555
C16 C15 1_555 1_555
H12 C16 1_555 1_555
C17 C16 1_555 1_555
H13 C17 1_555 1_555
C18 C17 1_555 1_555
H14 C18 1_555 1_555
C19 C18 1_555 1_555
H15 C19 1_555 1_555
C20 C15 1_555 1_555
H16 C20 1_555 1_555
N2 C13 1_555 1_555
C5 C6 1_555 1_555
C7 C8 1_555 1_555
C11 C12 1_555 1_555
C19 C20 1_555 1_555

#END
