
#######################################################################
#
#                 Cambridge Crystallographic Data Centre
#                                CCDC 
#
#######################################################################
#
# If this CIF has been generated from an entry in the Cambridge 
# Structural Database, then it will include bibliographic, chemical, 
# crystal, experimental, refinement or atomic coordinate data resulting 
# from the CCDC's data processing and validation procedures.
#
#######################################################################

data_MIFWAZ
_chemical_name_common            'PDB Chemical Component code: BNT'
_chemical_formula_moiety         'C10 H10 Br2 O2'
_chemical_name_systematic        
2,5-Dibromo-6-isopropyl-3-methyl-p-benzoquinone
_chemical_properties_biological  
'inhibitor of respiratory and photosynthetic processes'
_symmetry_cell_setting           monoclinic
_symmetry_space_group_name_H-M   'C c'
_symmetry_Int_Tables_number      9
_space_group_name_Hall           'C -2yc'
loop_
_symmetry_equiv_pos_site_id
_symmetry_equiv_pos_as_xyz
1 x,y,z
2 x,-y,1/2+z
3 1/2+x,1/2+y,z
4 1/2+x,1/2-y,1/2+z
_cell_length_a                   5.4507(2)
_cell_length_b                   18.5945(9)
_cell_length_c                   11.4256(6)
_cell_angle_alpha                90
_cell_angle_beta                 100.941(3)
_cell_angle_gamma                90
_cell_volume                     1136.97
_exptl_crystal_colour            yellow
_exptl_crystal_description       rod
_chemical_melting_point          343K
_cell_formula_units_Z            4
_exptl_crystal_recrystallization_method methanol
loop_
_atom_site_label
_atom_site_type_symbol
_atom_site_fract_x
_atom_site_fract_y
_atom_site_fract_z
O1 O 0.6118(7) 0.12918(18) 0.6483(3)
C1 C 0.5103(7) 0.09766(19) 0.7196(3)
C2 C 0.5612(7) 0.0203(2) 0.7464(3)
Br1 Br 0.78142(7) -0.02215(2) 0.65665(4)
C3 C 0.4630(8) -0.01686(19) 0.8259(4)
C4 C 0.5110(13) -0.0950(2) 0.8549(5)
H1 H 0.4641 -0.1232 0.7838
H2 H 0.4143 -0.1098 0.9127
H3 H 0.6854 -0.1020 0.8869
C5 C 0.2946(7) 0.0223(2) 0.8934(3)
O2 O 0.1980(7) -0.0095(2) 0.9650(3)
C6 C 0.2491(7) 0.09999(19) 0.8687(3)
Br2 Br 0.04670(6) 0.14325(2) 0.96623(3)
C7 C 0.3369(8) 0.1366(2) 0.7847(3)
C8 C 0.2736(9) 0.2142(2) 0.7493(4)
H4 H 0.1531 0.2307 0.7970
C9 C 0.5040(11) 0.2635(2) 0.7795(5)
H5 H 0.6276 0.2485 0.7348
H6 H 0.5723 0.2604 0.8632
H7 H 0.4556 0.3122 0.7592
C10 C 0.1496(11) 0.2216(3) 0.6200(5)
H8 H 0.1052 0.2710 0.6032
H9 H 0.0017 0.1925 0.6045
H10 H 0.2629 0.2062 0.5702
loop_
_geom_bond_atom_site_label_1
_geom_bond_atom_site_label_2
_geom_bond_site_symmetry_1
_geom_bond_site_symmetry_2
O1 C1 1_555 1_555
C1 C2 1_555 1_555
C2 Br1 1_555 1_555
C3 C2 1_555 1_555
C4 C3 1_555 1_555
H1 C4 1_555 1_555
H2 C4 1_555 1_555
H3 C4 1_555 1_555
C5 C3 1_555 1_555
O2 C5 1_555 1_555
C6 C5 1_555 1_555
Br2 C6 1_555 1_555
C7 C1 1_555 1_555
C8 C7 1_555 1_555
H4 C8 1_555 1_555
C9 C8 1_555 1_555
H5 C9 1_555 1_555
H6 C9 1_555 1_555
H7 C9 1_555 1_555
C10 C8 1_555 1_555
H8 C10 1_555 1_555
H9 C10 1_555 1_555
H10 C10 1_555 1_555
C6 C7 1_555 1_555

#END
