
#######################################################################
#
#                 Cambridge Crystallographic Data Centre
#                                CCDC 
#
#######################################################################
#
# If this CIF has been generated from an entry in the Cambridge 
# Structural Database, then it will include bibliographic, chemical, 
# crystal, experimental, refinement or atomic coordinate data resulting 
# from the CCDC's data processing and validation procedures.
#
#######################################################################

data_MIFXOR
_chemical_formula_moiety         'C8 H12 Br1 N1 O2'
_chemical_name_systematic        
1-bromo-3-(2-nitropropan-2-yl)bicyclo[1.1.1]pentane
_symmetry_cell_setting           triclinic
_symmetry_space_group_name_H-M   'P -1'
_symmetry_Int_Tables_number      2
_space_group_name_Hall           '-P 1'
loop_
_symmetry_equiv_pos_site_id
_symmetry_equiv_pos_as_xyz
1 x,y,z
2 -x,-y,-z
_cell_length_a                   7.0213(3)
_cell_length_b                   11.7894(5)
_cell_length_c                   12.2156(5)
_cell_angle_alpha                72.797(4)
_cell_angle_beta                 86.293(4)
_cell_angle_gamma                89.879(3)
_cell_volume                     963.758
_exptl_crystal_colour            colorless
_exptl_crystal_description       plate
_chemical_melting_point          '352-353 K'
_cell_formula_units_Z            4
loop_
_atom_site_label
_atom_site_type_symbol
_atom_site_fract_x
_atom_site_fract_y
_atom_site_fract_z
Br1 Br 0.49363(4) 0.64360(2) 0.57588(2)
C1 C 0.27607(16) 0.55431(9) 0.66507(9)
C2 C 0.2410(8) 0.5212(8) 0.79649(16)
C3 C 0.0706(2) 0.47012(14) 0.74911(13)
C4 C 0.0664(3) 0.5908(5) 0.6525(6)
C5 C 0.2184(8) 0.4270(3) 0.6700(7)
C6 C -0.1077(3) 0.40473(18) 0.81501(17)
N1 N -0.0321(3) 0.30219(13) 0.91144(13)
C7 C -0.2203(4) 0.3505(2) 0.7398(2)
C8 C -0.2273(4) 0.4839(2) 0.8683(2)
O1 O -0.023(3) 0.2053(5) 0.8970(7)
O2 O 0.021(3) 0.3247(4) 0.9958(8)
H1 H 0.2143 0.5855 0.8301
H2 H 0.3244 0.4643 0.8421
H3 H 0.0304 0.6609 0.6737
H4 H 0.0143 0.5935 0.5796
H5 H 0.3027 0.3634 0.7070
H6 H 0.1758 0.4153 0.6003
H7 H -0.3302 0.3045 0.7832
H8 H -0.2665 0.4123 0.6763
H9 H -0.1385 0.2997 0.7084
H10 H -0.3297 0.4378 0.9176
H11 H -0.1502 0.5181 0.9123
H12 H -0.2808 0.5447 0.8081
Br2 Br 0.11029(4) 1.13200(3) 0.57872(2)
C12 C 0.30467(17) 1.04404(10) 0.67272(9)
C13 C 0.3035(8) 1.0130(9) 0.80430(17)
C14 C 0.4882(2) 0.96119(15) 0.76123(13)
C15 C 0.5165(4) 1.0807(5) 0.6636(6)
C16 C 0.3639(11) 0.9163(4) 0.6807(7)
C17 C 0.6498(3) 0.89691(18) 0.82944(16)
N2 N 0.5522(3) 0.79537(14) 0.92639(13)
C18 C 0.7815(4) 0.8409(2) 0.7570(2)
C19 C 0.7559(4) 0.9773(2) 0.8816(2)
O5 O 0.547(2) 0.6980(5) 0.9131(7)
O6 O 0.479(2) 0.8191(4) 1.0101(8)
H19 H 0.3195 1.0768 0.8384
H20 H 0.2090 0.9563 0.8499
H21 H 0.5432 1.1522 0.6835
H22 H 0.5943 1.0797 0.5949
H23 H 0.2696 0.8547 0.7169
H24 H 0.4277 0.9028 0.6135
H25 H 0.8741 0.7924 0.8025
H26 H 0.8454 0.9022 0.6953
H27 H 0.7083 0.7923 0.7241
H28 H 0.8493 0.9331 0.9316
H29 H 0.6690 1.0122 0.9266
H30 H 0.8207 1.0401 0.8200
O3? O 0.043(2) 0.2201(8) 0.8852(3)
O4? O -0.050(2) 0.3088(8) 1.0091(4)
C9? C 0.2099(13) 0.5506(11) 0.7887(5)
C10? C 0.0678(4) 0.5696(9) 0.6323(6)
C11? C 0.2481(10) 0.4187(2) 0.6981(11)
H13? H 0.1610 0.6228 0.8015
H14? H 0.2899 0.5111 0.8499
H15? H 0.0079 0.6450 0.6313
H16? H 0.0359 0.5470 0.5653
H17? H 0.3325 0.3710 0.7509
H18? H 0.2296 0.3838 0.6369
O7? O 0.482(2) 0.7127(8) 0.9007(3)
O8? O 0.546(2) 0.8036(8) 1.0233(4)
C20? C 0.3372(11) 1.0435(9) 0.7962(4)
C21? C 0.5213(3) 1.0583(8) 0.6432(5)
C22? C 0.3256(11) 0.90830(17) 0.7091(9)
H31? H 0.3835 1.1158 0.8067
H32? H 0.2418 1.0047 0.8569
H33? H 0.5812 1.1333 0.6413
H34? H 0.5732 1.0324 0.5791
H35? H 0.2260 0.8610 0.7609
H36? H 0.3631 0.8732 0.6486
loop_
_geom_bond_atom_site_label_1
_geom_bond_atom_site_label_2
_geom_bond_site_symmetry_1
_geom_bond_site_symmetry_2
Br1 C1 1_555 1_555
C1 C2 1_555 1_555
C2 C3 1_555 1_555
C3 C4 1_555 1_555
C4 C1 1_555 1_555
C5 C1 1_555 1_555
C6 C3 1_555 1_555
N1 C6 1_555 1_555
C7 C6 1_555 1_555
C8 C6 1_555 1_555
O1 N1 1_555 1_555
O2 N1 1_555 1_555
H1 C2 1_555 1_555
H2 C2 1_555 1_555
H3 C4 1_555 1_555
H4 C4 1_555 1_555
H5 C5 1_555 1_555
H6 C5 1_555 1_555
H7 C7 1_555 1_555
H8 C7 1_555 1_555
H9 C7 1_555 1_555
H10 C8 1_555 1_555
H11 C8 1_555 1_555
H12 C8 1_555 1_555
Br2 C12 1_555 1_555
C12 C13 1_555 1_555
C13 C14 1_555 1_555
C14 C15 1_555 1_555
C15 C12 1_555 1_555
C16 C12 1_555 1_555
C17 C14 1_555 1_555
N2 C17 1_555 1_555
C18 C17 1_555 1_555
C19 C17 1_555 1_555
O5 N2 1_555 1_555
O6 N2 1_555 1_555
H19 C13 1_555 1_555
H20 C13 1_555 1_555
H21 C15 1_555 1_555
H22 C15 1_555 1_555
H23 C16 1_555 1_555
H24 C16 1_555 1_555
H25 C18 1_555 1_555
H26 C18 1_555 1_555
H27 C18 1_555 1_555
H28 C19 1_555 1_555
H29 C19 1_555 1_555
H30 C19 1_555 1_555
C3 C5 1_555 1_555
C14 C16 1_555 1_555

#END
