
#######################################################################
#
#                 Cambridge Crystallographic Data Centre
#                                CCDC 
#
#######################################################################
#
# If this CIF has been generated from an entry in the Cambridge 
# Structural Database, then it will include bibliographic, chemical, 
# crystal, experimental, refinement or atomic coordinate data resulting 
# from the CCDC's data processing and validation procedures.
#
#######################################################################

data_MIFXOO
_chemical_formula_moiety         'C8 H7 N1 O2 S1'
_chemical_name_systematic        'p-Tolylsulfonyl cyanide'
_symmetry_cell_setting           monoclinic
_symmetry_space_group_name_H-M   'P 21/c'
_symmetry_Int_Tables_number      14
_space_group_name_Hall           '-P 2ybc'
loop_
_symmetry_equiv_pos_site_id
_symmetry_equiv_pos_as_xyz
1 x,y,z
2 x,1/2-y,1/2+z
3 -x,-y,-z
4 -x,1/2+y,1/2-z
_cell_length_a                   6.5810(4)
_cell_length_b                   15.3770(10)
_cell_length_c                   8.3671(5)
_cell_angle_alpha                90
_cell_angle_beta                 93.490(10)
_cell_angle_gamma                90
_cell_volume                     845.147
_exptl_crystal_colour            colorless
_exptl_crystal_description       prism
_chemical_melting_point          321K
_cell_formula_units_Z            4
loop_
_atom_site_label
_atom_site_type_symbol
_atom_site_fract_x
_atom_site_fract_y
_atom_site_fract_z
S1 S 1.18519(7) 0.60506(3) 0.35505(5)
O1 O 1.0607(2) 0.53021(8) 0.32912(17)
O2 O 1.3344(2) 0.62846(10) 0.24654(17)
N1 N 1.4228(3) 0.57551(11) 0.6538(2)
C1 C 1.0421(3) 0.69537(11) 0.4023(2)
C2 C 0.8574(3) 0.68434(12) 0.4720(2)
C3 C 0.7475(3) 0.75796(12) 0.5081(2)
C4 C 0.8175(3) 0.84086(11) 0.4740(2)
C5 C 1.0032(3) 0.84929(11) 0.4039(2)
C6 C 1.1172(3) 0.77714(11) 0.3683(2)
C7 C 0.6962(3) 0.91988(13) 0.5144(3)
C8 C 1.3263(3) 0.58573(11) 0.5387(2)
H1 H 0.813(3) 0.6252(14) 0.495(3)
H2 H 0.623(4) 0.7520(15) 0.554(3)
H3 H 1.045(3) 0.9052(14) 0.379(3)
H4 H 1.251(3) 0.7850(12) 0.322(2)
H5 H 0.730(4) 0.9669(17) 0.455(3)
H6 H 0.550(4) 0.9084(16) 0.492(3)
H7 H 0.730(5) 0.9373(19) 0.621(4)
loop_
_geom_bond_atom_site_label_1
_geom_bond_atom_site_label_2
_geom_bond_site_symmetry_1
_geom_bond_site_symmetry_2
S1 O1 1_555 1_555
O2 S1 1_555 1_555
N1 C8 1_555 1_555
C1 S1 1_555 1_555
C2 C1 1_555 1_555
C3 C2 1_555 1_555
C4 C3 1_555 1_555
C5 C4 1_555 1_555
C6 C1 1_555 1_555
C7 C4 1_555 1_555
C8 S1 1_555 1_555
H1 C2 1_555 1_555
H2 C3 1_555 1_555
H3 C5 1_555 1_555
H4 C6 1_555 1_555
H5 C7 1_555 1_555
H6 C7 1_555 1_555
H7 C7 1_555 1_555
C5 C6 1_555 1_555

#END
