
#######################################################################
#
#                 Cambridge Crystallographic Data Centre
#                                CCDC 
#
#######################################################################
#
# If this CIF has been generated from an entry in the Cambridge 
# Structural Database, then it will include bibliographic, chemical, 
# crystal, experimental, refinement or atomic coordinate data resulting 
# from the CCDC's data processing and validation procedures.
#
#######################################################################

data_MIFXIL
_chemical_formula_moiety         'C13 H12 F3 I1'
_chemical_name_systematic        
1-iodo-3-{[4-(trifluoromethyl)phenyl]methyl}bicyclo[1.1.1]pentane
_symmetry_cell_setting           triclinic
_symmetry_space_group_name_H-M   'P -1'
_symmetry_Int_Tables_number      2
_space_group_name_Hall           '-P 1'
loop_
_symmetry_equiv_pos_site_id
_symmetry_equiv_pos_as_xyz
1 x,y,z
2 -x,-y,-z
_cell_length_a                   5.6020(3)
_cell_length_b                   8.9978(5)
_cell_length_c                   13.3874(9)
_cell_angle_alpha                95.953(5)
_cell_angle_beta                 98.695(5)
_cell_angle_gamma                98.785(5)
_cell_volume                     653.643
_exptl_crystal_colour            colorless
_exptl_crystal_description       lath
_chemical_melting_point          '357-359 K'
_cell_formula_units_Z            2
loop_
_atom_site_label
_atom_site_type_symbol
_atom_site_fract_x
_atom_site_fract_y
_atom_site_fract_z
I1 I 0.03796(5) 0.26735(3) 0.40078(2)
C1 C 0.2373(7) 0.2627(4) 0.5493(3)
C2 C 0.4318(9) 0.3898(5) 0.6131(4)
C3 C 0.4040(7) 0.2551(4) 0.6773(3)
C4 C 0.1215(8) 0.2387(5) 0.6449(3)
C5 C 0.4051(8) 0.1483(5) 0.5779(3)
C6 C 0.5394(8) 0.2471(5) 0.7832(3)
C7 C 0.4594(7) 0.0960(5) 0.8176(3)
C8 C 0.5664(8) -0.0292(6) 0.7916(4)
C9 C 0.4894(9) -0.1691(6) 0.8190(4)
C10 C 0.2962(7) -0.1884(4) 0.8746(3)
C11 C 0.1873(9) -0.0662(6) 0.8998(3)
C12 C 0.2676(9) 0.0741(5) 0.8729(3)
C13 C 0.2094(6) -0.3398(3) 0.9039(2)
F1 F 0.0259(18) -0.4210(7) 0.8350(5)
F2 F 0.3864(12) -0.4242(7) 0.9144(9)
F3 F 0.126(2) -0.3299(5) 0.9929(5)
H1 H 0.5872 0.4133 0.5890
H2 H 0.3775 0.4828 0.6365
H3 H 0.0246 0.1405 0.6475
H4 H 0.0424 0.3186 0.6722
H5 H 0.3269 0.0423 0.5731
H6 H 0.5591 0.1544 0.5517
H7 H 0.7154 0.2636 0.7825
H8 H 0.5002 0.3269 0.8299
H9 H 0.6928 -0.0185 0.7544
H10 H 0.5650 -0.2507 0.8012
H11 H 0.0549 -0.0792 0.9345
H12 H 0.1912 0.1558 0.8920
F4? F 0.120(2) -0.4441(6) 0.8230(4)
F5? F 0.3893(11) -0.3943(8) 0.9594(8)
F6? F 0.0309(18) -0.3371(6) 0.9600(8)
F7? F 0.291(4) -0.4518(6) 0.8520(13)
F8? F 0.283(4) -0.3477(9) 1.0027(6)
F9? F -0.0365(12) -0.3763(12) 0.8869(16)
loop_
_geom_bond_atom_site_label_1
_geom_bond_atom_site_label_2
_geom_bond_site_symmetry_1
_geom_bond_site_symmetry_2
I1 C1 1_555 1_555
C1 C2 1_555 1_555
C2 C3 1_555 1_555
C3 C4 1_555 1_555
C4 C1 1_555 1_555
C5 C1 1_555 1_555
C6 C3 1_555 1_555
C7 C6 1_555 1_555
C8 C7 1_555 1_555
C9 C8 1_555 1_555
C10 C9 1_555 1_555
C11 C10 1_555 1_555
C12 C7 1_555 1_555
C13 C10 1_555 1_555
F1 C13 1_555 1_555
F2 C13 1_555 1_555
F3 C13 1_555 1_555
H1 C2 1_555 1_555
H2 C2 1_555 1_555
H3 C4 1_555 1_555
H4 C4 1_555 1_555
H5 C5 1_555 1_555
H6 C5 1_555 1_555
H7 C6 1_555 1_555
H8 C6 1_555 1_555
H9 C8 1_555 1_555
H10 C9 1_555 1_555
H11 C11 1_555 1_555
H12 C12 1_555 1_555
C3 C5 1_555 1_555
C11 C12 1_555 1_555

#END
