
#######################################################################
#
#                 Cambridge Crystallographic Data Centre
#                                CCDC 
#
#######################################################################
#
# If this CIF has been generated from an entry in the Cambridge 
# Structural Database, then it will include bibliographic, chemical, 
# crystal, experimental, refinement or atomic coordinate data resulting 
# from the CCDC's data processing and validation procedures.
#
#######################################################################

data_MIFXAA
_chemical_formula_moiety         'C50 H64 N2 O2'
_chemical_name_systematic        
(R)-N,N'-bis(3,5-di-t-butylsalicylidene)-5,5',6,6',7,7',8,8'-octahydro-1,1'-binaphthyl-2,2'-diamine
_symmetry_cell_setting           tetragonal
_symmetry_space_group_name_H-M   'P 43 21 2'
_symmetry_Int_Tables_number      96
_space_group_name_Hall           'P 4nw 2abw'
loop_
_symmetry_equiv_pos_site_id
_symmetry_equiv_pos_as_xyz
1 x,y,z
2 -x,-y,1/2+z
3 1/2-y,1/2+x,3/4+z
4 1/2+y,1/2-x,1/4+z
5 1/2-x,1/2+y,3/4-z
6 1/2+x,1/2-y,1/4-z
7 y,x,-z
8 -y,-x,1/2-z
_cell_length_a                   10.6183(11)
_cell_length_b                   10.6183(11)
_cell_length_c                   39.629(6)
_cell_angle_alpha                90
_cell_angle_beta                 90
_cell_angle_gamma                90
_cell_volume                     4468.1
_exptl_crystal_colour            colorless
_exptl_crystal_description       block
_cell_formula_units_Z            4
_exptl_crystal_recrystallization_method ethanol
loop_
_atom_site_label
_atom_site_type_symbol
_atom_site_fract_x
_atom_site_fract_y
_atom_site_fract_z
O1 O 0.0850(2) 0.38119(19) 0.06384(6)
H1 H 0.1555 0.3715 0.0558
N1 N 0.2840(3) 0.2587(3) 0.04082(7)
C1 C 0.4907(3) 0.1553(3) 0.03389(10)
H2 H 0.4673 0.0910 0.0486
C2 C 0.6084(3) 0.1546(3) 0.01929(9)
H3 H 0.6642 0.0900 0.0245
C3 C 0.6455(3) 0.2475(3) -0.00288(9)
C4 C 0.7743(3) 0.2404(4) -0.01874(10)
H4 H 0.8366 0.2665 -0.0023
H5 H 0.7918 0.1536 -0.0247
C5 C 0.7874(4) 0.3203(5) -0.04942(13)
H6 H 0.8764 0.3312 -0.0542
H7 H 0.7506 0.2758 -0.0684
C6 C 0.7307(4) 0.4412(4) -0.04718(11)
H8 H 0.7382 0.4822 -0.0690
H9 H 0.7779 0.4910 -0.0310
C7 C 0.5935(3) 0.4425(3) -0.03690(9)
H10 H 0.5420 0.4289 -0.0568
H11 H 0.5730 0.5250 -0.0280
C8 C 0.5606(3) 0.3439(3) -0.01075(8)
C9 C 0.4428(3) 0.3464(3) 0.00448(8)
C10 C 0.4078(3) 0.2510(3) 0.02674(8)
C11 C 0.2166(3) 0.1600(3) 0.04225(8)
H12 H 0.2494 0.0852 0.0338
C12 C 0.0904(3) 0.1586(3) 0.05652(8)
C13 C 0.0282(3) 0.2676(3) 0.06716(8)
C14 C -0.0929(3) 0.2630(3) 0.08074(8)
C15 C -0.1441(3) 0.1443(3) 0.08488(8)
H13 H -0.2238 0.1391 0.0945
C16 C -0.0853(3) 0.0308(3) 0.07568(9)
C17 C 0.0305(3) 0.0434(3) 0.06095(9)
H14 H 0.0713 -0.0289 0.0535
C18 C -0.1422(4) -0.0977(3) 0.08152(10)
C19 C -0.1655(4) -0.1627(4) 0.04808(12)
H15 H -0.2242 -0.1141 0.0350
H16 H -0.1997 -0.2451 0.0520
H17 H -0.0876 -0.1701 0.0360
C20 C -0.0499(4) -0.1781(4) 0.10204(11)
H18 H 0.0284 -0.1849 0.0901
H19 H -0.0848 -0.2606 0.1054
H20 H -0.0354 -0.1391 0.1235
C21 C -0.2666(4) -0.0920(4) 0.10061(11)
H21 H -0.3263 -0.0436 0.0879
H22 H -0.2534 -0.0530 0.1222
H23 H -0.2984 -0.1758 0.1038
C22 C -0.1656(3) 0.3798(3) 0.09235(9)
C23 C -0.2991(3) 0.3482(4) 0.10496(12)
H24 H -0.2936 0.2923 0.1240
H25 H -0.3458 0.3082 0.0872
H26 H -0.3411 0.4243 0.1116
C24 C -0.0930(4) 0.4439(4) 0.12096(11)
H27 H -0.0833 0.3862 0.1394
H28 H -0.1386 0.5168 0.1285
H29 H -0.0115 0.4691 0.1130
C25 C -0.1835(4) 0.4711(3) 0.06281(11)
H30 H -0.2295 0.4300 0.0451
H31 H -0.1026 0.4969 0.0545
H32 H -0.2295 0.5437 0.0704
C9F C 0.3464(3) 0.4428(3) -0.00448(8)
C8F C 0.3439(3) 0.5606(3) 0.01075(8)
C3F C 0.2475(3) 0.6455(3) 0.00288(9)
C2F C 0.1546(3) 0.6084(3) -0.01929(9)
C1F C 0.1553(3) 0.4907(3) -0.03389(10)
H2F H 0.0910 0.4673 -0.0486
C10F C 0.2510(3) 0.4078(3) -0.02674(8)
N1F N 0.2587(3) 0.2840(3) -0.04082(7)
C11F C 0.1600(3) 0.2166(3) -0.04225(8)
H12F H 0.0852 0.2494 -0.0338
C12F C 0.1586(3) 0.0904(3) -0.05652(8)
C13F C 0.2676(3) 0.0282(3) -0.06716(8)
O1F O 0.38119(19) 0.0850(2) -0.06384(6)
H1F H 0.3715 0.1555 -0.0558
C14F C 0.2630(3) -0.0929(3) -0.08074(8)
C15F C 0.1443(3) -0.1441(3) -0.08488(8)
H13F H 0.1391 -0.2238 -0.0945
C16F C 0.0308(3) -0.0853(3) -0.07568(9)
C17F C 0.0434(3) 0.0305(3) -0.06095(9)
H14F H -0.0289 0.0713 -0.0535
C18F C -0.0977(3) -0.1422(4) -0.08152(10)
C19F C -0.1627(4) -0.1655(4) -0.04808(12)
H15F H -0.1141 -0.2242 -0.0350
H16F H -0.2451 -0.1997 -0.0520
H17F H -0.1701 -0.0876 -0.0360
C20F C -0.1781(4) -0.0499(4) -0.10204(11)
H18F H -0.1849 0.0284 -0.0901
H19F H -0.2606 -0.0848 -0.1054
H20F H -0.1391 -0.0354 -0.1235
C21F C -0.0920(4) -0.2666(4) -0.10061(11)
H21F H -0.0436 -0.3263 -0.0879
H22F H -0.0530 -0.2534 -0.1222
H23F H -0.1758 -0.2984 -0.1038
C22F C 0.3798(3) -0.1656(3) -0.09235(9)
C23F C 0.3482(4) -0.2991(3) -0.10496(12)
H24F H 0.2923 -0.2936 -0.1240
H25F H 0.3082 -0.3458 -0.0872
H26F H 0.4243 -0.3411 -0.1116
C24F C 0.4439(4) -0.0930(4) -0.12096(11)
H27F H 0.3862 -0.0833 -0.1394
H28F H 0.5168 -0.1386 -0.1285
H29F H 0.4691 -0.0115 -0.1130
C25F C 0.4711(3) -0.1835(4) -0.06281(11)
H30F H 0.4300 -0.2295 -0.0451
H31F H 0.4969 -0.1026 -0.0545
H32F H 0.5437 -0.2295 -0.0704
H3F H 0.0900 0.6642 -0.0245
C4F C 0.2404(4) 0.7743(3) 0.01874(10)
H4F H 0.2665 0.8366 0.0023
H5F H 0.1536 0.7918 0.0247
C5F C 0.3203(5) 0.7874(4) 0.04942(13)
H6F H 0.3312 0.8764 0.0542
H7F H 0.2758 0.7506 0.0684
C6F C 0.4412(4) 0.7307(4) 0.04718(11)
H8F H 0.4822 0.7382 0.0690
H9F H 0.4910 0.7779 0.0310
C7F C 0.4425(3) 0.5935(3) 0.03690(9)
H10F H 0.4289 0.5420 0.0568
H11F H 0.5250 0.5730 0.0280
loop_
_geom_bond_atom_site_label_1
_geom_bond_atom_site_label_2
_geom_bond_site_symmetry_1
_geom_bond_site_symmetry_2
O1 H1 1_555 1_555
N1 C10 1_555 1_555
C1 H2 1_555 1_555
C2 C1 1_555 1_555
H3 C2 1_555 1_555
C3 C2 1_555 1_555
C4 C3 1_555 1_555
H4 C4 1_555 1_555
H5 C4 1_555 1_555
C5 C4 1_555 1_555
H6 C5 1_555 1_555
H7 C5 1_555 1_555
C6 C5 1_555 1_555
H8 C6 1_555 1_555
H9 C6 1_555 1_555
C7 C6 1_555 1_555
H10 C7 1_555 1_555
H11 C7 1_555 1_555
C8 C3 1_555 1_555
C9 C8 1_555 1_555
C10 C1 1_555 1_555
C11 N1 1_555 1_555
H12 C11 1_555 1_555
C12 C11 1_555 1_555
C13 O1 1_555 1_555
C14 C13 1_555 1_555
C15 C14 1_555 1_555
H13 C15 1_555 1_555
C16 C15 1_555 1_555
C17 C12 1_555 1_555
H14 C17 1_555 1_555
C18 C16 1_555 1_555
C19 C18 1_555 1_555
H15 C19 1_555 1_555
H16 C19 1_555 1_555
H17 C19 1_555 1_555
C20 C18 1_555 1_555
H18 C20 1_555 1_555
H19 C20 1_555 1_555
H20 C20 1_555 1_555
C21 C18 1_555 1_555
H21 C21 1_555 1_555
H22 C21 1_555 1_555
H23 C21 1_555 1_555
C22 C14 1_555 1_555
C23 C22 1_555 1_555
H24 C23 1_555 1_555
H25 C23 1_555 1_555
H26 C23 1_555 1_555
C24 C22 1_555 1_555
H27 C24 1_555 1_555
H28 C24 1_555 1_555
H29 C24 1_555 1_555
C25 C22 1_555 1_555
H30 C25 1_555 1_555
H31 C25 1_555 1_555
H32 C25 1_555 1_555
C9F C9 1_555 1_555
C8F C9F 1_555 1_555
C3F C8F 1_555 1_555
C2F C3F 1_555 1_555
C1F C2F 1_555 1_555
H2F C1F 1_555 1_555
C10F C9F 1_555 1_555
N1F C10F 1_555 1_555
C11F N1F 1_555 1_555
H12F C11F 1_555 1_555
C12F C11F 1_555 1_555
C13F C12F 1_555 1_555
O1F C13F 1_555 1_555
H1F O1F 1_555 1_555
C14F C13F 1_555 1_555
C15F C14F 1_555 1_555
H13F C15F 1_555 1_555
C16F C15F 1_555 1_555
C17F C12F 1_555 1_555
H14F C17F 1_555 1_555
C18F C16F 1_555 1_555
C19F C18F 1_555 1_555
H15F C19F 1_555 1_555
H16F C19F 1_555 1_555
H17F C19F 1_555 1_555
C20F C18F 1_555 1_555
H18F C20F 1_555 1_555
H19F C20F 1_555 1_555
H20F C20F 1_555 1_555
C21F C18F 1_555 1_555
H21F C21F 1_555 1_555
H22F C21F 1_555 1_555
H23F C21F 1_555 1_555
C22F C14F 1_555 1_555
C23F C22F 1_555 1_555
H24F C23F 1_555 1_555
H25F C23F 1_555 1_555
H26F C23F 1_555 1_555
C24F C22F 1_555 1_555
H27F C24F 1_555 1_555
H28F C24F 1_555 1_555
H29F C24F 1_555 1_555
C25F C22F 1_555 1_555
H30F C25F 1_555 1_555
H31F C25F 1_555 1_555
H32F C25F 1_555 1_555
H3F C2F 1_555 1_555
C4F C3F 1_555 1_555
H4F C4F 1_555 1_555
H5F C4F 1_555 1_555
C5F C4F 1_555 1_555
H6F C5F 1_555 1_555
H7F C5F 1_555 1_555
C6F C5F 1_555 1_555
H8F C6F 1_555 1_555
H9F C6F 1_555 1_555
C7F C8F 1_555 1_555
H10F C7F 1_555 1_555
H11F C7F 1_555 1_555
C7 C8 1_555 1_555
C9 C10 1_555 1_555
C12 C13 1_555 1_555
C16 C17 1_555 1_555
C1F C10F 1_555 1_555
C16F C17F 1_555 1_555
C6F C7F 1_555 1_555

#END
