
#######################################################################
#
#                 Cambridge Crystallographic Data Centre
#                                CCDC 
#
#######################################################################
#
# If this CIF has been generated from an entry in the Cambridge 
# Structural Database, then it will include bibliographic, chemical, 
# crystal, experimental, refinement or atomic coordinate data resulting 
# from the CCDC's data processing and validation procedures.
#
#######################################################################

data_MIFYOS
_chemical_formula_moiety         'C2 H10 N2 2+,2(I1 1-)'
_chemical_name_systematic        'ethylenediammonium bis(iodide)'
_symmetry_cell_setting           monoclinic
_symmetry_space_group_name_H-M   'I 2/m'
_symmetry_Int_Tables_number      12
_space_group_name_Hall           '-I 2y'
loop_
_symmetry_equiv_pos_site_id
_symmetry_equiv_pos_as_xyz
1 x,y,z
2 -x,y,-z
3 1/2+x,1/2+y,1/2+z
4 1/2-x,1/2+y,1/2-z
5 -x,-y,-z
6 x,-y,z
7 1/2-x,1/2-y,1/2-z
8 1/2+x,1/2-y,1/2+z
_cell_length_a                   15.540(2)
_cell_length_b                   5.0795(6)
_cell_length_c                   5.0964(7)
_cell_angle_alpha                90
_cell_angle_beta                 96.032(11)
_cell_angle_gamma                90
_cell_volume                     400.059
_exptl_crystal_colour            colorless
_exptl_crystal_description       plate
_cell_formula_units_Z            2
loop_
_atom_site_label
_atom_site_type_symbol
_atom_site_fract_x
_atom_site_fract_y
_atom_site_fract_z
I1 I 0.85012(6) 0.000 0.02190(17)
N1 N 0.3784(7) 0.000 0.022(2)
C1 C 0.4719(8) 0.000 0.109(2)
H1 H 0.485875 -0.148974 0.221715
N1A N 0.6216(7) 0.000 -0.022(2)
C1A C 0.5281(8) 0.000 -0.109(2)
H1A H 0.514125 -0.148974 -0.221715
H1D H 0.514125 0.148974 -0.221715
H1E H 0.485875 0.148974 0.221715
H2? H 0.485875 -0.148974 0.221715
H3? H 0.349865 -0.039818 0.155047
H4? H 0.367283 -0.11562 -0.102456
H5? H 0.362821 0.155438 -0.036493
loop_
_geom_bond_atom_site_label_1
_geom_bond_atom_site_label_2
_geom_bond_site_symmetry_1
_geom_bond_site_symmetry_2
N1 C1 1_555 1_555
C1 H1 1_555 1_555
N1A C1A 1_555 1_555
C1A C1 1_555 1_555
H1A C1A 1_555 1_555
H1D C1A 1_555 1_555
H1E C1 1_555 1_555

#END
