
#######################################################################
#
#                 Cambridge Crystallographic Data Centre
#                                CCDC 
#
#######################################################################
#
# If this CIF has been generated from an entry in the Cambridge 
# Structural Database, then it will include bibliographic, chemical, 
# crystal, experimental, refinement or atomic coordinate data resulting 
# from the CCDC's data processing and validation procedures.
#
#######################################################################

data_MIGBEM
_chemical_formula_moiety         
'C30 H9 F12 N9,0.39(C3 H7 N1 O1),1.25(C1 H4 O1)'
_chemical_name_systematic        
'2,4,6-tris[2,3,5,6-tetrafluoro-4-(1H-pyrazol-4-yl)phenyl]-1,3,5-triazine N,N-dimethylformamide methanol solvate'
_symmetry_cell_setting           monoclinic
_symmetry_space_group_name_H-M   'C 2/c'
_symmetry_Int_Tables_number      15
_space_group_name_Hall           '-C 2yn'
loop_
_symmetry_equiv_pos_site_id
_symmetry_equiv_pos_as_xyz
1 x,y,z
2 -x,y,1/2-z
3 1/2+x,1/2+y,z
4 1/2-x,1/2+y,1/2-z
5 -x,-y,-z
6 x,-y,1/2+z
7 1/2-x,1/2-y,-z
8 1/2+x,1/2-y,1/2+z
_cell_length_a                   19.1610(7)
_cell_length_b                   34.1885(15)
_cell_length_c                   7.1304(4)
_cell_angle_alpha                90
_cell_angle_beta                 110.374(3)
_cell_angle_gamma                90
_cell_volume                     4378.81
_exptl_crystal_colour            white
_exptl_crystal_description       polyhedron
_cell_formula_units_Z            4
loop_
_atom_site_label
_atom_site_type_symbol
_atom_site_fract_x
_atom_site_fract_y
_atom_site_fract_z
C2 C 0.88575(17) 0.77870(10) 0.7732(5)
H5 H 0.9038 0.7532 0.8162
C3 C 0.81171(17) 0.79082(9) 0.7203(5)
C4 C 0.81355(18) 0.83042(9) 0.6695(6)
H6 H 0.7718 0.8475 0.6269
C5 C 0.74747(16) 0.76750(9) 0.7178(5)
C6 C 0.75377(16) 0.72961(9) 0.7953(5)
C7 C 0.69343(17) 0.70759(8) 0.7963(5)
C8 C 0.62085(16) 0.72201(9) 0.7200(5)
C9 C 0.61367(16) 0.75935(9) 0.6359(5)
C10 C 0.67440(18) 0.78087(9) 0.6358(5)
C11 C 0.55604(16) 0.69978(9) 0.7322(5)
C12 C 0.5000 0.64277(12) 0.7500
C13 C 0.5000 0.59966(12) 0.7500
C14 C 0.43727(15) 0.57822(9) 0.6421(5)
C15 C 0.43800(16) 0.53791(9) 0.6412(5)
C16 C 0.5000 0.51602(12) 0.7500
C17 C 0.5000 0.47301(12) 0.7500
C18 C 0.43926(18) 0.44760(9) 0.6739(5)
H7 H 0.3890 0.4556 0.6109
F1 F 0.82161(10) 0.71346(5) 0.8786(3)
F2 F 0.70800(9) 0.67266(5) 0.8848(3)
F3 F 0.54622(10) 0.77485(6) 0.5412(4)
F4 F 0.66075(10) 0.81626(6) 0.5476(4)
F5 F 0.37535(10) 0.59635(5) 0.5266(3)
F6 F 0.37565(10) 0.51960(5) 0.5252(3)
N1 N 0.92693(14) 0.80884(8) 0.7535(5)
N2 N 0.88270(15) 0.84025(8) 0.6902(5)
N3 N 0.46230(15) 0.41102(8) 0.7029(5)
N4 N 0.55867(14) 0.66072(7) 0.7263(4)
N5 N 0.5000 0.72087(10) 0.7500
C2A C 0.11425(17) 0.77870(10) 0.7268(5)
H5A H 0.0962 0.7532 0.6838
C3A C 0.18829(17) 0.79082(9) 0.7797(5)
C4A C 0.18645(18) 0.83042(9) 0.8305(6)
H6A H 0.2282 0.8475 0.8731
C5A C 0.25253(16) 0.76750(9) 0.7822(5)
C6A C 0.24623(16) 0.72961(9) 0.7047(5)
C7A C 0.30657(17) 0.70759(8) 0.7037(5)
C8A C 0.37915(16) 0.72201(9) 0.7800(5)
C9A C 0.38633(16) 0.75935(9) 0.8641(5)
C10A C 0.32560(18) 0.78087(9) 0.8642(5)
C11A C 0.44396(16) 0.69978(9) 0.7678(5)
C14A C 0.56273(15) 0.57822(9) 0.8579(5)
C15A C 0.56200(16) 0.53791(9) 0.8588(5)
C18A C 0.56074(18) 0.44760(9) 0.8261(5)
H7A H 0.6110 0.4556 0.8891
F1A F 0.17839(10) 0.71346(5) 0.6214(3)
F2A F 0.29200(9) 0.67266(5) 0.6152(3)
F3A F 0.45378(10) 0.77485(6) 0.9588(4)
F4A F 0.33925(10) 0.81626(6) 0.9524(4)
F5A F 0.62465(10) 0.59635(5) 0.9734(3)
F6A F 0.62435(10) 0.51960(5) 0.9748(3)
N1A N 0.07307(14) 0.80884(8) 0.7465(5)
N2A N 0.11730(15) 0.84025(8) 0.8098(5)
N3A N 0.53770(15) 0.41102(8) 0.7971(5)
N4A N 0.44133(14) 0.66072(7) 0.7737(4)
O1 O 0.7572(7) 0.9231(4) 0.501(2)
H1 H 0.7878 0.9072 0.5753
C1 C 0.7512(11) 0.9167(6) 0.291(3)
H2 H 0.7464 0.9420 0.2225
H3 H 0.7072 0.9006 0.2230
H4 H 0.7959 0.9032 0.2875
H8? H 0.8973 0.8635 0.6664
H9? H 0.9752 0.8083 0.7780
H10? H 0.6758 0.9302 0.0815
O2? O 0.7383(15) 0.9581(7) 0.530(2)
C19? C 0.7445(12) 0.9838(6) 0.4163(18)
H11? H 0.7780 1.0049 0.4677
C20? C 0.6529(16) 0.9497(7) 0.143(3)
H12? H 0.6065 0.9591 0.0433
H13? H 0.6422 0.9377 0.2548
C21? C 0.707(2) 1.0111(8) 0.070(3)
H14? H 0.6809 1.0010 -0.0652
H15? H 0.7589 1.0164 0.0869
H16? H 0.6828 1.0353 0.0893
N6? N 0.7037(11) 0.9822(5) 0.2160(17)
H17? H 0.4339 0.3901 0.6675
loop_
_geom_bond_atom_site_label_1
_geom_bond_atom_site_label_2
_geom_bond_site_symmetry_1
_geom_bond_site_symmetry_2
O1 H1 1_555 1_555
C1 O1 1_555 1_555
H2 C1 1_555 1_555
H3 C1 1_555 1_555
H4 C1 1_555 1_555
C2 H5 1_555 1_555
C3 C2 1_555 1_555
C4 C3 1_555 1_555
H6 C4 1_555 1_555
C5 C3 1_555 1_555
C6 C5 1_555 1_555
C7 C6 1_555 1_555
C8 C7 1_555 1_555
C9 C8 1_555 1_555
C10 C5 1_555 1_555
C11 C8 1_555 1_555
C12 C13 1_555 1_555
C13 C14 1_555 1_555
C14 C15 1_555 1_555
C15 C16 1_555 1_555
C16 C17 1_555 1_555
C17 C18 1_555 1_555
C18 H7 1_555 1_555
F1 C6 1_555 1_555
F2 C7 1_555 1_555
F3 C9 1_555 1_555
F4 C10 1_555 1_555
F5 C14 1_555 1_555
F6 C15 1_555 1_555
N1 C2 1_555 1_555
N2 C4 1_555 1_555
N3 C18 1_555 1_555
N4 C11 1_555 1_555
N5 C11 1_555 1_555
C2A H5A 1_555 1_555
C3A C2A 1_555 1_555
C4A C3A 1_555 1_555
H6A C4A 1_555 1_555
C5A C3A 1_555 1_555
C6A C5A 1_555 1_555
C7A C6A 1_555 1_555
C8A C7A 1_555 1_555
C9A C8A 1_555 1_555
C10A C5A 1_555 1_555
C11A N5 1_555 1_555
C14A C13 1_555 1_555
C15A C16 1_555 1_555
C18A C17 1_555 1_555
H7A C18A 1_555 1_555
F1A C6A 1_555 1_555
F2A C7A 1_555 1_555
F3A C9A 1_555 1_555
F4A C10A 1_555 1_555
F5A C14A 1_555 1_555
F6A C15A 1_555 1_555
N1A C2A 1_555 1_555
N2A C4A 1_555 1_555
N3A N3 1_555 1_555
N4A C12 1_555 1_555
C9 C10 1_555 1_555
C12 N4 1_555 1_555
N1 N2 1_555 1_555
C8A C11A 1_555 1_555
C9A C10A 1_555 1_555
C11A N4A 1_555 1_555
C14A C15A 1_555 1_555
C18A N3A 1_555 1_555
N1A N2A 1_555 1_555

#END
