
#######################################################################
#
#                 Cambridge Crystallographic Data Centre
#                                CCDC 
#
#######################################################################
#
# If this CIF has been generated from an entry in the Cambridge 
# Structural Database, then it will include bibliographic, chemical, 
# crystal, experimental, refinement or atomic coordinate data resulting 
# from the CCDC's data processing and validation procedures.
#
#######################################################################

data_MIGBUC
_chemical_formula_moiety         'C28 H18 F8 N4,2(C1 H4 O1)'
_chemical_name_systematic        
"4,4'-(1^2^,1^3^,1^5^,1^6^,3^2^,3^3^,3^5^,3^6^-octafluoro-2^2^,2^3^,2^5^,2^6^-tetramethyl[1^1^,2^1^:2^4^,3^1^-terphenyl]-1^4^,3^4^-diyl)bis(1H-pyrazole) methanol solvate"
_symmetry_cell_setting           triclinic
_symmetry_space_group_name_H-M   'P -1'
_symmetry_Int_Tables_number      2
_space_group_name_Hall           '-P 1'
loop_
_symmetry_equiv_pos_site_id
_symmetry_equiv_pos_as_xyz
1 x,y,z
2 -x,-y,-z
_cell_length_a                   8.6710(4)
_cell_length_b                   8.9923(4)
_cell_length_c                   9.2524(3)
_cell_angle_alpha                93.693(3)
_cell_angle_beta                 100.002(3)
_cell_angle_gamma                106.443(4)
_cell_volume                     676.465
_exptl_crystal_colour            colorless
_exptl_crystal_description       'Triangular prism'
_cell_formula_units_Z            1
loop_
_atom_site_label
_atom_site_type_symbol
_atom_site_fract_x
_atom_site_fract_y
_atom_site_fract_z
O1 O 0.00458(16) 0.15394(14) 0.36843(13)
C1 C 0.1626(3) 0.2006(3) 0.3325(3)
H1 H 0.151(4) 0.192(4) 0.225(3)
H2 H 0.219(4) 0.309(4) 0.375(3)
H3 H 0.226(4) 0.133(4) 0.373(3)
H4 H 0.008(5) 0.200(5) 0.451(4)
H5 H 0.527(3) 1.134(2) 0.174(2)
H6 H 0.706(3) 1.119(3) 0.228(2)
H7 H 0.205(3) 0.702(2) 0.588(2)
H8 H 0.067(2) 0.467(2) -0.297(2)
H9 H 0.552(3) 0.972(2) 0.141(2)
H10 H 0.361(3) 0.638(2) 0.604(2)
H11 H 0.250(3) 0.174(3) -0.037(2)
H12 H 0.242(3) 0.625(2) 0.446(2)
H13 H 0.115(5) 0.055(4) -0.272(4)
F1 F 0.09358(12) 0.66010(11) -0.09947(10)
F2 F 0.20766(12) 0.88678(11) 0.12094(10)
F3 F 0.43095(13) 0.38317(11) 0.14388(10)
F4 F 0.54320(13) 0.61032(11) 0.36369(10)
C2 C 0.44161(19) 0.88455(18) 0.38055(16)
C3 C 0.2552(2) 0.50930(18) 0.01135(16)
C4 C 0.3796(2) 0.75801(18) 0.25254(16)
C5 C 0.3717(2) 0.50636(19) 0.13452(17)
C6 C 0.2055(2) 0.64351(19) 0.01367(17)
C7 C 0.1910(2) 0.38185(19) -0.11050(16)
C8 C 0.4315(2) 0.62602(19) 0.24978(16)
C9 C 0.2649(2) 0.76252(18) 0.12975(17)
N1 N 0.1247(2) 0.15199(19) -0.24549(16)
C10 C 0.2961(2) 0.69184(19) 0.53946(19)
N2 N 0.0672(2) 0.24657(18) -0.33192(16)
C11 C 0.5830(2) 1.0675(2) 0.21381(18)
C12 C 0.5400(2) 1.03197(18) 0.36173(16)
C13 C 0.4008(2) 0.85089(18) 0.51768(16)
C14 C 0.1056(2) 0.3851(2) -0.25297(18)
C15 C 0.1996(2) 0.2295(2) -0.11181(19)
H5A H 0.473(3) 0.866(2) 0.826(2)
H6A H 0.294(3) 0.881(3) 0.772(2)
H7A H 0.795(3) 1.298(2) 0.412(2)
H8A H 0.933(2) 1.533(2) 1.297(2)
H9A H 0.448(3) 1.028(2) 0.859(2)
H10A H 0.639(3) 1.362(2) 0.396(2)
H11A H 0.750(3) 1.826(3) 1.037(2)
H12A H 0.758(3) 1.375(2) 0.554(2)
H13A H 0.885(5) 1.945(4) 1.272(4)
F1A F 0.90642(12) 1.33990(11) 1.09947(10)
F2A F 0.79234(12) 1.11322(11) 0.87906(10)
F3A F 0.56905(13) 1.61683(11) 0.85612(10)
F4A F 0.45680(13) 1.38968(11) 0.63631(10)
C2A C 0.55839(19) 1.11545(18) 0.61945(16)
C3A C 0.7448(2) 1.49070(18) 0.98865(16)
C4A C 0.6204(2) 1.24199(18) 0.74746(16)
C5A C 0.6283(2) 1.49364(19) 0.86548(17)
C6A C 0.7945(2) 1.35649(19) 0.98633(17)
C7A C 0.8090(2) 1.61815(19) 1.11050(16)
C8A C 0.5685(2) 1.37398(19) 0.75022(16)
C9A C 0.7351(2) 1.23748(18) 0.87025(17)
N1A N 0.8753(2) 1.84801(19) 1.24549(16)
C10A C 0.7039(2) 1.30816(19) 0.46054(19)
N2A N 0.9328(2) 1.75343(18) 1.33192(16)
C11A C 0.4170(2) 0.9325(2) 0.78619(18)
C12A C 0.4600(2) 0.96803(18) 0.63827(16)
C13A C 0.5992(2) 1.14911(18) 0.48232(16)
C14A C 0.8944(2) 1.6149(2) 1.25297(18)
C15A C 0.8004(2) 1.7705(2) 1.11181(19)
loop_
_geom_bond_atom_site_label_1
_geom_bond_atom_site_label_2
_geom_bond_site_symmetry_1
_geom_bond_site_symmetry_2
O1 C1 1_555 1_555
C1 H1 1_555 1_555
H2 C1 1_555 1_555
H3 C1 1_555 1_555
H4 O1 1_555 1_555
H5 C11 1_555 1_555
H6 C11 1_555 1_555
H7 C10 1_555 1_555
H8 C14 1_555 1_555
H9 C11 1_555 1_555
H10 C10 1_555 1_555
H11 C15 1_555 1_555
H12 C10 1_555 1_555
H13 N1 1_555 1_555
F1 C6 1_555 1_555
F2 C9 1_555 1_555
F3 C5 1_555 1_555
F4 C8 1_555 1_555
C2 C4 1_555 1_555
C3 C5 1_555 1_555
C4 C8 1_555 1_555
C5 C8 1_555 1_555
C6 C3 1_555 1_555
C7 C3 1_555 1_555
C9 C4 1_555 1_555
N1 N2 1_555 1_555
C10 C13 1_555 1_555
N2 C14 1_555 1_555
C11 C12 1_555 1_555
C12 C2 1_555 1_555
C13 C2 1_555 1_555
C14 C7 1_555 1_555
C15 C7 1_555 1_555
H5A C11A 1_555 1_555
H6A C11A 1_555 1_555
H7A C10A 1_555 1_555
H8A C14A 1_555 1_555
H9A C11A 1_555 1_555
H10A C10A 1_555 1_555
H11A C15A 1_555 1_555
H12A C10A 1_555 1_555
H13A N1A 1_555 1_555
F1A C6A 1_555 1_555
F2A C9A 1_555 1_555
F3A C5A 1_555 1_555
F4A C8A 1_555 1_555
C2A C4A 1_555 1_555
C3A C5A 1_555 1_555
C4A C8A 1_555 1_555
C5A C8A 1_555 1_555
C6A C3A 1_555 1_555
C7A C3A 1_555 1_555
C9A C4A 1_555 1_555
N1A N2A 1_555 1_555
C10A C13A 1_555 1_555
N2A C14A 1_555 1_555
C11A C12A 1_555 1_555
C12A C13 1_555 1_555
C13A C12 1_555 1_555
C14A C7A 1_555 1_555
C15A C7A 1_555 1_555
C6 C9 1_555 1_555
N1 C15 1_555 1_555
C2A C12A 1_555 1_555
C2A C13A 1_555 1_555
C6A C9A 1_555 1_555
N1A C15A 1_555 1_555

#END
