
#######################################################################
#
#                 Cambridge Crystallographic Data Centre
#                                CCDC 
#
#######################################################################
#
# If this CIF has been generated from an entry in the Cambridge 
# Structural Database, then it will include bibliographic, chemical, 
# crystal, experimental, refinement or atomic coordinate data resulting 
# from the CCDC's data processing and validation procedures.
#
#######################################################################

data_MIGBAF
_chemical_formula_moiety         'C22 H23 Cl2 N1 O5 S1,C1 H4 O1'
_chemical_name_systematic        
'(3,5-trans)-7-Chloro-5-(2-chlorophenyl)-1-neopentyl-2-oxo-1,2,3,5-tetrahydro-4,1-benzothiazepine-3-acetic acid S,S-dioxide methanol solvate'
_chemical_properties_biological  'weak squalene synthase inhibitor'
_symmetry_cell_setting           triclinic
_symmetry_space_group_name_H-M   'P -1'
_symmetry_Int_Tables_number      2
_space_group_name_Hall           '-P 1'
loop_
_symmetry_equiv_pos_site_id
_symmetry_equiv_pos_as_xyz
1 x,y,z
2 -x,-y,-z
_cell_length_a                   8.637(2)
_cell_length_b                   18.832(3)
_cell_length_c                   8.303(2)
_cell_angle_alpha                101.83(1)
_cell_angle_beta                 102.41(2)
_cell_angle_gamma                96.88(2)
_cell_volume                     1271.82
_exptl_crystal_colour            colorless
_exptl_crystal_description       prism
_chemical_melting_point          518-522K.(dec.)
_cell_formula_units_Z            2
loop_
_atom_site_label
_atom_site_type_symbol
_atom_site_fract_x
_atom_site_fract_y
_atom_site_fract_z
N1 N 0.7820(2) 0.74646(9) 0.2022(2)
C1 C 0.8677(2) 0.7134(1) 0.3150(3)
C2 C 0.7708(2) 0.6590(1) 0.3848(2)
S1 S 0.67786(6) 0.70535(3) 0.54128(6)
C3 C 0.5850(2) 0.7723(1) 0.4392(2)
C4 C 0.5090(2) 0.7368(1) 0.2532(2)
C5 C 0.6107(2) 0.7253(1) 0.1427(2)
C6 C 0.5467(3) 0.6905(1) -0.0280(3)
C7 C 0.3838(3) 0.6665(1) -0.0898(3)
C8 C 0.2844(3) 0.6779(1) 0.0193(3)
C9 C 0.3442(2) 0.7129(1) 0.1888(3)
Cl1 Cl 0.07950(7) 0.64568(4) -0.05964(8)
C10 C 0.4847(2) 0.8097(1) 0.5504(2)
C11 C 0.5220(3) 0.8853(1) 0.6214(3)
C12 C 0.4349(4) 0.9204(2) 0.7256(4)
C13 C 0.3092(3) 0.8803(2) 0.7617(4)
C14 C 0.2692(3) 0.8060(2) 0.6946(3)
C15 C 0.3566(3) 0.7711(1) 0.5900(3)
Cl2 Cl 0.6813(1) 0.93994(4) 0.5850(1)
C16 C 0.8730(3) 0.7875(1) 0.1072(3)
C17 C 0.9052(3) 0.8711(1) 0.1677(3)
C18 C 0.9994(4) 0.8952(2) 0.3531(4)
C19 C 0.7478(5) 0.9008(2) 0.1407(5)
C20 C 1.0096(5) 0.8983(2) 0.0556(5)
O1 O 1.0138(2) 0.7240(1) 0.3575(2)
C21 C 0.8781(3) 0.6105(1) 0.4654(3)
C22 C 0.9431(3) 0.5660(1) 0.3309(3)
O2 O 0.8681(3) 0.5448(1) 0.1856(3)
O3 O 1.0876(2) 0.5532(1) 0.3899(3)
O4 O 0.5585(2) 0.6511(1) 0.5640(2)
O5 O 0.8010(2) 0.7458(1) 0.6868(2)
H1 H 0.6862 0.6274 0.2906
H2 H 0.6736 0.8106 0.4417
H3 H 0.6147 0.6834 -0.1007
H4 H 0.3412 0.6430 -0.2036
H5 H 0.2746 0.7204 0.2596
H6 H 0.4616 0.9709 0.7709
H7 H 0.2508 0.9037 0.8322
H8 H 0.1836 0.7789 0.7190
H9 H 0.3287 0.7205 0.5453
H10 H 0.8140 0.7745 -0.0111
H11 H 0.9756 0.7709 0.1127
H12 H 1.0992 0.8768 0.3657
H13 H 0.9374 0.8760 0.4225
H14 H 1.0209 0.9480 0.3880
H15 H 0.6925 0.8858 0.0227
H16 H 0.7700 0.9536 0.1755
H17 H 0.6817 0.8819 0.2068
H18 H 1.1065 0.8776 0.0697
H19 H 1.0365 0.9511 0.0887
H20 H 0.9507 0.8832 -0.0613
H21 H 0.9662 0.6410 0.5553
H22 H 0.8165 0.5780 0.5144
H23 H 1.1199 0.5309 0.3116
O6 O 0.2227(2) 0.4843(2) 0.1666(3)
C23 C 0.3856(4) 0.5037(2) 0.2005(5)
H24 H 0.1832 0.4814 0.0659
H25 H 0.4292 0.4645 0.1419
H26 H 0.4307 0.5126 0.3205
H27 H 0.4116 0.5476 0.1631
loop_
_geom_bond_atom_site_label_1
_geom_bond_atom_site_label_2
_geom_bond_site_symmetry_1
_geom_bond_site_symmetry_2
N1 C1 1_555 1_555
C1 C2 1_555 1_555
C2 S1 1_555 1_555
S1 C3 1_555 1_555
C3 C4 1_555 1_555
C4 C5 1_555 1_555
C5 N1 1_555 1_555
C6 C5 1_555 1_555
C7 C6 1_555 1_555
C8 C7 1_555 1_555
C9 C4 1_555 1_555
Cl1 C8 1_555 1_555
C10 C3 1_555 1_555
C11 C10 1_555 1_555
C12 C11 1_555 1_555
C13 C12 1_555 1_555
C14 C13 1_555 1_555
C15 C10 1_555 1_555
Cl2 C11 1_555 1_555
C16 N1 1_555 1_555
C17 C16 1_555 1_555
C18 C17 1_555 1_555
C19 C17 1_555 1_555
C20 C17 1_555 1_555
O1 C1 1_555 1_555
C21 C2 1_555 1_555
C22 C21 1_555 1_555
O2 C22 1_555 1_555
O3 C22 1_555 1_555
O4 S1 1_555 1_555
O5 S1 1_555 1_555
O6 C23 1_555 1_555
C23 H25 1_555 1_555
H1 C2 1_555 1_555
H2 C3 1_555 1_555
H3 C6 1_555 1_555
H4 C7 1_555 1_555
H5 C9 1_555 1_555
H6 C12 1_555 1_555
H7 C13 1_555 1_555
H8 C14 1_555 1_555
H9 C15 1_555 1_555
H10 C16 1_555 1_555
H11 C16 1_555 1_555
H12 C18 1_555 1_555
H13 C18 1_555 1_555
H14 C18 1_555 1_555
H15 C19 1_555 1_555
H16 C19 1_555 1_555
H17 C19 1_555 1_555
H18 C20 1_555 1_555
H19 C20 1_555 1_555
H20 C20 1_555 1_555
H21 C21 1_555 1_555
H22 C21 1_555 1_555
H23 O3 1_555 1_555
H24 O6 1_555 1_555
H26 C23 1_555 1_555
H27 C23 1_555 1_555
C8 C9 1_555 1_555
C14 C15 1_555 1_555

#END
