
#######################################################################
#
#                 Cambridge Crystallographic Data Centre
#                                CCDC 
#
#######################################################################
#
# If this CIF has been generated from an entry in the Cambridge 
# Structural Database, then it will include bibliographic, chemical, 
# crystal, experimental, refinement or atomic coordinate data resulting 
# from the CCDC's data processing and validation procedures.
#
#######################################################################

data_MIGBAI
_chemical_formula_moiety         'C22 H34 N2 O3'
_chemical_name_systematic        
3-(morpholin-4-yl)-1-phenyl-2-[(2,2,6,6-tetramethylpiperidin-1-yl)oxy]propan-1-one
_symmetry_cell_setting           orthorhombic
_symmetry_space_group_name_H-M   'P 21 21 21'
_symmetry_Int_Tables_number      19
_space_group_name_Hall           'P 2ac 2ab'
loop_
_symmetry_equiv_pos_site_id
_symmetry_equiv_pos_as_xyz
1 x,y,z
2 1/2-x,-y,1/2+z
3 1/2+x,1/2-y,-z
4 -x,1/2+y,1/2-z
_cell_length_a                   7.9398(4)
_cell_length_b                   12.1284(9)
_cell_length_c                   22.1403(13)
_cell_angle_alpha                90
_cell_angle_beta                 90
_cell_angle_gamma                90
_cell_volume                     2132.05
_exptl_crystal_colour            colorless
_exptl_crystal_description       block
_cell_formula_units_Z            4
loop_
_atom_site_label
_atom_site_type_symbol
_atom_site_fract_x
_atom_site_fract_y
_atom_site_fract_z
O1 O 0.1549(2) 0.57140(13) 0.18485(6)
O2 O -0.0894(3) 0.51186(19) 0.10325(8)
O3 O 0.4746(3) 0.34913(18) -0.05541(9)
N1 N 0.2225(2) 0.67345(15) 0.20997(8)
N2 N 0.3059(3) 0.42371(16) 0.04988(8)
C1 C 0.0769(3) 0.7476(2) 0.22365(11)
C2 C 0.1491(4) 0.8499(2) 0.25487(12)
H1 H 0.2169 0.8906 0.2261
H2 H 0.0567 0.8971 0.2672
C3 C 0.2555(3) 0.8236(2) 0.30938(12)
H3 H 0.1871 0.7885 0.3401
H4 H 0.3019 0.8910 0.3261
C4 C 0.3963(3) 0.7475(2) 0.29040(12)
H5 H 0.4633 0.7290 0.3256
H6 H 0.4688 0.7861 0.2622
C5 C 0.3347(3) 0.64114(19) 0.26104(10)
C6 C 0.0051(4) 0.7837(3) 0.16279(13)
H7 H 0.0955 0.8051 0.1365
H8 H -0.0695 0.8451 0.1686
H9 H -0.0559 0.7236 0.1450
C7 C -0.0649(3) 0.6972(3) 0.26135(15)
H10 H -0.0909 0.6249 0.2463
H11 H -0.1632 0.7430 0.2587
H12 H -0.0297 0.6918 0.3027
C8 C 0.2549(4) 0.5644(2) 0.30785(12)
H13 H 0.1720 0.6044 0.3306
H14 H 0.3404 0.5373 0.3346
H15 H 0.2020 0.5035 0.2876
C9 C 0.4865(3) 0.5822(2) 0.23423(13)
H16 H 0.4542 0.5094 0.2216
H17 H 0.5738 0.5771 0.2641
H18 H 0.5273 0.6229 0.2000
C10 C 0.1954(3) 0.5598(2) 0.12230(9)
H19 H 0.2701 0.6194 0.1090
C11 C 0.0352(3) 0.5566(2) 0.08389(10)
C12 C 0.0363(3) 0.60199(19) 0.02121(10)
C13 C 0.1325(3) 0.6925(2) 0.00386(11)
H20 H 0.2018 0.7274 0.0318
C14 C 0.1251(4) 0.7308(2) -0.05503(12)
H21 H 0.1877 0.7922 -0.0663
C15 C 0.0260(4) 0.6785(3) -0.09666(12)
H22 H 0.0225 0.7040 -0.1363
C16 C -0.0685(4) 0.5882(3) -0.08019(12)
H23 H -0.1344 0.5523 -0.1088
C17 C -0.0658(3) 0.5508(2) -0.02141(11)
H24 H -0.1325 0.4912 -0.0102
C18 C 0.2795(4) 0.4473(2) 0.11362(11)
H25 H 0.3870 0.4466 0.1344
H26 H 0.2091 0.3904 0.1312
C19 C 0.4462(3) 0.4839(2) 0.02399(12)
H27 H 0.5503 0.4607 0.0431
H28 H 0.4318 0.5622 0.0312
C20 C 0.4554(4) 0.4625(2) -0.04279(12)
H29 H 0.3533 0.4893 -0.0619
H30 H 0.5497 0.5028 -0.0597
C21 C 0.3419(5) 0.2885(2) -0.02911(13)
H31 H 0.3590 0.2106 -0.0371
H32 H 0.2364 0.3101 -0.0478
C22 C 0.3301(4) 0.3064(2) 0.03821(11)
H33 H 0.2363 0.2648 0.0545
H34 H 0.4326 0.2811 0.0576
loop_
_geom_bond_atom_site_label_1
_geom_bond_atom_site_label_2
_geom_bond_site_symmetry_1
_geom_bond_site_symmetry_2
O1 N1 1_555 1_555
O2 C11 1_555 1_555
O3 C20 1_555 1_555
N1 C1 1_555 1_555
N2 C18 1_555 1_555
C1 C2 1_555 1_555
C2 H1 1_555 1_555
H2 C2 1_555 1_555
C3 C2 1_555 1_555
H3 C3 1_555 1_555
H4 C3 1_555 1_555
C4 C3 1_555 1_555
H5 C4 1_555 1_555
H6 C4 1_555 1_555
C5 N1 1_555 1_555
C6 C1 1_555 1_555
H7 C6 1_555 1_555
H8 C6 1_555 1_555
H9 C6 1_555 1_555
C7 C1 1_555 1_555
H10 C7 1_555 1_555
H11 C7 1_555 1_555
H12 C7 1_555 1_555
C8 C5 1_555 1_555
H13 C8 1_555 1_555
H14 C8 1_555 1_555
H15 C8 1_555 1_555
C9 C5 1_555 1_555
H16 C9 1_555 1_555
H17 C9 1_555 1_555
H18 C9 1_555 1_555
C10 O1 1_555 1_555
H19 C10 1_555 1_555
C11 C10 1_555 1_555
C12 C11 1_555 1_555
C13 C12 1_555 1_555
H20 C13 1_555 1_555
C14 C13 1_555 1_555
H21 C14 1_555 1_555
C15 C14 1_555 1_555
H22 C15 1_555 1_555
C16 C15 1_555 1_555
H23 C16 1_555 1_555
C17 C12 1_555 1_555
H24 C17 1_555 1_555
C18 C10 1_555 1_555
H25 C18 1_555 1_555
H26 C18 1_555 1_555
C19 N2 1_555 1_555
H27 C19 1_555 1_555
H28 C19 1_555 1_555
C20 C19 1_555 1_555
H29 C20 1_555 1_555
H30 C20 1_555 1_555
C21 O3 1_555 1_555
H31 C21 1_555 1_555
H32 C21 1_555 1_555
C22 N2 1_555 1_555
H33 C22 1_555 1_555
H34 C22 1_555 1_555
C4 C5 1_555 1_555
C16 C17 1_555 1_555
C21 C22 1_555 1_555

#END
