
#######################################################################
#
#                 Cambridge Crystallographic Data Centre
#                                CCDC 
#
#######################################################################
#
# If this CIF has been generated from an entry in the Cambridge 
# Structural Database, then it will include bibliographic, chemical, 
# crystal, experimental, refinement or atomic coordinate data resulting 
# from the CCDC's data processing and validation procedures.
#
#######################################################################

data_MIGCOX
_chemical_formula_moiety         'C27 H6 F12 N12,0.36(C1 H4 O1)'
_chemical_name_systematic        
'1,3,5-tris(2,3,5,6-tetrafluoro-4-(1H-tetrazol-5-yl)phenyl)benzene methanol solvate'
_symmetry_cell_setting           trigonal
_symmetry_space_group_name_H-M   'P -3'
_symmetry_Int_Tables_number      147
_space_group_name_Hall           '-P 3'
loop_
_symmetry_equiv_pos_site_id
_symmetry_equiv_pos_as_xyz
1 x,y,z
2 -y,x-y,z
3 -x+y,-x,z
4 -x,-y,-z
5 y,-x+y,-z
6 x-y,x,-z
_cell_length_a                   19.4179(17)
_cell_length_b                   19.4179(17)
_cell_length_c                   4.9668(4)
_cell_angle_alpha                90
_cell_angle_beta                 90
_cell_angle_gamma                120
_cell_volume                     1621.85
_exptl_crystal_colour            colorless
_exptl_crystal_description       needle
_cell_formula_units_Z            2
loop_
_atom_site_label
_atom_site_type_symbol
_atom_site_fract_x
_atom_site_fract_y
_atom_site_fract_z
O2 O -0.1612(14) 0.0027(20) 0.439(5)
H5 H -0.1658 0.0410 0.3831
C2 C -0.163(2) 0.001(3) 0.726(5)
H6 H -0.2181 -0.0224 0.7883
H7 H -0.1400 -0.0304 0.7926
H8 H -0.1321 0.0556 0.7954
O2D O 0.0027(20) 0.1639(24) 0.561(5)
H5D H 0.0410 0.2068 0.6169
C2D C 0.001(3) 0.164(4) 0.274(5)
H6D H -0.0224 0.1957 0.2117
H7D H -0.0304 0.1096 0.2074
H8D H 0.0556 0.1877 0.2046
O2E O -0.1639(24) -0.1612(14) 0.561(5)
H5E H -0.2068 -0.1658 0.6169
C2E C -0.164(4) -0.163(2) 0.274(5)
H6E H -0.1957 -0.2181 0.2117
H7E H -0.1096 -0.1400 0.2074
H8E H -0.1877 -0.1321 0.2046
O2A O -0.0027(20) -0.1639(24) 0.439(5)
H5A H -0.0410 -0.2068 0.3831
C2A C -0.001(3) -0.164(4) 0.726(5)
H6A H 0.0224 -0.1957 0.7883
H7A H 0.0304 -0.1096 0.7926
H8A H -0.0556 -0.1877 0.7954
O2B O 0.1639(24) 0.1612(14) 0.439(5)
H5B H 0.2068 0.1658 0.3831
C2B C 0.164(4) 0.163(2) 0.726(5)
H6B H 0.1957 0.2181 0.7883
H7B H 0.1096 0.1400 0.7926
H8B H 0.1877 0.1321 0.7954
O2C O 0.1612(14) -0.0027(20) 0.561(5)
H5C H 0.1658 -0.0410 0.6169
C2C C 0.163(2) -0.001(3) 0.274(5)
H6C H 0.2181 0.0224 0.2117
H7C H 0.1400 0.0304 0.2074
H8C H 0.1321 -0.0556 0.2046
F1 F 0.34722(4) 0.28100(4) 0.04315(12)
F2 F 0.48037(4) 0.27296(4) 0.03821(12)
F3 F 0.44046(4) 0.44908(4) 0.80421(12)
F4 F 0.57406(4) 0.44234(4) 0.79652(13)
N1 N 0.26838(6) 0.35853(6) 0.22909(16)
H9 H 0.2806 0.3583 0.0586
N2 N 0.20162(6) 0.35472(7) 0.32153(19)
N3 N 0.20672(6) 0.35727(8) 0.58152(19)
N4 N 0.27633(6) 0.36319(6) 0.66388(17)
C3 C 0.31331(6) 0.36281(6) 0.43999(17)
C4 C 0.38884(5) 0.36377(5) 0.42647(17)
C5 C 0.40224(6) 0.32032(5) 0.23155(17)
C6 C 0.47121(6) 0.31612(5) 0.23051(17)
C7 C 0.53068(5) 0.35531(5) 0.42179(18)
C8 C 0.44908(5) 0.40498(5) 0.61421(17)
C9 C 0.51848(5) 0.40142(5) 0.60900(17)
C10 C 0.60112(5) 0.34470(6) 0.42727(18)
C11 C 0.67778(6) 0.41018(6) 0.42742(19)
H10 H 0.6854 0.4625 0.4276
F1A F 0.71900(4) 0.06622(6) 0.04315(12)
F2A F 0.72704(4) 0.20741(6) 0.03821(12)
F3A F 0.55092(4) -0.00862(6) 0.80421(12)
F4A F 0.55766(4) 0.13172(6) 0.79652(13)
N1A N 0.64147(6) -0.09015(8) 0.22909(16)
H9A H 0.6417 -0.0777 0.0586
N2A N 0.64528(7) -0.15310(9) 0.32153(19)
N3A N 0.64273(8) -0.15055(10) 0.58152(19)
N4A N 0.63681(6) -0.08686(8) 0.66388(17)
C3A C 0.63719(6) -0.04950(8) 0.43999(17)
C4A C 0.63623(5) 0.02507(7) 0.42647(17)
C5A C 0.67968(5) 0.08192(8) 0.23155(17)
C6A C 0.68388(5) 0.15509(8) 0.23051(17)
C7A C 0.64469(5) 0.17537(7) 0.42179(18)
C8A C 0.59502(5) 0.04410(7) 0.61421(17)
C9A C 0.59858(5) 0.11706(7) 0.60900(17)
C10A C 0.65530(6) 0.25642(8) 0.42727(18)
C11A C 0.58982(6) 0.26760(8) 0.42742(19)
H10A H 0.5375 0.2229 0.4276
F1B F 0.93378(6) 0.65278(4) 0.04315(12)
F2B F 0.79259(6) 0.51963(4) 0.03821(12)
F3B F 1.00862(6) 0.55954(4) 0.80421(12)
F4B F 0.86828(6) 0.42594(4) 0.79652(13)
N1B N 1.09015(8) 0.73162(6) 0.22909(16)
H9B H 1.0777 0.7194 0.0586
N2B N 1.15310(9) 0.79838(6) 0.32153(19)
N3B N 1.15055(10) 0.79328(6) 0.58152(19)
N4B N 1.08686(8) 0.72367(6) 0.66388(17)
C3B C 1.04950(8) 0.68669(6) 0.43999(17)
C4B C 0.97493(7) 0.61116(5) 0.42647(17)
C5B C 0.91808(8) 0.59776(6) 0.23155(17)
C6B C 0.84491(8) 0.52879(6) 0.23051(17)
C7B C 0.82463(7) 0.46932(5) 0.42179(18)
C8B C 0.95590(7) 0.55092(5) 0.61421(17)
C9B C 0.88294(7) 0.48152(5) 0.60900(17)
C10B C 0.74358(8) 0.39888(5) 0.42727(18)
C11B C 0.73240(8) 0.32222(6) 0.42742(19)
H10B H 0.7771 0.3146 0.4276
O1? O -0.129(2) 0.0370(19) 0.549(8)
H1? H -0.1652 0.0472 0.5814
C1? C -0.161(4) -0.047(2) 0.553(13)
H2? H -0.1179 -0.0592 0.5178
H3? H -0.2017 -0.0723 0.4148
H4? H -0.1838 -0.0683 0.7306
loop_
_geom_bond_atom_site_label_1
_geom_bond_atom_site_label_2
_geom_bond_site_symmetry_1
_geom_bond_site_symmetry_2
O2 H5 1_555 1_555
C2 O2 1_555 1_555
H6 C2 1_555 1_555
H7 C2 1_555 1_555
H8 C2 1_555 1_555
F1 C5 1_555 1_555
F2 C6 1_555 1_555
F3 C8 1_555 1_555
F4 C9 1_555 1_555
N1 H9 1_555 1_555
N2 N1 1_555 1_555
N3 N2 1_555 1_555
N4 N3 1_555 1_555
C3 N1 1_555 1_555
C4 C3 1_555 1_555
C5 C4 1_555 1_555
C6 C5 1_555 1_555
C7 C6 1_555 1_555
C8 C4 1_555 1_555
C9 C7 1_555 1_555
C10 C7 1_555 1_555
C11 C10 1_555 1_555
H10 C11 1_555 1_555
O2D H5D 1_555 1_555
C2D O2D 1_555 1_555
H6D C2D 1_555 1_555
H7D C2D 1_555 1_555
H8D C2D 1_555 1_555
O2E H5E 1_555 1_555
C2E O2E 1_555 1_555
H6E C2E 1_555 1_555
H7E C2E 1_555 1_555
H8E C2E 1_555 1_555
O2A H5A 1_555 1_555
C2A O2A 1_555 1_555
H6A C2A 1_555 1_555
H7A C2A 1_555 1_555
H8A C2A 1_555 1_555
O2B H5B 1_555 1_555
C2B O2B 1_555 1_555
H6B C2B 1_555 1_555
H7B C2B 1_555 1_555
H8B C2B 1_555 1_555
O2C H5C 1_555 1_555
C2C O2C 1_555 1_555
H6C C2C 1_555 1_555
H7C C2C 1_555 1_555
H8C C2C 1_555 1_555
F1A C5A 1_555 1_555
F2A C6A 1_555 1_555
F3A C8A 1_555 1_555
F4A C9A 1_555 1_555
N1A H9A 1_555 1_555
N2A N1A 1_555 1_555
N3A N2A 1_555 1_555
N4A N3A 1_555 1_555
C3A N1A 1_555 1_555
C4A C3A 1_555 1_555
C5A C4A 1_555 1_555
C6A C5A 1_555 1_555
C7A C6A 1_555 1_555
C8A C4A 1_555 1_555
C9A C7A 1_555 1_555
C10A C7A 1_555 1_555
C11A C10 1_555 1_555
H10A C11A 1_555 1_555
F1B C5B 1_555 1_555
F2B C6B 1_555 1_555
F3B C8B 1_555 1_555
F4B C9B 1_555 1_555
N1B H9B 1_555 1_555
N2B N1B 1_555 1_555
N3B N2B 1_555 1_555
N4B N3B 1_555 1_555
C3B N1B 1_555 1_555
C4B C3B 1_555 1_555
C5B C4B 1_555 1_555
C6B C5B 1_555 1_555
C7B C6B 1_555 1_555
C8B C4B 1_555 1_555
C9B C7B 1_555 1_555
C10B C11 1_555 1_555
C11B C10A 1_555 1_555
H10B C11B 1_555 1_555
N4 C3 1_555 1_555
C8 C9 1_555 1_555
N4A C3A 1_555 1_555
C8A C9A 1_555 1_555
C10A C11A 1_555 1_555
N4B C3B 1_555 1_555
C7B C10B 1_555 1_555
C8B C9B 1_555 1_555
C10B C11B 1_555 1_555

#END
