
#######################################################################
#
#                 Cambridge Crystallographic Data Centre
#                                CCDC 
#
#######################################################################
#
# If this CIF has been generated from an entry in the Cambridge 
# Structural Database, then it will include bibliographic, chemical, 
# crystal, experimental, refinement or atomic coordinate data resulting 
# from the CCDC's data processing and validation procedures.
#
#######################################################################

data_MIGCEN
_chemical_formula_moiety         'C12 H6 F4 N4'
_chemical_name_systematic        
4,4'-(2,3,5,6-tetrafluoro-1,4-phenylene)bis(1H-pyrazole)
_symmetry_cell_setting           monoclinic
_symmetry_space_group_name_H-M   'P 21/n'
_symmetry_Int_Tables_number      14
_space_group_name_Hall           '-P 2yn'
loop_
_symmetry_equiv_pos_site_id
_symmetry_equiv_pos_as_xyz
1 x,y,z
2 1/2-x,1/2+y,1/2-z
3 -x,-y,-z
4 1/2+x,1/2-y,1/2+z
_cell_length_a                   5.3834(3)
_cell_length_b                   5.7482(3)
_cell_length_c                   16.8992(8)
_cell_angle_alpha                90
_cell_angle_beta                 97.711(2)
_cell_angle_gamma                90
_cell_volume                     518.215
_exptl_crystal_colour            colorless
_exptl_crystal_description       plate
_cell_formula_units_Z            2
loop_
_atom_site_label
_atom_site_type_symbol
_atom_site_fract_x
_atom_site_fract_y
_atom_site_fract_z
F1 F 0.18871(15) 0.13223(14) 0.49852(5)
F2 F 0.48904(15) 0.15504(14) 0.39068(5)
N1 N -0.1265(2) 0.3549(2) 0.69316(7)
H1 H -0.235(4) 0.268(4) 0.7171(11)
N2 N -0.0562(2) 0.5680(2) 0.72237(7)
C1 C -0.0020(3) 0.2914(3) 0.63320(8)
H2 H -0.0213 0.1492 0.6044
C2 C 0.1605(2) 0.4715(2) 0.62082(8)
C3 C 0.1170(3) 0.6389(3) 0.67873(8)
H3 H 0.2012 0.7842 0.6856
C4 C 0.3321(2) 0.4862(2) 0.56050(8)
C5 C 0.3427(3) 0.3178(2) 0.50160(8)
C6 C 0.5014(3) 0.3307(2) 0.44415(8)
F1B F 0.81129(15) 0.86777(14) 0.50148(5)
F2B F 0.51096(15) 0.84496(14) 0.60932(5)
N1B N 1.1265(2) 0.6451(2) 0.30684(7)
H1B H 1.235(4) 0.732(4) 0.2829(11)
N2B N 1.0562(2) 0.4320(2) 0.27763(7)
C1B C 1.0020(3) 0.7086(3) 0.36680(8)
H2B H 1.0213 0.8508 0.3956
C2B C 0.8395(2) 0.5285(2) 0.37918(8)
C3B C 0.8830(3) 0.3611(3) 0.32127(8)
H3B H 0.7988 0.2158 0.3144
C4B C 0.6679(2) 0.5138(2) 0.43950(8)
C5B C 0.6573(3) 0.6822(2) 0.49840(8)
C6B C 0.4986(3) 0.6693(2) 0.55585(8)
loop_
_geom_bond_atom_site_label_1
_geom_bond_atom_site_label_2
_geom_bond_site_symmetry_1
_geom_bond_site_symmetry_2
F1 C5 1_555 1_555
F2 C6 1_555 1_555
N1 H1 1_555 1_555
N2 N1 1_555 1_555
C1 N1 1_555 1_555
H2 C1 1_555 1_555
C2 C1 1_555 1_555
C3 N2 1_555 1_555
H3 C3 1_555 1_555
C4 C2 1_555 1_555
C5 C4 1_555 1_555
C6 C5 1_555 1_555
F1B C5B 1_555 1_555
F2B C6B 1_555 1_555
N1B H1B 1_555 1_555
N2B N1B 1_555 1_555
C1B N1B 1_555 1_555
H2B C1B 1_555 1_555
C2B C1B 1_555 1_555
C3B N2B 1_555 1_555
H3B C3B 1_555 1_555
C4B C6 1_555 1_555
C5B C4B 1_555 1_555
C6B C4 1_555 1_555
C2 C3 1_555 1_555
C2B C3B 1_555 1_555
C2B C4B 1_555 1_555
C5B C6B 1_555 1_555

#END
