
#######################################################################
#
#                 Cambridge Crystallographic Data Centre
#                                CCDC 
#
#######################################################################
#
# If this CIF has been generated from an entry in the Cambridge 
# Structural Database, then it will include bibliographic, chemical, 
# crystal, experimental, refinement or atomic coordinate data resulting 
# from the CCDC's data processing and validation procedures.
#
#######################################################################

data_MIGGIV
_chemical_formula_moiety         
'C48 H48 N32 O16,C32 H30 N5 O2 3+,3(N1 O3 1-),17(H2 O1)'
_chemical_name_systematic        
'1-methyl-2-{[4-(1-methylpyridin-1-ium-4-yl)benzene-1-carbonyl]amino}-5-{[4-(1-methylpyridin-1-ium-4-yl)phenyl]carbamoyl}pyridin-1-ium cucurbit[8]uril trinitrate heptadecahydrate'
_symmetry_cell_setting           triclinic
_symmetry_space_group_name_H-M   'P -1'
_symmetry_Int_Tables_number      2
_space_group_name_Hall           '-P 1'
loop_
_symmetry_equiv_pos_site_id
_symmetry_equiv_pos_as_xyz
1 x,y,z
2 -x,-y,-z
_cell_length_a                   19.1638(10)
_cell_length_b                   24.5272(16)
_cell_length_c                   26.135(2)
_cell_angle_alpha                89.748(6)
_cell_angle_beta                 85.249(5)
_cell_angle_gamma                71.408(4)
_cell_volume                     11600.1
_exptl_crystal_colour            colorless
_exptl_crystal_description       block
_cell_formula_units_Z            4
loop_
_atom_site_label
_atom_site_type_symbol
_atom_site_fract_x
_atom_site_fract_y
_atom_site_fract_z
N1 N 1.11178(15) 0.06550(11) 0.33795(10)
N2 N 1.21697(15) 0.06955(11) 0.29815(10)
N3 N 1.20625(15) -0.00119(11) 0.23644(10)
N4 N 1.11163(15) -0.01459(11) 0.28375(10)
N5 N 1.27198(16) 0.11177(11) 0.22901(10)
N6 N 1.26534(15) 0.17350(11) 0.16619(10)
N7 N 1.25528(16) 0.10195(12) 0.10599(10)
N8 N 1.26615(16) 0.03920(12) 0.16845(10)
N9 N 1.20074(18) 0.24670(12) 0.10971(10)
N10 N 1.0990(2) 0.30585(12) 0.08018(12)
N11 N 1.10167(18) 0.23879(12) 0.01120(10)
N12 N 1.19305(17) 0.17514(12) 0.04796(10)
N13 N 0.97494(19) 0.35633(12) 0.06149(11)
N14 N 0.85276(19) 0.39294(13) 0.06034(10)
N15 N 0.85962(17) 0.32799(12) -0.01182(10)
N16 N 0.98203(17) 0.29565(12) -0.01429(10)
N17 N 0.72555(19) 0.40748(13) 0.08711(11)
N18 N 0.63741(19) 0.38444(12) 0.13280(11)
N19 N 0.65584(17) 0.30483(12) 0.07225(10)
N20 N 0.73662(18) 0.33359(12) 0.02212(10)
N21 N 0.58595(19) 0.33448(12) 0.19784(11)
N22 N 0.58472(16) 0.27478(12) 0.26193(10)
N23 N 0.59400(16) 0.19764(11) 0.20094(10)
N24 N 0.60422(17) 0.25554(12) 0.13761(10)
N25 N 0.63415(15) 0.20692(11) 0.32723(10)
N26 N 0.73139(16) 0.15110(11) 0.36324(10)
N27 N 0.74041(15) 0.07081(11) 0.30549(10)
N28 N 0.64937(15) 0.12995(11) 0.26501(10)
N29 N 0.86074(15) 0.10225(11) 0.37313(10)
N30 N 0.98413(14) 0.07579(10) 0.36355(9)
N31 N 0.98826(16) -0.01051(11) 0.31583(11)
N32 N 0.86579(15) 0.01943(11) 0.32177(10)
O1 O 1.14375(13) 0.14783(9) 0.34736(8)
O2 O 1.12905(14) -0.04132(10) 0.19779(9)
O3 O 1.22346(14) 0.20888(10) 0.24872(9)
O4 O 1.20491(14) 0.02900(10) 0.09868(9)
O5 O 1.12433(16) 0.32070(10) 0.16269(9)
O6 O 1.12108(14) 0.14228(10) -0.00297(9)
O7 O 0.90520(19) 0.40063(12) 0.13520(9)
O8 O 0.92267(15) 0.24107(10) -0.05332(8)
O9 O 0.70291(16) 0.43342(10) 0.17302(9)
O10 O 0.73836(15) 0.23976(10) 0.01451(9)
O11 O 0.62167(17) 0.35386(11) 0.27611(10)
O12 O 0.66175(14) 0.15808(10) 0.12524(9)
O13 O 0.70342(14) 0.24943(10) 0.37089(9)
O14 O 0.73190(14) 0.05224(9) 0.22028(8)
O15 O 0.91784(13) 0.17175(9) 0.37872(8)
O16 O 0.92889(14) -0.04101(10) 0.25418(9)
C1 C 1.15654(18) 0.09936(13) 0.32956(11)
C2 C 1.21935(18) 0.01115(13) 0.28812(12)
H1 H 1.2656 -0.0173 0.2991
C3 C 1.14741(19) -0.02137(13) 0.23530(13)
C4 C 1.15010(18) 0.00646(13) 0.32017(12)
H2 H 1.1635 -0.0202 0.3495
C5 C 1.27558(19) 0.09189(14) 0.28119(12)
H3 H 1.3236 0.0615 0.2839
H4 H 1.2737 0.1242 0.3044
C6 C 1.2629(2) -0.01216(14) 0.19423(13)
H5 H 1.3114 -0.0318 0.2073
H6 H 1.2537 -0.0386 0.1690
C7 C 1.25037(17) 0.16898(14) 0.21789(12)
C8 C 1.30059(18) 0.11874(14) 0.14064(12)
H7 H 1.3502 0.1161 0.1235
C9 C 1.23827(18) 0.05430(14) 0.12198(12)
C10 C 1.30645(18) 0.07549(14) 0.18488(12)
H8 H 1.3590 0.0529 0.1895
C11 C 1.2607(2) 0.22757(14) 0.14215(13)
H9 H 1.2543 0.2573 0.1692
H10 H 1.3077 0.2234 0.1213
C12 C 1.2499(2) 0.12044(15) 0.05350(12)
H11 H 1.2394 0.0908 0.0327
H12 H 1.2981 0.1235 0.0397
C13 C 1.1400(2) 0.29383(14) 0.12185(13)
C14 C 1.1394(2) 0.27375(15) 0.03492(13)
H13 H 1.1550 0.2991 0.0095
C15 C 1.1369(2) 0.18134(14) 0.01662(12)
C16 C 1.2063(2) 0.22946(14) 0.05657(12)
H14 H 1.2539 0.2300 0.0382
C17 C 1.0433(3) 0.36097(15) 0.07658(16)
H15 H 1.0340 0.3814 0.1103
H16 H 1.0619 0.3843 0.0513
C18 C 1.0562(2) 0.26069(15) -0.03066(12)
H17 H 1.0798 0.2837 -0.0529
H18 H 1.0542 0.2278 -0.0516
C19 C 0.9108(2) 0.38468(14) 0.09031(13)
C20 C 0.8785(2) 0.37668(14) 0.00720(12)
H19 H 0.8629 0.4104 -0.0157
C21 C 0.9208(2) 0.28370(14) -0.02845(11)
C22 C 0.9630(2) 0.35309(14) 0.00750(12)
H20 H 0.9873 0.3771 -0.0137
C23 C 0.7816(2) 0.43410(15) 0.07447(14)
H21 H 0.7668 0.4605 0.0457
H22 H 0.7852 0.4574 0.1044
C24 C 0.7861(2) 0.33282(16) -0.02296(12)
H23 H 0.7880 0.3001 -0.0457
H24 H 0.7657 0.3686 -0.0420
C25 C 0.6901(2) 0.41036(14) 0.13474(12)
C26 C 0.6315(2) 0.36660(14) 0.08096(13)
H25 H 0.5810 0.3854 0.0696
C27 C 0.7128(2) 0.28782(14) 0.03446(12)
C28 C 0.6907(2) 0.38539(15) 0.04842(13)
H26 H 0.6678 0.4158 0.0237
C29 C 0.5815(2) 0.38879(15) 0.17424(14)
H27 H 0.5323 0.4051 0.1611
H28 H 0.5859 0.4159 0.2008
C30 C 0.6078(2) 0.27087(15) 0.08414(13)
H29 H 0.6254 0.2352 0.0626
H30 H 0.5574 0.2928 0.0752
C31 C 0.5999(2) 0.32416(15) 0.24827(13)
C32 C 0.55116(19) 0.25364(14) 0.22203(13)
H31 H 0.4991 0.2558 0.2330
C33 C 0.62392(18) 0.19943(14) 0.15211(12)
C34 C 0.5552(2) 0.29403(14) 0.17667(13)
H32 H 0.5054 0.3136 0.1645
C35 C 0.57771(19) 0.25871(14) 0.31502(12)
H33 H 0.5796 0.2906 0.3374
H34 H 0.5288 0.2535 0.3226
C36 C 0.59674(19) 0.14515(14) 0.22646(13)
H35 H 0.6097 0.1135 0.2005
H36 H 0.5470 0.1489 0.2430
C37 C 0.69103(17) 0.20662(13) 0.35554(11)
C38 C 0.69723(18) 0.11048(14) 0.34577(12)
H37 H 0.6803 0.0901 0.3750
C39 C 0.70950(18) 0.08172(13) 0.25967(11)
C40 C 0.63108(18) 0.14983(13) 0.31805(12)
H38 H 0.5830 0.1457 0.3322
C41 C 0.78979(19) 0.13518(14) 0.39799(12)
H39 H 0.7940 0.1706 0.4136
H40 H 0.7760 0.1124 0.4261
C42 C 0.79378(19) 0.01586(13) 0.31502(12)
H41 H 0.7759 -0.0004 0.3462
H42 H 0.7977 -0.0108 0.2858
C43 C 0.92022(18) 0.12186(13) 0.37261(11)
C44 C 0.96811(18) 0.02175(13) 0.36401(12)
H43 H 0.9894 -0.0025 0.3933
C45 C 0.92771(19) -0.01355(13) 0.29324(12)
C46 C 0.88311(18) 0.04032(13) 0.36903(11)
H44 H 0.8638 0.0234 0.3997
C47 C 1.05348(18) 0.07889(13) 0.37942(11)
H45 H 1.0458 0.1181 0.3931
H46 H 1.0692 0.0517 0.4075
C48 C 1.06211(19) -0.04624(13) 0.29967(15)
H47 H 1.0602 -0.0715 0.2708
H48 H 1.0824 -0.0712 0.3284
N33 N -0.18143(17) 0.24992(11) 0.63454(10)
N34 N -0.08207(17) 0.19020(11) 0.59147(10)
N35 N -0.08966(16) 0.25618(11) 0.52074(10)
N36 N -0.18018(16) 0.31987(11) 0.56860(10)
N37 N 0.04084(16) 0.13889(11) 0.55582(10)
N38 N 0.16209(16) 0.10019(12) 0.53685(10)
N39 N 0.15133(16) 0.16794(11) 0.46660(10)
N40 N 0.02932(16) 0.19947(11) 0.48006(10)
N41 N 0.28988(16) 0.08681(12) 0.54716(10)
N42 N 0.37653(16) 0.11061(12) 0.58274(10)
N43 N 0.35227(16) 0.19324(12) 0.52627(10)
N44 N 0.27445(17) 0.16315(12) 0.48504(10)
N45 N 0.42382(17) 0.16146(12) 0.64326(11)
N46 N 0.42299(17) 0.21977(13) 0.70780(11)
N47 N 0.41008(18) 0.29958(12) 0.64918(11)
N48 N 0.40088(17) 0.24287(12) 0.58640(10)
N49 N 0.37213(18) 0.28649(12) 0.77959(11)
N50 N 0.27480(18) 0.34120(13) 0.82790(11)
N51 N 0.26517(17) 0.42292(12) 0.77240(11)
N52 N 0.35511(18) 0.36570(12) 0.72030(11)
N53 N 0.14606(17) 0.39118(12) 0.85476(10)
N54 N 0.02294(17) 0.42041(11) 0.86293(10)
N55 N 0.02075(18) 0.50556(12) 0.81419(12)
N56 N 0.14309(18) 0.47669(11) 0.80651(11)
N57 N -0.10512(17) 0.43203(11) 0.85216(10)
N58 N -0.20847(18) 0.42727(12) 0.82282(11)
N59 N -0.19479(17) 0.49720(11) 0.75882(10)
N60 N -0.10316(18) 0.51199(12) 0.79706(11)
N61 N -0.26282(17) 0.38352(11) 0.76175(10)
N62 N -0.25097(17) 0.32053(11) 0.69894(10)
N63 N -0.23963(17) 0.39109(11) 0.63533(10)
N64 N -0.25003(17) 0.45398(12) 0.69829(10)
O17 O -0.10239(15) 0.17684(10) 0.67820(8)
O18 O -0.11111(14) 0.35309(9) 0.50656(9)
O19 O 0.11430(15) 0.09269(10) 0.61946(9)
O20 O 0.08655(14) 0.25566(9) 0.43335(8)
O21 O 0.31230(14) 0.05967(10) 0.63046(9)
O22 O 0.26648(14) 0.25853(10) 0.47996(9)
O23 O 0.39254(15) 0.13739(11) 0.72535(10)
O24 O 0.34116(15) 0.34047(10) 0.58215(9)
O25 O 0.30412(15) 0.24242(10) 0.83160(9)
O26 O 0.27206(16) 0.44470(10) 0.68671(9)
O27 O 0.08571(15) 0.32378(9) 0.86849(9)
O28 O 0.08033(17) 0.53762(11) 0.74603(10)
O29 O -0.13747(15) 0.34977(10) 0.86603(9)
O30 O -0.11773(14) 0.53889(10) 0.71275(9)
O31 O -0.21290(16) 0.28734(10) 0.77798(9)
O32 O -0.19162(14) 0.46537(10) 0.62033(9)
C49 C -0.1201(2) 0.20272(13) 0.63878(12)
C50 C -0.12541(19) 0.22142(13) 0.55152(12)
H49 H -0.1419 0.1954 0.5295
C51 C -0.12583(19) 0.31394(13) 0.52959(12)
C52 C -0.1911(2) 0.26559(13) 0.58178(11)
H50 H -0.2394 0.2638 0.5713
C53 C -0.0269(2) 0.13474(13) 0.58127(13)
H51 H -0.0161 0.1148 0.6141
H52 H -0.0468 0.1112 0.5596
C54 C -0.04528(19) 0.23397(14) 0.47340(11)
H53 H -0.0693 0.2106 0.4550
H54 H -0.0442 0.2668 0.4515
C55 C 0.1066(2) 0.10904(13) 0.57550(12)
C56 C 0.13347(19) 0.11874(13) 0.48759(12)
H55 H 0.1475 0.0860 0.4621
C57 C 0.08970(19) 0.21228(13) 0.45801(11)
C58 C 0.04949(19) 0.14192(13) 0.50048(11)
H56 H 0.0242 0.1178 0.4837
C59 C 0.2347(2) 0.05940(14) 0.54103(13)
H57 H 0.2327 0.0347 0.5708
H58 H 0.2494 0.0343 0.5098
C60 C 0.2248(2) 0.16406(15) 0.44570(12)
H59 H 0.2220 0.1973 0.4234
H60 H 0.2454 0.1286 0.4240
C61 C 0.32489(18) 0.08368(13) 0.59097(12)
C62 C 0.3806(2) 0.13132(14) 0.53072(12)
H61 H 0.4313 0.1149 0.5129
C63 C 0.29485(19) 0.20996(14) 0.49568(12)
C64 C 0.32309(19) 0.11094(14) 0.50471(12)
H62 H 0.3470 0.0816 0.4767
C65 C 0.4323(2) 0.10704(14) 0.61790(14)
H63 H 0.4816 0.0931 0.5987
H64 H 0.4299 0.0784 0.6443
C66 C 0.3978(2) 0.22922(15) 0.53314(13)
H65 H 0.4485 0.2093 0.5177
H66 H 0.3781 0.2654 0.5146
C67 C 0.41075(19) 0.16953(15) 0.69528(13)
C68 C 0.4546(2) 0.24318(15) 0.66404(13)
H67 H 0.5064 0.2419 0.6686
C69 C 0.3798(2) 0.29852(14) 0.60370(13)
C70 C 0.4517(2) 0.20416(14) 0.61864(13)
H68 H 0.5015 0.1863 0.6000
C71 C 0.4301(2) 0.23497(15) 0.76004(13)
H69 H 0.4786 0.2409 0.7617
H70 H 0.4291 0.2025 0.7824
C72 C 0.4070(2) 0.35173(16) 0.67530(14)
H71 H 0.3934 0.3839 0.6511
H72 H 0.4569 0.3481 0.6856
C73 C 0.3159(2) 0.28543(15) 0.81479(13)
C74 C 0.3097(2) 0.38168(15) 0.80666(13)
H73 H 0.3271 0.4013 0.8341
C75 C 0.2951(2) 0.41378(14) 0.72302(13)
C76 C 0.3748(2) 0.34385(15) 0.77071(13)
H74 H 0.4230 0.3479 0.7789
C77 C 0.2172(2) 0.35601(16) 0.86970(13)
H75 H 0.2122 0.3201 0.8845
H76 H 0.2323 0.3768 0.8969
C78 C 0.2148(2) 0.47828(14) 0.79018(14)
H77 H 0.2352 0.4923 0.8191
H78 H 0.2111 0.5060 0.7621
C79 C 0.0851(2) 0.37340(14) 0.86290(12)
C80 C 0.0404(2) 0.47359(14) 0.86071(13)
H79 H 0.0198 0.4982 0.8923
C81 C 0.0810(2) 0.50987(14) 0.78522(13)
C82 C 0.1253(2) 0.45329(14) 0.85540(12)
H80 H 0.1456 0.4681 0.8845
C83 C -0.0474(2) 0.41848(15) 0.88693(12)
H81 H -0.0408 0.3795 0.9004
H82 H -0.0630 0.4461 0.9164
C84 C -0.0533(2) 0.54262(14) 0.80739(16)
H83 H -0.0729 0.5668 0.8388
H84 H -0.0511 0.5686 0.7786
C85 C -0.1492(2) 0.39775(14) 0.84909(12)
C86 C -0.2110(2) 0.48553(14) 0.81246(12)
H85 H -0.2579 0.5140 0.8277
C87 C -0.13723(19) 0.51827(12) 0.75193(12)
C88 C -0.1426(2) 0.49083(13) 0.83740(13)
H86 H -0.1575 0.5178 0.8679
C89 C -0.2673(2) 0.40491(15) 0.81366(12)
H87 H -0.3152 0.4357 0.8211
H88 H -0.2660 0.3733 0.8377
C90 C -0.2494(2) 0.50665(14) 0.72203(13)
H89 H -0.2988 0.5264 0.7395
H90 H -0.2392 0.5322 0.6951
C91 C -0.23923(19) 0.32660(13) 0.74900(12)
C92 C -0.28561(19) 0.37491(13) 0.67548(12)
H91 H -0.3348 0.3770 0.6638
C93 C -0.22366(19) 0.43941(14) 0.64887(12)
C94 C -0.2934(2) 0.41923(14) 0.71946(12)
H92 H -0.3462 0.4428 0.7283
C95 C -0.2417(2) 0.26601(14) 0.67437(12)
H93 H -0.2881 0.2678 0.6592
H94 H -0.2328 0.2359 0.7006
C96 C -0.2367(2) 0.37402(14) 0.58205(12)
H95 H -0.2853 0.3710 0.5750
H96 H -0.2274 0.4043 0.5600
N65 N 0.00327(16) 1.31074(12) 1.29135(11)
N66 N 0.08059(16) 0.99713(11) 1.07264(10)
H97 H 0.1157 1.0132 1.0705
N67 N 0.14724(16) 0.93880(12) 1.00342(10)
N68 N 0.16374(18) 0.81999(12) 0.88335(11)
H98 H 0.1842 0.8474 0.8813
N69 N 0.20000(18) 0.60337(12) 0.62730(11)
O33 O -0.02594(15) 0.99648(12) 1.11911(11)
O34 O 0.09061(16) 0.78177(11) 0.93592(9)
C97 C 0.0162(2) 1.25876(15) 1.31176(13)
H99 H 0.0240 1.2541 1.3472
C98 C 0.01827(19) 1.21215(14) 1.28247(13)
H100 H 0.0264 1.1758 1.2979
C99 C 0.00868(18) 1.21745(13) 1.23040(12)
C100 C -0.0044(2) 1.27233(14) 1.21024(13)
H101 H -0.0111 1.2780 1.1748
C101 C -0.0076(2) 1.31784(15) 1.24117(14)
H102 H -0.0176 1.3551 1.2271
C102 C 0.01378(18) 1.16675(13) 1.19873(12)
C103 C -0.00866(19) 1.12195(14) 1.22016(12)
H103 H -0.0265 1.1244 1.2554
C104 C -0.0053(2) 1.07465(14) 1.19117(12)
H104 H -0.0227 1.0454 1.2059
C105 C 0.02357(19) 1.06947(13) 1.14009(12)
C106 C 0.0474(2) 1.11295(14) 1.11833(13)
H105 H 0.0675 1.1093 1.0836
C107 C 0.0418(2) 1.16149(14) 1.14725(13)
H106 H 0.0571 1.1915 1.1320
C108 C 0.02308(19) 1.01803(14) 1.11029(12)
C109 C 0.08714(19) 0.95290(14) 1.03815(12)
C110 C 0.0364(2) 0.92331(14) 1.03623(13)
H107 H -0.0065 0.9331 1.0597
C111 C 0.0483(2) 0.87984(15) 1.00030(13)
H108 H 0.0137 0.8596 0.9991
C112 C 0.11075(19) 0.86543(14) 0.96567(12)
C113 C 0.1592(2) 0.89510(15) 0.96876(12)
H109 H 0.2028 0.8849 0.9459
C114 C 0.1216(2) 0.81745(14) 0.92726(12)
C115 C 0.1767(2) 0.78201(14) 0.84125(13)
C116 C 0.1904(2) 0.80141(14) 0.79255(13)
H110 H 0.1944 0.8389 0.7889
C117 C 0.1981(2) 0.76698(14) 0.74960(13)
H111 H 0.2058 0.7813 0.7165
C118 C 0.19483(19) 0.71120(13) 0.75433(12)
C119 C 0.1841(2) 0.69136(14) 0.80382(13)
H112 H 0.1829 0.6531 0.8077
C120 C 0.1753(2) 0.72548(15) 0.84670(13)
H113 H 0.1684 0.7110 0.8798
C121 C 0.1766(2) 0.66067(14) 0.62217(13)
H114 H 0.1608 0.6764 0.5902
C122 C 0.17523(19) 0.69687(14) 0.66223(13)
H115 H 0.1584 0.7373 0.6580
C123 C 0.19852(18) 0.67430(13) 0.70935(12)
C124 C 0.2250(2) 0.61467(14) 0.71248(13)
H116 H 0.2436 0.5977 0.7434
C125 C 0.2246(2) 0.58031(15) 0.67161(14)
H117 H 0.2419 0.5397 0.6746
C126 C 0.0030(2) 1.36032(16) 1.32333(15)
H118 H 0.0075 1.3488 1.3592
H119 H -0.0433 1.3918 1.3208
H120 H 0.0448 1.3733 1.3112
C127 C 0.2010(3) 0.9705(2) 1.00136(16)
H121 H 0.2356 0.9581 0.9707
H122 H 0.2284 0.9625 1.0321
H123 H 0.1749 1.0118 0.9999
C128 C 0.1989(3) 0.56524(18) 0.58439(16)
H124 H 0.2457 0.5335 0.5805
H125 H 0.1923 0.5871 0.5527
H126 H 0.1580 0.5497 0.5913
N70 N 1.00481(17) 0.19004(12) 0.79460(11)
N71 N 0.92592(17) 0.50219(11) 0.58001(10)
H127 H 0.8917 0.4852 0.5824
N72 N 0.85595(17) 0.56095(12) 0.51955(10)
N73 N 0.82802(17) 0.68595(12) 0.40557(11)
H128 H 0.8083 0.6581 0.4061
N74 N 0.7825(2) 0.90115(13) 0.14938(12)
O35 O 1.03524(16) 0.50198(12) 0.61008(12)
O36 O 0.89853(16) 0.72631(10) 0.44932(9)
C129 C 1.0183(2) 0.18187(15) 0.74342(13)
H129 H 1.0292 0.1443 0.7291
C130 C 1.0167(2) 0.22657(14) 0.71162(13)
H130 H 1.0262 0.2197 0.6756
C131 C 1.00137(19) 0.28205(14) 0.73172(12)
C132 C 0.9890(2) 0.28852(15) 0.78490(13)
H131 H 0.9794 0.3255 0.8003
C133 C 0.9902(2) 0.24289(15) 0.81559(13)
H132 H 0.9807 0.2486 0.8518
C134 C 0.99711(19) 0.33245(14) 0.69919(12)
C135 C 1.0185(2) 0.37767(14) 0.71730(13)
H133 H 1.0359 0.3758 0.7504
C136 C 1.0145(2) 0.42469(14) 0.68786(13)
H134 H 1.0310 0.4545 0.7002
C137 C 0.98651(19) 0.42906(14) 0.63983(12)
C138 C 0.9644(2) 0.38463(14) 0.62160(13)
H135 H 0.9448 0.3873 0.5891
C139 C 0.9710(2) 0.33643(14) 0.65090(13)
H136 H 0.9574 0.3056 0.6378
C140 C 0.9858(2) 0.48059(14) 0.60930(13)
C141 C 0.9158(2) 0.54811(13) 0.54759(12)
C142 C 0.9624(2) 0.58178(14) 0.54078(13)
H137 H 1.0054 0.5733 0.5590
C143 C 0.9464(2) 0.62694(14) 0.50804(12)
H138 H 0.9780 0.6499 0.5042
C144 C 0.8846(2) 0.63959(14) 0.48037(12)
C145 C 0.8395(2) 0.60658(15) 0.48796(12)
H139 H 0.7955 0.6157 0.4708
C146 C 0.8701(2) 0.68895(14) 0.44398(12)
C147 C 0.81375(19) 0.72459(14) 0.36474(13)
C148 C 0.8110(2) 0.78173(14) 0.36953(13)
H140 H 0.8159 0.7969 0.4019
C149 C 0.8011(2) 0.81619(14) 0.32728(13)
H141 H 0.7991 0.8552 0.3310
C150 C 0.79399(19) 0.79513(14) 0.27894(13)
C151 C 0.7943(2) 0.73828(15) 0.27513(14)
H142 H 0.7883 0.7231 0.2430
C152 C 0.8030(2) 0.70387(15) 0.31770(14)
H143 H 0.8017 0.6656 0.3147
C153 C 0.8125(2) 0.84372(16) 0.14352(14)
H144 H 0.8311 0.8273 0.1103
C154 C 0.8167(2) 0.80864(15) 0.18459(14)
H145 H 0.8386 0.7682 0.1797
C155 C 0.78904(19) 0.83134(14) 0.23376(13)
C156 C 0.7567(2) 0.89124(14) 0.23827(13)
H146 H 0.7363 0.9088 0.2708
C157 C 0.7544(2) 0.92448(15) 0.19590(14)
H147 H 0.7325 0.9650 0.1995
C158 C 1.0038(3) 0.14123(16) 0.82792(15)
H148 H 1.0029 0.1526 0.8639
H149 H 1.0481 0.1083 0.8188
H150 H 0.9597 0.1305 0.8230
C159 C 0.8054(3) 0.5259(2) 0.52175(16)
H151 H 0.8344 0.4850 0.5177
H152 H 0.7725 0.5369 0.4940
H153 H 0.7759 0.5326 0.5550
C160 C 0.7787(4) 0.9382(2) 0.10454(17)
H154 H 0.8046 0.9147 0.0743
H155 H 0.8020 0.9674 0.1111
H156 H 0.7268 0.9571 0.0983
N75 N 0.90146(18) 0.03513(12) 0.50552(11)
O37 O 0.9207(2) -0.01205(12) 0.48328(11)
O38 O 0.90289(17) 0.07912(11) 0.48241(10)
O39 O 0.88038(19) 0.03900(13) 0.55271(10)
N76 N 0.0994(2) 0.46724(15) 0.99285(12)
O40 O 0.1022(2) 0.42290(12) 0.96885(10)
O41 O 0.0757(2) 0.51503(13) 0.97399(12)
O42 O 0.1211(3) 0.46315(16) 1.03721(12)
N77 N 0.4166(5) 0.1680(6) 0.2126(6)
O43 O 0.4113(4) 0.1462(4) 0.2611(4)
O44 O 0.4431(5) 0.1471(5) 0.1711(4)
O45 O 0.3973(7) 0.2283(5) 0.2112(8)
N78 N 0.7061(5) 0.8089(5) 0.0632(3)
O46 O 0.7625(5) 0.7720(3) 0.06160(18)
O47 O 0.6832(8) 0.8644(5) 0.0711(5)
O48 O 0.6621(7) 0.7804(6) 0.0503(5)
O49 O 0.82481(16) 0.06542(12) 0.13835(11)
O50 O 0.82790(18) 0.23508(12) 0.87280(10)
O51 O 0.18091(16) 0.42868(11) 0.61637(11)
O52 O 0.1748(2) 0.26544(14) 0.34528(11)
O53 O 0.1812(2) 0.37795(14) 0.35845(12)
O54 O 0.7847(2) 0.14199(14) 0.59332(14)
O55 O 0.8200(2) 0.12194(13) 0.88388(12)
O56 O 0.7452(2) 0.27224(18) 0.46823(12)
O57 O 0.6107(2) 0.51817(15) 0.24338(15)
O58 O 0.2908(2) 0.34857(15) 0.42496(16)
O59 O 0.6076(2) 0.88617(17) 0.16765(16)
O60 O 0.6172(2) 0.38960(18) 0.37815(15)
O61 O 0.7018(3) 0.1595(2) 0.95564(19)
O62 O 0.6882(3) 0.1958(2) 0.5228(2)
O63 O 0.6418(3) 0.55424(19) 0.4363(2)
O64 O 0.5975(3) 0.5014(2) 0.35056(19)
O65 O 0.3296(3) 0.7040(3) 0.1103(2)
O66 O 0.5520(3) 0.2638(2) 0.5591(2)
O67 O 0.7687(4) 0.6436(2) 0.9472(3)
O68 O 0.3351(4) 0.5203(3) 0.4859(2)
O69 O 0.8336(5) 0.1677(2) 0.77490(19)
O70 O 0.4116(3) 0.7139(5) 0.2660(3)
O71 O 0.5894(3) 0.3180(3) 0.6285(4)
O72 O 0.4450(4) 0.2434(4) 0.1121(3)
O73 O 0.4162(4) 0.6574(3) 0.1883(3)
O74 O 0.4806(4) 0.5440(3) 0.1983(4)
O75 O 0.4223(5) 0.1673(4) 0.4117(3)
O76 O 0.1760(5) 0.3303(2) 0.2511(2)
O77 O 0.4055(3) 0.4675(3) 0.1945(3)
O78 O 0.3364(4) 0.2267(5) 0.3380(3)
O79 O 0.5277(6) 0.2110(5) 0.4252(3)
O80 O 0.5894(7) 0.0357(6) 0.3284(14)
O82 O 0.4274(4) 0.9574(4) 0.2525(7)
O84 O 0.6355(6) 0.3802(3) 0.4779(3)
O81? O 0.6006(13) 0.0210(18) 0.3037(16)
O83? O 0.4274(10) 0.9695(8) 0.2880(10)
O85? O 0.6984(11) 0.3766(7) 0.4664(5)
loop_
_geom_bond_atom_site_label_1
_geom_bond_atom_site_label_2
_geom_bond_site_symmetry_1
_geom_bond_site_symmetry_2
N1 C1 1_555 1_555
N2 C1 1_555 1_555
N3 C2 1_555 1_555
N4 C3 1_555 1_555
N5 C5 1_555 1_555
N6 C7 1_555 1_555
N7 C8 1_555 1_555
N8 C6 1_555 1_555
N9 C11 1_555 1_555
N10 C13 1_555 1_555
N11 C14 1_555 1_555
N12 C12 1_555 1_555
N13 C17 1_555 1_555
N14 C19 1_555 1_555
N15 C20 1_555 1_555
N16 C18 1_555 1_555
N17 C23 1_555 1_555
N18 C25 1_555 1_555
N19 C26 1_555 1_555
N20 C24 1_555 1_555
N21 C29 1_555 1_555
N22 C31 1_555 1_555
N23 C32 1_555 1_555
N24 C30 1_555 1_555
N25 C35 1_555 1_555
N26 C37 1_555 1_555
N27 C38 1_555 1_555
N28 C36 1_555 1_555
N29 C41 1_555 1_555
N30 C43 1_555 1_555
N31 C44 1_555 1_555
N32 C42 1_555 1_555
O1 C1 1_555 1_555
O2 C3 1_555 1_555
O3 C7 1_555 1_555
O4 C9 1_555 1_555
O5 C13 1_555 1_555
O6 C15 1_555 1_555
O7 C19 1_555 1_555
O8 C21 1_555 1_555
O9 C25 1_555 1_555
O10 C27 1_555 1_555
O11 C31 1_555 1_555
O12 C33 1_555 1_555
O13 C37 1_555 1_555
O14 C39 1_555 1_555
O15 C43 1_555 1_555
O16 C45 1_555 1_555
C2 N2 1_555 1_555
H1 C2 1_555 1_555
C3 N3 1_555 1_555
C4 N1 1_555 1_555
H2 C4 1_555 1_555
C5 N2 1_555 1_555
H3 C5 1_555 1_555
H4 C5 1_555 1_555
C6 N3 1_555 1_555
H5 C6 1_555 1_555
H6 C6 1_555 1_555
C7 N5 1_555 1_555
C8 N6 1_555 1_555
H7 C8 1_555 1_555
C9 N7 1_555 1_555
C10 N5 1_555 1_555
H8 C10 1_555 1_555
C11 N6 1_555 1_555
H9 C11 1_555 1_555
H10 C11 1_555 1_555
C12 N7 1_555 1_555
H11 C12 1_555 1_555
H12 C12 1_555 1_555
C13 N9 1_555 1_555
C14 N10 1_555 1_555
H13 C14 1_555 1_555
C15 N11 1_555 1_555
C16 N9 1_555 1_555
H14 C16 1_555 1_555
C17 N10 1_555 1_555
H15 C17 1_555 1_555
H16 C17 1_555 1_555
C18 N11 1_555 1_555
H17 C18 1_555 1_555
H18 C18 1_555 1_555
C19 N13 1_555 1_555
C20 N14 1_555 1_555
H19 C20 1_555 1_555
C21 N15 1_555 1_555
C22 N13 1_555 1_555
H20 C22 1_555 1_555
C23 N14 1_555 1_555
H21 C23 1_555 1_555
H22 C23 1_555 1_555
C24 N15 1_555 1_555
H23 C24 1_555 1_555
H24 C24 1_555 1_555
C25 N17 1_555 1_555
C26 N18 1_555 1_555
H25 C26 1_555 1_555
C27 N19 1_555 1_555
C28 N17 1_555 1_555
H26 C28 1_555 1_555
C29 N18 1_555 1_555
H27 C29 1_555 1_555
H28 C29 1_555 1_555
C30 N19 1_555 1_555
H29 C30 1_555 1_555
H30 C30 1_555 1_555
C31 N21 1_555 1_555
C32 N22 1_555 1_555
H31 C32 1_555 1_555
C33 N23 1_555 1_555
C34 N21 1_555 1_555
H32 C34 1_555 1_555
C35 N22 1_555 1_555
H33 C35 1_555 1_555
H34 C35 1_555 1_555
C36 N23 1_555 1_555
H35 C36 1_555 1_555
H36 C36 1_555 1_555
C37 N25 1_555 1_555
C38 N26 1_555 1_555
H37 C38 1_555 1_555
C39 N27 1_555 1_555
C40 N25 1_555 1_555
H38 C40 1_555 1_555
C41 N26 1_555 1_555
H39 C41 1_555 1_555
H40 C41 1_555 1_555
C42 N27 1_555 1_555
H41 C42 1_555 1_555
H42 C42 1_555 1_555
C43 N29 1_555 1_555
C44 N30 1_555 1_555
H43 C44 1_555 1_555
C45 N31 1_555 1_555
C46 N29 1_555 1_555
H44 C46 1_555 1_555
C47 N1 1_555 1_555
H45 C47 1_555 1_555
H46 C47 1_555 1_555
C48 N4 1_555 1_555
H47 C48 1_555 1_555
H48 C48 1_555 1_555
N33 C49 1_555 1_555
N34 C49 1_555 1_555
N35 C50 1_555 1_555
N36 C51 1_555 1_555
N37 C53 1_555 1_555
N38 C55 1_555 1_555
N39 C56 1_555 1_555
N40 C54 1_555 1_555
N41 C59 1_555 1_555
N42 C61 1_555 1_555
N43 C62 1_555 1_555
N44 C60 1_555 1_555
N45 C65 1_555 1_555
N46 C67 1_555 1_555
N47 C68 1_555 1_555
N48 C66 1_555 1_555
N49 C71 1_555 1_555
N50 C73 1_555 1_555
N51 C74 1_555 1_555
N52 C72 1_555 1_555
N53 C77 1_555 1_555
N54 C79 1_555 1_555
N55 C80 1_555 1_555
N56 C78 1_555 1_555
N57 C83 1_555 1_555
N58 C85 1_555 1_555
N59 C86 1_555 1_555
N60 C84 1_555 1_555
N61 C89 1_555 1_555
N62 C91 1_555 1_555
N63 C92 1_555 1_555
N64 C90 1_555 1_555
O17 C49 1_555 1_555
O18 C51 1_555 1_555
O19 C55 1_555 1_555
O20 C57 1_555 1_555
O21 C61 1_555 1_555
O22 C63 1_555 1_555
O23 C67 1_555 1_555
O24 C69 1_555 1_555
O25 C73 1_555 1_555
O26 C75 1_555 1_555
O27 C79 1_555 1_555
O28 C81 1_555 1_555
O29 C85 1_555 1_555
O30 C87 1_555 1_555
O31 C91 1_555 1_555
O32 C93 1_555 1_555
C50 N34 1_555 1_555
H49 C50 1_555 1_555
C51 N35 1_555 1_555
C52 N33 1_555 1_555
H50 C52 1_555 1_555
C53 N34 1_555 1_555
H51 C53 1_555 1_555
H52 C53 1_555 1_555
C54 N35 1_555 1_555
H53 C54 1_555 1_555
H54 C54 1_555 1_555
C55 N37 1_555 1_555
C56 N38 1_555 1_555
H55 C56 1_555 1_555
C57 N39 1_555 1_555
C58 N37 1_555 1_555
H56 C58 1_555 1_555
C59 N38 1_555 1_555
H57 C59 1_555 1_555
H58 C59 1_555 1_555
C60 N39 1_555 1_555
H59 C60 1_555 1_555
H60 C60 1_555 1_555
C61 N41 1_555 1_555
C62 N42 1_555 1_555
H61 C62 1_555 1_555
C63 N43 1_555 1_555
C64 N41 1_555 1_555
H62 C64 1_555 1_555
C65 N42 1_555 1_555
H63 C65 1_555 1_555
H64 C65 1_555 1_555
C66 N43 1_555 1_555
H65 C66 1_555 1_555
H66 C66 1_555 1_555
C67 N45 1_555 1_555
C68 N46 1_555 1_555
H67 C68 1_555 1_555
C69 N47 1_555 1_555
C70 N45 1_555 1_555
H68 C70 1_555 1_555
C71 N46 1_555 1_555
H69 C71 1_555 1_555
H70 C71 1_555 1_555
C72 N47 1_555 1_555
H71 C72 1_555 1_555
H72 C72 1_555 1_555
C73 N49 1_555 1_555
C74 N50 1_555 1_555
H73 C74 1_555 1_555
C75 N51 1_555 1_555
C76 N49 1_555 1_555
H74 C76 1_555 1_555
C77 N50 1_555 1_555
H75 C77 1_555 1_555
H76 C77 1_555 1_555
C78 N51 1_555 1_555
H77 C78 1_555 1_555
H78 C78 1_555 1_555
C79 N53 1_555 1_555
C80 N54 1_555 1_555
H79 C80 1_555 1_555
C81 N55 1_555 1_555
C82 N53 1_555 1_555
H80 C82 1_555 1_555
C83 N54 1_555 1_555
H81 C83 1_555 1_555
H82 C83 1_555 1_555
C84 N55 1_555 1_555
H83 C84 1_555 1_555
H84 C84 1_555 1_555
C85 N57 1_555 1_555
C86 N58 1_555 1_555
H85 C86 1_555 1_555
C87 N59 1_555 1_555
C88 N57 1_555 1_555
H86 C88 1_555 1_555
C89 N58 1_555 1_555
H87 C89 1_555 1_555
H88 C89 1_555 1_555
C90 N59 1_555 1_555
H89 C90 1_555 1_555
H90 C90 1_555 1_555
C91 N61 1_555 1_555
C92 N62 1_555 1_555
H91 C92 1_555 1_555
C93 N63 1_555 1_555
C94 N61 1_555 1_555
H92 C94 1_555 1_555
C95 N33 1_555 1_555
H93 C95 1_555 1_555
H94 C95 1_555 1_555
C96 N36 1_555 1_555
H95 C96 1_555 1_555
H96 C96 1_555 1_555
N65 C97 1_555 1_555
N66 H97 1_555 1_555
N67 C109 1_555 1_555
N68 H98 1_555 1_555
N69 C121 1_555 1_555
O33 C108 1_555 1_555
O34 C114 1_555 1_555
C97 H99 1_555 1_555
C98 C97 1_555 1_555
H100 C98 1_555 1_555
C99 C98 1_555 1_555
C100 C99 1_555 1_555
H101 C100 1_555 1_555
C101 N65 1_555 1_555
H102 C101 1_555 1_555
C102 C99 1_555 1_555
C103 C102 1_555 1_555
H103 C103 1_555 1_555
C104 C103 1_555 1_555
H104 C104 1_555 1_555
C105 C104 1_555 1_555
C106 C105 1_555 1_555
H105 C106 1_555 1_555
C107 C102 1_555 1_555
H106 C107 1_555 1_555
C108 N66 1_555 1_555
C109 N66 1_555 1_555
C110 C109 1_555 1_555
H107 C110 1_555 1_555
C111 C110 1_555 1_555
H108 C111 1_555 1_555
C112 C111 1_555 1_555
C113 N67 1_555 1_555
H109 C113 1_555 1_555
C114 N68 1_555 1_555
C115 N68 1_555 1_555
C116 C115 1_555 1_555
H110 C116 1_555 1_555
C117 C116 1_555 1_555
H111 C117 1_555 1_555
C118 C117 1_555 1_555
C119 C118 1_555 1_555
H112 C119 1_555 1_555
C120 C115 1_555 1_555
H113 C120 1_555 1_555
C121 H114 1_555 1_555
C122 C121 1_555 1_555
H115 C122 1_555 1_555
C123 C118 1_555 1_555
C124 C123 1_555 1_555
H116 C124 1_555 1_555
C125 N69 1_555 1_555
H117 C125 1_555 1_555
C126 N65 1_555 1_555
H118 C126 1_555 1_555
H119 C126 1_555 1_555
H120 C126 1_555 1_555
C127 N67 1_555 1_555
H121 C127 1_555 1_555
H122 C127 1_555 1_555
H123 C127 1_555 1_555
C128 N69 1_555 1_555
H124 C128 1_555 1_555
H125 C128 1_555 1_555
H126 C128 1_555 1_555
N70 C129 1_555 1_555
N71 H127 1_555 1_555
N72 C141 1_555 1_555
N73 H128 1_555 1_555
N74 C153 1_555 1_555
O35 C140 1_555 1_555
O36 C146 1_555 1_555
C129 H129 1_555 1_555
C130 C129 1_555 1_555
H130 C130 1_555 1_555
C131 C130 1_555 1_555
C132 C131 1_555 1_555
H131 C132 1_555 1_555
C133 N70 1_555 1_555
H132 C133 1_555 1_555
C134 C131 1_555 1_555
C135 C134 1_555 1_555
H133 C135 1_555 1_555
C136 C135 1_555 1_555
H134 C136 1_555 1_555
C137 C136 1_555 1_555
C138 C137 1_555 1_555
H135 C138 1_555 1_555
C139 C134 1_555 1_555
H136 C139 1_555 1_555
C140 N71 1_555 1_555
C141 N71 1_555 1_555
C142 C141 1_555 1_555
H137 C142 1_555 1_555
C143 C142 1_555 1_555
H138 C143 1_555 1_555
C144 C143 1_555 1_555
C145 N72 1_555 1_555
H139 C145 1_555 1_555
C146 N73 1_555 1_555
C147 N73 1_555 1_555
C148 C147 1_555 1_555
H140 C148 1_555 1_555
C149 C148 1_555 1_555
H141 C149 1_555 1_555
C150 C149 1_555 1_555
C151 C150 1_555 1_555
H142 C151 1_555 1_555
C152 C147 1_555 1_555
H143 C152 1_555 1_555
C153 H144 1_555 1_555
C154 C153 1_555 1_555
H145 C154 1_555 1_555
C155 C150 1_555 1_555
C156 C155 1_555 1_555
H146 C156 1_555 1_555
C157 N74 1_555 1_555
H147 C157 1_555 1_555
C158 N70 1_555 1_555
H148 C158 1_555 1_555
H149 C158 1_555 1_555
H150 C158 1_555 1_555
C159 N72 1_555 1_555
H151 C159 1_555 1_555
H152 C159 1_555 1_555
H153 C159 1_555 1_555
C160 N74 1_555 1_555
H154 C160 1_555 1_555
H155 C160 1_555 1_555
H156 C160 1_555 1_555
N75 O37 1_555 1_555
O38 N75 1_555 1_555
O39 N75 1_555 1_555
N76 O40 1_555 1_555
O41 N76 1_555 1_555
O42 N76 1_555 1_555
N77 O43 1_555 1_555
O44 N77 1_555 1_555
O45 N77 1_555 1_555
N78 O46 1_555 1_555
O47 N78 1_555 1_555
O48 N78 1_555 1_555
N4 C4 1_555 1_555
N8 C9 1_555 1_555
N8 C10 1_555 1_555
N12 C15 1_555 1_555
N12 C16 1_555 1_555
N16 C21 1_555 1_555
N16 C22 1_555 1_555
N20 C27 1_555 1_555
N20 C28 1_555 1_555
N24 C33 1_555 1_555
N24 C34 1_555 1_555
N28 C39 1_555 1_555
N28 C40 1_555 1_555
N30 C47 1_555 1_555
N31 C48 1_555 1_555
N32 C45 1_555 1_555
N32 C46 1_555 1_555
C2 C4 1_555 1_555
C8 C10 1_555 1_555
C14 C16 1_555 1_555
C20 C22 1_555 1_555
C26 C28 1_555 1_555
C32 C34 1_555 1_555
C38 C40 1_555 1_555
C44 C46 1_555 1_555
N36 C52 1_555 1_555
N40 C57 1_555 1_555
N40 C58 1_555 1_555
N44 C63 1_555 1_555
N44 C64 1_555 1_555
N48 C69 1_555 1_555
N48 C70 1_555 1_555
N52 C75 1_555 1_555
N52 C76 1_555 1_555
N56 C81 1_555 1_555
N56 C82 1_555 1_555
N60 C87 1_555 1_555
N60 C88 1_555 1_555
N62 C95 1_555 1_555
N63 C96 1_555 1_555
N64 C93 1_555 1_555
N64 C94 1_555 1_555
C50 C52 1_555 1_555
C56 C58 1_555 1_555
C62 C64 1_555 1_555
C68 C70 1_555 1_555
C74 C76 1_555 1_555
C80 C82 1_555 1_555
C86 C88 1_555 1_555
C92 C94 1_555 1_555
C100 C101 1_555 1_555
C105 C108 1_555 1_555
C106 C107 1_555 1_555
C112 C113 1_555 1_555
C112 C114 1_555 1_555
C119 C120 1_555 1_555
C122 C123 1_555 1_555
C124 C125 1_555 1_555
C132 C133 1_555 1_555
C137 C140 1_555 1_555
C138 C139 1_555 1_555
C144 C145 1_555 1_555
C144 C146 1_555 1_555
C151 C152 1_555 1_555
C154 C155 1_555 1_555
C156 C157 1_555 1_555

#END
