
#######################################################################
#
#                 Cambridge Crystallographic Data Centre
#                                CCDC 
#
#######################################################################
#
# If this CIF has been generated from an entry in the Cambridge 
# Structural Database, then it will include bibliographic, chemical, 
# crystal, experimental, refinement or atomic coordinate data resulting 
# from the CCDC's data processing and validation procedures.
#
#######################################################################

data_MIGHES
_chemical_formula_moiety         
'C48 H48 N32 O16,2(C20 H18 N3 O3 1+),14(H2 O1),2(I1 1-)'
_chemical_name_systematic        
'bis(4-(4-{[5-(methoxycarbonyl)pyridin-2-yl]carbamoyl}phenyl)-1-methylpyridin-1-ium) cucurbit[8]uril diiodide unknown solvate tetradecahydrate'
_symmetry_cell_setting           triclinic
_symmetry_space_group_name_H-M   'P -1'
_symmetry_Int_Tables_number      2
_space_group_name_Hall           '-P 1'
loop_
_symmetry_equiv_pos_site_id
_symmetry_equiv_pos_as_xyz
1 x,y,z
2 -x,-y,-z
_cell_length_a                   14.016(8)
_cell_length_b                   14.276(8)
_cell_length_c                   15.210(9)
_cell_angle_alpha                75.327(8)
_cell_angle_beta                 78.665(8)
_cell_angle_gamma                68.441(9)
_cell_volume                     2720.01
_exptl_crystal_colour            orange
_exptl_crystal_description       block
_cell_formula_units_Z            1
loop_
_atom_site_label
_atom_site_type_symbol
_atom_site_fract_x
_atom_site_fract_y
_atom_site_fract_z
I1 I 0.61354(5) 0.84257(5) 0.60384(4)
N1 N 0.8038(4) 0.9624(4) 1.4046(3)
N2 N 0.7544(4) 0.8637(4) 1.3487(3)
N3 N 0.6410(4) 1.0163(4) 1.2603(3)
N4 N 0.6813(3) 1.1165(3) 1.3270(3)
N5 N 0.7518(4) 0.7705(3) 1.2393(3)
N6 N 0.7930(3) 0.7055(3) 1.1144(3)
N7 N 0.6585(3) 0.8457(4) 1.0395(3)
N8 N 0.6320(3) 0.9196(3) 1.1568(3)
N9 N 0.8736(4) 0.6670(3) 0.9675(3)
N10 N 0.9760(4) 0.6611(4) 0.8352(3)
N11 N 0.8453(3) 0.8121(4) 0.7687(3)
N12 N 0.7338(3) 0.8040(4) 0.8917(3)
N13 N 1.1077(4) 0.7032(4) 0.7234(3)
N14 N 1.2279(4) 0.7739(4) 0.6647(3)
N15 N 1.0965(4) 0.9299(4) 0.6011(3)
N16 N 0.9763(4) 0.8573(4) 0.6561(3)
O1 O 0.9130(3) 0.7987(3) 1.4009(3)
O2 O 0.6087(3) 1.1862(3) 1.1921(3)
O3 O 0.9122(3) 0.6547(3) 1.2163(3)
O4 O 0.5969(3) 1.0204(3) 1.0157(3)
O5 O 1.0497(3) 0.5972(3) 0.9707(3)
O6 O 0.7079(3) 0.9574(3) 0.7921(3)
O7 O 1.2531(3) 0.6475(3) 0.7945(3)
O8 O 0.9266(3) 1.0343(3) 0.6183(3)
C1 C 0.8318(5) 0.8688(5) 1.3857(4)
C2 C 0.6414(4) 1.1149(5) 1.2528(4)
C3 C 0.6650(4) 0.9545(4) 1.3502(4)
H1 H 0.6049 0.9383 1.3861
C4 C 0.6968(4) 1.0214(4) 1.3933(4)
H2 H 0.6555 1.0324 1.4521
C5 C 0.7521(5) 0.7684(4) 1.3348(4)
H3 H 0.6908 0.7554 1.3696
H4 H 0.8120 0.7126 1.3575
C6 C 0.5760(4) 0.9967(4) 1.2097(4)
H5 H 0.5231 0.9751 1.2522
H6 H 0.5417 1.0599 1.1692
C7 C 0.8273(5) 0.7056(5) 1.1923(5)
C8 C 0.6847(4) 0.7605(4) 1.1150(4)
H7 H 0.6454 0.7145 1.1209
C9 C 0.6259(4) 0.9377(5) 1.0655(4)
C10 C 0.6573(4) 0.8124(4) 1.1976(4)
H8 H 0.5997 0.7973 1.2394
C11 C 0.8453(5) 0.6290(4) 1.0609(4)
H9 H 0.9072 0.5828 1.0880
H10 H 0.8012 0.5891 1.0639
C12 C 0.6410(4) 0.8349(5) 0.9529(4)
H11 H 0.6066 0.7844 0.9640
H12 H 0.5950 0.8999 0.9236
C13 C 0.9754(5) 0.6374(4) 0.9295(5)
C14 C 0.8743(4) 0.7053(5) 0.8067(4)
H13 H 0.8644 0.6669 0.7662
C15 C 0.7569(4) 0.8671(5) 0.8151(4)
C16 C 0.8023(4) 0.6993(5) 0.8985(4)
H14 H 0.7654 0.6510 0.9048
C17 C 1.0678(4) 0.6262(4) 0.7746(4)
H15 H 1.1206 0.5744 0.8103
H16 H 1.0533 0.5935 0.7326
C18 C 0.8740(4) 0.8511(5) 0.6741(4)
H17 H 0.8696 0.8069 0.6371
H18 H 0.8250 0.9190 0.6555
C19 C 1.2019(5) 0.7051(5) 0.7333(4)
C20 C 1.1510(4) 0.8224(4) 0.6012(4)
H19 H 1.1799 0.8103 0.5393
C21 C 0.9914(5) 0.9508(6) 0.6256(4)
C22 C 1.0688(4) 0.7722(5) 0.6415(4)
H20 H 1.0607 0.7349 0.5991
C23 C 1.3248(4) 0.7894(5) 0.6514(4)
H21 H 1.3537 0.7889 0.5880
H22 H 1.3717 0.7325 0.6891
C24 C 1.1362(5) 1.0081(5) 0.5483(4)
H23 H 1.0787 1.0684 0.5276
H24 H 1.1786 0.9844 0.4944
N1A N 1.1962(4) 1.0376(4) 0.5954(3)
N2A N 1.2456(4) 1.1363(4) 0.6513(3)
N3A N 1.3590(4) 0.9837(4) 0.7397(3)
N4A N 1.3187(3) 0.8835(3) 0.6730(3)
N5A N 1.2482(4) 1.2295(3) 0.7607(3)
N6A N 1.2070(3) 1.2945(3) 0.8856(3)
N7A N 1.3415(3) 1.1543(4) 0.9605(3)
N8A N 1.3680(3) 1.0804(3) 0.8432(3)
N9A N 1.1264(4) 1.3330(3) 1.0325(3)
N10A N 1.0240(4) 1.3389(4) 1.1648(3)
N11A N 1.1547(3) 1.1879(4) 1.2313(3)
N12A N 1.2662(3) 1.1960(4) 1.1083(3)
N13A N 0.8923(4) 1.2968(4) 1.2766(3)
N14A N 0.7721(4) 1.2261(4) 1.3353(3)
N15A N 0.9035(4) 1.0701(4) 1.3989(3)
N16A N 1.0237(4) 1.1427(4) 1.3439(3)
O1A O 1.0870(3) 1.2013(3) 0.5991(3)
O2A O 1.3913(3) 0.8138(3) 0.8079(3)
O3A O 1.0878(3) 1.3453(3) 0.7837(3)
O4A O 1.4031(3) 0.9796(3) 0.9843(3)
O5A O 0.9503(3) 1.4028(3) 1.0293(3)
O6A O 1.2921(3) 1.0426(3) 1.2079(3)
O7A O 0.7469(3) 1.3525(3) 1.2055(3)
O8A O 1.0734(3) 0.9657(3) 1.3817(3)
C1A C 1.1682(5) 1.1312(5) 0.6143(4)
C2A C 1.3586(4) 0.8851(5) 0.7472(4)
C3A C 1.3350(4) 1.0455(4) 0.6498(4)
H1A H 1.3951 1.0617 0.6139
C4A C 1.3032(4) 0.9786(4) 0.6067(4)
H2A H 1.3445 0.9676 0.5479
C5A C 1.2479(5) 1.2316(4) 0.6652(4)
H3A H 1.3092 1.2446 0.6304
H4A H 1.1880 1.2874 0.6425
C6A C 1.4240(4) 1.0033(4) 0.7903(4)
H5A H 1.4769 1.0249 0.7478
H6A H 1.4583 0.9401 0.8308
C7A C 1.1727(5) 1.2944(5) 0.8077(5)
C8A C 1.3153(4) 1.2395(4) 0.8850(4)
H7A H 1.3546 1.2855 0.8791
C9A C 1.3741(4) 1.0623(5) 0.9345(4)
C10A C 1.3427(4) 1.1876(4) 0.8024(4)
H8A H 1.4003 1.2027 0.7606
C11A C 1.1547(5) 1.3710(4) 0.9391(4)
H9A H 1.0928 1.4172 0.9120
H10A H 1.1988 1.4109 0.9361
C12A C 1.3590(4) 1.1651(5) 1.0471(4)
H11A H 1.3934 1.2156 1.0360
H12A H 1.4050 1.1001 1.0764
C13A C 1.0246(5) 1.3626(4) 1.0705(5)
C14A C 1.1257(4) 1.2947(5) 1.1933(4)
H13A H 1.1356 1.3331 1.2338
C15A C 1.2431(4) 1.1329(5) 1.1849(4)
C16A C 1.1977(4) 1.3007(5) 1.1015(4)
H14A H 1.2346 1.3490 1.0952
C17A C 0.9322(4) 1.3738(4) 1.2254(4)
H15A H 0.8794 1.4256 1.1897
H16A H 0.9467 1.4065 1.2674
C18A C 1.1260(4) 1.1489(5) 1.3259(4)
H17A H 1.1304 1.1931 1.3629
H18A H 1.1750 1.0810 1.3445
C19A C 0.7981(5) 1.2949(5) 1.2667(4)
C20A C 0.8490(4) 1.1776(4) 1.3988(4)
H19A H 0.8201 1.1897 1.4607
C21A C 1.0086(5) 1.0492(6) 1.3744(4)
C22A C 0.9312(4) 1.2278(5) 1.3585(4)
H20A H 0.9393 1.2651 1.4009
C23A C 0.6752(4) 1.2106(5) 1.3486(4)
H21A H 0.6463 1.2111 1.4120
H22A H 0.6283 1.2675 1.3109
C24A C 0.8638(5) 0.9919(5) 1.4517(4)
H23A H 0.9213 0.9316 1.4724
H24A H 0.8214 1.0156 1.5056
N17 N -0.2873(4) 1.2742(5) -0.0377(4)
N18 N 0.1366(4) 0.7436(4) 0.3385(3)
H25 H 0.0732 0.7471 0.3433
N19 N 0.1444(4) 0.6166(4) 0.4666(4)
O9 O 0.2580(4) 0.7978(4) 0.2442(3)
O10 O 0.4208(4) 0.4821(4) 0.6452(3)
O11 O 0.2854(4) 0.4309(4) 0.6950(3)
C25 C -0.2907(6) 1.1836(7) -0.0182(5)
H26 H -0.3428 1.1704 -0.0374
C26 C -0.2188(5) 1.1054(6) 0.0306(5)
H27 H -0.2238 1.0399 0.0448
C27 C -0.1407(5) 1.1194(6) 0.0589(4)
C28 C -0.1435(6) 1.2194(7) 0.0395(7)
H28 H -0.0939 1.2358 0.0594
C29 C -0.2169(7) 1.2945(6) -0.0079(8)
H29 H -0.2176 1.3619 -0.0196
C30 C -0.0623(5) 1.0363(5) 0.1100(4)
C31 C 0.0270(5) 1.0510(5) 0.1203(4)
H30 H 0.0376 1.1133 0.0939
C32 C 0.1020(5) 0.9709(6) 0.1711(4)
H31 H 0.1620 0.9807 0.1778
C33 C 0.0873(5) 0.8804(5) 0.2099(4)
C34 C 0.0002(5) 0.8650(5) 0.1959(4)
H32 H -0.0089 0.8017 0.2197
C35 C -0.0724(5) 0.9421(5) 0.1474(4)
H33 H -0.1308 0.9304 0.1393
C36 C 0.1696(6) 0.8039(5) 0.2648(4)
C37 C 0.1945(5) 0.6756(5) 0.4080(4)
C38 C 0.2899(5) 0.6728(5) 0.4178(4)
H34 H 0.3229 0.7140 0.3755
C39 C 0.3354(5) 0.6077(5) 0.4914(4)
H35 H 0.4010 0.6037 0.4994
C40 C 0.2862(5) 0.5476(4) 0.5544(4)
C41 C 0.1922(5) 0.5547(5) 0.5375(4)
H36 H 0.1587 0.5131 0.5786
C42 C 0.3304(6) 0.4802(5) 0.6381(5)
C43 C 0.4679(6) 0.4256(6) 0.7241(5)
H37 H 0.4221 0.4456 0.7771
H38 H 0.5308 0.4388 0.7223
H39 H 0.4833 0.3536 0.7271
C44 C -0.3644(6) 1.3594(6) -0.0914(6)
H40 H -0.3339 1.3746 -0.1533
H41 H -0.3861 1.4192 -0.0648
H42 H -0.4229 1.3396 -0.0910
O12 O 0.5571(3) 0.1621(3) 0.8442(3)
O13 O 0.3564(5) 0.9260(5) 0.3796(4)
O14 O 0.4277(5) 0.5780(5) 0.8856(5)
O15 O 0.4856(5) 0.2588(6) 0.5571(6)
O16 O 0.3671(5) 0.4168(6) 0.9851(5)
O17 O 0.1110(5) 0.5354(5) 0.1508(5)
O18 O 0.4117(6) 0.3450(6) 0.1646(5)
loop_
_geom_bond_atom_site_label_1
_geom_bond_atom_site_label_2
_geom_bond_site_symmetry_1
_geom_bond_site_symmetry_2
N1 C1 1_555 1_555
N2 C1 1_555 1_555
N3 C2 1_555 1_555
N4 C2 1_555 1_555
N5 C5 1_555 1_555
N6 C7 1_555 1_555
N7 C8 1_555 1_555
N8 C6 1_555 1_555
N9 C11 1_555 1_555
N10 C13 1_555 1_555
N11 C14 1_555 1_555
N12 C12 1_555 1_555
N13 C17 1_555 1_555
N14 C19 1_555 1_555
N15 C20 1_555 1_555
N16 C18 1_555 1_555
O1 C1 1_555 1_555
O2 C2 1_555 1_555
O3 C7 1_555 1_555
O4 C9 1_555 1_555
O5 C13 1_555 1_555
O6 C15 1_555 1_555
O7 C19 1_555 1_555
O8 C21 1_555 1_555
C3 N2 1_555 1_555
H1 C3 1_555 1_555
C4 N1 1_555 1_555
H2 C4 1_555 1_555
C5 N2 1_555 1_555
H3 C5 1_555 1_555
H4 C5 1_555 1_555
C6 N3 1_555 1_555
H5 C6 1_555 1_555
H6 C6 1_555 1_555
C7 N5 1_555 1_555
C8 N6 1_555 1_555
H7 C8 1_555 1_555
C9 N7 1_555 1_555
C10 N5 1_555 1_555
H8 C10 1_555 1_555
C11 N6 1_555 1_555
H9 C11 1_555 1_555
H10 C11 1_555 1_555
C12 N7 1_555 1_555
H11 C12 1_555 1_555
H12 C12 1_555 1_555
C13 N9 1_555 1_555
C14 N10 1_555 1_555
H13 C14 1_555 1_555
C15 N11 1_555 1_555
C16 N9 1_555 1_555
H14 C16 1_555 1_555
C17 N10 1_555 1_555
H15 C17 1_555 1_555
H16 C17 1_555 1_555
C18 N11 1_555 1_555
H17 C18 1_555 1_555
H18 C18 1_555 1_555
C19 N13 1_555 1_555
C20 N14 1_555 1_555
H19 C20 1_555 1_555
C21 N15 1_555 1_555
C22 N13 1_555 1_555
H20 C22 1_555 1_555
C23 N14 1_555 1_555
H21 C23 1_555 1_555
H22 C23 1_555 1_555
C24 N15 1_555 1_555
H23 C24 1_555 1_555
H24 C24 1_555 1_555
N17 C25 1_555 1_555
N18 H25 1_555 1_555
N19 C37 1_555 1_555
O9 C36 1_555 1_555
O10 C42 1_555 1_555
O11 C42 1_555 1_555
C25 H26 1_555 1_555
C26 C25 1_555 1_555
H27 C26 1_555 1_555
C27 C26 1_555 1_555
C28 C27 1_555 1_555
H28 C28 1_555 1_555
C29 N17 1_555 1_555
H29 C29 1_555 1_555
C30 C27 1_555 1_555
C31 C30 1_555 1_555
H30 C31 1_555 1_555
C32 C31 1_555 1_555
H31 C32 1_555 1_555
C33 C32 1_555 1_555
C34 C33 1_555 1_555
H32 C34 1_555 1_555
C35 C30 1_555 1_555
H33 C35 1_555 1_555
C36 N18 1_555 1_555
C37 N18 1_555 1_555
C38 C37 1_555 1_555
H34 C38 1_555 1_555
C39 C38 1_555 1_555
H35 C39 1_555 1_555
C40 C39 1_555 1_555
C41 N19 1_555 1_555
H36 C41 1_555 1_555
C42 C40 1_555 1_555
C43 O10 1_555 1_555
H37 C43 1_555 1_555
H38 C43 1_555 1_555
H39 C43 1_555 1_555
C44 N17 1_555 1_555
H40 C44 1_555 1_555
H41 C44 1_555 1_555
H42 C44 1_555 1_555
N1A C24 1_555 1_555
N2A C1A 1_555 1_555
N3A C2A 1_555 1_555
N4A C23 1_555 1_555
N5A C5A 1_555 1_555
N6A C7A 1_555 1_555
N7A C8A 1_555 1_555
N8A C6A 1_555 1_555
N9A C11A 1_555 1_555
N10A C13A 1_555 1_555
N11A C14A 1_555 1_555
N12A C12A 1_555 1_555
N13A C17A 1_555 1_555
N14A C19A 1_555 1_555
N15A C20A 1_555 1_555
N16A C18A 1_555 1_555
O1A C1A 1_555 1_555
O2A C2A 1_555 1_555
O3A C7A 1_555 1_555
O4A C9A 1_555 1_555
O5A C13A 1_555 1_555
O6A C15A 1_555 1_555
O7A C19A 1_555 1_555
O8A C21A 1_555 1_555
C1A N1A 1_555 1_555
C2A N4A 1_555 1_555
C3A N2A 1_555 1_555
H1A C3A 1_555 1_555
C4A N1A 1_555 1_555
H2A C4A 1_555 1_555
C5A N2A 1_555 1_555
H3A C5A 1_555 1_555
H4A C5A 1_555 1_555
C6A N3A 1_555 1_555
H5A C6A 1_555 1_555
H6A C6A 1_555 1_555
C7A N5A 1_555 1_555
C8A N6A 1_555 1_555
H7A C8A 1_555 1_555
C9A N7A 1_555 1_555
C10A N5A 1_555 1_555
H8A C10A 1_555 1_555
C11A N6A 1_555 1_555
H9A C11A 1_555 1_555
H10A C11A 1_555 1_555
C12A N7A 1_555 1_555
H11A C12A 1_555 1_555
H12A C12A 1_555 1_555
C13A N9A 1_555 1_555
C14A N10A 1_555 1_555
H13A C14A 1_555 1_555
C15A N11A 1_555 1_555
C16A N9A 1_555 1_555
H14A C16A 1_555 1_555
C17A N10A 1_555 1_555
H15A C17A 1_555 1_555
H16A C17A 1_555 1_555
C18A N11A 1_555 1_555
H17A C18A 1_555 1_555
H18A C18A 1_555 1_555
C19A N13A 1_555 1_555
C20A N14A 1_555 1_555
H19A C20A 1_555 1_555
C21A N15A 1_555 1_555
C22A N13A 1_555 1_555
H20A C22A 1_555 1_555
C23A N4 1_555 1_555
H21A C23A 1_555 1_555
H22A C23A 1_555 1_555
C24A N1 1_555 1_555
H23A C24A 1_555 1_555
H24A C24A 1_555 1_555
N3 C3 1_555 1_555
N4 C4 1_555 1_555
N8 C9 1_555 1_555
N8 C10 1_555 1_555
N12 C15 1_555 1_555
N12 C16 1_555 1_555
N16 C21 1_555 1_555
N16 C22 1_555 1_555
C3 C4 1_555 1_555
C8 C10 1_555 1_555
C14 C16 1_555 1_555
C20 C22 1_555 1_555
C28 C29 1_555 1_555
C33 C36 1_555 1_555
C34 C35 1_555 1_555
C40 C41 1_555 1_555
N3A C3A 1_555 1_555
N4A C4A 1_555 1_555
N8A C9A 1_555 1_555
N8A C10A 1_555 1_555
N12A C15A 1_555 1_555
N12A C16A 1_555 1_555
N14A C23A 1_555 1_555
N15A C24A 1_555 1_555
N16A C21A 1_555 1_555
N16A C22A 1_555 1_555
C3A C4A 1_555 1_555
C8A C10A 1_555 1_555
C14A C16A 1_555 1_555
C20A C22A 1_555 1_555

#END
