
#######################################################################
#
#                 Cambridge Crystallographic Data Centre
#                                CCDC 
#
#######################################################################
#
# If this CIF has been generated from an entry in the Cambridge 
# Structural Database, then it will include bibliographic, chemical, 
# crystal, experimental, refinement or atomic coordinate data resulting 
# from the CCDC's data processing and validation procedures.
#
#######################################################################

data_MIGJUK
_chemical_formula_moiety         'C21 H12 N6'
_chemical_name_systematic        
4,4',4''-[benzene-1,3,5-triyltris(ethyne-2,1-diyl)]tris(1H-pyrazole)
_symmetry_cell_setting           monoclinic
_symmetry_space_group_name_H-M   'P 21'
_symmetry_Int_Tables_number      4
_space_group_name_Hall           'P 2yb'
loop_
_symmetry_equiv_pos_site_id
_symmetry_equiv_pos_as_xyz
1 x,y,z
2 -x,1/2+y,-z
_cell_length_a                   9.5700(3)
_cell_length_b                   9.4056(3)
_cell_length_c                   10.6320(3)
_cell_angle_alpha                90
_cell_angle_beta                 106.8400(10)
_cell_angle_gamma                90
_cell_volume                     915.965
_exptl_crystal_colour            yellow
_exptl_crystal_description       'diamond column'
_cell_formula_units_Z            2
loop_
_atom_site_label
_atom_site_type_symbol
_atom_site_fract_x
_atom_site_fract_y
_atom_site_fract_z
N1 N 0.82506(16) 0.0780(2) -0.02121(14)
H1 H 0.8921 0.0780 -0.0748
N2 N 0.7860(2) -0.0439(2) 0.02756(16)
N3 N 0.03711(18) -0.0418(2) 0.74306(16)
H2 H 0.0010 -0.1330 0.7563
N4 N 0.00387(16) 0.0704(2) 0.80835(14)
N5 N 0.19048(17) 1.2039(2) 0.12209(15)
H3 H 0.1970 1.2910 0.0668
N6 N 0.10482(17) 1.2066(2) 0.20430(16)
C1 C 0.48193(19) 0.3833(2) 0.31207(17)
C2 C 0.42113(19) 0.3130(2) 0.39911(17)
H4 H 0.4401 0.2147 0.4165
C3 C 0.33230(19) 0.3865(2) 0.46094(17)
C4 C 0.30548(19) 0.5309(2) 0.43572(18)
H5 H 0.2464 0.5814 0.4786
C5 C 0.36484(19) 0.6017(2) 0.34785(17)
C6 C 0.4545(2) 0.5274(2) 0.28727(18)
H6 H 0.4970 0.5757 0.2289
C7 C 0.5654(2) 0.3025(2) 0.2434(2)
C8 C 0.62653(19) 0.2325(2) 0.18452(19)
C9 C 0.6993(2) 0.1460(2) 0.11084(19)
C10 C 0.7754(2) 0.1923(2) 0.02580(19)
H7 H 0.7896 0.2884 0.0048
C11 C 0.7105(2) -0.0026(2) 0.1079(2)
H8 H 0.6693 -0.0656 0.1573
C12 C 0.2632(2) 0.3080(2) 0.54301(19)
C13 C 0.20337(19) 0.2352(2) 0.60234(18)
C14 C 0.1301(2) 0.1442(2) 0.67135(19)
C15 C 0.1114(2) -0.0018(2) 0.6603(2)
H9 H 0.1453 -0.0625 0.6041
C16 C 0.0595(2) 0.1835(3) 0.7648(2)
H10 H 0.0524 0.2783 0.7933
C17 C 0.3268(2) 0.7469(2) 0.31318(18)
C18 C 0.2860(2) 0.8635(2) 0.27748(18)
C19 C 0.2313(2) 1.0015(2) 0.23001(17)
C20 C 0.2668(2) 1.0830(2) 0.13514(18)
H11 H 0.3335 1.0576 0.0879
C21 C 0.1289(2) 1.0848(2) 0.26830(18)
H12 H 0.0827 1.0569 0.3323
loop_
_geom_bond_atom_site_label_1
_geom_bond_atom_site_label_2
_geom_bond_site_symmetry_1
_geom_bond_site_symmetry_2
N1 H1 1_555 1_555
N2 N1 1_555 1_555
N3 H2 1_555 1_555
N4 N3 1_555 1_555
N5 H3 1_555 1_555
N6 N5 1_555 1_555
C1 C2 1_555 1_555
C2 H4 1_555 1_555
C3 C2 1_555 1_555
C4 C3 1_555 1_555
H5 C4 1_555 1_555
C5 C4 1_555 1_555
C6 C1 1_555 1_555
H6 C6 1_555 1_555
C7 C1 1_555 1_555
C8 C7 1_555 1_555
C9 C8 1_555 1_555
C10 N1 1_555 1_555
H7 C10 1_555 1_555
C11 N2 1_555 1_555
H8 C11 1_555 1_555
C12 C3 1_555 1_555
C13 C12 1_555 1_555
C14 C13 1_555 1_555
C15 N3 1_555 1_555
H9 C15 1_555 1_555
C16 N4 1_555 1_555
H10 C16 1_555 1_555
C17 C5 1_555 1_555
C18 C17 1_555 1_555
C19 C18 1_555 1_555
C20 N5 1_555 1_555
H11 C20 1_555 1_555
C21 N6 1_555 1_555
H12 C21 1_555 1_555
C5 C6 1_555 1_555
C9 C10 1_555 1_555
C9 C11 1_555 1_555
C14 C15 1_555 1_555
C14 C16 1_555 1_555
C19 C20 1_555 1_555
C19 C21 1_555 1_555

#END
