
#######################################################################
#
#                 Cambridge Crystallographic Data Centre
#                                CCDC 
#
#######################################################################
#
# If this CIF has been generated from an entry in the Cambridge 
# Structural Database, then it will include bibliographic, chemical, 
# crystal, experimental, refinement or atomic coordinate data resulting 
# from the CCDC's data processing and validation procedures.
#
#######################################################################

data_MIGLAS
_chemical_formula_moiety         'C62 H64 N2 O6 S2'
_chemical_name_systematic        
2,6-bis[4-(diphenylamino)phenyl]-4,8-bis[(2-ethylhexyl)oxy]benzo[1,2-b:4,5-b']bisthiophene-1,1,5,5-tetrone
_symmetry_cell_setting           triclinic
_symmetry_space_group_name_H-M   'P -1'
_symmetry_Int_Tables_number      2
_space_group_name_Hall           '-P 1'
loop_
_symmetry_equiv_pos_site_id
_symmetry_equiv_pos_as_xyz
1 x,y,z
2 -x,-y,-z
_cell_length_a                   8.2593(8)
_cell_length_b                   13.5431(10)
_cell_length_c                   13.5673(12)
_cell_angle_alpha                113.531(2)
_cell_angle_beta                 101.658(3)
_cell_angle_gamma                100.074(3)
_cell_volume                     1306.32
_exptl_crystal_description       plate
_cell_formula_units_Z            1
loop_
_atom_site_label
_atom_site_type_symbol
_atom_site_fract_x
_atom_site_fract_y
_atom_site_fract_z
C1 C 0.2959(4) 0.3488(2) 0.9068(2)
C2 C 0.2345(4) 0.4222(2) 0.8793(2)
H1 H 0.2656 0.4421 0.8246
C3 C 0.1166(4) 0.4701(2) 0.9386(2)
C4 C 0.0859(4) 0.4295(2) 1.0147(2)
C5 C -0.0283(4) 0.4556(2) 1.0765(2)
C6 C 0.6217(4) 0.1526(2) 0.7674(2)
C7 C 0.5010(4) 0.1134(2) 0.8119(2)
H2 H 0.4884 0.0410 0.8088
C8 C 0.4000(4) 0.1775(2) 0.8600(2)
H3 H 0.3205 0.1492 0.8908
C9 C 0.4126(4) 0.2837(2) 0.8644(2)
C10 C 0.5339(4) 0.3233(2) 0.8205(2)
H4 H 0.5446 0.3950 0.8220
C11 C 0.6387(4) 0.2605(2) 0.7748(2)
H5 H 0.7231 0.2906 0.7481
C12 C 0.7348(4) -0.0117(2) 0.7311(3)
C13 C 0.6972(4) -0.1139(2) 0.6374(3)
H6 H 0.6650 -0.1189 0.5639
C14 C 0.7069(5) -0.2089(3) 0.6511(3)
H7 H 0.6817 -0.2790 0.5868
C15 C 0.7528(5) -0.2026(3) 0.7573(3)
H8 H 0.7569 -0.2683 0.7663
C16 C 0.7926(5) -0.1006(3) 0.8499(3)
H9 H 0.8253 -0.0956 0.9233
C17 C 0.7855(4) -0.0054(3) 0.8371(3)
H10 H 0.8158 0.0650 0.9018
C18 C 0.8046(4) 0.1093(2) 0.6423(2)
C19 C 0.7096(5) 0.1145(3) 0.5490(3)
H11 H 0.5887 0.1033 0.5347
C20 C 0.7891(6) 0.1358(3) 0.4767(3)
H12 H 0.7232 0.1382 0.4121
C21 C 0.9650(6) 0.1536(3) 0.4986(3)
H13 H 1.0209 0.1699 0.4499
C22 C 1.0597(5) 0.1476(3) 0.5913(3)
H14 H 1.1806 0.1590 0.6057
C23 C 0.9792(4) 0.1252(3) 0.6630(3)
H15 H 1.0445 0.1207 0.7266
C24 C -0.2456(4) 0.3795(3) 1.4111(2)
H16 H -0.3390 0.3106 1.3880
H17 H -0.1352 0.3662 1.4391
C25 C -0.2715(5) 0.4750(3) 1.5069(3)
H18 H -0.3769 0.4929 1.4782
H19 H -0.1725 0.5424 1.5355
C26 C -0.2886(5) 0.4483(3) 1.6043(3)
H20 H -0.3051 0.5129 1.6640
H21 H -0.3880 0.3827 1.5771
H22 H -0.1836 0.4321 1.6343
N1 N 0.7218(3) 0.08653(19) 0.7171(2)
O1 O 0.1019(3) 0.22471(15) 0.97691(16)
O2 O 0.3506(3) 0.38284(16) 1.11811(15)
O3 O -0.0467(3) 0.41446(16) 1.15171(15)
S1 S 0.21195(11) 0.33545(6) 1.01469(6)
C27 C -0.1991(12) 0.3243(7) 1.1157(6)
H23 H -0.1947 0.2567 1.0519
H24 H -0.3023 0.3458 1.0901
C28 C -0.2097(9) 0.2991(5) 1.2146(5)
H25 H -0.0956 0.2909 1.2468
C29 C -0.2432(4) 0.3975(2) 1.3080(2)
H26 H -0.1523 0.4674 1.3307
H27 H -0.3554 0.4074 1.2774
C30 C -0.3427(7) 0.1867(3) 1.1665(4)
H28 H -0.3870 0.1813 1.2273
H29 H -0.4407 0.1829 1.1081
C31 C -0.2752(11) 0.0874(5) 1.1152(7)
H30 H -0.3680 0.0176 1.0858
H31 H -0.2338 0.0908 1.0535
H32 H -0.1800 0.0891 1.1728
C1A C -0.2959(4) 0.6512(2) 1.0932(2)
C2A C -0.2345(4) 0.5778(2) 1.1207(2)
H1A H -0.2656 0.5579 1.1754
C3A C -0.1166(4) 0.5299(2) 1.0614(2)
C4A C -0.0859(4) 0.5705(2) 0.9853(2)
C5A C 0.0283(4) 0.5444(2) 0.9235(2)
C6A C -0.6217(4) 0.8474(2) 1.2326(2)
C7A C -0.5010(4) 0.8866(2) 1.1881(2)
H2A H -0.4884 0.9590 1.1912
C8A C -0.4000(4) 0.8225(2) 1.1400(2)
H3A H -0.3205 0.8508 1.1092
C9A C -0.4126(4) 0.7163(2) 1.1356(2)
C10A C -0.5339(4) 0.6767(2) 1.1795(2)
H4A H -0.5446 0.6050 1.1780
C11A C -0.6387(4) 0.7395(2) 1.2252(2)
H5A H -0.7231 0.7094 1.2519
C12A C -0.7348(4) 1.0117(2) 1.2689(3)
C13A C -0.6972(4) 1.1139(2) 1.3626(3)
H6A H -0.6650 1.1189 1.4361
C14A C -0.7069(5) 1.2089(3) 1.3489(3)
H7A H -0.6817 1.2790 1.4132
C15A C -0.7528(5) 1.2026(3) 1.2427(3)
H8A H -0.7569 1.2683 1.2337
C16A C -0.7926(5) 1.1006(3) 1.1501(3)
H9A H -0.8253 1.0956 1.0767
C17A C -0.7855(4) 1.0054(3) 1.1629(3)
H10A H -0.8158 0.9350 1.0982
C18A C -0.8046(4) 0.8907(2) 1.3577(2)
C19A C -0.7096(5) 0.8855(3) 1.4510(3)
H11A H -0.5887 0.8967 1.4653
C20A C -0.7891(6) 0.8642(3) 1.5233(3)
H12A H -0.7232 0.8618 1.5879
C21A C -0.9650(6) 0.8464(3) 1.5014(3)
H13A H -1.0209 0.8301 1.5501
C22A C -1.0597(5) 0.8524(3) 1.4087(3)
H14A H -1.1806 0.8410 1.3943
C23A C -0.9792(4) 0.8748(3) 1.3370(3)
H15A H -1.0445 0.8793 1.2734
C24A C 0.2456(4) 0.6205(3) 0.5889(2)
H16A H 0.3390 0.6894 0.6120
H17A H 0.1352 0.6338 0.5609
C25A C 0.2715(5) 0.5250(3) 0.4931(3)
H18A H 0.3769 0.5071 0.5218
H19A H 0.1725 0.4576 0.4645
C26A C 0.2886(5) 0.5517(3) 0.3957(3)
H20A H 0.3051 0.4871 0.3360
H21A H 0.3880 0.6173 0.4229
H22A H 0.1836 0.5679 0.3657
N1A N -0.7218(3) 0.91347(19) 1.2829(2)
O1A O -0.1019(3) 0.77529(15) 1.02309(16)
O2A O -0.3506(3) 0.61716(16) 0.88189(15)
O3A O 0.0467(3) 0.58554(16) 0.84829(15)
S1A S -0.21195(11) 0.66455(6) 0.98531(6)
C27A C 0.1991(12) 0.6757(7) 0.8843(6)
H23A H 0.1947 0.7433 0.9481
H24A H 0.3023 0.6542 0.9099
C28A C 0.2097(9) 0.7009(5) 0.7854(5)
H25A H 0.0956 0.7091 0.7532
C29A C 0.2432(4) 0.6025(2) 0.6920(2)
H26A H 0.1523 0.5326 0.6693
H27A H 0.3554 0.5926 0.7226
C30A C 0.3427(7) 0.8133(3) 0.8335(4)
H28A H 0.3870 0.8187 0.7727
H29A H 0.4407 0.8171 0.8919
C31A C 0.2752(11) 0.9126(5) 0.8848(7)
H30A H 0.3680 0.9824 0.9142
H31A H 0.2338 0.9092 0.9465
H32A H 0.1800 0.9109 0.8272
C32? C -0.221(2) 0.3335(14) 1.1113(10)
H33? H -0.2299 0.2648 1.0436
H34? H -0.3105 0.3676 1.0903
C33? C -0.2498(19) 0.3034(9) 1.2037(9)
H35? H -0.3713 0.2542 1.1732
H36? H -0.3421 0.4262 1.2907
H37? H -0.1372 0.4580 1.3293
C34? C -0.1399(14) 0.2309(7) 1.2244(7)
H38? H -0.0225 0.2619 1.2236
H39? H -0.1302 0.2386 1.3012
C35? C -0.198(2) 0.1118(9) 1.1465(15)
H40? H -0.1160 0.0746 1.1689
H41? H -0.3120 0.0786 1.1479
H42? H -0.2040 0.1020 1.0701
loop_
_geom_bond_atom_site_label_1
_geom_bond_atom_site_label_2
_geom_bond_site_symmetry_1
_geom_bond_site_symmetry_2
C1 C2 1_555 1_555
C2 H1 1_555 1_555
C3 C2 1_555 1_555
C4 C3 1_555 1_555
C5 C4 1_555 1_555
C6 C7 1_555 1_555
C7 H2 1_555 1_555
C8 C7 1_555 1_555
H3 C8 1_555 1_555
C9 C1 1_555 1_555
C10 C9 1_555 1_555
H4 C10 1_555 1_555
C11 C6 1_555 1_555
H5 C11 1_555 1_555
C12 C13 1_555 1_555
C13 H6 1_555 1_555
C14 C13 1_555 1_555
H7 C14 1_555 1_555
C15 C14 1_555 1_555
H8 C15 1_555 1_555
C16 C15 1_555 1_555
H9 C16 1_555 1_555
C17 C12 1_555 1_555
H10 C17 1_555 1_555
C18 C19 1_555 1_555
C19 H11 1_555 1_555
C20 C19 1_555 1_555
H12 C20 1_555 1_555
C21 C20 1_555 1_555
H13 C21 1_555 1_555
C22 C21 1_555 1_555
H14 C22 1_555 1_555
C23 C18 1_555 1_555
H15 C23 1_555 1_555
C24 H16 1_555 1_555
H17 C24 1_555 1_555
C25 C24 1_555 1_555
H18 C25 1_555 1_555
H19 C25 1_555 1_555
C26 C25 1_555 1_555
H20 C26 1_555 1_555
H21 C26 1_555 1_555
H22 C26 1_555 1_555
N1 C6 1_555 1_555
O1 S1 1_555 1_555
O2 S1 1_555 1_555
O3 C5 1_555 1_555
S1 C1 1_555 1_555
C27 O3 1_555 1_555
H23 C27 1_555 1_555
H24 C27 1_555 1_555
C28 C27 1_555 1_555
H25 C28 1_555 1_555
C29 C24 1_555 1_555
H26 C29 1_555 1_555
H27 C29 1_555 1_555
C30 C28 1_555 1_555
H28 C30 1_555 1_555
H29 C30 1_555 1_555
C31 C30 1_555 1_555
H30 C31 1_555 1_555
H31 C31 1_555 1_555
H32 C31 1_555 1_555
C1A C2A 1_555 1_555
C2A H1A 1_555 1_555
C3A C5 1_555 1_555
C4A C3A 1_555 1_555
C5A C3 1_555 1_555
C6A C7A 1_555 1_555
C7A H2A 1_555 1_555
C8A C7A 1_555 1_555
H3A C8A 1_555 1_555
C9A C1A 1_555 1_555
C10A C9A 1_555 1_555
H4A C10A 1_555 1_555
C11A C6A 1_555 1_555
H5A C11A 1_555 1_555
C12A C13A 1_555 1_555
C13A H6A 1_555 1_555
C14A C13A 1_555 1_555
H7A C14A 1_555 1_555
C15A C14A 1_555 1_555
H8A C15A 1_555 1_555
C16A C15A 1_555 1_555
H9A C16A 1_555 1_555
C17A C12A 1_555 1_555
H10A C17A 1_555 1_555
C18A C19A 1_555 1_555
C19A H11A 1_555 1_555
C20A C19A 1_555 1_555
H12A C20A 1_555 1_555
C21A C20A 1_555 1_555
H13A C21A 1_555 1_555
C22A C21A 1_555 1_555
H14A C22A 1_555 1_555
C23A C18A 1_555 1_555
H15A C23A 1_555 1_555
C24A H16A 1_555 1_555
H17A C24A 1_555 1_555
C25A C24A 1_555 1_555
H18A C25A 1_555 1_555
H19A C25A 1_555 1_555
C26A C25A 1_555 1_555
H20A C26A 1_555 1_555
H21A C26A 1_555 1_555
H22A C26A 1_555 1_555
N1A C6A 1_555 1_555
O1A S1A 1_555 1_555
O2A S1A 1_555 1_555
O3A C5A 1_555 1_555
S1A C1A 1_555 1_555
C27A O3A 1_555 1_555
H23A C27A 1_555 1_555
H24A C27A 1_555 1_555
C28A C27A 1_555 1_555
H25A C28A 1_555 1_555
C29A C24A 1_555 1_555
H26A C29A 1_555 1_555
H27A C29A 1_555 1_555
C30A C28A 1_555 1_555
H28A C30A 1_555 1_555
H29A C30A 1_555 1_555
C31A C30A 1_555 1_555
H30A C31A 1_555 1_555
H31A C31A 1_555 1_555
H32A C31A 1_555 1_555
C4 S1 1_555 1_555
C8 C9 1_555 1_555
C10 C11 1_555 1_555
C12 N1 1_555 1_555
C16 C17 1_555 1_555
C18 N1 1_555 1_555
C22 C23 1_555 1_555
C28 C29 1_555 1_555
C2A C3A 1_555 1_555
C4A C5A 1_555 1_555
C4A S1A 1_555 1_555
C8A C9A 1_555 1_555
C10A C11A 1_555 1_555
C12A N1A 1_555 1_555
C16A C17A 1_555 1_555
C18A N1A 1_555 1_555
C22A C23A 1_555 1_555
C28A C29A 1_555 1_555

#END
