
#######################################################################
#
#                 Cambridge Crystallographic Data Centre
#                                CCDC 
#
#######################################################################
#
# If this CIF has been generated from an entry in the Cambridge 
# Structural Database, then it will include bibliographic, chemical, 
# crystal, experimental, refinement or atomic coordinate data resulting 
# from the CCDC's data processing and validation procedures.
#
#######################################################################

data_MIGLUM
_chemical_formula_moiety         'C10 H15 Cl1 N1 O1 1+,Cl1 1-'
_chemical_name_systematic        
'2-(chloromethyl)-4-ethoxy-3,5-dimethylpyridin-1-ium chloride'
_symmetry_cell_setting           monoclinic
_symmetry_space_group_name_H-M   'P 21/n'
_symmetry_Int_Tables_number      14
_space_group_name_Hall           '-P 2yn'
loop_
_symmetry_equiv_pos_site_id
_symmetry_equiv_pos_as_xyz
1 x,y,z
2 1/2-x,1/2+y,1/2-z
3 -x,-y,-z
4 1/2+x,1/2-y,1/2+z
_cell_length_a                   10.0103(15)
_cell_length_b                   7.9905(12)
_cell_length_c                   15.120(2)
_cell_angle_alpha                90
_cell_angle_beta                 93.924(2)
_cell_angle_gamma                90
_cell_volume                     1206.57
_exptl_crystal_colour            colourless
_exptl_crystal_description       block
_cell_formula_units_Z            4
loop_
_atom_site_label
_atom_site_type_symbol
_atom_site_fract_x
_atom_site_fract_y
_atom_site_fract_z
Cl1 Cl 0.76357(9) 1.01354(12) 0.42392(6)
Cl2 Cl 0.31055(9) 0.56221(14) 0.64070(7)
O1 O 0.8087(2) 0.2346(3) 0.68390(17)
N1 N 0.4939(3) 0.3739(4) 0.82157(17)
H1 H 0.424(3) 0.415(6) 0.853(3)
C1 C 0.3291(3) 0.3651(4) 0.6975(2)
H2 H 0.2695 0.3612 0.7454
H3 H 0.3050 0.2746 0.6568
C2 C 0.4711(3) 0.3438(4) 0.7340(2)
C3 C 0.5754(3) 0.2973(4) 0.6842(2)
C4 C 0.7029(3) 0.2835(4) 0.7288(2)
C5 C 0.7225(4) 0.3110(5) 0.8204(2)
C6 C 0.6136(4) 0.3582(5) 0.8643(2)
H4 H 0.6234 0.3795 0.9249
C7 C 0.8580(5) 0.2910(7) 0.8693(3)
H5 H 0.8891 0.1784 0.8624
H6 H 0.8509 0.3141 0.9311
H7 H 0.9202 0.3676 0.8457
C8 C 0.5516(4) 0.2591(6) 0.5873(2)
H8 H 0.4639 0.2119 0.5762
H9 H 0.6176 0.1806 0.5700
H10 H 0.5582 0.3604 0.5537
C9 C 0.8559(10) 0.3559(12) 0.6265(9)
H11 H 0.8608 0.4624 0.6573
H12 H 0.7910 0.3677 0.5762
C10 C 0.9939(10) 0.3193(19) 0.5912(11)
H13 H 1.0162 0.2036 0.6009
H14 H 1.0606 0.3884 0.6219
H15 H 0.9910 0.3433 0.5289
loop_
_geom_bond_atom_site_label_1
_geom_bond_atom_site_label_2
_geom_bond_site_symmetry_1
_geom_bond_site_symmetry_2
Cl2 C1 1_555 1_555
O1 C4 1_555 1_555
N1 H1 1_555 1_555
C1 H2 1_555 1_555
H3 C1 1_555 1_555
C2 N1 1_555 1_555
C3 C2 1_555 1_555
C4 C3 1_555 1_555
C5 C4 1_555 1_555
C6 N1 1_555 1_555
H4 C6 1_555 1_555
C7 C5 1_555 1_555
H5 C7 1_555 1_555
H6 C7 1_555 1_555
H7 C7 1_555 1_555
C8 C3 1_555 1_555
H8 C8 1_555 1_555
H9 C8 1_555 1_555
H10 C8 1_555 1_555
C9 O1 1_555 1_555
H11 C9 1_555 1_555
H12 C9 1_555 1_555
C10 C9 1_555 1_555
H13 C10 1_555 1_555
H14 C10 1_555 1_555
H15 C10 1_555 1_555
C1 C2 1_555 1_555
C5 C6 1_555 1_555

#END
