
#######################################################################
#
#                 Cambridge Crystallographic Data Centre
#                                CCDC 
#
#######################################################################
#
# If this CIF has been generated from an entry in the Cambridge 
# Structural Database, then it will include bibliographic, chemical, 
# crystal, experimental, refinement or atomic coordinate data resulting 
# from the CCDC's data processing and validation procedures.
#
#######################################################################

data_MIGQAV
_chemical_formula_moiety         'C20 H14 Cl2 N2 O2'
_chemical_name_systematic        N,N'-(4,5-Dichloro-o-phenylene)dibenzamide
_symmetry_cell_setting           monoclinic
_symmetry_space_group_name_H-M   'P 21/c'
_symmetry_Int_Tables_number      14
_space_group_name_Hall           '-P 2ybc'
loop_
_symmetry_equiv_pos_site_id
_symmetry_equiv_pos_as_xyz
1 x,y,z
2 -x,1/2+y,1/2-z
3 -x,-y,-z
4 x,1/2-y,1/2+z
_cell_length_a                   8.3024(8)
_cell_length_b                   11.8571(11)
_cell_length_c                   18.7334(18)
_cell_angle_alpha                90
_cell_angle_beta                 102.630(2)
_cell_angle_gamma                90
_cell_volume                     1799.54
_exptl_crystal_colour            colorless
_exptl_crystal_description       rod
_cell_formula_units_Z            4
_exptl_crystal_recrystallization_method DMSO/acetone
loop_
_atom_site_label
_atom_site_type_symbol
_atom_site_fract_x
_atom_site_fract_y
_atom_site_fract_z
Cl1 Cl 0.28862(10) 1.37684(6) 1.07001(5)
Cl2 Cl 0.00258(11) 1.37867(6) 0.92701(5)
N1 N 0.3210(3) 0.95030(19) 1.04178(14)
H1 H 0.345(3) 0.906(2) 1.0091(15)
N2 N 0.0736(3) 0.95613(18) 0.90593(12)
H2 H -0.029(4) 0.962(2) 0.8863(16)
O1 O 0.2756(2) 0.97875(15) 1.15499(10)
O2 O 0.3166(2) 0.87012(16) 0.90634(11)
C1 C 0.4721(3) 0.7357(2) 1.09042(16)
H3 H 0.4859 0.7618 1.0453
C2 C 0.5274(4) 0.6296(2) 1.11447(19)
H4 H 0.5786 0.5845 1.0854
C3 C 0.5076(4) 0.5901(3) 1.18068(19)
H5 H 0.5452 0.5185 1.1963
C4 C 0.4320(4) 0.6564(3) 1.22422(17)
H6 H 0.4183 0.6300 1.2693
C5 C 0.3768(3) 0.7627(2) 1.19999(15)
H7 H 0.3258 0.8076 1.2293
C6 C 0.3958(3) 0.8035(2) 1.13373(14)
C7 C 0.3283(3) 0.9185(2) 1.11169(15)
C8 C 0.2518(3) 1.0535(2) 1.01112(14)
C9 C 0.2980(3) 1.1534(2) 1.04811(15)
H8 H 0.3801 1.1528 1.0908
C10 C 0.2238(3) 1.2540(2) 1.02250(15)
C11 C 0.1031(3) 1.2557(2) 0.95916(16)
C12 C 0.0627(3) 1.1572(2) 0.92025(15)
H9 H -0.0140 1.1594 0.8759
C13 C 0.1339(3) 1.0549(2) 0.94576(14)
C14 C 0.1654(3) 0.8714(2) 0.88694(14)
C15 C 0.0737(3) 0.7775(2) 0.84321(14)
C16 C -0.0825(3) 0.7881(2) 0.79916(15)
H10 H -0.1371 0.8570 0.7957
C17 C -0.1572(4) 0.6964(3) 0.76037(17)
H11 H -0.2616 0.7043 0.7302
C18 C -0.0799(4) 0.5938(3) 0.76558(18)
H12 H -0.1325 0.5320 0.7400
C19 C 0.0747(4) 0.5828(3) 0.80849(19)
H13 H 0.1280 0.5134 0.8118
C20 C 0.1520(4) 0.6736(2) 0.84674(16)
H14 H 0.2580 0.6654 0.8753
loop_
_geom_bond_atom_site_label_1
_geom_bond_atom_site_label_2
_geom_bond_site_symmetry_1
_geom_bond_site_symmetry_2
Cl1 C10 1_555 1_555
Cl2 C11 1_555 1_555
N1 H1 1_555 1_555
N2 H2 1_555 1_555
O1 C7 1_555 1_555
O2 C14 1_555 1_555
C1 H3 1_555 1_555
C2 C1 1_555 1_555
H4 C2 1_555 1_555
C3 C2 1_555 1_555
H5 C3 1_555 1_555
C4 C3 1_555 1_555
H6 C4 1_555 1_555
C5 C4 1_555 1_555
H7 C5 1_555 1_555
C6 C1 1_555 1_555
C7 N1 1_555 1_555
C8 N1 1_555 1_555
C9 C8 1_555 1_555
H8 C9 1_555 1_555
C10 C9 1_555 1_555
C11 C10 1_555 1_555
C12 C11 1_555 1_555
H9 C12 1_555 1_555
C13 N2 1_555 1_555
C14 N2 1_555 1_555
C15 C14 1_555 1_555
C16 C15 1_555 1_555
H10 C16 1_555 1_555
C17 C16 1_555 1_555
H11 C17 1_555 1_555
C18 C17 1_555 1_555
H12 C18 1_555 1_555
C19 C18 1_555 1_555
H13 C19 1_555 1_555
C20 C15 1_555 1_555
H14 C20 1_555 1_555
C5 C6 1_555 1_555
C6 C7 1_555 1_555
C8 C13 1_555 1_555
C12 C13 1_555 1_555
C19 C20 1_555 1_555

#END
