
#######################################################################
#
#                 Cambridge Crystallographic Data Centre
#                                CCDC 
#
#######################################################################
#
# If this CIF has been generated from an entry in the Cambridge 
# Structural Database, then it will include bibliographic, chemical, 
# crystal, experimental, refinement or atomic coordinate data resulting 
# from the CCDC's data processing and validation procedures.
#
#######################################################################

data_MIGWEF
_chemical_formula_moiety         'C26 H54 B10 P2'
_chemical_name_systematic        
1,2-bis(Dicyclohexylphosphino)-1,2-dicarba-closo-dodecaborane
_symmetry_cell_setting           monoclinic
_symmetry_space_group_name_H-M   'C 2/c'
_symmetry_Int_Tables_number      15
_space_group_name_Hall           '-C 2yn'
loop_
_symmetry_equiv_pos_site_id
_symmetry_equiv_pos_as_xyz
1 x,y,z
2 1/2+x,1/2+y,z
3 -x,y,1/2-z
4 1/2-x,1/2+y,1/2-z
5 -x,-y,-z
6 1/2-x,1/2-y,-z
7 x,-y,1/2+z
8 1/2+x,1/2-y,1/2+z
_cell_length_a                   21.507(2)
_cell_length_b                   10.0350(14)
_cell_length_c                   15.2976(18)
_cell_angle_alpha                90
_cell_angle_beta                 103.196(2)
_cell_angle_gamma                90
_cell_volume                     3214.39
_exptl_crystal_colour            colorless
_exptl_crystal_description       block
_chemical_melting_point          '528-529 K'
_cell_formula_units_Z            4
_exptl_crystal_recrystallization_method dichloromethane
loop_
_atom_site_label
_atom_site_type_symbol
_atom_site_fract_x
_atom_site_fract_y
_atom_site_fract_z
P1 P 0.42512(4) 0.27894(9) 0.24958(6)
B1 B 0.43839(18) 0.5863(4) 0.2987(3)
H1 H 0.3976 0.5852 0.3308
B2 B 0.42621(18) 0.5876(4) 0.1819(3)
H2 H 0.3780 0.5879 0.1379
B3 B 0.49093(16) 0.4982(4) 0.1542(3)
H3 H 0.4852 0.4392 0.0923
B4 B 0.5093(2) 0.6734(4) 0.3460(3)
H4 H 0.5152 0.7297 0.4091
B5 B 0.4581(2) 0.7292(4) 0.2444(3)
H5 H 0.4310 0.8228 0.2410
C1 C 0.45992(3) 0.4513(3) 0.2439(2)
C2 C 0.34879(14) 0.3209(4) 0.2810(2)
H6 H 0.3332 0.4063 0.2534
C3 C 0.29691(16) 0.2158(4) 0.2520(2)
H7 H 0.2880 0.2056 0.1872
H8 H 0.3121 0.1308 0.2788
C4 C 0.23611(17) 0.2539(5) 0.2798(3)
H9 H 0.2048 0.1837 0.2621
H10 H 0.2189 0.3346 0.2485
C5 C 0.24694(19) 0.2765(5) 0.3802(3)
H11 H 0.2079 0.3091 0.3943
H12 H 0.2581 0.1928 0.4116
C6 C 0.30009(18) 0.3768(4) 0.4113(3)
H13 H 0.3089 0.3847 0.4762
H14 H 0.2866 0.4634 0.3858
C7 C 0.36042(16) 0.3344(4) 0.3831(2)
H15 H 0.3750 0.2497 0.4110
H16 H 0.3937 0.3998 0.4040
C8 C 0.40569(16) 0.2213(4) 0.1319(2)
H17 H 0.4456 0.2351 0.1124
C9 C 0.35584(16) 0.2903(4) 0.0595(2)
H18 H 0.3146 0.2842 0.0749
H19 H 0.3667 0.3839 0.0579
C10 C 0.3510(3) 0.2312(5) -0.0312(3)
H20 H 0.3147 0.2705 -0.0727
H21 H 0.3891 0.2541 -0.0518
C11 C 0.3436(3) 0.0868(6) -0.0332(3)
H22 H 0.3444 0.0544 -0.0927
H23 H 0.3024 0.0642 -0.0216
C12 C 0.3957(3) 0.0175(5) 0.0354(3)
H24 H 0.4366 0.0311 0.0203
H25 H 0.3873 -0.0775 0.0346
C13 C 0.3979(2) 0.0735(4) 0.1297(3)
H26 H 0.3588 0.0504 0.1475
H27 H 0.4333 0.0333 0.1725
P1B P 0.57488(4) 0.27894(9) 0.25042(6)
B1B B 0.56161(18) 0.5863(4) 0.2013(3)
H1B H 0.6024 0.5852 0.1692
B2B B 0.57379(18) 0.5876(4) 0.3181(3)
H2B H 0.6220 0.5879 0.3621
B3B B 0.50907(16) 0.4982(4) 0.3458(3)
H3B H 0.5148 0.4392 0.4077
B4B B 0.4907(2) 0.6734(4) 0.1540(3)
H4B H 0.4848 0.7297 0.0909
B5B B 0.5419(2) 0.7292(4) 0.2556(3)
H5B H 0.5690 0.8228 0.2590
C1B C 0.54008(3) 0.4513(3) 0.2561(2)
C2B C 0.65121(14) 0.3209(4) 0.2190(2)
H6B H 0.6668 0.4063 0.2466
C3B C 0.70309(16) 0.2158(4) 0.2480(2)
H7B H 0.7120 0.2056 0.3128
H8B H 0.6879 0.1308 0.2212
C4B C 0.76389(17) 0.2539(5) 0.2202(3)
H9B H 0.7952 0.1837 0.2379
H10B H 0.7811 0.3346 0.2515
C5B C 0.75306(19) 0.2765(5) 0.1198(3)
H11B H 0.7921 0.3091 0.1057
H12B H 0.7419 0.1928 0.0884
C6B C 0.69991(18) 0.3768(4) 0.0887(3)
H13B H 0.6911 0.3847 0.0238
H14B H 0.7134 0.4634 0.1142
C7B C 0.63958(16) 0.3344(4) 0.1169(2)
H15B H 0.6250 0.2497 0.0890
H16B H 0.6063 0.3998 0.0960
C8B C 0.59431(16) 0.2213(4) 0.3681(2)
H17B H 0.5544 0.2351 0.3876
C9B C 0.64416(16) 0.2903(4) 0.4405(2)
H18B H 0.6854 0.2842 0.4251
H19B H 0.6333 0.3839 0.4421
C10B C 0.6490(3) 0.2312(5) 0.5312(3)
H20B H 0.6853 0.2705 0.5727
H21B H 0.6109 0.2541 0.5518
C11B C 0.6564(3) 0.0868(6) 0.5332(3)
H22B H 0.6556 0.0544 0.5927
H23B H 0.6976 0.0642 0.5216
C12B C 0.6043(3) 0.0175(5) 0.4646(3)
H24B H 0.5634 0.0311 0.4797
H25B H 0.6127 -0.0775 0.4654
C13B C 0.6021(2) 0.0735(4) 0.3703(3)
H26B H 0.6412 0.0504 0.3525
H27B H 0.5667 0.0333 0.3275
loop_
_geom_bond_atom_site_label_1
_geom_bond_atom_site_label_2
_geom_bond_site_symmetry_1
_geom_bond_site_symmetry_2
P1 C1 1_555 1_555
B1 H1 1_555 1_555
B2 B1 1_555 1_555
H2 B2 1_555 1_555
B3 B2 1_555 1_555
H3 B3 1_555 1_555
B4 B1 1_555 1_555
H4 B4 1_555 1_555
B5 B1 1_555 1_555
H5 B5 1_555 1_555
C1 B1 1_555 1_555
C2 P1 1_555 1_555
H6 C2 1_555 1_555
C3 C2 1_555 1_555
H7 C3 1_555 1_555
H8 C3 1_555 1_555
C4 C3 1_555 1_555
H9 C4 1_555 1_555
H10 C4 1_555 1_555
C5 C4 1_555 1_555
H11 C5 1_555 1_555
H12 C5 1_555 1_555
C6 C5 1_555 1_555
H13 C6 1_555 1_555
H14 C6 1_555 1_555
C7 C2 1_555 1_555
H15 C7 1_555 1_555
H16 C7 1_555 1_555
C8 P1 1_555 1_555
H17 C8 1_555 1_555
C9 C8 1_555 1_555
H18 C9 1_555 1_555
H19 C9 1_555 1_555
C10 C9 1_555 1_555
H20 C10 1_555 1_555
H21 C10 1_555 1_555
C11 C10 1_555 1_555
H22 C11 1_555 1_555
H23 C11 1_555 1_555
C12 C11 1_555 1_555
H24 C12 1_555 1_555
H25 C12 1_555 1_555
C13 C8 1_555 1_555
H26 C13 1_555 1_555
H27 C13 1_555 1_555
P1B C1B 1_555 1_555
B1B B3 1_555 1_555
H1B B1B 1_555 1_555
B2B B4 1_555 1_555
H2B B2B 1_555 1_555
B3B B1 1_555 1_555
H3B B3B 1_555 1_555
B4B B2 1_555 1_555
H4B B4B 1_555 1_555
B5B B4 1_555 1_555
H5B B5B 1_555 1_555
C1B B3 1_555 1_555
C2B P1B 1_555 1_555
H6B C2B 1_555 1_555
C3B C2B 1_555 1_555
H7B C3B 1_555 1_555
H8B C3B 1_555 1_555
C4B C3B 1_555 1_555
H9B C4B 1_555 1_555
H10B C4B 1_555 1_555
C5B C4B 1_555 1_555
H11B C5B 1_555 1_555
H12B C5B 1_555 1_555
C6B C5B 1_555 1_555
H13B C6B 1_555 1_555
H14B C6B 1_555 1_555
C7B C2B 1_555 1_555
H15B C7B 1_555 1_555
H16B C7B 1_555 1_555
C8B P1B 1_555 1_555
H17B C8B 1_555 1_555
C9B C8B 1_555 1_555
H18B C9B 1_555 1_555
H19B C9B 1_555 1_555
C10B C9B 1_555 1_555
H20B C10B 1_555 1_555
H21B C10B 1_555 1_555
C11B C10B 1_555 1_555
H22B C11B 1_555 1_555
H23B C11B 1_555 1_555
C12B C11B 1_555 1_555
H24B C12B 1_555 1_555
H25B C12B 1_555 1_555
C13B C8B 1_555 1_555
H26B C13B 1_555 1_555
H27B C13B 1_555 1_555
B2 B5 1_555 1_555
B2 C1 1_555 1_555
B3 C1 1_555 1_555
B3 B4B 1_555 1_555
B4 B5 1_555 1_555
B4 B3B 1_555 1_555
B5 B4B 1_555 1_555
B5 B5B 1_555 1_555
C1 B3B 1_555 1_555
C1 C1B 1_555 1_555
C6 C7 1_555 1_555
C12 C13 1_555 1_555
B1B B2B 1_555 1_555
B1B B4B 1_555 1_555
B1B B5B 1_555 1_555
B1B C1B 1_555 1_555
B2B B3B 1_555 1_555
B2B B5B 1_555 1_555
B2B C1B 1_555 1_555
B3B C1B 1_555 1_555
B4B B5B 1_555 1_555
C6B C7B 1_555 1_555
C12B C13B 1_555 1_555

#END
