
#######################################################################
#
#                 Cambridge Crystallographic Data Centre
#                                CCDC 
#
#######################################################################
#
# If this CIF has been generated from an entry in the Cambridge 
# Structural Database, then it will include bibliographic, chemical, 
# crystal, experimental, refinement or atomic coordinate data resulting 
# from the CCDC's data processing and validation procedures.
#
#######################################################################

data_MIHFUH
_chemical_formula_moiety         'C49 H63 Br1 O5'
_chemical_name_systematic        
34-(2-bromoethoxy)-3,9,17,23-tetra-t-butyl-13,27,30-trioxahexacyclo[23.6.1.1^7,11^.1^15,19^.0^5,31^.0^21,26^]tetratriaconta-1(31),2,4,7(34),8,10,15(33),16,18,21,23,25-dodecaen-33-ol
_symmetry_cell_setting           triclinic
_symmetry_space_group_name_H-M   'P -1'
_symmetry_Int_Tables_number      2
_space_group_name_Hall           '-P 1'
loop_
_symmetry_equiv_pos_site_id
_symmetry_equiv_pos_as_xyz
1 x,y,z
2 -x,-y,-z
_cell_length_a                   11.294(3)
_cell_length_b                   13.330(3)
_cell_length_c                   15.319(4)
_cell_angle_alpha                80.401(7)
_cell_angle_beta                 89.620(9)
_cell_angle_gamma                82.038(9)
_cell_volume                     2251.73
_exptl_crystal_colour            colorless
_exptl_crystal_description       block
_cell_formula_units_Z            2
loop_
_atom_site_label
_atom_site_type_symbol
_atom_site_fract_x
_atom_site_fract_y
_atom_site_fract_z
C1 C 0.0436(7) 0.0714(6) 0.7314(6)
H1 H 0.065674 0.049864 0.675343
H2 H -0.031153 0.046961 0.749649
C2 C 0.1393(8) 0.0273(5) 0.7998(5)
C3 C 0.2505(9) 0.0540(5) 0.7888(5)
C4 C 0.3437(8) 0.0138(6) 0.8510(5)
C5 C 0.3189(8) -0.0576(6) 0.9212(6)
H3 H 0.380598 -0.086707 0.961322
C6 C 0.2064(8) -0.0900(6) 0.9366(5)
C7 C 0.1185(7) -0.0442(6) 0.8737(6)
H4 H 0.041939 -0.062221 0.881331
C8 C 0.1814(8) -0.1649(7) 1.0194(6)
C9 C 0.2698(8) -0.2656(7) 1.0200(6)
H5 H 0.265482 -0.310157 1.075728
H6 H 0.349679 -0.249237 1.011858
H7 H 0.248643 -0.299375 0.972930
C10 C 0.0540(8) -0.1892(7) 1.0224(7)
H8 H -0.000634 -0.126491 1.016905
H9 H 0.041653 -0.232053 1.077674
H10 H 0.040313 -0.224558 0.974456
C11 C 0.2051(8) -0.1201(8) 1.1028(6)
H11 H 0.150311 -0.058352 1.103513
H12 H 0.285611 -0.104572 1.102297
H13 H 0.194085 -0.169254 1.154507
C12 C 0.4645(7) 0.0495(6) 0.8396(6)
H14 H 0.495586 0.037781 0.782403
H15 H 0.519079 0.009168 0.884910
C13 C 0.4592(7) 0.1638(6) 0.8456(6)
C14 C 0.5127(7) 0.2322(6) 0.7838(5)
C15 C 0.5015(7) 0.3354(6) 0.7928(6)
C16 C 0.4389(7) 0.3679(6) 0.8624(6)
H16 H 0.431745 0.437019 0.867375
C17 C 0.3861(7) 0.3020(7) 0.9256(5)
C18 C 0.3985(7) 0.2005(6) 0.9136(6)
H17 H 0.363196 0.154399 0.954449
C19 C 0.3199(9) 0.3397(8) 1.0051(7)
C20 C 0.2381(17) 0.2757(15) 1.0454(13)
H18 H 0.281063 0.215712 1.080850
H19 H 0.192148 0.255488 1.000451
H20 H 0.185384 0.312559 1.082303
C21 C 0.245(2) 0.4375(16) 0.9776(12)
H21 H 0.235524 0.474498 1.026445
H22 H 0.168019 0.425636 0.958654
H23 H 0.281863 0.477097 0.929513
C22 C 0.3996(12) 0.3542(19) 1.0694(10)
H24 H 0.469063 0.303226 1.072097
H25 H 0.361658 0.347881 1.125978
H26 H 0.423032 0.421397 1.054586
C23 C 0.5544(7) 0.4141(6) 0.7234(6)
H27 H 0.601270 0.454441 0.753122
H28 H 0.607023 0.378116 0.684954
C24 C 0.4564(7) 0.4847(7) 0.6684(6)
C25 C 0.3967(8) 0.4513(6) 0.6019(6)
C26 C 0.2995(8) 0.5150(7) 0.5560(5)
C27 C 0.2651(8) 0.6106(7) 0.5789(6)
H29 H 0.200580 0.652861 0.548735
C28 C 0.3227(8) 0.6462(7) 0.6449(6)
C29 C 0.4193(8) 0.5810(7) 0.6871(5)
H30 H 0.461156 0.603785 0.730309
C30 C 0.2798(10) 0.7507(8) 0.6726(7)
C31 C 0.178(2) 0.7486(12) 0.7244(17)
H31 H 0.132675 0.816171 0.717009
H32 H 0.200736 0.726569 0.785534
H33 H 0.129272 0.701687 0.706263
C32 C 0.243(2) 0.8288(10) 0.5987(11)
H34 H 0.171886 0.813992 0.572330
H35 H 0.305413 0.830775 0.555851
H36 H 0.226931 0.894084 0.618114
C33 C 0.3628(15) 0.7885(13) 0.7218(19)
H37 H 0.322986 0.844336 0.748019
H38 H 0.424266 0.812366 0.683491
H39 H 0.397921 0.734672 0.767631
C34 C 0.5220(18) 0.1827(14) 0.6393(11)
H40 H 0.493370 0.116547 0.651782
H41 H 0.578254 0.180188 0.591356
O1 O 0.4487(10) 0.3622(8) 0.5649(7)
C35 C 0.4163(12) 0.2647(9) 0.6080(9)
H42 H 0.367822 0.238776 0.567075
H43 H 0.367439 0.276356 0.658587
C36 C 0.2335(8) 0.4821(6) 0.4818(5)
H44 H 0.167613 0.536016 0.462612
H45 H 0.287614 0.480434 0.432446
C37 C 0.1828(9) 0.3811(7) 0.4968(7)
C38 C 0.1002(8) 0.3550(7) 0.5602(6)
C39 C 0.0507(8) 0.2648(7) 0.5719(6)
C40 C 0.0923(10) 0.1956(7) 0.5119(7)
H46 H 0.059962 0.134601 0.515070
C41 C 0.1809(10) 0.2173(8) 0.4480(7)
C42 C 0.2204(8) 0.3097(7) 0.4416(6)
H47 H 0.275476 0.326542 0.398051
C43 C 0.2253(11) 0.1329(9) 0.3875(8)
C44 C 0.1663(11) 0.0494(9) 0.3964(8)
H48 H 0.084108 0.070998 0.378798
H49 H 0.170770 0.016017 0.457101
H50 H 0.202595 0.002459 0.359601
C45 C 0.2256(19) 0.1784(11) 0.2986(9)
H51 H 0.258041 0.127827 0.263734
H52 H 0.273831 0.233012 0.291981
H53 H 0.145313 0.205505 0.278853
C46 C 0.3546(13) 0.0953(10) 0.4198(11)
H54 H 0.354691 0.056788 0.478598
H55 H 0.396256 0.153346 0.420082
H56 H 0.393811 0.052318 0.380787
C47 C 0.1032(9) 0.4157(8) 0.7008(6)
H57 H 0.187933 0.421254 0.701263
H58 H 0.091405 0.348396 0.732071
C48 C 0.0326(10) 0.4998(11) 0.7431(10)
H59 H 0.030168 0.564532 0.702898
H60 H 0.074530 0.505966 0.796653
Br1 Br -0.12658(16) 0.47803(16) 0.77238(13)
C49 C -0.0347(8) 0.2348(7) 0.6413(6)
H61 H -0.084827 0.295605 0.654307
H62 H -0.085967 0.190697 0.620581
O2 O 0.0298(5) 0.1806(4) 0.7215(4)
O3 O 0.2783(5) 0.1215(4) 0.7149(4)
H63 H 0.312177 0.166254 0.730620
O4 O 0.5858(5) 0.1977(4) 0.7179(4)
O5 O 0.0578(5) 0.4311(4) 0.6122(4)
C50? C 0.538(3) 0.2022(19) 0.6289(13)
H64? H 0.466290 0.168794 0.634774
H65? H 0.595592 0.160910 0.597789
O6? O 0.3930(13) 0.3502(12) 0.6052(10)
C51? C 0.5057(17) 0.3051(15) 0.5701(13)
H66? H 0.567611 0.348166 0.573023
H67? H 0.495164 0.296662 0.509110
C52? C 0.095(4) 0.509(4) 0.746(5)
H68? H 0.097683 0.571720 0.703546
H69? H 0.157440 0.502220 0.790385
Br2? Br -0.0576(13) 0.5053(12) 0.7969(10)
loop_
_geom_bond_atom_site_label_1
_geom_bond_atom_site_label_2
_geom_bond_site_symmetry_1
_geom_bond_site_symmetry_2
C1 H1 1_555 1_555
H2 C1 1_555 1_555
C2 C1 1_555 1_555
C3 C2 1_555 1_555
C4 C3 1_555 1_555
C5 C4 1_555 1_555
H3 C5 1_555 1_555
C6 C5 1_555 1_555
C7 C2 1_555 1_555
H4 C7 1_555 1_555
C8 C6 1_555 1_555
C9 C8 1_555 1_555
H5 C9 1_555 1_555
H6 C9 1_555 1_555
H7 C9 1_555 1_555
C10 C8 1_555 1_555
H8 C10 1_555 1_555
H9 C10 1_555 1_555
H10 C10 1_555 1_555
C11 C8 1_555 1_555
H11 C11 1_555 1_555
H12 C11 1_555 1_555
H13 C11 1_555 1_555
C12 C4 1_555 1_555
H14 C12 1_555 1_555
H15 C12 1_555 1_555
C13 C12 1_555 1_555
C14 C13 1_555 1_555
C15 C14 1_555 1_555
C16 C15 1_555 1_555
H16 C16 1_555 1_555
C17 C16 1_555 1_555
C18 C13 1_555 1_555
H17 C18 1_555 1_555
C19 C17 1_555 1_555
C20 C19 1_555 1_555
H18 C20 1_555 1_555
H19 C20 1_555 1_555
H20 C20 1_555 1_555
C21 C19 1_555 1_555
H21 C21 1_555 1_555
H22 C21 1_555 1_555
H23 C21 1_555 1_555
C22 C19 1_555 1_555
H24 C22 1_555 1_555
H25 C22 1_555 1_555
H26 C22 1_555 1_555
C23 C15 1_555 1_555
H27 C23 1_555 1_555
H28 C23 1_555 1_555
C24 C23 1_555 1_555
C25 C24 1_555 1_555
C26 C25 1_555 1_555
C27 C26 1_555 1_555
H29 C27 1_555 1_555
C28 C27 1_555 1_555
C29 C24 1_555 1_555
H30 C29 1_555 1_555
C30 C28 1_555 1_555
C31 C30 1_555 1_555
H31 C31 1_555 1_555
H32 C31 1_555 1_555
H33 C31 1_555 1_555
C32 C30 1_555 1_555
H34 C32 1_555 1_555
H35 C32 1_555 1_555
H36 C32 1_555 1_555
C33 C30 1_555 1_555
H37 C33 1_555 1_555
H38 C33 1_555 1_555
H39 C33 1_555 1_555
C34 H40 1_555 1_555
H41 C34 1_555 1_555
O1 C25 1_555 1_555
C35 C34 1_555 1_555
H42 C35 1_555 1_555
H43 C35 1_555 1_555
C36 C26 1_555 1_555
H44 C36 1_555 1_555
H45 C36 1_555 1_555
C37 C36 1_555 1_555
C38 C37 1_555 1_555
C39 C38 1_555 1_555
C40 C39 1_555 1_555
H46 C40 1_555 1_555
C41 C40 1_555 1_555
C42 C37 1_555 1_555
H47 C42 1_555 1_555
C43 C41 1_555 1_555
C44 C43 1_555 1_555
H48 C44 1_555 1_555
H49 C44 1_555 1_555
H50 C44 1_555 1_555
C45 C43 1_555 1_555
H51 C45 1_555 1_555
H52 C45 1_555 1_555
H53 C45 1_555 1_555
C46 C43 1_555 1_555
H54 C46 1_555 1_555
H55 C46 1_555 1_555
H56 C46 1_555 1_555
C47 H57 1_555 1_555
H58 C47 1_555 1_555
C48 C47 1_555 1_555
H59 C48 1_555 1_555
H60 C48 1_555 1_555
Br1 C48 1_555 1_555
C49 C39 1_555 1_555
H61 C49 1_555 1_555
H62 C49 1_555 1_555
O2 C1 1_555 1_555
O3 C3 1_555 1_555
H63 O3 1_555 1_555
O4 C14 1_555 1_555
O5 C38 1_555 1_555
C6 C7 1_555 1_555
C17 C18 1_555 1_555
C28 C29 1_555 1_555
C34 O4 1_555 1_555
O1 C35 1_555 1_555
C41 C42 1_555 1_555
C47 O5 1_555 1_555
C49 O2 1_555 1_555

#END
