
#######################################################################
#
#                 Cambridge Crystallographic Data Centre
#                                CCDC 
#
#######################################################################
#
# If this CIF has been generated from an entry in the Cambridge 
# Structural Database, then it will include bibliographic, chemical, 
# crystal, experimental, refinement or atomic coordinate data resulting 
# from the CCDC's data processing and validation procedures.
#
#######################################################################

data_MIHNAS
_chemical_formula_moiety         'C19 H17 Br1 O2'
_chemical_name_systematic        
(S)-(+)-4-(4'-Bromophenyl)-3-phenyl-2-(n-propyl)-2-buten-5-olide
_symmetry_cell_setting           monoclinic
_symmetry_space_group_name_H-M   'P 21'
_symmetry_Int_Tables_number      4
_space_group_name_Hall           'P 2yb'
loop_
_symmetry_equiv_pos_site_id
_symmetry_equiv_pos_as_xyz
1 x,y,z
2 -x,1/2+y,-z
_cell_length_a                   5.7446(16)
_cell_length_b                   8.5350(12)
_cell_length_c                   16.9094(19)
_cell_angle_alpha                90
_cell_angle_beta                 95.02(2)
_cell_angle_gamma                90
_cell_volume                     825.89
_cell_formula_units_Z            2
loop_
_atom_site_label
_atom_site_type_symbol
_atom_site_fract_x
_atom_site_fract_y
_atom_site_fract_z
Br1 Br -0.01353(16) 0.43976(12) 0.41877(5)
O1 O 0.8042(10) 0.2428(7) 0.8531(4)
O2 O 0.7827(8) 0.3824(6) 0.7400(3)
C1 C 0.7383(13) 0.3581(10) 0.8177(5)
C2 C 0.6029(11) 0.4922(8) 0.8442(4)
C3 C 0.5721(11) 0.5944(8) 0.7840(4)
C4 C 0.6839(12) 0.5312(8) 0.7136(5)
C5 C 0.5286(15) 0.4946(10) 0.9265(4)
C6 C 0.3201(18) 0.3901(11) 0.9360(5)
C7 C 0.224(2) 0.4031(17) 1.0154(6)
C8 C 0.4547(11) 0.7467(9) 0.7799(4)
C9 C 0.2523(13) 0.7734(10) 0.8174(5)
C10 C 0.1490(14) 0.9211(13) 0.8156(4)
C11 C 0.2409(17) 1.0393(10) 0.7734(5)
C12 C 0.4380(15) 1.0163(10) 0.7354(5)
C13 C 0.5441(13) 0.8704(9) 0.7375(5)
C14 C 0.5138(12) 0.5088(8) 0.6404(4)
C15 C 0.5560(16) 0.5714(11) 0.5682(5)
C16 C 0.4011(16) 0.5512(12) 0.5024(5)
C17 C 0.2024(12) 0.4674(10) 0.5087(4)
C18 C 0.1552(15) 0.3994(9) 0.5813(4)
C19 C 0.3129(12) 0.4224(10) 0.6459(4)
H1 H 0.817(12) 0.582(8) 0.692(4)
H2 H 0.489(12) 0.600(10) 0.943(4)
H3 H 0.659(12) 0.473(9) 0.957(4)
H4 H 0.202(11) 0.406(8) 0.893(4)
H5 H 0.399(15) 0.311(10) 0.928(4)
H6 H 0.146(19) 0.491(15) 1.016(6)
H7 H 0.340(15) 0.385(11) 1.049(5)
H8 H 0.094(16) 0.317(12) 1.028(5)
H9 H 0.174(19) 0.695(12) 0.836(6)
H10 H 0.024(16) 0.936(17) 0.845(5)
H11 H 0.137(18) 1.146(14) 0.768(6)
H12 H 0.521(18) 1.098(14) 0.705(6)
H13 H 0.703(19) 0.849(12) 0.711(6)
H14 H 0.685(18) 0.650(13) 0.563(6)
H15 H 0.406(18) 0.593(13) 0.449(6)
H16 H 0.015(17) 0.340(14) 0.583(5)
H17 H 0.280(17) 0.392(12) 0.694(6)
loop_
_geom_bond_atom_site_label_1
_geom_bond_atom_site_label_2
_geom_bond_site_symmetry_1
_geom_bond_site_symmetry_2
Br1 C17 1_555 1_555
O1 C1 1_555 1_555
O2 C1 1_555 1_555
C1 C2 1_555 1_555
C2 C3 1_555 1_555
C3 C4 1_555 1_555
C4 O2 1_555 1_555
C5 C2 1_555 1_555
C6 C5 1_555 1_555
C7 C6 1_555 1_555
C8 C3 1_555 1_555
C9 C8 1_555 1_555
C10 C9 1_555 1_555
C11 C10 1_555 1_555
C12 C11 1_555 1_555
C13 C8 1_555 1_555
C14 C4 1_555 1_555
C15 C14 1_555 1_555
C16 C15 1_555 1_555
C17 C16 1_555 1_555
C18 C17 1_555 1_555
C19 C14 1_555 1_555
H1 C4 1_555 1_555
H2 C5 1_555 1_555
H3 C5 1_555 1_555
H4 C6 1_555 1_555
H5 C6 1_555 1_555
H6 C7 1_555 1_555
H7 C7 1_555 1_555
H8 C7 1_555 1_555
H9 C9 1_555 1_555
H10 C10 1_555 1_555
H11 C11 1_555 1_555
H12 C12 1_555 1_555
H13 C13 1_555 1_555
H14 C15 1_555 1_555
H15 C16 1_555 1_555
H16 C18 1_555 1_555
H17 C19 1_555 1_555
C12 C13 1_555 1_555
C18 C19 1_555 1_555

#END
