
#######################################################################
#
#                 Cambridge Crystallographic Data Centre
#                                CCDC 
#
#######################################################################
#
# If this CIF has been generated from an entry in the Cambridge 
# Structural Database, then it will include bibliographic, chemical, 
# crystal, experimental, refinement or atomic coordinate data resulting 
# from the CCDC's data processing and validation procedures.
#
#######################################################################

data_MIHRUQ
_chemical_formula_moiety         'C12 H12 N2 S2'
_chemical_name_systematic        
3-Methyl-2-(4-(3-methyl-2-thienyl)-2,3-diazabuta-1,3-dienyl)thiophene
_symmetry_cell_setting           monoclinic
_symmetry_space_group_name_H-M   'P 21/n'
_symmetry_Int_Tables_number      14
_space_group_name_Hall           '-P 2yn'
loop_
_symmetry_equiv_pos_site_id
_symmetry_equiv_pos_as_xyz
1 x,y,z
2 1/2+x,1/2-y,1/2+z
3 -x,-y,-z
4 1/2-x,1/2+y,1/2-z
_cell_length_a                   7.7009(9)
_cell_length_b                   7.5963(6)
_cell_length_c                   11.0835(6)
_cell_angle_alpha                90
_cell_angle_beta                 93.909(6)
_cell_angle_gamma                90
_cell_volume                     646.858
_exptl_crystal_colour            yellow
_exptl_crystal_description       prism
_chemical_melting_point          431-433K
_cell_formula_units_Z            2
loop_
_atom_site_label
_atom_site_type_symbol
_atom_site_fract_x
_atom_site_fract_y
_atom_site_fract_z
S1 S 0.34356(7) 0.25009(9) 0.25856(5)
N1 N 0.4678(2) 0.0475(2) 0.0485(1)
C1 C 0.5691(2) 0.0376(3) 0.1443(2)
C2 C 0.5302(2) 0.1253(3) 0.2534(2)
C3 C 0.6276(3) 0.1308(3) 0.3621(2)
C4 C 0.5488(3) 0.2359(3) 0.4478(2)
C5 C 0.3979(3) 0.3077(3) 0.4048(2)
C6 C 0.7999(3) 0.0387(3) 0.3882(2)
H1 H 0.6727 -0.0300 0.1433
H2 H 0.5981 0.2547 0.5277
H3 H 0.3285 0.3826 0.4509
H4 H 0.7854 -0.0845 0.3773
H5 H 0.8819 0.0810 0.3344
H6 H 0.8425 0.0619 0.4692
N1B N 0.5322(2) -0.0475(2) -0.0485(1)
C1B C 0.4309(2) -0.0376(3) -0.1443(2)
C2B C 0.4698(2) -0.1253(3) -0.2534(2)
S1B S 0.65644(7) -0.25009(9) -0.25856(5)
C5B C 0.6021(3) -0.3077(3) -0.4048(2)
C4B C 0.4512(3) -0.2359(3) -0.4478(2)
C3B C 0.3724(3) -0.1308(3) -0.3621(2)
C6B C 0.2001(3) -0.0387(3) -0.3882(2)
H4B H 0.2146 0.0845 -0.3773
H5B H 0.1181 -0.0810 -0.3344
H6B H 0.1575 -0.0619 -0.4692
H2B H 0.4019 -0.2547 -0.5277
H3B H 0.6715 -0.3826 -0.4509
H1B H 0.3273 0.0300 -0.1433
loop_
_geom_bond_atom_site_label_1
_geom_bond_atom_site_label_2
_geom_bond_site_symmetry_1
_geom_bond_site_symmetry_2
S1 C2 1_555 1_555
N1 C1 1_555 1_555
C1 C2 1_555 1_555
C2 C3 1_555 1_555
C3 C4 1_555 1_555
C4 C5 1_555 1_555
C5 S1 1_555 1_555
C6 C3 1_555 1_555
H1 C1 1_555 1_555
H2 C4 1_555 1_555
H3 C5 1_555 1_555
H4 C6 1_555 1_555
H5 C6 1_555 1_555
H6 C6 1_555 1_555
N1B N1 1_555 1_555
C1B N1B 1_555 1_555
C2B C1B 1_555 1_555
S1B C2B 1_555 1_555
C5B S1B 1_555 1_555
C4B C5B 1_555 1_555
C3B C2B 1_555 1_555
C6B C3B 1_555 1_555
H4B C6B 1_555 1_555
H5B C6B 1_555 1_555
H6B C6B 1_555 1_555
H2B C4B 1_555 1_555
H3B C5B 1_555 1_555
H1B C1B 1_555 1_555
C4B C3B 1_555 1_555

#END
