
#######################################################################
#
#                 Cambridge Crystallographic Data Centre
#                                CCDC 
#
#######################################################################
#
# If this CIF has been generated from an entry in the Cambridge 
# Structural Database, then it will include bibliographic, chemical, 
# crystal, experimental, refinement or atomic coordinate data resulting 
# from the CCDC's data processing and validation procedures.
#
#######################################################################

data_MIHSIH
_chemical_formula_moiety         'C19 H18 Br1 N3 O6 S1'
_chemical_name_systematic        
'Ethyl 3a-bromo-1-((4-nitrophenyl)sulfonyl)-2,3,3a,8a-tetrahydropyrrolo[2,3-b]indole-8(1H)-carboxylate'
_symmetry_cell_setting           orthorhombic
_symmetry_space_group_name_H-M   'P 21 21 21'
_symmetry_Int_Tables_number      19
_space_group_name_Hall           'P 2ac 2ab'
loop_
_symmetry_equiv_pos_site_id
_symmetry_equiv_pos_as_xyz
1 x,y,z
2 1/2-x,-y,1/2+z
3 -x,1/2+y,1/2-z
4 1/2+x,1/2-y,-z
_cell_length_a                   7.6145(8)
_cell_length_b                   13.1019(14)
_cell_length_c                   20.733(2)
_cell_angle_alpha                90
_cell_angle_beta                 90
_cell_angle_gamma                90
_cell_volume                     2068.42
_exptl_crystal_colour            colorless
_exptl_crystal_description       prismatic
_cell_formula_units_Z            4
loop_
_atom_site_label
_atom_site_type_symbol
_atom_site_fract_x
_atom_site_fract_y
_atom_site_fract_z
Br1 Br 0.20138(5) 0.25291(4) 0.80312(2)
S1 S 0.69839(14) 0.47406(7) 0.78726(5)
N1 N 0.6619(4) 0.3789(2) 0.83711(15)
N2 N 0.4861(4) 0.3600(2) 0.93418(15)
N3 N 1.2422(6) 0.7342(3) 0.9121(2)
O1 O 0.4546(5) 0.5309(2) 0.94045(16)
O2 O 0.4419(5) 0.4350(2) 1.02952(15)
O3 O 0.5417(4) 0.5323(2) 0.78308(15)
O4 O 0.7768(4) 0.4352(2) 0.73008(12)
O5 O 1.3788(5) 0.7494(3) 0.88213(19)
O6 O 1.2080(6) 0.7698(3) 0.9646(2)
C1 C 0.4861(5) 0.3636(3) 0.86395(18)
H1 H 0.4026 0.4142 0.8475
C2 C 0.7342(5) 0.2775(3) 0.8207(2)
H2 H 0.7828 0.2441 0.8584
H3 H 0.8245 0.2828 0.7879
C3 C 0.5761(5) 0.2213(3) 0.79579(18)
H4 H 0.5940 0.1480 0.7968
H5 H 0.5470 0.2420 0.7522
C4 C 0.4348(4) 0.2543(3) 0.84365(16)
C5 C 0.4342(5) 0.1946(3) 0.90538(18)
C6 C 0.4103(6) 0.0913(3) 0.9138(2)
H6 H 0.3840 0.0492 0.8790
C7 C 0.4264(8) 0.0521(4) 0.9747(3)
H7 H 0.4093 -0.0174 0.9816
C8 C 0.4681(7) 0.1153(4) 1.0264(3)
H8 H 0.4808 0.0874 1.0674
C9 C 0.4909(6) 0.2187(3) 1.0178(2)
H9 H 0.5196 0.2609 1.0523
C10 C 0.4699(4) 0.2578(3) 0.95656(16)
C11 C 0.4596(6) 0.4499(4) 0.9670(2)
C12 C 0.3887(14) 0.5344(7) 1.0606(4)
H10 H 0.4743 0.5877 1.0524
H11 H 0.2743 0.5567 1.0457
C13 C 0.3843(13) 0.5058(7) 1.1304(3)
H12 H 0.2918 0.4574 1.1377
H13 H 0.3637 0.5658 1.1560
H14 H 0.4948 0.4760 1.1424
C14 C 0.8588(5) 0.5500(3) 0.82612(17)
C15 C 0.8097(6) 0.6155(3) 0.8744(2)
H15 H 0.6930 0.6197 0.8874
C16 C 0.9375(7) 0.6755(3) 0.9038(2)
H16 H 0.9085 0.7191 0.9376
C17 C 1.1054(6) 0.6692(3) 0.8822(2)
C18 C 1.1554(5) 0.6046(3) 0.8336(2)
H17 H 1.2717 0.6022 0.8200
C19 C 1.0309(5) 0.5439(3) 0.80553(18)
H18 H 1.0620 0.4987 0.7728
C20? C 0.484(2) 0.5160(12) 1.0773(7)
H19? H 0.5302 0.5759 1.0558
H20? H 0.5709 0.4917 1.1079
C21? C 0.317(3) 0.5412(18) 1.1112(12)
H21? H 0.2450 0.5828 1.0837
H22? H 0.3425 0.5777 1.1502
H23? H 0.2553 0.4793 1.1214
loop_
_geom_bond_atom_site_label_1
_geom_bond_atom_site_label_2
_geom_bond_site_symmetry_1
_geom_bond_site_symmetry_2
Br1 C4 1_555 1_555
S1 N1 1_555 1_555
N1 C1 1_555 1_555
N2 C1 1_555 1_555
N3 O5 1_555 1_555
O1 C11 1_555 1_555
O2 C11 1_555 1_555
O3 S1 1_555 1_555
O4 S1 1_555 1_555
O6 N3 1_555 1_555
C1 H1 1_555 1_555
C2 N1 1_555 1_555
H2 C2 1_555 1_555
H3 C2 1_555 1_555
C3 C2 1_555 1_555
H4 C3 1_555 1_555
H5 C3 1_555 1_555
C4 C1 1_555 1_555
C5 C4 1_555 1_555
C6 C5 1_555 1_555
H6 C6 1_555 1_555
C7 C6 1_555 1_555
H7 C7 1_555 1_555
C8 C7 1_555 1_555
H8 C8 1_555 1_555
C9 C8 1_555 1_555
H9 C9 1_555 1_555
C10 N2 1_555 1_555
C11 N2 1_555 1_555
C12 O2 1_555 1_555
H10 C12 1_555 1_555
H11 C12 1_555 1_555
C13 C12 1_555 1_555
H12 C13 1_555 1_555
H13 C13 1_555 1_555
H14 C13 1_555 1_555
C14 S1 1_555 1_555
C15 C14 1_555 1_555
H15 C15 1_555 1_555
C16 C15 1_555 1_555
H16 C16 1_555 1_555
C17 N3 1_555 1_555
C18 C17 1_555 1_555
H17 C18 1_555 1_555
C19 C14 1_555 1_555
H18 C19 1_555 1_555
C3 C4 1_555 1_555
C5 C10 1_555 1_555
C9 C10 1_555 1_555
C16 C17 1_555 1_555
C18 C19 1_555 1_555

#END
