
#######################################################################
#
#                 Cambridge Crystallographic Data Centre
#                                CCDC 
#
#######################################################################
#
# If this CIF has been generated from an entry in the Cambridge 
# Structural Database, then it will include bibliographic, chemical, 
# crystal, experimental, refinement or atomic coordinate data resulting 
# from the CCDC's data processing and validation procedures.
#
#######################################################################

data_MIHTAB
_chemical_formula_moiety         'C17 H16 N4'
_chemical_name_systematic        N,N-bis(pyridin-2-ylmethyl)pyridin-4-amine
_symmetry_cell_setting           monoclinic
_symmetry_space_group_name_H-M   'C 2/c'
_symmetry_Int_Tables_number      15
_space_group_name_Hall           '-C 2yn'
loop_
_symmetry_equiv_pos_site_id
_symmetry_equiv_pos_as_xyz
1 x,y,z
2 -x,y,1/2-z
3 1/2+x,1/2+y,z
4 1/2-x,1/2+y,1/2-z
5 -x,-y,-z
6 x,-y,1/2+z
7 1/2-x,1/2-y,-z
8 1/2+x,1/2-y,1/2+z
_cell_length_a                   18.784(4)
_cell_length_b                   8.1377(16)
_cell_length_c                   11.694(2)
_cell_angle_alpha                90
_cell_angle_beta                 123.85(3)
_cell_angle_gamma                90
_cell_volume                     1484.54
_exptl_crystal_colour            yellow
_exptl_crystal_description       block
_cell_formula_units_Z            4
loop_
_atom_site_label
_atom_site_type_symbol
_atom_site_fract_x
_atom_site_fract_y
_atom_site_fract_z
C1 C 1.0000 0.2059(2) 0.2500
C2 C 0.96617(11) 0.11413(17) 0.31059(16)
H1 H 0.9427 0.1671 0.3526
C3 C 0.96795(13) -0.0541(2) 0.3075(2)
H2 H 0.9450 -0.1113 0.3487
C4 C 0.97101(10) 0.46743(17) 0.32238(15)
H3 H 1.0033 0.5691 0.3545
H4 H 0.9841 0.4056 0.4028
C5 C 0.87727(10) 0.50833(16) 0.23886(15)
C6 C 0.82258(12) 0.4674(2) 0.10190(18)
H5 H 0.8423 0.4067 0.0575
C7 C 0.73887(14) 0.5172(3) 0.0321(2)
H6 H 0.7011 0.4915 -0.0605
C8 C 0.71125(16) 0.6056(3) 0.1004(3)
H7 H 0.6547 0.6411 0.0553
C9 C 0.76902(15) 0.6400(3) 0.2362(2)
H8 H 0.7502 0.6996 0.2825
N1 N 1.0000 0.37351(18) 0.2500
N2 N 1.0000 -0.1424(2) 0.2500
N3 N 0.85107(11) 0.59303(18) 0.30681(16)
C2A C 1.03383(11) 0.11413(17) 0.18941(16)
H1A H 1.0573 0.1671 0.1474
C3A C 1.03205(13) -0.0541(2) 0.1925(2)
H2A H 1.0550 -0.1113 0.1513
C4A C 1.02899(10) 0.46743(17) 0.17762(15)
H3A H 0.9967 0.5691 0.1455
H4A H 1.0159 0.4056 0.0972
C5A C 1.12273(10) 0.50833(16) 0.26114(15)
C6A C 1.17742(12) 0.4674(2) 0.39810(18)
H5A H 1.1577 0.4067 0.4425
C7A C 1.26113(14) 0.5172(3) 0.4679(2)
H6A H 1.2989 0.4915 0.5605
C8A C 1.28875(16) 0.6056(3) 0.3996(3)
H7A H 1.3453 0.6411 0.4447
C9A C 1.23098(15) 0.6400(3) 0.2638(2)
H8A H 1.2498 0.6996 0.2175
N3A N 1.14893(11) 0.59303(18) 0.19319(16)
loop_
_geom_bond_atom_site_label_1
_geom_bond_atom_site_label_2
_geom_bond_site_symmetry_1
_geom_bond_site_symmetry_2
C1 C2 1_555 1_555
C2 H1 1_555 1_555
C3 C2 1_555 1_555
H2 C3 1_555 1_555
C4 H3 1_555 1_555
H4 C4 1_555 1_555
C5 C4 1_555 1_555
C6 C5 1_555 1_555
H5 C6 1_555 1_555
C7 C6 1_555 1_555
H6 C7 1_555 1_555
C8 C7 1_555 1_555
H7 C8 1_555 1_555
C9 C8 1_555 1_555
H8 C9 1_555 1_555
N1 C1 1_555 1_555
N2 C3 1_555 1_555
N3 C5 1_555 1_555
C2A C1 1_555 1_555
H1A C2A 1_555 1_555
C3A N2 1_555 1_555
H2A C3A 1_555 1_555
C4A N1 1_555 1_555
H3A C4A 1_555 1_555
H4A C4A 1_555 1_555
C5A C4A 1_555 1_555
C6A C5A 1_555 1_555
H5A C6A 1_555 1_555
C7A C6A 1_555 1_555
H6A C7A 1_555 1_555
C8A C7A 1_555 1_555
H7A C8A 1_555 1_555
C9A C8A 1_555 1_555
H8A C9A 1_555 1_555
N3A C5A 1_555 1_555
C4 N1 1_555 1_555
C9 N3 1_555 1_555
C2A C3A 1_555 1_555
C9A N3A 1_555 1_555

#END
