
#######################################################################
#
#                 Cambridge Crystallographic Data Centre
#                                CCDC 
#
#######################################################################
#
# If this CIF has been generated from an entry in the Cambridge 
# Structural Database, then it will include bibliographic, chemical, 
# crystal, experimental, refinement or atomic coordinate data resulting 
# from the CCDC's data processing and validation procedures.
#
#######################################################################

data_MIHVEG
_chemical_name_common            
N'',N'''-bis(4-isopropylbenzylidene)thiocarbonohydrazide
_chemical_formula_moiety         'C21 H26 N4 S1'
_chemical_name_systematic        
1,5-Bis(4-isopropylphenyl)methylene-thiocarbonohydrazide
_symmetry_cell_setting           monoclinic
_symmetry_space_group_name_H-M   'P 21/c'
_symmetry_Int_Tables_number      14
_space_group_name_Hall           '-P 2ybc'
loop_
_symmetry_equiv_pos_site_id
_symmetry_equiv_pos_as_xyz
1 x,y,z
2 -x,1/2+y,1/2-z
3 -x,-y,-z
4 x,1/2-y,1/2+z
_cell_length_a                   18.082(6)
_cell_length_b                   11.129(4)
_cell_length_c                   10.617(3)
_cell_angle_alpha                90
_cell_angle_beta                 95.330(6)
_cell_angle_gamma                90
_cell_volume                     2127.27
_exptl_crystal_colour            yellow
_exptl_crystal_description       block
_cell_formula_units_Z            4
loop_
_atom_site_label
_atom_site_type_symbol
_atom_site_fract_x
_atom_site_fract_y
_atom_site_fract_z
N1 N 0.1303(2) 0.8272(4) 0.2266(4)
H1 H 0.1163 0.8211 0.3016
N2 N 0.1942(2) 0.7702(4) 0.1996(4)
N3 N 0.0291(2) 0.9425(4) 0.1818(3)
H2 H 0.0049 0.9959 0.1361
N4 N 0.0053(2) 0.9097(3) 0.2969(3)
S1 S 0.11024(8) 0.91415(15) -0.00810(13)
C1 C 0.0896(3) 0.8915(5) 0.1412(4)
C2 C 0.2323(3) 0.7216(4) 0.2937(5)
H3 H 0.2172 0.7302 0.3746
C3 C 0.2989(3) 0.6530(5) 0.2757(5)
C4 C 0.3340(3) 0.5859(5) 0.3754(6)
H4 H 0.3173 0.5904 0.4555
C5 C 0.3926(3) 0.5138(6) 0.3552(7)
H5 H 0.4145 0.4697 0.4231
C6 C 0.4212(3) 0.5025(6) 0.2414(7)
C7 C 0.3874(3) 0.5705(6) 0.1433(7)
H6 H 0.4053 0.5660 0.0641
C8 C 0.3284(3) 0.6442(5) 0.1592(6)
H7 H 0.3075 0.6893 0.0912
C9 C 0.4818(4) 0.4181(7) 0.2203(8)
H8 H 0.4762 0.3718 0.2974
C10 C 0.4599(4) 0.3124(7) 0.1311(9)
H9 H 0.4395 0.3429 0.0507
H10 H 0.4235 0.2636 0.1673
H11 H 0.5031 0.2648 0.1197
C11 C 0.5593(4) 0.4607(8) 0.2642(10)
H12 H 0.5871 0.4714 0.1923
H13 H 0.5835 0.4020 0.3200
H14 H 0.5565 0.5357 0.3081
C12 C -0.0521(3) 0.9657(5) 0.3280(4)
H15 H -0.0709 1.0296 0.2783
C13 C -0.0890(2) 0.9318(4) 0.4397(4)
C14 C -0.0643(3) 0.8389(5) 0.5184(5)
H16 H -0.0213 0.7975 0.5034
C15 C -0.1028(3) 0.8071(5) 0.6185(5)
H17 H -0.0838 0.7461 0.6720
C16 C -0.1689(3) 0.8621(5) 0.6435(5)
C17 C -0.1916(3) 0.9581(5) 0.5653(5)
H18 H -0.2343 1.0001 0.5804
C18 C -0.1526(3) 0.9926(5) 0.4665(4)
H19 H -0.1691 1.0577 0.4166
C19 C -0.2112(3) 0.8149(5) 0.7515(6)
H20 H -0.1737 0.7960 0.8213
C20 C -0.2469(4) 0.6994(6) 0.7122(7)
H21 H -0.2697 0.6653 0.7820
H22 H -0.2100 0.6450 0.6860
H23 H -0.2840 0.7131 0.6430
C21 C -0.2629(4) 0.9014(7) 0.8022(6)
H24 H -0.3039 0.9159 0.7400
H25 H -0.2373 0.9755 0.8224
H26 H -0.2810 0.8689 0.8773
loop_
_geom_bond_atom_site_label_1
_geom_bond_atom_site_label_2
_geom_bond_site_symmetry_1
_geom_bond_site_symmetry_2
N1 H1 1_555 1_555
N2 N1 1_555 1_555
N3 H2 1_555 1_555
N4 N3 1_555 1_555
S1 C1 1_555 1_555
C1 N1 1_555 1_555
C2 N2 1_555 1_555
H3 C2 1_555 1_555
C3 C2 1_555 1_555
C4 C3 1_555 1_555
H4 C4 1_555 1_555
C5 C4 1_555 1_555
H5 C5 1_555 1_555
C6 C5 1_555 1_555
C7 C6 1_555 1_555
H6 C7 1_555 1_555
C8 C3 1_555 1_555
H7 C8 1_555 1_555
C9 C6 1_555 1_555
H8 C9 1_555 1_555
C10 C9 1_555 1_555
H9 C10 1_555 1_555
H10 C10 1_555 1_555
H11 C10 1_555 1_555
C11 C9 1_555 1_555
H12 C11 1_555 1_555
H13 C11 1_555 1_555
H14 C11 1_555 1_555
C12 N4 1_555 1_555
H15 C12 1_555 1_555
C13 C12 1_555 1_555
C14 C13 1_555 1_555
H16 C14 1_555 1_555
C15 C14 1_555 1_555
H17 C15 1_555 1_555
C16 C15 1_555 1_555
C17 C16 1_555 1_555
H18 C17 1_555 1_555
C18 C13 1_555 1_555
H19 C18 1_555 1_555
C19 C16 1_555 1_555
H20 C19 1_555 1_555
C20 C19 1_555 1_555
H21 C20 1_555 1_555
H22 C20 1_555 1_555
H23 C20 1_555 1_555
C21 C19 1_555 1_555
H24 C21 1_555 1_555
H25 C21 1_555 1_555
H26 C21 1_555 1_555
N3 C1 1_555 1_555
C7 C8 1_555 1_555
C17 C18 1_555 1_555

#END
