
#######################################################################
#
#                 Cambridge Crystallographic Data Centre
#                                CCDC 
#
#######################################################################
#
# If this CIF has been generated from an entry in the Cambridge 
# Structural Database, then it will include bibliographic, chemical, 
# crystal, experimental, refinement or atomic coordinate data resulting 
# from the CCDC's data processing and validation procedures.
#
#######################################################################

data_MIHXUY
_chemical_formula_moiety         'C29 H29 N5'
_chemical_name_systematic        
N,N,N'-tris(1H-indol-3-ylmethyl)ethane-1,2-diamine
_symmetry_cell_setting           monoclinic
_symmetry_space_group_name_H-M   'P 21/c'
_symmetry_Int_Tables_number      14
_space_group_name_Hall           '-P 2ybc'
loop_
_symmetry_equiv_pos_site_id
_symmetry_equiv_pos_as_xyz
1 x,y,z
2 -x,1/2+y,1/2-z
3 -x,-y,-z
4 x,1/2-y,1/2+z
_cell_length_a                   13.769(3)
_cell_length_b                   10.832(2)
_cell_length_c                   16.910(3)
_cell_angle_alpha                90
_cell_angle_beta                 106.512(3)
_cell_angle_gamma                90
_cell_volume                     2418.05
_exptl_crystal_colour            colorless
_exptl_crystal_description       block
_cell_formula_units_Z            4
loop_
_atom_site_label
_atom_site_type_symbol
_atom_site_fract_x
_atom_site_fract_y
_atom_site_fract_z
C1 C 0.21660(15) 0.20856(19) -0.00132(12)
H1 H 0.2423 0.2468 -0.0432
H2 H 0.1526 0.1692 -0.0287
C2 C 0.29084(15) 0.11279(19) 0.04444(12)
H3 H 0.3045 0.0538 0.0058
H4 H 0.3542 0.1521 0.0736
C3 C 0.32167(15) -0.0165(2) 0.16844(13)
H5 H 0.3782 0.0377 0.1932
H6 H 0.3475 -0.0868 0.1451
C4 C 0.27550(14) -0.06000(18) 0.23321(12)
C5 C 0.17503(15) -0.07432(19) 0.22497(13)
H7 H 0.1234 -0.0572 0.1773
C6 C 0.25247(14) -0.13274(18) 0.35366(12)
C7 C 0.32704(14) -0.09563(17) 0.31615(12)
C8 C 0.42825(16) -0.0998(2) 0.36324(14)
H8 H 0.4796 -0.0758 0.3408
C9 C 0.45039(17) -0.1402(2) 0.44351(15)
H9 H 0.5176 -0.1418 0.4755
C10 C 0.37555(17) -0.1784(2) 0.47800(14)
H10 H 0.3934 -0.2066 0.5322
C11 C 0.27581(16) -0.1753(2) 0.43353(13)
H11 H 0.2253 -0.2012 0.4565
C12 C 0.09756(14) 0.35402(19) 0.03092(13)
H12 H 0.0811 0.3816 -0.0259
H13 H 0.0945 0.4251 0.0651
C13 C 0.02160(14) 0.26081(19) 0.03937(12)
C14 C -0.04813(15) 0.2018(2) -0.02227(13)
H14 H -0.0576 0.2164 -0.0782
C15 C -0.06722(15) 0.12209(19) 0.09287(13)
C16 C 0.01110(14) 0.21007(18) 0.11443(12)
C17 C 0.06024(15) 0.2313(2) 0.19794(13)
H15 H 0.1134 0.2874 0.2135
C18 C 0.02882(18) 0.1681(2) 0.25622(14)
H16 H 0.0610 0.1816 0.3118
C19 C -0.05100(19) 0.0836(2) 0.23338(16)
H17 H -0.0718 0.0433 0.2743
C20 C -0.09945(17) 0.0584(2) 0.15233(16)
H18 H -0.1518 0.0011 0.1376
C21 C 0.27573(16) 0.40222(19) 0.06586(12)
H19 H 0.2544 0.4589 0.0198
H20 H 0.3398 0.3664 0.0645
C22 C 0.29158(14) 0.47297(19) 0.14409(12)
C23 C 0.27479(18) 0.5946(2) 0.15314(15)
H21 H 0.2451 0.6483 0.1102
C24 C 0.34721(16) 0.5248(2) 0.28034(14)
C25 C 0.33709(15) 0.42618(19) 0.22502(12)
C26 C 0.37186(17) 0.3112(2) 0.25615(14)
H22 H 0.3658 0.2439 0.2210
C27 C 0.4153(2) 0.2975(3) 0.33937(16)
H23 H 0.4383 0.2201 0.3604
C28 C 0.42564(19) 0.3970(3) 0.39261(15)
H24 H 0.4563 0.3854 0.4487
C29 C 0.39172(18) 0.5112(3) 0.36443(15)
H25 H 0.3981 0.5778 0.4003
N1 N 0.20034(11) 0.30344(14) 0.05540(9)
N2 N 0.24795(13) 0.04946(16) 0.10288(11)
H26 H 0.2211(15) 0.1029(17) 0.1248(12)
N3 N 0.16084(13) -0.11738(18) 0.29652(11)
H27 H 0.1064(14) -0.135(2) 0.3083(13)
N4 N -0.10242(13) 0.11849(18) 0.00839(12)
H28 H -0.1491(16) 0.066(2) -0.0244(12)
N5 N 0.30761(17) 0.62689(19) 0.23432(14)
H29 H 0.3038(18) 0.6959(18) 0.2547(15)
loop_
_geom_bond_atom_site_label_1
_geom_bond_atom_site_label_2
_geom_bond_site_symmetry_1
_geom_bond_site_symmetry_2
C1 H1 1_555 1_555
H2 C1 1_555 1_555
C2 C1 1_555 1_555
H3 C2 1_555 1_555
H4 C2 1_555 1_555
C3 H5 1_555 1_555
H6 C3 1_555 1_555
C4 C3 1_555 1_555
C5 C4 1_555 1_555
H7 C5 1_555 1_555
C6 C7 1_555 1_555
C7 C4 1_555 1_555
C8 C7 1_555 1_555
H8 C8 1_555 1_555
C9 C8 1_555 1_555
H9 C9 1_555 1_555
C10 C9 1_555 1_555
H10 C10 1_555 1_555
C11 C6 1_555 1_555
H11 C11 1_555 1_555
C12 H12 1_555 1_555
H13 C12 1_555 1_555
C13 C12 1_555 1_555
C14 C13 1_555 1_555
H14 C14 1_555 1_555
C15 C16 1_555 1_555
C16 C13 1_555 1_555
C17 C16 1_555 1_555
H15 C17 1_555 1_555
C18 C17 1_555 1_555
H16 C18 1_555 1_555
C19 C18 1_555 1_555
H17 C19 1_555 1_555
C20 C15 1_555 1_555
H18 C20 1_555 1_555
C21 H19 1_555 1_555
H20 C21 1_555 1_555
C22 C21 1_555 1_555
C23 C22 1_555 1_555
H21 C23 1_555 1_555
C24 C25 1_555 1_555
C25 C22 1_555 1_555
C26 C25 1_555 1_555
H22 C26 1_555 1_555
C27 C26 1_555 1_555
H23 C27 1_555 1_555
C28 C27 1_555 1_555
H24 C28 1_555 1_555
C29 C24 1_555 1_555
H25 C29 1_555 1_555
N1 C1 1_555 1_555
N2 C2 1_555 1_555
H26 N2 1_555 1_555
N3 C5 1_555 1_555
H27 N3 1_555 1_555
N4 C14 1_555 1_555
H28 N4 1_555 1_555
N5 C23 1_555 1_555
H29 N5 1_555 1_555
C3 N2 1_555 1_555
C6 N3 1_555 1_555
C10 C11 1_555 1_555
C12 N1 1_555 1_555
C15 N4 1_555 1_555
C19 C20 1_555 1_555
C21 N1 1_555 1_555
C24 N5 1_555 1_555
C28 C29 1_555 1_555

#END
