
#######################################################################
#
#                 Cambridge Crystallographic Data Centre
#                                CCDC 
#
#######################################################################
#
# If this CIF has been generated from an entry in the Cambridge 
# Structural Database, then it will include bibliographic, chemical, 
# crystal, experimental, refinement or atomic coordinate data resulting 
# from the CCDC's data processing and validation procedures.
#
#######################################################################

data_MIHZIN
_chemical_formula_moiety         'C25 H35 N1 O3'
_chemical_name_systematic        
'(S)-(-)-t-butyl(isoquinolin-1-yl)methyl 5-methyl-2-(1-methylethyl)cyclohexyl carbonate'
_symmetry_cell_setting           orthorhombic
_symmetry_space_group_name_H-M   'P 21 21 21'
_symmetry_Int_Tables_number      19
_space_group_name_Hall           'P 2ac 2ab'
loop_
_symmetry_equiv_pos_site_id
_symmetry_equiv_pos_as_xyz
1 x,y,z
2 1/2+x,1/2-y,-z
3 -x,1/2+y,1/2-z
4 1/2-x,-y,1/2+z
_cell_length_a                   9.567(2)
_cell_length_b                   10.794(2)
_cell_length_c                   23.003(6)
_cell_angle_alpha                90
_cell_angle_beta                 90
_cell_angle_gamma                90
_cell_volume                     2375.43
_exptl_crystal_colour            white
_exptl_crystal_description       prism
_chemical_melting_point          '122-123 deg.C'
_cell_formula_units_Z            4
_exptl_crystal_recrystallization_method hexanes
loop_
_atom_site_label
_atom_site_type_symbol
_atom_site_fract_x
_atom_site_fract_y
_atom_site_fract_z
C1 C 0.2134(4) 0.6941(4) 0.78146(17)
C2 C 0.2915(4) 0.6718(4) 0.72933(17)
C3 C 0.2662(4) 0.5715(4) 0.69160(17)
H1 H 0.1948 0.5159 0.7
C4 C 0.3457(5) 0.5551(4) 0.64272(18)
H2 H 0.3271 0.4884 0.6183
C5 C 0.4526(6) 0.6354(5) 0.6291(2)
H3 H 0.5061 0.6219 0.5959
C6 C 0.4804(5) 0.7340(5) 0.6637(2)
H4 H 0.552 0.7884 0.6539
C7 C 0.4012(5) 0.7545(4) 0.7146(2)
C8 C 0.4267(6) 0.8540(5) 0.7534(3)
H5 H 0.4987 0.9096 0.7459
C9 C 0.3478(6) 0.8678(5) 0.8004(3)
H6 H 0.3661 0.9351 0.8245
C10 C 0.0987(4) 0.6068(4) 0.80219(16)
H7 H 0.1101 0.5275 0.7819
C11 C -0.0522(4) 0.6505(4) 0.79345(18)
C12 C -0.1494(5) 0.5465(5) 0.8149(2)
H8 H -0.245 0.5714 0.8101
H9 H -0.1313 0.5305 0.8553
H10 H -0.1325 0.4726 0.7928
C13 C -0.0772(6) 0.6727(6) 0.7282(2)
H11 H -0.0109 0.7322 0.714
H12 H -0.1703 0.7037 0.7224
H13 H -0.0662 0.5962 0.7075
C14 C -0.0830(6) 0.7687(4) 0.8280(2)
H14 H -0.0262 0.8352 0.8136
H15 H -0.0623 0.755 0.8684
H16 H -0.18 0.7899 0.8239
C15 C 0.2345(5) 0.5250(4) 0.87811(17)
C16 C 0.3779(5) 0.4803(4) 0.96069(17)
H17 H 0.4435 0.4598 0.9294
C17 C 0.4370(5) 0.5845(5) 0.9958(2)
H18 H 0.3677 0.604 1.0258
C18 C 0.5673(6) 0.5368(6) 1.0276(3)
H19 H 0.6401 0.5196 0.9994
H20 H 0.6014 0.6007 1.0537
C19 C 0.5373(6) 0.4195(6) 1.0624(2)
H21 H 0.624 0.3899 1.0793
H22 H 0.4745 0.44 1.0941
C20 C 0.4733(6) 0.3169(5) 1.0271(2)
H23 H 0.5427 0.2919 0.998
C21 C 0.3458(5) 0.3663(4) 0.99386(18)
H24 H 0.3128 0.303 0.9672
H25 H 0.2713 0.3837 1.0213
C22 C 0.4545(7) 0.7030(5) 0.9586(3)
H26 H 0.3655 0.7151 0.9383
C23 C 0.5694(7) 0.6876(6) 0.9099(3)
H27 H 0.6602 0.6836 0.9277
H28 H 0.5657 0.7571 0.884
H29 H 0.5523 0.6127 0.8886
C24 C 0.4772(11) 0.8139(6) 0.9931(3)
H30 H 0.5677 0.8099 1.0111
H31 H 0.4065 0.8196 1.0226
H32 H 0.4725 0.8854 0.9684
C25 C 0.4385(8) 0.2033(6) 1.0627(3)
H33 H 0.3668 0.2234 1.0904
H34 H 0.5207 0.1759 1.083
H35 H 0.4061 0.1385 1.0375
N1 N 0.2405(5) 0.7892(3) 0.81616(16)
O1 O 0.2454(3) 0.5238(3) 0.93468(11)
O2 O 0.1168(3) 0.5850(3) 0.86402(11)
O3 O 0.3127(4) 0.4785(3) 0.84363(12)
loop_
_geom_bond_atom_site_label_1
_geom_bond_atom_site_label_2
_geom_bond_site_symmetry_1
_geom_bond_site_symmetry_2
C1 C2 1_555 1_555
C2 C3 1_555 1_555
C3 H1 1_555 1_555
C4 C3 1_555 1_555
H2 C4 1_555 1_555
C5 C4 1_555 1_555
H3 C5 1_555 1_555
C6 C5 1_555 1_555
H4 C6 1_555 1_555
C7 C2 1_555 1_555
C8 C7 1_555 1_555
H5 C8 1_555 1_555
C9 C8 1_555 1_555
H6 C9 1_555 1_555
C10 C1 1_555 1_555
H7 C10 1_555 1_555
C11 C10 1_555 1_555
C12 C11 1_555 1_555
H8 C12 1_555 1_555
H9 C12 1_555 1_555
H10 C12 1_555 1_555
C13 C11 1_555 1_555
H11 C13 1_555 1_555
H12 C13 1_555 1_555
H13 C13 1_555 1_555
C14 C11 1_555 1_555
H14 C14 1_555 1_555
H15 C14 1_555 1_555
H16 C14 1_555 1_555
C15 O1 1_555 1_555
C16 H17 1_555 1_555
C17 C16 1_555 1_555
H18 C17 1_555 1_555
C18 C17 1_555 1_555
H19 C18 1_555 1_555
H20 C18 1_555 1_555
C19 C18 1_555 1_555
H21 C19 1_555 1_555
H22 C19 1_555 1_555
C20 C19 1_555 1_555
H23 C20 1_555 1_555
C21 C16 1_555 1_555
H24 C21 1_555 1_555
H25 C21 1_555 1_555
C22 C17 1_555 1_555
H26 C22 1_555 1_555
C23 C22 1_555 1_555
H27 C23 1_555 1_555
H28 C23 1_555 1_555
H29 C23 1_555 1_555
C24 C22 1_555 1_555
H30 C24 1_555 1_555
H31 C24 1_555 1_555
H32 C24 1_555 1_555
C25 C20 1_555 1_555
H33 C25 1_555 1_555
H34 C25 1_555 1_555
H35 C25 1_555 1_555
N1 C1 1_555 1_555
O1 C16 1_555 1_555
O2 C10 1_555 1_555
O3 C15 1_555 1_555
C6 C7 1_555 1_555
C9 N1 1_555 1_555
C15 O2 1_555 1_555
C20 C21 1_555 1_555

#END
