
#######################################################################
#
#                 Cambridge Crystallographic Data Centre
#                                CCDC 
#
#######################################################################
#
# If this CIF has been generated from an entry in the Cambridge 
# Structural Database, then it will include bibliographic, chemical, 
# crystal, experimental, refinement or atomic coordinate data resulting 
# from the CCDC's data processing and validation procedures.
#
#######################################################################

data_MIHZUZ
_chemical_formula_moiety         'C23 H32 N2 O4'
_chemical_name_systematic        
(1S)-2-(3-menthoxycarbonyl)-1-cyano-6,7-dimethoxy-1,2,3,4-tetrahydroisoquinoline
_symmetry_cell_setting           monoclinic
_symmetry_space_group_name_H-M   'P 21'
_symmetry_Int_Tables_number      4
_space_group_name_Hall           'P 2yb'
loop_
_symmetry_equiv_pos_site_id
_symmetry_equiv_pos_as_xyz
1 x,y,z
2 -x,1/2+y,-z
_cell_length_a                   8.633(3)
_cell_length_b                   9.999(3)
_cell_length_c                   13.048(5)
_cell_angle_alpha                90
_cell_angle_beta                 95.02(3)
_cell_angle_gamma                90
_cell_volume                     1122
_exptl_crystal_colour            colorless
_exptl_crystal_description       prism
_chemical_melting_point          '185-187 deg.C'
_cell_formula_units_Z            2
_exptl_crystal_recrystallization_method ethanol
loop_
_atom_site_label
_atom_site_type_symbol
_atom_site_fract_x
_atom_site_fract_y
_atom_site_fract_z
C1 C 0.3770(2) 0.3024(2) 0.72024(14)
H1 H 0.3602 0.3837 0.6788
C2 C 0.2229(3) 0.2376(2) 0.72711(17)
C3 C 0.5506(3) 0.2468(3) 0.87758(15)
H2 H 0.4946 0.1654 0.8907
H3 H 0.5894 0.2849 0.9433
C4 C 0.6856(3) 0.2149(3) 0.81477(17)
H4 H 0.7518 0.2929 0.812
H5 H 0.7471 0.1431 0.8476
C5 C 0.7205(2) 0.0939(3) 0.64786(18)
H6 H 0.8195 0.0692 0.6751
C6 C 0.6679(2) 0.0516(3) 0.55073(17)
C7 C 0.5175(2) 0.0863(2) 0.50966(16)
C8 C 0.4277(2) 0.1669(2) 0.56571(15)
H7 H 0.3296 0.193 0.5378
C9 C 0.4820(2) 0.2103(2) 0.66469(14)
C10 C 0.6278(2) 0.1735(2) 0.70686(15)
C11 C 0.3821(2) 0.4437(2) 0.87402(15)
C12 C 0.1932(3) 0.6192(2) 0.85706(16)
H8 H 0.2615 0.657 0.9137
C13 C 0.1668(3) 0.7222(2) 0.77161(16)
H9 H 0.0984 0.681 0.7165
C14 C 0.0776(3) 0.8399(3) 0.8134(2)
H10 H 0.1415 0.882 0.8692
H11 H 0.0567 0.9057 0.7593
C15 C -0.0753(3) 0.7953(3) 0.85231(19)
H12 H -0.1273 0.8722 0.8789
H13 H -0.1421 0.7591 0.7953
C16 C -0.0514(3) 0.6906(3) 0.93592(19)
H14 H 0.0093 0.7309 0.995
C17 C 0.0422(3) 0.5733(3) 0.8972(2)
H15 H 0.0654 0.5104 0.953
H16 H -0.0202 0.5272 0.8427
C18 C 0.3180(3) 0.7627(3) 0.7245(2)
H17 H 0.3709 0.6797 0.7081
C19 C 0.4316(4) 0.8421(5) 0.7984(3)
H18 H 0.5288 0.8522 0.7686
H19 H 0.4484 0.7951 0.8625
H20 H 0.3887 0.9288 0.8102
C20 C 0.2826(4) 0.8374(4) 0.6238(3)
H21 H 0.2411 0.924 0.6375
H22 H 0.2078 0.7878 0.5802
H23 H 0.3764 0.8474 0.5901
C21 C -0.2063(4) 0.6423(5) 0.9716(3)
H24 H -0.2642 0.7175 0.9934
H25 H -0.1866 0.5811 1.0279
H26 H -0.2651 0.5978 0.9157
C22 C 0.9065(3) -0.0526(5) 0.5205(3)
H27 H 0.9621 0.0299 0.5326
H28 H 0.953 -0.103 0.4686
H29 H 0.9109 -0.1034 0.5831
C23 C 0.3224(3) 0.0640(5) 0.3706(2)
H30 H 0.2477 0.0324 0.4153
H31 H 0.3054 0.0203 0.3051
H32 H 0.311 0.1589 0.3615
N1 N 0.1048(3) 0.1892(3) 0.7307(2)
N2 N 0.4459(2) 0.34189(18) 0.82149(12)
O1 O 0.26853(17) 0.50444(15) 0.81435(11)
O2 O 0.4232(2) 0.47401(19) 0.96198(12)
O3 O 0.75109(18) -0.0249(2) 0.48727(13)
O4 O 0.47370(19) 0.0352(2) 0.41450(11)
loop_
_geom_bond_atom_site_label_1
_geom_bond_atom_site_label_2
_geom_bond_site_symmetry_1
_geom_bond_site_symmetry_2
C1 H1 1_555 1_555
C2 C1 1_555 1_555
C3 H2 1_555 1_555
H3 C3 1_555 1_555
C4 C3 1_555 1_555
H4 C4 1_555 1_555
H5 C4 1_555 1_555
C5 H6 1_555 1_555
C6 C5 1_555 1_555
C7 C6 1_555 1_555
C8 C7 1_555 1_555
H7 C8 1_555 1_555
C9 C1 1_555 1_555
C10 C4 1_555 1_555
C11 N2 1_555 1_555
C12 H8 1_555 1_555
C13 C12 1_555 1_555
H9 C13 1_555 1_555
C14 C13 1_555 1_555
H10 C14 1_555 1_555
H11 C14 1_555 1_555
C15 C14 1_555 1_555
H12 C15 1_555 1_555
H13 C15 1_555 1_555
C16 C15 1_555 1_555
H14 C16 1_555 1_555
C17 C12 1_555 1_555
H15 C17 1_555 1_555
H16 C17 1_555 1_555
C18 C13 1_555 1_555
H17 C18 1_555 1_555
C19 C18 1_555 1_555
H18 C19 1_555 1_555
H19 C19 1_555 1_555
H20 C19 1_555 1_555
C20 C18 1_555 1_555
H21 C20 1_555 1_555
H22 C20 1_555 1_555
H23 C20 1_555 1_555
C21 C16 1_555 1_555
H24 C21 1_555 1_555
H25 C21 1_555 1_555
H26 C21 1_555 1_555
C22 H27 1_555 1_555
H28 C22 1_555 1_555
H29 C22 1_555 1_555
C23 H30 1_555 1_555
H31 C23 1_555 1_555
H32 C23 1_555 1_555
N1 C2 1_555 1_555
N2 C1 1_555 1_555
O1 C11 1_555 1_555
O2 C11 1_555 1_555
O3 C6 1_555 1_555
O4 C7 1_555 1_555
C3 N2 1_555 1_555
C5 C10 1_555 1_555
C8 C9 1_555 1_555
C9 C10 1_555 1_555
C12 O1 1_555 1_555
C16 C17 1_555 1_555
C22 O3 1_555 1_555
C23 O4 1_555 1_555

#END
