
#######################################################################
#
#                 Cambridge Crystallographic Data Centre
#                                CCDC 
#
#######################################################################
#
# If this CIF has been generated from an entry in the Cambridge 
# Structural Database, then it will include bibliographic, chemical, 
# crystal, experimental, refinement or atomic coordinate data resulting 
# from the CCDC's data processing and validation procedures.
#
#######################################################################

data_MIJSAC
_chemical_formula_moiety         'C28 H18 F6 N2 O2'
_chemical_name_systematic        
N,N'-[2,6-bis(trifluoromethyl)[1,1'-biphenyl]-4,4'-diyl]dibenzamide
_symmetry_cell_setting           monoclinic
_symmetry_space_group_name_H-M   'C c'
_symmetry_Int_Tables_number      9
_space_group_name_Hall           'C -2yc'
loop_
_symmetry_equiv_pos_site_id
_symmetry_equiv_pos_as_xyz
1 x,y,z
2 x,-y,1/2+z
3 1/2+x,1/2+y,z
4 1/2+x,1/2-y,1/2+z
_cell_length_a                   10.3506(18)
_cell_length_b                   27.652(5)
_cell_length_c                   9.1626(16)
_cell_angle_alpha                90
_cell_angle_beta                 118.681(4)
_cell_angle_gamma                90
_cell_volume                     2300.71
_exptl_crystal_colour            white
_exptl_crystal_description       platy
_cell_formula_units_Z            4
loop_
_atom_site_label
_atom_site_type_symbol
_atom_site_fract_x
_atom_site_fract_y
_atom_site_fract_z
F1 F 0.7353(7) 0.3163(2) 0.3281(8)
F2 F 0.7447(7) 0.2493(2) 0.4500(7)
F3 F 0.2552(7) 0.2419(2) 0.5465(8)
F4 F 0.5614(7) 0.2646(2) 0.2118(7)
F5 F 0.2558(7) 0.3061(2) 0.6774(8)
F6 F 0.4346(7) 0.2564(2) 0.7880(7)
O1 O 0.7003(8) 0.0538(2) 0.7272(10)
O2 O 0.7275(7) 0.4463(2) 0.6455(9)
N1 N 0.4837(9) 0.4328(3) 0.5074(11)
H1 H 0.3960 0.4463 0.4613
N2 N 0.5003(10) 0.0730(3) 0.4853(10)
H2 H 0.4264 0.0609 0.3951
C1 C 0.5074(12) 0.1238(3) 0.4970(13)
C2 C 0.5024(11) 0.2255(3) 0.4986(12)
C3 C 0.4989(11) 0.2792(3) 0.5014(11)
C4 C 0.4214(10) 0.3042(3) 0.5671(10)
C5 C 0.4158(10) 0.3547(3) 0.5714(11)
H3 H 0.3613 0.3703 0.6167
C6 C 0.5724(10) 0.3079(3) 0.4392(10)
C7 C 0.5944(10) 0.0407(3) 0.5975(11)
C8 C 0.4152(11) 0.1499(4) 0.3533(11)
H4 H 0.3531 0.1331 0.2534
C9 C 0.5714(10) 0.3580(4) 0.4453(11)
H5 H 0.6263 0.3761 0.4057
C10 C 0.5918(11) 0.1988(4) 0.6411(11)
H6 H 0.6522 0.2156 0.7416
C11 C 0.5957(11) 0.1493(4) 0.6414(12)
H7 H 0.6589 0.1324 0.7407
C12 C 0.4921(11) 0.3818(3) 0.5079(12)
C13 C 0.6011(10) 0.4612(3) 0.5727(10)
C14 C 0.6540(11) 0.2843(4) 0.3589(12)
C15 C 0.5139(14) 0.6132(3) 0.5040(14)
H8 H 0.4953 0.6470 0.4881
C16 C 0.5695(9) 0.5150(4) 0.5505(10)
C17 C 0.3414(11) 0.2771(4) 0.6438(12)
C18 C 0.6432(11) 0.5438(4) 0.4899(12)
H9 H 0.7153 0.5299 0.4668
C19 C 0.6117(12) -0.0932(4) 0.6656(13)
H10 H 0.6635 -0.1147 0.7560
C20 C 0.4132(11) 0.1997(4) 0.3548(12)
H11 H 0.3498 0.2167 0.2559
C21 C 0.6129(12) 0.5916(4) 0.4637(13)
H12 H 0.6604 0.6105 0.4168
C22 C 0.5615(9) -0.0119(4) 0.5594(12)
C23 C 0.6356(11) -0.0445(4) 0.6894(12)
H13 H 0.7038 -0.0327 0.7965
C24 C 0.5135(12) -0.1112(4) 0.5123(16)
H14 H 0.4960 -0.1450 0.4974
C25 C 0.4424(12) 0.5851(4) 0.5678(12)
H15 H 0.3755 0.5997 0.5981
C26 C 0.4678(11) 0.5357(4) 0.5877(11)
H16 H 0.4153 0.5162 0.6269
C27 C 0.4638(12) -0.0303(4) 0.4039(13)
H17 H 0.4127 -0.0088 0.3131
C28 C 0.4400(13) -0.0799(4) 0.3797(15)
H18 H 0.3737 -0.0923 0.2726
loop_
_geom_bond_atom_site_label_1
_geom_bond_atom_site_label_2
_geom_bond_site_symmetry_1
_geom_bond_site_symmetry_2
F1 C14 1_555 1_555
F2 C14 1_555 1_555
F3 C17 1_555 1_555
F4 C14 1_555 1_555
F5 C17 1_555 1_555
F6 C17 1_555 1_555
O1 C7 1_555 1_555
O2 C13 1_555 1_555
N1 H1 1_555 1_555
N2 H2 1_555 1_555
C1 N2 1_555 1_555
C2 C3 1_555 1_555
C3 C4 1_555 1_555
C4 C5 1_555 1_555
C5 H3 1_555 1_555
C6 C3 1_555 1_555
C7 N2 1_555 1_555
C8 C1 1_555 1_555
H4 C8 1_555 1_555
C9 C6 1_555 1_555
H5 C9 1_555 1_555
C10 C2 1_555 1_555
H6 C10 1_555 1_555
C11 C1 1_555 1_555
H7 C11 1_555 1_555
C12 N1 1_555 1_555
C13 N1 1_555 1_555
C14 C6 1_555 1_555
C15 H8 1_555 1_555
C16 C13 1_555 1_555
C17 C4 1_555 1_555
C18 C16 1_555 1_555
H9 C18 1_555 1_555
C19 H10 1_555 1_555
C20 C2 1_555 1_555
H11 C20 1_555 1_555
C21 C15 1_555 1_555
H12 C21 1_555 1_555
C22 C7 1_555 1_555
C23 C19 1_555 1_555
H13 C23 1_555 1_555
C24 C19 1_555 1_555
H14 C24 1_555 1_555
C25 C15 1_555 1_555
H15 C25 1_555 1_555
C26 C16 1_555 1_555
H16 C26 1_555 1_555
C27 C22 1_555 1_555
H17 C27 1_555 1_555
C28 C24 1_555 1_555
H18 C28 1_555 1_555
C5 C12 1_555 1_555
C8 C20 1_555 1_555
C9 C12 1_555 1_555
C10 C11 1_555 1_555
C18 C21 1_555 1_555
C22 C23 1_555 1_555
C25 C26 1_555 1_555
C27 C28 1_555 1_555

#END
