
#######################################################################
#
#                 Cambridge Crystallographic Data Centre
#                                CCDC 
#
#######################################################################
#
# If this CIF has been generated from an entry in the Cambridge 
# Structural Database, then it will include bibliographic, chemical, 
# crystal, experimental, refinement or atomic coordinate data resulting 
# from the CCDC's data processing and validation procedures.
#
#######################################################################

data_MIJTOR
_chemical_formula_moiety         'C17 H14 N6 O1,H2 O1'
_chemical_name_systematic        
'3-{2-[1-(1H-benzimidazol-2-yl)ethylidene]hydrazinyl}quinoxalin-2(1H)-one monohydrate'
_symmetry_cell_setting           monoclinic
_symmetry_space_group_name_H-M   'P 21/c'
_symmetry_Int_Tables_number      14
_space_group_name_Hall           '-P 2ybc'
loop_
_symmetry_equiv_pos_site_id
_symmetry_equiv_pos_as_xyz
1 x,y,z
2 -x,1/2+y,1/2-z
3 -x,-y,-z
4 x,1/2-y,1/2+z
_cell_length_a                   5.2594(2)
_cell_length_b                   13.2099(5)
_cell_length_c                   23.1884(8)
_cell_angle_alpha                90
_cell_angle_beta                 92.265(3)
_cell_angle_gamma                90
_cell_volume                     1609.78
_exptl_crystal_colour            yellow
_exptl_crystal_description       plate
_cell_formula_units_Z            4
loop_
_atom_site_label
_atom_site_type_symbol
_atom_site_fract_x
_atom_site_fract_y
_atom_site_fract_z
O1 O 0.2005(2) 1.05134(9) 0.05679(5)
N1 N 0.2237(2) 0.89658(10) 0.01369(5)
H1 H 0.0868 0.9080 -0.0068
N2 N 0.6595(2) 0.85610(10) 0.08140(5)
N3 N 0.6150(2) 1.01515(10) 0.12284(6)
N4 N 0.8195(2) 0.99924(10) 0.15950(5)
N5 N 1.2249(2) 0.95739(10) 0.23182(5)
H2 H 1.1881 0.9073 0.2094
N6 N 1.2024(2) 1.11150(10) 0.27174(5)
C1 C 0.3046(3) 0.96800(12) 0.05126(6)
C2 C 0.5374(3) 0.94038(11) 0.08583(6)
C3 C 0.5689(3) 0.78689(12) 0.04071(6)
C4 C 0.3487(3) 0.80547(12) 0.00617(6)
C5 C 0.2621(3) 0.73565(14) -0.03508(7)
H3 H 0.1149 0.7485 -0.0574
C6 C 0.3962(4) 0.64750(15) -0.04249(8)
H4 H 0.3402 0.6007 -0.0701
C7 C 0.6158(4) 0.62820(15) -0.00866(9)
H5 H 0.7061 0.5686 -0.0140
C8 C 0.6997(3) 0.69652(13) 0.03253(7)
H6 H 0.8453 0.6823 0.0552
C9 C 0.8883(3) 1.07212(11) 0.19305(6)
C10 C 0.7701(4) 1.17445(13) 0.19550(8)
H7 H 0.7562 1.2026 0.1573
H8 H 0.8742 1.2177 0.2199
H9 H 0.6038 1.1690 0.2108
C11 C 1.1055(3) 1.04864(11) 0.23253(6)
C12 C 1.4162(3) 0.96084(12) 0.27402(6)
C13 C 1.3994(3) 1.05708(12) 0.29888(6)
C14 C 1.5728(3) 1.08622(14) 0.34318(7)
H10 H 1.5642 1.1498 0.3602
C15 C 1.7559(3) 1.01754(16) 0.36064(8)
H11 H 1.8722 1.0350 0.3902
C16 C 1.7721(3) 0.92254(15) 0.33522(8)
H12 H 1.8997 0.8784 0.3482
C17 C 1.6047(3) 0.89176(13) 0.29140(7)
H13 H 1.6168 0.8283 0.2743
H14 H 0.529(3) 1.0712(12) 0.1233(8)
O2 O 1.0544(3) 0.78512(10) 0.16686(6)
H15 H 0.979(5) 0.7341(17) 0.1821(11)
H16 H 0.944(4) 0.8134(16) 0.1443(9)
loop_
_geom_bond_atom_site_label_1
_geom_bond_atom_site_label_2
_geom_bond_site_symmetry_1
_geom_bond_site_symmetry_2
O1 C1 1_555 1_555
N1 H1 1_555 1_555
N2 C2 1_555 1_555
N3 N4 1_555 1_555
N4 C9 1_555 1_555
N5 H2 1_555 1_555
N6 C11 1_555 1_555
C1 N1 1_555 1_555
C2 N3 1_555 1_555
C3 N2 1_555 1_555
C4 N1 1_555 1_555
C5 C4 1_555 1_555
H3 C5 1_555 1_555
C6 C5 1_555 1_555
H4 C6 1_555 1_555
C7 C6 1_555 1_555
H5 C7 1_555 1_555
C8 C3 1_555 1_555
H6 C8 1_555 1_555
C9 C10 1_555 1_555
C10 H7 1_555 1_555
H8 C10 1_555 1_555
H9 C10 1_555 1_555
C11 N5 1_555 1_555
C12 N5 1_555 1_555
C13 N6 1_555 1_555
C14 C13 1_555 1_555
H10 C14 1_555 1_555
C15 C14 1_555 1_555
H11 C15 1_555 1_555
C16 C15 1_555 1_555
H12 C16 1_555 1_555
C17 C12 1_555 1_555
H13 C17 1_555 1_555
H14 N3 1_555 1_555
O2 H15 1_555 1_555
H16 O2 1_555 1_555
C1 C2 1_555 1_555
C3 C4 1_555 1_555
C7 C8 1_555 1_555
C9 C11 1_555 1_555
C12 C13 1_555 1_555
C16 C17 1_555 1_555

#END
