
#######################################################################
#
#                 Cambridge Crystallographic Data Centre
#                                CCDC 
#
#######################################################################
#
# If this CIF has been generated from an entry in the Cambridge 
# Structural Database, then it will include bibliographic, chemical, 
# crystal, experimental, refinement or atomic coordinate data resulting 
# from the CCDC's data processing and validation procedures.
#
#######################################################################

data_MIJXEK
_chemical_formula_moiety         'C21 H17 N1 O3'
_chemical_name_systematic        'Methyl 2-(benzoyl(phenyl)amino)benzoate'
_symmetry_cell_setting           monoclinic
_symmetry_space_group_name_H-M   'P 21/n'
_symmetry_Int_Tables_number      14
_space_group_name_Hall           '-P 2yn'
loop_
_symmetry_equiv_pos_site_id
_symmetry_equiv_pos_as_xyz
1 x,y,z
2 1/2-x,1/2+y,1/2-z
3 -x,-y,-z
4 1/2+x,1/2-y,1/2+z
_cell_length_a                   9.1945(5)
_cell_length_b                   10.4788(7)
_cell_length_c                   18.2543(9)
_cell_angle_alpha                90
_cell_angle_beta                 97.946(5)
_cell_angle_gamma                90
_cell_volume                     1741.87
_exptl_crystal_colour            colorless
_exptl_crystal_description       block
_cell_formula_units_Z            4
loop_
_atom_site_label
_atom_site_type_symbol
_atom_site_fract_x
_atom_site_fract_y
_atom_site_fract_z
O1 O 0.44540(12) 0.43355(12) 0.16160(6)
O2 O 0.40753(12) 0.72053(11) 0.13959(6)
O3 O 0.33490(12) 0.62931(12) 0.02989(6)
N1 N 0.31811(13) 0.53098(12) 0.24372(6)
C1 C 0.63416(19) 0.6111(2) 0.30060(10)
H1 H 0.5786 0.6841 0.2882
C2 C 0.7686(2) 0.6206(3) 0.34410(11)
H2 H 0.8043 0.7002 0.3604
C3 C 0.8496(2) 0.5137(4) 0.36343(12)
H3 H 0.9398 0.5205 0.3933
C4 C 0.7985(3) 0.3970(3) 0.33905(13)
H4 H 0.8538 0.3243 0.3527
C5 C 0.6652(2) 0.3858(2) 0.29418(10)
H5 H 0.6318 0.3062 0.2767
C6 C 0.58206(17) 0.49363(16) 0.27539(8)
C7 C 0.44442(17) 0.48166(14) 0.22238(8)
C8 C 0.30903(16) 0.56128(15) 0.32006(8)
C9 C 0.33218(18) 0.46811(17) 0.37353(9)
H6 H 0.3524 0.3847 0.3607
C10 C 0.3252(2) 0.4993(2) 0.44636(10)
H7 H 0.3410 0.4368 0.4828
C11 C 0.2952(2) 0.6222(2) 0.46527(10)
H8 H 0.2919 0.6432 0.5145
C12 C 0.2700(2) 0.7138(2) 0.41184(10)
H9 H 0.2486 0.7969 0.4248
C13 C 0.27605(18) 0.68386(17) 0.33887(9)
H10 H 0.2579 0.7462 0.3025
C14 C 0.18645(16) 0.54285(15) 0.19199(8)
C15 C 0.05616(18) 0.49662(18) 0.21160(10)
H11 H 0.0560 0.4579 0.2574
C16 C -0.07315(19) 0.5074(2) 0.16398(10)
H12 H -0.1604 0.4780 0.1783
C17 C -0.07366(18) 0.5613(2) 0.09566(10)
H13 H -0.1610 0.5677 0.0634
C18 C 0.05552(17) 0.60603(17) 0.07467(9)
H14 H 0.0549 0.6415 0.0279
C19 C 0.18656(16) 0.59872(15) 0.12266(8)
C20 C 0.32208(17) 0.65588(16) 0.10025(8)
C21 C 0.4648(2) 0.6789(2) 0.00389(10)
H15 H 0.4668 0.6520 -0.0462
H16 H 0.5505 0.6473 0.0346
H17 H 0.4638 0.7705 0.0060
loop_
_geom_bond_atom_site_label_1
_geom_bond_atom_site_label_2
_geom_bond_site_symmetry_1
_geom_bond_site_symmetry_2
O1 C7 1_555 1_555
O2 C20 1_555 1_555
O3 C20 1_555 1_555
N1 C7 1_555 1_555
C1 H1 1_555 1_555
C2 C1 1_555 1_555
H2 C2 1_555 1_555
C3 C2 1_555 1_555
H3 C3 1_555 1_555
C4 C3 1_555 1_555
H4 C4 1_555 1_555
C5 C4 1_555 1_555
H5 C5 1_555 1_555
C6 C1 1_555 1_555
C7 C6 1_555 1_555
C8 N1 1_555 1_555
C9 C8 1_555 1_555
H6 C9 1_555 1_555
C10 C9 1_555 1_555
H7 C10 1_555 1_555
C11 C10 1_555 1_555
H8 C11 1_555 1_555
C12 C11 1_555 1_555
H9 C12 1_555 1_555
C13 C8 1_555 1_555
H10 C13 1_555 1_555
C14 N1 1_555 1_555
C15 C14 1_555 1_555
H11 C15 1_555 1_555
C16 C15 1_555 1_555
H12 C16 1_555 1_555
C17 C16 1_555 1_555
H13 C17 1_555 1_555
C18 C17 1_555 1_555
H14 C18 1_555 1_555
C19 C14 1_555 1_555
C20 C19 1_555 1_555
C21 O3 1_555 1_555
H15 C21 1_555 1_555
H16 C21 1_555 1_555
H17 C21 1_555 1_555
C5 C6 1_555 1_555
C12 C13 1_555 1_555
C18 C19 1_555 1_555

#END
