
#######################################################################
#
#                 Cambridge Crystallographic Data Centre
#                                CCDC 
#
#######################################################################
#
# If this CIF has been generated from an entry in the Cambridge 
# Structural Database, then it will include bibliographic, chemical, 
# crystal, experimental, refinement or atomic coordinate data resulting 
# from the CCDC's data processing and validation procedures.
#
#######################################################################

data_MIKJIA
_chemical_formula_moiety         'C7 H5 N3 O1 S1'
_chemical_name_systematic        5-(2-Pyridyl)-1,3,4-oxadiazole-2-thione
_symmetry_cell_setting           orthorhombic
_symmetry_space_group_name_H-M   'P b c a'
_symmetry_Int_Tables_number      61
_space_group_name_Hall           '-P 2ac 2ab'
loop_
_symmetry_equiv_pos_site_id
_symmetry_equiv_pos_as_xyz
1 x,y,z
2 1/2-x,-y,1/2+z
3 -x,1/2+y,1/2-z
4 1/2+x,1/2-y,-z
5 -x,-y,-z
6 1/2+x,y,1/2-z
7 x,1/2-y,1/2+z
8 1/2-x,1/2+y,z
_cell_length_a                   10.01390(10)
_cell_length_b                   8.66840(10)
_cell_length_c                   17.6270(3)
_cell_angle_alpha                90
_cell_angle_beta                 90
_cell_angle_gamma                90
_cell_volume                     1530.1
_exptl_crystal_colour            'pale yellow'
_exptl_crystal_description       block
_chemical_melting_point          '209-210 deg.C'
_cell_formula_units_Z            8
_exptl_crystal_recrystallization_method alcohol
_exptl_crystal_preparation       luminescent
loop_
_atom_site_label
_atom_site_type_symbol
_atom_site_fract_x
_atom_site_fract_y
_atom_site_fract_z
O1 O 0.31557(8) 0.29703(10) 0.47776(5)
S1 S 0.30154(3) 0.10341(4) 0.359053(19)
N1 N 0.40423(10) 0.46514(12) 0.60181(6)
N2 N 0.10559(11) 0.31445(13) 0.51712(7)
N3 N 0.11597(10) 0.21782(13) 0.45535(7)
C1 C 0.44655(14) 0.55725(17) 0.65794(8)
C2 C 0.36088(15) 0.64217(16) 0.70305(8)
C3 C 0.22581(15) 0.63372(16) 0.69004(8)
C4 C 0.17884(14) 0.54176(16) 0.63141(8)
C5 C 0.27197(12) 0.46004(13) 0.58901(7)
C6 C 0.22625(12) 0.35832(14) 0.52821(7)
C7 C 0.24104(13) 0.20508(13) 0.43022(7)
H1 H 0.5430(18) 0.5537(19) 0.6660(10)
H2 H 0.0432(19) 0.164(2) 0.4391(11)
H3 H 0.393(2) 0.707(2) 0.7405(11)
H4 H 0.0847(16) 0.5288(17) 0.6202(10)
H5 H 0.1664(18) 0.689(2) 0.7200(11)
loop_
_geom_bond_atom_site_label_1
_geom_bond_atom_site_label_2
_geom_bond_site_symmetry_1
_geom_bond_site_symmetry_2
O1 C6 1_555 1_555
S1 C7 1_555 1_555
N1 C1 1_555 1_555
N2 N3 1_555 1_555
N3 C7 1_555 1_555
C1 C2 1_555 1_555
C2 C3 1_555 1_555
C3 C4 1_555 1_555
C4 C5 1_555 1_555
C5 N1 1_555 1_555
C6 N2 1_555 1_555
C7 O1 1_555 1_555
H1 C1 1_555 1_555
H2 N3 1_555 1_555
H3 C2 1_555 1_555
H4 C4 1_555 1_555
H5 C3 1_555 1_555
C5 C6 1_555 1_555

#END
