
#######################################################################
#
#                 Cambridge Crystallographic Data Centre
#                                CCDC 
#
#######################################################################
#
# If this CIF has been generated from an entry in the Cambridge 
# Structural Database, then it will include bibliographic, chemical, 
# crystal, experimental, refinement or atomic coordinate data resulting 
# from the CCDC's data processing and validation procedures.
#
#######################################################################

data_MIKPIH
_chemical_formula_moiety         'C34 H46 N4 O4'
_chemical_name_systematic        
2,2'-(1,3-Phenylenebis(methylene(methylimino)methylene))bis(4-t-butyl-6-((hydroxyimino)methyl)phenol)
_symmetry_cell_setting           monoclinic
_symmetry_space_group_name_H-M   'C 2/c'
_symmetry_Int_Tables_number      15
_space_group_name_Hall           '-C 2yn'
loop_
_symmetry_equiv_pos_site_id
_symmetry_equiv_pos_as_xyz
1 x,y,z
2 -x,y,1/2-z
3 1/2+x,1/2+y,z
4 1/2-x,1/2+y,1/2-z
5 -x,-y,-z
6 x,-y,1/2+z
7 1/2-x,1/2-y,-z
8 1/2+x,1/2-y,1/2+z
_cell_length_a                   25.7501(9)
_cell_length_b                   8.7686(3)
_cell_length_c                   14.9082(12)
_cell_angle_alpha                90
_cell_angle_beta                 113.157(17)
_cell_angle_gamma                90
_cell_volume                     3094.95
_exptl_crystal_colour            colorless
_exptl_crystal_description       Platelet
_cell_formula_units_Z            4
loop_
_atom_site_label
_atom_site_type_symbol
_atom_site_fract_x
_atom_site_fract_y
_atom_site_fract_z
O1 O 0.41984(9) -0.0181(2) 0.15141(15)
H1 H 0.4087 -0.0581 0.0974
C1 C 0.39112(13) -0.0768(4) 0.2029(2)
C2 C 0.34915(13) -0.1899(4) 0.1631(2)
C3 C 0.33504(15) -0.2498(4) 0.0659(2)
H2 H 0.3057 -0.3195 0.0404
N1 N 0.36238(12) -0.2082(3) 0.01418(19)
O2 O 0.34194(10) -0.2730(3) -0.07774(16)
H3 H 0.3607 -0.2432 -0.1077
C4 C 0.32127(13) -0.2467(4) 0.2202(2)
H4 H 0.2934 -0.3202 0.1936
C5 C 0.33374(13) -0.1973(3) 0.3148(2)
C6 C 0.30384(14) -0.2565(4) 0.3786(2)
C7 C 0.34818(14) -0.3185(4) 0.4744(2)
H5 H 0.3747 -0.2393 0.5068
H6 H 0.3678 -0.4025 0.4605
H7 H 0.3298 -0.3525 0.5157
C8 C 0.27161(15) -0.1248(4) 0.4012(3)
H8 H 0.2974 -0.0434 0.4321
H9 H 0.2544 -0.1601 0.4440
H10 H 0.2429 -0.0884 0.3415
C9 C 0.26225(15) -0.3840(4) 0.3300(2)
H11 H 0.2819 -0.4675 0.3157
H12 H 0.2336 -0.3470 0.2705
H13 H 0.2451 -0.4180 0.3731
C10 C 0.37552(13) -0.0858(4) 0.3508(2)
H14 H 0.3849 -0.0516 0.4143
C11 C 0.40400(13) -0.0226(4) 0.2976(2)
C12 C 0.44842(13) 0.0968(4) 0.3426(2)
H15 H 0.4745 0.0617 0.4061
H16 H 0.4696 0.1110 0.3020
N2 N 0.42395(12) 0.2447(3) 0.3540(2)
C13 C 0.5000 0.6510(6) 0.2500
H17 H 0.5131 0.7481 0.2729
C14 C 0.4689(5) 0.3296(15) 0.4437(6)
H18 H 0.4833 0.2610 0.4982
H19 H 0.4516 0.4157 0.4607
H20 H 0.4994 0.3640 0.4271
C15 C 0.4007(6) 0.3380(19) 0.2738(11)
H21 H 0.3763 0.4110 0.2870
H22 H 0.3771 0.2759 0.2191
C16 C 0.4415(3) 0.4251(7) 0.2433(4)
C17 C 0.4576(4) 0.5788(17) 0.2760(10)
H23 H 0.4412 0.6300 0.3128
C18 C 0.5199(5) 0.577(2) 0.1932(11)
H24 H 0.5462 0.6285 0.1757
C19 C 0.5060(3) 0.4360(8) 0.1582(5)
C20 C 0.4656(3) 0.3585(7) 0.1842(4)
H25 H 0.4550 0.2600 0.1611
O1A O 0.58016(9) -0.0181(2) 0.34859(15)
H1A H 0.5913 -0.0581 0.4026
C1A C 0.60888(13) -0.0768(4) 0.2971(2)
C2A C 0.65085(13) -0.1899(4) 0.3369(2)
C3A C 0.66496(15) -0.2498(4) 0.4341(2)
H2A H 0.6943 -0.3195 0.4596
N1A N 0.63762(12) -0.2082(3) 0.48582(19)
O2A O 0.65806(10) -0.2730(3) 0.57774(16)
H3A H 0.6393 -0.2432 0.6077
C4A C 0.67873(13) -0.2467(4) 0.2798(2)
H4A H 0.7066 -0.3202 0.3064
C5A C 0.66626(13) -0.1973(3) 0.1852(2)
C6A C 0.69616(14) -0.2565(4) 0.1214(2)
C7A C 0.65182(14) -0.3185(4) 0.0256(2)
H5A H 0.6253 -0.2393 -0.0068
H6A H 0.6322 -0.4025 0.0395
H7A H 0.6702 -0.3525 -0.0157
C8A C 0.72839(15) -0.1248(4) 0.0988(3)
H8A H 0.7026 -0.0434 0.0679
H9A H 0.7456 -0.1601 0.0560
H10A H 0.7571 -0.0884 0.1585
C9A C 0.73775(15) -0.3840(4) 0.1700(2)
H11A H 0.7181 -0.4675 0.1843
H12A H 0.7664 -0.3470 0.2295
H13A H 0.7549 -0.4180 0.1269
C10A C 0.62448(13) -0.0858(4) 0.1492(2)
H14A H 0.6151 -0.0516 0.0857
C11A C 0.59600(13) -0.0226(4) 0.2024(2)
C12A C 0.55158(13) 0.0968(4) 0.1574(2)
H15A H 0.5255 0.0617 0.0939
H16A H 0.5304 0.1110 0.1980
N2A N 0.57605(12) 0.2447(3) 0.1460(2)
H17A H 0.4869 0.7481 0.2271
C14A C 0.5311(5) 0.3296(15) 0.0563(6)
H18A H 0.5167 0.2610 0.0018
H19A H 0.5484 0.4157 0.0393
H20A H 0.5006 0.3640 0.0729
C15A C 0.5993(6) 0.3380(19) 0.2262(11)
H21A H 0.6237 0.4110 0.2130
H22A H 0.6229 0.2759 0.2809
C16A C 0.5585(3) 0.4251(7) 0.2567(4)
C17A C 0.5424(4) 0.5788(17) 0.2240(10)
H23A H 0.5588 0.6300 0.1872
C18A C 0.4801(5) 0.577(2) 0.3068(11)
H24A H 0.4538 0.6285 0.3243
C19A C 0.4940(3) 0.4360(8) 0.3418(5)
C20A C 0.5344(3) 0.3585(7) 0.3158(4)
H25A H 0.5450 0.2600 0.3389
C21? C 0.4647(5) 0.3585(14) 0.3973(6)
H26? H 0.4466 0.4374 0.4205
H27? H 0.4937 0.3135 0.4546
C22? C 0.3851(7) 0.302(2) 0.2467(11)
H28? H 0.3620 0.2188 0.2104
H29? H 0.4086 0.3365 0.2143
H30? H 0.3615 0.3837 0.2508
loop_
_geom_bond_atom_site_label_1
_geom_bond_atom_site_label_2
_geom_bond_site_symmetry_1
_geom_bond_site_symmetry_2
O1 H1 1_555 1_555
C1 O1 1_555 1_555
C2 C1 1_555 1_555
C3 C2 1_555 1_555
H2 C3 1_555 1_555
N1 C3 1_555 1_555
O2 N1 1_555 1_555
H3 O2 1_555 1_555
C4 C2 1_555 1_555
H4 C4 1_555 1_555
C5 C4 1_555 1_555
C6 C5 1_555 1_555
C7 C6 1_555 1_555
H5 C7 1_555 1_555
H6 C7 1_555 1_555
H7 C7 1_555 1_555
C8 C6 1_555 1_555
H8 C8 1_555 1_555
H9 C8 1_555 1_555
H10 C8 1_555 1_555
C9 C6 1_555 1_555
H11 C9 1_555 1_555
H12 C9 1_555 1_555
H13 C9 1_555 1_555
C10 C5 1_555 1_555
H14 C10 1_555 1_555
C11 C1 1_555 1_555
C12 C11 1_555 1_555
H15 C12 1_555 1_555
H16 C12 1_555 1_555
N2 C12 1_555 1_555
C13 H17 1_555 1_555
C14 N2 1_555 1_555
H18 C14 1_555 1_555
H19 C14 1_555 1_555
H20 C14 1_555 1_555
C15 N2 1_555 1_555
H21 C15 1_555 1_555
H22 C15 1_555 1_555
C16 C15 1_555 1_555
C17 C13 1_555 1_555
H23 C17 1_555 1_555
C18 C13 1_555 1_555
H24 C18 1_555 1_555
C19 C18 1_555 1_555
C20 C16 1_555 1_555
H25 C20 1_555 1_555
O1A H1A 1_555 1_555
C1A O1A 1_555 1_555
C2A C1A 1_555 1_555
C3A C2A 1_555 1_555
H2A C3A 1_555 1_555
N1A C3A 1_555 1_555
O2A N1A 1_555 1_555
H3A O2A 1_555 1_555
C4A C2A 1_555 1_555
H4A C4A 1_555 1_555
C5A C4A 1_555 1_555
C6A C5A 1_555 1_555
C7A C6A 1_555 1_555
H5A C7A 1_555 1_555
H6A C7A 1_555 1_555
H7A C7A 1_555 1_555
C8A C6A 1_555 1_555
H8A C8A 1_555 1_555
H9A C8A 1_555 1_555
H10A C8A 1_555 1_555
C9A C6A 1_555 1_555
H11A C9A 1_555 1_555
H12A C9A 1_555 1_555
H13A C9A 1_555 1_555
C10A C5A 1_555 1_555
H14A C10A 1_555 1_555
C11A C1A 1_555 1_555
C12A C11A 1_555 1_555
H15A C12A 1_555 1_555
H16A C12A 1_555 1_555
N2A C12A 1_555 1_555
H17A C13 1_555 1_555
C14A N2A 1_555 1_555
H18A C14A 1_555 1_555
H19A C14A 1_555 1_555
H20A C14A 1_555 1_555
C15A N2A 1_555 1_555
H21A C15A 1_555 1_555
H22A C15A 1_555 1_555
C16A C18 1_555 1_555
C17A C13 1_555 1_555
H23A C18 1_555 1_555
C18A C13 1_555 1_555
H24A C17 1_555 1_555
C19A C16 1_555 1_555
C20A C16A 1_555 1_555
H25A C20A 1_555 1_555
C10 C11 1_555 1_555
C16 C17 1_555 1_555
C16 C18A 1_555 1_555
C17 C18A 1_555 1_555
C17 C19A 1_555 1_555
H23 C18A 1_555 1_555
C18 C17A 1_555 1_555
H24 C17A 1_555 1_555
C19 C20 1_555 1_555
C19 C16A 1_555 1_555
C19 C17A 1_555 1_555
C10A C11A 1_555 1_555
C15A C16A 1_555 1_555
C16A C17A 1_555 1_555
C17A H23A 1_555 1_555
C18A H24A 1_555 1_555
C18A C19A 1_555 1_555
C19A C20A 1_555 1_555

#END
