
#######################################################################
#
#                 Cambridge Crystallographic Data Centre
#                                CCDC 
#
#######################################################################
#
# If this CIF has been generated from an entry in the Cambridge 
# Structural Database, then it will include bibliographic, chemical, 
# crystal, experimental, refinement or atomic coordinate data resulting 
# from the CCDC's data processing and validation procedures.
#
#######################################################################

data_MIKQIH
_chemical_formula_moiety         'C17 H14 N6 O1,3(H2 O1)'
_chemical_name_systematic        
'2-(1H-1,2,3-Benzotriazol-1-yl)-1-(4-methylphenyl)-2-(1H-1,2,4-triazol-1-yl)-1-ethanone trihydrate'
_chemical_properties_biological  
'inhibitory activity against wheat gibberellin, apple ringspot, tomato early blight, peanut cercospora arachidicola and stem wilt of asparagus'
_symmetry_cell_setting           monoclinic
_symmetry_space_group_name_H-M   'C 2/c'
_symmetry_Int_Tables_number      15
_space_group_name_Hall           '-C 2yn'
loop_
_symmetry_equiv_pos_site_id
_symmetry_equiv_pos_as_xyz
1 x,y,z
2 1/2+x,1/2+y,z
3 -x,y,1/2-z
4 1/2-x,1/2+y,1/2-z
5 -x,-y,-z
6 1/2-x,1/2-y,-z
7 x,-y,1/2+z
8 1/2+x,1/2-y,1/2+z
_cell_length_a                   24.722(3)
_cell_length_b                   8.4628(9)
_cell_length_c                   18.517(2)
_cell_angle_alpha                90.00
_cell_angle_beta                 106.755(2)
_cell_angle_gamma                90.00
_cell_volume                     3709.61
_cell_formula_units_Z            8
_exptl_crystal_recrystallization_method 'ethyl acetate/petroleum ether'
loop_
_atom_site_label
_atom_site_type_symbol
_atom_site_fract_x
_atom_site_fract_y
_atom_site_fract_z
N1 N 0.13086(8) 0.7851(2) 0.12988(11)
N2 N 0.13779(10) 0.8972(3) 0.18449(12)
N3 N 0.08955(11) 0.9613(3) 0.17930(15)
N4 N 0.20842(11) 0.3413(3) 0.23588(16)
N5 N 0.18148(8) 0.5423(2) 0.16124(12)
N6 N 0.13752(10) 0.4394(3) 0.14084(15)
C1 C 0.17386(18) 1.2556(4) -0.12978(19)
H1 H 0.1637 1.2294 -0.1824
H2 H 0.2099 1.3074 -0.1156
H3 H 0.1459 1.3248 -0.1204
C2 C 0.17713(12) 1.1078(3) -0.08440(15)
C3 C 0.16595(13) 0.9601(4) -0.11887(16)
H4 H 0.1566 0.9535 -0.1711
C4 C 0.16834(13) 0.8245(3) -0.07770(15)
H5 H 0.1615 0.7274 -0.1022
C5 C 0.18093(10) 0.8308(3) 0.00098(14)
C6 C 0.19260(11) 0.9780(3) 0.03573(14)
H6 H 0.2017 0.9851 0.0880
C7 C 0.19075(12) 1.1134(3) -0.00654(15)
H7 H 0.1988 1.2103 0.0178
C8 C 0.18151(10) 0.6812(3) 0.04275(14)
C9 C 0.17971(10) 0.6955(3) 0.12534(13)
H8 H 0.2134 0.7541 0.1534
C10 C 0.07553(10) 0.7791(3) 0.08766(14)
C11 C 0.04593(12) 0.6891(3) 0.02501(16)
H9 H 0.0635 0.6135 0.0031
C12 C -0.01091(13) 0.7212(4) -0.0015(2)
H10 H -0.0325 0.6659 -0.0433
C13 C -0.03752(14) 0.8331(5) 0.0318(2)
H11 H -0.0762 0.8486 0.0119
C14 C -0.00892(14) 0.9202(4) 0.0922(2)
H12 H -0.0270 0.9949 0.1139
C15 C 0.04944(12) 0.8920(3) 0.12034(16)
C16 C 0.22252(12) 0.4818(3) 0.21741(17)
H13 H 0.2566 0.5321 0.2405
C17 C 0.15613(14) 0.3221(4) 0.1876(2)
H14 H 0.1348 0.2316 0.1876
O4 O 0.18292(9) 0.5519(2) 0.01560(12)
O1 O 0.0378(6) 0.5907(18) -0.1887(4)
H15 H 0.0683 0.6539 -0.1906
H16 H 0.0271 0.6702 -0.1548
O2 O 0.0123(14) 1.430(2) -0.2147(17)
H17 H 0.0019 1.4754 -0.1852
H20 H 0.0320(8) 1.406(2) -0.2387(10)
O3 O 0.0000 1.2772(9) 0.2500
H18 H 0.0104 1.2121 0.2833
H18B H -0.0104 1.2121 0.2167
H19? H 0.0224 1.3616 0.2636
loop_
_geom_bond_atom_site_label_1
_geom_bond_atom_site_label_2
_geom_bond_site_symmetry_1
_geom_bond_site_symmetry_2
N1 N2 1_555 1_555
N2 N3 1_555 1_555
N3 C15 1_555 1_555
N4 C16 1_555 1_555
N5 N6 1_555 1_555
N6 C17 1_555 1_555
C1 H1 1_555 1_555
H2 C1 1_555 1_555
H3 C1 1_555 1_555
C2 C1 1_555 1_555
C3 C2 1_555 1_555
H4 C3 1_555 1_555
C4 C3 1_555 1_555
H5 C4 1_555 1_555
C5 C4 1_555 1_555
C6 C5 1_555 1_555
H6 C6 1_555 1_555
C7 C2 1_555 1_555
H7 C7 1_555 1_555
C8 C5 1_555 1_555
C9 N1 1_555 1_555
H8 C9 1_555 1_555
C10 N1 1_555 1_555
C11 C10 1_555 1_555
H9 C11 1_555 1_555
C12 C11 1_555 1_555
H10 C12 1_555 1_555
C13 C12 1_555 1_555
H11 C13 1_555 1_555
C14 C13 1_555 1_555
H12 C14 1_555 1_555
C15 C10 1_555 1_555
C16 N5 1_555 1_555
H13 C16 1_555 1_555
C17 N4 1_555 1_555
H14 C17 1_555 1_555
O1 H15 1_555 1_555
O2 H17 1_555 1_555
O3 H18 1_555 1_555
O4 C8 1_555 1_555
H16 O1 1_555 1_555
H20 O2 1_555 1_555
H18B O3 1_555 1_555
N5 C9 1_555 1_555
C6 C7 1_555 1_555
C8 C9 1_555 1_555
C14 C15 1_555 1_555

#END
