
#######################################################################
#
#                 Cambridge Crystallographic Data Centre
#                                CCDC 
#
#######################################################################
#
# If this CIF has been generated from an entry in the Cambridge 
# Structural Database, then it will include bibliographic, chemical, 
# crystal, experimental, refinement or atomic coordinate data resulting 
# from the CCDC's data processing and validation procedures.
#
#######################################################################

data_MIKRIK
_chemical_formula_moiety         'C23 H16 N4 O1'
_chemical_name_systematic        
N-{2-[3-(4-cyanophenyl)-1H-pyrazol-4-yl]phenyl}benzamide
_symmetry_cell_setting           monoclinic
_symmetry_space_group_name_H-M   'P 21/n'
_symmetry_Int_Tables_number      14
_space_group_name_Hall           '-P 2yn'
loop_
_symmetry_equiv_pos_site_id
_symmetry_equiv_pos_as_xyz
1 x,y,z
2 1/2-x,1/2+y,1/2-z
3 -x,-y,-z
4 1/2+x,1/2-y,1/2+z
_cell_length_a                   12.5286(9)
_cell_length_b                   9.9810(6)
_cell_length_c                   16.3134(14)
_cell_angle_alpha                90
_cell_angle_beta                 107.132(8)
_cell_angle_gamma                90
_cell_volume                     1949.44
_exptl_crystal_colour            pink
_exptl_crystal_description       Needle
_cell_formula_units_Z            4
loop_
_atom_site_label
_atom_site_type_symbol
_atom_site_fract_x
_atom_site_fract_y
_atom_site_fract_z
O1 O 0.21772(19) 0.3329(2) 0.40934(16)
N1 N 0.3797(2) 0.4133(3) 0.39668(15)
H1 H 0.4240 0.4809 0.4033
N2 N 0.4694(2) 0.5660(3) 0.14341(17)
N3 N 0.3752(2) 0.5994(3) 0.16365(17)
H2 H 0.3367 0.6702 0.1448
C1 C 0.4285(2) 0.4112(3) 0.23252(19)
C2 C 0.6031(2) 0.3852(3) 0.17655(19)
C3 C 0.2572(2) 0.5566(3) 0.45284(19)
C4 C 0.4103(2) 0.2906(3) 0.3635(2)
C5 C 0.5017(2) 0.4509(3) 0.18579(19)
C6 C 0.4322(2) 0.2898(3) 0.2843(2)
C7 C 0.2839(3) 0.4261(3) 0.41782(19)
C8 C 0.6188(3) 0.3770(3) 0.0963(2)
H3 H 0.5659 0.4141 0.0493
C9 C 0.7903(3) 0.2598(3) 0.1546(2)
C10 C 0.3482(3) 0.5106(3) 0.2160(2)
H4 H 0.2871 0.5151 0.2372
N4 N 0.9569(3) 0.1403(4) 0.1230(2)
C11 C 0.4595(3) 0.1667(3) 0.2542(2)
H5 H 0.4731 0.1633 0.2012
C12 C 0.7113(3) 0.3150(3) 0.0846(2)
H6 H 0.7207 0.3102 0.0303
C13 C 0.6842(3) 0.3315(4) 0.2466(2)
H7 H 0.6759 0.3384 0.3013
C14 C 0.4179(3) 0.1736(4) 0.4103(2)
H8 H 0.4034 0.1756 0.4630
C15 C 0.7770(3) 0.2679(4) 0.2353(2)
H9 H 0.8303 0.2307 0.2820
C16 C 0.4667(3) 0.0503(3) 0.3013(2)
H10 H 0.4849 -0.0303 0.2800
C17 C 0.4468(3) 0.0541(4) 0.3801(2)
H11 H 0.4528 -0.0235 0.4127
C18 C 0.8849(3) 0.1927(4) 0.1397(2)
C19 C 0.1673(3) 0.5571(4) 0.4851(2)
H12 H 0.1277 0.4781 0.4848
C20 C 0.1915(3) 0.7872(4) 0.5173(3)
H13 H 0.1696 0.8656 0.5385
C21 C 0.1347(3) 0.6725(4) 0.5178(3)
H14 H 0.0743 0.6712 0.5399
C22 C 0.3144(3) 0.6735(4) 0.4536(3)
H15 H 0.3757 0.6758 0.4325
C23 C 0.2798(4) 0.7886(4) 0.4862(3)
H16 H 0.3184 0.8683 0.4866
loop_
_geom_bond_atom_site_label_1
_geom_bond_atom_site_label_2
_geom_bond_site_symmetry_1
_geom_bond_site_symmetry_2
O1 C7 1_555 1_555
N1 H1 1_555 1_555
N2 N3 1_555 1_555
N3 H2 1_555 1_555
C1 C5 1_555 1_555
C2 C5 1_555 1_555
C3 C7 1_555 1_555
C4 N1 1_555 1_555
C5 N2 1_555 1_555
C6 C1 1_555 1_555
C7 N1 1_555 1_555
C8 C2 1_555 1_555
H3 C8 1_555 1_555
C9 C12 1_555 1_555
C10 N3 1_555 1_555
H4 C10 1_555 1_555
N4 C18 1_555 1_555
C11 C6 1_555 1_555
H5 C11 1_555 1_555
C12 C8 1_555 1_555
H6 C12 1_555 1_555
C13 C2 1_555 1_555
H7 C13 1_555 1_555
C14 C4 1_555 1_555
H8 C14 1_555 1_555
C15 C9 1_555 1_555
H9 C15 1_555 1_555
C16 C11 1_555 1_555
H10 C16 1_555 1_555
C17 C14 1_555 1_555
H11 C17 1_555 1_555
C18 C9 1_555 1_555
C19 C3 1_555 1_555
H12 C19 1_555 1_555
C20 H13 1_555 1_555
C21 C19 1_555 1_555
H14 C21 1_555 1_555
C22 C3 1_555 1_555
H15 C22 1_555 1_555
C23 C20 1_555 1_555
H16 C23 1_555 1_555
C1 C10 1_555 1_555
C4 C6 1_555 1_555
C13 C15 1_555 1_555
C16 C17 1_555 1_555
C20 C21 1_555 1_555
C22 C23 1_555 1_555

#END
