
#######################################################################
#
#                 Cambridge Crystallographic Data Centre
#                                CCDC 
#
#######################################################################
#
# If this CIF has been generated from an entry in the Cambridge 
# Structural Database, then it will include bibliographic, chemical, 
# crystal, experimental, refinement or atomic coordinate data resulting 
# from the CCDC's data processing and validation procedures.
#
#######################################################################

data_MIKWUZ
_chemical_formula_moiety         'C23 H31 N1 O5,C1 H4 O1'
_chemical_name_systematic        
'7-(1-Hydroxyethyl)-3,6-dimethoxy-17-methyl-18,19-dihydro-4,5-epoxy-6,14-ethenomorphinan-18-ol methanol solvate'
_symmetry_cell_setting           orthorhombic
_symmetry_space_group_name_H-M   'P 21 21 21'
_symmetry_Int_Tables_number      19
_space_group_name_Hall           'P 2ac 2ab'
loop_
_symmetry_equiv_pos_site_id
_symmetry_equiv_pos_as_xyz
1 x,y,z
2 1/2-x,-y,1/2+z
3 -x,1/2+y,1/2-z
4 1/2+x,1/2-y,-z
_cell_length_a                   8.8814(5)
_cell_length_b                   10.5712(6)
_cell_length_c                   24.3068(13)
_cell_angle_alpha                90
_cell_angle_beta                 90
_cell_angle_gamma                90
_cell_volume                     2282.09
_exptl_crystal_colour            colorless
_exptl_crystal_description       rod
_cell_formula_units_Z            4
loop_
_atom_site_label
_atom_site_type_symbol
_atom_site_fract_x
_atom_site_fract_y
_atom_site_fract_z
C1 C 0.3177(3) 0.5300(3) 0.74334(12)
H1 H 0.2817 0.5019 0.7096
C2 C 0.2178(4) 0.5779(3) 0.78229(12)
H2 H 0.1169 0.5873 0.7728
C3 C 0.2635(3) 0.6120(3) 0.83457(12)
O1 O 0.1517(3) 0.6463(3) 0.87135(10)
C4 C 0.1919(6) 0.7246(5) 0.91517(17)
H3 H 0.1050 0.7411 0.9375
H4 H 0.2309 0.8029 0.9012
H5 H 0.2676 0.6835 0.9370
C5 C 0.4159(3) 0.6030(3) 0.84620(11)
O2 O 0.4851(2) 0.61109(19) 0.89728(7)
C6 C 0.6416(3) 0.5709(3) 0.89015(10)
H6 H 0.7068 0.6377 0.9048
C7 C 0.6852(3) 0.4463(3) 0.91800(10)
O3 O 0.6727(3) 0.4531(2) 0.97682(7)
C8 C 0.5332(5) 0.4846(4) 1.00137(12)
H7 H 0.5437 0.4843 1.0407
H8 H 0.4585 0.4237 0.9907
H9 H 0.5027 0.5673 0.9894
C9 C 0.8549(3) 0.4267(3) 0.90464(10)
H10 H 0.9047 0.5073 0.9128
O4 O 0.9286(3) 0.3415(3) 0.99472(8)
H11 H 0.827(6) 0.383(4) 0.9957(17)
C10 C 0.9410(4) 0.3254(3) 0.93653(11)
H12 H 0.9005 0.2422 0.9266
C11 C 1.1070(4) 0.3274(4) 0.92388(14)
H13 H 1.1562 0.2604 0.9436
H14 H 1.1487 0.4072 0.9349
H15 H 1.1218 0.3158 0.8851
C12 C 0.8756(3) 0.4037(3) 0.84189(10)
H16 H 0.9536 0.4591 0.8278
H17 H 0.9067 0.3169 0.8356
C13 C 0.7409(3) 0.4322(3) 0.74826(10)
H18 H 0.7786 0.3494 0.7365
C14 C 0.5842(4) 0.4518(3) 0.72047(10)
H19 H 0.5989 0.4966 0.6861
H20 H 0.5423 0.3695 0.7118
C15 C 0.4708(3) 0.5241(3) 0.75471(10)
C16 C 0.5148(3) 0.5705(3) 0.80531(10)
C17 C 0.6703(3) 0.5606(3) 0.82801(9)
C18 C 0.7282(3) 0.4292(3) 0.81192(9)
C19 C 0.7747(3) 0.6669(3) 0.80685(11)
H21 H 0.7281 0.7483 0.8139
H22 H 0.8691 0.6642 0.8269
C20 C 0.8062(4) 0.6542(3) 0.74583(11)
H23 H 0.7157 0.6738 0.7252
H24 H 0.8837 0.7140 0.7351
N1 N 0.8551(3) 0.5266(3) 0.73300(9)
C21 C 0.9074(4) 0.5131(4) 0.67611(12)
H25 H 0.9808 0.5773 0.6683
H26 H 0.8236 0.5221 0.6515
H27 H 0.9520 0.4312 0.6713
C22 C 0.6183(4) 0.3266(3) 0.83222(10)
H28 H 0.6610 0.2437 0.8252
H29 H 0.5246 0.3329 0.8119
C23 C 0.5860(3) 0.3406(3) 0.89422(10)
H30 H 0.4799 0.3632 0.8993
O5 O 0.6139(3) 0.2226(2) 0.92016(9)
H31 H 0.561(5) 0.210(4) 0.9466(14)
O6 O 0.7292(8) -0.0167(5) 0.90154(18)
H32 H 0.7141 0.0590 0.9064
C24 C 0.6382(11) -0.0862(6) 0.9366(3)
H33 H 0.669(5) -0.1737(16) 0.937(2)
H34 H 0.5346(15) -0.083(6) 0.9249(18)
H35 H 0.644(7) -0.054(5) 0.9736(6)
loop_
_geom_bond_atom_site_label_1
_geom_bond_atom_site_label_2
_geom_bond_site_symmetry_1
_geom_bond_site_symmetry_2
C1 H1 1_555 1_555
C2 C1 1_555 1_555
H2 C2 1_555 1_555
C3 C2 1_555 1_555
O1 C3 1_555 1_555
C4 O1 1_555 1_555
H3 C4 1_555 1_555
H4 C4 1_555 1_555
H5 C4 1_555 1_555
C5 C3 1_555 1_555
O2 C5 1_555 1_555
C6 O2 1_555 1_555
H6 C6 1_555 1_555
C7 C6 1_555 1_555
O3 C7 1_555 1_555
C8 O3 1_555 1_555
H7 C8 1_555 1_555
H8 C8 1_555 1_555
H9 C8 1_555 1_555
C9 C7 1_555 1_555
H10 C9 1_555 1_555
O4 H11 1_555 1_555
C10 C9 1_555 1_555
H12 C10 1_555 1_555
C11 C10 1_555 1_555
H13 C11 1_555 1_555
H14 C11 1_555 1_555
H15 C11 1_555 1_555
C12 C9 1_555 1_555
H16 C12 1_555 1_555
H17 C12 1_555 1_555
C13 H18 1_555 1_555
C14 C13 1_555 1_555
H19 C14 1_555 1_555
H20 C14 1_555 1_555
C15 C1 1_555 1_555
C16 C5 1_555 1_555
C17 C6 1_555 1_555
C18 C12 1_555 1_555
C19 C17 1_555 1_555
H21 C19 1_555 1_555
H22 C19 1_555 1_555
C20 C19 1_555 1_555
H23 C20 1_555 1_555
H24 C20 1_555 1_555
N1 C13 1_555 1_555
C21 N1 1_555 1_555
H25 C21 1_555 1_555
H26 C21 1_555 1_555
H27 C21 1_555 1_555
C22 C18 1_555 1_555
H28 C22 1_555 1_555
H29 C22 1_555 1_555
C23 C7 1_555 1_555
H30 C23 1_555 1_555
O5 C23 1_555 1_555
H31 O5 1_555 1_555
O6 H32 1_555 1_555
C24 O6 1_555 1_555
H33 C24 1_555 1_555
H34 C24 1_555 1_555
H35 C24 1_555 1_555
O4 C10 1_555 1_555
C13 C18 1_555 1_555
C14 C15 1_555 1_555
C15 C16 1_555 1_555
C16 C17 1_555 1_555
C17 C18 1_555 1_555
C20 N1 1_555 1_555
C22 C23 1_555 1_555

#END
