
#######################################################################
#
#                 Cambridge Crystallographic Data Centre
#                                CCDC 
#
#######################################################################
#
# If this CIF has been generated from an entry in the Cambridge 
# Structural Database, then it will include bibliographic, chemical, 
# crystal, experimental, refinement or atomic coordinate data resulting 
# from the CCDC's data processing and validation procedures.
#
#######################################################################

data_MIKXIO
_chemical_formula_moiety         'C23 H31 N1 O5'
_chemical_name_systematic        
7-(1-Hydroxyethyl)-3,6-dimethoxy-17-methyl-18,19-dihydro-4,5-epoxy-6,14-ethenomorphinan-18-ol
_symmetry_cell_setting           orthorhombic
_symmetry_space_group_name_H-M   'P 21 21 21'
_symmetry_Int_Tables_number      19
_space_group_name_Hall           'P 2ac 2ab'
loop_
_symmetry_equiv_pos_site_id
_symmetry_equiv_pos_as_xyz
1 x,y,z
2 1/2-x,-y,1/2+z
3 -x,1/2+y,1/2-z
4 1/2+x,1/2-y,-z
_cell_length_a                   8.8962(4)
_cell_length_b                   10.3147(4)
_cell_length_c                   22.6039(10)
_cell_angle_alpha                90
_cell_angle_beta                 90
_cell_angle_gamma                90
_cell_volume                     2074.17
_exptl_crystal_colour            colorless
_exptl_crystal_description       rod
_cell_formula_units_Z            4
loop_
_atom_site_label
_atom_site_type_symbol
_atom_site_fract_x
_atom_site_fract_y
_atom_site_fract_z
C1 C 0.4129(3) -0.3410(2) 0.11487(11)
H1 H 0.4475 -0.4112 0.0930
C2 C 0.5138(3) -0.2671(2) 0.14682(11)
H2 H 0.6140 -0.2927 0.1480
C3 C 0.4707(2) -0.1555(2) 0.17741(10)
O1 O 0.58210(19) -0.08226(18) 0.20261(8)
C4 C 0.5453(4) -0.0107(3) 0.25389(14)
H3 H 0.6323 0.0360 0.2672
H4 H 0.5126 -0.0690 0.2844
H5 H 0.4661 0.0493 0.2449
C5 C 0.3188(2) -0.12407(19) 0.17577(9)
O2 O 0.25238(17) -0.00845(14) 0.19324(7)
C6 C 0.0928(2) -0.01328(18) 0.17488(9)
H6 H 0.0297 0.0022 0.2097
C7 C 0.0481(2) 0.08446(18) 0.12612(9)
O3 O 0.05619(18) 0.21535(13) 0.14640(8)
C8 C 0.2007(3) 0.2709(2) 0.15488(14)
H7 H 0.1900 0.3585 0.1686
H8 H 0.2546 0.2704 0.1181
H9 H 0.2552 0.2212 0.1837
C9 C -0.1228(2) 0.05606(18) 0.11658(9)
H10 H -0.1658 0.0478 0.1563
O4 O -0.1676(2) 0.17434(18) 0.02576(8)
H11 H -0.236(4) 0.218(3) 0.0079(15)
C10 C -0.2139(3) 0.1634(2) 0.08607(10)
H12 H -0.1929 0.2458 0.1061
C11 C -0.3815(3) 0.1374(3) 0.08943(14)
H13 H -0.4350 0.2064 0.0703
H14 H -0.4117 0.1323 0.1301
H15 H -0.4037 0.0569 0.0700
C12 C -0.1457(2) -0.07753(19) 0.08688(10)
H16 H -0.2236 -0.1254 0.1075
H17 H -0.1771 -0.0658 0.0461
C13 C -0.0116(3) -0.29911(19) 0.07230(9)
H18 H -0.0516 -0.3040 0.0320
C14 C 0.1448(3) -0.3683(2) 0.07241(11)
H19 H 0.1298 -0.4589 0.0823
H20 H 0.1860 -0.3648 0.0327
C15 C 0.2591(3) -0.31162(19) 0.11495(9)
C16 C 0.2173(2) -0.20784(19) 0.14976(9)
C17 C 0.0631(2) -0.15191(18) 0.15227(8)
C18 C 0.0012(2) -0.15310(18) 0.08884(8)
C19 C -0.0398(2) -0.2267(2) 0.19512(9)
H21 H 0.0080 -0.2317 0.2336
H22 H -0.1338 -0.1800 0.1997
C20 C -0.0724(3) -0.3629(2) 0.17299(10)
H23 H 0.0177 -0.4154 0.1762
H24 H -0.1497 -0.4022 0.1974
N1 N -0.1223(2) -0.36007(16) 0.11185(9)
C21 C -0.1663(3) -0.4893(2) 0.09229(15)
H25 H -0.2384 -0.5247 0.1194
H26 H -0.0793 -0.5443 0.0910
H27 H -0.2100 -0.4840 0.0536
C22 C 0.1098(3) -0.0805(2) 0.04751(9)
H28 H 0.0653 -0.0737 0.0085
H29 H 0.2025 -0.1294 0.0439
C23 C 0.1454(2) 0.05715(19) 0.07119(9)
H30 H 0.2505 0.0570 0.0841
O5 O 0.1313(2) 0.15393(16) 0.02658(8)
H31 H 0.044(4) 0.170(3) 0.0232(13)
loop_
_geom_bond_atom_site_label_1
_geom_bond_atom_site_label_2
_geom_bond_site_symmetry_1
_geom_bond_site_symmetry_2
C1 H1 1_555 1_555
C2 C1 1_555 1_555
H2 C2 1_555 1_555
C3 C2 1_555 1_555
O1 C3 1_555 1_555
C4 O1 1_555 1_555
H3 C4 1_555 1_555
H4 C4 1_555 1_555
H5 C4 1_555 1_555
C5 C3 1_555 1_555
O2 C5 1_555 1_555
C6 O2 1_555 1_555
H6 C6 1_555 1_555
C7 C6 1_555 1_555
O3 C7 1_555 1_555
C8 O3 1_555 1_555
H7 C8 1_555 1_555
H8 C8 1_555 1_555
H9 C8 1_555 1_555
C9 C7 1_555 1_555
H10 C9 1_555 1_555
O4 H11 1_555 1_555
C10 C9 1_555 1_555
H12 C10 1_555 1_555
C11 C10 1_555 1_555
H13 C11 1_555 1_555
H14 C11 1_555 1_555
H15 C11 1_555 1_555
C12 C9 1_555 1_555
H16 C12 1_555 1_555
H17 C12 1_555 1_555
C13 H18 1_555 1_555
C14 C13 1_555 1_555
H19 C14 1_555 1_555
H20 C14 1_555 1_555
C15 C1 1_555 1_555
C16 C5 1_555 1_555
C17 C6 1_555 1_555
C18 C12 1_555 1_555
C19 C17 1_555 1_555
H21 C19 1_555 1_555
H22 C19 1_555 1_555
C20 C19 1_555 1_555
H23 C20 1_555 1_555
H24 C20 1_555 1_555
N1 C13 1_555 1_555
C21 N1 1_555 1_555
H25 C21 1_555 1_555
H26 C21 1_555 1_555
H27 C21 1_555 1_555
C22 C18 1_555 1_555
H28 C22 1_555 1_555
H29 C22 1_555 1_555
C23 C7 1_555 1_555
H30 C23 1_555 1_555
O5 C23 1_555 1_555
H31 O5 1_555 1_555
O4 C10 1_555 1_555
C13 C18 1_555 1_555
C14 C15 1_555 1_555
C15 C16 1_555 1_555
C16 C17 1_555 1_555
C17 C18 1_555 1_555
C20 N1 1_555 1_555
C22 C23 1_555 1_555

#END
