
#######################################################################
#
#                 Cambridge Crystallographic Data Centre
#                                CCDC 
#
#######################################################################
#
# If this CIF has been generated from an entry in the Cambridge 
# Structural Database, then it will include bibliographic, chemical, 
# crystal, experimental, refinement or atomic coordinate data resulting 
# from the CCDC's data processing and validation procedures.
#
#######################################################################

data_MIKYUA
_chemical_formula_moiety         'C12 H26 N2 O6 P2'
_chemical_name_systematic        
N,N-bis(5,5-dimethyl-2-oxo-1,3,2-dioxaphosphinan-2-yl)ethane-1,2-diamine
_symmetry_cell_setting           monoclinic
_symmetry_space_group_name_H-M   'P 21/n'
_symmetry_Int_Tables_number      14
_space_group_name_Hall           '-P 2yn'
loop_
_symmetry_equiv_pos_site_id
_symmetry_equiv_pos_as_xyz
1 x,y,z
2 1/2-x,1/2+y,1/2-z
3 -x,-y,-z
4 1/2+x,1/2-y,1/2+z
_cell_length_a                   6.9657(10)
_cell_length_b                   14.571(3)
_cell_length_c                   8.6426(12)
_cell_angle_alpha                90
_cell_angle_beta                 91.191(11)
_cell_angle_gamma                90
_cell_volume                     877.01
_cell_formula_units_Z            2
loop_
_atom_site_label
_atom_site_type_symbol
_atom_site_fract_x
_atom_site_fract_y
_atom_site_fract_z
P1 P 0.1551(1) 0.6342(1) 0.0377(1)
O1 O 0.2539(2) 0.6813(1) -0.1047(1)
O2 O 0.2286(2) 0.6946(1) 0.1785(1)
O3 O -0.0539(2) 0.6279(1) 0.0219(2)
N1 N 0.2563(2) 0.5370(1) 0.0635(2)
C1 C 0.5168(4) 0.8218(2) 0.0357(3)
C2 C 0.2436(5) 0.9320(2) 0.0043(4)
C3 C 0.3004(3) 0.8310(1) 0.0216(2)
C4 C 0.2240(4) 0.7800(1) -0.1199(3)
C5 C 0.2040(4) 0.7932(2) 0.1650(3)
C6 C 0.4638(3) 0.5210(2) 0.0732(2)
C6B C 0.5362(3) 0.4790(2) -0.0732(2)
N1B N 0.7437(2) 0.4630(1) -0.0635(2)
P1B P 0.8449(1) 0.3658(1) -0.0377(1)
O1B O 0.7461(2) 0.3187(1) 0.1047(1)
C4B C 0.7760(4) 0.2200(1) 0.1199(3)
C3B C 0.6996(3) 0.1690(1) -0.0216(2)
C1B C 0.4832(4) 0.1782(2) -0.0357(3)
C2B C 0.7564(5) 0.0680(2) -0.0043(4)
C5B C 0.7960(4) 0.2068(2) -0.1650(3)
O2B O 0.7714(2) 0.3054(1) -0.1785(1)
O3B O 1.0539(2) 0.3721(1) -0.0219(2)
loop_
_geom_bond_atom_site_label_1
_geom_bond_atom_site_label_2
_geom_bond_site_symmetry_1
_geom_bond_site_symmetry_2
P1 O1 1_555 1_555
O1 C4 1_555 1_555
O2 P1 1_555 1_555
O3 P1 1_555 1_555
N1 P1 1_555 1_555
C1 C3 1_555 1_555
C2 C3 1_555 1_555
C3 C4 1_555 1_555
C5 O2 1_555 1_555
C6 N1 1_555 1_555
C6B C6 1_555 1_555
N1B C6B 1_555 1_555
P1B N1B 1_555 1_555
O1B P1B 1_555 1_555
C4B O1B 1_555 1_555
C3B C4B 1_555 1_555
C1B C3B 1_555 1_555
C2B C3B 1_555 1_555
C5B C3B 1_555 1_555
O2B P1B 1_555 1_555
O3B P1B 1_555 1_555
C3 C5 1_555 1_555
C5B O2B 1_555 1_555

#END
