
#######################################################################
#
#                 Cambridge Crystallographic Data Centre
#                                CCDC 
#
#######################################################################
#
# If this CIF has been generated from an entry in the Cambridge 
# Structural Database, then it will include bibliographic, chemical, 
# crystal, experimental, refinement or atomic coordinate data resulting 
# from the CCDC's data processing and validation procedures.
#
#######################################################################

data_MIKZAH
_chemical_formula_moiety         'C21 H26 O6'
_chemical_name_systematic        
(4R,5R)-(5-hydroxymethyl-2,2-dimethyl-[1,3]dioxolan-4-yl)-bis(4-methoxyphenyl)methanol
_symmetry_cell_setting           monoclinic
_symmetry_space_group_name_H-M   'P 21'
_symmetry_Int_Tables_number      4
_space_group_name_Hall           'P 2yb'
loop_
_symmetry_equiv_pos_site_id
_symmetry_equiv_pos_as_xyz
1 x,y,z
2 -x,1/2+y,-z
_cell_length_a                   9.347(1)
_cell_length_b                   10.11(1)
_cell_length_c                   11.465(2)
_cell_angle_alpha                90
_cell_angle_beta                 114.057(2)
_cell_angle_gamma                90
_cell_volume                     989.316
_exptl_crystal_colour            colorless
_chemical_melting_point          151-152deg.C
_cell_formula_units_Z            2
_exptl_crystal_recrystallization_method 'diethyl ether'
loop_
_atom_site_label
_atom_site_type_symbol
_atom_site_fract_x
_atom_site_fract_y
_atom_site_fract_z
O1 O 0.2384(2) 0.2837(2) 0.7841(2)
O2 O 0.6185(2) 0.5219(3) 0.8731(2)
O3 O 0.3879(2) 0.4678(2) 0.7080(2)
O4 O 0.7082(2) 0.3504(3) 1.0855(2)
O5 O -0.3304(2) 0.6145(2) 0.3841(2)
O6 O 0.092(3) 0.4278(3) 1.2536(2)
C1 C 0.2097(3) 0.4189(3) 0.8029(2)
C2 C 0.3524(3) 0.5024(3) 0.8141(2)
C3 C 0.5110(3) 0.4844(3) 0.9279(3)
C4 C 0.5438(4) 0.5115(4) 0.7364(3)
C5 C 0.5406(5) 0.6464(5) 0.6807(4)
C6 C 0.6234(5) 0.4087(5) 0.6886(5)
C7 C 0.5531(3) 0.3488(3) 0.9887(3)
C8 C 0.0655(3) 0.4696(3) 0.6878(2)
C9 C -0.0246(3) 0.3848(3) 0.5915(2)
C10 C -0.1567(3) 0.4291(3) 0.4869(2)
C11 C -0.2014(3) 0.5590(3) 0.4805(2)
C12 C -0.1135(3) 0.6460(3) 0.5760(2)
C13 C 0.0182(3) 0.6018(3) 0.6776(2)
C14 C 0.1807(3) 0.4253(3) 0.9250(2)
C15 C 0.1424(3) 0.3116(3) 0.9736(3)
C16 C 0.1122(3) 0.3162(3) 1.0829(3)
C17 C 0.1188(3) 0.4354(3) 1.1446(2)
C18 C 0.1553(3) 0.5488(3) 1.0969(2)
C19 C 0.1864(3) 0.5435(3) 0.9789(2)
C20 C 0.1061(6) 0.5449(4) 1.3257(4)
C21 C -0.4281(4) 0.5259(5) 0.2880(3)
loop_
_geom_bond_atom_site_label_1
_geom_bond_atom_site_label_2
_geom_bond_site_symmetry_1
_geom_bond_site_symmetry_2
O1 C1 1_555 1_555
O2 C3 1_555 1_555
O3 C2 1_555 1_555
O4 C7 1_555 1_555
O5 C11 1_555 1_555
O6 C17 1_555 1_555
C1 C2 1_555 1_555
C2 C3 1_555 1_555
C3 C7 1_555 1_555
C4 O2 1_555 1_555
C5 C4 1_555 1_555
C6 C4 1_555 1_555
C8 C1 1_555 1_555
C9 C8 1_555 1_555
C10 C9 1_555 1_555
C11 C10 1_555 1_555
C12 C11 1_555 1_555
C13 C8 1_555 1_555
C14 C1 1_555 1_555
C15 C14 1_555 1_555
C16 C15 1_555 1_555
C17 C16 1_555 1_555
C18 C17 1_555 1_555
C19 C14 1_555 1_555
C20 O6 1_555 1_555
C21 O5 1_555 1_555
O3 C4 1_555 1_555
C12 C13 1_555 1_555
C18 C19 1_555 1_555

#END
