
#######################################################################
#
#                 Cambridge Crystallographic Data Centre
#                                CCDC 
#
#######################################################################
#
# If this CIF has been generated from an entry in the Cambridge 
# Structural Database, then it will include bibliographic, chemical, 
# crystal, experimental, refinement or atomic coordinate data resulting 
# from the CCDC's data processing and validation procedures.
#
#######################################################################

data_MILCAL
_chemical_formula_moiety         'C19 H15 Cl1 N4 O3,0.5(C2 H6 O1)'
_chemical_name_systematic        
"N-(1-(4-Chlorophenyl)-1,4-dihydro-4-oxo-6-methylpyridazine-3-carbonyl)-N'-benzoylhydrazine ethanol solvate"
_symmetry_cell_setting           monoclinic
_symmetry_space_group_name_H-M   'P 21/c'
_symmetry_Int_Tables_number      14
_space_group_name_Hall           '-P 2ybc'
loop_
_symmetry_equiv_pos_site_id
_symmetry_equiv_pos_as_xyz
1 x,y,z
2 -x,1/2+y,1/2-z
3 -x,-y,-z
4 x,1/2-y,1/2+z
_cell_length_a                   13.296(3)
_cell_length_b                   17.155(3)
_cell_length_c                   17.459(3)
_cell_angle_alpha                90
_cell_angle_beta                 98.959(4)
_cell_angle_gamma                90
_cell_volume                     3933.69
_chemical_melting_point          239-240deg.C
_cell_formula_units_Z            8
loop_
_atom_site_label
_atom_site_type_symbol
_atom_site_fract_x
_atom_site_fract_y
_atom_site_fract_z
Cl1 Cl 0.6126(1) -0.0357(6) 0.10303(8)
O1 O 0.3625(2) 0.5060(1) 0.0379(2)
O2 O 0.6350(2) 0.4298(1) 0.1692(2)
O3 O 0.5006(2) 0.6802(1) 0.1185(2)
N1 N 0.4388(2) 0.2796(1) 0.0520(2)
N2 N 0.5042(2) 0.3320(2) 0.0876(2)
N3 N 0.5375(2) 0.5309(2) 0.1244(2)
N4 N 0.6029(2) 0.5833(2) 0.1657(2)
C1 C 0.5580(4) 0.0557(2) 0.0861(3)
C2 C 0.6018(3) 0.1081(2) 0.0412(3)
C3 C 0.5598(3) 0.1819(2) 0.0287(2)
C4 C 0.4763(3) 0.2008(2) 0.0610(2)
C5 C 0.4328(3) 0.1483(2) 0.1050(2)
C6 C 0.4738(4) 0.0751(2) 0.1174(2)
C7 C 0.2812(3) 0.2354(2) -0.0285(2)
C8 C 0.3469(2) 0.2996(2) 0.0104(2)
C9 C 0.3200(3) 0.3754(2) 0.0056(2)
C10 C 0.3841(2) 0.4348(2) 0.0409(2)
C11 C 0.4797(2) 0.4054(2) 0.0832(2)
C12 C 0.5583(3) 0.4559(2) 0.1286(2)
C13 C 0.5778(3) 0.6596(2) 0.1602(2)
C14 C 0.6474(3) 0.7135(2) 0.2090(2)
C15 C 0.7433(3) 0.6927(2) 0.2440(2)
C16 C 0.8021(4) 0.7442(3) 0.2924(3)
C17 C 0.7628(5) 0.8168(3) 0.3061(3)
C18 C 0.6670(5) 0.8392(3) 0.2696(3)
C19 C 0.6091(4) 0.7872(2) 0.2212(2)
Cl2 Cl 0.9066(1) 0.9907(6) 0.0940(9)
O4 O 1.0710(2) 0.4294(1) 0.0816(1)
O5 O 0.8272(2) 0.5248(1) 0.1740(2)
O6 O 0.9466(2) 0.2729(1) 0.1446(1)
N5 N 1.0291(2) 0.6608(2) 0.0882(2)
N6 N 0.9596(2) 0.6141(2) 0.1123(2)
N7 N 0.8989(2) 0.4176(2) 0.1337(2)
N8 N 0.8349(2) 0.3658(2) 0.1609(2)
C20 C 0.9432(3) 0.8942(2) 0.0917(3)
C21 C 0.9615(3) 0.8626(2) 0.0235(3)
C22 C 0.9906(3) 0.7857(2) 0.0218(2)
C23 C 1.0013(2) 0.74220(2) 0.0888(2)
C24 C 0.9816(3) 0.7742(2) 0.1571(2)
C25 C 0.9529(3) 0.8511(2) 0.1578(2)
C26 C 1.1965(3) 0.6915(2) 0.0512(2)
C27 C 1.1186(2) 0.6338(2) 0.0676(2)
C28 C 1.1335(3) 0.5561(2) 0.0666(2)
C29 C 1.0616(3) 0.5018(2) 0.0860(2)
C30 C 0.9742(2) 0.5387(2) 0.1125(2)
C31 C 0.8928(3) 0.4942(2) 0.1431(2)
C32 C 0.8650(3) 0.2907(2) 0.1644(2)
C33 C 0.7994(3) 0.2322(2) 0.1944(2)
C34 C 0.8369(3) 0.1566(2) 0.2034(2)
C35 C 0.7823(3) 0.1003(2) 0.2346(2)
C36 C 0.6917(3) 0.1182(2) 0.2579(2)
C37 C 0.6542(3) 0.1924(2) 0.2479(2)
C38 C 0.7073(3) 0.2493(2) 0.2156(2)
C39 C 0.7896(6) 0.4946(5) 0.3748(5)
C40 C 0.7748(6) 0.4125(6) 0.3721(5)
O7 O 0.7354(8) 0.5179(5) 0.3134(5)
O8? O 0.6765(11) 0.4051(6) 0.3474(6)
loop_
_geom_bond_atom_site_label_1
_geom_bond_atom_site_label_2
_geom_bond_site_symmetry_1
_geom_bond_site_symmetry_2
Cl1 C1 1_555 1_555
Cl2 C20 1_555 1_555
O1 C10 1_555 1_555
O2 C12 1_555 1_555
O3 C13 1_555 1_555
O4 C29 1_555 1_555
O5 C31 1_555 1_555
O6 C32 1_555 1_555
N1 N2 1_555 1_555
N2 C11 1_555 1_555
N3 N4 1_555 1_555
N4 C13 1_555 1_555
N5 N6 1_555 1_555
N6 C30 1_555 1_555
N7 N8 1_555 1_555
N8 C32 1_555 1_555
C1 C2 1_555 1_555
C2 C3 1_555 1_555
C3 C4 1_555 1_555
C4 N1 1_555 1_555
C5 C4 1_555 1_555
C6 C1 1_555 1_555
C7 C8 1_555 1_555
C8 N1 1_555 1_555
C9 C8 1_555 1_555
C10 C9 1_555 1_555
C11 C10 1_555 1_555
C12 N3 1_555 1_555
C13 C14 1_555 1_555
C14 C15 1_555 1_555
C15 C16 1_555 1_555
C16 C17 1_555 1_555
C17 C18 1_555 1_555
C18 C19 1_555 1_555
C19 C14 1_555 1_555
C20 C21 1_555 1_555
C21 C22 1_555 1_555
C22 C23 1_555 1_555
C23 N5 1_555 1_555
C24 C23 1_555 1_555
C25 C20 1_555 1_555
C26 C27 1_555 1_555
C27 N5 1_555 1_555
C28 C27 1_555 1_555
C29 C28 1_555 1_555
C30 C29 1_555 1_555
C31 N7 1_555 1_555
C32 C33 1_555 1_555
C33 C34 1_555 1_555
C34 C35 1_555 1_555
C35 C36 1_555 1_555
C36 C37 1_555 1_555
C37 C38 1_555 1_555
C38 C33 1_555 1_555
C39 C40 1_555 1_555
O7 C39 1_555 1_555
C5 C6 1_555 1_555
C11 C12 1_555 1_555
C24 C25 1_555 1_555
C30 C31 1_555 1_555

#END
