
#######################################################################
#
#                 Cambridge Crystallographic Data Centre
#                                CCDC 
#
#######################################################################
#
# If this CIF has been generated from an entry in the Cambridge 
# Structural Database, then it will include bibliographic, chemical, 
# crystal, experimental, refinement or atomic coordinate data resulting 
# from the CCDC's data processing and validation procedures.
#
#######################################################################

data_MILTUY
_chemical_formula_moiety         'C20 H23 N3 O2 S2'
_chemical_name_systematic        
1-(4-Nitrophenyl)-3-(2,2,4,4-tetramethyl-3,4-dihydro-2H-thiochromen-6-yl)thiourea
_symmetry_cell_setting           monoclinic
_symmetry_space_group_name_H-M   'P 21/c'
_symmetry_Int_Tables_number      14
_space_group_name_Hall           '-P 2ybc'
loop_
_symmetry_equiv_pos_site_id
_symmetry_equiv_pos_as_xyz
1 x,y,z
2 -x,1/2+y,1/2-z
3 -x,-y,-z
4 x,1/2-y,1/2+z
_cell_length_a                   17.4651(18)
_cell_length_b                   7.1952(8)
_cell_length_c                   16.2792(17)
_cell_angle_alpha                90
_cell_angle_beta                 94.450(7)
_cell_angle_gamma                90
_cell_volume                     2039.56
_exptl_crystal_colour            yellow
_exptl_crystal_description       block
_chemical_melting_point          '429 K'
_cell_formula_units_Z            4
loop_
_atom_site_label
_atom_site_type_symbol
_atom_site_fract_x
_atom_site_fract_y
_atom_site_fract_z
C1 C 0.4167(2) 0.2173(8) 0.1139(3)
C2 C 0.4103(3) 0.2830(11) 0.1988(3)
H1 H 0.4202 0.4156 0.1982
H2 H 0.4527 0.2273 0.2320
C3 C 0.34048(18) 0.2572(6) 0.2460(2)
C4 C 0.19864(16) 0.1896(4) 0.23143(18)
H3 H 0.2018 0.1766 0.2884
C5 C 0.12800(16) 0.1709(4) 0.18785(17)
C6 C 0.12319(17) 0.1815(4) 0.10228(18)
H4 H 0.0761 0.1671 0.0722
C7 C 0.18800(19) 0.2133(4) 0.06292(18)
H5 H 0.1847 0.2179 0.0057
C8 C 0.03251(15) 0.2032(4) 0.29390(17)
C9 C -0.08353(16) 0.1760(4) 0.37422(17)
C10 C -0.05112(19) 0.1785(5) 0.45542(19)
H6 H 0.0017 0.1666 0.4661
C11 C -0.0971(2) 0.1986(5) 0.5194(2)
H7 H -0.0757 0.2001 0.5735
C12 C -0.1747(2) 0.2165(4) 0.5030(2)
C13 C -0.2082(2) 0.2150(5) 0.4234(2)
H8 H -0.2610 0.2282 0.4133
C14 C -0.16232(17) 0.1937(4) 0.3593(2)
H9 H -0.1843 0.1912 0.3054
C15 C 0.4893(3) 0.2852(10) 0.0811(4)
H10 H 0.4916 0.4183 0.0851
H11 H 0.4903 0.2489 0.0244
H12 H 0.5326 0.2321 0.1126
C16 C 0.4178(4) -0.0028(10) 0.1105(5)
H13 H 0.4636 -0.0480 0.1403
H14 H 0.4167 -0.0429 0.0542
H15 H 0.3736 -0.0509 0.1351
C17 C 0.3312(3) 0.4223(12) 0.3003(4)
H16 H 0.3731 0.4269 0.3421
H17 H 0.2836 0.4123 0.3259
H18 H 0.3308 0.5337 0.2678
C18 C 0.3531(3) 0.0977(13) 0.3068(4)
H19 H 0.3520 -0.0180 0.2773
H20 H 0.3131 0.0982 0.3441
H21 H 0.4020 0.1121 0.3373
C19 C 0.26489(16) 0.2270(4) 0.19294(18)
C20 C 0.25915(17) 0.2390(4) 0.10655(18)
N1 N 0.05887(13) 0.1321(3) 0.22522(15)
H22 H 0.0295 0.0510 0.2001
N2 N -0.03952(13) 0.1445(3) 0.30655(15)
H23 H -0.0615 0.0784 0.2675
N3 N -0.2235(3) 0.2360(5) 0.5723(2)
O1 O -0.2923(2) 0.2610(6) 0.5563(3)
O2 O -0.1927(2) 0.2249(6) 0.6421(2)
S1 S 0.33645(6) 0.2914(2) 0.04806(6)
S2 S 0.08095(4) 0.36005(10) 0.35524(4)
loop_
_geom_bond_atom_site_label_1
_geom_bond_atom_site_label_2
_geom_bond_site_symmetry_1
_geom_bond_site_symmetry_2
C1 C2 1_555 1_555
C2 H1 1_555 1_555
H2 C2 1_555 1_555
C3 C2 1_555 1_555
C4 H3 1_555 1_555
C5 C4 1_555 1_555
C6 C5 1_555 1_555
H4 C6 1_555 1_555
C7 C6 1_555 1_555
H5 C7 1_555 1_555
C8 N1 1_555 1_555
C9 C10 1_555 1_555
C10 H6 1_555 1_555
C11 C10 1_555 1_555
H7 C11 1_555 1_555
C12 C11 1_555 1_555
C13 C12 1_555 1_555
H8 C13 1_555 1_555
C14 C9 1_555 1_555
H9 C14 1_555 1_555
C15 C1 1_555 1_555
H10 C15 1_555 1_555
H11 C15 1_555 1_555
H12 C15 1_555 1_555
C16 C1 1_555 1_555
H13 C16 1_555 1_555
H14 C16 1_555 1_555
H15 C16 1_555 1_555
C17 C3 1_555 1_555
H16 C17 1_555 1_555
H17 C17 1_555 1_555
H18 C17 1_555 1_555
C18 C3 1_555 1_555
H19 C18 1_555 1_555
H20 C18 1_555 1_555
H21 C18 1_555 1_555
C19 C3 1_555 1_555
C20 C7 1_555 1_555
N1 C5 1_555 1_555
H22 N1 1_555 1_555
N2 C8 1_555 1_555
H23 N2 1_555 1_555
N3 C12 1_555 1_555
O1 N3 1_555 1_555
O2 N3 1_555 1_555
S1 C1 1_555 1_555
S2 C8 1_555 1_555
C4 C19 1_555 1_555
C9 N2 1_555 1_555
C13 C14 1_555 1_555
C19 C20 1_555 1_555
C20 S1 1_555 1_555

#END
