
#######################################################################
#
#                 Cambridge Crystallographic Data Centre
#                                CCDC 
#
#######################################################################
#
# If this CIF has been generated from an entry in the Cambridge 
# Structural Database, then it will include bibliographic, chemical, 
# crystal, experimental, refinement or atomic coordinate data resulting 
# from the CCDC's data processing and validation procedures.
#
#######################################################################

data_MILVEJ
_chemical_formula_moiety         'C38 H42 S6,C1 H2 Cl2'
_chemical_name_systematic        
'4b,8b,12b,12d-Tetramethyl-4b,8b,12b,12d-tetrahydro-2,11:3,6:7,10-tris(methanothioethanothiomethano)dibenzo(2,3:4,5)pentaleno(1,6-ab)indene dichloromethane clathrate'
_symmetry_cell_setting           orthorhombic
_symmetry_space_group_name_H-M   'P m n 21'
_symmetry_Int_Tables_number      31
_space_group_name_Hall           'P 2ac -2'
loop_
_symmetry_equiv_pos_site_id
_symmetry_equiv_pos_as_xyz
1 x,y,z
2 1/2-x,-y,1/2+z
3 1/2+x,-y,1/2+z
4 -x,y,z
_cell_length_a                   15.0310(6)
_cell_length_b                   12.7781(5)
_cell_length_c                   9.6823(4)
_cell_angle_alpha                90
_cell_angle_beta                 90
_cell_angle_gamma                90
_cell_volume                     1859.66
_exptl_crystal_colour            colorless
_chemical_melting_point          'above 360 deg.C'
_cell_formula_units_Z            2
loop_
_atom_site_label
_atom_site_type_symbol
_atom_site_fract_x
_atom_site_fract_y
_atom_site_fract_z
C1 C 0.1768(3) 0.9676(3) 0.2936(5)
C2 C 0.2226(3) 0.8717(4) 0.2962(6)
C3 C 0.2004(3) 0.7945(3) 0.2018(5)
H1 H 0.2345 0.7339 0.1971
C4 C 0.1283(3) 0.8062(3) 0.1144(5)
C5 C 0.0823(3) 0.8999(3) 0.1129(5)
C6 C 0.1088(3) 0.9808(3) 0.1989(5)
H2 H 0.0803 1.0452 0.1928
C7 C 0.0000 0.8955(4) 0.0211(6)
C8 C 0.0000 0.7790(5) -0.0390(7)
C9 C 0.0850(3) 0.7214(3) 0.0272(5)
C10 C 0.1515(3) 0.6723(4) -0.0747(6)
H3 H 0.1744 0.7256 -0.1349
H4 H 0.1219 0.6197 -0.1286
H5 H 0.1996 0.6410 -0.0243
C11 C 0.0000 0.7768(5) -0.1944(7)
C12 C 0.0000 0.9829(5) -0.0852(7)
C13 C 0.0458(3) 0.6396(3) 0.1233(5)
C14 C 0.0913(3) 0.5721(3) 0.2091(6)
H12 H 0.1328 0.6142 0.2621
C15 C 0.0468(4) 0.5073(3) 0.3030(6)
C16 C 0.1018(5) 0.4377(4) 0.3932(7)
H14 H 0.1561 0.4209 0.3438
H15 H 0.0696 0.3727 0.4065
C17 C 0.2069(4) 0.5963(4) 0.5280(8)
H16 H 0.2526 0.5976 0.5987
H17 H 0.2361 0.5843 0.4400
C18 C 0.1626(4) 0.7010(4) 0.5237(7)
H18 H 0.1124 0.7004 0.5866
H19 H 0.1397 0.7128 0.4314
C19 C 0.2889(3) 0.8454(4) 0.4072(7)
H20 H 0.3273 0.9053 0.4224
H21 H 0.3258 0.7877 0.3761
C20 C 0.2003(4) 1.0541(4) 0.3956(7)
H22 H 0.2503 1.0929 0.3583
H23 H 0.2201 1.0215 0.4806
S1 S 0.13249(11) 0.48806(12) 0.56246(19)
S2 S 0.23608(14) 0.80956(12) 0.56994(19)
S3 S 0.11401(17) 1.14584(13) 0.4377(2)
C22 C 0.0632(11) 1.0921(14) 0.5627(15)
C1C C -0.1768(3) 0.9676(3) 0.2936(5)
C2C C -0.2226(3) 0.8717(4) 0.2962(6)
C3C C -0.2004(3) 0.7945(3) 0.2018(5)
H1C H -0.2345 0.7339 0.1971
C4C C -0.1283(3) 0.8062(3) 0.1144(5)
C5C C -0.0823(3) 0.8999(3) 0.1129(5)
C6C C -0.1088(3) 0.9808(3) 0.1989(5)
H2C H -0.0803 1.0452 0.1928
C9C C -0.0850(3) 0.7214(3) 0.0272(5)
C10C C -0.1515(3) 0.6723(4) -0.0747(6)
H3C H -0.1744 0.7256 -0.1349
H4C H -0.1219 0.6197 -0.1286
H5C H -0.1996 0.6410 -0.0243
C13C C -0.0458(3) 0.6396(3) 0.1233(5)
C14C C -0.0913(3) 0.5721(3) 0.2091(6)
H12C H -0.1328 0.6142 0.2621
C15C C -0.0468(4) 0.5073(3) 0.3030(6)
C16C C -0.1018(5) 0.4377(4) 0.3932(7)
H14C H -0.1561 0.4209 0.3438
H15C H -0.0696 0.3727 0.4065
C17C C -0.2069(4) 0.5963(4) 0.5280(8)
H16C H -0.2526 0.5976 0.5987
H17C H -0.2361 0.5843 0.4400
C18C C -0.1626(4) 0.7010(4) 0.5237(7)
H18C H -0.1124 0.7004 0.5866
H19C H -0.1397 0.7128 0.4314
C19C C -0.2889(3) 0.8454(4) 0.4072(7)
H20C H -0.3273 0.9053 0.4224
H21C H -0.3258 0.7877 0.3761
C20C C -0.2003(4) 1.0541(4) 0.3956(7)
H22C H -0.2503 1.0929 0.3583
H23C H -0.2201 1.0215 0.4806
S1C S -0.13249(11) 0.48806(12) 0.56246(19)
S2C S -0.23608(14) 0.80956(12) 0.56994(19)
S3C S -0.11401(17) 1.14584(13) 0.4377(2)
C22C C -0.0632(11) 1.0921(14) 0.5627(15)
C21 C 0.0000 0.3588(10) 0.9980(18)
H24 H 0.0516 0.4016 1.0187
H25 H -0.0516 0.4016 1.0187
Cl1 Cl 0.0000 0.3445(6) 0.8310(6)
Cl2 Cl 0.0000 0.2718(3) 1.1060(5)
H6? H -0.0598 0.7850 -0.2277
H7? H 0.0236 0.7112 -0.2259
H8? H 0.0362 0.8329 -0.2289
H9? H -0.0184 1.0470 -0.0421
H10? H -0.0405 0.9658 -0.1585
H11? H 0.0589 0.9912 -0.1221
H13? H 0.1267 0.5269 0.1504
H26? H 0.1304 1.0006 0.4300
C23? C 0.0218(7) 1.0394(10) 0.5169(13)
loop_
_geom_bond_atom_site_label_1
_geom_bond_atom_site_label_2
_geom_bond_site_symmetry_1
_geom_bond_site_symmetry_2
C1 C2 1_555 1_555
C2 C3 1_555 1_555
C3 H1 1_555 1_555
C4 C3 1_555 1_555
C5 C4 1_555 1_555
C6 C1 1_555 1_555
H2 C6 1_555 1_555
C7 C5 1_555 1_555
C8 C7 1_555 1_555
C9 C4 1_555 1_555
C10 C9 1_555 1_555
H3 C10 1_555 1_555
H4 C10 1_555 1_555
H5 C10 1_555 1_555
C11 C8 1_555 1_555
C12 C7 1_555 1_555
C13 C9 1_555 1_555
C14 C13 1_555 1_555
H12 C14 1_555 1_555
C15 C14 1_555 1_555
C16 C15 1_555 1_555
H14 C16 1_555 1_555
H15 C16 1_555 1_555
C17 H16 1_555 1_555
H17 C17 1_555 1_555
C18 C17 1_555 1_555
H18 C18 1_555 1_555
H19 C18 1_555 1_555
C19 C2 1_555 1_555
H20 C19 1_555 1_555
H21 C19 1_555 1_555
C20 C1 1_555 1_555
H22 C20 1_555 1_555
H23 C20 1_555 1_555
C21 H24 1_555 1_555
H25 C21 1_555 1_555
Cl1 C21 1_555 1_555
Cl2 C21 1_555 1_555
S1 C16 1_555 1_555
S2 C18 1_555 1_555
S3 C20 1_555 1_555
C22 S3 1_555 1_555
C1C C2C 1_555 1_555
C2C C3C 1_555 1_555
C3C H1C 1_555 1_555
C4C C3C 1_555 1_555
C5C C7 1_555 1_555
C6C C1C 1_555 1_555
H2C C6C 1_555 1_555
C9C C8 1_555 1_555
C10C C9C 1_555 1_555
H3C C10C 1_555 1_555
H4C C10C 1_555 1_555
H5C C10C 1_555 1_555
C13C C13 1_555 1_555
C14C C13C 1_555 1_555
H12C C14C 1_555 1_555
C15C C15 1_555 1_555
C16C C15C 1_555 1_555
H14C C16C 1_555 1_555
H15C C16C 1_555 1_555
C17C H16C 1_555 1_555
H17C C17C 1_555 1_555
C18C C17C 1_555 1_555
H18C C18C 1_555 1_555
H19C C18C 1_555 1_555
C19C C2C 1_555 1_555
H20C C19C 1_555 1_555
H21C C19C 1_555 1_555
C20C C1C 1_555 1_555
H22C C20C 1_555 1_555
H23C C20C 1_555 1_555
S1C C16C 1_555 1_555
S2C C18C 1_555 1_555
S3C C20C 1_555 1_555
C22C C22 1_555 1_555
C5 C6 1_555 1_555
C8 C9 1_555 1_555
C17 S1 1_555 1_555
C19 S2 1_555 1_555
C4C C5C 1_555 1_555
C4C C9C 1_555 1_555
C5C C6C 1_555 1_555
C9C C13C 1_555 1_555
C14C C15C 1_555 1_555
C17C S1C 1_555 1_555
C19C S2C 1_555 1_555
S3C C22C 1_555 1_555

#END
