
#######################################################################
#
#                 Cambridge Crystallographic Data Centre
#                                CCDC 
#
#######################################################################
#
# If this CIF has been generated from an entry in the Cambridge 
# Structural Database, then it will include bibliographic, chemical, 
# crystal, experimental, refinement or atomic coordinate data resulting 
# from the CCDC's data processing and validation procedures.
#
#######################################################################

data_MILVIN
_chemical_formula_moiety         'C96 H84 N4 O18,C1 H2 Cl2'
_chemical_name_systematic        
'2,17,23,38-tetrakis(bis(Ethoxycarbonyl)methylidene)-7,12,28,33-tetraphenyl-45,49-dioxa-44,46,48,50-tetrazanonacyclo (37.3.1.1^3,6^.1^8,11^.1^13,16^.1^18,22^.1^24,27^.1^29,32^.1^34,37^) pentaconta-1(43),3,5,7,9,11,13,15,18(47),19,21,24,26,28,30,32,34,36,39,41-icosaene dichloromethane solvate'
_symmetry_cell_setting           triclinic
_symmetry_space_group_name_H-M   'P -1'
_symmetry_Int_Tables_number      2
_space_group_name_Hall           '-P 1'
loop_
_symmetry_equiv_pos_site_id
_symmetry_equiv_pos_as_xyz
1 x,y,z
2 -x,-y,-z
_cell_length_a                   16.3542(3)
_cell_length_b                   17.9863(3)
_cell_length_c                   18.0871(4)
_cell_angle_alpha                66.749(1)
_cell_angle_beta                 85.227(1)
_cell_angle_gamma                63.118(1)
_cell_volume                     4330.45
_exptl_crystal_colour            red-brown
_exptl_crystal_description       needles
_cell_formula_units_Z            2
_exptl_crystal_recrystallization_method hexanes
loop_
_atom_site_label
_atom_site_type_symbol
_atom_site_fract_x
_atom_site_fract_y
_atom_site_fract_z
O1 O 0.80141(17) 0.00592(17) 0.40992(15)
O2 O 0.43536(18) 0.50483(17) 0.63214(16)
O3 O 0.96371(17) -0.1242(2) 0.77844(16)
O4 O 0.96782(19) -0.1752(2) 0.91254(16)
O5 O 0.7787(2) -0.0275(2) 0.93553(17)
O6 O 0.7777(2) -0.1599(2) 0.96735(16)
O7 O 0.27576(19) 0.16610(19) 0.72240(18)
O8 O 0.38907(18) 0.15153(18) 0.64068(16)
O9 O 0.2972(2) 0.3861(2) 0.7229(2)
O10 O 0.22716(18) 0.36090(18) 0.64249(18)
O11 O 0.11707(19) 0.68399(19) 0.3452(2)
O12 O -0.00495(17) 0.67821(18) 0.30776(18)
O13 O 0.0467(2) 0.4811(2) 0.3070(2)
O14 O 0.0719(2) 0.5864(2) 0.20301(19)
O15 O 0.20244(18) 0.43189(18) 0.13303(18)
O16 O 0.22005(18) 0.29847(19) 0.13949(19)
O17 O 0.48549(18) 0.25541(19) 0.08792(16)
O18 O 0.34546(18) 0.36009(18) 0.02085(16)
N1 N 0.5653(2) 0.1829(2) 0.23991(19)
H1 H 0.5645 0.1852 0.1904
N2 N 0.8447(2) -0.08512(19) 0.66229(18)
H2 H 0.9003 -0.1131 0.6885
N3 N 0.4787(2) 0.3325(2) 0.74404(19)
H3 H 0.4418 0.3719 0.6988
N4 N 0.2733(2) 0.5547(2) 0.43404(19)
H4 H 0.2315 0.6109 0.4060
C1 C 0.4880(3) 0.2226(3) 0.2744(2)
C2 C 0.5196(3) 0.2040(3) 0.3515(2)
H5 H 0.4821 0.2224 0.3902
C3 C 0.6150(3) 0.1541(3) 0.3628(2)
H6 H 0.6541 0.1336 0.4100
C4 C 0.6435(3) 0.1393(3) 0.2932(2)
C5 C 0.7328(3) 0.0888(3) 0.2721(2)
C6 C 0.8085(3) 0.0280(3) 0.3275(2)
C7 C 0.9029(3) -0.0231(3) 0.3192(2)
H7 H 0.9280 -0.0205 0.2695
C8 C 0.9506(3) -0.0757(3) 0.3936(2)
H8 H 1.0147 -0.1169 0.4051
C9 C 0.8884(3) -0.0588(3) 0.4521(2)
C10 C 0.9012(3) -0.0927(2) 0.5340(2)
C11 C 0.8269(3) -0.0661(3) 0.5826(2)
C12 C 0.7313(3) -0.0229(3) 0.5661(2)
H9 H 0.6978 -0.0012 0.5154
C13 C 0.6932(3) -0.0168(3) 0.6355(2)
H10 H 0.6292 0.0091 0.6411
C14 C 0.7643(3) -0.0548(3) 0.6959(2)
C15 C 0.7565(3) -0.0635(2) 0.7787(2)
C16 C 0.6573(3) -0.0279(3) 0.7967(2)
C17 C 0.6015(3) 0.0648(3) 0.7715(2)
H11 H 0.6262 0.1056 0.7426
C18 C 0.5100(3) 0.0998(3) 0.7875(2)
C19 C 0.4757(3) 0.0388(3) 0.8308(2)
H12 H 0.4139 0.0612 0.8435
C20 C 0.5303(3) -0.0536(3) 0.8557(3)
H13 H 0.5057 -0.0944 0.8847
C21 C 0.6208(3) -0.0872(3) 0.8386(2)
H14 H 0.6581 -0.1509 0.8555
C22 C 0.4519(3) 0.2001(2) 0.7586(2)
C23 C 0.4939(3) 0.2436(3) 0.7841(2)
C24 C 0.5580(3) 0.2051(3) 0.8495(2)
H15 H 0.5837 0.1434 0.8874
C25 C 0.5792(3) 0.2709(3) 0.8512(3)
H16 H 0.6205 0.2629 0.8909
C26 C 0.5289(3) 0.3508(3) 0.7842(2)
C27 C 0.5262(3) 0.4390(3) 0.7597(3)
C28 C 0.4811(3) 0.5114(3) 0.6899(3)
C29 C 0.4698(3) 0.6023(3) 0.6586(3)
H17 H 0.4943 0.6256 0.6848
C30 C 0.4192(3) 0.6491(3) 0.5863(3)
H18 H 0.4012 0.7113 0.5530
C31 C 0.3963(3) 0.5895(3) 0.5671(2)
C32 C 0.3496(3) 0.6037(3) 0.5005(2)
C33 C 0.3413(3) 0.5312(3) 0.4886(2)
C34 C 0.3925(3) 0.4371(3) 0.5196(2)
H19 H 0.4449 0.4012 0.5594
C35 C 0.3532(3) 0.4048(3) 0.4817(2)
H20 H 0.3743 0.3428 0.4911
C36 C 0.2782(3) 0.4787(3) 0.4281(2)
C37 C 0.2154(3) 0.4798(3) 0.3753(2)
C38 C 0.2457(3) 0.3906(3) 0.3695(2)
C39 C 0.3009(3) 0.3724(3) 0.3104(2)
H21 H 0.3205 0.4157 0.2762
C40 C 0.3283(3) 0.2927(3) 0.2999(2)
C41 C 0.2984(3) 0.2306(3) 0.3494(3)
H22 H 0.3160 0.1758 0.3425
C42 C 0.2433(3) 0.2476(3) 0.4085(3)
H23 H 0.2228 0.2049 0.4420
C43 C 0.2176(3) 0.3276(3) 0.4190(3)
H24 H 0.1807 0.3388 0.4604
C44 C 0.3933(3) 0.2727(3) 0.2389(2)
C45 C 0.7406(3) 0.0999(3) 0.1863(2)
C46 C 0.7218(3) 0.1840(3) 0.1240(3)
H25 H 0.7055 0.2353 0.1364
C47 C 0.7269(3) 0.1936(3) 0.0436(3)
H26 H 0.7150 0.2508 0.0013
C48 C 0.7495(3) 0.1190(4) 0.0262(3)
H27 H 0.7532 0.1249 -0.0283
C49 C 0.7666(4) 0.0364(4) 0.0868(3)
H28 H 0.7816 -0.0144 0.0740
C50 C 0.7620(3) 0.0269(3) 0.1662(3)
H29 H 0.7737 -0.0306 0.2078
C51 C 0.9951(3) -0.1607(3) 0.5783(2)
C52 C 1.0230(3) -0.2527(3) 0.6064(3)
H30 H 0.9831 -0.2731 0.5950
C53 C 1.1082(4) -0.3160(3) 0.6509(3)
H31 H 1.1261 -0.3792 0.6697
C54 C 1.1672(3) -0.2880(4) 0.6681(3)
H32 H 1.2261 -0.3313 0.6981
C55 C 1.1400(3) -0.1979(4) 0.6414(3)
H33 H 1.1795 -0.1777 0.6541
C56 C 1.0559(3) -0.1349(3) 0.5962(3)
H34 H 1.0392 -0.0719 0.5768
C57 C 0.8232(3) -0.0966(3) 0.8407(2)
C58 C 0.9226(3) -0.1317(3) 0.8377(2)
C59 C 1.0679(3) -0.2100(4) 0.9175(3)
H35 H 1.0915 -0.2213 0.9715
H36 H 1.0829 -0.1634 0.8763
C60 C 1.1159(3) -0.2971(4) 0.9040(3)
H37 H 1.0925 -0.3396 0.9377
H38 H 1.1825 -0.3246 0.9189
H39 H 1.1037 -0.2836 0.8469
C61 C 0.7916(3) -0.0902(3) 0.9191(2)
C62 C 0.7347(5) -0.1527(5) 1.0407(3)
H40 H 0.6859 -0.0898 1.0283
H41 H 0.7815 -0.1689 1.0833
C63 C 0.6945(6) -0.2177(5) 1.0685(4)
H42 H 0.6535 -0.2049 1.0237
H43 H 0.6592 -0.2107 1.1139
H44 H 0.7443 -0.2801 1.0859
C64 C 0.3675(3) 0.2412(3) 0.7147(2)
C65 C 0.3376(3) 0.1832(3) 0.6934(2)
C66 C 0.3714(3) 0.0852(3) 0.6267(3)
H45 H 0.3074 0.1140 0.6010
H46 H 0.3794 0.0339 0.6787
C67 C 0.4375(3) 0.0519(4) 0.5730(4)
H47 H 0.4351 0.1038 0.5249
H48 H 0.4214 0.0141 0.5563
H49 H 0.5000 0.0156 0.6019
C68 C 0.2959(3) 0.3352(3) 0.6958(3)
C69 C 0.1557(3) 0.4567(4) 0.6185(4)
H50 H 0.1239 0.4644 0.6659
H51 H 0.1852 0.4974 0.5995
C70 C 0.0911(4) 0.4805(4) 0.5565(3)
H52 H 0.1234 0.4641 0.5130
H53 H 0.0504 0.5462 0.5351
H54 H 0.0542 0.4478 0.5781
C71 C 0.5774(3) 0.4495(3) 0.8166(2)
C72 C 0.5296(4) 0.5000(3) 0.8609(3)
H55 H 0.4640 0.5283 0.8553
C73 C 0.5780(5) 0.5094(4) 0.9142(3)
H56 H 0.5452 0.5445 0.9445
C74 C 0.6712(5) 0.4688(4) 0.9227(3)
H57 H 0.7036 0.4743 0.9598
C75 C 0.7195(4) 0.4195(3) 0.8780(3)
H58 H 0.7850 0.3922 0.8837
C76 C 0.6730(3) 0.4097(3) 0.8250(3)
H59 H 0.7065 0.3756 0.7941
C77 C 0.3009(3) 0.6976(3) 0.4369(2)
C78 C 0.3137(3) 0.7145(3) 0.3563(3)
H60 H 0.3559 0.6665 0.3418
C79 C 0.2654(3) 0.8010(4) 0.2970(3)
H61 H 0.2736 0.8117 0.2418
C80 C 0.2053(3) 0.8720(3) 0.3173(3)
H62 H 0.1715 0.9312 0.2762
C81 C 0.1945(3) 0.8566(3) 0.3972(3)
H63 H 0.1553 0.9057 0.4116
C82 C 0.2404(3) 0.7700(3) 0.4567(3)
H64 H 0.2308 0.7595 0.5117
C83 C 0.1336(3) 0.5500(3) 0.3311(2)
C84 C 0.0798(3) 0.5329(3) 0.2813(3)
C85 C 0.0035(5) 0.5852(5) 0.1556(4)
H67 H 0.0190 0.5234 0.1659
H68 H -0.0577 0.6137 0.1693
C86 C 0.0101(8) 0.6245(8) 0.0814(6)
H69 H -0.0341 0.6248 0.0495
H70 H -0.0035 0.6861 0.0700
H71 H 0.0710 0.5934 0.0684
C88 C 0.0852(3) 0.6418(3) 0.3293(2)
C89 C -0.0642(3) 0.7672(3) 0.3091(3)
H75 H -0.1194 0.7997 0.2690
H76 H -0.0305 0.8040 0.2944
C90 C -0.0934(3) 0.7557(3) 0.3922(3)
H77 H -0.1230 0.7158 0.4081
H78 H -0.1371 0.8152 0.3918
H79 H -0.0391 0.7285 0.4310
C91 C 0.3549(3) 0.3044(3) 0.1616(3)
C92 C 0.2512(3) 0.3544(3) 0.1438(2)
C93 C 0.1195(3) 0.3378(3) 0.1209(4)
H80 H 0.1054 0.3054 0.0944
H81 H 0.0937 0.4029 0.0837
C94 C 0.0785(4) 0.3277(4) 0.1985(4)
H82 H 0.1080 0.2636 0.2363
H83 H 0.0122 0.3489 0.1886
H84 H 0.0884 0.3641 0.2220
C95 C 0.4040(3) 0.3010(3) 0.0893(2)
C96 C 0.3856(3) 0.3703(3) -0.0556(2)
H85 H 0.4065 0.3145 -0.0655
H86 H 0.4393 0.3816 -0.0541
C97 C 0.3106(3) 0.4509(3) -0.1217(3)
H87 H 0.2587 0.4381 -0.1235
H88 H 0.3353 0.4614 -0.1740
H89 H 0.2893 0.5053 -0.1102
Cl1 Cl 0.9442(4) 0.0471(3) 0.8644(3)
Cl2 Cl 0.8904(4) 0.2043(3) 0.8665(3)
C98 C 0.9660(14) 0.0856(7) 0.9359(10)
H90 H 1.0312 0.0720 0.9438
H91 H 0.9424 0.0653 0.9885
H65? H -0.0223 0.5474 0.1910
H66? H 0.0334 0.5604 0.1168
C87? C -0.0642(9) 0.6720(7) 0.1147(8)
H72? H -0.1071 0.6709 0.0824
H73? H -0.0957 0.6953 0.1539
H74? H -0.0384 0.7103 0.0804
Cl3? Cl 1.0127(4) 0.0267(4) 0.8845(3)
Cl4? Cl 0.9752(4) 0.1834(3) 0.8838(3)
C99? C 0.9107(9) 0.1360(7) 0.8536(10)
H92? H 0.8590 0.1345 0.8857
H93? H 0.8897 0.1651 0.7948
loop_
_geom_bond_atom_site_label_1
_geom_bond_atom_site_label_2
_geom_bond_site_symmetry_1
_geom_bond_site_symmetry_2
O1 C6 1_555 1_555
O2 C28 1_555 1_555
O3 C58 1_555 1_555
O4 C58 1_555 1_555
O5 C61 1_555 1_555
O6 C61 1_555 1_555
O7 C65 1_555 1_555
O8 C65 1_555 1_555
O9 C68 1_555 1_555
O10 C68 1_555 1_555
O11 C88 1_555 1_555
O12 C88 1_555 1_555
O13 C84 1_555 1_555
O14 C84 1_555 1_555
O15 C92 1_555 1_555
O16 C92 1_555 1_555
O17 C95 1_555 1_555
O18 C95 1_555 1_555
N1 H1 1_555 1_555
N2 H2 1_555 1_555
N3 H3 1_555 1_555
N4 H4 1_555 1_555
C1 N1 1_555 1_555
C2 C1 1_555 1_555
H5 C2 1_555 1_555
C3 C2 1_555 1_555
H6 C3 1_555 1_555
C4 N1 1_555 1_555
C5 C4 1_555 1_555
C6 C5 1_555 1_555
C7 C6 1_555 1_555
H7 C7 1_555 1_555
C8 C7 1_555 1_555
H8 C8 1_555 1_555
C9 O1 1_555 1_555
C10 C9 1_555 1_555
C11 N2 1_555 1_555
C12 C11 1_555 1_555
H9 C12 1_555 1_555
C13 C12 1_555 1_555
H10 C13 1_555 1_555
C14 N2 1_555 1_555
C15 C14 1_555 1_555
C16 C15 1_555 1_555
C17 C16 1_555 1_555
H11 C17 1_555 1_555
C18 C17 1_555 1_555
C19 C18 1_555 1_555
H12 C19 1_555 1_555
C20 C19 1_555 1_555
H13 C20 1_555 1_555
C21 C16 1_555 1_555
H14 C21 1_555 1_555
C22 C18 1_555 1_555
C23 N3 1_555 1_555
C24 C23 1_555 1_555
H15 C24 1_555 1_555
C25 C24 1_555 1_555
H16 C25 1_555 1_555
C26 N3 1_555 1_555
C27 C26 1_555 1_555
C28 C27 1_555 1_555
C29 C28 1_555 1_555
H17 C29 1_555 1_555
C30 C29 1_555 1_555
H18 C30 1_555 1_555
C31 O2 1_555 1_555
C32 C31 1_555 1_555
C33 N4 1_555 1_555
C34 C33 1_555 1_555
H19 C34 1_555 1_555
C35 C34 1_555 1_555
H20 C35 1_555 1_555
C36 N4 1_555 1_555
C37 C36 1_555 1_555
C38 C37 1_555 1_555
C39 C38 1_555 1_555
H21 C39 1_555 1_555
C40 C39 1_555 1_555
C41 C40 1_555 1_555
H22 C41 1_555 1_555
C42 C41 1_555 1_555
H23 C42 1_555 1_555
C43 C38 1_555 1_555
H24 C43 1_555 1_555
C44 C1 1_555 1_555
C45 C5 1_555 1_555
C46 C45 1_555 1_555
H25 C46 1_555 1_555
C47 C46 1_555 1_555
H26 C47 1_555 1_555
C48 C47 1_555 1_555
H27 C48 1_555 1_555
C49 C48 1_555 1_555
H28 C49 1_555 1_555
C50 C45 1_555 1_555
H29 C50 1_555 1_555
C51 C10 1_555 1_555
C52 C51 1_555 1_555
H30 C52 1_555 1_555
C53 C52 1_555 1_555
H31 C53 1_555 1_555
C54 C53 1_555 1_555
H32 C54 1_555 1_555
C55 C54 1_555 1_555
H33 C55 1_555 1_555
C56 C51 1_555 1_555
H34 C56 1_555 1_555
C57 C15 1_555 1_555
C58 C57 1_555 1_555
C59 O4 1_555 1_555
H35 C59 1_555 1_555
H36 C59 1_555 1_555
C60 C59 1_555 1_555
H37 C60 1_555 1_555
H38 C60 1_555 1_555
H39 C60 1_555 1_555
C61 C57 1_555 1_555
C62 O6 1_555 1_555
H40 C62 1_555 1_555
H41 C62 1_555 1_555
C63 C62 1_555 1_555
H42 C63 1_555 1_555
H43 C63 1_555 1_555
H44 C63 1_555 1_555
C64 C22 1_555 1_555
C65 C64 1_555 1_555
C66 O8 1_555 1_555
H45 C66 1_555 1_555
H46 C66 1_555 1_555
C67 C66 1_555 1_555
H47 C67 1_555 1_555
H48 C67 1_555 1_555
H49 C67 1_555 1_555
C68 C64 1_555 1_555
C69 O10 1_555 1_555
H50 C69 1_555 1_555
H51 C69 1_555 1_555
C70 C69 1_555 1_555
H52 C70 1_555 1_555
H53 C70 1_555 1_555
H54 C70 1_555 1_555
C71 C27 1_555 1_555
C72 C71 1_555 1_555
H55 C72 1_555 1_555
C73 C72 1_555 1_555
H56 C73 1_555 1_555
C74 C73 1_555 1_555
H57 C74 1_555 1_555
C75 C74 1_555 1_555
H58 C75 1_555 1_555
C76 C71 1_555 1_555
H59 C76 1_555 1_555
C77 C32 1_555 1_555
C78 C77 1_555 1_555
H60 C78 1_555 1_555
C79 C78 1_555 1_555
H61 C79 1_555 1_555
C80 C79 1_555 1_555
H62 C80 1_555 1_555
C81 C80 1_555 1_555
H63 C81 1_555 1_555
C82 C77 1_555 1_555
H64 C82 1_555 1_555
C83 C37 1_555 1_555
C84 C83 1_555 1_555
C85 O14 1_555 1_555
H67 C85 1_555 1_555
H68 C85 1_555 1_555
C86 C85 1_555 1_555
H69 C86 1_555 1_555
H70 C86 1_555 1_555
H71 C86 1_555 1_555
C88 C83 1_555 1_555
C89 O12 1_555 1_555
H75 C89 1_555 1_555
H76 C89 1_555 1_555
C90 C89 1_555 1_555
H77 C90 1_555 1_555
H78 C90 1_555 1_555
H79 C90 1_555 1_555
C91 C44 1_555 1_555
C92 C91 1_555 1_555
C93 O16 1_555 1_555
H80 C93 1_555 1_555
H81 C93 1_555 1_555
C94 C93 1_555 1_555
H82 C94 1_555 1_555
H83 C94 1_555 1_555
H84 C94 1_555 1_555
C95 C91 1_555 1_555
C96 O18 1_555 1_555
H85 C96 1_555 1_555
H86 C96 1_555 1_555
C97 C96 1_555 1_555
H87 C97 1_555 1_555
H88 C97 1_555 1_555
H89 C97 1_555 1_555
Cl1 C98 1_555 1_555
Cl2 C98 1_555 1_555
C98 H90 1_555 1_555
H91 C98 1_555 1_555
C3 C4 1_555 1_555
C8 C9 1_555 1_555
C10 C11 1_555 1_555
C13 C14 1_555 1_555
C20 C21 1_555 1_555
C22 C23 1_555 1_555
C25 C26 1_555 1_555
C30 C31 1_555 1_555
C32 C33 1_555 1_555
C35 C36 1_555 1_555
C40 C44 1_555 1_555
C42 C43 1_555 1_555
C49 C50 1_555 1_555
C55 C56 1_555 1_555
C75 C76 1_555 1_555
C81 C82 1_555 1_555

#END
