
#######################################################################
#
#                 Cambridge Crystallographic Data Centre
#                                CCDC 
#
#######################################################################
#
# If this CIF has been generated from an entry in the Cambridge 
# Structural Database, then it will include bibliographic, chemical, 
# crystal, experimental, refinement or atomic coordinate data resulting 
# from the CCDC's data processing and validation procedures.
#
#######################################################################

data_MILVAG
_chemical_formula_moiety         'C19 H17 N3 O1,C1 H2 Cl2'
_chemical_name_systematic        
'(2-(2-(4-(dimethylamino)phenyl)vinyl)-6-methyl-4H-pyran-4-ylidene)malononitrile dichloromethane solvate'
_symmetry_cell_setting           orthorhombic
_symmetry_space_group_name_H-M   'F d d 2'
_symmetry_Int_Tables_number      43
_space_group_name_Hall           'F 2 -2d'
loop_
_symmetry_equiv_pos_site_id
_symmetry_equiv_pos_as_xyz
1 x,y,z
2 -x,-y,z
3 1/4+x,1/4-y,1/4+z
4 1/4-x,1/4+y,1/4+z
5 x,1/2+y,1/2+z
6 -x,1/2-y,1/2+z
7 1/4+x,3/4-y,3/4+z
8 1/4-x,3/4+y,3/4+z
9 1/2+x,y,1/2+z
10 1/2-x,-y,1/2+z
11 3/4+x,1/4-y,3/4+z
12 3/4-x,1/4+y,3/4+z
13 1/2+x,1/2+y,z
14 1/2-x,1/2-y,z
15 3/4+x,3/4-y,1/4+z
16 3/4-x,3/4+y,1/4+z
_cell_length_a                   29.305(1)
_cell_length_b                   35.039(2)
_cell_length_c                   7.0828(2)
_cell_angle_alpha                90
_cell_angle_beta                 90
_cell_angle_gamma                90
_cell_volume                     7272.75
_exptl_crystal_colour            colorless
_exptl_crystal_description       block
_cell_formula_units_Z            16
loop_
_atom_site_label
_atom_site_type_symbol
_atom_site_fract_x
_atom_site_fract_y
_atom_site_fract_z
O1 O 0.15892(15) 0.02172(12) 0.3551(7)
N1 N 0.3818(2) -0.1282(2) 0.3817(12)
N2 N 0.0852(2) 0.1791(2) 0.3194(10)
N3 N 0.2326(3) 0.1777(2) 0.4205(19)
C1 C 0.4298(3) -0.1143(4) 0.3871(18)
H1 H 0.4329 -0.0948 0.4857
H2 H 0.4378 -0.1032 0.2645
H3 H 0.4503 -0.1357 0.4146
C2 C 0.3734(4) -0.1681(3) 0.3621(14)
H4 H 0.3489 -0.1722 0.2701
H5 H 0.3643 -0.1788 0.4844
H6 H 0.4013 -0.1809 0.3183
C3 C 0.3478(3) -0.1022(2) 0.3727(10)
C4 C 0.3564(2) -0.0625(2) 0.3785(11)
H7 H 0.3871 -0.0538 0.3825
C5 C 0.3215(2) -0.03593(19) 0.3784(10)
H8 H 0.3287 -0.0095 0.3861
C6 C 0.2759(2) -0.04722(18) 0.3671(8)
C7 C 0.2673(2) -0.08612(19) 0.3525(10)
H9 H 0.2366 -0.0944 0.3395
C8 C 0.3022(3) -0.1138(2) 0.3559(10)
H10 H 0.2949 -0.1402 0.3470
C9 C 0.2376(2) -0.02170(16) 0.3647(9)
H11 H 0.2084 -0.0328 0.3461
C10 C 0.2391(2) 0.01688(16) 0.3863(8)
H12 H 0.2677 0.0287 0.4094
C11 C 0.19825(19) 0.04083(15) 0.3754(8)
C12 C 0.1996(2) 0.07954(16) 0.3864(9)
H13 H 0.2279 0.0923 0.4047
C13 C 0.1586(2) 0.10077(17) 0.3703(9)
C14 C 0.1184(2) 0.07918(18) 0.3488(10)
H14 H 0.0900 0.0921 0.3370
C15 C 0.1190(2) 0.04115(19) 0.3446(11)
C16 C 0.0796(3) 0.0154(3) 0.313(2)
H15 H 0.0514 0.0305 0.3095
H16 H 0.0778 -0.0031 0.4164
H17 H 0.0834 0.0019 0.1931
C17 C 0.1586(2) 0.14064(17) 0.3717(10)
C18 C 0.1999(3) 0.1625(2) 0.3964(15)
C19 C 0.1182(3) 0.16218(19) 0.3429(10)
C20 C -0.0301(13) 0.0139(10) 0.743(11)
H18 H -0.0585 0.0096 0.6699
H19 H -0.0383 0.0239 0.8690
Cl1 Cl 0.0063(5) 0.0463(4) 0.622(3)
Cl2 Cl 0.0017(7) -0.0296(4) 0.764(3)
C20A C 0.0301(13) -0.0139(10) 0.743(11)
H18A H 0.0585 -0.0096 0.6699
H19A H 0.0383 -0.0239 0.8690
Cl1A Cl -0.0063(5) -0.0463(4) 0.622(3)
Cl2A Cl -0.0017(7) 0.0296(4) 0.764(3)
C21? C -0.0092(7) -0.0068(12) 0.864(10)
H20? H -0.0075 -0.0119 1.0015
H21? H -0.0070 -0.0316 0.7978
Cl3? Cl -0.0617(5) 0.0137(5) 0.814(3)
Cl4? Cl 0.0367(5) 0.0211(5) 0.800(3)
loop_
_geom_bond_atom_site_label_1
_geom_bond_atom_site_label_2
_geom_bond_site_symmetry_1
_geom_bond_site_symmetry_2
O1 C11 1_555 1_555
N1 C1 1_555 1_555
N2 C19 1_555 1_555
N3 C18 1_555 1_555
C1 H1 1_555 1_555
H2 C1 1_555 1_555
H3 C1 1_555 1_555
C2 N1 1_555 1_555
H4 C2 1_555 1_555
H5 C2 1_555 1_555
H6 C2 1_555 1_555
C3 N1 1_555 1_555
C4 C3 1_555 1_555
H7 C4 1_555 1_555
C5 C4 1_555 1_555
H8 C5 1_555 1_555
C6 C5 1_555 1_555
C7 C6 1_555 1_555
H9 C7 1_555 1_555
C8 C3 1_555 1_555
H10 C8 1_555 1_555
C9 C6 1_555 1_555
H11 C9 1_555 1_555
C10 C9 1_555 1_555
H12 C10 1_555 1_555
C11 C10 1_555 1_555
C12 C11 1_555 1_555
H13 C12 1_555 1_555
C13 C12 1_555 1_555
C14 C13 1_555 1_555
H14 C14 1_555 1_555
C15 O1 1_555 1_555
C16 C15 1_555 1_555
H15 C16 1_555 1_555
H16 C16 1_555 1_555
H17 C16 1_555 1_555
C17 C13 1_555 1_555
C18 C17 1_555 1_555
C19 C17 1_555 1_555
C20 H18 1_555 1_555
H19 C20 1_555 1_555
Cl1 C20 1_555 1_555
Cl2 C20 1_555 1_555
C20A H18A 1_555 1_555
H19A C20A 1_555 1_555
Cl1A C20A 1_555 1_555
Cl2A C20A 1_555 1_555
C7 C8 1_555 1_555
C14 C15 1_555 1_555

#END
