
#######################################################################
#
#                 Cambridge Crystallographic Data Centre
#                                CCDC 
#
#######################################################################
#
# If this CIF has been generated from an entry in the Cambridge 
# Structural Database, then it will include bibliographic, chemical, 
# crystal, experimental, refinement or atomic coordinate data resulting 
# from the CCDC's data processing and validation procedures.
#
#######################################################################

data_MILVEK
_chemical_formula_moiety         'C24 H16 N2 O2,2(C1 H1 Cl3)'
_chemical_name_systematic        
"2,2'-(1,4-Phenylene)bis(5-phenyl-1,3-oxazole) chloroform solvate"
_symmetry_cell_setting           triclinic
_symmetry_space_group_name_H-M   'P -1'
_symmetry_Int_Tables_number      2
_space_group_name_Hall           '-P 1'
loop_
_symmetry_equiv_pos_site_id
_symmetry_equiv_pos_as_xyz
1 x,y,z
2 -x,-y,-z
_cell_length_a                   5.6826(3)
_cell_length_b                   10.3721(6)
_cell_length_c                   12.1384(9)
_cell_angle_alpha                70.264(2)
_cell_angle_beta                 89.299(2)
_cell_angle_gamma                82.447(3)
_cell_volume                     667.178
_exptl_crystal_colour            colorless
_exptl_crystal_description       block
_cell_formula_units_Z            1
loop_
_atom_site_label
_atom_site_type_symbol
_atom_site_fract_x
_atom_site_fract_y
_atom_site_fract_z
O1 O 0.5106(3) 0.06629(18) 0.80646(16)
N1 N 0.4529(5) -0.1487(2) 0.8260(2)
C1 C 0.9860(6) 0.3320(3) 0.6207(3)
H1 H 0.9717 0.4237 0.6221
C2 C 1.1717(6) 0.2845(4) 0.5621(3)
H2 H 1.2841 0.3433 0.5234
C3 C 1.1899(6) 0.1511(4) 0.5612(3)
H3 H 1.3149 0.1184 0.5206
C4 C 1.0299(5) 0.0646(3) 0.6181(3)
H4 H 1.0464 -0.0275 0.6176
C5 C 0.8423(5) 0.1120(3) 0.6770(2)
C6 C 0.8241(6) 0.2470(3) 0.6763(3)
H5 H 0.6972 0.2811 0.7150
C7 C 0.6764(5) 0.0187(3) 0.7400(2)
C8 C 0.6391(6) -0.1108(3) 0.7526(3)
H6 H 0.7282 -0.1684 0.7161
C9 C 0.3832(5) -0.0400(3) 0.8556(2)
C10 C 0.1888(5) -0.0195(3) 0.9299(2)
C11 C 0.0508(5) -0.1251(3) 0.9810(3)
H7 H 0.0851 -0.2107 0.9676
C12 C 0.1344(5) 0.1061(3) 0.9494(3)
H8 H 0.2257 0.1790 0.9143
O1A O -0.5106(3) -0.06629(18) 1.19354(16)
N1A N -0.4529(5) 0.1487(2) 1.1740(2)
C1A C -0.9860(6) -0.3320(3) 1.3793(3)
H1A H -0.9717 -0.4237 1.3779
C2A C -1.1717(6) -0.2845(4) 1.4379(3)
H2A H -1.2841 -0.3433 1.4766
C3A C -1.1899(6) -0.1511(4) 1.4388(3)
H3A H -1.3149 -0.1184 1.4794
C4A C -1.0299(5) -0.0646(3) 1.3819(3)
H4A H -1.0464 0.0275 1.3824
C5A C -0.8423(5) -0.1120(3) 1.3230(2)
C6A C -0.8241(6) -0.2470(3) 1.3237(3)
H5A H -0.6972 -0.2811 1.2850
C7A C -0.6764(5) -0.0187(3) 1.2600(2)
C8A C -0.6391(6) 0.1108(3) 1.2474(3)
H6A H -0.7282 0.1684 1.2839
C9A C -0.3832(5) 0.0400(3) 1.1444(2)
C10A C -0.1888(5) 0.0195(3) 1.0701(2)
C11A C -0.0508(5) 0.1251(3) 1.0190(3)
H7A H -0.0851 0.2107 1.0324
C12A C -0.1344(5) -0.1061(3) 1.0506(3)
H8A H -0.2257 -0.1790 1.0857
Cl1 Cl 0.51846(15) 0.58610(8) 0.11096(10)
Cl2 Cl 0.99222(15) 0.45006(11) 0.16452(11)
Cl3 Cl 0.6403(2) 0.38180(13) 0.33834(9)
C13 C 0.6933(5) 0.4301(3) 0.1882(3)
H9 H 0.6537 0.3563 0.1585
loop_
_geom_bond_atom_site_label_1
_geom_bond_atom_site_label_2
_geom_bond_site_symmetry_1
_geom_bond_site_symmetry_2
O1 C7 1_555 1_555
N1 C8 1_555 1_555
C1 H1 1_555 1_555
C2 C1 1_555 1_555
H2 C2 1_555 1_555
C3 C2 1_555 1_555
H3 C3 1_555 1_555
C4 C3 1_555 1_555
H4 C4 1_555 1_555
C5 C4 1_555 1_555
C6 C1 1_555 1_555
H5 C6 1_555 1_555
C7 C5 1_555 1_555
C8 C7 1_555 1_555
H6 C8 1_555 1_555
C9 O1 1_555 1_555
C10 C9 1_555 1_555
C11 C10 1_555 1_555
H7 C11 1_555 1_555
C12 C10 1_555 1_555
H8 C12 1_555 1_555
Cl1 C13 1_555 1_555
Cl2 C13 1_555 1_555
Cl3 C13 1_555 1_555
C13 H9 1_555 1_555
O1A C7A 1_555 1_555
N1A C8A 1_555 1_555
C1A H1A 1_555 1_555
C2A C1A 1_555 1_555
H2A C2A 1_555 1_555
C3A C2A 1_555 1_555
H3A C3A 1_555 1_555
C4A C3A 1_555 1_555
H4A C4A 1_555 1_555
C5A C4A 1_555 1_555
C6A C1A 1_555 1_555
H5A C6A 1_555 1_555
C7A C5A 1_555 1_555
C8A C7A 1_555 1_555
H6A C8A 1_555 1_555
C9A O1A 1_555 1_555
C10A C9A 1_555 1_555
C11A C12 1_555 1_555
H7A C11A 1_555 1_555
C12A C11 1_555 1_555
H8A C12A 1_555 1_555
N1 C9 1_555 1_555
C5 C6 1_555 1_555
N1A C9A 1_555 1_555
C5A C6A 1_555 1_555
C10A C11A 1_555 1_555
C10A C12A 1_555 1_555

#END
