
#######################################################################
#
#                 Cambridge Crystallographic Data Centre
#                                CCDC 
#
#######################################################################
#
# If this CIF has been generated from an entry in the Cambridge 
# Structural Database, then it will include bibliographic, chemical, 
# crystal, experimental, refinement or atomic coordinate data resulting 
# from the CCDC's data processing and validation procedures.
#
#######################################################################

data_MILXOW
_chemical_formula_moiety         'C33 H52 O8,C1 H4 O1,C1 H1 Cl3'
_chemical_name_systematic        
"2,7',8'-trihydroxy-3'-isopropyl-4a,6',6a,7-tetramethyldocosahydro-4a'H,13H-spiro[naphtho[2',1':4,5]indeno[2,1-b]pyran-9,2'-pyrano[2,3-b][1,4]dioxin]-13-one methanol chloroform solvate"
_symmetry_cell_setting           monoclinic
_symmetry_space_group_name_H-M   'P 21'
_symmetry_Int_Tables_number      4
_space_group_name_Hall           'P 2yb'
loop_
_symmetry_equiv_pos_site_id
_symmetry_equiv_pos_as_xyz
1 x,y,z
2 -x,1/2+y,-z
_cell_length_a                   15.161(2)
_cell_length_b                   8.649(1)
_cell_length_c                   15.652(2)
_cell_angle_alpha                90
_cell_angle_beta                 108.44(2)
_cell_angle_gamma                90
_cell_volume                     1947.03
_exptl_crystal_colour            colorless
_exptl_crystal_description       prism
_cell_formula_units_Z            2
loop_
_atom_site_label
_atom_site_type_symbol
_atom_site_fract_x
_atom_site_fract_y
_atom_site_fract_z
O1 O 0.1266(3) 0.9058(6) 0.9986(3)
H1 H 0.1497 0.9896 1.0179
O2 O 0.4114(4) 1.0236(6) 0.9139(5)
O3 O 0.6982(2) 0.4990(5) 0.7153(3)
O4 O 0.8420(3) 0.3887(5) 0.7759(3)
O5 O 0.8410(3) 0.3002(5) 0.6052(3)
O6 O 0.9903(3) 0.2179(5) 0.6589(3)
O7 O 0.9858(3) 0.2567(8) 0.9230(3)
H2 H 0.9502 0.3191 0.9341
O8 O 1.0468(3) 0.0350(6) 0.8211(3)
H3 H 1.0706 -0.0010 0.8716
C1 C 0.2323(4) 0.5667(8) 0.9064(4)
H4 H 0.2684 0.5160 0.9616
H5 H 0.2032 0.4871 0.8630
C2 C 0.1538(4) 0.6686(9) 0.9259(5)
H6 H 0.1130 0.7103 0.8697
H7 H 0.1168 0.6045 0.9524
C3 C 0.1978(4) 0.8034(8) 0.9911(4)
H8 H 0.2320 0.7617 1.0506
C4 C 0.2625(3) 0.8965(7) 0.9559(3)
H9 H 0.2914 0.9771 0.9987
H10 H 0.2277 0.9454 0.8996
C5 C 0.3379(3) 0.7918(7) 0.9408(3)
H11 H 0.3688 0.7397 0.9981
C6 C 0.4141(4) 0.8857(7) 0.9157(4)
C7 C 0.4898(5) 0.7898(7) 0.8987(5)
H12 H 0.5293 0.7479 0.9554
H13 H 0.5279 0.8556 0.8744
C8 C 0.4511(3) 0.6568(6) 0.8331(4)
H14 H 0.4212 0.7000 0.7730
C9 C 0.3788(4) 0.5614(6) 0.8609(4)
H15 H 0.4113 0.5248 0.9220
C10 C 0.9265(4) 0.3213(7) 0.6749(3)
H16 H 0.9484 0.4279 0.6748
C11 C 0.9096(4) 0.2840(8) 0.7663(3)
H17 H 0.8859 0.1783 0.7645
C12 C 1.0004(4) 0.2970(8) 0.8409(3)
H18 H 1.0220 0.4043 0.8446
C13 C 1.0730(4) 0.1925(8) 0.8203(4)
H19 H 1.1338 0.2090 0.8656
C14 C 1.0786(4) 0.2313(7) 0.7268(4)
H20 H 1.1004 0.3381 0.7274
C15 C 1.1457(5) 0.1247(11) 0.6990(5)
H21 H 1.1458 0.1515 0.6395
H22 H 1.1261 0.0192 0.6995
H23 H 1.2073 0.1365 0.7406
C16 C 0.2979(3) 0.6635(6) 0.8697(3)
C17 C 0.3476(4) 0.4152(8) 0.8043(5)
H24 H 0.3081 0.4442 0.7446
H25 H 0.3110 0.3518 0.8316
C18 C 0.4320(5) 0.3170(9) 0.7956(5)
H26 H 0.4656 0.2735 0.8539
H27 H 0.4083 0.2319 0.7543
C19 C 0.4982(3) 0.4114(7) 0.7622(3)
C20 C 0.5312(3) 0.5490(6) 0.8291(3)
H28 H 0.5569 0.5034 0.8892
C21 C 0.6132(3) 0.6190(7) 0.8058(4)
H29 H 0.5924 0.6823 0.7520
H30 H 0.6522 0.6805 0.8552
C22 C 0.6627(4) 0.4775(6) 0.7906(4)
H31 H 0.7154 0.4581 0.8449
C23 C 0.5949(3) 0.3343(7) 0.7745(3)
H32 H 0.6115 0.2756 0.8309
C24 C 0.4532(5) 0.4654(9) 0.6662(5)
H33 H 0.4354 0.3773 0.6272
H34 H 0.4966 0.5273 0.6478
H35 H 0.3991 0.5259 0.6627
C25 C 0.2449(4) 0.7327(10) 0.7783(4)
H36 H 0.2220 0.6511 0.7355
H37 H 0.2858 0.7979 0.7583
H38 H 0.1937 0.7928 0.7836
C26 C 0.6075(4) 0.2271(7) 0.7028(4)
H39 H 0.5745 0.2697 0.6433
C27 C 0.5673(6) 0.0638(9) 0.7119(7)
H40 H 0.5023 0.0729 0.7053
H41 H 0.5997 0.0216 0.7701
H42 H 0.5751 -0.0032 0.6660
C28 C 0.7105(4) 0.2143(7) 0.7133(4)
H43 H 0.7186 0.1449 0.6677
H44 H 0.7432 0.1707 0.7719
C29 C 0.7532(4) 0.3748(7) 0.7041(4)
C30 C 0.7738(4) 0.4087(8) 0.6154(3)
H45 H 0.8009 0.5124 0.6198
C31 C 0.6876(5) 0.4017(12) 0.5272(4)
H46 H 0.6655 0.2967 0.5084
C32 C 0.6205(9) 0.507(4) 0.5111(10)
H47 H 0.5740 0.4847 0.4545
H48 H 0.6461 0.6076 0.5087
H49 H 0.5927 0.5042 0.5583
C33 C 0.7246(14) 0.499(3) 0.4517(13)
H50 H 0.6768 0.4975 0.3942
H51 H 0.7796 0.4501 0.4465
H52 H 0.7384 0.6036 0.4713
C35 C 0.8582(8) 0.780(2) 0.8557(7)
H56 H 0.8830 0.7030 0.8257
H57 H 0.8967 0.8711 0.8651
H58 H 0.7962 0.8064 0.8192
O9 O 0.8566(5) 0.7203(10) 0.9432(4)
H59 H 0.9100 0.7060 0.9761
C36 C 0.8969(9) 0.9189(15) 0.5622(7)
H60 H 0.9329 1.0059 0.5960
Cl1 Cl 0.8542(8) 0.9745(13) 0.4483(6)
Cl2 Cl 0.9738(7) 0.7653(12) 0.5703(7)
Cl3 Cl 0.8163(12) 0.8645(10) 0.6158(11)
C34? C 0.7285(10) 0.3998(19) 0.4451(9)
H53? H 0.7210 0.2986 0.4187
H54? H 0.7934 0.4259 0.4665
H55? H 0.6959 0.4739 0.4007
Cl4? Cl 0.8184(12) 0.940(2) 0.4591(9)
loop_
_geom_bond_atom_site_label_1
_geom_bond_atom_site_label_2
_geom_bond_site_symmetry_1
_geom_bond_site_symmetry_2
O1 H1 1_555 1_555
O2 C6 1_555 1_555
O3 C22 1_555 1_555
O4 C11 1_555 1_555
O5 C10 1_555 1_555
O6 C10 1_555 1_555
O7 H2 1_555 1_555
O8 H3 1_555 1_555
C1 H4 1_555 1_555
H5 C1 1_555 1_555
C2 C1 1_555 1_555
H6 C2 1_555 1_555
H7 C2 1_555 1_555
C3 O1 1_555 1_555
H8 C3 1_555 1_555
C4 C3 1_555 1_555
H9 C4 1_555 1_555
H10 C4 1_555 1_555
C5 C4 1_555 1_555
H11 C5 1_555 1_555
C6 C5 1_555 1_555
C7 C6 1_555 1_555
H12 C7 1_555 1_555
H13 C7 1_555 1_555
C8 C7 1_555 1_555
H14 C8 1_555 1_555
C9 C8 1_555 1_555
H15 C9 1_555 1_555
C10 H16 1_555 1_555
C11 C10 1_555 1_555
H17 C11 1_555 1_555
C12 O7 1_555 1_555
H18 C12 1_555 1_555
C13 O8 1_555 1_555
H19 C13 1_555 1_555
C14 O6 1_555 1_555
H20 C14 1_555 1_555
C15 C14 1_555 1_555
H21 C15 1_555 1_555
H22 C15 1_555 1_555
H23 C15 1_555 1_555
C16 C1 1_555 1_555
C17 C9 1_555 1_555
H24 C17 1_555 1_555
H25 C17 1_555 1_555
C18 C17 1_555 1_555
H26 C18 1_555 1_555
H27 C18 1_555 1_555
C19 C18 1_555 1_555
C20 C8 1_555 1_555
H28 C20 1_555 1_555
C21 C20 1_555 1_555
H29 C21 1_555 1_555
H30 C21 1_555 1_555
C22 C21 1_555 1_555
H31 C22 1_555 1_555
C23 C19 1_555 1_555
H32 C23 1_555 1_555
C24 C19 1_555 1_555
H33 C24 1_555 1_555
H34 C24 1_555 1_555
H35 C24 1_555 1_555
C25 C16 1_555 1_555
H36 C25 1_555 1_555
H37 C25 1_555 1_555
H38 C25 1_555 1_555
C26 C23 1_555 1_555
H39 C26 1_555 1_555
C27 C26 1_555 1_555
H40 C27 1_555 1_555
H41 C27 1_555 1_555
H42 C27 1_555 1_555
C28 C26 1_555 1_555
H43 C28 1_555 1_555
H44 C28 1_555 1_555
C29 O3 1_555 1_555
C30 O5 1_555 1_555
H45 C30 1_555 1_555
C31 C30 1_555 1_555
H46 C31 1_555 1_555
C32 C31 1_555 1_555
H47 C32 1_555 1_555
H48 C32 1_555 1_555
H49 C32 1_555 1_555
C33 C31 1_555 1_555
H50 C33 1_555 1_555
H51 C33 1_555 1_555
H52 C33 1_555 1_555
C35 H56 1_555 1_555
H57 C35 1_555 1_555
H58 C35 1_555 1_555
O9 C35 1_555 1_555
H59 O9 1_555 1_555
C36 H60 1_555 1_555
Cl1 C36 1_555 1_555
Cl2 C36 1_555 1_555
Cl3 C36 1_555 1_555
O4 C29 1_555 1_555
C2 C3 1_555 1_555
C5 C16 1_555 1_555
C9 C16 1_555 1_555
C11 C12 1_555 1_555
C12 C13 1_555 1_555
C13 C14 1_555 1_555
C19 C20 1_555 1_555
C22 C23 1_555 1_555
C28 C29 1_555 1_555
C29 C30 1_555 1_555

#END
