
#######################################################################
#
#                 Cambridge Crystallographic Data Centre
#                                CCDC 
#
#######################################################################
#
# If this CIF has been generated from an entry in the Cambridge 
# Structural Database, then it will include bibliographic, chemical, 
# crystal, experimental, refinement or atomic coordinate data resulting 
# from the CCDC's data processing and validation procedures.
#
#######################################################################

data_MILYOY
_chemical_formula_moiety         'C11 H13 N1 O3'
_chemical_name_systematic        
4-benzyl-5-(hydroxymethyl)-1,3-oxazolidin-2-one
_symmetry_cell_setting           orthorhombic
_symmetry_space_group_name_H-M   'P 21 21 21'
_symmetry_Int_Tables_number      19
_space_group_name_Hall           'P 2ac 2ab'
loop_
_symmetry_equiv_pos_site_id
_symmetry_equiv_pos_as_xyz
1 x,y,z
2 1/2-x,-y,1/2+z
3 -x,1/2+y,1/2-z
4 1/2+x,1/2-y,-z
_cell_length_a                   7.7537(2)
_cell_length_b                   10.3515(3)
_cell_length_c                   12.4633(4)
_cell_angle_alpha                90
_cell_angle_beta                 90
_cell_angle_gamma                90
_cell_volume                     1000.33
_cell_formula_units_Z            4
loop_
_atom_site_label
_atom_site_type_symbol
_atom_site_fract_x
_atom_site_fract_y
_atom_site_fract_z
O1 O 0.00029(18) 0.80031(14) 0.19969(11)
O2 O 0.31079(19) 0.89801(15) -0.11431(11)
H1 H 0.3789 0.8406 -0.1361
O3 O 0.22666(18) 0.77858(13) 0.08796(11)
C1 C 0.6459(3) 0.9979(2) 0.51092(17)
H2 H 0.7011 1.0749 0.5342
N1 N 0.2571(2) 0.90822(18) 0.22724(14)
H3 H 0.223(3) 0.959(2) 0.2835(19)
C2 C 0.4303(3) 0.9047(2) 0.18225(15)
H4 H 0.4769 0.9943 0.1740
C3 C 0.5543(3) 0.8214(2) 0.24887(16)
H5 H 0.5199 0.7297 0.2417
H6 H 0.6719 0.8303 0.2189
C4 C 0.1484(3) 0.82911(19) 0.17643(16)
C5 C 0.4789(3) 0.7768(2) 0.44228(17)
H7 H 0.4187 0.7020 0.4189
C6 C 0.4855(3) 0.8050(2) 0.55095(18)
H8 H 0.4329 0.7486 0.6015
C7 C 0.3704(3) 0.9475(2) -0.01463(16)
H9 H 0.2882 1.0139 0.0110
H10 H 0.4831 0.9903 -0.0261
C8 C 0.5591(3) 0.85601(19) 0.36655(16)
C9 C 0.6418(3) 0.9674(2) 0.40262(17)
H11 H 0.6961 1.0232 0.3524
C10 C 0.5693(3) 0.9161(2) 0.58571(16)
H12 H 0.5743 0.9361 0.6600
C11 C 0.3906(3) 0.8453(2) 0.07163(15)
H13 H 0.4826 0.7822 0.0511
loop_
_geom_bond_atom_site_label_1
_geom_bond_atom_site_label_2
_geom_bond_site_symmetry_1
_geom_bond_site_symmetry_2
O1 C4 1_555 1_555
O2 H1 1_555 1_555
O3 C4 1_555 1_555
C1 H2 1_555 1_555
N1 H3 1_555 1_555
C2 N1 1_555 1_555
H4 C2 1_555 1_555
C3 C2 1_555 1_555
H5 C3 1_555 1_555
H6 C3 1_555 1_555
C4 N1 1_555 1_555
C5 H7 1_555 1_555
C6 C5 1_555 1_555
H8 C6 1_555 1_555
C7 O2 1_555 1_555
H9 C7 1_555 1_555
H10 C7 1_555 1_555
C8 C3 1_555 1_555
C9 C1 1_555 1_555
H11 C9 1_555 1_555
C10 C1 1_555 1_555
H12 C10 1_555 1_555
C11 O3 1_555 1_555
H13 C11 1_555 1_555
C2 C11 1_555 1_555
C5 C8 1_555 1_555
C6 C10 1_555 1_555
C7 C11 1_555 1_555
C8 C9 1_555 1_555

#END
