
#######################################################################
#
#                 Cambridge Crystallographic Data Centre
#                                CCDC 
#
#######################################################################
#
# If this CIF has been generated from an entry in the Cambridge 
# Structural Database, then it will include bibliographic, chemical, 
# crystal, experimental, refinement or atomic coordinate data resulting 
# from the CCDC's data processing and validation procedures.
#
#######################################################################

data_MILYUD
_chemical_formula_moiety         'C25 H33 F1 N1 O1 1+,C2 H1 F3 O2,C2 F3 O2 1-'
_chemical_name_systematic        
'2-[(7R)-7-(4-fluorophenyl)-10-oxaspiro[4.5]decan-7-yl]ethyl-(m-tolylmethyl)ammonium 2,2,2-trifluoroacetate 2,2,2-trifluoroacetic acid solvate'
_symmetry_cell_setting           monoclinic
_symmetry_space_group_name_H-M   'P 21'
_symmetry_Int_Tables_number      4
_space_group_name_Hall           'P 2yb'
loop_
_symmetry_equiv_pos_site_id
_symmetry_equiv_pos_as_xyz
1 x,y,z
2 -x,1/2+y,-z
_cell_length_a                   8.9509(2)
_cell_length_b                   11.1348(3)
_cell_length_c                   14.9160(3)
_cell_angle_alpha                90
_cell_angle_beta                 97.4010(10)
_cell_angle_gamma                90
_cell_volume                     1474.24
_exptl_crystal_colour            colorless
_exptl_crystal_description       plate
_cell_formula_units_Z            2
loop_
_atom_site_label
_atom_site_type_symbol
_atom_site_fract_x
_atom_site_fract_y
_atom_site_fract_z
F1 F 1.2418(3) 0.8540(3) 0.54721(16)
N1 N 1.0241(4) 0.9770(3) 1.00304(19)
H1 H 0.931(7) 0.979(5) 1.025(3)
H2 H 1.077(4) 1.042(4) 1.008(2)
O1 O 0.5062(3) 1.0380(3) 0.66366(17)
C1 C 0.8106(4) 1.0212(3) 0.7646(2)
C2 C 0.9234(4) 0.9726(3) 0.7046(2)
C3 C 1.0362(4) 1.0490(4) 0.6809(2)
H3 H 1.0385 1.1301 0.7008
C4 C 1.1444(4) 1.0099(4) 0.6292(3)
H4 H 1.2215 1.0622 0.6144
C5 C 1.1362(4) 0.8925(4) 0.6001(2)
C6 C 1.0303(4) 0.8137(4) 0.6212(3)
H5 H 1.0287 0.7333 0.5998
C7 C 0.9238(4) 0.8537(4) 0.6750(2)
H6 H 0.8505 0.7992 0.6918
C8 C 0.6804(4) 0.9329(4) 0.7754(2)
H7 H 0.7229 0.8524 0.7911
H8 H 0.6270 0.9602 0.8259
C9 C 0.5687(4) 0.9237(4) 0.6902(3)
H9 H 0.6201 0.8904 0.6408
H10 H 0.4867 0.8679 0.7008
C10 C 0.6167(4) 1.1255(4) 0.6453(2)
C11 C 0.7348(4) 1.1390(3) 0.7278(2)
H11 H 0.6866 1.1772 0.7767
H12 H 0.8141 1.1942 0.7122
C12 C 0.6740(4) 1.0967(4) 0.5549(2)
H13 H 0.7611 1.1479 0.5456
H14 H 0.7035 1.0113 0.5519
C13 C 0.5370(5) 1.1251(5) 0.4851(3)
H15 H 0.5694 1.1481 0.4265
H16 H 0.4695 1.0546 0.4757
C14 C 0.4574(5) 1.2296(5) 0.5252(3)
H17 H 0.4723 1.3049 0.4921
H18 H 0.3480 1.2137 0.5215
C15 C 0.5277(4) 1.2400(4) 0.6233(3)
H19 H 0.5950 1.3108 0.6315
H20 H 0.4485 1.2487 0.6635
C16 C 0.8955(4) 1.0501(3) 0.8592(2)
H21 H 0.9645 1.1183 0.8534
H22 H 0.8212 1.0762 0.8990
C17 C 0.9865(4) 0.9461(3) 0.9047(2)
H23 H 0.9270 0.8710 0.8977
H24 H 1.0800 0.9344 0.8768
C18 C 1.1112(4) 0.8833(3) 1.0593(2)
H25 H 1.2119 0.8732 1.0396
H26 H 1.0577 0.8053 1.0521
C19 C 1.1271(4) 0.9227(3) 1.1572(2)
C20 C 1.0137(4) 0.9003(3) 1.2100(2)
H27 H 0.9273 0.8567 1.1846
C21 C 1.0225(4) 0.9399(4) 1.2993(2)
C22 C 1.1508(5) 1.0032(4) 1.3348(3)
H28 H 1.1603 1.0306 1.3956
C23 C 1.2632(5) 1.0265(4) 1.2832(3)
H29 H 1.3492 1.0708 1.3084
C24 C 1.2537(4) 0.9868(4) 1.1949(2)
H30 H 1.3329 1.0032 1.1600
C25 C 0.8987(5) 0.9126(5) 1.3556(3)
H31 H 0.8651 0.9873 1.3814
H32 H 0.9365 0.8575 1.4045
H33 H 0.8139 0.8753 1.3175
F2 F 0.2984(3) 0.8109(2) 0.8355(2)
F3 F 0.3364(3) 0.6784(3) 0.73854(16)
F4 F 0.5093(3) 0.7194(3) 0.84621(19)
O2 O 0.1960(3) 0.6255(3) 0.92244(18)
O3 O 0.3809(3) 0.5105(3) 0.8797(2)
H34 H 0.311(7) 0.450(6) 0.929(4)
C26 C 0.3022(4) 0.6086(4) 0.8821(2)
C27 C 0.3623(4) 0.7064(4) 0.8260(3)
F5 F 0.3372(13) 0.2162(15) 0.8289(10)
F6 F 0.5176(11) 0.2180(16) 0.9450(7)
F7 F 0.369(2) 0.0671(10) 0.9310(11)
O4 O 0.2697(3) 0.3625(3) 0.97448(17)
O5 O 0.1847(3) 0.1866(3) 1.01436(19)
C28 C 0.2678(4) 0.2508(4) 0.9760(2)
C29 C 0.3778(5) 0.1885(4) 0.9195(3)
F8? F 0.338(3) 0.190(4) 0.8449(19)
F9? F 0.513(3) 0.259(3) 0.922(3)
F10? F 0.428(4) 0.087(3) 0.9414(19)
loop_
_geom_bond_atom_site_label_1
_geom_bond_atom_site_label_2
_geom_bond_site_symmetry_1
_geom_bond_site_symmetry_2
F1 C5 1_555 1_555
N1 H1 1_555 1_555
H2 N1 1_555 1_555
O1 C9 1_555 1_555
C1 C2 1_555 1_555
C2 C3 1_555 1_555
C3 H3 1_555 1_555
C4 C3 1_555 1_555
H4 C4 1_555 1_555
C5 C4 1_555 1_555
C6 C5 1_555 1_555
H5 C6 1_555 1_555
C7 C2 1_555 1_555
H6 C7 1_555 1_555
C8 C1 1_555 1_555
H7 C8 1_555 1_555
H8 C8 1_555 1_555
C9 C8 1_555 1_555
H9 C9 1_555 1_555
H10 C9 1_555 1_555
C10 O1 1_555 1_555
C11 C1 1_555 1_555
H11 C11 1_555 1_555
H12 C11 1_555 1_555
C12 C10 1_555 1_555
H13 C12 1_555 1_555
H14 C12 1_555 1_555
C13 C12 1_555 1_555
H15 C13 1_555 1_555
H16 C13 1_555 1_555
C14 C13 1_555 1_555
H17 C14 1_555 1_555
H18 C14 1_555 1_555
C15 C10 1_555 1_555
H19 C15 1_555 1_555
H20 C15 1_555 1_555
C16 C1 1_555 1_555
H21 C16 1_555 1_555
H22 C16 1_555 1_555
C17 N1 1_555 1_555
H23 C17 1_555 1_555
H24 C17 1_555 1_555
C18 N1 1_555 1_555
H25 C18 1_555 1_555
H26 C18 1_555 1_555
C19 C18 1_555 1_555
C20 C19 1_555 1_555
H27 C20 1_555 1_555
C21 C20 1_555 1_555
C22 C21 1_555 1_555
H28 C22 1_555 1_555
C23 C22 1_555 1_555
H29 C23 1_555 1_555
C24 C19 1_555 1_555
H30 C24 1_555 1_555
C25 C21 1_555 1_555
H31 C25 1_555 1_555
H32 C25 1_555 1_555
H33 C25 1_555 1_555
F2 C27 1_555 1_555
F3 C27 1_555 1_555
F4 C27 1_555 1_555
O2 C26 1_555 1_555
O3 H34 1_555 1_555
C26 O3 1_555 1_555
C27 C26 1_555 1_555
F5 C29 1_555 1_555
F6 C29 1_555 1_555
F7 C29 1_555 1_555
O4 C28 1_555 1_555
O5 C28 1_555 1_555
C28 C29 1_555 1_555
C6 C7 1_555 1_555
C10 C11 1_555 1_555
C14 C15 1_555 1_555
C16 C17 1_555 1_555
C23 C24 1_555 1_555

#END
