
#######################################################################
#
#                 Cambridge Crystallographic Data Centre
#                                CCDC 
#
#######################################################################
#
# If this CIF has been generated from an entry in the Cambridge 
# Structural Database, then it will include bibliographic, chemical, 
# crystal, experimental, refinement or atomic coordinate data resulting 
# from the CCDC's data processing and validation procedures.
#
#######################################################################

data_MILZAK
_chemical_formula_moiety         'C22 H31 N2 O2 S1 1+,C4 H3 O4 1-'
_chemical_name_systematic        
'(7R)-(3-methoxy-2-thienyl)methyl-[2-[7-(2-pyridyl)-10-oxaspiro[4.5]decan-7-yl]ethyl]ammonium 3-carboxypropanoate'
_symmetry_cell_setting           monoclinic
_symmetry_space_group_name_H-M   'P 21'
_symmetry_Int_Tables_number      4
_space_group_name_Hall           'P 2yb'
loop_
_symmetry_equiv_pos_site_id
_symmetry_equiv_pos_as_xyz
1 x,y,z
2 -x,1/2+y,-z
_cell_length_a                   6.2203(4)
_cell_length_b                   17.3233(9)
_cell_length_c                   11.9123(6)
_cell_angle_alpha                90
_cell_angle_beta                 92.951(5)
_cell_angle_gamma                90
_cell_volume                     1281.92
_exptl_crystal_colour            colorless
_exptl_crystal_description       tabular
_cell_formula_units_Z            2
loop_
_atom_site_label
_atom_site_type_symbol
_atom_site_fract_x
_atom_site_fract_y
_atom_site_fract_z
O3 O -0.6152(7) -0.61567(19) -0.0067(3)
O4 O -0.3221(6) -0.3439(2) 0.0696(3)
O5 O -0.0320(8) -0.41132(19) 0.0404(3)
C23 C -0.6988(11) -0.5523(3) 0.0070(4)
C24 C -0.5720(11) -0.4804(3) 0.0291(4)
H32 H -0.6467 -0.4336 0.0416
C25 C -0.3616(11) -0.4794(3) 0.0318(4)
H33 H -0.2857 -0.5263 0.0219
C26 C -0.2389(11) -0.4068(3) 0.0501(4)
O6 O -0.9043(7) -0.54346(18) 0.0051(3)
H34 H 0.005(12) -0.480(5) 0.035(6)
O6_2 O 0.0957(7) -0.54346(18) 0.0051(3)
H34_2 H -0.995(12) -0.480(5) 0.035(6)
S1 S -0.3237(2) -0.23239(6) -0.22299(9)
O1 O 0.2161(5) -0.03048(14) 0.4770(2)
O2 O 0.1846(6) -0.3577(2) -0.2211(4)
N1 N 0.1397(6) -0.29056(18) 0.4010(3)
N2 N -0.0477(6) -0.22216(19) 0.0215(3)
H1 H -0.1117 -0.2688 0.0356
H2 H -0.1536 -0.1851 0.0161
C1 C 0.1341(7) -0.1612(2) 0.3244(3)
C2 C -0.0145(7) -0.1366(2) 0.4178(3)
H3 H -0.1276 -0.1022 0.3844
H4 H -0.0867 -0.1833 0.4456
C3 C 0.0964(7) -0.0952(2) 0.5183(3)
C4 C 0.2446(7) -0.1434(2) 0.5998(3)
H5 H 0.1731 -0.1917 0.6220
H6 H 0.3819 -0.1563 0.5656
C5 C 0.2818(8) -0.0890(3) 0.7007(4)
H7 H 0.4088 -0.0557 0.6907
H8 H 0.3053 -0.1188 0.7711
C6 C 0.0727(9) -0.0392(3) 0.7042(4)
H9 H -0.0059 -0.0509 0.7724
H10 H 0.1075 0.0166 0.7035
C7 C -0.0619(8) -0.0623(2) 0.5969(4)
H11 H -0.1714 -0.1014 0.6145
H12 H -0.1358 -0.0167 0.5629
C8 C 0.3752(7) -0.0527(2) 0.4018(3)
H13 H 0.4780 -0.0887 0.4407
H14 H 0.4563 -0.0065 0.3796
C9 C 0.2759(7) -0.0917(2) 0.2969(3)
H15 H 0.3926 -0.1093 0.2494
H16 H 0.1878 -0.0536 0.2531
C10 C 0.2586(6) -0.2350(2) 0.3586(3)
C11 C 0.4756(7) -0.2454(2) 0.3412(3)
H17 H 0.5588 -0.2049 0.3116
C12 C 0.5680(7) -0.3164(2) 0.3680(4)
H18 H 0.7163 -0.3248 0.3568
C13 C 0.4477(8) -0.3738(2) 0.4101(3)
H19 H 0.5083 -0.4229 0.4283
C14 C 0.2306(8) -0.3579(2) 0.4258(4)
H20 H 0.1444 -0.3974 0.4557
C15 C -0.0125(7) -0.1820(2) 0.2200(3)
H21 H -0.1046 -0.2263 0.2389
H22 H -0.1083 -0.1376 0.2015
C16 C 0.1101(7) -0.2027(2) 0.1161(3)
H23 H 0.2003 -0.1585 0.0947
H24 H 0.2057 -0.2473 0.1328
C17 C 0.0631(7) -0.2265(3) -0.0865(3)
H25 H 0.1984 -0.2562 -0.0745
H26 H 0.1012 -0.1737 -0.1103
C18 C -0.0734(8) -0.2640(2) -0.1782(3)
C19 C -0.0137(8) -0.3270(3) -0.2394(4)
C20 C -0.1724(9) -0.3489(3) -0.3232(4)
H27 H -0.1562 -0.3908 -0.3737
C21 C -0.3484(9) -0.3037(3) -0.3232(4)
H28 H -0.4717 -0.3104 -0.3726
C22 C 0.2116(10) -0.4356(3) -0.2498(4)
H29 H 0.1880 -0.4419 -0.3313
H30 H 0.1076 -0.4673 -0.2113
H31 H 0.3581 -0.4521 -0.2269
loop_
_geom_bond_atom_site_label_1
_geom_bond_atom_site_label_2
_geom_bond_site_symmetry_1
_geom_bond_site_symmetry_2
S1 C18 1_555 1_555
O1 C3 1_555 1_555
O2 C19 1_555 1_555
N1 C10 1_555 1_555
N2 H1 1_555 1_555
H2 N2 1_555 1_555
C1 C2 1_555 1_555
C2 H3 1_555 1_555
H4 C2 1_555 1_555
C3 C2 1_555 1_555
C4 C3 1_555 1_555
H5 C4 1_555 1_555
H6 C4 1_555 1_555
C5 C4 1_555 1_555
H7 C5 1_555 1_555
H8 C5 1_555 1_555
C6 C5 1_555 1_555
H9 C6 1_555 1_555
H10 C6 1_555 1_555
C7 C3 1_555 1_555
H11 C7 1_555 1_555
H12 C7 1_555 1_555
C8 O1 1_555 1_555
H13 C8 1_555 1_555
H14 C8 1_555 1_555
C9 C1 1_555 1_555
H15 C9 1_555 1_555
H16 C9 1_555 1_555
C10 C1 1_555 1_555
C11 C10 1_555 1_555
H17 C11 1_555 1_555
C12 C11 1_555 1_555
H18 C12 1_555 1_555
C13 C12 1_555 1_555
H19 C13 1_555 1_555
C14 N1 1_555 1_555
H20 C14 1_555 1_555
C15 C1 1_555 1_555
H21 C15 1_555 1_555
H22 C15 1_555 1_555
C16 N2 1_555 1_555
H23 C16 1_555 1_555
H24 C16 1_555 1_555
C17 N2 1_555 1_555
H25 C17 1_555 1_555
H26 C17 1_555 1_555
C18 C17 1_555 1_555
C19 C18 1_555 1_555
C20 C19 1_555 1_555
H27 C20 1_555 1_555
C21 S1 1_555 1_555
H28 C21 1_555 1_555
C22 O2 1_555 1_555
H29 C22 1_555 1_555
H30 C22 1_555 1_555
H31 C22 1_555 1_555
O3 C23 1_555 1_555
O4 C26 1_555 1_555
O5 C26 1_555 1_555
C23 C24 1_555 1_555
C24 H32 1_555 1_555
C25 C24 1_555 1_555
H33 C25 1_555 1_555
C26 C25 1_555 1_555
O6 C23 1_555 1_555
H34 O5 1_555 1_555
C6 C7 1_555 1_555
C8 C9 1_555 1_555
C13 C14 1_555 1_555
C15 C16 1_555 1_555
C20 C21 1_555 1_555

#END
