
#######################################################################
#
#                 Cambridge Crystallographic Data Centre
#                                CCDC 
#
#######################################################################
#
# If this CIF has been generated from an entry in the Cambridge 
# Structural Database, then it will include bibliographic, chemical, 
# crystal, experimental, refinement or atomic coordinate data resulting 
# from the CCDC's data processing and validation procedures.
#
#######################################################################

data_MIMCES
_chemical_formula_moiety         'C22 H15 N1 O2'
_chemical_name_systematic        Indolizine-1,3-diylbis(phenylmethanone)
_symmetry_cell_setting           tetragonal
_symmetry_space_group_name_H-M   'P 43 21 2'
_symmetry_Int_Tables_number      96
_space_group_name_Hall           'P 4nw 2abw'
loop_
_symmetry_equiv_pos_site_id
_symmetry_equiv_pos_as_xyz
1 x,y,z
2 -x,-y,1/2+z
3 1/2-y,1/2+x,3/4+z
4 1/2+y,1/2-x,1/4+z
5 1/2-x,1/2+y,3/4-z
6 1/2+x,1/2-y,1/4-z
7 y,x,-z
8 -y,-x,1/2-z
_cell_length_a                   10.2367(4)
_cell_length_b                   10.2367(4)
_cell_length_c                   32.000(3)
_cell_angle_alpha                90
_cell_angle_beta                 90
_cell_angle_gamma                90
_cell_volume                     3353.28
_cell_formula_units_Z            8
loop_
_atom_site_label
_atom_site_type_symbol
_atom_site_fract_x
_atom_site_fract_y
_atom_site_fract_z
C1 C 1.00558(16) 0.21761(15) 0.02672(5)
C2 C 1.0646(2) 0.31873(18) 0.00428(7)
H1 H 1.1365 0.3624 0.0153
C3 C 1.0163(3) 0.3527(2) -0.03359(7)
H2 H 1.0555 0.4200 -0.0486
C4 C 0.9092(3) 0.2883(3) -0.05031(6)
H3 H 0.8777 0.3127 -0.0764
C5 C 0.8496(2) 0.1898(2) -0.02906(6)
H4 H 0.7776 0.1471 -0.0403
C6 C 0.85242(18) 0.06132(17) 0.03907(5)
C7 C 0.74487(18) -0.02888(19) 0.03100(6)
C8 C 0.68163(17) -0.09441(18) 0.06749(5)
C9 C 0.6367(2) -0.2214(2) 0.06293(6)
H5 H 0.6537 -0.2666 0.0383
C10 C 0.5671(2) -0.2814(2) 0.09449(7)
H6 H 0.5388 -0.3672 0.0913
C11 C 0.5394(2) -0.2142(2) 0.13080(7)
H7 H 0.4902 -0.2536 0.1517
C12 C 0.5849(2) -0.0886(2) 0.13601(6)
H8 H 0.5675 -0.0438 0.1607
C13 C 0.65605(19) -0.02882(19) 0.10478(6)
H9 H 0.6871 0.0557 0.1086
C14 C 0.93350(16) 0.07052(17) 0.07344(5)
H10 H 0.9254 0.0208 0.0976
C15 C 1.02919(16) 0.16494(16) 0.06674(5)
C16 C 1.13796(17) 0.20173(17) 0.09310(6)
C17 C 1.14011(17) 0.15512(17) 0.13743(5)
C18 C 1.03098(19) 0.16890(18) 0.16272(6)
H11 H 0.9533 0.2006 0.1515
C19 C 1.0376(2) 0.1354(2) 0.20464(6)
H12 H 0.9652 0.1475 0.2218
C20 C 1.1513(3) 0.0843(2) 0.22108(7)
H13 H 1.1551 0.0612 0.2492
C21 C 1.2597(2) 0.0675(2) 0.19584(7)
H14 H 1.3354 0.0307 0.2068
C22 C 1.25536(19) 0.10524(19) 0.15432(7)
H15 H 1.3294 0.0973 0.1377
N1 N 0.89866(15) 0.15415(15) 0.01002(4)
O1 O 0.70408(16) -0.04943(17) -0.00451(4)
O2 O 1.22816(13) 0.27155(15) 0.08041(4)
loop_
_geom_bond_atom_site_label_1
_geom_bond_atom_site_label_2
_geom_bond_site_symmetry_1
_geom_bond_site_symmetry_2
C1 C2 1_555 1_555
C2 H1 1_555 1_555
C3 C2 1_555 1_555
H2 C3 1_555 1_555
C4 C3 1_555 1_555
H3 C4 1_555 1_555
C5 C4 1_555 1_555
H4 C5 1_555 1_555
C6 C7 1_555 1_555
C7 C8 1_555 1_555
C8 C9 1_555 1_555
C9 H5 1_555 1_555
C10 C9 1_555 1_555
H6 C10 1_555 1_555
C11 C10 1_555 1_555
H7 C11 1_555 1_555
C12 C11 1_555 1_555
H8 C12 1_555 1_555
C13 C8 1_555 1_555
H9 C13 1_555 1_555
C14 C6 1_555 1_555
H10 C14 1_555 1_555
C15 C1 1_555 1_555
C16 C15 1_555 1_555
C17 C16 1_555 1_555
C18 C17 1_555 1_555
H11 C18 1_555 1_555
C19 C18 1_555 1_555
H12 C19 1_555 1_555
C20 C19 1_555 1_555
H13 C20 1_555 1_555
C21 C20 1_555 1_555
H14 C21 1_555 1_555
C22 C17 1_555 1_555
H15 C22 1_555 1_555
N1 C1 1_555 1_555
O1 C7 1_555 1_555
O2 C16 1_555 1_555
C5 N1 1_555 1_555
C6 N1 1_555 1_555
C12 C13 1_555 1_555
C14 C15 1_555 1_555
C21 C22 1_555 1_555

#END
