
#######################################################################
#
#                 Cambridge Crystallographic Data Centre
#                                CCDC 
#
#######################################################################
#
# If this CIF has been generated from an entry in the Cambridge 
# Structural Database, then it will include bibliographic, chemical, 
# crystal, experimental, refinement or atomic coordinate data resulting 
# from the CCDC's data processing and validation procedures.
#
#######################################################################

data_MIMCIW
_chemical_formula_moiety         'C15 H10 I1 N1 O1'
_chemical_name_systematic        (1-Iodoindolizin-3-yl)(phenyl)methanone
_symmetry_cell_setting           orthorhombic
_symmetry_space_group_name_H-M   'P 21 21 21'
_symmetry_Int_Tables_number      19
_space_group_name_Hall           'P 2ac 2ab'
loop_
_symmetry_equiv_pos_site_id
_symmetry_equiv_pos_as_xyz
1 x,y,z
2 1/2-x,-y,1/2+z
3 1/2+x,1/2-y,-z
4 -x,1/2+y,1/2-z
_cell_length_a                   8.5765(9)
_cell_length_b                   9.6914(10)
_cell_length_c                   15.4438(16)
_cell_angle_alpha                90
_cell_angle_beta                 90
_cell_angle_gamma                90
_cell_volume                     1283.66
_cell_formula_units_Z            4
loop_
_atom_site_label
_atom_site_type_symbol
_atom_site_fract_x
_atom_site_fract_y
_atom_site_fract_z
C1 C 0.5938(3) -0.0571(2) 0.11680(16)
C2 C 0.6961(3) -0.1614(3) 0.14320(18)
H1 H 0.7439 -0.2179 0.1024
C3 C 0.7256(3) -0.1801(3) 0.23091(19)
H2 H 0.7947 -0.2486 0.2486
C4 C 0.6540(3) -0.0987(3) 0.29179(19)
H3 H 0.6753 -0.1115 0.3503
C5 C 0.5508(3) 0.0020(3) 0.26611(18)
H4 H 0.5004 0.0557 0.3074
C6 C 0.5219(3) 0.0234(3) 0.17933(17)
H5 H 0.4532 0.0927 0.1625
C7 C 0.5626(3) -0.0401(2) 0.02178(16)
C8 C 0.5375(3) 0.0979(2) -0.01038(16)
N1 N 0.4734(2) 0.1245(2) -0.09215(12)
C9 C 0.4131(3) 0.0352(3) -0.15251(15)
H6 H 0.4156 -0.0595 -0.1427
C10 C 0.3500(3) 0.0857(3) -0.22649(17)
H7 H 0.3094 0.0250 -0.2674
C11 C 0.3450(3) 0.2284(3) -0.24226(16)
H8 H 0.3022 0.2613 -0.2936
C12 C 0.4025(3) 0.3185(3) -0.18283(14)
H9 H 0.3968 0.4130 -0.1926
C13 C 0.4709(3) 0.2674(2) -0.10602(14)
C14 C 0.5790(3) 0.2257(2) 0.02444(14)
H10 H 0.6259 0.2393 0.0780
C15 C 0.5393(3) 0.3287(2) -0.03332(14)
I1 I 0.56886(2) 0.540717(16) -0.019699(11)
O1 O 0.5593(3) -0.14211(19) -0.02565(13)
loop_
_geom_bond_atom_site_label_1
_geom_bond_atom_site_label_2
_geom_bond_site_symmetry_1
_geom_bond_site_symmetry_2
C1 C2 1_555 1_555
C2 H1 1_555 1_555
C3 C2 1_555 1_555
H2 C3 1_555 1_555
C4 C3 1_555 1_555
H3 C4 1_555 1_555
C5 C4 1_555 1_555
H4 C5 1_555 1_555
C6 C1 1_555 1_555
H5 C6 1_555 1_555
C7 C1 1_555 1_555
C8 C7 1_555 1_555
N1 C8 1_555 1_555
C9 N1 1_555 1_555
H6 C9 1_555 1_555
C10 C9 1_555 1_555
H7 C10 1_555 1_555
C11 C10 1_555 1_555
H8 C11 1_555 1_555
C12 C11 1_555 1_555
H9 C12 1_555 1_555
C13 N1 1_555 1_555
C14 C8 1_555 1_555
H10 C14 1_555 1_555
C15 C13 1_555 1_555
I1 C15 1_555 1_555
O1 C7 1_555 1_555
C5 C6 1_555 1_555
C12 C13 1_555 1_555
C14 C15 1_555 1_555

#END
