
#######################################################################
#
#                 Cambridge Crystallographic Data Centre
#                                CCDC 
#
#######################################################################
#
# If this CIF has been generated from an entry in the Cambridge 
# Structural Database, then it will include bibliographic, chemical, 
# crystal, experimental, refinement or atomic coordinate data resulting 
# from the CCDC's data processing and validation procedures.
#
#######################################################################

data_MIMDOB01
_chemical_formula_moiety         'C60 H77 N1 O4 S2'
_chemical_name_systematic        
25-Hydroxy-26,28-di-n-propoxy-27-(3-benzothiazolylthia-n-propoxy)-5,11,17,23-tetra-t-butylcalix(4)arene
_symmetry_cell_setting           triclinic
_symmetry_space_group_name_H-M   'P -1'
_symmetry_Int_Tables_number      2
_space_group_name_Hall           '-P 1'
loop_
_symmetry_equiv_pos_site_id
_symmetry_equiv_pos_as_xyz
1 x,y,z
2 -x,-y,-z
_cell_length_a                   17.7072(14)
_cell_length_b                   19.2162(15)
_cell_length_c                   20.2661(15)
_cell_angle_alpha                93.302(2)
_cell_angle_beta                 108.899(2)
_cell_angle_gamma                115.974(2)
_cell_volume                     5701.56
_exptl_crystal_colour            white
_chemical_melting_point          184-186deg.C
_cell_formula_units_Z            4
_exptl_crystal_recrystallization_method dichloromethane/methanol
loop_
_atom_site_label
_atom_site_type_symbol
_atom_site_fract_x
_atom_site_fract_y
_atom_site_fract_z
S1 S 0.87270(10) 1.01620(10) 0.87963(7)
O1 O 0.6511(2) 0.87915(19) 0.62573(15)
C1 C 0.5006(3) 0.7789(3) 0.5472(3)
S2 S 0.97241(9) 1.06506(10) 1.03718(7)
O2 O 0.6768(2) 0.74578(18) 0.69993(16)
N2 N 0.7986(3) 1.0164(2) 0.9773(2)
C2 C 0.4248(3) 0.7571(3) 0.4851(3)
H1 H 0.3761 0.7058 0.4728
C3 C 0.4172(4) 0.8077(4) 0.4398(3)
O3 O 0.8459(2) 0.87936(19) 0.66787(16)
H2 H 0.8476 0.9196 0.6552
O4 O 0.8354(2) 1.0303(2) 0.63463(16)
C4 C 0.4912(4) 0.8836(3) 0.4604(3)
H3 H 0.4886 0.9190 0.4315
C5 C 0.5690(3) 0.9092(3) 0.5223(3)
C6 C 0.6527(3) 0.9874(3) 0.5369(3)
H4 H 0.6807 1.0123 0.5878
H5 H 0.6354 1.0225 0.5112
C7 C 0.7209(3) 0.9765(3) 0.5142(3)
C8 C 0.6952(3) 0.9416(3) 0.4432(3)
H7 H 0.6389 0.9313 0.4099
C9 C 0.7499(4) 0.9211(3) 0.4197(3)
C10 C 0.8310(3) 0.9347(3) 0.4702(3)
H8 H 0.8674 0.9191 0.4561
C11 C 0.8613(3) 0.9708(3) 0.5420(3)
C12 C 0.9498(3) 0.9806(3) 0.5964(3)
H9 H 0.9990 1.0105 0.5811
H10 H 0.9632 1.0112 0.6424
C13 C 0.9464(3) 0.9026(3) 0.6055(2)
C14 C 0.9951(3) 0.8744(3) 0.5804(2)
H11 H 1.0321 0.9064 0.5587
C15 C 0.9911(3) 0.8020(3) 0.5860(2)
C16 C 0.9337(3) 0.7559(3) 0.6180(2)
H12 H 0.9291 0.7064 0.6224
C17 C 0.8834(3) 0.7796(3) 0.6433(2)
C18 C 0.8157(3) 0.7250(3) 0.6713(2)
H13 H 0.8233 0.7535 0.7161
H14 H 0.8261 0.6803 0.6803
C19 C 0.7186(3) 0.6947(3) 0.6159(3)
C20 C 0.6948(3) 0.6551(3) 0.5464(3)
H15 H 0.7359 0.6426 0.5368
C21 C 0.6121(4) 0.6337(3) 0.4912(3)
C22 C 0.5536(3) 0.6547(3) 0.5069(3)
H16 H 0.4987 0.6429 0.4704
C23 C 0.5743(3) 0.6933(3) 0.5762(3)
C24 C 0.5084(3) 0.7182(3) 0.5894(3)
H17 H 0.4488 0.6718 0.5751
H18 H 0.5302 0.7408 0.6402
C25 C 0.5723(3) 0.8565(3) 0.5657(2)
C26 C 0.6555(3) 0.7101(3) 0.6303(2)
C27 C 0.8919(3) 0.8540(3) 0.6384(2)
C28 C 0.8058(3) 0.9929(3) 0.5623(2)
C29 C 0.3326(4) 0.7780(4) 0.3700(3)
C30 C 0.3345(5) 0.8410(4) 0.3283(3)
H19 H 0.3363 0.8838 0.3567
H20 H 0.2807 0.8182 0.2848
H21 H 0.3875 0.8609 0.3168
C31 C 0.2477(5) 0.7510(5) 0.3891(4)
H22 H 0.2533 0.7955 0.4183
H23 H 0.2431 0.7099 0.4149
H24 H 0.1940 0.7307 0.3458
C32 C 0.3269(6) 0.7097(4) 0.3224(4)
H25 H 0.3795 0.7292 0.3102
H26 H 0.2728 0.6884 0.2793
H27 H 0.3249 0.6686 0.3477
C33 C 0.7196(4) 0.8863(4) 0.3406(3)
C34 C 0.7434(7) 0.9520(5) 0.3017(3)
H28 H 0.8075 0.9889 0.3242
H29 H 0.7095 0.9792 0.3033
H30 H 0.7284 0.9298 0.2526
C35 C 0.7669(6) 0.8399(6) 0.3294(4)
H31 H 0.8317 0.8741 0.3503
H32 H 0.7478 0.8205 0.2789
H33 H 0.7509 0.7958 0.3518
C36 C 0.6194(5) 0.8277(5) 0.3056(4)
H34 H 0.5850 0.8537 0.3098
H35 H 0.6055 0.7842 0.3288
H36 H 0.6037 0.8079 0.2558
C37 C 1.0445(4) 0.7727(4) 0.5592(3)
C38 C 1.1097(8) 0.7633(9) 0.6201(6)
H37 H 1.1538 0.8144 0.6521
H38 H 1.1402 0.7406 0.6026
H39 H 1.0775 0.7288 0.6453
C39 C 0.9883(8) 0.6894(7) 0.5187(7)
H40 H 1.0247 0.6727 0.5030
H41 H 0.9383 0.6844 0.4778
H42 H 0.9651 0.6565 0.5489
C40 C 1.0914(11) 0.8211(8) 0.5225(9)
H43 H 1.1291 0.8746 0.5514
H44 H 1.0488 0.8205 0.4784
H45 H 1.1290 0.8018 0.5121
C41 C 0.5877(4) 0.5877(4) 0.4167(3)
C42 C 0.5043(8) 0.5803(8) 0.3618(4)
H46 H 0.4928 0.5510 0.3164
H47 H 0.5123 0.6324 0.3578
H48 H 0.4536 0.5527 0.3753
C43 C 0.5744(7) 0.5070(5) 0.4175(4)
H49 H 0.5591 0.4797 0.3701
H50 H 0.5257 0.4787 0.4330
H51 H 0.6295 0.5098 0.4498
C44 C 0.6627(7) 0.6248(6) 0.3905(5)
H52 H 0.6448 0.5942 0.3438
H53 H 0.7166 0.6258 0.4231
H54 H 0.6750 0.6782 0.3879
C45 C 0.8852(4) 1.1139(3) 0.6497(3)
H55 H 0.8474 1.1349 0.6222
H56 H 0.9378 1.1304 0.6370
C46 C 0.9148(6) 1.1442(4) 0.7278(4)
H57 H 0.8644 1.1480 0.7338
H58 H 0.9200 1.1026 0.7505
C47 C 0.9748(8) 1.1985(13) 0.7591(6)
H59 H 0.9779 1.2076 0.8072
H60 H 0.9731 1.2418 0.7384
H61 H 1.0275 1.1950 0.7598
C48 C 0.6521(4) 0.6886(3) 0.7428(3)
H62 H 0.6793 0.6547 0.7411
H63 H 0.5864 0.6553 0.7237
C49 C 0.6843(4) 0.7305(4) 0.8166(3)
H64 H 0.6626 0.6915 0.8436
H65 H 0.6566 0.7643 0.8168
C50 C 0.7841(5) 0.7803(5) 0.8545(3)
H66 H 0.7979 0.8063 0.9020
H67 H 0.8068 0.8196 0.8287
H68 H 0.8125 0.7473 0.8575
C51 C 0.6511(3) 0.9118(3) 0.6908(2)
H69 H 0.6049 0.8715 0.7036
H70 H 0.6382 0.9557 0.6851
C52 C 0.7436(3) 0.9402(3) 0.7476(2)
H71 H 0.7885 0.9805 0.7338
H72 H 0.7563 0.8960 0.7503
C53 C 0.7545(3) 0.9749(3) 0.8219(2)
H73 H 0.7166 0.9335 0.8399
H74 H 0.7365 1.0159 0.8197
C54 C 0.8707(4) 1.0294(3) 0.9644(2)
C55 C 0.9159(3) 1.0624(3) 1.0928(2)
C56 C 0.9482(4) 1.0802(3) 1.1673(3)
H75 H 1.0093 1.0977 1.1950
C57 C 0.8880(5) 1.0715(3) 1.1990(3)
H76 H 0.9087 1.0841 1.2487
C58 C 0.7979(4) 1.0445(3) 1.1585(3)
H77 H 0.7581 1.0389 1.1811
C59 C 0.7653(4) 1.0255(3) 1.0850(3)
H78 H 0.7036 1.0066 1.0582
C60 C 0.8223(3) 1.0343(3) 1.0516(2)
N1 N 0.2361(4) 0.5436(4) 0.4808(4)
S3 S 0.07400(15) 0.52463(16) 0.42880(14)
S4 S 0.18171(14) 0.58439(16) 0.58349(13)
O5 O 0.3629(2) 0.79585(18) 0.77779(16)
O6 O 0.4139(2) 0.66470(19) 0.83121(17)
O7 O 0.2459(2) 0.49383(18) 0.81459(16)
O8 O 0.2001(2) 0.62287(19) 0.80214(16)
H6 H 0.2094 0.5854 0.8103
C61 C 0.5110(3) 0.6317(3) 0.9182(2)
C62 C 0.5947(3) 0.6571(3) 0.9737(2)
H79 H 0.6060 0.6192 0.9951
C63 C 0.6622(3) 0.7359(3) 0.9989(2)
C64 C 0.6429(3) 0.7910(3) 0.9661(2)
H80 H 0.6867 0.8445 0.9826
C65 C 0.5622(3) 0.7700(3) 0.9105(2)
C66 C 0.5402(3) 0.8324(3) 0.8800(3)
H81 H 0.5951 0.8838 0.8981
H82 H 0.5193 0.8189 0.8282
C67 C 0.4680(3) 0.8380(3) 0.9001(3)
C68 C 0.4864(3) 0.8601(3) 0.9727(3)
H83 H 0.5442 0.8745 1.0062
C69 C 0.4226(3) 0.8614(3) 0.9968(2)
C70 C 0.3352(3) 0.8342(3) 0.9450(3)
H84 H 0.2897 0.8314 0.9599
C71 C 0.3130(3) 0.8112(3) 0.8725(2)
C72 C 0.2132(3) 0.7714(3) 0.8200(2)
H85 H 0.1920 0.8103 0.8144
H86 H 0.2071 0.7485 0.7734
C73 C 0.1574(3) 0.7066(3) 0.8503(3)
C74 C 0.1119(3) 0.7189(3) 0.8900(3)
H87 H 0.1086 0.7659 0.8924
C75 C 0.0710(3) 0.6646(3) 0.9262(3)
C76 C 0.0756(3) 0.5950(3) 0.9195(3)
H88 H 0.0485 0.5574 0.9431
C77 C 0.1185(3) 0.5775(3) 0.8794(3)
C78 C 0.1235(3) 0.5014(3) 0.8751(3)
H89 H 0.1072 0.4782 0.8255
H90 H 0.0797 0.4639 0.8917
C79 C 0.2181(3) 0.5153(3) 0.9200(3)
C80 C 0.2495(4) 0.5334(3) 0.9941(3)
H91 H 0.2101 0.5336 1.0152
C81 C 0.3372(4) 0.5512(3) 1.0383(3)
C82 C 0.3947(3) 0.5533(3) 1.0044(2)
H92 H 0.4543 0.5664 1.0326
C83 C 0.3672(3) 0.5367(3) 0.9307(2)
C84 C 0.4362(3) 0.5460(3) 0.8972(2)
H93 H 0.4627 0.5122 0.9132
H94 H 0.4052 0.5291 0.8454
C85 C 0.4970(3) 0.6890(3) 0.8858(2)
C86 C 0.2778(3) 0.5146(2) 0.8889(2)
C87 C 0.1578(3) 0.6347(3) 0.8437(3)
C88 C 0.3819(3) 0.8168(3) 0.8512(2)
C89 C 0.7520(4) 0.7602(3) 1.0617(3)
C90 C 0.8240(4) 0.8460(4) 1.0733(4)
H95 H 0.8376 0.8528 1.0312
H96 H 0.8784 0.8582 1.1137
H97 H 0.8014 0.8812 1.0824
C91 C 0.7329(5) 0.7493(5) 1.1295(3)
H98 H 0.6879 0.6951 1.1226
H99 H 0.7105 0.7843 1.1397
H100 H 0.7881 0.7616 1.1690
C92 C 0.7928(4) 0.7074(4) 1.0497(3)
H101 H 0.8064 0.7140 1.0075
H102 H 0.7498 0.6527 1.0434
H103 H 0.8478 0.7222 1.0905
C93 C 0.3677(4) 0.5628(3) 1.1194(3)
C94 C 0.4688(5) 0.6243(4) 1.1578(3)
H104 H 0.4861 0.6303 1.2087
H105 H 0.4787 0.6745 1.1462
H106 H 0.5048 0.6066 1.1426
C95 C 0.3526(5) 0.4843(4) 1.1385(3)
H107 H 0.2889 0.4460 1.1161
H108 H 0.3723 0.4913 1.1896
H109 H 0.3870 0.4656 1.1220
C96 C 0.3149(5) 0.5925(4) 1.1482(3)
H110 H 0.2509 0.5552 1.1257
H111 H 0.3256 0.6434 1.1380
H112 H 0.3349 0.5976 1.1992
C97 C 0.0280(5) 0.6835(4) 0.9731(4)
C98 C -0.0229(9) 0.6192(5) 0.9982(7)
H113 H 0.0173 0.6040 1.0305
H114 H -0.0675 0.5749 0.9582
H115 H -0.0530 0.6349 1.0228
C99 C 0.0833(8) 0.7609(5) 1.0205(6)
H116 H 0.1356 0.7629 1.0564
H117 H 0.0484 0.7718 1.0432
H118 H 0.1028 0.8001 0.9937
C100 C -0.0506(8) 0.6994(8) 0.9237(7)
H119 H -0.0788 0.7121 0.9522
H120 H -0.0954 0.6525 0.8862
H121 H -0.0249 0.7431 0.9028
C101 C 0.4409(4) 0.8833(3) 1.0764(3)
C102 C 0.5407(5) 0.9366(5) 1.1214(3)
H122 H 0.5494 0.9484 1.1708
H123 H 0.5621 0.9852 1.1056
H124 H 0.5744 0.9102 1.1165
C103 C 0.3970(5) 0.9319(5) 1.0891(3)
H125 H 0.4097 0.9445 1.1393
H126 H 0.3323 0.9018 1.0626
H127 H 0.4212 0.9803 1.0734
C104 C 0.4045(8) 0.8073(4) 1.1005(4)
H128 H 0.4155 0.8193 1.1504
H129 H 0.4346 0.7780 1.0934
H130 H 0.3401 0.7758 1.0730
C105 C 0.2085(4) 0.4093(3) 0.7871(3)
H131 H 0.1608 0.3788 0.8036
H132 H 0.2558 0.3942 0.8037
C106 C 0.1717(8) 0.3943(5) 0.7093(5)
H133 H 0.2157 0.4341 0.6944
H134 H 0.1620 0.3426 0.6893
C107 C 0.0877(16) 0.3961(15) 0.6813(7)
H135 H 0.0678 0.3891 0.6302
H136 H 0.0963 0.4464 0.7024
H137 H 0.0424 0.3540 0.6926
C108 C 0.3820(4) 0.8620(3) 0.7458(3)
H138 H 0.4413 0.9062 0.7760
H139 H 0.3365 0.8788 0.7405
C109 C 0.3811(4) 0.8381(4) 0.6737(3)
H140 H 0.3215 0.7939 0.6440
H141 H 0.4257 0.8201 0.6795
C110 C 0.4024(5) 0.9065(5) 0.6358(3)
H142 H 0.4011 0.8888 0.5900
H143 H 0.4618 0.9501 0.6646
H144 H 0.3576 0.9238 0.6290
C111 C 0.4107(4) 0.6451(4) 0.7612(3)
H145 H 0.4241 0.6017 0.7566
H146 H 0.4541 0.6907 0.7508
C112 C 0.3081(5) 0.6191(5) 0.7087(3)
H147 H 0.2661 0.5713 0.7178
H148 H 0.2937 0.6610 0.7182
C113 C 0.2967(4) 0.6039(5) 0.6321(5)
H149 H 0.3041 0.5583 0.6198
H150 H 0.3403 0.6500 0.6223
C114 C 0.1774(6) 0.5519(5) 0.4973(4)
C115 C 0.1180(6) 0.4989(5) 0.3679(5)
C116 C 0.0751(11) 0.4697(9) 0.3009(8)
H151 H 0.0138 0.4557 0.2798
C117 C 0.1173(15) 0.4585(11) 0.2598(8)
H152 H 0.0882 0.4429 0.2101
C118 C 0.2056(12) 0.4709(6) 0.2940(7)
H153 H 0.2351 0.4608 0.2673
C119 C 0.2499(8) 0.4986(6) 0.3682(9)
H154 H 0.3082 0.5054 0.3914
C120 C 0.2076(7) 0.5153(4) 0.4063(5)
loop_
_geom_bond_atom_site_label_1
_geom_bond_atom_site_label_2
_geom_bond_site_symmetry_1
_geom_bond_site_symmetry_2
S1 C53 1_555 1_555
O1 C25 1_555 1_555
C1 C2 1_555 1_555
N1 C114 1_555 1_555
S2 C54 1_555 1_555
O2 C26 1_555 1_555
N2 C54 1_555 1_555
C2 H1 1_555 1_555
S3 C114 1_555 1_555
C3 C2 1_555 1_555
O3 H2 1_555 1_555
S4 C113 1_555 1_555
O4 C28 1_555 1_555
C4 C3 1_555 1_555
H3 C4 1_555 1_555
O5 C88 1_555 1_555
C5 C4 1_555 1_555
O6 C85 1_555 1_555
C6 C5 1_555 1_555
H4 C6 1_555 1_555
H5 C6 1_555 1_555
O7 C86 1_555 1_555
C7 C6 1_555 1_555
O8 H6 1_555 1_555
C8 C7 1_555 1_555
H7 C8 1_555 1_555
C9 C8 1_555 1_555
C10 C9 1_555 1_555
H8 C10 1_555 1_555
C11 C10 1_555 1_555
C12 C11 1_555 1_555
H9 C12 1_555 1_555
H10 C12 1_555 1_555
C13 C12 1_555 1_555
C14 C13 1_555 1_555
H11 C14 1_555 1_555
C15 C14 1_555 1_555
C16 C15 1_555 1_555
H12 C16 1_555 1_555
C17 C16 1_555 1_555
C18 C17 1_555 1_555
H13 C18 1_555 1_555
H14 C18 1_555 1_555
C19 C18 1_555 1_555
C20 C19 1_555 1_555
H15 C20 1_555 1_555
C21 C20 1_555 1_555
C22 C21 1_555 1_555
H16 C22 1_555 1_555
C23 C22 1_555 1_555
C24 C1 1_555 1_555
H17 C24 1_555 1_555
H18 C24 1_555 1_555
C25 C1 1_555 1_555
C26 C19 1_555 1_555
C27 O3 1_555 1_555
C28 C7 1_555 1_555
C29 C3 1_555 1_555
C30 C29 1_555 1_555
H19 C30 1_555 1_555
H20 C30 1_555 1_555
H21 C30 1_555 1_555
C31 C29 1_555 1_555
H22 C31 1_555 1_555
H23 C31 1_555 1_555
H24 C31 1_555 1_555
C32 C29 1_555 1_555
H25 C32 1_555 1_555
H26 C32 1_555 1_555
H27 C32 1_555 1_555
C33 C9 1_555 1_555
C34 C33 1_555 1_555
H28 C34 1_555 1_555
H29 C34 1_555 1_555
H30 C34 1_555 1_555
C35 C33 1_555 1_555
H31 C35 1_555 1_555
H32 C35 1_555 1_555
H33 C35 1_555 1_555
C36 C33 1_555 1_555
H34 C36 1_555 1_555
H35 C36 1_555 1_555
H36 C36 1_555 1_555
C37 C15 1_555 1_555
C38 C37 1_555 1_555
H37 C38 1_555 1_555
H38 C38 1_555 1_555
H39 C38 1_555 1_555
C39 C37 1_555 1_555
H40 C39 1_555 1_555
H41 C39 1_555 1_555
H42 C39 1_555 1_555
C40 C37 1_555 1_555
H43 C40 1_555 1_555
H44 C40 1_555 1_555
H45 C40 1_555 1_555
C41 C21 1_555 1_555
C42 C41 1_555 1_555
H46 C42 1_555 1_555
H47 C42 1_555 1_555
H48 C42 1_555 1_555
C43 C41 1_555 1_555
H49 C43 1_555 1_555
H50 C43 1_555 1_555
H51 C43 1_555 1_555
C44 C41 1_555 1_555
H52 C44 1_555 1_555
H53 C44 1_555 1_555
H54 C44 1_555 1_555
C45 O4 1_555 1_555
H55 C45 1_555 1_555
H56 C45 1_555 1_555
C46 C45 1_555 1_555
H57 C46 1_555 1_555
H58 C46 1_555 1_555
C47 C46 1_555 1_555
H59 C47 1_555 1_555
H60 C47 1_555 1_555
H61 C47 1_555 1_555
C48 O2 1_555 1_555
H62 C48 1_555 1_555
H63 C48 1_555 1_555
C49 C48 1_555 1_555
H64 C49 1_555 1_555
H65 C49 1_555 1_555
C50 C49 1_555 1_555
H66 C50 1_555 1_555
H67 C50 1_555 1_555
H68 C50 1_555 1_555
C51 O1 1_555 1_555
H69 C51 1_555 1_555
H70 C51 1_555 1_555
C52 C51 1_555 1_555
H71 C52 1_555 1_555
H72 C52 1_555 1_555
C53 C52 1_555 1_555
H73 C53 1_555 1_555
H74 C53 1_555 1_555
C54 S1 1_555 1_555
C55 S2 1_555 1_555
C56 C55 1_555 1_555
H75 C56 1_555 1_555
C57 C56 1_555 1_555
H76 C57 1_555 1_555
C58 C57 1_555 1_555
H77 C58 1_555 1_555
C59 C58 1_555 1_555
H78 C59 1_555 1_555
C60 N2 1_555 1_555
C61 C62 1_555 1_555
C62 H79 1_555 1_555
C63 C62 1_555 1_555
C64 C63 1_555 1_555
H80 C64 1_555 1_555
C65 C64 1_555 1_555
C66 C65 1_555 1_555
H81 C66 1_555 1_555
H82 C66 1_555 1_555
C67 C66 1_555 1_555
C68 C67 1_555 1_555
H83 C68 1_555 1_555
C69 C68 1_555 1_555
C70 C69 1_555 1_555
H84 C70 1_555 1_555
C71 C70 1_555 1_555
C72 C71 1_555 1_555
H85 C72 1_555 1_555
H86 C72 1_555 1_555
C73 C72 1_555 1_555
C74 C73 1_555 1_555
H87 C74 1_555 1_555
C75 C74 1_555 1_555
C76 C75 1_555 1_555
H88 C76 1_555 1_555
C77 C76 1_555 1_555
C78 C77 1_555 1_555
H89 C78 1_555 1_555
H90 C78 1_555 1_555
C79 C78 1_555 1_555
C80 C79 1_555 1_555
H91 C80 1_555 1_555
C81 C80 1_555 1_555
C82 C81 1_555 1_555
H92 C82 1_555 1_555
C83 C82 1_555 1_555
C84 C61 1_555 1_555
H93 C84 1_555 1_555
H94 C84 1_555 1_555
C85 C61 1_555 1_555
C86 C79 1_555 1_555
C87 O8 1_555 1_555
C88 C67 1_555 1_555
C89 C63 1_555 1_555
C90 C89 1_555 1_555
H95 C90 1_555 1_555
H96 C90 1_555 1_555
H97 C90 1_555 1_555
C91 C89 1_555 1_555
H98 C91 1_555 1_555
H99 C91 1_555 1_555
H100 C91 1_555 1_555
C92 C89 1_555 1_555
H101 C92 1_555 1_555
H102 C92 1_555 1_555
H103 C92 1_555 1_555
C93 C81 1_555 1_555
C94 C93 1_555 1_555
H104 C94 1_555 1_555
H105 C94 1_555 1_555
H106 C94 1_555 1_555
C95 C93 1_555 1_555
H107 C95 1_555 1_555
H108 C95 1_555 1_555
H109 C95 1_555 1_555
C96 C93 1_555 1_555
H110 C96 1_555 1_555
H111 C96 1_555 1_555
H112 C96 1_555 1_555
C97 C75 1_555 1_555
C98 C97 1_555 1_555
H113 C98 1_555 1_555
H114 C98 1_555 1_555
H115 C98 1_555 1_555
C99 C97 1_555 1_555
H116 C99 1_555 1_555
H117 C99 1_555 1_555
H118 C99 1_555 1_555
C100 C97 1_555 1_555
H119 C100 1_555 1_555
H120 C100 1_555 1_555
H121 C100 1_555 1_555
C101 C69 1_555 1_555
C102 C101 1_555 1_555
H122 C102 1_555 1_555
H123 C102 1_555 1_555
H124 C102 1_555 1_555
C103 C101 1_555 1_555
H125 C103 1_555 1_555
H126 C103 1_555 1_555
H127 C103 1_555 1_555
C104 C101 1_555 1_555
H128 C104 1_555 1_555
H129 C104 1_555 1_555
H130 C104 1_555 1_555
C105 O7 1_555 1_555
H131 C105 1_555 1_555
H132 C105 1_555 1_555
C106 C105 1_555 1_555
H133 C106 1_555 1_555
H134 C106 1_555 1_555
C107 C106 1_555 1_555
H135 C107 1_555 1_555
H136 C107 1_555 1_555
H137 C107 1_555 1_555
C108 O5 1_555 1_555
H138 C108 1_555 1_555
H139 C108 1_555 1_555
C109 C108 1_555 1_555
H140 C109 1_555 1_555
H141 C109 1_555 1_555
C110 C109 1_555 1_555
H142 C110 1_555 1_555
H143 C110 1_555 1_555
H144 C110 1_555 1_555
C111 O6 1_555 1_555
H145 C111 1_555 1_555
H146 C111 1_555 1_555
C112 C111 1_555 1_555
H147 C112 1_555 1_555
H148 C112 1_555 1_555
C113 C112 1_555 1_555
H149 C113 1_555 1_555
H150 C113 1_555 1_555
C114 S4 1_555 1_555
C115 S3 1_555 1_555
C116 C115 1_555 1_555
H151 C116 1_555 1_555
C117 C116 1_555 1_555
H152 C117 1_555 1_555
C118 C117 1_555 1_555
H153 C118 1_555 1_555
C119 C118 1_555 1_555
H154 C119 1_555 1_555
C120 N1 1_555 1_555
C5 C25 1_555 1_555
C11 C28 1_555 1_555
C13 C27 1_555 1_555
C17 C27 1_555 1_555
C23 C24 1_555 1_555
C23 C26 1_555 1_555
C55 C60 1_555 1_555
C59 C60 1_555 1_555
C65 C85 1_555 1_555
C71 C88 1_555 1_555
C73 C87 1_555 1_555
C77 C87 1_555 1_555
C83 C84 1_555 1_555
C83 C86 1_555 1_555
C115 C120 1_555 1_555
C119 C120 1_555 1_555

#END
