
#######################################################################
#
#                 Cambridge Crystallographic Data Centre
#                                CCDC 
#
#######################################################################
#
# If this CIF has been generated from an entry in the Cambridge 
# Structural Database, then it will include bibliographic, chemical, 
# crystal, experimental, refinement or atomic coordinate data resulting 
# from the CCDC's data processing and validation procedures.
#
#######################################################################

data_MIMDUH
_chemical_formula_moiety         'C48 H42 N2 O4 S4'
_chemical_name_systematic        
25,27-Dihydroxy-26,28-bis(3-benzothiazolylthiapropoxy)calix(4)arene
_symmetry_cell_setting           triclinic
_symmetry_space_group_name_H-M   'P -1'
_symmetry_Int_Tables_number      2
_space_group_name_Hall           '-P 1'
loop_
_symmetry_equiv_pos_site_id
_symmetry_equiv_pos_as_xyz
1 x,y,z
2 -x,-y,-z
_cell_length_a                   10.1846(10)
_cell_length_b                   13.1086(12)
_cell_length_c                   16.5714(16)
_cell_angle_alpha                92.589(2)
_cell_angle_beta                 104.369(2)
_cell_angle_gamma                101.625(2)
_cell_volume                     2088.62
_exptl_crystal_colour            yellow
_exptl_crystal_description       plate
_chemical_melting_point          195.5-196deg.C
_cell_formula_units_Z            2
loop_
_atom_site_label
_atom_site_type_symbol
_atom_site_fract_x
_atom_site_fract_y
_atom_site_fract_z
S1 S 0.30838(11) 0.62021(8) 0.29925(8)
S2 S -0.10858(11) 0.34402(8) 0.33562(6)
S3 S 0.44546(10) 0.79232(8) 0.43493(6)
S4 S -0.25413(12) 0.41525(10) 0.45585(7)
N1 N 0.5320(3) 0.7737(2) 0.30132(18)
N2 N -0.0922(3) 0.5463(3) 0.38864(17)
O1 O 0.4377(2) 0.36157(16) 0.17248(13)
O2 O -0.0317(2) 0.29764(16) 0.11527(12)
O3 O 0.2156(2) 0.25031(16) 0.22039(14)
H1 H 0.2871 0.2756 0.2074
O4 O 0.1907(2) 0.36185(19) 0.04487(13)
H2 H 0.1194 0.3384 0.0586
C1 C 0.5037(3) 0.1970(3) 0.1838(2)
C2 C 0.4831(4) 0.1924(3) 0.2700(2)
H3 H 0.4870 0.2625 0.2933
H4 H 0.5582 0.1668 0.3054
C3 C 0.3471(4) 0.1229(3) 0.2708(2)
C4 C 0.3427(4) 0.0231(3) 0.2966(2)
H5 H 0.4254 0.0006 0.3138
C5 C 0.2211(5) -0.0431(3) 0.2978(2)
H6 H 0.2215 -0.1088 0.3167
C6 C 0.0983(4) -0.0114(3) 0.2706(2)
H7 H 0.0156 -0.0565 0.2713
C7 C 0.0943(4) 0.0858(3) 0.24205(18)
C8 C -0.0415(3) 0.1180(3) 0.20869(19)
H8 H -0.0324 0.1896 0.2307
H9 H -0.1130 0.0740 0.2287
C9 C -0.0872(3) 0.1101(3) 0.1141(2)
C10 C -0.1369(3) 0.0127(3) 0.0678(2)
H10 H -0.1441 -0.0477 0.0953
C11 C -0.1755(4) 0.0046(3) -0.0180(3)
H11 H -0.2098 -0.0609 -0.0482
C12 C -0.1638(4) 0.0923(3) -0.0589(2)
H12 H -0.1899 0.0852 -0.1171
C13 C -0.1144(3) 0.1914(3) -0.0168(2)
C14 C -0.0888(4) 0.2873(3) -0.0632(2)
H13 H -0.0817 0.3493 -0.0267
H14 H -0.1673 0.2831 -0.1114
C15 C 0.0429(4) 0.2977(3) -0.0923(2)
C16 C 0.0357(4) 0.2739(3) -0.1755(2)
H15 H -0.0508 0.2557 -0.2141
C17 C 0.1537(5) 0.2766(3) -0.2030(2)
H16 H 0.1468 0.2609 -0.2594
C18 C 0.2803(5) 0.3026(3) -0.1463(3)
H17 H 0.3595 0.3011 -0.1642
C19 C 0.2940(4) 0.3313(3) -0.0625(2)
C20 C 0.4347(4) 0.3631(3) -0.0006(2)
H18 H 0.4348 0.4224 0.0366
H19 H 0.5037 0.3860 -0.0309
C21 C 0.4772(3) 0.2777(3) 0.0516(3)
C22 C 0.5189(4) 0.1950(4) 0.0181(3)
H20 H 0.5218 0.1923 -0.0376
C23 C 0.5560(4) 0.1172(4) 0.0649(4)
H21 H 0.5878 0.0642 0.0417
C24 C 0.5462(4) 0.1171(3) 0.1465(3)
H22 H 0.5687 0.0623 0.1770
C25 C 0.4757(3) 0.2775(3) 0.1354(2)
C26 C 0.1733(4) 0.3290(3) -0.0373(2)
C27 C -0.0810(3) 0.1984(3) 0.0705(2)
C28 C 0.2208(4) 0.1522(3) 0.24400(19)
C29 C 0.5521(3) 0.4463(3) 0.2143(2)
H23 H 0.5845 0.4884 0.1735
H24 H 0.6285 0.4188 0.2462
C30 C 0.5011(4) 0.5113(3) 0.2714(2)
H25 H 0.5771 0.5686 0.3003
H26 H 0.4738 0.4687 0.3133
C31 C 0.3807(4) 0.5556(3) 0.2277(2)
H27 H 0.3087 0.4995 0.1933
H28 H 0.4111 0.6054 0.1909
C32 C 0.4401(4) 0.7307(3) 0.3388(2)
C33 C 0.6155(4) 0.8637(3) 0.3501(2)
C34 C 0.7234(4) 0.9299(3) 0.3292(2)
H29 H 0.7462 0.9154 0.2795
C35 C 0.7962(5) 1.0168(3) 0.3822(3)
H30 H 0.8691 1.0612 0.3684
C36 C 0.7635(5) 1.0399(3) 0.4560(3)
H31 H 0.8133 1.1001 0.4908
C37 C 0.6585(4) 0.9748(3) 0.4781(2)
H32 H 0.6374 0.9895 0.5283
C38 C 0.5838(4) 0.8867(3) 0.4248(2)
C39 C -0.1381(3) 0.3470(3) 0.1322(2)
H33 H -0.2014 0.2985 0.1551
H34 H -0.1909 0.3680 0.0810
C40 C -0.0670(4) 0.4417(2) 0.1945(2)
H35 H -0.1355 0.4810 0.2010
H36 H 0.0010 0.4864 0.1724
C41 C 0.0054(3) 0.4148(3) 0.2802(2)
H37 H 0.0574 0.4792 0.3142
H38 H 0.0715 0.3734 0.2732
C42 C -0.1431(4) 0.4467(3) 0.39089(19)
C43 C -0.1407(4) 0.6050(4) 0.4424(2)
C44 C -0.1052(5) 0.7133(4) 0.4553(3)
H39 H -0.0459 0.7520 0.4277
C45 C -0.1600(7) 0.7617(5) 0.5097(4)
H40 H -0.1364 0.8344 0.5193
C46 C -0.2487(8) 0.7067(6) 0.5507(3)
H41 H -0.2838 0.7427 0.5871
C47 C -0.2867(5) 0.5986(5) 0.5389(3)
H42 H -0.3467 0.5612 0.5667
C48 C -0.2312(5) 0.5475(4) 0.4833(2)
loop_
_geom_bond_atom_site_label_1
_geom_bond_atom_site_label_2
_geom_bond_site_symmetry_1
_geom_bond_site_symmetry_2
S1 C31 1_555 1_555
S2 C41 1_555 1_555
S3 C32 1_555 1_555
S4 C42 1_555 1_555
N1 C32 1_555 1_555
N2 C42 1_555 1_555
O1 C25 1_555 1_555
O2 C27 1_555 1_555
O3 H1 1_555 1_555
O4 H2 1_555 1_555
C1 C2 1_555 1_555
C2 H3 1_555 1_555
H4 C2 1_555 1_555
C3 C2 1_555 1_555
C4 C3 1_555 1_555
H5 C4 1_555 1_555
C5 C4 1_555 1_555
H6 C5 1_555 1_555
C6 C5 1_555 1_555
H7 C6 1_555 1_555
C7 C6 1_555 1_555
C8 C7 1_555 1_555
H8 C8 1_555 1_555
H9 C8 1_555 1_555
C9 C8 1_555 1_555
C10 C9 1_555 1_555
H10 C10 1_555 1_555
C11 C10 1_555 1_555
H11 C11 1_555 1_555
C12 C11 1_555 1_555
H12 C12 1_555 1_555
C13 C12 1_555 1_555
C14 C13 1_555 1_555
H13 C14 1_555 1_555
H14 C14 1_555 1_555
C15 C14 1_555 1_555
C16 C15 1_555 1_555
H15 C16 1_555 1_555
C17 C16 1_555 1_555
H16 C17 1_555 1_555
C18 C17 1_555 1_555
H17 C18 1_555 1_555
C19 C18 1_555 1_555
C20 C19 1_555 1_555
H18 C20 1_555 1_555
H19 C20 1_555 1_555
C21 C20 1_555 1_555
C22 C21 1_555 1_555
H20 C22 1_555 1_555
C23 C22 1_555 1_555
H21 C23 1_555 1_555
C24 C1 1_555 1_555
H22 C24 1_555 1_555
C25 C1 1_555 1_555
C26 O4 1_555 1_555
C27 C9 1_555 1_555
C28 O3 1_555 1_555
C29 O1 1_555 1_555
H23 C29 1_555 1_555
H24 C29 1_555 1_555
C30 C29 1_555 1_555
H25 C30 1_555 1_555
H26 C30 1_555 1_555
C31 C30 1_555 1_555
H27 C31 1_555 1_555
H28 C31 1_555 1_555
C32 S1 1_555 1_555
C33 N1 1_555 1_555
C34 C33 1_555 1_555
H29 C34 1_555 1_555
C35 C34 1_555 1_555
H30 C35 1_555 1_555
C36 C35 1_555 1_555
H31 C36 1_555 1_555
C37 C36 1_555 1_555
H32 C37 1_555 1_555
C38 S3 1_555 1_555
C39 O2 1_555 1_555
H33 C39 1_555 1_555
H34 C39 1_555 1_555
C40 C39 1_555 1_555
H35 C40 1_555 1_555
H36 C40 1_555 1_555
C41 C40 1_555 1_555
H37 C41 1_555 1_555
H38 C41 1_555 1_555
C42 S2 1_555 1_555
C43 N2 1_555 1_555
C44 C43 1_555 1_555
H39 C44 1_555 1_555
C45 C44 1_555 1_555
H40 C45 1_555 1_555
C46 C45 1_555 1_555
H41 C46 1_555 1_555
C47 C46 1_555 1_555
H42 C47 1_555 1_555
C48 S4 1_555 1_555
C3 C28 1_555 1_555
C7 C28 1_555 1_555
C13 C27 1_555 1_555
C15 C26 1_555 1_555
C19 C26 1_555 1_555
C21 C25 1_555 1_555
C23 C24 1_555 1_555
C33 C38 1_555 1_555
C37 C38 1_555 1_555
C43 C48 1_555 1_555
C47 C48 1_555 1_555

#END
