
#######################################################################
#
#                 Cambridge Crystallographic Data Centre
#                                CCDC 
#
#######################################################################
#
# If this CIF has been generated from an entry in the Cambridge 
# Structural Database, then it will include bibliographic, chemical, 
# crystal, experimental, refinement or atomic coordinate data resulting 
# from the CCDC's data processing and validation procedures.
#
#######################################################################

data_MIMDOB
_chemical_formula_moiety         'C60 H77 N1 O4 S2'
_chemical_name_systematic        
25-Hydroxy-26,28-di-n-propoxy-27-(3-benzothiazolylthiapropoxy)-5,11,17,23-tetra-t-butylcalix(4)arene
_symmetry_cell_setting           monoclinic
_symmetry_space_group_name_H-M   'P 21/n'
_symmetry_Int_Tables_number      14
_space_group_name_Hall           '-P 2yn'
loop_
_symmetry_equiv_pos_site_id
_symmetry_equiv_pos_as_xyz
1 x,y,z
2 1/2+x,1/2-y,1/2+z
3 -x,-y,-z
4 1/2-x,1/2+y,1/2-z
_cell_length_a                   10.1884(5)
_cell_length_b                   40.0749(18)
_cell_length_c                   13.4198(6)
_cell_angle_alpha                90
_cell_angle_beta                 95.3650(10)
_cell_angle_gamma                90
_cell_volume                     5455.29
_exptl_crystal_colour            colorless
_chemical_melting_point          149-150deg.C
_cell_formula_units_Z            4
_exptl_crystal_recrystallization_method dichloromethane/methanol
loop_
_atom_site_label
_atom_site_type_symbol
_atom_site_fract_x
_atom_site_fract_y
_atom_site_fract_z
S1 S 0.50165(13) 0.02038(3) 0.22025(8)
S2 S 0.30796(12) 0.07046(3) 0.27417(10)
O1 O 0.2360(2) 0.17743(5) 0.29931(17)
O2 O -0.1089(3) 0.18703(6) 0.25200(16)
N1 N 0.4496(3) 0.07331(8) 0.1134(3)
O3 O -0.1202(2) 0.14185(5) 0.41256(16)
H1 H -0.0579 0.1509 0.4449
O4 O 0.0863(2) 0.17507(5) 0.52375(17)
C1 C 0.1223(3) 0.22810(7) 0.2456(2)
C2 C 0.0875(4) 0.21666(8) 0.1390(2)
H2 H 0.1670 0.2181 0.1047
H3 H 0.0255 0.2327 0.1074
C3 C 0.0295(4) 0.18218(8) 0.1185(2)
C4 C 0.0708(4) 0.16342(8) 0.0399(2)
H4 H 0.1351 0.1723 0.0028
C5 C 0.0199(3) 0.13198(8) 0.0146(2)
C6 C -0.0739(3) 0.11956(8) 0.0730(2)
H5 H -0.1087 0.0985 0.0582
C7 C -0.1185(3) 0.13696(8) 0.1526(2)
C8 C -0.1351(3) 0.09781(8) 0.2936(2)
C9 C -0.1067(3) 0.06523(8) 0.2700(2)
H6 H -0.1434 0.0566 0.2094
C10 C -0.0259(3) 0.04478(7) 0.3324(2)
C11 C 0.0248(3) 0.05836(8) 0.4232(2)
H7 H 0.0798 0.0453 0.4666
C12 C -0.0033(3) 0.09075(7) 0.4519(2)
C13 C 0.0527(3) 0.10433(8) 0.5525(2)
H8 H -0.0089 0.1203 0.5761
H9 H 0.0621 0.0862 0.6005
C14 C 0.1850(3) 0.12106(8) 0.5478(2)
C15 C 0.2997(4) 0.10196(8) 0.5592(2)
H10 H 0.2922 0.0793 0.5728
C16 C 0.4234(4) 0.11482(9) 0.5513(3)
C17 C 0.4295(3) 0.14850(9) 0.5270(3)
H11 H 0.5114 0.1578 0.5189
C18 C 0.3189(3) 0.16894(8) 0.5143(2)
C19 C 0.3344(4) 0.20596(8) 0.4885(3)
H12 H 0.3345 0.2184 0.5505
H13 H 0.4214 0.2086 0.4656
C20 C 0.2376(3) 0.22310(7) 0.4124(2)
C21 C 0.1921(3) 0.25440(8) 0.4341(2)
H14 H 0.2159 0.2633 0.4972
C22 C 0.1119(3) 0.27347(8) 0.3657(2)
C23 C 0.0806(4) 0.25981(8) 0.2723(2)
H15 H 0.0294 0.2723 0.2249
C24 C -0.0677(3) 0.16882(8) 0.1723(2)
C25 C -0.0842(3) 0.11022(7) 0.3864(2)
C26 C 0.1981(3) 0.15509(8) 0.5296(2)
C27 C 0.2003(3) 0.21001(7) 0.3174(2)
C28 C 0.3419(4) 0.17221(10) 0.2405(3)
H16 H 0.4142 0.1872 0.2614
H17 H 0.3142 0.1764 0.1705
C29 C 0.3849(4) 0.13619(9) 0.2556(3)
H18 H 0.4527 0.1312 0.2117
H19 H 0.4227 0.1332 0.3241
C30 C 0.2719(4) 0.11227(9) 0.2344(3)
H20 H 0.2462 0.1122 0.1629
H21 H 0.1973 0.1203 0.2675
C31 C 0.4213(4) 0.05788(9) 0.1931(3)
C32 C 0.5795(4) 0.02492(11) 0.1121(3)
C33 C 0.6662(5) 0.00374(14) 0.0707(4)
H22 H 0.6898 -0.0164 0.1015
C34 C 0.7160(5) 0.01248(16) -0.0142(5)
H23 H 0.7749 -0.0018 -0.0418
C35 C 0.6825(6) 0.04165(17) -0.0610(4)
H24 H 0.7195 0.0472 -0.1196
C36 C 0.5925(6) 0.06358(13) -0.0220(4)
H25 H 0.5680 0.0834 -0.0545
C37 C 0.5415(4) 0.05470(10) 0.0660(3)
C38 C -0.2129(3) 0.12033(8) 0.2184(2)
H26 H -0.2775 0.1073 0.1774
H27 H -0.2594 0.1372 0.2533
C39 C -0.0020(4) 0.00842(8) 0.3026(3)
C40 C 0.0646(4) 0.11135(9) -0.0729(3)
C41 C -0.1286(4) -0.01142(9) 0.3127(3)
H28 H -0.1154 -0.0343 0.2944
H29 H -0.1993 -0.0020 0.2693
H30 H -0.1503 -0.0104 0.3807
C42 C 0.0650(4) 0.30845(8) 0.3946(3)
C43 C 0.0326(5) 0.00678(10) 0.1946(3)
H31 H 0.1117 0.0193 0.1882
H32 H -0.0383 0.0161 0.1511
H33 H 0.0461 -0.0161 0.1764
C44 C 0.1094(4) -0.00782(9) 0.3687(3)
H34 H 0.1896 0.0044 0.3634
H35 H 0.1205 -0.0304 0.3475
H36 H 0.0885 -0.0076 0.4370
C45 C -0.0132(6) 0.30583(12) 0.4867(4)
H37 H -0.0424 0.3276 0.5044
H38 H 0.0422 0.2966 0.5417
H39 H -0.0883 0.2916 0.4716
C46 C 0.5477(4) 0.09338(11) 0.5695(4)
C47 C -0.0254(5) 0.32435(10) 0.3103(3)
H40 H 0.0222 0.3273 0.2525
H41 H -0.0551 0.3457 0.3319
H42 H -0.1000 0.3101 0.2937
C48 C 0.0991(6) 0.07550(11) -0.0366(4)
H43 H 0.1731 0.0762 0.0132
H44 H 0.1207 0.0622 -0.0922
H45 H 0.0247 0.0659 -0.0081
C49 C 0.0676(4) 0.19201(12) 0.6140(4)
H46 H 0.1350 0.2090 0.6260
H47 H 0.0774 0.1763 0.6692
C50 C 0.1848(5) 0.33051(10) 0.4178(4)
H48 H 0.2322 0.3323 0.3595
H49 H 0.2411 0.3209 0.4716
H50 H 0.1571 0.3523 0.4371
C51 C 0.1853(6) 0.12534(15) -0.1133(4)
H51 H 0.1676 0.1477 -0.1369
H52 H 0.2088 0.1117 -0.1676
H53 H 0.2566 0.1257 -0.0613
C52 C 0.6142(7) 0.0910(2) 0.4711(6)
H54 H 0.5728 0.1064 0.4232
H55 H 0.6052 0.0687 0.4451
H56 H 0.7061 0.0964 0.4837
C53 C -0.0603(7) 0.2074(2) 0.6106(6)
C54 C 0.5124(8) 0.05606(19) 0.5839(11)
H57 H 0.4938 0.0457 0.5197
H58 H 0.4362 0.0545 0.6207
H59 H 0.5853 0.0449 0.6203
C55 C -0.0494(5) 0.10837(13) -0.1542(3)
H60 H -0.0730 0.1302 -0.1797
H61 H -0.1238 0.0984 -0.1267
H62 H -0.0232 0.0946 -0.2076
C56 C 0.6358(13) 0.1068(4) 0.6521(11)
H63 H 0.6898 0.1240 0.6273
H64 H 0.6910 0.0892 0.6811
H65 H 0.5845 0.1160 0.7019
C57 C -0.2141(6) 0.20870(12) 0.2294(3)
H66 H -0.2912 0.1966 0.2012
H67 H -0.1916 0.2254 0.1815
C58 C -0.2414(9) 0.2255(3) 0.3304(6)
C59 C -0.1777(14) 0.1920(4) 0.6129(12)
C61 C -0.3407(18) 0.2460(3) 0.3375(10)
C60? C -0.0821(13) 0.2208(3) 0.7102(12)
C62? C -0.3164(12) 0.2106(4) 0.3723(14)
C63? C 0.548(3) 0.0685(6) 0.4968(19)
H68? H 0.5478 0.0786 0.4319
H69? H 0.4709 0.0548 0.4987
H70? H 0.6255 0.0550 0.5096
C64? C 0.542(2) 0.0791(5) 0.6811(14)
H71? H 0.5663 0.0964 0.7288
H72? H 0.6032 0.0608 0.6918
H73? H 0.4548 0.0714 0.6894
C65? C 0.669(3) 0.1153(6) 0.5836(18)
H74? H 0.6841 0.1256 0.5211
H75? H 0.7444 0.1019 0.6063
H76? H 0.6567 0.1322 0.6324
loop_
_geom_bond_atom_site_label_1
_geom_bond_atom_site_label_2
_geom_bond_site_symmetry_1
_geom_bond_site_symmetry_2
S1 C31 1_555 1_555
S2 C30 1_555 1_555
O1 C27 1_555 1_555
O2 C24 1_555 1_555
N1 C31 1_555 1_555
O3 H1 1_555 1_555
O4 C26 1_555 1_555
C1 C2 1_555 1_555
C2 H2 1_555 1_555
H3 C2 1_555 1_555
C3 C2 1_555 1_555
C4 C3 1_555 1_555
H4 C4 1_555 1_555
C5 C4 1_555 1_555
C6 C5 1_555 1_555
H5 C6 1_555 1_555
C7 C6 1_555 1_555
C8 C9 1_555 1_555
C9 H6 1_555 1_555
C10 C9 1_555 1_555
C11 C10 1_555 1_555
H7 C11 1_555 1_555
C12 C11 1_555 1_555
C13 C12 1_555 1_555
H8 C13 1_555 1_555
H9 C13 1_555 1_555
C14 C13 1_555 1_555
C15 C14 1_555 1_555
H10 C15 1_555 1_555
C16 C15 1_555 1_555
C17 C16 1_555 1_555
H11 C17 1_555 1_555
C18 C17 1_555 1_555
C19 C18 1_555 1_555
H12 C19 1_555 1_555
H13 C19 1_555 1_555
C20 C19 1_555 1_555
C21 C20 1_555 1_555
H14 C21 1_555 1_555
C22 C21 1_555 1_555
C23 C1 1_555 1_555
H15 C23 1_555 1_555
C24 C3 1_555 1_555
C25 O3 1_555 1_555
C26 C14 1_555 1_555
C27 C1 1_555 1_555
C28 O1 1_555 1_555
H16 C28 1_555 1_555
H17 C28 1_555 1_555
C29 C28 1_555 1_555
H18 C29 1_555 1_555
H19 C29 1_555 1_555
C30 C29 1_555 1_555
H20 C30 1_555 1_555
H21 C30 1_555 1_555
C31 S2 1_555 1_555
C32 S1 1_555 1_555
C33 C32 1_555 1_555
H22 C33 1_555 1_555
C34 C33 1_555 1_555
H23 C34 1_555 1_555
C35 C34 1_555 1_555
H24 C35 1_555 1_555
C36 C35 1_555 1_555
H25 C36 1_555 1_555
C37 N1 1_555 1_555
C38 C7 1_555 1_555
H26 C38 1_555 1_555
H27 C38 1_555 1_555
C39 C10 1_555 1_555
C40 C5 1_555 1_555
C41 C39 1_555 1_555
H28 C41 1_555 1_555
H29 C41 1_555 1_555
H30 C41 1_555 1_555
C42 C22 1_555 1_555
C43 C39 1_555 1_555
H31 C43 1_555 1_555
H32 C43 1_555 1_555
H33 C43 1_555 1_555
C44 C39 1_555 1_555
H34 C44 1_555 1_555
H35 C44 1_555 1_555
H36 C44 1_555 1_555
C45 C42 1_555 1_555
H37 C45 1_555 1_555
H38 C45 1_555 1_555
H39 C45 1_555 1_555
C46 C16 1_555 1_555
C47 C42 1_555 1_555
H40 C47 1_555 1_555
H41 C47 1_555 1_555
H42 C47 1_555 1_555
C48 C40 1_555 1_555
H43 C48 1_555 1_555
H44 C48 1_555 1_555
H45 C48 1_555 1_555
C49 O4 1_555 1_555
H46 C49 1_555 1_555
H47 C49 1_555 1_555
C50 C42 1_555 1_555
H48 C50 1_555 1_555
H49 C50 1_555 1_555
H50 C50 1_555 1_555
C51 C40 1_555 1_555
H51 C51 1_555 1_555
H52 C51 1_555 1_555
H53 C51 1_555 1_555
C52 C46 1_555 1_555
H54 C52 1_555 1_555
H55 C52 1_555 1_555
H56 C52 1_555 1_555
C53 C49 1_555 1_555
C54 C46 1_555 1_555
H57 C54 1_555 1_555
H58 C54 1_555 1_555
H59 C54 1_555 1_555
C55 C40 1_555 1_555
H60 C55 1_555 1_555
H61 C55 1_555 1_555
H62 C55 1_555 1_555
C56 C46 1_555 1_555
H63 C56 1_555 1_555
H64 C56 1_555 1_555
H65 C56 1_555 1_555
C57 O2 1_555 1_555
H66 C57 1_555 1_555
H67 C57 1_555 1_555
C58 C57 1_555 1_555
C59 C53 1_555 1_555
C61 C58 1_555 1_555
C7 C24 1_555 1_555
C8 C38 1_555 1_555
C8 C25 1_555 1_555
C12 C25 1_555 1_555
C18 C26 1_555 1_555
C20 C27 1_555 1_555
C22 C23 1_555 1_555
C32 C37 1_555 1_555
C36 C37 1_555 1_555

#END
