
#######################################################################
#
#                 Cambridge Crystallographic Data Centre
#                                CCDC 
#
#######################################################################
#
# If this CIF has been generated from an entry in the Cambridge 
# Structural Database, then it will include bibliographic, chemical, 
# crystal, experimental, refinement or atomic coordinate data resulting 
# from the CCDC's data processing and validation procedures.
#
#######################################################################

data_MIMGOH
_chemical_formula_moiety         'C16 H20 N6'
_chemical_name_systematic        
2,2'-[hydrazine-1,2-diylidenebis(eth-1-yl-1-ylidene)]bis(3-ethylpyrazine)
_symmetry_cell_setting           monoclinic
_symmetry_space_group_name_H-M   'I 2/a'
_symmetry_Int_Tables_number      15
_space_group_name_Hall           '-I 2ya'
loop_
_symmetry_equiv_pos_site_id
_symmetry_equiv_pos_as_xyz
1 x,y,z
2 1/2-x,y,-z
3 1/2+x,1/2+y,1/2+z
4 -x,1/2+y,1/2-z
5 -x,-y,-z
6 1/2+x,-y,z
7 1/2-x,1/2-y,1/2-z
8 x,1/2-y,1/2+z
_cell_length_a                   18.301(2)
_cell_length_b                   3.9213(5)
_cell_length_c                   21.895(4)
_cell_angle_alpha                90
_cell_angle_beta                 96.673(2)
_cell_angle_gamma                90
_cell_volume                     1560.62
_exptl_crystal_colour            colorless
_exptl_crystal_description       block
_cell_formula_units_Z            4
loop_
_atom_site_label
_atom_site_type_symbol
_atom_site_fract_x
_atom_site_fract_y
_atom_site_fract_z
C1 C 0.31764(9) 0.0701(5) 0.13013(7)
N1 N 0.27875(7) -0.0022(4) 0.02427(6)
N2 N 0.43921(8) 0.0723(5) 0.18106(7)
C2 C 0.26115(9) 0.1093(5) 0.07555(7)
C3 C 0.39350(9) 0.1276(5) 0.13011(7)
N3 N 0.28953(8) -0.0313(5) 0.18095(6)
C4 C 0.42689(9) 0.2589(5) 0.07486(8)
H1 H 0.397010 0.445859 0.056901
H2 H 0.425441 0.078656 0.044405
C5 C 0.33697(11) -0.0884(6) 0.23104(9)
H3 H 0.319330 -0.162049 0.266949
C6 C 0.41067(11) -0.0409(6) 0.23058(9)
H4 H 0.442109 -0.088973 0.266015
C7 C 0.50580(10) 0.3817(6) 0.08907(9)
H5 H 0.523373 0.461255 0.051965
H6 H 0.507703 0.564564 0.118375
H7 H 0.536166 0.196944 0.105865
C8 C 0.18836(9) 0.2606(6) 0.08520(9)
H8 H 0.188758 0.324659 0.127557
H9 H 0.179370 0.458515 0.059631
H10 H 0.150219 0.095649 0.074615
C1A C 0.18236(9) 0.0701(5) -0.13013(7)
N1A N 0.22125(7) -0.0022(4) -0.02427(6)
N2A N 0.06079(8) 0.0723(5) -0.18106(7)
C2A C 0.23885(9) 0.1093(5) -0.07555(7)
C3A C 0.10650(9) 0.1276(5) -0.13011(7)
N3A N 0.21047(8) -0.0313(5) -0.18095(6)
C4A C 0.07311(9) 0.2589(5) -0.07486(8)
H1A H 0.102990 0.445859 -0.056901
H2A H 0.074559 0.078656 -0.044405
C5A C 0.16303(11) -0.0884(6) -0.23104(9)
H3A H 0.180670 -0.162049 -0.266949
C6A C 0.08933(11) -0.0409(6) -0.23058(9)
H4A H 0.057891 -0.088973 -0.266015
C7A C -0.00580(10) 0.3817(6) -0.08907(9)
H5A H -0.023373 0.461255 -0.051965
H6A H -0.007703 0.564564 -0.118375
H7A H -0.036166 0.196944 -0.105865
C8A C 0.31164(9) 0.2606(6) -0.08520(9)
H8A H 0.311242 0.324659 -0.127557
H9A H 0.320630 0.458515 -0.059631
H10A H 0.349781 0.095649 -0.074615
loop_
_geom_bond_atom_site_label_1
_geom_bond_atom_site_label_2
_geom_bond_site_symmetry_1
_geom_bond_site_symmetry_2
C1 C2 1_555 1_555
N1 C2 1_555 1_555
N2 C3 1_555 1_555
C2 C8 1_555 1_555
C3 C1 1_555 1_555
N3 C1 1_555 1_555
C4 C3 1_555 1_555
H1 C4 1_555 1_555
H2 C4 1_555 1_555
C5 N3 1_555 1_555
H3 C5 1_555 1_555
C6 N2 1_555 1_555
H4 C6 1_555 1_555
C7 C4 1_555 1_555
H5 C7 1_555 1_555
H6 C7 1_555 1_555
H7 C7 1_555 1_555
C8 H8 1_555 1_555
H9 C8 1_555 1_555
H10 C8 1_555 1_555
C1A C2A 1_555 1_555
N1A N1 1_555 1_555
N2A C3A 1_555 1_555
C2A N1A 1_555 1_555
C3A C1A 1_555 1_555
N3A C1A 1_555 1_555
C4A C3A 1_555 1_555
H1A C4A 1_555 1_555
H2A C4A 1_555 1_555
C5A N3A 1_555 1_555
H3A C5A 1_555 1_555
C6A N2A 1_555 1_555
H4A C6A 1_555 1_555
C7A C4A 1_555 1_555
H5A C7A 1_555 1_555
H6A C7A 1_555 1_555
H7A C7A 1_555 1_555
C8A C2A 1_555 1_555
H8A C8A 1_555 1_555
H9A C8A 1_555 1_555
H10A C8A 1_555 1_555
C5 C6 1_555 1_555
C5A C6A 1_555 1_555

#END
