
#######################################################################
#
#                 Cambridge Crystallographic Data Centre
#                                CCDC 
#
#######################################################################
#
# If this CIF has been generated from an entry in the Cambridge 
# Structural Database, then it will include bibliographic, chemical, 
# crystal, experimental, refinement or atomic coordinate data resulting 
# from the CCDC's data processing and validation procedures.
#
#######################################################################

data_MIMHOI
_chemical_formula_moiety         'C8 H7 N3 O1'
_chemical_name_systematic        2-(5-methyl-1,3,4-oxadiazol-2-yl)pyridine
_symmetry_cell_setting           monoclinic
_symmetry_space_group_name_H-M   'P 21/c'
_symmetry_Int_Tables_number      14
_space_group_name_Hall           '-P 2ybc'
loop_
_symmetry_equiv_pos_site_id
_symmetry_equiv_pos_as_xyz
1 x,y,z
2 -x,1/2+y,1/2-z
3 -x,-y,-z
4 x,1/2-y,1/2+z
_cell_length_a                   7.863(8)
_cell_length_b                   10.696(11)
_cell_length_c                   9.389(10)
_cell_angle_alpha                90
_cell_angle_beta                 99.344(13)
_cell_angle_gamma                90
_cell_volume                     779.162
_exptl_crystal_colour            colorless
_exptl_crystal_description       rod
_cell_formula_units_Z            4
loop_
_atom_site_label
_atom_site_type_symbol
_atom_site_fract_x
_atom_site_fract_y
_atom_site_fract_z
C1 C 0.8205(2) 0.63249(14) 0.08604(15)
H1 H 0.8984 0.5920 0.1612
H2 H 0.8513 0.6119 -0.0060
H3 H 0.7050 0.6047 0.0890
C2 C 0.83067(16) 0.76866(13) 0.10725(12)
C3 C 0.78690(16) 0.96042(11) 0.05322(13)
C4 C 0.72270(15) 1.07033(11) -0.03248(12)
C5 C 0.78104(19) 1.18801(12) 0.01209(15)
H4 H 0.8626 1.1986 0.0948
C6 C 0.7152(2) 1.28909(13) -0.06908(18)
H5 H 0.7516 1.3696 -0.0416
C7 C 0.5956(2) 1.27054(14) -0.19080(18)
H6 H 0.5491 1.3377 -0.2470
C8 C 0.54648(19) 1.15034(14) -0.22712(15)
H7 H 0.4658 1.1381 -0.3100
N1 N 0.90665(16) 0.83124(11) 0.21575(12)
N2 N 0.87745(15) 0.95813(10) 0.18057(12)
N3 N 0.60695(15) 1.04908(9) -0.15117(11)
O1 O 0.75102(11) 0.84401(7) -0.00085(8)
loop_
_geom_bond_atom_site_label_1
_geom_bond_atom_site_label_2
_geom_bond_site_symmetry_1
_geom_bond_site_symmetry_2
C1 H1 1_555 1_555
H2 C1 1_555 1_555
H3 C1 1_555 1_555
C2 C1 1_555 1_555
C3 C4 1_555 1_555
C4 C5 1_555 1_555
C5 H4 1_555 1_555
C6 C5 1_555 1_555
H5 C6 1_555 1_555
C7 C6 1_555 1_555
H6 C7 1_555 1_555
C8 C7 1_555 1_555
H7 C8 1_555 1_555
N1 C2 1_555 1_555
N2 C3 1_555 1_555
N3 C4 1_555 1_555
O1 C2 1_555 1_555
C3 O1 1_555 1_555
C8 N3 1_555 1_555
N1 N2 1_555 1_555

#END
