
#######################################################################
#
#                 Cambridge Crystallographic Data Centre
#                                CCDC 
#
#######################################################################
#
# If this CIF has been generated from an entry in the Cambridge 
# Structural Database, then it will include bibliographic, chemical, 
# crystal, experimental, refinement or atomic coordinate data resulting 
# from the CCDC's data processing and validation procedures.
#
#######################################################################

data_MIMLUQ
_chemical_formula_moiety         'C20 H20 N2 O5,0.5(C2 H6 O2)'
_chemical_name_systematic        
"Methyl 2-amino-5-oxo-7,7-dimethylspiro((4H)-5,6,7,8-tetrahydrochromene-4,3'-(3'H)-indol)-(1'H)-2'-one-3-carboxylate ethane-1,2-diol solvate"
_symmetry_cell_setting           monoclinic
_symmetry_space_group_name_H-M   'P 21/n'
_symmetry_Int_Tables_number      14
_space_group_name_Hall           '-P 2yn'
loop_
_symmetry_equiv_pos_site_id
_symmetry_equiv_pos_as_xyz
1 x,y,z
2 1/2-x,1/2+y,1/2-z
3 -x,-y,-z
4 1/2+x,1/2-y,1/2+z
_cell_length_a                   8.5465(13)
_cell_length_b                   11.8483(17)
_cell_length_c                   18.841(3)
_cell_angle_alpha                90
_cell_angle_beta                 98.952(3)
_cell_angle_gamma                90
_cell_volume                     1884.63
_exptl_crystal_colour            colorless
_exptl_crystal_description       block
_chemical_melting_point          '255-256 deg.C'
_cell_formula_units_Z            4
loop_
_atom_site_label
_atom_site_type_symbol
_atom_site_fract_x
_atom_site_fract_y
_atom_site_fract_z
O1 O 0.4170(2) 0.66579(16) 0.24549(10)
O2 O 0.0738(2) 0.56919(17) 0.36940(10)
O3 O 0.1641(3) 0.70272(19) 0.44962(11)
O4 O 0.2311(2) 0.93997(17) 0.37126(10)
O5 O 0.6325(3) 0.9570(2) 0.40110(12)
N1 N 0.2216(3) 0.5482(2) 0.25654(13)
H2 H 0.1457 0.5189 0.2773
H3 H 0.2408 0.5210 0.2153
N2 N 0.3760(3) 0.89424(19) 0.48046(12)
H4 H 0.3445 0.9496 0.5060
C1 C 0.3074(3) 0.6336(2) 0.28745(14)
C2 C 0.2928(3) 0.6854(2) 0.35114(14)
C3 C 0.4099(3) 0.7743(2) 0.38422(13)
C4 C 0.5117(3) 0.8116(2) 0.32858(13)
C5 C 0.5093(3) 0.7585(2) 0.26505(13)
C6 C 0.1682(3) 0.6457(2) 0.38852(14)
C7 C 0.0401(5) 0.6716(5) 0.4897(2)
H5 H -0.0630 0.6792 0.4590
H6 H 0.0438 0.7212 0.5316
H7 H 0.0551 0.5932 0.5059
C8 C 0.3256(3) 0.8803(2) 0.40974(14)
C9 C 0.4836(3) 0.8112(2) 0.50880(14)
C10 C 0.5574(4) 0.7976(3) 0.57915(15)
H8 H 0.5418 0.8499 0.6156
C11 C 0.6551(4) 0.7043(3) 0.59403(17)
H9 H 0.7074 0.6925 0.6417
C12 C 0.6779(4) 0.6285(3) 0.54120(18)
H10 H 0.7445 0.5649 0.5531
C13 C 0.6043(3) 0.6439(3) 0.47015(16)
H11 H 0.6204 0.5918 0.4337
C14 C 0.5080(3) 0.7364(2) 0.45458(14)
C15 C 0.6189(3) 0.9087(2) 0.34339(14)
C16 C 0.7057(3) 0.9510(2) 0.28509(15)
H12 H 0.8036 0.9896 0.3078
H13 H 0.6387 1.0077 0.2562
C17 C 0.7508(3) 0.8593(2) 0.23444(14)
C18 C 0.6012(3) 0.7911(2) 0.20710(14)
H14 H 0.5323 0.8362 0.1706
H15 H 0.6319 0.7218 0.1833
C19 C 0.8789(4) 0.7832(3) 0.27439(18)
H16 H 0.8376 0.7445 0.3135
H17 H 0.9709 0.8290 0.2942
H18 H 0.9107 0.7272 0.2411
C20 C 0.8108(4) 0.9162(3) 0.17105(16)
H19 H 0.8341 0.8586 0.1369
H20 H 0.9073 0.9589 0.1885
H21 H 0.7294 0.9676 0.1471
O6 O 0.5082(8) 0.5772(6) 0.0786(3)
H1 H 0.4410 0.5402 0.0970
C21 C 0.4847(10) 0.5611(6) 0.0079(4)
H22 H 0.5570 0.6101 -0.0146
H23 H 0.3744 0.5813 -0.0124
O6B O 0.4918(8) 0.4228(6) -0.0786(3)
H1B H 0.5590 0.4598 -0.0970
C21B C 0.5153(10) 0.4389(6) -0.0079(4)
H22B H 0.4430 0.3899 0.0146
H23B H 0.6256 0.4187 0.0124
loop_
_geom_bond_atom_site_label_1
_geom_bond_atom_site_label_2
_geom_bond_site_symmetry_1
_geom_bond_site_symmetry_2
O1 C1 1_555 1_555
O2 C6 1_555 1_555
O3 C6 1_555 1_555
O4 C8 1_555 1_555
O5 C15 1_555 1_555
O6 H1 1_555 1_555
N1 H2 1_555 1_555
H3 N1 1_555 1_555
N2 H4 1_555 1_555
C1 N1 1_555 1_555
C2 C1 1_555 1_555
C3 C2 1_555 1_555
C4 C3 1_555 1_555
C5 O1 1_555 1_555
C6 C2 1_555 1_555
C7 O3 1_555 1_555
H5 C7 1_555 1_555
H6 C7 1_555 1_555
H7 C7 1_555 1_555
C8 N2 1_555 1_555
C9 N2 1_555 1_555
C10 C9 1_555 1_555
H8 C10 1_555 1_555
C11 C10 1_555 1_555
H9 C11 1_555 1_555
C12 C11 1_555 1_555
H10 C12 1_555 1_555
C13 C12 1_555 1_555
H11 C13 1_555 1_555
C14 C3 1_555 1_555
C15 C4 1_555 1_555
C16 C15 1_555 1_555
H12 C16 1_555 1_555
H13 C16 1_555 1_555
C17 C16 1_555 1_555
C18 C5 1_555 1_555
H14 C18 1_555 1_555
H15 C18 1_555 1_555
C19 C17 1_555 1_555
H16 C19 1_555 1_555
H17 C19 1_555 1_555
H18 C19 1_555 1_555
C20 C17 1_555 1_555
H19 C20 1_555 1_555
H20 C20 1_555 1_555
H21 C20 1_555 1_555
C21 O6 1_555 1_555
H22 C21 1_555 1_555
H23 C21 1_555 1_555
O6B H1B 1_555 1_555
C21B C21 1_555 1_555
H22B C21B 1_555 1_555
H23B C21B 1_555 1_555
C3 C8 1_555 1_555
C4 C5 1_555 1_555
C9 C14 1_555 1_555
C13 C14 1_555 1_555
C17 C18 1_555 1_555
O6B C21B 1_555 1_555

#END
