
#######################################################################
#
#                 Cambridge Crystallographic Data Centre
#                                CCDC 
#
#######################################################################
#
# If this CIF has been generated from an entry in the Cambridge 
# Structural Database, then it will include bibliographic, chemical, 
# crystal, experimental, refinement or atomic coordinate data resulting 
# from the CCDC's data processing and validation procedures.
#
#######################################################################

data_MIMNAY
_chemical_formula_moiety         'C26 H23 N1 O5 S1'
_chemical_name_systematic        
5-Methyl-2,3-methylenedioxy-6a-(4-toluenesulfonyl)-6a,7,10,10a-tetrahydrobenzo(c)phenanthridin-6(5H)-one
_symmetry_cell_setting           triclinic
_symmetry_space_group_name_H-M   'P -1'
_symmetry_Int_Tables_number      2
_space_group_name_Hall           '-P 1'
loop_
_symmetry_equiv_pos_site_id
_symmetry_equiv_pos_as_xyz
1 x,y,z
2 -x,-y,-z
_cell_length_a                   7.1104(8)
_cell_length_b                   9.9764(11)
_cell_length_c                   15.6451(17)
_cell_angle_alpha                83.786(2)
_cell_angle_beta                 86.470(2)
_cell_angle_gamma                73.590(2)
_cell_volume                     1057.78
_exptl_crystal_colour            colorless
_chemical_melting_point          '203.2-205.1 deg.C'
_cell_formula_units_Z            2
_exptl_crystal_recrystallization_method 'n-hexane/ethyl acetate'
loop_
_atom_site_label
_atom_site_type_symbol
_atom_site_fract_x
_atom_site_fract_y
_atom_site_fract_z
S1 S 0.36268(8) 0.77098(6) 0.34686(3)
O1 O -0.3883(3) 1.38915(18) 0.06278(11)
O2 O -0.2181(3) 1.19682(17) -0.00560(10)
O3 O 0.2061(3) 0.55831(17) 0.22294(11)
O4 O 0.3755(3) 0.8123(2) 0.43072(11)
O5 O 0.5342(3) 0.67986(19) 0.30898(13)
N1 N -0.0366(3) 0.75912(17) 0.22620(11)
C1 C -0.3432(5) 1.3367(3) -0.01829(17)
H1 H -0.2776 1.3950 -0.0554
H2 H -0.4625 1.3369 -0.0453
C2 C -0.3430(3) 1.2747(2) 0.12293(15)
C3 C -0.2403(3) 1.1571(2) 0.08087(14)
C4 C -0.1694(3) 1.0284(2) 0.12265(14)
H3 H -0.1018 0.9520 0.0933
C5 C -0.2024(3) 1.0143(2) 0.21383(13)
C6 C -0.3022(3) 1.1350(2) 0.25689(14)
C7 C -0.3748(4) 1.2685(2) 0.20863(16)
H4 H -0.4414 1.3478 0.2356
C8 C -0.3200(3) 1.1235(2) 0.34683(15)
H5 H -0.3922 1.2004 0.3747
C9 C -0.2321(3) 0.9996(2) 0.39465(14)
H6 H -0.2391 0.9954 0.4544
C10 C -0.1321(3) 0.8798(2) 0.35413(13)
C11 C -0.1282(3) 0.8859(2) 0.26549(13)
C12 C 0.1202(3) 0.6602(2) 0.26057(14)
C13 C 0.1714(3) 0.6765(2) 0.35219(13)
C14 C -0.0218(3) 0.7431(2) 0.40166(13)
H7 H -0.1035 0.6794 0.3991
C15 C 0.0025(4) 0.7491(3) 0.49752(14)
H8 H 0.0499 0.8291 0.5050
H9 H -0.1243 0.7625 0.5273
C16 C 0.1432(4) 0.6176(3) 0.53717(15)
H10 H 0.1494 0.6047 0.5968
C17 C 0.2574(4) 0.5203(3) 0.49275(16)
H11 H 0.3363 0.4410 0.5230
C18 C 0.2693(4) 0.5284(2) 0.39606(15)
H12 H 0.2069 0.4624 0.3773
H13 H 0.4062 0.5002 0.3773
C19 C -0.1318(3) 0.7178(2) 0.15631(14)
H14 H -0.0502 0.6311 0.1375
H15 H -0.1507 0.7896 0.1090
H16 H -0.2566 0.7058 0.1768
C20 C 0.2932(3) 0.9245(2) 0.27536(14)
C21 C 0.2190(4) 1.0533(2) 0.30744(16)
H17 H 0.1978 1.0591 0.3664
C22 C 0.1764(4) 1.1739(3) 0.25078(19)
H18 H 0.1239 1.2605 0.2723
C23 C 0.2096(4) 1.1688(3) 0.16346(17)
C24 C 0.2873(4) 1.0383(3) 0.13283(16)
H19 H 0.3109 1.0329 0.0740
C25 C 0.3303(4) 0.9161(3) 0.18760(15)
H20 H 0.3833 0.8296 0.1660
C26 C 0.1597(5) 1.3002(3) 0.1024(2)
H21 H 0.1082 1.3803 0.1344
H22 H 0.0633 1.2951 0.0634
H23 H 0.2758 1.3092 0.0704
loop_
_geom_bond_atom_site_label_1
_geom_bond_atom_site_label_2
_geom_bond_site_symmetry_1
_geom_bond_site_symmetry_2
S1 O4 1_555 1_555
O1 C1 1_555 1_555
O2 C1 1_555 1_555
O3 C12 1_555 1_555
O5 S1 1_555 1_555
N1 C11 1_555 1_555
C1 H1 1_555 1_555
H2 C1 1_555 1_555
C2 O1 1_555 1_555
C3 O2 1_555 1_555
C4 C3 1_555 1_555
H3 C4 1_555 1_555
C5 C4 1_555 1_555
C6 C5 1_555 1_555
C7 C2 1_555 1_555
H4 C7 1_555 1_555
C8 C6 1_555 1_555
H5 C8 1_555 1_555
C9 C8 1_555 1_555
H6 C9 1_555 1_555
C10 C9 1_555 1_555
C11 C5 1_555 1_555
C12 N1 1_555 1_555
C13 S1 1_555 1_555
C14 C10 1_555 1_555
H7 C14 1_555 1_555
C15 C14 1_555 1_555
H8 C15 1_555 1_555
H9 C15 1_555 1_555
C16 C15 1_555 1_555
H10 C16 1_555 1_555
C17 C16 1_555 1_555
H11 C17 1_555 1_555
C18 C13 1_555 1_555
H12 C18 1_555 1_555
H13 C18 1_555 1_555
C19 N1 1_555 1_555
H14 C19 1_555 1_555
H15 C19 1_555 1_555
H16 C19 1_555 1_555
C20 S1 1_555 1_555
C21 C20 1_555 1_555
H17 C21 1_555 1_555
C22 C21 1_555 1_555
H18 C22 1_555 1_555
C23 C22 1_555 1_555
C24 C23 1_555 1_555
H19 C24 1_555 1_555
C25 C20 1_555 1_555
H20 C25 1_555 1_555
C26 C23 1_555 1_555
H21 C26 1_555 1_555
H22 C26 1_555 1_555
H23 C26 1_555 1_555
C2 C3 1_555 1_555
C6 C7 1_555 1_555
C10 C11 1_555 1_555
C12 C13 1_555 1_555
C13 C14 1_555 1_555
C17 C18 1_555 1_555
C24 C25 1_555 1_555

#END
