
#######################################################################
#
#                 Cambridge Crystallographic Data Centre
#                                CCDC 
#
#######################################################################
#
# If this CIF has been generated from an entry in the Cambridge 
# Structural Database, then it will include bibliographic, chemical, 
# crystal, experimental, refinement or atomic coordinate data resulting 
# from the CCDC's data processing and validation procedures.
#
#######################################################################

data_MIMPUU
_chemical_formula_moiety         'C21 H26 F1 N2 O4 P1 S1'
_chemical_name_systematic        
'Diisopropyl [(1,3-benzothiazol-2-ylamino)(4-fluorophenyl)methyl]phosphonate'
_chemical_properties_biological  'anti-tumour activity'
_symmetry_cell_setting           tetragonal
_symmetry_space_group_name_H-M   'I 41/a'
_symmetry_Int_Tables_number      88
_space_group_name_Hall           '-I 4ad'
loop_
_symmetry_equiv_pos_site_id
_symmetry_equiv_pos_as_xyz
1 x,y,z
2 3/4-y,1/4+x,1/4+z
3 1/2-x,-y,1/2+z
4 3/4+y,3/4-x,3/4+z
5 1/2+x,1/2+y,1/2+z
6 1/4-y,3/4+x,3/4+z
7 -x,1/2-y,z
8 1/4+y,1/4-x,1/4+z
9 -x,-y,-z
10 1/4+y,3/4-x,3/4-z
11 1/2+x,y,1/2-z
12 1/4-y,1/4+x,1/4-z
13 1/2-x,1/2-y,1/2-z
14 3/4+y,1/4-x,1/4-z
15 x,1/2+y,-z
16 3/4-y,3/4+x,3/4-z
_cell_length_a                   21.055(3)
_cell_length_b                   21.055(3)
_cell_length_c                   20.521(5)
_cell_angle_alpha                90
_cell_angle_beta                 90
_cell_angle_gamma                90
_cell_volume                     9097.23
_chemical_melting_point          201.5-203deg.C
_cell_formula_units_Z            16
loop_
_atom_site_label
_atom_site_type_symbol
_atom_site_fract_x
_atom_site_fract_y
_atom_site_fract_z
P1 P 0.9180(1) 0.6567(1) 0.0975(1)
S1 S 0.8800(1) 0.8853(1) 0.0174(1)
N1 N 0.7891(1) 0.8075(1) 0.0499(1)
N2 N 0.8901(1) 0.7779(1) 0.0869(1)
O1 O 0.9861(1) 0.6702(1) 0.1017(1)
O2 O 0.8918(1) 0.6423(1) 0.0278(1)
O3 O 0.8957(1) 0.5989(1) 0.1391(1)
O4 O 0.6931(1) 1.0065(1) -0.0975(1)
F1 F 0.8621(1) 0.7565(1) 0.3941(1)
C1 C 0.8680(1) 0.7224(1) 0.1227(2)
C2 C 0.8670(1) 0.7310(1) 0.1956(2)
C3 C 0.9127(2) 0.7663(2) 0.2268(2)
C4 C 0.9111(2) 0.7744(2) 0.2934(2)
C5 C 0.8637(2) 0.7468(2) 0.3283(2)
C6 C 0.8188(2) 0.7105(2) 0.3000(2)
C7 C 0.8203(2) 0.7028(2) 0.2336(2)
C8 C 0.8492(1) 0.8169(1) 0.0556(2)
C9 C 0.7620(1) 0.8562(2) 0.0129(2)
C10 C 0.8032(1) 0.9028(2) -0.0093(1)
C11 C 0.7835(2) 0.9539(2) -0.0469(2)
C12 C 0.7197(2) 0.9578(2) -0.0619(2)
C13 C 0.6780(2) 0.9117(2) -0.0406(2)
C14 C 0.6981(2) 0.8613(2) -0.0034(2)
C15 C 0.7343(2) 1.0497(2) -0.1284(2)
C16 C 0.9293(2) 0.6188(2) -0.0251(2)
C17 C 0.8929(3) 0.5672(3) -0.0557(3)
C18 C 0.9388(4) 0.6697(4) -0.0701(4)
C19 C 0.9385(2) 0.5631(2) 0.1826(2)
C20 C 0.9679(2) 0.5111(2) 0.1444(3)
C21 C 0.9006(3) 0.5408(3) 0.2389(3)
loop_
_geom_bond_atom_site_label_1
_geom_bond_atom_site_label_2
_geom_bond_site_symmetry_1
_geom_bond_site_symmetry_2
P1 O1 1_555 1_555
S1 C8 1_555 1_555
N1 C8 1_555 1_555
N2 C1 1_555 1_555
O2 P1 1_555 1_555
O3 P1 1_555 1_555
O4 C12 1_555 1_555
F1 C5 1_555 1_555
C1 P1 1_555 1_555
C2 C1 1_555 1_555
C3 C2 1_555 1_555
C4 C3 1_555 1_555
C5 C4 1_555 1_555
C6 C5 1_555 1_555
C7 C2 1_555 1_555
C8 N2 1_555 1_555
C9 N1 1_555 1_555
C10 S1 1_555 1_555
C11 C10 1_555 1_555
C12 C11 1_555 1_555
C13 C12 1_555 1_555
C14 C9 1_555 1_555
C15 O4 1_555 1_555
C16 O2 1_555 1_555
C17 C16 1_555 1_555
C18 C16 1_555 1_555
C19 O3 1_555 1_555
C20 C19 1_555 1_555
C21 C19 1_555 1_555
C6 C7 1_555 1_555
C9 C10 1_555 1_555
C13 C14 1_555 1_555

#END
