
#######################################################################
#
#                 Cambridge Crystallographic Data Centre
#                                CCDC 
#
#######################################################################
#
# If this CIF has been generated from an entry in the Cambridge 
# Structural Database, then it will include bibliographic, chemical, 
# crystal, experimental, refinement or atomic coordinate data resulting 
# from the CCDC's data processing and validation procedures.
#
#######################################################################

data_MIMXUR
_chemical_formula_moiety         'C4 H7 N2 1+,C3 H3 N2 O4 1-'
_chemical_name_systematic        '1-Methylimidazolium oxalurate'
_symmetry_cell_setting           triclinic
_symmetry_space_group_name_H-M   'P -1'
_symmetry_Int_Tables_number      2
_space_group_name_Hall           '-P 1'
loop_
_symmetry_equiv_pos_site_id
_symmetry_equiv_pos_as_xyz
1 x,y,z
2 -x,-y,-z
_cell_length_a                   7.718(4)
_cell_length_b                   8.062(4)
_cell_length_c                   9.603(4)
_cell_angle_alpha                69.34(4)
_cell_angle_beta                 62.52(4)
_cell_angle_gamma                67.22(4)
_cell_volume                     477.55
_chemical_melting_point          423K
_cell_formula_units_Z            2
loop_
_atom_site_label
_atom_site_type_symbol
_atom_site_fract_x
_atom_site_fract_y
_atom_site_fract_z
N1 N 0.16780 0.01730 0.58210
C1 C 0.04920 -0.06080 0.74660
C2 C 0.14360 0.19430 0.51440
N2 N 0.27940 0.21050 0.36770
C3 C 0.39440 0.04070 0.33870
C4 C 0.32540 -0.07990 0.47220
H1 H 0.13000 -0.13500 0.80500
H2 H -0.01700 -0.13700 0.74100
H3 H -0.03000 0.02300 0.80300
H4 H 0.04300 0.29200 0.56900
H5 H 0.28800 0.31500 0.30200
H6 H 0.48400 0.02700 0.24600
H7 H 0.35400 -0.20400 0.49800
N3 N 0.10100 0.37110 0.83600
C5 C 0.25450 0.43030 0.71690
O1 O 0.26240 0.49980 0.57910
N4 N 0.41840 0.40960 0.75460
C6 C 0.43780 0.33800 0.90000
O2 O 0.31220 0.27560 1.02140
C7 C 0.63640 0.34190 0.90030
O3 O 0.66210 0.27230 1.02810
O4 O 0.75210 0.41630 0.76940
H8 H -0.01000 0.38900 0.82000
H9 H 0.10600 0.32700 0.93000
H10 H 0.52100 0.44300 0.67900
loop_
_geom_bond_atom_site_label_1
_geom_bond_atom_site_label_2
_geom_bond_site_symmetry_1
_geom_bond_site_symmetry_2
N1 C1 1_555 1_555
C1 H1 1_555 1_555
C2 N1 1_555 1_555
N2 C2 1_555 1_555
C3 N2 1_555 1_555
C4 N1 1_555 1_555
H2 C1 1_555 1_555
H3 C1 1_555 1_555
H4 C2 1_555 1_555
H5 N2 1_555 1_555
H6 C3 1_555 1_555
H7 C4 1_555 1_555
N3 C5 1_555 1_555
C5 O1 1_555 1_555
N4 C5 1_555 1_555
C6 N4 1_555 1_555
O2 C6 1_555 1_555
C7 C6 1_555 1_555
O3 C7 1_555 1_555
O4 C7 1_555 1_555
H8 N3 1_555 1_555
H9 N3 1_555 1_555
H10 N4 1_555 1_555
C3 C4 1_555 1_555

#END
