
#######################################################################
#
#                 Cambridge Crystallographic Data Centre
#                                CCDC 
#
#######################################################################
#
# If this CIF has been generated from an entry in the Cambridge 
# Structural Database, then it will include bibliographic, chemical, 
# crystal, experimental, refinement or atomic coordinate data resulting 
# from the CCDC's data processing and validation procedures.
#
#######################################################################

data_MIMZAM
_chemical_name_common            
(E)-3-(benzo[d][1,3]dioxol-5-yl)-N-tosylacrylamide
_chemical_formula_moiety         'C17 H15 N1 O5 S1'
_chemical_name_systematic        
3-(2H-1,3-benzodioxol-5-yl)-N-((4-methylphenyl)sulfonyl)prop-2-enamide
_chemical_properties_biological  'antiproliferative activity'
_symmetry_cell_setting           monoclinic
_symmetry_space_group_name_H-M   'P 21/c'
_symmetry_Int_Tables_number      14
_space_group_name_Hall           '-P 2ybc'
loop_
_symmetry_equiv_pos_site_id
_symmetry_equiv_pos_as_xyz
1 x,y,z
2 -x,1/2+y,1/2-z
3 -x,-y,-z
4 x,1/2-y,1/2+z
_cell_length_a                   14.7209(12)
_cell_length_b                   11.0814(10)
_cell_length_c                   9.7858(8)
_cell_angle_alpha                90
_cell_angle_beta                 91.266(2)
_cell_angle_gamma                90
_cell_volume                     1595.95
_chemical_melting_point          '204 deg.C'
_cell_formula_units_Z            4
loop_
_atom_site_label
_atom_site_type_symbol
_atom_site_fract_x
_atom_site_fract_y
_atom_site_fract_z
S1 S 0.82047(3) 0.31993(4) 0.03660(4)
N1 N 0.73372(9) 0.31031(12) 0.13947(13)
C1 C 0.44538(9) 0.41718(13) 0.34267(14)
C2 C 0.58883(10) 0.35484(14) 0.23314(14)
H1 H 0.6054 0.3071 0.3078
O1 O 0.88819(9) 0.24601(14) 0.10053(15)
O2 O 0.26936(8) 0.42818(11) 0.66190(13)
C3 C 0.51052(10) 0.41388(14) 0.23269(14)
H2 H 0.4956 0.4576 0.1543
C4 C 0.85547(9) 0.47117(15) 0.04339(14)
O3 O 0.63178(8) 0.41563(15) 0.01044(12)
O4 O 0.78912(10) 0.29345(14) -0.09900(12)
C5 C 0.32024(10) 0.43361(14) 0.54582(15)
C6 C 0.64972(10) 0.36414(15) 0.11683(14)
C7 C 0.30465(11) 0.49942(15) 0.43009(17)
H3 H 0.2534 0.5478 0.4194
C8 C 0.39554(11) 0.36085(14) 0.56121(16)
C9 C 0.45861(11) 0.34933(15) 0.46263(16)
H4 H 0.5085 0.2986 0.4742
C10 C 0.36931(10) 0.49077(14) 0.32838(16)
H5 H 0.3613 0.5356 0.2487
O5 O 0.39535(11) 0.30824(16) 0.68707(15)
C11 C 0.31703(13) 0.34753(18) 0.75219(18)
H6 H 0.3334 0.3886 0.8368
H7 H 0.2788 0.2791 0.7737
C12 C 0.82419(12) 0.55326(18) -0.05205(17)
H8 H 0.7853 0.5288 -0.1230
C13 C 0.90870(11) 0.71142(18) 0.06231(19)
C14 C 0.91413(13) 0.5081(2) 0.14723(18)
H9 H 0.9360 0.4529 0.2115
C15 C 0.94013(13) 0.6281(2) 0.1549(2)
H10 H 0.9799 0.6525 0.2247
C16 C 0.85115(13) 0.67253(18) -0.0414(2)
H11 H 0.8299 0.7279 -0.1060
C17 C 0.93513(16) 0.8425(2) 0.0735(3)
H12 H 0.9158 0.8740 0.1595
H13 H 0.9065 0.8870 0.0003
H14 H 0.9999 0.8499 0.0679
H15 H 0.7489(13) 0.2842(19) 0.211(2)
loop_
_geom_bond_atom_site_label_1
_geom_bond_atom_site_label_2
_geom_bond_site_symmetry_1
_geom_bond_site_symmetry_2
S1 N1 1_555 1_555
N1 C6 1_555 1_555
C1 C3 1_555 1_555
C2 H1 1_555 1_555
O1 S1 1_555 1_555
O2 C5 1_555 1_555
C3 C2 1_555 1_555
H2 C3 1_555 1_555
C4 S1 1_555 1_555
O3 C6 1_555 1_555
O4 S1 1_555 1_555
C5 C7 1_555 1_555
C6 C2 1_555 1_555
C7 H3 1_555 1_555
C8 C5 1_555 1_555
C9 C1 1_555 1_555
H4 C9 1_555 1_555
C10 C1 1_555 1_555
H5 C10 1_555 1_555
O5 C8 1_555 1_555
C11 O2 1_555 1_555
H6 C11 1_555 1_555
H7 C11 1_555 1_555
C12 C4 1_555 1_555
H8 C12 1_555 1_555
C13 C15 1_555 1_555
C14 C4 1_555 1_555
H9 C14 1_555 1_555
C15 C14 1_555 1_555
H10 C15 1_555 1_555
C16 C12 1_555 1_555
H11 C16 1_555 1_555
C17 C13 1_555 1_555
H12 C17 1_555 1_555
H13 C17 1_555 1_555
H14 C17 1_555 1_555
H15 N1 1_555 1_555
C7 C10 1_555 1_555
C8 C9 1_555 1_555
O5 C11 1_555 1_555
C13 C16 1_555 1_555

#END
