
#######################################################################
#
#                 Cambridge Crystallographic Data Centre
#                                CCDC 
#
#######################################################################
#
# If this CIF has been generated from an entry in the Cambridge 
# Structural Database, then it will include bibliographic, chemical, 
# crystal, experimental, refinement or atomic coordinate data resulting 
# from the CCDC's data processing and validation procedures.
#
#######################################################################

data_MIMZEQ
_chemical_name_common            
'(E)-3-(2,3-dihydrobenzo[b][1,4]dioxin-6-yl)-N-((4-fluorophenyl)sulfonyl) acrylamide'
_chemical_formula_moiety         'C17 H14 F1 N1 O5 S1'
_chemical_name_systematic        
3-(2,3-dihydro-1,4-benzodioxin-6-yl)-N-((4-fluorophenyl)sulfonyl)prop-2-enamide
_chemical_properties_biological  'antiproliferative activity'
_symmetry_cell_setting           monoclinic
_symmetry_space_group_name_H-M   'P 21/c'
_symmetry_Int_Tables_number      14
_space_group_name_Hall           '-P 2ybc'
loop_
_symmetry_equiv_pos_site_id
_symmetry_equiv_pos_as_xyz
1 x,y,z
2 -x,1/2+y,1/2-z
3 -x,-y,-z
4 x,1/2-y,1/2+z
_cell_length_a                   9.8924(5)
_cell_length_b                   18.5074(9)
_cell_length_c                   18.6767(10)
_cell_angle_alpha                90
_cell_angle_beta                 99.769(2)
_cell_angle_gamma                90
_cell_volume                     3369.8
_chemical_melting_point          '169-170 deg.C'
_cell_formula_units_Z            8
loop_
_atom_site_label
_atom_site_type_symbol
_atom_site_fract_x
_atom_site_fract_y
_atom_site_fract_z
S1 S 0.03654(5) 0.20012(3) 0.05084(3)
N1 N 0.13507(18) 0.25989(10) 0.02063(9)
O1 O 0.01047(17) 0.36169(9) 0.03034(10)
C1 C 0.04992(19) 0.21778(11) 0.14375(10)
C2 C 0.2157(2) 0.37108(11) -0.02013(11)
H1 H 0.2848 0.3438 -0.0352
C3 C 0.3133(2) 0.48327(11) -0.06306(11)
O2 O 0.58140(19) 0.60274(10) -0.16543(11)
C4 C 0.3798(2) 0.59742(11) -0.10842(11)
O3 O 0.3527(2) 0.66989(8) -0.11890(11)
O4 O 0.10152(18) 0.13283(8) 0.04115(9)
O5 O -0.10121(16) 0.21111(11) 0.01687(9)
C5 C 0.1104(2) 0.33358(12) 0.01233(10)
C6 C 0.2935(2) 0.55751(11) -0.07354(12)
H2 H 0.2210 0.5802 -0.0567
C7 C 0.2169(2) 0.44174(11) -0.02890(11)
H3 H 0.1489 0.4677 -0.0114
C8 C 0.4909(2) 0.56540(12) -0.13190(12)
C9 C 0.4244(2) 0.45149(12) -0.08806(14)
H4 H 0.4397 0.4021 -0.0820
C10 C -0.0424(3) 0.26272(14) 0.16767(12)
H5 H -0.1117 0.2843 0.1347
C11 C 0.5112(3) 0.49224(13) -0.12134(16)
H6 H 0.5852 0.4701 -0.1371
C12 C 0.1532(3) 0.18486(16) 0.19154(14)
H7 H 0.2145 0.1537 0.1746
C13 C 0.4179(4) 0.69921(16) -0.17466(18)
H8 H 0.4099 0.7514 -0.1744
H9 H 0.3716 0.6819 -0.2214
C14 C 0.1642(3) 0.1987(2) 0.26478(16)
H10 H 0.2337 0.1778 0.2981
F1 F 0.0803(3) 0.25615(16) 0.35866(9)
C15 C -0.0322(4) 0.27582(17) 0.24096(15)
H11 H -0.0944 0.3059 0.2586
C16 C 0.0718(4) 0.24340(19) 0.28687(13)
C17 C 0.5619(3) 0.67944(15) -0.16526(18)
H12 H 0.6024 0.7007 -0.2041
H13 H 0.6091 0.6991 -0.1196
H14 H 0.201(3) 0.2433(13) 0.0068(13)
S2 S 0.48458(6) 0.82025(3) 0.01119(3)
N2 N 0.38236(19) 0.75974(10) 0.03824(10)
O6 O 0.49791(16) 0.74616(9) 0.15331(9)
C18 C 0.2909(2) 0.65410(10) 0.18538(10)
H15 H 0.3609 0.6706 0.2213
C19 C 0.19817(19) 0.60162(10) 0.20904(10)
C20 C 0.2893(2) 0.68155(10) 0.11988(11)
H16 H 0.2194 0.6697 0.0819
C21 C 0.3990(2) 0.73092(10) 0.10791(11)
C22 C 0.2008(2) 0.59123(11) 0.28282(11)
H17 H 0.2598 0.6190 0.3159
C23 C 0.4720(2) 0.89775(11) 0.06353(12)
C24 C 0.1186(2) 0.54093(11) 0.30821(11)
O7 O 0.4249(2) 0.83480(10) -0.06235(9)
O8 O 0.62217(17) 0.79387(10) 0.02855(12)
O9 O 0.1281(2) 0.53328(11) 0.38152(9)
C25 C 0.3762(2) 0.94970(12) 0.03648(13)
H18 H 0.3196 0.9431 -0.0081
F2 F 0.4381(2) 1.07821(9) 0.18214(11)
C26 C 0.3658(3) 1.01128(13) 0.07642(15)
H19 H 0.3033 1.0473 0.0591
O10 O -0.0521(2) 0.44794(13) 0.28202(13)
C27 C 0.5565(2) 0.90641(12) 0.12974(14)
H20 H 0.6213 0.8713 0.1469
C28 C 0.5441(3) 0.96753(14) 0.17030(15)
H21 H 0.5987 0.9740 0.2155
C29 C 0.4498(3) 1.01828(13) 0.14240(16)
C30 C 0.0324(2) 0.49902(14) 0.25995(14)
C31 C 0.0312(3) 0.50725(18) 0.18573(15)
H22 H -0.0245 0.4776 0.1529
C32 C 0.1111(3) 0.55845(16) 0.16068(13)
H23 H 0.1072 0.5645 0.1109
C33 C 0.0581(6) 0.4741(3) 0.4013(2)
H24 H 0.1227 0.4343 0.4096
H25 H 0.0312 0.4852 0.4477
C34 C -0.0523(6) 0.4503(3) 0.3576(3)
H26 H -0.1289 0.4803 0.3654
H27 H -0.0708 0.4018 0.3731
H28 H 0.303(3) 0.7545(14) 0.0107(14)
loop_
_geom_bond_atom_site_label_1
_geom_bond_atom_site_label_2
_geom_bond_site_symmetry_1
_geom_bond_site_symmetry_2
S1 N1 1_555 1_555
N1 C5 1_555 1_555
O1 C5 1_555 1_555
C1 S1 1_555 1_555
C2 H1 1_555 1_555
C3 C6 1_555 1_555
O2 C8 1_555 1_555
C4 O3 1_555 1_555
O3 C13 1_555 1_555
O4 S1 1_555 1_555
O5 S1 1_555 1_555
C5 C2 1_555 1_555
C6 C4 1_555 1_555
H2 C6 1_555 1_555
C7 C2 1_555 1_555
H3 C7 1_555 1_555
C8 C4 1_555 1_555
C9 C3 1_555 1_555
H4 C9 1_555 1_555
C10 C1 1_555 1_555
H5 C10 1_555 1_555
C11 C8 1_555 1_555
H6 C11 1_555 1_555
C12 C1 1_555 1_555
H7 C12 1_555 1_555
C13 H8 1_555 1_555
H9 C13 1_555 1_555
C14 C12 1_555 1_555
H10 C14 1_555 1_555
F1 C16 1_555 1_555
C15 C10 1_555 1_555
H11 C15 1_555 1_555
C16 C14 1_555 1_555
C17 O2 1_555 1_555
H12 C17 1_555 1_555
H13 C17 1_555 1_555
H14 N1 1_555 1_555
S2 N2 1_555 1_555
N2 C21 1_555 1_555
O6 C21 1_555 1_555
C18 H15 1_555 1_555
C19 C18 1_555 1_555
C20 C18 1_555 1_555
H16 C20 1_555 1_555
C21 C20 1_555 1_555
C22 C19 1_555 1_555
H17 C22 1_555 1_555
C23 S2 1_555 1_555
C24 C22 1_555 1_555
O7 S2 1_555 1_555
O8 S2 1_555 1_555
O9 C24 1_555 1_555
C25 C23 1_555 1_555
H18 C25 1_555 1_555
F2 C29 1_555 1_555
C26 C25 1_555 1_555
H19 C26 1_555 1_555
O10 C30 1_555 1_555
C27 C23 1_555 1_555
H20 C27 1_555 1_555
C28 C27 1_555 1_555
H21 C28 1_555 1_555
C29 C26 1_555 1_555
C30 C24 1_555 1_555
C31 C30 1_555 1_555
H22 C31 1_555 1_555
C32 C19 1_555 1_555
H23 C32 1_555 1_555
C33 O9 1_555 1_555
H24 C33 1_555 1_555
H25 C33 1_555 1_555
C34 O10 1_555 1_555
H26 C34 1_555 1_555
H27 C34 1_555 1_555
H28 N2 1_555 1_555
C3 C7 1_555 1_555
C9 C11 1_555 1_555
C13 C17 1_555 1_555
C15 C16 1_555 1_555
C28 C29 1_555 1_555
C31 C32 1_555 1_555
C33 C34 1_555 1_555

#END
