
#######################################################################
#
#                 Cambridge Crystallographic Data Centre
#                                CCDC 
#
#######################################################################
#
# If this CIF has been generated from an entry in the Cambridge 
# Structural Database, then it will include bibliographic, chemical, 
# crystal, experimental, refinement or atomic coordinate data resulting 
# from the CCDC's data processing and validation procedures.
#
#######################################################################

data_MINCOO10
_chemical_formula_moiety         'C27 H37 I1 O4'
_chemical_name_systematic        
'3\a-Hydroxy-12-methyl-18-nor-5\b,17\a-chola-8,11,13-trien-24-oic acid methyl ester iodoacetate'
_symmetry_cell_setting           monoclinic
_symmetry_space_group_name_H-M   'P 21'
_symmetry_Int_Tables_number      4
_space_group_name_Hall           'P 2yb'
loop_
_symmetry_equiv_pos_site_id
_symmetry_equiv_pos_as_xyz
1 x,y,z
2 -x,1/2+y,-z
_cell_length_a                   11.236(1)
_cell_length_b                   14.35(1)
_cell_length_c                   8.117(8)
_cell_angle_alpha                90
_cell_angle_beta                 90.59(2)
_cell_angle_gamma                90
_cell_volume                     1308.69
_cell_formula_units_Z            2
loop_
_atom_site_label
_atom_site_type_symbol
_atom_site_fract_x
_atom_site_fract_y
_atom_site_fract_z
C1 C -0.53800 0.22800 -0.80400
C2 C -0.53800 0.18600 -0.62400
C3 C -0.39900 0.05400 -0.71700
C4 C -0.30800 -0.01500 -0.69200
C5 C -0.25800 -0.01500 -0.53300
C6 C -0.28800 0.04100 -0.41000
C7 C -0.22200 0.02300 -0.25000
C8 C -0.16700 -0.07000 -0.28100
C9 C -0.15700 -0.09300 -0.47300
C10 C -0.27600 -0.07900 -0.83400
C11 C -0.64800 0.12900 -0.60000
C12 C -0.42900 0.29000 -0.84200
C13 C -0.04100 -0.06900 -0.56000
C14 C 0.00600 0.03200 -0.50800
C15 C 0.06400 -0.12600 -0.49400
C16 C 0.03800 -0.21800 -0.51900
C17 C 0.04000 -0.24600 -0.71800
C18 C 0.08100 -0.27600 -1.03400
C19 C -0.35300 0.50000 -0.86300
C20 C -0.24900 0.56200 -0.86900
C21 C -0.44400 0.37500 -0.71600
C22 C -0.43000 0.33600 -0.53500
C23 C -0.52900 0.26600 -0.49500
C24 C -0.51900 0.23900 -0.31300
C25 C -0.39700 0.18100 -0.29400
C26 C -0.37100 0.11400 -0.43900
C27 C -0.43000 0.11400 -0.59400
I1 I -0.13030 0.50000 -1.03420
O1 O -0.34200 0.43600 -0.73800
O2 O -0.44600 0.51400 -0.93500
O3 O 0.09600 -0.24600 -0.84000
O4 O -0.07000 -0.27400 -0.75500
loop_
_geom_bond_atom_site_label_1
_geom_bond_atom_site_label_2
_geom_bond_site_symmetry_1
_geom_bond_site_symmetry_2
C1 C2 1_555 1_555
C2 C11 1_555 1_555
C3 C4 1_555 1_555
C4 C5 1_555 1_555
C5 C6 1_555 1_555
C6 C7 1_555 1_555
C7 C8 1_555 1_555
C8 C9 1_555 1_555
C9 C5 1_555 1_555
C10 C4 1_555 1_555
C12 C1 1_555 1_555
C13 C9 1_555 1_555
C14 C13 1_555 1_555
C15 C13 1_555 1_555
C16 C15 1_555 1_555
C17 C16 1_555 1_555
C18 O3 1_555 1_555
C19 C20 1_555 1_555
C20 I1 1_555 1_555
C21 C12 1_555 1_555
C22 C21 1_555 1_555
C23 C2 1_555 1_555
C24 C23 1_555 1_555
C25 C24 1_555 1_555
C26 C6 1_555 1_555
C27 C2 1_555 1_555
O1 C19 1_555 1_555
O2 C19 1_555 1_555
O3 C17 1_555 1_555
O4 C17 1_555 1_555
C3 C27 1_555 1_555
C21 O1 1_555 1_555
C22 C23 1_555 1_555
C25 C26 1_555 1_555
C26 C27 1_555 1_555

#END
