
#######################################################################
#
#                 Cambridge Crystallographic Data Centre
#                                CCDC 
#
#######################################################################
#
# If this CIF has been generated from an entry in the Cambridge 
# Structural Database, then it will include bibliographic, chemical, 
# crystal, experimental, refinement or atomic coordinate data resulting 
# from the CCDC's data processing and validation procedures.
#
#######################################################################

data_MINGEX
_chemical_formula_moiety         'C9 H10 N2'
_chemical_name_systematic        2,2'-Methylenebis(1H-pyrrole)
_symmetry_cell_setting           monoclinic
_symmetry_space_group_name_H-M   'P 21'
_symmetry_Int_Tables_number      4
_space_group_name_Hall           'P 2yb'
loop_
_symmetry_equiv_pos_site_id
_symmetry_equiv_pos_as_xyz
1 x,y,z
2 -x,1/2+y,-z
_cell_length_a                   6.048(3)
_cell_length_b                   7.312(4)
_cell_length_c                   9.024(5)
_cell_angle_alpha                90
_cell_angle_beta                 100.78(1)
_cell_angle_gamma                90
_cell_volume                     392.026
_exptl_crystal_colour            colorless
_exptl_crystal_description       needle
_cell_formula_units_Z            2
loop_
_atom_site_label
_atom_site_type_symbol
_atom_site_fract_x
_atom_site_fract_y
_atom_site_fract_z
C1 C 0.2619(4) -0.0035(4) 0.5615(3)
H1 H 0.3300 -0.0409 0.6603
C2 C 0.3488(4) 0.1182(4) 0.4732(3)
H2 H 0.4887 0.1802 0.4991
C3 C 0.1930(4) 0.1352(3) 0.3367(3)
H3 H 0.2088 0.2109 0.2538
C4 C 0.0136(4) 0.0222(4) 0.3451(2)
C5 C -0.2014(4) -0.0146(4) 0.2387(2)
H4 H -0.3267 0.0374 0.2818
H5 H -0.2242 -0.1486 0.2310
C6 C -0.2144(4) 0.0606(3) 0.0837(3)
C7 C -0.3568(4) 0.1863(4) 0.0037(3)
H6 H -0.4721 0.2516 0.0396
C8 C -0.3029(4) 0.2019(4) -0.1402(3)
H7 H -0.3761 0.2785 -0.2195
C9 C -0.1268(4) 0.0876(4) -0.1462(2)
H8 H -0.0530 0.0711 -0.2294
N1 N 0.0597(4) -0.0620(3) 0.4825(2)
H9 H -0.0283 -0.1423 0.5153
N2 N -0.0764(3) 0.0011(3) -0.0094(2)
H10 H 0.0302 -0.0813 0.0148
loop_
_geom_bond_atom_site_label_1
_geom_bond_atom_site_label_2
_geom_bond_site_symmetry_1
_geom_bond_site_symmetry_2
C1 H1 1_555 1_555
C2 C1 1_555 1_555
H2 C2 1_555 1_555
C3 C2 1_555 1_555
H3 C3 1_555 1_555
C4 C3 1_555 1_555
C5 C4 1_555 1_555
H4 C5 1_555 1_555
H5 C5 1_555 1_555
C6 C5 1_555 1_555
C7 C6 1_555 1_555
H6 C7 1_555 1_555
C8 C7 1_555 1_555
H7 C8 1_555 1_555
C9 C8 1_555 1_555
H8 C9 1_555 1_555
N1 C1 1_555 1_555
H9 N1 1_555 1_555
N2 C6 1_555 1_555
H10 N2 1_555 1_555
C4 N1 1_555 1_555
C9 N2 1_555 1_555

#END
