
#######################################################################
#
#                 Cambridge Crystallographic Data Centre
#                                CCDC 
#
#######################################################################
#
# If this CIF has been generated from an entry in the Cambridge 
# Structural Database, then it will include bibliographic, chemical, 
# crystal, experimental, refinement or atomic coordinate data resulting 
# from the CCDC's data processing and validation procedures.
#
#######################################################################

data_MINKOM
_chemical_name_common            
'2,8-bis(phenoxazin-10-yl)dibenzothiophene-S,S-dioxide  deuterochloroform solvate'
_chemical_formula_moiety         'C36 H22 N2 O4 S1,3(C1 D1 Cl3)'
_chemical_name_systematic        
'2,8-bis(10H-phenoxazin-10-yl)-5H-5-dibenzo[b,d]thiophene-5,5-dione deuterochloroform solvate'
_symmetry_cell_setting           monoclinic
_symmetry_space_group_name_H-M   'P 21/m'
_symmetry_Int_Tables_number      11
_space_group_name_Hall           '-P 2yb'
loop_
_symmetry_equiv_pos_site_id
_symmetry_equiv_pos_as_xyz
1 x,y,z
2 -x,1/2+y,-z
3 -x,-y,-z
4 x,1/2-y,z
_cell_length_a                   7.7479(6)
_cell_length_b                   25.908(2)
_cell_length_c                   10.2020(7)
_cell_angle_alpha                90
_cell_angle_beta                 103.259(2)
_cell_angle_gamma                90
_cell_volume                     1993.28
_exptl_crystal_colour            yellow
_exptl_crystal_description       prism
_chemical_melting_point          'above 603 K'
_cell_formula_units_Z            2
_exptl_crystal_recrystallization_method deuterochloroform
loop_
_atom_site_label
_atom_site_type_symbol
_atom_site_fract_x
_atom_site_fract_y
_atom_site_fract_z
S1 S 1.07125(8) 0.250000 0.62643(7)
O1 O 0.23717(19) 0.48223(5) 0.46176(14)
O2 O 1.1856(3) 0.250000 0.5336(2)
O3 O 1.1537(3) 0.250000 0.7678(2)
N1 N 0.4820(2) 0.39999(6) 0.50325(17)
C1 C 0.3259(2) 0.46843(7) 0.36391(19)
C2 C 0.2869(3) 0.49632(8) 0.2460(2)
H1 H 0.203222 0.523697 0.235176
C3 C 0.3699(3) 0.48438(8) 0.1427(2)
H2 H 0.343462 0.503500 0.061106
C4 C 0.4914(3) 0.44449(8) 0.1597(2)
H3 H 0.548073 0.436119 0.089199
C5 C 0.5311(3) 0.41656(8) 0.2789(2)
H4 H 0.615446 0.389362 0.289443
C6 C 0.4486(2) 0.42803(7) 0.38314(19)
C7 C 0.2715(2) 0.45413(7) 0.58038(18)
C8 C 0.3922(2) 0.41334(7) 0.60328(19)
C9 C 0.4191(3) 0.38755(7) 0.72617(19)
H5 H 0.501535 0.359869 0.744750
C10 C 0.3265(3) 0.40199(8) 0.8214(2)
H6 H 0.345144 0.383906 0.904484
C11 C 0.2070(3) 0.44254(8) 0.7967(2)
H7 H 0.143872 0.452269 0.862410
C12 C 0.1803(3) 0.46881(7) 0.6755(2)
H8 H 0.099305 0.496866 0.657939
C13 C 0.6274(2) 0.36461(7) 0.53228(19)
C14 C 0.7990(3) 0.38447(7) 0.5616(2)
H9 H 0.816934 0.420744 0.561426
C15 C 0.9441(2) 0.35147(7) 0.5909(2)
H10 H 1.061945 0.364394 0.611666
C16 C 0.9101(2) 0.29920(7) 0.58879(18)
C17 C 0.7388(2) 0.27847(7) 0.55774(18)
C18 C 0.5949(2) 0.31179(7) 0.52853(19)
H11 H 0.477056 0.298840 0.506520
O1C O 0.23717(19) 0.01777(5) 0.46176(14)
N1C N 0.4820(2) 0.10001(6) 0.50325(17)
C1C C 0.3259(2) 0.03157(7) 0.36391(19)
C2C C 0.2869(3) 0.00368(8) 0.2460(2)
H1C H 0.203222 -0.023697 0.235176
C3C C 0.3699(3) 0.01562(8) 0.1427(2)
H2C H 0.343462 -0.003500 0.061106
C4C C 0.4914(3) 0.05551(8) 0.1597(2)
H3C H 0.548073 0.063881 0.089199
C5C C 0.5311(3) 0.08344(8) 0.2789(2)
H4C H 0.615446 0.110638 0.289443
C6C C 0.4486(2) 0.07197(7) 0.38314(19)
C7C C 0.2715(2) 0.04587(7) 0.58038(18)
C8C C 0.3922(2) 0.08666(7) 0.60328(19)
C9C C 0.4191(3) 0.11245(7) 0.72617(19)
H5C H 0.501535 0.140131 0.744750
C10C C 0.3265(3) 0.09801(8) 0.8214(2)
H6C H 0.345144 0.116094 0.904484
C11C C 0.2070(3) 0.05746(8) 0.7967(2)
H7C H 0.143872 0.047731 0.862410
C12C C 0.1803(3) 0.03119(7) 0.6755(2)
H8C H 0.099305 0.003134 0.657939
C13C C 0.6274(2) 0.13539(7) 0.53228(19)
C14C C 0.7990(3) 0.11553(7) 0.5616(2)
H9C H 0.816934 0.079256 0.561426
C15C C 0.9441(2) 0.14853(7) 0.5909(2)
H10C H 1.061945 0.135606 0.611666
C16C C 0.9101(2) 0.20080(7) 0.58879(18)
C17C C 0.7388(2) 0.22153(7) 0.55774(18)
C18C C 0.5949(2) 0.18821(7) 0.52853(19)
H11C H 0.477056 0.201160 0.506520
Cl1 Cl 0.61518(15) 0.250000 -0.13579(12)
Cl2 Cl 0.55975(13) 0.30554(3) 0.09451(9)
C19 C 0.5049(5) 0.250000 -0.0021(4)
D1 D 0.374050 0.250000 -0.040819
Cl2C Cl 0.55975(13) 0.19446(3) 0.09451(9)
C21 C 0.0805(3) 0.36706(9) 0.1338(2)
D2 D 0.204785 0.380155 0.147628
Cl5 Cl 0.10531(18) 0.32708(6) 0.28156(10)
Cl6 Cl -0.08288(15) 0.41100(5) 0.1261(2)
Cl7 Cl 0.0492(6) 0.32581(10) -0.0056(3)
C20? C 0.491(10) 0.250000 0.070(8)
Cl3? Cl 0.607(2) 0.3014(7) 0.0039(18)
Cl4? Cl 0.452(4) 0.250000 0.214(3)
Cl8? Cl 0.0438(6) 0.3482(2) 0.2856(4)
Cl9? Cl -0.0813(6) 0.41786(18) 0.0629(5)
Cl10? Cl 0.053(2) 0.3195(5) 0.0078(13)
Cl11? Cl 0.0078(9) 0.3681(3) 0.2884(6)
Cl12? Cl -0.1045(9) 0.4020(3) 0.0236(7)
Cl13? Cl 0.0820(11) 0.3061(2) 0.0695(9)
loop_
_geom_bond_atom_site_label_1
_geom_bond_atom_site_label_2
_geom_bond_site_symmetry_1
_geom_bond_site_symmetry_2
S1 O2 1_555 1_555
O1 C1 1_555 1_555
O3 S1 1_555 1_555
N1 C6 1_555 1_555
C1 C2 1_555 1_555
C2 H1 1_555 1_555
C3 C2 1_555 1_555
H2 C3 1_555 1_555
C4 C3 1_555 1_555
H3 C4 1_555 1_555
C5 C4 1_555 1_555
H4 C5 1_555 1_555
C6 C1 1_555 1_555
C7 O1 1_555 1_555
C8 N1 1_555 1_555
C9 C8 1_555 1_555
H5 C9 1_555 1_555
C10 C9 1_555 1_555
H6 C10 1_555 1_555
C11 C10 1_555 1_555
H7 C11 1_555 1_555
C12 C7 1_555 1_555
H8 C12 1_555 1_555
C13 N1 1_555 1_555
C14 C13 1_555 1_555
H9 C14 1_555 1_555
C15 C14 1_555 1_555
H10 C15 1_555 1_555
C16 S1 1_555 1_555
C17 C16 1_555 1_555
C18 C13 1_555 1_555
H11 C18 1_555 1_555
Cl1 C19 1_555 1_555
Cl2 C19 1_555 1_555
C19 D1 1_555 1_555
C21 D2 1_555 1_555
Cl5 C21 1_555 1_555
Cl6 C21 1_555 1_555
Cl7 C21 1_555 1_555
O1C C1C 1_555 1_555
N1C C6C 1_555 1_555
C1C C2C 1_555 1_555
C2C H1C 1_555 1_555
C3C C2C 1_555 1_555
H2C C3C 1_555 1_555
C4C C3C 1_555 1_555
H3C C4C 1_555 1_555
C5C C4C 1_555 1_555
H4C C5C 1_555 1_555
C6C C1C 1_555 1_555
C7C O1C 1_555 1_555
C8C N1C 1_555 1_555
C9C C8C 1_555 1_555
H5C C9C 1_555 1_555
C10C C9C 1_555 1_555
H6C C10C 1_555 1_555
C11C C10C 1_555 1_555
H7C C11C 1_555 1_555
C12C C7C 1_555 1_555
H8C C12C 1_555 1_555
C13C N1C 1_555 1_555
C14C C13C 1_555 1_555
H9C C14C 1_555 1_555
C15C C14C 1_555 1_555
H10C C15C 1_555 1_555
C16C S1 1_555 1_555
C17C C17 1_555 1_555
C18C C13C 1_555 1_555
H11C C18C 1_555 1_555
Cl2C C19 1_555 1_555
C5 C6 1_555 1_555
C7 C8 1_555 1_555
C11 C12 1_555 1_555
C15 C16 1_555 1_555
C17 C18 1_555 1_555
C5C C6C 1_555 1_555
C7C C8C 1_555 1_555
C11C C12C 1_555 1_555
C15C C16C 1_555 1_555
C16C C17C 1_555 1_555
C17C C18C 1_555 1_555

#END
