
#######################################################################
#
#                 Cambridge Crystallographic Data Centre
#                                CCDC 
#
#######################################################################
#
# If this CIF has been generated from an entry in the Cambridge 
# Structural Database, then it will include bibliographic, chemical, 
# crystal, experimental, refinement or atomic coordinate data resulting 
# from the CCDC's data processing and validation procedures.
#
#######################################################################

data_MINPIL
_chemical_formula_moiety         'C28 H52 O6 Si2'
_chemical_name_systematic        
'methyl 10-((t-butyl(dimethyl)silyl)oxy)-6-(((t-butyl(dimethyl)silyl)oxy)methyl)-3-(2-methoxy-2-oxoethyl)tricyclo[4.3.1.0^1,5^]decane-2-carboxylate'
_symmetry_cell_setting           monoclinic
_symmetry_space_group_name_H-M   'P 21'
_symmetry_Int_Tables_number      4
_space_group_name_Hall           'P 2yb'
loop_
_symmetry_equiv_pos_site_id
_symmetry_equiv_pos_as_xyz
1 x,y,z
2 -x,1/2+y,-z
_cell_length_a                   10.1521(9)
_cell_length_b                   11.3289(10)
_cell_length_c                   13.8368(12)
_cell_angle_alpha                90
_cell_angle_beta                 90.00
_cell_angle_gamma                90
_cell_volume                     1591.4
_exptl_crystal_colour            white
_exptl_crystal_description       block
_cell_formula_units_Z            2
loop_
_atom_site_label
_atom_site_type_symbol
_atom_site_fract_x
_atom_site_fract_y
_atom_site_fract_z
C1 C 0.4282(4) 0.5289(4) 0.2496(3)
H1 H 0.5047 0.5598 0.2147
C2 C 0.4176(4) 0.3792(4) 0.1124(3)
C3 C 0.9322(12) 0.8839(9) 0.3668(7)
H2 H 1.0075 0.8854 0.3248
H3 H 0.9609 0.8744 0.4324
H4 H 0.8845 0.9567 0.3607
C4 C 0.6553(4) 0.3613(4) 0.2695(3)
H5 H 0.6667 0.4408 0.2430
C5 C 0.5129(5) 0.3951(4) 0.3795(3)
H6 H 0.4625 0.3551 0.4302
C6 C 0.6622(5) 0.3630(4) 0.3808(3)
C7 C 0.3282(5) 0.7337(5) 0.2522(3)
C8 C 0.5066(4) 0.3304(4) 0.2805(3)
C9 C 0.4634(4) 0.5211(4) 0.3587(3)
H7 H 0.5313 0.5782 0.3745
H8 H 0.3863 0.5381 0.3977
C10 C 0.4069(4) 0.4000(4) 0.2193(3)
H9 H 0.3183 0.3767 0.2397
C11 C 0.3089(4) 0.6059(4) 0.2257(3)
H10 H 0.2909 0.6004 0.1570
H11 H 0.2326 0.5756 0.2598
C12 C 0.4904(5) 0.1976(4) 0.2906(3)
H12 H 0.5303 0.1580 0.2358
H13 H 0.3975 0.1775 0.2920
C13 C 0.7629(5) 0.4389(5) 0.4317(3)
H14 H 0.7394 0.4466 0.4994
H15 H 0.8487 0.4015 0.4281
C14 C 0.8435(6) 0.7818(5) 0.3391(4)
C15 C 0.5572(6) 0.1567(5) 0.3851(4)
H16 H 0.4924 0.1573 0.4366
H17 H 0.5869 0.0759 0.3770
C16 C 0.9141(6) 0.1704(6) 0.0946(4)
C17 C 0.6752(6) 0.2334(5) 0.4156(3)
H18 H 0.7553 0.1997 0.3892
H19 H 0.6826 0.2324 0.4855
C18 C 0.9862(6) 0.3982(6) 0.2003(5)
H20 H 0.9522 0.4710 0.2257
H21 H 1.0539 0.4149 0.1538
H22 H 1.0223 0.3519 0.2520
C19 C 0.3875(7) 0.2377(6) -0.0107(4)
H23 H 0.3325 0.2862 -0.0508
H24 H 0.3620 0.1565 -0.0177
H25 H 0.4778 0.2469 -0.0299
C20 C 0.7777(6) 0.4054(7) 0.0416(4)
H26 H 0.7052 0.3638 0.0129
H27 H 0.8436 0.4204 -0.0066
H28 H 0.7470 0.4791 0.0676
C21 C 0.4002(9) 0.9195(6) 0.1972(5)
H29 H 0.3184 0.9560 0.2150
H30 H 0.4335 0.9557 0.1395
H31 H 0.4629 0.9294 0.2486
C22 C 1.0418(6) 0.6029(8) 0.4244(5)
H32 H 1.0581 0.5559 0.4808
H33 H 1.1010 0.6690 0.4236
H34 H 1.0555 0.5559 0.3675
C23 C 0.9861(9) 0.1895(8) -0.0011(6)
H35 H 1.0343 0.1194 -0.0177
H36 H 1.0461 0.2546 0.0052
H37 H 0.9232 0.2065 -0.0510
C24 C 0.8865(10) 0.7451(8) 0.2393(5)
H38 H 0.8307 0.6826 0.2165
H39 H 0.9761 0.7179 0.2415
H40 H 0.8803 0.8113 0.1962
C25 C 1.0099(9) 0.1158(8) 0.1693(7)
H41 H 1.0432 0.0423 0.1449
H42 H 0.9640 0.1021 0.2289
H43 H 1.0819 0.1691 0.1804
C26 C 0.7999(9) 0.0842(8) 0.0763(6)
H44 H 0.7343 0.1220 0.0371
H45 H 0.7616 0.0614 0.1369
H46 H 0.8325 0.0155 0.0436
C27 C 0.7022(10) 0.8163(11) 0.3309(9)
H47 H 0.6897 0.8626 0.2735
H48 H 0.6773 0.8619 0.3865
H49 H 0.6486 0.7466 0.3275
C28 C 0.8327(9) 0.6994(9) 0.5533(5)
H50 H 0.7523 0.7439 0.5552
H51 H 0.9034 0.7467 0.5782
H52 H 0.8234 0.6296 0.5920
O1 O 0.7344(3) 0.2791(3) 0.2199(2)
O2 O 0.4637(4) 0.4471(4) 0.0546(2)
O3 O 0.7693(3) 0.5532(3) 0.3885(2)
O4 O 0.3727(4) 0.2728(4) 0.0885(2)
O5 O 0.3791(5) 0.7955(4) 0.1802(3)
O6 O 0.3026(6) 0.7777(5) 0.3278(3)
Si1 Si 0.85011(12) 0.31421(12) 0.14065(8)
Si2 Si 0.86963(12) 0.65690(13) 0.42646(8)
loop_
_geom_bond_atom_site_label_1
_geom_bond_atom_site_label_2
_geom_bond_site_symmetry_1
_geom_bond_site_symmetry_2
C1 H1 1_555 1_555
C2 C10 1_555 1_555
C3 H2 1_555 1_555
H3 C3 1_555 1_555
H4 C3 1_555 1_555
C4 H5 1_555 1_555
C5 H6 1_555 1_555
C6 C4 1_555 1_555
C7 C11 1_555 1_555
C8 C4 1_555 1_555
C9 C1 1_555 1_555
H7 C9 1_555 1_555
H8 C9 1_555 1_555
C10 C1 1_555 1_555
H9 C10 1_555 1_555
C11 C1 1_555 1_555
H10 C11 1_555 1_555
H11 C11 1_555 1_555
C12 C8 1_555 1_555
H12 C12 1_555 1_555
H13 C12 1_555 1_555
C13 C6 1_555 1_555
H14 C13 1_555 1_555
H15 C13 1_555 1_555
C14 C3 1_555 1_555
C15 C12 1_555 1_555
H16 C15 1_555 1_555
H17 C15 1_555 1_555
C16 C23 1_555 1_555
C17 C6 1_555 1_555
H18 C17 1_555 1_555
H19 C17 1_555 1_555
C18 H20 1_555 1_555
H21 C18 1_555 1_555
H22 C18 1_555 1_555
C19 H23 1_555 1_555
H24 C19 1_555 1_555
H25 C19 1_555 1_555
C20 H26 1_555 1_555
H27 C20 1_555 1_555
H28 C20 1_555 1_555
C21 H29 1_555 1_555
H30 C21 1_555 1_555
H31 C21 1_555 1_555
C22 H32 1_555 1_555
H33 C22 1_555 1_555
H34 C22 1_555 1_555
C23 H35 1_555 1_555
H36 C23 1_555 1_555
H37 C23 1_555 1_555
C24 C14 1_555 1_555
H38 C24 1_555 1_555
H39 C24 1_555 1_555
H40 C24 1_555 1_555
C25 C16 1_555 1_555
H41 C25 1_555 1_555
H42 C25 1_555 1_555
H43 C25 1_555 1_555
C26 C16 1_555 1_555
H44 C26 1_555 1_555
H45 C26 1_555 1_555
H46 C26 1_555 1_555
C27 C14 1_555 1_555
H47 C27 1_555 1_555
H48 C27 1_555 1_555
H49 C27 1_555 1_555
C28 H50 1_555 1_555
H51 C28 1_555 1_555
H52 C28 1_555 1_555
O1 C4 1_555 1_555
O2 C2 1_555 1_555
O3 C13 1_555 1_555
O4 C2 1_555 1_555
O5 C7 1_555 1_555
O6 C7 1_555 1_555
Si1 C16 1_555 1_555
Si2 C14 1_555 1_555
C5 C6 1_555 1_555
C5 C8 1_555 1_555
C5 C9 1_555 1_555
C8 C10 1_555 1_555
C15 C17 1_555 1_555
C18 Si1 1_555 1_555
C19 O4 1_555 1_555
C20 Si1 1_555 1_555
C21 O5 1_555 1_555
C22 Si2 1_555 1_555
C28 Si2 1_555 1_555
O1 Si1 1_555 1_555
O3 Si2 1_555 1_555

#END
