
#######################################################################
#
#                 Cambridge Crystallographic Data Centre
#                                CCDC 
#
#######################################################################
#
# If this CIF has been generated from an entry in the Cambridge 
# Structural Database, then it will include bibliographic, chemical, 
# crystal, experimental, refinement or atomic coordinate data resulting 
# from the CCDC's data processing and validation procedures.
#
#######################################################################

data_MINZIV
_chemical_formula_moiety         'C10 H11 N1 O2'
_chemical_name_systematic        6-methoxy-3,4-dihydroquinolin-2(1H)-one
_symmetry_cell_setting           triclinic
_symmetry_space_group_name_H-M   'P -1'
_symmetry_Int_Tables_number      2
_space_group_name_Hall           '-P 1'
loop_
_symmetry_equiv_pos_site_id
_symmetry_equiv_pos_as_xyz
1 x,y,z
2 -x,-y,-z
_cell_length_a                   7.7330(16)
_cell_length_b                   10.403(2)
_cell_length_c                   11.212(2)
_cell_angle_alpha                83.13(3)
_cell_angle_beta                 80.45(3)
_cell_angle_gamma                73.05(3)
_cell_volume                     848.396
_exptl_crystal_colour            colorless
_exptl_crystal_description       plate
_cell_formula_units_Z            4
loop_
_atom_site_label
_atom_site_type_symbol
_atom_site_fract_x
_atom_site_fract_y
_atom_site_fract_z
O1 O 0.36873(12) 0.17279(9) 1.05529(7)
C1 C 0.32890(14) 0.14149(10) 0.85910(10)
H1 H 0.395854 0.049875 0.872374
C2 C 0.29480(15) 0.22816(11) 0.95127(10)
C3 C 0.19514(15) 0.36230(11) 0.93322(10)
H2 H 0.169201 0.421365 0.996268
C4 C 0.13373(16) 0.40903(11) 0.82142(10)
H3 H 0.066295 0.500569 0.808384
C5 C 0.17033(15) 0.32287(11) 0.72892(10)
C6 C 0.26656(14) 0.18697(11) 0.74830(10)
C7 C 0.29129(16) 0.09559(11) 0.64873(10)
H4 H 0.184384 0.059452 0.657383
H5 H 0.401049 0.018565 0.656113
C8 C 0.31219(16) 0.17068(12) 0.52379(10)
H6 H 0.435920 0.183818 0.506413
H7 H 0.301167 0.114368 0.461777
C9 C 0.17201(16) 0.30696(11) 0.51299(10)
N1 N 0.11027(14) 0.37192(10) 0.61567(9)
H8 H 0.031(2) 0.4514(18) 0.6086(15)
O2 O 0.12216(13) 0.35728(9) 0.41446(8)
C10 C 0.29219(18) 0.24085(13) 1.16355(10)
H9 H 0.321320 0.327311 1.155880
H10 H 0.343437 0.185118 1.233029
H11 H 0.159389 0.256728 1.175897
O3 O 0.17690(13) 0.84358(9) 0.56182(8)
C11 C 0.19050(15) 0.86492(10) 0.35075(10)
H12 H 0.131673 0.958213 0.357206
C12 C 0.23007(15) 0.78119(11) 0.45544(10)
C13 C 0.31726(16) 0.64433(11) 0.44694(10)
H13 H 0.345108 0.586877 0.517772
C14 C 0.36320(16) 0.59268(11) 0.33285(10)
H14 H 0.422208 0.499416 0.326368
C15 C 0.32370(14) 0.67586(10) 0.22922(9)
C16 C 0.23584(14) 0.81383(10) 0.23745(10)
C17 C 0.20008(16) 0.90073(10) 0.12214(10)
H15 H 0.305753 0.936519 0.090918
H16 H 0.091492 0.978188 0.139249
C18 C 0.16805(15) 0.82112(11) 0.02578(10)
H17 H 0.045085 0.807075 0.047289
H18 H 0.170799 0.874836 -0.053247
C19 C 0.30821(15) 0.68561(11) 0.01267(10)
N2 N 0.37320(13) 0.62195(9) 0.11461(8)
H19 H 0.460(2) 0.5393(17) 0.1081(15)
O4 O 0.35637(13) 0.63421(9) -0.08601(8)
C20 C 0.21830(19) 0.76246(12) 0.67044(10)
H20 H 0.162851 0.687720 0.679039
H21 H 0.169604 0.817268 0.740087
H22 H 0.350962 0.726500 0.667016
loop_
_geom_bond_atom_site_label_1
_geom_bond_atom_site_label_2
_geom_bond_site_symmetry_1
_geom_bond_site_symmetry_2
O1 C2 1_555 1_555
C1 H1 1_555 1_555
C2 C1 1_555 1_555
C3 C2 1_555 1_555
H2 C3 1_555 1_555
C4 C3 1_555 1_555
H3 C4 1_555 1_555
C5 C4 1_555 1_555
C6 C1 1_555 1_555
C7 C6 1_555 1_555
H4 C7 1_555 1_555
H5 C7 1_555 1_555
C8 C7 1_555 1_555
H6 C8 1_555 1_555
H7 C8 1_555 1_555
C9 C8 1_555 1_555
N1 C5 1_555 1_555
H8 N1 1_555 1_555
O2 C9 1_555 1_555
C10 O1 1_555 1_555
H9 C10 1_555 1_555
H10 C10 1_555 1_555
H11 C10 1_555 1_555
O3 C12 1_555 1_555
C11 H12 1_555 1_555
C12 C11 1_555 1_555
C13 C12 1_555 1_555
H13 C13 1_555 1_555
C14 C13 1_555 1_555
H14 C14 1_555 1_555
C15 C14 1_555 1_555
C16 C11 1_555 1_555
C17 C16 1_555 1_555
H15 C17 1_555 1_555
H16 C17 1_555 1_555
C18 C17 1_555 1_555
H17 C18 1_555 1_555
H18 C18 1_555 1_555
C19 C18 1_555 1_555
N2 C15 1_555 1_555
H19 N2 1_555 1_555
O4 C19 1_555 1_555
C20 O3 1_555 1_555
H20 C20 1_555 1_555
H21 C20 1_555 1_555
H22 C20 1_555 1_555
C5 C6 1_555 1_555
C9 N1 1_555 1_555
C15 C16 1_555 1_555
C19 N2 1_555 1_555

#END
