
#######################################################################
#
#                 Cambridge Crystallographic Data Centre
#                                CCDC 
#
#######################################################################
#
# If this CIF has been generated from an entry in the Cambridge 
# Structural Database, then it will include bibliographic, chemical, 
# crystal, experimental, refinement or atomic coordinate data resulting 
# from the CCDC's data processing and validation procedures.
#
#######################################################################

data_MINZUH
_chemical_formula_moiety         'C24 H24 N4 O2,0.5(C1 H2 Cl2)'
_chemical_name_systematic        
"8,17-dimethyl-2,3,8,8a,11,12,17,17a-octahydro-1H,10H-indolo[2',3':5,6]dipyrrolo[1',2':1,6;2'',1'':3,4]pyrazino[2,3-b]indole-1,10-dione dichloromethane solvate"
_symmetry_cell_setting           monoclinic
_symmetry_space_group_name_H-M   'C 2/c'
_symmetry_Int_Tables_number      15
_space_group_name_Hall           '-C 2yn'
loop_
_symmetry_equiv_pos_site_id
_symmetry_equiv_pos_as_xyz
1 x,y,z
2 -x,y,1/2-z
3 1/2+x,1/2+y,z
4 1/2-x,1/2+y,1/2-z
5 -x,-y,-z
6 x,-y,1/2+z
7 1/2-x,1/2-y,-z
8 1/2+x,1/2-y,1/2+z
_cell_length_a                   33.0815(14)
_cell_length_b                   7.1170(3)
_cell_length_c                   18.9854(7)
_cell_angle_alpha                90
_cell_angle_beta                 104.7812(14)
_cell_angle_gamma                90
_cell_volume                     4322.02
_exptl_crystal_colour            yellow
_exptl_crystal_description       plate
_cell_formula_units_Z            8
loop_
_atom_site_label
_atom_site_type_symbol
_atom_site_fract_x
_atom_site_fract_y
_atom_site_fract_z
C1 C 0.36377(7) 0.8604(3) 0.37731(13)
C2 C 0.35194(8) 0.9010(3) 0.30341(13)
H1 H 0.323400 0.921128 0.279078
C3 C 0.38274(9) 0.9117(3) 0.26598(13)
H2 H 0.374996 0.939539 0.215369
C4 C 0.42453(8) 0.8828(3) 0.30032(13)
H3 H 0.445073 0.890714 0.273435
C5 C 0.43628(7) 0.8420(3) 0.37467(12)
H4 H 0.464820 0.821250 0.398804
C6 C 0.40587(6) 0.8322(3) 0.41276(12)
N1 N 0.33883(5) 0.8341(3) 0.42481(11)
C7 C 0.29581(7) 0.8957(3) 0.41157(15)
H5 H 0.279937 0.851116 0.363640
H6 H 0.294897 1.033223 0.412833
H7 H 0.283501 0.844319 0.449265
C8 C 0.36440(6) 0.8205(3) 0.49910(12)
H8 H 0.3629(8) 0.937(4) 0.5261(13)
C9 C 0.40983(6) 0.7877(3) 0.49215(11)
C10 C 0.44377(6) 0.8955(3) 0.54801(12)
H9 H 0.450564 1.015545 0.527288
H10 H 0.434541 0.922422 0.592643
C11 C 0.48148(6) 0.7636(3) 0.56461(12)
H11 H 0.499784 0.788435 0.531749
H12 H 0.498023 0.777513 0.615718
C12 C 0.46225(6) 0.5706(3) 0.55143(11)
N2 N 0.42221(5) 0.5909(2) 0.51112(9)
O1 O 0.47917(5) 0.4200(2) 0.57221(8)
C13 C 0.33555(6) 0.3935(3) 0.39076(12)
C14 C 0.31804(6) 0.4251(3) 0.44947(12)
C15 C 0.27524(7) 0.4193(3) 0.43922(14)
H13 H 0.263231 0.442587 0.478810
C16 C 0.24972(7) 0.3790(3) 0.37007(15)
H14 H 0.220196 0.375797 0.362232
C17 C 0.26760(7) 0.3439(3) 0.31338(14)
H15 H 0.249992 0.314779 0.266767
C18 C 0.31052(7) 0.3498(3) 0.32220(12)
H16 H 0.322401 0.324650 0.282601
N3 N 0.37818(5) 0.4194(2) 0.41129(9)
C19 C 0.40648(7) 0.3664(3) 0.36791(12)
H17 H 0.410667 0.230043 0.370522
H18 H 0.433388 0.429729 0.386665
H19 H 0.394561 0.403613 0.317152
C20 C 0.39281(6) 0.4379(3) 0.48988(11)
H20 H 0.4077(7) 0.322(3) 0.5117(13)
C21 C 0.35251(6) 0.4727(3) 0.51639(11)
C22 C 0.35183(8) 0.3667(3) 0.58668(12)
H21 H 0.335849 0.248084 0.575297
H22 H 0.380587 0.337031 0.615197
C23 C 0.33048(8) 0.5008(4) 0.62886(14)
H23 H 0.300219 0.473275 0.618998
H24 H 0.343175 0.491184 0.681926
C24 C 0.33777(7) 0.6933(3) 0.60078(13)
N4 N 0.35128(5) 0.6695(2) 0.53926(10)
O2 O 0.33250(6) 0.8452(3) 0.62703(11)
Cl1 Cl 0.45454(3) 0.63336(14) 0.72699(4)
C25 C 0.500000 0.4952(6) 0.750000
H25 H 0.499087 0.413400 0.791731
H25A H 0.500913 0.413400 0.708269
Cl1A Cl 0.54546(3) 0.63336(14) 0.77301(4)
H26? H 0.499087 0.413396 0.791730
loop_
_geom_bond_atom_site_label_1
_geom_bond_atom_site_label_2
_geom_bond_site_symmetry_1
_geom_bond_site_symmetry_2
C1 C2 1_555 1_555
C2 H1 1_555 1_555
C3 C2 1_555 1_555
H2 C3 1_555 1_555
C4 C3 1_555 1_555
H3 C4 1_555 1_555
C5 C4 1_555 1_555
H4 C5 1_555 1_555
C6 C1 1_555 1_555
N1 C1 1_555 1_555
C7 N1 1_555 1_555
H5 C7 1_555 1_555
H6 C7 1_555 1_555
H7 C7 1_555 1_555
C8 N1 1_555 1_555
H8 C8 1_555 1_555
C9 C6 1_555 1_555
C10 C9 1_555 1_555
H9 C10 1_555 1_555
H10 C10 1_555 1_555
C11 C10 1_555 1_555
H11 C11 1_555 1_555
H12 C11 1_555 1_555
C12 C11 1_555 1_555
N2 C9 1_555 1_555
O1 C12 1_555 1_555
C13 C14 1_555 1_555
C14 C15 1_555 1_555
C15 H13 1_555 1_555
C16 C15 1_555 1_555
H14 C16 1_555 1_555
C17 C16 1_555 1_555
H15 C17 1_555 1_555
C18 C13 1_555 1_555
H16 C18 1_555 1_555
N3 C13 1_555 1_555
C19 N3 1_555 1_555
H17 C19 1_555 1_555
H18 C19 1_555 1_555
H19 C19 1_555 1_555
C20 N2 1_555 1_555
H20 C20 1_555 1_555
C21 C14 1_555 1_555
C22 C21 1_555 1_555
H21 C22 1_555 1_555
H22 C22 1_555 1_555
C23 C22 1_555 1_555
H23 C23 1_555 1_555
H24 C23 1_555 1_555
C24 C23 1_555 1_555
N4 C8 1_555 1_555
O2 C24 1_555 1_555
Cl1 C25 1_555 1_555
C25 H25 1_555 1_555
H25A C25 1_555 1_555
Cl1A C25 1_555 1_555
C5 C6 1_555 1_555
C8 C9 1_555 1_555
C12 N2 1_555 1_555
C17 C18 1_555 1_555
N3 C20 1_555 1_555
C20 C21 1_555 1_555
C21 N4 1_555 1_555
C24 N4 1_555 1_555

#END
