
#######################################################################
#
#                 Cambridge Crystallographic Data Centre
#                                CCDC 
#
#######################################################################
#
# If this CIF has been generated from an entry in the Cambridge 
# Structural Database, then it will include bibliographic, chemical, 
# crystal, experimental, refinement or atomic coordinate data resulting 
# from the CCDC's data processing and validation procedures.
#
#######################################################################

data_MINZOB
_chemical_formula_moiety         'C9 H9 N1 O2'
_chemical_name_systematic        1-azaspiro[4.5]deca-6,9-diene-2,8-dione
_symmetry_cell_setting           monoclinic
_symmetry_space_group_name_H-M   'P 21'
_symmetry_Int_Tables_number      4
_space_group_name_Hall           'P 2yb'
loop_
_symmetry_equiv_pos_site_id
_symmetry_equiv_pos_as_xyz
1 x,y,z
2 -x,1/2+y,-z
_cell_length_a                   5.5875(11)
_cell_length_b                   9.817(2)
_cell_length_c                   6.9562(14)
_cell_angle_alpha                90
_cell_angle_beta                 93.366(6)
_cell_angle_gamma                90
_cell_volume                     380.907
_exptl_crystal_colour            colorless
_exptl_crystal_description       plate
_cell_formula_units_Z            2
loop_
_atom_site_label
_atom_site_type_symbol
_atom_site_fract_x
_atom_site_fract_y
_atom_site_fract_z
O1 O 0.8444(6) 0.3032(3) 1.0956(5)
C1 C 0.7215(8) 0.5645(5) 0.7521(6)
H1 H 0.787347 0.648908 0.714234
C2 C 0.8287(8) 0.4977(5) 0.8996(6)
H2 H 0.970208 0.534748 0.961440
C3 C 0.7345(8) 0.3687(4) 0.9694(7)
C4 C 0.5027(8) 0.3259(5) 0.8848(7)
H3 H 0.425259 0.249603 0.937569
C5 C 0.3959(8) 0.3910(4) 0.7349(7)
H4 H 0.245094 0.358631 0.683777
C6 C 0.5034(7) 0.5127(5) 0.6442(6)
C7 C 0.5559(8) 0.4802(4) 0.4328(6)
H5 H 0.687531 0.537913 0.389313
H6 H 0.599893 0.383225 0.418141
C8 C 0.3197(8) 0.5125(5) 0.3196(6)
H7 H 0.348748 0.546433 0.188989
H8 H 0.215481 0.430964 0.308193
C9 C 0.2099(8) 0.6207(5) 0.4378(6)
N1 N 0.3238(7) 0.6205(4) 0.6147(6)
H9 H 0.272(9) 0.677(5) 0.701(6)
O2 O 0.0443(6) 0.6974(3) 0.3875(5)
loop_
_geom_bond_atom_site_label_1
_geom_bond_atom_site_label_2
_geom_bond_site_symmetry_1
_geom_bond_site_symmetry_2
O1 C3 1_555 1_555
C1 H1 1_555 1_555
C2 C1 1_555 1_555
H2 C2 1_555 1_555
C3 C2 1_555 1_555
C4 C3 1_555 1_555
H3 C4 1_555 1_555
C5 C4 1_555 1_555
H4 C5 1_555 1_555
C6 C1 1_555 1_555
C7 C6 1_555 1_555
H5 C7 1_555 1_555
H6 C7 1_555 1_555
C8 C7 1_555 1_555
H7 C8 1_555 1_555
H8 C8 1_555 1_555
C9 C8 1_555 1_555
N1 C6 1_555 1_555
H9 N1 1_555 1_555
O2 C9 1_555 1_555
C5 C6 1_555 1_555
C9 N1 1_555 1_555

#END
