
#######################################################################
#
#                 Cambridge Crystallographic Data Centre
#                                CCDC 
#
#######################################################################
#
# If this CIF has been generated from an entry in the Cambridge 
# Structural Database, then it will include bibliographic, chemical, 
# crystal, experimental, refinement or atomic coordinate data resulting 
# from the CCDC's data processing and validation procedures.
#
#######################################################################

data_MIPBAR
_chemical_formula_moiety         'C24 H24 N4 O4'
_chemical_name_systematic        
4,13-dimethoxy-2,3,8,8a,11,12,17,17a-octahydro-1H,10H-indolo[2',3':5,6]dipyrrolo[1',2':1,6;2'',1'':3,4]pyrazino[2,3-b]indole-1,10-dione
_symmetry_cell_setting           monoclinic
_symmetry_space_group_name_H-M   'P 21/c'
_symmetry_Int_Tables_number      14
_space_group_name_Hall           '-P 2ybc'
loop_
_symmetry_equiv_pos_site_id
_symmetry_equiv_pos_as_xyz
1 x,y,z
2 -x,1/2+y,1/2-z
3 -x,-y,-z
4 x,1/2-y,1/2+z
_cell_length_a                   8.2950(17)
_cell_length_b                   8.4400(17)
_cell_length_c                   29.932(6)
_cell_angle_alpha                90
_cell_angle_beta                 91.04(3)
_cell_angle_gamma                90
_cell_volume                     2095.19
_exptl_crystal_colour            colorless
_exptl_crystal_description       block
_cell_formula_units_Z            4
loop_
_atom_site_label
_atom_site_type_symbol
_atom_site_fract_x
_atom_site_fract_y
_atom_site_fract_z
C1 C 0.73020(12) 0.65145(12) 0.40381(4)
C2 C 0.72778(11) 0.58074(11) 0.36185(3)
C3 C 0.80907(12) 0.64916(12) 0.32652(4)
C4 C 0.89084(14) 0.79283(13) 0.33356(5)
H1 H 0.951(2) 0.841(2) 0.3088(6)
C5 C 0.89016(15) 0.86197(13) 0.37595(5)
H2 H 0.952(2) 0.959(2) 0.3802(6)
C6 C 0.81132(14) 0.79434(14) 0.41166(5)
H3 H 0.814(2) 0.844(2) 0.4421(6)
O1 O 0.80640(10) 0.56665(10) 0.28726(3)
C7 C 0.90022(17) 0.62799(19) 0.25156(5)
H4 H 1.013(3) 0.630(2) 0.2621(7)
H5 H 0.861(3) 0.733(2) 0.2435(7)
H6 H 0.882(2) 0.554(2) 0.2249(7)
N1 N 0.65359(12) 0.55691(13) 0.43468(3)
H7 H 0.624(2) 0.597(2) 0.4618(5)
C8 C 0.57263(11) 0.42641(11) 0.41298(3)
H8 H 0.5974(17) 0.3261(17) 0.4289(4)
C9 C 0.63927(10) 0.42400(10) 0.36429(3)
C10 C 0.74297(11) 0.27414(11) 0.35526(3)
H9 H 0.8567(17) 0.2958(17) 0.3615(5)
H10 H 0.7091(17) 0.1909(17) 0.3757(5)
C11 C 0.70268(13) 0.22528(12) 0.30722(3)
H11 H 0.7805(18) 0.2703(18) 0.2852(5)
H12 H 0.6931(18) 0.1079(18) 0.3039(5)
C12 C 0.54128(12) 0.30201(11) 0.29757(3)
N2 N 0.50830(9) 0.40491(9) 0.33132(2)
O2 O 0.45176(10) 0.27845(9) 0.26520(2)
C13 C 0.36675(11) 0.76971(10) 0.34210(3)
C14 C 0.32801(11) 0.70758(10) 0.38364(3)
C15 C 0.30852(12) 0.80664(11) 0.42022(3)
C16 C 0.33048(14) 0.96970(11) 0.41516(4)
H13 H 0.3186(19) 1.0407(18) 0.4412(5)
C17 C 0.36816(14) 1.02904(12) 0.37302(4)
H14 H 0.3816(19) 1.145(2) 0.3694(5)
C18 C 0.38631(13) 0.93257(11) 0.33581(3)
H15 H 0.4118(18) 0.9753(18) 0.3067(5)
O3 O 0.26691(10) 0.73430(9) 0.45927(2)
C19 C 0.23861(16) 0.83377(14) 0.49673(3)
H16 H 0.338(2) 0.891(2) 0.5061(6)
H17 H 0.205(2) 0.765(2) 0.5203(6)
H18 H 0.152(2) 0.910(2) 0.4894(6)
N3 N 0.37186(10) 0.65200(9) 0.30986(3)
H19 H 0.4357(17) 0.6663(17) 0.2861(5)
C20 C 0.36053(10) 0.49722(10) 0.33079(3)
H20 H 0.2805(16) 0.4282(15) 0.3145(4)
C21 C 0.30486(10) 0.53066(10) 0.37971(3)
C22 C 0.13030(11) 0.47350(12) 0.38827(3)
H21 H 0.0501(17) 0.5594(17) 0.3848(5)
H22 H 0.1058(17) 0.3878(17) 0.3656(5)
C23 C 0.13350(12) 0.40348(12) 0.43541(3)
H23 H 0.0741(18) 0.3044(18) 0.4384(5)
H24 H 0.0934(18) 0.4792(18) 0.4583(5)
C24 C 0.30960(12) 0.37243(10) 0.44536(3)
N4 N 0.39766(9) 0.43645(9) 0.41204(2)
O4 O 0.36720(10) 0.30051(8) 0.47755(2)
loop_
_geom_bond_atom_site_label_1
_geom_bond_atom_site_label_2
_geom_bond_site_symmetry_1
_geom_bond_site_symmetry_2
C1 C2 1_555 1_555
C2 C3 1_555 1_555
C3 C4 1_555 1_555
C4 H1 1_555 1_555
C5 C4 1_555 1_555
H2 C5 1_555 1_555
C6 C1 1_555 1_555
H3 C6 1_555 1_555
O1 C3 1_555 1_555
C7 O1 1_555 1_555
H4 C7 1_555 1_555
H5 C7 1_555 1_555
H6 C7 1_555 1_555
N1 C1 1_555 1_555
H7 N1 1_555 1_555
C8 N1 1_555 1_555
H8 C8 1_555 1_555
C9 C2 1_555 1_555
C10 C9 1_555 1_555
H9 C10 1_555 1_555
H10 C10 1_555 1_555
C11 C10 1_555 1_555
H11 C11 1_555 1_555
H12 C11 1_555 1_555
C12 C11 1_555 1_555
N2 C9 1_555 1_555
O2 C12 1_555 1_555
C13 C14 1_555 1_555
C14 C15 1_555 1_555
C15 C16 1_555 1_555
C16 H13 1_555 1_555
C17 C16 1_555 1_555
H14 C17 1_555 1_555
C18 C13 1_555 1_555
H15 C18 1_555 1_555
O3 C15 1_555 1_555
C19 O3 1_555 1_555
H16 C19 1_555 1_555
H17 C19 1_555 1_555
H18 C19 1_555 1_555
N3 C13 1_555 1_555
H19 N3 1_555 1_555
C20 N2 1_555 1_555
H20 C20 1_555 1_555
C21 C14 1_555 1_555
C22 C21 1_555 1_555
H21 C22 1_555 1_555
H22 C22 1_555 1_555
C23 C22 1_555 1_555
H23 C23 1_555 1_555
H24 C23 1_555 1_555
C24 C23 1_555 1_555
N4 C8 1_555 1_555
O4 C24 1_555 1_555
C5 C6 1_555 1_555
C8 C9 1_555 1_555
C12 N2 1_555 1_555
C17 C18 1_555 1_555
N3 C20 1_555 1_555
C20 C21 1_555 1_555
C21 N4 1_555 1_555
C24 N4 1_555 1_555

#END
