
#######################################################################
#
#                 Cambridge Crystallographic Data Centre
#                                CCDC 
#
#######################################################################
#
# If this CIF has been generated from an entry in the Cambridge 
# Structural Database, then it will include bibliographic, chemical, 
# crystal, experimental, refinement or atomic coordinate data resulting 
# from the CCDC's data processing and validation procedures.
#
#######################################################################

data_MIPHIX
_chemical_formula_moiety         'C25 H28 N5 O2 1+,Cl1 O4 1-,C1 H4 O1'
_chemical_name_systematic        
'5-(N-Benzyl-N-methyliminioprop-2-enyl)-3,7,8,10-tetramethyl-1,5-dihydro-isoalloxazine perchlorate'
_symmetry_cell_setting           monoclinic
_symmetry_space_group_name_H-M   'P 21/c'
_symmetry_Int_Tables_number      14
_space_group_name_Hall           '-P 2ybc'
loop_
_symmetry_equiv_pos_site_id
_symmetry_equiv_pos_as_xyz
1 x,y,z
2 -x,1/2+y,1/2-z
3 -x,-y,-z
4 x,1/2-y,1/2+z
_cell_length_a                   7.742(5)
_cell_length_b                   17.890(5)
_cell_length_c                   18.830(5)
_cell_angle_alpha                90
_cell_angle_beta                 98.06(1)
_cell_angle_gamma                90
_cell_volume                     2582.27
_exptl_crystal_colour            'pale yellow'
_cell_formula_units_Z            4
loop_
_atom_site_label
_atom_site_type_symbol
_atom_site_fract_x
_atom_site_fract_y
_atom_site_fract_z
N1 N 0.62930 0.91600 1.04280
C1 C 0.55860 0.95200 1.09600
N2 N 0.55350 0.91540 1.15800
C2 C 0.62580 0.84510 1.17280
C3 C 0.71110 0.81400 1.11800
N3 N 0.79760 0.74170 1.12830
C4 C 0.77100 0.69640 1.06510
C5 C 0.76390 0.61780 1.07040
C6 C 0.75620 0.57430 1.00910
C7 C 0.74930 0.60710 0.94290
C8 C 0.74510 0.68760 0.93770
C9 C 0.75740 0.73040 0.99880
N4 N 0.75050 0.81070 0.99550
C10 C 0.70190 0.84580 1.05330
O1 O 0.49420 1.01590 1.08420
C11 C 0.46450 0.95390 1.21210
O2 O 0.61050 0.81520 1.23060
C12 C 0.75400 0.48990 1.01710
C13 C 0.73670 0.56240 0.87580
C14 C 0.76650 0.84710 0.92790
C15 C 0.91330 0.72260 1.18390
C16 C 0.97350 0.76340 1.24360
C17 C 1.10060 0.72940 1.29160
N5 N 1.18760 0.75890 1.34890
C18 C 1.16820 0.83650 1.37000
C19 C 1.31870 0.71380 1.39420
C20 C 1.26740 0.69350 1.46610
C21 C 1.29390 0.74500 1.52280
C22 C 1.24240 0.72530 1.58800
C23 C 1.16790 0.65650 1.59760
C24 C 1.14630 0.60790 1.54320
C25 C 1.19550 0.62550 1.47600
Cl1 Cl 1.00040 1.01670 1.23100
O3 O 1.13770 1.00640 1.29340
O4 O 0.86000 1.05580 1.25490
O5 O 0.94700 0.94130 1.21030
O6 O 1.06890 1.05690 1.17880
C26 C 0.50830 0.63800 1.21150
O7 O 0.45660 0.68870 1.25360
loop_
_geom_bond_atom_site_label_1
_geom_bond_atom_site_label_2
_geom_bond_site_symmetry_1
_geom_bond_site_symmetry_2
N1 C1 1_555 1_555
C1 N2 1_555 1_555
N2 C2 1_555 1_555
C2 C3 1_555 1_555
C3 N3 1_555 1_555
N3 C4 1_555 1_555
C4 C5 1_555 1_555
C5 C6 1_555 1_555
C6 C7 1_555 1_555
C7 C8 1_555 1_555
C8 C9 1_555 1_555
C9 C4 1_555 1_555
N4 C9 1_555 1_555
C10 N1 1_555 1_555
O1 C1 1_555 1_555
C11 N2 1_555 1_555
O2 C2 1_555 1_555
C12 C6 1_555 1_555
C13 C7 1_555 1_555
C14 N4 1_555 1_555
C15 N3 1_555 1_555
C16 C15 1_555 1_555
C17 C16 1_555 1_555
N5 C17 1_555 1_555
C18 N5 1_555 1_555
C19 N5 1_555 1_555
C20 C19 1_555 1_555
C21 C20 1_555 1_555
C22 C21 1_555 1_555
C23 C22 1_555 1_555
C24 C23 1_555 1_555
C25 C20 1_555 1_555
Cl1 O3 1_555 1_555
O4 Cl1 1_555 1_555
O5 Cl1 1_555 1_555
O6 Cl1 1_555 1_555
C26 O7 1_555 1_555
C3 C10 1_555 1_555
N4 C10 1_555 1_555
C24 C25 1_555 1_555

#END
