
#######################################################################
#
#                 Cambridge Crystallographic Data Centre
#                                CCDC 
#
#######################################################################
#
# If this CIF has been generated from an entry in the Cambridge 
# Structural Database, then it will include bibliographic, chemical, 
# crystal, experimental, refinement or atomic coordinate data resulting 
# from the CCDC's data processing and validation procedures.
#
#######################################################################

data_MIPLED
_chemical_formula_moiety         'C14 H17 Cl1 O2'
_chemical_name_systematic        
(2S,4S)-2-((R)-Hydroxy-(4-chlorophenyl)methyl)-4-methylcyclohexanone
_symmetry_cell_setting           orthorhombic
_symmetry_space_group_name_H-M   'P 21 21 21'
_symmetry_Int_Tables_number      19
_space_group_name_Hall           'P 2ac 2ab'
loop_
_symmetry_equiv_pos_site_id
_symmetry_equiv_pos_as_xyz
1 x,y,z
2 1/2-x,-y,1/2+z
3 -x,1/2+y,1/2-z
4 1/2+x,1/2-y,-z
_cell_length_a                   6.71893(4)
_cell_length_b                   10.43752(8)
_cell_length_c                   19.1216(4)
_cell_angle_alpha                90
_cell_angle_beta                 90
_cell_angle_gamma                90
_cell_volume                     1340.98
_exptl_crystal_colour            colorless
_exptl_crystal_description       prism
_cell_formula_units_Z            4
loop_
_atom_site_label
_atom_site_type_symbol
_atom_site_fract_x
_atom_site_fract_y
_atom_site_fract_z
Cl1 Cl 0.39276(10) 0.85456(5) 0.12265(3)
O1 O -0.19921(18) 0.38232(13) 0.00682(6)
H1 H -0.1513 0.3579 -0.0303
O2 O -0.47201(18) 0.21068(15) 0.10419(7)
C1 C 0.1995(4) 0.1503(3) 0.24848(12)
H2 H 0.2831 0.2230 0.2576
H3 H 0.2808 0.0758 0.2414
H4 H 0.1126 0.1364 0.2876
C2 C 0.0759(3) 0.17529(18) 0.18319(9)
H5 H 0.1678 0.1864 0.1439
C3 C -0.0592(3) 0.06350(18) 0.16633(11)
H6 H -0.1512 0.0502 0.2047
H7 H 0.0202 -0.0136 0.1611
C4 C -0.1762(3) 0.08735(17) 0.09919(11)
H8 H -0.0857 0.0949 0.0599
H9 H -0.2658 0.0164 0.0903
C5 C -0.2920(2) 0.20860(17) 0.10781(8)
C6 C -0.1740(2) 0.32644(15) 0.12599(8)
H10 H -0.2675 0.3948 0.1384
C7 C -0.0453(3) 0.29727(18) 0.19013(8)
H11 H 0.0445 0.3686 0.1980
H12 H -0.1309 0.2901 0.2308
C8 C -0.0555(2) 0.36939(16) 0.06092(8)
H13 H 0.0389 0.3018 0.0481
C9 C 0.0572(2) 0.49235(16) 0.07329(8)
C10 C 0.2523(3) 0.48872(19) 0.09677(12)
H14 H 0.3149 0.4100 0.1027
C11 C 0.3548(3) 0.5995(2) 0.11143(12)
H15 H 0.4850 0.5957 0.1278
C12 C 0.2640(3) 0.71481(19) 0.10182(10)
C13 C 0.0743(3) 0.72271(18) 0.07615(10)
H16 H 0.0155 0.8019 0.0679
C14 C -0.0282(3) 0.61049(17) 0.06268(9)
H17 H -0.1581 0.6150 0.0460
loop_
_geom_bond_atom_site_label_1
_geom_bond_atom_site_label_2
_geom_bond_site_symmetry_1
_geom_bond_site_symmetry_2
Cl1 C12 1_555 1_555
O1 H1 1_555 1_555
O2 C5 1_555 1_555
C1 H2 1_555 1_555
H3 C1 1_555 1_555
H4 C1 1_555 1_555
C2 C1 1_555 1_555
H5 C2 1_555 1_555
C3 C2 1_555 1_555
H6 C3 1_555 1_555
H7 C3 1_555 1_555
C4 C3 1_555 1_555
H8 C4 1_555 1_555
H9 C4 1_555 1_555
C5 C4 1_555 1_555
C6 C5 1_555 1_555
H10 C6 1_555 1_555
C7 C2 1_555 1_555
H11 C7 1_555 1_555
H12 C7 1_555 1_555
C8 O1 1_555 1_555
H13 C8 1_555 1_555
C9 C8 1_555 1_555
C10 C9 1_555 1_555
H14 C10 1_555 1_555
C11 C10 1_555 1_555
H15 C11 1_555 1_555
C12 C11 1_555 1_555
C13 C12 1_555 1_555
H16 C13 1_555 1_555
C14 C9 1_555 1_555
H17 C14 1_555 1_555
C6 C7 1_555 1_555
C6 C8 1_555 1_555
C13 C14 1_555 1_555

#END
