
#######################################################################
#
#                 Cambridge Crystallographic Data Centre
#                                CCDC 
#
#######################################################################
#
# If this CIF has been generated from an entry in the Cambridge 
# Structural Database, then it will include bibliographic, chemical, 
# crystal, experimental, refinement or atomic coordinate data resulting 
# from the CCDC's data processing and validation procedures.
#
#######################################################################

data_MIPMAZ
_chemical_formula_moiety         'C12 H15 N1 O4'
_chemical_name_systematic        
'6-Acetyl-7-oxo-6-azabicyclo(3.2.1)oct-3-ene-2,4-dimethyl-8-carboxylic acid'
_symmetry_cell_setting           monoclinic
_symmetry_space_group_name_H-M   'P 21/c'
_symmetry_Int_Tables_number      14
_space_group_name_Hall           '-P 2ybc'
loop_
_symmetry_equiv_pos_site_id
_symmetry_equiv_pos_as_xyz
1 x,y,z
2 x,1/2-y,1/2+z
3 -x,-y,-z
4 -x,1/2+y,1/2-z
_cell_length_a                   10.175(2)
_cell_length_b                   7.979(2)
_cell_length_c                   15.612(3)
_cell_angle_alpha                90
_cell_angle_beta                 104.37(3)
_cell_angle_gamma                90
_cell_volume                     1227.83
_exptl_crystal_colour            colorless
_exptl_crystal_description       prism
_chemical_melting_point          '167 deg.C'
_cell_formula_units_Z            4
loop_
_atom_site_label
_atom_site_type_symbol
_atom_site_fract_x
_atom_site_fract_y
_atom_site_fract_z
C1 C 0.6201(3) 0.2944(4) 0.6010(2)
C2 C 0.6636(4) 0.4733(4) 0.6152(2)
H1 H 0.7484(4) 0.4793(4) 0.6590(2)
H2 H 0.5961(4) 0.5357(4) 0.6350(2)
H3 H 0.6744(4) 0.5200(4) 0.5607(2)
C3 C 0.6773(3) -0.0100(4) 0.6303(2)
H4 H 0.6268(30) -0.0194(36) 0.5693(19)
C4 C 0.5976(3) -0.0801(4) 0.6933(2)
C5 C 0.6646(4) -0.1044(4) 0.7766(2)
H5 H 0.6197(37) -0.1487(44) 0.8163(24)
C6 C 0.8130(4) -0.0672(5) 0.8140(2)
H6 H 0.8542(34) -0.1809(46) 0.8253(21)
C7 C 0.8742(3) 0.0148(4) 0.7430(2)
H7 H 0.9741(34) 0.0201(39) 0.7654(18)
C8 C 0.8232(3) -0.0788(4) 0.6567(2)
H8 H 0.8193(25) -0.1980(36) 0.6619(15)
C9 C 0.9003(3) -0.0402(4) 0.5884(2)
C10 C 0.8173(3) 0.1889(4) 0.7195(2)
C11 C 0.4485(4) -0.1096(5) 0.6565(3)
H9 H 0.4243(4) -0.0829(5) 0.5946(3)
H10 H 0.3980(4) -0.0396(5) 0.6868(3)
H11 H 0.4279(4) -0.2250(5) 0.6644(3)
C12 C 0.8365(4) 0.0323(5) 0.8993(2)
H12 H 0.9317(4) 0.0538(5) 0.9214(2)
H13 H 0.8042(4) -0.0308(5) 0.9424(2)
H14 H 0.7884(4) 0.1367(5) 0.8882(2)
N1 N 0.7041(2) 0.1718(3) 0.64813(13)
O1 O 0.5157(2) 0.2516(3) 0.5486(2)
O2 O 0.8581(2) 0.3189(3) 0.75685(13)
O3 O 0.9674(2) 0.0870(3) 0.58919(14)
O4 O 0.8870(3) -0.1554(3) 0.5271(2)
H15 H 0.9254(38) -0.1247(24) 0.4894(15)
loop_
_geom_bond_atom_site_label_1
_geom_bond_atom_site_label_2
_geom_bond_site_symmetry_1
_geom_bond_site_symmetry_2
C1 C2 1_555 1_555
C2 H1 1_555 1_555
H2 C2 1_555 1_555
H3 C2 1_555 1_555
C3 H4 1_555 1_555
C4 C3 1_555 1_555
C5 C4 1_555 1_555
H5 C5 1_555 1_555
C6 C5 1_555 1_555
H6 C6 1_555 1_555
C7 C6 1_555 1_555
H7 C7 1_555 1_555
C8 C3 1_555 1_555
H8 C8 1_555 1_555
C9 C8 1_555 1_555
C10 C7 1_555 1_555
C11 C4 1_555 1_555
H9 C11 1_555 1_555
H10 C11 1_555 1_555
H11 C11 1_555 1_555
C12 C6 1_555 1_555
H12 C12 1_555 1_555
H13 C12 1_555 1_555
H14 C12 1_555 1_555
N1 C1 1_555 1_555
O1 C1 1_555 1_555
O2 C10 1_555 1_555
O3 C9 1_555 1_555
O4 C9 1_555 1_555
H15 O4 1_555 1_555
C3 N1 1_555 1_555
C7 C8 1_555 1_555
C10 N1 1_555 1_555

#END
