
#######################################################################
#
#                 Cambridge Crystallographic Data Centre
#                                CCDC 
#
#######################################################################
#
# If this CIF has been generated from an entry in the Cambridge 
# Structural Database, then it will include bibliographic, chemical, 
# crystal, experimental, refinement or atomic coordinate data resulting 
# from the CCDC's data processing and validation procedures.
#
#######################################################################

data_MIPMOO
_chemical_formula_moiety         'C68 H92 N8 O16,2.25(C6 H6),0.25(H2 O1)'
_chemical_name_systematic        
'5,11,17,23-tetrakis(1-oxyl-3-oxo-4,4,5,5-tetramethylimidazolin-2-yl)-25,26,27,28-tetrakis(methoxyethoxy)calix(4)arene tetraradical benzene solvate hydrate'
_symmetry_cell_setting           monoclinic
_symmetry_space_group_name_H-M   'P 21/n'
_symmetry_Int_Tables_number      14
_space_group_name_Hall           '-P 2yn'
loop_
_symmetry_equiv_pos_site_id
_symmetry_equiv_pos_as_xyz
1 x,y,z
2 1/2-x,1/2+y,1/2-z
3 -x,-y,-z
4 1/2+x,1/2-y,1/2+z
_cell_length_a                   19.576(3)
_cell_length_b                   31.283(5)
_cell_length_c                   27.078(4)
_cell_angle_alpha                90
_cell_angle_beta                 103.362(16)
_cell_angle_gamma                90
_cell_volume                     16133.6
_exptl_crystal_colour            blue
_exptl_crystal_description       block
_chemical_melting_point          'about 200 deg.C(dec.)'
_cell_formula_units_Z            8
_exptl_crystal_recrystallization_method benzene/heptane
_exptl_crystal_preparation       'magnetic properties'
loop_
_atom_site_label
_atom_site_type_symbol
_atom_site_fract_x
_atom_site_fract_y
_atom_site_fract_z
C1 C -0.1345(3) 0.27252(16) 0.78219(18)
C2 C -0.1480(2) 0.22868(15) 0.78168(18)
H1 H -0.1376 0.2131 0.8127
C3 C -0.1768(3) 0.20724(15) 0.73606(18)
C4 C -0.1896(2) 0.23075(15) 0.69080(18)
H2 H -0.2070 0.2163 0.6595
C5 C -0.1779(2) 0.27417(16) 0.69036(17)
C6 C -0.1520(2) 0.29557(16) 0.73643(18)
C7 C -0.1930(3) 0.29743(16) 0.63890(18)
H3 H -0.2089 0.2761 0.6117
H4 H -0.2323 0.3177 0.6378
C8 C -0.1320(3) 0.32177(15) 0.62758(17)
C9 C -0.1370(3) 0.36539(15) 0.61834(18)
H5 H -0.1794 0.3799 0.6190
C10 C -0.0803(3) 0.38829(15) 0.60809(18)
C11 C -0.0175(3) 0.36695(15) 0.60849(17)
H6 H 0.0213 0.3825 0.6021
C12 C -0.0109(2) 0.32356(15) 0.61804(16)
C13 C -0.0697(2) 0.30114(14) 0.62585(16)
C14 C 0.0593(3) 0.30123(16) 0.62085(18)
H7 H 0.0536 0.2813 0.5918
H8 H 0.0942 0.3231 0.6168
C15 C 0.0888(2) 0.27632(15) 0.66929(17)
C16 C 0.1006(3) 0.23301(15) 0.66715(18)
H9 H 0.0905 0.2191 0.6351
C17 C 0.1273(3) 0.20862(15) 0.71154(18)
C18 C 0.1415(2) 0.23030(15) 0.75801(18)
H10 H 0.1588 0.2145 0.7883
C19 C 0.1315(2) 0.27357(16) 0.76152(17)
C20 C 0.1054(2) 0.29694(15) 0.71653(18)
C21 C 0.1486(3) 0.29454(16) 0.81364(17)
H11 H 0.1668 0.2724 0.8394
H12 H 0.1866 0.3157 0.8147
C22 C 0.0872(2) 0.31689(15) 0.82806(16)
C23 C 0.0917(3) 0.36008(15) 0.84066(17)
H13 H 0.1345 0.3749 0.8425
C24 C 0.0342(3) 0.38198(16) 0.85070(18)
C25 C -0.0286(3) 0.36006(16) 0.84782(18)
H14 H -0.0681 0.3750 0.8539
C26 C -0.0346(3) 0.31685(16) 0.83628(17)
C27 C 0.0244(3) 0.29562(15) 0.82807(17)
C28 C -0.1038(3) 0.29417(16) 0.83235(18)
H15 H -0.1384 0.3152 0.8390
H16 H -0.0974 0.2723 0.8595
O1 O -0.1845(3) 0.15084(13) 0.82375(15)
O2 O -0.2126(2) 0.14562(12) 0.64874(13)
N1 N -0.1935(2) 0.13766(13) 0.77737(15)
N2 N -0.2063(2) 0.13513(13) 0.69579(15)
C29 C -0.1921(3) 0.16203(16) 0.73650(18)
C30 C -0.2194(3) 0.09338(16) 0.76430(18)
C31 C -0.2056(3) 0.08905(16) 0.7104(2)
C32 C -0.2988(3) 0.09376(18) 0.7638(2)
H17 H -0.3048 0.0966 0.7986
H18 H -0.3204 0.0670 0.7490
H19 H -0.3215 0.1180 0.7434
C33 C -0.1815(4) 0.06216(18) 0.8036(2)
H20 H -0.1314 0.0621 0.8037
H21 H -0.2008 0.0334 0.7954
H22 H -0.1876 0.0706 0.8371
C34 C -0.1325(3) 0.0726(2) 0.7099(3)
H23 H -0.1274 0.0708 0.6748
H24 H -0.1258 0.0443 0.7256
H25 H -0.0972 0.0923 0.7291
C35 C -0.2607(4) 0.06454(18) 0.6725(2)
H26 H -0.2474 0.0635 0.6398
H27 H -0.3062 0.0789 0.6683
H28 H -0.2642 0.0354 0.6850
O3 O -0.13833(18) 0.33865(11) 0.73839(13)
C36 C -0.1959(4) 0.3665(2) 0.7305(2)
H29 H -0.2327 0.3541 0.7029
H30 H -0.1809 0.3935 0.7172
C37 C -0.2305(8) 0.3783(4) 0.7720(4)
H31 H -0.2547 0.3531 0.7821
H32 H -0.1950 0.3884 0.8020
O4 O -0.2802(5) 0.4116(4) 0.7537(5)
C38 C -0.2464(11) 0.4529(4) 0.7557(9)
H33 H -0.2819 0.4750 0.7436
H35 H -0.2219 0.4592 0.7908
O7 O -0.1660(3) 0.45082(13) 0.65199(18)
O8 O -0.0047(2) 0.44603(12) 0.55045(16)
N3 N -0.1231(2) 0.46192(12) 0.62428(18)
N4 N -0.0458(2) 0.45944(11) 0.5784(2)
C42 C -0.0853(2) 0.43465(12) 0.60196(17)
C43 C -0.1033(3) 0.50788(14) 0.6208(2)
C44 C -0.0665(3) 0.50606(14) 0.5773(2)
C45 C -0.0512(5) 0.5188(2) 0.6714(3)
H45 H -0.0093 0.5009 0.6752
H46 H -0.0735 0.5135 0.6997
H47 H -0.0379 0.5490 0.6713
C46 C -0.1675(4) 0.5353(2) 0.6140(3)
H48 H -0.1994 0.5289 0.5813
H49 H -0.1538 0.5655 0.6149
H50 H -0.1912 0.5296 0.6415
C47 C -0.0040(4) 0.5350(2) 0.5800(4)
H51 H 0.0292 0.5312 0.6129
H52 H -0.0198 0.5648 0.5764
H53 H 0.0190 0.5278 0.5526
C48 C -0.1201(4) 0.5130(2) 0.5250(3)
H54 H -0.1611 0.4946 0.5232
H55 H -0.0976 0.5058 0.4973
H56 H -0.1350 0.5430 0.5219
O9 O -0.06464(17) 0.25723(10) 0.63339(12)
C49 C -0.0868(4) 0.23330(16) 0.5866(2)
H57 H -0.0568 0.2404 0.5629
H58 H -0.1361 0.2402 0.5700
C50 C -0.0800(3) 0.18707(18) 0.6003(2)
H59 H -0.1051 0.1801 0.6271
H60 H -0.0301 0.1786 0.6119
O10 O -0.1142(5) 0.1658(3) 0.5504(3)
C51 C -0.0994(6) 0.1192(3) 0.5631(5)
H61 H -0.1190 0.1017 0.5332
H62 H -0.1212 0.1110 0.5909
H63 H -0.0486 0.1146 0.5735
O13 O 0.1007(5) 0.1503(2) 0.62126(14)
O14 O 0.1764(4) 0.1468(2) 0.79698(13)
N5 N 0.1216(5) 0.13724(15) 0.66769(15)
N6 N 0.1585(8) 0.13600(15) 0.74957(15)
C56 C 0.1385(2) 0.16266(12) 0.70947(14)
C57 C 0.1285(5) 0.09045(16) 0.6793(3)
C58 C 0.1716(8) 0.09100(17) 0.7336(3)
C59 C 0.0511(7) 0.0747(4) 0.6760(6)
H74 H 0.0248 0.0748 0.6405
H75 H 0.0282 0.0940 0.6959
H76 H 0.0521 0.0457 0.6897
C60 C 0.1570(13) 0.0653(7) 0.6398(8)
H77 H 0.1240 0.0674 0.6066
H78 H 0.1627 0.0352 0.6500
H79 H 0.2026 0.0771 0.6376
C61 C 0.2524(6) 0.0863(4) 0.7369(6)
H80 H 0.2780 0.0869 0.7726
H81 H 0.2683 0.1099 0.7187
H82 H 0.2613 0.0591 0.7216
C62 C 0.1540(8) 0.0582(4) 0.7690(5)
H83 H 0.1854 0.0616 0.8026
H84 H 0.1599 0.0295 0.7560
H85 H 0.1052 0.0620 0.7715
O17 O 0.09133(19) 0.33991(10) 0.71810(13)
C70 C 0.1478(3) 0.36906(18) 0.7233(2)
H98 H 0.1752 0.3629 0.6976
H99 H 0.1794 0.3664 0.7574
C71 C 0.1176(5) 0.4135(2) 0.7158(3)
H100 H 0.1573 0.4337 0.7187
H101 H 0.0890 0.4155 0.6806
O18 O 0.0747(4) 0.42827(17) 0.7495(2)
C72 C 0.0000(4) 0.4155(2) 0.7329(2)
H102 H -0.0259 0.4258 0.7576
H103 H -0.0033 0.3842 0.7307
H104 H -0.0203 0.4280 0.6996
O19 O 0.1581(3) 0.43471(14) 0.89965(18)
O20 O -0.0794(3) 0.44597(17) 0.8314(3)
N9 N 0.0954(3) 0.44999(16) 0.88215(19)
N10 N -0.0152(4) 0.45474(16) 0.8516(2)
C73 C 0.0380(3) 0.42760(18) 0.8617(2)
C74 C 0.0820(5) 0.4967(2) 0.8812(3)
C75 C 0.0030(5) 0.49833(19) 0.8712(3)
C76 C 0.1109(5) 0.5129(3) 0.8351(4)
H105 H 0.0830 0.5005 0.8036
H106 H 0.1601 0.5041 0.8396
H107 H 0.1078 0.5441 0.8332
C77 C 0.1227(7) 0.5177(3) 0.9298(5)
H108 H 0.1042 0.5077 0.9585
H109 H 0.1176 0.5488 0.9268
H110 H 0.1724 0.5101 0.9355
C78 C -0.0343(4) 0.5309(2) 0.8326(3)
H111 H -0.0173 0.5284 0.8014
H112 H -0.0247 0.5598 0.8465
H113 H -0.0850 0.5256 0.8249
C79 C -0.0205(7) 0.5010(3) 0.9223(4)
H114 H -0.0719 0.5020 0.9153
H115 H -0.0009 0.5268 0.9407
H116 H -0.0036 0.4757 0.9429
O21 O 0.01965(18) 0.25213(10) 0.81785(12)
C80 C 0.0429(3) 0.22637(15) 0.8618(2)
H117 H 0.0172 0.2341 0.8880
H118 H 0.0937 0.2309 0.8761
C81 C 0.0295(3) 0.18091(15) 0.8468(2)
H119 H -0.0215 0.1760 0.8341
H120 H 0.0533 0.1736 0.8194
O22 O 0.0562(2) 0.15487(12) 0.89056(17)
C82 C 0.0468(4) 0.10986(19) 0.8789(3)
H121 H 0.0657 0.0930 0.9095
H122 H 0.0716 0.1023 0.8525
H123 H -0.0034 0.1037 0.8667
O6 O -0.1876(5) 0.4847(3) 0.7473(4)
H43 H -0.1815 0.4749 0.7194
H44 H -0.1569 0.4737 0.7714
C83 C -0.1719(2) 0.28743(16) 1.22611(18)
C84 C -0.1854(3) 0.29519(16) 1.27291(18)
H124 H -0.2183 0.2776 1.2842
C85 C -0.1522(3) 0.32814(16) 1.30443(18)
C86 C -0.1013(3) 0.35211(16) 1.28835(19)
H125 H -0.0774 0.3741 1.3097
C87 C -0.0848(3) 0.34473(16) 1.24213(18)
C88 C -0.1223(3) 0.31333(17) 1.21073(18)
C89 C -0.0282(3) 0.37066(16) 1.22659(19)
H126 H -0.0071 0.3900 1.2550
H127 H -0.0505 0.3888 1.1973
C90 C 0.0306(3) 0.34534(15) 1.21219(18)
C91 C 0.0455(3) 0.35087(15) 1.16547(18)
H128 H 0.0191 0.3710 1.1425
C92 C 0.0991(3) 0.32747(15) 1.15077(18)
C93 C 0.1362(2) 0.29742(15) 1.18423(17)
H129 H 0.1714 0.2808 1.1743
C94 C 0.1228(2) 0.29110(15) 1.23192(18)
C95 C 0.0706(3) 0.31559(15) 1.24561(17)
C96 C 0.1644(2) 0.25800(15) 1.26755(18)
H130 H 0.1986 0.2445 1.2506
H131 H 0.1914 0.2728 1.2982
C97 C 0.1208(2) 0.22317(15) 1.28408(17)
C98 C 0.1261(3) 0.21567(16) 1.33495(18)
H132 H 0.1561 0.2331 1.3594
C99 C 0.0881(3) 0.18301(16) 1.35109(17)
C100 C 0.0418(3) 0.15863(15) 1.31551(18)
H133 H 0.0149 0.1369 1.3266
C101 C 0.0342(3) 0.16570(16) 1.26360(17)
C102 C 0.0750(2) 0.19700(15) 1.24863(17)
C103 C -0.0187(3) 0.13953(16) 1.22591(18)
H134 H -0.0422 0.1195 1.2450
H135 H 0.0070 0.1221 1.2056
C104 C -0.0747(3) 0.16513(15) 1.18985(17)
C105 C -0.0842(2) 0.15941(15) 1.13787(17)
H136 H -0.0554 0.1395 1.1256
C106 C -0.1348(3) 0.18204(18) 1.10329(18)
C107 C -0.1755(3) 0.21193(19) 1.12156(19)
H137 H -0.2098 0.2278 1.0981
C108 C -0.1673(2) 0.21913(17) 1.17320(19)
C109 C -0.1177(3) 0.19452(16) 1.20703(18)
C110 C -0.2118(3) 0.25235(18) 1.1918(2)
H138 H -0.2427 0.2375 1.2104
H139 H -0.2424 0.2661 1.1618
O23 O -0.2150(2) 0.26993(13) 1.36993(15)
O24 O -0.1361(2) 0.40896(13) 1.36352(15)
N11 N -0.1959(2) 0.30822(14) 1.38205(16)
N12 N -0.1588(2) 0.37393(15) 1.37905(16)
C111 C -0.1690(3) 0.33637(17) 1.35366(19)
C112 C -0.1928(3) 0.32514(18) 1.4339(2)
C113 C -0.1870(3) 0.37324(19) 1.4260(2)
C114 C -0.2561(4) 0.3109(2) 1.4524(3)
H140 H -0.2986 0.3234 1.4309
H141 H -0.2514 0.3203 1.4876
H142 H -0.2594 0.2796 1.4509
C115 C -0.1238(4) 0.3064(2) 1.4670(2)
H143 H -0.0838 0.3165 1.4541
H144 H -0.1257 0.2751 1.4656
H145 H -0.1183 0.3159 1.5022
C116 C -0.1396(4) 0.3980(2) 1.4680(2)
H146 H -0.0940 0.3837 1.4778
H147 H -0.1609 0.3995 1.4973
H148 H -0.1331 0.4270 1.4561
C117 C -0.2590(3) 0.3953(2) 1.4116(2)
H149 H -0.2525 0.4260 1.4070
H150 H -0.2838 0.3910 1.4388
H151 H -0.2865 0.3830 1.3800
O25 O -0.10850(19) 0.30626(13) 1.16299(12)
C118 C -0.1459(4) 0.3312(2) 1.1236(3)
H152 H -0.1291 0.3612 1.1267
H153 H -0.1967 0.3308 1.1226
C119 C -0.1306(7) 0.3097(4) 1.0761(4)
H154 H -0.1514 0.2807 1.0742
H155 H -0.1576 0.3257 1.0464
O26 O -0.0611(6) 0.3048(4) 1.0686(5)
C120 C -0.0312(7) 0.2657(4) 1.0863(5)
H156 H 0.0168 0.2643 1.0816
H157 H -0.0591 0.2424 1.0674
H158 H -0.0305 0.2628 1.1225
O28 O 0.0628(4) 0.40148(17) 1.0813(2)
O29 O 0.1710(2) 0.26993(13) 1.09033(15)
N13 N 0.0942(3) 0.36794(16) 1.07075(18)
N14 N 0.1456(2) 0.30647(15) 1.07490(15)
C124 C 0.1127(3) 0.33398(16) 1.10060(18)
C125 C 0.1216(4) 0.3671(2) 1.0233(2)
C126 C 0.1430(4) 0.3207(2) 1.0218(2)
C127 C 0.1848(5) 0.3976(3) 1.0341(3)
H166 H 0.2209 0.3866 1.0626
H167 H 0.1697 0.4260 1.0428
H168 H 0.2041 0.3998 1.0039
C128 C 0.0664(5) 0.3841(3) 0.9796(3)
H169 H 0.0263 0.3644 0.9723
H170 H 0.0860 0.3866 0.9496
H171 H 0.0508 0.4123 0.9884
C129 C 0.2108(5) 0.3108(3) 1.0080(4)
H172 H 0.2483 0.3283 1.0287
H173 H 0.2068 0.3172 0.9720
H174 H 0.2220 0.2805 1.0143
C130 C 0.0840(6) 0.2934(3) 0.9884(3)
H175 H 0.0392 0.3000 0.9971
H176 H 0.0948 0.2630 0.9946
H177 H 0.0806 0.2999 0.9525
O30 O 0.05636(18) 0.30954(11) 1.29332(12)
O31 O 0.0960(3) 0.35973(15) 1.41555(16)
C131 C 0.0905(3) 0.33931(18) 1.33164(19)
H178 H 0.0776 0.3690 1.3206
H179 H 0.1421 0.3363 1.3379
C132 C 0.0662(4) 0.32915(19) 1.3791(2)
H180 H 0.0143 0.3304 1.3723
H181 H 0.0815 0.3001 1.3912
C133 C 0.0817(6) 0.3505(2) 1.4638(3)
H182 H 0.1034 0.3723 1.4884
H183 H 0.1009 0.3224 1.4754
H184 H 0.0308 0.3504 1.4607
O32 O 0.1304(3) 0.24300(15) 1.43875(17)
O33 O 0.0642(4) 0.10311(16) 1.40283(17)
N15 N 0.1147(3) 0.20399(15) 1.44325(16)
N16 N 0.0807(3) 0.13868(16) 1.42662(17)
C134 C 0.0950(3) 0.17481(17) 1.40555(18)
C135 C 0.1082(3) 0.1873(2) 1.4934(2)
C136 C 0.1007(3) 0.13899(19) 1.4829(2)
C137 C 0.1712(4) 0.2030(3) 1.5334(2)
H185 H 0.2142 0.1902 1.5272
H186 H 0.1658 0.1947 1.5672
H187 H 0.1742 0.2342 1.5315
C138 C 0.0413(4) 0.2075(2) 1.5032(3)
H188 H 0.0006 0.1975 1.4776
H189 H 0.0446 0.2387 1.5013
H190 H 0.0360 0.1993 1.5371
C139 C 0.1721(4) 0.1151(3) 1.4994(3)
H191 H 0.2078 0.1300 1.4859
H192 H 0.1669 0.0858 1.4862
H193 H 0.1866 0.1143 1.5366
C140 C 0.0455(4) 0.1159(2) 1.5036(2)
H194 H 0.0006 0.1309 1.4931
H195 H 0.0598 0.1151 1.5407
H196 H 0.0404 0.0866 1.4903
O34 O 0.06912(18) 0.20365(11) 1.19703(12)
O35 O 0.1449(3) 0.15470(19) 1.1016(2)
C141 C 0.1182(4) 0.1782(2) 1.1773(2)
H197 H 0.1161 0.1480 1.1877
H198 H 0.1666 0.1888 1.1904
C142 C 0.0978(4) 0.1818(2) 1.1206(2)
H199 H 0.0486 0.1725 1.1075
H200 H 0.1023 0.2118 1.1099
C143 C 0.1345(6) 0.1606(4) 1.0476(4)
H201 H 0.1674 0.1423 1.0348
H202 H 0.1430 0.1906 1.0404
H203 H 0.0862 0.1528 1.0308
C144 C -0.1434(3) 0.17544(17) 1.04883(18)
O36 O -0.0348(5) 0.1473(3) 1.0447(3)
O37 O -0.2663(5) 0.1888(3) 1.0259(3)
N17 N -0.1012(5) 0.1572(3) 1.0259(4)
N18 N -0.2070(5) 0.1787(3) 1.0162(3)
C145 C -0.2014(6) 0.1687(4) 0.9634(4)
C146 C -0.1267(8) 0.1649(4) 0.9689(5)
C147 C -0.2340(8) 0.1279(5) 0.9512(6)
H204 H -0.2197 0.1087 0.9803
H205 H -0.2194 0.1158 0.9219
H206 H -0.2851 0.1313 0.9431
C148 C -0.2424(10) 0.2014(17) 0.9219(15)
H207 H -0.2086 0.2182 0.9084
H208 H -0.2709 0.2206 0.9375
H209 H -0.2730 0.1855 0.8942
C149 C -0.0942(15) 0.1251(15) 0.9472(15)
H210 H -0.1159 0.0989 0.9562
H211 H -0.0435 0.1242 0.9617
H212 H -0.1029 0.1274 0.9102
C150 C -0.0859(13) 0.2064(9) 0.957(2)
H213 H -0.1012 0.2137 0.9214
H214 H -0.0353 0.2007 0.9659
H215 H -0.0961 0.2302 0.9781
O40 O -0.10955(17) 0.20049(11) 1.25875(12)
C157 C -0.1558(3) 0.1739(2) 1.2802(2)
H228 H -0.1476 0.1433 1.2743
H229 H -0.2055 0.1807 1.2648
C158 C -0.1383(4) 0.1837(2) 1.3369(3)
H230 H -0.0904 0.1739 1.3534
H231 H -0.1422 0.2147 1.3432
O41 O -0.1902(3) 0.16001(16) 1.3547(2)
C159 C -0.1775(5) 0.1644(3) 1.4094(3)
H232 H -0.2130 0.1483 1.4219
H233 H -0.1802 0.1947 1.4182
H234 H -0.1307 0.1534 1.4252
C163 C -0.1835(9) 0.0607(5) 1.3610(6)
H242 H -0.2032 0.0641 1.3897
C164 C -0.1044(7) 0.0631(4) 1.3670(5)
H243 H -0.0735 0.0687 1.3989
C165 C -0.0805(7) 0.0569(4) 1.3253(5)
H244 H -0.0313 0.0562 1.3282
C166 C -0.1259(7) 0.0514(4) 1.2771(5)
H245 H -0.1093 0.0489 1.2469
C167 C -0.1959(6) 0.0499(4) 1.2771(5)
H246 H -0.2275 0.0454 1.2452
C168 C -0.2237(7) 0.0539(4) 1.3165(5)
H247 H -0.2731 0.0519 1.3125
C169 C 0.2835(3) 0.4736(3) 0.6368(3)
H248 H 0.3209 0.4923 0.6516
C170 C 0.2146(4) 0.48816(16) 0.6268(2)
H249 H 0.2049 0.5168 0.6347
C171 C 0.1598(3) 0.46084(18) 0.6052(2)
H250 H 0.1127 0.4708 0.5983
C172 C 0.1740(3) 0.41895(17) 0.5936(2)
H251 H 0.1366 0.4003 0.5788
C173 C 0.2429(4) 0.40438(19) 0.6036(3)
H252 H 0.2526 0.3758 0.5957
C174 C 0.2977(3) 0.4317(3) 0.6252(3)
H253 H 0.3448 0.4217 0.6321
C175 C -0.2005(4) 0.0099(3) 0.5317(5)
H254 H -0.2497 0.0088 0.5293
C176 C -0.1752(6) 0.0188(3) 0.4889(4)
H255 H -0.2071 0.0237 0.4572
C177 C -0.1033(7) 0.0205(3) 0.4924(4)
H256 H -0.0860 0.0265 0.4631
C178 C -0.0566(4) 0.0133(3) 0.5388(5)
H257 H -0.0075 0.0144 0.5412
C179 C -0.0819(6) 0.0045(3) 0.5816(4)
H258 H -0.0500 -0.0004 0.6133
C180 C -0.1538(6) 0.0028(3) 0.5781(4)
H259 H -0.1711 -0.0033 0.6074
C181 C -0.2266(8) 0.4187(4) 0.9010(5)
H260 H -0.2510 0.4430 0.8846
C182 C -0.1664(8) 0.4242(3) 0.9394(6)
H261 H -0.1496 0.4521 0.9492
C183 C -0.1306(6) 0.3887(4) 0.9634(5)
H262 H -0.0895 0.3924 0.9896
C184 C -0.1551(6) 0.3478(4) 0.9490(5)
H263 H -0.1306 0.3236 0.9654
C185 C -0.2153(6) 0.3424(3) 0.9106(4)
H264 H -0.2320 0.3144 0.9008
C186 C -0.2510(6) 0.3778(5) 0.8866(4)
H265 H -0.2922 0.3741 0.8604
C187 C -0.4911(8) 0.4683(6) 0.6407(5)
H266 H -0.5240 0.4725 0.6093
C188 C -0.4268(9) 0.4491(5) 0.6416(5)
H267 H -0.4158 0.4401 0.6109
C189 C -0.3786(7) 0.4430(4) 0.6876(6)
H268 H -0.3346 0.4298 0.6882
C190 C -0.3947(7) 0.4561(5) 0.7326(5)
H269 H -0.3617 0.4520 0.7640
C191 C -0.4590(8) 0.4754(4) 0.7317(5)
H270 H -0.4700 0.4843 0.7625
C192 C -0.5072(6) 0.4815(4) 0.6857(6)
H271 H -0.5511 0.4946 0.6851
C193 C -0.3516(14) 0.4433(5) 0.5527(7)
H272 H -0.3398 0.4233 0.5798
C194 C -0.4208(12) 0.4564(7) 0.5353(10)
H273 H -0.4563 0.4454 0.5505
C195 C -0.4380(8) 0.4856(8) 0.4957(10)
H274 H -0.4853 0.4946 0.4838
C196 C -0.3860(12) 0.5017(6) 0.4735(6)
H275 H -0.3978 0.5216 0.4464
C197 C -0.3168(10) 0.4885(6) 0.4909(7)
H276 H -0.2812 0.4995 0.4757
C198 C -0.2996(9) 0.4593(5) 0.5305(7)
H277 H -0.2523 0.4503 0.5424
H34? H -0.2126 0.4526 0.7341
C39? C -0.1959(4) 0.3665(2) 0.7305(2)
H36? H -0.2250 0.3622 0.6957
H37? H -0.1786 0.3964 0.7330
C40? C -0.2405(7) 0.3602(6) 0.7675(4)
H38? H -0.2879 0.3721 0.7539
H39? H -0.2453 0.3293 0.7739
O5? O -0.2075(6) 0.3815(5) 0.8137(3)
C41? C -0.2480(10) 0.3770(7) 0.8519(5)
H40? H -0.2247 0.3926 0.8826
H41? H -0.2513 0.3467 0.8601
H42? H -0.2952 0.3886 0.8389
C52? C -0.0800(3) 0.18707(18) 0.6003(2)
H64? H -0.0319 0.1807 0.6200
H65? H -0.1136 0.1792 0.6210
O11? O -0.0951(8) 0.1637(4) 0.5533(5)
C53? C -0.1213(10) 0.1202(5) 0.5515(8)
H66? H -0.1323 0.1101 0.5163
H67? H -0.1639 0.1195 0.5647
H68? H -0.0855 0.1017 0.5722
C54? C -0.0800(3) 0.18707(18) 0.6003(2)
H69? H -0.0775 0.1717 0.5688
H70? H -0.1251 0.1787 0.6082
O12? O -0.0212(11) 0.1677(7) 0.6432(7)
C55? C -0.0337(11) 0.1755(11) 0.6941(8)
H71? H 0.0053 0.1636 0.7198
H72? H -0.0777 0.1616 0.6967
H73? H -0.0371 0.2063 0.6995
O15? O 0.1362(5) 0.1543(2) 0.62237(15)
O16? O 0.1503(4) 0.1436(2) 0.79555(14)
N7? N 0.1466(5) 0.13995(15) 0.66839(16)
N8? N 0.1507(8) 0.13488(15) 0.74887(16)
C63? C 0.1385(2) 0.16266(12) 0.70947(14)
C64? C 0.1668(5) 0.09424(17) 0.6799(3)
C65? C 0.1499(9) 0.08889(15) 0.7315(3)
C66? C 0.2451(6) 0.0942(4) 0.6823(6)
H86? H 0.2528 0.0979 0.6480
H87? H 0.2654 0.0670 0.6964
H88? H 0.2675 0.1177 0.7040
C67? C 0.1221(13) 0.0639(7) 0.6399(8)
H89? H 0.1344 0.0681 0.6071
H90? H 0.0722 0.0701 0.6364
H91? H 0.1316 0.0342 0.6509
C68? C 0.0747(6) 0.0749(4) 0.7324(6)
H92? H 0.0704 0.0725 0.7676
H93? H 0.0646 0.0471 0.7155
H94? H 0.0411 0.0962 0.7145
C69? C 0.2046(8) 0.0642(4) 0.7708(5)
H95? H 0.1889 0.0622 0.8026
H96? H 0.2497 0.0792 0.7770
H97? H 0.2100 0.0354 0.7581
C121? C -0.1459(4) 0.3312(2) 1.1236(3)
H159? H -0.1448 0.3609 1.1364
H160? H -0.1954 0.3217 1.1167
C122? C -0.1259(7) 0.3331(4) 1.0737(4)
H161? H -0.0741 0.3347 1.0800
H162? H -0.1410 0.3062 1.0551
O27? O -0.1555(7) 0.3684(4) 1.0422(5)
C123? C -0.1345(14) 0.3651(8) 0.9958(7)
H163? H -0.1548 0.3888 0.9735
H164? H -0.1509 0.3379 0.9794
H165? H -0.0831 0.3664 1.0024
O38? O -0.0907(5) 0.1097(3) 1.0477(3)
O39? O -0.1923(5) 0.2437(3) 1.0150(3)
N19? N -0.1225(5) 0.1419(3) 1.0254(4)
N20? N -0.1680(5) 0.2066(3) 1.0096(3)
C151? C -0.1570(6) 0.1926(4) 0.9594(4)
C152? C -0.1459(8) 0.1431(4) 0.9681(5)
C153? C -0.0968(15) 0.2201(10) 0.953(2)
H216? H -0.0543 0.2121 0.9781
H217? H -0.1078 0.2502 0.9574
H218? H -0.0891 0.2160 0.9186
C154? C -0.2173(12) 0.2030(18) 0.9193(15)
H219? H -0.2241 0.2340 0.9179
H220? H -0.2591 0.1891 0.9260
H221? H -0.2095 0.1928 0.8868
C155? C -0.0874(15) 0.1299(16) 0.9398(15)
H222? H -0.0788 0.0991 0.9437
H223? H -0.0441 0.1455 0.9545
H224? H -0.1030 0.1369 0.9037
C156? C -0.2106(8) 0.1132(5) 0.9571(6)
H225? H -0.1952 0.0836 0.9642
H226? H -0.2353 0.1159 0.9213
H227? H -0.2423 0.1213 0.9787
C160? C -0.1558(3) 0.1739(2) 1.2802(2)
H235? H -0.2045 0.1836 1.2659
H236? H -0.1522 0.1443 1.2679
C161? C -0.147(2) 0.1720(14) 1.3306(16)
H237? H -0.1479 0.1413 1.3394
H238? H -0.1890 0.1851 1.3385
O42? O -0.0760(13) 0.1935(8) 1.3722(9)
C162? C -0.050(2) 0.2366(12) 1.3684(15)
H239? H -0.0097 0.2419 1.3968
H240? H -0.0872 0.2573 1.3696
H241? H -0.0354 0.2398 1.3363
loop_
_geom_bond_atom_site_label_1
_geom_bond_atom_site_label_2
_geom_bond_site_symmetry_1
_geom_bond_site_symmetry_2
C1 C2 1_555 1_555
C2 H1 1_555 1_555
C3 C2 1_555 1_555
C4 C3 1_555 1_555
H2 C4 1_555 1_555
C5 C4 1_555 1_555
C6 C1 1_555 1_555
C7 C5 1_555 1_555
H3 C7 1_555 1_555
H4 C7 1_555 1_555
C8 C7 1_555 1_555
C9 C8 1_555 1_555
H5 C9 1_555 1_555
C10 C9 1_555 1_555
C11 C10 1_555 1_555
H6 C11 1_555 1_555
C12 C11 1_555 1_555
C13 C8 1_555 1_555
C14 C12 1_555 1_555
H7 C14 1_555 1_555
H8 C14 1_555 1_555
C15 C14 1_555 1_555
C16 C15 1_555 1_555
H9 C16 1_555 1_555
C17 C16 1_555 1_555
C18 C17 1_555 1_555
H10 C18 1_555 1_555
C19 C18 1_555 1_555
C20 C15 1_555 1_555
C21 C19 1_555 1_555
H11 C21 1_555 1_555
H12 C21 1_555 1_555
C22 C21 1_555 1_555
C23 C22 1_555 1_555
H13 C23 1_555 1_555
C24 C23 1_555 1_555
C25 C24 1_555 1_555
H14 C25 1_555 1_555
C26 C25 1_555 1_555
C27 C22 1_555 1_555
C28 C1 1_555 1_555
H15 C28 1_555 1_555
H16 C28 1_555 1_555
O1 N1 1_555 1_555
O2 N2 1_555 1_555
N1 C29 1_555 1_555
N2 C29 1_555 1_555
C29 C3 1_555 1_555
C30 N1 1_555 1_555
C31 N2 1_555 1_555
C32 C30 1_555 1_555
H17 C32 1_555 1_555
H18 C32 1_555 1_555
H19 C32 1_555 1_555
C33 C30 1_555 1_555
H20 C33 1_555 1_555
H21 C33 1_555 1_555
H22 C33 1_555 1_555
C34 C31 1_555 1_555
H23 C34 1_555 1_555
H24 C34 1_555 1_555
H25 C34 1_555 1_555
C35 C31 1_555 1_555
H26 C35 1_555 1_555
H27 C35 1_555 1_555
H28 C35 1_555 1_555
O3 C6 1_555 1_555
C36 O3 1_555 1_555
H29 C36 1_555 1_555
H30 C36 1_555 1_555
C37 C36 1_555 1_555
H31 C37 1_555 1_555
H32 C37 1_555 1_555
O4 C37 1_555 1_555
C38 O4 1_555 1_555
H33 C38 1_555 1_555
H35 C38 1_555 1_555
O6 H43 1_555 1_555
H44 O6 1_555 1_555
O7 N3 1_555 1_555
O8 N4 1_555 1_555
N3 C42 1_555 1_555
N4 C42 1_555 1_555
C42 C10 1_555 1_555
C43 N3 1_555 1_555
C44 N4 1_555 1_555
C45 C43 1_555 1_555
H45 C45 1_555 1_555
H46 C45 1_555 1_555
H47 C45 1_555 1_555
C46 C43 1_555 1_555
H48 C46 1_555 1_555
H49 C46 1_555 1_555
H50 C46 1_555 1_555
C47 C44 1_555 1_555
H51 C47 1_555 1_555
H52 C47 1_555 1_555
H53 C47 1_555 1_555
C48 C44 1_555 1_555
H54 C48 1_555 1_555
H55 C48 1_555 1_555
H56 C48 1_555 1_555
O9 C13 1_555 1_555
C49 O9 1_555 1_555
H57 C49 1_555 1_555
H58 C49 1_555 1_555
C50 C49 1_555 1_555
H59 C50 1_555 1_555
H60 C50 1_555 1_555
O10 C50 1_555 1_555
C51 O10 1_555 1_555
H61 C51 1_555 1_555
H62 C51 1_555 1_555
H63 C51 1_555 1_555
O13 N5 1_555 1_555
O14 N6 1_555 1_555
N5 C56 1_555 1_555
N6 C56 1_555 1_555
C56 C17 1_555 1_555
C57 N5 1_555 1_555
C58 N6 1_555 1_555
C59 C57 1_555 1_555
H74 C59 1_555 1_555
H75 C59 1_555 1_555
H76 C59 1_555 1_555
C60 C57 1_555 1_555
H77 C60 1_555 1_555
H78 C60 1_555 1_555
H79 C60 1_555 1_555
C61 C58 1_555 1_555
H80 C61 1_555 1_555
H81 C61 1_555 1_555
H82 C61 1_555 1_555
C62 C58 1_555 1_555
H83 C62 1_555 1_555
H84 C62 1_555 1_555
H85 C62 1_555 1_555
O17 C20 1_555 1_555
C70 O17 1_555 1_555
H98 C70 1_555 1_555
H99 C70 1_555 1_555
C71 C70 1_555 1_555
H100 C71 1_555 1_555
H101 C71 1_555 1_555
O18 C71 1_555 1_555
C72 O18 1_555 1_555
H102 C72 1_555 1_555
H103 C72 1_555 1_555
H104 C72 1_555 1_555
O19 N9 1_555 1_555
O20 N10 1_555 1_555
N9 C73 1_555 1_555
N10 C73 1_555 1_555
C73 C24 1_555 1_555
C74 N9 1_555 1_555
C75 N10 1_555 1_555
C76 C74 1_555 1_555
H105 C76 1_555 1_555
H106 C76 1_555 1_555
H107 C76 1_555 1_555
C77 C74 1_555 1_555
H108 C77 1_555 1_555
H109 C77 1_555 1_555
H110 C77 1_555 1_555
C78 C75 1_555 1_555
H111 C78 1_555 1_555
H112 C78 1_555 1_555
H113 C78 1_555 1_555
C79 C75 1_555 1_555
H114 C79 1_555 1_555
H115 C79 1_555 1_555
H116 C79 1_555 1_555
O21 C27 1_555 1_555
C80 O21 1_555 1_555
H117 C80 1_555 1_555
H118 C80 1_555 1_555
C81 C80 1_555 1_555
H119 C81 1_555 1_555
H120 C81 1_555 1_555
O22 C81 1_555 1_555
C82 O22 1_555 1_555
H121 C82 1_555 1_555
H122 C82 1_555 1_555
H123 C82 1_555 1_555
C83 C84 1_555 1_555
C84 H124 1_555 1_555
C85 C84 1_555 1_555
C86 C85 1_555 1_555
H125 C86 1_555 1_555
C87 C86 1_555 1_555
C88 C83 1_555 1_555
C89 C87 1_555 1_555
H126 C89 1_555 1_555
H127 C89 1_555 1_555
C90 C89 1_555 1_555
C91 C90 1_555 1_555
H128 C91 1_555 1_555
C92 C91 1_555 1_555
C93 C92 1_555 1_555
H129 C93 1_555 1_555
C94 C93 1_555 1_555
C95 C90 1_555 1_555
C96 C94 1_555 1_555
H130 C96 1_555 1_555
H131 C96 1_555 1_555
C97 C96 1_555 1_555
C98 C97 1_555 1_555
H132 C98 1_555 1_555
C99 C98 1_555 1_555
C100 C99 1_555 1_555
H133 C100 1_555 1_555
C101 C100 1_555 1_555
C102 C97 1_555 1_555
C103 C101 1_555 1_555
H134 C103 1_555 1_555
H135 C103 1_555 1_555
C104 C103 1_555 1_555
C105 C104 1_555 1_555
H136 C105 1_555 1_555
C106 C105 1_555 1_555
C107 C106 1_555 1_555
H137 C107 1_555 1_555
C108 C107 1_555 1_555
C109 C104 1_555 1_555
C110 C83 1_555 1_555
H138 C110 1_555 1_555
H139 C110 1_555 1_555
O23 N11 1_555 1_555
O24 N12 1_555 1_555
N11 C111 1_555 1_555
N12 C111 1_555 1_555
C111 C85 1_555 1_555
C112 N11 1_555 1_555
C113 N12 1_555 1_555
C114 C112 1_555 1_555
H140 C114 1_555 1_555
H141 C114 1_555 1_555
H142 C114 1_555 1_555
C115 C112 1_555 1_555
H143 C115 1_555 1_555
H144 C115 1_555 1_555
H145 C115 1_555 1_555
C116 C113 1_555 1_555
H146 C116 1_555 1_555
H147 C116 1_555 1_555
H148 C116 1_555 1_555
C117 C113 1_555 1_555
H149 C117 1_555 1_555
H150 C117 1_555 1_555
H151 C117 1_555 1_555
O25 C88 1_555 1_555
C118 O25 1_555 1_555
H152 C118 1_555 1_555
H153 C118 1_555 1_555
C119 C118 1_555 1_555
H154 C119 1_555 1_555
H155 C119 1_555 1_555
O26 C119 1_555 1_555
C120 O26 1_555 1_555
H156 C120 1_555 1_555
H157 C120 1_555 1_555
H158 C120 1_555 1_555
O28 N13 1_555 1_555
O29 N14 1_555 1_555
N13 C124 1_555 1_555
N14 C124 1_555 1_555
C124 C92 1_555 1_555
C125 N13 1_555 1_555
C126 N14 1_555 1_555
C127 C125 1_555 1_555
H166 C127 1_555 1_555
H167 C127 1_555 1_555
H168 C127 1_555 1_555
C128 C125 1_555 1_555
H169 C128 1_555 1_555
H170 C128 1_555 1_555
H171 C128 1_555 1_555
C129 C126 1_555 1_555
H172 C129 1_555 1_555
H173 C129 1_555 1_555
H174 C129 1_555 1_555
C130 C126 1_555 1_555
H175 C130 1_555 1_555
H176 C130 1_555 1_555
H177 C130 1_555 1_555
O30 C95 1_555 1_555
O31 C132 1_555 1_555
C131 O30 1_555 1_555
H178 C131 1_555 1_555
H179 C131 1_555 1_555
C132 C131 1_555 1_555
H180 C132 1_555 1_555
H181 C132 1_555 1_555
C133 O31 1_555 1_555
H182 C133 1_555 1_555
H183 C133 1_555 1_555
H184 C133 1_555 1_555
O32 N15 1_555 1_555
O33 N16 1_555 1_555
N15 C134 1_555 1_555
N16 C134 1_555 1_555
C134 C99 1_555 1_555
C135 N15 1_555 1_555
C136 N16 1_555 1_555
C137 C135 1_555 1_555
H185 C137 1_555 1_555
H186 C137 1_555 1_555
H187 C137 1_555 1_555
C138 C135 1_555 1_555
H188 C138 1_555 1_555
H189 C138 1_555 1_555
H190 C138 1_555 1_555
C139 C136 1_555 1_555
H191 C139 1_555 1_555
H192 C139 1_555 1_555
H193 C139 1_555 1_555
C140 C136 1_555 1_555
H194 C140 1_555 1_555
H195 C140 1_555 1_555
H196 C140 1_555 1_555
O34 C102 1_555 1_555
O35 C142 1_555 1_555
C141 O34 1_555 1_555
H197 C141 1_555 1_555
H198 C141 1_555 1_555
C142 C141 1_555 1_555
H199 C142 1_555 1_555
H200 C142 1_555 1_555
C143 O35 1_555 1_555
H201 C143 1_555 1_555
H202 C143 1_555 1_555
H203 C143 1_555 1_555
C144 C106 1_555 1_555
O36 N17 1_555 1_555
O37 N18 1_555 1_555
N17 C144 1_555 1_555
N18 C144 1_555 1_555
C145 N18 1_555 1_555
C146 N17 1_555 1_555
C147 C145 1_555 1_555
H204 C147 1_555 1_555
H205 C147 1_555 1_555
H206 C147 1_555 1_555
C148 C145 1_555 1_555
H207 C148 1_555 1_555
H208 C148 1_555 1_555
H209 C148 1_555 1_555
C149 C146 1_555 1_555
H210 C149 1_555 1_555
H211 C149 1_555 1_555
H212 C149 1_555 1_555
C150 C146 1_555 1_555
H213 C150 1_555 1_555
H214 C150 1_555 1_555
H215 C150 1_555 1_555
O40 C109 1_555 1_555
C157 O40 1_555 1_555
H228 C157 1_555 1_555
H229 C157 1_555 1_555
C158 C157 1_555 1_555
H230 C158 1_555 1_555
H231 C158 1_555 1_555
O41 C158 1_555 1_555
C159 O41 1_555 1_555
H232 C159 1_555 1_555
H233 C159 1_555 1_555
H234 C159 1_555 1_555
C163 H242 1_555 1_555
C164 C163 1_555 1_555
H243 C164 1_555 1_555
C165 C164 1_555 1_555
H244 C165 1_555 1_555
C166 C165 1_555 1_555
H245 C166 1_555 1_555
C167 C166 1_555 1_555
H246 C167 1_555 1_555
C168 C163 1_555 1_555
H247 C168 1_555 1_555
C169 H248 1_555 1_555
C170 C169 1_555 1_555
H249 C170 1_555 1_555
C171 C170 1_555 1_555
H250 C171 1_555 1_555
C172 C171 1_555 1_555
H251 C172 1_555 1_555
C173 C172 1_555 1_555
H252 C173 1_555 1_555
C174 C169 1_555 1_555
H253 C174 1_555 1_555
C175 H254 1_555 1_555
C176 C175 1_555 1_555
H255 C176 1_555 1_555
C177 C176 1_555 1_555
H256 C177 1_555 1_555
C178 C177 1_555 1_555
H257 C178 1_555 1_555
C179 C178 1_555 1_555
H258 C179 1_555 1_555
C180 C175 1_555 1_555
H259 C180 1_555 1_555
C181 H260 1_555 1_555
C182 C181 1_555 1_555
H261 C182 1_555 1_555
C183 C182 1_555 1_555
H262 C183 1_555 1_555
C184 C183 1_555 1_555
H263 C184 1_555 1_555
C185 C184 1_555 1_555
H264 C185 1_555 1_555
C186 C181 1_555 1_555
H265 C186 1_555 1_555
C187 H266 1_555 1_555
C188 C187 1_555 1_555
H267 C188 1_555 1_555
C189 C188 1_555 1_555
H268 C189 1_555 1_555
C190 C189 1_555 1_555
H269 C190 1_555 1_555
C191 C190 1_555 1_555
H270 C191 1_555 1_555
C192 C187 1_555 1_555
H271 C192 1_555 1_555
C193 H272 1_555 1_555
C194 C193 1_555 1_555
H273 C194 1_555 1_555
C195 C194 1_555 1_555
H274 C195 1_555 1_555
C196 C195 1_555 1_555
H275 C196 1_555 1_555
C197 C196 1_555 1_555
H276 C197 1_555 1_555
C198 C193 1_555 1_555
H277 C198 1_555 1_555
C5 C6 1_555 1_555
C12 C13 1_555 1_555
C19 C20 1_555 1_555
C26 C27 1_555 1_555
C26 C28 1_555 1_555
C30 C31 1_555 1_555
C43 C44 1_555 1_555
C57 C58 1_555 1_555
C74 C75 1_555 1_555
C87 C88 1_555 1_555
C94 C95 1_555 1_555
C101 C102 1_555 1_555
C108 C109 1_555 1_555
C108 C110 1_555 1_555
C112 C113 1_555 1_555
C125 C126 1_555 1_555
C135 C136 1_555 1_555
C145 C146 1_555 1_555
C167 C168 1_555 1_555
C173 C174 1_555 1_555
C179 C180 1_555 1_555
C185 C186 1_555 1_555
C191 C192 1_555 1_555
C197 C198 1_555 1_555

#END
