
#######################################################################
#
#                 Cambridge Crystallographic Data Centre
#                                CCDC 
#
#######################################################################
#
# If this CIF has been generated from an entry in the Cambridge 
# Structural Database, then it will include bibliographic, chemical, 
# crystal, experimental, refinement or atomic coordinate data resulting 
# from the CCDC's data processing and validation procedures.
#
#######################################################################

data_MIPVOW
_chemical_formula_moiety         '2(C6 H12 N4),C8 H6 O4'
_chemical_name_systematic        
'bis(Hexamethylenetetraamine) m-benzenedicarboxylic acid'
_symmetry_cell_setting           orthorhombic
_symmetry_space_group_name_H-M   'P 21 21 21'
_symmetry_Int_Tables_number      19
_space_group_name_Hall           'P 2ac 2ab'
loop_
_symmetry_equiv_pos_site_id
_symmetry_equiv_pos_as_xyz
1 x,y,z
2 1/2-x,-y,1/2+z
3 -x,1/2+y,1/2-z
4 1/2+x,1/2-y,-z
_cell_length_a                   7.044(2)
_cell_length_b                   14.024(6)
_cell_length_c                   21.745(10)
_cell_angle_alpha                90
_cell_angle_beta                 90
_cell_angle_gamma                90
_cell_volume                     2148.08
_exptl_crystal_colour            colorless
_exptl_crystal_description       block
_cell_formula_units_Z            4
loop_
_atom_site_label
_atom_site_type_symbol
_atom_site_fract_x
_atom_site_fract_y
_atom_site_fract_z
O1 O 0.2621(8) -0.0329(2) 0.50345(16)
H1 H 0.1672 -0.0170 0.4665
O2 O 0.5231(7) 0.0055(3) 0.45324(18)
O3 O 0.2662(9) -0.2882(3) 0.66019(16)
H2 H 0.1654 -0.3426 0.6975
O4 O 0.5419(6) -0.3497(2) 0.69127(15)
C1 C 0.4445(12) -0.0421(3) 0.4927(2)
C2 C 0.5437(11) -0.1138(3) 0.5316(2)
C3 C 0.4476(8) -0.1684(3) 0.57524(18)
H3 H 0.3140 -0.1584 0.5811
C4 C 0.5462(10) -0.2361(3) 0.61023(18)
C5 C 0.4466(12) -0.2965(3) 0.65752(19)
C6 C 0.7388(11) -0.2483(3) 0.5994(2)
H4 H 0.8087 -0.2938 0.6233
C7 C 0.8356(9) -0.1967(3) 0.5550(2)
H5 H 0.9681 -0.2078 0.5475
C8 C 0.7353(11) -0.1281(3) 0.5210(2)
H6 H 0.8004 -0.0911 0.4904
N1 N 0.1091(7) -0.4081(2) 0.73771(14)
N2 N 0.1607(7) -0.5237(3) 0.82070(16)
N3 N -0.1141(8) -0.4179(3) 0.82343(16)
N4 N -0.0985(7) -0.5476(3) 0.74724(17)
C9 C -0.0048(10) -0.4818(3) 0.70463(18)
H7 H 0.0763 -0.5181 0.6779
H8 H -0.0983 -0.4502 0.6798
C10 C 0.0330(9) -0.4677(3) 0.85931(19)
H9 H 0.1064 -0.4213 0.8814
H10 H -0.0262 -0.5090 0.8889
C11 C -0.0217(9) -0.3549(3) 0.7788(2)
H11 H -0.1144 -0.3218 0.7545
H12 H 0.0499 -0.3084 0.8014
C12 C 0.2516(8) -0.4599(3) 0.7768(2)
H13 H 0.3277 -0.4144 0.7988
H14 H 0.3340 -0.4965 0.7508
C13 C -0.2210(10) -0.4898(4) 0.7881(2)
H15 H -0.3158 -0.4587 0.7636
H16 H -0.2853 -0.5313 0.8164
C14 C 0.0482(9) -0.5933(3) 0.7856(2)
H17 H -0.0096 -0.6375 0.8136
H18 H 0.1316 -0.6284 0.7591
N5 N -0.1185(7) 0.1385(3) 0.34899(15)
N6 N 0.1402(7) 0.2473(2) 0.37536(16)
N7 N -0.1308(7) 0.2293(3) 0.44526(16)
N8 N 0.0944(6) 0.0983(2) 0.43355(14)
C15 C -0.0323(9) 0.1518(3) 0.47604(18)
H19 H -0.1224 0.1085 0.4939
H20 H 0.0430 0.1779 0.5088
C16 C -0.2408(9) 0.1896(4) 0.3933(2)
H21 H -0.3349 0.1464 0.4088
H22 H -0.3057 0.2403 0.3724
C17 C 0.0229(9) 0.2052(3) 0.32552(19)
H23 H -0.0397 0.2550 0.3030
H24 H 0.1054 0.1719 0.2977
C18 C 0.0113(9) 0.2948(3) 0.4191(2)
H25 H -0.0524 0.3462 0.3984
H26 H 0.0855 0.3217 0.4518
C19 C -0.0205(9) 0.0619(3) 0.3819(2)
H27 H 0.0602 0.0278 0.3540
H28 H -0.1130 0.0181 0.3978
C20 C 0.2333(9) 0.1683(3) 0.4078(2)
H29 H 0.3111 0.1933 0.4403
H30 H 0.3144 0.1355 0.3794
loop_
_geom_bond_atom_site_label_1
_geom_bond_atom_site_label_2
_geom_bond_site_symmetry_1
_geom_bond_site_symmetry_2
O1 H1 1_555 1_555
O2 C1 1_555 1_555
O3 H2 1_555 1_555
O4 C5 1_555 1_555
C1 O1 1_555 1_555
C2 C1 1_555 1_555
C3 C2 1_555 1_555
H3 C3 1_555 1_555
C4 C3 1_555 1_555
C5 O3 1_555 1_555
C6 C4 1_555 1_555
H4 C6 1_555 1_555
C7 C6 1_555 1_555
H5 C7 1_555 1_555
C8 C2 1_555 1_555
H6 C8 1_555 1_555
N1 C9 1_555 1_555
N2 C10 1_555 1_555
N3 C10 1_555 1_555
N4 C9 1_555 1_555
N5 C16 1_555 1_555
N6 C17 1_555 1_555
N7 C15 1_555 1_555
N8 C15 1_555 1_555
C9 H7 1_555 1_555
H8 C9 1_555 1_555
C10 H9 1_555 1_555
H10 C10 1_555 1_555
C11 N1 1_555 1_555
H11 C11 1_555 1_555
H12 C11 1_555 1_555
C12 N1 1_555 1_555
H13 C12 1_555 1_555
H14 C12 1_555 1_555
C13 N3 1_555 1_555
H15 C13 1_555 1_555
H16 C13 1_555 1_555
C14 N2 1_555 1_555
H17 C14 1_555 1_555
H18 C14 1_555 1_555
C15 H19 1_555 1_555
H20 C15 1_555 1_555
C16 N7 1_555 1_555
H21 C16 1_555 1_555
H22 C16 1_555 1_555
C17 N5 1_555 1_555
H23 C17 1_555 1_555
H24 C17 1_555 1_555
C18 N6 1_555 1_555
H25 C18 1_555 1_555
H26 C18 1_555 1_555
C19 N5 1_555 1_555
H27 C19 1_555 1_555
H28 C19 1_555 1_555
C20 N6 1_555 1_555
H29 C20 1_555 1_555
H30 C20 1_555 1_555
C4 C5 1_555 1_555
C7 C8 1_555 1_555
N2 C12 1_555 1_555
N3 C11 1_555 1_555
N4 C13 1_555 1_555
N4 C14 1_555 1_555
N7 C18 1_555 1_555
N8 C19 1_555 1_555
N8 C20 1_555 1_555

#END
