
#######################################################################
#
#                 Cambridge Crystallographic Data Centre
#                                CCDC 
#
#######################################################################
#
# If this CIF has been generated from an entry in the Cambridge 
# Structural Database, then it will include bibliographic, chemical, 
# crystal, experimental, refinement or atomic coordinate data resulting 
# from the CCDC's data processing and validation procedures.
#
#######################################################################

data_MIPZET
_chemical_name_common            
'guanidinium dinitro(5-oxo-4,5-dihydro-1H-1,2,4-triazol-3-yl)methanide monohydrate'
_chemical_formula_moiety         'C3 H2 N5 O5 1-,C1 H6 N3 1+,H2 O1'
_chemical_name_systematic        
'diaminomethaniminium dinitro(5-oxo-4,5-dihydro-1H-1,2,4-triazol-3-yl)methanide monohydrate'
_symmetry_cell_setting           triclinic
_symmetry_space_group_name_H-M   'P -1'
_symmetry_Int_Tables_number      2
_space_group_name_Hall           '-P 1'
loop_
_symmetry_equiv_pos_site_id
_symmetry_equiv_pos_as_xyz
1 x,y,z
2 -x,-y,-z
_cell_length_a                   4.9400(3)
_cell_length_b                   7.5682(4)
_cell_length_c                   14.0353(7)
_cell_angle_alpha                77.659(2)
_cell_angle_beta                 82.403(2)
_cell_angle_gamma                81.370(2)
_cell_volume                     504.076
_exptl_crystal_colour            yellow
_exptl_crystal_description       plate
_cell_formula_units_Z            2
loop_
_atom_site_label
_atom_site_type_symbol
_atom_site_fract_x
_atom_site_fract_y
_atom_site_fract_z
N1 N 0.3782(2) 0.83705(16) 0.38564(8)
N2 N 0.4365(2) 0.80046(16) 0.48173(8)
H1 H 0.3330 0.8478 0.5283
C1 C 0.6682(3) 0.68485(17) 0.49673(10)
N3 N 0.7628(2) 0.64797(15) 0.40621(8)
H2 H 0.9137 0.5764 0.3921
C2 C 0.5809(3) 0.74231(17) 0.34059(9)
C3 C 0.6085(3) 0.73554(17) 0.23637(9)
N4 N 0.8347(2) 0.63544(16) 0.19424(8)
O1 O 0.8713(2) 0.63150(16) 0.10517(7)
O2 O 1.0080(2) 0.54572(14) 0.25000(7)
N5 N 0.4034(2) 0.82968(15) 0.17739(8)
O3 O 0.2135(2) 0.92758(15) 0.21550(8)
O4 O 0.4069(2) 0.81619(18) 0.09099(8)
O5 O 0.7723(2) 0.62478(14) 0.57554(7)
C4 C 0.4393(3) 0.73961(18) 0.86250(10)
N6 N 0.2302(3) 0.84687(18) 0.89851(9)
H3 H 0.220(4) 0.859(3) 0.9601(16)
H4 H 0.100(5) 0.904(3) 0.8638(16)
N7 N 0.4473(3) 0.71262(18) 0.77163(9)
H5 H 0.322(5) 0.771(3) 0.7333(16)
H6 H 0.590(5) 0.650(3) 0.7502(15)
N8 N 0.6405(3) 0.66096(17) 0.91733(9)
H7 H 0.7799 0.5906 0.8935
H8 H 0.6344 0.6792 0.9775
O6 O 0.0493(2) 0.87373(15) 0.63423(7)
H9 H -0.050(4) 0.800(3) 0.6214(15)
H10 H -0.070(5) 0.966(3) 0.6390(15)
loop_
_geom_bond_atom_site_label_1
_geom_bond_atom_site_label_2
_geom_bond_site_symmetry_1
_geom_bond_site_symmetry_2
N1 N2 1_555 1_555
N2 H1 1_555 1_555
C1 N2 1_555 1_555
N3 C1 1_555 1_555
H2 N3 1_555 1_555
C2 N1 1_555 1_555
C3 C2 1_555 1_555
N4 C3 1_555 1_555
O1 N4 1_555 1_555
O2 N4 1_555 1_555
N5 C3 1_555 1_555
O3 N5 1_555 1_555
O4 N5 1_555 1_555
O5 C1 1_555 1_555
C4 N6 1_555 1_555
N6 H3 1_555 1_555
H4 N6 1_555 1_555
N7 C4 1_555 1_555
H5 N7 1_555 1_555
H6 N7 1_555 1_555
N8 C4 1_555 1_555
H7 N8 1_555 1_555
H8 N8 1_555 1_555
O6 H9 1_555 1_555
H10 O6 1_555 1_555
N3 C2 1_555 1_555

#END
