
#######################################################################
#
#                 Cambridge Crystallographic Data Centre
#                                CCDC 
#
#######################################################################
#
# If this CIF has been generated from an entry in the Cambridge 
# Structural Database, then it will include bibliographic, chemical, 
# crystal, experimental, refinement or atomic coordinate data resulting 
# from the CCDC's data processing and validation procedures.
#
#######################################################################

data_MIPZOD
_chemical_formula_moiety         'C3 H2 N5 O5 1-,C1 H7 N4 1+'
_chemical_name_systematic        
'1-(diaminomethylidene)hydrazinium dinitro(5-oxo-4,5-dihydro-1H-1,2,4-triazol-3-yl)methanide'
_symmetry_cell_setting           triclinic
_symmetry_space_group_name_H-M   'P -1'
_symmetry_Int_Tables_number      2
_space_group_name_Hall           '-P 1'
loop_
_symmetry_equiv_pos_site_id
_symmetry_equiv_pos_as_xyz
1 x,y,z
2 -x,-y,-z
_cell_length_a                   3.64810(10)
_cell_length_b                   10.9836(4)
_cell_length_c                   13.2014(4)
_cell_angle_alpha                107.196(2)
_cell_angle_beta                 95.394(2)
_cell_angle_gamma                99.113(2)
_cell_volume                     493.354
_exptl_crystal_colour            yellow
_exptl_crystal_description       plate
_cell_formula_units_Z            2
loop_
_atom_site_label
_atom_site_type_symbol
_atom_site_fract_x
_atom_site_fract_y
_atom_site_fract_z
N1 N 0.5905(4) 0.86528(14) 0.47019(11)
N2 N 0.7142(4) 0.92710(14) 0.57725(11)
H1 H 0.7097 1.0092 0.6095
C1 C 0.8449(5) 0.84825(17) 0.62848(14)
N3 N 0.7999(4) 0.73222(14) 0.54799(11)
H2 H 0.8588 0.6601 0.5549
C2 C 0.6462(5) 0.74823(17) 0.45444(13)
O1 O 0.9728(4) 0.87446(12) 0.72388(10)
C3 C 0.5725(5) 0.64733(17) 0.35011(13)
N4 N 0.3675(4) 0.52487(15) 0.34071(11)
O2 O 0.2121(4) 0.51800(12) 0.42019(10)
O3 O 0.3472(4) 0.42825(13) 0.26188(10)
N5 N 0.7027(5) 0.67332(15) 0.26242(12)
O4 O 0.6167(5) 0.59384(14) 0.17058(10)
O5 O 0.9063(4) 0.78240(13) 0.27710(10)
N6 N 1.4188(5) 0.95131(16) 0.12152(13)
H3 H 1.293(7) 1.007(2) 0.1632(19)
H4 H 1.616(7) 0.952(2) 0.163(2)
N7 N 1.2021(5) 0.82430(15) 0.09417(12)
H5 H 1.1510 0.7901 0.1449
C4 C 1.0759(5) 0.75674(18) -0.00757(14)
N8 N 1.1650(5) 0.80474(16) -0.08456(12)
H6 H 1.3091 0.8821 -0.0684
H7 H 1.0802 0.7594 -0.1520
N9 N 0.8673(5) 0.63900(16) -0.02895(12)
H8 H 0.7848 0.5908 -0.0959
H9 H 0.8117 0.6091 0.0238
loop_
_geom_bond_atom_site_label_1
_geom_bond_atom_site_label_2
_geom_bond_site_symmetry_1
_geom_bond_site_symmetry_2
N1 N2 1_555 1_555
N2 H1 1_555 1_555
C1 N2 1_555 1_555
N3 C1 1_555 1_555
H2 N3 1_555 1_555
C2 N1 1_555 1_555
O1 C1 1_555 1_555
C3 C2 1_555 1_555
N4 C3 1_555 1_555
O2 N4 1_555 1_555
O3 N4 1_555 1_555
N5 C3 1_555 1_555
O4 N5 1_555 1_555
O5 N5 1_555 1_555
N6 H3 1_555 1_555
H4 N6 1_555 1_555
N7 N6 1_555 1_555
H5 N7 1_555 1_555
C4 N7 1_555 1_555
N8 C4 1_555 1_555
H6 N8 1_555 1_555
H7 N8 1_555 1_555
N9 C4 1_555 1_555
H8 N9 1_555 1_555
H9 N9 1_555 1_555
N3 C2 1_555 1_555

#END
