
#######################################################################
#
#                 Cambridge Crystallographic Data Centre
#                                CCDC 
#
#######################################################################
#
# If this CIF has been generated from an entry in the Cambridge 
# Structural Database, then it will include bibliographic, chemical, 
# crystal, experimental, refinement or atomic coordinate data resulting 
# from the CCDC's data processing and validation procedures.
#
#######################################################################

data_MIQFUN
_chemical_formula_moiety         'C20 H33 F1 O1 Si1'
_chemical_name_systematic        
(1\a,2\a(R*))-2-((bis(1,1-Dimethylethyl)fluorosilyl)phenylmethyl)cyclopentanol
_symmetry_cell_setting           tetragonal
_symmetry_space_group_name_H-M   'P 42/n'
_symmetry_Int_Tables_number      86
_space_group_name_Hall           '-P 4bc'
loop_
_symmetry_equiv_pos_site_id
_symmetry_equiv_pos_as_xyz
1 x,y,z
2 -y,1/2+x,1/2+z
3 1/2-x,1/2-y,z
4 1/2+y,-x,1/2+z
5 -x,-y,-z
6 y,1/2-x,1/2-z
7 1/2+x,1/2+y,-z
8 1/2-y,x,1/2-z
_cell_length_a                   21.1751(15)
_cell_length_b                   21.1751(15)
_cell_length_c                   8.8012(8)
_cell_angle_alpha                90
_cell_angle_beta                 90
_cell_angle_gamma                90
_cell_volume                     3946.32
_chemical_melting_point          '115-118 deg.C'
_cell_formula_units_Z            8
loop_
_atom_site_label
_atom_site_type_symbol
_atom_site_fract_x
_atom_site_fract_y
_atom_site_fract_z
Si1 Si 0.32459(2) 0.53368(2) -0.20571(6)
F1 F 0.38056(5) 0.51367(6) -0.31991(14)
O1 O 0.23167(6) 0.33816(6) -0.25615(16)
C1 C 0.20665(9) 0.38037(9) -0.3681(2)
C2 C 0.24980(9) 0.43860(9) -0.3744(2)
C3 C 0.30606(10) 0.41507(10) -0.4702(2)
C4 C 0.27917(12) 0.36476(13) -0.5768(3)
C5 C 0.21152(11) 0.35258(11) -0.5267(3)
C6 C 0.26562(8) 0.46549(8) -0.2152(2)
C7 C 0.20609(9) 0.47531(8) -0.1211(2)
C8 C 0.15433(10) 0.50800(10) -0.1764(2)
C9 C 0.09933(10) 0.51485(11) -0.0930(3)
C10 C 0.09473(10) 0.48950(10) 0.0492(3)
C11 C 0.14510(11) 0.45673(12) 0.1071(3)
C12 C 0.19986(10) 0.44961(10) 0.0225(2)
C13 C 0.29697(10) 0.61289(9) -0.2831(2)
C14 C 0.35317(11) 0.65902(10) -0.2942(3)
C15 C 0.27167(13) 0.60295(12) -0.4436(3)
C16 C 0.24610(12) 0.64594(11) -0.1874(3)
C17 C 0.36589(10) 0.53521(9) -0.0138(2)
C18 C 0.38089(11) 0.46714(11) 0.0367(3)
C19 C 0.43027(11) 0.56861(12) -0.0293(3)
C20 C 0.32813(13) 0.56766(14) 0.1113(3)
H1 H 0.2073 0.3078 -0.2451
H2 H 0.1626 0.3924 -0.3439
H3 H 0.2278 0.4719 -0.4329
H4 H 0.3245 0.4499 -0.5285
H5 H 0.3388 0.3969 -0.4047
H6 H 0.2801 0.3797 -0.6822
H7 H 0.3041 0.3259 -0.5701
H8 H 0.1816 0.3732 -0.5957
H9 H 0.2026 0.3072 -0.5250
H10 H 0.2876 0.4303 -0.1634
H11 H 0.1566 0.5261 -0.2737
H12 H 0.0650 0.5371 -0.1344
H13 H 0.0576 0.4944 0.1066
H14 H 0.1425 0.4390 0.2047
H15 H 0.2337 0.4267 0.0640
H16 H 0.3386 0.6992 -0.3337
H17 H 0.3849 0.6417 -0.3618
H18 H 0.3713 0.6652 -0.1941
H19 H 0.2574 0.6430 -0.4846
H20 H 0.2366 0.5735 -0.4408
H21 H 0.3049 0.5861 -0.5076
H22 H 0.2348 0.6857 -0.2348
H23 H 0.2624 0.6538 -0.0861
H24 H 0.2090 0.6192 -0.1810
H25 H 0.4019 0.4680 0.1346
H26 H 0.4083 0.4473 -0.0377
H27 H 0.3419 0.4433 0.0449
H28 H 0.4512 0.5693 0.0686
H29 H 0.4238 0.6115 -0.0645
H30 H 0.4563 0.5460 -0.1019
H31 H 0.3520 0.5667 0.2054
H32 H 0.2883 0.5458 0.1254
H33 H 0.3201 0.6112 0.0828
loop_
_geom_bond_atom_site_label_1
_geom_bond_atom_site_label_2
_geom_bond_site_symmetry_1
_geom_bond_site_symmetry_2
Si1 F1 1_555 1_555
O1 C1 1_555 1_555
C1 C2 1_555 1_555
C2 C3 1_555 1_555
C3 C4 1_555 1_555
C4 C5 1_555 1_555
C5 C1 1_555 1_555
C6 Si1 1_555 1_555
C7 C6 1_555 1_555
C8 C7 1_555 1_555
C9 C8 1_555 1_555
C10 C9 1_555 1_555
C11 C10 1_555 1_555
C12 C7 1_555 1_555
C13 Si1 1_555 1_555
C14 C13 1_555 1_555
C15 C13 1_555 1_555
C16 C13 1_555 1_555
C17 Si1 1_555 1_555
C18 C17 1_555 1_555
C19 C17 1_555 1_555
C20 C17 1_555 1_555
H1 O1 1_555 1_555
H2 C1 1_555 1_555
H3 C2 1_555 1_555
H4 C3 1_555 1_555
H5 C3 1_555 1_555
H6 C4 1_555 1_555
H7 C4 1_555 1_555
H8 C5 1_555 1_555
H9 C5 1_555 1_555
H10 C6 1_555 1_555
H11 C8 1_555 1_555
H12 C9 1_555 1_555
H13 C10 1_555 1_555
H14 C11 1_555 1_555
H15 C12 1_555 1_555
H16 C14 1_555 1_555
H17 C14 1_555 1_555
H18 C14 1_555 1_555
H19 C15 1_555 1_555
H20 C15 1_555 1_555
H21 C15 1_555 1_555
H22 C16 1_555 1_555
H23 C16 1_555 1_555
H24 C16 1_555 1_555
H25 C18 1_555 1_555
H26 C18 1_555 1_555
H27 C18 1_555 1_555
H28 C19 1_555 1_555
H29 C19 1_555 1_555
H30 C19 1_555 1_555
H31 C20 1_555 1_555
H32 C20 1_555 1_555
H33 C20 1_555 1_555
C2 C6 1_555 1_555
C11 C12 1_555 1_555

#END
