
#######################################################################
#
#                 Cambridge Crystallographic Data Centre
#                                CCDC 
#
#######################################################################
#
# If this CIF has been generated from an entry in the Cambridge 
# Structural Database, then it will include bibliographic, chemical, 
# crystal, experimental, refinement or atomic coordinate data resulting 
# from the CCDC's data processing and validation procedures.
#
#######################################################################

data_MIQGIC
_chemical_formula_moiety         'C19 H21 N3 O1'
_chemical_name_systematic        
1-((Benzotriazol-1-yl)-(phenyl)methyl)-1-(t-butyl)oxirane
_symmetry_cell_setting           monoclinic
_symmetry_space_group_name_H-M   'P 21/c'
_symmetry_Int_Tables_number      14
_space_group_name_Hall           '-P 2ybc'
loop_
_symmetry_equiv_pos_site_id
_symmetry_equiv_pos_as_xyz
1 x,y,z
2 -x,1/2+y,1/2-z
3 -x,-y,-z
4 x,1/2-y,1/2+z
_cell_length_a                   10.224(2)
_cell_length_b                   13.955(2)
_cell_length_c                   12.104(2)
_cell_angle_alpha                90
_cell_angle_beta                 102.16(2)
_cell_angle_gamma                90
_cell_volume                     1688.2
_cell_formula_units_Z            4
loop_
_atom_site_label
_atom_site_type_symbol
_atom_site_fract_x
_atom_site_fract_y
_atom_site_fract_z
O1 O 0.0323(2) 0.9845(1) 0.1404(1)
N1 N -0.0272(2) 0.7977(1) 0.1109(2)
N2 N 0.0038(2) 0.7663(2) 0.0146(2)
N3 N -0.1059(2) 0.7551(2) -0.0618(2)
C1 C -0.1623(2) 0.8078(1) 0.0974(2)
C2 C -0.2110(2) 0.7794(2) -0.0137(2)
C3 C -0.3495(3) 0.7803(2) -0.0590(2)
C4 C -0.4303(3) 0.8080(2) 0.0100(2)
C5 C -0.3797(2) 0.8353(2) 0.1225(2)
C6 C -0.2450(2) 0.8358(2) 0.1689(2)
C7 C 0.0771(2) 0.8190(2) 0.2114(2)
C8 C 0.1813(2) 0.7401(2) 0.2266(2)
C9 C 0.1679(2) 0.6645(2) 0.2966(2)
C10 C 0.2569(3) 0.5888(2) 0.3097(2)
C11 C 0.3593(3) 0.5881(2) 0.2540(2)
C12 C 0.3744(2) 0.6630(2) 0.1833(2)
C13 C 0.2853(2) 0.7387(2) 0.1701(2)
C14 C 0.1299(2) 0.9225(2) 0.2076(2)
C15 C 0.1492(3) 0.9595(2) 0.0993(2)
C16 C 0.2000(2) 0.9668(2) 0.3206(2)
C17 C 0.2438(3) 1.0698(2) 0.3040(3)
C18 C 0.1025(4) 0.9710(3) 0.3985(3)
C19 C 0.3254(4) 0.9110(2) 0.3740(3)
H1 H -0.3840 0.7625 -0.1335
H2 H -0.5223 0.8091 -0.0178
H3 H -0.4392 0.8537 0.1671
H4 H -0.2113 0.8537 0.2435
H5 H 0.0344 0.8155 0.2766
H6 H 0.0984 0.6645 0.3353
H7 H 0.2467 0.5380 0.3569
H8 H 0.4193 0.5372 0.2636
H9 H 0.4441 0.6625 0.1448
H10 H 0.2955 0.7893 0.1226
H11 H 0.2167 1.0086 0.1005
H12 H 0.1387 0.9152 0.0364
H13 H 0.3070 1.0698 0.2555
H14 H 0.2848 1.0968 0.3759
H15 H 0.1671 1.1074 0.2702
H16 H 0.0726 0.9074 0.4107
H17 H 0.0270 1.0097 0.3647
H18 H 0.1458 0.9985 0.4695
H19 H 0.3017 0.8460 0.3869
H20 H 0.3666 0.9401 0.4446
H21 H 0.3870 0.9116 0.3240
loop_
_geom_bond_atom_site_label_1
_geom_bond_atom_site_label_2
_geom_bond_site_symmetry_1
_geom_bond_site_symmetry_2
O1 C14 1_555 1_555
N1 N2 1_555 1_555
N2 N3 1_555 1_555
N3 C2 1_555 1_555
C1 N1 1_555 1_555
C2 C1 1_555 1_555
C3 C2 1_555 1_555
C4 C3 1_555 1_555
C5 C4 1_555 1_555
C6 C1 1_555 1_555
C7 N1 1_555 1_555
C8 C7 1_555 1_555
C9 C8 1_555 1_555
C10 C9 1_555 1_555
C11 C10 1_555 1_555
C12 C11 1_555 1_555
C13 C8 1_555 1_555
C14 C7 1_555 1_555
C15 O1 1_555 1_555
C16 C14 1_555 1_555
C17 C16 1_555 1_555
C18 C16 1_555 1_555
C19 C16 1_555 1_555
H1 C3 1_555 1_555
H2 C4 1_555 1_555
H3 C5 1_555 1_555
H4 C6 1_555 1_555
H5 C7 1_555 1_555
H6 C9 1_555 1_555
H7 C10 1_555 1_555
H8 C11 1_555 1_555
H9 C12 1_555 1_555
H10 C13 1_555 1_555
H11 C15 1_555 1_555
H12 C15 1_555 1_555
H13 C17 1_555 1_555
H14 C17 1_555 1_555
H15 C17 1_555 1_555
H16 C18 1_555 1_555
H17 C18 1_555 1_555
H18 C18 1_555 1_555
H19 C19 1_555 1_555
H20 C19 1_555 1_555
H21 C19 1_555 1_555
C5 C6 1_555 1_555
C12 C13 1_555 1_555
C14 C15 1_555 1_555

#END
