
#######################################################################
#
#                 Cambridge Crystallographic Data Centre
#                                CCDC 
#
#######################################################################
#
# If this CIF has been generated from an entry in the Cambridge 
# Structural Database, then it will include bibliographic, chemical, 
# crystal, experimental, refinement or atomic coordinate data resulting 
# from the CCDC's data processing and validation procedures.
#
#######################################################################

data_MIQJAA
_chemical_name_common            '(+-)-isopalhinine A'
_chemical_formula_moiety         'C16 H21 N1 O4'
_chemical_name_systematic        
4,9a-dihydroxyhexahydro-2H,5H-4a,7-methano-1,4b-propanoindeno[2,1-b]pyridine-5,9(9aH)-dione
_symmetry_cell_setting           triclinic
_symmetry_space_group_name_H-M   'P -1'
_symmetry_Int_Tables_number      2
_space_group_name_Hall           '-P 1'
loop_
_symmetry_equiv_pos_site_id
_symmetry_equiv_pos_as_xyz
1 x,y,z
2 -x,-y,-z
_cell_length_a                   8.0941(11)
_cell_length_b                   8.2331(11)
_cell_length_c                   10.6326(15)
_cell_angle_alpha                92.967(5)
_cell_angle_beta                 91.155(5)
_cell_angle_gamma                111.092(4)
_cell_volume                     659.623
_exptl_crystal_colour            colorless
_exptl_crystal_description       prism
_cell_formula_units_Z            2
loop_
_atom_site_label
_atom_site_type_symbol
_atom_site_fract_x
_atom_site_fract_y
_atom_site_fract_z
C1 C 0.2300(2) 0.6226(2) 0.12906(14)
C2 C 0.2321(2) 0.8102(2) 0.15739(15)
C3 C 0.3784(2) 0.9063(2) 0.25605(15)
H1 H 0.3399 0.9821 0.3160
C4 C 0.5485(3) 1.0146(2) 0.19010(16)
H2 H 0.5171 1.0404 0.1049
H3 H 0.6094 1.1267 0.2393
C5 C 0.6708(2) 0.9112(2) 0.18024(16)
H4 H 0.7718 0.9697 0.1259
C6 C 0.5687(2) 0.7245(2) 0.12784(15)
H5 H 0.6485 0.6574 0.1293
H6 H 0.5313 0.7268 0.0389
C7 C 0.4012(2) 0.6294(2) 0.20390(14)
C8 C 0.4033(2) 0.7526(2) 0.32372(14)
C9 C 0.5839(2) 0.8185(2) 0.39336(15)
C10 C 0.7392(2) 0.9010(2) 0.31311(16)
H7 H 0.8159 0.8306 0.3106
H8 H 0.8104 1.0195 0.3493
C11 C 0.4013(2) 0.4475(2) 0.23086(15)
H9 H 0.4437 0.4024 0.1537
C12 C 0.2229(2) 0.3120(2) 0.25783(17)
H10 H 0.1885 0.3364 0.3436
H11 H 0.2304 0.1945 0.2538
C13 C 0.0847(2) 0.3177(2) 0.16085(17)
H12 H 0.1195 0.2915 0.0756
H13 H -0.0308 0.2264 0.1766
C14 C -0.0278(2) 0.5193(3) 0.27798(17)
H14 H -0.0704 0.4091 0.3214
H15 H -0.1341 0.5411 0.2480
C15 C 0.0708(2) 0.6653(3) 0.37660(16)
H16 H -0.0015 0.6493 0.4521
H17 H 0.0776 0.7772 0.3429
C16 C 0.2582(2) 0.6822(2) 0.41906(15)
H18 H 0.2552 0.5658 0.4411
H19 H 0.2926 0.7599 0.4969
N1 N 0.06459(18) 0.48877(17) 0.16472(12)
O1 O 0.24687(15) 0.59453(14) -0.00145(10)
H20 H 0.1410 0.5586 -0.0418
O2 O 0.13810(19) 0.87071(17) 0.10262(12)
O3 O 0.60270(16) 0.81441(15) 0.50715(11)
O4 O 0.53290(16) 0.47219(16) 0.32962(12)
H21 H 0.4983(16) 0.385(3) 0.3774(18)
loop_
_geom_bond_atom_site_label_1
_geom_bond_atom_site_label_2
_geom_bond_site_symmetry_1
_geom_bond_site_symmetry_2
C1 C2 1_555 1_555
C2 C3 1_555 1_555
C3 H1 1_555 1_555
C4 C3 1_555 1_555
H2 C4 1_555 1_555
H3 C4 1_555 1_555
C5 C4 1_555 1_555
H4 C5 1_555 1_555
C6 C5 1_555 1_555
H5 C6 1_555 1_555
H6 C6 1_555 1_555
C7 C1 1_555 1_555
C8 C3 1_555 1_555
C9 C8 1_555 1_555
C10 C5 1_555 1_555
H7 C10 1_555 1_555
H8 C10 1_555 1_555
C11 C7 1_555 1_555
H9 C11 1_555 1_555
C12 C11 1_555 1_555
H10 C12 1_555 1_555
H11 C12 1_555 1_555
C13 C12 1_555 1_555
H12 C13 1_555 1_555
H13 C13 1_555 1_555
C14 H14 1_555 1_555
H15 C14 1_555 1_555
C15 C14 1_555 1_555
H16 C15 1_555 1_555
H17 C15 1_555 1_555
C16 C8 1_555 1_555
H18 C16 1_555 1_555
H19 C16 1_555 1_555
N1 C1 1_555 1_555
O1 C1 1_555 1_555
H20 O1 1_555 1_555
O2 C2 1_555 1_555
O3 C9 1_555 1_555
O4 C11 1_555 1_555
H21 O4 1_555 1_555
C6 C7 1_555 1_555
C7 C8 1_555 1_555
C9 C10 1_555 1_555
C13 N1 1_555 1_555
C14 N1 1_555 1_555
C15 C16 1_555 1_555

#END
