
#######################################################################
#
#                 Cambridge Crystallographic Data Centre
#                                CCDC 
#
#######################################################################
#
# If this CIF has been generated from an entry in the Cambridge 
# Structural Database, then it will include bibliographic, chemical, 
# crystal, experimental, refinement or atomic coordinate data resulting 
# from the CCDC's data processing and validation procedures.
#
#######################################################################

data_MIQQUZ01
_chemical_name_common            
6,17-dibromo-3,10-dithiatricyclo[10.2.2.2$5,8!]octadeca-1(14),5,7,12,15,17-hexaene
_chemical_formula_moiety         'C16 H14 Br2 S2'
_chemical_name_systematic        5,8-dibromo-2,11-dithia(3.3)paracyclophane
_symmetry_cell_setting           triclinic
_symmetry_space_group_name_H-M   'P -1'
_symmetry_Int_Tables_number      2
_space_group_name_Hall           '-P 1'
loop_
_symmetry_equiv_pos_site_id
_symmetry_equiv_pos_as_xyz
1 x,y,z
2 -x,-y,-z
_cell_length_a                   6.9563(6)
_cell_length_b                   10.0455(9)
_cell_length_c                   12.1488(10)
_cell_angle_alpha                104.573(2)
_cell_angle_beta                 102.364(2)
_cell_angle_gamma                104.102(2)
_cell_volume                     761.801
_exptl_crystal_colour            colorless
_exptl_crystal_description       'Rectangular Rod'
_chemical_melting_point          '239-241 deg.C'
_cell_formula_units_Z            2
loop_
_atom_site_label
_atom_site_type_symbol
_atom_site_fract_x
_atom_site_fract_y
_atom_site_fract_z
Br1 Br 0.22144(3) 0.27343(2) 0.483491(15)
Br2 Br 0.54184(3) 0.25030(2) 1.022175(15)
S1 S 0.84788(7) 0.61498(5) 0.77901(4)
S2 S 0.39661(7) -0.14078(5) 0.72133(4)
C1 C 0.3262(2) 0.26727(18) 0.63949(15)
C2 C 0.2542(2) 0.13790(18) 0.66114(16)
H1 H 0.171(4) 0.060(3) 0.601(2)
C3 C 0.3226(2) 0.12528(18) 0.77281(16)
C4 C 0.4532(2) 0.25122(18) 0.86329(15)
C5 C 0.5290(3) 0.37917(18) 0.84078(16)
H2 H 0.622(4) 0.456(3) 0.899(2)
C6 C 0.4741(2) 0.38847(18) 0.72707(15)
C7 C 0.5751(3) 0.5231(2) 0.70009(18)
H3 H 0.559(3) 0.501(2) 0.616(2)
H4 H 0.518(3) 0.594(3) 0.719(2)
C8 C 0.9721(3) 0.4927(2) 0.7064(2)
H5 H 0.942(4) 0.483(3) 0.622(2)
H6 H 1.117(4) 0.541(3) 0.742(2)
C9 C 0.9191(3) 0.34725(19) 0.72718(17)
C10 C 0.7905(3) 0.2247(2) 0.63481(17)
H7 H 0.751(3) 0.230(2) 0.564(2)
C11 C 0.7167(3) 0.0955(2) 0.65641(16)
H8 H 0.628(3) 0.013(2) 0.595(2)
C12 C 0.7682(3) 0.08647(19) 0.76989(16)
C13 C 0.9110(3) 0.2071(2) 0.86102(17)
H9 H 0.946(3) 0.203(2) 0.934(2)
C14 C 0.9849(3) 0.3362(2) 0.83925(17)
H10 H 1.066(4) 0.414(3) 0.901(2)
C15 C 0.6714(3) -0.0476(2) 0.79811(19)
C16 C 0.2653(3) -0.02084(19) 0.78961(18)
H11 H 0.285(3) -0.015(2) 0.867(2)
H12 H 0.124(3) -0.074(2) 0.7472(19)
H13 H 0.697(3) -0.027(3) 0.881(2)
H14 H 0.733(4) -0.122(3) 0.777(2)
loop_
_geom_bond_atom_site_label_1
_geom_bond_atom_site_label_2
_geom_bond_site_symmetry_1
_geom_bond_site_symmetry_2
Br1 C1 1_555 1_555
Br2 C4 1_555 1_555
S1 C7 1_555 1_555
S2 C15 1_555 1_555
C1 C2 1_555 1_555
C2 H1 1_555 1_555
C3 C2 1_555 1_555
C4 C3 1_555 1_555
C5 C4 1_555 1_555
H2 C5 1_555 1_555
C6 C1 1_555 1_555
C7 C6 1_555 1_555
H3 C7 1_555 1_555
H4 C7 1_555 1_555
C8 S1 1_555 1_555
H5 C8 1_555 1_555
H6 C8 1_555 1_555
C9 C8 1_555 1_555
C10 C9 1_555 1_555
H7 C10 1_555 1_555
C11 C10 1_555 1_555
H8 C11 1_555 1_555
C12 C11 1_555 1_555
C13 C12 1_555 1_555
H9 C13 1_555 1_555
C14 C9 1_555 1_555
H10 C14 1_555 1_555
C15 C12 1_555 1_555
C16 S2 1_555 1_555
H11 C16 1_555 1_555
H12 C16 1_555 1_555
H13 C15 1_555 1_555
H14 C15 1_555 1_555
C3 C16 1_555 1_555
C5 C6 1_555 1_555
C13 C14 1_555 1_555

#END
