
#######################################################################
#
#                 Cambridge Crystallographic Data Centre
#                                CCDC 
#
#######################################################################
#
# If this CIF has been generated from an entry in the Cambridge 
# Structural Database, then it will include bibliographic, chemical, 
# crystal, experimental, refinement or atomic coordinate data resulting 
# from the CCDC's data processing and validation procedures.
#
#######################################################################

data_MIQQEL
_chemical_formula_moiety         'C8 H20 N4,C6 H6 O2'
_chemical_name_systematic        
'benzene-1,3-diol 1,4,7,10-tetraazacyclododecane'
_symmetry_cell_setting           orthorhombic
_symmetry_space_group_name_H-M   'P b c a'
_symmetry_Int_Tables_number      61
_space_group_name_Hall           '-P 2ac 2ab'
loop_
_symmetry_equiv_pos_site_id
_symmetry_equiv_pos_as_xyz
1 x,y,z
2 1/2-x,-y,1/2+z
3 -x,1/2+y,1/2-z
4 1/2+x,1/2-y,-z
5 -x,-y,-z
6 1/2+x,y,1/2-z
7 x,1/2-y,1/2+z
8 1/2-x,1/2+y,z
_cell_length_a                   14.415(2)
_cell_length_b                   10.0104(15)
_cell_length_c                   22.237(3)
_cell_angle_alpha                90
_cell_angle_beta                 90
_cell_angle_gamma                90
_cell_volume                     3208.8
_exptl_crystal_colour            colorless
_exptl_crystal_description       block
_cell_formula_units_Z            8
loop_
_atom_site_label
_atom_site_type_symbol
_atom_site_fract_x
_atom_site_fract_y
_atom_site_fract_z
O1 O -0.12560(16) 0.5717(2) 0.40468(12)
C1 C -0.11473(19) 0.4428(3) 0.38816(13)
C2 C -0.02764(18) 0.3873(3) 0.37979(13)
H1 H 0.0249 0.4396 0.3855
O2 O 0.06572(17) 0.1963(2) 0.35622(14)
C3 C -0.1931(2) 0.3642(3) 0.38010(14)
H2 H -0.2518 0.4002 0.3860
C4 C -0.0178(2) 0.2545(3) 0.36305(13)
C5 C -0.0968(2) 0.1776(3) 0.35425(15)
H3 H -0.0913 0.0889 0.3423
C6 C -0.1831(2) 0.2324(3) 0.36321(15)
H4 H -0.2356 0.1798 0.3578
H5 H 0.107(3) 0.250(4) 0.354(2)
H6 H -0.079(3) 0.625(4) 0.3959(19)
N1 N 0.4902(2) 0.2408(3) 0.37804(13)
N2 N 0.2128(2) 0.3469(3) 0.38626(14)
N3 N 0.3432(2) 0.3072(3) 0.29008(12)
H7 H 0.3395 0.2216 0.2923
N4 N 0.3607(2) 0.2879(3) 0.47493(13)
H8 H 0.3349 0.2110 0.4709
C7 C 0.4620(2) 0.3034(4) 0.48067(14)
H9 H 0.4890 0.2192 0.4932
H10 H 0.4755 0.3695 0.5113
C8 C 0.5047(2) 0.3461(3) 0.42229(15)
H11 H 0.4762 0.4284 0.4085
H12 H 0.5706 0.3619 0.4277
C9 C 0.2128(3) 0.3905(4) 0.45126(17)
H13 H 0.1789 0.4738 0.4547
H14 H 0.1805 0.3240 0.4751
C10 C 0.5058(2) 0.2857(3) 0.31440(15)
H15 H 0.5100 0.2077 0.2887
H16 H 0.5646 0.3326 0.3121
C11 C 0.4304(3) 0.3757(4) 0.29115(16)
H17 H 0.4257 0.4540 0.3167
H18 H 0.4460 0.4053 0.2509
C12 C 0.3077(3) 0.4096(4) 0.47655(17)
H19 H 0.3399 0.4779 0.4537
H20 H 0.3028 0.4402 0.5178
C13 C 0.2344(3) 0.4535(4) 0.34459(19)
H21 H 0.2859 0.5060 0.3598
H22 H 0.1812 0.5119 0.3401
C14 C 0.2594(3) 0.3931(4) 0.28496(17)
H23 H 0.2078 0.3401 0.2703
H24 H 0.2711 0.4638 0.2561
H25 H 0.257(2) 0.285(3) 0.3835(13)
H26 H 0.436(2) 0.218(3) 0.3820(13)
loop_
_geom_bond_atom_site_label_1
_geom_bond_atom_site_label_2
_geom_bond_site_symmetry_1
_geom_bond_site_symmetry_2
O1 C1 1_555 1_555
C1 C2 1_555 1_555
C2 H1 1_555 1_555
O2 C4 1_555 1_555
C3 C1 1_555 1_555
H2 C3 1_555 1_555
C4 C2 1_555 1_555
C5 C4 1_555 1_555
H3 C5 1_555 1_555
C6 C3 1_555 1_555
H4 C6 1_555 1_555
H5 O2 1_555 1_555
H6 O1 1_555 1_555
N1 C8 1_555 1_555
N2 C9 1_555 1_555
N3 H7 1_555 1_555
N4 H8 1_555 1_555
C7 N4 1_555 1_555
H9 C7 1_555 1_555
H10 C7 1_555 1_555
C8 C7 1_555 1_555
H11 C8 1_555 1_555
H12 C8 1_555 1_555
C9 H13 1_555 1_555
H14 C9 1_555 1_555
C10 N1 1_555 1_555
H15 C10 1_555 1_555
H16 C10 1_555 1_555
C11 N3 1_555 1_555
H17 C11 1_555 1_555
H18 C11 1_555 1_555
C12 N4 1_555 1_555
H19 C12 1_555 1_555
H20 C12 1_555 1_555
C13 N2 1_555 1_555
H21 C13 1_555 1_555
H22 C13 1_555 1_555
C14 N3 1_555 1_555
H23 C14 1_555 1_555
H24 C14 1_555 1_555
H25 N2 1_555 1_555
H26 N1 1_555 1_555
C5 C6 1_555 1_555
C9 C12 1_555 1_555
C10 C11 1_555 1_555
C13 C14 1_555 1_555

#END
