
#######################################################################
#
#                 Cambridge Crystallographic Data Centre
#                                CCDC 
#
#######################################################################
#
# If this CIF has been generated from an entry in the Cambridge 
# Structural Database, then it will include bibliographic, chemical, 
# crystal, experimental, refinement or atomic coordinate data resulting 
# from the CCDC's data processing and validation procedures.
#
#######################################################################

data_MIQQEJ
_chemical_formula_moiety         'C9 H14 B1 N1 O3'
_chemical_name_systematic        
1-Ethyl-2-(methoxycarbonylmethoxy)-1,2-dihydro-1,2-azaborine
_symmetry_cell_setting           monoclinic
_symmetry_space_group_name_H-M   'P 21/c'
_symmetry_Int_Tables_number      14
_space_group_name_Hall           '-P 2ybc'
loop_
_symmetry_equiv_pos_site_id
_symmetry_equiv_pos_as_xyz
1 x,y,z
2 -x,1/2+y,1/2-z
3 -x,-y,-z
4 x,1/2-y,1/2+z
_cell_length_a                   8.0468(12)
_cell_length_b                   8.2968(13)
_cell_length_c                   15.361(2)
_cell_angle_alpha                90
_cell_angle_beta                 93.584(2)
_cell_angle_gamma                90
_cell_volume                     1023.54
_exptl_crystal_colour            colorless
_exptl_crystal_description       block
_cell_formula_units_Z            4
_exptl_crystal_recrystallization_method pentane
loop_
_atom_site_label
_atom_site_type_symbol
_atom_site_fract_x
_atom_site_fract_y
_atom_site_fract_z
O1 O 0.60630(10) 0.19993(10) 0.55612(5)
O2 O 0.68032(13) -0.09468(12) 0.62665(6)
O3 O 0.83269(11) -0.15988(10) 0.51484(6)
N1 N 0.57923(12) 0.37376(11) 0.67925(6)
B1 B 0.68481(17) 0.28054(15) 0.62652(8)
C1 C 0.64450(16) 0.45976(15) 0.74941(8)
C2 C 0.80987(17) 0.46260(17) 0.77232(9)
C3 C 0.92250(17) 0.37471(17) 0.72367(9)
C4 C 0.86975(16) 0.28499(16) 0.65295(8)
C5 C 0.39724(15) 0.38458(15) 0.66101(8)
C6 C 0.3446(2) 0.54725(19) 0.62576(13)
C7 C 0.70052(17) 0.09246(15) 0.50821(8)
C8 C 0.73416(14) -0.06225(14) 0.55816(7)
C9 C 0.8660(2) -0.31434(17) 0.55604(11)
H1 H 0.5644(18) 0.5172(18) 0.7827(9)
H2 H 0.8514(19) 0.5293(19) 0.8208(10)
H3 H 1.040(2) 0.3775(18) 0.7408(10)
H4 H 0.952(2) 0.2291(18) 0.6226(10)
H5 H 0.3462(18) 0.3616(17) 0.7125(10)
H6 H 0.3637(17) 0.2971(16) 0.6204(9)
H7 H 0.379(2) 0.636(2) 0.6653(13)
H8 H 0.226(2) 0.552(2) 0.6133(11)
H9 H 0.395(2) 0.567(2) 0.5746(12)
H10 H 0.6383(18) 0.0663(17) 0.4539(10)
H11 H 0.8072(18) 0.1403(16) 0.4934(9)
H12 H 0.764(3) -0.368(2) 0.5626(13)
H13 H 0.927(2) -0.300(2) 0.6122(12)
H14 H 0.934(2) -0.371(2) 0.5125(12)
loop_
_geom_bond_atom_site_label_1
_geom_bond_atom_site_label_2
_geom_bond_site_symmetry_1
_geom_bond_site_symmetry_2
O1 B1 1_555 1_555
O2 C8 1_555 1_555
O3 C8 1_555 1_555
N1 B1 1_555 1_555
B1 C4 1_555 1_555
C1 N1 1_555 1_555
C2 C1 1_555 1_555
C3 C2 1_555 1_555
C4 C3 1_555 1_555
C5 N1 1_555 1_555
C6 C5 1_555 1_555
C7 O1 1_555 1_555
C8 C7 1_555 1_555
C9 O3 1_555 1_555
H1 C1 1_555 1_555
H2 C2 1_555 1_555
H3 C3 1_555 1_555
H4 C4 1_555 1_555
H5 C5 1_555 1_555
H6 C5 1_555 1_555
H7 C6 1_555 1_555
H8 C6 1_555 1_555
H9 C6 1_555 1_555
H10 C7 1_555 1_555
H11 C7 1_555 1_555
H12 C9 1_555 1_555
H13 C9 1_555 1_555
H14 C9 1_555 1_555

#END
