
#######################################################################
#
#                 Cambridge Crystallographic Data Centre
#                                CCDC 
#
#######################################################################
#
# If this CIF has been generated from an entry in the Cambridge 
# Structural Database, then it will include bibliographic, chemical, 
# crystal, experimental, refinement or atomic coordinate data resulting 
# from the CCDC's data processing and validation procedures.
#
#######################################################################

data_MIRBUK
_chemical_formula_moiety         'C22 H25 N1 O3'
_chemical_name_systematic        
1'-Benzyl-5'-ethoxy-4-hydroxyspiro(cyclohexane-1,3'-indolin)-2'-one
_symmetry_cell_setting           triclinic
_symmetry_space_group_name_H-M   'P -1'
_symmetry_Int_Tables_number      2
_space_group_name_Hall           '-P 1'
loop_
_symmetry_equiv_pos_site_id
_symmetry_equiv_pos_as_xyz
1 x,y,z
2 -x,-y,-z
_cell_length_a                   9.3467(4)
_cell_length_b                   10.3219(3)
_cell_length_c                   11.2026(8)
_cell_angle_alpha                90.849(4)
_cell_angle_beta                 102.318(3)
_cell_angle_gamma                116.282(3)
_cell_volume                     939.349
_chemical_melting_point          '125-127 deg.C'
_cell_formula_units_Z            2
loop_
_atom_site_label
_atom_site_type_symbol
_atom_site_fract_x
_atom_site_fract_y
_atom_site_fract_z
C1 C 0.4105(2) 0.7247(2) 0.5825(2)
C2 C 0.4081(2) 0.8227(2) 0.6866(2)
C3 C 0.5247(2) 0.8344(2) 0.8089(2)
C4 C 0.7003(2) 0.8829(2) 0.7989(2)
C5 C 0.7045(2) 0.7872(2) 0.6968(2)
C6 C 0.5899(2) 0.7768(2) 0.5742(2)
C7 C 0.3135(2) 0.7400(2) 0.4596(2)
C8 C 0.3187(2) 0.5625(2) 0.5882(1)
C9 C 0.3396(2) 0.4743(2) 0.6744(2)
C10 C 0.2337(2) 0.3249(2) 0.6538(2)
C11 C 0.1066(2) 0.2648(2) 0.5487(2)
C12 C 0.0863(2) 0.3527(2) 0.4604(2)
C13 C 0.1922(2) 0.4990(2) 0.4808(1)
C14 C 0.0830(2) 0.5799(2) 0.2840(2)
C15 C 0.1262(2) 0.5119(2) 0.1858(2)
C16 C 0.0123(3) 0.3833(2) 0.1142(2)
C17 C 0.0528(3) 0.3245(2) 0.0209(2)
C18 C 0.2074(4) 0.3965(3) 0.0004(2)
C19 C 0.3209(3) 0.5245(3) 0.0710(2)
C20 C 0.2816(2) 0.5816(2) 0.1637(2)
C21 C 0.1733(3) 0.0938(2) 0.7272(2)
C22 C 0.2341(4) 0.0374(3) 0.8386(2)
N1 N 0.1937(2) 0.6074(1) 0.4051(1)
O1 O 0.7816(2) 1.0336(1) 0.7858(1)
O2 O 0.3408(2) 0.8544(2) 0.4162(1)
O3 O 0.2679(2) 0.2475(1) 0.7444(1)
H1 H 0.4382 0.9194 0.6624
H2 H 0.2970 0.7839 0.6975
H3 H 0.5241 0.9033 0.8684
H4 H 0.4848 0.7403 0.8393
H5 H 0.7605 0.8687 0.8764
H6 H 0.6736 0.6902 0.7205
H7 H 0.8161 0.8262 0.6870
H8 H 0.5927 0.7097 0.5142
H9 H 0.6293 0.8717 0.5452
H10 H 0.4237 0.5141 0.7460
H11 H 0.0349 0.1656 0.5369
H12 H 0.0023 0.3130 0.3887
H13 H 0.0863 0.6711 0.2906
H14 H -0.0285 0.5157 0.2885
H15 H -0.0924 0.3350 0.1280
H16 H -0.0244 0.2372 -0.0270
H17 H 0.2347 0.3580 -0.0617
H18 H 0.4251 0.5732 0.0564
H19 H 0.3603 0.6680 0.2120
H20 H 0.1859 0.0526 0.6541
H21 H 0.0577 0.0674 0.7171
H22 H 0.1717 -0.0667 0.8298
H23 H 0.2213 0.0791 0.9103
H24 H 0.3483 0.0634 0.8472
H25 H 0.7315 1.0497 0.7231
loop_
_geom_bond_atom_site_label_1
_geom_bond_atom_site_label_2
_geom_bond_site_symmetry_1
_geom_bond_site_symmetry_2
C1 C2 1_555 1_555
C2 C3 1_555 1_555
C3 C4 1_555 1_555
C4 C5 1_555 1_555
C5 C6 1_555 1_555
C6 C1 1_555 1_555
C7 C1 1_555 1_555
C8 C1 1_555 1_555
C9 C8 1_555 1_555
C10 C9 1_555 1_555
C11 C10 1_555 1_555
C12 C11 1_555 1_555
C13 C8 1_555 1_555
C14 C15 1_555 1_555
C15 C16 1_555 1_555
C16 C17 1_555 1_555
C17 C18 1_555 1_555
C18 C19 1_555 1_555
C19 C20 1_555 1_555
C20 C15 1_555 1_555
C21 C22 1_555 1_555
C22 H22 1_555 1_555
N1 C7 1_555 1_555
O1 C4 1_555 1_555
O2 C7 1_555 1_555
O3 C10 1_555 1_555
H1 C2 1_555 1_555
H2 C2 1_555 1_555
H3 C3 1_555 1_555
H4 C3 1_555 1_555
H5 C4 1_555 1_555
H6 C5 1_555 1_555
H7 C5 1_555 1_555
H8 C6 1_555 1_555
H9 C6 1_555 1_555
H10 C9 1_555 1_555
H11 C11 1_555 1_555
H12 C12 1_555 1_555
H13 C14 1_555 1_555
H14 C14 1_555 1_555
H15 C16 1_555 1_555
H16 C17 1_555 1_555
H17 C18 1_555 1_555
H18 C19 1_555 1_555
H19 C20 1_555 1_555
H20 C21 1_555 1_555
H21 C21 1_555 1_555
H23 C22 1_555 1_555
H24 C22 1_555 1_555
H25 O1 1_555 1_555
C12 C13 1_555 1_555
C13 N1 1_555 1_555
C14 N1 1_555 1_555
C21 O3 1_555 1_555

#END
