
#######################################################################
#
#                 Cambridge Crystallographic Data Centre
#                                CCDC 
#
#######################################################################
#
# If this CIF has been generated from an entry in the Cambridge 
# Structural Database, then it will include bibliographic, chemical, 
# crystal, experimental, refinement or atomic coordinate data resulting 
# from the CCDC's data processing and validation procedures.
#
#######################################################################

data_MIRNAE
_chemical_formula_moiety         'C25 H24 B1 F2 N5 O1,C1 H2 Cl2'
_chemical_name_systematic        
"4-(5,5-Difluoro-1,3,7,9-tetramethyl-5H-6\l^5^,5\l^5^-dipyrrolo[1,2-c:2',1'-f][1,3,2]diazaborinin-10-yl)-2-(pyridin-2-ylcarbohydrazonoyl)phenol dichloromethane solvate"
_symmetry_cell_setting           monoclinic
_symmetry_space_group_name_H-M   'P 21/n'
_symmetry_Int_Tables_number      14
_space_group_name_Hall           '-P 2yn'
loop_
_symmetry_equiv_pos_site_id
_symmetry_equiv_pos_as_xyz
1 x,y,z
2 1/2-x,1/2+y,1/2-z
3 -x,-y,-z
4 1/2+x,1/2-y,1/2+z
_cell_length_a                   10.814(2)
_cell_length_b                   14.744(3)
_cell_length_c                   16.812(3)
_cell_angle_alpha                90
_cell_angle_beta                 96.75(3)
_cell_angle_gamma                90
_cell_volume                     2661.95
_exptl_crystal_colour            'dark red'
_exptl_crystal_description       Cubic
_cell_formula_units_Z            4
loop_
_atom_site_label
_atom_site_type_symbol
_atom_site_fract_x
_atom_site_fract_y
_atom_site_fract_z
B1 B 0.3464(3) 0.7098(2) 0.59255(13)
F1 F 0.27760(18) 0.63818(12) 0.61813(9)
F2 F 0.41038(18) 0.75236(12) 0.65851(8)
N1 N 0.25974(18) 0.77737(13) 0.54343(9)
N2 N 0.43922(18) 0.67409(12) 0.53683(9)
N3 N 0.20417(15) 0.64701(11) 0.06685(9)
N4 N 0.13402(19) 0.58425(13) 0.02214(10)
H1 H 0.073(2) 0.5556(15) 0.0447(14)
N5 N 0.08807(15) 0.50085(11) -0.09162(9)
O1 O 0.34807(15) 0.79273(11) 0.08435(7)
H2 H 0.3035 0.7550 0.0592
C1 C 0.1677(2) 0.82612(19) 0.57020(15)
C2 C 0.1083(3) 0.8771(2) 0.50759(17)
H3 H 0.0419 0.9164 0.5111
C3 C 0.1638(2) 0.86019(17) 0.43923(14)
C4 C 0.2598(2) 0.79627(15) 0.46151(11)
C5 C 0.34472(18) 0.75249(13) 0.41799(10)
C6 C 0.43507(19) 0.69383(14) 0.45481(10)
C7 C 0.5340(2) 0.64558(16) 0.42495(12)
C8 C 0.5940(2) 0.59875(18) 0.48887(14)
H4 H 0.6628 0.5613 0.4873
C9 C 0.5347(2) 0.61667(17) 0.55621(13)
C10 C 0.33796(17) 0.76615(13) 0.32924(10)
C11 C 0.26910(17) 0.70763(13) 0.27716(10)
H5 H 0.2218 0.6626 0.2978
C12 C 0.26882(16) 0.71439(12) 0.19411(10)
C13 C 0.34015(17) 0.78291(13) 0.16387(10)
C14 C 0.4065(2) 0.84285(14) 0.21573(11)
H6 H 0.4525 0.8890 0.1955
C15 C 0.4049(2) 0.83463(14) 0.29736(11)
H7 H 0.4495 0.8757 0.3316
C16 C 0.19643(18) 0.64988(14) 0.14209(11)
H8 H 0.1434 0.6099 0.1641
C17 C 0.15507(18) 0.56848(13) -0.05572(10)
C18 C 0.2397(2) 0.61892(16) -0.09438(12)
H9 H 0.2863 0.6650 -0.0676
C19 C 0.2526(2) 0.59909(17) -0.17258(13)
H10 H 0.3062 0.6331 -0.2002
C20 C 0.1858(2) 0.52838(16) -0.21016(13)
H11 H 0.1943 0.5129 -0.2629
C21 C 0.10677(19) 0.48197(14) -0.16746(12)
H12 H 0.0626 0.4338 -0.1926
C22 C 0.1263(3) 0.9035(2) 0.35926(17)
H13 H 0.0576 0.9439 0.3631
H14 H 0.1019 0.8573 0.3203
H15 H 0.1953 0.9370 0.3432
C23 C 0.1372(3) 0.8205(2) 0.65432(16)
H16 H 0.1122 0.7598 0.6653
H17 H 0.0705 0.8616 0.6613
H18 H 0.2093 0.8365 0.6905
C24 C 0.5724(2) 0.64468(18) 0.34266(14)
H19 H 0.6412 0.6038 0.3410
H20 H 0.5970 0.7046 0.3287
H21 H 0.5038 0.6250 0.3052
C25 C 0.5665(3) 0.5803(2) 0.63958(15)
H22 H 0.6036 0.6276 0.6737
H23 H 0.6242 0.5310 0.6386
H24 H 0.4921 0.5592 0.6596
C26 C 0.4868(3) 0.13136(19) 0.05516(16)
H25 H 0.4404 0.1784 0.0243
H26 H 0.5499 0.1082 0.0239
Cl1 Cl 0.5616(3) 0.17873(19) 0.1513(2)
Cl2 Cl 0.38793(9) 0.04494(6) 0.07586(5)
Cl3? Cl 0.5811(11) 0.1685(7) 0.1259(10)
loop_
_geom_bond_atom_site_label_1
_geom_bond_atom_site_label_2
_geom_bond_site_symmetry_1
_geom_bond_site_symmetry_2
B1 F1 1_555 1_555
F2 B1 1_555 1_555
N1 B1 1_555 1_555
N2 B1 1_555 1_555
N3 N4 1_555 1_555
N4 H1 1_555 1_555
N5 C17 1_555 1_555
O1 H2 1_555 1_555
C1 N1 1_555 1_555
C2 C1 1_555 1_555
H3 C2 1_555 1_555
C3 C2 1_555 1_555
C4 N1 1_555 1_555
C5 C4 1_555 1_555
C6 N2 1_555 1_555
C7 C6 1_555 1_555
C8 C7 1_555 1_555
H4 C8 1_555 1_555
C9 N2 1_555 1_555
C10 C5 1_555 1_555
C11 C10 1_555 1_555
H5 C11 1_555 1_555
C12 C11 1_555 1_555
C13 O1 1_555 1_555
C14 C13 1_555 1_555
H6 C14 1_555 1_555
C15 C10 1_555 1_555
H7 C15 1_555 1_555
C16 N3 1_555 1_555
H8 C16 1_555 1_555
C17 N4 1_555 1_555
C18 C17 1_555 1_555
H9 C18 1_555 1_555
C19 C18 1_555 1_555
H10 C19 1_555 1_555
C20 C19 1_555 1_555
H11 C20 1_555 1_555
C21 N5 1_555 1_555
H12 C21 1_555 1_555
C22 C3 1_555 1_555
H13 C22 1_555 1_555
H14 C22 1_555 1_555
H15 C22 1_555 1_555
C23 C1 1_555 1_555
H16 C23 1_555 1_555
H17 C23 1_555 1_555
H18 C23 1_555 1_555
C24 C7 1_555 1_555
H19 C24 1_555 1_555
H20 C24 1_555 1_555
H21 C24 1_555 1_555
C25 C9 1_555 1_555
H22 C25 1_555 1_555
H23 C25 1_555 1_555
H24 C25 1_555 1_555
C26 H25 1_555 1_555
H26 C26 1_555 1_555
Cl1 C26 1_555 1_555
Cl2 C26 1_555 1_555
C3 C4 1_555 1_555
C5 C6 1_555 1_555
C8 C9 1_555 1_555
C12 C13 1_555 1_555
C12 C16 1_555 1_555
C14 C15 1_555 1_555
C20 C21 1_555 1_555

#END
