
#######################################################################
#
#                 Cambridge Crystallographic Data Centre
#                                CCDC 
#
#######################################################################
#
# If this CIF has been generated from an entry in the Cambridge 
# Structural Database, then it will include bibliographic, chemical, 
# crystal, experimental, refinement or atomic coordinate data resulting 
# from the CCDC's data processing and validation procedures.
#
#######################################################################

data_MIRREM02
_chemical_formula_moiety         'C6 H4 Cl1 I1 O1'
_chemical_name_systematic        4-Chloro-3-iodophenol
_symmetry_cell_setting           monoclinic
_symmetry_space_group_name_H-M   'P 21/c'
_symmetry_Int_Tables_number      14
_space_group_name_Hall           '-P 2ybc'
loop_
_symmetry_equiv_pos_site_id
_symmetry_equiv_pos_as_xyz
1 x,y,z
2 -x,1/2+y,1/2-z
3 -x,-y,-z
4 x,1/2-y,1/2+z
_cell_length_a                   11.26(2)
_cell_length_b                   4.321(8)
_cell_length_c                   15.88(3)
_cell_angle_alpha                90
_cell_angle_beta                 106.74(2)
_cell_angle_gamma                90
_cell_volume                     739.89
_exptl_crystal_colour            colorless
_exptl_crystal_description       needle
_cell_formula_units_Z            4
loop_
_atom_site_label
_atom_site_type_symbol
_atom_site_fract_x
_atom_site_fract_y
_atom_site_fract_z
C1 C 0.3379(4) 0.5103(10) -0.2215(3)
C2 C 0.3576(4) 0.3890(10) -0.1383(3)
H1 H 0.4290 0.2761 -0.1122
C3 C 0.2698(4) 0.4370(10) -0.0938(3)
C4 C 0.1633(4) 0.6029(12) -0.1338(3)
C5 C 0.1457(5) 0.7251(10) -0.2166(4)
H2 H 0.0748 0.8399 -0.2426
C6 C 0.2328(5) 0.6781(12) -0.2611(3)
H3 H 0.2206 0.7588 -0.3173
O1 O 0.4243(3) 0.4726(8) -0.2671(2)
H4 H 0.4764 0.3454 -0.2417
Cl1 Cl 0.04978(13) 0.6648(4) -0.08293(11)
I1 I 0.30863(3) 0.25728(7) 0.03353(2)
loop_
_geom_bond_atom_site_label_1
_geom_bond_atom_site_label_2
_geom_bond_site_symmetry_1
_geom_bond_site_symmetry_2
C1 C2 1_555 1_555
C2 H1 1_555 1_555
C3 C2 1_555 1_555
C4 C3 1_555 1_555
C5 C4 1_555 1_555
H2 C5 1_555 1_555
C6 C1 1_555 1_555
H3 C6 1_555 1_555
O1 C1 1_555 1_555
H4 O1 1_555 1_555
Cl1 C4 1_555 1_555
I1 C3 1_555 1_555
C5 C6 1_555 1_555

#END
