
#######################################################################
#
#                 Cambridge Crystallographic Data Centre
#                                CCDC 
#
#######################################################################
#
# If this CIF has been generated from an entry in the Cambridge 
# Structural Database, then it will include bibliographic, chemical, 
# crystal, experimental, refinement or atomic coordinate data resulting 
# from the CCDC's data processing and validation procedures.
#
#######################################################################

data_MIRRUC
_chemical_formula_moiety         'C6 H4 Br1 Cl1 O1'
_chemical_name_systematic        3-Bromo-4-chlorophenol
_symmetry_cell_setting           monoclinic
_symmetry_space_group_name_H-M   'P 21/c'
_symmetry_Int_Tables_number      14
_space_group_name_Hall           '-P 2ybc'
loop_
_symmetry_equiv_pos_site_id
_symmetry_equiv_pos_as_xyz
1 x,y,z
2 -x,1/2+y,1/2-z
3 -x,-y,-z
4 x,1/2-y,1/2+z
_cell_length_a                   11.457(3)
_cell_length_b                   4.1113(9)
_cell_length_c                   15.233(4)
_cell_angle_alpha                90
_cell_angle_beta                 108.905(8)
_cell_angle_gamma                90
_cell_volume                     678.817
_exptl_crystal_colour            colorless
_exptl_crystal_description       needle
_cell_formula_units_Z            4
loop_
_atom_site_label
_atom_site_type_symbol
_atom_site_fract_x
_atom_site_fract_y
_atom_site_fract_z
C1 C 0.3393(3) -0.0149(8) -0.2213(2)
C2 C 0.3634(3) 0.1048(8) -0.1324(2)
H1 H 0.4360 0.2184 -0.1036
C3 C 0.2786(3) 0.0539(8) -0.0865(2)
C4 C 0.1713(3) -0.1177(8) -0.1290(2)
C5 C 0.1483(3) -0.2368(7) -0.2187(3)
H2 H 0.0761 -0.3512 -0.2477
C6 C 0.2327(3) -0.1849(8) -0.2642(2)
H3 H 0.2177 -0.2649 -0.3240
O1 O 0.4218(2) 0.0260(6) -0.26856(16)
Cl1 Cl 0.06210(9) -0.1853(2) -0.07456(7)
Br1 Br 0.31546(3) 0.22009(8) 0.03487(2)
H4 H 0.467(4) 0.181(10) -0.252(3)
loop_
_geom_bond_atom_site_label_1
_geom_bond_atom_site_label_2
_geom_bond_site_symmetry_1
_geom_bond_site_symmetry_2
C1 C2 1_555 1_555
C2 H1 1_555 1_555
C3 C2 1_555 1_555
C4 C3 1_555 1_555
C5 C4 1_555 1_555
H2 C5 1_555 1_555
C6 C1 1_555 1_555
H3 C6 1_555 1_555
O1 C1 1_555 1_555
Cl1 C4 1_555 1_555
Br1 C3 1_555 1_555
H4 O1 1_555 1_555
C5 C6 1_555 1_555

#END
