
#######################################################################
#
#                 Cambridge Crystallographic Data Centre
#                                CCDC 
#
#######################################################################
#
# If this CIF has been generated from an entry in the Cambridge 
# Structural Database, then it will include bibliographic, chemical, 
# crystal, experimental, refinement or atomic coordinate data resulting 
# from the CCDC's data processing and validation procedures.
#
#######################################################################

data_MIRREM
_chemical_formula_moiety         'C6 H4 Cl1 I1 O1'
_chemical_name_systematic        4-Chloro-3-iodophenol
_symmetry_cell_setting           monoclinic
_symmetry_space_group_name_H-M   'P 21/c'
_symmetry_Int_Tables_number      14
_space_group_name_Hall           '-P 2ybc'
loop_
_symmetry_equiv_pos_site_id
_symmetry_equiv_pos_as_xyz
1 x,y,z
2 -x,1/2+y,1/2-z
3 -x,-y,-z
4 x,1/2-y,1/2+z
_cell_length_a                   11.222(18)
_cell_length_b                   4.263(7)
_cell_length_c                   15.81(3)
_cell_angle_alpha                90
_cell_angle_beta                 106.933(19)
_cell_angle_gamma                90
_cell_volume                     723.55
_exptl_crystal_colour            colorless
_exptl_crystal_description       needle
_cell_formula_units_Z            4
loop_
_atom_site_label
_atom_site_type_symbol
_atom_site_fract_x
_atom_site_fract_y
_atom_site_fract_z
C1 C 0.6626(4) 0.5108(10) 0.7218(3)
C2 C 0.6428(4) 0.3884(10) 0.6383(3)
H1 H 0.5710 0.2738 0.6121
C3 C 0.7301(4) 0.4366(10) 0.5934(3)
C4 C 0.8374(4) 0.6053(11) 0.6336(3)
C5 C 0.8557(5) 0.7298(9) 0.7172(4)
H2 H 0.9271 0.8463 0.7431
C6 C 0.7694(5) 0.6828(11) 0.7623(3)
H3 H 0.7821 0.7644 0.8188
O1 O 0.5761(3) 0.4720(7) 0.7679(2)
H4 H 0.5355 0.3124 0.7507
Cl1 Cl 0.95124(11) 0.6680(3) 0.58216(9)
I1 I 0.69048(3) 0.25625(6) 0.465297(19)
loop_
_geom_bond_atom_site_label_1
_geom_bond_atom_site_label_2
_geom_bond_site_symmetry_1
_geom_bond_site_symmetry_2
C1 C2 1_555 1_555
C2 H1 1_555 1_555
C3 C2 1_555 1_555
C4 C3 1_555 1_555
C5 C4 1_555 1_555
H2 C5 1_555 1_555
C6 C1 1_555 1_555
H3 C6 1_555 1_555
O1 C1 1_555 1_555
H4 O1 1_555 1_555
Cl1 C4 1_555 1_555
I1 C3 1_555 1_555
C5 C6 1_555 1_555

#END
