
#######################################################################
#
#                 Cambridge Crystallographic Data Centre
#                                CCDC 
#
#######################################################################
#
# If this CIF has been generated from an entry in the Cambridge 
# Structural Database, then it will include bibliographic, chemical, 
# crystal, experimental, refinement or atomic coordinate data resulting 
# from the CCDC's data processing and validation procedures.
#
#######################################################################

data_MIRVIU
_chemical_formula_moiety         'C16 H13 N3 O1'
_chemical_name_systematic        
6-Methyl-11b,12-dihydro-13H-quinazolino[3,4-a]quinazolin-13-one
_symmetry_cell_setting           orthorhombic
_symmetry_space_group_name_H-M   'P b c a'
_symmetry_Int_Tables_number      61
_space_group_name_Hall           '-P 2ac 2ab'
loop_
_symmetry_equiv_pos_site_id
_symmetry_equiv_pos_as_xyz
1 x,y,z
2 1/2-x,-y,1/2+z
3 1/2+x,1/2-y,-z
4 -x,1/2+y,1/2-z
5 -x,-y,-z
6 1/2+x,y,1/2-z
7 1/2-x,1/2+y,z
8 x,1/2-y,1/2+z
_cell_length_a                   8.5996(13)
_cell_length_b                   14.555(2)
_cell_length_c                   20.633(3)
_cell_angle_alpha                90
_cell_angle_beta                 90
_cell_angle_gamma                90
_cell_volume                     2582.57
_exptl_crystal_colour            colorless
_exptl_crystal_description       Prism
_cell_formula_units_Z            8
loop_
_atom_site_label
_atom_site_type_symbol
_atom_site_fract_x
_atom_site_fract_y
_atom_site_fract_z
O1 O 0.4064(3) 0.23448(15) 0.18650(10)
N1 N 0.3978(3) 0.30096(17) 0.08740(11)
H1 H 0.4402 0.2543 0.0689
N2 N 0.2057(3) 0.41325(16) 0.06418(11)
N3 N 0.1004(3) 0.34908(17) -0.03121(11)
C1 C 0.2679(4) 0.3270(2) -0.12373(14)
H2 H 0.1804 0.3136 -0.1484
C2 C 0.4117(4) 0.3258(2) -0.15193(15)
H3 H 0.4215 0.3106 -0.1955
C3 C 0.5430(4) 0.3469(2) -0.11604(16)
H4 H 0.6405 0.3471 -0.1355
C4 C 0.5279(4) 0.3678(2) -0.05071(15)
H5 H 0.6156 0.3823 -0.0264
C5 C 0.3826(3) 0.36711(19) -0.02163(14)
C6 C 0.2515(4) 0.34832(19) -0.05812(13)
C7 C 0.0836(3) 0.38145(19) 0.02689(14)
C8 C 0.3633(3) 0.38346(19) 0.04944(13)
H6 H 0.4354 0.4321 0.0626
C9 C -0.0777(3) 0.3861(2) 0.05369(15)
H7 H -0.1118 0.4488 0.0546
H8 H -0.0784 0.3616 0.0969
H9 H -0.1464 0.3507 0.0268
C10 C 0.3638(3) 0.2975(2) 0.15128(14)
C11 C 0.2657(3) 0.3749(2) 0.17531(14)
C12 C 0.1871(3) 0.43173(19) 0.13233(14)
C13 C 0.0971(4) 0.5041(2) 0.15459(16)
H10 H 0.0478 0.5434 0.1256
C14 C 0.0818(4) 0.5169(2) 0.22037(17)
H11 H 0.0206 0.5648 0.2359
C15 C 0.1561(4) 0.4595(3) 0.26357(16)
H12 H 0.1436 0.4685 0.3079
C16 C 0.2482(4) 0.3895(2) 0.24169(15)
H13 H 0.2991 0.3516 0.2711
loop_
_geom_bond_atom_site_label_1
_geom_bond_atom_site_label_2
_geom_bond_site_symmetry_1
_geom_bond_site_symmetry_2
O1 C10 1_555 1_555
N1 H1 1_555 1_555
N2 C7 1_555 1_555
N3 C6 1_555 1_555
C1 H2 1_555 1_555
C2 C1 1_555 1_555
H3 C2 1_555 1_555
C3 C2 1_555 1_555
H4 C3 1_555 1_555
C4 C3 1_555 1_555
H5 C4 1_555 1_555
C5 C4 1_555 1_555
C6 C1 1_555 1_555
C7 N3 1_555 1_555
C8 N1 1_555 1_555
H6 C8 1_555 1_555
C9 C7 1_555 1_555
H7 C9 1_555 1_555
H8 C9 1_555 1_555
H9 C9 1_555 1_555
C10 N1 1_555 1_555
C11 C10 1_555 1_555
C12 N2 1_555 1_555
C13 C12 1_555 1_555
H10 C13 1_555 1_555
C14 C13 1_555 1_555
H11 C14 1_555 1_555
C15 C14 1_555 1_555
H12 C15 1_555 1_555
C16 C11 1_555 1_555
H13 C16 1_555 1_555
N2 C8 1_555 1_555
C5 C6 1_555 1_555
C5 C8 1_555 1_555
C11 C12 1_555 1_555
C15 C16 1_555 1_555

#END
