
#######################################################################
#
#                 Cambridge Crystallographic Data Centre
#                                CCDC 
#
#######################################################################
#
# If this CIF has been generated from an entry in the Cambridge 
# Structural Database, then it will include bibliographic, chemical, 
# crystal, experimental, refinement or atomic coordinate data resulting 
# from the CCDC's data processing and validation procedures.
#
#######################################################################

data_MISALX
_chemical_formula_moiety         'C11 H8 N4 O2'
_chemical_name_systematic        10-Methylisoalloxazine
_symmetry_cell_setting           triclinic
_symmetry_space_group_name_H-M   'P -1'
_symmetry_Int_Tables_number      2
_space_group_name_Hall           '-P 1'
loop_
_symmetry_equiv_pos_site_id
_symmetry_equiv_pos_as_xyz
1 x,y,z
2 -x,-y,-z
_cell_length_a                   7.179(3)
_cell_length_b                   6.725(4)
_cell_length_c                   10.857(3)
_cell_angle_alpha                103.10(1)
_cell_angle_beta                 75.08(2)
_cell_angle_gamma                109.07(2)
_cell_volume                     472.829
_cell_formula_units_Z            2
loop_
_atom_site_label
_atom_site_type_symbol
_atom_site_fract_x
_atom_site_fract_y
_atom_site_fract_z
C1 C 0.06170 -0.05760 -0.34460
C2 C -0.14340 -0.41970 -0.31030
C3 C 0.28040 -0.01280 -0.53870
C4 C 0.27850 0.30830 -0.37640
C5 C 0.11760 0.16940 -0.29090
C6 C -0.10200 0.11800 -0.10030
C7 C -0.18200 0.20600 0.02610
C8 C -0.31850 0.07820 0.10990
C9 C -0.37780 -0.14080 0.06760
C10 C -0.30580 -0.23540 -0.05530
C11 C -0.16550 -0.10530 -0.14000
H1 H 0.44400 0.29500 -0.55000
H2 H -0.08500 -0.44500 -0.40400
H3 H -0.28900 -0.46600 -0.30000
H4 H -0.12100 -0.48700 -0.25200
H5 H -0.14700 0.35300 0.05100
H6 H -0.38200 0.12600 0.19200
H7 H -0.47500 -0.22800 0.12700
H8 H -0.33400 -0.39500 -0.08000
N1 N 0.13540 -0.14340 -0.46120
N2 N -0.08190 -0.18630 -0.26400
N3 N 0.34760 0.20680 -0.49360
N4 N 0.04050 0.25260 -0.17740
O1 O 0.35630 -0.07750 -0.64780
O2 O 0.34400 0.49910 -0.34350
loop_
_geom_bond_atom_site_label_1
_geom_bond_atom_site_label_2
_geom_bond_site_symmetry_1
_geom_bond_site_symmetry_2
C1 C5 1_555 1_555
C2 H2 1_555 1_555
C3 N1 1_555 1_555
C4 C5 1_555 1_555
C5 N4 1_555 1_555
C6 C7 1_555 1_555
C7 C8 1_555 1_555
C8 C9 1_555 1_555
C9 C10 1_555 1_555
C10 C11 1_555 1_555
C11 C6 1_555 1_555
H1 N3 1_555 1_555
H3 C2 1_555 1_555
H4 C2 1_555 1_555
H5 C7 1_555 1_555
H6 C8 1_555 1_555
H7 C9 1_555 1_555
H8 C10 1_555 1_555
N1 C1 1_555 1_555
N2 C1 1_555 1_555
N3 C3 1_555 1_555
N4 C6 1_555 1_555
O1 C3 1_555 1_555
O2 C4 1_555 1_555
C2 N2 1_555 1_555
C4 N3 1_555 1_555
C11 N2 1_555 1_555

#END
