
#######################################################################
#
#                 Cambridge Crystallographic Data Centre
#                                CCDC 
#
#######################################################################
#
# If this CIF has been generated from an entry in the Cambridge 
# Structural Database, then it will include bibliographic, chemical, 
# crystal, experimental, refinement or atomic coordinate data resulting 
# from the CCDC's data processing and validation procedures.
#
#######################################################################

data_MISZUM
_chemical_formula_moiety         'C15 H13 N1 O3'
_chemical_name_systematic        
3-hydroxy-2-methoxy-3-phenyl-2,3-dihydro-1H-isoindol-1-one
_symmetry_cell_setting           tetragonal
_symmetry_space_group_name_H-M   'P -4 21 c'
_symmetry_Int_Tables_number      114
_space_group_name_Hall           'P -4 2n'
loop_
_symmetry_equiv_pos_site_id
_symmetry_equiv_pos_as_xyz
1 x,y,z
2 -x,-y,z
3 y,-x,-z
4 -y,x,-z
5 1/2-x,1/2+y,1/2-z
6 1/2+x,1/2-y,1/2-z
7 1/2-y,1/2-x,1/2+z
8 1/2+y,1/2+x,1/2+z
_cell_length_a                   18.3789(4)
_cell_length_b                   18.3789(4)
_cell_length_c                   7.4522(2)
_cell_angle_alpha                90
_cell_angle_beta                 90
_cell_angle_gamma                90
_cell_volume                     2517.23
_exptl_crystal_colour            colorless
_exptl_crystal_description       block
_cell_formula_units_Z            8
loop_
_atom_site_label
_atom_site_type_symbol
_atom_site_fract_x
_atom_site_fract_y
_atom_site_fract_z
O1 O 0.51057(8) 0.76035(8) 1.03539(19)
H1 H 0.530594 0.787648 1.107057
O2 O 0.63133(8) 0.93355(8) 0.7439(2)
O3 O 0.48776(8) 0.88136(8) 0.75568(19)
N1 N 0.54895(9) 0.84280(9) 0.8069(2)
C1 C 0.61656(11) 0.87100(11) 0.7898(3)
C2 C 0.66683(11) 0.81073(11) 0.8375(2)
C3 C 0.50304(10) 0.71863(11) 0.7366(3)
C4 C 0.62572(11) 0.74936(11) 0.8747(3)
C5 C 0.54465(11) 0.76643(11) 0.8665(3)
C6 C 0.42922(12) 0.62565(13) 0.5028(3)
H2 H 0.404121 0.594946 0.425290
C7 C 0.49668(12) 0.73643(12) 0.5552(3)
H3 H 0.517147 0.779248 0.511869
C8 C 0.45952(11) 0.68985(13) 0.4387(3)
H4 H 0.455060 0.701850 0.317938
C9 C 0.65904(12) 0.68426(11) 0.9181(3)
H5 H 0.631691 0.642841 0.942387
C10 C 0.77602(11) 0.74488(13) 0.8894(3)
H6 H 0.826510 0.742760 0.895569
C11 C 0.47315(11) 0.65373(11) 0.7992(3)
H7 H 0.477770 0.641315 0.919628
C12 C 0.74200(12) 0.81014(12) 0.8454(3)
H8 H 0.768916 0.851944 0.822231
C13 C 0.73489(13) 0.68249(12) 0.9243(3)
H9 H 0.758447 0.639148 0.952100
C14 C 0.43642(12) 0.60740(13) 0.6825(3)
H10 H 0.416681 0.564126 0.725068
C15 C 0.45137(13) 0.91402(13) 0.9082(3)
H11 H 0.418188 0.950732 0.867041
H12 H 0.486848 0.935697 0.986225
H13 H 0.424971 0.877250 0.972541
loop_
_geom_bond_atom_site_label_1
_geom_bond_atom_site_label_2
_geom_bond_site_symmetry_1
_geom_bond_site_symmetry_2
O1 H1 1_555 1_555
O2 C1 1_555 1_555
O3 N1 1_555 1_555
N1 C1 1_555 1_555
C1 C2 1_555 1_555
C2 C4 1_555 1_555
C3 C5 1_555 1_555
C4 C5 1_555 1_555
C5 O1 1_555 1_555
C6 H2 1_555 1_555
C7 C3 1_555 1_555
H3 C7 1_555 1_555
C8 C6 1_555 1_555
H4 C8 1_555 1_555
C9 C4 1_555 1_555
H5 C9 1_555 1_555
C10 H6 1_555 1_555
C11 C3 1_555 1_555
H7 C11 1_555 1_555
C12 C2 1_555 1_555
H8 C12 1_555 1_555
C13 C9 1_555 1_555
H9 C13 1_555 1_555
C14 C6 1_555 1_555
H10 C14 1_555 1_555
C15 O3 1_555 1_555
H11 C15 1_555 1_555
H12 C15 1_555 1_555
H13 C15 1_555 1_555
N1 C5 1_555 1_555
C7 C8 1_555 1_555
C10 C12 1_555 1_555
C10 C13 1_555 1_555
C11 C14 1_555 1_555

#END
