
#######################################################################
#
#                 Cambridge Crystallographic Data Centre
#                                CCDC 
#
#######################################################################
#
# If this CIF has been generated from an entry in the Cambridge 
# Structural Database, then it will include bibliographic, chemical, 
# crystal, experimental, refinement or atomic coordinate data resulting 
# from the CCDC's data processing and validation procedures.
#
#######################################################################

data_MISZEU
_chemical_formula_moiety         'C17 H11 N1 O2 S2'
_chemical_name_systematic        
3-(5-Phenyl-3H-(1,2,4)dithiazol-3-yl)chromen-4-one
_symmetry_cell_setting           monoclinic
_symmetry_space_group_name_H-M   'P 21/a'
_symmetry_Int_Tables_number      14
_space_group_name_Hall           '-P 2yab'
loop_
_symmetry_equiv_pos_site_id
_symmetry_equiv_pos_as_xyz
1 x,y,z
2 1/2-x,1/2+y,-z
3 -x,-y,-z
4 1/2+x,1/2-y,z
_cell_length_a                   15.464(2)
_cell_length_b                   6.008(1)
_cell_length_c                   15.310(2)
_cell_angle_alpha                90
_cell_angle_beta                 98.511(2)
_cell_angle_gamma                90
_cell_volume                     1406.75
_exptl_crystal_colour            'light orange'
_exptl_crystal_description       rectangular
_chemical_melting_point          184-185deg.C
_cell_formula_units_Z            4
_exptl_crystal_recrystallization_method chloroform/hexane
loop_
_atom_site_label
_atom_site_type_symbol
_atom_site_fract_x
_atom_site_fract_y
_atom_site_fract_z
S1 S 0.03284(3) 0.39239(8) 0.10919(3)
S2 S 0.08949(3) 0.14704(8) 0.19225(3)
C1 C -0.00338(11) 0.1474(3) 0.26082(12)
N1 N -0.06076(10) 0.3347(3) 0.23947(10)
C2 C -0.05180(11) 0.4510(3) 0.17316(11)
O1 O 0.06498(8) 0.3115(2) 0.49495(8)
C3 C 0.02975(12) 0.3092(3) 0.40953(12)
C4 C 0.03713(11) 0.1403(3) 0.35479(11)
C5 C 0.08617(11) -0.0594(3) 0.38501(11)
O2 O 0.09461(9) -0.2165(2) 0.33578(9)
C6 C 0.12536(11) -0.0550(3) 0.47768(11)
C7 C 0.17658(11) -0.2313(3) 0.51698(12)
C8 C 0.21379(12) -0.2196(3) 0.60334(13)
C9 C 0.20154(12) -0.0306(3) 0.65264(12)
C10 C 0.15139(12) 0.1447(3) 0.61608(12)
C11 C 0.11361(11) 0.1306(3) 0.52861(12)
C12 C -0.11384(11) 0.6316(3) 0.14084(11)
C13 C -0.08901(12) 0.8023(3) 0.08812(11)
C14 C -0.14913(13) 0.9678(3) 0.05763(12)
C15 C -0.23374(13) 0.9634(3) 0.07956(12)
C16 C -0.25871(12) 0.7941(3) 0.13173(12)
C17 C -0.19921(12) 0.6276(3) 0.16204(12)
H1 H 0.0009(13) 0.438(4) 0.3934(13)
H2 H -0.0363(13) 0.014(4) 0.2483(13)
H3 H 0.1854(13) -0.353(3) 0.4820(14)
H4 H 0.2459(15) -0.342(4) 0.6319(15)
H5 H 0.2287(14) -0.025(4) 0.7120(15)
H6 H 0.1407(15) 0.275(4) 0.6477(15)
H7 H -0.0330(14) 0.808(3) 0.0721(13)
H8 H -0.1321(15) 1.086(4) 0.0241(15)
H9 H -0.2734(15) 1.073(4) 0.0598(15)
H10 H -0.3165(14) 0.787(3) 0.1468(14)
H11 H -0.2141(14) 0.509(4) 0.1956(14)
loop_
_geom_bond_atom_site_label_1
_geom_bond_atom_site_label_2
_geom_bond_site_symmetry_1
_geom_bond_site_symmetry_2
S1 S2 1_555 1_555
S2 C1 1_555 1_555
C1 N1 1_555 1_555
N1 C2 1_555 1_555
C2 S1 1_555 1_555
O1 C3 1_555 1_555
C3 C4 1_555 1_555
C4 C1 1_555 1_555
C5 C4 1_555 1_555
O2 C5 1_555 1_555
C6 C5 1_555 1_555
C7 C6 1_555 1_555
C8 C7 1_555 1_555
C9 C8 1_555 1_555
C10 C9 1_555 1_555
C11 O1 1_555 1_555
C12 C2 1_555 1_555
C13 C12 1_555 1_555
C14 C13 1_555 1_555
C15 C14 1_555 1_555
C16 C15 1_555 1_555
C17 C12 1_555 1_555
H1 C3 1_555 1_555
H2 C1 1_555 1_555
H3 C7 1_555 1_555
H4 C8 1_555 1_555
H5 C9 1_555 1_555
H6 C10 1_555 1_555
H7 C13 1_555 1_555
H8 C14 1_555 1_555
H9 C15 1_555 1_555
H10 C16 1_555 1_555
H11 C17 1_555 1_555
C6 C11 1_555 1_555
C10 C11 1_555 1_555
C16 C17 1_555 1_555

#END
