
#######################################################################
#
#                 Cambridge Crystallographic Data Centre
#                                CCDC 
#
#######################################################################
#
# If this CIF has been generated from an entry in the Cambridge 
# Structural Database, then it will include bibliographic, chemical, 
# crystal, experimental, refinement or atomic coordinate data resulting 
# from the CCDC's data processing and validation procedures.
#
#######################################################################

data_MITKIK
_chemical_formula_moiety         'C19 H32 N4'
_chemical_name_systematic        bis(3,5-Di-isopropyl-1-pyrazolyl)methane
_symmetry_cell_setting           monoclinic
_symmetry_space_group_name_H-M   'P 21/c'
_symmetry_Int_Tables_number      14
_space_group_name_Hall           '-P 2ybc'
loop_
_symmetry_equiv_pos_site_id
_symmetry_equiv_pos_as_xyz
1 x,y,z
2 -x,1/2+y,1/2-z
3 -x,-y,-z
4 x,1/2-y,1/2+z
_cell_length_a                   8.8156(10)
_cell_length_b                   19.959(2)
_cell_length_c                   10.9411(15)
_cell_angle_alpha                90
_cell_angle_beta                 96.308(7)
_cell_angle_gamma                90
_cell_volume                     1913.44
_exptl_crystal_colour            colorless
_exptl_crystal_description       block
_cell_formula_units_Z            4
loop_
_atom_site_label
_atom_site_type_symbol
_atom_site_fract_x
_atom_site_fract_y
_atom_site_fract_z
N1 N 0.19321(14) 0.16714(6) 0.45596(12)
N2 N 0.33047(14) 0.16441(6) 0.52814(12)
N3 N 0.61973(14) 0.06792(6) 0.66450(12)
N4 N 0.47400(14) 0.06660(6) 0.60542(12)
C1 C 0.43773(19) 0.11227(8) 0.50350(13)
C2 C 0.4496(2) 0.18859(10) 0.83261(16)
C3 C 0.5257(2) 0.29359(9) 0.72721(18)
C4 C 0.48079(19) 0.22013(8) 0.71054(14)
C5 C 0.34398(18) 0.21276(8) 0.61676(13)
C6 C 0.20972(19) 0.24812(8) 0.60106(14)
C7 C 0.12033(18) 0.21838(8) 0.50082(14)
C8 C -0.03696(19) 0.23777(9) 0.44505(16)
C9 C -0.1491(2) 0.23513(12) 0.54168(18)
C10 C -0.0364(2) 0.30626(9) 0.38418(18)
C11 C 0.7323(2) 0.03034(12) 0.97056(16)
C12 C 0.8129(2) -0.06206(10) 0.8381(2)
C13 C 0.75957(19) 0.01032(9) 0.84073(14)
C14 C 0.61887(18) 0.02190(8) 0.75219(13)
C15 C 0.47462(18) -0.00892(8) 0.74921(14)
C16 C 0.38377(18) 0.02084(8) 0.65432(13)
C17 C 0.21693(18) 0.01184(8) 0.61041(16)
C18 C 0.11867(19) 0.05794(9) 0.68119(16)
C19 C 0.1690(2) -0.06108(9) 0.62286(19)
H1 H 0.3954 0.0874 0.4339
H2 H 0.5296 0.1332 0.4857
H3 H 0.3649 0.2105 0.8618
H4 H 0.4269 0.1424 0.8202
H5 H 0.5366 0.1932 0.8914
H6 H 0.6134 0.2977 0.7855
H7 H 0.5472 0.3117 0.6507
H8 H 0.4431 0.3173 0.7557
H9 H 0.5637 0.1970 0.6811
H10 H 0.1822 0.2852 0.6485
H11 H -0.0689 0.2059 0.3831
H12 H -0.1190 0.2670 0.6042
H13 H -0.2490 0.2454 0.5049
H14 H -0.1483 0.1916 0.5767
H15 H -0.0039 0.3388 0.4449
H16 H 0.0320 0.3059 0.3229
H17 H -0.1361 0.3171 0.3476
H18 H 0.8215 0.0229 1.0259
H19 H 0.7059 0.0765 0.9711
H20 H 0.6507 0.0044 0.9953
H21 H 0.7342 -0.0907 0.8599
H22 H 0.8355 -0.0726 0.7573
H23 H 0.9018 -0.0681 0.8944
H24 H 0.8383 0.0381 0.8162
H25 H 0.4457 -0.0433 0.8020
H26 H 0.2013 0.0238 0.5259
H27 H 0.1479 0.1032 0.6712
H28 H 0.0141 0.0525 0.6512
H29 H 0.1335 0.0464 0.7659
H30 H 0.0641 -0.0660 0.5935
H31 H 0.2285 -0.0890 0.5764
H32 H 0.1847 -0.0737 0.7070
loop_
_geom_bond_atom_site_label_1
_geom_bond_atom_site_label_2
_geom_bond_site_symmetry_1
_geom_bond_site_symmetry_2
N1 N2 1_555 1_555
N2 C1 1_555 1_555
N3 N4 1_555 1_555
N4 C1 1_555 1_555
C1 H1 1_555 1_555
C2 C4 1_555 1_555
C3 C4 1_555 1_555
C4 C5 1_555 1_555
C5 N2 1_555 1_555
C6 C5 1_555 1_555
C7 N1 1_555 1_555
C8 C7 1_555 1_555
C9 C8 1_555 1_555
C10 C8 1_555 1_555
C11 C13 1_555 1_555
C12 C13 1_555 1_555
C13 C14 1_555 1_555
C14 N3 1_555 1_555
C15 C14 1_555 1_555
C16 N4 1_555 1_555
C17 C16 1_555 1_555
C18 C17 1_555 1_555
C19 C17 1_555 1_555
H2 C1 1_555 1_555
H3 C2 1_555 1_555
H4 C2 1_555 1_555
H5 C2 1_555 1_555
H6 C3 1_555 1_555
H7 C3 1_555 1_555
H8 C3 1_555 1_555
H9 C4 1_555 1_555
H10 C6 1_555 1_555
H11 C8 1_555 1_555
H12 C9 1_555 1_555
H13 C9 1_555 1_555
H14 C9 1_555 1_555
H15 C10 1_555 1_555
H16 C10 1_555 1_555
H17 C10 1_555 1_555
H18 C11 1_555 1_555
H19 C11 1_555 1_555
H20 C11 1_555 1_555
H21 C12 1_555 1_555
H22 C12 1_555 1_555
H23 C12 1_555 1_555
H24 C13 1_555 1_555
H25 C15 1_555 1_555
H26 C17 1_555 1_555
H27 C18 1_555 1_555
H28 C18 1_555 1_555
H29 C18 1_555 1_555
H30 C19 1_555 1_555
H31 C19 1_555 1_555
H32 C19 1_555 1_555
C6 C7 1_555 1_555
C15 C16 1_555 1_555

#END
