
#######################################################################
#
#                 Cambridge Crystallographic Data Centre
#                                CCDC 
#
#######################################################################
#
# If this CIF has been generated from an entry in the Cambridge 
# Structural Database, then it will include bibliographic, chemical, 
# crystal, experimental, refinement or atomic coordinate data resulting 
# from the CCDC's data processing and validation procedures.
#
#######################################################################

data_MITKOP
_chemical_formula_moiety         '2(C19 H18 P1 1+),C29 H42 O2 2-,1.5(C2 H3 N1)'
_chemical_name_systematic        
"bis(Methyltriphenylphosphonium) 4,4'-methylene-bis(2,6-di-t-butylphenolate) acetonitrile solvate"
_symmetry_cell_setting           monoclinic
_symmetry_space_group_name_H-M   'P 21/c'
_symmetry_Int_Tables_number      14
_space_group_name_Hall           '-P 2ybc'
loop_
_symmetry_equiv_pos_site_id
_symmetry_equiv_pos_as_xyz
1 x,y,z
2 x,1/2-y,1/2+z
3 -x,-y,-z
4 -x,1/2+y,1/2-z
_cell_length_a                   37.233(7)
_cell_length_b                   19.987(4)
_cell_length_c                   17.011(3)
_cell_angle_alpha                90
_cell_angle_beta                 97.82(3)
_cell_angle_gamma                90
_cell_volume                     12541.5
_exptl_crystal_colour            red
_exptl_crystal_description       block
_chemical_melting_point          '139 deg.C'
_cell_formula_units_Z            8
loop_
_atom_site_label
_atom_site_type_symbol
_atom_site_fract_x
_atom_site_fract_y
_atom_site_fract_z
P1 P 0.253428(16) 0.34339(3) 0.65939(3)
C1 C 0.24616(7) 0.42996(11) 0.67935(14)
H1 H 0.2417 0.4352 0.7345
H2 H 0.2251 0.4463 0.6437
H3 H 0.2677 0.4558 0.6708
C2 C 0.21367(3) 0.29511(7) 0.67007(9)
C3 C 0.21691(3) 0.23359(7) 0.70850(9)
H4 H 0.2401 0.2178 0.7312
C4 C 0.18623(4) 0.19513(6) 0.71378(10)
H5 H 0.1884 0.1531 0.7400
C5 C 0.15230(3) 0.21818(7) 0.68064(11)
H6 H 0.1313 0.1919 0.6843
C6 C 0.14906(3) 0.27970(8) 0.64221(11)
H7 H 0.1259 0.2955 0.6196
C7 C 0.17974(4) 0.31816(6) 0.63693(10)
H8 H 0.1775 0.3602 0.6107
C8 C 0.26366(4) 0.33550(8) 0.55938(7)
C9 C 0.29679(4) 0.35926(9) 0.54211(8)
H9 H 0.3138 0.3777 0.5831
C10 C 0.30503(4) 0.35607(9) 0.46491(9)
H10 H 0.3277 0.3723 0.4531
C11 C 0.28013(5) 0.32911(9) 0.40498(7)
H11 H 0.2858 0.3269 0.3522
C12 C 0.24699(4) 0.30535(9) 0.42224(8)
H12 H 0.2300 0.2869 0.3813
C13 C 0.23876(3) 0.30854(9) 0.49944(9)
H13 H 0.2161 0.2923 0.5112
C14 C 0.29119(4) 0.31215(7) 0.72662(8)
C15 C 0.31278(4) 0.26082(7) 0.70393(7)
H14 H 0.3079 0.2423 0.6521
C16 C 0.34149(4) 0.23652(7) 0.75704(9)
H15 H 0.3562 0.2014 0.7415
C17 C 0.34862(4) 0.26357(8) 0.83284(8)
H16 H 0.3682 0.2470 0.8691
C18 C 0.32703(4) 0.31490(8) 0.85553(7)
H17 H 0.3319 0.3334 0.9073
C19 C 0.29832(4) 0.33919(7) 0.80242(8)
H18 H 0.2836 0.3743 0.8179
P2 P 0.506091(16) 0.66008(3) 1.46558(3)
C20 C 0.48563(6) 0.58574(11) 1.49766(14)
H19 H 0.4639 0.5976 1.5212
H20 H 0.5029 0.5627 1.5373
H21 H 0.4789 0.5562 1.4521
C21 C 0.52022(4) 0.71405(6) 1.54856(7)
C22 C 0.53539(4) 0.68552(5) 1.61994(8)
H22 H 0.5357 0.6383 1.6260
C23 C 0.55004(4) 0.72614(7) 1.68253(7)
H23 H 0.5604 0.7066 1.7313
C24 C 0.54952(5) 0.79529(7) 1.67373(8)
H24 H 0.5595 0.8231 1.7165
C25 C 0.53435(5) 0.82382(5) 1.60235(9)
H25 H 0.5340 0.8711 1.5963
C26 C 0.51970(5) 0.78320(6) 1.53976(7)
H26 H 0.5093 0.8027 1.4910
C27 C 0.54575(3) 0.63958(7) 1.42070(9)
C28 C 0.54874(3) 0.57825(6) 1.38361(9)
H27 H 0.5297 0.5463 1.3820
C29 C 0.57952(4) 0.56364(6) 1.34886(10)
H28 H 0.5816 0.5217 1.3235
C30 C 0.60730(3) 0.61035(8) 1.35120(10)
H29 H 0.6283 0.6004 1.3275
C31 C 0.60431(4) 0.67167(7) 1.38830(11)
H30 H 0.6233 0.7036 1.3899
C32 C 0.57353(4) 0.68629(6) 1.42305(10)
H31 H 0.5715 0.7282 1.4484
C33 C 0.47399(4) 0.70202(8) 1.39430(8)
C34 C 0.47761(4) 0.70043(8) 1.31406(9)
H32 H 0.4983 0.6801 1.2970
C35 C 0.45096(5) 0.72857(9) 1.25874(7)
H33 H 0.4534 0.7275 1.2039
C36 C 0.42070(4) 0.75831(9) 1.28366(10)
H34 H 0.4025 0.7775 1.2459
C37 C 0.41709(4) 0.75990(9) 1.36390(11)
H35 H 0.3964 0.7802 1.3809
C38 C 0.44373(4) 0.73176(8) 1.41922(8)
H36 H 0.4413 0.7328 1.4741
P3 P 0.232426(17) 0.68185(3) 0.79166(3)
C39 C 0.25134(6) 0.61124(11) 0.74850(13)
H37 H 0.2729 0.6250 0.7256
H38 H 0.2334 0.5925 0.7067
H39 H 0.2580 0.5773 0.7894
C40 C 0.26524(4) 0.71919(8) 0.86624(8)
C41 C 0.29413(5) 0.75514(9) 0.84371(9)
H40 H 0.2960 0.7615 0.7890
C42 C 0.32034(4) 0.78181(9) 0.90115(12)
H41 H 0.3401 0.8064 0.8858
C43 C 0.31766(5) 0.77255(10) 0.98113(11)
H42 H 0.3356 0.7908 1.0204
C44 C 0.28877(6) 0.73660(11) 1.00367(8)
H43 H 0.2869 0.7303 1.0583
C45 C 0.26256(4) 0.70992(9) 0.94622(9)
H44 H 0.2428 0.6854 0.9616
C46 C 0.19401(4) 0.65669(8) 0.83841(9)
C47 C 0.16719(5) 0.70309(6) 0.84838(10)
H45 H 0.1691 0.7477 0.8303
C48 C 0.13755(4) 0.68416(9) 0.88485(11)
H46 H 0.1192 0.7159 0.8917
C49 C 0.13473(4) 0.61882(10) 0.91135(10)
H47 H 0.1145 0.6059 0.9363
C50 C 0.16155(5) 0.57242(7) 0.90137(10)
H48 H 0.1596 0.5278 0.9195
C51 C 0.19119(4) 0.59135(7) 0.86490(10)
H49 H 0.2095 0.5596 0.8581
C52 C 0.21852(5) 0.74264(6) 0.71575(7)
C53 C 0.22233(5) 0.81088(7) 0.73027(7)
H50 H 0.2329 0.8263 0.7810
C54 C 0.21068(5) 0.85652(5) 0.67056(9)
H51 H 0.2133 0.9032 0.6805
C55 C 0.19523(5) 0.83392(7) 0.59633(8)
H52 H 0.1873 0.8651 0.5555
C56 C 0.19142(5) 0.76567(7) 0.58181(7)
H53 H 0.1809 0.7502 0.5311
C57 C 0.20307(5) 0.72003(5) 0.64153(8)
H54 H 0.2005 0.6734 0.6316
P4 P 0.007285(16) 0.33718(3) -0.03216(3)
C58 C -0.01180(6) 0.41222(10) 0.00160(13)
H55 H -0.0184 0.4424 -0.0435
H56 H 0.0060 0.4342 0.0409
H57 H -0.0335 0.4012 0.0259
C59 C -0.02639(4) 0.29613(7) -0.09974(8)
C60 C -0.05632(4) 0.26897(8) -0.07060(7)
H58 H -0.0577 0.2700 -0.0153
C61 C -0.08418(4) 0.24031(8) -0.12241(10)
H59 H -0.1046 0.2217 -0.1025
C62 C -0.08211(4) 0.23881(9) -0.20337(9)
H60 H -0.1011 0.2192 -0.2388
C63 C -0.05218(5) 0.26597(9) -0.23251(7)
H61 H -0.0508 0.2649 -0.2878
C64 C -0.02433(4) 0.29463(8) -0.18069(8)
H62 H -0.0039 0.3132 -0.2006
C65 C 0.04617(3) 0.35605(7) -0.08050(9)
C66 C 0.07432(4) 0.31003(6) -0.07747(10)
H63 H 0.0725 0.2682 -0.0519
C67 C 0.10511(4) 0.32530(7) -0.11187(11)
H64 H 0.1243 0.2938 -0.1098
C68 C 0.10775(3) 0.38657(7) -0.14931(10)
H65 H 0.1288 0.3970 -0.1728
C69 C 0.07960(4) 0.43258(6) -0.15234(9)
H66 H 0.0814 0.4745 -0.1779
C70 C 0.04881(3) 0.41732(6) -0.11794(9)
H67 H 0.0296 0.4488 -0.1200
C71 C 0.02139(4) 0.28253(6) 0.05005(7)
C72 C 0.01773(4) 0.21355(6) 0.04222(7)
H68 H 0.0064 0.1948 -0.0062
C73 C 0.03067(5) 0.17197(5) 0.10526(9)
H69 H 0.0282 0.1248 0.0999
C74 C 0.04726(4) 0.19936(6) 0.17612(7)
H70 H 0.0561 0.1709 0.2192
C75 C 0.05092(4) 0.26834(7) 0.18395(7)
H71 H 0.0623 0.2871 0.2324
C76 C 0.03799(4) 0.30992(5) 0.12092(8)
H72 H 0.0405 0.3571 0.1263
O1 O 0.19875(4) 0.56560(8) 0.59711(9)
O2 O 0.03334(4) 0.49388(7) 0.15369(9)
C77 C 0.18373(6) 0.52065(11) 0.54810(13)
C78 C 0.15124(6) 0.48593(11) 0.56239(13)
C79 C 0.13701(6) 0.43557(11) 0.51089(13)
H73 H 0.1156 0.4136 0.5214
C80 C 0.15266(6) 0.41577(10) 0.44460(13)
C81 C 0.18323(6) 0.45111(11) 0.42882(13)
H74 H 0.1941 0.4390 0.3834
C82 C 0.19862(6) 0.50321(11) 0.47628(13)
C83 C 0.13402(6) 0.36418(11) 0.38739(13)
H75 H 0.1215 0.3311 0.4174
H76 H 0.1525 0.3400 0.3617
C84 C 0.05639(6) 0.46524(10) 0.20822(12)
C85 C 0.04478(6) 0.43427(10) 0.27752(13)
C86 C 0.06986(6) 0.40023(10) 0.33144(13)
H77 H 0.0615 0.3790 0.3755
C87 C 0.10665(6) 0.39587(10) 0.32372(13)
C88 C 0.11811(6) 0.42887(10) 0.25932(13)
H78 H 0.1432 0.4278 0.2540
C89 C 0.09483(6) 0.46311(10) 0.20259(13)
C90 C 0.13214(6) 0.50577(12) 0.63367(14)
C91 C 0.15704(7) 0.49215(13) 0.71167(13)
H79 H 0.1624 0.4442 0.7162
H80 H 0.1449 0.5064 0.7565
H81 H 0.1797 0.5171 0.7120
C92 C 0.09688(7) 0.46660(13) 0.63650(15)
H82 H 0.1023 0.4186 0.6402
H83 H 0.0800 0.4755 0.5882
H84 H 0.0858 0.4807 0.6829
C93 C 0.12174(7) 0.58031(13) 0.62881(16)
H85 H 0.1111 0.5930 0.6763
H86 H 0.1040 0.5880 0.5816
H87 H 0.1434 0.6073 0.6254
C94 C 0.23014(6) 0.54518(12) 0.45172(14)
C95 C 0.26413(7) 0.54189(14) 0.51481(16)
H88 H 0.2831 0.5709 0.4988
H89 H 0.2730 0.4957 0.5196
H90 H 0.2579 0.5569 0.5661
C96 C 0.24141(7) 0.52243(13) 0.37231(15)
H91 H 0.2615 0.5502 0.3597
H92 H 0.2208 0.5271 0.3303
H93 H 0.2491 0.4755 0.3763
C97 C 0.21762(7) 0.61848(12) 0.44143(15)
H94 H 0.2376 0.6460 0.4277
H95 H 0.2102 0.6347 0.4911
H96 H 0.1971 0.6214 0.3989
C98 C 0.00531(6) 0.44365(11) 0.29322(13)
C99 C -0.00060(6) 0.51931(12) 0.30442(14)
H97 H 0.0062 0.5437 0.2587
H98 H 0.0144 0.5345 0.3529
H99 H -0.0262 0.5277 0.3088
C100 C -0.02206(6) 0.41587(12) 0.22550(14)
H100 H -0.0180 0.3677 0.2199
H101 H -0.0189 0.4386 0.1759
H102 H -0.0467 0.4235 0.2374
C101 C -0.00252(7) 0.40801(14) 0.36956(14)
H103 H 0.0013 0.3598 0.3644
H104 H -0.0277 0.4164 0.3777
H105 H 0.0139 0.4252 0.4150
C102 C 0.10986(6) 0.50048(11) 0.13495(13)
C103 C 0.15124(7) 0.49378(13) 0.13921(15)
H106 H 0.1576 0.4466 0.1337
H107 H 0.1630 0.5108 0.1904
H108 H 0.1595 0.5197 0.0962
C104 C 0.10119(7) 0.57580(11) 0.13956(14)
H109 H 0.0752 0.5817 0.1418
H110 H 0.1078 0.5985 0.0925
H111 H 0.1151 0.5950 0.1873
C105 C 0.09346(7) 0.47231(12) 0.05394(13)
H112 H 0.0670 0.4752 0.0487
H113 H 0.1007 0.4254 0.0499
H114 H 0.1022 0.4984 0.0116
O3 O 0.46806(4) 0.49199(8) 1.33874(9)
O4 O 0.27469(4) 0.50802(8) 0.88193(10)
C106 C 0.44705(6) 0.46402(10) 1.28006(13)
C107 C 0.40803(6) 0.46079(11) 1.27836(13)
C108 C 0.38704(6) 0.42718(11) 1.21644(13)
H115 H 0.3616 0.4253 1.2166
C109 C 0.40150(6) 0.39616(11) 1.15425(13)
C110 C 0.43869(6) 0.40115(11) 1.15475(13)
H116 H 0.4491 0.3808 1.1127
C111 C 0.46167(6) 0.43437(11) 1.21347(13)
C112 C 0.37804(7) 0.35905(12) 1.08813(14)
H117 H 0.3942 0.3373 1.0540
H118 H 0.3648 0.3232 1.1122
C113 C 0.29850(6) 0.47584(11) 0.93093(13)
C114 C 0.28767(6) 0.43287(11) 0.99183(14)
C115 C 0.31399(6) 0.39717(11) 1.04092(13)
H119 H 0.3063 0.3684 1.0798
C116 C 0.35074(6) 0.40143(11) 1.03608(13)
C117 C 0.36136(6) 0.44362(12) 0.97846(14)
H120 H 0.3865 0.4472 0.9744
C118 C 0.33703(6) 0.48088(11) 0.92641(13)
C119 C 0.39012(6) 0.49413(12) 1.34505(14)
C120 C 0.39900(7) 0.56980(12) 1.34920(16)
H121 H 0.3909 0.5890 1.3968
H122 H 0.3865 0.5922 1.3020
H123 H 0.4252 0.5761 1.3514
C121 C 0.40365(7) 0.46069(14) 1.42500(14)
H124 H 0.3927 0.4829 1.4673
H125 H 0.4301 0.4645 1.4359
H126 H 0.3967 0.4133 1.4228
C122 C 0.34846(7) 0.48750(14) 1.33210(16)
H127 H 0.3384 0.5089 1.3762
H128 H 0.3418 0.4400 1.3298
H129 H 0.3387 0.5093 1.2822
C123 C 0.50218(6) 0.44153(12) 1.20534(14)
C124 C 0.52636(6) 0.41274(12) 1.27788(14)
H130 H 0.5214 0.3649 1.2825
H131 H 0.5212 0.4359 1.3259
H132 H 0.5519 0.4191 1.2714
C125 C 0.51012(7) 0.51654(13) 1.19550(15)
H133 H 0.5362 0.5230 1.1950
H134 H 0.5024 0.5416 1.2398
H135 H 0.4968 0.5327 1.1454
C126 C 0.51268(7) 0.40458(15) 1.13241(15)
H136 H 0.5083 0.3565 1.1377
H137 H 0.5384 0.4122 1.1288
H138 H 0.4980 0.4215 1.0843
C127 C 0.24752(7) 0.42856(15) 1.00297(18)
C128 C 0.23546(10) 0.49843(18) 1.0283(2)
H139 H 0.2403 0.5316 0.9886
H140 H 0.2490 0.5102 1.0799
H141 H 0.2095 0.4977 1.0323
C129 C 0.22411(8) 0.40495(17) 0.9272(2)
H142 H 0.2315 0.3597 0.9140
H143 H 0.2273 0.4354 0.8835
H144 H 0.1986 0.4046 0.9355
C130 C 0.24085(9) 0.37897(19) 1.0690(2)
H145 H 0.2498 0.3346 1.0567
H146 H 0.2148 0.3764 1.0723
H147 H 0.2537 0.3944 1.1199
C131 C 0.35030(7) 0.52613(13) 0.86289(15)
C132 C 0.39169(7) 0.52381(18) 0.8650(2)
H148 H 0.3992 0.4780 0.8550
H149 H 0.4034 0.5384 0.9172
H150 H 0.3988 0.5536 0.8240
C133 C 0.33379(7) 0.50356(14) 0.77950(15)
H151 H 0.3073 0.5046 0.7753
H152 H 0.3418 0.4579 0.7700
H153 H 0.3418 0.5337 0.7399
C134 C 0.33990(7) 0.59921(13) 0.87698(16)
H154 H 0.3139 0.6019 0.8805
H155 H 0.3455 0.6270 0.8328
H156 H 0.3536 0.6153 0.9266
N1 N 0.08548(10) 0.68115(14) 0.42444(16)
C135 C 0.09462(8) 0.63062(13) 0.40518(16)
C136 C 0.10656(9) 0.56596(13) 0.37997(18)
H157 H 0.0928 0.5542 0.3286
H158 H 0.1026 0.5320 0.4194
H159 H 0.1324 0.5680 0.3748
N2 N 0.40443(10) 0.69371(17) 1.0628(2)
C137 C 0.40664(12) 0.6414(2) 1.0853(2)
C138 C 0.4089(3) 0.5739(3) 1.1157(4)
H160 H 0.4242 0.5471 1.0854
H161 H 0.3845 0.5544 1.1105
H162 H 0.4194 0.5745 1.1717
N3 N 0.33205(17) 0.6744(3) 1.1986(3)
C139 C 0.32547(17) 0.6302(3) 1.1538(3)
C140 C 0.3178(3) 0.5763(3) 1.0979(4)
H163 H 0.2915 0.5695 1.0869
H164 H 0.3293 0.5352 1.1203
H165 H 0.3272 0.5874 1.0485
loop_
_geom_bond_atom_site_label_1
_geom_bond_atom_site_label_2
_geom_bond_site_symmetry_1
_geom_bond_site_symmetry_2
P1 C1 1_555 1_555
C1 H1 1_555 1_555
H2 C1 1_555 1_555
H3 C1 1_555 1_555
C2 P1 1_555 1_555
C3 C2 1_555 1_555
H4 C3 1_555 1_555
C4 C3 1_555 1_555
H5 C4 1_555 1_555
C5 C4 1_555 1_555
H6 C5 1_555 1_555
C6 C5 1_555 1_555
H7 C6 1_555 1_555
C7 C2 1_555 1_555
H8 C7 1_555 1_555
C8 P1 1_555 1_555
C9 C8 1_555 1_555
H9 C9 1_555 1_555
C10 C9 1_555 1_555
H10 C10 1_555 1_555
C11 C10 1_555 1_555
H11 C11 1_555 1_555
C12 C11 1_555 1_555
H12 C12 1_555 1_555
C13 C8 1_555 1_555
H13 C13 1_555 1_555
C14 P1 1_555 1_555
C15 C14 1_555 1_555
H14 C15 1_555 1_555
C16 C15 1_555 1_555
H15 C16 1_555 1_555
C17 C16 1_555 1_555
H16 C17 1_555 1_555
C18 C17 1_555 1_555
H17 C18 1_555 1_555
C19 C14 1_555 1_555
H18 C19 1_555 1_555
P2 C20 1_555 1_555
C20 H19 1_555 1_555
H20 C20 1_555 1_555
H21 C20 1_555 1_555
C21 P2 1_555 1_555
C22 C21 1_555 1_555
H22 C22 1_555 1_555
C23 C22 1_555 1_555
H23 C23 1_555 1_555
C24 C23 1_555 1_555
H24 C24 1_555 1_555
C25 C24 1_555 1_555
H25 C25 1_555 1_555
C26 C21 1_555 1_555
H26 C26 1_555 1_555
C27 P2 1_555 1_555
C28 C27 1_555 1_555
H27 C28 1_555 1_555
C29 C28 1_555 1_555
H28 C29 1_555 1_555
C30 C29 1_555 1_555
H29 C30 1_555 1_555
C31 C30 1_555 1_555
H30 C31 1_555 1_555
C32 C27 1_555 1_555
H31 C32 1_555 1_555
C33 P2 1_555 1_555
C34 C33 1_555 1_555
H32 C34 1_555 1_555
C35 C34 1_555 1_555
H33 C35 1_555 1_555
C36 C35 1_555 1_555
H34 C36 1_555 1_555
C37 C36 1_555 1_555
H35 C37 1_555 1_555
C38 C33 1_555 1_555
H36 C38 1_555 1_555
P3 C39 1_555 1_555
C39 H37 1_555 1_555
H38 C39 1_555 1_555
H39 C39 1_555 1_555
C40 P3 1_555 1_555
C41 C40 1_555 1_555
H40 C41 1_555 1_555
C42 C41 1_555 1_555
H41 C42 1_555 1_555
C43 C42 1_555 1_555
H42 C43 1_555 1_555
C44 C43 1_555 1_555
H43 C44 1_555 1_555
C45 C40 1_555 1_555
H44 C45 1_555 1_555
C46 P3 1_555 1_555
C47 C46 1_555 1_555
H45 C47 1_555 1_555
C48 C47 1_555 1_555
H46 C48 1_555 1_555
C49 C48 1_555 1_555
H47 C49 1_555 1_555
C50 C49 1_555 1_555
H48 C50 1_555 1_555
C51 C46 1_555 1_555
H49 C51 1_555 1_555
C52 P3 1_555 1_555
C53 C52 1_555 1_555
H50 C53 1_555 1_555
C54 C53 1_555 1_555
H51 C54 1_555 1_555
C55 C54 1_555 1_555
H52 C55 1_555 1_555
C56 C55 1_555 1_555
H53 C56 1_555 1_555
C57 C52 1_555 1_555
H54 C57 1_555 1_555
P4 C58 1_555 1_555
C58 H55 1_555 1_555
H56 C58 1_555 1_555
H57 C58 1_555 1_555
C59 P4 1_555 1_555
C60 C59 1_555 1_555
H58 C60 1_555 1_555
C61 C60 1_555 1_555
H59 C61 1_555 1_555
C62 C61 1_555 1_555
H60 C62 1_555 1_555
C63 C62 1_555 1_555
H61 C63 1_555 1_555
C64 C59 1_555 1_555
H62 C64 1_555 1_555
C65 P4 1_555 1_555
C66 C65 1_555 1_555
H63 C66 1_555 1_555
C67 C66 1_555 1_555
H64 C67 1_555 1_555
C68 C67 1_555 1_555
H65 C68 1_555 1_555
C69 C68 1_555 1_555
H66 C69 1_555 1_555
C70 C65 1_555 1_555
H67 C70 1_555 1_555
C71 P4 1_555 1_555
C72 C71 1_555 1_555
H68 C72 1_555 1_555
C73 C72 1_555 1_555
H69 C73 1_555 1_555
C74 C73 1_555 1_555
H70 C74 1_555 1_555
C75 C74 1_555 1_555
H71 C75 1_555 1_555
C76 C71 1_555 1_555
H72 C76 1_555 1_555
O1 C77 1_555 1_555
O2 C84 1_555 1_555
C77 C78 1_555 1_555
C78 C79 1_555 1_555
C79 H73 1_555 1_555
C80 C79 1_555 1_555
C81 C80 1_555 1_555
H74 C81 1_555 1_555
C82 C77 1_555 1_555
C83 C80 1_555 1_555
H75 C83 1_555 1_555
H76 C83 1_555 1_555
C84 C85 1_555 1_555
C85 C86 1_555 1_555
C86 H77 1_555 1_555
C87 C83 1_555 1_555
C88 C87 1_555 1_555
H78 C88 1_555 1_555
C89 C84 1_555 1_555
C90 C78 1_555 1_555
C91 C90 1_555 1_555
H79 C91 1_555 1_555
H80 C91 1_555 1_555
H81 C91 1_555 1_555
C92 C90 1_555 1_555
H82 C92 1_555 1_555
H83 C92 1_555 1_555
H84 C92 1_555 1_555
C93 C90 1_555 1_555
H85 C93 1_555 1_555
H86 C93 1_555 1_555
H87 C93 1_555 1_555
C94 C82 1_555 1_555
C95 C94 1_555 1_555
H88 C95 1_555 1_555
H89 C95 1_555 1_555
H90 C95 1_555 1_555
C96 C94 1_555 1_555
H91 C96 1_555 1_555
H92 C96 1_555 1_555
H93 C96 1_555 1_555
C97 C94 1_555 1_555
H94 C97 1_555 1_555
H95 C97 1_555 1_555
H96 C97 1_555 1_555
C98 C85 1_555 1_555
C99 C98 1_555 1_555
H97 C99 1_555 1_555
H98 C99 1_555 1_555
H99 C99 1_555 1_555
C100 C98 1_555 1_555
H100 C100 1_555 1_555
H101 C100 1_555 1_555
H102 C100 1_555 1_555
C101 C98 1_555 1_555
H103 C101 1_555 1_555
H104 C101 1_555 1_555
H105 C101 1_555 1_555
C102 C89 1_555 1_555
C103 C102 1_555 1_555
H106 C103 1_555 1_555
H107 C103 1_555 1_555
H108 C103 1_555 1_555
C104 C102 1_555 1_555
H109 C104 1_555 1_555
H110 C104 1_555 1_555
H111 C104 1_555 1_555
C105 C102 1_555 1_555
H112 C105 1_555 1_555
H113 C105 1_555 1_555
H114 C105 1_555 1_555
O3 C106 1_555 1_555
O4 C113 1_555 1_555
C106 C107 1_555 1_555
C107 C108 1_555 1_555
C108 H115 1_555 1_555
C109 C108 1_555 1_555
C110 C109 1_555 1_555
H116 C110 1_555 1_555
C111 C106 1_555 1_555
C112 C109 1_555 1_555
H117 C112 1_555 1_555
H118 C112 1_555 1_555
C113 C114 1_555 1_555
C114 C115 1_555 1_555
C115 H119 1_555 1_555
C116 C112 1_555 1_555
C117 C116 1_555 1_555
H120 C117 1_555 1_555
C118 C113 1_555 1_555
C119 C107 1_555 1_555
C120 C119 1_555 1_555
H121 C120 1_555 1_555
H122 C120 1_555 1_555
H123 C120 1_555 1_555
C121 C119 1_555 1_555
H124 C121 1_555 1_555
H125 C121 1_555 1_555
H126 C121 1_555 1_555
C122 C119 1_555 1_555
H127 C122 1_555 1_555
H128 C122 1_555 1_555
H129 C122 1_555 1_555
C123 C111 1_555 1_555
C124 C123 1_555 1_555
H130 C124 1_555 1_555
H131 C124 1_555 1_555
H132 C124 1_555 1_555
C125 C123 1_555 1_555
H133 C125 1_555 1_555
H134 C125 1_555 1_555
H135 C125 1_555 1_555
C126 C123 1_555 1_555
H136 C126 1_555 1_555
H137 C126 1_555 1_555
H138 C126 1_555 1_555
C127 C114 1_555 1_555
C128 C127 1_555 1_555
H139 C128 1_555 1_555
H140 C128 1_555 1_555
H141 C128 1_555 1_555
C129 C127 1_555 1_555
H142 C129 1_555 1_555
H143 C129 1_555 1_555
H144 C129 1_555 1_555
C130 C127 1_555 1_555
H145 C130 1_555 1_555
H146 C130 1_555 1_555
H147 C130 1_555 1_555
C131 C118 1_555 1_555
C132 C131 1_555 1_555
H148 C132 1_555 1_555
H149 C132 1_555 1_555
H150 C132 1_555 1_555
C133 C131 1_555 1_555
H151 C133 1_555 1_555
H152 C133 1_555 1_555
H153 C133 1_555 1_555
C134 C131 1_555 1_555
H154 C134 1_555 1_555
H155 C134 1_555 1_555
H156 C134 1_555 1_555
N1 C135 1_555 1_555
C135 C136 1_555 1_555
C136 H157 1_555 1_555
H158 C136 1_555 1_555
H159 C136 1_555 1_555
N2 C137 1_555 1_555
C137 C138 1_555 1_555
C138 H160 1_555 1_555
H161 C138 1_555 1_555
H162 C138 1_555 1_555
N3 C139 1_555 1_555
C139 C140 1_555 1_555
C140 H163 1_555 1_555
H164 C140 1_555 1_555
H165 C140 1_555 1_555
C6 C7 1_555 1_555
C12 C13 1_555 1_555
C18 C19 1_555 1_555
C25 C26 1_555 1_555
C31 C32 1_555 1_555
C37 C38 1_555 1_555
C44 C45 1_555 1_555
C50 C51 1_555 1_555
C56 C57 1_555 1_555
C63 C64 1_555 1_555
C69 C70 1_555 1_555
C75 C76 1_555 1_555
C81 C82 1_555 1_555
C86 C87 1_555 1_555
C88 C89 1_555 1_555
C110 C111 1_555 1_555
C115 C116 1_555 1_555
C117 C118 1_555 1_555

#END
