
#######################################################################
#
#                 Cambridge Crystallographic Data Centre
#                                CCDC 
#
#######################################################################
#
# If this CIF has been generated from an entry in the Cambridge 
# Structural Database, then it will include bibliographic, chemical, 
# crystal, experimental, refinement or atomic coordinate data resulting 
# from the CCDC's data processing and validation procedures.
#
#######################################################################

data_MITLAC
_chemical_formula_moiety         '2(C20 H20 P1 1+),C29 H42 O2 2-,2(C2 H3 N1)'
_chemical_name_systematic        
"bis(Ethyltriphenylphosphonium) 4,4'-methylene-bis(2,6-di-t-butylphenolate) acetonitrile solvate"
_symmetry_cell_setting           orthorhombic
_symmetry_space_group_name_H-M   'P 21 21 21'
_symmetry_Int_Tables_number      19
_space_group_name_Hall           'P 2ac 2ab'
loop_
_symmetry_equiv_pos_site_id
_symmetry_equiv_pos_as_xyz
1 x,y,z
2 1/2-x,-y,1/2+z
3 -x,1/2+y,1/2-z
4 1/2+x,1/2-y,-z
_cell_length_a                   17.8957(2)
_cell_length_b                   18.6462(2)
_cell_length_c                   18.9466(2)
_cell_angle_alpha                90
_cell_angle_beta                 90
_cell_angle_gamma                90
_cell_volume                     6322.23
_exptl_crystal_colour            red
_exptl_crystal_description       block
_chemical_melting_point          162deg.C
_cell_formula_units_Z            4
loop_
_atom_site_label
_atom_site_type_symbol
_atom_site_fract_x
_atom_site_fract_y
_atom_site_fract_z
P1 P -0.5977(3) -0.4572(2) -0.1794(2)
C1 C -0.6871(2) -0.41323(19) -0.18801(18)
H1 H -0.7216(5) -0.4478(5) -0.2206(4)
H2 H -0.6794(5) -0.3635(4) -0.2171(4)
C2 C -0.7240(2) -0.4013(2) -0.11617(18)
H3 H -0.7730(5) -0.3687(5) -0.1232(4)
H4 H -0.7399(6) -0.4513(5) -0.0923(5)
H5 H -0.6876(5) -0.3734(6) -0.0802(4)
C3 C -0.56803(19) -0.48759(19) -0.26455(16)
C4 C -0.5939(2) -0.45193(19) -0.32525(17)
H6 H -0.6340(5) -0.4080(4) -0.3211(4)
C5 C -0.5677(2) -0.4733(2) -0.39127(17)
H7 H -0.5877(5) -0.4462(4) -0.4384(4)
C6 C -0.5158(2) -0.52931(19) -0.39664(18)
H8 H -0.4964(5) -0.5460(5) -0.4475(4)
C7 C -0.4899(2) -0.56476(19) -0.33643(18)
H9 H -0.4496(4) -0.6083(4) -0.3388(4)
C8 C -0.5160(2) -0.5439(2) -0.27006(17)
H10 H -0.4962(4) -0.5709(4) -0.2237(4)
C9 C -0.5283(2) -0.39777(17) -0.14481(17)
C10 C -0.5401(2) -0.32379(18) -0.14462(17)
H11 H -0.5929(5) -0.2988(4) -0.1632(4)
C11 C -0.4836(2) -0.27763(19) -0.12011(18)
H12 H -0.4934(5) -0.2204(5) -0.1209(5)
C12 C -0.4160(2) -0.3060(2) -0.09668(19)
H13 H -0.3732(5) -0.2707(5) -0.0786(5)
C13 C -0.4035(2) -0.3796(2) -0.09825(19)
H14 H -0.3498(5) -0.4018(5) -0.0825(4)
C14 C -0.4594(2) -0.42577(19) -0.12291(17)
H15 H -0.4480(4) -0.4826(4) -0.1245(4)
C15 C -0.6079(2) -0.53219(19) -0.12034(17)
C16 C -0.6477(2) -0.59252(19) -0.14319(18)
H16 H -0.6693(5) -0.5956(5) -0.1957(4)
C17 C -0.6616(2) -0.6482(2) -0.09601(18)
H17 H -0.6919(5) -0.6951(5) -0.1138(4)
C18 C -0.6359(2) -0.64459(19) -0.02656(18)
H18 H -0.6475(5) -0.6873(4) 0.0092(4)
C19 C -0.5969(2) -0.58378(19) -0.00397(17)
H19 H -0.5783(5) -0.5791(4) 0.0503(4)
C20 C -0.5839(2) -0.52730(19) -0.05043(17)
H20 H -0.5541(5) -0.4808(5) -0.0318(4)
P2 P -0.8689(2) -0.8454(2) -0.1962(2)
C21 C -0.8883(2) -0.76984(19) -0.13887(18)
H21 H -0.8756(4) -0.7209(4) -0.1697(4)
H22 H -0.8463(4) -0.7741(5) -0.0968(4)
C22 C -0.9669(2) -0.7708(2) -0.10766(19)
H23 H -0.9735(6) -0.7254(5) -0.0719(4)
H24 H -1.0106(5) -0.7675(6) -0.1471(5)
H25 H -0.9769(6) -0.8197(5) -0.0769(5)
C23 C -0.9073(2) -0.83297(19) -0.28265(17)
C24 C -0.8771(2) -0.8748(2) -0.33746(17)
H26 H -0.8352(5) -0.9139(4) -0.3270(4)
C25 C -0.9020(2) -0.8653(2) -0.40635(18)
H27 H -0.8784(5) -0.8975(5) -0.4473(5)
C26 C -0.9554(2) -0.8128(2) -0.42120(19)
H28 H -0.9731(5) -0.8039(5) -0.4750(5)
C27 C -0.9846(2) -0.7709(2) -0.36714(19)
H29 H -1.0251(5) -0.7303(5) -0.3792(5)
C28 C -0.9609(2) -0.7806(2) -0.29748(18)
H30 H -0.9822(5) -0.7463(5) -0.2564(4)
C29 C -0.7700(2) -0.85357(18) -0.20583(17)
C30 C -0.7360(2) -0.92137(19) -0.20336(19)
H31 H -0.7675(5) -0.9687(5) -0.1929(4)
C31 C -0.6588(2) -0.9267(2) -0.21288(19)
H32 H -0.6320(5) -0.9784(5) -0.2103(5)
C32 C -0.6161(2) -0.8646(2) -0.22420(18)
H33 H -0.5566(5) -0.8686(5) -0.2310(4)
C33 C -0.6512(2) -0.7974(2) -0.22767(18)
H34 H -0.6187(5) -0.7506(5) -0.2370(4)
C34 C -0.7285(2) -0.7916(2) -0.21924(18)
H35 H -0.7551(4) -0.7395(4) -0.2226(4)
C35 C -0.90494(19) -0.92489(18) -0.15557(16)
C36 C -0.9626(2) -0.96403(18) -0.18694(17)
H36 H -0.9857(5) -0.9477(4) -0.2373(4)
C37 C -0.9916(2) -1.0244(2) -0.15192(18)
H37 H -1.0376(5) -1.0535(4) -0.1754(4)
C38 C -0.9625(2) -1.04427(19) -0.08645(18)
H38 H -0.9842(5) -1.0910(5) -0.0593(4)
C39 C -0.9054(2) -1.0040(2) -0.05529(18)
H39 H -0.8825(5) -1.0199(4) -0.0038(4)
C40 C -0.8763(2) -0.94391(19) -0.08916(17)
H40 H -0.8320(5) -0.9140(5) -0.0643(4)
O1 O -0.6210(2) -0.1626(2) -0.2215(2)
C41 C -0.6741(2) -0.20515(19) -0.24178(17)
C42 C -0.67127(19) -0.23972(18) -0.31016(17)
C43 C -0.73056(19) -0.28412(18) -0.33126(17)
H41 H -0.7300(5) -0.3098(4) -0.3819(4)
C44 C -0.79296(19) -0.29674(18) -0.28862(17)
C45 C -0.7958(2) -0.26214(19) -0.22325(16)
H42 H -0.8459(5) -0.2707(4) -0.1910(4)
C46 C -0.73862(19) -0.21813(18) -0.19819(17)
C47 C -0.8547(2) -0.34664(18) -0.31151(17)
H43 H -0.8602(4) -0.3443(4) -0.3691(4)
H44 H -0.9071(5) -0.3280(4) -0.2905(4)
O2 O -0.8253(2) -0.6401(2) -0.23211(19)
C48 C -0.8304(2) -0.57288(19) -0.24957(16)
C49 C -0.8019(2) -0.54727(18) -0.31666(17)
C50 C -0.8100(2) -0.47477(18) -0.33445(17)
H45 H -0.7904(4) -0.4558(4) -0.3849(4)
C51 C -0.84481(19) -0.42486(18) -0.29035(16)
C52 C -0.87166(19) -0.44929(18) -0.22543(17)
H46 H -0.8991(4) -0.4111(4) -0.1917(4)
C53 C -0.86604(19) -0.52054(18) -0.20415(17)
C54 C -0.60599(19) -0.22370(19) -0.36003(17)
C55 C -0.6107(2) -0.2661(2) -0.42964(18)
H47 H -0.6597(5) -0.2525(5) -0.4605(4)
H48 H -0.5620(5) -0.2529(5) -0.4613(5)
H49 H -0.6109(6) -0.3245(5) -0.4212(5)
C56 C -0.6047(2) -0.1434(2) -0.37930(19)
H50 H -0.6522(5) -0.1306(5) -0.4134(5)
H51 H -0.6070(5) -0.1110(5) -0.3318(5)
H52 H -0.5532(5) -0.1305(5) -0.4087(5)
C57 C -0.5314(2) -0.2445(2) -0.32518(19)
H53 H -0.5303(6) -0.3023(5) -0.3142(5)
H54 H -0.4854(5) -0.2332(5) -0.3607(5)
H55 H -0.5244(5) -0.2168(5) -0.2757(5)
C58 C -0.7453(2) -0.17951(18) -0.12676(17)
C59 C -0.7460(2) -0.09800(19) -0.13835(19)
H56 H -0.7466(5) -0.0699(5) -0.0884(5)
H57 H -0.6965(5) -0.0816(5) -0.1687(4)
H58 H -0.7969(5) -0.0825(5) -0.1678(5)
C60 C -0.6794(2) -0.1983(2) -0.07741(19)
H59 H -0.6859(5) -0.1699(5) -0.0282(5)
H60 H -0.6789(5) -0.2550(5) -0.0649(5)
H61 H -0.6267(5) -0.1845(5) -0.1019(5)
C61 C -0.8172(2) -0.1979(2) -0.08659(19)
H62 H -0.8172(5) -0.1690(5) -0.0367(5)
H63 H -0.8674(5) -0.1811(5) -0.1171(5)
H64 H -0.8222(5) -0.2553(5) -0.0757(5)
C62 C -0.76808(19) -0.60010(18) -0.36936(16)
C63 C -0.6977(2) -0.6354(2) -0.33772(19)
H65 H -0.6752(5) -0.6748(5) -0.3732(5)
H66 H -0.6548(5) -0.5952(5) -0.3288(5)
H67 H -0.7117(5) -0.6617(5) -0.2880(4)
C64 C -0.8259(2) -0.6590(2) -0.38849(19)
H68 H -0.8019(5) -0.6971(5) -0.4245(5)
H69 H -0.8438(5) -0.6871(5) -0.3419(5)
H70 H -0.8736(5) -0.6343(5) -0.4145(5)
C65 C -0.7445(2) -0.5640(2) -0.43869(17)
H71 H -0.7194(5) -0.6033(5) -0.4733(4)
H72 H -0.7915(5) -0.5394(5) -0.4661(5)
H73 H -0.7029(5) -0.5228(5) -0.4303(4)
C66 C -0.9054(2) -0.54565(18) -0.13656(17)
C67 C -0.9384(2) -0.4836(2) -0.09303(19)
H74 H -0.8954(5) -0.4470(5) -0.0749(5)
H75 H -0.9796(5) -0.4531(5) -0.1230(5)
H76 H -0.9663(5) -0.5052(5) -0.0465(5)
C68 C -0.9727(2) -0.5929(2) -0.15888(18)
H77 H -1.0130(5) -0.5611(5) -0.1891(5)
H78 H -0.9542(5) -0.6372(5) -0.1914(5)
H79 H -1.0010(5) -0.6144(5) -0.1127(5)
C69 C -0.8523(2) -0.5875(2) -0.08709(18)
H80 H -0.8121(5) -0.5518(5) -0.0639(5)
H81 H -0.8825(5) -0.6116(5) -0.0438(5)
H82 H -0.8230(5) -0.6286(5) -0.1158(4)
N1 N -0.27270(16) -0.31672(16) -0.46973(15)
C70 C -0.3270(2) -0.3503(2) -0.46862(18)
C71 C -0.3953(3) -0.3926(3) -0.4669(2)
H83 H -0.4162(8) -0.3997(8) -0.5180(8)
H84 H -0.4342(9) -0.3681(8) -0.4338(8)
H85 H -0.3838(9) -0.4441(9) -0.4452(9)
N2 N -0.26245(19) -0.50076(17) -0.56747(15)
C72 C -0.2764(2) -0.4589(2) -0.61065(19)
C73 C -0.2935(3) -0.4068(2) -0.6659(2)
H86 H -0.3451(7) -0.4199(7) -0.6902(7)
H87 H -0.2519(7) -0.4091(7) -0.7055(7)
H88 H -0.2917(7) -0.3540(7) -0.6465(7)
loop_
_geom_bond_atom_site_label_1
_geom_bond_atom_site_label_2
_geom_bond_site_symmetry_1
_geom_bond_site_symmetry_2
P1 C1 1_555 1_555
C1 H1 1_555 1_555
H2 C1 1_555 1_555
C2 C1 1_555 1_555
H3 C2 1_555 1_555
H4 C2 1_555 1_555
H5 C2 1_555 1_555
C3 P1 1_555 1_555
C4 C3 1_555 1_555
H6 C4 1_555 1_555
C5 C4 1_555 1_555
H7 C5 1_555 1_555
C6 C5 1_555 1_555
H8 C6 1_555 1_555
C7 C6 1_555 1_555
H9 C7 1_555 1_555
C8 C3 1_555 1_555
H10 C8 1_555 1_555
C9 P1 1_555 1_555
C10 C9 1_555 1_555
H11 C10 1_555 1_555
C11 C10 1_555 1_555
H12 C11 1_555 1_555
C12 C11 1_555 1_555
H13 C12 1_555 1_555
C13 C12 1_555 1_555
H14 C13 1_555 1_555
C14 C9 1_555 1_555
H15 C14 1_555 1_555
C15 P1 1_555 1_555
C16 C15 1_555 1_555
H16 C16 1_555 1_555
C17 C16 1_555 1_555
H17 C17 1_555 1_555
C18 C17 1_555 1_555
H18 C18 1_555 1_555
C19 C18 1_555 1_555
H19 C19 1_555 1_555
C20 C15 1_555 1_555
H20 C20 1_555 1_555
P2 C21 1_555 1_555
C21 H21 1_555 1_555
H22 C21 1_555 1_555
C22 C21 1_555 1_555
H23 C22 1_555 1_555
H24 C22 1_555 1_555
H25 C22 1_555 1_555
C23 P2 1_555 1_555
C24 C23 1_555 1_555
H26 C24 1_555 1_555
C25 C24 1_555 1_555
H27 C25 1_555 1_555
C26 C25 1_555 1_555
H28 C26 1_555 1_555
C27 C26 1_555 1_555
H29 C27 1_555 1_555
C28 C23 1_555 1_555
H30 C28 1_555 1_555
C29 P2 1_555 1_555
C30 C29 1_555 1_555
H31 C30 1_555 1_555
C31 C30 1_555 1_555
H32 C31 1_555 1_555
C32 C31 1_555 1_555
H33 C32 1_555 1_555
C33 C32 1_555 1_555
H34 C33 1_555 1_555
C34 C29 1_555 1_555
H35 C34 1_555 1_555
C35 P2 1_555 1_555
C36 C35 1_555 1_555
H36 C36 1_555 1_555
C37 C36 1_555 1_555
H37 C37 1_555 1_555
C38 C37 1_555 1_555
H38 C38 1_555 1_555
C39 C38 1_555 1_555
H39 C39 1_555 1_555
C40 C35 1_555 1_555
H40 C40 1_555 1_555
O1 C41 1_555 1_555
C41 C42 1_555 1_555
C42 C43 1_555 1_555
C43 H41 1_555 1_555
C44 C43 1_555 1_555
C45 C44 1_555 1_555
H42 C45 1_555 1_555
C46 C41 1_555 1_555
C47 C44 1_555 1_555
H43 C47 1_555 1_555
H44 C47 1_555 1_555
O2 C48 1_555 1_555
C48 C49 1_555 1_555
C49 C50 1_555 1_555
C50 H45 1_555 1_555
C51 C47 1_555 1_555
C52 C51 1_555 1_555
H46 C52 1_555 1_555
C53 C48 1_555 1_555
C54 C42 1_555 1_555
C55 C54 1_555 1_555
H47 C55 1_555 1_555
H48 C55 1_555 1_555
H49 C55 1_555 1_555
C56 C54 1_555 1_555
H50 C56 1_555 1_555
H51 C56 1_555 1_555
H52 C56 1_555 1_555
C57 C54 1_555 1_555
H53 C57 1_555 1_555
H54 C57 1_555 1_555
H55 C57 1_555 1_555
C58 C46 1_555 1_555
C59 C58 1_555 1_555
H56 C59 1_555 1_555
H57 C59 1_555 1_555
H58 C59 1_555 1_555
C60 C58 1_555 1_555
H59 C60 1_555 1_555
H60 C60 1_555 1_555
H61 C60 1_555 1_555
C61 C58 1_555 1_555
H62 C61 1_555 1_555
H63 C61 1_555 1_555
H64 C61 1_555 1_555
C62 C49 1_555 1_555
C63 C62 1_555 1_555
H65 C63 1_555 1_555
H66 C63 1_555 1_555
H67 C63 1_555 1_555
C64 C62 1_555 1_555
H68 C64 1_555 1_555
H69 C64 1_555 1_555
H70 C64 1_555 1_555
C65 C62 1_555 1_555
H71 C65 1_555 1_555
H72 C65 1_555 1_555
H73 C65 1_555 1_555
C66 C53 1_555 1_555
C67 C66 1_555 1_555
H74 C67 1_555 1_555
H75 C67 1_555 1_555
H76 C67 1_555 1_555
C68 C66 1_555 1_555
H77 C68 1_555 1_555
H78 C68 1_555 1_555
H79 C68 1_555 1_555
C69 C66 1_555 1_555
H80 C69 1_555 1_555
H81 C69 1_555 1_555
H82 C69 1_555 1_555
N1 C70 1_555 1_555
C70 C71 1_555 1_555
C71 H83 1_555 1_555
H84 C71 1_555 1_555
H85 C71 1_555 1_555
N2 C72 1_555 1_555
C72 C73 1_555 1_555
C73 H86 1_555 1_555
H87 C73 1_555 1_555
H88 C73 1_555 1_555
C7 C8 1_555 1_555
C13 C14 1_555 1_555
C19 C20 1_555 1_555
C27 C28 1_555 1_555
C33 C34 1_555 1_555
C39 C40 1_555 1_555
C45 C46 1_555 1_555
C50 C51 1_555 1_555
C52 C53 1_555 1_555

#END
