
#######################################################################
#
#                 Cambridge Crystallographic Data Centre
#                                CCDC 
#
#######################################################################
#
# If this CIF has been generated from an entry in the Cambridge 
# Structural Database, then it will include bibliographic, chemical, 
# crystal, experimental, refinement or atomic coordinate data resulting 
# from the CCDC's data processing and validation procedures.
#
#######################################################################

data_MITLAC01
_chemical_formula_moiety         '2(C20 H20 P1 1+),C29 H42 O2 2-,2(C2 H3 N1)'
_chemical_name_systematic        
"bis(Ethyltriphenylphosphonium) 4,4'-methylene-bis(2,6-di-t-butylphenolate) acetonitrile solvate"
_symmetry_cell_setting           orthorhombic
_symmetry_space_group_name_H-M   'P 21 21 21'
_symmetry_Int_Tables_number      19
_space_group_name_Hall           'P 2ac 2ab'
loop_
_symmetry_equiv_pos_site_id
_symmetry_equiv_pos_as_xyz
1 x,y,z
2 1/2-x,-y,1/2+z
3 -x,1/2+y,1/2-z
4 1/2+x,1/2-y,-z
_cell_length_a                   18.048(2)
_cell_length_b                   18.776(2)
_cell_length_c                   19.106(3)
_cell_angle_alpha                90
_cell_angle_beta                 90
_cell_angle_gamma                90
_cell_volume                     6474.44
_exptl_crystal_colour            red
_exptl_crystal_description       block
_chemical_melting_point          '162 deg.C'
_cell_formula_units_Z            4
loop_
_atom_site_label
_atom_site_type_symbol
_atom_site_fract_x
_atom_site_fract_y
_atom_site_fract_z
P1 P -0.59750(2) -0.45642(2) -0.176803(18)
C1 C -0.68608(8) -0.41277(8) -0.18449(8)
H1 H -0.6795 -0.3665 -0.2086
H2 H -0.7195 -0.4425 -0.2134
C2 C -0.72184(9) -0.40006(9) -0.11296(8)
H3 H -0.7673 -0.3722 -0.1189
H4 H -0.6873 -0.3739 -0.0829
H5 H -0.7339 -0.4459 -0.0913
C3 C -0.60702(8) -0.53129(8) -0.11826(8)
C4 C -0.64591(9) -0.59151(9) -0.14127(9)
H6 H -0.6629 -0.5943 -0.1882
C5 C -0.65950(10) -0.64723(9) -0.09482(9)
H7 H -0.6857 -0.6882 -0.1102
C6 C -0.63481(9) -0.64302(9) -0.02589(8)
H8 H -0.6439 -0.6813 0.0054
C7 C -0.59689(9) -0.58286(9) -0.00264(8)
H9 H -0.5803 -0.5801 0.0445
C8 C -0.58346(8) -0.52684(8) -0.04866(8)
H10 H -0.5582 -0.4855 -0.0327
C9 C -0.52775(8) -0.39673(8) -0.14281(8)
C10 C -0.53927(9) -0.32314(9) -0.14294(8)
H11 H -0.5851 -0.3041 -0.1588
C11 C -0.48312(11) -0.27768(10) -0.11964(9)
H12 H -0.4907 -0.2276 -0.1196
C12 C -0.41622(10) -0.30575(10) -0.09649(9)
H13 H -0.3786 -0.2748 -0.0797
C13 C -0.40397(10) -0.37871(10) -0.09770(9)
H14 H -0.3577 -0.3973 -0.0825
C14 C -0.45905(9) -0.42476(9) -0.12108(8)
H15 H -0.4504 -0.4747 -0.1224
C15 C -0.56818(8) -0.48627(8) -0.26170(7)
C16 C -0.59339(8) -0.45076(8) -0.32186(8)
H16 H -0.6279 -0.4128 -0.3179
C17 C -0.56746(9) -0.47155(9) -0.38726(8)
H17 H -0.5846 -0.4478 -0.4281
C18 C -0.51644(9) -0.52704(9) -0.39324(8)
H18 H -0.4991 -0.5409 -0.4381
C19 C -0.49092(8) -0.56210(9) -0.33398(8)
H19 H -0.4560 -0.5997 -0.3383
C20 C -0.51669(8) -0.54207(9) -0.26812(8)
H20 H -0.4995 -0.5661 -0.2275
P2 P -0.86980(2) -0.84391(2) -0.195738(19)
C21 C -0.88761(8) -0.77028(8) -0.13740(8)
H21 H -0.8507 -0.7712 -0.0990
H22 H -0.8809 -0.7251 -0.1634
C22 C -0.96628(9) -0.77157(10) -0.10539(9)
H23 H -0.9726 -0.7304 -0.0744
H24 H -0.9730 -0.8156 -0.0785
H25 H -1.0032 -0.7695 -0.1430
C23 C -0.90884(9) -0.82927(9) -0.28124(8)
C24 C -0.88193(10) -0.87104(10) -0.33677(9)
H26 H -0.8460 -0.9070 -0.3281
C25 C -0.90792(12) -0.85972(12) -0.40430(10)
H27 H -0.8900 -0.8881 -0.4418
C26 C -0.95984(12) -0.80709(14) -0.41681(10)
H28 H -0.9771 -0.7991 -0.4631
C27 C -0.98671(11) -0.76616(13) -0.36259(12)
H29 H -1.0229 -0.7306 -0.3717
C28 C -0.96118(9) -0.77651(10) -0.29399(10)
H30 H -0.9794 -0.7479 -0.2568
C29 C -0.77123(8) -0.85321(8) -0.20681(8)
C30 C -0.73781(9) -0.92041(9) -0.20539(9)
H31 H -0.7669 -0.9619 -0.1981
C31 C -0.66129(9) -0.92578(10) -0.21483(10)
H32 H -0.6379 -0.9711 -0.2140
C32 C -0.61959(9) -0.86463(10) -0.22543(9)
H33 H -0.5675 -0.8683 -0.2314
C33 C -0.65320(9) -0.79797(10) -0.22749(9)
H34 H -0.6239 -0.7566 -0.2349
C34 C -0.72955(8) -0.79151(9) -0.21871(8)
H35 H -0.7528 -0.7462 -0.2208
C35 C -0.90609(8) -0.92408(8) -0.15708(8)
C36 C -0.96327(8) -0.96264(9) -0.18830(8)
H36 H -0.9824 -0.9483 -0.2324
C37 C -0.99226(9) -1.02245(9) -0.15454(9)
H37 H -1.0314 -1.0487 -0.1755
C38 C -0.96365(9) -1.04346(9) -0.09012(9)
H38 H -0.9829 -1.0845 -0.0675
C39 C -0.90688(10) -1.00461(9) -0.05853(9)
H39 H -0.8878 -1.0193 -0.0145
C40 C -0.87822(9) -0.94465(9) -0.09125(8)
H40 H -0.8401 -0.9177 -0.0694
O1 O -0.61989(6) -0.16345(7) -0.21915(6)
C41 C -0.67283(8) -0.20524(8) -0.23940(8)
C42 C -0.67123(8) -0.23950(8) -0.30749(8)
C43 C -0.73005(8) -0.28354(8) -0.32796(8)
H41 H -0.7279 -0.3059 -0.3725
C44 C -0.79195(8) -0.29601(8) -0.28538(8)
C45 C -0.79412(8) -0.26186(8) -0.22042(8)
H42 H -0.8364 -0.2689 -0.1916
C46 C -0.73725(8) -0.21784(8) -0.19566(8)
C47 C -0.60616(8) -0.22313(9) -0.35767(8)
C48 C -0.61202(10) -0.26458(11) -0.42705(9)
H43 H -0.6580 -0.2515 -0.4510
H44 H -0.6121 -0.3158 -0.4173
H45 H -0.5696 -0.2528 -0.4569
C49 C -0.60566(10) -0.14290(10) -0.37623(10)
H46 H -0.6485 -0.1319 -0.4059
H47 H -0.5599 -0.1313 -0.4014
H48 H -0.6083 -0.1147 -0.3331
C50 C -0.53167(9) -0.24393(11) -0.32325(10)
H49 H -0.5316 -0.2951 -0.3131
H50 H -0.5254 -0.2172 -0.2796
H51 H -0.4909 -0.2327 -0.3552
C51 C -0.74382(9) -0.17878(9) -0.12472(8)
C52 C -0.74511(10) -0.09766(9) -0.13740(10)
H52 H -0.7456 -0.0727 -0.0923
H53 H -0.7896 -0.0850 -0.1640
H54 H -0.7010 -0.0837 -0.1639
C53 C -0.67851(10) -0.19715(10) -0.07583(9)
H55 H -0.6833 -0.1702 -0.0322
H56 H -0.6317 -0.1847 -0.0988
H57 H -0.6791 -0.2483 -0.0655
C54 C -0.81538(10) -0.19771(10) -0.08500(10)
H58 H -0.8168 -0.1716 -0.0406
H59 H -0.8165 -0.2490 -0.0757
H60 H -0.8584 -0.1845 -0.1135
C55 C -0.85331(7) -0.34605(8) -0.30856(8)
H61 H -0.8571 -0.3438 -0.3602
H62 H -0.9007 -0.3284 -0.2892
O2 O -0.82611(6) -0.63888(6) -0.22920(6)
C56 C -0.83032(8) -0.57181(8) -0.24668(8)
C57 C -0.80237(7) -0.54591(8) -0.31331(7)
C58 C -0.81005(7) -0.47398(8) -0.33110(7)
H63 H -0.7913 -0.4584 -0.3749
C59 C -0.84415(7) -0.42385(8) -0.28727(8)
C60 C -0.87071(8) -0.44839(8) -0.22295(7)
H64 H -0.8936 -0.4152 -0.1923
C61 C -0.86530(8) -0.51949(8) -0.20139(7)
C62 C -0.76814(8) -0.59916(8) -0.36613(8)
C63 C -0.69885(9) -0.63426(9) -0.33431(8)
H65 H -0.6793 -0.6698 -0.3670
H66 H -0.7121 -0.6575 -0.2901
H67 H -0.6611 -0.5978 -0.3256
C64 C -0.82569(9) -0.65687(10) -0.38504(9)
H68 H -0.8032 -0.6915 -0.4171
H69 H -0.8685 -0.6345 -0.4077
H70 H -0.8419 -0.6812 -0.3423
C65 C -0.74426(9) -0.56301(9) -0.43491(8)
H71 H -0.7220 -0.5985 -0.4661
H72 H -0.7079 -0.5256 -0.4247
H73 H -0.7877 -0.5419 -0.4577
C66 C -0.90367(9) -0.54385(9) -0.13337(8)
C67 C -0.85017(10) -0.58551(9) -0.08509(9)
H74 H -0.8129 -0.5529 -0.0660
H75 H -0.8255 -0.6230 -0.1121
H76 H -0.8782 -0.6070 -0.0466
C68 C -0.97017(9) -0.59130(10) -0.15469(9)
H77 H -1.0069 -0.5624 -0.1795
H78 H -0.9928 -0.6119 -0.1127
H79 H -0.9529 -0.6297 -0.1854
C69 C -0.93468(12) -0.48179(10) -0.09019(10)
H80 H -0.8943 -0.4493 -0.0777
H81 H -0.9577 -0.5003 -0.0475
H82 H -0.9718 -0.4561 -0.1178
N1 N -0.27325(11) -0.31975(11) -0.46980(10)
C70 C -0.32726(12) -0.34876(14) -0.46828(10)
C71 C -0.39723(17) -0.3878(3) -0.46502(16)
H83 H -0.4197 -0.3894 -0.5117
H84 H -0.4310 -0.3638 -0.4325
H85 H -0.3879 -0.4365 -0.4487
N2 N -0.26662(18) -0.50006(15) -0.57597(16)
C72 C -0.30100(17) -0.40215(18) -0.66617(16)
H86 H -0.3495 -0.4128 -0.6867
H87 H -0.2635 -0.4008 -0.7033
H88 H -0.3029 -0.3558 -0.6426
C73 C -0.28185(16) -0.45687(15) -0.61587(13)
loop_
_geom_bond_atom_site_label_1
_geom_bond_atom_site_label_2
_geom_bond_site_symmetry_1
_geom_bond_site_symmetry_2
P1 C1 1_555 1_555
C1 H1 1_555 1_555
H2 C1 1_555 1_555
C2 C1 1_555 1_555
H3 C2 1_555 1_555
H4 C2 1_555 1_555
H5 C2 1_555 1_555
C3 P1 1_555 1_555
C4 C3 1_555 1_555
H6 C4 1_555 1_555
C5 C4 1_555 1_555
H7 C5 1_555 1_555
C6 C5 1_555 1_555
H8 C6 1_555 1_555
C7 C6 1_555 1_555
H9 C7 1_555 1_555
C8 C3 1_555 1_555
H10 C8 1_555 1_555
C9 P1 1_555 1_555
C10 C9 1_555 1_555
H11 C10 1_555 1_555
C11 C10 1_555 1_555
H12 C11 1_555 1_555
C12 C11 1_555 1_555
H13 C12 1_555 1_555
C13 C12 1_555 1_555
H14 C13 1_555 1_555
C14 C9 1_555 1_555
H15 C14 1_555 1_555
C15 P1 1_555 1_555
C16 C15 1_555 1_555
H16 C16 1_555 1_555
C17 C16 1_555 1_555
H17 C17 1_555 1_555
C18 C17 1_555 1_555
H18 C18 1_555 1_555
C19 C18 1_555 1_555
H19 C19 1_555 1_555
C20 C15 1_555 1_555
H20 C20 1_555 1_555
P2 C21 1_555 1_555
C21 H21 1_555 1_555
H22 C21 1_555 1_555
C22 C21 1_555 1_555
H23 C22 1_555 1_555
H24 C22 1_555 1_555
H25 C22 1_555 1_555
C23 P2 1_555 1_555
C24 C23 1_555 1_555
H26 C24 1_555 1_555
C25 C24 1_555 1_555
H27 C25 1_555 1_555
C26 C25 1_555 1_555
H28 C26 1_555 1_555
C27 C26 1_555 1_555
H29 C27 1_555 1_555
C28 C23 1_555 1_555
H30 C28 1_555 1_555
C29 P2 1_555 1_555
C30 C29 1_555 1_555
H31 C30 1_555 1_555
C31 C30 1_555 1_555
H32 C31 1_555 1_555
C32 C31 1_555 1_555
H33 C32 1_555 1_555
C33 C32 1_555 1_555
H34 C33 1_555 1_555
C34 C29 1_555 1_555
H35 C34 1_555 1_555
C35 P2 1_555 1_555
C36 C35 1_555 1_555
H36 C36 1_555 1_555
C37 C36 1_555 1_555
H37 C37 1_555 1_555
C38 C37 1_555 1_555
H38 C38 1_555 1_555
C39 C38 1_555 1_555
H39 C39 1_555 1_555
C40 C35 1_555 1_555
H40 C40 1_555 1_555
O1 C41 1_555 1_555
C41 C42 1_555 1_555
C42 C43 1_555 1_555
C43 H41 1_555 1_555
C44 C43 1_555 1_555
C45 C44 1_555 1_555
H42 C45 1_555 1_555
C46 C41 1_555 1_555
C47 C42 1_555 1_555
C48 C47 1_555 1_555
H43 C48 1_555 1_555
H44 C48 1_555 1_555
H45 C48 1_555 1_555
C49 C47 1_555 1_555
H46 C49 1_555 1_555
H47 C49 1_555 1_555
H48 C49 1_555 1_555
C50 C47 1_555 1_555
H49 C50 1_555 1_555
H50 C50 1_555 1_555
H51 C50 1_555 1_555
C51 C46 1_555 1_555
C52 C51 1_555 1_555
H52 C52 1_555 1_555
H53 C52 1_555 1_555
H54 C52 1_555 1_555
C53 C51 1_555 1_555
H55 C53 1_555 1_555
H56 C53 1_555 1_555
H57 C53 1_555 1_555
C54 C51 1_555 1_555
H58 C54 1_555 1_555
H59 C54 1_555 1_555
H60 C54 1_555 1_555
C55 C44 1_555 1_555
H61 C55 1_555 1_555
H62 C55 1_555 1_555
O2 C56 1_555 1_555
C56 C57 1_555 1_555
C57 C58 1_555 1_555
C58 H63 1_555 1_555
C59 C55 1_555 1_555
C60 C59 1_555 1_555
H64 C60 1_555 1_555
C61 C56 1_555 1_555
C62 C57 1_555 1_555
C63 C62 1_555 1_555
H65 C63 1_555 1_555
H66 C63 1_555 1_555
H67 C63 1_555 1_555
C64 C62 1_555 1_555
H68 C64 1_555 1_555
H69 C64 1_555 1_555
H70 C64 1_555 1_555
C65 C62 1_555 1_555
H71 C65 1_555 1_555
H72 C65 1_555 1_555
H73 C65 1_555 1_555
C66 C61 1_555 1_555
C67 C66 1_555 1_555
H74 C67 1_555 1_555
H75 C67 1_555 1_555
H76 C67 1_555 1_555
C68 C66 1_555 1_555
H77 C68 1_555 1_555
H78 C68 1_555 1_555
H79 C68 1_555 1_555
C69 C66 1_555 1_555
H80 C69 1_555 1_555
H81 C69 1_555 1_555
H82 C69 1_555 1_555
N1 C70 1_555 1_555
C70 C71 1_555 1_555
C71 H83 1_555 1_555
H84 C71 1_555 1_555
H85 C71 1_555 1_555
N2 C73 1_555 1_555
C72 H86 1_555 1_555
H87 C72 1_555 1_555
H88 C72 1_555 1_555
C73 C72 1_555 1_555
C7 C8 1_555 1_555
C13 C14 1_555 1_555
C19 C20 1_555 1_555
C27 C28 1_555 1_555
C33 C34 1_555 1_555
C39 C40 1_555 1_555
C45 C46 1_555 1_555
C58 C59 1_555 1_555
C60 C61 1_555 1_555

#END
