
#######################################################################
#
#                 Cambridge Crystallographic Data Centre
#                                CCDC 
#
#######################################################################
#
# If this CIF has been generated from an entry in the Cambridge 
# Structural Database, then it will include bibliographic, chemical, 
# crystal, experimental, refinement or atomic coordinate data resulting 
# from the CCDC's data processing and validation procedures.
#
#######################################################################

data_MIVLUA
_chemical_formula_moiety         'C52 H46 B1 P1'
_chemical_name_systematic        
(4-(8-(4-(dimesitylboryl)phenyl)-1-naphthyl)phenyl)(diphenyl)phosphine
_symmetry_cell_setting           monoclinic
_symmetry_space_group_name_H-M   'P 21/c'
_symmetry_Int_Tables_number      14
_space_group_name_Hall           '-P 2ybc'
loop_
_symmetry_equiv_pos_site_id
_symmetry_equiv_pos_as_xyz
1 x,y,z
2 -x,1/2+y,1/2-z
3 -x,-y,-z
4 x,1/2-y,1/2+z
_cell_length_a                   27.139(4)
_cell_length_b                   11.1890(19)
_cell_length_c                   13.706(2)
_cell_angle_alpha                90
_cell_angle_beta                 104.292(3)
_cell_angle_gamma                90
_cell_volume                     4033.13
_cell_formula_units_Z            4
loop_
_atom_site_label
_atom_site_type_symbol
_atom_site_fract_x
_atom_site_fract_y
_atom_site_fract_z
P1 P 0.35360(2) 0.91572(6) 0.37081(5)
B1 B 0.15285(9) 0.8570(3) 0.51134(19)
C1 C 0.36226(8) 0.9262(2) 0.50733(17)
C2 C 0.36503(8) 1.0344(2) 0.55807(17)
H1 H 0.3626 1.1071 0.5214
C3 C 0.37130(8) 1.0376(2) 0.66093(16)
H2 H 0.3716 1.1124 0.6939
C4 C 0.37720(8) 0.9320(2) 0.71737(17)
C5 C 0.37525(8) 0.8244(2) 0.66669(18)
H3 H 0.3794 0.7517 0.7036
C6 C 0.36723(8) 0.8211(2) 0.56246(18)
H4 H 0.3652 0.7463 0.5289
C7 C 0.19728(8) 0.9108(2) 0.59450(16)
C8 C 0.22899(8) 0.8379(2) 0.66688(16)
H5 H 0.2234 0.7540 0.6645
C9 C 0.26809(8) 0.8846(2) 0.74143(16)
H6 H 0.2895 0.8322 0.7879
C10 C 0.27660(8) 1.0068(2) 0.74950(16)
C11 C 0.24625(8) 1.0813(2) 0.67680(17)
H7 H 0.2520 1.1651 0.6791
C12 C 0.20787(8) 1.0328(2) 0.60166(17)
H8 H 0.1879 1.0849 0.5528
C13 C 0.38995(8) 0.9379(2) 0.82933(17)
C14 C 0.43462(9) 0.8851(2) 0.8804(2)
H9 H 0.4529 0.8371 0.8443
C15 C 0.45380(11) 0.9002(3) 0.9842(2)
H10 H 0.4835 0.8585 1.0183
C16 C 0.43004(11) 0.9742(3) 1.0358(2)
H11 H 0.4444 0.9875 1.1055
C17 C 0.38414(10) 1.0319(3) 0.98776(18)
C18 C 0.36071(12) 1.1137(3) 1.0402(2)
H12 H 0.3761 1.1303 1.1090
C19 C 0.31686(12) 1.1691(3) 0.9946(2)
H13 H 0.3029 1.2284 1.0296
C20 C 0.29197(10) 1.1388(2) 0.89534(19)
H14 H 0.2605 1.1762 0.8646
C21 C 0.31204(9) 1.0561(2) 0.84125(17)
C22 C 0.36153(9) 1.0080(2) 0.88362(17)
C23 C 0.40293(8) 1.0193(2) 0.35263(16)
C24 C 0.39785(9) 1.1429(2) 0.34233(17)
H15 H 0.3659 1.1790 0.3405
C25 C 0.43820(9) 1.2134(2) 0.33484(18)
H16 H 0.4340 1.2976 0.3292
C26 C 0.48438(10) 1.1637(3) 0.3354(2)
H17 H 0.5120 1.2129 0.3293
C27 C 0.49032(10) 1.0421(3) 0.3448(2)
H18 H 0.5223 1.0068 0.3457
C28 C 0.44981(10) 0.9706(3) 0.3532(2)
H19 H 0.4544 0.8865 0.3594
C29 C 0.29483(9) 0.9995(2) 0.32048(17)
C30 C 0.28120(10) 1.0203(3) 0.21729(19)
H20 H 0.3038 0.9971 0.1776
C31 C 0.23582(11) 1.0736(3) 0.1715(2)
H21 H 0.2274 1.0875 0.1009
C32 C 0.20250(10) 1.1069(3) 0.2277(2)
H22 H 0.1710 1.1436 0.1961
C33 C 0.21507(9) 1.0869(2) 0.3296(2)
H23 H 0.1921 1.1097 0.3684
C34 C 0.26086(9) 1.0337(2) 0.37646(19)
H24 H 0.2691 1.0205 0.4471
C35 C 0.14910(8) 0.7188(2) 0.48927(17)
C36 C 0.18882(9) 0.6560(2) 0.46182(18)
C37 C 0.18156(10) 0.5388(2) 0.4286(2)
H25 H 0.2080 0.4999 0.4065
C38 C 0.13744(11) 0.4766(3) 0.4265(2)
C39 C 0.09955(10) 0.5357(2) 0.4587(2)
H26 H 0.0695 0.4934 0.4612
C40 C 0.10417(8) 0.6558(2) 0.48785(17)
C41 C 0.06008(9) 0.7146(2) 0.5176(2)
H27 H 0.0350 0.6538 0.5236
H28 H 0.0442 0.7730 0.4661
H29 H 0.0723 0.7553 0.5824
C42 C 0.13121(14) 0.3487(3) 0.3918(3)
H30 H 0.1560 0.3304 0.3525
H31 H 0.0967 0.3367 0.3497
H32 H 0.1369 0.2958 0.4504
C43 C 0.23954(9) 0.7118(3) 0.4616(2)
H33 H 0.2592 0.6564 0.4306
H34 H 0.2583 0.7286 0.5310
H35 H 0.2340 0.7864 0.4230
C44 C 0.11171(8) 0.9426(2) 0.44535(17)
C45 C 0.10246(8) 0.9419(2) 0.33920(18)
C46 C 0.06761(9) 1.0207(3) 0.28189(19)
H36 H 0.0626 1.0201 0.2108
C47 C 0.03984(9) 1.1000(3) 0.3243(2)
C48 C 0.04793(9) 1.0985(2) 0.4283(2)
H37 H 0.0288 1.1513 0.4590
C49 C 0.08291(8) 1.0229(2) 0.48897(18)
C50 C 0.08728(10) 1.0281(3) 0.60115(19)
H38 H 0.0533 1.0241 0.6135
H39 H 0.1037 1.1031 0.6283
H40 H 0.1077 0.9605 0.6342
C51 C 0.13012(10) 0.8579(3) 0.28525(19)
H41 H 0.1255 0.8842 0.2154
H42 H 0.1164 0.7770 0.2861
H43 H 0.1664 0.8577 0.3191
C52 C 0.00252(11) 1.1857(3) 0.2596(3)
H44 H 0.0167 1.2160 0.2053
H45 H -0.0038 1.2527 0.3010
H46 H -0.0295 1.1439 0.2307
loop_
_geom_bond_atom_site_label_1
_geom_bond_atom_site_label_2
_geom_bond_site_symmetry_1
_geom_bond_site_symmetry_2
P1 C1 1_555 1_555
B1 C7 1_555 1_555
C1 C2 1_555 1_555
C2 H1 1_555 1_555
C3 C2 1_555 1_555
H2 C3 1_555 1_555
C4 C3 1_555 1_555
C5 C4 1_555 1_555
H3 C5 1_555 1_555
C6 C1 1_555 1_555
H4 C6 1_555 1_555
C7 C8 1_555 1_555
C8 H5 1_555 1_555
C9 C8 1_555 1_555
H6 C9 1_555 1_555
C10 C9 1_555 1_555
C11 C10 1_555 1_555
H7 C11 1_555 1_555
C12 C7 1_555 1_555
H8 C12 1_555 1_555
C13 C4 1_555 1_555
C14 C13 1_555 1_555
H9 C14 1_555 1_555
C15 C14 1_555 1_555
H10 C15 1_555 1_555
C16 C15 1_555 1_555
H11 C16 1_555 1_555
C17 C16 1_555 1_555
C18 C17 1_555 1_555
H12 C18 1_555 1_555
C19 C18 1_555 1_555
H13 C19 1_555 1_555
C20 C19 1_555 1_555
H14 C20 1_555 1_555
C21 C10 1_555 1_555
C22 C13 1_555 1_555
C23 P1 1_555 1_555
C24 C23 1_555 1_555
H15 C24 1_555 1_555
C25 C24 1_555 1_555
H16 C25 1_555 1_555
C26 C25 1_555 1_555
H17 C26 1_555 1_555
C27 C26 1_555 1_555
H18 C27 1_555 1_555
C28 C23 1_555 1_555
H19 C28 1_555 1_555
C29 P1 1_555 1_555
C30 C29 1_555 1_555
H20 C30 1_555 1_555
C31 C30 1_555 1_555
H21 C31 1_555 1_555
C32 C31 1_555 1_555
H22 C32 1_555 1_555
C33 C32 1_555 1_555
H23 C33 1_555 1_555
C34 C29 1_555 1_555
H24 C34 1_555 1_555
C35 B1 1_555 1_555
C36 C35 1_555 1_555
C37 C36 1_555 1_555
H25 C37 1_555 1_555
C38 C37 1_555 1_555
C39 C38 1_555 1_555
H26 C39 1_555 1_555
C40 C35 1_555 1_555
C41 C40 1_555 1_555
H27 C41 1_555 1_555
H28 C41 1_555 1_555
H29 C41 1_555 1_555
C42 C38 1_555 1_555
H30 C42 1_555 1_555
H31 C42 1_555 1_555
H32 C42 1_555 1_555
C43 C36 1_555 1_555
H33 C43 1_555 1_555
H34 C43 1_555 1_555
H35 C43 1_555 1_555
C44 B1 1_555 1_555
C45 C44 1_555 1_555
C46 C45 1_555 1_555
H36 C46 1_555 1_555
C47 C46 1_555 1_555
C48 C47 1_555 1_555
H37 C48 1_555 1_555
C49 C44 1_555 1_555
C50 C49 1_555 1_555
H38 C50 1_555 1_555
H39 C50 1_555 1_555
H40 C50 1_555 1_555
C51 C45 1_555 1_555
H41 C51 1_555 1_555
H42 C51 1_555 1_555
H43 C51 1_555 1_555
C52 C47 1_555 1_555
H44 C52 1_555 1_555
H45 C52 1_555 1_555
H46 C52 1_555 1_555
C5 C6 1_555 1_555
C11 C12 1_555 1_555
C17 C22 1_555 1_555
C20 C21 1_555 1_555
C21 C22 1_555 1_555
C27 C28 1_555 1_555
C33 C34 1_555 1_555
C39 C40 1_555 1_555
C48 C49 1_555 1_555

#END
