
#######################################################################
#
#                 Cambridge Crystallographic Data Centre
#                                CCDC 
#
#######################################################################
#
# If this CIF has been generated from an entry in the Cambridge 
# Structural Database, then it will include bibliographic, chemical, 
# crystal, experimental, refinement or atomic coordinate data resulting 
# from the CCDC's data processing and validation procedures.
#
#######################################################################

data_MIVPAI
_chemical_formula_moiety         'C21 H26 O1'
_chemical_name_systematic        
7,11,11-Trimethyl-5-(4-methylphenyl)-tricyclo[5.4.0.0^3,6^]undec-1-ene-4-one
_symmetry_cell_setting           monoclinic
_symmetry_space_group_name_H-M   'P 21/c'
_symmetry_Int_Tables_number      14
_space_group_name_Hall           '-P 2ybc'
loop_
_symmetry_equiv_pos_site_id
_symmetry_equiv_pos_as_xyz
1 x,y,z
2 x,1/2-y,1/2+z
3 -x,-y,-z
4 -x,1/2+y,1/2-z
_cell_length_a                   11.0125(4)
_cell_length_b                   14.2946(4)
_cell_length_c                   11.8980(4)
_cell_angle_alpha                90.00
_cell_angle_beta                 110.8180(10)
_cell_angle_gamma                90.00
_cell_volume                     1750.7
_exptl_crystal_colour            yellow
_exptl_crystal_description       rectangular
_chemical_melting_point          60-61deg.C
_cell_formula_units_Z            4
loop_
_atom_site_label
_atom_site_type_symbol
_atom_site_fract_x
_atom_site_fract_y
_atom_site_fract_z
O1 O 0.46635(15) 0.04126(11) 1.16235(14)
C1 C 0.36066(19) 0.22152(14) 0.86866(18)
H1 H 0.3908 0.1877 0.8171
C2 C 0.3645(2) 0.31872(15) 0.8676(2)
H2 H 0.3982 0.3488 0.8158
C3 C 0.31953(19) 0.37141(14) 0.9415(2)
C4 C 0.2707(2) 0.32434(14) 1.0171(2)
H3 H 0.2395 0.3585 1.0677
C5 C 0.2670(2) 0.22763(14) 1.0200(2)
H4 H 0.2337 0.1980 1.0724
C6 C 0.31225(16) 0.17439(12) 0.94582(17)
C7 C 0.31228(16) 0.06929(12) 0.95171(16)
H5 H 0.3508 0.0438 0.8955
C8 C 0.18634(17) 0.01327(12) 0.93985(16)
H6 H 0.1213 0.0516 0.9572
C9 C 0.12589(17) -0.05300(12) 0.83294(17)
C10 C 0.1201(2) -0.01356(14) 0.71156(17)
H7 H 0.0491 0.0308 0.6830
H8 H 0.2002 0.0196 0.7219
C11 C 0.1008(2) -0.09041(15) 0.61817(19)
H9 H 0.0180 -0.1210 0.6036
H10 H 0.0994 -0.0631 0.5431
C12 C 0.2093(2) -0.16201(15) 0.66094(19)
H11 H 0.2912 -0.1310 0.6722
H12 H 0.1958 -0.2088 0.5987
C13 C 0.21961(18) -0.21174(12) 0.77937(18)
C14 C 0.21664(16) -0.13744(11) 0.86961(17)
C15 C 0.28814(19) -0.13493(13) 0.98580(19)
H13 H 0.3477(17) -0.1785(13) 1.0257(18)
C16 C 0.26665(19) -0.04871(13) 1.04833(17)
H14 H 0.2299 -0.0582 1.1113
C17 C 0.37449(19) 0.02254(13) 1.07428(19)
C18 C 0.3223(3) 0.47756(15) 0.9389(3)
H15 H 0.3590 0.4979 0.8809
H16 H 0.3743 0.5006 1.0170
H17 H 0.2355 0.5013 0.9172
C19 C 0.1065(2) -0.28155(15) 0.7577(3)
H18 H 0.1099 -0.3280 0.7006
H19 H 0.0254 -0.2487 0.7269
H20 H 0.1141 -0.3114 0.8321
C20 C 0.3469(2) -0.26620(14) 0.8251(2)
H21 H 0.3470 -0.3128 0.7671
H22 H 0.3555 -0.2960 0.8999
H23 H 0.4183 -0.2241 0.8373
C21 C -0.01172(19) -0.07911(16) 0.8290(2)
H24 H -0.0672 -0.0252 0.8063
H25 H -0.0072 -0.1002 0.9070
H26 H -0.0463 -0.1281 0.7713
loop_
_geom_bond_atom_site_label_1
_geom_bond_atom_site_label_2
_geom_bond_site_symmetry_1
_geom_bond_site_symmetry_2
O1 C17 1_555 1_555
C1 H1 1_555 1_555
C2 C1 1_555 1_555
H2 C2 1_555 1_555
C3 C2 1_555 1_555
C4 C3 1_555 1_555
H3 C4 1_555 1_555
C5 C4 1_555 1_555
H4 C5 1_555 1_555
C6 C1 1_555 1_555
C7 C6 1_555 1_555
H5 C7 1_555 1_555
C8 C7 1_555 1_555
H6 C8 1_555 1_555
C9 C8 1_555 1_555
C10 C9 1_555 1_555
H7 C10 1_555 1_555
H8 C10 1_555 1_555
C11 C10 1_555 1_555
H9 C11 1_555 1_555
H10 C11 1_555 1_555
C12 C11 1_555 1_555
H11 C12 1_555 1_555
H12 C12 1_555 1_555
C13 C12 1_555 1_555
C14 C9 1_555 1_555
C15 C14 1_555 1_555
H13 C15 1_555 1_555
C16 C8 1_555 1_555
H14 C16 1_555 1_555
C17 C7 1_555 1_555
C18 C3 1_555 1_555
H15 C18 1_555 1_555
H16 C18 1_555 1_555
H17 C18 1_555 1_555
C19 C13 1_555 1_555
H18 C19 1_555 1_555
H19 C19 1_555 1_555
H20 C19 1_555 1_555
C20 C13 1_555 1_555
H21 C20 1_555 1_555
H22 C20 1_555 1_555
H23 C20 1_555 1_555
C21 C9 1_555 1_555
H24 C21 1_555 1_555
H25 C21 1_555 1_555
H26 C21 1_555 1_555
C5 C6 1_555 1_555
C13 C14 1_555 1_555
C15 C16 1_555 1_555
C16 C17 1_555 1_555

#END
