
#######################################################################
#
#                 Cambridge Crystallographic Data Centre
#                                CCDC 
#
#######################################################################
#
# If this CIF has been generated from an entry in the Cambridge 
# Structural Database, then it will include bibliographic, chemical, 
# crystal, experimental, refinement or atomic coordinate data resulting 
# from the CCDC's data processing and validation procedures.
#
#######################################################################

data_MIVRAK01
_chemical_formula_moiety         'C18 H12,C6 F6'
_chemical_name_systematic        'Triphenylene hexafluorobenzene'
_symmetry_cell_setting           monoclinic
_symmetry_space_group_name_H-M   'P 21/c'
_symmetry_Int_Tables_number      14
_space_group_name_Hall           '-P 2ybc'
loop_
_symmetry_equiv_pos_site_id
_symmetry_equiv_pos_as_xyz
1 x,y,z
2 x,1/2-y,1/2+z
3 -x,-y,-z
4 -x,1/2+y,1/2-z
_cell_length_a                   13.935(2)
_cell_length_b                   7.211(2)
_cell_length_c                   17.370(8)
_cell_angle_alpha                90
_cell_angle_beta                 92.55(1)
_cell_angle_gamma                90
_cell_volume                     1743.7
_exptl_crystal_colour            colorless
_exptl_crystal_description       needle
_cell_formula_units_Z            4
loop_
_atom_site_label
_atom_site_type_symbol
_atom_site_fract_x
_atom_site_fract_y
_atom_site_fract_z
C1 C 0.4390(5) 0.1688(9) 0.6058(4)
H1 H 0.4718 0.1809 0.5593
C2 C 0.4827(5) 0.2252(9) 0.6732(4)
H2 H 0.5456 0.2754 0.6728
C3 C 0.4375(5) 0.2113(9) 0.7427(4)
H3 H 0.4686 0.2516 0.7894
C4 C 0.3467(5) 0.1378(9) 0.7418(4)
H4 H 0.3147 0.1293 0.7888
C5 C 0.1533(5) -0.0269(9) 0.7433(4)
H5 H 0.1858 0.0053 0.7906
C6 C 0.0610(5) -0.0969(10) 0.7433(4)
H6 H 0.0300 -0.1104 0.7906
C7 C 0.0132(5) -0.1480(9) 0.6746(5)
H7 H -0.0501 -0.1970 0.6749
C8 C 0.0580(5) -0.1271(9) 0.6062(4)
H8 H 0.0248 -0.1605 0.5593
C9 C 0.1566(5) -0.0948(9) 0.4602(4)
H9 H 0.0936 -0.1449 0.4601
C10 C 0.2011(5) -0.0802(10) 0.3920(4)
H10 H 0.1684 -0.1159 0.3452
C11 C 0.2963(5) -0.0112(9) 0.3915(4)
H11 H 0.3289 -0.0034 0.3447
C12 C 0.3405(5) 0.0443(9) 0.4600(4)
H12 H 0.4037 0.0933 0.4594
C13 C 0.3450(4) 0.0919(8) 0.6035(4)
C14 C 0.2992(4) 0.0747(8) 0.6738(4)
C15 C 0.1996(4) -0.0025(8) 0.6736(4)
C16 C 0.1528(4) -0.0564(8) 0.6045(4)
C17 C 0.2017(4) -0.0376(8) 0.5313(4)
C18 C 0.2958(4) 0.0314(8) 0.5312(4)
C19 C 0.2068(5) 0.4535(9) 0.4988(4)
C20 C 0.2997(5) 0.5191(9) 0.4984(4)
C21 C 0.3458(4) 0.5805(9) 0.5658(4)
C22 C 0.3009(5) 0.5675(8) 0.6344(4)
C23 C 0.2086(5) 0.4981(8) 0.6353(4)
C24 C 0.1614(4) 0.4416(9) 0.5678(4)
F1 F 0.1610(3) 0.3997(5) 0.4336(2)
F2 F 0.3450(3) 0.5286(6) 0.4316(2)
F3 F 0.4366(3) 0.6444(5) 0.5652(2)
F4 F 0.3449(3) 0.6247(5) 0.7000(2)
F5 F 0.1648(3) 0.4829(6) 0.7021(2)
F6 F 0.0701(3) 0.3773(5) 0.5682(2)
loop_
_geom_bond_atom_site_label_1
_geom_bond_atom_site_label_2
_geom_bond_site_symmetry_1
_geom_bond_site_symmetry_2
C1 H1 1_555 1_555
C2 C1 1_555 1_555
H2 C2 1_555 1_555
C3 C2 1_555 1_555
H3 C3 1_555 1_555
C4 C3 1_555 1_555
H4 C4 1_555 1_555
C5 H5 1_555 1_555
C6 C5 1_555 1_555
H6 C6 1_555 1_555
C7 C6 1_555 1_555
H7 C7 1_555 1_555
C8 C7 1_555 1_555
H8 C8 1_555 1_555
C9 H9 1_555 1_555
C10 C9 1_555 1_555
H10 C10 1_555 1_555
C11 C10 1_555 1_555
H11 C11 1_555 1_555
C12 C11 1_555 1_555
H12 C12 1_555 1_555
C13 C1 1_555 1_555
C14 C4 1_555 1_555
C15 C5 1_555 1_555
C16 C8 1_555 1_555
C17 C9 1_555 1_555
C18 C12 1_555 1_555
C19 C20 1_555 1_555
C20 C21 1_555 1_555
C21 C22 1_555 1_555
C22 C23 1_555 1_555
C23 C24 1_555 1_555
C24 C19 1_555 1_555
F1 C19 1_555 1_555
F2 C20 1_555 1_555
F3 C21 1_555 1_555
F4 C22 1_555 1_555
F5 C23 1_555 1_555
F6 C24 1_555 1_555
C13 C14 1_555 1_555
C13 C18 1_555 1_555
C14 C15 1_555 1_555
C15 C16 1_555 1_555
C16 C17 1_555 1_555
C17 C18 1_555 1_555

#END
