
#######################################################################
#
#                 Cambridge Crystallographic Data Centre
#                                CCDC 
#
#######################################################################
#
# If this CIF has been generated from an entry in the Cambridge 
# Structural Database, then it will include bibliographic, chemical, 
# crystal, experimental, refinement or atomic coordinate data resulting 
# from the CCDC's data processing and validation procedures.
#
#######################################################################

data_MIVWIZ
_chemical_formula_moiety         'C18 H14 F3 N1 O2 S1'
_chemical_name_systematic        
1-((4-methylphenyl)sulfonyl)-2-phenyl-4-(trifluoromethyl)-1H-pyrrole
_symmetry_cell_setting           triclinic
_symmetry_space_group_name_H-M   'P -1'
_symmetry_Int_Tables_number      2
_space_group_name_Hall           '-P 1'
loop_
_symmetry_equiv_pos_site_id
_symmetry_equiv_pos_as_xyz
1 x,y,z
2 -x,-y,-z
_cell_length_a                   11.455(2)
_cell_length_b                   11.918(2)
_cell_length_c                   14.701(3)
_cell_angle_alpha                111.716(6)
_cell_angle_beta                 100.424(6)
_cell_angle_gamma                107.197(6)
_cell_volume                     1683.19
_exptl_crystal_colour            colorless
_exptl_crystal_description       block
_cell_formula_units_Z            4
loop_
_atom_site_label
_atom_site_type_symbol
_atom_site_fract_x
_atom_site_fract_y
_atom_site_fract_z
S1 S 0.24020(8) 0.19269(7) 0.18430(6)
F1 F 0.6180(2) 0.1276(2) 0.48253(19)
F2 F 0.4862(2) 0.1579(2) 0.56366(17)
F3 F 0.5996(2) 0.3138(2) 0.53959(18)
O1 O 0.1026(2) 0.1349(2) 0.15080(19)
O2 O 0.3093(2) 0.3318(2) 0.24068(18)
N1 N 0.2948(2) 0.1346(2) 0.2655(2)
C1 C 0.0196(3) -0.1269(3) 0.1445(3)
H1 H 0.0001 -0.0586 0.1888
C2 C -0.0795(4) -0.2382(3) 0.0640(3)
H2 H -0.1662 -0.2453 0.0521
C3 C -0.0525(4) -0.3384(4) 0.0011(3)
H3 H -0.1211 -0.4152 -0.0536
C4 C 0.0739(5) -0.3289(3) 0.0166(3)
H4 H 0.0920 -0.3984 -0.0275
C5 C 0.1746(4) -0.2156(3) 0.0979(3)
H5 H 0.2613 -0.2087 0.1095
C6 C 0.1480(3) -0.1137(3) 0.1615(3)
C7 C 0.2566(3) 0.0021(3) 0.2501(3)
C8 C 0.3405(3) 0.0044(3) 0.3298(3)
H6 H 0.3391 -0.0698 0.3405
C9 C 0.4305(3) 0.1362(3) 0.3946(2)
C10 C 0.4027(3) 0.2136(3) 0.3540(2)
H7 H 0.4487 0.3059 0.3811
C11 C 0.2949(3) 0.1318(3) 0.0795(3)
C12 C 0.2117(3) 0.0181(3) -0.0102(3)
H8 H 0.1257 -0.0279 -0.0150
C13 C 0.2570(4) -0.0266(3) -0.0926(3)
H9 H 0.2000 -0.1024 -0.1549
C14 C 0.3838(4) 0.0371(4) -0.0861(3)
C15 C 0.4639(4) 0.1514(4) 0.0049(3)
H10 H 0.5501 0.1976 0.0103
C16 C 0.4206(3) 0.1981(3) 0.0865(3)
H11 H 0.4766 0.2758 0.1477
C17 C 0.4323(5) -0.0145(4) -0.1759(3)
H12 H 0.5232 0.0422 -0.1574
H13 H 0.3806 -0.0148 -0.2370
H14 H 0.4244 -0.1043 -0.1915
C18 C 0.5339(3) 0.1846(3) 0.4932(3)
S2 S 0.74431(8) 0.54176(8) 0.44405(7)
O3 O 0.7886(2) 0.4391(2) 0.43033(19)
O4 O 0.6424(2) 0.5471(2) 0.48712(19)
F4 F 0.3886(3) 0.6228(3) 0.2067(2)
F5 F 0.5082(3) 0.6824(3) 0.1225(3)
F6 F 0.3863(2) 0.4821(3) 0.06649(19)
N2 N 0.6863(2) 0.5322(2) 0.3251(2)
C19 C 0.9828(3) 0.6220(3) 0.2647(3)
H15 H 0.9726 0.6974 0.2627
C20 C 1.1014(4) 0.6125(4) 0.2720(3)
H16 H 1.1721 0.6819 0.2753
C21 C 1.1181(4) 0.5037(4) 0.2745(3)
H17 H 1.2004 0.4989 0.2817
C22 C 1.0136(4) 0.4018(4) 0.2664(3)
H18 H 1.0232 0.3247 0.2651
C23 C 0.8949(4) 0.4107(3) 0.2600(3)
H19 H 0.8241 0.3402 0.2554
C24 C 0.8780(3) 0.5211(3) 0.2603(2)
C25 C 0.7524(3) 0.5346(3) 0.2526(2)
C26 C 0.6805(3) 0.5582(3) 0.1820(3)
H20 H 0.7003 0.5646 0.1236
C27 C 0.5712(3) 0.5717(3) 0.2106(3)
C28 C 0.5779(3) 0.5576(3) 0.2988(3)
H21 H 0.5185 0.5642 0.3360
C29 C 0.8767(3) 0.6952(3) 0.5085(2)
C30 C 0.8534(3) 0.8087(3) 0.5386(3)
H22 H 0.7673 0.8039 0.5258
C31 C 0.9574(4) 0.9297(3) 0.5878(3)
H23 H 0.9419 1.0080 0.6078
C32 C 1.0840(4) 0.9385(4) 0.6083(3)
C33 C 1.1035(4) 0.8234(4) 0.5780(3)
H24 H 1.1896 0.8283 0.5924
C34 C 1.0024(3) 0.7010(3) 0.5273(3)
H25 H 1.0182 0.6229 0.5060
C35 C 1.1970(4) 1.0716(4) 0.6639(3)
H26 H 1.2783 1.0591 0.6716
H27 H 1.1929 1.1211 0.7325
H28 H 1.1927 1.1207 0.6234
C36 C 0.4660(4) 0.5903(4) 0.1529(3)
loop_
_geom_bond_atom_site_label_1
_geom_bond_atom_site_label_2
_geom_bond_site_symmetry_1
_geom_bond_site_symmetry_2
S1 O1 1_555 1_555
F1 C18 1_555 1_555
F2 C18 1_555 1_555
F3 C18 1_555 1_555
O2 S1 1_555 1_555
N1 S1 1_555 1_555
C1 H1 1_555 1_555
C2 C1 1_555 1_555
H2 C2 1_555 1_555
C3 C2 1_555 1_555
H3 C3 1_555 1_555
C4 C3 1_555 1_555
H4 C4 1_555 1_555
C5 C4 1_555 1_555
H5 C5 1_555 1_555
C6 C1 1_555 1_555
C7 N1 1_555 1_555
C8 C7 1_555 1_555
H6 C8 1_555 1_555
C9 C8 1_555 1_555
C10 N1 1_555 1_555
H7 C10 1_555 1_555
C11 S1 1_555 1_555
C12 C11 1_555 1_555
H8 C12 1_555 1_555
C13 C12 1_555 1_555
H9 C13 1_555 1_555
C14 C13 1_555 1_555
C15 C14 1_555 1_555
H10 C15 1_555 1_555
C16 C11 1_555 1_555
H11 C16 1_555 1_555
C17 C14 1_555 1_555
H12 C17 1_555 1_555
H13 C17 1_555 1_555
H14 C17 1_555 1_555
C18 C9 1_555 1_555
S2 O3 1_555 1_555
O4 S2 1_555 1_555
F4 C36 1_555 1_555
F5 C36 1_555 1_555
F6 C36 1_555 1_555
N2 S2 1_555 1_555
C19 H15 1_555 1_555
C20 C19 1_555 1_555
H16 C20 1_555 1_555
C21 C20 1_555 1_555
H17 C21 1_555 1_555
C22 C21 1_555 1_555
H18 C22 1_555 1_555
C23 C22 1_555 1_555
H19 C23 1_555 1_555
C24 C19 1_555 1_555
C25 N2 1_555 1_555
C26 C25 1_555 1_555
H20 C26 1_555 1_555
C27 C26 1_555 1_555
C28 N2 1_555 1_555
H21 C28 1_555 1_555
C29 S2 1_555 1_555
C30 C29 1_555 1_555
H22 C30 1_555 1_555
C31 C30 1_555 1_555
H23 C31 1_555 1_555
C32 C31 1_555 1_555
C33 C32 1_555 1_555
H24 C33 1_555 1_555
C34 C29 1_555 1_555
H25 C34 1_555 1_555
C35 C32 1_555 1_555
H26 C35 1_555 1_555
H27 C35 1_555 1_555
H28 C35 1_555 1_555
C36 C27 1_555 1_555
C5 C6 1_555 1_555
C6 C7 1_555 1_555
C9 C10 1_555 1_555
C15 C16 1_555 1_555
C23 C24 1_555 1_555
C24 C25 1_555 1_555
C27 C28 1_555 1_555
C33 C34 1_555 1_555

#END
