
#######################################################################
#
#                 Cambridge Crystallographic Data Centre
#                                CCDC 
#
#######################################################################
#
# If this CIF has been generated from an entry in the Cambridge 
# Structural Database, then it will include bibliographic, chemical, 
# crystal, experimental, refinement or atomic coordinate data resulting 
# from the CCDC's data processing and validation procedures.
#
#######################################################################

data_MIWFUV
_chemical_formula_moiety         'C11 H10 F3 N1 O1'
_chemical_name_systematic        '5-phenyl-3-(trifluoromethyl)pyrrole 1-oxide'
_symmetry_cell_setting           monoclinic
_symmetry_space_group_name_H-M   'P 21/c'
_symmetry_Int_Tables_number      14
_space_group_name_Hall           '-P 2ybc'
loop_
_symmetry_equiv_pos_site_id
_symmetry_equiv_pos_as_xyz
1 x,y,z
2 -x,1/2+y,1/2-z
3 -x,-y,-z
4 x,1/2-y,1/2+z
_cell_length_a                   11.4761(16)
_cell_length_b                   10.7521(15)
_cell_length_c                   8.2871(12)
_cell_angle_alpha                90
_cell_angle_beta                 94.476(5)
_cell_angle_gamma                90
_cell_volume                     1019.44
_exptl_crystal_colour            colorless
_exptl_crystal_description       block
_cell_formula_units_Z            4
loop_
_atom_site_label
_atom_site_type_symbol
_atom_site_fract_x
_atom_site_fract_y
_atom_site_fract_z
O1 O 0.27010(13) 0.24351(14) 0.02453(19)
N1 N 0.26091(13) 0.33192(13) 0.12805(19)
F1 F -0.03019(10) 0.52786(14) 0.28462(19)
F2 F 0.09123(12) 0.62643(14) 0.15227(18)
F3 F 0.09736(12) 0.64603(13) 0.40739(19)
C1 C 0.14392(17) 0.3597(2) 0.1778(3)
H1 H 0.1081 0.2857 0.2190
H2 H 0.0940 0.3919 0.0876
C2 C 0.16341(15) 0.45666(17) 0.3094(2)
H3 H 0.1530 0.4172 0.4139
C3 C 0.29241(15) 0.49416(16) 0.3054(2)
H4 H 0.2990 0.5781 0.2642
H5 H 0.3322 0.4901 0.4130
C4 C 0.34320(15) 0.40307(15) 0.19583(19)
C5 C 0.46609(15) 0.39572(15) 0.16854(19)
C6 C 0.54301(15) 0.48128(17) 0.2475(2)
H6 H 0.5136 0.5409 0.3148
C7 C 0.66097(17) 0.47915(19) 0.2280(2)
H7 H 0.7103 0.5369 0.2816
C8 C 0.70574(18) 0.3914(2) 0.1291(2)
H8 H 0.7856 0.3889 0.1168
C9 C 0.63217(19) 0.30743(19) 0.0483(2)
H9 H 0.6626 0.2489 -0.0195
C10 C 0.51386(17) 0.30885(16) 0.0665(2)
H10 H 0.4653 0.2516 0.0106
C11 C 0.08188(17) 0.5628(2) 0.2889(3)
loop_
_geom_bond_atom_site_label_1
_geom_bond_atom_site_label_2
_geom_bond_site_symmetry_1
_geom_bond_site_symmetry_2
O1 N1 1_555 1_555
N1 C1 1_555 1_555
F1 C11 1_555 1_555
F2 C11 1_555 1_555
F3 C11 1_555 1_555
C1 H1 1_555 1_555
H2 C1 1_555 1_555
C2 C1 1_555 1_555
H3 C2 1_555 1_555
C3 C2 1_555 1_555
H4 C3 1_555 1_555
H5 C3 1_555 1_555
C4 N1 1_555 1_555
C5 C4 1_555 1_555
C6 C5 1_555 1_555
H6 C6 1_555 1_555
C7 C6 1_555 1_555
H7 C7 1_555 1_555
C8 C7 1_555 1_555
H8 C8 1_555 1_555
C9 C8 1_555 1_555
H9 C9 1_555 1_555
C10 C5 1_555 1_555
H10 C10 1_555 1_555
C11 C2 1_555 1_555
C3 C4 1_555 1_555
C9 C10 1_555 1_555

#END
