
#######################################################################
#
#                 Cambridge Crystallographic Data Centre
#                                CCDC 
#
#######################################################################
#
# If this CIF has been generated from an entry in the Cambridge 
# Structural Database, then it will include bibliographic, chemical, 
# crystal, experimental, refinement or atomic coordinate data resulting 
# from the CCDC's data processing and validation procedures.
#
#######################################################################

data_MIWJIN
_chemical_formula_moiety         'C17 H17 N1 O3 S1'
_chemical_name_systematic        
1,3-dimethyl-3-((phenylsulfonyl)methyl)-1,3-dihydro-2H-indol-2-one
_symmetry_cell_setting           orthorhombic
_symmetry_space_group_name_H-M   'P b c a'
_symmetry_Int_Tables_number      61
_space_group_name_Hall           '-P 2ac 2ab'
loop_
_symmetry_equiv_pos_site_id
_symmetry_equiv_pos_as_xyz
1 x,y,z
2 1/2-x,-y,1/2+z
3 -x,1/2+y,1/2-z
4 1/2+x,1/2-y,-z
5 -x,-y,-z
6 1/2+x,y,1/2-z
7 x,1/2-y,1/2+z
8 1/2-x,1/2+y,z
_cell_length_a                   7.4749(2)
_cell_length_b                   16.5165(5)
_cell_length_c                   25.1847(8)
_cell_angle_alpha                90
_cell_angle_beta                 90
_cell_angle_gamma                90
_cell_volume                     3109.28
_exptl_crystal_colour            colorless
_exptl_crystal_description       block
_cell_formula_units_Z            8
loop_
_atom_site_label
_atom_site_type_symbol
_atom_site_fract_x
_atom_site_fract_y
_atom_site_fract_z
N1 N 0.5739(2) 0.19550(9) 0.46369(5)
S1 S 0.28233(5) 0.14297(2) 0.334916(15)
O1 O 0.47437(18) 0.30933(7) 0.42099(5)
O2 O 0.16434(18) 0.16972(8) 0.29319(5)
O3 O 0.22376(17) 0.14983(9) 0.38879(5)
C1 C 0.2918(2) -0.01825(12) 0.35784(7)
H1 H 0.2414 -0.0047 0.3904
C2 C 0.3253(3) -0.09850(12) 0.34456(10)
H2 H 0.2970 -0.1393 0.3686
C3 C 0.3994(3) -0.11837(11) 0.29657(10)
H3 H 0.4201 -0.1724 0.2882
C4 C 0.4433(2) -0.05900(11) 0.26080(8)
H4 H 0.4950 -0.0728 0.2285
C5 C 0.4107(2) 0.02110(10) 0.27277(7)
H5 H 0.4391 0.0615 0.2485
C6 C 0.3355(2) 0.04084(9) 0.32121(6)
C7 C 0.4825(2) 0.19940(9) 0.32637(6)
H6 H 0.5419 0.1793 0.2947
H7 H 0.4495 0.2552 0.3195
C8 C 0.6188(2) 0.19914(9) 0.37151(6)
C9 C 0.5431(2) 0.24262(10) 0.42075(6)
C10 C 0.6506(2) 0.12128(11) 0.44910(7)
C11 C 0.6752(2) 0.11874(10) 0.39448(6)
C12 C 0.7535(3) 0.05177(11) 0.37163(8)
H8 H 0.7713 0.0493 0.3351
C13 C 0.8055(3) -0.01203(13) 0.40408(11)
H9 H 0.8574 -0.0578 0.3891
C14 C 0.7811(4) -0.00839(15) 0.45788(12)
H10 H 0.8176 -0.0516 0.4789
C15 C 0.7029(3) 0.05864(14) 0.48158(9)
H11 H 0.6865 0.0612 0.5181
C16 C 0.5256(3) 0.21836(15) 0.51766(7)
H12 H 0.4765 0.2721 0.5176
H13 H 0.6302 0.2170 0.5398
H14 H 0.4383 0.1811 0.5312
C17 C 0.7818(2) 0.24762(12) 0.35198(8)
H15 H 0.8317 0.2217 0.3213
H16 H 0.8702 0.2498 0.3796
H17 H 0.7452 0.3016 0.3429
loop_
_geom_bond_atom_site_label_1
_geom_bond_atom_site_label_2
_geom_bond_site_symmetry_1
_geom_bond_site_symmetry_2
N1 C9 1_555 1_555
S1 O2 1_555 1_555
O1 C9 1_555 1_555
O3 S1 1_555 1_555
C1 H1 1_555 1_555
C2 C1 1_555 1_555
H2 C2 1_555 1_555
C3 C2 1_555 1_555
H3 C3 1_555 1_555
C4 C3 1_555 1_555
H4 C4 1_555 1_555
C5 C4 1_555 1_555
H5 C5 1_555 1_555
C6 S1 1_555 1_555
C7 S1 1_555 1_555
H6 C7 1_555 1_555
H7 C7 1_555 1_555
C8 C7 1_555 1_555
C9 C8 1_555 1_555
C10 N1 1_555 1_555
C11 C8 1_555 1_555
C12 C11 1_555 1_555
H8 C12 1_555 1_555
C13 C12 1_555 1_555
H9 C13 1_555 1_555
C14 C13 1_555 1_555
H10 C14 1_555 1_555
C15 C10 1_555 1_555
H11 C15 1_555 1_555
C16 N1 1_555 1_555
H12 C16 1_555 1_555
H13 C16 1_555 1_555
H14 C16 1_555 1_555
C17 C8 1_555 1_555
H15 C17 1_555 1_555
H16 C17 1_555 1_555
H17 C17 1_555 1_555
C1 C6 1_555 1_555
C5 C6 1_555 1_555
C10 C11 1_555 1_555
C14 C15 1_555 1_555

#END
