
#######################################################################
#
#                 Cambridge Crystallographic Data Centre
#                                CCDC 
#
#######################################################################
#
# If this CIF has been generated from an entry in the Cambridge 
# Structural Database, then it will include bibliographic, chemical, 
# crystal, experimental, refinement or atomic coordinate data resulting 
# from the CCDC's data processing and validation procedures.
#
#######################################################################

data_MIWQUE
_chemical_formula_moiety         'C27 H34 O3 Si1'
_chemical_name_systematic        
6,7-Dibenzoyl-3-(t-butyl(dimethyl)siloxy)bicyclo(3.2.0)heptane
_symmetry_cell_setting           triclinic
_symmetry_space_group_name_H-M   'P -1'
_symmetry_Int_Tables_number      2
_space_group_name_Hall           '-P 1'
loop_
_symmetry_equiv_pos_site_id
_symmetry_equiv_pos_as_xyz
1 x,y,z
2 -x,-y,-z
_cell_length_a                   10.4365(1)
_cell_length_b                   12.1163(2)
_cell_length_c                   20.7037(3)
_cell_angle_alpha                92.475(1)
_cell_angle_beta                 95.407(1)
_cell_angle_gamma                107.727(1)
_cell_volume                     2475.47
_cell_formula_units_Z            4
loop_
_atom_site_label
_atom_site_type_symbol
_atom_site_fract_x
_atom_site_fract_y
_atom_site_fract_z
C1 C 0.4382(2) 0.6195(2) 0.6168(1)
C2 C 0.4190(2) 0.7201(2) 0.6575(1)
C3 C 0.4965(2) 0.7217(2) 0.7241(1)
C4 C 0.4359(2) 0.6239(2) 0.7680(1)
C5 C 0.5603(2) 0.5786(2) 0.7645(1)
C6 C 0.6098(2) 0.6665(2) 0.7119(1)
C7 C 0.5815(2) 0.6185(2) 0.6404(1)
O1 O 0.3392(1) 0.5134(1) 0.6292(1)
Si1 Si 0.2536(1) 0.4120(1) 0.5716(1)
C8 C 0.3655(2) 0.3340(2) 0.5403(1)
C9 C 0.1858(2) 0.4815(2) 0.5033(1)
C10 C 0.1140(2) 0.3125(2) 0.6122(1)
C11 C 0.1707(3) 0.2865(2) 0.6786(1)
C12 C 0.0515(3) 0.1973(2) 0.5703(1)
C13 C 0.0034(3) 0.3696(3) 0.6216(1)
C14 C 0.3989(2) 0.6578(2) 0.8331(1)
O2 O 0.3882(2) 0.7539(1) 0.8448(1)
C15 C 0.3652(2) 0.5670(2) 0.8812(1)
C16 C 0.3551(2) 0.6007(2) 0.9453(1)
C17 C 0.3246(3) 0.5182(2) 0.9907(1)
C18 C 0.3031(2) 0.4025(2) 0.9732(1)
C19 C 0.3114(2) 0.3680(2) 0.9096(1)
C20 C 0.3428(2) 0.4498(2) 0.8639(1)
C21 C 0.6637(2) 0.6098(2) 0.8238(1)
O3 O 0.6549(1) 0.6760(1) 0.8682(1)
C22 C 0.7816(2) 0.5640(2) 0.8259(1)
C23 C 0.8806(2) 0.5993(2) 0.8796(1)
C24 C 0.9873(2) 0.5543(2) 0.8857(1)
C25 C 0.9969(2) 0.4743(2) 0.8387(1)
C26 C 0.9020(2) 0.4405(2) 0.7848(1)
C27 C 0.7941(2) 0.4854(2) 0.7780(1)
H1 H 0.4307 0.6321 0.5713
H2 H 0.3247 0.7073 0.6613
H3 H 0.4545 0.7925 0.6385
H4 H 0.5294 0.7970 0.7473
H5 H 0.3577 0.5687 0.7441
H6 H 0.5368 0.4987 0.7484
H7 H 0.6999 0.7185 0.7234
H8 H 0.6470 0.6649 0.6150
H9 H 0.5856 0.5404 0.6374
H10 H 0.4352 0.3867 0.5196
H11 H 0.4061 0.3033 0.5760
H12 H 0.3133 0.2714 0.5095
H13 H 0.2598 0.5314 0.4837
H14 H 0.1303 0.4223 0.4713
H15 H 0.1326 0.5265 0.5195
H16 H 0.0988 0.2357 0.6990
H17 H 0.2387 0.2496 0.6730
H18 H 0.2100 0.3576 0.7055
H19 H -0.0195 0.1460 0.5910
H20 H 0.0150 0.2135 0.5288
H21 H 0.1201 0.1613 0.5643
H22 H -0.0676 0.3190 0.6427
H23 H 0.0419 0.4417 0.6477
H24 H -0.0331 0.3842 0.5797
H25 H 0.3702 0.6814 0.9577
H26 H 0.3171 0.5421 1.0346
H27 H 0.2832 0.3459 1.0048
H28 H 0.2956 0.2875 0.8968
H29 H 0.3494 0.4257 0.8198
H30 H 0.8722 0.6532 0.9130
H31 H 1.0558 0.5801 0.9222
H32 H 1.0700 0.4417 0.8436
H33 H 0.9111 0.3861 0.7519
H34 H 0.7278 0.4618 0.7405
C28 C 0.5643(2) 0.1466(2) 0.8864(1)
C29 C 0.5791(2) 0.2582(2) 0.8523(1)
C30 C 0.4955(2) 0.2188(2) 0.7860(1)
C31 C 0.5520(2) 0.1533(2) 0.7357(1)
C32 C 0.4292(2) 0.0417(2) 0.7377(1)
C33 C 0.3842(2) 0.1029(2) 0.7957(1)
C34 C 0.4193(2) 0.0702(2) 0.8646(1)
O4 O 0.6593(2) 0.0925(1) 0.8647(1)
Si2 Si 0.7756(1) 0.0621(1) 0.9139(1)
C35 C 0.8617(3) 0.1890(2) 0.9735(1)
C36 C 0.6920(3) -0.0663(2) 0.9575(1)
C37 C 0.8969(2) 0.0337(2) 0.8586(1)
C38 C 0.8211(3) -0.0586(2) 0.8041(1)
C39 C 0.9694(3) 0.1448(2) 0.8273(2)
C40 C 1.0024(3) -0.0098(4) 0.8972(2)
C41 C 0.5849(2) 0.2070(2) 0.6722(1)
O5 O 0.5873(2) 0.3069(1) 0.6649(1)
C42 C 0.6255(2) 0.1376(2) 0.6208(1)
C43 C 0.6367(2) 0.1776(2) 0.5588(1)
C44 C 0.6707(2) 0.1139(2) 0.5098(1)
C45 C 0.6949(2) 0.0105(2) 0.5219(1)
C46 C 0.6864(2) -0.0290(2) 0.5832(1)
C47 C 0.6512(2) 0.0338(2) 0.6324(1)
C48 C 0.3214(2) 0.0143(2) 0.6809(1)
O6 O 0.3296(1) 0.0779(1) 0.6360(1)
C49 C 0.1985(2) -0.0895(2) 0.6818(1)
C50 C 0.0966(2) -0.1134(2) 0.6300(1)
C51 C -0.0159(2) -0.2106(2) 0.6281(1)
C52 C -0.0282(2) -0.2848(2) 0.6776(1)
C53 C 0.0710(2) -0.2606(2) 0.7299(1)
C54 C 0.1846(2) -0.1636(2) 0.7324(1)
H35 H 0.5789 0.1628 0.9328
H36 H 0.6723 0.2961 0.8472
H37 H 0.5455 0.3110 0.8763
H38 H 0.4610 0.2769 0.7676
H39 H 0.6320 0.1407 0.7565
H40 H 0.4550 -0.0248 0.7499
H41 H 0.2935 0.1063 0.7874
H42 H 0.3575 0.0824 0.8936
H43 H 0.4152 -0.0101 0.8631
H44 H 0.7986 0.2023 1.0014
H45 H 0.9347 0.1733 0.9994
H46 H 0.8971 0.2567 0.9504
H47 H 0.6473 -0.1309 0.9264
H48 H 0.7587 -0.0856 0.9860
H49 H 0.6266 -0.0491 0.9825
H50 H 0.8839 -0.0724 0.7762
H51 H 0.7763 -0.1294 0.8227
H52 H 0.7552 -0.0322 0.7793
H53 H 1.0312 0.1293 0.7993
H54 H 0.9030 0.1704 0.8023
H55 H 1.0184 0.2043 0.8606
H56 H 1.0632 -0.0234 0.8680
H57 H 1.0525 0.0472 0.9315
H58 H 0.9579 -0.0810 0.9155
H59 H 0.6203 0.2496 0.5502
H60 H 0.6779 0.1421 0.4672
H61 H 0.7171 -0.0337 0.4874
H62 H 0.7036 -0.1007 0.5918
H63 H 0.6459 0.0064 0.6752
H64 H 0.1050 -0.0619 0.5956
H65 H -0.0856 -0.2270 0.5921
H66 H -0.1056 -0.3531 0.6754
H67 H 0.0610 -0.3111 0.7649
H68 H 0.2540 -0.1465 0.7686
loop_
_geom_bond_atom_site_label_1
_geom_bond_atom_site_label_2
_geom_bond_site_symmetry_1
_geom_bond_site_symmetry_2
C1 C2 1_555 1_555
C2 C3 1_555 1_555
C3 C4 1_555 1_555
C4 C5 1_555 1_555
C5 C6 1_555 1_555
C6 C3 1_555 1_555
C7 C1 1_555 1_555
O1 C1 1_555 1_555
Si1 O1 1_555 1_555
C8 Si1 1_555 1_555
C9 Si1 1_555 1_555
C10 Si1 1_555 1_555
C11 C10 1_555 1_555
C12 C10 1_555 1_555
C13 C10 1_555 1_555
C14 C4 1_555 1_555
O2 C14 1_555 1_555
C15 C14 1_555 1_555
C16 C15 1_555 1_555
C17 C16 1_555 1_555
C18 C17 1_555 1_555
C19 C18 1_555 1_555
C20 C15 1_555 1_555
C21 C5 1_555 1_555
O3 C21 1_555 1_555
C22 C21 1_555 1_555
C23 C22 1_555 1_555
C24 C23 1_555 1_555
C25 C24 1_555 1_555
C26 C25 1_555 1_555
C27 C22 1_555 1_555
C28 C29 1_555 1_555
C29 C30 1_555 1_555
C30 C31 1_555 1_555
C31 C32 1_555 1_555
C32 C33 1_555 1_555
C33 C30 1_555 1_555
C34 C28 1_555 1_555
O4 C28 1_555 1_555
Si2 O4 1_555 1_555
C35 Si2 1_555 1_555
C36 Si2 1_555 1_555
C37 Si2 1_555 1_555
C38 C37 1_555 1_555
C39 C37 1_555 1_555
C40 C37 1_555 1_555
C41 C31 1_555 1_555
O5 C41 1_555 1_555
C42 C41 1_555 1_555
C43 C42 1_555 1_555
C44 C43 1_555 1_555
C45 C44 1_555 1_555
C46 C45 1_555 1_555
C47 C42 1_555 1_555
C48 C32 1_555 1_555
O6 C48 1_555 1_555
C49 C48 1_555 1_555
C50 C49 1_555 1_555
C51 C50 1_555 1_555
C52 C51 1_555 1_555
C53 C52 1_555 1_555
C54 C49 1_555 1_555
H1 C1 1_555 1_555
H2 C2 1_555 1_555
H3 C2 1_555 1_555
H4 C3 1_555 1_555
H5 C4 1_555 1_555
H6 C5 1_555 1_555
H7 C6 1_555 1_555
H8 C7 1_555 1_555
H9 C7 1_555 1_555
H10 C8 1_555 1_555
H11 C8 1_555 1_555
H12 C8 1_555 1_555
H13 C9 1_555 1_555
H14 C9 1_555 1_555
H15 C9 1_555 1_555
H16 C11 1_555 1_555
H17 C11 1_555 1_555
H18 C11 1_555 1_555
H19 C12 1_555 1_555
H20 C12 1_555 1_555
H21 C12 1_555 1_555
H22 C13 1_555 1_555
H23 C13 1_555 1_555
H24 C13 1_555 1_555
H25 C16 1_555 1_555
H26 C17 1_555 1_555
H27 C18 1_555 1_555
H28 C19 1_555 1_555
H29 C20 1_555 1_555
H30 C23 1_555 1_555
H31 C24 1_555 1_555
H32 C25 1_555 1_555
H33 C26 1_555 1_555
H34 C27 1_555 1_555
H35 C28 1_555 1_555
H36 C29 1_555 1_555
H37 C29 1_555 1_555
H38 C30 1_555 1_555
H39 C31 1_555 1_555
H40 C32 1_555 1_555
H41 C33 1_555 1_555
H42 C34 1_555 1_555
H43 C34 1_555 1_555
H44 C35 1_555 1_555
H45 C35 1_555 1_555
H46 C35 1_555 1_555
H47 C36 1_555 1_555
H48 C36 1_555 1_555
H49 C36 1_555 1_555
H50 C38 1_555 1_555
H51 C38 1_555 1_555
H52 C38 1_555 1_555
H53 C39 1_555 1_555
H54 C39 1_555 1_555
H55 C39 1_555 1_555
H56 C40 1_555 1_555
H57 C40 1_555 1_555
H58 C40 1_555 1_555
H59 C43 1_555 1_555
H60 C44 1_555 1_555
H61 C45 1_555 1_555
H62 C46 1_555 1_555
H63 C47 1_555 1_555
H64 C50 1_555 1_555
H65 C51 1_555 1_555
H66 C52 1_555 1_555
H67 C53 1_555 1_555
H68 C54 1_555 1_555
C6 C7 1_555 1_555
C19 C20 1_555 1_555
C26 C27 1_555 1_555
C33 C34 1_555 1_555
C46 C47 1_555 1_555
C53 C54 1_555 1_555

#END
