
#######################################################################
#
#                 Cambridge Crystallographic Data Centre
#                                CCDC 
#
#######################################################################
#
# If this CIF has been generated from an entry in the Cambridge 
# Structural Database, then it will include bibliographic, chemical, 
# crystal, experimental, refinement or atomic coordinate data resulting 
# from the CCDC's data processing and validation procedures.
#
#######################################################################

data_MIWQIS
_chemical_formula_moiety         'C21 H20 O2'
_chemical_name_systematic        cis-6,7-Dibenzoylbicyclo(3.2.0)heptane
_symmetry_cell_setting           triclinic
_symmetry_space_group_name_H-M   'P -1'
_symmetry_Int_Tables_number      2
_space_group_name_Hall           '-P 1'
loop_
_symmetry_equiv_pos_site_id
_symmetry_equiv_pos_as_xyz
1 x,y,z
2 -x,-y,-z
_cell_length_a                   9.1952(2)
_cell_length_b                   9.5194(2)
_cell_length_c                   10.3566(2)
_cell_angle_alpha                71.637(1)
_cell_angle_beta                 85.462(1)
_cell_angle_gamma                67.385(1)
_cell_volume                     793.311
_cell_formula_units_Z            2
loop_
_atom_site_label
_atom_site_type_symbol
_atom_site_fract_x
_atom_site_fract_y
_atom_site_fract_z
C1 C 0.3762(1) 0.3250(1) 0.1728(1)
C2 C 0.4808(1) 0.3083(1) 0.2930(1)
C3 C 0.6285(1) 0.2037(2) 0.2355(1)
C4 C 0.7062(2) 0.0301(2) 0.3226(2)
C5 C 0.5921(2) -0.0461(2) 0.3083(1)
C6 C 0.5351(2) 0.0321(2) 0.1585(1)
C7 C 0.5238(1) 0.2047(2) 0.1233(1)
C8 C 0.2354(1) 0.2780(1) 0.2063(1)
O1 O 0.1996(1) 0.2327(1) 0.3241(1)
C9 C 0.1464(1) 0.2790(1) 0.0910(1)
C10 C 0.0323(1) 0.2117(2) 0.1199(1)
C11 C -0.0449(2) 0.2012(2) 0.0160(1)
C12 C -0.0108(2) 0.2600(2) -0.1182(1)
C13 C 0.0992(2) 0.3302(2) -0.1483(1)
C14 C 0.1785(2) 0.3393(2) -0.0442(1)
C15 C 0.4806(1) 0.4666(2) 0.2931(1)
O2 O 0.5797(1) 0.5154(1) 0.2336(1)
C16 C 0.3520(1) 0.5696(1) 0.3598(1)
C17 C 0.3431(2) 0.7249(2) 0.3398(1)
C18 C 0.2260(2) 0.8265(2) 0.3974(1)
C19 C 0.1164(2) 0.7749(2) 0.4755(1)
C20 C 0.1233(2) 0.6218(2) 0.4955(1)
C21 C 0.2406(1) 0.5190(2) 0.4377(1)
H1 H 0.3415(15) 0.4309(16) 0.1067(14)
H2 H 0.4487(14) 0.2498(14) 0.3830(13)
H3 H 0.7013(15) 0.2573(15) 0.2045(13)
H4 H 0.8074(17) -0.0199(17) 0.2830(14)
H5 H 0.7248(16) 0.0201(16) 0.4172(15)
H6 H 0.5022(16) -0.0184(15) 0.3672(13)
H7 H 0.6424(16) -0.1656(17) 0.3333(13)
H8 H 0.6178(16) -0.0217(16) 0.1011(14)
H9 H 0.4332(17) 0.0228(16) 0.1401(14)
H10 H 0.5464(14) 0.2480(15) 0.0269(14)
H11 H 0.0092(15) 0.1693(16) 0.2150(14)
H12 H -0.1252(19) 0.1512(18) 0.0371(15)
H13 H -0.0673(17) 0.2527(17) -0.1913(15)
H14 H 0.1260(17) 0.3742(17) -0.2426(16)
H15 H 0.2559(16) 0.3883(16) -0.0665(13)
H16 H 0.4230(17) 0.7582(17) 0.2831(14)
H17 H 0.2205(16) 0.9366(18) 0.3796(14)
H18 H 0.0345(17) 0.8473(17) 0.5155(14)
H19 H 0.0429(16) 0.5858(16) 0.5515(14)
H20 H 0.2429(15) 0.4115(16) 0.4515(13)
loop_
_geom_bond_atom_site_label_1
_geom_bond_atom_site_label_2
_geom_bond_site_symmetry_1
_geom_bond_site_symmetry_2
C1 C2 1_555 1_555
C2 C3 1_555 1_555
C3 C4 1_555 1_555
C4 C5 1_555 1_555
C5 C6 1_555 1_555
C6 C7 1_555 1_555
C7 C1 1_555 1_555
C8 C1 1_555 1_555
O1 C8 1_555 1_555
C9 C8 1_555 1_555
C10 C9 1_555 1_555
C11 C10 1_555 1_555
C12 C11 1_555 1_555
C13 C12 1_555 1_555
C14 C9 1_555 1_555
C15 C2 1_555 1_555
O2 C15 1_555 1_555
C16 C15 1_555 1_555
C17 C16 1_555 1_555
C18 C17 1_555 1_555
C19 C18 1_555 1_555
C20 C19 1_555 1_555
C21 C16 1_555 1_555
H1 C1 1_555 1_555
H2 C2 1_555 1_555
H3 C3 1_555 1_555
H4 C4 1_555 1_555
H5 C4 1_555 1_555
H6 C5 1_555 1_555
H7 C5 1_555 1_555
H8 C6 1_555 1_555
H9 C6 1_555 1_555
H10 C7 1_555 1_555
H11 C10 1_555 1_555
H12 C11 1_555 1_555
H13 C12 1_555 1_555
H14 C13 1_555 1_555
H15 C14 1_555 1_555
H16 C17 1_555 1_555
H17 C18 1_555 1_555
H18 C19 1_555 1_555
H19 C20 1_555 1_555
H20 C21 1_555 1_555
C3 C7 1_555 1_555
C13 C14 1_555 1_555
C20 C21 1_555 1_555

#END
