
#######################################################################
#
#                 Cambridge Crystallographic Data Centre
#                                CCDC 
#
#######################################################################
#
# If this CIF has been generated from an entry in the Cambridge 
# Structural Database, then it will include bibliographic, chemical, 
# crystal, experimental, refinement or atomic coordinate data resulting 
# from the CCDC's data processing and validation procedures.
#
#######################################################################

data_MIWQOY
_chemical_formula_moiety         'C21 H20 O2'
_chemical_name_systematic        trans-6,7-Dibenzoylbicyclo(3.2.0)heptane
_symmetry_cell_setting           monoclinic
_symmetry_space_group_name_H-M   'P 21/c'
_symmetry_Int_Tables_number      14
_space_group_name_Hall           '-P 2ybc'
loop_
_symmetry_equiv_pos_site_id
_symmetry_equiv_pos_as_xyz
1 x,y,z
2 -x,1/2+y,1/2-z
3 -x,-y,-z
4 x,1/2-y,1/2+z
_cell_length_a                   14.4375(5)
_cell_length_b                   10.6909(4)
_cell_length_c                   10.8075(5)
_cell_angle_alpha                90
_cell_angle_beta                 108.223(2)
_cell_angle_gamma                90
_cell_volume                     1584.47
_cell_formula_units_Z            4
loop_
_atom_site_label
_atom_site_type_symbol
_atom_site_fract_x
_atom_site_fract_y
_atom_site_fract_z
C1 C 0.1922(1) 0.2801(2) 0.0923(2)
C2 C 0.2975(1) 0.3018(2) 0.1870(2)
C3 C 0.2649(1) 0.4270(2) 0.2323(2)
C4 C 0.3093(2) 0.5446(2) 0.1944(2)
C5 C 0.2602(2) 0.5554(2) 0.0481(2)
C6 C 0.1550(2) 0.5177(2) 0.0285(2)
C7 C 0.1624(1) 0.4140(2) 0.1273(2)
C8 C 0.1301(1) 0.1880(2) 0.1343(2)
O1 O 0.1569(1) 0.1420(1) 0.2432(1)
C9 C 0.0283(1) 0.1681(2) 0.0453(2)
C10 C 0.0009(1) 0.1951(2) -0.0871(2)
C11 C -0.0946(1) 0.1749(2) -0.1652(2)
C12 C -0.1632(1) 0.1303(2) -0.1109(2)
C13 C -0.1366(1) 0.1046(2) 0.0205(2)
C14 C -0.0410(1) 0.1215(2) 0.0981(2)
C15 C 0.3453(1) 0.2052(2) 0.2888(2)
O2 O 0.3646(1) 0.2277(1) 0.4051(1)
C16 C 0.3763(1) 0.0828(2) 0.2454(2)
C17 C 0.3726(1) 0.0608(2) 0.1173(2)
C18 C 0.4030(1) -0.0538(2) 0.0826(2)
C19 C 0.4358(1) -0.1465(2) 0.1746(2)
C20 C 0.4412(1) -0.1250(2) 0.3032(2)
C21 C 0.4124(1) -0.0102(2) 0.3388(2)
H1 H 0.1887 0.2720 0.0024
H2 H 0.3405 0.3206 0.1374
H3 H 0.2639 0.4257 0.3207
H4 H 0.3787 0.5362 0.2154
H5 H 0.2952 0.6171 0.2379
H6 H 0.2899 0.4990 0.0026
H7 H 0.2642 0.6390 0.0178
H8 H 0.1240 0.4877 -0.0583
H9 H 0.1186 0.5875 0.0448
H10 H 0.1090 0.4122 0.1624
H11 H 0.0483 0.2275 -0.1242
H12 H -0.1128 0.1909 -0.2571
H13 H -0.2295 0.1183 -0.1645
H14 H -0.1847 0.0746 0.0578
H15 H -0.0220 0.1005 0.1890
H16 H 0.3481 0.1250 0.0533
H17 H 0.4018 -0.0676 -0.0056
H18 H 0.4555 -0.2257 0.1494
H19 H 0.4635 -0.1902 0.3666
H20 H 0.4177 0.0066 0.4280
loop_
_geom_bond_atom_site_label_1
_geom_bond_atom_site_label_2
_geom_bond_site_symmetry_1
_geom_bond_site_symmetry_2
C1 C2 1_555 1_555
C2 C3 1_555 1_555
C3 C4 1_555 1_555
C4 C5 1_555 1_555
C5 C6 1_555 1_555
C6 C7 1_555 1_555
C7 C1 1_555 1_555
C8 C1 1_555 1_555
O1 C8 1_555 1_555
C9 C8 1_555 1_555
C10 C9 1_555 1_555
C11 C10 1_555 1_555
C12 C11 1_555 1_555
C13 C12 1_555 1_555
C14 C9 1_555 1_555
C15 C2 1_555 1_555
O2 C15 1_555 1_555
C16 C15 1_555 1_555
C17 C16 1_555 1_555
C18 C17 1_555 1_555
C19 C18 1_555 1_555
C20 C19 1_555 1_555
C21 C16 1_555 1_555
H1 C1 1_555 1_555
H2 C2 1_555 1_555
H3 C3 1_555 1_555
H4 C4 1_555 1_555
H5 C4 1_555 1_555
H6 C5 1_555 1_555
H7 C5 1_555 1_555
H8 C6 1_555 1_555
H9 C6 1_555 1_555
H10 C7 1_555 1_555
H11 C10 1_555 1_555
H12 C11 1_555 1_555
H13 C12 1_555 1_555
H14 C13 1_555 1_555
H15 C14 1_555 1_555
H16 C17 1_555 1_555
H17 C18 1_555 1_555
H18 C19 1_555 1_555
H19 C20 1_555 1_555
H20 C21 1_555 1_555
C3 C7 1_555 1_555
C13 C14 1_555 1_555
C20 C21 1_555 1_555

#END
