
#######################################################################
#
#                 Cambridge Crystallographic Data Centre
#                                CCDC 
#
#######################################################################
#
# If this CIF has been generated from an entry in the Cambridge 
# Structural Database, then it will include bibliographic, chemical, 
# crystal, experimental, refinement or atomic coordinate data resulting 
# from the CCDC's data processing and validation procedures.
#
#######################################################################

data_MIWRAM
_chemical_name_common            
"12-(4-Nitrophenyl)-8,12-dihydrospiro(benzo(5,6)chromeno(2,3-d)pyrimidine-9,1'-cyclohexane)-11(10H)-one tetrahydrofuran solvate"
_chemical_formula_moiety         'C26 H23 N3 O4,2(C4 H8 O1)'
_chemical_name_systematic        
"8,9,12-Trihydro-9,9-pentamethylene-12-(4-nitrophenyl)-11H-naphtho(1',2':5,6)pyrano(2,3-d)pyrimidin-11(10H)-one tetrahydrofuran solvate"
_symmetry_cell_setting           triclinic
_symmetry_space_group_name_H-M   'P -1'
_symmetry_Int_Tables_number      2
_space_group_name_Hall           '-P 1'
loop_
_symmetry_equiv_pos_site_id
_symmetry_equiv_pos_as_xyz
1 x,y,z
2 -x,-y,-z
_cell_length_a                   10.607(4)
_cell_length_b                   11.753(6)
_cell_length_c                   12.774(6)
_cell_angle_alpha                84.412(14)
_cell_angle_beta                 69.673(13)
_cell_angle_gamma                78.047(14)
_cell_volume                     1460.35
_exptl_crystal_colour            colorless
_exptl_crystal_description       prism
_cell_formula_units_Z            2
loop_
_atom_site_label
_atom_site_type_symbol
_atom_site_fract_x
_atom_site_fract_y
_atom_site_fract_z
N1 N 0.5466(3) 0.2996(2) 0.2879(2)
H1 H 0.543(4) 0.231(3) 0.312(3)
N2 N 0.5451(2) 0.4057(2) 0.1201(2)
H2 H 0.570(4) 0.414(3) 0.044(3)
N3 N 0.4417(3) 1.0078(2) 0.3255(2)
O1 O 0.3888(2) 0.34958(17) 0.45377(15)
O2 O 0.3743(2) 0.56006(18) 0.12371(15)
O3 O 0.5096(4) 1.0245(3) 0.3805(3)
O4 O 0.4144(3) 1.0797(2) 0.2573(2)
C1 C 0.4398(3) 0.3816(2) 0.3439(2)
C2 C 0.3892(3) 0.4802(2) 0.2974(2)
C3 C 0.2697(3) 0.5680(2) 0.3636(2)
H3 H 0.1980 0.5787 0.3275
C4 C 0.2085(3) 0.5210(2) 0.4823(2)
C5 C 0.2696(3) 0.4190(3) 0.5196(2)
C6 C 0.2178(3) 0.3712(3) 0.6285(2)
H4 H 0.2648 0.3005 0.6511
C7 C 0.0985(3) 0.4290(3) 0.7007(2)
H5 H 0.0631 0.3984 0.7744
C8 C 0.0271(3) 0.5332(3) 0.6679(2)
C9 C 0.0822(3) 0.5800(3) 0.5568(2)
C10 C 0.0040(3) 0.6820(3) 0.5252(2)
H6 H 0.0377 0.7149 0.4522
C11 C -0.1194(3) 0.7341(3) 0.5979(3)
H7 H -0.1703 0.8018 0.5745
C12 C -0.1711(3) 0.6877(3) 0.7073(3)
H8 H -0.2562 0.7244 0.7574
C13 C -0.0993(3) 0.5909(3) 0.7408(2)
H9 H -0.1346 0.5610 0.8149
C14 C 0.6324(3) 0.3275(2) 0.1754(2)
C15 C 0.4367(3) 0.4864(2) 0.1749(2)
C16 C 0.7443(3) 0.3871(3) 0.1833(2)
H10 H 0.7017 0.4646 0.2158
H11 H 0.7885 0.3405 0.2343
C17 C 0.8534(3) 0.4016(3) 0.0703(3)
H12 H 0.8119 0.4554 0.0216
H13 H 0.9259 0.4359 0.0806
C18 C 0.9160(3) 0.2847(3) 0.0149(3)
H14 H 0.9624 0.2326 0.0615
H15 H 0.9853 0.2959 -0.0588
C19 C 0.8064(4) 0.2287(3) -0.0001(3)
H16 H 0.8485 0.1515 -0.0335
H17 H 0.7652 0.2777 -0.0518
C20 C 0.6944(3) 0.2146(3) 0.1122(2)
H18 H 0.6208 0.1845 0.0991
H19 H 0.7336 0.1562 0.1593
C21 C 0.3108(3) 0.6857(2) 0.3592(2)
C22 C 0.3830(3) 0.7087(2) 0.4247(2)
H20 H 0.4036 0.6510 0.4768
C23 C 0.4253(3) 0.8143(3) 0.4154(2)
H21 H 0.4742 0.8297 0.4607
C24 C 0.3948(3) 0.8964(3) 0.3388(2)
C25 C 0.3227(3) 0.8777(3) 0.2729(2)
H22 H 0.3027 0.9358 0.2209
C26 C 0.2801(3) 0.7725(3) 0.2839(2)
H23 H 0.2291 0.7588 0.2398
O5 O 0.3032(3) 0.1774(2) 0.84591(19)
C27 C 0.3304(4) 0.2824(3) 0.8716(3)
H24 H 0.2480 0.3444 0.8849
H25 H 0.4058 0.3080 0.8089
C28 C 0.3695(5) 0.2589(4) 0.9742(3)
H26 H 0.4701 0.2387 0.9549
H27 H 0.3342 0.3272 1.0227
C29 C 0.3060(8) 0.1617(5) 1.0281(4)
H28 H 0.2795 0.1415 1.1055
C30 C 0.2902(5) 0.0993(3) 0.9394(3)
H29 H 0.3617 0.0284 0.9196
H30 H 0.1994 0.0762 0.9652
O6 O -0.0096(4) 0.9960(3) 0.7999(3)
C31 C 0.0832(7) 1.0742(6) 0.7502(5)
H31 H 0.1522 1.0655 0.7878
H32 H 0.0330 1.1557 0.7570
C32 C 0.1531(7) 1.0432(5) 0.6263(5)
H33 H 0.1524 1.1145 0.5783
H34 H 0.2493 1.0040 0.6125
C33 C 0.0747(8) 0.9638(7) 0.6009(5)
H35 H 0.1371 0.9013 0.5511
H36 H 0.0092 1.0073 0.5651
C34 C -0.0025(6) 0.9126(4) 0.7185(4)
H37 H -0.0955 0.9047 0.7234
H38 H 0.0482 0.8352 0.7323
O7? O 0.1295(8) 0.8946(7) 0.6355(7)
C35? C 0.0130(10) 0.9680(13) 0.7146(16)
H39? H -0.0191 0.9272 0.7878
H40? H -0.0640 0.9914 0.6854
C36? C 0.0736(15) 1.0767(12) 0.7245(19)
H41? H 0.0391 1.1452 0.6839
H42? H 0.0481 1.0963 0.8037
C37? C 0.2317(13) 1.0399(11) 0.6712(15)
H43? H 0.2784 1.0548 0.7220
H44? H 0.2664 1.0827 0.5995
C38? C 0.2548(10) 0.9060(10) 0.6522(11)
H45? H 0.3358 0.8817 0.5857
H46? H 0.2665 0.8595 0.7182
loop_
_geom_bond_atom_site_label_1
_geom_bond_atom_site_label_2
_geom_bond_site_symmetry_1
_geom_bond_site_symmetry_2
N1 H1 1_555 1_555
N2 H2 1_555 1_555
N3 O3 1_555 1_555
O1 C1 1_555 1_555
O2 C15 1_555 1_555
O4 N3 1_555 1_555
C1 N1 1_555 1_555
C2 C1 1_555 1_555
C3 C2 1_555 1_555
H3 C3 1_555 1_555
C4 C3 1_555 1_555
C5 O1 1_555 1_555
C6 C5 1_555 1_555
H4 C6 1_555 1_555
C7 C6 1_555 1_555
H5 C7 1_555 1_555
C8 C7 1_555 1_555
C9 C4 1_555 1_555
C10 C9 1_555 1_555
H6 C10 1_555 1_555
C11 C10 1_555 1_555
H7 C11 1_555 1_555
C12 C11 1_555 1_555
H8 C12 1_555 1_555
C13 C8 1_555 1_555
H9 C13 1_555 1_555
C14 N1 1_555 1_555
C15 N2 1_555 1_555
C16 C14 1_555 1_555
H10 C16 1_555 1_555
H11 C16 1_555 1_555
C17 C16 1_555 1_555
H12 C17 1_555 1_555
H13 C17 1_555 1_555
C18 C17 1_555 1_555
H14 C18 1_555 1_555
H15 C18 1_555 1_555
C19 C18 1_555 1_555
H16 C19 1_555 1_555
H17 C19 1_555 1_555
C20 C14 1_555 1_555
H18 C20 1_555 1_555
H19 C20 1_555 1_555
C21 C3 1_555 1_555
C22 C21 1_555 1_555
H20 C22 1_555 1_555
C23 C22 1_555 1_555
H21 C23 1_555 1_555
C24 N3 1_555 1_555
C25 C24 1_555 1_555
H22 C25 1_555 1_555
C26 C21 1_555 1_555
H23 C26 1_555 1_555
O5 C27 1_555 1_555
C27 H24 1_555 1_555
H25 C27 1_555 1_555
C28 C27 1_555 1_555
H26 C28 1_555 1_555
H27 C28 1_555 1_555
C29 C28 1_555 1_555
H28 C29 1_555 1_555
C30 O5 1_555 1_555
H29 C30 1_555 1_555
H30 C30 1_555 1_555
O6 C31 1_555 1_555
C31 H31 1_555 1_555
H32 C31 1_555 1_555
C32 C31 1_555 1_555
H33 C32 1_555 1_555
H34 C32 1_555 1_555
C33 C32 1_555 1_555
H35 C33 1_555 1_555
H36 C33 1_555 1_555
C34 O6 1_555 1_555
H37 C34 1_555 1_555
H38 C34 1_555 1_555
N2 C14 1_555 1_555
C2 C15 1_555 1_555
C4 C5 1_555 1_555
C8 C9 1_555 1_555
C12 C13 1_555 1_555
C19 C20 1_555 1_555
C23 C24 1_555 1_555
C25 C26 1_555 1_555
C29 C30 1_555 1_555
C33 C34 1_555 1_555

#END
