
#######################################################################
#
#                 Cambridge Crystallographic Data Centre
#                                CCDC 
#
#######################################################################
#
# If this CIF has been generated from an entry in the Cambridge 
# Structural Database, then it will include bibliographic, chemical, 
# crystal, experimental, refinement or atomic coordinate data resulting 
# from the CCDC's data processing and validation procedures.
#
#######################################################################

data_MIWTIX
_chemical_formula_moiety         'C20 H15 N3 O1'
_chemical_name_systematic        
3-(1-methyl-1H,1'H-2,2'-biindol-3-yl)-3-oxopropanenitrile
_symmetry_cell_setting           monoclinic
_symmetry_space_group_name_H-M   'P 21'
_symmetry_Int_Tables_number      4
_space_group_name_Hall           'P 2yb'
loop_
_symmetry_equiv_pos_site_id
_symmetry_equiv_pos_as_xyz
1 x,y,z
2 -x,1/2+y,-z
_cell_length_a                   16.904(2)
_cell_length_b                   9.0287(12)
_cell_length_c                   24.322(3)
_cell_angle_alpha                90
_cell_angle_beta                 100.205(13)
_cell_angle_gamma                90
_cell_volume                     3653.33
_cell_formula_units_Z            8
loop_
_atom_site_label
_atom_site_type_symbol
_atom_site_fract_x
_atom_site_fract_y
_atom_site_fract_z
O1 O 0.6605(5) 0.4983(13) 0.2358(4)
N1 N 0.8322(6) 0.7758(13) 0.1529(4)
N2 N 0.7435(9) 0.299(2) 0.3507(6)
N3 N 0.8526(6) 0.8563(12) 0.2938(4)
H1 H 0.8052 0.8944 0.2891
C1 C 0.7707(7) 0.7229(15) 0.1140(5)
C2 C 0.7573(9) 0.7407(17) 0.0569(6)
H2 H 0.7922 0.7949 0.0392
C3 C 0.6908(10) 0.6754(19) 0.0279(6)
H3 H 0.6781 0.6890 -0.0105
C4 C 0.6399(10) 0.5865(19) 0.0548(7)
H4 H 0.5960 0.5398 0.0334
C5 C 0.6536(9) 0.5680(16) 0.1104(6)
H5 H 0.6202 0.5080 0.1274
C6 C 0.7195(7) 0.6412(14) 0.1425(4)
C7 C 0.7560(7) 0.6366(14) 0.2008(5)
C8 C 0.8260(6) 0.7237(14) 0.2058(5)
C9 C 0.7301(8) 0.5561(15) 0.2420(5)
C10 C 0.7858(8) 0.5253(16) 0.2984(5)
H6 H 0.8398 0.5073 0.2916
H7 H 0.7875 0.6126 0.3218
C11 C 0.7607(9) 0.4013(19) 0.3277(6)
C12 C 0.8811(7) 0.7676(14) 0.2554(5)
C13 C 0.9583(8) 0.7274(15) 0.2771(6)
H8 H 0.9918 0.6682 0.2599
C14 C 0.9780(8) 0.7948(17) 0.3319(6)
C15 C 1.0484(10) 0.794(2) 0.3742(8)
H9 H 1.0945 0.7447 0.3685
C16 C 1.0472(11) 0.863(2) 0.4200(7)
H10 H 1.0918 0.8561 0.4484
C17 C 0.9838(13) 0.945(2) 0.4288(6)
H11 H 0.9868 0.9962 0.4623
C18 C 0.9135(10) 0.9542(16) 0.3885(5)
H12 H 0.8703 1.0125 0.3941
C19 C 0.9113(8) 0.8755(16) 0.3415(5)
C20 C 0.8943(9) 0.879(2) 0.1414(6)
H13 H 0.9102 0.9427 0.1731
H14 H 0.8733 0.9384 0.1093
H15 H 0.9401 0.8245 0.1343
O2 O 0.1779(5) 0.5024(12) 0.3090(4)
N4 N 0.3931(6) 0.7787(12) 0.3926(4)
N5 N 0.2081(10) 0.293(2) 0.1985(6)
N6 N 0.3423(6) 0.8543(12) 0.2518(4)
H16 H 0.2964 0.8916 0.2548
C21 C 0.3464(8) 0.7206(15) 0.4337(6)
C22 C 0.3637(9) 0.7367(16) 0.4895(5)
H17 H 0.4075 0.7909 0.5074
C23 C 0.3100(12) 0.664(2) 0.5183(6)
H18 H 0.3173 0.6717 0.5570
C24 C 0.2487(10) 0.5858(19) 0.4911(6)
H19 H 0.2154 0.5374 0.5118
C25 C 0.2320(9) 0.5726(15) 0.4341(6)
H20 H 0.1881 0.5183 0.4163
C26 C 0.2825(8) 0.6422(14) 0.4044(5)
C27 C 0.2901(7) 0.6424(14) 0.3440(5)
C28 C 0.3573(7) 0.7322(14) 0.3407(5)
C29 C 0.2418(8) 0.5605(16) 0.3009(5)
C30 C 0.2717(8) 0.5304(16) 0.2475(5)
H21 H 0.2577 0.6132 0.2222
H22 H 0.3298 0.5226 0.2554
C31 C 0.2382(9) 0.3944(19) 0.2200(6)
C32 C 0.3899(7) 0.7709(15) 0.2913(5)
C33 C 0.4582(7) 0.7285(14) 0.2730(5)
H23 H 0.5001 0.6726 0.2926
C34 C 0.4528(7) 0.7870(14) 0.2177(5)
C35 C 0.5029(9) 0.7823(18) 0.1795(6)
H24 H 0.5526 0.7354 0.1871
C36 C 0.4757(12) 0.851(2) 0.1287(7)
H25 H 0.5074 0.8483 0.1012
C37 C 0.4044(12) 0.922(2) 0.1182(6)
H26 H 0.3880 0.9613 0.0827
C38 C 0.3550(9) 0.9404(18) 0.1562(6)
H27 H 0.3083 0.9968 0.1489
C39 C 0.3798(7) 0.8685(15) 0.2062(6)
C40 C 0.4644(10) 0.872(2) 0.4062(6)
H28 H 0.4881 0.8855 0.3735
H29 H 0.5026 0.8259 0.4350
H30 H 0.4494 0.9670 0.4191
O3 O 0.2943(6) 0.5011(12) 0.7642(4)
N7 N 0.5072(6) 0.7793(12) 0.8499(4)
N8 N 0.3199(9) 0.2947(18) 0.6505(6)
N9 N 0.4563(6) 0.8545(12) 0.7089(4)
H31 H 0.4106 0.8915 0.7125
C41 C 0.4749(7) 0.7268(13) 0.7987(5)
C42 C 0.4636(8) 0.7260(15) 0.8874(6)
C43 C 0.4759(9) 0.7397(17) 0.9467(6)
H32 H 0.5195 0.7938 0.9651
C44 C 0.4247(12) 0.6746(19) 0.9766(6)
H33 H 0.4314 0.6882 1.0151
C45 C 0.3597(10) 0.5840(18) 0.9479(7)
H34 H 0.3256 0.5363 0.9683
C46 C 0.3477(9) 0.5672(16) 0.8903(6)
H35 H 0.3059 0.5080 0.8724
C47 C 0.3982(7) 0.6391(14) 0.8591(5)
C48 C 0.4078(7) 0.6379(13) 0.8022(5)
C49 C 0.3588(7) 0.5564(15) 0.7581(5)
C50 C 0.3868(7) 0.5317(15) 0.7045(5)
H36 H 0.3740 0.6176 0.6806
H37 H 0.4447 0.5189 0.7115
C51 C 0.3488(8) 0.402(2) 0.6769(6)
C52 C 0.5744(8) 0.8782(16) 0.8631(6)
H38 H 0.6234 0.8237 0.8645
H39 H 0.5738 0.9235 0.8987
H40 H 0.5708 0.9535 0.8349
C53 C 0.5035(7) 0.7687(14) 0.7475(5)
C54 C 0.5712(8) 0.7276(16) 0.7260(6)
H41 H 0.6134 0.6695 0.7439
C55 C 0.5648(8) 0.7892(16) 0.6724(6)
C56 C 0.6130(10) 0.789(2) 0.6340(8)
H42 H 0.6627 0.7422 0.6420
C57 C 0.5914(12) 0.854(3) 0.5859(10)
H43 H 0.6227 0.8447 0.5583
C58 C 0.5192(15) 0.939(2) 0.5760(7)
H44 H 0.5056 0.9864 0.5418
C59 C 0.4691(11) 0.954(2) 0.6132(5)
H45 H 0.4230 1.0124 0.6072
C60 C 0.4945(8) 0.8734(15) 0.6613(5)
O4 O 0.7739(5) 0.4986(12) 0.6918(4)
N10 N 0.9425(6) 0.7799(12) 0.6058(4)
N11 N 0.8594(9) 0.292(2) 0.8040(6)
N12 N 0.9673(6) 0.8557(12) 0.7473(4)
H46 H 0.9200 0.8928 0.7451
C61 C 0.9354(7) 0.7321(14) 0.6591(5)
C62 C 0.8769(8) 0.7249(14) 0.5670(5)
C63 C 0.8633(10) 0.7369(19) 0.5104(5)
H47 H 0.8988 0.7879 0.4920
C64 C 0.7962(12) 0.672(2) 0.4816(7)
H48 H 0.7838 0.6834 0.4430
C65 C 0.7445(10) 0.5862(17) 0.5091(6)
H49 H 0.6988 0.5419 0.4888
C66 C 0.7622(9) 0.5703(16) 0.5639(6)
H50 H 0.7295 0.5105 0.5815
C67 C 0.8288(8) 0.6404(16) 0.5969(6)
C68 C 0.8666(7) 0.6448(14) 0.6562(4)
C69 C 0.8416(8) 0.5558(14) 0.6972(5)
C70 C 0.8972(8) 0.5296(15) 0.7511(5)
H51 H 0.9516 0.5196 0.7439
H52 H 0.8960 0.6153 0.7750
C71 C 0.8770(9) 0.397(2) 0.7806(6)
C72 C 1.0054(9) 0.8714(18) 0.5913(6)
H53 H 1.0393 0.9056 0.6247
H54 H 0.9820 0.9549 0.5699
H55 H 1.0367 0.8148 0.5695
C73 C 0.9927(7) 0.7736(14) 0.7076(5)
C74 C 1.0710(7) 0.7267(14) 0.7280(5)
H56 H 1.1019 0.6659 0.7094
C75 C 1.0946(7) 0.7857(15) 0.7803(5)
C76 C 1.1630(8) 0.7759(19) 0.8194(7)
H57 H 1.2083 0.7238 0.8136
C77 C 1.1586(13) 0.856(2) 0.8722(8)
H58 H 1.2038 0.8538 0.9002
C78 C 1.0967(13) 0.929(2) 0.8823(7)
H59 H 1.0983 0.9739 0.9169
C79 C 1.0308(10) 0.940(2) 0.8432(6)
H60 H 0.9865 0.9932 0.8501
C80 C 1.0293(8) 0.8706(15) 0.7921(5)
loop_
_geom_bond_atom_site_label_1
_geom_bond_atom_site_label_2
_geom_bond_site_symmetry_1
_geom_bond_site_symmetry_2
O1 C9 1_555 1_555
N1 C1 1_555 1_555
N2 C11 1_555 1_555
N3 H1 1_555 1_555
C1 C2 1_555 1_555
C2 H2 1_555 1_555
C3 C2 1_555 1_555
H3 C3 1_555 1_555
C4 C3 1_555 1_555
H4 C4 1_555 1_555
C5 C4 1_555 1_555
H5 C5 1_555 1_555
C6 C1 1_555 1_555
C7 C6 1_555 1_555
C8 N1 1_555 1_555
C9 C7 1_555 1_555
C10 C9 1_555 1_555
H6 C10 1_555 1_555
H7 C10 1_555 1_555
C11 C10 1_555 1_555
C12 N3 1_555 1_555
C13 C12 1_555 1_555
H8 C13 1_555 1_555
C14 C13 1_555 1_555
C15 C14 1_555 1_555
H9 C15 1_555 1_555
C16 C15 1_555 1_555
H10 C16 1_555 1_555
C17 C16 1_555 1_555
H11 C17 1_555 1_555
C18 C17 1_555 1_555
H12 C18 1_555 1_555
C19 N3 1_555 1_555
C20 N1 1_555 1_555
H13 C20 1_555 1_555
H14 C20 1_555 1_555
H15 C20 1_555 1_555
O2 C29 1_555 1_555
N4 C21 1_555 1_555
N5 C31 1_555 1_555
N6 H16 1_555 1_555
C21 C22 1_555 1_555
C22 H17 1_555 1_555
C23 C22 1_555 1_555
H18 C23 1_555 1_555
C24 C23 1_555 1_555
H19 C24 1_555 1_555
C25 C24 1_555 1_555
H20 C25 1_555 1_555
C26 C21 1_555 1_555
C27 C26 1_555 1_555
C28 N4 1_555 1_555
C29 C27 1_555 1_555
C30 C29 1_555 1_555
H21 C30 1_555 1_555
H22 C30 1_555 1_555
C31 C30 1_555 1_555
C32 N6 1_555 1_555
C33 C32 1_555 1_555
H23 C33 1_555 1_555
C34 C33 1_555 1_555
C35 C34 1_555 1_555
H24 C35 1_555 1_555
C36 C35 1_555 1_555
H25 C36 1_555 1_555
C37 C36 1_555 1_555
H26 C37 1_555 1_555
C38 C37 1_555 1_555
H27 C38 1_555 1_555
C39 N6 1_555 1_555
C40 N4 1_555 1_555
H28 C40 1_555 1_555
H29 C40 1_555 1_555
H30 C40 1_555 1_555
O3 C49 1_555 1_555
N7 C41 1_555 1_555
N8 C51 1_555 1_555
N9 H31 1_555 1_555
C41 C48 1_555 1_555
C42 N7 1_555 1_555
C43 C42 1_555 1_555
H32 C43 1_555 1_555
C44 C43 1_555 1_555
H33 C44 1_555 1_555
C45 C44 1_555 1_555
H34 C45 1_555 1_555
C46 C45 1_555 1_555
H35 C46 1_555 1_555
C47 C42 1_555 1_555
C48 C47 1_555 1_555
C49 C48 1_555 1_555
C50 C49 1_555 1_555
H36 C50 1_555 1_555
H37 C50 1_555 1_555
C51 C50 1_555 1_555
C52 N7 1_555 1_555
H38 C52 1_555 1_555
H39 C52 1_555 1_555
H40 C52 1_555 1_555
C53 N9 1_555 1_555
C54 C53 1_555 1_555
H41 C54 1_555 1_555
C55 C54 1_555 1_555
C56 C55 1_555 1_555
H42 C56 1_555 1_555
C57 C56 1_555 1_555
H43 C57 1_555 1_555
C58 C57 1_555 1_555
H44 C58 1_555 1_555
C59 C58 1_555 1_555
H45 C59 1_555 1_555
C60 N9 1_555 1_555
O4 C69 1_555 1_555
N10 C61 1_555 1_555
N11 C71 1_555 1_555
N12 H46 1_555 1_555
C61 C68 1_555 1_555
C62 N10 1_555 1_555
C63 C62 1_555 1_555
H47 C63 1_555 1_555
C64 C63 1_555 1_555
H48 C64 1_555 1_555
C65 C64 1_555 1_555
H49 C65 1_555 1_555
C66 C65 1_555 1_555
H50 C66 1_555 1_555
C67 C62 1_555 1_555
C68 C67 1_555 1_555
C69 C68 1_555 1_555
C70 C69 1_555 1_555
H51 C70 1_555 1_555
H52 C70 1_555 1_555
C71 C70 1_555 1_555
C72 N10 1_555 1_555
H53 C72 1_555 1_555
H54 C72 1_555 1_555
H55 C72 1_555 1_555
C73 N12 1_555 1_555
C74 C73 1_555 1_555
H56 C74 1_555 1_555
C75 C74 1_555 1_555
C76 C75 1_555 1_555
H57 C76 1_555 1_555
C77 C76 1_555 1_555
H58 C77 1_555 1_555
C78 C77 1_555 1_555
H59 C78 1_555 1_555
C79 C78 1_555 1_555
H60 C79 1_555 1_555
C80 N12 1_555 1_555
C5 C6 1_555 1_555
C7 C8 1_555 1_555
C8 C12 1_555 1_555
C14 C19 1_555 1_555
C18 C19 1_555 1_555
C25 C26 1_555 1_555
C27 C28 1_555 1_555
C28 C32 1_555 1_555
C34 C39 1_555 1_555
C38 C39 1_555 1_555
C41 C53 1_555 1_555
C46 C47 1_555 1_555
C55 C60 1_555 1_555
C59 C60 1_555 1_555
C61 C73 1_555 1_555
C66 C67 1_555 1_555
C75 C80 1_555 1_555
C79 C80 1_555 1_555

#END
