
#######################################################################
#
#                 Cambridge Crystallographic Data Centre
#                                CCDC 
#
#######################################################################
#
# If this CIF has been generated from an entry in the Cambridge 
# Structural Database, then it will include bibliographic, chemical, 
# crystal, experimental, refinement or atomic coordinate data resulting 
# from the CCDC's data processing and validation procedures.
#
#######################################################################

data_MIWYIC
_chemical_formula_moiety         'C17 H17 Br1 O6'
_chemical_name_systematic        
'Methyl 6-bromo-4-(1-methoxy-1,3-dioxobutan-2-yl)-2-methyl-4H-chromene-3-carboxylate'
_symmetry_cell_setting           triclinic
_symmetry_space_group_name_H-M   'P -1'
_symmetry_Int_Tables_number      2
_space_group_name_Hall           '-P 1'
loop_
_symmetry_equiv_pos_site_id
_symmetry_equiv_pos_as_xyz
1 x,y,z
2 -x,-y,-z
_cell_length_a                   8.5665(3)
_cell_length_b                   9.1041(3)
_cell_length_c                   12.5319(4)
_cell_angle_alpha                77.751(2)
_cell_angle_beta                 74.492(2)
_cell_angle_gamma                66.840(2)
_cell_volume                     859.546
_cell_formula_units_Z            2
loop_
_atom_site_label
_atom_site_type_symbol
_atom_site_fract_x
_atom_site_fract_y
_atom_site_fract_z
C1 C 0.2678(3) 0.4248(3) 0.99227(18)
C2 C 0.2489(3) 0.3035(3) 0.95876(17)
C3 C 0.2034(3) 0.3154(2) 0.84868(17)
H1 H 0.1045 0.2801 0.8640
C4 C 0.1451(3) 0.4887(2) 0.79504(18)
C5 C 0.0708(3) 0.5347(3) 0.70165(19)
H2 H 0.0537 0.4588 0.6713
C6 C 0.0226(3) 0.6924(3) 0.6540(2)
C7 C 0.0481(4) 0.8076(3) 0.6959(2)
H3 H 0.0167 0.9135 0.6620
C8 C 0.1202(4) 0.7637(3) 0.7881(2)
H4 H 0.1371 0.8403 0.8179
C9 C 0.1683(3) 0.6052(3) 0.83739(19)
C10 C 0.2768(3) 0.1481(3) 1.03126(18)
C11 C 0.2280(4) -0.0976(3) 1.0633(2)
H5 H 0.1715 -0.1499 1.0356
H6 H 0.1774 -0.0860 1.1407
H7 H 0.3493 -0.1612 1.0553
C12 C 0.3178(4) 0.4291(3) 1.0960(2)
H8 H 0.4411 0.4021 1.0825
H9 H 0.2847 0.3529 1.1541
H10 H 0.2600 0.5352 1.1185
C13 C 0.4572(3) 0.2863(3) 0.6816(2)
C14 C 0.3555(3) 0.1991(2) 0.77143(17)
H11 H 0.4354 0.1232 0.8182
C15 C 0.2966(4) 0.1000(3) 0.7168(2)
C16 C 0.4370(5) -0.0421(4) 0.6674(3)
H12 H 0.4744 -0.1260 0.7261
H13 H 0.5331 -0.0116 0.6248
H14 H 0.3939 -0.0801 0.6197
C17 C 0.6183(5) 0.4566(5) 0.6487(3)
H15 H 0.7129 0.3930 0.5970
H16 H 0.6616 0.5050 0.6896
H17 H 0.5367 0.5393 0.6086
O1 O 0.2380(2) 0.57312(19) 0.93043(14)
O2 O 0.3530(2) 0.1012(2) 1.10715(14)
O3 O 0.2062(2) 0.05937(18) 1.00064(13)
O4 O 0.5332(2) 0.3544(2) 0.72566(14)
O5 O 0.4658(3) 0.2955(3) 0.58379(16)
O6 O 0.1464(3) 0.1324(2) 0.71855(17)
Br1 Br -0.07911(4) 0.75336(4) 0.52692(3)
loop_
_geom_bond_atom_site_label_1
_geom_bond_atom_site_label_2
_geom_bond_site_symmetry_1
_geom_bond_site_symmetry_2
C1 C2 1_555 1_555
C2 C3 1_555 1_555
C3 H1 1_555 1_555
C4 C3 1_555 1_555
C5 C4 1_555 1_555
H2 C5 1_555 1_555
C6 C5 1_555 1_555
C7 C6 1_555 1_555
H3 C7 1_555 1_555
C8 C7 1_555 1_555
H4 C8 1_555 1_555
C9 C4 1_555 1_555
C10 C2 1_555 1_555
C11 H5 1_555 1_555
H6 C11 1_555 1_555
H7 C11 1_555 1_555
C12 C1 1_555 1_555
H8 C12 1_555 1_555
H9 C12 1_555 1_555
H10 C12 1_555 1_555
C13 C14 1_555 1_555
C14 C3 1_555 1_555
H11 C14 1_555 1_555
C15 C14 1_555 1_555
C16 C15 1_555 1_555
H12 C16 1_555 1_555
H13 C16 1_555 1_555
H14 C16 1_555 1_555
C17 H15 1_555 1_555
H16 C17 1_555 1_555
H17 C17 1_555 1_555
O1 C1 1_555 1_555
O2 C10 1_555 1_555
O3 C10 1_555 1_555
O4 C13 1_555 1_555
O5 C13 1_555 1_555
O6 C15 1_555 1_555
Br1 C6 1_555 1_555
C8 C9 1_555 1_555
C9 O1 1_555 1_555
C11 O3 1_555 1_555
C17 O4 1_555 1_555

#END
