
#######################################################################
#
#                 Cambridge Crystallographic Data Centre
#                                CCDC 
#
#######################################################################
#
# If this CIF has been generated from an entry in the Cambridge 
# Structural Database, then it will include bibliographic, chemical, 
# crystal, experimental, refinement or atomic coordinate data resulting 
# from the CCDC's data processing and validation procedures.
#
#######################################################################

data_MIWZEX
_chemical_name_common            
Tetracyclo[22.4.0.0$6,11!.0$14,19!]octacosa-1(24),6,8,10,14,16,18,25,27-nonaen-2,4,12,20,22-pentayne
_chemical_formula_moiety         'C28 H12'
_chemical_name_systematic        
Tribenzo[e,k,o]-1,3,7,9,13-pentadehydro[16]annulene
_symmetry_cell_setting           monoclinic
_symmetry_space_group_name_H-M   'P 21/c'
_symmetry_Int_Tables_number      14
_space_group_name_Hall           '-P 2ybc'
loop_
_symmetry_equiv_pos_site_id
_symmetry_equiv_pos_as_xyz
1 x,y,z
2 -x,1/2+y,1/2-z
3 -x,-y,-z
4 x,1/2-y,1/2+z
_cell_length_a                   3.8508(2)
_cell_length_b                   21.5422(3)
_cell_length_c                   21.4937(8)
_cell_angle_alpha                90
_cell_angle_beta                 91.860(2)
_cell_angle_gamma                90
_cell_volume                     1782.06
_exptl_crystal_colour            yellow
_exptl_crystal_description       needle
_cell_formula_units_Z            4
loop_
_atom_site_label
_atom_site_type_symbol
_atom_site_fract_x
_atom_site_fract_y
_atom_site_fract_z
C1 C 0.790(4) -0.5675(7) 0.4157(7)
C2 C 0.643(4) -0.5932(7) 0.4697(7)
C3 C 0.622(4) -0.6577(8) 0.4784(7)
C4 C 0.753(4) -0.6966(7) 0.4318(8)
C5 C 0.883(3) -0.6708(7) 0.3780(7)
C6 C 0.900(3) -0.6073(7) 0.3710(7)
C7 C 1.041(4) -0.5815(8) 0.3177(7)
C8 C 1.164(4) -0.5478(9) 0.2757(8)
C9 C 1.276(4) -0.5086(8) 0.2308(7)
C10 C 1.394(4) -0.4732(8) 0.1922(7)
C11 C 1.534(3) -0.4358(7) 0.1450(7)
C12 C 1.637(4) -0.4663(8) 0.0896(8)
C13 C 1.757(3) -0.4291(8) 0.0394(7)
C14 C 1.821(3) -0.3650(8) 0.0484(7)
C15 C 1.720(4) -0.3375(8) 0.1040(7)
C16 C 1.578(3) -0.3717(7) 0.1529(7)
C17 C 1.478(4) -0.3400(7) 0.2061(7)
C18 C 1.391(4) -0.3043(8) 0.2487(8)
C19 C 1.323(3) -0.2612(6) 0.2949(7)
C20 C 1.414(3) -0.1971(8) 0.2841(7)
C21 C 1.343(4) -0.1533(8) 0.3289(8)
C22 C 1.179(4) -0.1689(7) 0.3848(7)
C23 C 1.097(4) -0.2309(7) 0.3941(7)
C24 C 1.151(4) -0.2771(8) 0.3531(7)
C25 C 1.046(4) -0.3386(8) 0.3661(7)
C26 C 0.965(4) -0.3907(7) 0.3774(7)
C27 C 0.876(4) -0.4512(8) 0.3924(7)
C28 C 0.816(4) -0.5033(8) 0.4046(8)
H1 H 0.5558 -0.566 0.5005
H2 H 0.5238 -0.6746 0.5147
H3 H 0.7525 -0.7403 0.4372
H4 H 0.9603 -0.6972 0.3459
H5 H 1.6259 -0.5102 0.0861
H6 H 1.7934 -0.4475 0.0000
H7 H 1.9302 -0.3411 0.0175
H8 H 1.7478 -0.2940 0.1089
H9 H 1.5214 -0.1852 0.2467
H10 H 1.4060 -0.1113 0.3220
H11 H 1.1269 -0.1382 0.4148
H12 H 0.9947 -0.2417 0.4323
loop_
_geom_bond_atom_site_label_1
_geom_bond_atom_site_label_2
_geom_bond_site_symmetry_1
_geom_bond_site_symmetry_2
C1 C2 1_555 1_555
C2 C3 1_555 1_555
C3 C4 1_555 1_555
C4 C5 1_555 1_555
C5 C6 1_555 1_555
C6 C1 1_555 1_555
C7 C6 1_555 1_555
C8 C7 1_555 1_555
C9 C8 1_555 1_555
C10 C9 1_555 1_555
C11 C10 1_555 1_555
C12 C11 1_555 1_555
C13 C12 1_555 1_555
C14 C13 1_555 1_555
C15 C14 1_555 1_555
C16 C11 1_555 1_555
C17 C16 1_555 1_555
C18 C17 1_555 1_555
C19 C18 1_555 1_555
C20 C19 1_555 1_555
C21 C20 1_555 1_555
C22 C21 1_555 1_555
C23 C22 1_555 1_555
C24 C19 1_555 1_555
C25 C24 1_555 1_555
C26 C25 1_555 1_555
C27 C26 1_555 1_555
C28 C1 1_555 1_555
H1 C2 1_555 1_555
H2 C3 1_555 1_555
H3 C4 1_555 1_555
H4 C5 1_555 1_555
H5 C12 1_555 1_555
H6 C13 1_555 1_555
H7 C14 1_555 1_555
H8 C15 1_555 1_555
H9 C20 1_555 1_555
H10 C21 1_555 1_555
H11 C22 1_555 1_555
H12 C23 1_555 1_555
C15 C16 1_555 1_555
C23 C24 1_555 1_555
C27 C28 1_555 1_555

#END
