
#######################################################################
#
#                 Cambridge Crystallographic Data Centre
#                                CCDC 
#
#######################################################################
#
# If this CIF has been generated from an entry in the Cambridge 
# Structural Database, then it will include bibliographic, chemical, 
# crystal, experimental, refinement or atomic coordinate data resulting 
# from the CCDC's data processing and validation procedures.
#
#######################################################################

data_MIXQUF
_chemical_formula_moiety         'C25 H39 N3 O6'
_chemical_name_systematic        
'N-t-Butoxycarbonyl-leucyl-\a-aminoisobutyrylphenylalanine methyl ester'
_symmetry_cell_setting           orthorhombic
_symmetry_space_group_name_H-M   'P 21 21 21'
_symmetry_Int_Tables_number      19
_space_group_name_Hall           'P 2ac 2ab'
loop_
_symmetry_equiv_pos_site_id
_symmetry_equiv_pos_as_xyz
1 x,y,z
2 1/2-x,-y,1/2+z
3 -x,1/2+y,1/2-z
4 1/2+x,1/2-y,-z
_cell_length_a                   6.023(3)
_cell_length_b                   10.311(3)
_cell_length_c                   43.051(7)
_cell_angle_alpha                90
_cell_angle_beta                 90
_cell_angle_gamma                90
_cell_volume                     2673.6
_exptl_crystal_colour            colorless
_exptl_crystal_description       prism
_chemical_melting_point          '115-117 deg.C'
_cell_formula_units_Z            4
_exptl_crystal_recrystallization_method 'dimethyl sulfoxide'
loop_
_atom_site_label
_atom_site_type_symbol
_atom_site_fract_x
_atom_site_fract_y
_atom_site_fract_z
C1 C 1.5613(6) 0.5950(4) 0.04934(8)
O1 O 1.4587(5) 0.6922(3) 0.04425(8)
O2 O 1.7761(5) 0.5805(3) 0.04285(6)
C2 C 1.8810(8) 0.6917(5) 0.02909(12)
H1 H 1.8348(46) 0.6996(20) 0.0078(3)
H2 H 2.0393(8) 0.6815(16) 0.0299(7)
H3 H 1.8390(46) 0.7684(6) 0.0403(5)
C3 C 1.4608(7) 0.4691(3) 0.06126(8)
H4 H 1.5792(7) 0.4133(3) 0.06934(8)
C4 C 1.3468(8) 0.4012(4) 0.03379(9)
H5 H 1.2110(8) 0.4474(4) 0.02886(9)
H6 H 1.4433(8) 0.4065(4) 0.01580(9)
C5 C 1.2909(7) 0.2607(4) 0.03960(8)
C6 C 1.4472(9) 0.1665(4) 0.03319(11)
H7 H 1.5838(9) 0.1908(4) 0.02499(11)
C7 C 1.4049(11) 0.0370(5) 0.03869(13)
H8 H 1.5127(11) -0.0247(5) 0.03407(13)
C8 C 1.2097(12) -0.0007(5) 0.05065(12)
H9 H 1.1832(12) -0.0880(5) 0.05458(12)
C9 C 1.0478(10) 0.0907(6) 0.05713(11)
H10 H 0.9116(10) 0.0651(6) 0.06524(11)
C10 C 1.0905(8) 0.2220(5) 0.05138(11)
H11 H 0.9817(8) 0.2835(5) 0.05562(11)
N1 N 1.3048(6) 0.4970(3) 0.08583(7)
H12 H 1.1626(85) 0.4786(46) 0.0841(10)
C11 C 1.3711(6) 0.5661(3) 0.11087(8)
O3 O 1.5667(4) 0.5966(3) 0.11400(6)
C12 C 1.1883(6) 0.6188(3) 0.13255(8)
C13 C 1.0710(8) 0.7267(4) 0.11479(10)
H13 H 1.1772(12) 0.7914(15) 0.1088(6)
H14 H 0.9599(36) 0.7654(20) 0.1278(3)
H15 H 1.0018(43) 0.6913(6) 0.0966(4)
C14 C 1.2892(8) 0.6705(4) 0.16234(9)
H16 H 1.3959(38) 0.7366(21) 0.15747(9)
H17 H 1.3613(42) 0.6011(8) 0.1733(3)
H18 H 1.1743(11) 0.7066(25) 0.1752(3)
N2 N 1.0263(5) 0.5156(3) 0.13888(7)
H19 H 0.8944(58) 0.5449(31) 0.1373(7)
C15 C 1.0867(6) 0.4023(3) 0.15202(8)
O4 O 1.2789(4) 0.3657(2) 0.15276(6)
C16 C 0.8986(6) 0.3166(3) 0.16447(8)
H20 H 0.9630(6) 0.2555(3) 0.17940(8)
C17 C 0.7941(7) 0.2379(3) 0.13811(8)
H21 H 0.9116(7) 0.2045(3) 0.12496(8)
H22 H 0.7035(7) 0.2954(3) 0.12555(8)
C18 C 0.6496(7) 0.1237(4) 0.14914(9)
H23 H 0.5489(7) 0.1561(4) 0.16526(9)
C19 C 0.5088(11) 0.0729(5) 0.12244(12)
H24 H 0.4404(55) 0.1444(6) 0.1119(6)
H25 H 0.3959(46) 0.0163(33) 0.1304(2)
H26 H 0.6013(17) 0.0259(34) 0.1082(5)
C20 C 0.7894(10) 0.0167(4) 0.16326(14)
H27 H 0.8695(49) 0.0501(10) 0.1808(6)
H28 H 0.8927(44) -0.0149(26) 0.1480(3)
H29 H 0.6948(12) -0.0529(16) 0.1699(8)
N3 N 0.7307(5) 0.3906(3) 0.18033(7)
H30 H 0.5930(96) 0.3796(53) 0.1734(12)
C21 C 0.7883(6) 0.4573(4) 0.20656(8)
O5 O 0.9776(4) 0.4646(3) 0.21586(6)
O6 O 0.6106(4) 0.5124(3) 0.21948(6)
C22 C 0.6349(7) 0.6027(4) 0.24602(9)
C23 C 0.7703(9) 0.7191(5) 0.23582(15)
H31 H 0.7773(63) 0.7809(20) 0.2525(4)
H32 H 0.7016(43) 0.7584(26) 0.2180(7)
H33 H 0.9177(25) 0.6916(8) 0.2305(10)
C24 C 0.3946(8) 0.6418(5) 0.25215(11)
H34 H 0.3880(11) 0.6958(29) 0.2703(5)
H35 H 0.3065(14) 0.5655(6) 0.2554(8)
H36 H 0.3381(20) 0.6888(30) 0.2346(4)
C25 C 0.7332(10) 0.5330(6) 0.27326(10)
H37 H 0.7289(73) 0.5883(19) 0.2912(3)
H38 H 0.8844(27) 0.5103(41) 0.2687(4)
H39 H 0.6494(49) 0.4556(26) 0.2773(7)
loop_
_geom_bond_atom_site_label_1
_geom_bond_atom_site_label_2
_geom_bond_site_symmetry_1
_geom_bond_site_symmetry_2
C1 O1 1_555 1_555
O2 C1 1_555 1_555
C2 O2 1_555 1_555
H1 C2 1_555 1_555
H2 C2 1_555 1_555
H3 C2 1_555 1_555
C3 C1 1_555 1_555
H4 C3 1_555 1_555
C4 C3 1_555 1_555
H5 C4 1_555 1_555
H6 C4 1_555 1_555
C5 C4 1_555 1_555
C6 C5 1_555 1_555
H7 C6 1_555 1_555
C7 C6 1_555 1_555
H8 C7 1_555 1_555
C8 C7 1_555 1_555
H9 C8 1_555 1_555
C9 C8 1_555 1_555
H10 C9 1_555 1_555
C10 C5 1_555 1_555
H11 C10 1_555 1_555
N1 C3 1_555 1_555
H12 N1 1_555 1_555
C11 N1 1_555 1_555
O3 C11 1_555 1_555
C12 C11 1_555 1_555
C13 C12 1_555 1_555
H13 C13 1_555 1_555
H14 C13 1_555 1_555
H15 C13 1_555 1_555
C14 C12 1_555 1_555
H16 C14 1_555 1_555
H17 C14 1_555 1_555
H18 C14 1_555 1_555
N2 C12 1_555 1_555
H19 N2 1_555 1_555
C15 N2 1_555 1_555
O4 C15 1_555 1_555
C16 C15 1_555 1_555
H20 C16 1_555 1_555
C17 C16 1_555 1_555
H21 C17 1_555 1_555
H22 C17 1_555 1_555
C18 C17 1_555 1_555
H23 C18 1_555 1_555
C19 C18 1_555 1_555
H24 C19 1_555 1_555
H25 C19 1_555 1_555
H26 C19 1_555 1_555
C20 C18 1_555 1_555
H27 C20 1_555 1_555
H28 C20 1_555 1_555
H29 C20 1_555 1_555
N3 C16 1_555 1_555
H30 N3 1_555 1_555
C21 N3 1_555 1_555
O5 C21 1_555 1_555
O6 C21 1_555 1_555
C22 O6 1_555 1_555
C23 C22 1_555 1_555
H31 C23 1_555 1_555
H32 C23 1_555 1_555
H33 C23 1_555 1_555
C24 C22 1_555 1_555
H34 C24 1_555 1_555
H35 C24 1_555 1_555
H36 C24 1_555 1_555
C25 C22 1_555 1_555
H37 C25 1_555 1_555
H38 C25 1_555 1_555
H39 C25 1_555 1_555
C9 C10 1_555 1_555

#END
