
#######################################################################
#
#                 Cambridge Crystallographic Data Centre
#                                CCDC 
#
#######################################################################
#
# If this CIF has been generated from an entry in the Cambridge 
# Structural Database, then it will include bibliographic, chemical, 
# crystal, experimental, refinement or atomic coordinate data resulting 
# from the CCDC's data processing and validation procedures.
#
#######################################################################

data_MIXTUK
_chemical_formula_moiety         'C31 H23 N5,H2 O1'
_chemical_name_systematic        
'N,N-diphenyl-4-(5-((pyridin-4-ylmethylene)amino)-1H-benzimidazol-2-yl)aniline monohydrate'
_symmetry_cell_setting           monoclinic
_symmetry_space_group_name_H-M   'P 21/c'
_symmetry_Int_Tables_number      14
_space_group_name_Hall           '-P 2ybc'
loop_
_symmetry_equiv_pos_site_id
_symmetry_equiv_pos_as_xyz
1 x,y,z
2 -x,1/2+y,1/2-z
3 -x,-y,-z
4 x,1/2-y,1/2+z
_cell_length_a                   23.904(4)
_cell_length_b                   9.7529(17)
_cell_length_c                   11.323(2)
_cell_angle_alpha                90
_cell_angle_beta                 98.054(2)
_cell_angle_gamma                90
_cell_volume                     2613.73
_cell_formula_units_Z            4
loop_
_atom_site_label
_atom_site_type_symbol
_atom_site_fract_x
_atom_site_fract_y
_atom_site_fract_z
C1 C 0.08273(16) 0.5685(4) 0.5336(3)
H1 H 0.0638 0.4894 0.5509
C2 C 0.0621(2) 0.6944(5) 0.5598(3)
H2 H 0.0289 0.7002 0.5939
C3 C 0.0896(2) 0.8099(5) 0.5363(4)
H3 H 0.0757 0.8951 0.5552
C4 C 0.13781(19) 0.8013(4) 0.4845(5)
H4 H 0.1568 0.8807 0.4680
C5 C 0.15846(14) 0.6739(3) 0.4566(4)
H5 H 0.1910 0.6681 0.4204
C6 C 0.13129(11) 0.5587(3) 0.4819(2)
C7 C 0.08424(12) 0.3957(3) 0.2760(2)
H6 H 0.0903 0.4865 0.2564
C8 C 0.04604(13) 0.3201(4) 0.2040(3)
H7 H 0.0264 0.3594 0.1356
C9 C 0.03602(12) 0.1849(4) 0.2315(3)
H8 H 0.0095 0.1330 0.1826
C10 C 0.06595(13) 0.1287(3) 0.3321(3)
H9 H 0.0600 0.0374 0.3507
C11 C 0.10474(11) 0.2054(3) 0.4065(3)
H10 H 0.1242 0.1662 0.4751
C12 C 0.11463(10) 0.3406(3) 0.3786(2)
C13 C 0.20336(10) 0.3788(2) 0.5153(2)
C14 C 0.23291(10) 0.2713(2) 0.4714(2)
H11 H 0.2175 0.2271 0.4016
C15 C 0.22814(12) 0.4412(3) 0.6211(2)
H12 H 0.2091 0.5120 0.6533
C16 C 0.27989(11) 0.4007(3) 0.6786(2)
H13 H 0.2953 0.4449 0.7484
C17 C 0.28456(10) 0.2295(2) 0.5297(2)
H14 H 0.3031 0.1567 0.4991
C18 C 0.30963(10) 0.2938(2) 0.6335(2)
C19 C 0.36419(9) 0.2514(2) 0.6974(2)
C20 C 0.43913(9) 0.2350(2) 0.82809(19)
C21 C 0.44322(9) 0.1341(2) 0.7416(2)
C22 C 0.48198(9) 0.2496(2) 0.9240(2)
H15 H 0.4798 0.3169 0.9814
C23 C 0.48958(10) 0.0468(2) 0.7487(2)
H16 H 0.4921 -0.0201 0.6911
C24 C 0.53130(10) 0.0629(3) 0.8435(2)
H17 H 0.5629 0.0065 0.8494
C25 C 0.52779(9) 0.1620(2) 0.9322(2)
C26 C 0.60606(10) 0.0911(2) 1.0662(2)
H18 H 0.6035 0.0080 1.0255
C27 C 0.65071(10) 0.1080(2) 1.1674(2)
C28 C 0.64762(13) 0.2042(3) 1.2553(3)
H19 H 0.6168 0.2632 1.2511
C29 C 0.69665(12) 0.0241(3) 1.1789(3)
H20 H 0.6999 -0.0434 1.1222
C30 C 0.69038(16) 0.2118(4) 1.3488(3)
H21 H 0.6874 0.2771 1.4074
C31 C 0.73881(14) 0.0403(4) 1.2765(4)
H22 H 0.7704 -0.0163 1.2818
N1 N 0.15201(8) 0.4257(2) 0.45448(19)
N2 N 0.38932(8) 0.30790(18) 0.79793(18)
N3 N 0.39516(8) 0.14574(19) 0.65940(16)
N4 N 0.57074(8) 0.1841(2) 1.03141(17)
N5 N 0.73620(12) 0.1318(4) 1.3617(3)
H23 H 0.3880(14) 0.465(4) 0.900(3)
H24 H 0.4020(13) 0.597(4) 0.947(3)
O1 O 0.38560(10) 0.5241(2) 0.96088(18)
loop_
_geom_bond_atom_site_label_1
_geom_bond_atom_site_label_2
_geom_bond_site_symmetry_1
_geom_bond_site_symmetry_2
C1 H1 1_555 1_555
C2 C1 1_555 1_555
H2 C2 1_555 1_555
C3 C2 1_555 1_555
H3 C3 1_555 1_555
C4 C3 1_555 1_555
H4 C4 1_555 1_555
C5 C4 1_555 1_555
H5 C5 1_555 1_555
C6 C1 1_555 1_555
C7 H6 1_555 1_555
C8 C7 1_555 1_555
H7 C8 1_555 1_555
C9 C8 1_555 1_555
H8 C9 1_555 1_555
C10 C9 1_555 1_555
H9 C10 1_555 1_555
C11 C10 1_555 1_555
H10 C11 1_555 1_555
C12 C7 1_555 1_555
C13 C14 1_555 1_555
C14 H11 1_555 1_555
C15 C13 1_555 1_555
H12 C15 1_555 1_555
C16 C15 1_555 1_555
H13 C16 1_555 1_555
C17 C14 1_555 1_555
H14 C17 1_555 1_555
C18 C16 1_555 1_555
C19 C18 1_555 1_555
C20 C21 1_555 1_555
C21 C23 1_555 1_555
C22 C20 1_555 1_555
H15 C22 1_555 1_555
C23 H16 1_555 1_555
C24 C23 1_555 1_555
H17 C24 1_555 1_555
C25 C22 1_555 1_555
C26 H18 1_555 1_555
C27 C26 1_555 1_555
C28 C27 1_555 1_555
H19 C28 1_555 1_555
C29 C27 1_555 1_555
H20 C29 1_555 1_555
C30 C28 1_555 1_555
H21 C30 1_555 1_555
C31 C29 1_555 1_555
H22 C31 1_555 1_555
N1 C6 1_555 1_555
N2 C19 1_555 1_555
N3 C19 1_555 1_555
N4 C25 1_555 1_555
N5 C30 1_555 1_555
H23 O1 1_555 1_555
H24 O1 1_555 1_555
C5 C6 1_555 1_555
C11 C12 1_555 1_555
C12 N1 1_555 1_555
C13 N1 1_555 1_555
C17 C18 1_555 1_555
C20 N2 1_555 1_555
C21 N3 1_555 1_555
C24 C25 1_555 1_555
C26 N4 1_555 1_555
C31 N5 1_555 1_555

#END
