
#######################################################################
#
#                 Cambridge Crystallographic Data Centre
#                                CCDC 
#
#######################################################################
#
# If this CIF has been generated from an entry in the Cambridge 
# Structural Database, then it will include bibliographic, chemical, 
# crystal, experimental, refinement or atomic coordinate data resulting 
# from the CCDC's data processing and validation procedures.
#
#######################################################################

data_MIXTIX
_chemical_name_common            Monoethylformononetin
_chemical_formula_moiety         'C18 H16 O4'
_chemical_name_systematic        7-Ethoxy-4'-methoxyisoflavone
_chemical_properties_biological  'potential medical applications'
_symmetry_cell_setting           triclinic
_symmetry_space_group_name_H-M   'P -1'
_symmetry_Int_Tables_number      2
_space_group_name_Hall           '-P 1'
loop_
_symmetry_equiv_pos_site_id
_symmetry_equiv_pos_as_xyz
1 x,y,z
2 -x,-y,-z
_cell_length_a                   6.234(3)
_cell_length_b                   10.257(5)
_cell_length_c                   12.159(6)
_cell_angle_alpha                80.837(7)
_cell_angle_beta                 87.728(8)
_cell_angle_gamma                73.653(7)
_cell_volume                     736.512
_exptl_crystal_colour            colorless
_exptl_crystal_description       hexagonal
_cell_formula_units_Z            2
_exptl_crystal_recrystallization_method ethanol
loop_
_atom_site_label
_atom_site_type_symbol
_atom_site_fract_x
_atom_site_fract_y
_atom_site_fract_z
O1 O 0.4540(2) 0.17252(13) 0.40797(10)
O2 O -0.17446(17) 0.70638(13) 0.09853(9)
O3 O 0.36722(16) 0.77566(12) -0.07427(9)
O4 O -0.0813(2) 1.17079(13) -0.30131(10)
C1 C 0.6401(4) 0.1505(2) 0.48100(17)
H1 H 0.7738 0.1451 0.4379
H2 H 0.6568 0.0660 0.5314
H3 H 0.6143 0.2254 0.5227
C2 C 0.4019(3) 0.29134(18) 0.33118(13)
C3 C 0.5249(3) 0.3858(2) 0.31458(14)
H4 H 0.6505 0.3730 0.3583
C4 C 0.4600(3) 0.49962(18) 0.23260(13)
H5 H 0.5444 0.5622 0.2219
C5 C 0.2730(3) 0.52354(17) 0.16568(13)
C6 C 0.1484(3) 0.42862(17) 0.18588(13)
H6 H 0.0202 0.4425 0.1439
C7 C 0.2120(3) 0.31489(18) 0.26689(13)
H7 H 0.1264 0.2529 0.2787
C8 C 0.2177(2) 0.64102(16) 0.07294(12)
C9 C 0.3870(3) 0.67076(17) 0.01147(13)
H8 H 0.5303 0.6143 0.0294
C10 C 0.1585(2) 0.85994(16) -0.10328(12)
C11 C -0.0298(2) 0.83924(16) -0.04665(12)
C12 C -0.0106(2) 0.72643(17) 0.04624(12)
C13 C 0.1508(3) 0.96676(18) -0.19021(13)
H9 H 0.2807 0.9761 -0.2269
C14 C -0.0519(3) 1.05814(17) -0.22079(13)
C15 C -0.2471(3) 1.04083(18) -0.16642(14)
H10 H -0.3851 1.1025 -0.1875
C16 C -0.2340(3) 0.93317(18) -0.08245(14)
H11 H -0.3648 0.9219 -0.0480
C17 C 0.1156(3) 1.2050(2) -0.34750(15)
H12 H 0.1971 1.1364 -0.3918
H13 H 0.2131 1.2079 -0.2882
C18 C 0.0418(4) 1.3431(2) -0.41900(17)
H14 H -0.0447 1.3373 -0.4807
H15 H 0.1706 1.3717 -0.4463
H16 H -0.0479 1.4088 -0.3757
loop_
_geom_bond_atom_site_label_1
_geom_bond_atom_site_label_2
_geom_bond_site_symmetry_1
_geom_bond_site_symmetry_2
O1 C1 1_555 1_555
O2 C12 1_555 1_555
O3 C9 1_555 1_555
O4 C14 1_555 1_555
C1 H1 1_555 1_555
H2 C1 1_555 1_555
H3 C1 1_555 1_555
C2 O1 1_555 1_555
C3 C2 1_555 1_555
H4 C3 1_555 1_555
C4 C3 1_555 1_555
H5 C4 1_555 1_555
C5 C4 1_555 1_555
C6 C5 1_555 1_555
H6 C6 1_555 1_555
C7 C2 1_555 1_555
H7 C7 1_555 1_555
C8 C5 1_555 1_555
C9 C8 1_555 1_555
H8 C9 1_555 1_555
C10 O3 1_555 1_555
C11 C10 1_555 1_555
C12 C8 1_555 1_555
C13 C10 1_555 1_555
H9 C13 1_555 1_555
C14 C13 1_555 1_555
C15 C14 1_555 1_555
H10 C15 1_555 1_555
C16 C11 1_555 1_555
H11 C16 1_555 1_555
C17 O4 1_555 1_555
H12 C17 1_555 1_555
H13 C17 1_555 1_555
C18 C17 1_555 1_555
H14 C18 1_555 1_555
H15 C18 1_555 1_555
H16 C18 1_555 1_555
C6 C7 1_555 1_555
C11 C12 1_555 1_555
C15 C16 1_555 1_555

#END
