
#######################################################################
#
#                 Cambridge Crystallographic Data Centre
#                                CCDC 
#
#######################################################################
#
# If this CIF has been generated from an entry in the Cambridge 
# Structural Database, then it will include bibliographic, chemical, 
# crystal, experimental, refinement or atomic coordinate data resulting 
# from the CCDC's data processing and validation procedures.
#
#######################################################################

data_MIXVOG
_chemical_formula_moiety         'C11 H7 Cl1 F3 N1 O2'
_chemical_name_systematic        
'methyl 6-chloro-2-(trifluoromethyl)-1H-indole-3-carboxylate'
_symmetry_cell_setting           monoclinic
_symmetry_space_group_name_H-M   'P 21/c'
_symmetry_Int_Tables_number      14
_space_group_name_Hall           '-P 2ybc'
loop_
_symmetry_equiv_pos_site_id
_symmetry_equiv_pos_as_xyz
1 x,y,z
2 -x,1/2+y,1/2-z
3 -x,-y,-z
4 x,1/2-y,1/2+z
_cell_length_a                   8.344(3)
_cell_length_b                   10.685(4)
_cell_length_c                   12.918(5)
_cell_angle_alpha                90
_cell_angle_beta                 97.710(4)
_cell_angle_gamma                90
_cell_volume                     1141.3
_cell_formula_units_Z            4
loop_
_atom_site_label
_atom_site_type_symbol
_atom_site_fract_x
_atom_site_fract_y
_atom_site_fract_z
C1 C 0.4084(2) 1.08649(19) 0.28478(16)
C2 C 0.4333(2) 1.14352(19) 0.19121(17)
H1 H 0.4940 1.2166 0.1925
C3 C 0.3690(2) 1.09269(18) 0.09699(16)
H2 H 0.3862 1.1305 0.0346
C4 C 0.2773(2) 0.98310(16) 0.09663(13)
C5 C 0.2579(2) 0.92738(16) 0.19276(13)
C6 C 0.3222(2) 0.97786(18) 0.28884(14)
H3 H 0.3075 0.9402 0.3518
C7 C 0.1929(2) 0.90479(16) 0.01665(13)
C8 C 0.1284(2) 0.80780(16) 0.06767(14)
C9 C 0.0288(2) 0.69793(19) 0.02751(15)
C10 C 0.1765(2) 0.92170(18) -0.09662(14)
C11 C 0.2010(3) 1.0659(2) -0.23248(16)
H4 H 0.2791 1.0165 -0.2624
H5 H 0.2229 1.1531 -0.2417
H6 H 0.0944 1.0465 -0.2665
Cl1 Cl 0.49171(8) 1.15695(6) 0.40135(5)
F1 F -0.09147(17) 0.72643(14) -0.04502(11)
F2 F 0.11506(17) 0.61145(13) -0.01310(14)
F3 F -0.03704(19) 0.64330(13) 0.10445(11)
N1 N 0.16642(18) 0.82119(14) 0.17242(11)
H7 H 0.1378 0.7712 0.2188
O1 O 0.1370(2) 0.84085(14) -0.15956(11)
O2 O 0.21072(19) 1.03830(13) -0.12214(10)
loop_
_geom_bond_atom_site_label_1
_geom_bond_atom_site_label_2
_geom_bond_site_symmetry_1
_geom_bond_site_symmetry_2
C1 C2 1_555 1_555
C2 H1 1_555 1_555
C3 C2 1_555 1_555
H2 C3 1_555 1_555
C4 C3 1_555 1_555
C5 C4 1_555 1_555
C6 C1 1_555 1_555
H3 C6 1_555 1_555
C7 C4 1_555 1_555
C8 C7 1_555 1_555
C9 C8 1_555 1_555
C10 C7 1_555 1_555
C11 H4 1_555 1_555
H5 C11 1_555 1_555
H6 C11 1_555 1_555
Cl1 C1 1_555 1_555
F1 C9 1_555 1_555
F2 C9 1_555 1_555
F3 C9 1_555 1_555
N1 C5 1_555 1_555
H7 N1 1_555 1_555
O1 C10 1_555 1_555
O2 C10 1_555 1_555
C5 C6 1_555 1_555
C8 N1 1_555 1_555
C11 O2 1_555 1_555

#END
