
#######################################################################
#
#                 Cambridge Crystallographic Data Centre
#                                CCDC 
#
#######################################################################
#
# If this CIF has been generated from an entry in the Cambridge 
# Structural Database, then it will include bibliographic, chemical, 
# crystal, experimental, refinement or atomic coordinate data resulting 
# from the CCDC's data processing and validation procedures.
#
#######################################################################

data_MIXWUN
_chemical_formula_moiety         'C4 I4 N6'
_chemical_name_systematic        3,3',5,5'-tetraiodo-4,4'-bi-1,2,4-triazole
_symmetry_cell_setting           monoclinic
_symmetry_space_group_name_H-M   'P 21/c'
_symmetry_Int_Tables_number      14
_space_group_name_Hall           '-P 2ybc'
loop_
_symmetry_equiv_pos_site_id
_symmetry_equiv_pos_as_xyz
1 x,y,z
2 -x,1/2+y,1/2-z
3 -x,-y,-z
4 x,1/2-y,1/2+z
_cell_length_a                   9.1649(14)
_cell_length_b                   10.8219(15)
_cell_length_c                   13.1440(18)
_cell_angle_alpha                90
_cell_angle_beta                 90.540(7)
_cell_angle_gamma                90
_cell_volume                     1303.59
_exptl_crystal_colour            colorless
_exptl_crystal_description       prism
_cell_formula_units_Z            4
loop_
_atom_site_label
_atom_site_type_symbol
_atom_site_fract_x
_atom_site_fract_y
_atom_site_fract_z
I1 I 0.16547(4) 0.38209(3) 0.05296(3)
I2 I 0.26696(4) 0.74427(3) 0.40591(3)
I3 I -0.17084(5) 0.57110(3) 0.27226(3)
I4 I 0.42601(4) 0.34221(3) 0.34740(3)
N1 N 0.1963(4) 0.5549(3) 0.2381(3)
N2 N 0.2771(5) 0.6372(4) 0.0985(3)
N3 N 0.3022(5) 0.7203(3) 0.1795(3)
N4 N 0.1352(5) 0.4729(3) 0.3048(3)
N5 N -0.0211(5) 0.3832(4) 0.4052(4)
N6 N 0.1170(5) 0.3341(4) 0.4243(4)
C1 C 0.2150(6) 0.5398(4) 0.1342(3)
C2 C 0.2552(6) 0.6702(4) 0.2616(4)
C3 C -0.0078(6) 0.4672(4) 0.3340(4)
C4 C 0.2086(6) 0.3867(5) 0.3638(4)
loop_
_geom_bond_atom_site_label_1
_geom_bond_atom_site_label_2
_geom_bond_site_symmetry_1
_geom_bond_site_symmetry_2
I1 C1 1_555 1_555
I2 C2 1_555 1_555
I3 C3 1_555 1_555
I4 C4 1_555 1_555
N1 N4 1_555 1_555
N2 N3 1_555 1_555
N3 C2 1_555 1_555
N4 C3 1_555 1_555
N5 N6 1_555 1_555
N6 C4 1_555 1_555
C1 N1 1_555 1_555
C2 N1 1_555 1_555
C3 N5 1_555 1_555
C4 N4 1_555 1_555
N2 C1 1_555 1_555

#END
