
#######################################################################
#
#                 Cambridge Crystallographic Data Centre
#                                CCDC 
#
#######################################################################
#
# If this CIF has been generated from an entry in the Cambridge 
# Structural Database, then it will include bibliographic, chemical, 
# crystal, experimental, refinement or atomic coordinate data resulting 
# from the CCDC's data processing and validation procedures.
#
#######################################################################

data_MIYDIH
_chemical_formula_moiety         'C26 H17 N1 O3'
_chemical_name_systematic        
1-Acetyl-3-(1-benzoyl-3-phenyl-2-propyn-1-ylidene)-3H-indol-2-one
_symmetry_cell_setting           triclinic
_symmetry_space_group_name_H-M   'P -1'
_symmetry_Int_Tables_number      2
_space_group_name_Hall           '-P 1'
loop_
_symmetry_equiv_pos_site_id
_symmetry_equiv_pos_as_xyz
1 x,y,z
2 -x,-y,-z
_cell_length_a                   8.5729(4)
_cell_length_b                   9.3557(4)
_cell_length_c                   13.7085(6)
_cell_angle_alpha                107.2840(10)
_cell_angle_beta                 99.7740(10)
_cell_angle_gamma                102.6440(10)
_cell_volume                     991.325
_exptl_crystal_colour            yellow
_exptl_crystal_description       needle
_chemical_melting_point          462K
_cell_formula_units_Z            2
_exptl_crystal_recrystallization_method '2:1 acetone/petroleum ether'
loop_
_atom_site_label
_atom_site_type_symbol
_atom_site_fract_x
_atom_site_fract_y
_atom_site_fract_z
N1 N 0.6265(2) 0.1992(2) 0.04026(14)
O1 O 0.4220(2) 0.3275(2) 0.05543(14)
O2 O 0.7558(3) 0.1425(3) -0.08983(15)
O3 O 0.6362(2) 0.4301(2) 0.44930(13)
C1 C 0.5184(3) 0.2707(2) 0.09268(17)
C2 C 0.7232(3) 0.1469(2) 0.11006(17)
C3 C 0.8388(3) 0.0668(3) 0.0918(2)
H1 H 0.8627 0.0380 0.0263
C4 C 0.9181(4) 0.0307(3) 0.1744(2)
H2 H 0.9966 -0.0231 0.1639
C5 C 0.8831(3) 0.0728(4) 0.2711(2)
H3 H 0.9393 0.0485 0.3254
C6 C 0.7656(3) 0.1507(3) 0.2889(2)
H4 H 0.7412 0.1779 0.3543
C7 C 0.6848(3) 0.1877(2) 0.20741(17)
C8 C 0.5551(3) 0.2645(2) 0.20088(16)
C9 C 0.4742(3) 0.3200(2) 0.27330(17)
C10 C 0.5229(3) 0.3243(2) 0.38685(16)
C11 C 0.4229(3) 0.2003(2) 0.41530(16)
C12 C 0.3192(3) 0.0643(3) 0.33816(17)
H5 H 0.3090 0.0519 0.2673
C13 C 0.2310(3) -0.0526(3) 0.36567(19)
H6 H 0.1640 -0.1452 0.3137
C14 C 0.2427(4) -0.0318(3) 0.4709(2)
H7 H 0.1806 -0.1095 0.4895
C15 C 0.3446(3) 0.1020(3) 0.5479(2)
H8 H 0.3517 0.1145 0.6185
C16 C 0.4369(3) 0.2186(3) 0.52146(18)
H9 H 0.5079 0.3087 0.5740
C17 C 0.3417(3) 0.3830(3) 0.25509(18)
C18 C 0.2260(3) 0.4358(3) 0.25216(19)
C19 C 0.0901(3) 0.4988(3) 0.24792(19)
C20 C 0.0166(3) 0.5209(3) 0.1569(2)
H10 H 0.0564 0.4932 0.0970
C21 C -0.1139(4) 0.5832(4) 0.1551(3)
H11 H -0.1609 0.5995 0.0945
C22 C -0.1755(3) 0.6215(3) 0.2421(3)
H12 H -0.2655 0.6619 0.2399
C23 C -0.1055(3) 0.6009(3) 0.3322(3)
H13 H -0.1470 0.6287 0.3914
C24 C 0.0255(3) 0.5397(3) 0.3359(2)
H14 H 0.0719 0.5252 0.3974
C25 C 0.6486(3) 0.1953(3) -0.05876(17)
C26 C 0.5448(4) 0.2588(4) -0.1222(2)
H15 H 0.4306 0.2043 -0.1346
H16 H 0.5730 0.2453 -0.1886
H17 H 0.5633 0.3680 -0.0849
loop_
_geom_bond_atom_site_label_1
_geom_bond_atom_site_label_2
_geom_bond_site_symmetry_1
_geom_bond_site_symmetry_2
N1 C1 1_555 1_555
O1 C1 1_555 1_555
O2 C25 1_555 1_555
O3 C10 1_555 1_555
C1 C8 1_555 1_555
C2 N1 1_555 1_555
C3 C2 1_555 1_555
H1 C3 1_555 1_555
C4 C3 1_555 1_555
H2 C4 1_555 1_555
C5 C4 1_555 1_555
H3 C5 1_555 1_555
C6 C5 1_555 1_555
H4 C6 1_555 1_555
C7 C2 1_555 1_555
C8 C7 1_555 1_555
C9 C8 1_555 1_555
C10 C9 1_555 1_555
C11 C10 1_555 1_555
C12 C11 1_555 1_555
H5 C12 1_555 1_555
C13 C12 1_555 1_555
H6 C13 1_555 1_555
C14 C13 1_555 1_555
H7 C14 1_555 1_555
C15 C14 1_555 1_555
H8 C15 1_555 1_555
C16 C11 1_555 1_555
H9 C16 1_555 1_555
C17 C9 1_555 1_555
C18 C17 1_555 1_555
C19 C18 1_555 1_555
C20 C19 1_555 1_555
H10 C20 1_555 1_555
C21 C20 1_555 1_555
H11 C21 1_555 1_555
C22 C21 1_555 1_555
H12 C22 1_555 1_555
C23 C22 1_555 1_555
H13 C23 1_555 1_555
C24 C19 1_555 1_555
H14 C24 1_555 1_555
C25 N1 1_555 1_555
C26 C25 1_555 1_555
H15 C26 1_555 1_555
H16 C26 1_555 1_555
H17 C26 1_555 1_555
C6 C7 1_555 1_555
C15 C16 1_555 1_555
C23 C24 1_555 1_555

#END
