
#######################################################################
#
#                 Cambridge Crystallographic Data Centre
#                                CCDC 
#
#######################################################################
#
# If this CIF has been generated from an entry in the Cambridge 
# Structural Database, then it will include bibliographic, chemical, 
# crystal, experimental, refinement or atomic coordinate data resulting 
# from the CCDC's data processing and validation procedures.
#
#######################################################################

data_MIYHAD
_chemical_formula_moiety         'C52 H58 N2 P2'
_chemical_name_systematic        
(R)-2,2'-bis(bis(3,5-Dimethylphenyl)phosphinoamino)-5,5',6,6',7,7',8,8'-octahydro-1,1'-binaphthyl
_symmetry_cell_setting           orthorhombic
_symmetry_space_group_name_H-M   'P 21 21 21'
_symmetry_Int_Tables_number      19
_space_group_name_Hall           'P 2ac 2ab'
loop_
_symmetry_equiv_pos_site_id
_symmetry_equiv_pos_as_xyz
1 x,y,z
2 1/2-x,-y,1/2+z
3 -x,1/2+y,1/2-z
4 1/2+x,1/2-y,-z
_cell_length_a                   10.1595(12)
_cell_length_b                   19.961(2)
_cell_length_c                   22.360(3)
_cell_angle_alpha                90
_cell_angle_beta                 90
_cell_angle_gamma                90
_cell_volume                     4534.47
_exptl_crystal_colour            colorless
_exptl_crystal_description       prism
_cell_formula_units_Z            4
_exptl_crystal_recrystallization_method 'diethyl ether'
loop_
_atom_site_label
_atom_site_type_symbol
_atom_site_fract_x
_atom_site_fract_y
_atom_site_fract_z
P1 P 0.03763(11) 0.12584(5) 0.17884(5)
P2 P 0.36366(12) 0.27424(6) 0.35576(6)
N1 N 0.1484(3) 0.18901(15) 0.17365(15)
H1 H 0.1941 0.1794 0.1423
N2 N 0.3263(3) 0.28799(14) 0.28226(15)
H2 H 0.3186 0.3308 0.2791
C1 C 0.1181(4) 0.25710(19) 0.16662(17)
C2 C -0.0110(4) 0.2796(2) 0.15880(18)
H3 H -0.0800 0.2491 0.1566
C3 C -0.0352(4) 0.3465(2) 0.15447(18)
H4 H -0.1216 0.3608 0.1491
C4 C 0.0634(5) 0.3942(2) 0.1577(2)
C5 C 0.0278(5) 0.4670(2) 0.1542(3)
H5 H 0.0047 0.4778 0.1132
H6 H -0.0492 0.4749 0.1788
C6 C 0.1309(7) 0.5107(3) 0.1733(3)
H7 H 0.1379 0.5451 0.1428
H8 H 0.0988 0.5327 0.2091
C7 C 0.2574(7) 0.4910(3) 0.1857(3)
H9 H 0.2716 0.4982 0.2282
H10 H 0.3158 0.5214 0.1647
C8 C 0.3027(4) 0.4212(2) 0.1719(2)
H11 H 0.3595 0.4057 0.2039
H12 H 0.3542 0.4219 0.1354
C9 C 0.1902(4) 0.3721(2) 0.16454(18)
C10 C 0.2210(4) 0.3046(2) 0.16855(18)
C11 C 0.3557(4) 0.27871(18) 0.1761(2)
C12 C 0.4061(4) 0.2695(2) 0.2340(2)
C13 C 0.5300(4) 0.24241(19) 0.2412(2)
H13 H 0.5651 0.2384 0.2794
C14 C 0.6027(4) 0.2211(2) 0.1926(2)
H14 H 0.6843 0.2011 0.1986
C15 C 0.5559(4) 0.2293(2) 0.1354(2)
C16 C 0.6366(4) 0.2054(2) 0.0826(2)
H15 H 0.7012 0.2394 0.0727
H16 H 0.6838 0.1651 0.0940
C17 C 0.5562(5) 0.1909(3) 0.0287(2)
H17 H 0.6144 0.1833 -0.0050
H18 H 0.5065 0.1501 0.0353
C18 C 0.4655(5) 0.2446(3) 0.0138(2)
H19 H 0.4115 0.2303 -0.0196
H20 H 0.5161 0.2831 0.0008
C19 C 0.3748(4) 0.2664(2) 0.06478(19)
H21 H 0.3519 0.3131 0.0590
H22 H 0.2942 0.2405 0.0626
C20 C 0.4325(4) 0.25831(18) 0.1263(2)
C21 C 0.0238(5) 0.09310(18) 0.10322(19)
C22 C -0.0922(4) 0.0626(2) 0.0866(2)
H23 H -0.1586 0.0577 0.1149
C23 C -0.1132(5) 0.0389(3) 0.0293(2)
C24 C -0.0144(5) 0.0469(2) -0.0127(2)
H24 H -0.0276 0.0315 -0.0515
C25 C 0.1037(5) 0.0773(2) 0.0019(2)
C26 C 0.1216(4) 0.09954(19) 0.0599(2)
H25 H 0.2012 0.1194 0.0703
C27 C -0.2443(4) 0.0069(3) 0.0116(2)
H26 H -0.2507 -0.0368 0.0292
H27 H -0.2489 0.0031 -0.0312
H28 H -0.3155 0.0343 0.0256
C28 C 0.2096(5) 0.0882(2) -0.04485(19)
H29 H 0.2177 0.0487 -0.0691
H30 H 0.2920 0.0971 -0.0254
H31 H 0.1862 0.1256 -0.0696
C29 C 0.1477(4) 0.0647(2) 0.21294(19)
C30 C 0.1507(4) -0.0023(2) 0.1956(2)
H32 H 0.0996 -0.0160 0.1634
C31 C 0.2268(5) -0.0488(2) 0.2248(2)
C32 C 0.3053(4) -0.0269(2) 0.2719(2)
H33 H 0.3599 -0.0578 0.2907
C33 C 0.3061(4) 0.0394(3) 0.2923(2)
C34 C 0.2247(4) 0.0838(2) 0.2614(2)
H34 H 0.2218 0.1282 0.2739
C35 C 0.2292(4) -0.12072(19) 0.2051(2)
H35 H 0.1407 -0.1371 0.2017
H36 H 0.2764 -0.1471 0.2339
H37 H 0.2721 -0.1240 0.1669
C36 C 0.3896(4) 0.0629(2) 0.3426(2)
H38 H 0.3384 0.0910 0.3686
H39 H 0.4628 0.0879 0.3271
H40 H 0.4215 0.0250 0.3647
C37 C 0.1976(4) 0.2814(2) 0.3862(2)
C38 C 0.1722(5) 0.3129(2) 0.4398(2)
H41 H 0.2407 0.3346 0.4594
C39 C 0.0496(7) 0.3132(3) 0.4651(3)
C40 C -0.0517(5) 0.2807(3) 0.4366(3)
H42 H -0.1347 0.2808 0.4541
C41 C -0.0344(6) 0.2479(2) 0.3826(3)
C42 C 0.0917(5) 0.2493(2) 0.3581(2)
H43 H 0.1061 0.2281 0.3216
C43 C 0.0258(5) 0.3503(3) 0.5240(2)
H44 H 0.0846 0.3334 0.5541
H45 H -0.0635 0.3435 0.5366
H46 H 0.0415 0.3973 0.5184
C44 C -0.1450(5) 0.2115(2) 0.3512(3)
H47 H -0.2279 0.2293 0.3641
H48 H -0.1408 0.1646 0.3606
H49 H -0.1363 0.2174 0.3087
C45 C 0.4383(4) 0.3516(2) 0.3825(2)
C46 C 0.5125(4) 0.3476(2) 0.4342(2)
H50 H 0.5211 0.3063 0.4530
C47 C 0.5742(5) 0.4026(3) 0.4588(3)
C48 C 0.5647(5) 0.4627(3) 0.4275(3)
H51 H 0.6081 0.5002 0.4424
C49 C 0.4935(5) 0.4692(3) 0.3751(3)
C50 C 0.4291(4) 0.4125(3) 0.3537(2)
H52 H 0.3785 0.4158 0.3192
C51 C 0.6505(5) 0.3998(3) 0.5156(3)
H53 H 0.6046 0.4243 0.5461
H54 H 0.7358 0.4193 0.5095
H55 H 0.6603 0.3540 0.5279
C52 C 0.4800(5) 0.5356(2) 0.3433(2)
H56 H 0.3899 0.5500 0.3447
H57 H 0.5071 0.5308 0.3024
H58 H 0.5346 0.5683 0.3627
loop_
_geom_bond_atom_site_label_1
_geom_bond_atom_site_label_2
_geom_bond_site_symmetry_1
_geom_bond_site_symmetry_2
P1 N1 1_555 1_555
P2 N2 1_555 1_555
N1 H1 1_555 1_555
N2 H2 1_555 1_555
C1 N1 1_555 1_555
C2 C1 1_555 1_555
H3 C2 1_555 1_555
C3 C2 1_555 1_555
H4 C3 1_555 1_555
C4 C3 1_555 1_555
C5 C4 1_555 1_555
H5 C5 1_555 1_555
H6 C5 1_555 1_555
C6 C5 1_555 1_555
H7 C6 1_555 1_555
H8 C6 1_555 1_555
C7 C6 1_555 1_555
H9 C7 1_555 1_555
H10 C7 1_555 1_555
C8 C7 1_555 1_555
H11 C8 1_555 1_555
H12 C8 1_555 1_555
C9 C4 1_555 1_555
C10 C1 1_555 1_555
C11 C10 1_555 1_555
C12 N2 1_555 1_555
C13 C12 1_555 1_555
H13 C13 1_555 1_555
C14 C13 1_555 1_555
H14 C14 1_555 1_555
C15 C14 1_555 1_555
C16 C15 1_555 1_555
H15 C16 1_555 1_555
H16 C16 1_555 1_555
C17 C16 1_555 1_555
H17 C17 1_555 1_555
H18 C17 1_555 1_555
C18 C17 1_555 1_555
H19 C18 1_555 1_555
H20 C18 1_555 1_555
C19 C18 1_555 1_555
H21 C19 1_555 1_555
H22 C19 1_555 1_555
C20 C11 1_555 1_555
C21 P1 1_555 1_555
C22 C21 1_555 1_555
H23 C22 1_555 1_555
C23 C22 1_555 1_555
C24 C23 1_555 1_555
H24 C24 1_555 1_555
C25 C24 1_555 1_555
C26 C21 1_555 1_555
H25 C26 1_555 1_555
C27 C23 1_555 1_555
H26 C27 1_555 1_555
H27 C27 1_555 1_555
H28 C27 1_555 1_555
C28 C25 1_555 1_555
H29 C28 1_555 1_555
H30 C28 1_555 1_555
H31 C28 1_555 1_555
C29 P1 1_555 1_555
C30 C29 1_555 1_555
H32 C30 1_555 1_555
C31 C30 1_555 1_555
C32 C31 1_555 1_555
H33 C32 1_555 1_555
C33 C32 1_555 1_555
C34 C29 1_555 1_555
H34 C34 1_555 1_555
C35 C31 1_555 1_555
H35 C35 1_555 1_555
H36 C35 1_555 1_555
H37 C35 1_555 1_555
C36 C33 1_555 1_555
H38 C36 1_555 1_555
H39 C36 1_555 1_555
H40 C36 1_555 1_555
C37 P2 1_555 1_555
C38 C37 1_555 1_555
H41 C38 1_555 1_555
C39 C38 1_555 1_555
C40 C39 1_555 1_555
H42 C40 1_555 1_555
C41 C40 1_555 1_555
C42 C37 1_555 1_555
H43 C42 1_555 1_555
C43 C39 1_555 1_555
H44 C43 1_555 1_555
H45 C43 1_555 1_555
H46 C43 1_555 1_555
C44 C41 1_555 1_555
H47 C44 1_555 1_555
H48 C44 1_555 1_555
H49 C44 1_555 1_555
C45 P2 1_555 1_555
C46 C45 1_555 1_555
H50 C46 1_555 1_555
C47 C46 1_555 1_555
C48 C47 1_555 1_555
H51 C48 1_555 1_555
C49 C48 1_555 1_555
C50 C45 1_555 1_555
H52 C50 1_555 1_555
C51 C47 1_555 1_555
H53 C51 1_555 1_555
H54 C51 1_555 1_555
H55 C51 1_555 1_555
C52 C49 1_555 1_555
H56 C52 1_555 1_555
H57 C52 1_555 1_555
H58 C52 1_555 1_555
C8 C9 1_555 1_555
C9 C10 1_555 1_555
C11 C12 1_555 1_555
C15 C20 1_555 1_555
C19 C20 1_555 1_555
C25 C26 1_555 1_555
C33 C34 1_555 1_555
C41 C42 1_555 1_555
C49 C50 1_555 1_555

#END
