
#######################################################################
#
#                 Cambridge Crystallographic Data Centre
#                                CCDC 
#
#######################################################################
#
# If this CIF has been generated from an entry in the Cambridge 
# Structural Database, then it will include bibliographic, chemical, 
# crystal, experimental, refinement or atomic coordinate data resulting 
# from the CCDC's data processing and validation procedures.
#
#######################################################################

data_MIYNOX
_chemical_formula_moiety         'C18 F15 Te1 1+,C1 F3 O3 S1 1-'
_chemical_name_systematic        
'tris(Pentafluorophenyl)tellurium trifluoromethanesulfonate'
_symmetry_cell_setting           monoclinic
_symmetry_space_group_name_H-M   'P 21/n'
_symmetry_Int_Tables_number      14
_space_group_name_Hall           '-P 2yn'
loop_
_symmetry_equiv_pos_site_id
_symmetry_equiv_pos_as_xyz
1 x,y,z
2 1/2+x,1/2-y,1/2+z
3 -x,-y,-z
4 1/2-x,1/2+y,1/2-z
_cell_length_a                   15.897(2)
_cell_length_b                   15.8595(14)
_cell_length_c                   37.441(5)
_cell_angle_alpha                90
_cell_angle_beta                 101.925(16)
_cell_angle_gamma                90
_cell_volume                     9235.85
_exptl_crystal_description       polyhedron
_chemical_melting_point          '242-243 deg.C(dec.)'
_cell_formula_units_Z            16
_exptl_crystal_recrystallization_method dichloromethane
loop_
_atom_site_label
_atom_site_type_symbol
_atom_site_fract_x
_atom_site_fract_y
_atom_site_fract_z
Te1 Te 0.45558(7) 0.35534(7) 0.51199(3)
C1 C 0.5730(11) 0.3538(12) 0.5514(5)
C2 C 0.6290(12) 0.2838(12) 0.5593(5)
F1 F 0.6104(6) 0.2069(6) 0.5466(3)
C3 C 0.7142(13) 0.2964(13) 0.5808(5)
F2 F 0.7638(7) 0.2307(7) 0.5883(3)
C4 C 0.7356(13) 0.3732(13) 0.5932(6)
F3 F 0.8158(7) 0.3871(7) 0.6139(3)
C5 C 0.6825(13) 0.4417(12) 0.5857(5)
F4 F 0.7075(7) 0.5202(7) 0.5969(3)
C6 C 0.6008(12) 0.4324(12) 0.5648(5)
F5 F 0.5472(6) 0.4973(5) 0.5566(3)
C7 C 0.3679(10) 0.3499(10) 0.5466(4)
C8 C 0.3866(11) 0.3452(11) 0.5848(5)
F6 F 0.4644(6) 0.3426(7) 0.6047(3)
C9 C 0.3157(12) 0.3440(11) 0.6038(5)
F7 F 0.3323(7) 0.3377(8) 0.6401(3)
C10 C 0.2304(12) 0.3486(11) 0.5835(5)
F8 F 0.1676(7) 0.3435(7) 0.6018(3)
C11 C 0.2125(11) 0.3521(11) 0.5461(5)
F9 F 0.1316(6) 0.3550(6) 0.5289(3)
C12 C 0.2820(11) 0.3509(11) 0.5294(5)
F10 F 0.2644(6) 0.3559(6) 0.4923(3)
C13 C 0.4360(11) 0.2294(9) 0.4989(4)
C14 C 0.4376(10) 0.1631(10) 0.5230(5)
F11 F 0.4561(7) 0.1792(6) 0.5587(3)
C15 C 0.4223(12) 0.0809(12) 0.5118(5)
F12 F 0.4298(8) 0.0206(7) 0.5372(3)
C16 C 0.4022(12) 0.0623(11) 0.4758(5)
F13 F 0.3825(7) -0.0167(6) 0.4639(4)
C17 C 0.3952(13) 0.1267(12) 0.4495(6)
F14 F 0.3713(7) 0.1081(6) 0.4145(3)
C18 C 0.4100(11) 0.2083(11) 0.4626(5)
F15 F 0.4036(7) 0.2678(6) 0.4365(3)
Te2 Te 0.13676(8) 0.42155(7) 0.73974(4)
C19 C 0.2697(11) 0.4359(10) 0.7544(5)
C20 C 0.3082(13) 0.4389(11) 0.7907(5)
F16 F 0.2581(7) 0.4359(6) 0.8155(3)
C21 C 0.3973(13) 0.4492(11) 0.8016(6)
F17 F 0.4304(7) 0.4485(6) 0.8378(3)
C22 C 0.4449(14) 0.4502(12) 0.7760(6)
F18 F 0.5334(7) 0.4562(7) 0.7883(4)
C23 C 0.4108(14) 0.4463(12) 0.7396(6)
F19 F 0.4615(7) 0.4495(8) 0.7156(4)
C24 C 0.3213(12) 0.4416(11) 0.7295(5)
F20 F 0.2896(6) 0.4396(6) 0.6935(3)
C25 C 0.1218(11) 0.3272(10) 0.7010(5)
C26 C 0.1819(13) 0.2670(11) 0.6941(5)
F21 F 0.2650(7) 0.2771(6) 0.7099(3)
C27 C 0.1606(13) 0.1985(12) 0.6726(5)
F22 F 0.2187(7) 0.1415(7) 0.6673(3)
F23 F 0.0536(8) 0.1153(6) 0.6354(3)
C28 C 0.0110(13) 0.2400(12) 0.6607(5)
F24 F -0.0710(7) 0.2281(6) 0.6467(3)
C29 C 0.0354(13) 0.3097(12) 0.6826(5)
F25 F -0.0246(6) 0.3621(7) 0.6897(3)
C30 C 0.1259(12) 0.5268(11) 0.7067(5)
C31 C 0.1301(11) 0.6075(10) 0.7232(5)
F26 F 0.1493(6) 0.6044(5) 0.7602(3)
C32 C 0.1211(12) 0.6830(12) 0.7055(5)
F27 F 0.1268(7) 0.7541(6) 0.7242(3)
C33 C 0.0993(12) 0.6802(13) 0.6687(6)
F28 F 0.0870(8) 0.7551(7) 0.6508(3)
C34 C 0.0912(12) 0.6084(11) 0.6487(5)
F29 F 0.0728(8) 0.6080(7) 0.6124(3)
C35 C 0.1067(11) 0.5298(11) 0.6671(5)
F30 F 0.0989(8) 0.4593(6) 0.6472(3)
C61 C 0.0723(13) 0.1855(12) 0.6553(5)
Te3 Te -0.12921(8) 0.32482(7) 0.76225(4)
C36 C -0.1241(11) 0.2155(10) 0.7942(5)
C37 C -0.1029(11) 0.2082(10) 0.8328(5)
F31 F -0.0933(7) 0.2755(6) 0.8535(3)
C38 C -0.0934(11) 0.1272(11) 0.8488(5)
F32 F -0.0722(7) 0.1241(6) 0.8860(3)
C39 C -0.1033(12) 0.0572(11) 0.8284(5)
F33 F -0.0929(7) -0.0194(6) 0.8452(3)
C40 C -0.1256(11) 0.0631(11) 0.7907(5)
F34 F -0.1330(6) -0.0087(5) 0.7719(3)
C41 C -0.1312(10) 0.1384(12) 0.7750(4)
F35 F -0.1499(6) 0.1448(6) 0.7377(3)
C42 C -0.1207(13) 0.4166(11) 0.8019(5)
C43 C -0.1882(13) 0.4647(12) 0.8109(5)
F36 F -0.2698(7) 0.4554(7) 0.7937(3)
C44 C -0.1689(15) 0.5324(14) 0.8367(6)
F37 F -0.2348(9) 0.5791(8) 0.8429(4)
C45 C -0.0845(16) 0.5462(14) 0.8551(6)
F38 F -0.0717(10) 0.6089(7) 0.8791(4)
C46 C -0.0229(14) 0.5000(13) 0.8465(6)
F39 F 0.0595(9) 0.5157(8) 0.8636(4)
C47 C -0.0394(14) 0.4362(12) 0.8215(6)
F40 F 0.0246(6) 0.3869(6) 0.8142(3)
C48 C -0.2612(12) 0.3079(11) 0.7407(5)
C49 C -0.3252(13) 0.2921(11) 0.7615(6)
F41 F -0.3008(7) 0.2936(6) 0.7973(4)
C50 C -0.4113(15) 0.2852(13) 0.7433(6)
F42 F -0.4639(9) 0.2734(8) 0.7656(5)
C51 C -0.4286(16) 0.2802(13) 0.7056(7)
F43 F -0.5115(9) 0.2657(9) 0.6907(5)
C52 C -0.3707(16) 0.2898(13) 0.6861(7)
F44 F -0.3892(8) 0.2856(8) 0.6496(4)
C53 C -0.2851(14) 0.3030(12) 0.7028(6)
F45 F -0.2275(8) 0.3122(7) 0.6828(3)
Te4 Te 0.94787(8) 0.14030(8) 0.49023(3)
C54 C 1.0210(12) 0.1533(12) 0.4499(5)
C55 C 1.0629(14) 0.2276(13) 0.4413(6)
F46 F 1.0603(7) 0.2992(6) 0.4587(3)
C56 C 1.1205(15) 0.2193(15) 0.4163(6)
F47 F 1.1595(9) 0.2908(9) 0.4097(4)
C57 C 1.1251(14) 0.1433(15) 0.3995(6)
F48 F 1.1790(8) 0.1451(11) 0.3751(4)
C58 C 1.0860(14) 0.0685(14) 0.4067(6)
F49 F 1.0953(8) 0.0000(8) 0.3912(4)
C59 C 1.0329(13) 0.0789(13) 0.4317(5)
F50 F 0.9910(7) 0.0107(7) 0.4388(3)
C60 C 0.9418(12) 0.2615(11) 0.5095(5)
C62 C 0.9584(11) 0.2776(10) 0.5457(5)
F51 F 0.9816(7) 0.2117(7) 0.5690(3)
C63 C 0.9579(12) 0.3539(14) 0.5600(6)
F52 F 0.9784(7) 0.3671(7) 0.5967(3)
C64 C 0.9350(13) 0.4233(13) 0.5398(5)
F53 F 0.9320(8) 0.5012(6) 0.5522(4)
C65 C 0.9152(13) 0.4131(13) 0.5022(6)
F54 F 0.8905(8) 0.4780(7) 0.4791(4)
C66 C 0.9141(11) 0.3311(11) 0.4875(5)
F55 F 0.8926(7) 0.3221(6) 0.4508(3)
C67 C 0.8212(10) 0.1477(10) 0.4569(4)
C68 C 0.7574(11) 0.1486(11) 0.4773(5)
F56 F 0.7792(6) 0.1490(6) 0.5139(3)
C69 C 0.6682(11) 0.1504(11) 0.4601(5)
F57 F 0.6090(6) 0.1518(6) 0.4798(3)
C70 C 0.6473(13) 0.1469(12) 0.4241(5)
F58 F 0.5645(6) 0.1471(6) 0.4059(3)
C71 C 0.7076(12) 0.1416(12) 0.4018(5)
F59 F 0.6911(6) 0.1396(7) 0.3661(3)
C72 C 0.7969(11) 0.1459(11) 0.4196(4)
F60 F 0.8557(6) 0.1418(7) 0.3989(3)
S1 S 0.6476(3) 0.3906(3) 0.47550(13)
O1 O 0.7273(7) 0.3494(8) 0.4930(3)
O2 O 0.6365(8) 0.4743(7) 0.4895(3)
O3 O 0.5729(7) 0.3345(7) 0.4708(3)
C73 C 0.6593(12) 0.4068(11) 0.4292(5)
F61 F 0.7296(7) 0.4520(6) 0.4278(3)
F62 F 0.6694(8) 0.3364(6) 0.4124(3)
F63 F 0.5954(7) 0.4498(7) 0.4091(3)
S2 S 0.1279(3) 0.2071(3) 0.77446(14)
O4 O 0.0371(8) 0.2236(8) 0.7599(3)
O5 O 0.1638(7) 0.1396(7) 0.7581(3)
O6 O 0.1783(8) 0.2839(7) 0.7795(3)
C74 C 0.1354(12) 0.1739(11) 0.8214(5)
F64 F 0.2128(6) 0.1657(7) 0.8395(3)
F65 F 0.0913(6) 0.2242(6) 0.8393(3)
F66 F 0.0959(7) 0.0976(6) 0.8217(3)
S3 S -0.1226(3) 0.5363(3) 0.72957(14)
O7 O -0.1763(8) 0.4612(7) 0.7242(4)
O8 O -0.1526(8) 0.6063(6) 0.7474(4)
O9 O -0.0328(7) 0.5159(8) 0.7417(3)
C75 C -0.1297(12) 0.5725(11) 0.6839(5)
F67 F -0.0848(6) 0.6428(7) 0.6819(3)
F68 F -0.1026(7) 0.5187(6) 0.6620(3)
F69 F -0.2103(6) 0.5943(7) 0.6682(3)
S4 S 1.1742(3) 0.1129(3) 0.52381(14)
O10 O 1.1043(7) 0.1702(6) 0.5272(3)
O11 O 1.1464(8) 0.0311(7) 0.5098(3)
O12 O 1.2400(7) 0.1536(7) 0.5080(4)
C76 C 1.2248(12) 0.0944(11) 0.5706(5)
F70 F 1.2963(7) 0.0464(6) 0.5733(3)
F71 F 1.1758(7) 0.0525(7) 0.5890(3)
F72 F 1.2517(8) 0.1625(7) 0.5887(3)
loop_
_geom_bond_atom_site_label_1
_geom_bond_atom_site_label_2
_geom_bond_site_symmetry_1
_geom_bond_site_symmetry_2
Te1 C1 1_555 1_555
C1 C2 1_555 1_555
C2 F1 1_555 1_555
C3 C2 1_555 1_555
F2 C3 1_555 1_555
C4 C3 1_555 1_555
F3 C4 1_555 1_555
C5 C4 1_555 1_555
F4 C5 1_555 1_555
C6 C1 1_555 1_555
F5 C6 1_555 1_555
C7 Te1 1_555 1_555
C8 C7 1_555 1_555
F6 C8 1_555 1_555
C9 C8 1_555 1_555
F7 C9 1_555 1_555
C10 C9 1_555 1_555
F8 C10 1_555 1_555
C11 C10 1_555 1_555
F9 C11 1_555 1_555
C12 C7 1_555 1_555
F10 C12 1_555 1_555
C13 Te1 1_555 1_555
C14 C13 1_555 1_555
F11 C14 1_555 1_555
C15 C14 1_555 1_555
F12 C15 1_555 1_555
C16 C15 1_555 1_555
F13 C16 1_555 1_555
C17 C16 1_555 1_555
F14 C17 1_555 1_555
C18 C13 1_555 1_555
F15 C18 1_555 1_555
Te2 C19 1_555 1_555
C19 C20 1_555 1_555
C20 F16 1_555 1_555
C21 C20 1_555 1_555
F17 C21 1_555 1_555
C22 C21 1_555 1_555
F18 C22 1_555 1_555
C23 C22 1_555 1_555
F19 C23 1_555 1_555
C24 C19 1_555 1_555
F20 C24 1_555 1_555
C25 Te2 1_555 1_555
C26 C25 1_555 1_555
F21 C26 1_555 1_555
C27 C26 1_555 1_555
F22 C27 1_555 1_555
F23 C61 1_555 1_555
C28 F24 1_555 1_555
C29 C25 1_555 1_555
F25 C29 1_555 1_555
C30 Te2 1_555 1_555
C31 C30 1_555 1_555
F26 C31 1_555 1_555
C32 C31 1_555 1_555
F27 C32 1_555 1_555
C33 C32 1_555 1_555
F28 C33 1_555 1_555
C34 C33 1_555 1_555
F29 C34 1_555 1_555
C35 C30 1_555 1_555
F30 C35 1_555 1_555
Te3 C36 1_555 1_555
C36 C37 1_555 1_555
C37 F31 1_555 1_555
C38 C37 1_555 1_555
F32 C38 1_555 1_555
C39 C38 1_555 1_555
F33 C39 1_555 1_555
C40 C39 1_555 1_555
F34 C40 1_555 1_555
C41 C36 1_555 1_555
F35 C41 1_555 1_555
C42 Te3 1_555 1_555
C43 C42 1_555 1_555
F36 C43 1_555 1_555
C44 C43 1_555 1_555
F37 C44 1_555 1_555
C45 C44 1_555 1_555
F38 C45 1_555 1_555
C46 C45 1_555 1_555
F39 C46 1_555 1_555
C47 C42 1_555 1_555
F40 C47 1_555 1_555
C48 Te3 1_555 1_555
C49 C48 1_555 1_555
F41 C49 1_555 1_555
C50 C49 1_555 1_555
F42 C50 1_555 1_555
C51 C50 1_555 1_555
F43 C51 1_555 1_555
C52 C51 1_555 1_555
F44 C52 1_555 1_555
C53 C48 1_555 1_555
F45 C53 1_555 1_555
Te4 C54 1_555 1_555
C54 C55 1_555 1_555
C55 F46 1_555 1_555
C56 C55 1_555 1_555
F47 C56 1_555 1_555
C57 C56 1_555 1_555
F48 C57 1_555 1_555
C58 C57 1_555 1_555
F49 C58 1_555 1_555
C59 C54 1_555 1_555
F50 C59 1_555 1_555
C60 Te4 1_555 1_555
C61 C27 1_555 1_555
C62 C60 1_555 1_555
F51 C62 1_555 1_555
C63 C62 1_555 1_555
F52 C63 1_555 1_555
C64 C63 1_555 1_555
F53 C64 1_555 1_555
C65 C64 1_555 1_555
F54 C65 1_555 1_555
C66 C60 1_555 1_555
F55 C66 1_555 1_555
C67 Te4 1_555 1_555
C68 C67 1_555 1_555
F56 C68 1_555 1_555
C69 C68 1_555 1_555
F57 C69 1_555 1_555
C70 C69 1_555 1_555
F58 C70 1_555 1_555
C71 C70 1_555 1_555
F59 C71 1_555 1_555
C72 C67 1_555 1_555
F60 C72 1_555 1_555
S1 O1 1_555 1_555
O2 S1 1_555 1_555
O3 S1 1_555 1_555
C73 S1 1_555 1_555
F61 C73 1_555 1_555
F62 C73 1_555 1_555
F63 C73 1_555 1_555
S2 O4 1_555 1_555
O5 S2 1_555 1_555
O6 S2 1_555 1_555
C74 S2 1_555 1_555
F64 C74 1_555 1_555
F65 C74 1_555 1_555
F66 C74 1_555 1_555
S3 O7 1_555 1_555
O8 S3 1_555 1_555
O9 S3 1_555 1_555
C75 S3 1_555 1_555
F67 C75 1_555 1_555
F68 C75 1_555 1_555
F69 C75 1_555 1_555
S4 O10 1_555 1_555
O11 S4 1_555 1_555
O12 S4 1_555 1_555
C76 S4 1_555 1_555
F70 C76 1_555 1_555
F71 C76 1_555 1_555
F72 C76 1_555 1_555
C5 C6 1_555 1_555
C11 C12 1_555 1_555
C17 C18 1_555 1_555
C23 C24 1_555 1_555
C28 C61 1_555 1_555
C28 C29 1_555 1_555
C34 C35 1_555 1_555
C40 C41 1_555 1_555
C46 C47 1_555 1_555
C52 C53 1_555 1_555
C58 C59 1_555 1_555
C65 C66 1_555 1_555
C71 C72 1_555 1_555

#END
