
#######################################################################
#
#                 Cambridge Crystallographic Data Centre
#                                CCDC 
#
#######################################################################
#
# If this CIF has been generated from an entry in the Cambridge 
# Structural Database, then it will include bibliographic, chemical, 
# crystal, experimental, refinement or atomic coordinate data resulting 
# from the CCDC's data processing and validation procedures.
#
#######################################################################

data_MIYPAL
_chemical_formula_moiety         'C18 Br1 F15 Te1,C6 H6'
_chemical_name_systematic        
'Bromo-tris(pentafluorophenyl)-tellurium benzene solvate'
_symmetry_cell_setting           monoclinic
_symmetry_space_group_name_H-M   'P 21/a'
_symmetry_Int_Tables_number      14
_space_group_name_Hall           '-P 2yab'
loop_
_symmetry_equiv_pos_site_id
_symmetry_equiv_pos_as_xyz
1 x,y,z
2 1/2+x,1/2-y,z
3 -x,-y,-z
4 1/2-x,1/2+y,-z
_cell_length_a                   9.663(2)
_cell_length_b                   21.966(2)
_cell_length_c                   10.865(2)
_cell_angle_alpha                90
_cell_angle_beta                 102.25(2)
_cell_angle_gamma                90
_cell_volume                     2253.67
_exptl_crystal_colour            colorless
_cell_formula_units_Z            4
_chemical_properties_physical    moisture-sensitive
loop_
_atom_site_label
_atom_site_type_symbol
_atom_site_fract_x
_atom_site_fract_y
_atom_site_fract_z
C19 C 0.0048(17) 0.0310(9) 0.4032(17)
C20 C -0.0486(36) 0.0788(19) 0.4463(36)
C21 C 0.0676(41) -0.0229(20) 0.3545(44)
C22 C -0.0917(23) 0.0785(12) 0.5765(23)
C23 C -0.0354(43) 0.0282(23) 0.5304(54)
C21B C -0.0676(41) 0.0229(20) 0.6455(44)
C19B C -0.0048(17) -0.0310(9) 0.5968(17)
C20B C 0.0486(36) -0.0788(19) 0.5537(36)
C22B C 0.0917(23) -0.0785(12) 0.4235(23)
C23B C 0.0354(43) -0.0282(23) 0.4696(54)
Te1 Te 0.46367(7) 0.19164(4) 0.19685(7)
Br1 Br 0.33457(11) 0.30715(7) 0.20245(12)
C1 C 0.2610(11) 0.1618(5) 0.0914(11)
C2 C 0.1865(11) 0.1138(6) 0.1263(11)
C3 C 0.0581(12) 0.0978(6) 0.0557(12)
C4 C -0.0005(12) 0.1291(6) -0.0525(12)
C5 C 0.0741(13) 0.1753(6) -0.0922(12)
C6 C 0.2050(10) 0.1913(6) -0.0213(10)
F1 F 0.2386(7) 0.0833(3) 0.2341(6)
F2 F -0.0163(7) 0.0519(4) 0.0920(7)
F3 F -0.1288(7) 0.1139(4) -0.1212(7)
F4 F 0.0219(7) 0.2041(3) -0.2018(7)
F5 F 0.2784(7) 0.2362(3) -0.0644(6)
C7 C 0.5410(11) 0.0969(5) 0.1989(11)
C8 C 0.5621(11) 0.0534(5) 0.2923(12)
C9 C 0.6292(12) -0.0019(5) 0.2766(13)
C10 C 0.6757(13) -0.0131(6) 0.1688(14)
C11 C 0.6523(12) 0.0283(6) 0.0718(12)
C12 C 0.5834(11) 0.0818(5) 0.0884(11)
F6 F 0.5204(8) 0.0614(3) 0.4009(7)
F7 F 0.6495(8) -0.0426(4) 0.3708(8)
F8 F 0.7399(8) -0.0670(3) 0.1564(9)
F9 F 0.6918(7) 0.0158(4) -0.0373(7)
F10 F 0.5627(7) 0.1222(3) -0.0086(6)
C13 C 0.4349(10) 0.1871(6) 0.3852(10)
C14 C 0.5539(11) 0.1837(5) 0.4798(10)
C15 C 0.5460(12) 0.1811(6) 0.6030(11)
C16 C 0.4173(13) 0.1800(5) 0.6372(11)
C17 C 0.2962(12) 0.1853(6) 0.5442(11)
C18 C 0.3021(12) 0.1879(6) 0.4196(10)
F11 F 0.6803(6) 0.1831(3) 0.4474(6)
F12 F 0.6692(7) 0.1775(4) 0.6939(7)
F13 F 0.4101(8) 0.1757(3) 0.7581(6)
F14 F 0.1692(7) 0.1863(4) 0.5789(7)
F15 F 0.1800(5) 0.1932(4) 0.3345(6)
loop_
_geom_bond_atom_site_label_1
_geom_bond_atom_site_label_2
_geom_bond_site_symmetry_1
_geom_bond_site_symmetry_2
Te1 Br1 1_555 1_555
C1 Te1 1_555 1_555
C2 C1 1_555 1_555
C3 C2 1_555 1_555
C4 C3 1_555 1_555
C5 C4 1_555 1_555
C6 C1 1_555 1_555
F1 C2 1_555 1_555
F2 C3 1_555 1_555
F3 C4 1_555 1_555
F4 C5 1_555 1_555
F5 C6 1_555 1_555
C7 Te1 1_555 1_555
C8 C7 1_555 1_555
C9 C8 1_555 1_555
C10 C9 1_555 1_555
C11 C10 1_555 1_555
C12 C7 1_555 1_555
F6 C8 1_555 1_555
F7 C9 1_555 1_555
F8 C10 1_555 1_555
F9 C11 1_555 1_555
F10 C12 1_555 1_555
C13 Te1 1_555 1_555
C14 C13 1_555 1_555
C15 C14 1_555 1_555
C16 C15 1_555 1_555
C17 C16 1_555 1_555
C18 C13 1_555 1_555
F11 C14 1_555 1_555
F12 C15 1_555 1_555
F13 C16 1_555 1_555
F14 C17 1_555 1_555
F15 C18 1_555 1_555
C19 C20 1_555 1_555
C20 C22 1_555 1_555
C21 C19 1_555 1_555
C22 C23 1_555 1_555
C23 C19 1_555 1_555
C21B C22 1_555 1_555
C19B C23 1_555 1_555
C20B C19B 1_555 1_555
C22B C21 1_555 1_555
C23B C19 1_555 1_555
C5 C6 1_555 1_555
C11 C12 1_555 1_555
C17 C18 1_555 1_555
C20 C23 1_555 1_555
C21 C23B 1_555 1_555
C23 C23B 1_555 1_555
C23 C21B 1_555 1_555
C21B C19B 1_555 1_555
C19B C23B 1_555 1_555
C20B C22B 1_555 1_555
C20B C23B 1_555 1_555
C22B C23B 1_555 1_555

#END
