
#######################################################################
#
#                 Cambridge Crystallographic Data Centre
#                                CCDC 
#
#######################################################################
#
# If this CIF has been generated from an entry in the Cambridge 
# Structural Database, then it will include bibliographic, chemical, 
# crystal, experimental, refinement or atomic coordinate data resulting 
# from the CCDC's data processing and validation procedures.
#
#######################################################################

data_MIYPUH
_chemical_formula_moiety         'C18 H18 N2 O2'
_chemical_name_systematic        
'2-(Cyano(dimethylamino)methyl)phenyl 3-methylbenzoate'
_symmetry_cell_setting           monoclinic
_symmetry_space_group_name_H-M   'P 21/n'
_symmetry_Int_Tables_number      14
_space_group_name_Hall           '-P 2yn'
loop_
_symmetry_equiv_pos_site_id
_symmetry_equiv_pos_as_xyz
1 x,y,z
2 1/2-x,1/2+y,1/2-z
3 -x,-y,-z
4 1/2+x,1/2-y,1/2+z
_cell_length_a                   15.5546(10)
_cell_length_b                   5.8660(3)
_cell_length_c                   17.2883(10)
_cell_angle_alpha                90
_cell_angle_beta                 90.168(6)
_cell_angle_gamma                90
_cell_volume                     1577.43
_exptl_crystal_colour            colorless
_exptl_crystal_description       block
_cell_formula_units_Z            4
loop_
_atom_site_label
_atom_site_type_symbol
_atom_site_fract_x
_atom_site_fract_y
_atom_site_fract_z
O1 O 0.62728(8) 0.5354(2) 0.12095(7)
O2 O 0.53763(6) 0.24744(18) 0.09026(6)
N1 N 0.45814(10) -0.2233(3) 0.34344(9)
N2 N 0.60184(8) 0.1168(2) 0.24957(7)
C1 C 0.67984(10) 0.2213(3) 0.04636(8)
C2 C 0.76137(10) 0.3128(3) 0.03735(9)
H1 H 0.7745 0.4560 0.0602
C3 C 0.82421(10) 0.1984(3) -0.00455(9)
C4 C 0.80315(11) -0.0091(3) -0.03735(10)
H2 H 0.8453 -0.0899 -0.0660
C5 C 0.72205(12) -0.1012(3) -0.02921(11)
H3 H 0.7088 -0.2433 -0.0527
C6 C 0.66001(11) 0.0121(3) 0.01289(10)
H4 H 0.6044 -0.0521 0.0189
C7 C 0.91305(12) 0.2976(4) -0.01327(12)
H5 H 0.9086 0.4606 -0.0250
H6 H 0.9430 0.2199 -0.0555
H7 H 0.9453 0.2767 0.0350
C8 C 0.61594(10) 0.3544(3) 0.09059(9)
C9 C 0.47307(10) 0.3339(3) 0.13835(9)
C10 C 0.42483(11) 0.5184(3) 0.11525(10)
H8 H 0.4392 0.5997 0.0696
C11 C 0.35503(11) 0.5837(3) 0.15958(10)
H9 H 0.3209 0.7104 0.1444
C12 C 0.33518(11) 0.4644(3) 0.22583(10)
H10 H 0.2866 0.5074 0.2557
C13 C 0.38535(10) 0.2832(3) 0.24903(10)
H11 H 0.3714 0.2035 0.2951
C14 C 0.45609(9) 0.2154(3) 0.20586(9)
C15 C 0.51697(10) 0.0262(3) 0.22928(9)
H12 H 0.5245 -0.0752 0.1833
C16 C 0.48104(10) -0.1156(3) 0.29264(10)
C17 C 0.60059(10) 0.2603(3) 0.31812(10)
H13 H 0.5584 0.3826 0.3111
H14 H 0.6577 0.3269 0.3263
H15 H 0.5849 0.1683 0.3632
C18 C 0.66549(11) -0.0644(3) 0.25697(10)
H16 H 0.6496 -0.1650 0.2999
H17 H 0.7221 0.0025 0.2671
H18 H 0.6675 -0.1526 0.2089
loop_
_geom_bond_atom_site_label_1
_geom_bond_atom_site_label_2
_geom_bond_site_symmetry_1
_geom_bond_site_symmetry_2
O1 C8 1_555 1_555
O2 C8 1_555 1_555
N1 C16 1_555 1_555
N2 C15 1_555 1_555
C1 C2 1_555 1_555
C2 H1 1_555 1_555
C3 C2 1_555 1_555
C4 C3 1_555 1_555
H2 C4 1_555 1_555
C5 C4 1_555 1_555
H3 C5 1_555 1_555
C6 C1 1_555 1_555
H4 C6 1_555 1_555
C7 C3 1_555 1_555
H5 C7 1_555 1_555
H6 C7 1_555 1_555
H7 C7 1_555 1_555
C8 C1 1_555 1_555
C9 O2 1_555 1_555
C10 C9 1_555 1_555
H8 C10 1_555 1_555
C11 C10 1_555 1_555
H9 C11 1_555 1_555
C12 C11 1_555 1_555
H10 C12 1_555 1_555
C13 C12 1_555 1_555
H11 C13 1_555 1_555
C14 C9 1_555 1_555
C15 C14 1_555 1_555
H12 C15 1_555 1_555
C16 C15 1_555 1_555
C17 N2 1_555 1_555
H13 C17 1_555 1_555
H14 C17 1_555 1_555
H15 C17 1_555 1_555
C18 N2 1_555 1_555
H16 C18 1_555 1_555
H17 C18 1_555 1_555
H18 C18 1_555 1_555
C5 C6 1_555 1_555
C13 C14 1_555 1_555

#END
