
#######################################################################
#
#                 Cambridge Crystallographic Data Centre
#                                CCDC 
#
#######################################################################
#
# If this CIF has been generated from an entry in the Cambridge 
# Structural Database, then it will include bibliographic, chemical, 
# crystal, experimental, refinement or atomic coordinate data resulting 
# from the CCDC's data processing and validation procedures.
#
#######################################################################

data_MIYPOB
_chemical_formula_moiety         'C15 H11 P1 S3'
_chemical_name_systematic        
"4-benzyl-4H-thieno[2',3':4,5]phospholo[3,2-b]thiophene 4-sulfide"
_symmetry_cell_setting           monoclinic
_symmetry_space_group_name_H-M   'P 21/n'
_symmetry_Int_Tables_number      14
_space_group_name_Hall           '-P 2yn'
loop_
_symmetry_equiv_pos_site_id
_symmetry_equiv_pos_as_xyz
1 x,y,z
2 1/2-x,1/2+y,1/2-z
3 -x,-y,-z
4 1/2+x,1/2-y,1/2+z
_cell_length_a                   10.59110(10)
_cell_length_b                   6.48670(10)
_cell_length_c                   21.0877(2)
_cell_angle_alpha                90
_cell_angle_beta                 94.0391(2)
_cell_angle_gamma                90
_cell_volume                     1445.15
_exptl_crystal_colour            'pale yellow brown'
_exptl_crystal_description       Rod
_cell_formula_units_Z            4
loop_
_atom_site_label
_atom_site_type_symbol
_atom_site_fract_x
_atom_site_fract_y
_atom_site_fract_z
P1 P 0.03331(3) 0.03659(6) 0.187143(16)
S1 S -0.23960(3) 0.40055(6) 0.085788(17)
S2 S 0.05979(4) 0.26156(6) 0.001858(17)
S3 S 0.01580(4) -0.25190(6) 0.20982(2)
C1 C 0.09429(14) 0.0939(2) 0.11143(7)
C2 C -0.22349(14) 0.2269(2) 0.19592(7)
C3 C -0.11034(13) 0.1795(2) 0.16701(7)
C4 C 0.00935(14) 0.2145(2) 0.07586(7)
C5 C 0.20210(15) 0.0400(3) 0.07916(8)
C6 C -0.30200(15) 0.3456(3) 0.15731(7)
C7 C 0.19578(15) 0.1204(3) 0.01935(8)
C8 C -0.10532(14) 0.2627(2) 0.10709(7)
C9 C -0.00231(15) 0.3391(3) 0.32829(8)
C10 C 0.08696(14) 0.1964(2) 0.31034(7)
C11 C 0.10356(16) 0.0656(3) 0.41786(8)
C12 C 0.13862(15) 0.0582(3) 0.35563(8)
C13 C -0.03726(16) 0.3455(3) 0.39048(8)
C14 C 0.01618(16) 0.2100(3) 0.43550(8)
C15 C 0.12924(14) 0.1953(3) 0.24363(7)
H1 H -0.2448(19) 0.184(3) 0.2362(10)
H2 H 0.256(2) 0.106(3) -0.0140(11)
H3 H -0.005(2) 0.214(3) 0.4767(11)
H4 H -0.0397(19) 0.432(3) 0.2976(9)
H5 H 0.124(2) 0.325(4) 0.2259(10)
H6 H -0.382(2) 0.397(3) 0.1650(9)
H7 H 0.2141(19) 0.144(3) 0.2410(9)
H8 H 0.196(2) -0.042(4) 0.3455(10)
H9 H 0.271(2) -0.037(3) 0.0956(9)
H10 H 0.140(2) -0.026(3) 0.4480(10)
H11 H -0.094(2) 0.447(3) 0.4020(10)
loop_
_geom_bond_atom_site_label_1
_geom_bond_atom_site_label_2
_geom_bond_site_symmetry_1
_geom_bond_site_symmetry_2
P1 S3 1_555 1_555
S1 C6 1_555 1_555
S2 C4 1_555 1_555
C1 P1 1_555 1_555
C2 C3 1_555 1_555
C3 P1 1_555 1_555
C4 C1 1_555 1_555
C5 C1 1_555 1_555
C6 C2 1_555 1_555
C7 S2 1_555 1_555
C8 S1 1_555 1_555
C9 C10 1_555 1_555
C10 C12 1_555 1_555
C11 C12 1_555 1_555
C12 H8 1_555 1_555
C13 C9 1_555 1_555
C14 C11 1_555 1_555
C15 P1 1_555 1_555
H1 C2 1_555 1_555
H2 C7 1_555 1_555
H3 C14 1_555 1_555
H4 C9 1_555 1_555
H5 C15 1_555 1_555
H6 C6 1_555 1_555
H7 C15 1_555 1_555
H9 C5 1_555 1_555
H10 C11 1_555 1_555
H11 C13 1_555 1_555
C3 C8 1_555 1_555
C4 C8 1_555 1_555
C5 C7 1_555 1_555
C10 C15 1_555 1_555
C13 C14 1_555 1_555

#END
