
#######################################################################
#
#                 Cambridge Crystallographic Data Centre
#                                CCDC 
#
#######################################################################
#
# If this CIF has been generated from an entry in the Cambridge 
# Structural Database, then it will include bibliographic, chemical, 
# crystal, experimental, refinement or atomic coordinate data resulting 
# from the CCDC's data processing and validation procedures.
#
#######################################################################

data_MIZCII
_chemical_formula_moiety         'C24 H26 O4 Si1'
_chemical_name_systematic        
(2\a,3\a,4\a)-3-Ethyl-4-phenyl-2-(trimethylsiloxy)-3,4-dihydro-2H-naphtho(2,3-b)pyran-5,10-dione
_symmetry_cell_setting           triclinic
_symmetry_space_group_name_H-M   'P -1'
_symmetry_Int_Tables_number      2
_space_group_name_Hall           '-P 1'
loop_
_symmetry_equiv_pos_site_id
_symmetry_equiv_pos_as_xyz
1 x,y,z
2 -x,-y,-z
_cell_length_a                   8.3450(17)
_cell_length_b                   11.575(2)
_cell_length_c                   12.958(3)
_cell_angle_alpha                88.46(2)
_cell_angle_beta                 73.17(3)
_cell_angle_gamma                69.17(3)
_cell_volume                     1115.68
_exptl_crystal_colour            colorless
_exptl_crystal_description       block
_chemical_melting_point          135-136deg.C
_cell_formula_units_Z            2
loop_
_atom_site_label
_atom_site_type_symbol
_atom_site_fract_x
_atom_site_fract_y
_atom_site_fract_z
Si1 Si 0.28241(16) 0.69278(13) 0.89559(10)
O1 O 0.2458(3) 0.6966(3) 0.7775(2)
O2 O 0.3667(3) 0.5005(3) 0.6903(2)
O3 O 0.3746(4) 0.2800(3) 0.7458(3)
O4 O -0.1725(3) 0.5597(3) 0.6079(2)
C1 C 0.1466(7) 0.6142(6) 0.9846(4)
H1 H 0.1895 0.5287 0.9577
H2 H 0.0232 0.6537 0.9862
H3 H 0.1558 0.6189 1.0563
C2 C 0.2087(8) 0.8565(5) 0.9436(5)
H4 H 0.0833 0.8970 0.9506
H5 H 0.2767 0.8962 0.8927
H6 H 0.2276 0.8620 1.0127
C3 C 0.5245(6) 0.6117(5) 0.8808(4)
H7 H 0.5600 0.5260 0.8572
H8 H 0.5453 0.6178 0.9492
H9 H 0.5937 0.6495 0.8284
C4 C 0.4427(7) 0.8276(5) 0.5517(5)
H10 H 0.4268 0.9130 0.5418
H11 H 0.5261 0.7769 0.4874
H12 H 0.4885 0.8029 0.6120
C5 C 0.2621(6) 0.8114(4) 0.5736(4)
H13 H 0.1780 0.8657 0.6369
H14 H 0.2164 0.8385 0.5128
C6 C 0.3483(5) 0.6283(4) 0.6807(3)
H15 H 0.4681 0.6330 0.6625
C7 C 0.2663(5) 0.6809(4) 0.5919(3)
H16 H 0.3464 0.6295 0.5251
C8 C 0.0803(5) 0.6673(4) 0.6111(3)
H17 H 0.0624 0.6667 0.5397
C9 C -0.0832(5) 0.7736(4) 0.6814(3)
C10 C -0.1419(5) 0.7778(4) 0.7916(4)
H18 H -0.0815 0.7132 0.8266
C11 C -0.2899(6) 0.8762(5) 0.8527(4)
H19 H -0.3278 0.8773 0.9278
C12 C -0.3800(7) 0.9720(5) 0.8013(6)
H20 H -0.4784 1.0388 0.8415
C13 C -0.3253(7) 0.9688(4) 0.6933(6)
H21 H -0.3866 1.0338 0.6590
C14 C -0.1795(6) 0.8706(4) 0.6315(4)
H22 H -0.1455 0.8693 0.5564
C15 C 0.0900(5) 0.5441(3) 0.6499(3)
C16 C -0.0511(5) 0.4973(4) 0.6450(3)
C17 C -0.0451(5) 0.3736(4) 0.6824(3)
C18 C -0.1836(5) 0.3321(4) 0.6867(3)
H23 H -0.2838 0.3836 0.6683
C19 C -0.1752(6) 0.2173(4) 0.7175(4)
H24 H -0.2694 0.1910 0.7203
C20 C -0.0263(7) 0.1395(4) 0.7447(4)
H25 H -0.0199 0.0606 0.7649
C21 C 0.1126(6) 0.1790(4) 0.7420(4)
H26 H 0.2125 0.1264 0.7600
C22 C 0.1042(5) 0.2957(4) 0.7127(3)
C23 C 0.2456(6) 0.3430(4) 0.7154(4)
C24 C 0.2285(5) 0.4685(4) 0.6839(3)
loop_
_geom_bond_atom_site_label_1
_geom_bond_atom_site_label_2
_geom_bond_site_symmetry_1
_geom_bond_site_symmetry_2
Si1 O1 1_555 1_555
O1 C6 1_555 1_555
O2 C6 1_555 1_555
O3 C23 1_555 1_555
O4 C16 1_555 1_555
C1 Si1 1_555 1_555
H1 C1 1_555 1_555
H2 C1 1_555 1_555
H3 C1 1_555 1_555
C2 Si1 1_555 1_555
H4 C2 1_555 1_555
H5 C2 1_555 1_555
H6 C2 1_555 1_555
C3 Si1 1_555 1_555
H7 C3 1_555 1_555
H8 C3 1_555 1_555
H9 C3 1_555 1_555
C4 H10 1_555 1_555
H11 C4 1_555 1_555
H12 C4 1_555 1_555
C5 C4 1_555 1_555
H13 C5 1_555 1_555
H14 C5 1_555 1_555
C6 H15 1_555 1_555
C7 C5 1_555 1_555
H16 C7 1_555 1_555
C8 C7 1_555 1_555
H17 C8 1_555 1_555
C9 C8 1_555 1_555
C10 C9 1_555 1_555
H18 C10 1_555 1_555
C11 C10 1_555 1_555
H19 C11 1_555 1_555
C12 C11 1_555 1_555
H20 C12 1_555 1_555
C13 C12 1_555 1_555
H21 C13 1_555 1_555
C14 C9 1_555 1_555
H22 C14 1_555 1_555
C15 C8 1_555 1_555
C16 C15 1_555 1_555
C17 C16 1_555 1_555
C18 C17 1_555 1_555
H23 C18 1_555 1_555
C19 C18 1_555 1_555
H24 C19 1_555 1_555
C20 C19 1_555 1_555
H25 C20 1_555 1_555
C21 C20 1_555 1_555
H26 C21 1_555 1_555
C22 C17 1_555 1_555
C23 C22 1_555 1_555
C24 O2 1_555 1_555
C6 C7 1_555 1_555
C13 C14 1_555 1_555
C15 C24 1_555 1_555
C21 C22 1_555 1_555
C23 C24 1_555 1_555

#END
