
#######################################################################
#
#                 Cambridge Crystallographic Data Centre
#                                CCDC 
#
#######################################################################
#
# If this CIF has been generated from an entry in the Cambridge 
# Structural Database, then it will include bibliographic, chemical, 
# crystal, experimental, refinement or atomic coordinate data resulting 
# from the CCDC's data processing and validation procedures.
#
#######################################################################

data_MIZCUU
_chemical_formula_moiety         'C32 H66 B10 N10 O8'
_chemical_name_systematic        
1,12-bis(2,4-bis(bis(Methoxyethyl)amino)-1,3,5-triazine-6-yl)-1,12-dicarbadodecaborane
_chemical_properties_biological  
'low cytotoxicity against B-16 Melanoma cancer cells'
_symmetry_cell_setting           triclinic
_symmetry_space_group_name_H-M   'P -1'
_symmetry_Int_Tables_number      2
_space_group_name_Hall           '-P 1'
loop_
_symmetry_equiv_pos_site_id
_symmetry_equiv_pos_as_xyz
1 x,y,z
2 -x,-y,-z
_cell_length_a                   11.779(19)
_cell_length_b                   13.94(2)
_cell_length_c                   14.60(2)
_cell_angle_alpha                99.69(3)
_cell_angle_beta                 90.11(3)
_cell_angle_gamma                96.89(3)
_cell_volume                     2345.44
_exptl_crystal_colour            colorless
_exptl_crystal_description       plate
_chemical_melting_point          92-95deg.C
_cell_formula_units_Z            2
loop_
_atom_site_label
_atom_site_type_symbol
_atom_site_fract_x
_atom_site_fract_y
_atom_site_fract_z
O1 O 0.2005(7) 1.1723(6) 0.1717(4)
O2 O -0.1128(6) 1.0072(6) 0.1558(5)
O3 O 0.0304(10) 0.6798(8) 0.6377(6)
O4 O -0.1061(4) 0.6073(4) 0.3170(4)
N1 N 0.1981(5) 0.8580(4) 0.4620(3)
N2 N 0.1975(5) 1.0080(4) 0.4030(3)
N3 N 0.0229(5) 0.9008(5) 0.4044(3)
N4 N 0.0295(5) 1.0414(4) 0.3386(4)
N5 N 0.0293(5) 0.7567(5) 0.4593(4)
C1 C 0.3727(6) 0.9720(5) 0.4708(4)
C2 C 0.2439(6) 0.9430(6) 0.4412(4)
C3 C 0.0830(7) 0.8412(6) 0.4392(4)
C4 C 0.0831(7) 0.9824(6) 0.3823(4)
C5 C 0.0940(7) 1.1275(5) 0.3046(5)
H1 H 0.1514 1.1604 0.3508
H2 H 0.0419 1.1739 0.2949
C6 C -0.0944(6) 1.0230(6) 0.3201(5)
H3 H -0.1232 1.0853 0.3200
H4 H -0.1304 0.9943 0.3705
C7 C -0.1297(8) 0.9557(7) 0.2288(6)
H5 H -0.0848 0.9010 0.2200
H6 H -0.2097 0.9297 0.2304
C8 C 0.1526(8) 1.0923(6) 0.2122(6)
H7 H 0.2122 1.0533 0.2239
H8 H 0.0968 1.0511 0.1693
C9 C 0.2999(12) 1.2154(10) 0.2121(8)
H9 H 0.3281 1.2698 0.1825
H10 H 0.3545 1.1690 0.2059
H11 H 0.2886 1.2385 0.2768
C10 C -0.1438(10) 0.9465(10) 0.0674(6)
H12 H -0.1314 0.9850 0.0189
H13 H -0.2230 0.9203 0.0672
H14 H -0.0976 0.8936 0.0572
C11 C -0.0971(6) 0.7370(5) 0.4484(5)
H15 H -0.1295 0.7971 0.4712
H16 H -0.1249 0.6892 0.4868
C12 C -0.1394(6) 0.6997(6) 0.3501(5)
H17 H -0.2221 0.6955 0.3476
H18 H -0.1090 0.7455 0.3104
C13 C -0.1536(9) 0.5677(7) 0.2251(6)
H19 H -0.1299 0.5041 0.2048
H20 H -0.1267 0.6106 0.1827
H21 H -0.2355 0.5620 0.2268
C14 C 0.0921(6) 0.6761(5) 0.4802(5)
H22 H 0.0467 0.6141 0.4564
H23 H 0.1631 0.6780 0.4466
C15 C 0.1194(10) 0.6784(8) 0.5801(7)
H24 H 0.1573 0.6214 0.5854
H25 H 0.1736 0.7360 0.6015
C16 C -0.0241(12) 0.6040(8) 0.6632(10)
H26 H -0.0875 0.6229 0.7003
H27 H 0.0262 0.5747 0.6991
H28 H -0.0518 0.5576 0.6093
B1 B 0.4582(8) 0.8830(7) 0.4543(7)
H57 H 0.4291 0.8063 0.4237
B2 B 0.4692(9) 0.9739(9) 0.3871(6)
H58 H 0.4484 0.9563 0.3122
B3 B 0.4364(9) 1.0832(8) 0.4561(8)
H59 H 0.3938 1.1378 0.4271
B4 B 0.4051(8) 1.0576(8) 0.5647(7)
H60 H 0.3408 1.0949 0.6067
B5 B 0.4213(9) 0.9336(9) 0.5661(7)
H61 H 0.3690 0.8897 0.6102
O1A O 0.7995(7) 0.8277(6) 0.8283(4)
O2A O 1.1128(6) 0.9928(6) 0.8442(5)
O3A O 0.9696(10) 1.3202(8) 0.3623(6)
O4A O 1.1061(4) 1.3927(4) 0.6830(4)
N1A N 0.8019(5) 1.1420(4) 0.5380(3)
N2A N 0.8025(5) 0.9920(4) 0.5970(3)
N3A N 0.9771(5) 1.0992(5) 0.5956(3)
N4A N 0.9705(5) 0.9586(4) 0.6614(4)
N5A N 0.9707(5) 1.2433(5) 0.5407(4)
C1A C 0.6273(6) 1.0280(5) 0.5292(4)
C2A C 0.7561(6) 1.0570(6) 0.5588(4)
C3A C 0.9170(7) 1.1588(6) 0.5608(4)
C4A C 0.9169(7) 1.0176(6) 0.6177(4)
C5A C 0.9060(7) 0.8725(5) 0.6954(5)
H1A H 0.8486 0.8396 0.6492
H2A H 0.9581 0.8261 0.7051
C6A C 1.0944(6) 0.9770(6) 0.6799(5)
H3A H 1.1232 0.9147 0.6800
H4A H 1.1304 1.0057 0.6295
C7A C 1.1297(8) 1.0443(7) 0.7712(6)
H5A H 1.0848 1.0990 0.7800
H6A H 1.2097 1.0703 0.7696
C8A C 0.8474(8) 0.9077(6) 0.7878(6)
H7A H 0.7878 0.9467 0.7761
H8A H 0.9032 0.9489 0.8307
C9A C 0.7001(12) 0.7846(10) 0.7879(8)
H9A H 0.6719 0.7302 0.8175
H10A H 0.6455 0.8310 0.7941
H11A H 0.7114 0.7615 0.7232
C10A C 1.1438(10) 1.0535(10) 0.9326(6)
H12A H 1.1314 1.0150 0.9811
H13A H 1.2230 1.0797 0.9328
H14A H 1.0976 1.1064 0.9428
C11A C 1.0971(6) 1.2630(5) 0.5516(5)
H15A H 1.1295 1.2029 0.5288
H16A H 1.1249 1.3108 0.5132
C12A C 1.1394(6) 1.3003(6) 0.6499(5)
H17A H 1.2221 1.3045 0.6524
H18A H 1.1090 1.2545 0.6896
C13A C 1.1536(9) 1.4323(7) 0.7749(6)
H19A H 1.1299 1.4959 0.7952
H20A H 1.1267 1.3894 0.8173
H21A H 1.2355 1.4380 0.7732
C14A C 0.9079(6) 1.3239(5) 0.5198(5)
H22A H 0.9533 1.3859 0.5436
H23A H 0.8369 1.3220 0.5534
C15A C 0.8806(10) 1.3216(8) 0.4199(7)
H24A H 0.8427 1.3786 0.4146
H25A H 0.8264 1.2640 0.3985
C16A C 1.0241(12) 1.3960(8) 0.3368(10)
H26A H 1.0875 1.3771 0.2997
H27A H 0.9738 1.4253 0.3009
H28A H 1.0518 1.4424 0.3907
B1A B 0.5418(8) 1.1170(7) 0.5457(7)
H57A H 0.5709 1.1937 0.5763
B2A B 0.5308(9) 1.0261(9) 0.6129(6)
H58A H 0.5516 1.0437 0.6878
B3A B 0.5636(9) 0.9168(8) 0.5439(8)
H59A H 0.6062 0.8622 0.5729
B4A B 0.5949(8) 0.9424(8) 0.4353(7)
H60A H 0.6592 0.9051 0.3933
B5A B 0.5787(9) 1.0664(9) 0.4339(7)
H61A H 0.6310 1.1103 0.3898
O5 O 0.2072(5) 0.7288(4) 0.1359(3)
O6 O 0.0360(6) 0.3894(5) 0.0815(4)
O7 O 0.4418(8) 0.2163(6) -0.1497(6)
O8 O 0.5935(6) 0.1445(5) 0.0953(4)
N6 N 0.5212(4) 0.4209(4) 0.2355(3)
N7 N 0.3604(5) 0.5109(4) 0.2630(3)
N8 N 0.3986(5) 0.4364(4) 0.1077(3)
N9 N 0.5565(5) 0.3526(4) 0.0852(3)
N10 N 0.2440(5) 0.5240(4) 0.1380(3)
C17 C 0.4759(5) 0.4869(4) 0.3933(4)
C18 C 0.4501(6) 0.4725(5) 0.2889(4)
C19 C 0.4894(6) 0.4058(5) 0.1435(4)
C20 C 0.3354(6) 0.4886(5) 0.1692(4)
C21 C 0.1743(6) 0.5822(6) 0.2015(5)
H29 H 0.1725 0.5583 0.2602
H30 H 0.0967 0.5723 0.1765
C22 C 0.2146(7) 0.6912(6) 0.2200(5)
H31 H 0.1672 0.7242 0.2665
H32 H 0.2930 0.7026 0.2435
C23 C 0.2362(9) 0.8317(6) 0.1466(6)
H33 H 0.2307 0.8521 0.0873
H34 H 0.3130 0.8490 0.1709
H35 H 0.1846 0.8637 0.1887
C24 C 0.2006(7) 0.4900(6) 0.0419(4)
H36 H 0.2644 0.4908 0.0001
H37 H 0.1502 0.5351 0.0259
C25 C 0.1346(8) 0.3849(7) 0.0276(5)
H38 H 0.1137 0.3628 -0.0375
H39 H 0.1820 0.3394 0.0473
C26 C -0.0253(9) 0.2909(8) 0.0766(8)
H40 H -0.0932 0.2945 0.1128
H41 H 0.0230 0.2499 0.1008
H42 H -0.0461 0.2638 0.0131
C27 C 0.5301(7) 0.3364(5) -0.0163(4)
H43 H 0.6001 0.3286 -0.0502
H44 H 0.4997 0.3934 -0.0319
C28 C 0.4450(9) 0.2470(6) -0.0455(5)
H45 H 0.3696 0.2610 -0.0247
H46 H 0.4655 0.1937 -0.0163
C29 C 0.3934(11) 0.2722(8) -0.1850(10)
H47 H 0.3911 0.2523 -0.2512
H48 H 0.4335 0.3371 -0.1693
H49 H 0.3167 0.2718 -0.1626
C30 C 0.6574(6) 0.3156(6) 0.1200(5)
H50 H 0.6973 0.3673 0.1657
H51 H 0.7085 0.3021 0.0688
C31 C 0.6340(8) 0.2256(7) 0.1631(6)
H52 H 0.7036 0.2130 0.1921
H53 H 0.5774 0.2356 0.2109
C32 C 0.5674(12) 0.0553(7) 0.1320(7)
H54 H 0.5395 0.0031 0.0827
H55 H 0.5099 0.0636 0.1783
H56 H 0.6353 0.0395 0.1596
B6 B 0.3806(8) 0.4308(6) 0.4592(5)
H62 H 0.3010 0.3855 0.4317
B7 B 0.3982(8) 0.5604(6) 0.4660(5)
H63 H 0.3309 0.5997 0.4427
B8 B 0.5398(7) 0.5985(6) 0.4484(5)
H64 H 0.5653 0.6618 0.4138
B9 B 0.6135(7) 0.4924(7) 0.4317(5)
H65 H 0.6882 0.4877 0.3869
B10 B 0.5127(8) 0.3884(6) 0.4369(5)
H66 H 0.5205 0.3164 0.3946
O5A O 0.7928(5) 0.2712(4) 0.8641(3)
O6A O 0.9640(6) 0.6106(5) 0.9185(4)
O7A O 0.5582(8) 0.7837(6) 1.1497(6)
O8A O 0.4065(6) 0.8555(5) 0.9047(4)
N6A N 0.4788(4) 0.5791(4) 0.7645(3)
N7A N 0.6396(5) 0.4891(4) 0.7370(3)
N8A N 0.6014(5) 0.5636(4) 0.8923(3)
N9A N 0.4435(5) 0.6474(4) 0.9148(3)
N10A N 0.7560(5) 0.4760(4) 0.8620(3)
C17A C 0.5241(5) 0.5131(4) 0.6067(4)
C18A C 0.5499(6) 0.5275(5) 0.7111(4)
C19A C 0.5106(6) 0.5942(5) 0.8565(4)
C20A C 0.6646(6) 0.5114(5) 0.8308(4)
C21A C 0.8257(6) 0.4178(6) 0.7985(5)
H29A H 0.8275 0.4417 0.7398
H30A H 0.9033 0.4277 0.8235
C22A C 0.7854(7) 0.3088(6) 0.7800(5)
H31A H 0.8328 0.2758 0.7335
H32A H 0.7070 0.2974 0.7565
C23A C 0.7638(9) 0.1683(6) 0.8534(6)
H33A H 0.7693 0.1479 0.9127
H34A H 0.6870 0.1510 0.8291
H35A H 0.8154 0.1363 0.8113
C24A C 0.7994(7) 0.5100(6) 0.9581(4)
H36A H 0.7356 0.5092 0.9999
H37A H 0.8498 0.4649 0.9741
C25A C 0.8654(8) 0.6151(7) 0.9724(5)
H38A H 0.8863 0.6372 1.0375
H39A H 0.8180 0.6606 0.9527
C26A C 1.0253(9) 0.7091(8) 0.9234(8)
H40A H 1.0932 0.7055 0.8872
H41A H 0.9770 0.7501 0.8992
H42A H 1.0461 0.7362 0.9869
C27A C 0.4699(7) 0.6636(5) 1.0163(4)
H43A H 0.3999 0.6714 1.0502
H44A H 0.5003 0.6066 1.0319
C28A C 0.5550(9) 0.7530(6) 1.0455(5)
H45A H 0.6304 0.7390 1.0247
H46A H 0.5345 0.8063 1.0163
C29A C 0.6066(11) 0.7278(8) 1.1850(10)
H47A H 0.6089 0.7477 1.2512
H48A H 0.5665 0.6629 1.1693
H49A H 0.6833 0.7282 1.1626
C30A C 0.3426(6) 0.6844(6) 0.8800(5)
H50A H 0.3027 0.6327 0.8343
H51A H 0.2915 0.6979 0.9312
C31A C 0.3660(8) 0.7744(7) 0.8369(6)
H52A H 0.2964 0.7870 0.8079
H53A H 0.4226 0.7644 0.7891
C32A C 0.4326(12) 0.9447(7) 0.8680(7)
H54A H 0.4605 0.9969 0.9173
H55A H 0.4901 0.9364 0.8217
H56A H 0.3647 0.9605 0.8404
B6A B 0.6194(8) 0.5692(6) 0.5408(5)
H62A H 0.6990 0.6145 0.5683
B7A B 0.6018(8) 0.4396(6) 0.5340(5)
H63A H 0.6691 0.4003 0.5573
B8A B 0.4602(7) 0.4015(6) 0.5516(5)
H64A H 0.4347 0.3382 0.5862
B9A B 0.3865(7) 0.5076(7) 0.5683(5)
H65A H 0.3118 0.5123 0.6131
B10A B 0.4873(8) 0.6116(6) 0.5631(5)
H66A H 0.4795 0.6836 0.6054
loop_
_geom_bond_atom_site_label_1
_geom_bond_atom_site_label_2
_geom_bond_site_symmetry_1
_geom_bond_site_symmetry_2
O1 C8 1_555 1_555
O2 C7 1_555 1_555
O3 C15 1_555 1_555
O4 C12 1_555 1_555
O5 C22 1_555 1_555
O6 C25 1_555 1_555
O7 C28 1_555 1_555
O8 C31 1_555 1_555
N1 C2 1_555 1_555
N2 C2 1_555 1_555
N3 C3 1_555 1_555
N4 C4 1_555 1_555
N5 C3 1_555 1_555
N6 C18 1_555 1_555
N7 C18 1_555 1_555
N8 C19 1_555 1_555
N9 C19 1_555 1_555
N10 C20 1_555 1_555
C1 C2 1_555 1_555
C3 N1 1_555 1_555
C4 N2 1_555 1_555
C5 N4 1_555 1_555
H1 C5 1_555 1_555
H2 C5 1_555 1_555
C6 N4 1_555 1_555
H3 C6 1_555 1_555
H4 C6 1_555 1_555
C7 C6 1_555 1_555
H5 C7 1_555 1_555
H6 C7 1_555 1_555
C8 C5 1_555 1_555
H7 C8 1_555 1_555
H8 C8 1_555 1_555
C9 O1 1_555 1_555
H9 C9 1_555 1_555
H10 C9 1_555 1_555
H11 C9 1_555 1_555
C10 O2 1_555 1_555
H12 C10 1_555 1_555
H13 C10 1_555 1_555
H14 C10 1_555 1_555
C11 N5 1_555 1_555
H15 C11 1_555 1_555
H16 C11 1_555 1_555
C12 C11 1_555 1_555
H17 C12 1_555 1_555
H18 C12 1_555 1_555
C13 O4 1_555 1_555
H19 C13 1_555 1_555
H20 C13 1_555 1_555
H21 C13 1_555 1_555
C14 N5 1_555 1_555
H22 C14 1_555 1_555
H23 C14 1_555 1_555
C15 C14 1_555 1_555
H24 C15 1_555 1_555
H25 C15 1_555 1_555
C16 O3 1_555 1_555
H26 C16 1_555 1_555
H27 C16 1_555 1_555
H28 C16 1_555 1_555
C17 C18 1_555 1_555
C19 N6 1_555 1_555
C20 N7 1_555 1_555
C21 N10 1_555 1_555
H29 C21 1_555 1_555
H30 C21 1_555 1_555
C22 C21 1_555 1_555
H31 C22 1_555 1_555
H32 C22 1_555 1_555
C23 O5 1_555 1_555
H33 C23 1_555 1_555
H34 C23 1_555 1_555
H35 C23 1_555 1_555
C24 N10 1_555 1_555
H36 C24 1_555 1_555
H37 C24 1_555 1_555
C25 C24 1_555 1_555
H38 C25 1_555 1_555
H39 C25 1_555 1_555
C26 O6 1_555 1_555
H40 C26 1_555 1_555
H41 C26 1_555 1_555
H42 C26 1_555 1_555
C27 N9 1_555 1_555
H43 C27 1_555 1_555
H44 C27 1_555 1_555
C28 C27 1_555 1_555
H45 C28 1_555 1_555
H46 C28 1_555 1_555
C29 O7 1_555 1_555
H47 C29 1_555 1_555
H48 C29 1_555 1_555
H49 C29 1_555 1_555
C30 N9 1_555 1_555
H50 C30 1_555 1_555
H51 C30 1_555 1_555
C31 C30 1_555 1_555
H52 C31 1_555 1_555
H53 C31 1_555 1_555
C32 O8 1_555 1_555
H54 C32 1_555 1_555
H55 C32 1_555 1_555
H56 C32 1_555 1_555
B1 C1 1_555 1_555
H57 B1 1_555 1_555
B2 C1 1_555 1_555
H58 B2 1_555 1_555
B3 C1 1_555 1_555
H59 B3 1_555 1_555
B4 C1 1_555 1_555
H60 B4 1_555 1_555
B5 C1 1_555 1_555
H61 B5 1_555 1_555
B6 C17 1_555 1_555
H62 B6 1_555 1_555
B7 C17 1_555 1_555
H63 B7 1_555 1_555
B8 C17 1_555 1_555
H64 B8 1_555 1_555
B9 C17 1_555 1_555
H65 B9 1_555 1_555
B10 C17 1_555 1_555
H66 B10 1_555 1_555
O1A C8A 1_555 1_555
O2A C7A 1_555 1_555
O3A C15A 1_555 1_555
O4A C12A 1_555 1_555
O5A C22A 1_555 1_555
O6A C25A 1_555 1_555
O7A C28A 1_555 1_555
O8A C31A 1_555 1_555
N1A C2A 1_555 1_555
N2A C2A 1_555 1_555
N3A C3A 1_555 1_555
N4A C4A 1_555 1_555
N5A C3A 1_555 1_555
N6A C18A 1_555 1_555
N7A C18A 1_555 1_555
N8A C19A 1_555 1_555
N9A C19A 1_555 1_555
N10A C20A 1_555 1_555
C1A C2A 1_555 1_555
C3A N1A 1_555 1_555
C4A N2A 1_555 1_555
C5A N4A 1_555 1_555
H1A C5A 1_555 1_555
H2A C5A 1_555 1_555
C6A N4A 1_555 1_555
H3A C6A 1_555 1_555
H4A C6A 1_555 1_555
C7A C6A 1_555 1_555
H5A C7A 1_555 1_555
H6A C7A 1_555 1_555
C8A C5A 1_555 1_555
H7A C8A 1_555 1_555
H8A C8A 1_555 1_555
C9A O1A 1_555 1_555
H9A C9A 1_555 1_555
H10A C9A 1_555 1_555
H11A C9A 1_555 1_555
C10A O2A 1_555 1_555
H12A C10A 1_555 1_555
H13A C10A 1_555 1_555
H14A C10A 1_555 1_555
C11A N5A 1_555 1_555
H15A C11A 1_555 1_555
H16A C11A 1_555 1_555
C12A C11A 1_555 1_555
H17A C12A 1_555 1_555
H18A C12A 1_555 1_555
C13A O4A 1_555 1_555
H19A C13A 1_555 1_555
H20A C13A 1_555 1_555
H21A C13A 1_555 1_555
C14A N5A 1_555 1_555
H22A C14A 1_555 1_555
H23A C14A 1_555 1_555
C15A C14A 1_555 1_555
H24A C15A 1_555 1_555
H25A C15A 1_555 1_555
C16A O3A 1_555 1_555
H26A C16A 1_555 1_555
H27A C16A 1_555 1_555
H28A C16A 1_555 1_555
C17A C18A 1_555 1_555
C19A N6A 1_555 1_555
C20A N7A 1_555 1_555
C21A N10A 1_555 1_555
H29A C21A 1_555 1_555
H30A C21A 1_555 1_555
C22A C21A 1_555 1_555
H31A C22A 1_555 1_555
H32A C22A 1_555 1_555
C23A O5A 1_555 1_555
H33A C23A 1_555 1_555
H34A C23A 1_555 1_555
H35A C23A 1_555 1_555
C24A N10A 1_555 1_555
H36A C24A 1_555 1_555
H37A C24A 1_555 1_555
C25A C24A 1_555 1_555
H38A C25A 1_555 1_555
H39A C25A 1_555 1_555
C26A O6A 1_555 1_555
H40A C26A 1_555 1_555
H41A C26A 1_555 1_555
H42A C26A 1_555 1_555
C27A N9A 1_555 1_555
H43A C27A 1_555 1_555
H44A C27A 1_555 1_555
C28A C27A 1_555 1_555
H45A C28A 1_555 1_555
H46A C28A 1_555 1_555
C29A O7A 1_555 1_555
H47A C29A 1_555 1_555
H48A C29A 1_555 1_555
H49A C29A 1_555 1_555
C30A N9A 1_555 1_555
H50A C30A 1_555 1_555
H51A C30A 1_555 1_555
C31A C30A 1_555 1_555
H52A C31A 1_555 1_555
H53A C31A 1_555 1_555
C32A O8A 1_555 1_555
H54A C32A 1_555 1_555
H55A C32A 1_555 1_555
H56A C32A 1_555 1_555
B1A B3 1_555 1_555
H57A B1A 1_555 1_555
B2A B4 1_555 1_555
H58A B2A 1_555 1_555
B3A B1 1_555 1_555
H59A B3A 1_555 1_555
B4A B1 1_555 1_555
H60A B4A 1_555 1_555
B5A B2 1_555 1_555
H61A B5A 1_555 1_555
B6A B8 1_555 1_555
H62A B6A 1_555 1_555
B7A B9 1_555 1_555
H63A B7A 1_555 1_555
B8A B6 1_555 1_555
H64A B8A 1_555 1_555
B9A B6 1_555 1_555
H65A B9A 1_555 1_555
B10A B7 1_555 1_555
H66A B10A 1_555 1_555
N3 C4 1_555 1_555
N8 C20 1_555 1_555
B1 B2 1_555 1_555
B1 B5 1_555 1_555
B2 B3 1_555 1_555
B2 B4A 1_555 1_555
B3 B4 1_555 1_555
B3 B5A 1_555 1_555
B4 B5 1_555 1_555
B4 B1A 1_555 1_555
B5 B2A 1_555 1_555
B5 B3A 1_555 1_555
B6 B7 1_555 1_555
B6 B10 1_555 1_555
B7 B8 1_555 1_555
B7 B9A 1_555 1_555
B8 B9 1_555 1_555
B8 B10A 1_555 1_555
B9 B10 1_555 1_555
B9 B6A 1_555 1_555
B10 B7A 1_555 1_555
B10 B8A 1_555 1_555
N3A C4A 1_555 1_555
N8A C20A 1_555 1_555
C1A B1A 1_555 1_555
C1A B2A 1_555 1_555
C1A B3A 1_555 1_555
C1A B4A 1_555 1_555
C1A B5A 1_555 1_555
C17A B6A 1_555 1_555
C17A B7A 1_555 1_555
C17A B8A 1_555 1_555
C17A B9A 1_555 1_555
C17A B10A 1_555 1_555
B1A B2A 1_555 1_555
B1A B5A 1_555 1_555
B2A B3A 1_555 1_555
B3A B4A 1_555 1_555
B4A B5A 1_555 1_555
B6A B7A 1_555 1_555
B6A B10A 1_555 1_555
B7A B8A 1_555 1_555
B8A B9A 1_555 1_555
B9A B10A 1_555 1_555

#END
