
#######################################################################
#
#                 Cambridge Crystallographic Data Centre
#                                CCDC 
#
#######################################################################
#
# If this CIF has been generated from an entry in the Cambridge 
# Structural Database, then it will include bibliographic, chemical, 
# crystal, experimental, refinement or atomic coordinate data resulting 
# from the CCDC's data processing and validation procedures.
#
#######################################################################

data_MIZCEE
_chemical_formula_moiety         'C28 H26 O4 Si1'
_chemical_name_systematic        
trans-2,4-Diphenyl-2-(trimethylsiloxy)-3,4-dihydro-2H-naphtho(2,3-b)pyran-5,10-dione
_symmetry_cell_setting           orthorhombic
_symmetry_space_group_name_H-M   'P n a 21'
_symmetry_Int_Tables_number      33
_space_group_name_Hall           'P 2c -2n'
loop_
_symmetry_equiv_pos_site_id
_symmetry_equiv_pos_as_xyz
1 x,y,z
2 -x,-y,1/2+z
3 1/2+x,1/2-y,z
4 1/2-x,1/2+y,1/2+z
_cell_length_a                   22.299(5)
_cell_length_b                   8.3960(17)
_cell_length_c                   13.101(3)
_cell_angle_alpha                90
_cell_angle_beta                 90
_cell_angle_gamma                90
_cell_volume                     2452.8
_exptl_crystal_colour            colorless
_exptl_crystal_description       block
_chemical_melting_point          163-165deg.C
_cell_formula_units_Z            4
loop_
_atom_site_label
_atom_site_type_symbol
_atom_site_fract_x
_atom_site_fract_y
_atom_site_fract_z
Si1 Si 0.07446(10) 0.2431(3) 0.5698(2)
O1 O 0.0445(2) 0.0665(5) 0.5929(3)
O2 O 0.0095(2) 0.0565(5) 0.7587(3)
O3 O -0.0405(2) 0.2471(7) 0.8915(4)
O4 O -0.1806(2) -0.0091(6) 0.6087(4)
C1 C 0.0279(5) 0.3222(12) 0.4669(9)
H1 H -0.0123 0.3372 0.4912
H2 H 0.0276 0.2485 0.4109
H3 H 0.0438 0.4224 0.4444
C2 C 0.1506(4) 0.2167(14) 0.5199(10)
H4 H 0.1493 0.1519 0.4596
H5 H 0.1751 0.1656 0.5706
H6 H 0.1674 0.3188 0.5035
C3 C 0.0758(6) 0.3701(11) 0.6828(8)
H7 H 0.0356 0.3853 0.7072
H8 H 0.0930 0.4714 0.6656
H9 H 0.0994 0.3203 0.7351
C4 C 0.0999(3) -0.0792(8) 0.7220(5)
C5 C 0.1129(3) -0.0783(8) 0.8272(6)
H10 H 0.0849 -0.0400 0.8737
C6 C 0.1670(4) -0.1339(11) 0.8604(7)
H11 H 0.1754 -0.1286 0.9298
C7 C 0.2087(4) -0.1961(10) 0.7979(8)
H12 H 0.2447 -0.2361 0.8232
C8 C 0.1961(4) -0.1981(11) 0.6945(7)
H13 H 0.2246 -0.2370 0.6491
C9 C 0.1430(4) -0.1446(9) 0.6584(7)
H14 H 0.1351 -0.1519 0.5888
C10 C 0.0396(3) -0.0343(8) 0.6779(6)
C11 C 0.0019(3) -0.1774(7) 0.6486(5)
H15 H -0.0022 -0.2475 0.7071
H16 H 0.0218 -0.2360 0.5946
C12 C -0.0602(3) -0.1253(7) 0.6125(5)
H17 H -0.0552 -0.0722 0.5464
C13 C -0.0978(3) -0.2722(8) 0.5951(5)
C14 C -0.0981(4) -0.3450(9) 0.4992(6)
H18 H -0.0761 -0.3017 0.4457
C15 C -0.1311(4) -0.4806(10) 0.4847(7)
H19 H -0.1320 -0.5268 0.4202
C16 C -0.1631(4) -0.5509(10) 0.5626(8)
H20 H -0.1853 -0.6427 0.5507
C17 C -0.1616(4) -0.4832(9) 0.6588(7)
H21 H -0.1822 -0.5297 0.7129
C18 C -0.1289(3) -0.3450(9) 0.6732(6)
H22 H -0.1278 -0.2995 0.7379
C19 C -0.0866(3) -0.0082(7) 0.6840(5)
C20 C -0.1504(3) 0.0346(8) 0.6797(6)
C21 C -0.1766(3) 0.1313(9) 0.7633(6)
C22 C -0.2385(3) 0.1536(9) 0.7692(7)
H23 H -0.2636 0.1049 0.7219
C23 C -0.2627(4) 0.2495(12) 0.8464(8)
H24 H -0.3040 0.2624 0.8514
C24 C -0.2258(4) 0.3236(10) 0.9138(7)
H25 H -0.2419 0.3903 0.9634
C25 C -0.1640(4) 0.3002(10) 0.9093(7)
H26 H -0.1393 0.3516 0.9559
C26 C -0.1393(4) 0.2021(8) 0.8366(6)
C27 C -0.0740(3) 0.1821(9) 0.8328(6)
C28 C -0.0506(3) 0.0689(8) 0.7529(5)
loop_
_geom_bond_atom_site_label_1
_geom_bond_atom_site_label_2
_geom_bond_site_symmetry_1
_geom_bond_site_symmetry_2
Si1 O1 1_555 1_555
O1 C10 1_555 1_555
O2 C10 1_555 1_555
O3 C27 1_555 1_555
O4 C20 1_555 1_555
C1 Si1 1_555 1_555
H1 C1 1_555 1_555
H2 C1 1_555 1_555
H3 C1 1_555 1_555
C2 Si1 1_555 1_555
H4 C2 1_555 1_555
H5 C2 1_555 1_555
H6 C2 1_555 1_555
C3 Si1 1_555 1_555
H7 C3 1_555 1_555
H8 C3 1_555 1_555
H9 C3 1_555 1_555
C4 C5 1_555 1_555
C5 H10 1_555 1_555
C6 C5 1_555 1_555
H11 C6 1_555 1_555
C7 C6 1_555 1_555
H12 C7 1_555 1_555
C8 C7 1_555 1_555
H13 C8 1_555 1_555
C9 C4 1_555 1_555
H14 C9 1_555 1_555
C10 C4 1_555 1_555
C11 C10 1_555 1_555
H15 C11 1_555 1_555
H16 C11 1_555 1_555
C12 C11 1_555 1_555
H17 C12 1_555 1_555
C13 C12 1_555 1_555
C14 C13 1_555 1_555
H18 C14 1_555 1_555
C15 C14 1_555 1_555
H19 C15 1_555 1_555
C16 C15 1_555 1_555
H20 C16 1_555 1_555
C17 C16 1_555 1_555
H21 C17 1_555 1_555
C18 C13 1_555 1_555
H22 C18 1_555 1_555
C19 C12 1_555 1_555
C20 C19 1_555 1_555
C21 C20 1_555 1_555
C22 C21 1_555 1_555
H23 C22 1_555 1_555
C23 C22 1_555 1_555
H24 C23 1_555 1_555
C24 C23 1_555 1_555
H25 C24 1_555 1_555
C25 C24 1_555 1_555
H26 C25 1_555 1_555
C26 C21 1_555 1_555
C27 C26 1_555 1_555
C28 O2 1_555 1_555
C8 C9 1_555 1_555
C17 C18 1_555 1_555
C19 C28 1_555 1_555
C25 C26 1_555 1_555
C27 C28 1_555 1_555

#END
