
#######################################################################
#
#                 Cambridge Crystallographic Data Centre
#                                CCDC 
#
#######################################################################
#
# If this CIF has been generated from an entry in the Cambridge 
# Structural Database, then it will include bibliographic, chemical, 
# crystal, experimental, refinement or atomic coordinate data resulting 
# from the CCDC's data processing and validation procedures.
#
#######################################################################

data_MIZGAE
_chemical_compound_source        'resin of Styrax tonkinensis'
_chemical_formula_moiety         'C30 H46 O4'
_chemical_name_systematic        3\b-Hydroxy-12-oxo-13H-\a-olean-28,19\b-olide
_chemical_properties_biological  'HL-60 cell growth inhibitor'
_symmetry_cell_setting           orthorhombic
_symmetry_space_group_name_H-M   'P 21 21 21'
_symmetry_Int_Tables_number      19
_space_group_name_Hall           'P 2ac 2ab'
loop_
_symmetry_equiv_pos_site_id
_symmetry_equiv_pos_as_xyz
1 x,y,z
2 1/2-x,-y,1/2+z
3 1/2+x,1/2-y,-z
4 -x,1/2+y,1/2-z
_cell_length_a                   6.649
_cell_length_b                   14.222
_cell_length_c                   27.622
_cell_angle_alpha                90
_cell_angle_beta                 90
_cell_angle_gamma                90
_cell_volume                     2611.99
_exptl_crystal_colour            colorless
_exptl_crystal_description       needles
_chemical_melting_point          289-291deg.C
_cell_formula_units_Z            4
_exptl_crystal_recrystallization_method acetone
loop_
_atom_site_label
_atom_site_type_symbol
_atom_site_fract_x
_atom_site_fract_y
_atom_site_fract_z
O1 O 0.5015(8) 0.9716(4) 0.7141(1)
O2 O -0.1537(7) 1.4552(3) 0.8462(1)
O3 O -0.1423(8) 1.6201(3) 0.9717(1)
O4 O -0.0430(11) 1.5881(4) 1.0478(1)
C1 C 0.3054(11) 1.2080(5) 0.7551(2)
C2 C 0.3387(12) 1.1218(5) 0.7227(2)
C3 C 0.4682(12) 1.0474(5) 0.7476(3)
C4 C 0.3854(11) 1.0144(5) 0.7969(2)
C5 C 0.3402(10) 1.1032(4) 0.8286(2)
C6 C 0.2657(12) 1.0828(5) 0.8800(2)
C7 C 0.2894(12) 1.1717(5) 0.9115(2)
C8 C 0.1689(10) 1.2573(4) 0.8925(2)
C9 C 0.2183(10) 1.2713(4) 0.8372(2)
C10 C 0.2072(10) 1.1800(4) 0.8042(2)
C11 C 0.1008(11) 1.3534(4) 0.8150(1)
C12 C 0.0126(10) 1.4195(4) 0.8522(2)
C13 C 0.1412(10) 1.4418(4) 0.8946(2)
C14 C 0.2370(10) 1.3512(4) 0.9204(2)
C15 C 0.1716(11) 1.3472(5) 0.9749(2)
C16 C 0.2258(12) 1.4366(5) 1.0038(2)
C17 C 0.1469(12) 1.5249(5) 0.9778(2)
C18 C 0.0272(11) 1.5018(4) 0.9316(2)
C19 C -0.0653(13) 1.5993(5) 0.9216(2)
C20 C 0.0772(15) 1.6813(5) 0.9077(2)
C21 C 0.2350(15) 1.6922(5) 0.9475(3)
C22 C 0.3173(14) 1.5976(6) 0.9662(3)
C23 C 0.5515(13) 0.9566(5) 0.8231(3)
C24 C 0.2016(12) 0.9474(5) 0.7906(3)
C25 C -0.0137(11) 1.1490(5) 0.7945(2)
C26 C -0.0568(11) 1.2397(5) 0.9012(2)
C27 C 0.4685(11) 1.3631(5) 0.9197(2)
C28 C -0.0177(13) 1.5802(5) 1.0048(2)
C29 C 0.1726(16) 1.6629(5) 0.8581(3)
C30 C -0.0504(19) 1.7726(6) 0.9047(3)
H1 H 0.444 0.923 0.734
H2 H 0.205 1.258 0.736
H3 H 0.445 1.243 0.763
H4 H 0.414 1.143 0.689
H5 H 0.197 1.089 0.713
H6 H 0.613 1.082 0.756
H7 H 0.484 1.137 0.833
H8 H 0.111 1.062 0.879
H9 H 0.356 1.025 0.895
H10 H 0.246 1.155 0.948
H11 H 0.452 1.190 0.912
H12 H 0.377 1.291 0.836
H13 H -0.022 1.323 0.793
H14 H 0.199 1.391 0.791
H15 H 0.268 1.485 0.882
H16 H 0.008 1.337 0.976
H17 H 0.241 1.286 0.991
H18 H 0.386 1.441 1.009
H19 H 0.154 1.433 1.040
H20 H -0.098 1.457 0.944
H21 H -0.192 1.594 0.896
H22 H 0.173 1.732 0.978
H23 H 0.363 1.737 0.934
H24 H 0.417 1.570 0.937
H25 H 0.414 1.610 0.998
H26 H 0.496 0.923 0.857
H27 H 0.681 0.998 0.833
H28 H 0.594 0.902 0.798
H29 H 0.242 0.884 0.770
H30 H 0.079 0.982 0.772
H31 H 0.156 0.928 0.827
H32 H -0.060 1.094 0.820
H33 H -0.033 1.123 0.758
H34 H -0.104 1.211 0.801
H35 H -0.119 1.188 0.876
H36 H -0.145 1.303 0.899
H37 H -0.064 1.210 0.937
H38 H 0.507 1.437 0.922
H39 H 0.530 1.335 0.886
H40 H 0.522 1.324 0.951
H41 H 0.051 1.637 0.834
H42 H 0.281 1.608 0.863
H43 H 0.233 1.729 0.845
H44 H -0.177 1.757 0.879
H45 H 0.038 1.827 0.889
H46 H -0.110 1.787 0.940
loop_
_geom_bond_atom_site_label_1
_geom_bond_atom_site_label_2
_geom_bond_site_symmetry_1
_geom_bond_site_symmetry_2
O1 C3 1_555 1_555
O2 C12 1_555 1_555
O3 C19 1_555 1_555
O4 C28 1_555 1_555
C1 C2 1_555 1_555
C2 C3 1_555 1_555
C3 C4 1_555 1_555
C4 C5 1_555 1_555
C5 C6 1_555 1_555
C6 C7 1_555 1_555
C7 C8 1_555 1_555
C8 C9 1_555 1_555
C9 C10 1_555 1_555
C10 C1 1_555 1_555
C11 C9 1_555 1_555
C12 C11 1_555 1_555
C13 C12 1_555 1_555
C14 C8 1_555 1_555
C15 C14 1_555 1_555
C16 C15 1_555 1_555
C17 C16 1_555 1_555
C18 C13 1_555 1_555
C19 C18 1_555 1_555
C20 C19 1_555 1_555
C21 C20 1_555 1_555
C22 C17 1_555 1_555
C23 C4 1_555 1_555
C24 C4 1_555 1_555
C25 C10 1_555 1_555
C26 C8 1_555 1_555
C27 C14 1_555 1_555
C28 O3 1_555 1_555
C29 C20 1_555 1_555
C30 C20 1_555 1_555
H1 O1 1_555 1_555
H2 C1 1_555 1_555
H3 C1 1_555 1_555
H4 C2 1_555 1_555
H5 C2 1_555 1_555
H6 C3 1_555 1_555
H7 C5 1_555 1_555
H8 C6 1_555 1_555
H9 C6 1_555 1_555
H10 C7 1_555 1_555
H11 C7 1_555 1_555
H12 C9 1_555 1_555
H13 C11 1_555 1_555
H14 C11 1_555 1_555
H15 C13 1_555 1_555
H16 C15 1_555 1_555
H17 C15 1_555 1_555
H18 C16 1_555 1_555
H19 C16 1_555 1_555
H20 C18 1_555 1_555
H21 C19 1_555 1_555
H22 C21 1_555 1_555
H23 C21 1_555 1_555
H24 C22 1_555 1_555
H25 C22 1_555 1_555
H26 C23 1_555 1_555
H27 C23 1_555 1_555
H28 C23 1_555 1_555
H29 C24 1_555 1_555
H30 C24 1_555 1_555
H31 C24 1_555 1_555
H32 C25 1_555 1_555
H33 C25 1_555 1_555
H34 C25 1_555 1_555
H35 C26 1_555 1_555
H36 C26 1_555 1_555
H37 C26 1_555 1_555
H38 C27 1_555 1_555
H39 C27 1_555 1_555
H40 C27 1_555 1_555
H41 C29 1_555 1_555
H42 C29 1_555 1_555
H43 C29 1_555 1_555
H44 C30 1_555 1_555
H45 C30 1_555 1_555
H46 C30 1_555 1_555
C5 C10 1_555 1_555
C13 C14 1_555 1_555
C17 C18 1_555 1_555
C17 C28 1_555 1_555
C21 C22 1_555 1_555

#END
