
#######################################################################
#
#                 Cambridge Crystallographic Data Centre
#                                CCDC 
#
#######################################################################
#
# If this CIF has been generated from an entry in the Cambridge 
# Structural Database, then it will include bibliographic, chemical, 
# crystal, experimental, refinement or atomic coordinate data resulting 
# from the CCDC's data processing and validation procedures.
#
#######################################################################

data_MIZHAF
_chemical_formula_moiety         'C10 H12 N2 O2,H2 O1'
_chemical_name_systematic        
"2'-(2-Isopropylidene)-2-hydroxybenzohydrazide monohydrate"
_symmetry_cell_setting           monoclinic
_symmetry_space_group_name_H-M   'P 21/n'
_symmetry_Int_Tables_number      14
_space_group_name_Hall           '-P 2yn'
loop_
_symmetry_equiv_pos_site_id
_symmetry_equiv_pos_as_xyz
1 x,y,z
2 1/2-x,1/2+y,1/2-z
3 -x,-y,-z
4 1/2+x,1/2-y,1/2+z
_cell_length_a                   4.8271(15)
_cell_length_b                   15.605(5)
_cell_length_c                   14.208(4)
_cell_angle_alpha                90
_cell_angle_beta                 90.899(6)
_cell_angle_gamma                90
_cell_volume                     1070.11
_chemical_melting_point          108.5-109.5deg.C
_cell_formula_units_Z            4
loop_
_atom_site_label
_atom_site_type_symbol
_atom_site_fract_x
_atom_site_fract_y
_atom_site_fract_z
N1 N 0.1184(5) 0.6526(2) 0.8105(2)
N2 N 0.2948(5) 0.7183(1) 0.8411(2)
O1 O -0.0551(4) 0.4943(1) 0.8230(1)
O2 O -0.0660(4) 0.7368(1) 0.6962(1)
C1 C -0.2333(6) 0.5115(2) 0.7500(2)
C2 C -0.2373(6) 0.5939(2) 0.7090(2)
C3 C -0.4232(6) 0.6079(2) 0.6347(2)
C4 C -0.6005(6) 0.5451(2) 0.6020(2)
C5 C -0.5920(7) 0.4657(2) 0.6431(2)
C6 C -0.4115(6) 0.4487(2) 0.7161(2)
C7 C -0.0555(6) 0.6668(2) 0.7372(2)
C8 C 0.4413(6) 0.7009(2) 0.9144(2)
C9 C 0.4407(6) 0.6187(2) 0.9680(2)
C10 C 0.6296(7) 0.7709(2) 0.9492(2)
O3 O 0.0507(7) 0.3306(1) 0.8416(2)
loop_
_geom_bond_atom_site_label_1
_geom_bond_atom_site_label_2
_geom_bond_site_symmetry_1
_geom_bond_site_symmetry_2
N1 N2 1_555 1_555
N2 C8 1_555 1_555
O1 C1 1_555 1_555
O2 C7 1_555 1_555
C1 C2 1_555 1_555
C2 C3 1_555 1_555
C3 C4 1_555 1_555
C4 C5 1_555 1_555
C5 C6 1_555 1_555
C6 C1 1_555 1_555
C7 N1 1_555 1_555
C8 C9 1_555 1_555
C10 C8 1_555 1_555
C2 C7 1_555 1_555

#END
