
#######################################################################
#
#                 Cambridge Crystallographic Data Centre
#                                CCDC 
#
#######################################################################
#
# If this CIF has been generated from an entry in the Cambridge 
# Structural Database, then it will include bibliographic, chemical, 
# crystal, experimental, refinement or atomic coordinate data resulting 
# from the CCDC's data processing and validation procedures.
#
#######################################################################

data_MIZJEM01
_chemical_formula_moiety         'C8 H9 N1 O4'
_chemical_name_systematic        1-(methacryloyloxy)pyrrolidine-2,5-dione
_symmetry_cell_setting           monoclinic
_symmetry_space_group_name_H-M   'P 21/c'
_symmetry_Int_Tables_number      14
_space_group_name_Hall           '-P 2ybc'
loop_
_symmetry_equiv_pos_site_id
_symmetry_equiv_pos_as_xyz
1 x,y,z
2 -x,1/2+y,1/2-z
3 -x,-y,-z
4 x,1/2-y,1/2+z
_cell_length_a                   9.7245(7)
_cell_length_b                   11.0062(8)
_cell_length_c                   8.6096(6)
_cell_angle_alpha                90
_cell_angle_beta                 101.369(3)
_cell_angle_gamma                90
_cell_volume                     903.402
_exptl_crystal_colour            colorless
_exptl_crystal_description       block
_cell_formula_units_Z            4
_exptl_crystal_preparation       ', Luminescent'
loop_
_atom_site_label
_atom_site_type_symbol
_atom_site_fract_x
_atom_site_fract_y
_atom_site_fract_z
O1 O 0.48840(13) 0.68672(11) 0.81401(16)
N1 N 0.27999(12) 0.74637(9) 0.66346(12)
C1 C 0.41840(16) 0.76252(13) 0.73505(15)
O2 O 0.09550(12) 0.84082(11) 0.50312(15)
C2 C 0.45505(15) 0.88879(13) 0.69213(18)
H1 H 0.5294 0.8869 0.6318
H2 H 0.4860 0.9371 0.7868
C3 C 0.32190(17) 0.94147(13) 0.59310(17)
H3 H 0.2911 1.0115 0.6455
H4 H 0.3378 0.9665 0.4901
O3 O 0.21133(11) 0.63801(8) 0.67872(11)
O4 O 0.29439(13) 0.57822(10) 0.46636(13)
C4 C 0.21398(15) 0.84230(13) 0.57572(15)
C5 C 0.23156(14) 0.55346(11) 0.56647(14)
C6 C 0.16644(14) 0.43548(11) 0.58962(16)
C7 C 0.09349(16) 0.42002(14) 0.70190(18)
H5 H 0.0822 0.4842 0.7685
H6 H 0.0533 0.3449 0.7145
C8 C 0.1896(2) 0.33965(16) 0.4750(2)
H7 H 0.1460 0.3638 0.3697
H8 H 0.1493 0.2645 0.5010
H9 H 0.2884 0.3290 0.4807
loop_
_geom_bond_atom_site_label_1
_geom_bond_atom_site_label_2
_geom_bond_site_symmetry_1
_geom_bond_site_symmetry_2
O1 C1 1_555 1_555
N1 C1 1_555 1_555
C1 C2 1_555 1_555
O2 C4 1_555 1_555
C2 H1 1_555 1_555
H2 C2 1_555 1_555
C3 C2 1_555 1_555
H3 C3 1_555 1_555
H4 C3 1_555 1_555
O3 N1 1_555 1_555
O4 C5 1_555 1_555
C4 N1 1_555 1_555
C5 O3 1_555 1_555
C6 C5 1_555 1_555
C7 C6 1_555 1_555
H5 C7 1_555 1_555
H6 C7 1_555 1_555
C8 C6 1_555 1_555
H7 C8 1_555 1_555
H8 C8 1_555 1_555
H9 C8 1_555 1_555
C3 C4 1_555 1_555

#END
