
#######################################################################
#
#                 Cambridge Crystallographic Data Centre
#                                CCDC 
#
#######################################################################
#
# If this CIF has been generated from an entry in the Cambridge 
# Structural Database, then it will include bibliographic, chemical, 
# crystal, experimental, refinement or atomic coordinate data resulting 
# from the CCDC's data processing and validation procedures.
#
#######################################################################

data_MIZMUE
_chemical_formula_moiety         'C7 H6 N2,C3 H4 O4'
_chemical_name_systematic        'Benzimidazole malonic acid'
_symmetry_cell_setting           triclinic
_symmetry_space_group_name_H-M   'P -1'
_symmetry_Int_Tables_number      2
_space_group_name_Hall           '-P 1'
loop_
_symmetry_equiv_pos_site_id
_symmetry_equiv_pos_as_xyz
1 x,y,z
2 -x,-y,-z
_cell_length_a                   3.8570(8)
_cell_length_b                   13.005(3)
_cell_length_c                   21.178(4)
_cell_angle_alpha                104.42(3)
_cell_angle_beta                 93.85(3)
_cell_angle_gamma                95.52(3)
_cell_volume                     1019.47
_cell_formula_units_Z            4
loop_
_atom_site_label
_atom_site_type_symbol
_atom_site_fract_x
_atom_site_fract_y
_atom_site_fract_z
O1 O 0.4615(8) 0.2518(2) 0.40793(13)
H1 H 0.3452 0.2878 0.4365
O2 O 0.4182(7) 0.1029(2) 0.43938(12)
O3 O 0.1653(8) 0.26250(19) 0.30544(13)
O4 O -0.1464(7) 0.12080(19) 0.24012(12)
H2 H -0.1584 0.1638 0.2159
C15 C 0.3556(9) 0.1552(3) 0.39892(16)
C16 C 0.1458(9) 0.0980(2) 0.33563(15)
H17 H -0.0644 0.0619 0.3455
H18 H 0.2787 0.0444 0.3125
C17 C 0.0462(9) 0.1648(3) 0.28993(16)
O5 O 0.2416(9) 0.73665(19) 0.20131(13)
O6 O 0.5699(7) 0.87563(19) 0.26703(12)
H3 H 0.6111 0.8281 0.2868
O7 O -0.0561(9) 0.7529(2) 0.09928(13)
H4 H -0.2107 0.7463 0.1252
O8 O -0.0069(7) 0.9039(2) 0.07058(12)
C18 C 0.3694(9) 0.8343(3) 0.21767(16)
C19 C 0.2647(9) 0.9050(2) 0.17389(15)
H19 H 0.4758 0.8948 0.1527
H20 H 0.3319 0.9809 0.1864
C20 C 0.0509(9) 0.8494(3) 0.10961(16)
N1 N 0.6344(8) 0.1937(2) 0.13850(13)
N2 N 0.4121(7) 0.1898(2) 0.04079(13)
H5 H 0.2945 0.1656 0.0008
C1 C 0.5936(8) 0.2908(3) 0.06566(15)
C2 C 0.6499(10) 0.3790(3) 0.04020(17)
H7 H 0.5562 0.3767 -0.0033
C3 C 0.8389(10) 0.4675(3) 0.07934(18)
H8 H 0.8794 0.5296 0.0628
C4 C 0.9822(10) 0.4708(3) 0.14278(19)
H9 H 1.1147 0.5354 0.1690
C5 C 0.9347(9) 0.3828(3) 0.16813(17)
H10 H 1.0303 0.3838 0.2114
C6 C 0.7385(8) 0.2927(3) 0.12810(15)
C7 C 0.4417(9) 0.1355(3) 0.08569(16)
H11 H 0.3374 0.0635 0.0805
N3 N 0.8901(8) 0.7921(2) 0.35701(13)
N4 N 1.1736(7) 0.7974(2) 0.45016(13)
H6 H 1.2990 0.8228 0.4893
C8 C 1.0573(9) 0.6911(3) 0.42166(15)
C9 C 1.0878(10) 0.5983(3) 0.44183(18)
H12 H 1.2135 0.6007 0.4830
C10 C 0.9393(11) 0.5047(3) 0.40055(19)
H13 H 0.9576 0.4394 0.4133
C11 C 0.7542(12) 0.5016(3) 0.3398(2)
H14 H 0.6520 0.4339 0.3120
C12 C 0.7239(9) 0.5922(3) 0.31945(17)
H15 H 0.6016 0.5900 0.2780
C13 C 0.8726(9) 0.6871(3) 0.36150(15)
C14 C 1.0704(11) 0.8547(3) 0.41006(17)
H16 H 1.1204 0.9309 0.4185
loop_
_geom_bond_atom_site_label_1
_geom_bond_atom_site_label_2
_geom_bond_site_symmetry_1
_geom_bond_site_symmetry_2
O1 H1 1_555 1_555
O2 C15 1_555 1_555
O3 C17 1_555 1_555
O4 H2 1_555 1_555
O5 C18 1_555 1_555
O6 H3 1_555 1_555
O7 H4 1_555 1_555
O8 C20 1_555 1_555
N1 C6 1_555 1_555
N2 H5 1_555 1_555
N3 C13 1_555 1_555
N4 H6 1_555 1_555
C1 N2 1_555 1_555
C2 C1 1_555 1_555
H7 C2 1_555 1_555
C3 C2 1_555 1_555
H8 C3 1_555 1_555
C4 C3 1_555 1_555
H9 C4 1_555 1_555
C5 C4 1_555 1_555
H10 C5 1_555 1_555
C6 C1 1_555 1_555
C7 N1 1_555 1_555
H11 C7 1_555 1_555
C8 N4 1_555 1_555
C9 C8 1_555 1_555
H12 C9 1_555 1_555
C10 C9 1_555 1_555
H13 C10 1_555 1_555
C11 C10 1_555 1_555
H14 C11 1_555 1_555
C12 C11 1_555 1_555
H15 C12 1_555 1_555
C13 C8 1_555 1_555
C14 N3 1_555 1_555
H16 C14 1_555 1_555
C15 O1 1_555 1_555
C16 C15 1_555 1_555
H17 C16 1_555 1_555
H18 C16 1_555 1_555
C17 O4 1_555 1_555
C18 O6 1_555 1_555
C19 C18 1_555 1_555
H19 C19 1_555 1_555
H20 C19 1_555 1_555
C20 O7 1_555 1_555
N2 C7 1_555 1_555
N4 C14 1_555 1_555
C5 C6 1_555 1_555
C12 C13 1_555 1_555
C16 C17 1_555 1_555
C19 C20 1_555 1_555

#END
