
#######################################################################
#
#                 Cambridge Crystallographic Data Centre
#                                CCDC 
#
#######################################################################
#
# If this CIF has been generated from an entry in the Cambridge 
# Structural Database, then it will include bibliographic, chemical, 
# crystal, experimental, refinement or atomic coordinate data resulting 
# from the CCDC's data processing and validation procedures.
#
#######################################################################

data_MIZQET
_chemical_formula_moiety         'C18 H12 Cl1 N1 O3'
_chemical_name_systematic        
1-(3-chlorophenyl)-2-nitro-1,2-dihydronaphtho[2,1-b]furan
_symmetry_cell_setting           orthorhombic
_symmetry_space_group_name_H-M   'P b c a'
_symmetry_Int_Tables_number      61
_space_group_name_Hall           '-P 2ac 2ab'
loop_
_symmetry_equiv_pos_site_id
_symmetry_equiv_pos_as_xyz
1 x,y,z
2 1/2-x,-y,1/2+z
3 -x,1/2+y,1/2-z
4 1/2+x,1/2-y,-z
5 -x,-y,-z
6 1/2+x,y,1/2-z
7 x,1/2-y,1/2+z
8 1/2-x,1/2+y,z
_cell_length_a                   10.0611(2)
_cell_length_b                   10.0614(2)
_cell_length_c                   29.5998(6)
_cell_angle_alpha                90
_cell_angle_beta                 90
_cell_angle_gamma                90
_cell_volume                     2996.35
_exptl_crystal_colour            colorless
_exptl_crystal_description       block
_cell_formula_units_Z            8
loop_
_atom_site_label
_atom_site_type_symbol
_atom_site_fract_x
_atom_site_fract_y
_atom_site_fract_z
Cl1 Cl 0.12038(5) 0.23564(6) 0.143050(17)
O1 O -0.42349(13) 0.41127(14) 0.06864(4)
C1 C -0.11353(16) 0.51825(17) 0.09183(5)
C2 C -0.33298(15) 0.53016(17) 0.17986(5)
C3 C -0.43101(17) 0.42298(18) 0.11549(6)
C4 C -0.42528(16) 0.46021(18) 0.20743(6)
C5 C -0.33942(15) 0.50794(17) 0.13262(5)
C6 C -0.25720(16) 0.56388(18) 0.09444(5)
H1 H -0.2606 0.6612 0.0952
C7 C 0.06470(17) 0.37226(19) 0.11219(5)
O2 O -0.54400(16) 0.61800(18) 0.03566(5)
C8 C -0.3279(2) 0.5602(2) 0.27367(6)
H2 H -0.3247 0.5699 0.3049
C9 C -0.24095(18) 0.61659(19) 0.20056(5)
H3 H -0.1815 0.6644 0.1828
C10 C -0.06644(16) 0.41217(18) 0.11695(5)
H4 H -0.1225 0.3679 0.1369
N1 N -0.4242(2) 0.6252(2) 0.03423(5)
C11 C 0.15067(18) 0.4373(2) 0.08351(6)
H5 H 0.2386 0.4099 0.0808
C12 C -0.52286(18) 0.3529(2) 0.14148(7)
H6 H -0.5836 0.2947 0.1284
C13 C -0.02675(19) 0.58354(19) 0.06265(6)
H7 H -0.0571 0.6548 0.0455
C14 C 0.10386(19) 0.5434(2) 0.05900(6)
H8 H 0.1610 0.5887 0.0397
C15 C -0.51924(18) 0.37394(19) 0.18714(7)
H9 H -0.5804 0.3302 0.2054
C16 C -0.33962(18) 0.51163(19) 0.05373(6)
H10 H -0.2798 0.4771 0.0304
C17 C -0.2385(2) 0.6306(2) 0.24646(6)
H11 H -0.1769 0.6873 0.2597
C18 C -0.4186(2) 0.4785(2) 0.25495(6)
H12 H -0.4779 0.4332 0.2735
O3 O -0.3616(2) 0.7167(2) 0.01809(6)
loop_
_geom_bond_atom_site_label_1
_geom_bond_atom_site_label_2
_geom_bond_site_symmetry_1
_geom_bond_site_symmetry_2
Cl1 C7 1_555 1_555
O1 C3 1_555 1_555
C1 C6 1_555 1_555
C2 C4 1_555 1_555
C3 C5 1_555 1_555
C4 C15 1_555 1_555
C5 C2 1_555 1_555
C6 C5 1_555 1_555
H1 C6 1_555 1_555
C7 C10 1_555 1_555
O2 N1 1_555 1_555
C8 H2 1_555 1_555
C9 C2 1_555 1_555
H3 C9 1_555 1_555
C10 C1 1_555 1_555
H4 C10 1_555 1_555
N1 C16 1_555 1_555
C11 C7 1_555 1_555
H5 C11 1_555 1_555
C12 C3 1_555 1_555
H6 C12 1_555 1_555
C13 C1 1_555 1_555
H7 C13 1_555 1_555
C14 C11 1_555 1_555
H8 C14 1_555 1_555
C15 C12 1_555 1_555
H9 C15 1_555 1_555
C16 O1 1_555 1_555
H10 C16 1_555 1_555
C17 C8 1_555 1_555
H11 C17 1_555 1_555
C18 C4 1_555 1_555
H12 C18 1_555 1_555
O3 N1 1_555 1_555
C6 C16 1_555 1_555
C8 C18 1_555 1_555
C9 C17 1_555 1_555
C13 C14 1_555 1_555

#END
