
#######################################################################
#
#                 Cambridge Crystallographic Data Centre
#                                CCDC 
#
#######################################################################
#
# If this CIF has been generated from an entry in the Cambridge 
# Structural Database, then it will include bibliographic, chemical, 
# crystal, experimental, refinement or atomic coordinate data resulting 
# from the CCDC's data processing and validation procedures.
#
#######################################################################

data_MNAPCD01
_chemical_formula_moiety         'C24 H20 O4'
_chemical_name_systematic        
'dimethyl 2a,4a,4d,4f-tetrahydro-1,2:3,4-dibuta[1,3]dienodicyclobuta[def,jkl]biphenylene-4c,4e(2bH,4bH)-dicarboxylate'
_symmetry_cell_setting           orthorhombic
_symmetry_space_group_name_H-M   'P b c a'
_symmetry_Int_Tables_number      61
_space_group_name_Hall           '-P 2ac 2ab'
loop_
_symmetry_equiv_pos_site_id
_symmetry_equiv_pos_as_xyz
1 x,y,z
2 1/2-x,-y,1/2+z
3 -x,1/2+y,1/2-z
4 1/2+x,1/2-y,-z
5 -x,-y,-z
6 1/2+x,y,1/2-z
7 x,1/2-y,1/2+z
8 1/2-x,1/2+y,z
_cell_length_a                   11.9184(14)
_cell_length_b                   16.992(2)
_cell_length_c                   18.083(2)
_cell_angle_alpha                90
_cell_angle_beta                 90
_cell_angle_gamma                90
_cell_volume                     3662.12
_cell_formula_units_Z            8
_exptl_crystal_recrystallization_method acetone
_exptl_crystal_preparation       'irradiated product'
loop_
_atom_site_label
_atom_site_type_symbol
_atom_site_fract_x
_atom_site_fract_y
_atom_site_fract_z
O1 O 0.98463(16) 1.05247(10) 0.57944(11)
O2 O 0.81661(13) 1.01154(10) 0.54088(9)
O3 O 0.85020(16) 0.96748(14) 0.83921(11)
O4 O 1.03488(14) 0.96611(11) 0.82579(10)
C1 C 0.91456(17) 0.92708(12) 0.61893(11)
C2 C 0.83047(17) 0.91126(12) 0.68439(11)
H1 H 0.7761 0.9525 0.6967
C3 C 0.93139(17) 0.89941(12) 0.73683(11)
C4 C 1.01480(18) 0.91308(13) 0.67157(11)
H2 H 1.0704 0.9552 0.6767
C5 C 1.05656(17) 0.82692(13) 0.67696(12)
H3 H 1.1343 0.8257 0.6945
C6 C 1.04426(17) 0.77664(13) 0.60939(12)
C7 C 1.12041(19) 0.71728(14) 0.59301(14)
H4 H 1.1811 0.7087 0.6243
C8 C 1.1075(2) 0.67073(16) 0.53098(15)
H5 H 1.1582 0.6304 0.5213
C9 C 1.0190(2) 0.68419(16) 0.48346(14)
H6 H 1.0104 0.6532 0.4414
C10 C 0.9434(2) 0.74352(15) 0.49818(14)
H7 H 0.8846 0.7528 0.4656
C11 C 0.95436(18) 0.78957(13) 0.56132(11)
C12 C 0.87055(18) 0.85206(12) 0.57880(11)
H8 H 0.8289 0.8667 0.5342
C13 C 0.97270(17) 0.81212(12) 0.74388(12)
H9 H 1.0147 0.8051 0.7900
C14 C 0.88500(17) 0.74979(12) 0.73662(11)
C15 C 0.88998(19) 0.68043(13) 0.77745(13)
H10 H 0.9488 0.6729 0.8105
C16 C 0.8093(2) 0.62265(13) 0.76982(14)
H11 H 0.8139 0.5766 0.7975
C17 C 0.7218(2) 0.63364(14) 0.72086(15)
H12 H 0.6672 0.5950 0.7155
C18 C 0.71544(18) 0.70214(13) 0.67986(13)
H13 H 0.6566 0.7089 0.6467
C19 C 0.79546(16) 0.76100(12) 0.68736(11)
C20 C 0.78656(17) 0.83639(12) 0.64515(11)
H14 H 0.7091 0.8445 0.6287
C21 C 0.91287(19) 1.00343(13) 0.57806(12)
C22 C 0.8022(2) 1.08289(16) 0.49859(15)
H15 H 0.7953 1.1268 0.5317
H16 H 0.7357 1.0788 0.4689
H17 H 0.8661 1.0905 0.4671
C23 C 0.93157(19) 0.94729(13) 0.80555(12)
C24 C 1.0472(3) 1.01860(19) 0.88836(16)
H18 H 1.0211 1.0701 0.8751
H19 H 1.1248 1.0213 0.9023
H20 H 1.0038 0.9991 0.9292
loop_
_geom_bond_atom_site_label_1
_geom_bond_atom_site_label_2
_geom_bond_site_symmetry_1
_geom_bond_site_symmetry_2
O1 C21 1_555 1_555
O2 C21 1_555 1_555
O3 C23 1_555 1_555
O4 C23 1_555 1_555
C1 C2 1_555 1_555
C2 H1 1_555 1_555
C3 C2 1_555 1_555
C4 C1 1_555 1_555
H2 C4 1_555 1_555
C5 C4 1_555 1_555
H3 C5 1_555 1_555
C6 C5 1_555 1_555
C7 C6 1_555 1_555
H4 C7 1_555 1_555
C8 C7 1_555 1_555
H5 C8 1_555 1_555
C9 C8 1_555 1_555
H6 C9 1_555 1_555
C10 C9 1_555 1_555
H7 C10 1_555 1_555
C11 C6 1_555 1_555
C12 C1 1_555 1_555
H8 C12 1_555 1_555
C13 C3 1_555 1_555
H9 C13 1_555 1_555
C14 C13 1_555 1_555
C15 C14 1_555 1_555
H10 C15 1_555 1_555
C16 C15 1_555 1_555
H11 C16 1_555 1_555
C17 C16 1_555 1_555
H12 C17 1_555 1_555
C18 C17 1_555 1_555
H13 C18 1_555 1_555
C19 C14 1_555 1_555
C20 C2 1_555 1_555
H14 C20 1_555 1_555
C21 C1 1_555 1_555
C22 O2 1_555 1_555
H15 C22 1_555 1_555
H16 C22 1_555 1_555
H17 C22 1_555 1_555
C23 C3 1_555 1_555
C24 O4 1_555 1_555
H18 C24 1_555 1_555
H19 C24 1_555 1_555
H20 C24 1_555 1_555
C3 C4 1_555 1_555
C5 C13 1_555 1_555
C10 C11 1_555 1_555
C11 C12 1_555 1_555
C12 C20 1_555 1_555
C18 C19 1_555 1_555
C19 C20 1_555 1_555

#END
