
#######################################################################
#
#                 Cambridge Crystallographic Data Centre
#                                CCDC 
#
#######################################################################
#
# If this CIF has been generated from an entry in the Cambridge 
# Structural Database, then it will include bibliographic, chemical, 
# crystal, experimental, refinement or atomic coordinate data resulting 
# from the CCDC's data processing and validation procedures.
#
#######################################################################

data_MNBZAC
_chemical_formula_moiety         'C7 H5 N1 O4'
_chemical_name_systematic        'm-Nitrobenzoic acid'
_symmetry_cell_setting           monoclinic
_symmetry_space_group_name_H-M   'P 21/c'
_symmetry_Int_Tables_number      14
_space_group_name_Hall           '-P 2ybc'
loop_
_symmetry_equiv_pos_site_id
_symmetry_equiv_pos_as_xyz
1 x,y,z
2 -x,1/2+y,1/2-z
3 -x,-y,-z
4 x,1/2-y,1/2+z
_cell_length_a                   13.22(1)
_cell_length_b                   10.67(1)
_cell_length_c                   10.37(1)
_cell_angle_alpha                90
_cell_angle_beta                 91.2(1)
_cell_angle_gamma                90
_cell_volume                     1462.44
_cell_formula_units_Z            8
loop_
_atom_site_label
_atom_site_type_symbol
_atom_site_fract_x
_atom_site_fract_y
_atom_site_fract_z
C1 C 0.23460 0.16220 0.30010
C3 C 0.16830 0.06370 0.27820
C5 C 0.08930 0.08200 0.19010
C7 C 0.07420 0.19250 0.12330
C9 C 0.14230 0.28900 0.14330
C11 C 0.22340 0.27380 0.23130
C13 C 0.31960 0.14560 0.39580
H1 H 0.17000 -0.01400 0.31600
H3 H 0.01600 0.19400 0.07300
H5 H 0.12700 0.38800 0.10500
H7 H 0.26000 0.34200 0.25500
H9 H 0.43600 0.22500 0.45600
N1 N 0.01990 -0.02330 0.16550
O1 O 0.38200 0.23730 0.40520
O3 O 0.32560 0.04840 0.46290
O5 O 0.04830 -0.12900 0.19110
O7 O -0.06450 0.00070 0.11800
C2 C -0.41220 0.12620 -0.21490
C4 C -0.34540 0.22550 -0.20350
C6 C -0.27430 0.22360 -0.10290
C8 C -0.26740 0.12690 -0.01400
C10 C -0.33600 0.02950 -0.02570
C12 C -0.40800 0.02770 -0.12710
C14 C -0.48640 0.12780 -0.32480
H2 H -0.33400 0.29000 -0.24400
H4 H -0.21900 0.11700 0.05200
H6 H -0.34100 -0.04400 0.04000
H8 H -0.45800 -0.03500 -0.13600
H10 H -0.60400 0.04600 -0.36000
N2 N -0.20180 0.32840 -0.09110
O2 O -0.54590 0.03280 -0.33610
O4 O -0.48690 0.21710 -0.40160
O6 O -0.20280 0.40730 -0.17590
O8 O -0.14430 0.33040 0.00220
loop_
_geom_bond_atom_site_label_1
_geom_bond_atom_site_label_2
_geom_bond_site_symmetry_1
_geom_bond_site_symmetry_2
C1 C3 1_555 1_555
C2 C4 1_555 1_555
C3 C5 1_555 1_555
C4 C6 1_555 1_555
C5 C7 1_555 1_555
C6 C8 1_555 1_555
C7 C9 1_555 1_555
C8 C10 1_555 1_555
C9 C11 1_555 1_555
C10 C12 1_555 1_555
C11 C1 1_555 1_555
C12 C2 1_555 1_555
C13 C1 1_555 1_555
C14 C2 1_555 1_555
H1 C3 1_555 1_555
H2 C4 1_555 1_555
H3 C7 1_555 1_555
H4 C8 1_555 1_555
H5 C9 1_555 1_555
H6 C10 1_555 1_555
H7 C11 1_555 1_555
H8 C12 1_555 1_555
H9 O1 1_555 1_555
H10 O2 1_555 1_555
N1 C5 1_555 1_555
N2 C6 1_555 1_555
O1 C13 1_555 1_555
O2 C14 1_555 1_555
O3 C13 1_555 1_555
O4 C14 1_555 1_555
O5 N1 1_555 1_555
O6 N2 1_555 1_555
O7 N1 1_555 1_555
O8 N2 1_555 1_555

#END
