
#######################################################################
#
#                 Cambridge Crystallographic Data Centre
#                                CCDC 
#
#######################################################################
#
# If this CIF has been generated from an entry in the Cambridge 
# Structural Database, then it will include bibliographic, chemical, 
# crystal, experimental, refinement or atomic coordinate data resulting 
# from the CCDC's data processing and validation procedures.
#
#######################################################################

data_MNPHCB
_chemical_formula_moiety         'C16 H16'
_chemical_name_systematic        4,8-Dimethylnaphtho(1,2:5,6)dicyclobutene
_symmetry_cell_setting           monoclinic
_symmetry_space_group_name_H-M   'P 21/c'
_symmetry_Int_Tables_number      14
_space_group_name_Hall           '-P 2ybc'
loop_
_symmetry_equiv_pos_site_id
_symmetry_equiv_pos_as_xyz
1 x,y,z
2 -x,1/2+y,1/2-z
3 -x,-y,-z
4 x,1/2-y,1/2+z
_cell_length_a                   8.304(3)
_cell_length_b                   5.060(2)
_cell_length_c                   13.510(7)
_cell_angle_alpha                90
_cell_angle_beta                 101.60(3)
_cell_angle_gamma                90
_cell_volume                     556.072
_exptl_crystal_colour            colorless
_chemical_melting_point          196-7deg.C
_cell_formula_units_Z            2
loop_
_atom_site_label
_atom_site_type_symbol
_atom_site_fract_x
_atom_site_fract_y
_atom_site_fract_z
C1 C 0.40640 0.28870 0.39340
C2 C 0.24480 0.35910 0.38060
C3 C 0.18630 0.54650 0.44060
C4 C 0.29840 0.66500 0.51620
C5 C 0.52970 0.40230 0.46880
C6 C 0.37420 0.08250 0.31010
C7 C 0.18920 0.16510 0.29480
C8 C 0.24350 0.86880 0.58330
H1 H 0.39600 -0.11100 0.33400
H2 H 0.42600 0.10800 0.24700
H3 H 0.14100 0.24400 0.22800
H4 H 0.10900 0.02700 0.30800
H5 H 0.07300 0.59200 0.43000
H6 H 0.26900 0.82800 0.65300
H7 H 0.12800 0.88800 0.56700
H8 H 0.29700 1.04200 0.57900
C5B C 0.47030 0.59770 0.53120
C4B C 0.70160 0.33500 0.48380
C1B C 0.59360 0.71130 0.60660
C3B C 0.81370 0.45350 0.55940
C8B C 0.75650 0.13120 0.41670
C2B C 0.75520 0.64090 0.61940
C6B C 0.62580 0.91750 0.68990
H5B H 0.92700 0.40800 0.57000
H6B H 0.73100 0.17200 0.34700
H7B H 0.87200 0.11200 0.43300
H8B H 0.70300 -0.04200 0.42100
C7B C 0.81080 0.83490 0.70520
H1B H 0.60400 1.11100 0.66600
H2B H 0.57400 0.89200 0.75300
H3B H 0.85900 0.75600 0.77200
H4B H 0.89100 0.97300 0.69200
loop_
_geom_bond_atom_site_label_1
_geom_bond_atom_site_label_2
_geom_bond_site_symmetry_1
_geom_bond_site_symmetry_2
C1 C2 1_555 1_555
C2 C3 1_555 1_555
C3 C4 1_555 1_555
C4 C8 1_555 1_555
C5 C1 1_555 1_555
C6 C1 1_555 1_555
C7 C2 1_555 1_555
C8 H6 1_555 1_555
H1 C6 1_555 1_555
H2 C6 1_555 1_555
H3 C7 1_555 1_555
H4 C7 1_555 1_555
H5 C3 1_555 1_555
H7 C8 1_555 1_555
H8 C8 1_555 1_555
C5B C4 1_555 1_555
C4B C5 1_555 1_555
C1B C5B 1_555 1_555
C3B C4B 1_555 1_555
C8B C4B 1_555 1_555
C2B C1B 1_555 1_555
C6B C1B 1_555 1_555
H5B C3B 1_555 1_555
H6B C8B 1_555 1_555
H7B C8B 1_555 1_555
H8B C8B 1_555 1_555
C7B C2B 1_555 1_555
H1B C6B 1_555 1_555
H2B C6B 1_555 1_555
H3B C7B 1_555 1_555
H4B C7B 1_555 1_555
C5 C5B 1_555 1_555
C6 C7 1_555 1_555
C3B C2B 1_555 1_555
C6B C7B 1_555 1_555

#END
