
#######################################################################
#
#                 Cambridge Crystallographic Data Centre
#                                CCDC 
#
#######################################################################
#
# If this CIF has been generated from an entry in the Cambridge 
# Structural Database, then it will include bibliographic, chemical, 
# crystal, experimental, refinement or atomic coordinate data resulting 
# from the CCDC's data processing and validation procedures.
#
#######################################################################

data_MNPOST11
_chemical_formula_moiety         'C17 H27 O2 P1 S1'
_chemical_name_systematic        
'O-(2-isopropyl-5-methylcyclohexyl) S-methyl phenylphosphonothioate'
_symmetry_cell_setting           monoclinic
_symmetry_space_group_name_H-M   'P 21'
_symmetry_Int_Tables_number      4
_space_group_name_Hall           'P 2yb'
loop_
_symmetry_equiv_pos_site_id
_symmetry_equiv_pos_as_xyz
1 x,y,z
2 -x,1/2+y,-z
_cell_length_a                   8.517(5)
_cell_length_b                   6.258(3)
_cell_length_c                   18.063(9)
_cell_angle_alpha                90
_cell_angle_beta                 102.457(6)
_cell_angle_gamma                90
_cell_volume                     940.082
_exptl_crystal_colour            colorless
_exptl_crystal_description       block
_cell_formula_units_Z            2
loop_
_atom_site_label
_atom_site_type_symbol
_atom_site_fract_x
_atom_site_fract_y
_atom_site_fract_z
P1 P 0.04783(12) 0.65489(17) 0.33380(5)
S1 S -0.03321(15) 0.96420(19) 0.33705(6)
O1 O 0.0092(3) 0.6346(5) 0.24488(14)
O2 O -0.0253(3) 0.4973(5) 0.37528(14)
C1 C -0.1665(5) 0.4686(9) 0.1372(2)
H1 H -0.1234 0.5652 0.1037
C2 C -0.0335(5) 0.4296(7) 0.2063(2)
H2 H -0.0734 0.3328 0.2407
C3 C 0.1135(6) 0.3308(8) 0.1856(2)
H3 H 0.1592 0.4316 0.1553
H4 H 0.1936 0.3029 0.2315
C4 C 0.0749(5) 0.1253(9) 0.1419(2)
H5 H 0.0361 0.0229 0.1749
C5 C -0.0592(5) 0.1611(10) 0.0729(2)
H6 H -0.0218 0.2558 0.0378
H7 H -0.0884 0.0259 0.0474
C6 C -0.2053(6) 0.2578(8) 0.0950(3)
H8 H -0.2473 0.1579 0.1269
H9 H -0.2880 0.2817 0.0496
C7 C -0.3125(7) 0.5796(11) 0.1569(3)
H10 H -0.2731 0.7058 0.1874
C8 C -0.4275(8) 0.6586(16) 0.0842(4)
H11 H -0.4820 0.5387 0.0571
H12 H -0.3671 0.7319 0.0529
H13 H -0.5050 0.7546 0.0975
C9 C -0.3972(8) 0.4363(16) 0.2048(4)
H14 H -0.4444 0.3163 0.1751
H15 H -0.4798 0.5164 0.2211
H16 H -0.3204 0.3865 0.2484
C10 C 0.2254(7) 0.0287(11) 0.1206(3)
H17 H 0.2569 0.1156 0.0825
H18 H 0.2017 -0.1133 0.1013
H19 H 0.3115 0.0235 0.1648
C11 C 0.2622(5) 0.6568(9) 0.3634(2)
C12 C 0.3367(6) 0.4889(10) 0.4062(3)
H20 H 0.2750 0.3835 0.4225
C13 C 0.5041(7) 0.4756(14) 0.4253(3)
H21 H 0.5537 0.3613 0.4540
C14 C 0.5942(6) 0.6293(14) 0.4019(3)
H22 H 0.7057 0.6193 0.4137
C15 C 0.5217(7) 0.7972(13) 0.3614(3)
H23 H 0.5844 0.9038 0.3464
C16 C 0.3558(6) 0.8135(10) 0.3418(3)
H24 H 0.3079 0.9304 0.3140
C17 C 0.0081(7) 1.0058(9) 0.4371(2)
H25 H -0.0653 0.9230 0.4590
H26 H -0.0045 1.1546 0.4475
H27 H 0.1164 0.9624 0.4588
loop_
_geom_bond_atom_site_label_1
_geom_bond_atom_site_label_2
_geom_bond_site_symmetry_1
_geom_bond_site_symmetry_2
P1 S1 1_555 1_555
S1 C17 1_555 1_555
O1 P1 1_555 1_555
O2 P1 1_555 1_555
C1 H1 1_555 1_555
C2 O1 1_555 1_555
H2 C2 1_555 1_555
C3 C2 1_555 1_555
H3 C3 1_555 1_555
H4 C3 1_555 1_555
C4 C3 1_555 1_555
H5 C4 1_555 1_555
C5 C4 1_555 1_555
H6 C5 1_555 1_555
H7 C5 1_555 1_555
C6 C1 1_555 1_555
H8 C6 1_555 1_555
H9 C6 1_555 1_555
C7 C1 1_555 1_555
H10 C7 1_555 1_555
C8 C7 1_555 1_555
H11 C8 1_555 1_555
H12 C8 1_555 1_555
H13 C8 1_555 1_555
C9 C7 1_555 1_555
H14 C9 1_555 1_555
H15 C9 1_555 1_555
H16 C9 1_555 1_555
C10 C4 1_555 1_555
H17 C10 1_555 1_555
H18 C10 1_555 1_555
H19 C10 1_555 1_555
C11 P1 1_555 1_555
C12 C11 1_555 1_555
H20 C12 1_555 1_555
C13 C12 1_555 1_555
H21 C13 1_555 1_555
C14 C13 1_555 1_555
H22 C14 1_555 1_555
C15 C14 1_555 1_555
H23 C15 1_555 1_555
C16 C11 1_555 1_555
H24 C16 1_555 1_555
C17 H25 1_555 1_555
H26 C17 1_555 1_555
H27 C17 1_555 1_555
C1 C2 1_555 1_555
C5 C6 1_555 1_555
C15 C16 1_555 1_555

#END
