
#######################################################################
#
#                 Cambridge Crystallographic Data Centre
#                                CCDC 
#
#######################################################################
#
# If this CIF has been generated from an entry in the Cambridge 
# Structural Database, then it will include bibliographic, chemical, 
# crystal, experimental, refinement or atomic coordinate data resulting 
# from the CCDC's data processing and validation procedures.
#
#######################################################################

data_MOBBAH01
_chemical_formula_moiety         'C42 H50 B2 N4'
_chemical_name_systematic        
1,2-bis(1,3-bis(2,4,6-trimethylphenyl)-1,3-dihydro-2H-imidazol-2-ylidene)diborene
_symmetry_cell_setting           triclinic
_symmetry_space_group_name_H-M   'P -1'
_symmetry_Int_Tables_number      2
_space_group_name_Hall           '-P 1'
loop_
_symmetry_equiv_pos_site_id
_symmetry_equiv_pos_as_xyz
1 x,y,z
2 -x,-y,-z
_cell_length_a                   8.5126(6)
_cell_length_b                   13.0601(9)
_cell_length_c                   17.4722(12)
_cell_angle_alpha                87.7140(10)
_cell_angle_beta                 85.2180(10)
_cell_angle_gamma                84.1790(10)
_cell_volume                     1924.77
_exptl_crystal_colour            red
_cell_formula_units_Z            2
_exptl_crystal_recrystallization_method 'diethyl ether/hexane'
loop_
_atom_site_label
_atom_site_type_symbol
_atom_site_fract_x
_atom_site_fract_y
_atom_site_fract_z
B1 B 1.0372(4) 0.7075(2) 0.21629(17)
H1 H 1.094(3) 0.6280(15) 0.2274(17)
B2 B 0.9209(4) 0.7715(2) 0.27617(17)
H2 H 0.855(3) 0.849(2) 0.2662(17)
N1 N 1.0527(3) 0.83504(17) 0.09349(12)
N2 N 1.2348(3) 0.70812(17) 0.09528(12)
N3 N 0.8348(3) 0.81431(15) 0.41789(11)
N4 N 0.9460(2) 0.65939(15) 0.40600(11)
C1 C 1.1012(3) 0.74928(19) 0.13728(14)
C2 C 1.1551(4) 0.8454(3) 0.02864(16)
H3 H 1.1469 0.8975 -0.0091
C3 C 1.2668(4) 0.7676(2) 0.03010(16)
H4 H 1.3519 0.7551 -0.0064
C4 C 1.3434(3) 0.6226(2) 0.11845(15)
C5 C 1.4680(4) 0.6428(2) 0.16029(16)
C6 C 1.5839(4) 0.5620(3) 0.17294(18)
H5 H 1.6692 0.5742 0.2001
C7 C 1.5763(4) 0.4645(3) 0.14650(18)
C8 C 1.4465(4) 0.4477(2) 0.10865(18)
H6 H 1.4376 0.3816 0.0926
C9 C 1.3281(4) 0.5251(2) 0.09339(16)
C10 C 1.1876(5) 0.5031(3) 0.0522(2)
H7 H 1.1187 0.5653 0.0464
H8 H 1.1312 0.4526 0.0814
H9 H 1.2232 0.4772 0.0024
C11 C 1.7073(5) 0.3805(3) 0.1605(2)
H10 H 1.6838 0.3178 0.1391
H11 H 1.7156 0.3701 0.2148
H12 H 1.8058 0.4003 0.1365
C12 C 1.4759(5) 0.7468(3) 0.1926(2)
H13 H 1.3865 0.7924 0.1784
H14 H 1.5719 0.7742 0.1724
H15 H 1.4742 0.7405 0.2475
C13 C 0.9130(3) 0.9045(2) 0.10856(14)
C14 C 0.9208(4) 0.9904(2) 0.15177(15)
C15 C 0.7836(4) 1.0550(2) 0.16595(17)
H16 H 0.7863 1.1121 0.1958
C16 C 0.6437(4) 1.0379(2) 0.1377(2)
C17 C 0.6418(4) 0.9539(3) 0.09240(19)
H17 H 0.5484 0.9434 0.0711
C18 C 0.7747(4) 0.8845(2) 0.07753(16)
C19 C 0.7697(5) 0.7908(3) 0.0316(2)
H18 H 0.8725 0.7528 0.0276
H19 H 0.7393 0.8112 -0.0189
H20 H 0.6939 0.7482 0.0565
C20 C 0.4935(5) 1.1076(3) 0.1567(3)
H21 H 0.5161 1.1617 0.1885
H22 H 0.4157 1.0683 0.1837
H23 H 0.4535 1.1369 0.1101
C21 C 1.0739(4) 1.0110(3) 0.1823(2)
H24 H 1.0580 1.0731 0.2107
H25 H 1.1524 1.0185 0.1403
H26 H 1.1092 0.9545 0.2155
C22 C 0.9005(3) 0.74633(18) 0.36315(14)
C23 C 0.8407(4) 0.7699(2) 0.49087(15)
H27 H 0.8038 0.8012 0.5367
C24 C 0.9093(4) 0.6740(2) 0.48343(15)
H28 H 0.9286 0.6259 0.5231
C25 C 1.0119(3) 0.56314(18) 0.37493(13)
C26 C 0.9089(3) 0.4942(2) 0.35588(15)
C27 C 0.9748(4) 0.4036(2) 0.32231(17)
H29 H 0.9079 0.3565 0.3088
C28 C 1.1362(4) 0.3811(2) 0.30837(17)
C29 C 1.2338(4) 0.4502(2) 0.33036(17)
H30 H 1.3429 0.4349 0.3223
C30 C 1.1753(3) 0.5420(2) 0.36412(16)
C31 C 1.2837(4) 0.6184(3) 0.3859(2)
H31 H 1.2218 0.6765 0.4087
H32 H 1.3445 0.6410 0.3407
H33 H 1.3540 0.5863 0.4220
C32 C 1.2035(5) 0.2831(3) 0.2692(2)
H34 H 1.3171 0.2799 0.2644
H35 H 1.1653 0.2827 0.2190
H36 H 1.1709 0.2247 0.2992
C33 C 0.7329(3) 0.5186(2) 0.3702(2)
H37 H 0.7107 0.5843 0.3936
H38 H 0.6907 0.4664 0.4039
H39 H 0.6848 0.5205 0.3223
C34 C 0.7758(3) 0.91981(19) 0.40393(14)
C35 C 0.6148(3) 0.9448(2) 0.39904(15)
C36 C 0.5609(4) 1.0481(2) 0.39141(18)
H40 H 0.4531 1.0664 0.3884
C37 C 0.6617(4) 1.1247(2) 0.38806(17)
C38 C 0.8212(4) 1.0964(2) 0.39028(17)
H41 H 0.8903 1.1475 0.3865
C39 C 0.8826(3) 0.9946(2) 0.39799(15)
C40 C 1.0579(4) 0.9646(3) 0.4000(2)
H42 H 1.0772 0.8911 0.4056
H43 H 1.0960 0.9960 0.4427
H44 H 1.1122 0.9877 0.3531
C41 C 0.5989(5) 1.2373(2) 0.3828(2)
H45 H 0.6856 1.2792 0.3809
H46 H 0.5275 1.2539 0.4270
H47 H 0.5438 1.2502 0.3371
C42 C 0.5025(4) 0.8625(3) 0.4007(2)
H48 H 0.3964 0.8941 0.3971
H49 H 0.5082 0.8225 0.4478
H50 H 0.5315 0.8185 0.3580
loop_
_geom_bond_atom_site_label_1
_geom_bond_atom_site_label_2
_geom_bond_site_symmetry_1
_geom_bond_site_symmetry_2
B1 H1 1_555 1_555
B2 B1 1_555 1_555
H2 B2 1_555 1_555
N1 C1 1_555 1_555
N2 C1 1_555 1_555
N3 C22 1_555 1_555
N4 C22 1_555 1_555
C1 B1 1_555 1_555
C2 N1 1_555 1_555
H3 C2 1_555 1_555
C3 N2 1_555 1_555
H4 C3 1_555 1_555
C4 N2 1_555 1_555
C5 C4 1_555 1_555
C6 C5 1_555 1_555
H5 C6 1_555 1_555
C7 C6 1_555 1_555
C8 C7 1_555 1_555
H6 C8 1_555 1_555
C9 C4 1_555 1_555
C10 C9 1_555 1_555
H7 C10 1_555 1_555
H8 C10 1_555 1_555
H9 C10 1_555 1_555
C11 C7 1_555 1_555
H10 C11 1_555 1_555
H11 C11 1_555 1_555
H12 C11 1_555 1_555
C12 C5 1_555 1_555
H13 C12 1_555 1_555
H14 C12 1_555 1_555
H15 C12 1_555 1_555
C13 N1 1_555 1_555
C14 C13 1_555 1_555
C15 C14 1_555 1_555
H16 C15 1_555 1_555
C16 C15 1_555 1_555
C17 C16 1_555 1_555
H17 C17 1_555 1_555
C18 C13 1_555 1_555
C19 C18 1_555 1_555
H18 C19 1_555 1_555
H19 C19 1_555 1_555
H20 C19 1_555 1_555
C20 C16 1_555 1_555
H21 C20 1_555 1_555
H22 C20 1_555 1_555
H23 C20 1_555 1_555
C21 C14 1_555 1_555
H24 C21 1_555 1_555
H25 C21 1_555 1_555
H26 C21 1_555 1_555
C22 B2 1_555 1_555
C23 N3 1_555 1_555
H27 C23 1_555 1_555
C24 N4 1_555 1_555
H28 C24 1_555 1_555
C25 N4 1_555 1_555
C26 C25 1_555 1_555
C27 C26 1_555 1_555
H29 C27 1_555 1_555
C28 C27 1_555 1_555
C29 C28 1_555 1_555
H30 C29 1_555 1_555
C30 C25 1_555 1_555
C31 C30 1_555 1_555
H31 C31 1_555 1_555
H32 C31 1_555 1_555
H33 C31 1_555 1_555
C32 C28 1_555 1_555
H34 C32 1_555 1_555
H35 C32 1_555 1_555
H36 C32 1_555 1_555
C33 C26 1_555 1_555
H37 C33 1_555 1_555
H38 C33 1_555 1_555
H39 C33 1_555 1_555
C34 N3 1_555 1_555
C35 C34 1_555 1_555
C36 C35 1_555 1_555
H40 C36 1_555 1_555
C37 C36 1_555 1_555
C38 C37 1_555 1_555
H41 C38 1_555 1_555
C39 C34 1_555 1_555
C40 C39 1_555 1_555
H42 C40 1_555 1_555
H43 C40 1_555 1_555
H44 C40 1_555 1_555
C41 C37 1_555 1_555
H45 C41 1_555 1_555
H46 C41 1_555 1_555
H47 C41 1_555 1_555
C42 C35 1_555 1_555
H48 C42 1_555 1_555
H49 C42 1_555 1_555
H50 C42 1_555 1_555
C2 C3 1_555 1_555
C8 C9 1_555 1_555
C17 C18 1_555 1_555
C23 C24 1_555 1_555
C29 C30 1_555 1_555
C38 C39 1_555 1_555

#END
