
#######################################################################
#
#                 Cambridge Crystallographic Data Centre
#                                CCDC 
#
#######################################################################
#
# If this CIF has been generated from an entry in the Cambridge 
# Structural Database, then it will include bibliographic, chemical, 
# crystal, experimental, refinement or atomic coordinate data resulting 
# from the CCDC's data processing and validation procedures.
#
#######################################################################

data_MOBBAH
_chemical_formula_moiety         'C42 H50 B2 N4'
_chemical_name_systematic        
1,2-bis(1,3-bis(2,4,6-trimethylphenyl)-1,3-dihydro-2H-imidazol-2-ylidene)diborene
_symmetry_cell_setting           monoclinic
_symmetry_space_group_name_H-M   'P 21/c'
_symmetry_Int_Tables_number      14
_space_group_name_Hall           '-P 2ybc'
loop_
_symmetry_equiv_pos_site_id
_symmetry_equiv_pos_as_xyz
1 x,y,z
2 -x,1/2+y,1/2-z
3 -x,-y,-z
4 x,1/2-y,1/2+z
_cell_length_a                   12.6342(10)
_cell_length_b                   11.5762(9)
_cell_length_c                   14.1871(11)
_cell_angle_alpha                90
_cell_angle_beta                 113.4750(10)
_cell_angle_gamma                90
_cell_volume                     1903.21
_exptl_crystal_colour            red
_cell_formula_units_Z            2
_exptl_crystal_recrystallization_method 'diethyl ether/hexane'
loop_
_atom_site_label
_atom_site_type_symbol
_atom_site_fract_x
_atom_site_fract_y
_atom_site_fract_z
B1 B 0.5276(2) 0.5212(3) 0.05857(19)
H1 H 0.605(2) 0.482(3) 0.1212(19)
N1 N 0.36673(15) 0.66081(16) 0.06959(13)
N2 N 0.53473(15) 0.67751(16) 0.19263(13)
C1 C 0.47598(17) 0.61544(19) 0.10409(15)
C2 C 0.3595(2) 0.7472(2) 0.13398(19)
H2 H 0.2942 0.7902 0.1256
C3 C 0.4640(2) 0.7575(2) 0.21064(19)
H3 H 0.4848 0.8088 0.2655
C4 C 0.65429(18) 0.66496(19) 0.26094(15)
C5 C 0.7391(2) 0.7095(2) 0.23282(17)
C6 C 0.8524(2) 0.7061(2) 0.30469(19)
H4 H 0.9103 0.7347 0.2864
C7 C 0.8824(2) 0.6617(2) 0.40238(18)
C8 C 0.7952(2) 0.6144(2) 0.42613(17)
H5 H 0.8144 0.5809 0.4904
C9 C 0.68013(19) 0.61515(19) 0.35724(16)
C10 C 0.5874(2) 0.5663(3) 0.3868(2)
H6 H 0.5139 0.5739 0.3301
H7 H 0.5863 0.6076 0.4450
H8 H 0.6029 0.4861 0.4041
C11 C 1.0052(2) 0.6683(3) 0.4811(2)
H9 H 1.0529 0.7033 0.4507
H10 H 1.0328 0.5919 0.5042
H11 H 1.0078 0.7140 0.5385
C12 C 0.7094(3) 0.7628(3) 0.1286(2)
H12 H 0.7787 0.7889 0.1228
H13 H 0.6585 0.8271 0.1201
H14 H 0.6721 0.7063 0.0763
C13 C 0.26644(17) 0.61796(19) -0.01389(16)
C14 C 0.2090(2) 0.5236(2) 0.0033(2)
C15 C 0.1086(2) 0.4874(3) -0.0784(3)
H15 H 0.0677 0.4249 -0.0688
C16 C 0.0686(2) 0.5416(3) -0.1723(2)
C17 C 0.1282(2) 0.6347(3) -0.1856(2)
H16 H 0.1009 0.6719 -0.2490
C18 C 0.22792(18) 0.6752(2) -0.10764(17)
C19 C 0.2931(3) 0.7762(3) -0.1231(2)
H17 H 0.2545 0.8048 -0.1919
H18 H 0.3699 0.7525 -0.1122
H19 H 0.2966 0.8360 -0.0751
C20 C -0.0416(3) 0.4996(4) -0.2583(3)
H20 H -0.0707 0.4337 -0.2352
H21 H -0.0255 0.4785 -0.3167
H22 H -0.0981 0.5602 -0.2773
C21 C 0.2538(3) 0.4630(3) 0.1049(3)
H23 H 0.3229 0.5006 0.1507
H24 H 0.2707 0.3840 0.0955
H25 H 0.1966 0.4655 0.1335
B1B B 0.4724(2) 0.4788(3) -0.05857(19)
H1B H 0.395(2) 0.518(3) -0.1212(19)
N1B N 0.63327(15) 0.33919(16) -0.06959(13)
N2B N 0.46527(15) 0.32249(16) -0.19263(13)
C1B C 0.52402(17) 0.38456(19) -0.10409(15)
C2B C 0.6405(2) 0.2528(2) -0.13398(19)
H2B H 0.7058 0.2098 -0.1256
C3B C 0.5360(2) 0.2425(2) -0.21064(19)
H3B H 0.5152 0.1912 -0.2655
C4B C 0.34571(18) 0.33504(19) -0.26094(15)
C5B C 0.2609(2) 0.2905(2) -0.23282(17)
C6B C 0.1476(2) 0.2939(2) -0.30469(19)
H4B H 0.0897 0.2653 -0.2864
C7B C 0.1176(2) 0.3383(2) -0.40238(18)
C8B C 0.2048(2) 0.3856(2) -0.42613(17)
H5B H 0.1856 0.4191 -0.4904
C9B C 0.31987(19) 0.38485(19) -0.35724(16)
C10B C 0.4126(2) 0.4337(3) -0.3868(2)
H6B H 0.4861 0.4261 -0.3301
H7B H 0.4137 0.3924 -0.4450
H8B H 0.3971 0.5139 -0.4041
C11B C -0.0052(2) 0.3317(3) -0.4811(2)
H9B H -0.0529 0.2967 -0.4507
H10B H -0.0328 0.4081 -0.5042
H11B H -0.0078 0.2860 -0.5385
C12B C 0.2906(3) 0.2372(3) -0.1286(2)
H12B H 0.2213 0.2111 -0.1228
H13B H 0.3415 0.1729 -0.1201
H14B H 0.3279 0.2937 -0.0763
C13B C 0.73356(17) 0.38204(19) 0.01389(16)
C14B C 0.7910(2) 0.4764(2) -0.0033(2)
C15B C 0.8914(2) 0.5126(3) 0.0784(3)
H15B H 0.9323 0.5751 0.0688
C16B C 0.9314(2) 0.4584(3) 0.1723(2)
C17B C 0.8718(2) 0.3653(3) 0.1856(2)
H16B H 0.8991 0.3281 0.2490
C18B C 0.77208(18) 0.3248(2) 0.10764(17)
C19B C 0.7069(3) 0.2238(3) 0.1231(2)
H17B H 0.7455 0.1952 0.1919
H18B H 0.6301 0.2475 0.1122
H19B H 0.7034 0.1640 0.0751
C20B C 1.0416(3) 0.5004(4) 0.2583(3)
H20B H 1.0707 0.5663 0.2352
H21B H 1.0255 0.5215 0.3167
H22B H 1.0981 0.4398 0.2773
C21B C 0.7462(3) 0.5370(3) -0.1049(3)
H23B H 0.6771 0.4994 -0.1507
H24B H 0.7293 0.6160 -0.0955
H25B H 0.8034 0.5345 -0.1335
loop_
_geom_bond_atom_site_label_1
_geom_bond_atom_site_label_2
_geom_bond_site_symmetry_1
_geom_bond_site_symmetry_2
B1 H1 1_555 1_555
N1 C1 1_555 1_555
N2 C1 1_555 1_555
C1 B1 1_555 1_555
C2 N1 1_555 1_555
H2 C2 1_555 1_555
C3 N2 1_555 1_555
H3 C3 1_555 1_555
C4 N2 1_555 1_555
C5 C4 1_555 1_555
C6 C5 1_555 1_555
H4 C6 1_555 1_555
C7 C6 1_555 1_555
C8 C7 1_555 1_555
H5 C8 1_555 1_555
C9 C4 1_555 1_555
C10 C9 1_555 1_555
H6 C10 1_555 1_555
H7 C10 1_555 1_555
H8 C10 1_555 1_555
C11 C7 1_555 1_555
H9 C11 1_555 1_555
H10 C11 1_555 1_555
H11 C11 1_555 1_555
C12 C5 1_555 1_555
H12 C12 1_555 1_555
H13 C12 1_555 1_555
H14 C12 1_555 1_555
C13 N1 1_555 1_555
C14 C13 1_555 1_555
C15 C14 1_555 1_555
H15 C15 1_555 1_555
C16 C15 1_555 1_555
C17 C16 1_555 1_555
H16 C17 1_555 1_555
C18 C13 1_555 1_555
C19 C18 1_555 1_555
H17 C19 1_555 1_555
H18 C19 1_555 1_555
H19 C19 1_555 1_555
C20 C16 1_555 1_555
H20 C20 1_555 1_555
H21 C20 1_555 1_555
H22 C20 1_555 1_555
C21 C14 1_555 1_555
H23 C21 1_555 1_555
H24 C21 1_555 1_555
H25 C21 1_555 1_555
B1B B1 1_555 1_555
H1B B1B 1_555 1_555
N1B C1B 1_555 1_555
N2B C1B 1_555 1_555
C1B B1B 1_555 1_555
C2B N1B 1_555 1_555
H2B C2B 1_555 1_555
C3B N2B 1_555 1_555
H3B C3B 1_555 1_555
C4B N2B 1_555 1_555
C5B C4B 1_555 1_555
C6B C5B 1_555 1_555
H4B C6B 1_555 1_555
C7B C6B 1_555 1_555
C8B C7B 1_555 1_555
H5B C8B 1_555 1_555
C9B C4B 1_555 1_555
C10B C9B 1_555 1_555
H6B C10B 1_555 1_555
H7B C10B 1_555 1_555
H8B C10B 1_555 1_555
C11B C7B 1_555 1_555
H9B C11B 1_555 1_555
H10B C11B 1_555 1_555
H11B C11B 1_555 1_555
C12B C5B 1_555 1_555
H12B C12B 1_555 1_555
H13B C12B 1_555 1_555
H14B C12B 1_555 1_555
C13B N1B 1_555 1_555
C14B C13B 1_555 1_555
C15B C14B 1_555 1_555
H15B C15B 1_555 1_555
C16B C15B 1_555 1_555
C17B C16B 1_555 1_555
H16B C17B 1_555 1_555
C18B C13B 1_555 1_555
C19B C18B 1_555 1_555
H17B C19B 1_555 1_555
H18B C19B 1_555 1_555
H19B C19B 1_555 1_555
C20B C16B 1_555 1_555
H20B C20B 1_555 1_555
H21B C20B 1_555 1_555
H22B C20B 1_555 1_555
C21B C14B 1_555 1_555
H23B C21B 1_555 1_555
H24B C21B 1_555 1_555
H25B C21B 1_555 1_555
C2 C3 1_555 1_555
C8 C9 1_555 1_555
C17 C18 1_555 1_555
C2B C3B 1_555 1_555
C8B C9B 1_555 1_555
C17B C18B 1_555 1_555

#END
