
#######################################################################
#
#                 Cambridge Crystallographic Data Centre
#                                CCDC 
#
#######################################################################
#
# If this CIF has been generated from an entry in the Cambridge 
# Structural Database, then it will include bibliographic, chemical, 
# crystal, experimental, refinement or atomic coordinate data resulting 
# from the CCDC's data processing and validation procedures.
#
#######################################################################

data_MOBKOD
_chemical_formula_moiety         'C32 H24 N2 O4'
_chemical_name_systematic        
2,2'-(1,4-Phenylenedivinylene)bis(8-acetoxyquinoline)
_symmetry_cell_setting           monoclinic
_symmetry_space_group_name_H-M   'P 21/c'
_symmetry_Int_Tables_number      14
_space_group_name_Hall           '-P 2ybc'
loop_
_symmetry_equiv_pos_site_id
_symmetry_equiv_pos_as_xyz
1 x,y,z
2 x,1/2-y,1/2+z
3 -x,-y,-z
4 -x,1/2+y,1/2-z
_cell_length_a                   6.0900(12)
_cell_length_b                   14.867(3)
_cell_length_c                   13.880(3)
_cell_angle_alpha                90
_cell_angle_beta                 94.09(3)
_cell_angle_gamma                90
_cell_volume                     1253.5
_exptl_crystal_colour            yellow
_exptl_crystal_description       columnar
_chemical_melting_point          '252-254 deg.C'
_cell_formula_units_Z            2
_exptl_crystal_recrystallization_method dimethylformamide
loop_
_atom_site_label
_atom_site_type_symbol
_atom_site_fract_x
_atom_site_fract_y
_atom_site_fract_z
O1 O 0.1948(4) 0.8233(2) 0.3441(2)
O2 O 0.3812(3) 0.73305(13) 0.45071(13)
N1 N 0.1358(4) 0.61022(15) 0.34652(15)
C1 C 0.5727(5) 0.7874(2) 0.3218(2)
H1 H 0.5892(14) 0.7323(5) 0.2871(10)
H2 H 0.6925(5) 0.7937(12) 0.3702(2)
H3 H 0.5729(12) 0.8372(7) 0.2778(9)
C2 C 0.3602(6) 0.7858(2) 0.3693(2)
C3 C 0.1836(5) 0.7036(2) 0.4868(2)
C4 C 0.1256(5) 0.7327(2) 0.5741(2)
H4 H 0.2129(5) 0.7739(2) 0.6096(2)
C5 C -0.0694(5) 0.6993(2) 0.6099(2)
H5 H -0.1101(5) 0.7190(2) 0.6697(2)
C6 C -0.1981(5) 0.6395(2) 0.5593(2)
H6 H -0.3273(5) 0.6193(2) 0.5841(2)
C7 C -0.1384(5) 0.6069(2) 0.4683(2)
C8 C -0.2606(5) 0.5444(2) 0.4096(2)
H7 H -0.3944(5) 0.5231(2) 0.4287(2)
C9 C -0.1843(5) 0.5153(2) 0.3255(2)
H8 H -0.2641(5) 0.4735(2) 0.2874(2)
C10 C 0.0183(5) 0.5492(2) 0.2963(2)
C11 C 0.0603(5) 0.6387(2) 0.4319(2)
C12 C 0.1055(5) 0.5171(2) 0.2062(2)
H9 H 0.0255(5) 0.4738(2) 0.1703(2)
C13 C 0.2929(5) 0.5466(2) 0.1735(2)
H10 H 0.3700(5) 0.5887(2) 0.2123(2)
C14 C 0.3941(5) 0.5217(2) 0.0841(2)
C15 C 0.5946(5) 0.5612(2) 0.0651(2)
H11 H 0.6586(5) 0.6029(2) 0.1084(2)
C16 C 0.3000(5) 0.4604(2) 0.0170(2)
H12 H 0.1654(5) 0.4339(2) 0.0275(2)
C16B C 0.7000(5) 0.5396(2) -0.0170(2)
C14B C 0.6059(5) 0.4783(2) -0.0841(2)
C13B C 0.7071(5) 0.4534(2) -0.1735(2)
C12B C 0.8945(5) 0.4829(2) -0.2062(2)
C10B C 0.9817(5) 0.4508(2) -0.2963(2)
N1B N 0.8642(4) 0.38978(15) -0.34652(15)
C11B C 0.9397(5) 0.3613(2) -0.4319(2)
C3B C 0.8164(5) 0.2964(2) -0.4868(2)
O2B O 0.6188(3) 0.26695(13) -0.45071(13)
C2B C 0.6398(6) 0.2142(2) -0.3693(2)
O1B O 0.8052(4) 0.1767(2) -0.3441(2)
C1B C 0.4273(5) 0.2126(2) -0.3218(2)
H1B H 0.4108(14) 0.2677(5) -0.2871(10)
H2B H 0.3075(5) 0.2063(12) -0.3702(2)
H3B H 0.4271(12) 0.1628(7) -0.2778(9)
C4B C 0.8744(5) 0.2673(2) -0.5741(2)
H4B H 0.7871(5) 0.2261(2) -0.6096(2)
C5B C 1.0694(5) 0.3007(2) -0.6099(2)
H5B H 1.1101(5) 0.2810(2) -0.6697(2)
C6B C 1.1981(5) 0.3605(2) -0.5593(2)
H6B H 1.3273(5) 0.3807(2) -0.5841(2)
C7B C 1.1384(5) 0.3931(2) -0.4683(2)
C8B C 1.2606(5) 0.4556(2) -0.4096(2)
H7B H 1.3944(5) 0.4769(2) -0.4287(2)
C9B C 1.1843(5) 0.4847(2) -0.3255(2)
H8B H 1.2641(5) 0.5265(2) -0.2874(2)
H9B H 0.9745(5) 0.5262(2) -0.1703(2)
H10B H 0.6300(5) 0.4113(2) -0.2123(2)
C15B C 0.4054(5) 0.4388(2) -0.0651(2)
H11B H 0.3414(5) 0.3971(2) -0.1084(2)
H12B H 0.8346(5) 0.5661(2) -0.0275(2)
loop_
_geom_bond_atom_site_label_1
_geom_bond_atom_site_label_2
_geom_bond_site_symmetry_1
_geom_bond_site_symmetry_2
O1 C2 1_555 1_555
O2 C2 1_555 1_555
N1 C10 1_555 1_555
C1 H1 1_555 1_555
H2 C1 1_555 1_555
H3 C1 1_555 1_555
C2 C1 1_555 1_555
C3 O2 1_555 1_555
C4 C3 1_555 1_555
H4 C4 1_555 1_555
C5 C4 1_555 1_555
H5 C5 1_555 1_555
C6 C5 1_555 1_555
H6 C6 1_555 1_555
C7 C6 1_555 1_555
C8 C7 1_555 1_555
H7 C8 1_555 1_555
C9 C8 1_555 1_555
H8 C9 1_555 1_555
C10 C9 1_555 1_555
C11 N1 1_555 1_555
C12 C10 1_555 1_555
H9 C12 1_555 1_555
C13 C12 1_555 1_555
H10 C13 1_555 1_555
C14 C13 1_555 1_555
C15 C14 1_555 1_555
H11 C15 1_555 1_555
C16 C14 1_555 1_555
H12 C16 1_555 1_555
C16B C15 1_555 1_555
C14B C16B 1_555 1_555
C13B C14B 1_555 1_555
C12B C13B 1_555 1_555
C10B C12B 1_555 1_555
N1B C10B 1_555 1_555
C11B N1B 1_555 1_555
C3B C11B 1_555 1_555
O2B C3B 1_555 1_555
C2B O2B 1_555 1_555
O1B C2B 1_555 1_555
C1B C2B 1_555 1_555
H1B C1B 1_555 1_555
H2B C1B 1_555 1_555
H3B C1B 1_555 1_555
C4B C3B 1_555 1_555
H4B C4B 1_555 1_555
C5B C4B 1_555 1_555
H5B C5B 1_555 1_555
C6B C5B 1_555 1_555
H6B C6B 1_555 1_555
C7B C11B 1_555 1_555
C8B C7B 1_555 1_555
H7B C8B 1_555 1_555
C9B C10B 1_555 1_555
H8B C9B 1_555 1_555
H9B C12B 1_555 1_555
H10B C13B 1_555 1_555
C15B C16 1_555 1_555
H11B C15B 1_555 1_555
H12B C16B 1_555 1_555
C3 C11 1_555 1_555
C7 C11 1_555 1_555
C14B C15B 1_555 1_555
C6B C7B 1_555 1_555
C8B C9B 1_555 1_555

#END
