
#######################################################################
#
#                 Cambridge Crystallographic Data Centre
#                                CCDC 
#
#######################################################################
#
# If this CIF has been generated from an entry in the Cambridge 
# Structural Database, then it will include bibliographic, chemical, 
# crystal, experimental, refinement or atomic coordinate data resulting 
# from the CCDC's data processing and validation procedures.
#
#######################################################################

data_MOBLUM
_chemical_formula_moiety         'C13 H20 N2 O1'
_chemical_name_systematic        N-isopropyl-2-(isopropylamino)benzamide
_symmetry_cell_setting           triclinic
_symmetry_space_group_name_H-M   'P -1'
_symmetry_Int_Tables_number      2
_space_group_name_Hall           '-P 1'
loop_
_symmetry_equiv_pos_site_id
_symmetry_equiv_pos_as_xyz
1 x,y,z
2 -x,-y,-z
_cell_length_a                   9.1618(18)
_cell_length_b                   9.939(2)
_cell_length_c                   14.913(3)
_cell_angle_alpha                95.86(3)
_cell_angle_beta                 90.01(3)
_cell_angle_gamma                105.40(3)
_cell_volume                     1301.84
_cell_formula_units_Z            4
loop_
_atom_site_label
_atom_site_type_symbol
_atom_site_fract_x
_atom_site_fract_y
_atom_site_fract_z
C1 C 0.6628(2) 0.20009(18) 0.18332(12)
C2 C 0.5960(2) 0.18216(18) 0.27375(12)
C3 C 0.4885(2) 0.0594(2) 0.28911(14)
H1 H 0.4568 -0.0125 0.2406
C4 C 0.4260(2) 0.0385(2) 0.37264(15)
H2 H 0.3529 -0.0464 0.3817
C5 C 0.4725(2) 0.1440(2) 0.44280(15)
H3 H 0.4305 0.1310 0.5005
C6 C 0.5786(2) 0.2675(2) 0.43063(14)
H4 H 0.6074 0.3386 0.4798
C7 C 0.6450(2) 0.28995(19) 0.34620(13)
C8 C 0.7501(2) 0.09290(19) 0.04578(12)
H5 H 0.7173 0.1631 0.0128
C9 C 0.9210(2) 0.1412(2) 0.05968(14)
H6 H 0.9493 0.2336 0.0948
H7 H 0.9689 0.1475 0.0010
H8 H 0.9550 0.0737 0.0922
C10 C 0.6994(2) -0.0494(2) -0.00952(14)
H9 H 0.7342 -0.1188 0.0207
H10 H 0.7427 -0.0430 -0.0695
H11 H 0.5886 -0.0783 -0.0155
C11 C 0.8281(2) 0.5159(2) 0.40736(13)
H12 H 0.8332 0.4694 0.4632
C12 C 0.9889(3) 0.5836(2) 0.38063(15)
H13 H 1.0457 0.5126 0.3735
H14 H 1.0383 0.6580 0.4277
H15 H 0.9863 0.6237 0.3235
C13 C 0.7385(3) 0.6241(2) 0.42724(16)
H16 H 0.7394 0.6762 0.3747
H17 H 0.7847 0.6895 0.4796
H18 H 0.6337 0.5764 0.4402
N1 N 0.67563(17) 0.08513(16) 0.13302(10)
N2 N 0.7576(2) 0.40857(17) 0.33551(12)
O1 O 0.70635(15) 0.31790(13) 0.15538(9)
H19 H 0.660(2) 0.007(2) 0.1570(14)
H20 H 0.787(3) 0.421(2) 0.2808(16)
C14 C 0.6711(2) 0.69832(18) 0.17758(12)
C15 C 0.8387(2) 0.72114(18) 0.17309(12)
C16 C 0.8997(2) 0.62511(19) 0.12118(13)
H21 H 0.8330 0.5462 0.0878
C17 C 1.0541(2) 0.6415(2) 0.11696(14)
H22 H 1.0931 0.5742 0.0820
C18 C 1.1507(2) 0.7579(2) 0.16458(14)
H23 H 1.2571 0.7708 0.1618
C19 C 1.0951(2) 0.85545(19) 0.21590(13)
H24 H 1.1640 0.9351 0.2472
C20 C 0.9385(2) 0.83980(18) 0.22305(12)
C21 C 0.4207(2) 0.5294(2) 0.16574(15)
H25 H 0.3860 0.6028 0.1373
C22 C 0.3668(3) 0.5279(3) 0.26143(19)
H26 H 0.3991 0.4560 0.2904
H27 H 0.2561 0.5067 0.2610
H28 H 0.4103 0.6200 0.2950
C23 C 0.3573(3) 0.3898(2) 0.1094(2)
H29 H 0.3912 0.3971 0.0474
H30 H 0.2463 0.3651 0.1096
H31 H 0.3932 0.3169 0.1349
C24 C 0.9769(2) 1.03761(19) 0.34613(13)
H32 H 1.0590 0.9996 0.3688
C25 C 0.8774(2) 1.0604(2) 0.42445(14)
H33 H 0.7929 1.0928 0.4028
H34 H 0.9373 1.1312 0.4703
H35 H 0.8378 0.9719 0.4508
C26 C 1.0505(3) 1.1747(2) 0.30726(16)
H36 H 1.1092 1.1559 0.2548
H37 H 1.1178 1.2392 0.3532
H38 H 0.9718 1.2172 0.2888
N3 N 0.58605(18) 0.56526(16) 0.16410(12)
N4 N 0.88516(19) 0.93289(17) 0.27890(11)
O2 O 0.61273(15) 0.79753(13) 0.19280(10)
H39 H 0.630(2) 0.495(2) 0.1624(15)
H40 H 0.789(3) 0.921(2) 0.2786(15)
loop_
_geom_bond_atom_site_label_1
_geom_bond_atom_site_label_2
_geom_bond_site_symmetry_1
_geom_bond_site_symmetry_2
C1 C2 1_555 1_555
C2 C3 1_555 1_555
C3 H1 1_555 1_555
C4 C3 1_555 1_555
H2 C4 1_555 1_555
C5 C4 1_555 1_555
H3 C5 1_555 1_555
C6 C5 1_555 1_555
H4 C6 1_555 1_555
C7 C2 1_555 1_555
C8 H5 1_555 1_555
C9 C8 1_555 1_555
H6 C9 1_555 1_555
H7 C9 1_555 1_555
H8 C9 1_555 1_555
C10 C8 1_555 1_555
H9 C10 1_555 1_555
H10 C10 1_555 1_555
H11 C10 1_555 1_555
C11 H12 1_555 1_555
C12 C11 1_555 1_555
H13 C12 1_555 1_555
H14 C12 1_555 1_555
H15 C12 1_555 1_555
C13 C11 1_555 1_555
H16 C13 1_555 1_555
H17 C13 1_555 1_555
H18 C13 1_555 1_555
N1 C1 1_555 1_555
N2 C7 1_555 1_555
O1 C1 1_555 1_555
H19 N1 1_555 1_555
H20 N2 1_555 1_555
C14 C15 1_555 1_555
C15 C16 1_555 1_555
C16 H21 1_555 1_555
C17 C16 1_555 1_555
H22 C17 1_555 1_555
C18 C17 1_555 1_555
H23 C18 1_555 1_555
C19 C18 1_555 1_555
H24 C19 1_555 1_555
C20 C15 1_555 1_555
C21 H25 1_555 1_555
C22 C21 1_555 1_555
H26 C22 1_555 1_555
H27 C22 1_555 1_555
H28 C22 1_555 1_555
C23 C21 1_555 1_555
H29 C23 1_555 1_555
H30 C23 1_555 1_555
H31 C23 1_555 1_555
C24 H32 1_555 1_555
C25 C24 1_555 1_555
H33 C25 1_555 1_555
H34 C25 1_555 1_555
H35 C25 1_555 1_555
C26 C24 1_555 1_555
H36 C26 1_555 1_555
H37 C26 1_555 1_555
H38 C26 1_555 1_555
N3 C14 1_555 1_555
N4 C20 1_555 1_555
O2 C14 1_555 1_555
H39 N3 1_555 1_555
H40 N4 1_555 1_555
C6 C7 1_555 1_555
C8 N1 1_555 1_555
C11 N2 1_555 1_555
C19 C20 1_555 1_555
C21 N3 1_555 1_555
C24 N4 1_555 1_555

#END
