
#######################################################################
#
#                 Cambridge Crystallographic Data Centre
#                                CCDC 
#
#######################################################################
#
# If this CIF has been generated from an entry in the Cambridge 
# Structural Database, then it will include bibliographic, chemical, 
# crystal, experimental, refinement or atomic coordinate data resulting 
# from the CCDC's data processing and validation procedures.
#
#######################################################################

data_MOBNEY
_chemical_formula_moiety         'C24 H24 N2 O1'
_chemical_name_systematic        
4-(1H-Indol-3-yl(4-methoxyphenyl)methyl)-N,N-dimethylaniline
_symmetry_cell_setting           monoclinic
_symmetry_space_group_name_H-M   'P 21/c'
_symmetry_Int_Tables_number      14
_space_group_name_Hall           '-P 2ybc'
loop_
_symmetry_equiv_pos_site_id
_symmetry_equiv_pos_as_xyz
1 x,y,z
2 -x,1/2+y,1/2-z
3 -x,-y,-z
4 x,1/2-y,1/2+z
_cell_length_a                   16.4165(9)
_cell_length_b                   5.8444(3)
_cell_length_c                   21.0166(11)
_cell_angle_alpha                90
_cell_angle_beta                 109.1950(10)
_cell_angle_gamma                90
_cell_volume                     1904.33
_exptl_crystal_colour            colorless
_exptl_crystal_description       Prism
_cell_formula_units_Z            4
loop_
_atom_site_label
_atom_site_type_symbol
_atom_site_fract_x
_atom_site_fract_y
_atom_site_fract_z
O1 O 0.50871(14) 0.0825(4) 0.15353(9)
N1 N 0.80316(14) 0.4500(4) 0.52763(10)
N2 N 1.12141(12) 0.2958(4) 0.34459(10)
C1 C 0.72943(15) 0.1361(5) 0.47929(11)
C2 C 0.66747(17) -0.0355(5) 0.46983(13)
H1 H 0.6616 -0.1489 0.4376
C3 C 0.61493(18) -0.0327(6) 0.50973(14)
H2 H 0.5738 -0.1470 0.5046
C4 C 0.62295(17) 0.1403(6) 0.55773(13)
H3 H 0.5864 0.1394 0.5834
C5 C 0.68324(17) 0.3105(6) 0.56773(12)
H4 H 0.6883 0.4246 0.5997
C6 C 0.73692(15) 0.3061(5) 0.52803(12)
C7 C 0.83710(16) 0.3721(5) 0.47959(12)
H5 H 0.8830 0.4398 0.4699
C8 C 0.79413(15) 0.1828(4) 0.44838(11)
C9 C 0.80696(16) 0.0444(4) 0.39178(12)
H6 H 0.8139 -0.1153 0.4068
C10 C 0.72822(16) 0.0527(4) 0.32828(12)
C11 C 0.67218(16) 0.2385(4) 0.31219(12)
H7 H 0.6828 0.3632 0.3413
C12 C 0.60115(17) 0.2430(5) 0.25411(12)
H8 H 0.5652 0.3703 0.2446
C13 C 0.58306(17) 0.0591(5) 0.20986(12)
C14 C 0.63751(19) -0.1279(5) 0.22452(14)
H9 H 0.6266 -0.2524 0.1954
C15 C 0.70865(18) -0.1293(5) 0.28291(14)
H10 H 0.7446 -0.2566 0.2921
C16 C 0.4887(2) -0.1067(7) 0.10822(16)
H11 H 0.5328 -0.1228 0.0878
H12 H 0.4341 -0.0807 0.0738
H13 H 0.4857 -0.2438 0.1325
C17 C 0.88954(15) 0.1113(4) 0.37859(12)
C18 C 0.89436(16) 0.3060(4) 0.34208(12)
H14 H 0.8456 0.3971 0.3249
C19 C 0.96980(15) 0.3685(4) 0.33051(12)
H15 H 0.9709 0.5012 0.3064
C20 C 1.04386(14) 0.2350(4) 0.35455(10)
C21 C 1.04018(16) 0.0396(4) 0.39233(12)
H16 H 1.0889 -0.0514 0.4098
C22 C 0.96425(16) -0.0183(4) 0.40367(12)
H17 H 0.9633 -0.1484 0.4289
C23 C 1.11662(17) 0.4759(5) 0.29599(13)
H18 H 1.0793 0.4287 0.2524
H19 H 1.1732 0.5057 0.2940
H20 H 1.0941 0.6125 0.3094
C24 C 1.18133(19) 0.1202(6) 0.34401(16)
H21 H 1.1961 0.0354 0.3854
H22 H 1.2325 0.1878 0.3395
H23 H 1.1559 0.0192 0.3067
loop_
_geom_bond_atom_site_label_1
_geom_bond_atom_site_label_2
_geom_bond_site_symmetry_1
_geom_bond_site_symmetry_2
O1 C13 1_555 1_555
N1 C6 1_555 1_555
N2 C20 1_555 1_555
C1 C2 1_555 1_555
C2 H1 1_555 1_555
C3 C2 1_555 1_555
H2 C3 1_555 1_555
C4 C3 1_555 1_555
H3 C4 1_555 1_555
C5 C4 1_555 1_555
H4 C5 1_555 1_555
C6 C1 1_555 1_555
C7 N1 1_555 1_555
H5 C7 1_555 1_555
C8 C1 1_555 1_555
C9 C8 1_555 1_555
H6 C9 1_555 1_555
C10 C9 1_555 1_555
C11 C10 1_555 1_555
H7 C11 1_555 1_555
C12 C11 1_555 1_555
H8 C12 1_555 1_555
C13 C12 1_555 1_555
C14 C13 1_555 1_555
H9 C14 1_555 1_555
C15 C10 1_555 1_555
H10 C15 1_555 1_555
C16 O1 1_555 1_555
H11 C16 1_555 1_555
H12 C16 1_555 1_555
H13 C16 1_555 1_555
C17 C9 1_555 1_555
C18 C17 1_555 1_555
H14 C18 1_555 1_555
C19 C18 1_555 1_555
H15 C19 1_555 1_555
C20 C19 1_555 1_555
C21 C20 1_555 1_555
H16 C21 1_555 1_555
C22 C17 1_555 1_555
H17 C22 1_555 1_555
C23 N2 1_555 1_555
H18 C23 1_555 1_555
H19 C23 1_555 1_555
H20 C23 1_555 1_555
C24 N2 1_555 1_555
H21 C24 1_555 1_555
H22 C24 1_555 1_555
H23 C24 1_555 1_555
C5 C6 1_555 1_555
C7 C8 1_555 1_555
C14 C15 1_555 1_555
C21 C22 1_555 1_555

#END
