
#######################################################################
#
#                 Cambridge Crystallographic Data Centre
#                                CCDC 
#
#######################################################################
#
# If this CIF has been generated from an entry in the Cambridge 
# Structural Database, then it will include bibliographic, chemical, 
# crystal, experimental, refinement or atomic coordinate data resulting 
# from the CCDC's data processing and validation procedures.
#
#######################################################################

data_MOBPIP
_chemical_formula_moiety         'C13 H15 N1 O3'
_chemical_name_systematic        3,4-Methylenedioxy-benzoyl-piperidine
_symmetry_cell_setting           monoclinic
_symmetry_space_group_name_H-M   'P 21/c'
_symmetry_Int_Tables_number      14
_space_group_name_Hall           '-P 2ybc'
loop_
_symmetry_equiv_pos_site_id
_symmetry_equiv_pos_as_xyz
1 x,y,z
2 -x,1/2+y,1/2-z
3 -x,-y,-z
4 x,1/2-y,1/2+z
_cell_length_a                   10.381(2)
_cell_length_b                   7.163(2)
_cell_length_c                   16.951(3)
_cell_angle_alpha                90
_cell_angle_beta                 107.51(5)
_cell_angle_gamma                90
_cell_volume                     1202.06
_chemical_melting_point          52-3deg.C
_cell_formula_units_Z            4
loop_
_atom_site_label
_atom_site_type_symbol
_atom_site_fract_x
_atom_site_fract_y
_atom_site_fract_z
H1 H 0.95210 -0.01520 0.41120
H2 H 0.93010 0.52850 0.39010
H3 H 0.82250 0.68200 0.34530
H4 H 1.02110 0.41200 0.28190
H5 H 0.80850 0.47950 0.47830
H6 H 0.83730 0.67190 0.48010
H7 H 0.63870 0.73840 0.39920
H8 H 0.62180 0.62470 0.47200
H9 H 0.61200 0.58050 0.26560
H10 H 0.56680 0.37690 0.24960
H11 H 0.46590 0.52760 0.34200
H12 H 0.57130 0.36940 0.39160
H13 H 1.22380 0.32090 0.31340
H14 H 1.31880 -0.24030 0.40200
H15 H 1.37140 -0.11020 0.49790
O1 O 1.34778 0.03691 0.40569
O2 O 1.20062 -0.13654 0.45396
O3 O 0.72601 0.12124 0.28015
N1 N 0.76197 0.42201 0.31991
C1 C 0.99739 0.05158 0.38681
C2 C 0.84212 0.56312 0.37614
C3 C 0.95268 0.20930 0.33809
C4 C 1.04269 0.31264 0.31014
C5 C 0.80487 0.24892 0.31126
C6 C 1.21873 0.11117 0.37659
C7 C 0.79350 0.58706 0.44962
C8 C 1.13200 0.00709 0.40524
C9 C 0.64437 0.62878 0.42512
C10 C 0.61660 0.46480 0.29213
C11 C 1.17779 0.26366 0.32912
C12 C 0.56347 0.48777 0.36435
C13 C 1.33135 -0.13547 0.44269
loop_
_geom_bond_atom_site_label_1
_geom_bond_atom_site_label_2
_geom_bond_site_symmetry_1
_geom_bond_site_symmetry_2
H1 C1 1_555 1_555
H2 C2 1_555 1_555
H3 C2 1_555 1_555
H4 C4 1_555 1_555
H5 C7 1_555 1_555
H6 C7 1_555 1_555
H7 C9 1_555 1_555
H8 C9 1_555 1_555
H9 C10 1_555 1_555
H10 C10 1_555 1_555
H11 C12 1_555 1_555
H12 C12 1_555 1_555
H13 C11 1_555 1_555
H14 C13 1_555 1_555
H15 C13 1_555 1_555
O1 C6 1_555 1_555
O2 C8 1_555 1_555
O3 C5 1_555 1_555
N1 C2 1_555 1_555
C1 C3 1_555 1_555
C2 C7 1_555 1_555
C3 C4 1_555 1_555
C4 C11 1_555 1_555
C5 N1 1_555 1_555
C6 C8 1_555 1_555
C7 C9 1_555 1_555
C8 C1 1_555 1_555
C9 C12 1_555 1_555
C10 N1 1_555 1_555
C11 C6 1_555 1_555
C12 C10 1_555 1_555
C13 O1 1_555 1_555
O2 C13 1_555 1_555
C3 C5 1_555 1_555

#END
