
#######################################################################
#
#                 Cambridge Crystallographic Data Centre
#                                CCDC 
#
#######################################################################
#
# If this CIF has been generated from an entry in the Cambridge 
# Structural Database, then it will include bibliographic, chemical, 
# crystal, experimental, refinement or atomic coordinate data resulting 
# from the CCDC's data processing and validation procedures.
#
#######################################################################

data_MOBRUS
_chemical_formula_moiety         'C19 H16 N4 O2'
_chemical_name_systematic        
2-(2H-Benzotriazol-2-yl)-6-(((2-furylmethyl)imino)methyl)-4-methylphenol
_symmetry_cell_setting           triclinic
_symmetry_space_group_name_H-M   'P -1'
_symmetry_Int_Tables_number      2
_space_group_name_Hall           '-P 1'
loop_
_symmetry_equiv_pos_site_id
_symmetry_equiv_pos_as_xyz
1 x,y,z
2 -x,-y,-z
_cell_length_a                   7.9961(2)
_cell_length_b                   9.1621(2)
_cell_length_c                   11.9355(2)
_cell_angle_alpha                106.9280(10)
_cell_angle_beta                 103.5160(10)
_cell_angle_gamma                92.1290(10)
_cell_volume                     808.134
_exptl_crystal_colour            yellow
_exptl_crystal_description       block
_cell_formula_units_Z            2
loop_
_atom_site_label
_atom_site_type_symbol
_atom_site_fract_x
_atom_site_fract_y
_atom_site_fract_z
O1 O 0.10208(11) 0.55539(10) 0.75581(7)
H1 H 0.192(3) 0.630(2) 0.7588(19)
O2 O 0.69851(11) 0.69640(9) 0.80528(8)
N1 N -0.10388(12) 0.33998(11) 0.80708(8)
N2 N -0.14901(12) 0.30077(11) 0.68632(8)
N3 N -0.31615(12) 0.25264(11) 0.62983(8)
N4 N 0.33803(12) 0.69889(12) 0.70234(9)
C1 C 0.09157(14) 0.44234(13) 0.65299(10)
C2 C -0.02818(14) 0.31173(13) 0.61719(10)
C3 C -0.04218(14) 0.19550(13) 0.50928(10)
H2 H -0.1234 0.1074 0.4881
C4 C 0.06037(15) 0.20527(14) 0.43139(10)
C5 C 0.17764(14) 0.33570(14) 0.46549(10)
H3 H 0.2474 0.3456 0.4131
C6 C 0.19605(14) 0.45273(13) 0.57438(10)
C7 C -0.25697(14) 0.31753(12) 0.83284(10)
C8 C -0.29615(15) 0.34701(13) 0.94664(10)
H4 H -0.2088 0.3845 1.0206
C9 C -0.46626(16) 0.31864(13) 0.94445(11)
H5 H -0.4973 0.3367 1.0191
C10 C -0.59820(15) 0.26296(14) 0.83431(11)
H6 H -0.7146 0.2459 0.8378
C11 C -0.56292(15) 0.23316(13) 0.72355(11)
H7 H -0.6515 0.1947 0.6503
C12 C -0.38777(14) 0.26255(12) 0.72341(10)
C13 C 0.04074(18) 0.08088(15) 0.31270(11)
H8 H 0.0194 0.1262 0.2464
H9 H -0.0569 0.0049 0.3000
H10 H 0.1470 0.0307 0.3146
C14 C 0.31862(14) 0.58855(14) 0.60439(10)
H11 H 0.3857 0.5951 0.5497
C15 C 0.46686(16) 0.82959(14) 0.72646(12)
H12 H 0.4147 0.9266 0.7502
H13 H 0.5043 0.8240 0.6520
C16 C 0.61891(15) 0.82827(13) 0.82502(11)
C17 C 0.70158(17) 0.92944(14) 0.93272(12)
H14 H 0.6722 1.0291 0.9676
C18 C 0.84236(16) 0.85750(14) 0.98432(11)
H15 H 0.9250 0.9002 1.0600
C19 C 0.83463(15) 0.71840(14) 0.90495(11)
H16 H 0.9126 0.6451 0.9161
loop_
_geom_bond_atom_site_label_1
_geom_bond_atom_site_label_2
_geom_bond_site_symmetry_1
_geom_bond_site_symmetry_2
O1 H1 1_555 1_555
O2 C16 1_555 1_555
N1 N2 1_555 1_555
N2 N3 1_555 1_555
N3 C12 1_555 1_555
N4 C14 1_555 1_555
C1 O1 1_555 1_555
C2 N2 1_555 1_555
C3 C2 1_555 1_555
H2 C3 1_555 1_555
C4 C3 1_555 1_555
C5 C4 1_555 1_555
H3 C5 1_555 1_555
C6 C1 1_555 1_555
C7 N1 1_555 1_555
C8 C7 1_555 1_555
H4 C8 1_555 1_555
C9 C8 1_555 1_555
H5 C9 1_555 1_555
C10 C9 1_555 1_555
H6 C10 1_555 1_555
C11 C10 1_555 1_555
H7 C11 1_555 1_555
C12 C7 1_555 1_555
C13 C4 1_555 1_555
H8 C13 1_555 1_555
H9 C13 1_555 1_555
H10 C13 1_555 1_555
C14 C6 1_555 1_555
H11 C14 1_555 1_555
C15 N4 1_555 1_555
H12 C15 1_555 1_555
H13 C15 1_555 1_555
C16 C15 1_555 1_555
C17 C16 1_555 1_555
H14 C17 1_555 1_555
C18 C17 1_555 1_555
H15 C18 1_555 1_555
C19 O2 1_555 1_555
H16 C19 1_555 1_555
C1 C2 1_555 1_555
C5 C6 1_555 1_555
C11 C12 1_555 1_555
C18 C19 1_555 1_555

#END
