
#######################################################################
#
#                 Cambridge Crystallographic Data Centre
#                                CCDC 
#
#######################################################################
#
# If this CIF has been generated from an entry in the Cambridge 
# Structural Database, then it will include bibliographic, chemical, 
# crystal, experimental, refinement or atomic coordinate data resulting 
# from the CCDC's data processing and validation procedures.
#
#######################################################################

data_MOCKOF
_chemical_formula_moiety         'C18 H12 O8,4(C4 H9 N1 O1)'
_chemical_name_systematic        
"trans-Stilbene-3,3',5,5'-tetracarboxylic acid dimethylacetamide solvate"
_symmetry_cell_setting           triclinic
_symmetry_space_group_name_H-M   'P -1'
_symmetry_Int_Tables_number      2
_space_group_name_Hall           '-P 1'
loop_
_symmetry_equiv_pos_site_id
_symmetry_equiv_pos_as_xyz
1 x,y,z
2 -x,-y,-z
_cell_length_a                   7.320(7)
_cell_length_b                   10.709(10)
_cell_length_c                   12.668(10)
_cell_angle_alpha                65.560(18)
_cell_angle_beta                 89.18(2)
_cell_angle_gamma                88.097(19)
_cell_volume                     903.563
_exptl_crystal_colour            colorless
_exptl_crystal_description       Block
_cell_formula_units_Z            1
loop_
_atom_site_label
_atom_site_type_symbol
_atom_site_fract_x
_atom_site_fract_y
_atom_site_fract_z
O1 O 0.2460(6) 0.6261(5) 0.1792(5)
H1 H 0.2900 0.6873 0.1221
O2 O -0.0294(6) 0.1043(4) 0.5912(4)
H2 H 0.0293 0.0321 0.6242
O4 O 0.2384(7) 0.1801(5) 0.5153(6)
O5 O 0.0131(8) 0.7693(6) 0.1370(6)
C1 C -0.4526(8) 0.5348(6) 0.4532(6)
H3 H -0.5043 0.6176 0.4013
C2 C -0.2723(8) 0.4947(5) 0.4225(5)
C3 C -0.1826(8) 0.5882(6) 0.3272(6)
H4 H -0.2390 0.6726 0.2827
C4 C 0.0716(8) 0.4312(6) 0.3619(6)
H5 H 0.1879 0.4105 0.3420
C5 C -0.0176(8) 0.3343(6) 0.4564(6)
C6 C -0.1901(8) 0.3676(6) 0.4835(6)
H6 H -0.2529 0.3023 0.5448
C7 C -0.0092(7) 0.5572(6) 0.2975(6)
C8 C 0.0814(8) 0.6625(6) 0.1959(6)
C10 C 0.0787(9) 0.1985(6) 0.5217(7)
O1A O -1.2460(6) 0.3739(5) 0.8208(5)
H1A H -1.2900 0.3127 0.8779
O2A O -0.9706(6) 0.8957(4) 0.4088(4)
H2A H -1.0293 0.9679 0.3758
O4A O -1.2384(7) 0.8199(5) 0.4847(6)
O5A O -1.0131(8) 0.2307(6) 0.8630(6)
C1A C -0.5474(8) 0.4652(6) 0.5468(6)
H3A H -0.4957 0.3824 0.5987
C2A C -0.7277(8) 0.5053(5) 0.5775(5)
C3A C -0.8174(8) 0.4118(6) 0.6728(6)
H4A H -0.7610 0.3274 0.7173
C4A C -1.0716(8) 0.5688(6) 0.6381(6)
H5A H -1.1879 0.5895 0.6580
C5A C -0.9824(8) 0.6657(6) 0.5436(6)
C6A C -0.8099(8) 0.6324(6) 0.5165(6)
H6A H -0.7471 0.6977 0.4552
C7A C -0.9908(7) 0.4428(6) 0.7025(6)
C8A C -1.0814(8) 0.3375(6) 0.8041(6)
C10A C -1.0787(9) 0.8015(6) 0.4783(7)
O3 O -0.1046(6) 0.1420(4) 0.2898(5)
N1 N -0.2788(8) 0.3299(5) 0.2004(5)
C9 C -0.2492(9) 0.2097(7) 0.2864(7)
C11 C -0.4450(11) 0.4127(9) 0.1848(9)
H7 H -0.5280 0.3663 0.2471
H8 H -0.5006 0.4271 0.1124
H9 H -0.4164 0.4997 0.1846
C12 C -0.1414(11) 0.3868(8) 0.1111(8)
H10 H -0.0373 0.3247 0.1285
H11 H -0.1047 0.4733 0.1084
H12 H -0.1913 0.4001 0.0374
C13 C -0.3933(10) 0.1489(7) 0.3779(7)
H13 H -0.3519 0.0598 0.4326
H14 H -0.5042 0.1405 0.3421
H15 H -0.4158 0.2074 0.4174
O6 O 0.4478(6) 0.7772(5) 0.0127(5)
N2 N 0.5726(7) 0.9398(6) -0.1423(6)
C14 C 0.4367(8) 0.8919(7) -0.0702(7)
C15 C 0.5693(12) 1.0738(8) -0.2394(8)
H16 H 0.4510 1.1172 -0.2442
H17 H 0.5940 1.0632 -0.3099
H18 H 0.6606 1.1294 -0.2282
C16 C 0.2658(9) 0.9774(7) -0.0913(7)
H19 H 0.1766 0.9294 -0.0337
H20 H 0.2193 0.9956 -0.1669
H21 H 0.2910 1.0626 -0.0869
C17 C 0.7462(10) 0.8596(9) -0.1208(8)
H22 H 0.7335 0.7744 -0.0540
H23 H 0.8414 0.9108 -0.1073
H24 H 0.7769 0.8414 -0.1872
loop_
_geom_bond_atom_site_label_1
_geom_bond_atom_site_label_2
_geom_bond_site_symmetry_1
_geom_bond_site_symmetry_2
O1 H1 1_555 1_555
O2 H2 1_555 1_555
O3 C9 1_555 1_555
O4 C10 1_555 1_555
N1 C9 1_555 1_555
O5 C8 1_555 1_555
C1 H3 1_555 1_555
C2 C1 1_555 1_555
C3 C2 1_555 1_555
H4 C3 1_555 1_555
C4 H5 1_555 1_555
C5 C4 1_555 1_555
C6 C2 1_555 1_555
H6 C6 1_555 1_555
C7 C3 1_555 1_555
C8 O1 1_555 1_555
C9 C13 1_555 1_555
C10 O2 1_555 1_555
C11 N1 1_555 1_555
H7 C11 1_555 1_555
H8 C11 1_555 1_555
H9 C11 1_555 1_555
C12 N1 1_555 1_555
H10 C12 1_555 1_555
H11 C12 1_555 1_555
H12 C12 1_555 1_555
C13 H13 1_555 1_555
H14 C13 1_555 1_555
H15 C13 1_555 1_555
O6 C14 1_555 1_555
N2 C14 1_555 1_555
C14 C16 1_555 1_555
C15 N2 1_555 1_555
H16 C15 1_555 1_555
H17 C15 1_555 1_555
H18 C15 1_555 1_555
C16 H19 1_555 1_555
H20 C16 1_555 1_555
H21 C16 1_555 1_555
C17 N2 1_555 1_555
H22 C17 1_555 1_555
H23 C17 1_555 1_555
H24 C17 1_555 1_555
O1A H1A 1_555 1_555
O2A H2A 1_555 1_555
O4A C10A 1_555 1_555
O5A C8A 1_555 1_555
C1A C1 1_555 1_555
H3A C1A 1_555 1_555
C2A C1A 1_555 1_555
C3A C2A 1_555 1_555
H4A C3A 1_555 1_555
C4A H5A 1_555 1_555
C5A C4A 1_555 1_555
C6A C2A 1_555 1_555
H6A C6A 1_555 1_555
C7A C3A 1_555 1_555
C8A O1A 1_555 1_555
C10A O2A 1_555 1_555
C4 C7 1_555 1_555
C5 C6 1_555 1_555
C5 C10 1_555 1_555
C7 C8 1_555 1_555
C4A C7A 1_555 1_555
C5A C6A 1_555 1_555
C5A C10A 1_555 1_555
C7A C8A 1_555 1_555

#END
