
#######################################################################
#
#                 Cambridge Crystallographic Data Centre
#                                CCDC 
#
#######################################################################
#
# If this CIF has been generated from an entry in the Cambridge 
# Structural Database, then it will include bibliographic, chemical, 
# crystal, experimental, refinement or atomic coordinate data resulting 
# from the CCDC's data processing and validation procedures.
#
#######################################################################

data_MOCMIB01
_chemical_formula_moiety         'C45 H50 O10,C2 H3 N1'
_chemical_name_systematic        
'4,9,14,19,24,26,28,30,32,34-Decamethoxyhexacyclo[21.2.2.2^3,6^.2^8,11^.2^13,16^.2^18,21^]pentatriaconta-1(25),3,5,8,10,13,15,18,20,23,26,28,30,32,34-pentadecaene acetonitrile solvate'
_symmetry_cell_setting           tetragonal
_symmetry_space_group_name_H-M   'I 41/a'
_symmetry_Int_Tables_number      88
_space_group_name_Hall           '-I 4ad'
loop_
_symmetry_equiv_pos_site_id
_symmetry_equiv_pos_as_xyz
1 x,y,z
2 1/2-x,-y,1/2+z
3 3/4-y,1/4+x,1/4+z
4 3/4+y,3/4-x,3/4+z
5 1/2+x,1/2+y,1/2+z
6 -x,1/2-y,z
7 1/4-y,3/4+x,3/4+z
8 1/4+y,1/4-x,1/4+z
9 -x,-y,-z
10 1/2+x,y,1/2-z
11 1/4+y,3/4-x,3/4-z
12 1/4-y,1/4+x,1/4-z
13 1/2-x,1/2-y,1/2-z
14 x,1/2+y,-z
15 3/4+y,1/4-x,1/4-z
16 3/4-y,3/4+x,3/4-z
_cell_length_a                   14.976(2)
_cell_length_b                   14.976(2)
_cell_length_c                   39.297(8)
_cell_angle_alpha                90
_cell_angle_beta                 90
_cell_angle_gamma                90
_cell_volume                     8813.55
_exptl_crystal_colour            colorless
_exptl_crystal_description       block
_cell_formula_units_Z            8
_chemical_properties_physical    Air-sensitive
loop_
_atom_site_label
_atom_site_type_symbol
_atom_site_fract_x
_atom_site_fract_y
_atom_site_fract_z
C1 C 0.5000 0.2500 0.24408(4)
H1 H 0.5351 0.2889 0.2586
C2 C 0.43798(8) 0.30605(8) 0.22249(3)
C3 C 0.46282(8) 0.39067(8) 0.21160(3)
H2 H 0.5171 0.4142 0.2188
C4 C 0.40909(8) 0.44055(7) 0.19047(3)
C5 C 0.32681(7) 0.40903(7) 0.18009(3)
C6 C 0.30078(8) 0.32491(8) 0.19160(3)
H3 H 0.2452 0.3027 0.1853
C7 C 0.35563(8) 0.27362(8) 0.21211(3)
C8 C 0.26849(8) 0.46185(8) 0.15613(3)
H4 H 0.2066 0.4457 0.1599
H5 H 0.2749 0.5249 0.1611
C9 C 0.29158(7) 0.44593(7) 0.11935(3)
C10 C 0.35633(7) 0.49618(7) 0.10305(3)
H6 H 0.3839 0.5425 0.1148
C11 C 0.38095(7) 0.47920(7) 0.06983(3)
C12 C 0.33873(7) 0.41302(7) 0.05108(3)
C13 C 0.27328(7) 0.36361(7) 0.06744(3)
H7 H 0.2434 0.3193 0.0554
C14 C 0.25119(7) 0.37811(7) 0.10083(3)
C15 C 0.36550(8) 0.39098(7) 0.01511(3)
H8 H 0.3896 0.4439 0.0042
H9 H 0.3133 0.3722 0.0024
C16 C 0.43473(7) 0.31747(7) 0.01447(3)
C17 C 0.52458(7) 0.33801(7) 0.01448(3)
H10 H 0.5419 0.3976 0.0142
C18 C 0.41055(7) 0.22766(7) 0.01492(3)
C19 C 0.25555(9) 0.14835(9) 0.21017(4)
H11 H 0.2041 0.1842 0.2152
H12 H 0.2484 0.0903 0.2202
H13 H 0.2619 0.1425 0.1860
C20 C 0.52326(9) 0.54785(10) 0.17797(4)
H14 H 0.5440 0.5585 0.2007
H15 H 0.5311 0.6009 0.1646
H16 H 0.5568 0.4998 0.1681
C21 C 0.15999(12) 0.24822(10) 0.10314(5)
H17 H 0.1271 0.2605 0.0827
H18 H 0.1226 0.2164 0.1188
H19 H 0.2113 0.2125 0.0978
C22 C 0.51049(8) 0.57229(9) 0.07218(4)
H20 H 0.4826 0.6208 0.0841
H21 H 0.5560 0.5953 0.0574
H22 H 0.5369 0.5320 0.0883
C23 C 0.29227(9) 0.12000(8) 0.01876(4)
H23 H 0.3104 0.0867 -0.0009
H24 H 0.2285 0.1177 0.0209
H25 H 0.3192 0.0946 0.0387
O1 O 0.33288(6) 0.18983(6) 0.22382(3)
O2 O 0.43205(6) 0.52480(5) 0.17877(3)
O3 O 0.18765(6) 0.32868(6) 0.11789(3)
O4 O 0.44643(6) 0.52687(6) 0.05293(2)
O5 O 0.31992(5) 0.20996(5) 0.01526(2)
H1E H 0.4649 0.2111 0.2586
C2E C 0.56202(8) 0.19395(8) 0.22249(3)
C3E C 0.53718(8) 0.10933(8) 0.21160(3)
H2E H 0.4829 0.0858 0.2188
C4E C 0.59091(8) 0.05945(7) 0.19047(3)
C5E C 0.67319(7) 0.09097(7) 0.18009(3)
C6E C 0.69922(8) 0.17509(8) 0.19160(3)
H3E H 0.7548 0.1973 0.1853
C7E C 0.64437(8) 0.22638(8) 0.21211(3)
C8E C 0.73151(8) 0.03815(8) 0.15613(3)
H4E H 0.7934 0.0543 0.1599
H5E H 0.7251 -0.0249 0.1611
C9E C 0.70842(7) 0.05407(7) 0.11935(3)
C10E C 0.64367(7) 0.00382(7) 0.10305(3)
H6E H 0.6161 -0.0425 0.1148
C11E C 0.61905(7) 0.02080(7) 0.06983(3)
C12E C 0.66127(7) 0.08698(7) 0.05108(3)
C13E C 0.72672(7) 0.13639(7) 0.06744(3)
H7E H 0.7566 0.1807 0.0554
C14E C 0.74881(7) 0.12189(7) 0.10083(3)
C15E C 0.63450(8) 0.10902(7) 0.01511(3)
H8E H 0.6104 0.0561 0.0042
H9E H 0.6867 0.1278 0.0024
C16E C 0.56527(7) 0.18253(7) 0.01447(3)
C17E C 0.47542(7) 0.16199(7) 0.01448(3)
H10E H 0.4581 0.1024 0.0142
C18E C 0.58945(7) 0.27234(7) 0.01492(3)
C19E C 0.74445(9) 0.35165(9) 0.21017(4)
H11E H 0.7959 0.3158 0.2152
H12E H 0.7516 0.4097 0.2202
H13E H 0.7381 0.3575 0.1860
C20E C 0.47674(9) -0.04785(10) 0.17797(4)
H14E H 0.4560 -0.0585 0.2007
H15E H 0.4689 -0.1009 0.1646
H16E H 0.4432 0.0002 0.1681
C21E C 0.84001(12) 0.25178(10) 0.10314(5)
H17E H 0.8729 0.2395 0.0827
H18E H 0.8774 0.2836 0.1188
H19E H 0.7887 0.2875 0.0978
C22E C 0.48951(8) -0.07229(9) 0.07218(4)
H20E H 0.5174 -0.1208 0.0841
H21E H 0.4440 -0.0953 0.0574
H22E H 0.4631 -0.0320 0.0883
C23E C 0.70773(9) 0.38000(8) 0.01876(4)
H23E H 0.6896 0.4133 -0.0009
H24E H 0.7715 0.3823 0.0209
H25E H 0.6808 0.4054 0.0387
O1E O 0.66712(6) 0.31017(6) 0.22382(3)
O2E O 0.56795(6) -0.02480(5) 0.17877(3)
O3E O 0.81235(6) 0.17132(6) 0.11789(3)
O4E O 0.55357(6) -0.02687(6) 0.05293(2)
O5E O 0.68008(5) 0.29004(5) 0.01526(2)
H26? H 0.5351 0.2889 0.2586
C24? C 0.498(2) 0.2463(16) 0.11863(9)
H27? H 0.5314 0.2376 0.1392
H28? H 0.4700 0.3039 0.1191
H29? H 0.5377 0.2429 0.0995
C25? C 0.4363(2) 0.1834(3) 0.11600(10)
N1? N 0.3871(3) 0.1326(2) 0.11546(10)
loop_
_geom_bond_atom_site_label_1
_geom_bond_atom_site_label_2
_geom_bond_site_symmetry_1
_geom_bond_site_symmetry_2
C1 H1 1_555 1_555
C2 C1 1_555 1_555
C3 C2 1_555 1_555
H2 C3 1_555 1_555
C4 C3 1_555 1_555
C5 C4 1_555 1_555
C6 C5 1_555 1_555
H3 C6 1_555 1_555
C7 C2 1_555 1_555
C8 C5 1_555 1_555
H4 C8 1_555 1_555
H5 C8 1_555 1_555
C9 C8 1_555 1_555
C10 C9 1_555 1_555
H6 C10 1_555 1_555
C11 C10 1_555 1_555
C12 C11 1_555 1_555
C13 C12 1_555 1_555
H7 C13 1_555 1_555
C14 C9 1_555 1_555
C15 C12 1_555 1_555
H8 C15 1_555 1_555
H9 C15 1_555 1_555
C16 C15 1_555 1_555
C17 C16 1_555 1_555
H10 C17 1_555 1_555
C18 C16 1_555 1_555
C19 H11 1_555 1_555
H12 C19 1_555 1_555
H13 C19 1_555 1_555
C20 H14 1_555 1_555
H15 C20 1_555 1_555
H16 C20 1_555 1_555
C21 H17 1_555 1_555
H18 C21 1_555 1_555
H19 C21 1_555 1_555
C22 H20 1_555 1_555
H21 C22 1_555 1_555
H22 C22 1_555 1_555
C23 H23 1_555 1_555
H24 C23 1_555 1_555
H25 C23 1_555 1_555
O1 C7 1_555 1_555
O2 C4 1_555 1_555
O3 C14 1_555 1_555
O4 C11 1_555 1_555
O5 C18 1_555 1_555
H1E C1 1_555 1_555
C2E C1 1_555 1_555
C3E C2E 1_555 1_555
H2E C3E 1_555 1_555
C4E C3E 1_555 1_555
C5E C4E 1_555 1_555
C6E C5E 1_555 1_555
H3E C6E 1_555 1_555
C7E C2E 1_555 1_555
C8E C5E 1_555 1_555
H4E C8E 1_555 1_555
H5E C8E 1_555 1_555
C9E C8E 1_555 1_555
C10E C9E 1_555 1_555
H6E C10E 1_555 1_555
C11E C10E 1_555 1_555
C12E C11E 1_555 1_555
C13E C12E 1_555 1_555
H7E C13E 1_555 1_555
C14E C9E 1_555 1_555
C15E C12E 1_555 1_555
H8E C15E 1_555 1_555
H9E C15E 1_555 1_555
C16E C15E 1_555 1_555
C17E C18 1_555 1_555
H10E C17E 1_555 1_555
C18E C17 1_555 1_555
C19E H11E 1_555 1_555
H12E C19E 1_555 1_555
H13E C19E 1_555 1_555
C20E H14E 1_555 1_555
H15E C20E 1_555 1_555
H16E C20E 1_555 1_555
C21E H17E 1_555 1_555
H18E C21E 1_555 1_555
H19E C21E 1_555 1_555
C22E H20E 1_555 1_555
H21E C22E 1_555 1_555
H22E C22E 1_555 1_555
C23E H23E 1_555 1_555
H24E C23E 1_555 1_555
H25E C23E 1_555 1_555
O1E C7E 1_555 1_555
O2E C4E 1_555 1_555
O3E C14E 1_555 1_555
O4E C11E 1_555 1_555
O5E C18E 1_555 1_555
C6 C7 1_555 1_555
C13 C14 1_555 1_555
C19 O1 1_555 1_555
C20 O2 1_555 1_555
C21 O3 1_555 1_555
C22 O4 1_555 1_555
C23 O5 1_555 1_555
C6E C7E 1_555 1_555
C13E C14E 1_555 1_555
C16E C17E 1_555 1_555
C16E C18E 1_555 1_555
C19E O1E 1_555 1_555
C20E O2E 1_555 1_555
C21E O3E 1_555 1_555
C22E O4E 1_555 1_555
C23E O5E 1_555 1_555

#END
