
#######################################################################
#
#                 Cambridge Crystallographic Data Centre
#                                CCDC 
#
#######################################################################
#
# If this CIF has been generated from an entry in the Cambridge 
# Structural Database, then it will include bibliographic, chemical, 
# crystal, experimental, refinement or atomic coordinate data resulting 
# from the CCDC's data processing and validation procedures.
#
#######################################################################

data_MOCPAW
_chemical_formula_moiety         'C20 H24 Br1 N1 O8'
_chemical_name_systematic        
'2,2-Diethyl 3,4-dimethyl 5-(4-bromophenyl)pyrrolidine-2,2,3,4-tetracarboxylate'
_symmetry_cell_setting           orthorhombic
_symmetry_space_group_name_H-M   'P 21 21 21'
_symmetry_Int_Tables_number      19
_space_group_name_Hall           'P 2ac 2ab'
loop_
_symmetry_equiv_pos_site_id
_symmetry_equiv_pos_as_xyz
1 x,y,z
2 1/2-x,-y,1/2+z
3 -x,1/2+y,1/2-z
4 1/2+x,1/2-y,-z
_cell_length_a                   11.4513(5)
_cell_length_b                   12.4207(8)
_cell_length_c                   15.2454(6)
_cell_angle_alpha                90
_cell_angle_beta                 90
_cell_angle_gamma                90
_cell_volume                     2168.4
_exptl_crystal_colour            colorless
_exptl_crystal_description       block
_chemical_melting_point          '97-100 deg.C'
_cell_formula_units_Z            4
loop_
_atom_site_label
_atom_site_type_symbol
_atom_site_fract_x
_atom_site_fract_y
_atom_site_fract_z
Br1 Br 0.66239(6) 0.95810(5) 0.06739(4)
N1 N 0.7526(3) 0.7705(3) 0.4930(2)
H1 H 0.687(4) 0.754(4) 0.470(3)
C1 C 0.7141(4) 0.9086(3) 0.1779(3)
C2 C 0.8277(5) 0.9292(4) 0.2048(3)
H2 H 0.874(4) 0.962(4) 0.173(3)
C3 C 0.8636(4) 0.8923(3) 0.2850(3)
H3 H 0.946(4) 0.905(4) 0.301(3)
C4 C 0.7916(3) 0.8339(3) 0.3397(2)
C5 C 0.6783(3) 0.8142(3) 0.3111(3)
H4 H 0.629(3) 0.774(3) 0.345(2)
C6 C 0.6391(4) 0.8517(3) 0.2307(3)
H5 H 0.550(3) 0.846(3) 0.205(2)
C7 C 0.8405(3) 0.7896(3) 0.4246(3)
H6 H 0.893(3) 0.841(3) 0.445(2)
C8 C 0.9086(3) 0.6825(3) 0.4158(2)
H7 H 0.984(3) 0.700(3) 0.393(2)
C9 C 0.9106(3) 0.6449(3) 0.5101(2)
H8 H 0.964(2) 0.694(2) 0.5409(18)
C10 C 0.7893(3) 0.6805(3) 0.5487(2)
C11 C 0.8564(3) 0.6069(3) 0.3502(2)
C12 C 0.9517(3) 0.5316(4) 0.5239(3)
C13 C 0.8065(4) 0.7249(3) 0.6416(3)
C14 C 0.6932(3) 0.5953(4) 0.5494(2)
C15 C 0.6817(4) 0.5157(4) 0.3127(3)
H9 H 0.6062 0.5005 0.3370
H10 H 0.7215 0.4494 0.3005
H11 H 0.6727 0.5558 0.2593
C16 C 1.0285(4) 0.4110(5) 0.6264(3)
H12 H 1.0478 0.4068 0.6876
H13 H 1.0976 0.3993 0.5920
H14 H 0.9716 0.3570 0.6125
C17 C 0.7122(4) 0.7775(4) 0.7735(3)
H15 H 0.7799 0.7520 0.8056
H16 H 0.7193 0.8549 0.7665
C18 C 0.6079(4) 0.7528(5) 0.8213(3)
H17 H 0.6113 0.7861 0.8781
H18 H 0.6013 0.6762 0.8281
H19 H 0.5414 0.7794 0.7898
C19 C 0.6459(5) 0.4124(5) 0.5774(4)
H20 H 0.6233 0.3965 0.6374
H21 H 0.5765 0.4361 0.5465
C20 C 0.6832(7) 0.3234(5) 0.5408(8)
H22 H 0.6230 0.2698 0.5436
H23 H 0.7511 0.2981 0.5715
H24 H 0.7029 0.3372 0.4807
O1 O 0.5951(2) 0.6131(3) 0.5266(2)
O2 O 0.9822(2) 0.5143(2) 0.60745(18)
O3 O 0.8967(2) 0.7605(3) 0.66918(18)
O4 O 0.9007(2) 0.5780(3) 0.28364(19)
O5 O 0.7298(2) 0.5014(3) 0.5789(2)
O6 O 0.7079(2) 0.7255(2) 0.68655(15)
O7 O 0.9606(3) 0.4655(3) 0.4675(2)
O8 O 0.7481(2) 0.5773(2) 0.37374(15)
loop_
_geom_bond_atom_site_label_1
_geom_bond_atom_site_label_2
_geom_bond_site_symmetry_1
_geom_bond_site_symmetry_2
Br1 C1 1_555 1_555
N1 H1 1_555 1_555
C1 C2 1_555 1_555
C2 H2 1_555 1_555
C3 C2 1_555 1_555
H3 C3 1_555 1_555
C4 C3 1_555 1_555
C5 C4 1_555 1_555
H4 C5 1_555 1_555
C6 C1 1_555 1_555
H5 C6 1_555 1_555
C7 N1 1_555 1_555
H6 C7 1_555 1_555
C8 C7 1_555 1_555
H7 C8 1_555 1_555
C9 C8 1_555 1_555
H8 C9 1_555 1_555
C10 N1 1_555 1_555
C11 C8 1_555 1_555
C12 C9 1_555 1_555
C13 C10 1_555 1_555
C14 C10 1_555 1_555
C15 H9 1_555 1_555
H10 C15 1_555 1_555
H11 C15 1_555 1_555
C16 H12 1_555 1_555
H13 C16 1_555 1_555
H14 C16 1_555 1_555
C17 H15 1_555 1_555
H16 C17 1_555 1_555
C18 C17 1_555 1_555
H17 C18 1_555 1_555
H18 C18 1_555 1_555
H19 C18 1_555 1_555
C19 H20 1_555 1_555
H21 C19 1_555 1_555
C20 C19 1_555 1_555
H22 C20 1_555 1_555
H23 C20 1_555 1_555
H24 C20 1_555 1_555
O1 C14 1_555 1_555
O2 C12 1_555 1_555
O3 C13 1_555 1_555
O4 C11 1_555 1_555
O5 C14 1_555 1_555
O6 C13 1_555 1_555
O7 C12 1_555 1_555
O8 C11 1_555 1_555
C4 C7 1_555 1_555
C5 C6 1_555 1_555
C9 C10 1_555 1_555
C15 O8 1_555 1_555
C16 O2 1_555 1_555
C17 O6 1_555 1_555
C19 O5 1_555 1_555

#END
