
#######################################################################
#
#                 Cambridge Crystallographic Data Centre
#                                CCDC 
#
#######################################################################
#
# If this CIF has been generated from an entry in the Cambridge 
# Structural Database, then it will include bibliographic, chemical, 
# crystal, experimental, refinement or atomic coordinate data resulting 
# from the CCDC's data processing and validation procedures.
#
#######################################################################

data_MOCTUT
_chemical_formula_moiety         'C20 H14 Cl1 N1 O2'
_chemical_name_systematic        N,N-Dibenzoyl-4-chloroaniline
_symmetry_cell_setting           monoclinic
_symmetry_space_group_name_H-M   'P 21/n'
_symmetry_Int_Tables_number      14
_space_group_name_Hall           '-P 2yn'
loop_
_symmetry_equiv_pos_site_id
_symmetry_equiv_pos_as_xyz
1 x,y,z
2 1/2+x,1/2-y,1/2+z
3 -x,-y,-z
4 1/2-x,1/2+y,1/2-z
_cell_length_a                   10.2697(2)
_cell_length_b                   9.0419(2)
_cell_length_c                   17.9903(4)
_cell_angle_alpha                90
_cell_angle_beta                 92.8770(10)
_cell_angle_gamma                90
_cell_volume                     1668.43
_exptl_crystal_colour            colorless
_exptl_crystal_description       block
_chemical_melting_point          418K
_cell_formula_units_Z            4
_exptl_crystal_recrystallization_method 'petroleum ether/ethyl acetate'
loop_
_atom_site_label
_atom_site_type_symbol
_atom_site_fract_x
_atom_site_fract_y
_atom_site_fract_z
Cl1 Cl 0.66392(9) 0.90583(9) 0.52576(5)
O1 O 0.59382(18) 0.1458(2) 0.32021(11)
O2 O 0.35486(19) 0.4500(2) 0.31169(12)
N1 N 0.57269(19) 0.3970(2) 0.32059(11)
C1 C 0.5815(3) 0.6630(3) 0.34445(15)
H1 H 0.5577 0.6790 0.2945
C2 C 0.6004(3) 0.7821(3) 0.39191(17)
H2 H 0.5879 0.8782 0.3746
C3 C 0.6381(3) 0.7556(3) 0.46548(16)
C4 C 0.6556(3) 0.6142(3) 0.49236(16)
H3 H 0.6815 0.5984 0.5420
C5 C 0.6343(2) 0.4960(3) 0.44469(14)
H4 H 0.6445 0.3999 0.4625
C6 C 0.5979(2) 0.5196(3) 0.37080(14)
C7 C 0.6473(3) 0.2659(3) 0.32712(14)
C8 C 0.7906(2) 0.2806(3) 0.33938(14)
C9 C 0.8604(3) 0.3986(3) 0.31098(16)
H5 H 0.8159 0.4769 0.2878
C10 C 0.9943(3) 0.3998(3) 0.31711(17)
H6 H 1.0401 0.4777 0.2970
C11 C 1.0610(3) 0.2862(4) 0.35287(17)
H7 H 1.1516 0.2881 0.3572
C12 C 0.9934(3) 0.1686(3) 0.38265(17)
H8 H 1.0385 0.0927 0.4076
C13 C 0.8594(3) 0.1653(3) 0.37499(15)
H9 H 0.8142 0.0855 0.3937
C14 C 0.4458(3) 0.3898(3) 0.28422(15)
C15 C 0.4335(2) 0.3185(3) 0.20957(14)
C16 C 0.5397(3) 0.2986(3) 0.16446(15)
H10 H 0.6234 0.3230 0.1825
C17 C 0.5202(3) 0.2431(3) 0.09388(16)
H11 H 0.5907 0.2307 0.0640
C18 C 0.3961(3) 0.2055(3) 0.06679(16)
H12 H 0.3834 0.1673 0.0190
C19 C 0.2913(3) 0.2248(3) 0.11077(16)
H13 H 0.2079 0.1993 0.0927
C20 C 0.3100(3) 0.2818(3) 0.18159(16)
H14 H 0.2388 0.2957 0.2108
loop_
_geom_bond_atom_site_label_1
_geom_bond_atom_site_label_2
_geom_bond_site_symmetry_1
_geom_bond_site_symmetry_2
Cl1 C3 1_555 1_555
O1 C7 1_555 1_555
O2 C14 1_555 1_555
N1 C6 1_555 1_555
C1 H1 1_555 1_555
C2 C1 1_555 1_555
H2 C2 1_555 1_555
C3 C2 1_555 1_555
C4 C3 1_555 1_555
H3 C4 1_555 1_555
C5 C4 1_555 1_555
H4 C5 1_555 1_555
C6 C1 1_555 1_555
C7 N1 1_555 1_555
C8 C7 1_555 1_555
C9 C8 1_555 1_555
H5 C9 1_555 1_555
C10 C9 1_555 1_555
H6 C10 1_555 1_555
C11 C10 1_555 1_555
H7 C11 1_555 1_555
C12 C11 1_555 1_555
H8 C12 1_555 1_555
C13 C8 1_555 1_555
H9 C13 1_555 1_555
C14 N1 1_555 1_555
C15 C14 1_555 1_555
C16 C15 1_555 1_555
H10 C16 1_555 1_555
C17 C16 1_555 1_555
H11 C17 1_555 1_555
C18 C17 1_555 1_555
H12 C18 1_555 1_555
C19 C18 1_555 1_555
H13 C19 1_555 1_555
C20 C15 1_555 1_555
H14 C20 1_555 1_555
C5 C6 1_555 1_555
C12 C13 1_555 1_555
C19 C20 1_555 1_555

#END
