
#######################################################################
#
#                 Cambridge Crystallographic Data Centre
#                                CCDC 
#
#######################################################################
#
# If this CIF has been generated from an entry in the Cambridge 
# Structural Database, then it will include bibliographic, chemical, 
# crystal, experimental, refinement or atomic coordinate data resulting 
# from the CCDC's data processing and validation procedures.
#
#######################################################################

data_MOCVAC
_chemical_formula_moiety         'C19 H17 N3 O1'
_chemical_name_systematic        
5-Ethyl-3-methyl-N-phenyl-1,5-dihydro-4H-pyrazolo[4,3-c]quinolin-4-one
_symmetry_cell_setting           monoclinic
_symmetry_space_group_name_H-M   'P 21/c'
_symmetry_Int_Tables_number      14
_space_group_name_Hall           '-P 2ybc'
loop_
_symmetry_equiv_pos_site_id
_symmetry_equiv_pos_as_xyz
1 x,y,z
2 -x,1/2+y,1/2-z
3 -x,-y,-z
4 x,1/2-y,1/2+z
_cell_length_a                   7.4000(17)
_cell_length_b                   11.770(3)
_cell_length_c                   18.552(4)
_cell_angle_alpha                90
_cell_angle_beta                 94.497(4)
_cell_angle_gamma                90
_cell_volume                     1610.87
_exptl_crystal_colour            colorless
_exptl_crystal_description       needle
_chemical_melting_point          '172-173 deg.C'
_cell_formula_units_Z            4
loop_
_atom_site_label
_atom_site_type_symbol
_atom_site_fract_x
_atom_site_fract_y
_atom_site_fract_z
C1 C 0.2934(4) 0.5809(2) 0.85872(13)
C2 C 0.2747(3) 0.6661(2) 0.91143(12)
C3 C 0.2279(4) 0.7998(2) 1.06155(12)
C4 C 0.2666(4) 0.7790(2) 0.88989(13)
H1 H 0.2539 0.8350 0.9245
C5 C 0.3033(4) 0.6158(3) 0.78671(13)
H2 H 0.3151 0.5614 0.7510
C6 C 0.2957(4) 0.7279(3) 0.76806(14)
H3 H 0.3034 0.7486 0.7200
C7 C 0.0668(4) 0.8486(2) 1.07517(14)
H4 H -0.0386 0.8053 1.0733
C8 C 0.2770(4) 0.8104(2) 0.81913(14)
H5 H 0.2714 0.8867 0.8060
C9 C 0.3849(5) 0.8619(2) 1.06410(14)
H6 H 0.4946 0.8279 1.0555
C10 C 0.2158(7) 1.0268(3) 1.09305(16)
H7 H 0.2110 1.1041 1.1029
C11 C 0.3760(6) 0.9772(3) 1.07984(16)
H8 H 0.4809 1.0209 1.0814
C12 C 0.0616(6) 0.9620(3) 1.09168(18)
H9 H -0.0474 0.9952 1.1020
C13 C 0.2578(3) 0.62483(19) 0.98361(12)
C14 C 0.2557(3) 0.51114(19) 0.99992(12)
C15 C 0.2795(4) 0.4248(2) 0.94677(14)
C16 C 0.3366(5) 0.3786(2) 0.82231(15)
H10 H 0.3920 0.3123 0.8459
H11 H 0.4210 0.4090 0.7898
C17 C 0.1647(5) 0.3440(3) 0.77941(16)
H12 H 0.0840 0.3093 0.8110
H13 H 0.1925 0.2906 0.7427
H14 H 0.1078 0.4098 0.7571
C18 C 0.2287(3) 0.5035(2) 1.07426(13)
C19 C 0.2153(4) 0.4003(2) 1.12067(14)
H15 H 0.3270 0.3586 1.1220
H16 H 0.1178 0.3530 1.1010
H17 H 0.1924 0.4230 1.1688
O1 O 0.2824(3) 0.32195(15) 0.95984(10)
N1 N 0.3019(3) 0.46553(18) 0.87774(11)
N2 N 0.2342(3) 0.68085(15) 1.04627(10)
N3 N 0.2151(3) 0.60621(16) 1.10220(9)
loop_
_geom_bond_atom_site_label_1
_geom_bond_atom_site_label_2
_geom_bond_site_symmetry_1
_geom_bond_site_symmetry_2
C1 C2 1_555 1_555
C2 C4 1_555 1_555
C3 C7 1_555 1_555
C4 H1 1_555 1_555
C5 C1 1_555 1_555
H2 C5 1_555 1_555
C6 C5 1_555 1_555
H3 C6 1_555 1_555
C7 H4 1_555 1_555
C8 C4 1_555 1_555
H5 C8 1_555 1_555
C9 C3 1_555 1_555
H6 C9 1_555 1_555
C10 H7 1_555 1_555
C11 C9 1_555 1_555
H8 C11 1_555 1_555
C12 C7 1_555 1_555
H9 C12 1_555 1_555
C13 C2 1_555 1_555
C14 C13 1_555 1_555
C15 C14 1_555 1_555
C16 H10 1_555 1_555
H11 C16 1_555 1_555
C17 C16 1_555 1_555
H12 C17 1_555 1_555
H13 C17 1_555 1_555
H14 C17 1_555 1_555
C18 C14 1_555 1_555
C19 C18 1_555 1_555
H15 C19 1_555 1_555
H16 C19 1_555 1_555
H17 C19 1_555 1_555
O1 C15 1_555 1_555
N1 C1 1_555 1_555
N2 C3 1_555 1_555
N3 C18 1_555 1_555
C6 C8 1_555 1_555
C10 C11 1_555 1_555
C10 C12 1_555 1_555
C13 N2 1_555 1_555
C15 N1 1_555 1_555
C16 N1 1_555 1_555
N2 N3 1_555 1_555

#END
