
#######################################################################
#
#                 Cambridge Crystallographic Data Centre
#                                CCDC 
#
#######################################################################
#
# If this CIF has been generated from an entry in the Cambridge 
# Structural Database, then it will include bibliographic, chemical, 
# crystal, experimental, refinement or atomic coordinate data resulting 
# from the CCDC's data processing and validation procedures.
#
#######################################################################

data_MOCWIK
_chemical_formula_moiety         'C22 H17 N1 O3'
_chemical_name_systematic        4-Acetyl-N,N-dibenzoylphenylamine
_symmetry_cell_setting           monoclinic
_symmetry_space_group_name_H-M   'P 21/n'
_symmetry_Int_Tables_number      14
_space_group_name_Hall           '-P 2yn'
loop_
_symmetry_equiv_pos_site_id
_symmetry_equiv_pos_as_xyz
1 x,y,z
2 1/2+x,1/2-y,1/2+z
3 -x,-y,-z
4 1/2-x,1/2+y,1/2-z
_cell_length_a                   10.51900(10)
_cell_length_b                   9.1443(2)
_cell_length_c                   18.1947(3)
_cell_angle_alpha                90
_cell_angle_beta                 94.1480(10)
_cell_angle_gamma                90
_cell_volume                     1745.54
_exptl_crystal_colour            colorless
_exptl_crystal_description       block
_chemical_melting_point          411K
_cell_formula_units_Z            4
_exptl_crystal_recrystallization_method 'petroleum ether/ethyl acetate'
loop_
_atom_site_label
_atom_site_type_symbol
_atom_site_fract_x
_atom_site_fract_y
_atom_site_fract_z
O1 O 0.89512(9) 0.83043(10) 0.18686(5)
O2 O 1.13966(10) 0.53925(13) 0.18940(7)
O3 O 0.83984(14) -0.03164(13) 0.02038(7)
N1 N 0.92554(11) 0.58415(12) 0.18229(6)
C1 C 0.91185(14) 0.32112(15) 0.16181(8)
H1 H 0.9346(17) 0.3108(17) 0.2144(10)
C2 C 0.89295(14) 0.20212(16) 0.11539(8)
H2 H 0.8984(17) 0.103(2) 0.1367(10)
C3 C 0.86571(13) 0.22197(15) 0.03971(8)
C4 C 0.85503(14) 0.36353(16) 0.01168(8)
H3 H 0.8348(15) 0.3771(18) -0.0412(9)
C5 C 0.87256(14) 0.48389(16) 0.05829(8)
H4 H 0.8657(17) 0.588(2) 0.0373(10)
C6 C 0.90120(13) 0.46214(14) 0.13299(7)
C7 C 0.84770(13) 0.70998(14) 0.17729(7)
C8 C 0.70792(13) 0.68840(14) 0.16429(7)
C9 C 0.64698(14) 0.56905(15) 0.19401(8)
H5 H 0.6964(16) 0.4903(18) 0.2212(9)
C10 C 0.51528(14) 0.56149(16) 0.18821(9)
H6 H 0.4728(17) 0.478(2) 0.2103(10)
C11 C 0.44450(15) 0.67026(17) 0.15134(9)
H7 H 0.353(2) 0.663(2) 0.1472(11)
C12 C 0.50446(15) 0.78897(17) 0.12137(9)
H8 H 0.4521(19) 0.868(2) 0.0942(11)
C13 C 0.63667(14) 0.79944(16) 0.12837(8)
H9 H 0.6803(14) 0.8831(17) 0.1053(8)
C14 C 1.05091(13) 0.59517(15) 0.21729(8)
C15 C 1.06480(13) 0.66668(14) 0.29068(8)
C16 C 0.96495(15) 0.67131(16) 0.33763(8)
H10 H 0.8782(17) 0.6334(19) 0.3217(10)
C17 C 0.98579(18) 0.72993(19) 0.40772(9)
H11 H 0.911(2) 0.733(2) 0.4400(12)
C18 C 1.10509(18) 0.7847(2) 0.43125(9)
H12 H 1.1175(18) 0.830(2) 0.4804(11)
C19 C 1.20352(17) 0.78142(18) 0.38479(9)
H13 H 1.289(2) 0.823(2) 0.4035(11)
C20 C 1.18368(14) 0.72241(17) 0.31495(9)
H14 H 1.2526(18) 0.718(2) 0.2807(10)
C21 C 0.85060(14) 0.08818(16) -0.00792(8)
C22 C 0.85421(16) 0.10296(17) -0.08974(8)
H15 H 0.8389 0.0093 -0.1125
H16 H 0.9364 0.1384 -0.1012
H17 H 0.7897 0.1707 -0.1080
loop_
_geom_bond_atom_site_label_1
_geom_bond_atom_site_label_2
_geom_bond_site_symmetry_1
_geom_bond_site_symmetry_2
O1 C7 1_555 1_555
O2 C14 1_555 1_555
O3 C21 1_555 1_555
N1 C6 1_555 1_555
C1 H1 1_555 1_555
C2 C1 1_555 1_555
H2 C2 1_555 1_555
C3 C2 1_555 1_555
C4 C3 1_555 1_555
H3 C4 1_555 1_555
C5 C4 1_555 1_555
H4 C5 1_555 1_555
C6 C1 1_555 1_555
C7 N1 1_555 1_555
C8 C7 1_555 1_555
C9 C8 1_555 1_555
H5 C9 1_555 1_555
C10 C9 1_555 1_555
H6 C10 1_555 1_555
C11 C10 1_555 1_555
H7 C11 1_555 1_555
C12 C11 1_555 1_555
H8 C12 1_555 1_555
C13 C8 1_555 1_555
H9 C13 1_555 1_555
C14 N1 1_555 1_555
C15 C14 1_555 1_555
C16 C15 1_555 1_555
H10 C16 1_555 1_555
C17 C16 1_555 1_555
H11 C17 1_555 1_555
C18 C17 1_555 1_555
H12 C18 1_555 1_555
C19 C18 1_555 1_555
H13 C19 1_555 1_555
C20 C15 1_555 1_555
H14 C20 1_555 1_555
C21 C3 1_555 1_555
C22 C21 1_555 1_555
H15 C22 1_555 1_555
H16 C22 1_555 1_555
H17 C22 1_555 1_555
C5 C6 1_555 1_555
C12 C13 1_555 1_555
C19 C20 1_555 1_555

#END
