
#######################################################################
#
#                 Cambridge Crystallographic Data Centre
#                                CCDC 
#
#######################################################################
#
# If this CIF has been generated from an entry in the Cambridge 
# Structural Database, then it will include bibliographic, chemical, 
# crystal, experimental, refinement or atomic coordinate data resulting 
# from the CCDC's data processing and validation procedures.
#
#######################################################################

data_MOCXAD
_chemical_formula_moiety         'C19 H14 F3 N3 O3 S1'
_chemical_name_systematic        
3-(2,3-Dihydro-1,5-dimethyl-3-oxo-2-phenylpyrazol-4-ylimino)-4,4,4-trifluoro-1-(2-thienyl)butane-1,2-dione
_symmetry_cell_setting           monoclinic
_symmetry_space_group_name_H-M   'P 21/c'
_symmetry_Int_Tables_number      14
_space_group_name_Hall           '-P 2ybc'
loop_
_symmetry_equiv_pos_site_id
_symmetry_equiv_pos_as_xyz
1 x,y,z
2 x,1/2-y,1/2+z
3 -x,-y,-z
4 -x,1/2+y,1/2-z
_cell_length_a                   10.964(3)
_cell_length_b                   12.570(3)
_cell_length_c                   13.840(4)
_cell_angle_alpha                90
_cell_angle_beta                 96.822(5)
_cell_angle_gamma                90
_cell_volume                     1893.89
_exptl_crystal_colour            yellow
_exptl_crystal_description       prism
_cell_formula_units_Z            4
_exptl_crystal_recrystallization_method 'dimethyl sulfoxide'
loop_
_atom_site_label
_atom_site_type_symbol
_atom_site_fract_x
_atom_site_fract_y
_atom_site_fract_z
S1 S 0.82875(8) 1.08718(5) 0.93079(5)
N1 N 1.15537(15) 0.86785(14) 0.54542(12)
N2 N 1.15364(15) 0.87059(15) 0.64613(12)
N3 N 0.83519(15) 0.85755(13) 0.55041(12)
O1 O 0.77315(16) 1.03602(12) 0.72091(11)
O2 O 1.00274(13) 0.87594(13) 0.74978(11)
O3 O 0.75453(17) 0.76667(13) 0.76237(12)
C1 C 1.03295(18) 0.86985(16) 0.66635(15)
C2 C 0.96097(18) 0.86228(15) 0.57324(14)
C3 C 1.04021(18) 0.86038(16) 0.50211(15)
C4 C 1.0106(2) 0.84920(19) 0.39510(15)
H1 H 1.0523 0.9036 0.3631
H2 H 0.9236 0.8562 0.3778
H3 H 1.0368 0.7805 0.3752
C5 C 1.2706(2) 0.8574(2) 0.50455(17)
H4 H 1.3082 0.7906 0.5243
H5 H 1.3244 0.9146 0.5275
H6 H 1.2553 0.8600 0.4348
C6 C 0.77077(18) 0.84944(17) 0.72216(15)
C7 C 0.78576(18) 0.95746(17) 0.77329(15)
C8 C 0.75608(18) 0.85460(16) 0.61084(15)
C9 C 0.6240(2) 0.8463(2) 0.56648(17)
F1 F 0.60490(16) 0.87458(18) 0.47468(13)
F2 F 0.55232(17) 0.9089(2) 0.61270(17)
F3 F 0.57967(19) 0.74909(18) 0.56963(19)
C10 C 0.80691(18) 0.96352(17) 0.87863(15)
C11 C 0.8132(2) 0.88472(19) 0.94923(15)
H7 H 0.8035 0.8124 0.9362
C12 C 0.8363(3) 0.9288(2) 1.04328(18)
H8 H 0.8433 0.8880 1.0997
C13 C 0.8472(3) 1.0348(2) 1.04373(19)
H9 H 0.8632 1.0752 1.1001
C14 C 1.26103(18) 0.89117(17) 0.71281(15)
C15 C 1.3170(2) 0.8072(2) 0.76453(18)
H10 H 1.2867 0.7384 0.7554
C16 C 1.4195(3) 0.8278(3) 0.8305(2)
H11 H 1.4589 0.7721 0.8659
C17 C 1.4632(3) 0.9296(4) 0.8441(2)
H12 H 1.5316 0.9427 0.8889
C18 C 1.4067(3) 1.0118(3) 0.7919(3)
H13 H 1.4370 1.0806 0.8011
C19 C 1.3052(2) 0.9929(2) 0.7258(2)
H14 H 1.2666 1.0487 0.6902
F4? F 0.5790(14) 0.9341(10) 0.5358(9)
F5? F 0.5543(11) 0.8137(9) 0.6294(9)
F6? F 0.6083(15) 0.7811(9) 0.4943(8)
loop_
_geom_bond_atom_site_label_1
_geom_bond_atom_site_label_2
_geom_bond_site_symmetry_1
_geom_bond_site_symmetry_2
S1 C10 1_555 1_555
N1 N2 1_555 1_555
N2 C1 1_555 1_555
N3 C2 1_555 1_555
O1 C7 1_555 1_555
O2 C1 1_555 1_555
O3 C6 1_555 1_555
C1 C2 1_555 1_555
C2 C3 1_555 1_555
C3 N1 1_555 1_555
C4 C3 1_555 1_555
H1 C4 1_555 1_555
H2 C4 1_555 1_555
H3 C4 1_555 1_555
C5 N1 1_555 1_555
H4 C5 1_555 1_555
H5 C5 1_555 1_555
H6 C5 1_555 1_555
C6 C7 1_555 1_555
C7 C10 1_555 1_555
C8 N3 1_555 1_555
C9 C8 1_555 1_555
F1 C9 1_555 1_555
F2 C9 1_555 1_555
F3 C9 1_555 1_555
C10 C11 1_555 1_555
C11 H7 1_555 1_555
C12 C11 1_555 1_555
H8 C12 1_555 1_555
C13 S1 1_555 1_555
H9 C13 1_555 1_555
C14 N2 1_555 1_555
C15 C14 1_555 1_555
H10 C15 1_555 1_555
C16 C15 1_555 1_555
H11 C16 1_555 1_555
C17 C16 1_555 1_555
H12 C17 1_555 1_555
C18 C17 1_555 1_555
H13 C18 1_555 1_555
C19 C14 1_555 1_555
H14 C19 1_555 1_555
C6 C8 1_555 1_555
C12 C13 1_555 1_555
C18 C19 1_555 1_555

#END
