
#######################################################################
#
#                 Cambridge Crystallographic Data Centre
#                                CCDC 
#
#######################################################################
#
# If this CIF has been generated from an entry in the Cambridge 
# Structural Database, then it will include bibliographic, chemical, 
# crystal, experimental, refinement or atomic coordinate data resulting 
# from the CCDC's data processing and validation procedures.
#
#######################################################################

data_MOCZUB
_chemical_formula_moiety         'C17 H12 F1 N1 O2'
_chemical_name_systematic        
6-fluoro-3-(2-(4-methylphenyl)vinyl)-2H-1,4-benzoxazin-2-one
_symmetry_cell_setting           monoclinic
_symmetry_space_group_name_H-M   'P 21/c'
_symmetry_Int_Tables_number      14
_space_group_name_Hall           '-P 2ybc'
loop_
_symmetry_equiv_pos_site_id
_symmetry_equiv_pos_as_xyz
1 x,y,z
2 -x,1/2+y,1/2-z
3 -x,-y,-z
4 x,1/2-y,1/2+z
_cell_length_a                   11.395(4)
_cell_length_b                   7.210(2)
_cell_length_c                   17.653(5)
_cell_angle_alpha                90
_cell_angle_beta                 110.390(18)
_cell_angle_gamma                90
_cell_volume                     1359.46
_cell_formula_units_Z            4
loop_
_atom_site_label
_atom_site_type_symbol
_atom_site_fract_x
_atom_site_fract_y
_atom_site_fract_z
C1 C 0.7736(4) 0.4091(6) 0.2929(2)
H1 H 0.7981 0.4489 0.3481
H2 H 0.8465 0.3978 0.2778
H3 H 0.7323 0.2912 0.2869
C2 C 0.6863(3) 0.5485(5) 0.23958(19)
C3 C 0.6190(3) 0.5128(5) 0.1589(2)
H4 H 0.6273 0.3986 0.1368
C4 C 0.5395(3) 0.6457(6) 0.1109(2)
H5 H 0.4955 0.6189 0.0569
C5 C 0.5239(3) 0.8157(5) 0.14109(19)
C6 C 0.5911(3) 0.8500(5) 0.2212(2)
H6 H 0.5830 0.9642 0.2434
C7 C 0.6694(3) 0.7199(5) 0.26870(19)
H7 H 0.7129 0.7478 0.3227
C8 C 0.4367(3) 0.9613(5) 0.0935(2)
H8 H 0.4337 1.0710 0.1205
C9 C 0.3645(3) 0.9513(6) 0.0186(2)
H9 H 0.3669 0.8428 -0.0094
C10 C 0.2806(3) 1.0958(4) -0.02468(19)
C11 C 0.2062(3) 1.0563(5) -0.1101(2)
C12 C 0.1082(3) 1.3452(4) -0.11400(18)
C13 C 0.1826(3) 1.3785(4) -0.03419(16)
C14 C 0.1674(3) 1.5447(5) 0.0007(2)
H10 H 0.2156 1.5719 0.0539
C15 C 0.0809(3) 1.6665(5) -0.0444(3)
C16 C 0.0078(3) 1.6325(6) -0.1237(3)
H11 H -0.0500 1.7205 -0.1528
C17 C 0.0206(3) 1.4702(5) -0.1591(2)
H12 H -0.0285 1.4444 -0.2123
F1 F 0.0673(2) 1.8293(3) -0.01052(18)
N1 N 0.2697(2) 1.2497(4) 0.01105(14)
O1 O 0.2142(3) 0.9160(4) -0.14581(16)
O2 O 0.1203(2) 1.1831(3) -0.15090(13)
loop_
_geom_bond_atom_site_label_1
_geom_bond_atom_site_label_2
_geom_bond_site_symmetry_1
_geom_bond_site_symmetry_2
C1 H1 1_555 1_555
H2 C1 1_555 1_555
H3 C1 1_555 1_555
C2 C1 1_555 1_555
C3 C2 1_555 1_555
H4 C3 1_555 1_555
C4 C3 1_555 1_555
H5 C4 1_555 1_555
C5 C4 1_555 1_555
C6 C5 1_555 1_555
H6 C6 1_555 1_555
C7 C2 1_555 1_555
H7 C7 1_555 1_555
C8 C5 1_555 1_555
H8 C8 1_555 1_555
C9 C8 1_555 1_555
H9 C9 1_555 1_555
C10 C9 1_555 1_555
C11 C10 1_555 1_555
C12 C13 1_555 1_555
C13 C14 1_555 1_555
C14 H10 1_555 1_555
C15 C14 1_555 1_555
C16 C15 1_555 1_555
H11 C16 1_555 1_555
C17 C12 1_555 1_555
H12 C17 1_555 1_555
F1 C15 1_555 1_555
N1 C10 1_555 1_555
O1 C11 1_555 1_555
O2 C11 1_555 1_555
C6 C7 1_555 1_555
C12 O2 1_555 1_555
C13 N1 1_555 1_555
C16 C17 1_555 1_555

#END
