
#######################################################################
#
#                 Cambridge Crystallographic Data Centre
#                                CCDC 
#
#######################################################################
#
# If this CIF has been generated from an entry in the Cambridge 
# Structural Database, then it will include bibliographic, chemical, 
# crystal, experimental, refinement or atomic coordinate data resulting 
# from the CCDC's data processing and validation procedures.
#
#######################################################################

data_MODBIQ
_chemical_name_common            'Thiabendazolium perchlorate'
_chemical_formula_moiety         'C10 H8 N3 S1 1+,Cl1 O4 1-'
_chemical_name_systematic        
'2-(4-Thiazolyl)-1H-benzimidazol-1-ium perchlorate'
_chemical_properties_biological  
'Thiabendazole is a broad-spectrum anthelmintic and is also used as a fungicide'
_symmetry_cell_setting           monoclinic
_symmetry_space_group_name_H-M   'P 21/a'
_symmetry_Int_Tables_number      14
_space_group_name_Hall           '-P 2yab'
loop_
_symmetry_equiv_pos_site_id
_symmetry_equiv_pos_as_xyz
1 x,y,z
2 1/2+x,1/2-y,z
3 -x,-y,-z
4 1/2-x,1/2+y,-z
_cell_length_a                   14.121(15)
_cell_length_b                   5.245(2)
_cell_length_c                   17.384(15)
_cell_angle_alpha                90
_cell_angle_beta                 108.99(11)
_cell_angle_gamma                90
_cell_volume                     1217.47
_exptl_crystal_colour            colorless
_exptl_crystal_description       needle
_cell_formula_units_Z            4
loop_
_atom_site_label
_atom_site_type_symbol
_atom_site_fract_x
_atom_site_fract_y
_atom_site_fract_z
Cl1 Cl 0.48723(9) 0.9113(3) 0.24362(9)
O1 O 0.3863(3) 0.8527(11) 0.2121(3)
O2 O 0.5422(3) 0.8082(10) 0.1967(3)
O3 O 0.5199(7) 0.822(3) 0.3180(4)
O4 O 0.4888(7) 1.1712(14) 0.2379(9)
S1 S 0.14255(12) 0.5237(3) -0.01476(9)
N1 N 0.1919(3) 0.0856(8) 0.2474(2)
N2 N 0.2995(3) 0.3906(8) 0.2638(2)
N3 N 0.1171(3) 0.1600(9) 0.0744(3)
C1 C 0.2237(3) 0.2715(9) 0.2099(3)
C2 C 0.3916(4) 0.3241(13) 0.4141(3)
C3 C 0.3898(4) 0.1683(13) 0.4770(3)
C4 C 0.3207(4) -0.0278(13) 0.4675(4)
C5 C 0.2490(4) -0.0729(11) 0.3931(3)
C6 C 0.2501(3) 0.0818(9) 0.3292(3)
C7 C 0.3192(3) 0.2790(10) 0.3396(3)
C8 C 0.1836(3) 0.3288(10) 0.1234(3)
C9 C 0.2054(4) 0.5340(11) 0.0865(3)
C10 C 0.0903(4) 0.2415(12) -0.0005(3)
H1 H 0.14310 -0.01620 0.22463
H2 H 0.33158 0.51799 0.25318
H3 H 0.439(5) 0.473(13) 0.422(4)
H4 H 0.442(4) 0.199(12) 0.531(3)
H5 H 0.327(4) -0.132(10) 0.509(3)
H6 H 0.199(4) -0.214(11) 0.386(3)
H7 H 0.244(4) 0.656(10) 0.111(3)
H8 H 0.046(5) 0.136(13) -0.044(4)
loop_
_geom_bond_atom_site_label_1
_geom_bond_atom_site_label_2
_geom_bond_site_symmetry_1
_geom_bond_site_symmetry_2
Cl1 O1 1_555 1_555
O2 Cl1 1_555 1_555
O3 Cl1 1_555 1_555
O4 Cl1 1_555 1_555
S1 C9 1_555 1_555
N1 C1 1_555 1_555
N2 C1 1_555 1_555
N3 C8 1_555 1_555
C1 C8 1_555 1_555
C2 C3 1_555 1_555
C3 C4 1_555 1_555
C4 C5 1_555 1_555
C5 C6 1_555 1_555
C6 N1 1_555 1_555
C7 N2 1_555 1_555
C8 C9 1_555 1_555
C9 H7 1_555 1_555
C10 S1 1_555 1_555
H1 N1 1_555 1_555
H2 N2 1_555 1_555
H3 C2 1_555 1_555
H4 C3 1_555 1_555
H5 C4 1_555 1_555
H6 C5 1_555 1_555
H8 C10 1_555 1_555
N3 C10 1_555 1_555
C2 C7 1_555 1_555
C6 C7 1_555 1_555

#END
