
#######################################################################
#
#                 Cambridge Crystallographic Data Centre
#                                CCDC 
#
#######################################################################
#
# If this CIF has been generated from an entry in the Cambridge 
# Structural Database, then it will include bibliographic, chemical, 
# crystal, experimental, refinement or atomic coordinate data resulting 
# from the CCDC's data processing and validation procedures.
#
#######################################################################

data_MODCIR
_chemical_formula_moiety         'C16 H15 N1 O2'
_chemical_name_systematic        
N-Acetyl-N-(1-(2-naphthalenyl)ethenyl)acetamide
_symmetry_cell_setting           orthorhombic
_symmetry_space_group_name_H-M   'P b c a'
_symmetry_Int_Tables_number      61
_space_group_name_Hall           '-P 2ac 2ab'
loop_
_symmetry_equiv_pos_site_id
_symmetry_equiv_pos_as_xyz
1 x,y,z
2 1/2-x,-y,1/2+z
3 -x,1/2+y,1/2-z
4 1/2+x,1/2-y,-z
5 -x,-y,-z
6 1/2+x,y,1/2-z
7 x,1/2-y,1/2+z
8 1/2-x,1/2+y,z
_cell_length_a                   8.9909(17)
_cell_length_b                   14.814(3)
_cell_length_c                   20.469(4)
_cell_angle_alpha                90
_cell_angle_beta                 90
_cell_angle_gamma                90
_cell_volume                     2726.29
_exptl_crystal_colour            colorless
_exptl_crystal_description       block
_cell_formula_units_Z            8
_exptl_crystal_recrystallization_method chloroform
loop_
_atom_site_label
_atom_site_type_symbol
_atom_site_fract_x
_atom_site_fract_y
_atom_site_fract_z
O1 O 0.4126(2) 0.19826(15) 0.17199(11)
O2 O 0.0942(3) 0.2506(2) 0.03685(13)
N1 N 0.2142(3) 0.27378(16) 0.13367(11)
C1 C 0.2332(3) 0.3340(2) 0.18906(14)
C2 C 0.1585(3) 0.3165(2) 0.24320(16)
H1 H 0.0958 0.2666 0.2451
H2 H 0.1687 0.3539 0.2794
C3 C 0.3378(3) 0.40974(19) 0.17951(14)
C4 C 0.3500(3) 0.4776(2) 0.22779(15)
H3 H 0.2897 0.4746 0.2646
C5 C 0.4469(3) 0.5468(2) 0.22179(16)
H4 H 0.4519 0.5906 0.2543
C6 C 0.5409(3) 0.5535(2) 0.16654(16)
C7 C 0.6458(4) 0.6239(2) 0.15865(19)
H5 H 0.6540 0.6684 0.1905
C8 C 0.7342(4) 0.6270(3) 0.1052(2)
H6 H 0.8022 0.6738 0.1006
C9 C 0.7245(4) 0.5610(3) 0.05718(18)
H7 H 0.7854 0.5642 0.0205
C10 C 0.6260(3) 0.4915(2) 0.06353(16)
H8 H 0.6215 0.4470 0.0316
C11 C 0.5313(3) 0.4867(2) 0.11799(14)
C12 C 0.4278(3) 0.4155(2) 0.12573(14)
H9 H 0.4207 0.3715 0.0934
C13 C 0.3178(4) 0.2018(2) 0.13022(16)
C14 C 0.3080(4) 0.1340(2) 0.07716(16)
H10 H 0.3814 0.0879 0.0841
H11 H 0.3256 0.1628 0.0359
H12 H 0.2107 0.1073 0.0771
C15 C 0.1037(4) 0.2921(3) 0.08655(19)
C16 C -0.0008(4) 0.3677(3) 0.10267(19)
H13 H -0.0673 0.3775 0.0666
H14 H 0.0551 0.4218 0.1108
H15 H -0.0572 0.3524 0.1409
loop_
_geom_bond_atom_site_label_1
_geom_bond_atom_site_label_2
_geom_bond_site_symmetry_1
_geom_bond_site_symmetry_2
O1 C13 1_555 1_555
O2 C15 1_555 1_555
N1 C1 1_555 1_555
C1 C2 1_555 1_555
C2 H1 1_555 1_555
H2 C2 1_555 1_555
C3 C1 1_555 1_555
C4 C3 1_555 1_555
H3 C4 1_555 1_555
C5 C4 1_555 1_555
H4 C5 1_555 1_555
C6 C5 1_555 1_555
C7 C6 1_555 1_555
H5 C7 1_555 1_555
C8 C7 1_555 1_555
H6 C8 1_555 1_555
C9 C8 1_555 1_555
H7 C9 1_555 1_555
C10 C9 1_555 1_555
H8 C10 1_555 1_555
C11 C6 1_555 1_555
C12 C3 1_555 1_555
H9 C12 1_555 1_555
C13 N1 1_555 1_555
C14 C13 1_555 1_555
H10 C14 1_555 1_555
H11 C14 1_555 1_555
H12 C14 1_555 1_555
C15 N1 1_555 1_555
C16 C15 1_555 1_555
H13 C16 1_555 1_555
H14 C16 1_555 1_555
H15 C16 1_555 1_555
C10 C11 1_555 1_555
C11 C12 1_555 1_555

#END
