
#######################################################################
#
#                 Cambridge Crystallographic Data Centre
#                                CCDC 
#
#######################################################################
#
# If this CIF has been generated from an entry in the Cambridge 
# Structural Database, then it will include bibliographic, chemical, 
# crystal, experimental, refinement or atomic coordinate data resulting 
# from the CCDC's data processing and validation procedures.
#
#######################################################################

data_MODCOZ
_chemical_formula_moiety         'C26 H21 N1 O5 S1'
_chemical_name_systematic        
3-(2-(4-Methoxyphenyl)-1-((2-(4-methoxyphenyl)-2-oxoethyl)sulfanyl)-2-oxoethylidene)-1,3-dihydro-2H-indol-2-one
_symmetry_cell_setting           triclinic
_symmetry_space_group_name_H-M   'P -1'
_symmetry_Int_Tables_number      2
_space_group_name_Hall           '-P 1'
loop_
_symmetry_equiv_pos_site_id
_symmetry_equiv_pos_as_xyz
1 x,y,z
2 -x,-y,-z
_cell_length_a                   12.2510(13)
_cell_length_b                   13.2850(14)
_cell_length_c                   15.9230(18)
_cell_angle_alpha                100.324(2)
_cell_angle_beta                 93.6660(10)
_cell_angle_gamma                117.3820(10)
_cell_volume                     2231.93
_cell_formula_units_Z            4
loop_
_atom_site_label
_atom_site_type_symbol
_atom_site_fract_x
_atom_site_fract_y
_atom_site_fract_z
N1 N 0.8509(4) 0.4015(4) 0.0057(3)
H1 H 0.9146 0.3985 -0.0117
O1 O 0.9443(4) 0.5986(3) 0.0684(3)
O2 O 0.8348(4) 0.6963(4) 0.2231(3)
O3 O 0.8414(5) 1.0009(4) -0.0431(4)
O4 O 0.3197(4) 0.4930(4) 0.1602(3)
O5 O 0.2739(4) 0.9427(4) 0.3123(3)
S1 S 0.53850(14) 0.49672(13) 0.12550(11)
C1 C 0.8532(6) 0.5000(6) 0.0486(4)
C2 C 0.7247(5) 0.4664(5) 0.0661(4)
C3 C 0.6495(6) 0.3414(5) 0.0260(4)
C4 C 0.7323(6) 0.3051(5) -0.0070(4)
C5 C 0.6973(6) 0.1919(5) -0.0471(4)
H2 H 0.7539 0.1702 -0.0689
C6 C 0.5725(6) 0.1115(5) -0.0533(4)
H3 H 0.5450 0.0337 -0.0798
C7 C 0.4883(6) 0.1433(5) -0.0215(4)
H4 H 0.4050 0.0876 -0.0278
C8 C 0.5269(5) 0.2578(5) 0.0196(4)
H5 H 0.4704 0.2785 0.0430
C9 C 0.6910(5) 0.5446(5) 0.1084(4)
C10 C 0.7868(6) 0.6707(5) 0.1476(5)
C11 C 0.8052(5) 0.7560(5) 0.0959(4)
C12 C 0.7702(5) 0.7214(5) 0.0074(4)
H6 H 0.7380 0.6429 -0.0194
C13 C 0.7809(5) 0.7982(6) -0.0430(4)
H7 H 0.7568 0.7727 -0.1028
C14 C 0.8289(6) 0.9156(7) -0.0020(6)
C15 C 0.8655(6) 0.9525(6) 0.0880(6)
H8 H 0.8972 1.0307 0.1153
C16 C 0.8545(6) 0.8737(6) 0.1353(5)
H9 H 0.8804 0.8990 0.1949
C17 C 0.8013(8) 0.9678(7) -0.1338(6)
H10 H 0.8498 0.9363 -0.1616
H11 H 0.8118 1.0348 -0.1545
H12 H 0.7148 0.9098 -0.1469
C18 C 0.5307(5) 0.6278(5) 0.1665(4)
H13 H 0.5886 0.6712 0.2204
H14 H 0.5534 0.6767 0.1252
C19 C 0.4004(6) 0.5958(6) 0.1814(4)
C20 C 0.3680(6) 0.6876(5) 0.2155(4)
C21 C 0.4580(6) 0.8044(6) 0.2464(4)
H15 H 0.5417 0.8265 0.2453
C22 C 0.4236(6) 0.8867(5) 0.2783(4)
H16 H 0.4840 0.9644 0.2989
C23 C 0.2980(7) 0.8539(6) 0.2800(4)
C24 C 0.2084(6) 0.7397(6) 0.2491(4)
H17 H 0.1245 0.7180 0.2488
C25 C 0.2445(6) 0.6573(6) 0.2185(4)
H18 H 0.1841 0.5794 0.1993
C26 C 0.1506(7) 0.9126(6) 0.3281(5)
H19 H 0.0953 0.8852 0.2740
H20 H 0.1501 0.9799 0.3617
H21 H 0.1235 0.8522 0.3594
N2 N 0.4048(5) 0.8520(5) 0.4887(3)
H22 H 0.4018 0.9152 0.5084
O6 O 0.6154(4) 0.9340(4) 0.4794(3)
O7 O 0.7171(4) 0.8002(3) 0.3534(3)
O8 O 1.0573(5) 0.8733(4) 0.6980(3)
O9 O 0.4818(5) 0.3244(4) 0.3198(4)
O10 O 0.8838(4) 0.2326(4) 0.1469(3)
S2 S 0.50118(16) 0.53470(13) 0.38526(12)
C27 C 0.5108(7) 0.8485(6) 0.4733(4)
C28 C 0.4740(6) 0.7214(5) 0.4444(4)
C29 C 0.3404(6) 0.6591(6) 0.4417(4)
C30 C 0.3011(7) 0.7406(6) 0.4687(4)
C31 C 0.1787(7) 0.7116(6) 0.4701(4)
H23 H 0.1548 0.7678 0.4889
C32 C 0.0928(7) 0.5953(8) 0.4424(5)
H24 H 0.0087 0.5728 0.4413
C33 C 0.1268(7) 0.5125(6) 0.4166(4)
H25 H 0.0657 0.4347 0.3988
C34 C 0.2514(6) 0.5416(6) 0.4163(4)
H26 H 0.2746 0.4843 0.3996
C35 C 0.5543(6) 0.6833(5) 0.4203(4)
C36 C 0.6903(6) 0.7655(5) 0.4184(4)
C37 C 0.7853(6) 0.7906(5) 0.4918(4)
C38 C 0.9107(6) 0.8490(5) 0.4832(4)
H27 H 0.9321 0.8694 0.4314
C39 C 1.0033(6) 0.8767(5) 0.5514(5)
H28 H 1.0866 0.9153 0.5449
C40 C 0.9737(7) 0.8478(6) 0.6277(5)
C41 C 0.8491(7) 0.7887(5) 0.6368(4)
H29 H 0.8284 0.7684 0.6887
C42 C 0.7565(6) 0.7600(5) 0.5694(5)
H30 H 0.6735 0.7196 0.5759
C43 C 1.1856(7) 0.9329(6) 0.6921(5)
H31 H 1.2043 0.8851 0.6492
H32 H 1.2347 0.9493 0.7472
H33 H 1.2047 1.0048 0.6759
C44 C 0.6347(5) 0.5197(5) 0.3600(4)
H34 H 0.6760 0.5688 0.3212
H35 H 0.6937 0.5428 0.4124
C45 C 0.5879(6) 0.3928(5) 0.3170(5)
C46 C 0.6709(6) 0.3564(5) 0.2754(4)
C47 C 0.6227(6) 0.2385(5) 0.2333(4)
H36 H 0.5404 0.1849 0.2336
C48 C 0.6980(6) 0.2034(5) 0.1919(4)
H37 H 0.6658 0.1253 0.1643
C49 C 0.8198(6) 0.2801(6) 0.1898(4)
C50 C 0.8699(6) 0.3967(5) 0.2312(4)
H38 H 0.9526 0.4496 0.2312
C51 C 0.7936(6) 0.4321(5) 0.2724(4)
H39 H 0.8261 0.5105 0.2995
C52 C 1.0114(6) 0.3054(6) 0.1450(5)
H40 H 1.0196 0.3659 0.1167
H41 H 1.0446 0.2598 0.1139
H42 H 1.0565 0.3397 0.2031
loop_
_geom_bond_atom_site_label_1
_geom_bond_atom_site_label_2
_geom_bond_site_symmetry_1
_geom_bond_site_symmetry_2
N1 H1 1_555 1_555
O1 C1 1_555 1_555
O2 C10 1_555 1_555
O3 C14 1_555 1_555
O4 C19 1_555 1_555
O5 C23 1_555 1_555
S1 C9 1_555 1_555
C1 N1 1_555 1_555
C2 C1 1_555 1_555
C3 C2 1_555 1_555
C4 N1 1_555 1_555
C5 C4 1_555 1_555
H2 C5 1_555 1_555
C6 C5 1_555 1_555
H3 C6 1_555 1_555
C7 C6 1_555 1_555
H4 C7 1_555 1_555
C8 C3 1_555 1_555
H5 C8 1_555 1_555
C9 C2 1_555 1_555
C10 C9 1_555 1_555
C11 C10 1_555 1_555
C12 C11 1_555 1_555
H6 C12 1_555 1_555
C13 C12 1_555 1_555
H7 C13 1_555 1_555
C14 C13 1_555 1_555
C15 C14 1_555 1_555
H8 C15 1_555 1_555
C16 C11 1_555 1_555
H9 C16 1_555 1_555
C17 O3 1_555 1_555
H10 C17 1_555 1_555
H11 C17 1_555 1_555
H12 C17 1_555 1_555
C18 S1 1_555 1_555
H13 C18 1_555 1_555
H14 C18 1_555 1_555
C19 C18 1_555 1_555
C20 C19 1_555 1_555
C21 C20 1_555 1_555
H15 C21 1_555 1_555
C22 C21 1_555 1_555
H16 C22 1_555 1_555
C23 C22 1_555 1_555
C24 C23 1_555 1_555
H17 C24 1_555 1_555
C25 C20 1_555 1_555
H18 C25 1_555 1_555
C26 O5 1_555 1_555
H19 C26 1_555 1_555
H20 C26 1_555 1_555
H21 C26 1_555 1_555
N2 H22 1_555 1_555
O6 C27 1_555 1_555
O7 C36 1_555 1_555
O8 C40 1_555 1_555
O9 C45 1_555 1_555
O10 C49 1_555 1_555
S2 C35 1_555 1_555
C27 N2 1_555 1_555
C28 C27 1_555 1_555
C29 C28 1_555 1_555
C30 N2 1_555 1_555
C31 C30 1_555 1_555
H23 C31 1_555 1_555
C32 C31 1_555 1_555
H24 C32 1_555 1_555
C33 C32 1_555 1_555
H25 C33 1_555 1_555
C34 C29 1_555 1_555
H26 C34 1_555 1_555
C35 C28 1_555 1_555
C36 C35 1_555 1_555
C37 C36 1_555 1_555
C38 C37 1_555 1_555
H27 C38 1_555 1_555
C39 C38 1_555 1_555
H28 C39 1_555 1_555
C40 C39 1_555 1_555
C41 C40 1_555 1_555
H29 C41 1_555 1_555
C42 C37 1_555 1_555
H30 C42 1_555 1_555
C43 O8 1_555 1_555
H31 C43 1_555 1_555
H32 C43 1_555 1_555
H33 C43 1_555 1_555
C44 S2 1_555 1_555
H34 C44 1_555 1_555
H35 C44 1_555 1_555
C45 C44 1_555 1_555
C46 C45 1_555 1_555
C47 C46 1_555 1_555
H36 C47 1_555 1_555
C48 C47 1_555 1_555
H37 C48 1_555 1_555
C49 C48 1_555 1_555
C50 C49 1_555 1_555
H38 C50 1_555 1_555
C51 C46 1_555 1_555
H39 C51 1_555 1_555
C52 O10 1_555 1_555
H40 C52 1_555 1_555
H41 C52 1_555 1_555
H42 C52 1_555 1_555
C3 C4 1_555 1_555
C7 C8 1_555 1_555
C15 C16 1_555 1_555
C24 C25 1_555 1_555
C29 C30 1_555 1_555
C33 C34 1_555 1_555
C41 C42 1_555 1_555
C50 C51 1_555 1_555

#END
