
#######################################################################
#
#                 Cambridge Crystallographic Data Centre
#                                CCDC 
#
#######################################################################
#
# If this CIF has been generated from an entry in the Cambridge 
# Structural Database, then it will include bibliographic, chemical, 
# crystal, experimental, refinement or atomic coordinate data resulting 
# from the CCDC's data processing and validation procedures.
#
#######################################################################

data_MODDUG01
_chemical_formula_moiety         'C38 H38 N2 O6'
_chemical_name_systematic        
2,7-bis[4-(hexyloxy)phenyl]benzo[lmn][3,8]phenanthroline-1,3,6,8(2H,7H)-tetrone
_symmetry_cell_setting           triclinic
_symmetry_space_group_name_H-M   'P -1'
_symmetry_Int_Tables_number      2
_space_group_name_Hall           '-P 1'
loop_
_symmetry_equiv_pos_site_id
_symmetry_equiv_pos_as_xyz
1 x,y,z
2 -x,-y,-z
_cell_length_a                   8.395(3)
_cell_length_b                   8.853(3)
_cell_length_c                   23.938(9)
_cell_angle_alpha                89.528(11)
_cell_angle_beta                 80.712(14)
_cell_angle_gamma                62.60(2)
_cell_volume                     1554.37
_exptl_crystal_colour            orange
_cell_formula_units_Z            2
loop_
_atom_site_label
_atom_site_type_symbol
_atom_site_fract_x
_atom_site_fract_y
_atom_site_fract_z
O1 O 0.81294(18) 1.10125(16) 0.42744(5)
O2 O 1.06713(18) 0.55100(17) 0.35410(6)
O3 O 0.56933(19) 0.37623(17) 0.58946(6)
O4 O 0.43821(18) 0.88089(17) 0.67888(5)
O5 O 1.29536(18) 0.98794(18) 0.19960(5)
O6 O 0.15220(18) 0.43451(17) 0.81625(6)
N1 N 0.9339(2) 0.8289(2) 0.38892(6)
N2 N 0.5030(2) 0.62837(19) 0.63428(6)
C1 C 0.8341(2) 0.9566(2) 0.43271(8)
C2 C 0.9636(2) 0.6589(2) 0.39127(8)
C3 C 0.8632(2) 0.6213(2) 0.44169(8)
C4 C 0.8670(3) 0.4645(2) 0.44424(8)
H1 H 0.9331 0.3804 0.4134
C5 C 0.7735(2) 0.4279(2) 0.49222(8)
H2 H 0.7734 0.3206 0.4930
C6 C 0.6823(2) 0.5459(2) 0.53799(8)
C7 C 0.5824(2) 0.5076(2) 0.58814(8)
C8 C 0.5050(2) 0.7852(2) 0.63644(8)
C9 C 0.5914(2) 0.8271(2) 0.58365(8)
C10 C 0.5825(2) 0.9863(2) 0.58053(8)
H3 H 0.5218 1.0683 0.6121
C11 C 0.6630(2) 1.0272(2) 0.53070(8)
H4 H 0.6535 1.1382 0.5284
C12 C 0.7550(2) 0.9092(2) 0.48548(8)
C13 C 0.7674(2) 0.7452(2) 0.48753(8)
C14 C 0.6808(2) 0.7054(2) 0.53705(8)
C15 C 1.0263(2) 0.8710(2) 0.33958(8)
C16 C 1.1510(3) 0.9260(2) 0.34720(8)
H5 H 1.1758 0.9329 0.3842
C17 C 1.2408(3) 0.9713(2) 0.30171(8)
H6 H 1.3238 1.0124 0.3075
C18 C 1.2076(2) 0.9557(2) 0.24771(8)
C19 C 1.0807(2) 0.9010(2) 0.24030(8)
H7 H 1.0577 0.8911 0.2033
C20 C 0.9879(3) 0.8611(2) 0.28619(8)
H8 H 0.8987 0.8273 0.2811
C21 C 1.4310(3) 1.0388(3) 0.20701(8)
H9 H 1.5191 0.9551 0.2287
H10 H 1.3721 1.1516 0.2286
C22 C 1.5289(3) 1.0485(3) 0.14970(8)
H11 H 1.4390 1.1241 0.1268
H12 H 1.5962 0.9334 0.1295
C23 C 1.6618(3) 1.1172(3) 0.15613(8)
H13 H 1.7423 1.0480 0.1825
H14 H 1.5919 1.2358 0.1735
C24 C 1.7798(3) 1.1156(3) 0.10033(8)
H15 H 1.8531 0.9967 0.0835
H16 H 1.6998 1.1824 0.0735
C25 C 1.9073(3) 1.1895(3) 0.10786(9)
H17 H 1.9872 1.1225 0.1347
H18 H 1.8339 1.3082 0.1249
C26 C 2.0257(3) 1.1891(3) 0.05242(10)
H19 H 2.0990 1.0720 0.0353
H20 H 2.1066 1.2355 0.0600
H21 H 1.9477 1.2596 0.0263
C27 C 0.4070(2) 0.5884(2) 0.68367(8)
C28 C 0.5061(3) 0.4758(2) 0.72016(8)
H22 H 0.6347 0.4313 0.7148
C29 C 0.4151(3) 0.4290(2) 0.76449(8)
H23 H 0.4813 0.3519 0.7900
C30 C 0.2273(3) 0.4943(2) 0.77183(8)
C31 C 0.1289(3) 0.6104(2) 0.73607(8)
H24 H -0.0001 0.6577 0.7419
C32 C 0.2209(3) 0.6572(2) 0.69151(8)
H25 H 0.1550 0.7368 0.6665
C33 C -0.0396(3) 0.4933(3) 0.82481(9)
H26 H -0.0751 0.4696 0.7897
H27 H -0.1055 0.6179 0.8348
C34 C -0.0866(3) 0.4002(3) 0.87253(8)
H28 H -0.0639 0.4357 0.9083
H29 H -0.0062 0.2760 0.8645
C35 C -0.2840(3) 0.4358(3) 0.88009(9)
H30 H -0.3097 0.4126 0.8430
H31 H -0.3638 0.5582 0.8920
C36 C -0.3317(3) 0.3298(3) 0.92352(9)
H32 H -0.2508 0.2073 0.9119
H33 H -0.3079 0.3542 0.9607
C37 C -0.5281(3) 0.3640(3) 0.93026(9)
H34 H -0.5511 0.3372 0.8932
H35 H -0.6090 0.4869 0.9411
C38 C -0.5770(3) 0.2612(3) 0.97441(10)
H36 H -0.4962 0.1392 0.9645
H37 H -0.7038 0.2852 0.9755
H38 H -0.5628 0.2927 1.0117
loop_
_geom_bond_atom_site_label_1
_geom_bond_atom_site_label_2
_geom_bond_site_symmetry_1
_geom_bond_site_symmetry_2
O1 C1 1_555 1_555
O2 C2 1_555 1_555
O3 C7 1_555 1_555
O4 C8 1_555 1_555
O5 C18 1_555 1_555
O6 C30 1_555 1_555
N1 C1 1_555 1_555
N2 C7 1_555 1_555
C1 C12 1_555 1_555
C2 N1 1_555 1_555
C3 C2 1_555 1_555
C4 C3 1_555 1_555
H1 C4 1_555 1_555
C5 C4 1_555 1_555
H2 C5 1_555 1_555
C6 C5 1_555 1_555
C7 C6 1_555 1_555
C8 N2 1_555 1_555
C9 C8 1_555 1_555
C10 C9 1_555 1_555
H3 C10 1_555 1_555
C11 C10 1_555 1_555
H4 C11 1_555 1_555
C12 C11 1_555 1_555
C13 C3 1_555 1_555
C14 C6 1_555 1_555
C15 N1 1_555 1_555
C16 C15 1_555 1_555
H5 C16 1_555 1_555
C17 C16 1_555 1_555
H6 C17 1_555 1_555
C18 C17 1_555 1_555
C19 C18 1_555 1_555
H7 C19 1_555 1_555
C20 C15 1_555 1_555
H8 C20 1_555 1_555
C21 O5 1_555 1_555
H9 C21 1_555 1_555
H10 C21 1_555 1_555
C22 C21 1_555 1_555
H11 C22 1_555 1_555
H12 C22 1_555 1_555
C23 C22 1_555 1_555
H13 C23 1_555 1_555
H14 C23 1_555 1_555
C24 C23 1_555 1_555
H15 C24 1_555 1_555
H16 C24 1_555 1_555
C25 C24 1_555 1_555
H17 C25 1_555 1_555
H18 C25 1_555 1_555
C26 C25 1_555 1_555
H19 C26 1_555 1_555
H20 C26 1_555 1_555
H21 C26 1_555 1_555
C27 N2 1_555 1_555
C28 C27 1_555 1_555
H22 C28 1_555 1_555
C29 C28 1_555 1_555
H23 C29 1_555 1_555
C30 C29 1_555 1_555
C31 C30 1_555 1_555
H24 C31 1_555 1_555
C32 C27 1_555 1_555
H25 C32 1_555 1_555
C33 O6 1_555 1_555
H26 C33 1_555 1_555
H27 C33 1_555 1_555
C34 C33 1_555 1_555
H28 C34 1_555 1_555
H29 C34 1_555 1_555
C35 C34 1_555 1_555
H30 C35 1_555 1_555
H31 C35 1_555 1_555
C36 C35 1_555 1_555
H32 C36 1_555 1_555
H33 C36 1_555 1_555
C37 C36 1_555 1_555
H34 C37 1_555 1_555
H35 C37 1_555 1_555
C38 C37 1_555 1_555
H36 C38 1_555 1_555
H37 C38 1_555 1_555
H38 C38 1_555 1_555
C9 C14 1_555 1_555
C12 C13 1_555 1_555
C13 C14 1_555 1_555
C19 C20 1_555 1_555
C31 C32 1_555 1_555

#END
