
#######################################################################
#
#                 Cambridge Crystallographic Data Centre
#                                CCDC 
#
#######################################################################
#
# If this CIF has been generated from an entry in the Cambridge 
# Structural Database, then it will include bibliographic, chemical, 
# crystal, experimental, refinement or atomic coordinate data resulting 
# from the CCDC's data processing and validation procedures.
#
#######################################################################

data_MODDEO
_chemical_formula_moiety         'C14 H19 N1 O10'
_chemical_name_systematic        
1,2,3,4-Tetra-O-acetyl-\a-D-glucopyranuronamide
_symmetry_cell_setting           orthorhombic
_symmetry_space_group_name_H-M   'P 21 21 21'
_symmetry_Int_Tables_number      19
_space_group_name_Hall           'P 2ac 2ab'
loop_
_symmetry_equiv_pos_site_id
_symmetry_equiv_pos_as_xyz
1 x,y,z
2 1/2-x,-y,1/2+z
3 -x,1/2+y,1/2-z
4 1/2+x,1/2-y,-z
_cell_length_a                   5.5811(2)
_cell_length_b                   16.9550(6)
_cell_length_c                   17.7323(6)
_cell_angle_alpha                90
_cell_angle_beta                 90
_cell_angle_gamma                90
_cell_volume                     1677.96
_exptl_crystal_colour            colorless
_exptl_crystal_description       block
_chemical_melting_point          365-366K
_cell_formula_units_Z            4
loop_
_atom_site_label
_atom_site_type_symbol
_atom_site_fract_x
_atom_site_fract_y
_atom_site_fract_z
O1 O 0.0564(3) 1.04864(8) 0.14352(8)
C1 C 0.1298(4) 0.98603(12) 0.19046(11)
H1 H -0.0111 0.9664 0.2198
O2 O 0.3096(3) 1.01304(9) 0.24170(8)
C2 C 0.2257(4) 1.05514(13) 0.30218(12)
O3 O 0.0160(3) 1.06349(10) 0.31475(9)
C3 C 0.4264(5) 1.08823(15) 0.34718(13)
H2 H 0.3804 1.0902 0.4005
H3 H 0.4630 1.1416 0.3294
H4 H 0.5683 1.0547 0.3413
C4 C 0.2334(4) 0.91835(12) 0.14366(11)
H5 H 0.0988 0.8900 0.1181
O4 O 0.3600(3) 0.86324(9) 0.19146(8)
C5 C 0.2227(5) 0.80986(13) 0.22860(12)
O5 O 0.0088(3) 0.80580(11) 0.22082(9)
C6 C 0.3728(5) 0.76043(14) 0.28026(13)
H6 H 0.3062 0.7070 0.2829
H7 H 0.3734 0.7839 0.3308
H8 H 0.5372 0.7580 0.2610
C7 C 0.4123(4) 0.94516(12) 0.08413(11)
H9 H 0.5723 0.9555 0.1075
O6 O 0.4277(3) 0.88084(8) 0.03011(8)
C8 C 0.6455(4) 0.86169(12) 0.00183(11)
O7 O 0.8293(3) 0.89291(10) 0.02056(9)
C9 C 0.6241(5) 0.79711(13) -0.05536(12)
H10 H 0.5521 0.7505 -0.0318
H11 H 0.7835 0.7837 -0.0746
H12 H 0.5225 0.8149 -0.0971
C10 C 0.3236(4) 1.01771(11) 0.04228(11)
H13 H 0.1838 1.0037 0.0097
O8 O 0.5189(3) 1.04521(8) -0.00333(7)
C11 C 0.4614(4) 1.07868(13) -0.07107(11)
O9 O 0.2600(3) 1.08249(9) -0.09427(8)
C12 C 0.6795(4) 1.10887(14) -0.11025(12)
H14 H 0.7023 1.1647 -0.0979
H15 H 0.6597 1.1030 -0.1649
H16 H 0.8198 1.0787 -0.0937
C13 C 0.2503(4) 1.08038(12) 0.10023(11)
H17 H 0.3889 1.0909 0.1346
C14 C 0.1751(4) 1.15714(12) 0.06316(12)
N1 N -0.0594(4) 1.16937(12) 0.05512(11)
H18 H -0.169(5) 1.1319(17) 0.0703(16)
H19 H -0.116(5) 1.2086(19) 0.0295(17)
O10 O 0.3343(3) 1.20229(9) 0.04220(9)
loop_
_geom_bond_atom_site_label_1
_geom_bond_atom_site_label_2
_geom_bond_site_symmetry_1
_geom_bond_site_symmetry_2
O1 C1 1_555 1_555
C1 H1 1_555 1_555
O2 C1 1_555 1_555
C2 O2 1_555 1_555
O3 C2 1_555 1_555
C3 C2 1_555 1_555
H2 C3 1_555 1_555
H3 C3 1_555 1_555
H4 C3 1_555 1_555
C4 C1 1_555 1_555
H5 C4 1_555 1_555
O4 C4 1_555 1_555
C5 O4 1_555 1_555
O5 C5 1_555 1_555
C6 C5 1_555 1_555
H6 C6 1_555 1_555
H7 C6 1_555 1_555
H8 C6 1_555 1_555
C7 C4 1_555 1_555
H9 C7 1_555 1_555
O6 C7 1_555 1_555
C8 O6 1_555 1_555
O7 C8 1_555 1_555
C9 C8 1_555 1_555
H10 C9 1_555 1_555
H11 C9 1_555 1_555
H12 C9 1_555 1_555
C10 C7 1_555 1_555
H13 C10 1_555 1_555
O8 C10 1_555 1_555
C11 O8 1_555 1_555
O9 C11 1_555 1_555
C12 C11 1_555 1_555
H14 C12 1_555 1_555
H15 C12 1_555 1_555
H16 C12 1_555 1_555
C13 O1 1_555 1_555
H17 C13 1_555 1_555
C14 C13 1_555 1_555
N1 C14 1_555 1_555
H18 N1 1_555 1_555
H19 N1 1_555 1_555
O10 C14 1_555 1_555
C10 C13 1_555 1_555

#END
