
#######################################################################
#
#                 Cambridge Crystallographic Data Centre
#                                CCDC 
#
#######################################################################
#
# If this CIF has been generated from an entry in the Cambridge 
# Structural Database, then it will include bibliographic, chemical, 
# crystal, experimental, refinement or atomic coordinate data resulting 
# from the CCDC's data processing and validation procedures.
#
#######################################################################

data_MODFOC
_chemical_formula_moiety         'C20 H16 F3 N1 O2'
_chemical_name_systematic        
1-(2-Methyl-4-phenyl-1-(4-(trifluoromethoxy)phenyl)-1H-pyrrol-3-yl)ethanone
_symmetry_cell_setting           monoclinic
_symmetry_space_group_name_H-M   'C 2/c'
_symmetry_Int_Tables_number      15
_space_group_name_Hall           '-C 2yn'
loop_
_symmetry_equiv_pos_site_id
_symmetry_equiv_pos_as_xyz
1 x,y,z
2 -x,y,1/2-z
3 1/2+x,1/2+y,z
4 1/2-x,1/2+y,1/2-z
5 -x,-y,-z
6 x,-y,1/2+z
7 1/2-x,1/2-y,-z
8 1/2+x,1/2-y,1/2+z
_cell_length_a                   27.553(3)
_cell_length_b                   7.7658(8)
_cell_length_c                   17.6413(18)
_cell_angle_alpha                90
_cell_angle_beta                 110.441(2)
_cell_angle_gamma                90
_cell_volume                     3537.04
_exptl_crystal_colour            colorless
_exptl_crystal_description       block
_chemical_melting_point          '382-383 K'
_cell_formula_units_Z            8
loop_
_atom_site_label
_atom_site_type_symbol
_atom_site_fract_x
_atom_site_fract_y
_atom_site_fract_z
N1 N 0.04410(7) 0.7914(2) 0.17979(11)
C1 C 0.03402(9) 0.9649(3) 0.17508(13)
C2 C -0.01368(9) 0.9893(3) 0.11485(13)
C3 C -0.03328(8) 0.8219(3) 0.08356(14)
C4 C 0.00299(8) 0.7057(3) 0.12480(13)
H1 H 0.0005 0.5870 0.1172
C5 C -0.08381(9) 0.7723(3) 0.02314(14)
C6 C -0.08576(12) 0.6760(4) -0.04388(18)
H2 H -0.0552 0.6478 -0.0523
C7 C -0.13257(15) 0.6217(5) -0.0982(2)
H3 H -0.1332 0.5572 -0.1429
C8 C -0.17746(15) 0.6604(5) -0.0875(3)
H4 H -0.2088 0.6219 -0.1243
C9 C -0.17638(12) 0.7573(6) -0.0217(2)
H5 H -0.2072 0.7858 -0.0144
C10 C -0.12968(10) 0.8129(4) 0.03373(17)
H6 H -0.1293 0.8778 0.0782
C11 C -0.03585(10) 1.1592(3) 0.08703(16)
C12 C -0.07592(12) 1.1783(4) 0.00482(18)
H7 H -0.0753 1.2939 -0.0141
H8 H -0.1095 1.1543 0.0074
H9 H -0.0688 1.0990 -0.0317
C13 C 0.07033(11) 1.0919(3) 0.22904(16)
H10 H 0.0923 1.0348 0.2770
H11 H 0.0509 1.1804 0.2437
H12 H 0.0912 1.1425 0.2013
C14 C 0.08881(8) 0.7049(3) 0.23300(13)
C15 C 0.13798(9) 0.7545(3) 0.23820(16)
H13 H 0.1424 0.8457 0.2071
C16 C 0.18066(9) 0.6681(4) 0.28982(17)
H14 H 0.2140 0.7012 0.2941
C17 C 0.17323(9) 0.5333(3) 0.33438(15)
C18 C 0.12486(9) 0.4813(3) 0.32970(15)
H15 H 0.1206 0.3890 0.3604
C19 C 0.08256(8) 0.5681(3) 0.27865(14)
H16 H 0.0494 0.5343 0.2749
C20 C 0.23575(19) 0.3187(8) 0.3708(3)
O1 O -0.02091(9) 1.2876(2) 0.12882(13)
O2 O 0.21719(7) 0.4533(3) 0.39076(12)
F1 F 0.20562(17) 0.1980(5) 0.3457(5)
F2 F 0.2491(2) 0.3532(10) 0.3091(3)
F3 F 0.27725(10) 0.2654(4) 0.42424(19)
loop_
_geom_bond_atom_site_label_1
_geom_bond_atom_site_label_2
_geom_bond_site_symmetry_1
_geom_bond_site_symmetry_2
N1 C1 1_555 1_555
C1 C2 1_555 1_555
C2 C3 1_555 1_555
C3 C4 1_555 1_555
C4 N1 1_555 1_555
H1 C4 1_555 1_555
C5 C3 1_555 1_555
C6 C5 1_555 1_555
H2 C6 1_555 1_555
C7 C6 1_555 1_555
H3 C7 1_555 1_555
C8 C7 1_555 1_555
H4 C8 1_555 1_555
C9 C8 1_555 1_555
H5 C9 1_555 1_555
C10 C5 1_555 1_555
H6 C10 1_555 1_555
C11 C2 1_555 1_555
C12 C11 1_555 1_555
H7 C12 1_555 1_555
H8 C12 1_555 1_555
H9 C12 1_555 1_555
C13 C1 1_555 1_555
H10 C13 1_555 1_555
H11 C13 1_555 1_555
H12 C13 1_555 1_555
C14 N1 1_555 1_555
C15 C14 1_555 1_555
H13 C15 1_555 1_555
C16 C15 1_555 1_555
H14 C16 1_555 1_555
C17 C16 1_555 1_555
C18 C17 1_555 1_555
H15 C18 1_555 1_555
C19 C14 1_555 1_555
H16 C19 1_555 1_555
C20 O2 1_555 1_555
O1 C11 1_555 1_555
O2 C17 1_555 1_555
F1 C20 1_555 1_555
F2 C20 1_555 1_555
F3 C20 1_555 1_555
C9 C10 1_555 1_555
C18 C19 1_555 1_555

#END
