
#######################################################################
#
#                 Cambridge Crystallographic Data Centre
#                                CCDC 
#
#######################################################################
#
# If this CIF has been generated from an entry in the Cambridge 
# Structural Database, then it will include bibliographic, chemical, 
# crystal, experimental, refinement or atomic coordinate data resulting 
# from the CCDC's data processing and validation procedures.
#
#######################################################################

data_MODFAO03
_chemical_formula_moiety         'C42 H46 N2 O6'
_chemical_name_systematic        
2,7-bis[4-(octyloxy)phenyl]benzo[lmn][3,8]phenanthroline-1,3,6,8(2H,7H)-tetrone
_symmetry_cell_setting           triclinic
_symmetry_space_group_name_H-M   'P -1'
_symmetry_Int_Tables_number      2
_space_group_name_Hall           '-P 1'
loop_
_symmetry_equiv_pos_site_id
_symmetry_equiv_pos_as_xyz
1 x,y,z
2 -x,-y,-z
_cell_length_a                   4.1680(14)
_cell_length_b                   8.217(3)
_cell_length_c                   24.901(7)
_cell_angle_alpha                97.810(10)
_cell_angle_beta                 93.453(7)
_cell_angle_gamma                93.834(6)
_cell_volume                     840.944
_exptl_crystal_colour            orange
_cell_formula_units_Z            1
loop_
_atom_site_label
_atom_site_type_symbol
_atom_site_fract_x
_atom_site_fract_y
_atom_site_fract_z
N1 N 0.3172(3) 0.79069(17) 0.11031(6)
O1 O -0.0659(3) 0.62524(15) 0.05532(5)
O2 O 0.6173(3) 0.99164(15) 0.16805(5)
O3 O 0.1250(3) 0.38285(15) 0.26956(5)
C1 C 0.1463(4) 0.7358(2) 0.06004(7)
C2 C 0.5139(4) 0.9376(2) 0.12191(7)
C3 C 0.5931(4) 1.0235(2) 0.07493(7)
C4 C 0.8042(4) 1.1622(2) 0.08281(7)
H1 H 0.8919 1.2053 0.1184
C5 C 0.8905(4) 1.2401(2) 0.03824(7)
H2 H 1.0390 1.3347 0.0439
C6 C 0.7617(4) 1.1807(2) -0.01327(7)
C7 C 0.5411(4) 1.0397(2) -0.02233(7)
C8 C 0.2780(4) 0.6867(2) 0.15280(7)
C9 C 0.3962(4) 0.5333(2) 0.14582(7)
H3 H 0.5078 0.4997 0.1145
C10 C 0.3537(4) 0.4271(2) 0.18422(7)
H4 H 0.4343 0.3210 0.1793
C11 C 0.1913(4) 0.4784(2) 0.23006(7)
C12 C 0.0822(4) 0.6355(2) 0.23752(7)
H5 H -0.0218 0.6716 0.2695
C13 C 0.1232(4) 0.7396(2) 0.19900(7)
H6 H 0.0462 0.8464 0.2041
C14 C 0.2562(4) 0.2248(2) 0.26557(7)
H7 H 0.4937 0.2379 0.2650
H8 H 0.1684 0.1547 0.2317
C15 C 0.1629(4) 0.1457(2) 0.31469(7)
H9 H 0.2601 0.0388 0.3136
H10 H -0.0742 0.1235 0.3126
C16 C 0.2705(4) 0.2521(2) 0.36849(7)
H11 H 0.1656 0.3571 0.3701
H12 H 0.5063 0.2786 0.3697
C17 C 0.1918(4) 0.1714(2) 0.41845(7)
H13 H -0.0433 0.1426 0.4171
H14 H 0.3019 0.0681 0.4177
C18 C 0.2956(4) 0.2835(2) 0.47132(7)
H15 H 0.1836 0.3862 0.4717
H16 H 0.5297 0.3139 0.4718
C19 C 0.2294(4) 0.2107(2) 0.52303(7)
H17 H -0.0052 0.1832 0.5236
H18 H 0.3387 0.1074 0.5230
C20 C 0.3462(5) 0.3291(2) 0.57398(7)
H19 H 0.5802 0.3572 0.5728
H20 H 0.2361 0.4320 0.5737
C21 C 0.2880(5) 0.2622(3) 0.62691(7)
H21 H 0.0557 0.2424 0.6299
H22 H 0.3797 0.3425 0.6576
H23 H 0.3912 0.1585 0.6273
N1A N 0.6828(3) 1.20931(17) -0.11031(6)
O1A O 1.0659(3) 1.37476(15) -0.05532(5)
O2A O 0.3827(3) 1.00836(15) -0.16805(5)
O3A O 0.8750(3) 1.61715(15) -0.26956(5)
C1A C 0.8537(4) 1.2642(2) -0.06004(7)
C2A C 0.4861(4) 1.0624(2) -0.12191(7)
C3A C 0.4069(4) 0.9765(2) -0.07493(7)
C4A C 0.1958(4) 0.8378(2) -0.08281(7)
H1A H 0.1081 0.7947 -0.1184
C5A C 0.1095(4) 0.7599(2) -0.03824(7)
H2A H -0.0390 0.6653 -0.0439
C6A C 0.2383(4) 0.8193(2) 0.01327(7)
C7A C 0.4589(4) 0.9603(2) 0.02233(7)
C8A C 0.7220(4) 1.3133(2) -0.15280(7)
C9A C 0.6038(4) 1.4667(2) -0.14582(7)
H3A H 0.4922 1.5003 -0.1145
C10A C 0.6463(4) 1.5729(2) -0.18422(7)
H4A H 0.5657 1.6790 -0.1793
C11A C 0.8087(4) 1.5216(2) -0.23006(7)
C12A C 0.9178(4) 1.3645(2) -0.23752(7)
H5A H 1.0218 1.3284 -0.2695
C13A C 0.8768(4) 1.2604(2) -0.19900(7)
H6A H 0.9538 1.1536 -0.2041
C14A C 0.7438(4) 1.7752(2) -0.26557(7)
H7A H 0.5063 1.7621 -0.2650
H8A H 0.8316 1.8453 -0.2317
C15A C 0.8371(4) 1.8543(2) -0.31469(7)
H9A H 0.7399 1.9612 -0.3136
H10A H 1.0742 1.8765 -0.3126
C16A C 0.7295(4) 1.7479(2) -0.36849(7)
H11A H 0.8344 1.6429 -0.3701
H12A H 0.4937 1.7214 -0.3697
C17A C 0.8082(4) 1.8286(2) -0.41845(7)
H13A H 1.0433 1.8574 -0.4171
H14A H 0.6981 1.9319 -0.4177
C18A C 0.7044(4) 1.7165(2) -0.47132(7)
H15A H 0.8164 1.6138 -0.4717
H16A H 0.4703 1.6861 -0.4718
C19A C 0.7706(4) 1.7893(2) -0.52303(7)
H17A H 1.0052 1.8168 -0.5236
H18A H 0.6613 1.8926 -0.5230
C20A C 0.6538(5) 1.6709(2) -0.57398(7)
H19A H 0.4198 1.6428 -0.5728
H20A H 0.7639 1.5680 -0.5737
C21A C 0.7120(5) 1.7378(3) -0.62691(7)
H21A H 0.9443 1.7576 -0.6299
H22A H 0.6203 1.6575 -0.6576
H23A H 0.6088 1.8415 -0.6273
loop_
_geom_bond_atom_site_label_1
_geom_bond_atom_site_label_2
_geom_bond_site_symmetry_1
_geom_bond_site_symmetry_2
N1 C1 1_555 1_555
O1 C1 1_555 1_555
O2 C2 1_555 1_555
O3 C11 1_555 1_555
C1 C6A 1_555 1_555
C2 N1 1_555 1_555
C3 C2 1_555 1_555
C4 C3 1_555 1_555
H1 C4 1_555 1_555
C5 C4 1_555 1_555
H2 C5 1_555 1_555
C6 C5 1_555 1_555
C7 C6 1_555 1_555
C8 N1 1_555 1_555
C9 C8 1_555 1_555
H3 C9 1_555 1_555
C10 C9 1_555 1_555
H4 C10 1_555 1_555
C11 C10 1_555 1_555
C12 C11 1_555 1_555
H5 C12 1_555 1_555
C13 C8 1_555 1_555
H6 C13 1_555 1_555
C14 O3 1_555 1_555
H7 C14 1_555 1_555
H8 C14 1_555 1_555
C15 C14 1_555 1_555
H9 C15 1_555 1_555
H10 C15 1_555 1_555
C16 C15 1_555 1_555
H11 C16 1_555 1_555
H12 C16 1_555 1_555
C17 C16 1_555 1_555
H13 C17 1_555 1_555
H14 C17 1_555 1_555
C18 C17 1_555 1_555
H15 C18 1_555 1_555
H16 C18 1_555 1_555
C19 C18 1_555 1_555
H17 C19 1_555 1_555
H18 C19 1_555 1_555
C20 C19 1_555 1_555
H19 C20 1_555 1_555
H20 C20 1_555 1_555
C21 C20 1_555 1_555
H21 C21 1_555 1_555
H22 C21 1_555 1_555
H23 C21 1_555 1_555
N1A C1A 1_555 1_555
O1A C1A 1_555 1_555
O2A C2A 1_555 1_555
O3A C11A 1_555 1_555
C1A C6 1_555 1_555
C2A N1A 1_555 1_555
C3A C7 1_555 1_555
C4A C3A 1_555 1_555
H1A C4A 1_555 1_555
C5A C4A 1_555 1_555
H2A C5A 1_555 1_555
C6A C5A 1_555 1_555
C7A C3 1_555 1_555
C8A N1A 1_555 1_555
C9A C8A 1_555 1_555
H3A C9A 1_555 1_555
C10A C9A 1_555 1_555
H4A C10A 1_555 1_555
C11A C10A 1_555 1_555
C12A C11A 1_555 1_555
H5A C12A 1_555 1_555
C13A C8A 1_555 1_555
H6A C13A 1_555 1_555
C14A O3A 1_555 1_555
H7A C14A 1_555 1_555
H8A C14A 1_555 1_555
C15A C14A 1_555 1_555
H9A C15A 1_555 1_555
H10A C15A 1_555 1_555
C16A C15A 1_555 1_555
H11A C16A 1_555 1_555
H12A C16A 1_555 1_555
C17A C16A 1_555 1_555
H13A C17A 1_555 1_555
H14A C17A 1_555 1_555
C18A C17A 1_555 1_555
H15A C18A 1_555 1_555
H16A C18A 1_555 1_555
C19A C18A 1_555 1_555
H17A C19A 1_555 1_555
H18A C19A 1_555 1_555
C20A C19A 1_555 1_555
H19A C20A 1_555 1_555
H20A C20A 1_555 1_555
C21A C20A 1_555 1_555
H21A C21A 1_555 1_555
H22A C21A 1_555 1_555
H23A C21A 1_555 1_555
C7 C7A 1_555 1_555
C12 C13 1_555 1_555
C2A C3A 1_555 1_555
C6A C7A 1_555 1_555
C12A C13A 1_555 1_555

#END
