
#######################################################################
#
#                 Cambridge Crystallographic Data Centre
#                                CCDC 
#
#######################################################################
#
# If this CIF has been generated from an entry in the Cambridge 
# Structural Database, then it will include bibliographic, chemical, 
# crystal, experimental, refinement or atomic coordinate data resulting 
# from the CCDC's data processing and validation procedures.
#
#######################################################################

data_MODFOA
_chemical_formula_moiety         'C10 H14 N1 O2 S5 1+,Cl1 1-'
_chemical_name_systematic        'Varacinium chloride'
_chemical_properties_biological  'antibacterial activity'
_symmetry_cell_setting           monoclinic
_symmetry_space_group_name_H-M   'P 21/c'
_symmetry_Int_Tables_number      14
_space_group_name_Hall           '-P 2ybc'
loop_
_symmetry_equiv_pos_site_id
_symmetry_equiv_pos_as_xyz
1 x,y,z
2 x,1/2-y,1/2+z
3 -x,-y,-z
4 -x,1/2+y,1/2-z
_cell_length_a                   16.891(3)
_cell_length_b                   10.6971(16)
_cell_length_c                   9.1959(13)
_cell_angle_alpha                90
_cell_angle_beta                 101.673(4)
_cell_angle_gamma                90
_cell_volume                     1627.19
_exptl_crystal_colour            yellow
_exptl_crystal_description       needle
_cell_formula_units_Z            4
_exptl_crystal_recrystallization_method dichloromethane/hexane
loop_
_atom_site_label
_atom_site_type_symbol
_atom_site_fract_x
_atom_site_fract_y
_atom_site_fract_z
Cl1 Cl 0.55850(8) 0.38522(10) 0.20629(14)
S1 S 0.30842(8) 0.48023(12) 0.19846(15)
S2 S 0.36804(9) 0.56438(12) 0.38780(18)
S3 S 0.29511(10) 0.71263(13) 0.41331(19)
S4 S 0.19983(10) 0.62576(14) 0.4793(2)
S5 S 0.13415(9) 0.54532(14) 0.2917(2)
O1 O 0.0458(2) 0.3212(4) 0.3376(5)
O2 O 0.0989(2) 0.0839(3) 0.3664(5)
C1 C 0.2493(3) 0.3626(4) 0.2621(5)
C2 C 0.1735(3) 0.3914(4) 0.2957(6)
C3 C 0.1253(3) 0.2944(6) 0.3267(6)
C4 C 0.1521(3) 0.1705(5) 0.3343(6)
C5 C 0.2270(3) 0.1453(4) 0.3051(5)
H1 H 0.2455 0.0632 0.3104
C6 C 0.2756(3) 0.2391(4) 0.2680(5)
C7 C 0.3578(3) 0.2005(4) 0.2414(5)
H2 H 0.3543 0.1177 0.1974
H3 H 0.3749 0.2583 0.1725
C8 C 0.4186(3) 0.1997(4) 0.3843(5)
H4 H 0.4232 0.2834 0.4260
H5 H 0.3999 0.1449 0.4543
C9 C 0.0286(4) 0.3095(6) 0.4758(7)
H6 H -0.0235 0.3454 0.4760
H7 H 0.0690 0.3523 0.5467
H8 H 0.0282 0.2226 0.5017
C10 C 0.1209(4) -0.0435(5) 0.3654(7)
H9 H 0.0781 -0.0943 0.3878
H10 H 0.1693 -0.0574 0.4387
H11 H 0.1303 -0.0653 0.2691
N1 N 0.4995(2) 0.1573(3) 0.3649(4)
H12 H 0.5337 0.1582 0.4523
H13 H 0.5175 0.2084 0.3023
H14 H 0.4958 0.0800 0.3284
loop_
_geom_bond_atom_site_label_1
_geom_bond_atom_site_label_2
_geom_bond_site_symmetry_1
_geom_bond_site_symmetry_2
S1 S2 1_555 1_555
S2 S3 1_555 1_555
S3 S4 1_555 1_555
S4 S5 1_555 1_555
S5 C2 1_555 1_555
O1 C3 1_555 1_555
O2 C4 1_555 1_555
C1 S1 1_555 1_555
C2 C1 1_555 1_555
C3 C2 1_555 1_555
C4 C3 1_555 1_555
C5 C4 1_555 1_555
H1 C5 1_555 1_555
C6 C1 1_555 1_555
C7 C6 1_555 1_555
H2 C7 1_555 1_555
H3 C7 1_555 1_555
C8 C7 1_555 1_555
H4 C8 1_555 1_555
H5 C8 1_555 1_555
C9 O1 1_555 1_555
H6 C9 1_555 1_555
H7 C9 1_555 1_555
H8 C9 1_555 1_555
C10 O2 1_555 1_555
H9 C10 1_555 1_555
H10 C10 1_555 1_555
H11 C10 1_555 1_555
N1 C8 1_555 1_555
H12 N1 1_555 1_555
H13 N1 1_555 1_555
H14 N1 1_555 1_555
C5 C6 1_555 1_555

#END
