
#######################################################################
#
#                 Cambridge Crystallographic Data Centre
#                                CCDC 
#
#######################################################################
#
# If this CIF has been generated from an entry in the Cambridge 
# Structural Database, then it will include bibliographic, chemical, 
# crystal, experimental, refinement or atomic coordinate data resulting 
# from the CCDC's data processing and validation procedures.
#
#######################################################################

data_MODFAO01
_chemical_formula_moiety         'C42 H46 N2 O6'
_chemical_name_systematic        
2,7-bis[4-(octyloxy)phenyl]benzo[lmn][3,8]phenanthroline-1,3,6,8(2H,7H)-tetrone
_symmetry_cell_setting           triclinic
_symmetry_space_group_name_H-M   'P -1'
_symmetry_Int_Tables_number      2
_space_group_name_Hall           '-P 1'
loop_
_symmetry_equiv_pos_site_id
_symmetry_equiv_pos_as_xyz
1 x,y,z
2 -x,-y,-z
_cell_length_a                   4.2498(17)
_cell_length_b                   8.217(3)
_cell_length_c                   24.826(7)
_cell_angle_alpha                97.903(9)
_cell_angle_beta                 93.317(9)
_cell_angle_gamma                93.732(8)
_cell_volume                     854.924
_exptl_crystal_colour            orange
_cell_formula_units_Z            1
loop_
_atom_site_label
_atom_site_type_symbol
_atom_site_fract_x
_atom_site_fract_y
_atom_site_fract_z
N1 N 0.3243(4) 0.78823(18) 0.11003(6)
O1 O -0.0553(3) 0.62636(17) 0.05538(5)
O2 O 0.6264(3) 0.98520(16) 0.16775(5)
O3 O 0.1321(3) 0.37936(16) 0.26879(5)
C1 C 0.1533(4) 0.7358(2) 0.05987(7)
C2 C 0.5209(4) 0.9336(2) 0.12168(7)
C3 C 0.5967(4) 1.0204(2) 0.07472(7)
C4 C 0.8070(4) 1.1574(2) 0.08260(7)
H1 H 0.8967 1.1984 0.1182
C5 C 0.8898(4) 1.2369(2) 0.03832(7)
H2 H 1.0371 1.3307 0.0440
C6 C 0.7586(4) 1.1797(2) -0.01316(7)
C7 C 0.5399(4) 1.0407(2) -0.02234(7)
C8 C 0.2852(4) 0.6841(2) 0.15251(7)
C9 C 0.4039(4) 0.5313(2) 0.14560(7)
H3 H 0.5159 0.4983 0.1144
C10 C 0.3613(4) 0.4251(2) 0.18383(7)
H4 H 0.4429 0.3195 0.1789
C11 C 0.1982(4) 0.4746(2) 0.22946(7)
C12 C 0.0871(5) 0.6304(2) 0.23657(7)
H5 H -0.0191 0.6656 0.2683
C13 C 0.1284(5) 0.7350(2) 0.19830(7)
H6 H 0.0497 0.8412 0.2034
C14 C 0.2632(5) 0.2225(2) 0.26533(8)
H7 H 0.4963 0.2365 0.2652
H8 H 0.1808 0.1516 0.2313
C15 C 0.1690(5) 0.1443(2) 0.31447(7)
H9 H 0.2633 0.0369 0.3135
H10 H -0.0637 0.1228 0.3122
C16 C 0.2731(5) 0.2505(2) 0.36837(7)
H11 H 0.1710 0.3558 0.3699
H12 H 0.5044 0.2764 0.3697
C17 C 0.1942(5) 0.1711(2) 0.41853(7)
H13 H -0.0367 0.1436 0.4172
H14 H 0.3001 0.0671 0.4177
C18 C 0.2962(5) 0.2821(3) 0.47133(7)
H15 H 0.1888 0.3856 0.4717
H16 H 0.5263 0.3110 0.4718
C19 C 0.2292(5) 0.2108(3) 0.52329(7)
H17 H -0.0011 0.1844 0.5238
H18 H 0.3348 0.1069 0.5234
C20 C 0.3431(5) 0.3284(3) 0.57425(8)
H19 H 0.5727 0.3558 0.5731
H20 H 0.2362 0.4318 0.5739
C21 C 0.2850(6) 0.2629(3) 0.62726(8)
H21 H 0.0572 0.2428 0.6301
H22 H 0.3733 0.3439 0.6580
H23 H 0.3871 0.1595 0.6279
N1A N 0.6757(4) 1.21177(18) -0.11003(6)
O1A O 1.0553(3) 1.37364(17) -0.05538(5)
O2A O 0.3736(3) 1.01480(16) -0.16775(5)
O3A O 0.8679(3) 1.62064(16) -0.26879(5)
C1A C 0.8467(4) 1.2642(2) -0.05987(7)
C2A C 0.4791(4) 1.0664(2) -0.12168(7)
C3A C 0.4033(4) 0.9796(2) -0.07472(7)
C4A C 0.1930(4) 0.8426(2) -0.08260(7)
H1A H 0.1033 0.8016 -0.1182
C5A C 0.1102(4) 0.7631(2) -0.03832(7)
H2A H -0.0371 0.6693 -0.0440
C6A C 0.2414(4) 0.8203(2) 0.01316(7)
C7A C 0.4601(4) 0.9593(2) 0.02234(7)
C8A C 0.7148(4) 1.3159(2) -0.15251(7)
C9A C 0.5961(4) 1.4687(2) -0.14560(7)
H3A H 0.4841 1.5017 -0.1144
C10A C 0.6387(4) 1.5749(2) -0.18383(7)
H4A H 0.5571 1.6805 -0.1789
C11A C 0.8018(4) 1.5254(2) -0.22946(7)
C12A C 0.9129(5) 1.3696(2) -0.23657(7)
H5A H 1.0191 1.3344 -0.2683
C13A C 0.8716(5) 1.2650(2) -0.19830(7)
H6A H 0.9503 1.1588 -0.2034
C14A C 0.7368(5) 1.7775(2) -0.26533(8)
H7A H 0.5037 1.7635 -0.2652
H8A H 0.8192 1.8484 -0.2313
C15A C 0.8310(5) 1.8557(2) -0.31447(7)
H9A H 0.7367 1.9631 -0.3135
H10A H 1.0637 1.8772 -0.3122
C16A C 0.7269(5) 1.7495(2) -0.36837(7)
H11A H 0.8290 1.6442 -0.3699
H12A H 0.4956 1.7236 -0.3697
C17A C 0.8058(5) 1.8289(2) -0.41853(7)
H13A H 1.0367 1.8564 -0.4172
H14A H 0.6999 1.9329 -0.4177
C18A C 0.7038(5) 1.7179(3) -0.47133(7)
H15A H 0.8112 1.6144 -0.4717
H16A H 0.4737 1.6890 -0.4718
C19A C 0.7708(5) 1.7892(3) -0.52329(7)
H17A H 1.0011 1.8156 -0.5238
H18A H 0.6652 1.8931 -0.5234
C20A C 0.6569(5) 1.6716(3) -0.57425(8)
H19A H 0.4273 1.6442 -0.5731
H20A H 0.7638 1.5682 -0.5739
C21A C 0.7150(6) 1.7371(3) -0.62726(8)
H21A H 0.9428 1.7572 -0.6301
H22A H 0.6267 1.6561 -0.6580
H23A H 0.6129 1.8405 -0.6279
loop_
_geom_bond_atom_site_label_1
_geom_bond_atom_site_label_2
_geom_bond_site_symmetry_1
_geom_bond_site_symmetry_2
N1 C1 1_555 1_555
O1 C1 1_555 1_555
O2 C2 1_555 1_555
O3 C11 1_555 1_555
C1 C6A 1_555 1_555
C2 N1 1_555 1_555
C3 C2 1_555 1_555
C4 C3 1_555 1_555
H1 C4 1_555 1_555
C5 C4 1_555 1_555
H2 C5 1_555 1_555
C6 C5 1_555 1_555
C7 C6 1_555 1_555
C8 N1 1_555 1_555
C9 C8 1_555 1_555
H3 C9 1_555 1_555
C10 C9 1_555 1_555
H4 C10 1_555 1_555
C11 C10 1_555 1_555
C12 C11 1_555 1_555
H5 C12 1_555 1_555
C13 C8 1_555 1_555
H6 C13 1_555 1_555
C14 O3 1_555 1_555
H7 C14 1_555 1_555
H8 C14 1_555 1_555
C15 C14 1_555 1_555
H9 C15 1_555 1_555
H10 C15 1_555 1_555
C16 C15 1_555 1_555
H11 C16 1_555 1_555
H12 C16 1_555 1_555
C17 C16 1_555 1_555
H13 C17 1_555 1_555
H14 C17 1_555 1_555
C18 C17 1_555 1_555
H15 C18 1_555 1_555
H16 C18 1_555 1_555
C19 C18 1_555 1_555
H17 C19 1_555 1_555
H18 C19 1_555 1_555
C20 C19 1_555 1_555
H19 C20 1_555 1_555
H20 C20 1_555 1_555
C21 C20 1_555 1_555
H21 C21 1_555 1_555
H22 C21 1_555 1_555
H23 C21 1_555 1_555
N1A C1A 1_555 1_555
O1A C1A 1_555 1_555
O2A C2A 1_555 1_555
O3A C11A 1_555 1_555
C1A C6 1_555 1_555
C2A N1A 1_555 1_555
C3A C7 1_555 1_555
C4A C3A 1_555 1_555
H1A C4A 1_555 1_555
C5A C4A 1_555 1_555
H2A C5A 1_555 1_555
C6A C5A 1_555 1_555
C7A C3 1_555 1_555
C8A N1A 1_555 1_555
C9A C8A 1_555 1_555
H3A C9A 1_555 1_555
C10A C9A 1_555 1_555
H4A C10A 1_555 1_555
C11A C10A 1_555 1_555
C12A C11A 1_555 1_555
H5A C12A 1_555 1_555
C13A C8A 1_555 1_555
H6A C13A 1_555 1_555
C14A O3A 1_555 1_555
H7A C14A 1_555 1_555
H8A C14A 1_555 1_555
C15A C14A 1_555 1_555
H9A C15A 1_555 1_555
H10A C15A 1_555 1_555
C16A C15A 1_555 1_555
H11A C16A 1_555 1_555
H12A C16A 1_555 1_555
C17A C16A 1_555 1_555
H13A C17A 1_555 1_555
H14A C17A 1_555 1_555
C18A C17A 1_555 1_555
H15A C18A 1_555 1_555
H16A C18A 1_555 1_555
C19A C18A 1_555 1_555
H17A C19A 1_555 1_555
H18A C19A 1_555 1_555
C20A C19A 1_555 1_555
H19A C20A 1_555 1_555
H20A C20A 1_555 1_555
C21A C20A 1_555 1_555
H21A C21A 1_555 1_555
H22A C21A 1_555 1_555
H23A C21A 1_555 1_555
C7 C7A 1_555 1_555
C12 C13 1_555 1_555
C2A C3A 1_555 1_555
C6A C7A 1_555 1_555
C12A C13A 1_555 1_555

#END
