
#######################################################################
#
#                 Cambridge Crystallographic Data Centre
#                                CCDC 
#
#######################################################################
#
# If this CIF has been generated from an entry in the Cambridge 
# Structural Database, then it will include bibliographic, chemical, 
# crystal, experimental, refinement or atomic coordinate data resulting 
# from the CCDC's data processing and validation procedures.
#
#######################################################################

data_MODFAO02
_chemical_formula_moiety         'C42 H46 N2 O6'
_chemical_name_systematic        
2,7-bis[4-(octyloxy)phenyl]benzo[lmn][3,8]phenanthroline-1,3,6,8(2H,7H)-tetrone
_symmetry_cell_setting           triclinic
_symmetry_space_group_name_H-M   'P -1'
_symmetry_Int_Tables_number      2
_space_group_name_Hall           '-P 1'
loop_
_symmetry_equiv_pos_site_id
_symmetry_equiv_pos_as_xyz
1 x,y,z
2 -x,-y,-z
_cell_length_a                   4.3797(17)
_cell_length_b                   8.220(3)
_cell_length_c                   24.683(8)
_cell_angle_alpha                98.313(13)
_cell_angle_beta                 93.051(8)
_cell_angle_gamma                93.777(6)
_cell_volume                     875.596
_exptl_crystal_colour            orange
_cell_formula_units_Z            1
loop_
_atom_site_label
_atom_site_type_symbol
_atom_site_fract_x
_atom_site_fract_y
_atom_site_fract_z
N1 N 0.3361(4) 0.7843(2) 0.10965(7)
O1 O -0.0402(4) 0.6278(2) 0.05547(6)
O2 O 0.6433(4) 0.97498(19) 0.16744(6)
O3 O 0.1463(4) 0.37412(19) 0.26767(6)
C1 C 0.1643(5) 0.7357(3) 0.05984(8)
C2 C 0.5338(5) 0.9270(3) 0.12137(9)
C3 C 0.6045(5) 1.0154(2) 0.07476(8)
C4 C 0.8119(5) 1.1505(3) 0.08241(8)
H1 H 0.9026 1.1888 0.1172
C5 C 0.8885(5) 1.2315(3) 0.03818(8)
H2 H 1.0311 1.3223 0.0438
C6 C 0.7546(5) 1.1778(2) -0.01316(8)
C7 C 0.5374(5) 1.0414(2) -0.02226(8)
C8 C 0.2977(5) 0.6796(3) 0.15199(8)
C9 C 0.4177(5) 0.5289(3) 0.14513(8)
H3 H 0.5289 0.4979 0.1147
C10 C 0.3746(5) 0.4221(3) 0.18314(8)
H4 H 0.4553 0.3195 0.1783
C11 C 0.2108(5) 0.4697(3) 0.22821(8)
C12 C 0.0971(6) 0.6233(3) 0.23538(9)
H5 H -0.0088 0.6563 0.2663
C13 C 0.1387(5) 0.7283(3) 0.19734(9)
H6 H 0.0598 0.8313 0.2023
C14 C 0.2766(6) 0.2185(3) 0.26457(9)
H7 H 0.4984 0.2336 0.2651
H8 H 0.2026 0.1479 0.2309
C15 C 0.1814(6) 0.1414(3) 0.31364(9)
H9 H -0.0400 0.1215 0.3112
H10 H 0.2686 0.0356 0.3125
C16 C 0.2804(6) 0.2462(3) 0.36792(9)
H11 H 0.1871 0.3504 0.3693
H12 H 0.5009 0.2698 0.3695
C17 C 0.1992(6) 0.1702(3) 0.41838(9)
H13 H -0.0210 0.1458 0.4170
H14 H 0.2950 0.0669 0.4176
C18 C 0.2989(6) 0.2797(3) 0.47140(9)
H15 H 0.2011 0.3824 0.4718
H16 H 0.5184 0.3057 0.4719
C19 C 0.2302(6) 0.2115(3) 0.52346(9)
H17 H 0.0106 0.1874 0.5238
H18 H 0.3267 0.1086 0.5235
C20 C 0.3400(7) 0.3269(4) 0.57484(10)
H19 H 0.5588 0.3524 0.5737
H20 H 0.2415 0.4292 0.5746
C21 C 0.2824(8) 0.2649(4) 0.62788(11)
H21 H 0.0657 0.2456 0.6307
H22 H 0.3656 0.3456 0.6580
H23 H 0.3792 0.1639 0.6289
N1A N 0.6639(4) 1.2157(2) -0.10965(7)
O1A O 1.0402(4) 1.3722(2) -0.05547(6)
O2A O 0.3567(4) 1.02502(19) -0.16744(6)
O3A O 0.8537(4) 1.62588(19) -0.26767(6)
C1A C 0.8357(5) 1.2643(3) -0.05984(8)
C2A C 0.4662(5) 1.0730(3) -0.12137(9)
C3A C 0.3955(5) 0.9846(2) -0.07476(8)
C4A C 0.1881(5) 0.8495(3) -0.08241(8)
H1A H 0.0974 0.8112 -0.1172
C5A C 0.1115(5) 0.7685(3) -0.03818(8)
H2A H -0.0311 0.6777 -0.0438
C6A C 0.2454(5) 0.8222(2) 0.01316(8)
C7A C 0.4626(5) 0.9586(2) 0.02226(8)
C8A C 0.7023(5) 1.3204(3) -0.15199(8)
C9A C 0.5823(5) 1.4711(3) -0.14513(8)
H3A H 0.4711 1.5021 -0.1147
C10A C 0.6254(5) 1.5779(3) -0.18314(8)
H4A H 0.5447 1.6805 -0.1783
C11A C 0.7892(5) 1.5303(3) -0.22821(8)
C12A C 0.9029(6) 1.3767(3) -0.23538(9)
H5A H 1.0088 1.3437 -0.2663
C13A C 0.8613(5) 1.2717(3) -0.19734(9)
H6A H 0.9402 1.1687 -0.2023
C14A C 0.7234(6) 1.7815(3) -0.26457(9)
H7A H 0.5016 1.7664 -0.2651
H8A H 0.7974 1.8521 -0.2309
C15A C 0.8186(6) 1.8586(3) -0.31364(9)
H9A H 1.0400 1.8785 -0.3112
H10A H 0.7314 1.9644 -0.3125
C16A C 0.7196(6) 1.7538(3) -0.36792(9)
H11A H 0.8129 1.6496 -0.3693
H12A H 0.4991 1.7302 -0.3695
C17A C 0.8008(6) 1.8298(3) -0.41838(9)
H13A H 1.0210 1.8542 -0.4170
H14A H 0.7050 1.9331 -0.4176
C18A C 0.7011(6) 1.7203(3) -0.47140(9)
H15A H 0.7989 1.6176 -0.4718
H16A H 0.4816 1.6943 -0.4719
C19A C 0.7698(6) 1.7885(3) -0.52346(9)
H17A H 0.9894 1.8126 -0.5238
H18A H 0.6733 1.8914 -0.5235
C20A C 0.6600(7) 1.6731(4) -0.57484(10)
H19A H 0.4412 1.6476 -0.5737
H20A H 0.7585 1.5708 -0.5746
C21A C 0.7176(8) 1.7351(4) -0.62788(11)
H21A H 0.9343 1.7544 -0.6307
H22A H 0.6344 1.6544 -0.6580
H23A H 0.6208 1.8361 -0.6289
loop_
_geom_bond_atom_site_label_1
_geom_bond_atom_site_label_2
_geom_bond_site_symmetry_1
_geom_bond_site_symmetry_2
N1 C1 1_555 1_555
O1 C1 1_555 1_555
O2 C2 1_555 1_555
O3 C11 1_555 1_555
C1 C6A 1_555 1_555
C2 N1 1_555 1_555
C3 C2 1_555 1_555
C4 C3 1_555 1_555
H1 C4 1_555 1_555
C5 C4 1_555 1_555
H2 C5 1_555 1_555
C6 C5 1_555 1_555
C7 C6 1_555 1_555
C8 N1 1_555 1_555
C9 C8 1_555 1_555
H3 C9 1_555 1_555
C10 C9 1_555 1_555
H4 C10 1_555 1_555
C11 C10 1_555 1_555
C12 C11 1_555 1_555
H5 C12 1_555 1_555
C13 C8 1_555 1_555
H6 C13 1_555 1_555
C14 O3 1_555 1_555
H7 C14 1_555 1_555
H8 C14 1_555 1_555
C15 C14 1_555 1_555
H9 C15 1_555 1_555
H10 C15 1_555 1_555
C16 C15 1_555 1_555
H11 C16 1_555 1_555
H12 C16 1_555 1_555
C17 C16 1_555 1_555
H13 C17 1_555 1_555
H14 C17 1_555 1_555
C18 C17 1_555 1_555
H15 C18 1_555 1_555
H16 C18 1_555 1_555
C19 C18 1_555 1_555
H17 C19 1_555 1_555
H18 C19 1_555 1_555
C20 C19 1_555 1_555
H19 C20 1_555 1_555
H20 C20 1_555 1_555
C21 C20 1_555 1_555
H21 C21 1_555 1_555
H22 C21 1_555 1_555
H23 C21 1_555 1_555
N1A C1A 1_555 1_555
O1A C1A 1_555 1_555
O2A C2A 1_555 1_555
O3A C11A 1_555 1_555
C1A C6 1_555 1_555
C2A N1A 1_555 1_555
C3A C7 1_555 1_555
C4A C3A 1_555 1_555
H1A C4A 1_555 1_555
C5A C4A 1_555 1_555
H2A C5A 1_555 1_555
C6A C5A 1_555 1_555
C7A C3 1_555 1_555
C8A N1A 1_555 1_555
C9A C8A 1_555 1_555
H3A C9A 1_555 1_555
C10A C9A 1_555 1_555
H4A C10A 1_555 1_555
C11A C10A 1_555 1_555
C12A C11A 1_555 1_555
H5A C12A 1_555 1_555
C13A C8A 1_555 1_555
H6A C13A 1_555 1_555
C14A O3A 1_555 1_555
H7A C14A 1_555 1_555
H8A C14A 1_555 1_555
C15A C14A 1_555 1_555
H9A C15A 1_555 1_555
H10A C15A 1_555 1_555
C16A C15A 1_555 1_555
H11A C16A 1_555 1_555
H12A C16A 1_555 1_555
C17A C16A 1_555 1_555
H13A C17A 1_555 1_555
H14A C17A 1_555 1_555
C18A C17A 1_555 1_555
H15A C18A 1_555 1_555
H16A C18A 1_555 1_555
C19A C18A 1_555 1_555
H17A C19A 1_555 1_555
H18A C19A 1_555 1_555
C20A C19A 1_555 1_555
H19A C20A 1_555 1_555
H20A C20A 1_555 1_555
C21A C20A 1_555 1_555
H21A C21A 1_555 1_555
H22A C21A 1_555 1_555
H23A C21A 1_555 1_555
C7 C7A 1_555 1_555
C12 C13 1_555 1_555
C2A C3A 1_555 1_555
C6A C7A 1_555 1_555
C12A C13A 1_555 1_555

#END
