
#######################################################################
#
#                 Cambridge Crystallographic Data Centre
#                                CCDC 
#
#######################################################################
#
# If this CIF has been generated from an entry in the Cambridge 
# Structural Database, then it will include bibliographic, chemical, 
# crystal, experimental, refinement or atomic coordinate data resulting 
# from the CCDC's data processing and validation procedures.
#
#######################################################################

data_MODKAR
_chemical_formula_moiety         'C13 H18 N4'
_chemical_name_systematic        
2-Cyano-5,5-bis(dimethylamino)-3-isopropenyl-2,4-pentadienenitrile
_symmetry_cell_setting           monoclinic
_symmetry_space_group_name_H-M   'P 21/c'
_symmetry_Int_Tables_number      14
_space_group_name_Hall           '-P 2ybc'
loop_
_symmetry_equiv_pos_site_id
_symmetry_equiv_pos_as_xyz
1 x,y,z
2 -x,1/2+y,1/2-z
3 -x,-y,-z
4 x,1/2-y,1/2+z
_cell_length_a                   9.6363(6)
_cell_length_b                   16.3837(6)
_cell_length_c                   9.8314(6)
_cell_angle_alpha                90
_cell_angle_beta                 119.017(4)
_cell_angle_gamma                90
_cell_volume                     1357.33
_cell_formula_units_Z            4
loop_
_atom_site_label
_atom_site_type_symbol
_atom_site_fract_x
_atom_site_fract_y
_atom_site_fract_z
C1 C 0.0491(2) 0.1110(1) 0.4861(3)
N1 N 0.0608(3) 0.0882(2) 0.2327(3)
C2 C 0.1893(2) 0.1242(1) 0.6267(2)
N2 N -0.2309(2) 0.1039(1) 0.4549(3)
C3 C 0.3366(2) 0.1199(1) 0.6334(2)
N3 N 0.6158(2) 0.0995(1) 0.7866(2)
N4 N 0.5011(2) 0.2021(1) 0.8606(2)
C4 C 0.4846(2) 0.1406(1) 0.7611(2)
C5 C 0.0544(2) 0.0980(1) 0.3461(3)
C6 C -0.1040(2) 0.1066(1) 0.4727(3)
C7 C 0.1736(3) 0.1356(1) 0.7691(3)
C8 C 0.2515(4) 0.0722(2) 0.8931(3)
C9 C 0.0883(3) 0.1966(2) 0.7791(4)
C10 C 0.6051(3) 0.0199(2) 0.7166(3)
C11 C 0.7713(3) 0.1384(2) 0.8478(3)
C12 C 0.4126(3) 0.2779(1) 0.8092(4)
C13 C 0.6171(3) 0.1984(2) 1.0256(3)
H1 H 0.3377(2) 0.1015(1) 0.5444(2)
H2 H 0.3068(4) 0.0340(2) 0.8626(3)
H3 H 0.1722(4) 0.0439(2) 0.9075(3)
H4 H 0.3254(4) 0.0980(2) 0.9889(3)
H8 H 0.0376(3) 0.2328(2) 0.6967(4)
H9 H 0.0794(3) 0.2030(2) 0.8685(4)
H10 H 0.7099(3) -0.0001(2) 0.7476(3)
H12 H 0.5515(3) -0.0175(2) 0.7508(3)
H16 H 0.8485(3) 0.0985(2) 0.8573(3)
H17 H 0.8015(3) 0.1615(2) 0.9482(3)
H18 H 0.7660(3) 0.1809(2) 0.7781(3)
H22 H 0.4416(3) 0.3129(1) 0.8971(4)
H23 H 0.3010(3) 0.2664(1) 0.7603(4)
H24 H 0.4367(3) 0.3044(1) 0.7360(4)
H28 H 0.6106(3) 0.2473(2) 1.0760(3)
H29 H 0.7218(3) 0.1935(2) 1.0378(3)
H30 H 0.5952(3) 0.1520(2) 1.0718(3)
H5? H 0.2295(4) 0.0833(2) 0.9767(3)
H6? H 0.3641(4) 0.0733(2) 0.9319(3)
H7? H 0.2109(4) 0.0193(2) 0.8504(3)
H11? H 0.5467(3) 0.0247(2) 0.6054(3)
H13? H 0.4955(3) 0.0048(2) 0.6549(3)
H14? H 0.6586(3) -0.0199(2) 0.7971(3)
H15? H 0.6539(3) 0.0222(2) 0.6517(3)
H19? H 0.7622(3) 0.1954(2) 0.8651(3)
H20? H 0.8092(3) 0.1325(2) 0.7742(3)
H21? H 0.8447(3) 0.1130(2) 0.9443(3)
H25? H 0.3446(3) 0.2762(1) 0.6985(4)
H26? H 0.4852(3) 0.3228(1) 0.8353(4)
H27? H 0.3495(3) 0.2848(1) 0.8596(4)
H31? H 0.6744(3) 0.1479(2) 1.0477(3)
H32? H 0.5633(3) 0.2017(2) 1.0860(3)
H33? H 0.6898(3) 0.2432(2) 1.0519(3)
loop_
_geom_bond_atom_site_label_1
_geom_bond_atom_site_label_2
_geom_bond_site_symmetry_1
_geom_bond_site_symmetry_2
C1 C2 1_555 1_555
N1 C5 1_555 1_555
C2 C3 1_555 1_555
N2 C6 1_555 1_555
C3 C4 1_555 1_555
N3 C4 1_555 1_555
N4 C4 1_555 1_555
C5 C1 1_555 1_555
C6 C1 1_555 1_555
C7 C2 1_555 1_555
C8 C7 1_555 1_555
C9 C7 1_555 1_555
C10 N3 1_555 1_555
C11 N3 1_555 1_555
C12 N4 1_555 1_555
C13 N4 1_555 1_555
H1 C3 1_555 1_555
H2 C8 1_555 1_555
H3 C8 1_555 1_555
H4 C8 1_555 1_555
H8 C9 1_555 1_555
H9 C9 1_555 1_555
H10 C10 1_555 1_555
H12 C10 1_555 1_555
H16 C11 1_555 1_555
H17 C11 1_555 1_555
H18 C11 1_555 1_555
H22 C12 1_555 1_555
H23 C12 1_555 1_555
H24 C12 1_555 1_555
H28 C13 1_555 1_555
H29 C13 1_555 1_555
H30 C13 1_555 1_555

#END
