
#######################################################################
#
#                 Cambridge Crystallographic Data Centre
#                                CCDC 
#
#######################################################################
#
# If this CIF has been generated from an entry in the Cambridge 
# Structural Database, then it will include bibliographic, chemical, 
# crystal, experimental, refinement or atomic coordinate data resulting 
# from the CCDC's data processing and validation procedures.
#
#######################################################################

data_MODLAS
_chemical_formula_moiety         'C21 H23 N3'
_chemical_name_systematic        
(2Z)-5,5-bis(dimethylamino)-2,3-diphenyl-2,4-pentadienenitrile
_symmetry_cell_setting           monoclinic
_symmetry_space_group_name_H-M   'P 21/n'
_symmetry_Int_Tables_number      14
_space_group_name_Hall           '-P 2yn'
loop_
_symmetry_equiv_pos_site_id
_symmetry_equiv_pos_as_xyz
1 x,y,z
2 1/2-x,1/2+y,1/2-z
3 -x,-y,-z
4 1/2+x,1/2-y,1/2+z
_cell_length_a                   10.587(2)
_cell_length_b                   9.001(2)
_cell_length_c                   19.048(4)
_cell_angle_alpha                90
_cell_angle_beta                 90.727(15)
_cell_angle_gamma                90
_cell_volume                     1815.01
_cell_formula_units_Z            4
loop_
_atom_site_label
_atom_site_type_symbol
_atom_site_fract_x
_atom_site_fract_y
_atom_site_fract_z
C1 C 0.6864(4) 0.5095(4) -0.0934(2)
N1 N 0.6598(4) 0.4115(4) -0.1294(2)
C2 C 0.7152(3) 0.6388(4) -0.0536(2)
C3 C 0.6916(3) 0.7800(4) -0.0915(2)
C4 C 0.6426(3) 0.9049(4) -0.0590(2)
C5 C 0.6144(3) 1.0316(4) -0.0962(2)
C6 C 0.6343(3) 1.0376(5) -0.1673(2)
C7 C 0.6841(4) 0.9172(5) -0.2005(2)
C8 C 0.7124(3) 0.7901(4) -0.1634(2)
C9 C 0.7692(3) 0.6259(4) 0.0126(2)
C10 C 0.7795(3) 0.4754(4) 0.0447(2)
C11 C 0.8962(3) 0.4227(4) 0.0684(2)
C12 C 0.9094(4) 0.2811(4) 0.0946(2)
C13 C 0.8059(4) 0.1889(5) 0.0986(2)
C14 C 0.6902(4) 0.2399(5) 0.0771(2)
C15 C 0.6767(4) 0.3810(4) 0.0498(2)
C16 C 0.8284(3) 0.7477(4) 0.0475(2)
C17 C 0.8623(3) 0.7513(4) 0.1177(2)
N2 N 0.9674(3) 0.8255(3) 0.1397(2)
C18 C 1.0682(4) 0.8582(5) 0.0916(2)
C19 C 0.9776(4) 0.8973(5) 0.2078(2)
N3 N 0.7940(3) 0.6839(3) 0.1684(1)
C20 C 0.6567(4) 0.6758(5) 0.1651(2)
C21 C 0.8528(4) 0.5972(5) 0.2241(2)
H1 H 0.6284 0.9028 -0.0110
H2 H 0.5817 1.1138 -0.0731
H3 H 0.6140 1.1229 -0.1925
H4 H 0.6991 0.9212 -0.2484
H5 H 0.7461 0.7090 -0.1869
H6 H 0.9665 0.4844 0.0664
H7 H 0.9884 0.2476 0.1096
H8 H 0.8147 0.0928 0.1158
H9 H 0.6197 0.1788 0.0809
H10 H 0.5975 0.4133 0.0347
H11 H 0.8456 0.8317 0.0208
H12 H 1.1343 0.9107 0.1160
H13 H 1.0361 0.9185 0.0538
H14 H 1.1011 0.7671 0.0731
H18 H 1.0592 0.9430 0.2126
H19 H 0.9671 0.8247 0.2441
H20 H 0.9131 0.9719 0.2115
H24 H 0.6264 0.6240 0.2056
H25 H 0.6309 0.6237 0.1233
H26 H 0.6222 0.7745 0.1642
H30 H 0.7888 0.5589 0.2544
H31 H 0.9096 0.6592 0.2507
H32 H 0.8990 0.5161 0.2040
H15? H 1.0467 0.8201 0.0459
H16? H 1.1449 0.8124 0.1081
H17? H 1.0799 0.9638 0.0889
H21? H 0.9005 0.8834 0.2329
H22? H 0.9925 1.0016 0.2014
H23? H 1.0465 0.8545 0.2340
H27? H 0.6266 0.7241 0.1232
H28? H 0.6221 0.7244 0.2054
H29? H 0.6308 0.5736 0.1646
H33? H 0.9428 0.5972 0.2183
H34? H 0.8220 0.4970 0.2221
H35? H 0.8326 0.6400 0.2687
loop_
_geom_bond_atom_site_label_1
_geom_bond_atom_site_label_2
_geom_bond_site_symmetry_1
_geom_bond_site_symmetry_2
C1 N1 1_555 1_555
C2 C1 1_555 1_555
C3 C2 1_555 1_555
C4 C3 1_555 1_555
C5 C4 1_555 1_555
C6 C5 1_555 1_555
C7 C6 1_555 1_555
C8 C3 1_555 1_555
C9 C2 1_555 1_555
C10 C9 1_555 1_555
C11 C10 1_555 1_555
C12 C11 1_555 1_555
C13 C12 1_555 1_555
C14 C13 1_555 1_555
C15 C10 1_555 1_555
C16 C9 1_555 1_555
C17 C16 1_555 1_555
N2 C17 1_555 1_555
C18 N2 1_555 1_555
C19 N2 1_555 1_555
N3 C17 1_555 1_555
C20 N3 1_555 1_555
C21 N3 1_555 1_555
H1 C4 1_555 1_555
H2 C5 1_555 1_555
H3 C6 1_555 1_555
H4 C7 1_555 1_555
H5 C8 1_555 1_555
H6 C11 1_555 1_555
H7 C12 1_555 1_555
H8 C13 1_555 1_555
H9 C14 1_555 1_555
H10 C15 1_555 1_555
H11 C16 1_555 1_555
H12 C18 1_555 1_555
H13 C18 1_555 1_555
H14 C18 1_555 1_555
H18 C19 1_555 1_555
H19 C19 1_555 1_555
H20 C19 1_555 1_555
H24 C20 1_555 1_555
H25 C20 1_555 1_555
H26 C20 1_555 1_555
H30 C21 1_555 1_555
H31 C21 1_555 1_555
H32 C21 1_555 1_555
C7 C8 1_555 1_555
C14 C15 1_555 1_555

#END
