
#######################################################################
#
#                 Cambridge Crystallographic Data Centre
#                                CCDC 
#
#######################################################################
#
# If this CIF has been generated from an entry in the Cambridge 
# Structural Database, then it will include bibliographic, chemical, 
# crystal, experimental, refinement or atomic coordinate data resulting 
# from the CCDC's data processing and validation procedures.
#
#######################################################################

data_MODMEZ
_chemical_formula_moiety         'C18 H14 B2 Br2 O6 2-,2(K1 1+)'
_chemical_name_systematic        
'di-potassium  4,9-bis(4-bromophenyl)-3,5,8,10,13,14-hexaoxa-4,9-diborapentacyclo[7.3.1.1^4,12^.0^2,7^.0^6,11^]tetradecate'
_symmetry_cell_setting           monoclinic
_symmetry_space_group_name_H-M   'C 2/c'
_symmetry_Int_Tables_number      15
_space_group_name_Hall           '-C 2yn'
loop_
_symmetry_equiv_pos_site_id
_symmetry_equiv_pos_as_xyz
1 x,y,z
2 -x,y,1/2-z
3 1/2+x,1/2+y,z
4 1/2-x,1/2+y,1/2-z
5 -x,-y,-z
6 x,-y,1/2+z
7 1/2-x,1/2-y,-z
8 1/2+x,1/2-y,1/2+z
_cell_length_a                   30.423(3)
_cell_length_b                   7.9360(11)
_cell_length_c                   16.6653(19)
_cell_angle_alpha                90
_cell_angle_beta                 111.121(9)
_cell_angle_gamma                90
_cell_volume                     3753.32
_exptl_crystal_colour            colorless
_exptl_crystal_description       block
_cell_formula_units_Z            4
loop_
_atom_site_label
_atom_site_type_symbol
_atom_site_fract_x
_atom_site_fract_y
_atom_site_fract_z
Br1 Br 0.21629(9) 0.3357(5) 0.3225(3)
O1 O 0.0616(5) 0.159(2) 0.5306(12)
O2 O 0.0550(5) -0.106(3) 0.4569(12)
O3 O 0.0047(5) 0.134(3) 0.3839(13)
C1 C 0.0293(7) 0.098(4) 0.5682(18)
C2 C 0.0219(8) -0.162(4) 0.494(2)
C3 C -0.0271(6) 0.082(4) 0.4252(16)
C4 C 0.0913(8) 0.140(4) 0.4090(19)
C5 C 0.1428(8) 0.136(4) 0.463(2)
C6 C 0.1758(8) 0.187(4) 0.433(2)
C7 C 0.1717(9) 0.254(4) 0.369(2)
C8 C 0.1201(8) 0.262(4) 0.301(2)
C9 C 0.0849(9) 0.209(4) 0.333(2)
B1 B 0.0536(8) 0.085(4) 0.452(3)
H1 H 0.0371 0.1488 0.6266
H2 H 0.0226 -0.2878 0.4991
H3 H -0.0591 0.1158 0.3849
H4 H 0.1522 0.0962 0.5210
H5 H 0.2073 0.1638 0.4689
H6 H 0.1130 0.2985 0.2432
H7 H 0.0531 0.2261 0.2960
Br1D Br -0.21629(9) -0.3357(5) 0.6775(3)
O1D O -0.0616(5) -0.159(2) 0.4694(12)
O2D O -0.0550(5) 0.106(3) 0.5431(12)
O3D O -0.0047(5) -0.134(3) 0.6161(13)
C1D C -0.0293(7) -0.098(4) 0.4318(18)
C2D C -0.0219(8) 0.162(4) 0.506(2)
C3D C 0.0271(6) -0.082(4) 0.5748(16)
C4D C -0.0913(8) -0.140(4) 0.5910(19)
C5D C -0.1428(8) -0.136(4) 0.537(2)
C6D C -0.1758(8) -0.187(4) 0.567(2)
C7D C -0.1717(9) -0.254(4) 0.631(2)
C8D C -0.1201(8) -0.262(4) 0.699(2)
C9D C -0.0849(9) -0.209(4) 0.667(2)
B1D B -0.0536(8) -0.085(4) 0.548(3)
H1D H -0.0371 -0.1488 0.3734
H2D H -0.0226 0.2878 0.5009
H3D H 0.0591 -0.1158 0.6151
H4D H -0.1522 -0.0962 0.4790
H5D H -0.2073 -0.1638 0.5311
H6D H -0.1130 -0.2985 0.7568
H7D H -0.0531 -0.2261 0.7040
K1 K 0.06123(19) -0.3638(8) 0.3352(5)
O4? O -0.0163(6) -0.534(3) 0.3395(16)
loop_
_geom_bond_atom_site_label_1
_geom_bond_atom_site_label_2
_geom_bond_site_symmetry_1
_geom_bond_site_symmetry_2
Br1 C7 1_555 1_555
O1 C1 1_555 1_555
O2 C2 1_555 1_555
O3 C3 1_555 1_555
C1 H1 1_555 1_555
C2 H2 1_555 1_555
C3 H3 1_555 1_555
C4 C5 1_555 1_555
C5 C6 1_555 1_555
C6 C7 1_555 1_555
C7 C8 1_555 1_555
C8 C9 1_555 1_555
C9 C4 1_555 1_555
B1 O1 1_555 1_555
H4 C5 1_555 1_555
H5 C6 1_555 1_555
H6 C8 1_555 1_555
H7 C9 1_555 1_555
Br1D C7D 1_555 1_555
O1D C1D 1_555 1_555
O2D C2D 1_555 1_555
O3D C3D 1_555 1_555
C1D C2 1_555 1_555
C2D C1 1_555 1_555
C3D C1 1_555 1_555
C4D C5D 1_555 1_555
C5D C6D 1_555 1_555
C6D C7D 1_555 1_555
C7D C8D 1_555 1_555
C8D C9D 1_555 1_555
C9D C4D 1_555 1_555
B1D O1D 1_555 1_555
H1D C1D 1_555 1_555
H2D C2D 1_555 1_555
H3D C3D 1_555 1_555
H4D C5D 1_555 1_555
H5D C6D 1_555 1_555
H6D C8D 1_555 1_555
H7D C9D 1_555 1_555
O2 B1 1_555 1_555
O3 B1 1_555 1_555
C2 C3D 1_555 1_555
C3 C1D 1_555 1_555
C3 C2D 1_555 1_555
C4 B1 1_555 1_555
O2D B1D 1_555 1_555
O3D B1D 1_555 1_555
C4D B1D 1_555 1_555

#END
