
#######################################################################
#
#                 Cambridge Crystallographic Data Centre
#                                CCDC 
#
#######################################################################
#
# If this CIF has been generated from an entry in the Cambridge 
# Structural Database, then it will include bibliographic, chemical, 
# crystal, experimental, refinement or atomic coordinate data resulting 
# from the CCDC's data processing and validation procedures.
#
#######################################################################

data_MODNEZ
_chemical_formula_moiety         'C24 H21 N1 O2,C2 H6 O1'
_chemical_name_systematic        
"3-(n-Propyliminomethyl)-1,1'-bi-2-naphthol ethanol solvate"
_symmetry_cell_setting           triclinic
_symmetry_space_group_name_H-M   'P -1'
_symmetry_Int_Tables_number      2
_space_group_name_Hall           '-P 1'
loop_
_symmetry_equiv_pos_site_id
_symmetry_equiv_pos_as_xyz
1 x,y,z
2 -x,-y,-z
_cell_length_a                   10.356(5)
_cell_length_b                   10.702(4)
_cell_length_c                   11.681(6)
_cell_angle_alpha                94.74(3)
_cell_angle_beta                 113.53(4)
_cell_angle_gamma                110.21(3)
_cell_volume                     1076.66
_exptl_crystal_colour            red
_exptl_crystal_description       block
_cell_formula_units_Z            2
_exptl_crystal_recrystallization_method ethanol/dichloromethane
loop_
_atom_site_label
_atom_site_type_symbol
_atom_site_fract_x
_atom_site_fract_y
_atom_site_fract_z
O1 O 1.05783(17) 0.49721(14) 0.36028(17)
H1 H 1.0117 0.5411 0.3732
O2 O 1.23674(17) 0.25319(17) 0.46653(16)
H2 H 1.3092 0.2426 0.5213
N1 N 1.5128(2) 0.2638(2) 0.5883(2)
C1 C 0.9549(2) 0.3634(2) 0.2954(2)
C2 C 0.8018(3) 0.3178(2) 0.2763(2)
H4 H 0.7694 0.3791 0.3055
C3 C 0.7007(3) 0.1847(2) 0.2154(2)
H5 H 0.5997 0.1553 0.2039
C4 C 0.7464(2) 0.0903(2) 0.1693(2)
C5 C 0.6427(3) -0.0497(2) 0.1053(2)
H6 H 0.5418 -0.0811 0.0946
C6 C 0.6889(3) -0.1383(2) 0.0595(2)
H7 H 0.6194 -0.2294 0.0169
C7 C 0.8399(3) -0.0930(2) 0.0762(2)
H8 H 0.8705 -0.1542 0.0444
C8 C 0.9434(3) 0.0399(2) 0.1384(2)
H9 H 1.0439 0.0681 0.1488
C9 C 0.9004(2) 0.1357(2) 0.1875(2)
C10 C 1.0073(2) 0.2762(2) 0.25333(19)
C11 C 1.1704(2) 0.3247(2) 0.2740(2)
C12 C 1.2792(2) 0.3084(2) 0.3796(2)
C13 C 1.4355(2) 0.3485(2) 0.4005(2)
C14 C 1.4773(3) 0.4108(2) 0.3151(2)
H10 H 1.5796 0.4407 0.3302
C15 C 1.3714(3) 0.4312(2) 0.2059(2)
C16 C 1.4142(3) 0.4958(2) 0.1180(3)
H11 H 1.5173 0.5310 0.1345
C17 C 1.3077(4) 0.5073(3) 0.0103(3)
H12 H 1.3382 0.5510 -0.0460
C18 C 1.1518(3) 0.4538(3) -0.0169(3)
H13 H 1.0785 0.4583 -0.0933
C19 C 1.1064(3) 0.3949(2) 0.0678(2)
H14 H 1.0027 0.3619 0.0493
C20 C 1.2138(2) 0.3833(2) 0.1827(2)
C21 C 1.5484(3) 0.3257(2) 0.5097(3)
H15 H 1.6501 0.3574 0.5226
C22 C 1.6320(3) 0.2426(2) 0.6952(2)
H16 H 1.6428 0.2869 0.7764
H17 H 1.7303 0.2855 0.6937
C23 C 1.5938(3) 0.0939(3) 0.6875(2)
H18 H 1.5885 0.0510 0.6083
H19 H 1.4925 0.0502 0.6837
C24 C 1.7112(3) 0.0693(3) 0.8015(3)
H20 H 1.8123 0.1147 0.8074
H21 H 1.6842 -0.0278 0.7895
H22 H 1.7115 0.1055 0.8796
O3 O 1.0938(2) 0.34869(17) 0.60697(19)
H3 H 1.1196 0.3381 0.5503
C25 C 1.0527(4) 0.2247(3) 0.6459(3)
H23 H 1.0438 0.2428 0.7246
H24 H 1.1341 0.1927 0.6647
C26 C 0.9048(4) 0.1156(3) 0.5454(3)
H25 H 0.8227 0.1446 0.5305
H26 H 0.8834 0.0325 0.5739
H27 H 0.9123 0.0988 0.4668
loop_
_geom_bond_atom_site_label_1
_geom_bond_atom_site_label_2
_geom_bond_site_symmetry_1
_geom_bond_site_symmetry_2
O1 H1 1_555 1_555
O2 H2 1_555 1_555
O3 H3 1_555 1_555
N1 C21 1_555 1_555
C1 O1 1_555 1_555
C2 C1 1_555 1_555
H4 C2 1_555 1_555
C3 C2 1_555 1_555
H5 C3 1_555 1_555
C4 C3 1_555 1_555
C5 C4 1_555 1_555
H6 C5 1_555 1_555
C6 C5 1_555 1_555
H7 C6 1_555 1_555
C7 C6 1_555 1_555
H8 C7 1_555 1_555
C8 C7 1_555 1_555
H9 C8 1_555 1_555
C9 C4 1_555 1_555
C10 C1 1_555 1_555
C11 C10 1_555 1_555
C12 O2 1_555 1_555
C13 C12 1_555 1_555
C14 C13 1_555 1_555
H10 C14 1_555 1_555
C15 C14 1_555 1_555
C16 C15 1_555 1_555
H11 C16 1_555 1_555
C17 C16 1_555 1_555
H12 C17 1_555 1_555
C18 C17 1_555 1_555
H13 C18 1_555 1_555
C19 C18 1_555 1_555
H14 C19 1_555 1_555
C20 C11 1_555 1_555
C21 C13 1_555 1_555
H15 C21 1_555 1_555
C22 N1 1_555 1_555
H16 C22 1_555 1_555
H17 C22 1_555 1_555
C23 C22 1_555 1_555
H18 C23 1_555 1_555
H19 C23 1_555 1_555
C24 C23 1_555 1_555
H20 C24 1_555 1_555
H21 C24 1_555 1_555
H22 C24 1_555 1_555
C25 O3 1_555 1_555
H23 C25 1_555 1_555
H24 C25 1_555 1_555
C26 C25 1_555 1_555
H25 C26 1_555 1_555
H26 C26 1_555 1_555
H27 C26 1_555 1_555
C8 C9 1_555 1_555
C9 C10 1_555 1_555
C11 C12 1_555 1_555
C15 C20 1_555 1_555
C19 C20 1_555 1_555

#END
