
#######################################################################
#
#                 Cambridge Crystallographic Data Centre
#                                CCDC 
#
#######################################################################
#
# If this CIF has been generated from an entry in the Cambridge 
# Structural Database, then it will include bibliographic, chemical, 
# crystal, experimental, refinement or atomic coordinate data resulting 
# from the CCDC's data processing and validation procedures.
#
#######################################################################

data_MODQIG
_chemical_formula_moiety         'C19 H27 N3 O2,H2 O1'
_chemical_name_systematic        
'1,3-Dicyclohexyl-1-(isonicotinoyl)urea monohydrate'
_symmetry_cell_setting           triclinic
_symmetry_space_group_name_H-M   'P -1'
_symmetry_Int_Tables_number      2
_space_group_name_Hall           '-P 1'
loop_
_symmetry_equiv_pos_site_id
_symmetry_equiv_pos_as_xyz
1 x,y,z
2 -x,-y,-z
_cell_length_a                   6.6694(13)
_cell_length_b                   11.106(2)
_cell_length_c                   13.248(3)
_cell_angle_alpha                98.55(3)
_cell_angle_beta                 94.11(3)
_cell_angle_gamma                97.49(3)
_cell_volume                     957.941
_exptl_crystal_colour            colorless
_exptl_crystal_description       block
_cell_formula_units_Z            2
loop_
_atom_site_label
_atom_site_type_symbol
_atom_site_fract_x
_atom_site_fract_y
_atom_site_fract_z
O1 O 0.25983(16) 0.03443(9) 0.01466(8)
O2 O 0.57498(15) 0.02624(10) 0.32408(8)
N1 N 0.2456(3) -0.40235(13) 0.05844(13)
N2 N 0.23694(19) -0.04403(11) 0.29989(9)
N3 N 0.38649(17) 0.06272(10) 0.18085(8)
C1 C 0.6570(4) 0.39594(16) 0.21113(19)
C2 C 0.3121(3) 0.39686(17) 0.2711(2)
C3 C 0.0813(4) -0.32783(19) 0.47794(19)
C4 C -0.0296(4) -0.2166(2) 0.48890(18)
C5 C 0.0909(3) -0.34257(17) 0.03668(17)
C6 C 0.5319(3) 0.45402(16) 0.29056(16)
C7 C 0.2898(3) 0.25718(15) 0.26796(16)
C8 C 0.6370(3) 0.25617(14) 0.20801(17)
C9 C 0.3026(3) -0.29165(18) 0.46441(15)
C10 C 0.4223(3) -0.33354(15) 0.09157(14)
C11 C 0.1057(3) -0.21635(15) 0.04690(14)
C12 C -0.0014(3) -0.1451(2) 0.40009(15)
C13 C 0.3287(3) -0.22376(17) 0.37377(14)
C14 C 0.4515(3) -0.20672(14) 0.10728(12)
C15 C 0.2219(2) -0.11014(14) 0.38727(11)
C16 C 0.4161(2) 0.19968(12) 0.18824(12)
C17 C 0.4089(2) 0.01254(12) 0.27488(10)
C18 C 0.2898(2) -0.14614(12) 0.08435(10)
C19 C 0.3093(2) -0.00917(12) 0.09085(10)
H1 H 0.289(2) -0.0558(14) 0.4476(12)
H2 H 0.365(2) 0.2150(14) 0.1216(13)
H3 H 0.579(3) -0.1618(15) 0.1334(12)
H4 H -0.010(3) -0.1756(17) 0.0266(14)
H5 H 0.260(3) -0.2770(17) 0.3092(15)
H7 H -0.061(3) -0.1957(18) 0.3374(16)
H8 H 0.341(3) 0.2358(16) 0.3374(15)
H9 H 0.542(3) 0.5415(19) 0.2889(15)
H10 H 0.118(3) -0.0381(17) 0.2633(15)
H11 H 0.686(3) 0.2370(19) 0.2787(17)
H13 H 0.538(3) -0.3773(17) 0.1074(14)
H14 H 0.599(3) 0.4149(19) 0.1418(19)
H15 H 0.373(3) -0.2369(19) 0.5286(17)
H16 H 0.706(3) 0.2202(18) 0.1530(16)
H17 H 0.473(3) -0.1978(17) 0.3659(14)
H18 H 0.587(3) 0.4396(17) 0.3617(16)
H19 H 0.015(3) -0.387(2) 0.4148(18)
H20 H -0.041(3) -0.3951(19) 0.0133(16)
H21 H 0.258(3) 0.4170(19) 0.2025(18)
H22 H 0.150(3) 0.2190(17) 0.2552(14)
H23 H 0.067(3) -0.369(2) 0.5385(18)
H24 H 0.018(4) -0.160(2) 0.554(2)
H25 H 0.379(3) -0.3669(19) 0.4574(15)
H26 H 0.235(3) 0.431(2) 0.3277(19)
H27 H -0.064(3) -0.0673(19) 0.4108(15)
H28 H -0.174(4) -0.239(2) 0.4927(19)
H29 H 0.800(4) 0.430(2) 0.2219(18)
O3 O 0.11137(18) -0.00473(13) -0.19210(11)
H6 H 0.153(4) -0.014(2) -0.128(2)
H12 H 0.212(4) -0.019(2) -0.2310(18)
loop_
_geom_bond_atom_site_label_1
_geom_bond_atom_site_label_2
_geom_bond_site_symmetry_1
_geom_bond_site_symmetry_2
O1 C19 1_555 1_555
O2 C17 1_555 1_555
O3 H6 1_555 1_555
N1 C5 1_555 1_555
N2 C15 1_555 1_555
N3 C16 1_555 1_555
C1 C6 1_555 1_555
C2 C6 1_555 1_555
C3 C4 1_555 1_555
C4 C12 1_555 1_555
C5 C11 1_555 1_555
C6 H9 1_555 1_555
C7 C2 1_555 1_555
C8 C1 1_555 1_555
C9 C3 1_555 1_555
C10 N1 1_555 1_555
C11 C18 1_555 1_555
C12 C15 1_555 1_555
C13 C9 1_555 1_555
C14 C10 1_555 1_555
C15 C13 1_555 1_555
C16 C7 1_555 1_555
C17 N2 1_555 1_555
C18 C14 1_555 1_555
C19 N3 1_555 1_555
H1 C15 1_555 1_555
H2 C16 1_555 1_555
H3 C14 1_555 1_555
H4 C11 1_555 1_555
H5 C13 1_555 1_555
H7 C12 1_555 1_555
H8 C7 1_555 1_555
H10 N2 1_555 1_555
H11 C8 1_555 1_555
H12 O3 1_555 1_555
H13 C10 1_555 1_555
H14 C1 1_555 1_555
H15 C9 1_555 1_555
H16 C8 1_555 1_555
H17 C13 1_555 1_555
H18 C6 1_555 1_555
H19 C3 1_555 1_555
H20 C5 1_555 1_555
H21 C2 1_555 1_555
H22 C7 1_555 1_555
H23 C3 1_555 1_555
H24 C4 1_555 1_555
H25 C9 1_555 1_555
H26 C2 1_555 1_555
H27 C12 1_555 1_555
H28 C4 1_555 1_555
H29 C1 1_555 1_555
N3 C17 1_555 1_555
C8 C16 1_555 1_555
C18 C19 1_555 1_555

#END
