
#######################################################################
#
#                 Cambridge Crystallographic Data Centre
#                                CCDC 
#
#######################################################################
#
# If this CIF has been generated from an entry in the Cambridge 
# Structural Database, then it will include bibliographic, chemical, 
# crystal, experimental, refinement or atomic coordinate data resulting 
# from the CCDC's data processing and validation procedures.
#
#######################################################################

data_MODRAZ
_chemical_formula_moiety         'C37 H40 N4 O8'
_chemical_name_systematic        
6,6',6'',6'''-Tetramethoxy-2,2',2'',2'''-(methanetetrayl-tetrakis(methylenenitrilomethylidyne))tetraphenol
_symmetry_cell_setting           triclinic
_symmetry_space_group_name_H-M   'P -1'
_symmetry_Int_Tables_number      2
_space_group_name_Hall           '-P 1'
loop_
_symmetry_equiv_pos_site_id
_symmetry_equiv_pos_as_xyz
1 x,y,z
2 -x,-y,-z
_cell_length_a                   11.3464(11)
_cell_length_b                   12.4437(12)
_cell_length_c                   13.0523(14)
_cell_angle_alpha                75.861(7)
_cell_angle_beta                 88.893(7)
_cell_angle_gamma                78.385(7)
_cell_volume                     1749.58
_exptl_crystal_colour            yellow
_exptl_crystal_description       prism
_cell_formula_units_Z            2
loop_
_atom_site_label
_atom_site_type_symbol
_atom_site_fract_x
_atom_site_fract_y
_atom_site_fract_z
C1 C -0.6783(3) 0.6040(3) 0.6346(3)
H1 H -0.7350 0.5856 0.5914
H2 H -0.7208 0.6457 0.6816
H3 H -0.6285 0.5355 0.6752
C2 C -0.5190(3) 0.7057(2) 0.6164(2)
C3 C -0.4819(3) 0.6681(2) 0.7207(2)
H4 H -0.5142 0.6112 0.7650
C4 C -0.3970(3) 0.7138(2) 0.7606(2)
H5 H -0.3729 0.6879 0.8315
C5 C -0.3483(2) 0.7971(2) 0.6962(2)
H6 H -0.2922 0.8283 0.7239
C6 C -0.3823(2) 0.8355(2) 0.5891(2)
C7 C -0.4681(2) 0.7891(2) 0.5489(2)
C8 C -0.3299(2) 0.9225(2) 0.5203(2)
H7 H -0.2759 0.9550 0.5492
C9 C -0.2957(2) 1.0390(2) 0.35387(19)
H8 H -0.2517 1.0717 0.3972
H9 H -0.3559 1.0994 0.3116
C10 C -0.7806(3) 1.3762(3) -0.1285(3)
H10 H -0.7593 1.4442 -0.1701
H11 H -0.8450 1.3953 -0.0832
H12 H -0.8063 1.3352 -0.1746
C11 C -0.6932(2) 1.2070(2) -0.0018(2)
C12 C -0.7994(2) 1.1700(3) 0.0167(2)
H13 H -0.8709 1.2161 -0.0145
C13 C -0.8005(3) 1.0645(3) 0.0816(3)
H14 H -0.8725 1.0393 0.0929
C14 C -0.6962(2) 0.9971(2) 0.1292(2)
H15 H -0.6979 0.9259 0.1725
C15 C -0.5875(2) 1.0334(2) 0.11382(19)
C16 C -0.5865(2) 1.1396(2) 0.0472(2)
C17 C -0.4787(2) 0.9634(2) 0.16885(19)
H16 H -0.4822 0.8927 0.2121
C18 C -0.2728(2) 0.9217(2) 0.21916(19)
H17 H -0.2174 0.8917 0.1707
H18 H -0.2971 0.8584 0.2683
C19 C 0.1639(4) 1.4133(3) 0.5082(3)
H19 H 0.1696 1.3906 0.5840
H20 H 0.1277 1.4923 0.4858
H21 H 0.2429 1.4004 0.4803
C20 C 0.0741(2) 1.3692(2) 0.3635(2)
C21 C 0.1075(3) 1.4562(2) 0.2895(3)
H22 H 0.1441 1.5075 0.3116
C22 C 0.0876(3) 1.4686(2) 0.1828(3)
H23 H 0.1117 1.5272 0.1334
C23 C 0.0320(2) 1.3938(2) 0.1502(2)
H24 H 0.0183 1.4023 0.0784
C24 C -0.0044(2) 1.3052(2) 0.2232(2)
C25 C 0.0163(2) 1.2936(2) 0.3301(2)
C26 C -0.0634(2) 1.2277(2) 0.1863(2)
H25 H -0.0732 1.2373 0.1138
C27 C -0.1624(2) 1.0776(2) 0.19919(19)
H26 H -0.1064 1.0425 0.1541
H27 H -0.2297 1.1260 0.1550
C28 C 0.3376(3) 0.6069(3) -0.0230(2)
H28 H 0.3091 0.6053 -0.0912
H29 H 0.3572 0.5312 0.0209
H30 H 0.4082 0.6394 -0.0308
C29 C 0.2713(2) 0.6854(2) 0.1230(2)
C30 C 0.3835(2) 0.6521(2) 0.1727(2)
H31 H 0.4489 0.6186 0.1394
C31 C 0.3984(3) 0.6687(3) 0.2720(3)
H32 H 0.4743 0.6462 0.3052
C32 C 0.3036(2) 0.7176(2) 0.3220(2)
H33 H 0.3149 0.7272 0.3894
C33 C 0.1896(2) 0.7534(2) 0.27244(19)
C34 C 0.1742(2) 0.7371(2) 0.1721(2)
C35 C 0.0911(2) 0.8099(2) 0.3253(2)
H34 H 0.1062 0.8195 0.3919
C36 C -0.1053(2) 0.9013(2) 0.3478(2)
H35 H -0.0667 0.9410 0.3885
H36 H -0.1378 0.8435 0.3973
C37 C -0.2085(2) 0.9849(2) 0.28059(18)
N1 N -0.37817(18) 0.99528(17) 0.16006(15)
N2 N -0.10224(18) 1.14746(18) 0.24823(16)
N3 N -0.01463(19) 0.84665(17) 0.28493(15)
N4 N -0.35536(17) 0.95591(17) 0.42188(17)
O1 O -0.68132(17) 1.30936(18) -0.06743(17)
O2 O -0.48359(14) 1.17979(14) 0.02791(14)
H37 H -0.4272 1.1331 0.0611
O3 O -0.6060(2) 0.6698(2) 0.56997(16)
O4 O -0.50509(17) 0.82276(16) 0.44657(14)
H38 H -0.4688 0.8710 0.4150
O5 O 0.24695(16) 0.67307(15) 0.02443(14)
O6 O 0.06588(14) 0.77182(15) 0.12026(13)
H39 H 0.0164 0.8014 0.1570
O7 O -0.01615(18) 1.20882(16) 0.40428(14)
H40 H -0.0487 1.1704 0.3754
O8 O 0.0914(2) 1.34865(17) 0.47009(17)
loop_
_geom_bond_atom_site_label_1
_geom_bond_atom_site_label_2
_geom_bond_site_symmetry_1
_geom_bond_site_symmetry_2
C1 H1 1_555 1_555
H2 C1 1_555 1_555
H3 C1 1_555 1_555
C2 C3 1_555 1_555
C3 H4 1_555 1_555
C4 C3 1_555 1_555
H5 C4 1_555 1_555
C5 C4 1_555 1_555
H6 C5 1_555 1_555
C6 C5 1_555 1_555
C7 C2 1_555 1_555
C8 C6 1_555 1_555
H7 C8 1_555 1_555
C9 H8 1_555 1_555
H9 C9 1_555 1_555
C10 H10 1_555 1_555
H11 C10 1_555 1_555
H12 C10 1_555 1_555
C11 C12 1_555 1_555
C12 H13 1_555 1_555
C13 C12 1_555 1_555
H14 C13 1_555 1_555
C14 C13 1_555 1_555
H15 C14 1_555 1_555
C15 C14 1_555 1_555
C16 C11 1_555 1_555
C17 C15 1_555 1_555
H16 C17 1_555 1_555
C18 H17 1_555 1_555
H18 C18 1_555 1_555
C19 H19 1_555 1_555
H20 C19 1_555 1_555
H21 C19 1_555 1_555
C20 C21 1_555 1_555
C21 H22 1_555 1_555
C22 C21 1_555 1_555
H23 C22 1_555 1_555
C23 C22 1_555 1_555
H24 C23 1_555 1_555
C24 C23 1_555 1_555
C25 C20 1_555 1_555
C26 C24 1_555 1_555
H25 C26 1_555 1_555
C27 H26 1_555 1_555
H27 C27 1_555 1_555
C28 H28 1_555 1_555
H29 C28 1_555 1_555
H30 C28 1_555 1_555
C29 C30 1_555 1_555
C30 H31 1_555 1_555
C31 C30 1_555 1_555
H32 C31 1_555 1_555
C32 C31 1_555 1_555
H33 C32 1_555 1_555
C33 C32 1_555 1_555
C34 C29 1_555 1_555
C35 C33 1_555 1_555
H34 C35 1_555 1_555
C36 H35 1_555 1_555
H36 C36 1_555 1_555
C37 C9 1_555 1_555
N1 C17 1_555 1_555
N2 C26 1_555 1_555
N3 C35 1_555 1_555
N4 C8 1_555 1_555
O1 C10 1_555 1_555
O2 C16 1_555 1_555
H37 O2 1_555 1_555
O3 C1 1_555 1_555
O4 C7 1_555 1_555
H38 O4 1_555 1_555
O5 C28 1_555 1_555
O6 C34 1_555 1_555
H39 O6 1_555 1_555
O7 C25 1_555 1_555
H40 O7 1_555 1_555
O8 C19 1_555 1_555
C2 O3 1_555 1_555
C6 C7 1_555 1_555
C9 N4 1_555 1_555
C11 O1 1_555 1_555
C15 C16 1_555 1_555
C18 C37 1_555 1_555
C18 N1 1_555 1_555
C20 O8 1_555 1_555
C24 C25 1_555 1_555
C27 C37 1_555 1_555
C27 N2 1_555 1_555
C29 O5 1_555 1_555
C33 C34 1_555 1_555
C36 C37 1_555 1_555
C36 N3 1_555 1_555

#END
