
#######################################################################
#
#                 Cambridge Crystallographic Data Centre
#                                CCDC 
#
#######################################################################
#
# If this CIF has been generated from an entry in the Cambridge 
# Structural Database, then it will include bibliographic, chemical, 
# crystal, experimental, refinement or atomic coordinate data resulting 
# from the CCDC's data processing and validation procedures.
#
#######################################################################

data_MODSAZ
_chemical_formula_moiety         'C12 H16 N8'
_chemical_name_systematic        
3,6-bis(3,5-Dimethylpyrazolyl)-1,4-dihydro-1,2,4,5-tetrazine
_symmetry_cell_setting           monoclinic
_symmetry_space_group_name_H-M   'P 21/c'
_symmetry_Int_Tables_number      14
_space_group_name_Hall           '-P 2ybc'
loop_
_symmetry_equiv_pos_site_id
_symmetry_equiv_pos_as_xyz
1 x,y,z
2 -x,1/2+y,1/2-z
3 -x,-y,-z
4 x,1/2-y,1/2+z
_cell_length_a                   11.1301(8)
_cell_length_b                   11.0060(9)
_cell_length_c                   11.4837(10)
_cell_angle_alpha                90
_cell_angle_beta                 100.492(7)
_cell_angle_gamma                90
_cell_volume                     1383.21
_exptl_crystal_colour            green
_exptl_crystal_description       rod
_cell_formula_units_Z            4
_exptl_crystal_recrystallization_method dichloromethane/hexane
loop_
_atom_site_label
_atom_site_type_symbol
_atom_site_fract_x
_atom_site_fract_y
_atom_site_fract_z
N1 N 0.60694(16) 0.08115(17) 1.18707(15)
N2 N 0.57494(15) 0.14521(15) 1.08247(14)
N3 N 0.78310(15) 0.13326(17) 1.06440(15)
H1 H 0.7931 0.0613 1.0938
N4 N 0.88327(16) 0.21134(17) 1.05280(15)
N5 N 0.75010(16) 0.26852(17) 0.87943(15)
H2 H 0.7440 0.2731 0.8038
N6 N 0.64606(16) 0.25608(18) 0.93624(16)
N7 N 0.95256(15) 0.34389(16) 0.92179(14)
N8 N 0.92349(17) 0.41162(17) 0.81932(15)
C1 C 0.45053(19) 0.1457(2) 1.04368(19)
C2 C 0.4031(2) 0.0819(2) 1.1270(2)
H3 H 0.3209 0.0666 1.1265
C3 C 0.5019(2) 0.0439(2) 1.21338(19)
C4 C 0.66903(18) 0.18316(18) 1.02432(17)
C5 C 0.86043(18) 0.27252(18) 0.95623(17)
C6 C 1.07399(19) 0.3548(2) 0.97221(19)
C7 C 1.1223(2) 0.4316(2) 0.8994(2)
H4 H 1.2030 0.4575 0.9094
C8 C 1.0277(2) 0.4641(2) 0.8070(2)
C9 C 0.3876(2) 0.2065(2) 0.9323(2)
H5 H 0.3900 0.2930 0.9432
H6 H 0.3041 0.1799 0.9141
H7 H 0.4283 0.1854 0.8683
C10 C 0.5004(3) -0.0308(3) 1.3227(2)
H8 H 0.5820 -0.0382 1.3668
H9 H 0.4684 -0.1101 1.3003
H10 H 0.4497 0.0082 1.3708
C11 C 1.1335(2) 0.2910(3) 1.0825(2)
H11 H 1.0910 0.3103 1.1457
H12 H 1.2171 0.3167 1.1034
H13 H 1.1307 0.2048 1.0692
C12 C 1.0333(3) 0.5462(3) 0.7036(2)
H14 H 1.0869 0.5116 0.6558
H15 H 1.0636 0.6244 0.7321
H16 H 0.9530 0.5549 0.6570
loop_
_geom_bond_atom_site_label_1
_geom_bond_atom_site_label_2
_geom_bond_site_symmetry_1
_geom_bond_site_symmetry_2
N1 N2 1_555 1_555
N2 C1 1_555 1_555
N3 H1 1_555 1_555
N4 N3 1_555 1_555
N5 H2 1_555 1_555
N6 N5 1_555 1_555
N7 N8 1_555 1_555
N8 C8 1_555 1_555
C1 C2 1_555 1_555
C2 H3 1_555 1_555
C3 N1 1_555 1_555
C4 N2 1_555 1_555
C5 N4 1_555 1_555
C6 N7 1_555 1_555
C7 C6 1_555 1_555
H4 C7 1_555 1_555
C8 C7 1_555 1_555
C9 C1 1_555 1_555
H5 C9 1_555 1_555
H6 C9 1_555 1_555
H7 C9 1_555 1_555
C10 C3 1_555 1_555
H8 C10 1_555 1_555
H9 C10 1_555 1_555
H10 C10 1_555 1_555
C11 C6 1_555 1_555
H11 C11 1_555 1_555
H12 C11 1_555 1_555
H13 C11 1_555 1_555
C12 C8 1_555 1_555
H14 C12 1_555 1_555
H15 C12 1_555 1_555
H16 C12 1_555 1_555
N3 C4 1_555 1_555
N5 C5 1_555 1_555
N6 C4 1_555 1_555
N7 C5 1_555 1_555
C2 C3 1_555 1_555

#END
