
#######################################################################
#
#                 Cambridge Crystallographic Data Centre
#                                CCDC 
#
#######################################################################
#
# If this CIF has been generated from an entry in the Cambridge 
# Structural Database, then it will include bibliographic, chemical, 
# crystal, experimental, refinement or atomic coordinate data resulting 
# from the CCDC's data processing and validation procedures.
#
#######################################################################

data_MODTIJ
_chemical_formula_moiety         'C21 H25 N1 O3'
_chemical_name_systematic        
r-2,c-6-Bis(3-methoxyphenyl)-t-3,t-5-dimethylpiperidin-4-one
_symmetry_cell_setting           monoclinic
_symmetry_space_group_name_H-M   'C 2/c'
_symmetry_Int_Tables_number      15
_space_group_name_Hall           '-C 2yn'
loop_
_symmetry_equiv_pos_site_id
_symmetry_equiv_pos_as_xyz
1 x,y,z
2 1/2+x,1/2+y,z
3 -x,y,1/2-z
4 1/2-x,1/2+y,1/2-z
5 -x,-y,-z
6 1/2-x,1/2-y,-z
7 x,-y,1/2+z
8 1/2+x,1/2-y,1/2+z
_cell_length_a                   20.9885(6)
_cell_length_b                   9.7699(2)
_cell_length_c                   19.8153(5)
_cell_angle_alpha                90
_cell_angle_beta                 109.459(2)
_cell_angle_gamma                90
_cell_volume                     3831.15
_exptl_crystal_colour            colorless
_exptl_crystal_description       Block
_cell_formula_units_Z            8
_exptl_crystal_recrystallization_method ethanol
loop_
_atom_site_label
_atom_site_type_symbol
_atom_site_fract_x
_atom_site_fract_y
_atom_site_fract_z
C1 C 0.34428(7) 0.63001(15) 0.18001(8)
H1 H 0.3033 0.6627 0.1881
C2 C 0.32387(8) 0.52388(16) 0.11928(8)
H2 H 0.3651 0.4956 0.1101
C3 C 0.29531(8) 0.39913(18) 0.14380(9)
C4 C 0.33555(7) 0.33955(15) 0.21586(8)
H3 H 0.3776 0.3020 0.2122
C5 C 0.35427(7) 0.45552(15) 0.27161(8)
H4 H 0.3127 0.4922 0.2767
C6 C 0.38064(8) 0.75142(15) 0.16328(8)
C7 C 0.44600(8) 0.73763(15) 0.16225(8)
H5 H 0.4668 0.6523 0.1703
C8 C 0.48077(8) 0.84985(17) 0.14930(8)
C9 C 0.44996(11) 0.97624(18) 0.13621(11)
H6 H 0.4730 1.0519 0.1276
C10 C 0.38482(12) 0.9890(2) 0.13608(13)
H7 H 0.3637 1.0740 0.1266
C11 C 0.35003(10) 0.87908(19) 0.14962(11)
H8 H 0.3060 0.8902 0.1496
C12 C 0.27530(10) 0.5817(2) 0.04956(10)
H9 H 0.2658 0.5130 0.0129
H10 H 0.2955 0.6597 0.0353
H11 H 0.2340 0.6089 0.0566
C13 C 0.29752(10) 0.22367(18) 0.23642(11)
H12 H 0.2563 0.2582 0.2408
H13 H 0.3249 0.1853 0.2813
H14 H 0.2873 0.1541 0.2001
C14 C 0.39959(8) 0.40590(15) 0.34391(8)
C15 C 0.37474(10) 0.3865(2) 0.39968(10)
H15 H 0.3298 0.4061 0.3934
C16 C 0.41662(12) 0.3379(3) 0.46462(11)
H16 H 0.3991 0.3236 0.5014
C17 C 0.48319(11) 0.3104(2) 0.47607(10)
H17 H 0.5109 0.2784 0.5203
C18 C 0.50881(8) 0.33063(16) 0.42127(8)
C19 C 0.46682(7) 0.37783(15) 0.35542(8)
H18 H 0.4843 0.3908 0.3185
C20 C 0.58679(12) 0.9383(3) 0.14770(15)
H19 H 0.5679 0.9847 0.1027
H20 H 0.6315 0.9069 0.1527
H21 H 0.5889 1.0000 0.1860
C21 C 0.62095(10) 0.2629(2) 0.49353(11)
H22 H 0.6201 0.3258 0.5305
H23 H 0.6657 0.2595 0.4907
H24 H 0.6082 0.1734 0.5045
H25 H 0.4028(8) 0.6278(19) 0.2787(10)
N1 N 0.38767(6) 0.56426(13) 0.24572(7)
O1 O 0.54531(6) 0.82403(13) 0.15007(6)
O2 O 0.2376(3) 0.3574(6) 0.1104(2)
O4 O 0.57452(6) 0.30761(13) 0.42644(6)
O3? O 0.2601(7) 0.3246(17) 0.1015(7)
loop_
_geom_bond_atom_site_label_1
_geom_bond_atom_site_label_2
_geom_bond_site_symmetry_1
_geom_bond_site_symmetry_2
C1 H1 1_555 1_555
C2 C1 1_555 1_555
H2 C2 1_555 1_555
C3 C2 1_555 1_555
C4 C3 1_555 1_555
H3 C4 1_555 1_555
C5 C4 1_555 1_555
H4 C5 1_555 1_555
C6 C1 1_555 1_555
C7 C6 1_555 1_555
H5 C7 1_555 1_555
C8 C7 1_555 1_555
C9 C8 1_555 1_555
H6 C9 1_555 1_555
C10 C9 1_555 1_555
H7 C10 1_555 1_555
C11 C6 1_555 1_555
H8 C11 1_555 1_555
C12 C2 1_555 1_555
H9 C12 1_555 1_555
H10 C12 1_555 1_555
H11 C12 1_555 1_555
C13 C4 1_555 1_555
H12 C13 1_555 1_555
H13 C13 1_555 1_555
H14 C13 1_555 1_555
C14 C5 1_555 1_555
C15 C14 1_555 1_555
H15 C15 1_555 1_555
C16 C15 1_555 1_555
H16 C16 1_555 1_555
C17 C16 1_555 1_555
H17 C17 1_555 1_555
C18 C17 1_555 1_555
C19 C14 1_555 1_555
H18 C19 1_555 1_555
C20 H19 1_555 1_555
H20 C20 1_555 1_555
H21 C20 1_555 1_555
C21 H22 1_555 1_555
H23 C21 1_555 1_555
H24 C21 1_555 1_555
H25 N1 1_555 1_555
N1 C1 1_555 1_555
O1 C8 1_555 1_555
O2 C3 1_555 1_555
O4 C18 1_555 1_555
C5 N1 1_555 1_555
C10 C11 1_555 1_555
C18 C19 1_555 1_555
C20 O1 1_555 1_555
C21 O4 1_555 1_555

#END
