
#######################################################################
#
#                 Cambridge Crystallographic Data Centre
#                                CCDC 
#
#######################################################################
#
# If this CIF has been generated from an entry in the Cambridge 
# Structural Database, then it will include bibliographic, chemical, 
# crystal, experimental, refinement or atomic coordinate data resulting 
# from the CCDC's data processing and validation procedures.
#
#######################################################################

data_MODVEG
_chemical_formula_moiety         'C21 H24 N2,C12 H11 N1'
_chemical_name_systematic        
'1,3-Dimesityl-imidazol-2-ylidene diphenylamine'
_symmetry_cell_setting           triclinic
_symmetry_space_group_name_H-M   'P -1'
_symmetry_Int_Tables_number      2
_space_group_name_Hall           '-P 1'
loop_
_symmetry_equiv_pos_site_id
_symmetry_equiv_pos_as_xyz
1 x,y,z
2 -x,-y,-z
_cell_length_a                   9.6629(19)
_cell_length_b                   10.578(2)
_cell_length_c                   14.967(3)
_cell_angle_alpha                80.60(3)
_cell_angle_beta                 71.68(3)
_cell_angle_gamma                67.72(3)
_cell_volume                     1342.18
_exptl_crystal_colour            orange
_exptl_crystal_description       needle
_chemical_melting_point          '158-162 deg.C'
_cell_formula_units_Z            2
_exptl_crystal_recrystallization_method toluene
loop_
_atom_site_label
_atom_site_type_symbol
_atom_site_fract_x
_atom_site_fract_y
_atom_site_fract_z
C1 C 0.36214(14) -0.08330(12) 0.32001(9)
C2 C 0.20159(14) -0.20108(13) 0.40596(9)
H1 H 0.1697(17) -0.2670(15) 0.4545(11)
C3 C 0.13389(14) -0.12120(13) 0.34072(9)
H2 H 0.0410(17) -0.1118(15) 0.3268(10)
N1 N 0.33963(11) -0.17754(10) 0.39234(7)
N2 N 0.23173(11) -0.04996(10) 0.28982(7)
C4 C 0.44840(14) -0.24455(12) 0.44791(8)
C5 C 0.56731(14) -0.36955(12) 0.41965(9)
C6 C 0.67338(14) -0.42880(13) 0.47305(9)
H3 H 0.7596(16) -0.5161(15) 0.4539(10)
C7 C 0.66345(14) -0.36788(13) 0.55218(9)
C8 C 0.54258(14) -0.24443(13) 0.57823(9)
H4 H 0.5326(17) -0.2003(16) 0.6345(11)
C9 C 0.43331(14) -0.18061(12) 0.52694(9)
C10 C 0.58420(15) -0.43539(14) 0.33256(9)
H5 H 0.4832(19) -0.4310(16) 0.3277(11)
H6 H 0.653(2) -0.5328(19) 0.3341(12)
H7 H 0.6326(19) -0.3904(17) 0.2751(13)
C11 C 0.77979(16) -0.43455(14) 0.60903(10)
H8 H 0.886(2) -0.4506(19) 0.5689(14)
H9 H 0.778(2) -0.5252(19) 0.6361(13)
H10 H 0.760(2) -0.3794(18) 0.6620(13)
C12 C 0.30639(15) -0.04481(13) 0.55475(10)
H11 H 0.3323(19) 0.0330(18) 0.5155(12)
H12 H 0.2905(18) -0.0276(16) 0.6209(12)
H13 H 0.2033(19) -0.0391(16) 0.5482(11)
C13 C 0.20734(14) 0.04296(12) 0.20968(9)
C14 C 0.28919(14) -0.00646(12) 0.11968(9)
C15 C 0.27145(14) 0.08562(13) 0.04186(9)
H14 H 0.3297(17) 0.0518(15) -0.0229(11)
C16 C 0.17816(14) 0.22383(13) 0.05321(9)
C17 C 0.09777(14) 0.26825(13) 0.14442(9)
H15 H 0.0322(16) 0.3643(15) 0.1529(10)
C18 C 0.10872(14) 0.17931(13) 0.22400(9)
C19 C 0.39748(15) -0.15336(13) 0.10811(9)
H16 H 0.4911(18) -0.1686(15) 0.1291(11)
H17 H 0.4335(18) -0.1761(16) 0.0398(12)
H18 H 0.3470(17) -0.2196(16) 0.1460(11)
C20 C 0.16718(16) 0.32462(14) -0.03075(9)
H19 H 0.213(2) 0.3914(19) -0.0297(13)
H20 H 0.0600(19) 0.3740(16) -0.0309(11)
H21 H 0.2232(18) 0.2788(17) -0.0925(12)
C21 C 0.01892(15) 0.22932(14) 0.32186(9)
H22 H -0.072(2) 0.2004(16) 0.3462(11)
H23 H 0.0866(18) 0.1927(16) 0.3643(11)
H24 H -0.0218(18) 0.3333(17) 0.3208(11)
N3 N 0.65295(12) 0.01078(11) 0.21340(8)
C22 C 0.62800(14) 0.14553(13) 0.17645(8)
C23 C 0.48732(14) 0.22030(13) 0.15393(9)
H25 H 0.4139(17) 0.1734(14) 0.1617(10)
C24 C 0.45497(14) 0.35626(13) 0.12090(9)
H26 H 0.3573(17) 0.4062(15) 0.1046(10)
C25 C 0.56149(15) 0.42115(13) 0.10916(9)
H27 H 0.5377(17) 0.5166(16) 0.0850(11)
C26 C 0.70112(15) 0.34729(13) 0.13160(9)
H28 H 0.7748(16) 0.3915(14) 0.1240(10)
C27 C 0.73512(14) 0.21109(13) 0.16514(9)
H29 H 0.8350(17) 0.1617(15) 0.1784(10)
C28 C 0.79746(14) -0.09451(12) 0.20337(9)
C29 C 0.92831(14) -0.09736(13) 0.12690(9)
H30 H 0.9212(17) -0.0215(15) 0.0788(11)
C30 C 1.06611(15) -0.20937(13) 0.11747(9)
H31 H 1.1540(18) -0.2087(15) 0.0614(11)
C31 C 1.07754(15) -0.31975(13) 0.18328(9)
H32 H 1.1737(18) -0.3975(15) 0.1764(10)
C32 C 0.94842(15) -0.31773(13) 0.25922(9)
H33 H 0.9555(17) -0.3952(15) 0.3066(11)
C33 C 0.80993(14) -0.20584(13) 0.26976(9)
H34 H 0.7207(17) -0.2044(14) 0.3231(11)
H35 H 0.571(2) -0.0149(17) 0.2439(12)
loop_
_geom_bond_atom_site_label_1
_geom_bond_atom_site_label_2
_geom_bond_site_symmetry_1
_geom_bond_site_symmetry_2
C1 N1 1_555 1_555
C2 H1 1_555 1_555
C3 C2 1_555 1_555
H2 C3 1_555 1_555
N1 C2 1_555 1_555
N2 C1 1_555 1_555
C4 N1 1_555 1_555
C5 C4 1_555 1_555
C6 C5 1_555 1_555
H3 C6 1_555 1_555
C7 C6 1_555 1_555
C8 C7 1_555 1_555
H4 C8 1_555 1_555
C9 C4 1_555 1_555
C10 C5 1_555 1_555
H5 C10 1_555 1_555
H6 C10 1_555 1_555
H7 C10 1_555 1_555
C11 C7 1_555 1_555
H8 C11 1_555 1_555
H9 C11 1_555 1_555
H10 C11 1_555 1_555
C12 C9 1_555 1_555
H11 C12 1_555 1_555
H12 C12 1_555 1_555
H13 C12 1_555 1_555
C13 N2 1_555 1_555
C14 C13 1_555 1_555
C15 C14 1_555 1_555
H14 C15 1_555 1_555
C16 C15 1_555 1_555
C17 C16 1_555 1_555
H15 C17 1_555 1_555
C18 C13 1_555 1_555
C19 C14 1_555 1_555
H16 C19 1_555 1_555
H17 C19 1_555 1_555
H18 C19 1_555 1_555
C20 C16 1_555 1_555
H19 C20 1_555 1_555
H20 C20 1_555 1_555
H21 C20 1_555 1_555
C21 C18 1_555 1_555
H22 C21 1_555 1_555
H23 C21 1_555 1_555
H24 C21 1_555 1_555
N3 C22 1_555 1_555
C22 C23 1_555 1_555
C23 H25 1_555 1_555
C24 C23 1_555 1_555
H26 C24 1_555 1_555
C25 C24 1_555 1_555
H27 C25 1_555 1_555
C26 C25 1_555 1_555
H28 C26 1_555 1_555
C27 C22 1_555 1_555
H29 C27 1_555 1_555
C28 N3 1_555 1_555
C29 C28 1_555 1_555
H30 C29 1_555 1_555
C30 C29 1_555 1_555
H31 C30 1_555 1_555
C31 C30 1_555 1_555
H32 C31 1_555 1_555
C32 C31 1_555 1_555
H33 C32 1_555 1_555
C33 C28 1_555 1_555
H34 C33 1_555 1_555
H35 N3 1_555 1_555
C3 N2 1_555 1_555
C8 C9 1_555 1_555
C17 C18 1_555 1_555
C26 C27 1_555 1_555
C32 C33 1_555 1_555

#END
