
#######################################################################
#
#                 Cambridge Crystallographic Data Centre
#                                CCDC 
#
#######################################################################
#
# If this CIF has been generated from an entry in the Cambridge 
# Structural Database, then it will include bibliographic, chemical, 
# crystal, experimental, refinement or atomic coordinate data resulting 
# from the CCDC's data processing and validation procedures.
#
#######################################################################

data_MODWAE
_chemical_formula_moiety         'C34 H54 Br2 N2 O6'
_chemical_name_systematic        
3,3'-Dibromo-5,5'-bis((S)-l-menthyloxy)-4,4'-(hexane-1,6-diyldiimino)difuran-2(5H)-one
_symmetry_cell_setting           triclinic
_symmetry_space_group_name_H-M   'P 1'
_symmetry_Int_Tables_number      1
_space_group_name_Hall           'P 1'
loop_
_symmetry_equiv_pos_site_id
_symmetry_equiv_pos_as_xyz
1 x,y,z
_cell_length_a                   8.2302(2)
_cell_length_b                   9.1319(2)
_cell_length_c                   12.7193(3)
_cell_angle_alpha                105.0370(10)
_cell_angle_beta                 93.214(2)
_cell_angle_gamma                100.499(2)
_cell_volume                     902.368
_exptl_crystal_colour            colorless
_exptl_crystal_description       block
_cell_formula_units_Z            1
_exptl_crystal_recrystallization_method acetone
loop_
_atom_site_label
_atom_site_type_symbol
_atom_site_fract_x
_atom_site_fract_y
_atom_site_fract_z
Br1 Br 0.81496(5) 0.16597(5) 0.19540(3)
Br2 Br -0.34832(6) -0.19512(5) -0.08054(3)
O1 O 0.6471(4) 0.2464(3) 0.5844(3)
O2 O 0.9096(4) 0.2804(4) 0.5257(2)
O3 O 1.0762(5) 0.1927(5) 0.4010(4)
O4 O -0.1811(4) -0.2781(3) -0.4703(3)
O5 O -0.3972(4) -0.1676(3) -0.3926(2)
O6 O -0.5937(5) -0.1698(4) -0.2778(3)
N1 N 0.5276(5) 0.2891(4) 0.3820(3)
H1 H 0.4719 0.3169 0.4363
N2 N -0.0273(5) -0.2212(4) -0.2574(3)
H2 H 0.0307 -0.2360 -0.3120
C1 C 0.3035(7) 0.4220(6) 0.6869(6)
H3 H 0.2956 0.4654 0.7633
H4 H 0.2016 0.4191 0.6451
H5 H 0.3938 0.4848 0.6640
C2 C 0.3345(6) 0.2579(5) 0.6683(4)
H6 H 0.3483 0.2190 0.5907
C3 C 0.1811(6) 0.1539(6) 0.6920(4)
H7 H 0.2041 0.0533 0.6877
H8 H 0.0892 0.1444 0.6390
H9 H 0.1536 0.1987 0.7641
C4 C 0.4919(6) 0.2472(5) 0.7355(4)
H10 H 0.4936 0.1367 0.7207
C5 C 0.4948(7) 0.3092(6) 0.8604(4)
H11 H 0.4883 0.4177 0.8783
H12 H 0.3976 0.2537 0.8837
C6 C 0.6485(9) 0.2925(7) 0.9225(5)
H13 H 0.6451 0.3364 1.0003
H14 H 0.6497 0.1834 0.9103
C7 C 0.8034(5) 0.3711(5) 0.8886(3)
H15 H 0.8011 0.4816 0.9046
C8 C 0.9614(8) 0.3565(7) 0.9516(5)
H16 H 0.9573 0.3971 1.0288
H17 H 1.0570 0.4137 0.9296
H18 H 0.9688 0.2494 0.9359
C9 C 0.8047(6) 0.3094(5) 0.7646(4)
H19 H 0.9017 0.3668 0.7424
H20 H 0.8141 0.2016 0.7473
C10 C 0.6510(5) 0.3221(5) 0.6998(3)
H21 H 0.6504 0.4319 0.7090
C11 C 0.7495(5) 0.3225(5) 0.5261(3)
H22 H 0.7621 0.4347 0.5558
C12 C 0.9450(7) 0.2278(6) 0.4195(4)
C13 C 0.8051(7) 0.2291(5) 0.3483(4)
C14 C 0.6817(6) 0.2727(5) 0.4052(3)
C15 C 0.4440(7) 0.2641(5) 0.2717(4)
H23 H 0.5250 0.3006 0.2268
H24 H 0.3600 0.3269 0.2771
C16 C 0.3626(6) 0.0992(5) 0.2142(4)
H25 H 0.2760 0.0628 0.2555
H26 H 0.4442 0.0340 0.2097
C17 C 0.2882(7) 0.0881(6) 0.1000(4)
H27 H 0.2092 0.1560 0.1062
H28 H 0.3764 0.1267 0.0605
C18 C 0.2019(7) -0.0710(5) 0.0330(4)
H29 H 0.1150 -0.1118 0.0723
H30 H 0.2811 -0.1388 0.0232
C19 C 0.1264(8) -0.0707(6) -0.0781(4)
H31 H 0.0414 -0.0088 -0.0677
H32 H 0.2120 -0.0212 -0.1142
C20 C 0.0509(7) -0.2275(6) -0.1513(4)
H33 H 0.1363 -0.2885 -0.1648
H34 H -0.0324 -0.2790 -0.1147
C21 C -0.1792(6) -0.1947(5) -0.2765(3)
C22 C -0.3149(6) -0.1883(5) -0.2240(4)
C23 C -0.4531(7) -0.1733(5) -0.2942(4)
C24 C -0.2224(5) -0.1659(4) -0.3874(3)
H35 H -0.1615 -0.0637 -0.3886
C25 C -0.1587(5) -0.2389(5) -0.5739(3)
H36 H -0.1167 -0.1271 -0.5583
C26 C -0.3272(6) -0.2820(5) -0.6436(4)
H37 H -0.3776 -0.3886 -0.6487
H38 H -0.3998 -0.2169 -0.6074
C27 C -0.3136(6) -0.2637(5) -0.7591(3)
H39 H -0.2764 -0.1533 -0.7531
C28 C -0.4850(7) -0.3194(8) -0.8265(4)
H40 H -0.4754 -0.3079 -0.8989
H41 H -0.5608 -0.2588 -0.7918
H42 H -0.5258 -0.4265 -0.8308
C29 C -0.1843(9) -0.3484(8) -0.8117(5)
H43 H -0.1695 -0.3286 -0.8823
H44 H -0.2236 -0.4589 -0.8242
C30 C -0.0177(7) -0.2986(7) -0.7412(4)
H45 H 0.0262 -0.1900 -0.7341
H46 H 0.0600 -0.3576 -0.7773
C31 C -0.0318(6) -0.3223(5) -0.6278(4)
H47 H -0.0756 -0.4330 -0.6387
C32 C 0.1388(6) -0.2838(6) -0.5590(5)
H48 H 0.1153 -0.2782 -0.4835
C33 C 0.2355(8) -0.4138(7) -0.5922(6)
H49 H 0.2692 -0.4188 -0.6639
H50 H 0.1659 -0.5107 -0.5930
H51 H 0.3320 -0.3933 -0.5406
C34 C 0.2432(7) -0.1293(6) -0.5557(5)
H52 H 0.2826 -0.1333 -0.6258
H53 H 0.3362 -0.1044 -0.5007
H54 H 0.1774 -0.0512 -0.5384
loop_
_geom_bond_atom_site_label_1
_geom_bond_atom_site_label_2
_geom_bond_site_symmetry_1
_geom_bond_site_symmetry_2
Br1 C13 1_555 1_555
Br2 C22 1_555 1_555
O1 C10 1_555 1_555
O2 C11 1_555 1_555
O3 C12 1_555 1_555
O4 C24 1_555 1_555
O5 C23 1_555 1_555
O6 C23 1_555 1_555
N1 H1 1_555 1_555
N2 H2 1_555 1_555
C1 H3 1_555 1_555
H4 C1 1_555 1_555
H5 C1 1_555 1_555
C2 C1 1_555 1_555
H6 C2 1_555 1_555
C3 C2 1_555 1_555
H7 C3 1_555 1_555
H8 C3 1_555 1_555
H9 C3 1_555 1_555
C4 C2 1_555 1_555
H10 C4 1_555 1_555
C5 C4 1_555 1_555
H11 C5 1_555 1_555
H12 C5 1_555 1_555
C6 C5 1_555 1_555
H13 C6 1_555 1_555
H14 C6 1_555 1_555
C7 C6 1_555 1_555
H15 C7 1_555 1_555
C8 C7 1_555 1_555
H16 C8 1_555 1_555
H17 C8 1_555 1_555
H18 C8 1_555 1_555
C9 C7 1_555 1_555
H19 C9 1_555 1_555
H20 C9 1_555 1_555
C10 C4 1_555 1_555
H21 C10 1_555 1_555
C11 O1 1_555 1_555
H22 C11 1_555 1_555
C12 O2 1_555 1_555
C13 C12 1_555 1_555
C14 N1 1_555 1_555
C15 N1 1_555 1_555
H23 C15 1_555 1_555
H24 C15 1_555 1_555
C16 C15 1_555 1_555
H25 C16 1_555 1_555
H26 C16 1_555 1_555
C17 C16 1_555 1_555
H27 C17 1_555 1_555
H28 C17 1_555 1_555
C18 C17 1_555 1_555
H29 C18 1_555 1_555
H30 C18 1_555 1_555
C19 C18 1_555 1_555
H31 C19 1_555 1_555
H32 C19 1_555 1_555
C20 N2 1_555 1_555
H33 C20 1_555 1_555
H34 C20 1_555 1_555
C21 N2 1_555 1_555
C22 C21 1_555 1_555
C23 C22 1_555 1_555
C24 O5 1_555 1_555
H35 C24 1_555 1_555
C25 O4 1_555 1_555
H36 C25 1_555 1_555
C26 C25 1_555 1_555
H37 C26 1_555 1_555
H38 C26 1_555 1_555
C27 C26 1_555 1_555
H39 C27 1_555 1_555
C28 C27 1_555 1_555
H40 C28 1_555 1_555
H41 C28 1_555 1_555
H42 C28 1_555 1_555
C29 C27 1_555 1_555
H43 C29 1_555 1_555
H44 C29 1_555 1_555
C30 C29 1_555 1_555
H45 C30 1_555 1_555
H46 C30 1_555 1_555
C31 C25 1_555 1_555
H47 C31 1_555 1_555
C32 C31 1_555 1_555
H48 C32 1_555 1_555
C33 C32 1_555 1_555
H49 C33 1_555 1_555
H50 C33 1_555 1_555
H51 C33 1_555 1_555
C34 C32 1_555 1_555
H52 C34 1_555 1_555
H53 C34 1_555 1_555
H54 C34 1_555 1_555
C9 C10 1_555 1_555
C11 C14 1_555 1_555
C13 C14 1_555 1_555
C19 C20 1_555 1_555
C21 C24 1_555 1_555
C30 C31 1_555 1_555

#END
