
#######################################################################
#
#                 Cambridge Crystallographic Data Centre
#                                CCDC 
#
#######################################################################
#
# If this CIF has been generated from an entry in the Cambridge 
# Structural Database, then it will include bibliographic, chemical, 
# crystal, experimental, refinement or atomic coordinate data resulting 
# from the CCDC's data processing and validation procedures.
#
#######################################################################

data_MODXOT
_chemical_formula_moiety         'C25 H25 N1 O2'
_chemical_name_systematic        
3-(4-(Dimethylamino)phenyl)-1,5-diphenylpentane-1,5-dione
_symmetry_cell_setting           triclinic
_symmetry_space_group_name_H-M   'P -1'
_symmetry_Int_Tables_number      2
_space_group_name_Hall           '-P 1'
loop_
_symmetry_equiv_pos_site_id
_symmetry_equiv_pos_as_xyz
1 x,y,z
2 -x,-y,-z
_cell_length_a                   9.9260(10)
_cell_length_b                   11.3749(14)
_cell_length_c                   18.853(2)
_cell_angle_alpha                90.4430(10)
_cell_angle_beta                 94.7820(10)
_cell_angle_gamma                99.862(2)
_cell_volume                     2089.36
_exptl_crystal_colour            orange
_exptl_crystal_description       needle
_cell_formula_units_Z            4
_exptl_crystal_recrystallization_method ethanol
loop_
_atom_site_label
_atom_site_type_symbol
_atom_site_fract_x
_atom_site_fract_y
_atom_site_fract_z
N1 N -0.2518(3) 0.1016(2) 0.07384(14)
O1 O 0.3269(2) 0.29812(16) 0.24964(10)
O2 O 0.3520(2) 0.69008(17) 0.22151(11)
C1 C 0.1699(3) 0.4704(2) 0.20068(15)
H1 H 0.2518 0.4698 0.1751
C2 C 0.0584(3) 0.3716(2) 0.16849(15)
C3 C -0.0406(3) 0.3083(2) 0.20687(15)
H2 H -0.0384 0.3247 0.2554
C4 C -0.1433(3) 0.2212(2) 0.17590(15)
H3 H -0.2084 0.1811 0.2039
C5 C -0.1514(3) 0.1923(2) 0.10427(15)
C6 C -0.0526(3) 0.2565(3) 0.06505(15)
H4 H -0.0549 0.2408 0.0164
C7 C 0.0484(3) 0.3429(3) 0.09681(15)
H5 H 0.1129 0.3839 0.0688
C8 C -0.2579(4) 0.0717(3) 0.00048(18)
H6 H -0.2723 0.1397 -0.0271
H7 H -0.3322 0.0068 -0.0112
H8 H -0.1731 0.0483 -0.0100
C9 C -0.3612(3) 0.0485(3) 0.11383(19)
H9 H -0.3261 0.0017 0.1509
H10 H -0.4293 -0.0020 0.0830
H11 H -0.4018 0.1099 0.1345
C10 C 0.2091(3) 0.4528(2) 0.27920(14)
H12 H 0.2778 0.5200 0.2969
H13 H 0.1288 0.4524 0.3053
C11 C 0.2644(3) 0.3393(2) 0.29382(15)
C12 C 0.2454(3) 0.2790(3) 0.36266(14)
C13 C 0.2109(3) 0.3365(3) 0.42188(16)
H14 H 0.1970 0.4152 0.4188
C14 C 0.1968(3) 0.2784(4) 0.48502(18)
H15 H 0.1761 0.3180 0.5250
C15 C 0.2138(4) 0.1613(4) 0.48865(19)
H16 H 0.2028 0.1211 0.5311
C16 C 0.2465(4) 0.1033(3) 0.4305(2)
H17 H 0.2574 0.0238 0.4334
C17 C 0.2635(3) 0.1622(3) 0.36776(17)
H18 H 0.2873 0.1229 0.3285
C18 C 0.1245(3) 0.5911(2) 0.18845(16)
H19 H 0.0851 0.5922 0.1397
H20 H 0.0524 0.5976 0.2192
C19 C 0.2346(3) 0.6992(2) 0.20144(15)
C20 C 0.1967(3) 0.8179(2) 0.18730(14)
C21 C 0.2981(3) 0.9170(3) 0.19303(14)
H21 H 0.3884 0.9077 0.2049
C22 C 0.2693(4) 1.0295(3) 0.18159(17)
H22 H 0.3398 1.0952 0.1851
C23 C 0.1376(5) 1.0446(3) 0.16508(18)
H23 H 0.1175 1.1209 0.1584
C24 C 0.0341(4) 0.9469(3) 0.15827(19)
H24 H -0.0560 0.9570 0.1464
C25 C 0.0640(3) 0.8339(3) 0.16907(17)
H25 H -0.0062 0.7680 0.1640
N2 N 0.7107(3) 0.3289(3) 0.54492(15)
O3 O 0.9223(2) 0.7410(2) 0.31919(13)
O4 O 0.7803(2) 0.5520(2) 0.12546(11)
C26 C 0.7350(3) 0.5403(3) 0.26971(15)
H26 H 0.8298 0.5466 0.2572
C27 C 0.7282(3) 0.4872(2) 0.34239(16)
C28 C 0.8433(3) 0.4613(2) 0.38126(17)
H27 H 0.9278 0.4806 0.3624
C29 C 0.8387(3) 0.4083(3) 0.44654(17)
H28 H 0.9193 0.3921 0.4701
C30 C 0.7166(3) 0.3785(3) 0.47788(17)
C31 C 0.6001(3) 0.4050(3) 0.43978(17)
H29 H 0.5155 0.3865 0.4586
C32 C 0.6080(3) 0.4582(3) 0.37451(17)
H30 H 0.5278 0.4753 0.3509
C33 C 0.8266(4) 0.2791(3) 0.57485(19)
H31 H 0.8411 0.2150 0.5446
H32 H 0.8089 0.2494 0.6213
H33 H 0.9071 0.3399 0.5786
C34 C 0.5808(4) 0.2732(4) 0.5674(2)
H34 H 0.5191 0.3297 0.5657
H35 H 0.5934 0.2463 0.6153
H36 H 0.5430 0.2062 0.5364
C35 C 0.6987(3) 0.6660(3) 0.26728(16)
H37 H 0.6814 0.6865 0.2179
H38 H 0.6145 0.6651 0.2900
C36 C 0.8079(3) 0.7616(3) 0.30282(15)
C37 C 0.7755(4) 0.8824(3) 0.31653(14)
C38 C 0.8810(4) 0.9747(3) 0.33986(16)
H39 H 0.9710 0.9610 0.3442
C39 C 0.8547(5) 1.0854(3) 0.35654(18)
H40 H 0.9265 1.1458 0.3724
C40 C 0.7232(5) 1.1073(3) 0.34998(19)
H41 H 0.7055 1.1824 0.3619
C41 C 0.6170(4) 1.0184(4) 0.32569(19)
H42 H 0.5274 1.0332 0.3206
C42 C 0.6445(4) 0.9068(3) 0.30883(16)
H43 H 0.5726 0.8470 0.2919
C43 C 0.6433(3) 0.4592(3) 0.21342(14)
H44 H 0.6464 0.3768 0.2251
H45 H 0.5494 0.4715 0.2156
C44 C 0.6818(3) 0.4790(3) 0.13862(16)
C45 C 0.5958(4) 0.4051(3) 0.07981(15)
C46 C 0.4716(4) 0.3347(3) 0.09015(16)
H46 H 0.4407 0.3293 0.1354
C47 C 0.3927(4) 0.2721(3) 0.0337(2)
H47 H 0.3092 0.2247 0.0411
C48 C 0.4374(5) 0.2799(3) -0.0329(2)
H48 H 0.3836 0.2386 -0.0709
C49 C 0.5601(5) 0.3476(4) -0.0439(2)
H49 H 0.5902 0.3514 -0.0893
C50 C 0.6408(4) 0.4110(3) 0.01199(19)
H50 H 0.7247 0.4572 0.0041
loop_
_geom_bond_atom_site_label_1
_geom_bond_atom_site_label_2
_geom_bond_site_symmetry_1
_geom_bond_site_symmetry_2
N1 C5 1_555 1_555
N2 C30 1_555 1_555
O1 C11 1_555 1_555
O2 C19 1_555 1_555
O3 C36 1_555 1_555
O4 C44 1_555 1_555
C1 H1 1_555 1_555
C2 C1 1_555 1_555
C3 C2 1_555 1_555
H2 C3 1_555 1_555
C4 C3 1_555 1_555
H3 C4 1_555 1_555
C5 C4 1_555 1_555
C6 C5 1_555 1_555
H4 C6 1_555 1_555
C7 C2 1_555 1_555
H5 C7 1_555 1_555
C8 N1 1_555 1_555
H6 C8 1_555 1_555
H7 C8 1_555 1_555
H8 C8 1_555 1_555
C9 N1 1_555 1_555
H9 C9 1_555 1_555
H10 C9 1_555 1_555
H11 C9 1_555 1_555
C10 C1 1_555 1_555
H12 C10 1_555 1_555
H13 C10 1_555 1_555
C11 C10 1_555 1_555
C12 C11 1_555 1_555
C13 C12 1_555 1_555
H14 C13 1_555 1_555
C14 C13 1_555 1_555
H15 C14 1_555 1_555
C15 C14 1_555 1_555
H16 C15 1_555 1_555
C16 C15 1_555 1_555
H17 C16 1_555 1_555
C17 C12 1_555 1_555
H18 C17 1_555 1_555
C18 C1 1_555 1_555
H19 C18 1_555 1_555
H20 C18 1_555 1_555
C19 C18 1_555 1_555
C20 C19 1_555 1_555
C21 C20 1_555 1_555
H21 C21 1_555 1_555
C22 C21 1_555 1_555
H22 C22 1_555 1_555
C23 C22 1_555 1_555
H23 C23 1_555 1_555
C24 C23 1_555 1_555
H24 C24 1_555 1_555
C25 C20 1_555 1_555
H25 C25 1_555 1_555
C26 H26 1_555 1_555
C27 C26 1_555 1_555
C28 C27 1_555 1_555
H27 C28 1_555 1_555
C29 C28 1_555 1_555
H28 C29 1_555 1_555
C30 C29 1_555 1_555
C31 C30 1_555 1_555
H29 C31 1_555 1_555
C32 C27 1_555 1_555
H30 C32 1_555 1_555
C33 N2 1_555 1_555
H31 C33 1_555 1_555
H32 C33 1_555 1_555
H33 C33 1_555 1_555
C34 N2 1_555 1_555
H34 C34 1_555 1_555
H35 C34 1_555 1_555
H36 C34 1_555 1_555
C35 C26 1_555 1_555
H37 C35 1_555 1_555
H38 C35 1_555 1_555
C36 C35 1_555 1_555
C37 C36 1_555 1_555
C38 C37 1_555 1_555
H39 C38 1_555 1_555
C39 C38 1_555 1_555
H40 C39 1_555 1_555
C40 C39 1_555 1_555
H41 C40 1_555 1_555
C41 C40 1_555 1_555
H42 C41 1_555 1_555
C42 C37 1_555 1_555
H43 C42 1_555 1_555
C43 C26 1_555 1_555
H44 C43 1_555 1_555
H45 C43 1_555 1_555
C44 C43 1_555 1_555
C45 C44 1_555 1_555
C46 C45 1_555 1_555
H46 C46 1_555 1_555
C47 C46 1_555 1_555
H47 C47 1_555 1_555
C48 C47 1_555 1_555
H48 C48 1_555 1_555
C49 C48 1_555 1_555
H49 C49 1_555 1_555
C50 C45 1_555 1_555
H50 C50 1_555 1_555
C6 C7 1_555 1_555
C16 C17 1_555 1_555
C24 C25 1_555 1_555
C31 C32 1_555 1_555
C41 C42 1_555 1_555
C49 C50 1_555 1_555

#END
