
#######################################################################
#
#                 Cambridge Crystallographic Data Centre
#                                CCDC 
#
#######################################################################
#
# If this CIF has been generated from an entry in the Cambridge 
# Structural Database, then it will include bibliographic, chemical, 
# crystal, experimental, refinement or atomic coordinate data resulting 
# from the CCDC's data processing and validation procedures.
#
#######################################################################

data_MOFCOA
_chemical_formula_moiety         'C14 H15 N1 O1'
_chemical_name_systematic        9-Ethyl-2,3-dihydro-9H-carbazol-4(1H)-one
_symmetry_cell_setting           monoclinic
_symmetry_space_group_name_H-M   'P 21/n'
_symmetry_Int_Tables_number      14
_space_group_name_Hall           '-P 2yn'
loop_
_symmetry_equiv_pos_site_id
_symmetry_equiv_pos_as_xyz
1 x,y,z
2 1/2-x,1/2+y,1/2-z
3 -x,-y,-z
4 1/2+x,1/2-y,1/2+z
_cell_length_a                   8.3742(6)
_cell_length_b                   17.033(1)
_cell_length_c                   8.6083(5)
_cell_angle_alpha                90
_cell_angle_beta                 116.432(3)
_cell_angle_gamma                90
_cell_volume                     1099.51
_exptl_crystal_colour            colorless
_exptl_crystal_description       block
_cell_formula_units_Z            4
_exptl_crystal_recrystallization_method ethanol
loop_
_atom_site_label
_atom_site_type_symbol
_atom_site_fract_x
_atom_site_fract_y
_atom_site_fract_z
C1 C 0.41850(18) 0.62548(8) 0.62150(18)
H1 H 0.5200 0.6388 0.7217
C2 C 0.3279(2) 0.68137(8) 0.4981(2)
H2 H 0.3685 0.7330 0.5160
C3 C 0.1766(2) 0.66211(9) 0.3472(2)
H3 H 0.1186 0.7011 0.2659
C4 C 0.11103(19) 0.58687(8) 0.31534(17)
H4 H 0.0102 0.5741 0.2140
C5 C 0.20092(16) 0.53077(8) 0.44009(15)
C6 C 0.35512(16) 0.54847(7) 0.59327(15)
C7 C 0.40707(16) 0.47683(7) 0.69054(15)
C8 C 0.55752(16) 0.45924(8) 0.85455(16)
C9 C 0.56815(19) 0.37540(9) 0.91598(19)
H5 H 0.6218 0.3752 1.0417
H6 H 0.6462 0.3461 0.8811
C10 C 0.38967(19) 0.33358(9) 0.84713(19)
H7 H 0.3178 0.3574 0.8970
H8 H 0.4091 0.2790 0.8832
C11 C 0.28888(19) 0.33744(8) 0.65050(19)
H9 H 0.3476 0.3049 0.5989
H10 H 0.1682 0.3182 0.6123
C12 C 0.28502(16) 0.42042(7) 0.59547(16)
C13 C 0.01251(17) 0.41064(8) 0.30768(17)
H11 H -0.0791 0.4483 0.2400
H12 H -0.0388 0.3740 0.3593
C14 C 0.0697(2) 0.36655(11) 0.1896(2)
H13 H 0.1250 0.4022 0.1418
H14 H -0.0326 0.3429 0.0973
H15 H 0.1534 0.3264 0.2543
N1 N 0.16080(13) 0.45195(6) 0.44527(13)
O1 O 0.67261(13) 0.50731(6) 0.93817(12)
loop_
_geom_bond_atom_site_label_1
_geom_bond_atom_site_label_2
_geom_bond_site_symmetry_1
_geom_bond_site_symmetry_2
C1 H1 1_555 1_555
C2 C1 1_555 1_555
H2 C2 1_555 1_555
C3 C2 1_555 1_555
H3 C3 1_555 1_555
C4 C3 1_555 1_555
H4 C4 1_555 1_555
C5 C4 1_555 1_555
C6 C1 1_555 1_555
C7 C6 1_555 1_555
C8 C7 1_555 1_555
C9 C8 1_555 1_555
H5 C9 1_555 1_555
H6 C9 1_555 1_555
C10 C9 1_555 1_555
H7 C10 1_555 1_555
H8 C10 1_555 1_555
C11 C10 1_555 1_555
H9 C11 1_555 1_555
H10 C11 1_555 1_555
C12 C7 1_555 1_555
C13 H11 1_555 1_555
H12 C13 1_555 1_555
C14 C13 1_555 1_555
H13 C14 1_555 1_555
H14 C14 1_555 1_555
H15 C14 1_555 1_555
N1 C5 1_555 1_555
O1 C8 1_555 1_555
C5 C6 1_555 1_555
C11 C12 1_555 1_555
C12 N1 1_555 1_555
C13 N1 1_555 1_555

#END
