
#######################################################################
#
#                 Cambridge Crystallographic Data Centre
#                                CCDC 
#
#######################################################################
#
# If this CIF has been generated from an entry in the Cambridge 
# Structural Database, then it will include bibliographic, chemical, 
# crystal, experimental, refinement or atomic coordinate data resulting 
# from the CCDC's data processing and validation procedures.
#
#######################################################################

data_MOFCAM
_chemical_formula_moiety         'C18 H18 Cl2 N2 O2'
_chemical_name_systematic        
(E,E)-2,2'-Dichloro-1,1'-((butane-1,4-diyldioxy)bis(nitrilomethylidyne))dibenzene
_symmetry_cell_setting           monoclinic
_symmetry_space_group_name_H-M   'P 21/n'
_symmetry_Int_Tables_number      14
_space_group_name_Hall           '-P 2yn'
loop_
_symmetry_equiv_pos_site_id
_symmetry_equiv_pos_as_xyz
1 x,y,z
2 1/2-x,1/2+y,1/2-z
3 -x,-y,-z
4 1/2+x,1/2-y,1/2+z
_cell_length_a                   4.5296(5)
_cell_length_b                   6.6231(8)
_cell_length_c                   29.963(2)
_cell_angle_alpha                90
_cell_angle_beta                 92.526(2)
_cell_angle_gamma                90
_cell_volume                     898.016
_exptl_crystal_colour            colorless
_exptl_crystal_description       needle
_chemical_melting_point          '334-335 K'
_cell_formula_units_Z            2
_exptl_crystal_recrystallization_method 'acetone/ethyl acetate'
loop_
_atom_site_label
_atom_site_type_symbol
_atom_site_fract_x
_atom_site_fract_y
_atom_site_fract_z
Cl1 Cl 0.8257(3) 0.7688(2) 0.71001(4)
N1 N 0.4408(7) 0.6370(5) 0.57897(10)
O1 O 0.2543(6) 0.7961(4) 0.56512(8)
C1 C 0.0979(8) 0.7356(6) 0.52466(11)
H1 H -0.0273 0.6204 0.5304
H2 H 0.2370 0.6968 0.5025
C2 C -0.0885(8) 0.9111(6) 0.50759(13)
H3 H -0.2160 0.8650 0.4828
H4 H -0.2141 0.9551 0.5311
C3 C 0.5650(8) 0.6708(6) 0.61688(12)
H5 H 0.5233 0.7892 0.6321
C4 C 0.7733(7) 0.5252(5) 0.63692(11)
C5 C 0.9101(8) 0.5566(6) 0.67866(12)
C6 C 1.1129(9) 0.4202(7) 0.69728(13)
H6 H 1.2038 0.4454 0.7252
C7 C 1.1776(10) 0.2505(8) 0.67465(16)
H7 H 1.3133 0.1587 0.6871
C8 C 1.0431(11) 0.2122(7) 0.63302(16)
H8 H 1.0867 0.0946 0.6177
C9 C 0.8444(9) 0.3496(6) 0.61452(12)
H9 H 0.7562 0.3241 0.5865
Cl1B Cl -0.8257(3) 1.2312(2) 0.28999(4)
N1B N -0.4408(7) 1.3630(5) 0.42103(10)
O1B O -0.2543(6) 1.2039(4) 0.43488(8)
C1B C -0.0979(8) 1.2644(6) 0.47534(11)
H1B H 0.0273 1.3796 0.4696
H2B H -0.2370 1.3032 0.4975
C2B C 0.0885(8) 1.0889(6) 0.49241(13)
H3B H 0.2160 1.1350 0.5172
H4B H 0.2141 1.0449 0.4689
C3B C -0.5650(8) 1.3292(6) 0.38312(12)
H5B H -0.5233 1.2108 0.3679
C4B C -0.7733(7) 1.4748(5) 0.36308(11)
C5B C -0.9101(8) 1.4434(6) 0.32134(12)
C6B C -1.1129(9) 1.5798(7) 0.30272(13)
H6B H -1.2038 1.5546 0.2748
C7B C -1.1776(10) 1.7495(8) 0.32535(16)
H7B H -1.3133 1.8413 0.3129
C8B C -1.0431(11) 1.7878(7) 0.36698(16)
H8B H -1.0867 1.9054 0.3823
C9B C -0.8444(9) 1.6504(6) 0.38548(12)
H9B H -0.7562 1.6759 0.4135
loop_
_geom_bond_atom_site_label_1
_geom_bond_atom_site_label_2
_geom_bond_site_symmetry_1
_geom_bond_site_symmetry_2
Cl1 C5 1_555 1_555
N1 O1 1_555 1_555
O1 C1 1_555 1_555
C1 H1 1_555 1_555
H2 C1 1_555 1_555
C2 C1 1_555 1_555
H3 C2 1_555 1_555
H4 C2 1_555 1_555
C3 N1 1_555 1_555
H5 C3 1_555 1_555
C4 C3 1_555 1_555
C5 C4 1_555 1_555
C6 C5 1_555 1_555
H6 C6 1_555 1_555
C7 C6 1_555 1_555
H7 C7 1_555 1_555
C8 C7 1_555 1_555
H8 C8 1_555 1_555
C9 C4 1_555 1_555
H9 C9 1_555 1_555
Cl1B C5B 1_555 1_555
N1B O1B 1_555 1_555
O1B C1B 1_555 1_555
C1B H1B 1_555 1_555
H2B C1B 1_555 1_555
C2B C2 1_555 1_555
H3B C2B 1_555 1_555
H4B C2B 1_555 1_555
C3B N1B 1_555 1_555
H5B C3B 1_555 1_555
C4B C3B 1_555 1_555
C5B C4B 1_555 1_555
C6B C5B 1_555 1_555
H6B C6B 1_555 1_555
C7B C6B 1_555 1_555
H7B C7B 1_555 1_555
C8B C7B 1_555 1_555
H8B C8B 1_555 1_555
C9B C4B 1_555 1_555
H9B C9B 1_555 1_555
C8 C9 1_555 1_555
C1B C2B 1_555 1_555
C8B C9B 1_555 1_555

#END
