
#######################################################################
#
#                 Cambridge Crystallographic Data Centre
#                                CCDC 
#
#######################################################################
#
# If this CIF has been generated from an entry in the Cambridge 
# Structural Database, then it will include bibliographic, chemical, 
# crystal, experimental, refinement or atomic coordinate data resulting 
# from the CCDC's data processing and validation procedures.
#
#######################################################################

data_MOFDUH
_chemical_formula_moiety         'C28 H26 O4 Si1'
_chemical_name_systematic        
cis-2,4-Diphenyl-2-(trimethylsiloxy)-3,4-dihydro-2H-naphtho(2,3-b)pyran-5,10-dione
_symmetry_cell_setting           triclinic
_symmetry_space_group_name_H-M   'P -1'
_symmetry_Int_Tables_number      2
_space_group_name_Hall           '-P 1'
loop_
_symmetry_equiv_pos_site_id
_symmetry_equiv_pos_as_xyz
1 x,y,z
2 -x,-y,-z
_cell_length_a                   8.4830(17)
_cell_length_b                   12.083(2)
_cell_length_c                   12.356(3)
_cell_angle_alpha                89.28(2)
_cell_angle_beta                 82.22(3)
_cell_angle_gamma                76.34(3)
_cell_volume                     1219.09
_exptl_crystal_colour            colorless
_exptl_crystal_description       block
_chemical_melting_point          180-181deg.C
_cell_formula_units_Z            2
loop_
_atom_site_label
_atom_site_type_symbol
_atom_site_fract_x
_atom_site_fract_y
_atom_site_fract_z
Si1 Si 0.47970(8) 0.05990(6) 0.23261(6)
O1 O 0.30964(18) 0.13126(13) 0.18509(13)
O2 O 0.1460(2) 0.20472(14) 0.34475(13)
O3 O 0.2128(3) 0.2750(2) 0.52943(16)
O4 O 0.1297(3) 0.57534(16) 0.21194(18)
C1 C 0.2826(8) 0.3569(4) -0.1334(3)
H1 H 0.2471 0.3564 -0.2014
C2 C 0.1762(5) 0.3579(3) -0.0417(3)
H2 H 0.0676 0.3591 -0.0474
C3 C 0.2251(4) 0.3572(2) 0.0606(2)
C4 C 0.3862(4) 0.3575(3) 0.0682(3)
H3 H 0.4208 0.3577 0.1364
C5 C 0.4971(5) 0.3574(3) -0.0264(4)
H4 H 0.6054 0.3579 -0.0218
C6 C 0.4431(8) 0.3565(4) -0.1273(3)
H5 H 0.5158 0.3557 -0.1910
C7 C 0.0979(3) 0.3567(2) 0.1594(2)
H6 H 0.0008 0.4155 0.1470
C8 C 0.0429(3) 0.2441(2) 0.1712(2)
H7 H -0.0696 0.2596 0.2065
H8 H 0.0461 0.2123 0.0990
C9 C 0.1488(3) 0.1570(2) 0.23669(19)
C10 C 0.5570(5) 0.1604(4) 0.3107(5)
H9 H 0.5756 0.2220 0.2648
H10 H 0.6578 0.1215 0.3353
H11 H 0.4776 0.1900 0.3728
C11 C 0.4474(5) -0.0570(3) 0.3219(4)
H12 H 0.4082 -0.1105 0.2823
H13 H 0.3682 -0.0273 0.3839
H14 H 0.5490 -0.0946 0.3463
C12 C 0.6236(5) 0.0113(5) 0.1103(3)
H15 H 0.5826 -0.0399 0.0690
H16 H 0.7275 -0.0274 0.1306
H17 H 0.6367 0.0757 0.0666
C13 C 0.0814(3) 0.05095(19) 0.2544(2)
C14 C 0.1104(3) -0.0266(2) 0.1682(2)
H18 H 0.1709 -0.0135 0.1028
C15 C 0.0499(4) -0.1235(2) 0.1791(3)
H19 H 0.0704 -0.1755 0.1211
C16 C -0.0406(3) -0.1432(2) 0.2755(2)
H20 H -0.0814 -0.2084 0.2827
C17 C -0.0700(3) -0.0667(2) 0.3601(2)
H21 H -0.1310 -0.0801 0.4252
C18 C -0.0102(3) 0.0311(2) 0.3505(2)
H22 H -0.0318 0.0829 0.4087
C19 C 0.1609(3) 0.31401(19) 0.3487(2)
C20 C 0.2004(3) 0.3431(2) 0.4571(2)
C21 C 0.2282(3) 0.4590(2) 0.4709(2)
C22 C 0.2751(4) 0.4886(3) 0.5674(2)
H23 H 0.2872 0.4370 0.6239
C23 C 0.3040(4) 0.5956(3) 0.5794(3)
H24 H 0.3366 0.6156 0.6439
C24 C 0.2847(4) 0.6724(3) 0.4966(3)
H25 H 0.3030 0.7444 0.5058
C25 C 0.2388(4) 0.6439(2) 0.4002(3)
H26 H 0.2271 0.6960 0.3441
C26 C 0.2097(3) 0.5363(2) 0.3871(2)
C27 C 0.1587(3) 0.5053(2) 0.2831(2)
C28 C 0.1438(3) 0.3873(2) 0.2663(2)
loop_
_geom_bond_atom_site_label_1
_geom_bond_atom_site_label_2
_geom_bond_site_symmetry_1
_geom_bond_site_symmetry_2
Si1 O1 1_555 1_555
O1 C9 1_555 1_555
O2 C9 1_555 1_555
O3 C20 1_555 1_555
O4 C27 1_555 1_555
C1 H1 1_555 1_555
C2 C1 1_555 1_555
H2 C2 1_555 1_555
C3 C2 1_555 1_555
C4 C3 1_555 1_555
H3 C4 1_555 1_555
C5 C4 1_555 1_555
H4 C5 1_555 1_555
C6 C1 1_555 1_555
H5 C6 1_555 1_555
C7 C3 1_555 1_555
H6 C7 1_555 1_555
C8 C7 1_555 1_555
H7 C8 1_555 1_555
H8 C8 1_555 1_555
C9 C8 1_555 1_555
C10 Si1 1_555 1_555
H9 C10 1_555 1_555
H10 C10 1_555 1_555
H11 C10 1_555 1_555
C11 Si1 1_555 1_555
H12 C11 1_555 1_555
H13 C11 1_555 1_555
H14 C11 1_555 1_555
C12 Si1 1_555 1_555
H15 C12 1_555 1_555
H16 C12 1_555 1_555
H17 C12 1_555 1_555
C13 C9 1_555 1_555
C14 C13 1_555 1_555
H18 C14 1_555 1_555
C15 C14 1_555 1_555
H19 C15 1_555 1_555
C16 C15 1_555 1_555
H20 C16 1_555 1_555
C17 C16 1_555 1_555
H21 C17 1_555 1_555
C18 C13 1_555 1_555
H22 C18 1_555 1_555
C19 O2 1_555 1_555
C20 C19 1_555 1_555
C21 C20 1_555 1_555
C22 C21 1_555 1_555
H23 C22 1_555 1_555
C23 C22 1_555 1_555
H24 C23 1_555 1_555
C24 C23 1_555 1_555
H25 C24 1_555 1_555
C25 C24 1_555 1_555
H26 C25 1_555 1_555
C26 C21 1_555 1_555
C27 C26 1_555 1_555
C28 C7 1_555 1_555
C5 C6 1_555 1_555
C17 C18 1_555 1_555
C19 C28 1_555 1_555
C25 C26 1_555 1_555
C27 C28 1_555 1_555

#END
