
#######################################################################
#
#                 Cambridge Crystallographic Data Centre
#                                CCDC 
#
#######################################################################
#
# If this CIF has been generated from an entry in the Cambridge 
# Structural Database, then it will include bibliographic, chemical, 
# crystal, experimental, refinement or atomic coordinate data resulting 
# from the CCDC's data processing and validation procedures.
#
#######################################################################

data_MOFFET
_chemical_formula_moiety         'C16 H38 N4 2+,2(Cl1 1-),3(H2 O1)'
_chemical_name_systematic        
'meso-5,7,7,12,14,14-Hexamethyl-4,11-diaza-1,8-diazoniacyclotetradecane dichloride trihydrate'
_symmetry_cell_setting           triclinic
_symmetry_space_group_name_H-M   'P -1'
_symmetry_Int_Tables_number      2
_space_group_name_Hall           '-P 1'
loop_
_symmetry_equiv_pos_site_id
_symmetry_equiv_pos_as_xyz
1 x,y,z
2 -x,-y,-z
_cell_length_a                   7.8364(16)
_cell_length_b                   8.3607(13)
_cell_length_c                   9.4762(15)
_cell_angle_alpha                61.900(12)
_cell_angle_beta                 78.970(16)
_cell_angle_gamma                80.008(16)
_cell_volume                     535.061
_cell_formula_units_Z            1
loop_
_atom_site_label
_atom_site_type_symbol
_atom_site_fract_x
_atom_site_fract_y
_atom_site_fract_z
Cl1 Cl 0.3261(1) 0.3243(1) 0.2650(1)
O1 O 0.5000 0.5000 0.5000
O2 O 0.4128(4) 0.7120(3) 0.0228(3)
N1 N 0.6085(3) 0.6825(3) 0.2645(3)
N2 N 0.6494(3) 0.3093(3) 0.4613(3)
C1 C 0.8015(4) 0.6624(4) 0.2063(4)
C2 C 0.8359(4) 0.4769(4) 0.2046(3)
C3 C 0.8236(4) 0.3066(4) 0.3672(3)
C4 C 0.5401(4) 0.8480(4) 0.2864(4)
C5 C 0.6453(4) 0.1676(4) 0.6304(4)
C6 C 0.8400(5) 0.8151(5) 0.0341(4)
C7 C 0.9080(4) 0.6717(5) 0.3211(4)
C8 C 0.8662(5) 0.1378(4) 0.3379(4)
N1A N 0.3915(3) 0.3175(3) 0.7355(3)
N2A N 0.3506(3) 0.6907(3) 0.5387(3)
C1A C 0.1985(4) 0.3376(4) 0.7937(4)
C2A C 0.1641(4) 0.5231(4) 0.7954(3)
C3A C 0.1764(4) 0.6934(4) 0.6328(3)
C4A C 0.4599(4) 0.1520(4) 0.7136(4)
C5A C 0.3547(4) 0.8324(4) 0.3696(4)
C6A C 0.1600(5) 0.1849(5) 0.9659(4)
C7A C 0.0920(4) 0.3283(5) 0.6789(4)
C8A C 0.1338(5) 0.8622(4) 0.6621(4)
loop_
_geom_bond_atom_site_label_1
_geom_bond_atom_site_label_2
_geom_bond_site_symmetry_1
_geom_bond_site_symmetry_2
N1 C1 1_555 1_555
N2 C3 1_555 1_555
C1 C2 1_555 1_555
C2 C3 1_555 1_555
C3 C8 1_555 1_555
C4 N1 1_555 1_555
C5 N2 1_555 1_555
C6 C1 1_555 1_555
C7 C1 1_555 1_555
N1A C1A 1_555 1_555
N2A C3A 1_555 1_555
C1A C2A 1_555 1_555
C2A C3A 1_555 1_555
C3A C8A 1_555 1_555
C4A C5 1_555 1_555
C5A C4 1_555 1_555
C6A C1A 1_555 1_555
C7A C1A 1_555 1_555
N1A C4A 1_555 1_555
N2A C5A 1_555 1_555

#END
