
#######################################################################
#
#                 Cambridge Crystallographic Data Centre
#                                CCDC 
#
#######################################################################
#
# If this CIF has been generated from an entry in the Cambridge 
# Structural Database, then it will include bibliographic, chemical, 
# crystal, experimental, refinement or atomic coordinate data resulting 
# from the CCDC's data processing and validation procedures.
#
#######################################################################

data_MOFGIY
_chemical_formula_moiety         'C42 H52 B2 N4'
_chemical_name_systematic        
1,2-bis(1,3-bis(2,4,6-trimethylphenyl)-1,3-dihydro-2H-imidazol-2-ylidene)diborane
_symmetry_cell_setting           monoclinic
_symmetry_space_group_name_H-M   'C 2/c'
_symmetry_Int_Tables_number      15
_space_group_name_Hall           '-C 2yn'
loop_
_symmetry_equiv_pos_site_id
_symmetry_equiv_pos_as_xyz
1 x,y,z
2 1/2+x,1/2+y,z
3 -x,y,1/2-z
4 1/2-x,1/2+y,1/2-z
5 -x,-y,-z
6 1/2-x,1/2-y,-z
7 x,-y,1/2+z
8 1/2+x,1/2-y,1/2+z
_cell_length_a                   32.1297(19)
_cell_length_b                   10.7328(6)
_cell_length_c                   23.9977(15)
_cell_angle_alpha                90
_cell_angle_beta                 102.2200(10)
_cell_angle_gamma                90
_cell_volume                     8087.9
_exptl_crystal_colour            colorless
_cell_formula_units_Z            8
loop_
_atom_site_label
_atom_site_type_symbol
_atom_site_fract_x
_atom_site_fract_y
_atom_site_fract_z
B1 B 0.14991(11) 0.2360(3) 0.07981(15)
H1 H 0.1692(8) 0.207(2) 0.1214(11)
H2 H 0.1700(9) 0.292(3) 0.0545(12)
B2 B 0.10418(11) 0.3191(3) 0.09206(15)
H3 H 0.0906(9) 0.266(3) 0.1234(11)
H4 H 0.0807(9) 0.338(3) 0.0504(13)
N1 N 0.11544(7) 0.0119(2) 0.06318(9)
N2 N 0.13307(8) 0.0921(2) -0.01078(10)
N3 N 0.14295(9) 0.4697(2) 0.17362(10)
N4 N 0.11831(9) 0.5606(2) 0.09417(10)
C1 C 0.13374(8) 0.1152(2) 0.04529(11)
C2 C 0.10372(11) -0.0725(3) 0.01857(13)
H5 H 0.0906 -0.1493 0.0204
C3 C 0.11463(11) -0.0234(3) -0.02683(14)
H6 H 0.1107 -0.0593 -0.0628
C4 C 0.15156(10) 0.1708(3) -0.04790(11)
C5 C 0.12591(10) 0.2570(3) -0.08194(12)
C6 C 0.14505(12) 0.3314(3) -0.11651(13)
H7 H 0.1285 0.3897 -0.1400
C7 C 0.18757(13) 0.3223(4) -0.11733(14)
C8 C 0.21141(11) 0.2328(4) -0.08347(14)
H8 H 0.2400 0.2243 -0.0845
C9 C 0.19445(10) 0.1553(3) -0.04813(12)
C10 C 0.22122(11) 0.0609(4) -0.01058(15)
H9 H 0.2498 0.0637 -0.0166
H10 H 0.2096 -0.0208 -0.0197
H11 H 0.2214 0.0794 0.0286
C11 C 0.20802(15) 0.4112(5) -0.15284(18)
H12 H 0.1868 0.4668 -0.1733
H13 H 0.2204 0.3646 -0.1794
H14 H 0.2298 0.4585 -0.1282
C12 C 0.07949(11) 0.2717(4) -0.08058(15)
H15 H 0.0719 0.2125 -0.0544
H16 H 0.0625 0.2574 -0.1180
H17 H 0.0745 0.3546 -0.0684
C13 C 0.10692(10) -0.0076(3) 0.11886(12)
C14 C 0.06481(11) -0.0027(3) 0.12477(14)
C15 C 0.05704(14) -0.0250(4) 0.17814(18)
H18 H 0.0291 -0.0230 0.1829
C16 C 0.08914(18) -0.0503(4) 0.22502(18)
C17 C 0.13000(16) -0.0549(3) 0.21688(16)
H19 H 0.1519 -0.0724 0.2479
C18 C 0.14003(11) -0.0345(3) 0.16442(14)
C19 C 0.18517(12) -0.0439(3) 0.15843(17)
H20 H 0.2030 -0.0630 0.1948
H21 H 0.1939 0.0340 0.1449
H22 H 0.1877 -0.1087 0.1318
C20 C 0.0794(2) -0.0727(6) 0.28392(19)
H23 H 0.1055 -0.0886 0.3110
H24 H 0.0608 -0.1433 0.2823
H25 H 0.0659 -0.0003 0.2955
C21 C 0.02908(11) 0.0270(4) 0.07530(16)
H26 H 0.0026 0.0259 0.0877
H27 H 0.0283 -0.0340 0.0459
H28 H 0.0335 0.1081 0.0607
C22 C 0.12082(9) 0.4463(3) 0.11970(12)
C23 C 0.15350(16) 0.5941(3) 0.18062(17)
H29 H 0.1685 0.6318 0.2137
C24 C 0.13824(16) 0.6496(3) 0.13134(18)
H30 H 0.1406 0.7338 0.1234
C25 C 0.09536(10) 0.5894(3) 0.03712(12)
C26 C 0.05260(10) 0.6182(3) 0.02996(13)
C27 C 0.03093(10) 0.6510(3) -0.02440(14)
H31 H 0.0021 0.6695 -0.0304
C28 C 0.05080(11) 0.6568(3) -0.06965(13)
C29 C 0.09375(11) 0.6293(3) -0.06007(14)
H32 H 0.1075 0.6338 -0.0904
C30 C 0.11704(10) 0.5952(3) -0.00669(14)
C31 C 0.16389(11) 0.5671(4) 0.00269(18)
H33 H 0.1746 0.5458 0.0420
H34 H 0.1787 0.6392 -0.0068
H35 H 0.1683 0.4985 -0.0211
C32 C 0.02607(13) 0.6896(4) -0.12868(15)
H36 H -0.0031 0.7060 -0.1273
H37 H 0.0273 0.6212 -0.1541
H38 H 0.0383 0.7623 -0.1421
C33 C 0.03055(12) 0.6166(4) 0.07946(15)
H39 H 0.0504 0.5918 0.1134
H40 H 0.0073 0.5585 0.0718
H41 H 0.0199 0.6983 0.0847
C34 C 0.15519(11) 0.3795(3) 0.21868(12)
C35 C 0.12576(12) 0.3415(4) 0.24934(14)
C36 C 0.13962(14) 0.2604(4) 0.29449(15)
H42 H 0.1203 0.2339 0.3158
C37 C 0.18090(14) 0.2179(4) 0.30886(14)
C38 C 0.20898(12) 0.2585(3) 0.27718(14)
H43 H 0.2370 0.2305 0.2865
C39 C 0.19714(11) 0.3401(3) 0.23148(13)
C40 C 0.22882(12) 0.3840(4) 0.19853(15)
H44 H 0.2560 0.3470 0.2139
H45 H 0.2312 0.4731 0.2012
H46 H 0.2196 0.3603 0.1593
C41 C 0.19504(17) 0.1309(5) 0.35917(17)
H47 H 0.1713 0.1125 0.3762
H48 H 0.2171 0.1702 0.3869
H49 H 0.2057 0.0550 0.3463
C42 C 0.08052(14) 0.3896(6) 0.23580(18)
H50 H 0.0767 0.4440 0.2034
H51 H 0.0750 0.4347 0.2680
H52 H 0.0611 0.3208 0.2274
loop_
_geom_bond_atom_site_label_1
_geom_bond_atom_site_label_2
_geom_bond_site_symmetry_1
_geom_bond_site_symmetry_2
B1 H1 1_555 1_555
H2 B1 1_555 1_555
B2 B1 1_555 1_555
H3 B2 1_555 1_555
H4 B2 1_555 1_555
N1 C1 1_555 1_555
N2 C1 1_555 1_555
N3 C22 1_555 1_555
N4 C22 1_555 1_555
C1 B1 1_555 1_555
C2 N1 1_555 1_555
H5 C2 1_555 1_555
C3 N2 1_555 1_555
H6 C3 1_555 1_555
C4 N2 1_555 1_555
C5 C4 1_555 1_555
C6 C5 1_555 1_555
H7 C6 1_555 1_555
C7 C6 1_555 1_555
C8 C7 1_555 1_555
H8 C8 1_555 1_555
C9 C4 1_555 1_555
C10 C9 1_555 1_555
H9 C10 1_555 1_555
H10 C10 1_555 1_555
H11 C10 1_555 1_555
C11 C7 1_555 1_555
H12 C11 1_555 1_555
H13 C11 1_555 1_555
H14 C11 1_555 1_555
C12 C5 1_555 1_555
H15 C12 1_555 1_555
H16 C12 1_555 1_555
H17 C12 1_555 1_555
C13 N1 1_555 1_555
C14 C13 1_555 1_555
C15 C14 1_555 1_555
H18 C15 1_555 1_555
C16 C15 1_555 1_555
C17 C16 1_555 1_555
H19 C17 1_555 1_555
C18 C13 1_555 1_555
C19 C18 1_555 1_555
H20 C19 1_555 1_555
H21 C19 1_555 1_555
H22 C19 1_555 1_555
C20 C16 1_555 1_555
H23 C20 1_555 1_555
H24 C20 1_555 1_555
H25 C20 1_555 1_555
C21 C14 1_555 1_555
H26 C21 1_555 1_555
H27 C21 1_555 1_555
H28 C21 1_555 1_555
C22 B2 1_555 1_555
C23 N3 1_555 1_555
H29 C23 1_555 1_555
C24 N4 1_555 1_555
H30 C24 1_555 1_555
C25 N4 1_555 1_555
C26 C25 1_555 1_555
C27 C26 1_555 1_555
H31 C27 1_555 1_555
C28 C27 1_555 1_555
C29 C28 1_555 1_555
H32 C29 1_555 1_555
C30 C25 1_555 1_555
C31 C30 1_555 1_555
H33 C31 1_555 1_555
H34 C31 1_555 1_555
H35 C31 1_555 1_555
C32 C28 1_555 1_555
H36 C32 1_555 1_555
H37 C32 1_555 1_555
H38 C32 1_555 1_555
C33 C26 1_555 1_555
H39 C33 1_555 1_555
H40 C33 1_555 1_555
H41 C33 1_555 1_555
C34 N3 1_555 1_555
C35 C34 1_555 1_555
C36 C35 1_555 1_555
H42 C36 1_555 1_555
C37 C36 1_555 1_555
C38 C37 1_555 1_555
H43 C38 1_555 1_555
C39 C34 1_555 1_555
C40 C39 1_555 1_555
H44 C40 1_555 1_555
H45 C40 1_555 1_555
H46 C40 1_555 1_555
C41 C37 1_555 1_555
H47 C41 1_555 1_555
H48 C41 1_555 1_555
H49 C41 1_555 1_555
C42 C35 1_555 1_555
H50 C42 1_555 1_555
H51 C42 1_555 1_555
H52 C42 1_555 1_555
C2 C3 1_555 1_555
C8 C9 1_555 1_555
C17 C18 1_555 1_555
C23 C24 1_555 1_555
C29 C30 1_555 1_555
C38 C39 1_555 1_555

#END
