
#######################################################################
#
#                 Cambridge Crystallographic Data Centre
#                                CCDC 
#
#######################################################################
#
# If this CIF has been generated from an entry in the Cambridge 
# Structural Database, then it will include bibliographic, chemical, 
# crystal, experimental, refinement or atomic coordinate data resulting 
# from the CCDC's data processing and validation procedures.
#
#######################################################################

data_MOFHAS
_chemical_formula_moiety         'C44 H54 N4 S2'
_chemical_name_systematic        
2,2'-(5,10-didodecylthieno[2',3':5,6]naphtho[1,2-b]thiene-2,7-diylidene)dimalononitrile
_symmetry_cell_setting           triclinic
_symmetry_space_group_name_H-M   'P -1'
_symmetry_Int_Tables_number      2
_space_group_name_Hall           '-P 1'
loop_
_symmetry_equiv_pos_site_id
_symmetry_equiv_pos_as_xyz
1 x,y,z
2 -x,-y,-z
_cell_length_a                   4.62000(10)
_cell_length_b                   14.0234(3)
_cell_length_c                   15.5359(4)
_cell_angle_alpha                99.0404(15)
_cell_angle_beta                 95.4568(14)
_cell_angle_gamma                99.291(2)
_cell_volume                     973.475
_exptl_crystal_colour            red
_exptl_crystal_description       Platelet
_cell_formula_units_Z            1
loop_
_atom_site_label
_atom_site_type_symbol
_atom_site_fract_x
_atom_site_fract_y
_atom_site_fract_z
S1 S 0.72952(19) 0.33891(5) 0.12293(6)
C1 C 0.5921(7) 0.4865(2) 0.0343(2)
C2 C 0.8156(9) 0.1532(2) 0.1870(3)
C3 C 0.1788(7) 0.4408(2) -0.0879(2)
H1 H 0.0604 0.4604 -0.1330
C4 C 0.5155(7) 0.2236(2) 0.0844(2)
C5 C 0.0031(7) 0.2025(2) -0.2050(2)
H2 H 0.1166 0.2422 -0.2420
H3 H 0.1399 0.1668 -0.1755
C6 C -0.2585(8) -0.1056(2) -0.4389(2)
H4 H -0.1064 -0.1324 -0.4055
H5 H -0.1621 -0.0728 -0.4834
C7 C 0.3073(7) 0.3172(2) -0.0087(2)
C8 C -0.3843(8) -0.2652(2) -0.5490(2)
H6 H -0.2245 -0.2896 -0.5167
H7 H -0.2979 -0.2324 -0.5950
C9 C 0.5354(7) 0.3891(2) 0.0455(2)
C10 C 0.1234(7) 0.3459(2) -0.0772(2)
C11 C 0.2965(8) 0.2251(2) 0.0152(2)
H8 H 0.1557 0.1689 -0.0124
C12 C -0.1294(8) 0.0512(2) -0.3252(2)
H9 H -0.0196 0.0837 -0.3675
H10 H 0.0109 0.0212 -0.2906
C13 C -0.1148(8) 0.2708(2) -0.1355(2)
H11 H -0.2541 0.3054 -0.1653
H12 H -0.2266 0.2307 -0.0984
C14 C -0.3726(7) -0.0297(2) -0.3761(2)
H13 H -0.5150 0.0003 -0.4100
H14 H -0.4801 -0.0632 -0.3339
C15 C 0.5693(8) 0.1430(2) 0.1211(2)
C16 C -0.2424(7) 0.1285(2) -0.2634(2)
H15 H -0.3635 0.1641 -0.2987
H16 H -0.3720 0.0952 -0.2258
C17 C -0.6214(8) -0.3526(2) -0.5931(2)
H17 H -0.7821 -0.3281 -0.6249
H18 H -0.7066 -0.3857 -0.5471
N1 N 1.0205(8) 0.1660(2) 0.2381(2)
N2 N 0.2410(7) -0.0274(2) 0.0729(2)
C18 C 0.3863(8) 0.0480(2) 0.0939(2)
C19 C -0.4980(8) -0.1904(2) -0.4859(2)
H19 H -0.5929 -0.2237 -0.4415
H20 H -0.6512 -0.1636 -0.5188
C20 C -0.7332(9) -0.5193(3) -0.6953(3)
H21 H -0.6564 -0.5567 -0.7449
H22 H -0.9168 -0.4996 -0.7189
C21 C -0.5086(8) -0.4281(2) -0.6576(3)
H23 H -0.4410 -0.3965 -0.7066
H24 H -0.3351 -0.4477 -0.6272
C22 C -0.8073(11) -0.5857(3) -0.6299(3)
H25 H -0.6291 -0.6088 -0.6086
H26 H -0.9582 -0.6421 -0.6583
H27 H -0.8829 -0.5494 -0.5803
S1A S 0.27048(19) 0.66109(5) -0.12293(6)
C1A C 0.4079(7) 0.5135(2) -0.0343(2)
C2A C 0.1844(9) 0.8468(2) -0.1870(3)
C3A C 0.8212(7) 0.5592(2) 0.0879(2)
H1A H 0.9396 0.5396 0.1330
C4A C 0.4845(7) 0.7764(2) -0.0844(2)
C5A C 0.9969(7) 0.7975(2) 0.2050(2)
H2A H 0.8834 0.7578 0.2420
H3A H 0.8601 0.8332 0.1755
C6A C 1.2585(8) 1.1056(2) 0.4389(2)
H4A H 1.1064 1.1324 0.4055
H5A H 1.1621 1.0728 0.4834
C7A C 0.6927(7) 0.6828(2) 0.0087(2)
C8A C 1.3843(8) 1.2652(2) 0.5490(2)
H6A H 1.2245 1.2896 0.5167
H7A H 1.2979 1.2324 0.5950
C9A C 0.4646(7) 0.6109(2) -0.0455(2)
C10A C 0.8766(7) 0.6541(2) 0.0772(2)
C11A C 0.7035(8) 0.7749(2) -0.0152(2)
H8A H 0.8443 0.8311 0.0124
C12A C 1.1294(8) 0.9488(2) 0.3252(2)
H9A H 1.0196 0.9163 0.3675
H10A H 0.9891 0.9788 0.2906
C13A C 1.1148(8) 0.7292(2) 0.1355(2)
H11A H 1.2541 0.6946 0.1653
H12A H 1.2266 0.7693 0.0984
C14A C 1.3726(7) 1.0297(2) 0.3761(2)
H13A H 1.5150 0.9997 0.4100
H14A H 1.4801 1.0632 0.3339
C15A C 0.4307(8) 0.8570(2) -0.1211(2)
C16A C 1.2424(7) 0.8715(2) 0.2634(2)
H15A H 1.3635 0.8359 0.2987
H16A H 1.3720 0.9048 0.2258
C17A C 1.6214(8) 1.3526(2) 0.5931(2)
H17A H 1.7821 1.3281 0.6249
H18A H 1.7066 1.3857 0.5471
N1A N -0.0205(8) 0.8340(2) -0.2381(2)
N2A N 0.7590(7) 1.0274(2) -0.0729(2)
C18A C 0.6137(8) 0.9520(2) -0.0939(2)
C19A C 1.4980(8) 1.1904(2) 0.4859(2)
H19A H 1.5929 1.2237 0.4415
H20A H 1.6512 1.1636 0.5188
C20A C 1.7332(9) 1.5193(3) 0.6953(3)
H21A H 1.6564 1.5567 0.7449
H22A H 1.9168 1.4996 0.7189
C21A C 1.5086(8) 1.4281(2) 0.6576(3)
H23A H 1.4410 1.3965 0.7066
H24A H 1.3351 1.4477 0.6272
C22A C 1.8073(11) 1.5857(3) 0.6299(3)
H25A H 1.6291 1.6088 0.6086
H26A H 1.9582 1.6421 0.6583
H27A H 1.8829 1.5494 0.5803
loop_
_geom_bond_atom_site_label_1
_geom_bond_atom_site_label_2
_geom_bond_site_symmetry_1
_geom_bond_site_symmetry_2
S1 C4 1_555 1_555
C1 C9 1_555 1_555
C2 C15 1_555 1_555
C3 H1 1_555 1_555
C4 C11 1_555 1_555
C5 H2 1_555 1_555
H3 C5 1_555 1_555
C6 H4 1_555 1_555
H5 C6 1_555 1_555
C7 C9 1_555 1_555
C8 H6 1_555 1_555
H7 C8 1_555 1_555
C9 S1 1_555 1_555
C10 C3 1_555 1_555
C11 C7 1_555 1_555
H8 C11 1_555 1_555
C12 H9 1_555 1_555
H10 C12 1_555 1_555
C13 C5 1_555 1_555
H11 C13 1_555 1_555
H12 C13 1_555 1_555
C14 C6 1_555 1_555
H13 C14 1_555 1_555
H14 C14 1_555 1_555
C15 C4 1_555 1_555
C16 C5 1_555 1_555
H15 C16 1_555 1_555
H16 C16 1_555 1_555
C17 C8 1_555 1_555
H17 C17 1_555 1_555
H18 C17 1_555 1_555
N1 C2 1_555 1_555
N2 C18 1_555 1_555
C18 C15 1_555 1_555
C19 C6 1_555 1_555
H19 C19 1_555 1_555
H20 C19 1_555 1_555
C20 H21 1_555 1_555
H22 C20 1_555 1_555
C21 C17 1_555 1_555
H23 C21 1_555 1_555
H24 C21 1_555 1_555
C22 C20 1_555 1_555
H25 C22 1_555 1_555
H26 C22 1_555 1_555
H27 C22 1_555 1_555
S1A C4A 1_555 1_555
C1A C1 1_555 1_555
C2A C15A 1_555 1_555
C3A C1 1_555 1_555
H1A C3A 1_555 1_555
C4A C11A 1_555 1_555
C5A H2A 1_555 1_555
H3A C5A 1_555 1_555
C6A H4A 1_555 1_555
H5A C6A 1_555 1_555
C7A C9A 1_555 1_555
C8A H6A 1_555 1_555
H7A C8A 1_555 1_555
C9A S1A 1_555 1_555
C10A C3A 1_555 1_555
C11A C7A 1_555 1_555
H8A C11A 1_555 1_555
C12A H9A 1_555 1_555
H10A C12A 1_555 1_555
C13A C5A 1_555 1_555
H11A C13A 1_555 1_555
H12A C13A 1_555 1_555
C14A C6A 1_555 1_555
H13A C14A 1_555 1_555
H14A C14A 1_555 1_555
C15A C4A 1_555 1_555
C16A C5A 1_555 1_555
H15A C16A 1_555 1_555
H16A C16A 1_555 1_555
C17A C8A 1_555 1_555
H17A C17A 1_555 1_555
H18A C17A 1_555 1_555
N1A C2A 1_555 1_555
N2A C18A 1_555 1_555
C18A C15A 1_555 1_555
C19A C6A 1_555 1_555
H19A C19A 1_555 1_555
H20A C19A 1_555 1_555
C20A H21A 1_555 1_555
H22A C20A 1_555 1_555
C21A C17A 1_555 1_555
H23A C21A 1_555 1_555
H24A C21A 1_555 1_555
C22A C20A 1_555 1_555
H25A C22A 1_555 1_555
H26A C22A 1_555 1_555
H27A C22A 1_555 1_555
C3 C1A 1_555 1_555
C7 C10 1_555 1_555
C8 C19 1_555 1_555
C10 C13 1_555 1_555
C12 C14 1_555 1_555
C12 C16 1_555 1_555
C20 C21 1_555 1_555
C1A C9A 1_555 1_555
C7A C10A 1_555 1_555
C8A C19A 1_555 1_555
C10A C13A 1_555 1_555
C12A C14A 1_555 1_555
C12A C16A 1_555 1_555
C20A C21A 1_555 1_555

#END
