
#######################################################################
#
#                 Cambridge Crystallographic Data Centre
#                                CCDC 
#
#######################################################################
#
# If this CIF has been generated from an entry in the Cambridge 
# Structural Database, then it will include bibliographic, chemical, 
# crystal, experimental, refinement or atomic coordinate data resulting 
# from the CCDC's data processing and validation procedures.
#
#######################################################################

data_MOFRUU
_chemical_name_common            
'1,4-dimethoxy-2,5-bis(pyridium-2-yl)benzene bis(tetrafluoroborate)'
_chemical_formula_moiety         'C18 H18 N2 O2 2+,2(B1 F4 1-)'
_chemical_name_systematic        
'1,4-dimethoxy-2,5-bis(2-pyridyl)benzene bis(tetrafluoroboric acid)'
_symmetry_cell_setting           monoclinic
_symmetry_space_group_name_H-M   'P 21/n'
_symmetry_Int_Tables_number      14
_space_group_name_Hall           '-P 2yn'
loop_
_symmetry_equiv_pos_site_id
_symmetry_equiv_pos_as_xyz
1 x,y,z
2 1/2+x,1/2-y,1/2+z
3 -x,-y,-z
4 1/2-x,1/2+y,1/2-z
_cell_length_a                   8.4500(9)
_cell_length_b                   7.2674(9)
_cell_length_c                   15.6406(13)
_cell_angle_alpha                90
_cell_angle_beta                 91.118(8)
_cell_angle_gamma                90
_cell_volume                     960.299
_exptl_crystal_colour            yellow
_exptl_crystal_description       block
_cell_formula_units_Z            2
loop_
_atom_site_label
_atom_site_type_symbol
_atom_site_fract_x
_atom_site_fract_y
_atom_site_fract_z
O1 O 0.49543(17) 0.17682(19) 0.65613(8)
N1 N 0.32392(19) 0.4385(2) 0.58909(11)
H1 H 0.361(3) 0.384(4) 0.6374(16)
C1 C 0.4970(2) 0.0864(3) 0.57946(12)
C2 C 0.4214(2) 0.1715(2) 0.50897(12)
C3 C 0.5733(2) -0.0811(3) 0.56955(13)
H2 H 0.624(3) -0.132(3) 0.6209(14)
C4 C 0.5543(3) 0.0812(3) 0.73107(14)
H3 H 0.492(3) -0.040(4) 0.7407(16)
H4 H 0.539(3) 0.172(4) 0.7759(15)
H5 H 0.668(3) 0.050(3) 0.7240(15)
C5 C 0.3383(2) 0.3514(2) 0.51303(12)
C6 C 0.2741(3) 0.4391(3) 0.44184(14)
H6 H 0.279(3) 0.384(4) 0.3876(17)
C7 C 0.1969(3) 0.6064(3) 0.45013(15)
H7 H 0.155(3) 0.666(4) 0.3993(16)
C8 C 0.1834(2) 0.6884(3) 0.52915(14)
H8 H 0.131(3) 0.801(3) 0.5373(14)
C9 C 0.2502(2) 0.6010(3) 0.59882(14)
H9 H 0.243(3) 0.645(4) 0.6567(16)
C3B C 0.4267(2) 0.0811(3) 0.43045(13)
C1B C 0.5030(2) -0.0864(3) 0.42054(12)
O1B O 0.50457(17) -0.17682(19) 0.34387(8)
C4B C 0.4457(3) -0.0812(3) 0.26893(14)
H3B H 0.508(3) 0.040(4) 0.2593(16)
H4B H 0.461(3) -0.172(4) 0.2241(15)
H5B H 0.332(3) -0.050(3) 0.2760(15)
C2B C 0.5786(2) -0.1715(2) 0.49103(12)
C5B C 0.6617(2) -0.3514(2) 0.48697(12)
N1B N 0.67608(19) -0.4385(2) 0.41091(11)
H1B H 0.639(3) -0.384(4) 0.3626(16)
C9B C 0.7498(2) -0.6010(3) 0.40118(14)
C8B C 0.8166(2) -0.6884(3) 0.47085(14)
C7B C 0.8031(3) -0.6064(3) 0.54987(15)
C6B C 0.7259(3) -0.4391(3) 0.55816(14)
H6B H 0.721(3) -0.384(4) 0.6124(17)
H7B H 0.845(3) -0.666(4) 0.6007(16)
H8B H 0.869(3) -0.801(3) 0.4627(14)
H9B H 0.757(3) -0.645(4) 0.3433(16)
H2B H 0.376(3) 0.132(3) 0.3791(14)
F1 F 0.16153(14) 0.93666(17) 0.71913(8)
F2 F -0.06549(16) 0.95130(19) 0.63831(9)
F3 F -0.04229(17) 1.1124(2) 0.76142(9)
F4 F 0.09786(17) 1.1972(2) 0.64700(11)
B1 B 0.0380(3) 1.0493(3) 0.69061(15)
loop_
_geom_bond_atom_site_label_1
_geom_bond_atom_site_label_2
_geom_bond_site_symmetry_1
_geom_bond_site_symmetry_2
O1 C1 1_555 1_555
N1 H1 1_555 1_555
C1 C2 1_555 1_555
C2 C5 1_555 1_555
C3 C1 1_555 1_555
H2 C3 1_555 1_555
C4 O1 1_555 1_555
H3 C4 1_555 1_555
H4 C4 1_555 1_555
H5 C4 1_555 1_555
C5 N1 1_555 1_555
C6 C5 1_555 1_555
H6 C6 1_555 1_555
C7 C6 1_555 1_555
H7 C7 1_555 1_555
C8 C7 1_555 1_555
H8 C8 1_555 1_555
C9 N1 1_555 1_555
H9 C9 1_555 1_555
F1 B1 1_555 1_555
F2 B1 1_555 1_555
F3 B1 1_555 1_555
F4 B1 1_555 1_555
C3B C2 1_555 1_555
C1B C3B 1_555 1_555
O1B C1B 1_555 1_555
C4B O1B 1_555 1_555
H3B C4B 1_555 1_555
H4B C4B 1_555 1_555
H5B C4B 1_555 1_555
C2B C3 1_555 1_555
C5B C2B 1_555 1_555
N1B C5B 1_555 1_555
H1B N1B 1_555 1_555
C9B N1B 1_555 1_555
C8B C9B 1_555 1_555
C7B C8B 1_555 1_555
C6B C5B 1_555 1_555
H6B C6B 1_555 1_555
H7B C7B 1_555 1_555
H8B C8B 1_555 1_555
H9B C9B 1_555 1_555
H2B C3B 1_555 1_555
C8 C9 1_555 1_555
C1B C2B 1_555 1_555
C7B C6B 1_555 1_555

#END
