
#######################################################################
#
#                 Cambridge Crystallographic Data Centre
#                                CCDC 
#
#######################################################################
#
# If this CIF has been generated from an entry in the Cambridge 
# Structural Database, then it will include bibliographic, chemical, 
# crystal, experimental, refinement or atomic coordinate data resulting 
# from the CCDC's data processing and validation procedures.
#
#######################################################################

data_MOFRII
_chemical_formula_moiety         'C18 H16 N2 O2'
_chemical_name_systematic        1,4-dimethoxy-2,5-bis(2-pyridyl)benzene
_symmetry_cell_setting           monoclinic
_symmetry_space_group_name_H-M   'P 21/c'
_symmetry_Int_Tables_number      14
_space_group_name_Hall           '-P 2ybc'
loop_
_symmetry_equiv_pos_site_id
_symmetry_equiv_pos_as_xyz
1 x,y,z
2 x,1/2-y,1/2+z
3 -x,-y,-z
4 -x,1/2+y,1/2-z
_cell_length_a                   9.4724(13)
_cell_length_b                   16.6094(14)
_cell_length_c                   18.744(2)
_cell_angle_alpha                90
_cell_angle_beta                 97.183(8)
_cell_angle_gamma                90
_cell_volume                     2925.87
_exptl_crystal_colour            colorless
_exptl_crystal_description       block
_chemical_melting_point          '404.4-405.6 K'
_cell_formula_units_Z            8
_exptl_crystal_recrystallization_method chloroform
loop_
_atom_site_label
_atom_site_type_symbol
_atom_site_fract_x
_atom_site_fract_y
_atom_site_fract_z
O1 O -0.16778(14) 0.39576(9) 0.05073(7)
O2 O 0.41931(14) 0.38021(9) 0.06111(8)
N1 N 0.0758(2) 0.34081(10) 0.24184(9)
N2 N 0.1701(2) 0.35441(10) -0.13121(9)
C1 C -0.0223(2) 0.39384(11) 0.05239(10)
C2 C 0.0593(2) 0.38699(11) 0.11987(10)
C3 C 0.2074(2) 0.38265(11) 0.12178(10)
H1 H 0.2630(2) 0.37811(11) 0.16612(10)
C4 C 0.2736(2) 0.38551(11) 0.06018(10)
C5 C 0.1914(2) 0.39225(11) -0.00736(10)
C6 C 0.0440(2) 0.39593(11) -0.00944(10)
H2 H -0.0115(2) 0.40032(11) -0.05382(10)
C7 C -0.2514(2) 0.38746(15) -0.01789(11)
H3 H -0.2362(12) 0.4333(4) -0.0472(3)
H4 H -0.3502(2) 0.3843(9) -0.01151(13)
H5 H -0.2239(11) 0.3393(5) -0.0409(3)
C8 C 0.4999(2) 0.35271(15) 0.12613(12)
H6 H 0.5976(4) 0.3461(9) 0.1184(3)
H7 H 0.4629(10) 0.3021(5) 0.1402(4)
H8 H 0.4939(13) 0.3916(4) 0.1635(2)
C9 C -0.0013(2) 0.38335(11) 0.18952(10)
C10 C -0.1248(2) 0.42451(12) 0.20179(11)
H9 H -0.1767(2) 0.45327(12) 0.16479(11)
C11 C -0.1691(2) 0.42140(13) 0.26926(11)
H10 H -0.2517(2) 0.44786(13) 0.27812(11)
C12 C -0.0898(2) 0.37822(12) 0.32329(11)
H11 H -0.1163(2) 0.37596(12) 0.36937(11)
C13 C 0.0310(2) 0.33940(12) 0.30673(11)
H12 H 0.0843(2) 0.31022(12) 0.34293(11)
C14 C 0.2513(2) 0.39204(11) -0.07719(10)
C15 C 0.3787(2) 0.42952(12) -0.08749(11)
H13 H 0.4316(2) 0.45654(12) -0.04972(11)
C16 C 0.4252(2) 0.42639(13) -0.15455(12)
H14 H 0.5116(2) 0.44963(13) -0.16188(12)
C17 C 0.3422(2) 0.38776(13) -0.21035(11)
H15 H 0.3702(2) 0.38553(13) -0.25612(11)
C18 C 0.2167(2) 0.35331(13) -0.19590(11)
H16 H 0.1608(2) 0.32757(13) -0.23342(11)
O3 O 0.5803(2) -0.09475(9) 0.18899(9)
O4 O 0.2646(2) 0.10275(9) -0.00882(9)
C19 C 0.3428(2) 0.05311(13) 0.03985(11)
C20 C 0.3198(2) -0.03052(14) 0.03605(11)
C21 C 0.4035(2) -0.07893(12) 0.08608(11)
H17 H 0.3908(2) -0.13445(12) 0.08417(11)
C22 C 0.5054(2) -0.04672(12) 0.13780(11)
C23 C 0.5285(2) 0.03656(11) 0.14088(11)
C24 C 0.4453(2) 0.08407(12) 0.09111(11)
H18 H 0.4591(2) 0.13952(12) 0.09246(11)
C25 C 0.2770(5) 0.1870(2) 0.0025(2)
H19 H 0.2108(18) 0.2153(2) -0.0315(9)
H20 H 0.3722(9) 0.2031(3) -0.0033(12)
H21 H 0.2582(24) 0.1995(2) 0.0505(5)
C26 C 0.5684(3) -0.17942(14) 0.18142(15)
H22 H 0.6308(16) -0.20563(14) 0.2187(7)
H23 H 0.5934(20) -0.1950(2) 0.1353(5)
H24 H 0.4719(6) -0.1950(2) 0.1849(11)
C29 C 0.2128(2) -0.07137(14) -0.01698(11)
N3 N 0.2456(3) -0.1518(2) -0.0275(2)
C30 C 0.1016(4) -0.0373(3) -0.0540(3)
H31 H 0.0854(4) 0.0174(3) -0.0481(3)
C31 C 0.0072(5) -0.0822(3) -0.1015(3)
H32 H -0.0702(5) -0.0565(3) -0.1273(3)
C32 C 0.0368(5) -0.1628(3) -0.1134(2)
H33 H -0.0319(5) -0.1939(3) -0.1404(2)
C33 C 0.1561(4) -0.1942(2) -0.0751(2)
H34 H 0.1791(4) -0.2467(2) -0.0861(2)
N5 N 0.6215(3) 0.15665(14) 0.2023(3)
C38 C 0.6371(2) 0.07711(12) 0.19363(11)
C39 C 0.7525(5) 0.0369(2) 0.2341(2)
H39 H 0.7622(5) -0.0186(2) 0.2302(2)
C40 C 0.8468(5) 0.0797(2) 0.2828(2)
H40 H 0.9193(5) 0.0528(2) 0.3113(2)
C41 C 0.8287(2) 0.16101(13) 0.28793(12)
H41 H 0.8921(2) 0.19081(13) 0.31940(12)
C42 C 0.7161(4) 0.1966(2) 0.2473(3)
H42 H 0.7083(4) 0.2523(2) 0.2500(3)
O5? O 0.4331(20) -0.1648(6) 0.0909(10)
O6? O 0.4041(18) 0.1611(6) 0.0765(9)
C27? C 0.5319(22) -0.2119(13) 0.1396(12)
H25? H 0.5234(22) -0.2678(13) 0.1264(12)
H26? H 0.5108(22) -0.2053(13) 0.1880(12)
H27? H 0.6272(22) -0.1940(13) 0.1363(12)
C28? C 0.3139(38) 0.1989(23) 0.0196(17)
H28? H 0.3113(38) 0.2558(23) 0.0283(17)
H29? H 0.2196(38) 0.1772(23) 0.0175(17)
H30? H 0.3501(38) 0.1893(23) -0.0252(17)
N4? N 0.1607(6) -0.1409(3) 0.0060(3)
C34? C 0.1381(9) -0.0340(5) -0.0793(4)
H35? H 0.1582(9) 0.0189(5) -0.0907(4)
C35? C 0.0373(11) -0.0764(6) -0.1218(5)
H36? H -0.0036(11) -0.0548(6) -0.1653(5)
C36? C -0.0041(9) -0.1510(6) -0.1007(5)
H37? H -0.0745(9) -0.1801(6) -0.1287(5)
C37? C 0.0620(8) -0.1813(4) -0.0369(4)
H38? H 0.0367(8) -0.2325(4) -0.0228(4)
C43? C 0.6970(22) 0.0386(9) 0.2421(7)
N6? N 0.6491(16) 0.1607(8) 0.1764(10)
C44? C 0.7977(27) 0.0794(11) 0.2839(13)
C45? C 0.7566(23) 0.1992(10) 0.2247(10)
loop_
_geom_bond_atom_site_label_1
_geom_bond_atom_site_label_2
_geom_bond_site_symmetry_1
_geom_bond_site_symmetry_2
O1 C1 1_555 1_555
O2 C4 1_555 1_555
N1 C9 1_555 1_555
N2 C14 1_555 1_555
C1 C2 1_555 1_555
C2 C3 1_555 1_555
C3 H1 1_555 1_555
C4 C3 1_555 1_555
C5 C4 1_555 1_555
C6 C1 1_555 1_555
H2 C6 1_555 1_555
C7 O1 1_555 1_555
H3 C7 1_555 1_555
H4 C7 1_555 1_555
H5 C7 1_555 1_555
C8 O2 1_555 1_555
H6 C8 1_555 1_555
H7 C8 1_555 1_555
H8 C8 1_555 1_555
C9 C2 1_555 1_555
C10 C9 1_555 1_555
H9 C10 1_555 1_555
C11 C10 1_555 1_555
H10 C11 1_555 1_555
C12 C11 1_555 1_555
H11 C12 1_555 1_555
C13 N1 1_555 1_555
H12 C13 1_555 1_555
C14 C5 1_555 1_555
C15 C14 1_555 1_555
H13 C15 1_555 1_555
C16 C15 1_555 1_555
H14 C16 1_555 1_555
C17 C16 1_555 1_555
H15 C17 1_555 1_555
C18 N2 1_555 1_555
H16 C18 1_555 1_555
O3 C22 1_555 1_555
O4 C19 1_555 1_555
C19 C20 1_555 1_555
C20 C21 1_555 1_555
C21 H17 1_555 1_555
C22 C21 1_555 1_555
C23 C22 1_555 1_555
C24 C19 1_555 1_555
H18 C24 1_555 1_555
C25 O4 1_555 1_555
H19 C25 1_555 1_555
H20 C25 1_555 1_555
H21 C25 1_555 1_555
C26 O3 1_555 1_555
H22 C26 1_555 1_555
H23 C26 1_555 1_555
H24 C26 1_555 1_555
C29 C20 1_555 1_555
N3 C29 1_555 1_555
C30 C29 1_555 1_555
H31 C30 1_555 1_555
C31 C30 1_555 1_555
H32 C31 1_555 1_555
C32 C31 1_555 1_555
H33 C32 1_555 1_555
C33 N3 1_555 1_555
H34 C33 1_555 1_555
N5 C38 1_555 1_555
C38 C23 1_555 1_555
C39 C38 1_555 1_555
H39 C39 1_555 1_555
C40 C39 1_555 1_555
H40 C40 1_555 1_555
C41 C40 1_555 1_555
H41 C41 1_555 1_555
C42 N5 1_555 1_555
H42 C42 1_555 1_555
C5 C6 1_555 1_555
C12 C13 1_555 1_555
C17 C18 1_555 1_555
C23 C24 1_555 1_555
C32 C33 1_555 1_555
C41 C42 1_555 1_555

#END
