
#######################################################################
#
#                 Cambridge Crystallographic Data Centre
#                                CCDC 
#
#######################################################################
#
# If this CIF has been generated from an entry in the Cambridge 
# Structural Database, then it will include bibliographic, chemical, 
# crystal, experimental, refinement or atomic coordinate data resulting 
# from the CCDC's data processing and validation procedures.
#
#######################################################################

data_MOFROO
_chemical_formula_moiety         'C18 H16 N2 O2,2(C1 H2 O2)'
_chemical_name_systematic        
'1,4-dimethoxy-2,5-bis(2-pyridyl)benzene bis(formic acid)'
_symmetry_cell_setting           triclinic
_symmetry_space_group_name_H-M   'P -1'
_symmetry_Int_Tables_number      2
_space_group_name_Hall           '-P 1'
loop_
_symmetry_equiv_pos_site_id
_symmetry_equiv_pos_as_xyz
1 x,y,z
2 -x,-y,-z
_cell_length_a                   3.8209(5)
_cell_length_b                   10.6755(18)
_cell_length_c                   10.9854(17)
_cell_angle_alpha                98.934(13)
_cell_angle_beta                 94.267(13)
_cell_angle_gamma                93.942(13)
_cell_volume                     439.962
_exptl_crystal_colour            'pale yellow'
_exptl_crystal_description       prism
_cell_formula_units_Z            1
loop_
_atom_site_label
_atom_site_type_symbol
_atom_site_fract_x
_atom_site_fract_y
_atom_site_fract_z
O1 O 0.2913(3) 0.29378(10) 0.61051(9)
N1 N 0.3666(4) 0.22467(12) 0.24608(11)
C1 C 0.3967(4) 0.39783(13) 0.55876(12)
C2 C 0.4940(4) 0.37436(14) 0.43682(12)
C3 C 0.4038(4) 0.52213(14) 0.61973(12)
H2 H 0.326(5) 0.5394(16) 0.7024(16)
C4 C 0.1710(5) 0.31765(15) 0.73171(14)
H3 H 0.366(5) 0.3562(18) 0.7935(18)
H4 H -0.023(5) 0.3738(17) 0.7336(17)
H5 H 0.081(5) 0.2359(18) 0.7485(17)
C5 C 0.4955(4) 0.24388(14) 0.36624(13)
C6 C 0.6350(4) 0.14487(14) 0.41846(13)
H6 H 0.742(5) 0.1627(18) 0.5051(18)
C7 C 0.6416(4) 0.02673(15) 0.34639(15)
H7 H 0.735(5) -0.0413(19) 0.3812(17)
C8 C 0.5068(5) 0.00732(15) 0.22358(15)
H8 H 0.498(5) -0.0732(18) 0.1711(17)
C9 C 0.3716(5) 0.10938(15) 0.17759(14)
H9 H 0.272(6) 0.1015(19) 0.0923(19)
C3A C 0.5962(4) 0.47787(14) 0.38027(12)
C1A C 0.6033(4) 0.60217(13) 0.44124(12)
O1A O 0.7087(3) 0.70622(10) 0.38949(9)
C4A C 0.8290(5) 0.68235(15) 0.26829(14)
H3A H 0.634(5) 0.6438(18) 0.2065(18)
H4A H 1.023(5) 0.6262(17) 0.2664(17)
H5A H 0.919(5) 0.7641(18) 0.2515(17)
C2A C 0.5060(4) 0.62564(14) 0.56318(12)
C5A C 0.5045(4) 0.75612(14) 0.63376(13)
N1A N 0.6334(4) 0.77533(12) 0.75392(11)
C9A C 0.6284(5) 0.89062(15) 0.82241(14)
C8A C 0.4932(5) 0.99268(15) 0.77642(15)
C7A C 0.3584(4) 0.97327(15) 0.65361(15)
C6A C 0.3650(4) 0.85513(14) 0.58154(13)
H6A H 0.258(5) 0.8373(18) 0.4949(18)
H7A H 0.265(5) 1.0413(19) 0.6188(17)
H8A H 0.502(5) 1.0732(18) 0.8289(17)
H9A H 0.728(6) 0.8985(19) 0.9077(19)
H2A H 0.674(5) 0.4606(16) 0.2976(16)
O2 O 0.0737(3) 0.38946(11) 0.13017(10)
H1 H 0.184(8) 0.318(3) 0.180(3)
O3 O -0.1352(4) 0.22791(13) -0.01849(11)
C10 C -0.1096(5) 0.33794(17) 0.02715(14)
H10 H -0.224(6) 0.405(2) -0.0124(19)
loop_
_geom_bond_atom_site_label_1
_geom_bond_atom_site_label_2
_geom_bond_site_symmetry_1
_geom_bond_site_symmetry_2
O1 C1 1_555 1_555
O2 H1 1_555 1_555
O3 C10 1_555 1_555
N1 C5 1_555 1_555
C1 C2 1_555 1_555
C2 C5 1_555 1_555
C3 C1 1_555 1_555
H2 C3 1_555 1_555
C4 O1 1_555 1_555
H3 C4 1_555 1_555
H4 C4 1_555 1_555
H5 C4 1_555 1_555
C5 C6 1_555 1_555
C6 H6 1_555 1_555
C7 C6 1_555 1_555
H7 C7 1_555 1_555
C8 C7 1_555 1_555
H8 C8 1_555 1_555
C9 N1 1_555 1_555
H9 C9 1_555 1_555
C10 O2 1_555 1_555
H10 C10 1_555 1_555
C3A C2 1_555 1_555
C1A C3A 1_555 1_555
O1A C1A 1_555 1_555
C4A O1A 1_555 1_555
H3A C4A 1_555 1_555
H4A C4A 1_555 1_555
H5A C4A 1_555 1_555
C2A C3 1_555 1_555
C5A C2A 1_555 1_555
N1A C5A 1_555 1_555
C9A N1A 1_555 1_555
C8A C9A 1_555 1_555
C7A C8A 1_555 1_555
C6A C5A 1_555 1_555
H6A C6A 1_555 1_555
H7A C7A 1_555 1_555
H8A C8A 1_555 1_555
H9A C9A 1_555 1_555
H2A C3A 1_555 1_555
C8 C9 1_555 1_555
C1A C2A 1_555 1_555
C7A C6A 1_555 1_555

#END
