
#######################################################################
#
#                 Cambridge Crystallographic Data Centre
#                                CCDC 
#
#######################################################################
#
# If this CIF has been generated from an entry in the Cambridge 
# Structural Database, then it will include bibliographic, chemical, 
# crystal, experimental, refinement or atomic coordinate data resulting 
# from the CCDC's data processing and validation procedures.
#
#######################################################################

data_MOGHOH
_chemical_formula_moiety         'C21 H26 N4 O4'
_chemical_name_systematic        
1-(2,4-Dinitrophenyl)-2-(1-(spiro[4.5]dec-7-en-7-yl)pent-4-en-1-ylidene)hydrazine
_symmetry_cell_setting           triclinic
_symmetry_space_group_name_H-M   'P -1'
_symmetry_Int_Tables_number      2
_space_group_name_Hall           '-P 1'
loop_
_symmetry_equiv_pos_site_id
_symmetry_equiv_pos_as_xyz
1 x,y,z
2 -x,-y,-z
_cell_length_a                   9.2591(4)
_cell_length_b                   10.2143(5)
_cell_length_c                   11.6545(6)
_cell_angle_alpha                78.913(2)
_cell_angle_beta                 68.012(2)
_cell_angle_gamma                84.167(2)
_cell_volume                     1002.45
_exptl_crystal_colour            orange
_exptl_crystal_description       'flat piece'
_cell_formula_units_Z            2
loop_
_atom_site_label
_atom_site_type_symbol
_atom_site_fract_x
_atom_site_fract_y
_atom_site_fract_z
C1 C 0.20833(13) 0.60891(11) 0.95486(11)
H1 H 0.2440 0.5328 1.0056
H2 H 0.2142 0.5812 0.8763
C2 C 0.04022(14) 0.65370(13) 1.02905(12)
H3 H -0.0253 0.6612 0.9775
H4 H -0.0062 0.5885 1.1065
C3 C 0.05115(14) 0.79058(13) 1.06160(11)
H5 H 0.0166 0.8634 1.0071
H6 H -0.0138 0.7948 1.1504
C4 C 0.22368(14) 0.80131(12) 1.03821(10)
H7 H 0.2480 0.7567 1.1124
H8 H 0.2527 0.8959 1.0188
C5 C 0.30982(13) 0.73055(11) 0.92520(10)
C6 C 0.30937(13) 0.82092(11) 0.80355(10)
H9 H 0.2025 0.8267 0.8025
H10 H 0.3375 0.9119 0.8034
C7 C 0.42042(12) 0.77287(10) 0.68535(10)
C8 C 0.53100(13) 0.67776(11) 0.68770(10)
H11 H 0.5960 0.6504 0.6108
C9 C 0.55746(13) 0.61260(12) 0.80485(11)
H12 H 0.6708 0.6051 0.7877
H13 H 0.5171 0.5212 0.8301
C10 C 0.47809(13) 0.69034(12) 0.91230(10)
H14 H 0.5369 0.7715 0.8973
H15 H 0.4791 0.6348 0.9916
C11 C 0.40409(12) 0.83579(10) 0.56574(10)
C12 C 0.52495(12) 0.81202(11) 0.44138(10)
H16 H 0.6231 0.7798 0.4543
H17 H 0.5456 0.8984 0.3834
C13 C 0.48093(13) 0.71147(11) 0.37785(10)
H18 H 0.4649 0.6230 0.4325
H19 H 0.3825 0.7416 0.3644
C14 C 0.60942(14) 0.70080(12) 0.25405(11)
H20 H 0.6982 0.6455 0.2545
C15 C 0.60669(15) 0.76315(14) 0.14525(12)
H21 H 0.5196 0.8192 0.1416
H22 H 0.6918 0.7522 0.0702
C16 C 0.16331(12) 1.08034(10) 0.46748(10)
C17 C 0.12716(12) 1.14027(10) 0.36059(10)
C18 C 0.02746(13) 1.25188(11) 0.36265(11)
H23 H 0.0049 1.2911 0.2902
C19 C -0.03756(12) 1.30423(10) 0.47142(11)
C20 C -0.01095(13) 1.24541(11) 0.58068(11)
H24 H -0.0600 1.2819 0.6556
C21 C 0.08612(12) 1.13507(10) 0.57899(10)
H25 H 0.1022 1.0942 0.6539
N1 N 0.28423(11) 0.91646(9) 0.57618(8)
N2 N 0.26596(11) 0.97648(9) 0.46580(8)
H26 H 0.3178(16) 0.9496(13) 0.3957(13)
N3 N 0.19058(11) 1.08822(10) 0.24400(9)
N4 N -0.13317(11) 1.42607(10) 0.47164(11)
O1 O 0.29398(10) 0.99921(8) 0.23205(8)
O2 O 0.13946(12) 1.13338(10) 0.16088(8)
O3 O -0.16099(13) 1.47371(10) 0.37702(10)
O4 O -0.18184(10) 1.47567(8) 0.56782(9)
loop_
_geom_bond_atom_site_label_1
_geom_bond_atom_site_label_2
_geom_bond_site_symmetry_1
_geom_bond_site_symmetry_2
C1 H1 1_555 1_555
H2 C1 1_555 1_555
C2 C1 1_555 1_555
H3 C2 1_555 1_555
H4 C2 1_555 1_555
C3 C2 1_555 1_555
H5 C3 1_555 1_555
H6 C3 1_555 1_555
C4 C3 1_555 1_555
H7 C4 1_555 1_555
H8 C4 1_555 1_555
C5 C1 1_555 1_555
C6 C5 1_555 1_555
H9 C6 1_555 1_555
H10 C6 1_555 1_555
C7 C6 1_555 1_555
C8 C7 1_555 1_555
H11 C8 1_555 1_555
C9 C8 1_555 1_555
H12 C9 1_555 1_555
H13 C9 1_555 1_555
C10 C5 1_555 1_555
H14 C10 1_555 1_555
H15 C10 1_555 1_555
C11 C7 1_555 1_555
C12 C11 1_555 1_555
H16 C12 1_555 1_555
H17 C12 1_555 1_555
C13 C12 1_555 1_555
H18 C13 1_555 1_555
H19 C13 1_555 1_555
C14 C13 1_555 1_555
H20 C14 1_555 1_555
C15 C14 1_555 1_555
H21 C15 1_555 1_555
H22 C15 1_555 1_555
C16 C17 1_555 1_555
C17 C18 1_555 1_555
C18 H23 1_555 1_555
C19 C18 1_555 1_555
C20 C19 1_555 1_555
H24 C20 1_555 1_555
C21 C16 1_555 1_555
H25 C21 1_555 1_555
N1 C11 1_555 1_555
N2 C16 1_555 1_555
H26 N2 1_555 1_555
N3 C17 1_555 1_555
N4 C19 1_555 1_555
O1 N3 1_555 1_555
O2 N3 1_555 1_555
O3 N4 1_555 1_555
O4 N4 1_555 1_555
C4 C5 1_555 1_555
C9 C10 1_555 1_555
C20 C21 1_555 1_555
N1 N2 1_555 1_555

#END
