
#######################################################################
#
#                 Cambridge Crystallographic Data Centre
#                                CCDC 
#
#######################################################################
#
# If this CIF has been generated from an entry in the Cambridge 
# Structural Database, then it will include bibliographic, chemical, 
# crystal, experimental, refinement or atomic coordinate data resulting 
# from the CCDC's data processing and validation procedures.
#
#######################################################################

data_MOGHEW
_chemical_formula_moiety         'C48 H68 O8 S4,5(C6 H12)'
_chemical_name_systematic        
"((1S,2S)-1,2-dithiocyclohexanediyl-2,2'-bis(6-t-butyl-4-methylphenoxy))bis((1S)-camphor-10-sulfonate) cyclohexane solvate"
_symmetry_cell_setting           monoclinic
_symmetry_space_group_name_H-M   'P 21'
_symmetry_Int_Tables_number      4
_space_group_name_Hall           'P 2yb'
loop_
_symmetry_equiv_pos_site_id
_symmetry_equiv_pos_as_xyz
1 x,y,z
2 -x,1/2+y,-z
_cell_length_a                   16.1765(13)
_cell_length_b                   11.7091(10)
_cell_length_c                   21.2797(18)
_cell_angle_alpha                90
_cell_angle_beta                 104.188(2)
_cell_angle_gamma                90
_cell_volume                     3907.69
_exptl_crystal_colour            colorless
_exptl_crystal_description       'triangular plate'
_cell_formula_units_Z            2
_exptl_crystal_recrystallization_method cyclohexane
loop_
_atom_site_label
_atom_site_type_symbol
_atom_site_fract_x
_atom_site_fract_y
_atom_site_fract_z
S1 S 0.25907(8) 0.70467(11) 0.88602(6)
S2 S 0.06129(8) 0.76100(11) 0.70835(6)
S3 S 0.34230(8) 0.70906(10) 1.05875(5)
S4 S 0.18536(8) 0.76631(10) 0.58697(5)
O1 O 0.2531(2) 0.6476(3) 1.02500(14)
O2 O 0.21450(18) 0.7036(3) 0.65598(13)
O3 O 0.3483(2) 0.7067(3) 1.12649(15)
O4 O 0.4077(2) 0.6593(3) 1.03470(18)
O5 O 0.2818(3) 1.0636(4) 0.9783(2)
O6 O 0.1068(2) 0.7183(3) 0.55279(14)
O7 O 0.2566(2) 0.7630(3) 0.55889(16)
O8 O 0.1480(3) 1.1226(3) 0.6540(2)
C1 C 0.2509(3) 0.5506(4) 0.9845(2)
C2 C 0.2526(3) 0.5667(4) 0.9192(2)
C3 C 0.2484(3) 0.4733(4) 0.8792(2)
H1 H 0.2503 0.4848 0.8354
C4 C 0.2415(3) 0.3640(4) 0.9008(2)
C5 C 0.2368(3) 0.3515(4) 0.9644(2)
H2 H 0.2308 0.2761 0.9793
C6 C 0.2401(3) 0.4407(4) 1.0088(2)
C7 C 0.2377(4) 0.2641(5) 0.8567(3)
H3 H 0.2167 0.2891 0.8117
H4 H 0.1991 0.2063 0.8668
H5 H 0.2949 0.2314 0.8627
C8 C 0.2321(3) 0.4171(4) 1.0781(2)
C9 C 0.3199(4) 0.4217(4) 1.1253(2)
H6 H 0.3413 0.5003 1.1283
H7 H 0.3593 0.3718 1.1096
H8 H 0.3155 0.3958 1.1681
C10 C 0.1717(4) 0.5016(5) 1.0997(3)
H9 H 0.1983 0.5773 1.1061
H10 H 0.1603 0.4753 1.1405
H11 H 0.1179 0.5061 1.0663
C11 C 0.1962(4) 0.2950(5) 1.0820(3)
H12 H 0.1890 0.2814 1.1257
H13 H 0.2360 0.2388 1.0721
H14 H 0.1410 0.2879 1.0505
C12 C 0.1510(3) 0.7123(5) 0.8338(2)
H15 H 0.1360 0.6350 0.8143
C13 C 0.1511(3) 0.7966(4) 0.7780(2)
H16 H 0.2051 0.7844 0.7641
C14 C 0.1485(4) 0.9201(4) 0.7973(3)
H17 H 0.1415 0.9685 0.7582
H18 H 0.2037 0.9404 0.8273
C15 C 0.0767(4) 0.9463(5) 0.8300(3)
H19 H 0.0209 0.9323 0.7993
H20 H 0.0792 1.0276 0.8431
C16 C 0.0858(5) 0.8691(6) 0.8905(3)
H21 H 0.1405 0.8856 0.9220
H22 H 0.0390 0.8856 0.9117
C17 C 0.0828(4) 0.7454(5) 0.8711(3)
H23 H 0.0255 0.7281 0.8435
H24 H 0.0914 0.6977 0.9106
C18 C 0.0966(3) 0.6218(4) 0.6912(2)
C19 C 0.1709(3) 0.6064(4) 0.6710(2)
C20 C 0.2064(3) 0.4983(4) 0.6690(2)
C21 C 0.1574(3) 0.4071(4) 0.6814(2)
H25 H 0.1784 0.3319 0.6791
C22 C 0.0792(4) 0.4204(4) 0.6971(2)
C23 C 0.0516(3) 0.5281(4) 0.7034(2)
H26 H 0.0001 0.5392 0.7166
C24 C 0.0298(4) 0.3153(4) 0.7087(3)
H27 H -0.0157 0.3382 0.7292
H28 H 0.0684 0.2621 0.7372
H29 H 0.0047 0.2779 0.6672
C25 C 0.2925(3) 0.4747(4) 0.6526(2)
C26 C 0.2835(4) 0.4798(5) 0.5797(3)
H30 H 0.2437 0.4205 0.5583
H31 H 0.3393 0.4671 0.5705
H32 H 0.2617 0.5550 0.5633
C27 C 0.3270(4) 0.3562(5) 0.6767(3)
H33 H 0.3333 0.3512 0.7237
H34 H 0.3825 0.3444 0.6670
H35 H 0.2870 0.2974 0.6549
C28 C 0.3178(3) 0.8491(4) 1.0292(2)
H36 H 0.3145 0.8487 0.9821
H37 H 0.2604 0.8685 1.0344
C29 C 0.3783(3) 0.9436(4) 1.0599(2)
C30 C 0.3606(3) 0.5624(5) 0.6862(3)
H38 H 0.4173 0.5349 0.6846
H39 H 0.3583 0.5718 0.7315
H40 H 0.3495 0.6359 0.6637
C31 C 0.3503(4) 1.0518(5) 1.0163(3)
C32 C 0.4235(4) 1.1352(5) 1.0340(3)
H41 H 0.4474 1.1522 0.9964
H42 H 0.4058 1.2074 1.0512
C33 C 0.4861(4) 1.0703(4) 1.0857(3)
H43 H 0.5461 1.0985 1.0937
C34 C 0.4496(4) 1.0714(6) 1.1462(3)
H44 H 0.4311 1.1490 1.1552
H45 H 0.4917 1.0426 1.1848
C35 C 0.3721(4) 0.9886(5) 1.1255(3)
H46 H 0.3762 0.9256 1.1571
H47 H 0.3177 1.0298 1.1220
C36 C 0.4743(4) 0.9459(5) 1.0628(3)
C37 C 0.5265(4) 0.8638(5) 1.1145(4)
H48 H 0.5269 0.7875 1.0956
H49 H 0.5006 0.8600 1.1515
H50 H 0.5851 0.8920 1.1290
C38 C 0.4992(4) 0.9214(5) 1.0004(3)
H51 H 0.4741 0.9793 0.9680
H52 H 0.4783 0.8457 0.9844
H53 H 0.5615 0.9234 1.0081
C39 C 0.1739(3) 0.9070(4) 0.6137(2)
H54 H 0.1233 0.9084 0.6321
H55 H 0.2242 0.9242 0.6495
C40 C 0.1645(3) 1.0017(4) 0.5651(2)
C41 C 0.1386(3) 1.1088(4) 0.5965(3)
C42 C 0.1035(4) 1.1938(4) 0.5425(3)
H56 H 0.0429 1.2119 0.5397
H57 H 0.1371 1.2654 0.5485
C43 C 0.1136(3) 1.1293(4) 0.4840(3)
H58 H 0.0776 1.1583 0.4420
C44 C 0.2104(4) 1.1277(5) 0.4881(3)
H59 H 0.2361 1.2042 0.4984
H60 H 0.2221 1.1002 0.4471
C45 C 0.2438(3) 1.0423(5) 0.5442(3)
H61 H 0.2730 0.9771 0.5293
H62 H 0.2844 1.0803 0.5807
C46 C 0.0951(3) 1.0028(4) 0.4999(2)
C47 C 0.1115(4) 0.9190(5) 0.4473(3)
H63 H 0.0928 0.8421 0.4557
H64 H 0.1725 0.9178 0.4489
H65 H 0.0795 0.9445 0.4044
C48 C 0.0038(4) 0.9828(5) 0.5061(3)
H66 H -0.0367 1.0058 0.4658
H67 H -0.0063 1.0280 0.5422
H68 H -0.0041 0.9016 0.5142
C55 C 0.4069(10) -0.1334(13) 0.7730(7)
H81 H 0.4504 -0.1704 0.8079
H82 H 0.3570 -0.1851 0.7615
C56 C 0.4414(10) -0.1189(13) 0.7168(7)
H83 H 0.4902 -0.1723 0.7232
H84 H 0.3974 -0.1491 0.6797
C57 C 0.4679(11) -0.0233(11) 0.6963(7)
H85 H 0.4303 -0.0080 0.6529
H86 H 0.5255 -0.0385 0.6898
C58 C 0.4736(10) 0.0815(12) 0.7325(7)
H87 H 0.4487 0.1432 0.7019
H88 H 0.5347 0.0996 0.7497
C59 C 0.4316(11) 0.0853(12) 0.7879(7)
H89 H 0.3929 0.1520 0.7815
H90 H 0.4764 0.0988 0.8282
C60 C 0.3796(9) -0.0219(11) 0.7985(8)
H91 H 0.3843 -0.0305 0.8455
H92 H 0.3188 -0.0084 0.7772
C61 C 0.2943(8) 0.9395(11) 0.2797(7)
H93 H 0.2711 0.9322 0.2323
H94 H 0.3202 0.8653 0.2961
C62 C 0.2259(9) 0.9635(11) 0.3092(7)
H95 H 0.2456 0.9543 0.3568
H96 H 0.1785 0.9094 0.2930
C63 C 0.1959(9) 1.0827(11) 0.2933(8)
H97 H 0.1564 1.1021 0.3206
H98 H 0.1622 1.0836 0.2477
C64 C 0.2630(8) 1.1799(11) 0.3013(7)
H99 H 0.2350 1.2495 0.2796
H100 H 0.2846 1.1973 0.3480
C65 C 0.3364(9) 1.1502(11) 0.2736(7)
H101 H 0.3184 1.1542 0.2257
H102 H 0.3830 1.2060 0.2887
C66 C 0.3671(9) 1.0358(11) 0.2934(7)
H103 H 0.3946 1.0367 0.3404
H104 H 0.4111 1.0148 0.2704
C73 C 0.1343(7) -0.1605(9) 0.0965(6)
H117 H 0.1942 -0.1810 0.1171
H118 H 0.1193 -0.1954 0.0528
C74 C 0.0782(6) -0.2093(10) 0.1356(5)
H119 H 0.0996 -0.1849 0.1812
H120 H 0.0817 -0.2936 0.1344
C75 C -0.0163(7) -0.1732(9) 0.1117(6)
H121 H -0.0422 -0.2105 0.0698
H122 H -0.0485 -0.1971 0.1435
C76 C -0.0202(7) -0.0436(9) 0.1038(6)
H123 H -0.0799 -0.0214 0.0838
H124 H -0.0038 -0.0082 0.1473
C77 C 0.0347(6) 0.0037(10) 0.0641(5)
H125 H 0.0318 0.0881 0.0646
H126 H 0.0137 -0.0221 0.0187
C78 C 0.1275(7) -0.0344(9) 0.0899(6)
H127 H 0.1616 -0.0081 0.0599
H128 H 0.1512 0.0014 0.1326
C85 C 0.2322(3) 0.5826(6) 0.2958(2)
H141 H 0.2358 0.5684 0.2507
H142 H 0.2605 0.6567 0.3092
C86 C 0.1378(3) 0.5962(6) 0.2950(2)
H143 H 0.1231 0.6783 0.2899
H144 H 0.1034 0.5560 0.2565
C87 C 0.1131(3) 0.5531(6) 0.3529(2)
H145 H 0.0509 0.5386 0.3418
H146 H 0.1254 0.6125 0.3871
C88 C 0.1598(3) 0.4434(6) 0.3796(2)
H147 H 0.1455 0.4244 0.4211
H148 H 0.1383 0.3805 0.3489
C89 C 0.2483(3) 0.4480(6) 0.3903(2)
H149 H 0.2711 0.3698 0.3998
H150 H 0.2710 0.4950 0.4294
C90 C 0.2815(3) 0.4955(6) 0.3359(2)
H151 H 0.3390 0.5269 0.3547
H152 H 0.2883 0.4311 0.3074
C97 C 0.4713(10) 0.7918(13) 0.4225(7)
H165 H 0.4395 0.7802 0.3769
H166 H 0.5111 0.8566 0.4243
C98 C 0.5189(10) 0.6871(14) 0.4483(7)
H167 H 0.5580 0.6665 0.4208
H168 H 0.4784 0.6232 0.4468
C99 C 0.5705(9) 0.7053(16) 0.5186(6)
H169 H 0.6014 0.6344 0.5355
H170 H 0.6128 0.7671 0.5203
C100 C 0.5080(10) 0.7376(12) 0.5594(7)
H171 H 0.4682 0.6734 0.5595
H172 H 0.5400 0.7516 0.6047
C101 C 0.4600(10) 0.8385(14) 0.5342(7)
H173 H 0.4993 0.9037 0.5353
H174 H 0.4202 0.8580 0.5613
C102 C 0.4101(9) 0.8159(14) 0.4645(6)
H175 H 0.3717 0.7497 0.4634
H176 H 0.3747 0.8833 0.4475
C49? C 0.4154(15) -0.1133(18) 0.7967(11)
H69? H 0.3549 -0.1260 0.7740
H70? H 0.4300 -0.1701 0.8322
C50? C 0.4691(14) -0.1390(17) 0.7494(11)
H71? H 0.4340 -0.1804 0.7117
H72? H 0.5170 -0.1894 0.7706
C51? C 0.5048(13) -0.0306(15) 0.7259(12)
H73? H 0.5095 -0.0405 0.6807
H74? H 0.5621 -0.0135 0.7536
C52? C 0.4402(13) 0.0710(18) 0.7299(11)
H75? H 0.4752 0.1403 0.7431
H76? H 0.4058 0.0847 0.6852
C53? C 0.3805(14) 0.064(2) 0.7715(9)
H77? H 0.3647 0.1413 0.7831
H78? H 0.3280 0.0231 0.7489
C54? C 0.4223(15) 0.0040(16) 0.8272(9)
H79? H 0.3918 0.0092 0.8622
H80? H 0.4822 0.0288 0.8436
C67? C 0.2935(16) 0.957(3) 0.3376(14)
H105? H 0.3073 0.9822 0.3833
H106? H 0.2839 0.8733 0.3368
C68? C 0.2126(19) 1.017(3) 0.3002(17)
H107? H 0.1896 0.9640 0.2636
H108? H 0.1735 1.0095 0.3292
C69? C 0.1927(18) 1.134(2) 0.2704(16)
H109? H 0.1476 1.1309 0.2294
H110? H 0.1759 1.1880 0.3007
C70? C 0.2774(17) 1.163(3) 0.2589(15)
H111? H 0.2846 1.2464 0.2643
H112? H 0.2744 1.1457 0.2128
C71? C 0.3589(18) 1.108(3) 0.2988(16)
H113? H 0.4056 1.1322 0.2793
H114? H 0.3704 1.1424 0.3425
C72? C 0.368(2) 0.983(2) 0.3083(16)
H115? H 0.4228 0.9633 0.3384
H116? H 0.3624 0.9429 0.2667
C79? C 0.0831(17) -0.1886(14) 0.0489(14)
H129? H 0.0790 -0.2185 0.0047
H130? H 0.1384 -0.2128 0.0773
C80? C 0.0124(15) -0.231(2) 0.0741(10)
H131? H 0.0067 -0.3151 0.0676
H132? H -0.0417 -0.1951 0.0507
C81? C 0.0297(19) -0.204(2) 0.1437(11)
H133? H 0.0878 -0.2290 0.1667
H134? H -0.0122 -0.2421 0.1639
C82? C 0.0211(17) -0.075(2) 0.1451(14)
H135? H -0.0377 -0.0532 0.1220
H136? H 0.0300 -0.0494 0.1907
C83? C 0.0826(18) -0.012(2) 0.1151(9)
H137? H 0.1414 -0.0220 0.1421
H138? H 0.0690 0.0703 0.1123
C84? C 0.0762(3) -0.0599(6) 0.0476(2)
H139? H 0.0210 -0.0371 0.0186
H140? H 0.1224 -0.0273 0.0301
C91? C 0.2105(3) 0.6351(6) 0.3009(2)
H153? H 0.2287 0.6641 0.2627
H154? H 0.1818 0.6982 0.3182
C92? C 0.1481(3) 0.5374(6) 0.2803(2)
H155? H 0.1780 0.4698 0.2687
H156? H 0.1027 0.5599 0.2420
C93? C 0.1094(3) 0.5091(6) 0.3369(2)
H157? H 0.0553 0.5516 0.3320
H158? H 0.0962 0.4265 0.3363
C94? C 0.1688(3) 0.5393(6) 0.4009(2)
H159? H 0.1472 0.6112 0.4156
H160? H 0.1621 0.4793 0.4321
C95? C 0.2573(3) 0.5540(6) 0.4081(2)
H161? H 0.2854 0.4794 0.4206
H162? H 0.2785 0.6071 0.4447
C96? C 0.2863(3) 0.5978(6) 0.3511(2)
H163? H 0.3258 0.6629 0.3643
H164? H 0.3168 0.5369 0.3336
C103? C 0.5101(19) 0.861(2) 0.4669(15)
H177? H 0.4869 0.9025 0.4260
H178? H 0.5577 0.9066 0.4930
C104? C 0.545(2) 0.747(2) 0.4508(14)
H179? H 0.5126 0.7245 0.4070
H180? H 0.6050 0.7602 0.4482
C105? C 0.5458(18) 0.646(2) 0.4957(16)
H181? H 0.5541 0.5748 0.4732
H182? H 0.5938 0.6541 0.5345
C106? C 0.4631(17) 0.640(2) 0.5161(14)
H183? H 0.4152 0.6268 0.4778
H184? H 0.4649 0.5761 0.5468
C107? C 0.450(2) 0.750(2) 0.5477(13)
H185? H 0.4993 0.7626 0.5852
H186? H 0.3985 0.7431 0.5646
C108? C 0.441(2) 0.852(3) 0.5038(15)
H187? H 0.4416 0.9223 0.5301
H188? H 0.3843 0.8487 0.4723
loop_
_geom_bond_atom_site_label_1
_geom_bond_atom_site_label_2
_geom_bond_site_symmetry_1
_geom_bond_site_symmetry_2
S1 C2 1_555 1_555
S2 C13 1_555 1_555
S3 O1 1_555 1_555
S4 O2 1_555 1_555
O1 C1 1_555 1_555
O2 C19 1_555 1_555
O3 S3 1_555 1_555
O4 S3 1_555 1_555
O5 C31 1_555 1_555
O6 S4 1_555 1_555
O7 S4 1_555 1_555
O8 C41 1_555 1_555
C1 C2 1_555 1_555
C2 C3 1_555 1_555
C3 H1 1_555 1_555
C4 C3 1_555 1_555
C5 C4 1_555 1_555
H2 C5 1_555 1_555
C6 C1 1_555 1_555
C7 C4 1_555 1_555
H3 C7 1_555 1_555
H4 C7 1_555 1_555
H5 C7 1_555 1_555
C8 C6 1_555 1_555
C9 C8 1_555 1_555
H6 C9 1_555 1_555
H7 C9 1_555 1_555
H8 C9 1_555 1_555
C10 C8 1_555 1_555
H9 C10 1_555 1_555
H10 C10 1_555 1_555
H11 C10 1_555 1_555
C11 C8 1_555 1_555
H12 C11 1_555 1_555
H13 C11 1_555 1_555
H14 C11 1_555 1_555
C12 S1 1_555 1_555
H15 C12 1_555 1_555
C13 C12 1_555 1_555
H16 C13 1_555 1_555
C14 C13 1_555 1_555
H17 C14 1_555 1_555
H18 C14 1_555 1_555
C15 C14 1_555 1_555
H19 C15 1_555 1_555
H20 C15 1_555 1_555
C16 C15 1_555 1_555
H21 C16 1_555 1_555
H22 C16 1_555 1_555
C17 C12 1_555 1_555
H23 C17 1_555 1_555
H24 C17 1_555 1_555
C18 S2 1_555 1_555
C19 C18 1_555 1_555
C20 C19 1_555 1_555
C21 C20 1_555 1_555
H25 C21 1_555 1_555
C22 C21 1_555 1_555
C23 C18 1_555 1_555
H26 C23 1_555 1_555
C24 C22 1_555 1_555
H27 C24 1_555 1_555
H28 C24 1_555 1_555
H29 C24 1_555 1_555
C25 C20 1_555 1_555
C26 C25 1_555 1_555
H30 C26 1_555 1_555
H31 C26 1_555 1_555
H32 C26 1_555 1_555
C27 C25 1_555 1_555
H33 C27 1_555 1_555
H34 C27 1_555 1_555
H35 C27 1_555 1_555
C28 S3 1_555 1_555
H36 C28 1_555 1_555
H37 C28 1_555 1_555
C29 C28 1_555 1_555
C30 C25 1_555 1_555
H38 C30 1_555 1_555
H39 C30 1_555 1_555
H40 C30 1_555 1_555
C31 C29 1_555 1_555
C32 C31 1_555 1_555
H41 C32 1_555 1_555
H42 C32 1_555 1_555
C33 C32 1_555 1_555
H43 C33 1_555 1_555
C34 C33 1_555 1_555
H44 C34 1_555 1_555
H45 C34 1_555 1_555
C35 C29 1_555 1_555
H46 C35 1_555 1_555
H47 C35 1_555 1_555
C36 C29 1_555 1_555
C37 C36 1_555 1_555
H48 C37 1_555 1_555
H49 C37 1_555 1_555
H50 C37 1_555 1_555
C38 C36 1_555 1_555
H51 C38 1_555 1_555
H52 C38 1_555 1_555
H53 C38 1_555 1_555
C39 S4 1_555 1_555
H54 C39 1_555 1_555
H55 C39 1_555 1_555
C40 C39 1_555 1_555
C41 C40 1_555 1_555
C42 C41 1_555 1_555
H56 C42 1_555 1_555
H57 C42 1_555 1_555
C43 C42 1_555 1_555
H58 C43 1_555 1_555
C44 C43 1_555 1_555
H59 C44 1_555 1_555
H60 C44 1_555 1_555
C45 C40 1_555 1_555
H61 C45 1_555 1_555
H62 C45 1_555 1_555
C46 C40 1_555 1_555
C47 C46 1_555 1_555
H63 C47 1_555 1_555
H64 C47 1_555 1_555
H65 C47 1_555 1_555
C48 C46 1_555 1_555
H66 C48 1_555 1_555
H67 C48 1_555 1_555
H68 C48 1_555 1_555
C55 H81 1_555 1_555
H82 C55 1_555 1_555
C56 C55 1_555 1_555
H83 C56 1_555 1_555
H84 C56 1_555 1_555
C57 C56 1_555 1_555
H85 C57 1_555 1_555
H86 C57 1_555 1_555
C58 C57 1_555 1_555
H87 C58 1_555 1_555
H88 C58 1_555 1_555
C59 C58 1_555 1_555
H89 C59 1_555 1_555
H90 C59 1_555 1_555
C60 C55 1_555 1_555
H91 C60 1_555 1_555
H92 C60 1_555 1_555
C61 H93 1_555 1_555
H94 C61 1_555 1_555
C62 C61 1_555 1_555
H95 C62 1_555 1_555
H96 C62 1_555 1_555
C63 C62 1_555 1_555
H97 C63 1_555 1_555
H98 C63 1_555 1_555
C64 C63 1_555 1_555
H99 C64 1_555 1_555
H100 C64 1_555 1_555
C65 C64 1_555 1_555
H101 C65 1_555 1_555
H102 C65 1_555 1_555
C66 C61 1_555 1_555
H103 C66 1_555 1_555
H104 C66 1_555 1_555
C73 H117 1_555 1_555
H118 C73 1_555 1_555
C74 C73 1_555 1_555
H119 C74 1_555 1_555
H120 C74 1_555 1_555
C75 C74 1_555 1_555
H121 C75 1_555 1_555
H122 C75 1_555 1_555
C76 C75 1_555 1_555
H123 C76 1_555 1_555
H124 C76 1_555 1_555
C77 C76 1_555 1_555
H125 C77 1_555 1_555
H126 C77 1_555 1_555
C78 C73 1_555 1_555
H127 C78 1_555 1_555
H128 C78 1_555 1_555
C85 H141 1_555 1_555
H142 C85 1_555 1_555
C86 C85 1_555 1_555
H143 C86 1_555 1_555
H144 C86 1_555 1_555
C87 C86 1_555 1_555
H145 C87 1_555 1_555
H146 C87 1_555 1_555
C88 C87 1_555 1_555
H147 C88 1_555 1_555
H148 C88 1_555 1_555
C89 C88 1_555 1_555
H149 C89 1_555 1_555
H150 C89 1_555 1_555
C90 C85 1_555 1_555
H151 C90 1_555 1_555
H152 C90 1_555 1_555
C97 H165 1_555 1_555
H166 C97 1_555 1_555
C98 C97 1_555 1_555
H167 C98 1_555 1_555
H168 C98 1_555 1_555
C99 C98 1_555 1_555
H169 C99 1_555 1_555
H170 C99 1_555 1_555
C100 C99 1_555 1_555
H171 C100 1_555 1_555
H172 C100 1_555 1_555
C101 C100 1_555 1_555
H173 C101 1_555 1_555
H174 C101 1_555 1_555
C102 C97 1_555 1_555
H175 C102 1_555 1_555
H176 C102 1_555 1_555
C5 C6 1_555 1_555
C16 C17 1_555 1_555
C22 C23 1_555 1_555
C33 C36 1_555 1_555
C34 C35 1_555 1_555
C43 C46 1_555 1_555
C44 C45 1_555 1_555
C59 C60 1_555 1_555
C65 C66 1_555 1_555
C77 C78 1_555 1_555
C89 C90 1_555 1_555
C101 C102 1_555 1_555

#END
