
#######################################################################
#
#                 Cambridge Crystallographic Data Centre
#                                CCDC 
#
#######################################################################
#
# If this CIF has been generated from an entry in the Cambridge 
# Structural Database, then it will include bibliographic, chemical, 
# crystal, experimental, refinement or atomic coordinate data resulting 
# from the CCDC's data processing and validation procedures.
#
#######################################################################

data_MOGJOH
_chemical_formula_moiety         'C19 H20 B1 N1 O3'
_chemical_name_systematic        
2-(4-(4,4,5,5-Tetramethyl-1,3,2-dioxaborolan-2-yl)phenyl)benzoxazole
_symmetry_cell_setting           monoclinic
_symmetry_space_group_name_H-M   'P 21/n'
_symmetry_Int_Tables_number      14
_space_group_name_Hall           '-P 2yn'
loop_
_symmetry_equiv_pos_site_id
_symmetry_equiv_pos_as_xyz
1 x,y,z
2 1/2+x,1/2-y,1/2+z
3 -x,-y,-z
4 1/2-x,1/2+y,1/2-z
_cell_length_a                   6.5392(3)
_cell_length_b                   16.3330(8)
_cell_length_c                   16.1942(8)
_cell_angle_alpha                90
_cell_angle_beta                 97.9620(10)
_cell_angle_gamma                90
_cell_volume                     1712.94
_exptl_crystal_colour            yellow
_exptl_crystal_description       parallelepiped
_chemical_melting_point          186-188deg.C
_cell_formula_units_Z            4
_exptl_crystal_recrystallization_method dichloromethane
loop_
_atom_site_label
_atom_site_type_symbol
_atom_site_fract_x
_atom_site_fract_y
_atom_site_fract_z
B1 B 0.46842(16) 0.75603(7) 0.56150(6)
O1 O 0.27962(19) 0.74478(9) 0.58229(9)
C1 C 0.27190(15) 0.65604(6) 0.61027(6)
C2 C 0.50666(15) 0.64148(6) 0.64303(7)
O3 O 0.60872(11) 0.70635(4) 0.60426(4)
C3 C 0.1977(4) 0.60594(18) 0.54304(16)
H1 H 0.1951 0.5490 0.5619
H2 H 0.2881 0.6106 0.4998
H3 H 0.0576 0.6231 0.5202
C5 C 0.1355(8) 0.6587(2) 0.6820(3)
H7 H 0.1289 0.6039 0.7062
H8 H -0.0040 0.6769 0.6597
H9 H 0.1961 0.6970 0.7252
C7 C 0.5904(4) 0.56050(13) 0.63730(18)
H13 H 0.7350 0.5600 0.6632
H14 H 0.5822 0.5448 0.5785
H15 H 0.5109 0.5216 0.6662
C9 C 0.5722(3) 0.67417(16) 0.73972(12)
H19 H 0.5086 0.6390 0.7781
H20 H 0.5241 0.7306 0.7444
H21 H 0.7228 0.6723 0.7540
C11 C 0.52642(14) 0.83159(5) 0.51018(5)
C12 C 0.37398(14) 0.87215(6) 0.45567(6)
C13 C 0.42430(14) 0.93491(6) 0.40385(5)
C14 C 0.63029(13) 0.95742(5) 0.40527(5)
C15 C 0.78430(14) 0.91950(5) 0.46115(5)
C16 C 0.73197(15) 0.85721(5) 0.51285(6)
C17 C 0.68703(15) 1.01799(5) 0.34542(5)
N1 N 0.55230(12) 1.04746(5) 0.28414(4)
C18 C 0.67302(17) 1.09599(6) 0.23833(6)
C19 C 0.6175(3) 1.13952(8) 0.16479(7)
C20 C 0.7762(3) 1.17952(8) 0.13268(8)
C21 C 0.9782(3) 1.17657(8) 0.17162(8)
C22 C 1.0355(2) 1.13327(7) 0.24501(8)
C23 C 0.87561(16) 1.09315(5) 0.27687(6)
O5 O 0.88309(11) 1.04240(4) 0.34632(4)
H25 H 0.2276(18) 0.8577(7) 0.4538(7)
H26 H 0.3196(16) 0.9621(7) 0.3647(7)
H27 H 0.9256(17) 0.9366(7) 0.4617(6)
H28 H 0.8432(18) 0.8313(7) 0.5513(7)
H29 H 0.476(2) 1.1395(8) 0.1394(8)
H30 H 0.741(2) 1.2095(10) 0.0814(9)
H31 H 1.087(2) 1.2042(10) 0.1493(10)
H32 H 1.187(2) 1.1285(8) 0.2725(9)
O2? O 0.2680(2) 0.71514(11) 0.54076(11)
C4? C 0.1449(5) 0.57754(19) 0.5614(2)
H4? H 0.1383 0.5324 0.6009
H5? H 0.2171 0.5593 0.5156
H6? H 0.0045 0.5948 0.5391
C6? C 0.1484(10) 0.6850(3) 0.6717(4)
H10? H 0.0060 0.6937 0.6452
H11? H 0.2054 0.7367 0.6955
H12? H 0.1498 0.6442 0.7161
C8? C 0.5905(5) 0.56664(18) 0.5859(3)
H16? H 0.7405 0.5611 0.5999
H17? H 0.5563 0.5799 0.5265
H18? H 0.5238 0.5150 0.5976
C10? C 0.5542(5) 0.6212(2) 0.72676(18)
H22? H 0.7042 0.6156 0.7410
H23? H 0.4875 0.5693 0.7374
H24? H 0.5045 0.6644 0.7610
O4? O 0.55230(12) 1.04746(5) 0.28414(4)
N2? N 0.88309(11) 1.04240(4) 0.34632(4)
loop_
_geom_bond_atom_site_label_1
_geom_bond_atom_site_label_2
_geom_bond_site_symmetry_1
_geom_bond_site_symmetry_2
B1 O1 1_555 1_555
O1 C1 1_555 1_555
C1 C2 1_555 1_555
C2 O3 1_555 1_555
O3 B1 1_555 1_555
C3 C1 1_555 1_555
H1 C3 1_555 1_555
H2 C3 1_555 1_555
H3 C3 1_555 1_555
C5 C1 1_555 1_555
H7 C5 1_555 1_555
H8 C5 1_555 1_555
H9 C5 1_555 1_555
C7 C2 1_555 1_555
H13 C7 1_555 1_555
H14 C7 1_555 1_555
H15 C7 1_555 1_555
C9 C2 1_555 1_555
H19 C9 1_555 1_555
H20 C9 1_555 1_555
H21 C9 1_555 1_555
C11 B1 1_555 1_555
C12 C11 1_555 1_555
C13 C12 1_555 1_555
C14 C13 1_555 1_555
C15 C14 1_555 1_555
C16 C11 1_555 1_555
C17 C14 1_555 1_555
N1 C17 1_555 1_555
C18 N1 1_555 1_555
C19 C18 1_555 1_555
C20 C19 1_555 1_555
C21 C20 1_555 1_555
C22 C21 1_555 1_555
C23 C18 1_555 1_555
O5 C17 1_555 1_555
H25 C12 1_555 1_555
H26 C13 1_555 1_555
H27 C15 1_555 1_555
H28 C16 1_555 1_555
H29 C19 1_555 1_555
H30 C20 1_555 1_555
H31 C21 1_555 1_555
H32 C22 1_555 1_555
C15 C16 1_555 1_555
C22 C23 1_555 1_555
C23 O5 1_555 1_555

#END
