
#######################################################################
#
#                 Cambridge Crystallographic Data Centre
#                                CCDC 
#
#######################################################################
#
# If this CIF has been generated from an entry in the Cambridge 
# Structural Database, then it will include bibliographic, chemical, 
# crystal, experimental, refinement or atomic coordinate data resulting 
# from the CCDC's data processing and validation procedures.
#
#######################################################################

data_MOGJEZ
_chemical_formula_moiety         'C18 H24 N4 O4 Si1'
_chemical_name_systematic        
1-(1-(1,1-Dimethyl-1,2,5,6-tetrahydrosilin-3-yl)pent-4-en-1-ylidene)-2-(2,4-dinitrophenyl)hydrazine
_symmetry_cell_setting           triclinic
_symmetry_space_group_name_H-M   'P -1'
_symmetry_Int_Tables_number      2
_space_group_name_Hall           '-P 1'
loop_
_symmetry_equiv_pos_site_id
_symmetry_equiv_pos_as_xyz
1 x,y,z
2 -x,-y,-z
_cell_length_a                   10.9364(9)
_cell_length_b                   17.4897(14)
_cell_length_c                   22.236(2)
_cell_angle_alpha                86.583(5)
_cell_angle_beta                 84.257(5)
_cell_angle_gamma                72.568(4)
_cell_volume                     4035.51
_exptl_crystal_colour            red
_exptl_crystal_description       block
_cell_formula_units_Z            8
loop_
_atom_site_label
_atom_site_type_symbol
_atom_site_fract_x
_atom_site_fract_y
_atom_site_fract_z
Si1 Si 0.27802(5) 1.22705(3) 0.13910(2)
O1 O 0.41439(15) 0.77091(8) -0.00045(7)
O2 O 0.54582(14) 0.65421(8) 0.01576(7)
O3 O 0.88251(19) 0.61099(11) 0.14410(10)
O4 O 0.89767(17) 0.70849(11) 0.19455(8)
N1 N 0.40133(14) 0.97581(8) 0.06499(7)
N2 N 0.43715(14) 0.89679(8) 0.04892(7)
H1 H 0.3977 0.8819 0.0223
N3 N 0.50821(15) 0.72624(9) 0.02388(7)
N4 N 0.84743(18) 0.68119(12) 0.15758(9)
C1 C 0.4107(2) 1.26328(14) 0.16108(12)
H2 H 0.3750 1.3146 0.1791
H3 H 0.4665 1.2681 0.1258
H4 H 0.4589 1.2258 0.1896
C2 C 0.1650(2) 1.21933(13) 0.20523(10)
H5 H 0.2091 1.1798 0.2338
H6 H 0.0950 1.2038 0.1922
H7 H 0.1322 1.2703 0.2240
C3 C 0.35022(18) 1.12797(11) 0.10290(9)
H8 H 0.4345 1.1264 0.0837
H9 H 0.3624 1.0862 0.1344
C4 C 0.27297(18) 1.10909(10) 0.05659(8)
C5 C 0.17263(19) 1.16259(11) 0.03342(9)
H10 H 0.1355 1.1432 0.0042
C6 C 0.1109(2) 1.24916(12) 0.04742(10)
H11 H 0.0324 1.2532 0.0732
H12 H 0.0863 1.2783 0.0099
C7 C 0.1904(2) 1.29132(11) 0.07788(10)
H13 H 0.1342 1.3407 0.0948
H14 H 0.2519 1.3050 0.0479
C8 C 0.3257(4) 1.0285(3) 0.03264(19)
C9 C 0.2803(3) 1.00543(16) -0.02378(13)
H15 H 0.3530 0.9688 -0.0460
H16 H 0.2507 1.0532 -0.0492
C10 C 0.1729(3) 0.9663(2) -0.01214(16)
H17 H 0.0976 1.0035 0.0079
H18 H 0.2002 0.9193 0.0143
C11 C 0.1385(7) 0.9418(3) -0.0717(4)
H19 H 0.1198 0.9794 -0.1035
C12 C 0.1350(5) 0.8698(3) -0.0783(2)
H20 H 0.1536 0.8320 -0.0467
H21 H 0.1140 0.8556 -0.1147
C13 C 0.53419(16) 0.84310(10) 0.07510(8)
C14 C 0.57400(17) 0.76013(10) 0.06302(8)
C15 C 0.67728(18) 0.70723(11) 0.08996(8)
H22 H 0.7033 0.6530 0.0815
C16 C 0.73954(18) 0.73621(12) 0.12898(9)
C17 C 0.70151(18) 0.81644(11) 0.14326(9)
H23 H 0.7447 0.8345 0.1707
C18 C 0.60082(17) 0.86868(11) 0.11705(8)
H24 H 0.5755 0.9224 0.1270
O5 O 0.08904(16) 0.73124(10) 0.08081(9)
O6 O -0.01931(15) 0.85455(9) 0.09271(9)
O7 O 0.13781(17) 1.03639(9) 0.18193(9)
O8 O 0.30341(17) 0.99564(9) 0.23405(8)
N5 N 0.41025(14) 0.61026(9) 0.14849(7)
N6 N 0.30279(15) 0.66989(9) 0.13260(7)
H32 H 0.2497 0.6591 0.1109
N7 N 0.07548(16) 0.79755(10) 0.10093(8)
N8 N 0.22740(18) 0.98318(10) 0.20205(9)
C24 C 0.8566(4) 0.4290(2) 0.2682(2)
H33 H 0.8105 0.4583 0.3028
H34 H 0.9046 0.4602 0.2451
H35 H 0.9146 0.3793 0.2815
Si2 Si 0.74014(6) 0.40817(3) 0.22027(3)
C25 C 0.6471(4) 0.3479(2) 0.27371(19)
H36 H 0.7072 0.3013 0.2901
H37 H 0.5891 0.3317 0.2512
H38 H 0.5992 0.3811 0.3061
C26 C 0.8110(3) 0.3486(2) 0.15605(18)
H39 H 0.8674 0.3736 0.1313
H40 H 0.8621 0.2960 0.1694
C27 C 0.6231(2) 0.49811(11) 0.18846(11)
H41 H 0.5630 0.5251 0.2211
H42 H 0.6691 0.5348 0.1710
C28 C 0.54873(19) 0.47905(11) 0.14082(10)
C29 C 0.5851(2) 0.41005(13) 0.11169(11)
H43 H 0.5298 0.4050 0.0840
C30 C 0.7026(3) 0.33980(15) 0.11745(14)
H44 H 0.7417 0.3255 0.0770
H45 H 0.6746 0.2949 0.1347
C31 C 0.4468(6) 0.5415(7) 0.1191(3)
C32 C 0.3687(4) 0.5313(2) 0.0692(2)
H46 H 0.4218 0.4892 0.0433
H47 H 0.3460 0.5806 0.0449
C33 C 0.2452(4) 0.5105(3) 0.0923(2)
H48 H 0.2691 0.4584 0.1129
H49 H 0.1974 0.5493 0.1219
C34 C 0.1598(6) 0.5085(3) 0.0462(3)
H50 H 0.1009 0.4809 0.0595
C35 C 0.1487(15) 0.5338(9) -0.0035(5)
H51 H 0.2028 0.5625 -0.0213
H52 H 0.0859 0.5252 -0.0252
C36 C 0.28107(16) 0.74471(10) 0.15106(8)
C37 C 0.17324(17) 0.80910(11) 0.13548(8)
C38 C 0.15700(17) 0.88641(11) 0.15244(9)
H53 H 0.0868 0.9280 0.1411
C39 C 0.24437(18) 0.90125(11) 0.18588(9)
C40 C 0.34919(17) 0.83938(11) 0.20456(8)
H54 H 0.4065 0.8502 0.2286
C41 C 0.36669(16) 0.76333(11) 0.18729(8)
H55 H 0.4368 0.7225 0.1996
Si3 Si -0.27627(5) 1.01961(3) 0.29117(3)
O9 O 0.42320(15) 0.70970(11) 0.38287(8)
O10 O 0.52268(15) 0.58416(10) 0.37392(9)
O11 O 0.3450(2) 0.40901(11) 0.28435(12)
O12 O 0.1726(2) 0.45377(11) 0.23964(11)
N9 N 0.10610(15) 0.83626(9) 0.31459(7)
N10 N 0.20899(15) 0.77487(9) 0.33252(7)
H73 H 0.2623 0.7844 0.3548
N11 N 0.43105(16) 0.64321(12) 0.36454(8)
N12 N 0.2558(2) 0.46393(12) 0.26761(10)
C50 C -0.3777(3) 1.01674(18) 0.23026(14)
H74 H -0.3917 0.9651 0.2309
H75 H -0.3352 1.0262 0.1919
H76 H -0.4588 1.0574 0.2363
C51 C -0.3525(3) 0.9939(2) 0.36421(14)
H77 H -0.4261 1.0379 0.3762
H78 H -0.2919 0.9834 0.3943
H79 H -0.3791 0.9470 0.3601
C52 C -0.11085(19) 0.94905(13) 0.27782(11)
H80 H -0.1133 0.8946 0.2872
H81 H -0.0811 0.9523 0.2354
C53 C -0.0137(15) 0.9687(6) 0.3175(7)
C54 C -0.0349(8) 1.0452(4) 0.3308(5)
H82 H -0.0054 1.0577 0.3657
C55 C -0.1158(5) 1.1199(3) 0.2843(5)
H83 H -0.1023 1.1708 0.2915
H84 H -0.0931 1.1072 0.2420
C56 C -0.2529(9) 1.1190(8) 0.3050(6)
H85 H -0.3133 1.1610 0.2833
H86 H -0.2705 1.1297 0.3478
C57 C 0.22553(17) 0.70003(11) 0.31498(8)
C58 C 0.32984(17) 0.63348(12) 0.33100(8)
C59 C 0.33934(19) 0.55675(12) 0.31528(9)
H87 H 0.4071 0.5137 0.3270
C60 C 0.2485(2) 0.54474(11) 0.28248(9)
C61 C 0.14768(18) 0.60830(11) 0.26313(9)
H88 H 0.0882 0.5990 0.2396
C62 C 0.13713(17) 0.68395(11) 0.27901(8)
H89 H 0.0700 0.7263 0.2659
C63 C 0.09792(19) 0.90735(12) 0.33053(10)
C64 C 0.1967(2) 0.92565(14) 0.36581(12)
H90 H 0.2808 0.8886 0.3549
H91 H 0.2005 0.9795 0.3550
C65 C 0.1649(4) 0.9190(2) 0.43287(14)
H92 H 0.0774 0.9527 0.4419
H93 H 0.1651 0.8641 0.4424
C66 C 0.2459(9) 0.9396(5) 0.4751(3)
H94 H 0.2201 0.9373 0.5162
C67 C 0.3443(7) 0.9594(5) 0.4610(5)
H95 H 0.3739 0.9625 0.4205
H96 H 0.3890 0.9713 0.4909
Si4 Si 0.26788(6) 0.23189(3) 0.40498(3)
O13 O 0.05156(15) 0.72573(9) 0.46352(7)
O14 O -0.08624(15) 0.83096(8) 0.42970(7)
O15 O -0.39437(19) 0.81790(11) 0.29922(10)
O16 O -0.38802(16) 0.70509(11) 0.26439(8)
N13 N 0.10561(14) 0.50130(9) 0.43025(7)
N14 N 0.05709(14) 0.58338(9) 0.43311(7)
H109 H 0.0875 0.6089 0.4568
N15 N -0.03916(16) 0.75830(10) 0.43245(7)
N16 N -0.34844(18) 0.74557(13) 0.29604(9)
C74 C 0.1518(3) 0.17842(16) 0.38941(15)
H110 H 0.1052 0.2044 0.3558
H111 H 0.0925 0.1793 0.4244
H112 H 0.1975 0.1239 0.3799
C75 C 0.3917(3) 0.22491(17) 0.34077(13)
H113 H 0.4306 0.1697 0.3310
H114 H 0.4563 0.2472 0.3517
H115 H 0.3523 0.2542 0.3063
C76 C 0.18086(19) 0.33864(12) 0.42090(10)
H116 H 0.1722 0.3690 0.3828
H117 H 0.0949 0.3418 0.4387
C77 C 0.24341(18) 0.37805(11) 0.46234(9)
C78 C 0.3425(2) 0.33840(12) 0.49407(10)
H118 H 0.3705 0.3698 0.5187
C79 C 0.4149(2) 0.25053(13) 0.49563(12)
H119 H 0.4366 0.2350 0.5367
H120 H 0.4950 0.2430 0.4704
C80 C 0.3473(2) 0.19339(12) 0.47520(11)
H121 H 0.2834 0.1866 0.5069
H122 H 0.4095 0.1414 0.4681
C81 C -0.03805(16) 0.62382(11) 0.39887(8)
C82 C -0.08968(17) 0.70828(11) 0.39884(8)
C83 C -0.19133(18) 0.74822(12) 0.36503(9)
H123 H -0.2250 0.8037 0.3657
C84 C -0.24063(19) 0.70447(12) 0.33095(9)
C85 C -0.18992(19) 0.62167(12) 0.32797(9)
H124 H -0.2235 0.5933 0.3033
C86 C -0.09066(17) 0.58218(11) 0.36141(8)
H125 H -0.0572 0.5268 0.3594
C87 C 0.18900(19) 0.46581(12) 0.46753(9)
C88 C 0.2175(2) 0.51015(14) 0.51830(11)
H126 H 0.2506 0.4722 0.5507
H127 H 0.1383 0.5483 0.5343
C89 C 0.3153(2) 0.55460(18) 0.49683(12)
H128 H 0.3955 0.5164 0.4821
H129 H 0.2835 0.5915 0.4637
C90 C 0.3391(5) 0.6002(3) 0.5471(2)
H130 H 0.3791 0.5706 0.5796
C91 C 0.3086(5) 0.6771(3) 0.5488(2)
H131 H 0.2685 0.7088 0.5171
H132 H 0.3267 0.7011 0.5817
C19? C 0.2897(7) 1.0199(5) 0.0458(4)
C20? C 0.2006(5) 0.9907(3) 0.0122(2)
H25? H 0.1156 1.0292 0.0162
H26? H 0.1938 0.9404 0.0309
C21? C 0.2423(5) 0.9779(3) -0.0547(2)
H27? H 0.2330 1.0293 -0.0758
H28? H 0.3321 0.9465 -0.0599
C22? C 0.1630(15) 0.9361(9) -0.0802(8)
H29? H 0.0767 0.9647 -0.0727
C23? C 0.1713(15) 0.8796(7) -0.1064(5)
H30? H 0.2519 0.8443 -0.1174
H31? H 0.0975 0.8692 -0.1165
C42? C 0.9060(7) 0.4298(6) 0.1947(7)
H56? H 0.9017 0.4826 0.2064
H57? H 0.9225 0.4264 0.1516
H58? H 0.9742 0.3909 0.2137
C43? C 0.7131(12) 0.4018(6) 0.2931(4)
H59? H 0.7786 0.3576 0.3089
H60? H 0.6305 0.3935 0.3031
H61? H 0.7141 0.4506 0.3104
C44? C 0.7289(12) 0.3238(5) 0.1753(5)
H62? H 0.8099 0.2815 0.1759
H63? H 0.6630 0.3026 0.1959
H64? H 0.6895 0.2931 0.1009
H65? H 0.7755 0.3511 0.0942
C45? C 0.4127(8) 0.5424(9) 0.1322(4)
C46? C 0.3086(6) 0.5205(3) 0.1031(2)
H66? H 0.3229 0.4631 0.1079
H67? H 0.2258 0.5468 0.1241
C47? C 0.3043(5) 0.5438(3) 0.0369(2)
H68? H 0.3058 0.5989 0.0309
H69? H 0.3796 0.5099 0.0144
C48? C 0.1852(8) 0.5353(7) 0.0135(4)
H70? H 0.1094 0.5597 0.0368
C49? C 0.1713(7) 0.5044(4) -0.0277(4)
H71? H 0.2421 0.4786 -0.0535
H72? H 0.0891 0.5050 -0.0356
H97? H -0.1098 0.8970 0.2959
H98? H -0.0899 0.9425 0.2346
C68? C -0.0124(18) 0.9755(8) 0.3023(9)
C69? C -0.0075(10) 1.0501(7) 0.3073(6)
H99? H 0.0692 1.0631 0.2998
C70? C -0.1478(10) 1.1201(4) 0.3279(6)
H100? H -0.1835 1.1072 0.3675
H101? H -0.1363 1.1729 0.3282
C71? C -0.2334(13) 1.1157(9) 0.2789(6)
H102? H -0.1882 1.1171 0.2393
H103? H -0.3108 1.1610 0.2813
H104? H 0.1504 0.8682 0.4457
H105? H 0.0934 0.9632 0.4481
C72? C 0.3092(16) 0.9250(8) 0.4497(8)
H106? H 0.3906 0.8944 0.4349
C73? C 0.277(3) 0.9872(14) 0.4914(8)
H107? H 0.1915 1.0136 0.5028
H108? H 0.3422 1.0018 0.5074
C92? C 0.2900(9) 0.5138(6) 0.4803(5)
H133? H 0.3772 0.4780 0.4782
H134? H 0.2860 0.5575 0.4510
C93? C 0.2490(10) 0.5455(6) 0.5435(4)
H135? H 0.1562 0.5687 0.5468
H136? H 0.2687 0.5001 0.5720
C94? C 0.306(2) 0.6060(12) 0.5631(11)
H137? H 0.3928 0.5867 0.5696
C95? C 0.256(2) 0.6776(10) 0.5719(8)
H138? H 0.1693 0.7010 0.5663
H139? H 0.3043 0.7084 0.5842
loop_
_geom_bond_atom_site_label_1
_geom_bond_atom_site_label_2
_geom_bond_site_symmetry_1
_geom_bond_site_symmetry_2
Si1 C1 1_555 1_555
O1 N3 1_555 1_555
O2 N3 1_555 1_555
O3 N4 1_555 1_555
O4 N4 1_555 1_555
N1 N2 1_555 1_555
N2 H1 1_555 1_555
N3 C14 1_555 1_555
N4 C16 1_555 1_555
C1 H2 1_555 1_555
H3 C1 1_555 1_555
H4 C1 1_555 1_555
C2 Si1 1_555 1_555
H5 C2 1_555 1_555
H6 C2 1_555 1_555
H7 C2 1_555 1_555
C3 Si1 1_555 1_555
H8 C3 1_555 1_555
H9 C3 1_555 1_555
C4 C3 1_555 1_555
C5 C4 1_555 1_555
H10 C5 1_555 1_555
C6 C5 1_555 1_555
H11 C6 1_555 1_555
H12 C6 1_555 1_555
C7 Si1 1_555 1_555
H13 C7 1_555 1_555
H14 C7 1_555 1_555
C8 N1 1_555 1_555
C9 C8 1_555 1_555
H15 C9 1_555 1_555
H16 C9 1_555 1_555
C10 C9 1_555 1_555
H17 C10 1_555 1_555
H18 C10 1_555 1_555
C11 C10 1_555 1_555
H19 C11 1_555 1_555
C12 C11 1_555 1_555
H20 C12 1_555 1_555
H21 C12 1_555 1_555
C13 N2 1_555 1_555
C14 C13 1_555 1_555
C15 C14 1_555 1_555
H22 C15 1_555 1_555
C16 C15 1_555 1_555
C17 C16 1_555 1_555
H23 C17 1_555 1_555
C18 C13 1_555 1_555
H24 C18 1_555 1_555
O5 N7 1_555 1_555
O6 N7 1_555 1_555
O7 N8 1_555 1_555
O8 N8 1_555 1_555
N5 N6 1_555 1_555
N6 H32 1_555 1_555
N7 C37 1_555 1_555
N8 C39 1_555 1_555
C24 H33 1_555 1_555
H34 C24 1_555 1_555
H35 C24 1_555 1_555
Si2 C24 1_555 1_555
C25 Si2 1_555 1_555
H36 C25 1_555 1_555
H37 C25 1_555 1_555
H38 C25 1_555 1_555
C26 Si2 1_555 1_555
H39 C26 1_555 1_555
H40 C26 1_555 1_555
C27 Si2 1_555 1_555
H41 C27 1_555 1_555
H42 C27 1_555 1_555
C28 C27 1_555 1_555
C29 C28 1_555 1_555
H43 C29 1_555 1_555
C30 C26 1_555 1_555
H44 C30 1_555 1_555
H45 C30 1_555 1_555
C31 N5 1_555 1_555
C32 C31 1_555 1_555
H46 C32 1_555 1_555
H47 C32 1_555 1_555
C33 C32 1_555 1_555
H48 C33 1_555 1_555
H49 C33 1_555 1_555
C34 C33 1_555 1_555
H50 C34 1_555 1_555
C35 C34 1_555 1_555
H51 C35 1_555 1_555
H52 C35 1_555 1_555
C36 N6 1_555 1_555
C37 C36 1_555 1_555
C38 C37 1_555 1_555
H53 C38 1_555 1_555
C39 C38 1_555 1_555
C40 C39 1_555 1_555
H54 C40 1_555 1_555
C41 C36 1_555 1_555
H55 C41 1_555 1_555
Si3 C50 1_555 1_555
O9 N11 1_555 1_555
O10 N11 1_555 1_555
O11 N12 1_555 1_555
O12 N12 1_555 1_555
N9 N10 1_555 1_555
N10 H73 1_555 1_555
N11 C58 1_555 1_555
N12 C60 1_555 1_555
C50 H74 1_555 1_555
H75 C50 1_555 1_555
H76 C50 1_555 1_555
C51 Si3 1_555 1_555
H77 C51 1_555 1_555
H78 C51 1_555 1_555
H79 C51 1_555 1_555
C52 Si3 1_555 1_555
H80 C52 1_555 1_555
H81 C52 1_555 1_555
C53 C52 1_555 1_555
C54 C53 1_555 1_555
H82 C54 1_555 1_555
C55 C54 1_555 1_555
H83 C55 1_555 1_555
H84 C55 1_555 1_555
C56 Si3 1_555 1_555
H85 C56 1_555 1_555
H86 C56 1_555 1_555
C57 N10 1_555 1_555
C58 C57 1_555 1_555
C59 C58 1_555 1_555
H87 C59 1_555 1_555
C60 C59 1_555 1_555
C61 C60 1_555 1_555
H88 C61 1_555 1_555
C62 C57 1_555 1_555
H89 C62 1_555 1_555
C63 N9 1_555 1_555
C64 C63 1_555 1_555
H90 C64 1_555 1_555
H91 C64 1_555 1_555
C65 C64 1_555 1_555
H92 C65 1_555 1_555
H93 C65 1_555 1_555
C66 C65 1_555 1_555
H94 C66 1_555 1_555
C67 C66 1_555 1_555
H95 C67 1_555 1_555
H96 C67 1_555 1_555
Si4 C74 1_555 1_555
O13 N15 1_555 1_555
O14 N15 1_555 1_555
O15 N16 1_555 1_555
O16 N16 1_555 1_555
N13 N14 1_555 1_555
N14 H109 1_555 1_555
N15 C82 1_555 1_555
N16 C84 1_555 1_555
C74 H110 1_555 1_555
H111 C74 1_555 1_555
H112 C74 1_555 1_555
C75 Si4 1_555 1_555
H113 C75 1_555 1_555
H114 C75 1_555 1_555
H115 C75 1_555 1_555
C76 Si4 1_555 1_555
H116 C76 1_555 1_555
H117 C76 1_555 1_555
C77 C76 1_555 1_555
C78 C77 1_555 1_555
H118 C78 1_555 1_555
C79 C78 1_555 1_555
H119 C79 1_555 1_555
H120 C79 1_555 1_555
C80 Si4 1_555 1_555
H121 C80 1_555 1_555
H122 C80 1_555 1_555
C81 N14 1_555 1_555
C82 C81 1_555 1_555
C83 C82 1_555 1_555
H123 C83 1_555 1_555
C84 C83 1_555 1_555
C85 C84 1_555 1_555
H124 C85 1_555 1_555
C86 C81 1_555 1_555
H125 C86 1_555 1_555
C87 N13 1_555 1_555
C88 C87 1_555 1_555
H126 C88 1_555 1_555
H127 C88 1_555 1_555
C89 C88 1_555 1_555
H128 C89 1_555 1_555
H129 C89 1_555 1_555
C90 C89 1_555 1_555
H130 C90 1_555 1_555
C91 C90 1_555 1_555
H131 C91 1_555 1_555
H132 C91 1_555 1_555
C4 C8 1_555 1_555
C6 C7 1_555 1_555
C17 C18 1_555 1_555
C28 C31 1_555 1_555
C29 C30 1_555 1_555
C40 C41 1_555 1_555
C53 C63 1_555 1_555
C55 C56 1_555 1_555
C61 C62 1_555 1_555
C77 C87 1_555 1_555
C79 C80 1_555 1_555
C85 C86 1_555 1_555

#END
