
#######################################################################
#
#                 Cambridge Crystallographic Data Centre
#                                CCDC 
#
#######################################################################
#
# If this CIF has been generated from an entry in the Cambridge 
# Structural Database, then it will include bibliographic, chemical, 
# crystal, experimental, refinement or atomic coordinate data resulting 
# from the CCDC's data processing and validation procedures.
#
#######################################################################

data_MOGKOK
_chemical_formula_moiety         'C16 H24 O2'
_chemical_name_systematic        '(2,3,4,5-Tetraethylphenyl)acetic acid'
_symmetry_cell_setting           monoclinic
_symmetry_space_group_name_H-M   'P 21/c'
_symmetry_Int_Tables_number      14
_space_group_name_Hall           '-P 2ybc'
loop_
_symmetry_equiv_pos_site_id
_symmetry_equiv_pos_as_xyz
1 x,y,z
2 -x,1/2+y,1/2-z
3 -x,-y,-z
4 x,1/2-y,1/2+z
_cell_length_a                   16.802(5)
_cell_length_b                   8.257(2)
_cell_length_c                   10.389(3)
_cell_angle_alpha                90
_cell_angle_beta                 97.407(4)
_cell_angle_gamma                90
_cell_volume                     1429.28
_exptl_crystal_colour            colorless
_exptl_crystal_description       prism
_cell_formula_units_Z            4
loop_
_atom_site_label
_atom_site_type_symbol
_atom_site_fract_x
_atom_site_fract_y
_atom_site_fract_z
O1 O 0.00117(7) 0.48272(14) 0.84093(11)
O2 O 0.07773(7) 0.64177(14) 0.98000(11)
C1 C 0.05494(9) 0.58349(18) 0.86407(14)
C2 C 0.10198(9) 0.64721(18) 0.76122(15)
C3 C 0.18177(9) 0.55796(17) 0.76842(14)
C4 C 0.18998(9) 0.41483(18) 0.69875(14)
C5 C 0.26542(9) 0.33839(18) 0.71125(14)
C6 C 0.33018(9) 0.39950(18) 0.79678(14)
C7 C 0.32124(9) 0.54400(18) 0.86554(14)
C8 C 0.24705(9) 0.62026(18) 0.84902(14)
C9 C 0.11956(9) 0.34782(19) 0.60799(15)
C10 C 0.11545(11) 0.4167(3) 0.47081(16)
C11 C 0.27569(10) 0.18605(18) 0.63278(15)
C12 C 0.25423(11) 0.03117(19) 0.70114(16)
C13 C 0.41045(9) 0.31311(19) 0.81476(15)
C14 C 0.46795(10) 0.3720(2) 0.72149(16)
C15 C 0.39032(9) 0.61319(18) 0.95761(15)
C16 C 0.38012(10) 0.78637(19) 1.00304(17)
H1 H 0.0512 0.5976 1.0336
H2 H 0.1118 0.7646 0.7743
H3 H 0.0710 0.6315 0.6744
H4 H 0.2406 0.7184 0.8943
H5 H 0.0691 0.3737 0.6433
H6 H 0.1243 0.2285 0.6042
H7 H 0.0704 0.3672 0.4152
H8 H 0.1656 0.3928 0.4358
H9 H 0.1077 0.5342 0.4734
H10 H 0.3321 0.1790 0.6153
H11 H 0.2413 0.1944 0.5482
H12 H 0.2643 -0.0629 0.6480
H13 H 0.1974 0.0339 0.7134
H14 H 0.2872 0.0232 0.7858
H15 H 0.4013 0.1955 0.8016
H16 H 0.4360 0.3293 0.9051
H17 H 0.5189 0.3133 0.7388
H18 H 0.4777 0.4883 0.7342
H19 H 0.4440 0.3522 0.6318
H20 H 0.4394 0.6083 0.9144
H21 H 0.3992 0.5425 1.0351
H22 H 0.4297 0.8221 1.0555
H23 H 0.3357 0.7910 1.0555
H24 H 0.3684 0.8575 0.9275
loop_
_geom_bond_atom_site_label_1
_geom_bond_atom_site_label_2
_geom_bond_site_symmetry_1
_geom_bond_site_symmetry_2
O1 C1 1_555 1_555
O2 C1 1_555 1_555
C1 C2 1_555 1_555
C2 C3 1_555 1_555
C3 C4 1_555 1_555
C4 C5 1_555 1_555
C5 C6 1_555 1_555
C6 C7 1_555 1_555
C7 C8 1_555 1_555
C8 C3 1_555 1_555
C9 C4 1_555 1_555
C10 C9 1_555 1_555
C11 C5 1_555 1_555
C12 C11 1_555 1_555
C13 C6 1_555 1_555
C14 C13 1_555 1_555
C15 C7 1_555 1_555
C16 C15 1_555 1_555
H1 O2 1_555 1_555
H2 C2 1_555 1_555
H3 C2 1_555 1_555
H4 C8 1_555 1_555
H5 C9 1_555 1_555
H6 C9 1_555 1_555
H7 C10 1_555 1_555
H8 C10 1_555 1_555
H9 C10 1_555 1_555
H10 C11 1_555 1_555
H11 C11 1_555 1_555
H12 C12 1_555 1_555
H13 C12 1_555 1_555
H14 C12 1_555 1_555
H15 C13 1_555 1_555
H16 C13 1_555 1_555
H17 C14 1_555 1_555
H18 C14 1_555 1_555
H19 C14 1_555 1_555
H20 C15 1_555 1_555
H21 C15 1_555 1_555
H22 C16 1_555 1_555
H23 C16 1_555 1_555
H24 C16 1_555 1_555

#END
