
#######################################################################
#
#                 Cambridge Crystallographic Data Centre
#                                CCDC 
#
#######################################################################
#
# If this CIF has been generated from an entry in the Cambridge 
# Structural Database, then it will include bibliographic, chemical, 
# crystal, experimental, refinement or atomic coordinate data resulting 
# from the CCDC's data processing and validation procedures.
#
#######################################################################

data_MOGNIG
_chemical_formula_moiety         'C27 H24 N2 S1'
_chemical_name_systematic        
2,6-Dimethyl-N-(2-((2-(phenylsulfanyl)phenyl)amino)benzylidene)aniline
_symmetry_cell_setting           monoclinic
_symmetry_space_group_name_H-M   'P 21/n'
_symmetry_Int_Tables_number      14
_space_group_name_Hall           '-P 2yn'
loop_
_symmetry_equiv_pos_site_id
_symmetry_equiv_pos_as_xyz
1 x,y,z
2 1/2-x,1/2+y,1/2-z
3 -x,-y,-z
4 1/2+x,1/2-y,1/2+z
_cell_length_a                   10.125(2)
_cell_length_b                   8.0233(18)
_cell_length_c                   26.920(6)
_cell_angle_alpha                90
_cell_angle_beta                 98.449(4)
_cell_angle_gamma                90
_cell_volume                     2163.14
_exptl_crystal_colour            red
_exptl_crystal_description       block
_cell_formula_units_Z            4
_exptl_crystal_recrystallization_method ethanol
loop_
_atom_site_label
_atom_site_type_symbol
_atom_site_fract_x
_atom_site_fract_y
_atom_site_fract_z
S1 S 0.31259(5) 0.91101(7) 0.12682(2)
C1 C 0.54728(19) 0.5963(2) 0.22444(7)
N1 N 0.60422(17) 0.5356(2) 0.11994(6)
N2 N 0.44397(16) 0.6414(2) 0.18742(7)
H1 H 0.4635 0.6599 0.1571
C2 C 0.1887(2) 1.0653(3) 0.10808(7)
C3 C 0.09610(19) 0.7941(3) 0.17141(8)
H2 H 0.0413 0.8715 0.1511
C4 C 0.68510(19) 0.4939(3) 0.15870(8)
H3 H 0.7651 0.4389 0.1535
C5 C 0.5429(2) 0.6267(3) 0.27553(8)
H4 H 0.4660 0.6776 0.2853
C6 C 0.1192(2) 0.5792(3) 0.23440(8)
H5 H 0.0822 0.5132 0.2582
C7 C 0.7405(2) 0.5876(3) 0.00028(8)
H6 H 0.7846 0.6700 -0.0166
C8 C 0.23067(19) 0.7801(2) 0.16639(7)
C9 C 0.04114(19) 0.6960(3) 0.20582(8)
H7 H -0.0500 0.7093 0.2097
C10 C 0.30968(19) 0.6601(3) 0.19467(7)
C11 C 0.66445(19) 0.5239(2) 0.21051(7)
C12 C 0.6483(2) 0.5840(3) 0.31179(8)
H8 H 0.6432 0.6063 0.3461
C13 C 0.2518(2) 0.5590(3) 0.22804(8)
H9 H 0.3041 0.4755 0.2466
C14 C 0.7684(2) 0.4801(3) 0.24836(8)
H10 H 0.8461 0.4290 0.2392
C15 C 0.7622(2) 0.5084(3) 0.29849(8)
H11 H 0.8341 0.4771 0.3235
C16 C 0.64253(19) 0.4986(3) 0.07185(7)
C17 C 0.6098(2) 0.3445(3) 0.04924(8)
C18 C 0.1996(2) 1.2208(3) 0.13044(8)
H12 H 0.2727 1.2446 0.1559
C19 C 0.1043(2) 1.3423(3) 0.11585(8)
H13 H 0.1126 1.4492 0.1311
C20 C 0.7058(2) 0.6231(3) 0.04752(8)
C21 C 0.6454(2) 0.3146(3) 0.00189(8)
H14 H 0.6240 0.2104 -0.0140
C22 C 0.0815(2) 1.0309(3) 0.07073(8)
H15 H 0.0739 0.9247 0.0550
C23 C -0.0026(2) 1.3081(3) 0.07919(8)
H16 H -0.0682 1.3910 0.0694
C24 C -0.0135(2) 1.1523(3) 0.05677(9)
H17 H -0.0871 1.1287 0.0316
C25 C 0.7115(2) 0.4341(3) -0.02231(8)
H18 H 0.7369 0.4109 -0.0542
C26 C 0.7345(3) 0.7911(3) 0.07202(10)
H19 H 0.7783 0.8628 0.0499
H20 H 0.7932 0.7769 0.1041
H21 H 0.6505 0.8427 0.0780
C27 C 0.5363(3) 0.2140(3) 0.07498(10)
H22 H 0.5207 0.2557 0.1078
H23 H 0.5901 0.1121 0.0795
H24 H 0.4505 0.1896 0.0543
loop_
_geom_bond_atom_site_label_1
_geom_bond_atom_site_label_2
_geom_bond_site_symmetry_1
_geom_bond_site_symmetry_2
S1 C2 1_555 1_555
C1 N2 1_555 1_555
N1 C4 1_555 1_555
N2 H1 1_555 1_555
C2 C18 1_555 1_555
C3 H2 1_555 1_555
C4 H3 1_555 1_555
C5 C1 1_555 1_555
H4 C5 1_555 1_555
C6 H5 1_555 1_555
C7 H6 1_555 1_555
C8 S1 1_555 1_555
C9 C3 1_555 1_555
H7 C9 1_555 1_555
C10 N2 1_555 1_555
C11 C1 1_555 1_555
C12 C5 1_555 1_555
H8 C12 1_555 1_555
C13 C6 1_555 1_555
H9 C13 1_555 1_555
C14 C11 1_555 1_555
H10 C14 1_555 1_555
C15 C12 1_555 1_555
H11 C15 1_555 1_555
C16 N1 1_555 1_555
C17 C16 1_555 1_555
C18 H12 1_555 1_555
C19 C18 1_555 1_555
H13 C19 1_555 1_555
C20 C7 1_555 1_555
C21 C17 1_555 1_555
H14 C21 1_555 1_555
C22 C2 1_555 1_555
H15 C22 1_555 1_555
C23 C19 1_555 1_555
H16 C23 1_555 1_555
C24 C22 1_555 1_555
H17 C24 1_555 1_555
C25 C7 1_555 1_555
H18 C25 1_555 1_555
C26 C20 1_555 1_555
H19 C26 1_555 1_555
H20 C26 1_555 1_555
H21 C26 1_555 1_555
C27 C17 1_555 1_555
H22 C27 1_555 1_555
H23 C27 1_555 1_555
H24 C27 1_555 1_555
C3 C8 1_555 1_555
C4 C11 1_555 1_555
C6 C9 1_555 1_555
C8 C10 1_555 1_555
C10 C13 1_555 1_555
C14 C15 1_555 1_555
C16 C20 1_555 1_555
C21 C25 1_555 1_555
C23 C24 1_555 1_555

#END
