
#######################################################################
#
#                 Cambridge Crystallographic Data Centre
#                                CCDC 
#
#######################################################################
#
# If this CIF has been generated from an entry in the Cambridge 
# Structural Database, then it will include bibliographic, chemical, 
# crystal, experimental, refinement or atomic coordinate data resulting 
# from the CCDC's data processing and validation procedures.
#
#######################################################################

data_MOGPAB
_chemical_formula_moiety         'C24 H27 Br1 N1 O7 P1'
_chemical_name_systematic        
'Diethyl ((2-bromophenyl)((2-((4-methyl-2-oxo-2H-chromen-7-yl)oxy)propanoyl)amino)methyl)phosphonate'
_symmetry_cell_setting           monoclinic
_symmetry_space_group_name_H-M   'P 21/n'
_symmetry_Int_Tables_number      14
_space_group_name_Hall           '-P 2yn'
loop_
_symmetry_equiv_pos_site_id
_symmetry_equiv_pos_as_xyz
1 x,y,z
2 1/2-x,1/2+y,1/2-z
3 -x,-y,-z
4 1/2+x,1/2-y,1/2+z
_cell_length_a                   11.2310(8)
_cell_length_b                   18.1762(13)
_cell_length_c                   13.0520(10)
_cell_angle_alpha                90
_cell_angle_beta                 105.854(9)
_cell_angle_gamma                90
_cell_volume                     2563.04
_cell_formula_units_Z            4
loop_
_atom_site_label
_atom_site_type_symbol
_atom_site_fract_x
_atom_site_fract_y
_atom_site_fract_z
Br1 Br 0.99281(3) 0.225115(16) 0.74724(2)
P1 P 1.08103(6) 0.36404(3) 1.00519(5)
O1 O 0.7502(2) 0.64696(13) 0.50659(17)
O2 O 0.67524(16) 0.58418(10) 0.61851(15)
O3 O 0.52944(14) 0.44356(11) 0.86711(14)
O4 O 0.69097(16) 0.33206(11) 0.83970(15)
O5 O 1.11997(14) 0.43953(9) 1.03575(13)
O6 O 1.18189(15) 0.31558(9) 0.97669(14)
O7 O 1.03787(17) 0.31844(10) 1.08866(13)
N1 N 0.85173(16) 0.40648(11) 0.91433(15)
H1 H 0.8735 0.4483 0.9446
C1 C 0.6577(3) 0.62550(17) 0.5262(2)
C2 C 0.5319(3) 0.63725(15) 0.4649(2)
H2 H 0.5178 0.6653 0.4031
C3 C 0.4341(3) 0.61017(15) 0.4915(2)
C4 C 0.3044(3) 0.62508(19) 0.4258(2)
H3 H 0.2632 0.5793 0.4026
H4 H 0.3065 0.6541 0.3649
H5 H 0.2605 0.6514 0.4679
C5 C 0.4559(2) 0.56605(14) 0.58738(19)
C6 C 0.3634(2) 0.53289(15) 0.6245(2)
H6 H 0.2811 0.5389 0.5860
C7 C 0.3902(2) 0.49201(16) 0.7157(2)
H7 H 0.3270 0.4693 0.7374
C8 C 0.5130(2) 0.48443(16) 0.7761(2)
C9 C 0.6069(2) 0.51607(14) 0.7429(2)
H8 H 0.6889 0.5113 0.7829
C10 C 0.5770(2) 0.55528(14) 0.6485(2)
C11 C 0.6521(2) 0.43761(15) 0.93663(19)
H9 H 0.6903 0.4864 0.9494
C12 C 0.6403(3) 0.4053(2) 1.0406(2)
H10 H 0.5828 0.4341 1.0662
H11 H 0.7197 0.4059 1.0922
H12 H 0.6109 0.3556 1.0290
C13 C 0.7317(2) 0.38673(14) 0.89006(19)
C14 C 0.9454(2) 0.35949(13) 0.89105(18)
H13 H 0.9144 0.3088 0.8844
C15 C 0.9786(2) 0.37939(13) 0.78963(19)
C16 C 0.9883(2) 0.45265(16) 0.7638(2)
H14 H 0.9703 0.4889 0.8076
C17 C 1.0239(3) 0.47345(18) 0.6751(2)
H15 H 1.0281 0.5230 0.6588
C18 C 1.0532(3) 0.4208(2) 0.6109(3)
H16 H 1.0787 0.4346 0.5517
C19 C 1.0448(3) 0.34749(18) 0.6341(2)
H17 H 1.0652 0.3116 0.5910
C20 C 1.0059(2) 0.32741(15) 0.7219(2)
C21 C 1.2877(3) 0.34656(19) 0.9482(3)
H18 H 1.2615 0.3885 0.9016
H19 H 1.3486 0.3633 1.0118
C22 C 1.3421(3) 0.2914(2) 0.8947(3)
H20 H 1.2837 0.2779 0.8288
H21 H 1.3632 0.2487 0.9394
H22 H 1.4154 0.3109 0.8805
C23 C 1.0966(3) 0.32267(19) 1.2023(2)
H23 H 1.1563 0.2832 1.2236
H24 H 1.1399 0.3691 1.2193
C24 C 1.0033(3) 0.3166(3) 1.2586(3)
H25 H 0.9394 0.3522 1.2312
H26 H 1.0400 0.3256 1.3331
H27 H 0.9684 0.2681 1.2491
loop_
_geom_bond_atom_site_label_1
_geom_bond_atom_site_label_2
_geom_bond_site_symmetry_1
_geom_bond_site_symmetry_2
Br1 C20 1_555 1_555
P1 O5 1_555 1_555
O1 C1 1_555 1_555
O2 C1 1_555 1_555
O3 C8 1_555 1_555
O4 C13 1_555 1_555
O6 P1 1_555 1_555
O7 P1 1_555 1_555
N1 H1 1_555 1_555
C1 C2 1_555 1_555
C2 H2 1_555 1_555
C3 C2 1_555 1_555
C4 C3 1_555 1_555
H3 C4 1_555 1_555
H4 C4 1_555 1_555
H5 C4 1_555 1_555
C5 C3 1_555 1_555
C6 C5 1_555 1_555
H6 C6 1_555 1_555
C7 C6 1_555 1_555
H7 C7 1_555 1_555
C8 C7 1_555 1_555
C9 C8 1_555 1_555
H8 C9 1_555 1_555
C10 O2 1_555 1_555
C11 O3 1_555 1_555
H9 C11 1_555 1_555
C12 C11 1_555 1_555
H10 C12 1_555 1_555
H11 C12 1_555 1_555
H12 C12 1_555 1_555
C13 N1 1_555 1_555
C14 P1 1_555 1_555
H13 C14 1_555 1_555
C15 C14 1_555 1_555
C16 C15 1_555 1_555
H14 C16 1_555 1_555
C17 C16 1_555 1_555
H15 C17 1_555 1_555
C18 C17 1_555 1_555
H16 C18 1_555 1_555
C19 C18 1_555 1_555
H17 C19 1_555 1_555
C20 C15 1_555 1_555
C21 O6 1_555 1_555
H18 C21 1_555 1_555
H19 C21 1_555 1_555
C22 C21 1_555 1_555
H20 C22 1_555 1_555
H21 C22 1_555 1_555
H22 C22 1_555 1_555
C23 O7 1_555 1_555
H23 C23 1_555 1_555
H24 C23 1_555 1_555
C24 C23 1_555 1_555
H25 C24 1_555 1_555
H26 C24 1_555 1_555
H27 C24 1_555 1_555
N1 C14 1_555 1_555
C5 C10 1_555 1_555
C9 C10 1_555 1_555
C11 C13 1_555 1_555
C19 C20 1_555 1_555

#END
