
#######################################################################
#
#                 Cambridge Crystallographic Data Centre
#                                CCDC 
#
#######################################################################
#
# If this CIF has been generated from an entry in the Cambridge 
# Structural Database, then it will include bibliographic, chemical, 
# crystal, experimental, refinement or atomic coordinate data resulting 
# from the CCDC's data processing and validation procedures.
#
#######################################################################

data_MOGTIL
_chemical_formula_moiety         'C31 H44 Cl1 N4 O2 P1 S2'
_chemical_name_systematic        
N-(2-(Benzylamino)-1-(bis(diethylamino)phosphoryl)-3-((4-chlorophenyl)sulfanyl)propyl)-(4-methylbenzene)sulfinamide
_symmetry_cell_setting           triclinic
_symmetry_space_group_name_H-M   'P 1'
_symmetry_Int_Tables_number      1
_space_group_name_Hall           'P 1'
loop_
_symmetry_equiv_pos_site_id
_symmetry_equiv_pos_as_xyz
1 x,y,z
_cell_length_a                   8.9681(10)
_cell_length_b                   13.0757(14)
_cell_length_c                   15.4947(16)
_cell_angle_alpha                70.616(2)
_cell_angle_beta                 84.999(2)
_cell_angle_gamma                89.583(2)
_cell_volume                     1707
_exptl_crystal_colour            colorless
_chemical_melting_point          142-143deg.C
_cell_formula_units_Z            2
loop_
_atom_site_label
_atom_site_type_symbol
_atom_site_fract_x
_atom_site_fract_y
_atom_site_fract_z
Cl1 Cl 0.2758(5) 0.4894(3) 0.70987(18)
P1 P 0.42223(18) -0.00861(12) 0.39840(10)
S1 S 0.60027(18) 0.22442(14) 0.17359(10)
S2 S 0.4894(2) 0.37187(16) 0.35839(14)
O1 O 0.5759(7) 0.3406(4) 0.1575(4)
O2 O 0.2803(5) -0.0537(3) 0.3829(3)
N1 N 0.4558(5) 0.1490(4) 0.2353(3)
H1 H 0.3942 0.1183 0.2115
N2 N 0.5659(8) -0.0677(5) 0.3649(4)
N3 N 0.4335(8) -0.0178(5) 0.5057(4)
N4 N 0.1742(5) 0.1721(4) 0.3188(3)
H2 H 0.1820 0.1325 0.2842
C1 C 0.5700(7) 0.2040(5) 0.0674(4)
C2 C 0.4861(9) 0.2747(6) 0.0070(5)
H5 H 0.4420 0.3322 0.0216
C3 C 0.4662(11) 0.2617(9) -0.0751(5)
H6 H 0.4059 0.3095 -0.1152
C4 C 0.5322(11) 0.1814(9) -0.0992(5)
C5 C 0.6217(12) 0.1138(9) -0.0382(7)
H7 H 0.6721 0.0595 -0.0544
C6 C 0.6396(9) 0.1237(7) 0.0462(5)
H8 H 0.6986 0.0758 0.0872
C7 C 0.5124(18) 0.1664(17) -0.1920(8)
H9 H 0.4199 0.1976 -0.2139
H10 H 0.5106 0.0904 -0.1843
H11 H 0.5942 0.2017 -0.2357
C8 C 0.4393(6) 0.1378(5) 0.3338(3)
H12 H 0.5308 0.1663 0.3487
C9 C 0.3047(6) 0.2016(5) 0.3574(4)
H13 H 0.2847 0.1794 0.4244
C10 C 0.0313(7) 0.2135(6) 0.3422(4)
H14 H -0.0443 0.1887 0.3120
H15 H 0.0369 0.2920 0.3163
C11 C -0.0223(7) 0.1833(6) 0.4427(4)
C12 C 0.0123(9) 0.0873(7) 0.5063(5)
H16 H 0.0692 0.0373 0.4878
C13 C -0.0373(11) 0.0640(9) 0.5989(5)
H17 H -0.0086 -0.0002 0.6415
C14 C -0.1239(12) 0.1304(10) 0.6280(6)
H18 H -0.1570 0.1123 0.6899
C15 C -0.1639(12) 0.2251(10) 0.5667(8)
H19 H -0.2258 0.2717 0.5867
C16 C -0.1122(9) 0.2539(7) 0.4722(6)
H20 H -0.1386 0.3196 0.4305
C17 C 0.3308(8) 0.3229(5) 0.3194(4)
H21 H 0.2420 0.3575 0.3359
H22 H 0.3438 0.3448 0.2529
C18 C 0.4180(8) 0.4017(5) 0.4567(5)
C19 C 0.2798(10) 0.3726(8) 0.5037(6)
H23 H 0.2128 0.3349 0.4821
C20 C 0.2368(11) 0.3973(9) 0.5821(6)
H24 H 0.1425 0.3766 0.6130
C21 C 0.3344(13) 0.4521(8) 0.6128(6)
C22 C 0.4712(14) 0.4816(10) 0.5689(8)
H25 H 0.5378 0.5178 0.5921
C23 C 0.5135(12) 0.4586(8) 0.4899(7)
H26 H 0.6071 0.4816 0.4588
C24 C 0.5481(11) -0.1339(7) 0.3058(6)
H27 H 0.4573 -0.1122 0.2754
H28 H 0.6311 -0.1163 0.2584
C25 C 0.5409(15) -0.2498(10) 0.3492(8)
H29 H 0.5936 -0.2693 0.4035
H30 H 0.5863 -0.2837 0.3075
H31 H 0.4382 -0.2737 0.3656
C26 C 0.704(2) -0.0728(14) 0.4004(12)
H32 H 0.6946 -0.0475 0.4528
H33 H 0.7354 -0.1476 0.4217
C27 C 0.803(3) -0.0160(18) 0.3412(14)
H34 H 0.7828 -0.0161 0.2814
H35 H 0.8998 -0.0458 0.3549
H36 H 0.8015 0.0570 0.3422
C28 C 0.5155(11) 0.0534(8) 0.5401(6)
H37 H 0.5473 0.1179 0.4889
H38 H 0.6050 0.0170 0.5644
C29 C 0.4309(17) 0.0883(11) 0.6138(6)
H39 H 0.3253 0.0784 0.6121
H40 H 0.4532 0.1634 0.6032
H41 H 0.4602 0.0453 0.6728
C30 C 0.4118(19) -0.1336(12) 0.5695(10)
H42 H 0.4087 -0.1824 0.5342
H43 H 0.4942 -0.1537 0.6080
C31 C 0.285(4) -0.140(3) 0.621(2)
H44 H 0.2730 -0.0761 0.6374
H45 H 0.2851 -0.2026 0.6754
H46 H 0.2028 -0.1475 0.5869
Cl2 Cl 0.8734(4) 0.3315(2) -0.22922(16)
P2 P 0.97457(17) 0.83761(12) 0.06798(10)
S3 S 1.0839(2) 0.60719(14) 0.29683(11)
S4 S 1.0145(2) 0.45320(14) 0.11452(12)
O3 O 1.0503(9) 0.4925(4) 0.3164(4)
O4 O 0.8318(5) 0.8886(3) 0.0827(3)
N5 N 0.9575(5) 0.6849(4) 0.2325(3)
H3 H 0.8899 0.7183 0.2550
N6 N 1.0107(7) 0.8430(5) -0.0392(4)
N7 N 1.1129(7) 0.8959(5) 0.0998(4)
N8 N 0.6993(5) 0.6660(4) 0.1510(3)
H4 H 0.6998 0.7089 0.1827
C32 C 1.0257(8) 0.6333(5) 0.4006(4)
C33 C 0.9340(12) 0.5602(7) 0.4654(6)
H47 H 0.9004 0.4985 0.4551
C34 C 0.8902(12) 0.5776(8) 0.5470(6)
H48 H 0.8256 0.5278 0.5909
C35 C 0.9394(12) 0.6652(9) 0.5642(5)
C36 C 1.0307(16) 0.7373(10) 0.4994(7)
H49 H 1.0634 0.7988 0.5103
C37 C 1.0777(13) 0.7227(7) 0.4169(6)
H50 H 1.1430 0.7725 0.3735
C38 C 0.892(2) 0.6828(13) 0.6554(8)
H51 H 0.9773 0.6741 0.6906
H52 H 0.8155 0.6306 0.6891
H53 H 0.8549 0.7546 0.6436
C39 C 0.9696(6) 0.6923(4) 0.1350(3)
H54 H 1.0641 0.6606 0.1209
C40 C 0.8384(6) 0.6309(4) 0.1136(4)
H55 H 0.8376 0.6506 0.0468
C41 C 0.8500(7) 0.5072(5) 0.1559(4)
H56 H 0.7627 0.4732 0.1430
H57 H 0.8485 0.4881 0.2220
C42 C 0.9635(8) 0.4248(5) 0.0170(4)
C43 C 1.0628(10) 0.3604(6) -0.0147(6)
H58 H 1.1485 0.3358 0.0150
C44 C 1.0333(14) 0.3329(8) -0.0909(6)
H59 H 1.0992 0.2892 -0.1118
C45 C 0.9089(10) 0.3694(6) -0.1352(5)
C46 C 0.8093(9) 0.4331(6) -0.1031(5)
H60 H 0.7231 0.4571 -0.1323
C47 C 0.8385(8) 0.4601(6) -0.0283(5)
H61 H 0.7720 0.5036 -0.0076
C48 C 0.5591(7) 0.6243(6) 0.1316(4)
H62 H 0.4766 0.6541 0.1597
H63 H 0.5549 0.5463 0.1615
C49 C 0.5342(8) 0.6478(6) 0.0318(5)
C50 C 0.5961(10) 0.7367(8) -0.0372(6)
H64 H 0.6557 0.7859 -0.0232
C51 C 0.5693(13) 0.7536(13) -0.1295(8)
H65 H 0.6075 0.8149 -0.1765
C52 C 0.4842(17) 0.6758(17) -0.1480(10)
H66 H 0.4720 0.6818 -0.2085
C53 C 0.4176(18) 0.5894(13) -0.0766(13)
H67 H 0.3531 0.5417 -0.0889
C54 C 0.4455(10) 0.5751(8) 0.0083(8)
H68 H 0.4048 0.5141 0.0547
C55 C 1.1054(9) 0.7694(6) -0.0714(5)
H69 H 1.1217 0.7053 -0.0196
H70 H 1.2021 0.8047 -0.0961
C56 C 1.0396(13) 0.7353(9) -0.1440(7)
H71 H 0.9368 0.7132 -0.1248
H72 H 1.0947 0.6758 -0.1529
H73 H 1.0454 0.7951 -0.2006
C57 C 0.9827(11) 0.9471(7) -0.1104(6)
H74 H 0.9083 0.9856 -0.0845
H75 H 0.9404 0.9319 -0.1605
C58 C 1.1203(15) 1.0216(10) -0.1496(9)
H76 H 1.1603 1.0407 -0.1013
H77 H 1.0923 1.0862 -0.1962
H78 H 1.1948 0.9848 -0.1759
C59 C 1.0794(10) 0.9580(7) 0.1622(6)
H79 H 1.1511 0.9402 0.2081
H80 H 0.9806 0.9365 0.1938
C60 C 1.0842(14) 1.0771(9) 0.1145(7)
H81 H 1.1844 1.1002 0.0886
H82 H 1.0532 1.1131 0.1577
H83 H 1.0180 1.0950 0.0664
C61 C 1.2703(14) 0.8484(10) 0.1029(8)
H84 H 1.2863 0.8083 0.1662
H85 H 1.2754 0.7975 0.0693
C62 C 1.381(2) 0.9230(14) 0.0675(12)
H86 H 1.3670 0.9621 0.0044
H87 H 1.4753 0.8878 0.0714
H88 H 1.3785 0.9726 0.1015
loop_
_geom_bond_atom_site_label_1
_geom_bond_atom_site_label_2
_geom_bond_site_symmetry_1
_geom_bond_site_symmetry_2
Cl1 C21 1_555 1_555
Cl2 C45 1_555 1_555
P1 O2 1_555 1_555
P2 O4 1_555 1_555
S1 O1 1_555 1_555
S2 C17 1_555 1_555
S3 O3 1_555 1_555
S4 C41 1_555 1_555
N1 S1 1_555 1_555
H1 N1 1_555 1_555
N2 P1 1_555 1_555
N3 P1 1_555 1_555
N4 H2 1_555 1_555
N5 S3 1_555 1_555
H3 N5 1_555 1_555
N6 P2 1_555 1_555
N7 P2 1_555 1_555
N8 H4 1_555 1_555
C1 S1 1_555 1_555
C2 C1 1_555 1_555
H5 C2 1_555 1_555
C3 C2 1_555 1_555
H6 C3 1_555 1_555
C4 C3 1_555 1_555
C5 C4 1_555 1_555
H7 C5 1_555 1_555
C6 C1 1_555 1_555
H8 C6 1_555 1_555
C7 C4 1_555 1_555
H9 C7 1_555 1_555
H10 C7 1_555 1_555
H11 C7 1_555 1_555
C8 P1 1_555 1_555
H12 C8 1_555 1_555
C9 N4 1_555 1_555
H13 C9 1_555 1_555
C10 N4 1_555 1_555
H14 C10 1_555 1_555
H15 C10 1_555 1_555
C11 C10 1_555 1_555
C12 C11 1_555 1_555
H16 C12 1_555 1_555
C13 C12 1_555 1_555
H17 C13 1_555 1_555
C14 C13 1_555 1_555
H18 C14 1_555 1_555
C15 C14 1_555 1_555
H19 C15 1_555 1_555
C16 C11 1_555 1_555
H20 C16 1_555 1_555
C17 C9 1_555 1_555
H21 C17 1_555 1_555
H22 C17 1_555 1_555
C18 S2 1_555 1_555
C19 C18 1_555 1_555
H23 C19 1_555 1_555
C20 C19 1_555 1_555
H24 C20 1_555 1_555
C21 C20 1_555 1_555
C22 C21 1_555 1_555
H25 C22 1_555 1_555
C23 C18 1_555 1_555
H26 C23 1_555 1_555
C24 N2 1_555 1_555
H27 C24 1_555 1_555
H28 C24 1_555 1_555
C25 C24 1_555 1_555
H29 C25 1_555 1_555
H30 C25 1_555 1_555
H31 C25 1_555 1_555
C26 N2 1_555 1_555
H32 C26 1_555 1_555
H33 C26 1_555 1_555
C27 C26 1_555 1_555
H34 C27 1_555 1_555
H35 C27 1_555 1_555
H36 C27 1_555 1_555
C28 N3 1_555 1_555
H37 C28 1_555 1_555
H38 C28 1_555 1_555
C29 C28 1_555 1_555
H39 C29 1_555 1_555
H40 C29 1_555 1_555
H41 C29 1_555 1_555
C30 N3 1_555 1_555
H42 C30 1_555 1_555
H43 C30 1_555 1_555
C31 C30 1_555 1_555
H44 C31 1_555 1_555
H45 C31 1_555 1_555
H46 C31 1_555 1_555
C32 S3 1_555 1_555
C33 C32 1_555 1_555
H47 C33 1_555 1_555
C34 C33 1_555 1_555
H48 C34 1_555 1_555
C35 C34 1_555 1_555
C36 C35 1_555 1_555
H49 C36 1_555 1_555
C37 C32 1_555 1_555
H50 C37 1_555 1_555
C38 C35 1_555 1_555
H51 C38 1_555 1_555
H52 C38 1_555 1_555
H53 C38 1_555 1_555
C39 P2 1_555 1_555
H54 C39 1_555 1_555
C40 N8 1_555 1_555
H55 C40 1_555 1_555
C41 C40 1_555 1_555
H56 C41 1_555 1_555
H57 C41 1_555 1_555
C42 S4 1_555 1_555
C43 C42 1_555 1_555
H58 C43 1_555 1_555
C44 C43 1_555 1_555
H59 C44 1_555 1_555
C45 C44 1_555 1_555
C46 C45 1_555 1_555
H60 C46 1_555 1_555
C47 C42 1_555 1_555
H61 C47 1_555 1_555
C48 N8 1_555 1_555
H62 C48 1_555 1_555
H63 C48 1_555 1_555
C49 C48 1_555 1_555
C50 C49 1_555 1_555
H64 C50 1_555 1_555
C51 C50 1_555 1_555
H65 C51 1_555 1_555
C52 C51 1_555 1_555
H66 C52 1_555 1_555
C53 C52 1_555 1_555
H67 C53 1_555 1_555
C54 C49 1_555 1_555
H68 C54 1_555 1_555
C55 N6 1_555 1_555
H69 C55 1_555 1_555
H70 C55 1_555 1_555
C56 C55 1_555 1_555
H71 C56 1_555 1_555
H72 C56 1_555 1_555
H73 C56 1_555 1_555
C57 N6 1_555 1_555
H74 C57 1_555 1_555
H75 C57 1_555 1_555
C58 C57 1_555 1_555
H76 C58 1_555 1_555
H77 C58 1_555 1_555
H78 C58 1_555 1_555
C59 N7 1_555 1_555
H79 C59 1_555 1_555
H80 C59 1_555 1_555
C60 C59 1_555 1_555
H81 C60 1_555 1_555
H82 C60 1_555 1_555
H83 C60 1_555 1_555
C61 N7 1_555 1_555
H84 C61 1_555 1_555
H85 C61 1_555 1_555
C62 C61 1_555 1_555
H86 C62 1_555 1_555
H87 C62 1_555 1_555
H88 C62 1_555 1_555
N1 C8 1_555 1_555
N5 C39 1_555 1_555
C5 C6 1_555 1_555
C8 C9 1_555 1_555
C15 C16 1_555 1_555
C22 C23 1_555 1_555
C36 C37 1_555 1_555
C39 C40 1_555 1_555
C46 C47 1_555 1_555
C53 C54 1_555 1_555

#END
