
#######################################################################
#
#                 Cambridge Crystallographic Data Centre
#                                CCDC 
#
#######################################################################
#
# If this CIF has been generated from an entry in the Cambridge 
# Structural Database, then it will include bibliographic, chemical, 
# crystal, experimental, refinement or atomic coordinate data resulting 
# from the CCDC's data processing and validation procedures.
#
#######################################################################

data_MOGYOX
_chemical_formula_moiety         'C9 H12 N4 O6'
_chemical_name_systematic        tris(Diformylaminomethyl)amine
_symmetry_cell_setting           orthorhombic
_symmetry_space_group_name_H-M   'P c a 21'
_symmetry_Int_Tables_number      29
_space_group_name_Hall           'P 2c -2ac'
loop_
_symmetry_equiv_pos_site_id
_symmetry_equiv_pos_as_xyz
1 x,y,z
2 -x,-y,1/2+z
3 1/2+x,-y,z
4 1/2-x,y,1/2+z
_cell_length_a                   25.601(5)
_cell_length_b                   6.1941(14)
_cell_length_c                   7.477(2)
_cell_angle_alpha                90
_cell_angle_beta                 90
_cell_angle_gamma                90
_cell_volume                     1185.67
_exptl_crystal_colour            colorless
_exptl_crystal_description       plates
_chemical_melting_point          '159-162 deg.C(dec.)'
_cell_formula_units_Z            4
_exptl_crystal_recrystallization_method acetonitrile
loop_
_atom_site_label
_atom_site_type_symbol
_atom_site_fract_x
_atom_site_fract_y
_atom_site_fract_z
N1 N 0.37501(4) 0.62151(18) 0.55014(16)
N2 N 0.35751(5) 0.73061(19) 0.24608(17)
C1 C 0.38313(5) 0.5712(2) 0.3622(2)
H1 H 0.3692 0.4288 0.3368
H2 H 0.4203 0.5691 0.3369
O1 O 0.42192(7) 0.9796(3) 0.2860(3)
N3 N 0.32035(5) 0.31627(19) 0.65800(19)
O2 O 0.28929(6) 0.7996(2) 0.0549(2)
C2 C 0.32621(5) 0.5519(2) 0.62426(19)
H3 H 0.2985 0.5966 0.5438
H4 H 0.3209 0.6273 0.7365
N4 N 0.46325(5) 0.71975(19) 0.6209(2)
O3 O 0.28211(8) 0.2395(3) 0.3895(3)
C3 C 0.41963(5) 0.5812(2) 0.6671(2)
H5 H 0.4096 0.6072 0.7903
H6 H 0.4302 0.4313 0.6566
O4 O 0.34968(7) 0.3353(3) 0.9468(2)
C4 C 0.38052(8) 0.9305(3) 0.2204(3)
H7 H 0.3602(10) 1.025(4) 0.135(4)
C5 C 0.31107(6) 0.6823(3) 0.1604(2)
H8 H 0.2960(10) 0.556(4) 0.201(4)
O5 O 0.42651(8) 1.0160(3) 0.7475(4)
O6 O 0.51427(7) 0.4457(3) 0.5147(3)
C6 C 0.29628(8) 0.1826(3) 0.5366(3)
H9 H 0.2926(12) 0.029(5) 0.578(5)
C7 C 0.33201(7) 0.2317(3) 0.8257(2)
H10 H 0.3227(11) 0.066(4) 0.826(5)
C8 C 0.46163(7) 0.9370(3) 0.6621(4)
H11 H 0.4937(13) 1.005(7) 0.619(5)
C9 C 0.50842(6) 0.6353(3) 0.5465(3)
H12 H 0.5343(15) 0.743(5) 0.519(6)
loop_
_geom_bond_atom_site_label_1
_geom_bond_atom_site_label_2
_geom_bond_site_symmetry_1
_geom_bond_site_symmetry_2
N1 C1 1_555 1_555
N2 C1 1_555 1_555
C1 H1 1_555 1_555
H2 C1 1_555 1_555
O1 C4 1_555 1_555
N3 C2 1_555 1_555
O2 C5 1_555 1_555
C2 N1 1_555 1_555
H3 C2 1_555 1_555
H4 C2 1_555 1_555
N4 C3 1_555 1_555
O3 C6 1_555 1_555
C3 N1 1_555 1_555
H5 C3 1_555 1_555
H6 C3 1_555 1_555
O4 C7 1_555 1_555
C4 N2 1_555 1_555
H7 C4 1_555 1_555
C5 N2 1_555 1_555
H8 C5 1_555 1_555
O5 C8 1_555 1_555
O6 C9 1_555 1_555
C6 N3 1_555 1_555
H9 C6 1_555 1_555
C7 N3 1_555 1_555
H10 C7 1_555 1_555
C8 N4 1_555 1_555
H11 C8 1_555 1_555
C9 N4 1_555 1_555
H12 C9 1_555 1_555

#END
