
#######################################################################
#
#                 Cambridge Crystallographic Data Centre
#                                CCDC 
#
#######################################################################
#
# If this CIF has been generated from an entry in the Cambridge 
# Structural Database, then it will include bibliographic, chemical, 
# crystal, experimental, refinement or atomic coordinate data resulting 
# from the CCDC's data processing and validation procedures.
#
#######################################################################

data_MOGYIR
_chemical_formula_moiety         'C3 H5 N1 O3'
_chemical_name_systematic        N-(Hydroxymethyl)diformamide
_symmetry_cell_setting           monoclinic
_symmetry_space_group_name_H-M   'C c'
_symmetry_Int_Tables_number      9
_space_group_name_Hall           'C -2yc'
loop_
_symmetry_equiv_pos_site_id
_symmetry_equiv_pos_as_xyz
1 x,y,z
2 x,-y,1/2+z
3 1/2+x,1/2+y,z
4 1/2+x,1/2-y,1/2+z
_cell_length_a                   6.3429(8)
_cell_length_b                   10.2794(13)
_cell_length_c                   7.3200(8)
_cell_angle_alpha                90.00
_cell_angle_beta                 110.712(13)
_cell_angle_gamma                90.00
_cell_volume                     446.427
_exptl_crystal_colour            colorless
_exptl_crystal_description       block
_chemical_melting_point          '91-93 deg.C'
_cell_formula_units_Z            4
_exptl_crystal_recrystallization_method acetonitrile
loop_
_atom_site_label
_atom_site_type_symbol
_atom_site_fract_x
_atom_site_fract_y
_atom_site_fract_z
O1 O 0.6717(3) 0.05767(15) 0.9800(3)
N1 N 0.7090(2) -0.15503(14) 1.0673(2)
C1 C 0.5979(3) -0.03700(19) 1.0327(3)
H1 H 0.4604 -0.0306 1.0508
O2 O 0.7152(3) -0.35979(16) 1.1880(3)
C2 C 0.6192(3) -0.2567(2) 1.1377(3)
H2 H 0.4779 -0.2459 1.1473
C3 C 0.9217(3) -0.16777(17) 1.0347(3)
H3 H 0.9447 -0.2583 1.0091
H4 H 0.9143 -0.1177 0.9203
O3 O 1.1044(3) -0.12475(18) 1.1947(3)
H5 H 1.110(8) -0.040(4) 1.192(6)
loop_
_geom_bond_atom_site_label_1
_geom_bond_atom_site_label_2
_geom_bond_site_symmetry_1
_geom_bond_site_symmetry_2
O1 C1 1_555 1_555
N1 C1 1_555 1_555
C1 H1 1_555 1_555
O2 C2 1_555 1_555
C2 N1 1_555 1_555
H2 C2 1_555 1_555
C3 N1 1_555 1_555
H3 C3 1_555 1_555
H4 C3 1_555 1_555
O3 C3 1_555 1_555
H5 O3 1_555 1_555

#END
