
#######################################################################
#
#                 Cambridge Crystallographic Data Centre
#                                CCDC 
#
#######################################################################
#
# If this CIF has been generated from an entry in the Cambridge 
# Structural Database, then it will include bibliographic, chemical, 
# crystal, experimental, refinement or atomic coordinate data resulting 
# from the CCDC's data processing and validation procedures.
#
#######################################################################

data_MOGZAL
_chemical_formula_moiety         'C20 H18 Cl1 N1 O2'
_chemical_name_systematic        
5-Benzylidene-4-(4-chlorophenyl)-2,4-dimethyl-4,5-dihydrofuran-3-carboxamide
_symmetry_cell_setting           triclinic
_symmetry_space_group_name_H-M   'P -1'
_symmetry_Int_Tables_number      2
_space_group_name_Hall           '-P 1'
loop_
_symmetry_equiv_pos_site_id
_symmetry_equiv_pos_as_xyz
1 x,y,z
2 -x,-y,-z
_cell_length_a                   11.3545(7)
_cell_length_b                   12.1415(8)
_cell_length_c                   14.5259(10)
_cell_angle_alpha                67.3500(10)
_cell_angle_beta                 78.8090(10)
_cell_angle_gamma                71.2790(10)
_cell_volume                     1744.62
_cell_formula_units_Z            4
loop_
_atom_site_label
_atom_site_type_symbol
_atom_site_fract_x
_atom_site_fract_y
_atom_site_fract_z
C1 C 0.5857(3) -0.9181(3) -0.2868(3)
H1 H 0.6039 -1.0011 -0.2393
H2 H 0.6487 -0.8801 -0.2884
H3 H 0.5846 -0.9201 -0.3520
C2 C 0.4621(3) -0.8451(3) -0.2572(2)
C3 C 0.3941(2) -0.7287(2) -0.2953(2)
C4 C 0.2746(3) -0.7052(2) -0.2286(2)
C5 C 0.2932(3) -0.8337(2) -0.1476(2)
C6 C 0.2685(3) -0.6102(3) -0.1809(2)
H4 H 0.1917 -0.5983 -0.1398
H5 H 0.2725 -0.5327 -0.2326
H6 H 0.3375 -0.6401 -0.1405
C7 C 0.2177(3) -0.8704(3) -0.0670(2)
C8 C 0.2324(3) -0.9924(3) 0.0135(2)
C9 C 0.3458(3) -1.0818(3) 0.0351(2)
H7 H 0.4190 -1.0643 -0.0006
C10 C 0.3513(3) -1.1966(3) 0.1090(2)
H8 H 0.4279 -1.2554 0.1227
C11 C 0.2433(4) -1.2241(3) 0.1626(3)
H9 H 0.2469 -1.3015 0.2118
C12 C 0.1312(4) -1.1365(3) 0.1427(3)
H10 H 0.0585 -1.1546 0.1787
C13 C 0.1249(3) -1.0217(3) 0.0698(3)
H11 H 0.0481 -0.9629 0.0580
C14 C 0.1594(3) -0.6718(2) -0.28439(19)
C15 C 0.1557(3) -0.7406(3) -0.3403(2)
H12 H 0.2245 -0.8062 -0.3441
C16 C 0.0533(3) -0.7149(3) -0.3905(2)
H13 H 0.0529 -0.7630 -0.4271
C17 C -0.0484(3) -0.6171(3) -0.3858(2)
C18 C -0.0479(3) -0.5462(3) -0.3322(2)
H14 H -0.1163 -0.4798 -0.3296
C19 C 0.0562(3) -0.5742(3) -0.2817(2)
H15 H 0.0562 -0.5260 -0.2452
C20 C 0.4305(3) -0.6294(3) -0.3838(2)
N1 N 0.4807(3) -0.6575(3) -0.4657(2)
O1 O 0.40654(17) -0.91187(16) -0.16764(14)
O2 O 0.4163(2) -0.5267(2) -0.37956(17)
Cl1 Cl -0.17881(8) -0.58337(10) -0.44861(7)
H16 H 0.479(3) -0.726(3) -0.471(2)
H17 H 0.502(3) -0.598(3) -0.520(3)
H18 H 0.144(3) -0.813(3) -0.061(2)
C21 C 0.6056(3) -0.4235(3) -0.2749(2)
H19 H 0.6243 -0.5063 -0.2270
H20 H 0.6674 -0.3843 -0.2761
H21 H 0.6058 -0.4263 -0.3400
C22 C 0.4816(2) -0.3520(2) -0.2464(2)
C23 C 0.4130(2) -0.2353(2) -0.2862(2)
C24 C 0.2909(2) -0.2139(2) -0.22037(19)
C25 C 0.3078(2) -0.3436(2) -0.1414(2)
C26 C 0.2845(3) -0.1241(3) -0.1668(2)
H22 H 0.2069 -0.1134 -0.1265
H23 H 0.2901 -0.0453 -0.2157
H24 H 0.3525 -0.1577 -0.1250
C27 C 0.2288(3) -0.3821(3) -0.0645(2)
C28 C 0.2380(3) -0.5049(3) 0.0133(2)
C29 C 0.3477(3) -0.6009(3) 0.0318(2)
H25 H 0.4224 -0.5871 -0.0033
C30 C 0.3467(3) -0.7167(3) 0.1022(2)
H26 H 0.4205 -0.7801 0.1138
C31 C 0.2362(3) -0.7382(3) 0.1550(3)
H27 H 0.2354 -0.8164 0.2012
C32 C 0.1277(3) -0.6436(3) 0.1389(3)
H28 H 0.0536 -0.6575 0.1753
C33 C 0.1283(3) -0.5282(3) 0.0690(2)
H29 H 0.0543 -0.4648 0.0588
C34 C 0.1759(2) -0.1779(2) -0.27716(19)
C35 C 0.1736(3) -0.2452(3) -0.3352(2)
H30 H 0.2431 -0.3091 -0.3410
C36 C 0.0697(3) -0.2186(3) -0.3843(2)
H31 H 0.0685 -0.2648 -0.4222
C37 C -0.0324(3) -0.1222(3) -0.3761(2)
C38 C -0.0319(3) -0.0526(3) -0.3215(2)
H32 H -0.1006 0.0130 -0.3178
C39 C 0.0723(3) -0.0811(3) -0.2718(2)
H33 H 0.0728 -0.0343 -0.2341
C40 C 0.4502(3) -0.1414(3) -0.3779(2)
N2 N 0.3725(3) -0.0278(2) -0.4051(2)
O3 O 0.42388(17) -0.41925(16) -0.16039(14)
O4 O 0.54980(19) -0.16541(19) -0.42842(17)
Cl2 Cl -0.16526(8) -0.08834(12) -0.43602(8)
H34 H 0.390(3) 0.035(3) -0.463(2)
H35 H 0.302(3) -0.017(3) -0.376(2)
H36 H 0.155(3) -0.321(3) -0.061(2)
loop_
_geom_bond_atom_site_label_1
_geom_bond_atom_site_label_2
_geom_bond_site_symmetry_1
_geom_bond_site_symmetry_2
C1 H1 1_555 1_555
H2 C1 1_555 1_555
H3 C1 1_555 1_555
C2 C1 1_555 1_555
C3 C2 1_555 1_555
C4 C3 1_555 1_555
C5 C4 1_555 1_555
C6 C4 1_555 1_555
H4 C6 1_555 1_555
H5 C6 1_555 1_555
H6 C6 1_555 1_555
C7 C5 1_555 1_555
C8 C7 1_555 1_555
C9 C8 1_555 1_555
H7 C9 1_555 1_555
C10 C9 1_555 1_555
H8 C10 1_555 1_555
C11 C10 1_555 1_555
H9 C11 1_555 1_555
C12 C11 1_555 1_555
H10 C12 1_555 1_555
C13 C8 1_555 1_555
H11 C13 1_555 1_555
C14 C4 1_555 1_555
C15 C14 1_555 1_555
H12 C15 1_555 1_555
C16 C15 1_555 1_555
H13 C16 1_555 1_555
C17 C16 1_555 1_555
C18 C17 1_555 1_555
H14 C18 1_555 1_555
C19 C14 1_555 1_555
H15 C19 1_555 1_555
C20 C3 1_555 1_555
N1 C20 1_555 1_555
O1 C2 1_555 1_555
O2 C20 1_555 1_555
Cl1 C17 1_555 1_555
H16 N1 1_555 1_555
H17 N1 1_555 1_555
H18 C7 1_555 1_555
C21 H19 1_555 1_555
H20 C21 1_555 1_555
H21 C21 1_555 1_555
C22 C21 1_555 1_555
C23 C22 1_555 1_555
C24 C23 1_555 1_555
C25 C24 1_555 1_555
C26 C24 1_555 1_555
H22 C26 1_555 1_555
H23 C26 1_555 1_555
H24 C26 1_555 1_555
C27 C25 1_555 1_555
C28 C27 1_555 1_555
C29 C28 1_555 1_555
H25 C29 1_555 1_555
C30 C29 1_555 1_555
H26 C30 1_555 1_555
C31 C30 1_555 1_555
H27 C31 1_555 1_555
C32 C31 1_555 1_555
H28 C32 1_555 1_555
C33 C28 1_555 1_555
H29 C33 1_555 1_555
C34 C24 1_555 1_555
C35 C34 1_555 1_555
H30 C35 1_555 1_555
C36 C35 1_555 1_555
H31 C36 1_555 1_555
C37 C36 1_555 1_555
C38 C37 1_555 1_555
H32 C38 1_555 1_555
C39 C34 1_555 1_555
H33 C39 1_555 1_555
C40 C23 1_555 1_555
N2 C40 1_555 1_555
O3 C22 1_555 1_555
O4 C40 1_555 1_555
Cl2 C37 1_555 1_555
H34 N2 1_555 1_555
H35 N2 1_555 1_555
H36 C27 1_555 1_555
C5 O1 1_555 1_555
C12 C13 1_555 1_555
C18 C19 1_555 1_555
C25 O3 1_555 1_555
C32 C33 1_555 1_555
C38 C39 1_555 1_555

#END
