
#######################################################################
#
#                 Cambridge Crystallographic Data Centre
#                                CCDC 
#
#######################################################################
#
# If this CIF has been generated from an entry in the Cambridge 
# Structural Database, then it will include bibliographic, chemical, 
# crystal, experimental, refinement or atomic coordinate data resulting 
# from the CCDC's data processing and validation procedures.
#
#######################################################################

data_MOHDAO
_chemical_formula_moiety         '2(C1 H6 N3 1+),C20 H24 O8 S2 2-'
_chemical_name_systematic        
"bis(Guanidinium) 4,4'-bis(4-sulfonatobutoxy)biphenyl"
_symmetry_cell_setting           monoclinic
_symmetry_space_group_name_H-M   'P 21/c'
_symmetry_Int_Tables_number      14
_space_group_name_Hall           '-P 2ybc'
loop_
_symmetry_equiv_pos_site_id
_symmetry_equiv_pos_as_xyz
1 x,y,z
2 x,1/2-y,1/2+z
3 -x,-y,-z
4 -x,1/2+y,1/2-z
_cell_length_a                   12.8032(17)
_cell_length_b                   18.092(2)
_cell_length_c                   12.8969(18)
_cell_angle_alpha                90
_cell_angle_beta                 91.646(3)
_cell_angle_gamma                90
_cell_volume                     2986.15
_exptl_crystal_colour            colorless
_exptl_crystal_description       irregular
_cell_formula_units_Z            4
_exptl_crystal_recrystallization_method 'methanol/ethyl acetate'
loop_
_atom_site_label
_atom_site_type_symbol
_atom_site_fract_x
_atom_site_fract_y
_atom_site_fract_z
S1 S 1.42664(6) 0.16904(4) 0.44861(6)
S2 S 0.07470(6) -0.15179(4) 0.88550(6)
O1 O 1.37529(15) 0.16112(11) 0.34675(16)
O2 O 0.12841(15) -0.20048(12) 0.95914(16)
O3 O 1.38281(15) 0.23072(11) 0.50640(16)
O4 O -0.03790(15) -0.16396(12) 0.88114(16)
O5 O 1.53975(15) 0.17403(12) 0.44181(16)
O6 O 0.11931(15) -0.15635(11) 0.78220(15)
O7 O 0.36693(17) 0.06076(14) 0.85620(19)
O8 O 1.10253(18) 0.06068(13) 0.6546(2)
C2 C 0.7932(2) 0.06475(17) 0.7499(2)
C3 C 0.2080(2) -0.03602(17) 0.9300(3)
H13 H 0.2488 -0.0677 0.9764
H14 H 0.2342 -0.0421 0.8607
C4 C 0.0941(2) -0.06019(16) 0.9303(2)
H15 H 0.0529 -0.0268 0.8868
H16 H 0.0690 -0.0563 1.0004
C6 C 0.6824(2) 0.06567(16) 0.7816(2)
C7 C 1.0004(3) 0.05796(19) 0.6834(3)
C8 C 0.9437(3) -0.00505(18) 0.6934(3)
H17 H 0.9728 -0.0506 0.6773
C9 C 0.8422(3) -0.00102(18) 0.7277(3)
H18 H 0.8054 -0.0448 0.7361
C10 C 1.4001(3) 0.08776(18) 0.5188(3)
H19 H 1.4288 0.0457 0.4826
H20 H 1.4348 0.0907 0.5865
C11 C 0.3355(3) 0.0683(2) 0.9601(3)
H21 H 0.3422 0.1194 0.9823
H22 H 0.3789 0.0378 1.0057
C12 C 1.2832(3) 0.07527(18) 0.5328(3)
H23 H 1.2534 0.1188 0.5644
H24 H 1.2492 0.0685 0.4653
C13 C 0.4723(2) 0.06356(18) 0.8376(3)
C14 C 0.5125(3) 0.00713(19) 0.7794(3)
H25 H 0.4701 -0.0323 0.7589
C15 C 0.6399(3) 0.12158(18) 0.8406(3)
H26 H 0.6824 0.1607 0.8622
C16 C 1.1475(3) -0.00506(18) 0.6125(3)
H27 H 1.1141 -0.0168 0.5461
H28 H 1.1377 -0.0464 0.6591
C17 C 0.8521(3) 0.1285(2) 0.7375(4)
H29 H 0.8221 0.1741 0.7512
C18 C 0.2226(3) 0.04384(18) 0.9636(3)
H30 H 0.1803 0.0754 0.9185
H31 H 0.1984 0.0496 1.0337
C19 C 0.6154(3) 0.00898(19) 0.7516(3)
H32 H 0.6409 -0.0292 0.7113
C20 C 0.5363(3) 0.12108(19) 0.8684(3)
H33 H 0.5100 0.1595 0.9078
C21 C 1.2620(3) 0.0090(2) 0.5993(3)
H34 H 1.2932 -0.0343 0.5683
H35 H 1.2953 0.0162 0.6671
C22 C 0.9540(3) 0.1257(2) 0.7055(4)
H36 H 0.9918 0.1693 0.6987
N1 N 1.50390(19) 0.28146(16) 0.6820(2)
H1 H 1.4689 0.2606 0.6323
H2 H 1.4726 0.2962 0.7364
N5 N 1.6593(2) 0.32343(15) 0.7519(2)
H9 H 1.6277 0.3382 0.8061
H10 H 1.7256 0.3297 0.7476
C1 C 1.6057(2) 0.29092(17) 0.6750(2)
N6 N 1.6539(2) 0.26824(15) 0.5912(2)
H11 H 1.6189 0.2473 0.5414
H12 H 1.7202 0.2744 0.5866
N2 N 0.00009(19) -0.22882(15) 0.6144(2)
H3 H 0.0335 -0.2483 0.5644
H4 H 0.0338 -0.2109 0.6673
N3 N -0.1538(2) -0.19595(14) 0.6875(2)
H5 H -0.1199 -0.1779 0.7401
H6 H -0.2210 -0.1943 0.6848
N4 N -0.15492(19) -0.25370(14) 0.5292(2)
H7 H -0.1220 -0.2733 0.4789
H8 H -0.2221 -0.2519 0.5269
C5 C -0.1024(2) -0.22639(16) 0.6100(2)
loop_
_geom_bond_atom_site_label_1
_geom_bond_atom_site_label_2
_geom_bond_site_symmetry_1
_geom_bond_site_symmetry_2
S1 O1 1_555 1_555
S2 O2 1_555 1_555
O3 S1 1_555 1_555
O4 S2 1_555 1_555
O5 S1 1_555 1_555
O6 S2 1_555 1_555
O7 C11 1_555 1_555
N1 H1 1_555 1_555
H2 N1 1_555 1_555
O8 C7 1_555 1_555
N2 H3 1_555 1_555
H4 N2 1_555 1_555
N3 H5 1_555 1_555
H6 N3 1_555 1_555
N4 H7 1_555 1_555
H8 N4 1_555 1_555
N5 H9 1_555 1_555
H10 N5 1_555 1_555
C1 N1 1_555 1_555
C2 C6 1_555 1_555
N6 C1 1_555 1_555
H11 N6 1_555 1_555
H12 N6 1_555 1_555
C3 H13 1_555 1_555
H14 C3 1_555 1_555
C4 S2 1_555 1_555
H15 C4 1_555 1_555
H16 C4 1_555 1_555
C5 N2 1_555 1_555
C6 C15 1_555 1_555
C7 C8 1_555 1_555
C8 H17 1_555 1_555
C9 C2 1_555 1_555
H18 C9 1_555 1_555
C10 S1 1_555 1_555
H19 C10 1_555 1_555
H20 C10 1_555 1_555
C11 H21 1_555 1_555
H22 C11 1_555 1_555
C12 C10 1_555 1_555
H23 C12 1_555 1_555
H24 C12 1_555 1_555
C13 O7 1_555 1_555
C14 C13 1_555 1_555
H25 C14 1_555 1_555
C15 H26 1_555 1_555
C16 O8 1_555 1_555
H27 C16 1_555 1_555
H28 C16 1_555 1_555
C17 C2 1_555 1_555
H29 C17 1_555 1_555
C18 C3 1_555 1_555
H30 C18 1_555 1_555
H31 C18 1_555 1_555
C19 C6 1_555 1_555
H32 C19 1_555 1_555
C20 C13 1_555 1_555
H33 C20 1_555 1_555
C21 C12 1_555 1_555
H34 C21 1_555 1_555
H35 C21 1_555 1_555
C22 C7 1_555 1_555
H36 C22 1_555 1_555
N3 C5 1_555 1_555
N4 C5 1_555 1_555
N5 C1 1_555 1_555
C3 C4 1_555 1_555
C8 C9 1_555 1_555
C11 C18 1_555 1_555
C14 C19 1_555 1_555
C15 C20 1_555 1_555
C16 C21 1_555 1_555
C17 C22 1_555 1_555

#END
