
#######################################################################
#
#                 Cambridge Crystallographic Data Centre
#                                CCDC 
#
#######################################################################
#
# If this CIF has been generated from an entry in the Cambridge 
# Structural Database, then it will include bibliographic, chemical, 
# crystal, experimental, refinement or atomic coordinate data resulting 
# from the CCDC's data processing and validation procedures.
#
#######################################################################

data_MOHSAE
_chemical_formula_moiety         'C32 H26 F3 N3 O3'
_chemical_name_systematic        
'(R,R)-4-(Trifluoromethyl)phenyl 2-((8-acetamido-6H,12H-5,11-methanodibenzo(b,f)(1,5)diazocin-2-yl)-3-methyl)benzoate'
_symmetry_cell_setting           monoclinic
_symmetry_space_group_name_H-M   'P 21/n'
_symmetry_Int_Tables_number      14
_space_group_name_Hall           '-P 2yn'
loop_
_symmetry_equiv_pos_site_id
_symmetry_equiv_pos_as_xyz
1 x,y,z
2 1/2-x,1/2+y,1/2-z
3 -x,-y,-z
4 1/2+x,1/2-y,1/2+z
_cell_length_a                   10.3299(3)
_cell_length_b                   12.4818(4)
_cell_length_c                   20.5365(7)
_cell_angle_alpha                90
_cell_angle_beta                 97.4946(12)
_cell_angle_gamma                90
_cell_volume                     2625.27
_exptl_crystal_colour            colorless
_exptl_crystal_description       Cube
_chemical_melting_point          '228-231 deg.C'
_cell_formula_units_Z            4
_exptl_crystal_recrystallization_method benzene
loop_
_atom_site_label
_atom_site_type_symbol
_atom_site_fract_x
_atom_site_fract_y
_atom_site_fract_z
F1 F -0.15885(16) 0.11174(15) 1.10493(7)
F2 F -0.25094(19) 0.25978(14) 1.07398(8)
F3 F -0.36530(16) 0.11776(15) 1.07713(8)
O1 O -0.0180(2) 0.42242(17) 1.06766(10)
O2 O -0.1794(2) -0.09931(15) 0.81064(9)
O3 O -0.18929(17) 0.07877(13) 0.79677(8)
N1 N 0.24193(18) 0.34840(16) 0.80718(9)
N2 N 0.36202(17) 0.20330(16) 0.86627(9)
N3 N 0.10935(19) 0.27505(17) 1.08997(10)
C1 C -0.0151(2) 0.12267(17) 0.70390(10)
C2 C -0.0420(2) 0.23263(18) 0.70041(11)
C3 C 0.0432(2) 0.30473(18) 0.73408(11)
C4 C 0.1561(2) 0.26975(17) 0.77313(10)
C5 C 0.1913(2) 0.39042(19) 0.86598(11)
C6 C 0.2095(2) 0.31215(18) 0.92269(10)
C7 C 0.1475(2) 0.33110(18) 0.97819(11)
C8 C 0.1636(2) 0.25970(18) 1.03072(10)
C9 C 0.2377(2) 0.16699(19) 1.02660(11)
C10 C 0.3002(2) 0.14864(19) 0.97205(11)
C11 C 0.2885(2) 0.22224(18) 0.92025(10)
C12 C 0.3027(2) 0.11939(19) 0.82098(11)
C13 C 0.1837(2) 0.16051(17) 0.77736(10)
C14 C 0.0975(2) 0.08836(18) 0.74217(11)
C15 C 0.3704(2) 0.3016(2) 0.82827(12)
C16 C 0.0282(2) 0.3544(2) 1.10578(12)
C17 C 0.0011(4) 0.3507(3) 1.17623(15)
C18 C -0.1069(2) 0.04276(17) 0.66818(11)
C19 C -0.1173(2) 0.03468(17) 0.59951(11)
C20 C -0.2016(2) -0.0416(2) 0.56770(12)
C21 C -0.2715(3) -0.1114(2) 0.60231(14)
C22 C -0.2581(2) -0.1068(2) 0.66962(13)
C23 C -0.1786(2) -0.02800(18) 0.70272(11)
C24 C -0.0369(3) 0.1042(2) 0.56081(13)
C25 C -0.1790(2) -0.02335(19) 0.77488(11)
C26 C -0.2020(2) 0.09272(18) 0.86361(11)
C27 C -0.0939(2) 0.0935(2) 0.91024(13)
C28 C -0.1104(2) 0.1122(2) 0.97502(12)
C29 C -0.2337(2) 0.13122(18) 0.99199(11)
C30 C -0.3417(2) 0.1317(2) 0.94386(12)
C31 C -0.3255(2) 0.1119(2) 0.87940(13)
C32 C -0.2519(3) 0.1545(2) 1.06160(13)
H1 H 0.094(2) 0.398(2) 0.9799(12)
H2 H -0.038(2) 0.115(2) 1.0084(13)
H3 H 0.249(2) 0.116(2) 1.0632(13)
H4 H -0.123(3) 0.258(2) 0.6743(13)
H5 H 0.424(2) 0.354(2) 0.8559(12)
H6 H -0.210(3) -0.048(3) 0.5211(15)
H7 H 0.113(2) 0.014(2) 0.7468(12)
H8 H 0.235(3) 0.458(2) 0.8773(14)
H9 H 0.367(3) 0.093(2) 0.7935(14)
H10 H 0.024(2) 0.383(2) 0.7324(12)
H11 H 0.413(2) 0.284(2) 0.7893(13)
H12 H 0.095(3) 0.408(2) 0.8561(13)
H13 H 0.354(2) 0.084(2) 0.9702(12)
H14 H -0.014(3) 0.080(2) 0.8963(14)
H15 H 0.132(3) 0.227(2) 1.1182(15)
H16 H -0.326(3) -0.162(2) 0.5772(14)
H17 H 0.279(3) 0.059(2) 0.8460(13)
H18 H -0.427(3) 0.149(2) 0.9557(13)
H19 H -0.309(3) -0.156(2) 0.6947(14)
H20 H -0.398(3) 0.117(2) 0.8467(13)
H21 H -0.050(3) 0.088(3) 0.5146(17)
H22 H 0.055(3) 0.094(3) 0.5726(16)
H23 H -0.049(3) 0.179(3) 0.5659(17)
H24 H 0.044(4) 0.290(3) 1.200(2)
H25 H -0.088(5) 0.347(4) 1.177(2)
H26 H 0.029(5) 0.413(4) 1.196(3)
loop_
_geom_bond_atom_site_label_1
_geom_bond_atom_site_label_2
_geom_bond_site_symmetry_1
_geom_bond_site_symmetry_2
F1 C32 1_555 1_555
F2 C32 1_555 1_555
F3 C32 1_555 1_555
O1 C16 1_555 1_555
O2 C25 1_555 1_555
O3 C25 1_555 1_555
N1 C4 1_555 1_555
N2 C11 1_555 1_555
N3 C8 1_555 1_555
C1 C2 1_555 1_555
C2 C3 1_555 1_555
C3 C4 1_555 1_555
C4 C13 1_555 1_555
C5 N1 1_555 1_555
C6 C5 1_555 1_555
C7 C6 1_555 1_555
C8 C7 1_555 1_555
C9 C8 1_555 1_555
C10 C9 1_555 1_555
C11 C6 1_555 1_555
C12 N2 1_555 1_555
C13 C12 1_555 1_555
C14 C1 1_555 1_555
C15 N1 1_555 1_555
C16 N3 1_555 1_555
C17 C16 1_555 1_555
C18 C1 1_555 1_555
C19 C18 1_555 1_555
C20 C19 1_555 1_555
C21 C20 1_555 1_555
C22 C21 1_555 1_555
C23 C18 1_555 1_555
C24 C19 1_555 1_555
C25 C23 1_555 1_555
C26 O3 1_555 1_555
C27 C26 1_555 1_555
C28 C27 1_555 1_555
C29 C28 1_555 1_555
C30 C29 1_555 1_555
C31 C26 1_555 1_555
C32 C29 1_555 1_555
H1 C7 1_555 1_555
H2 C28 1_555 1_555
H3 C9 1_555 1_555
H4 C2 1_555 1_555
H5 C15 1_555 1_555
H6 C20 1_555 1_555
H7 C14 1_555 1_555
H8 C5 1_555 1_555
H9 C12 1_555 1_555
H10 C3 1_555 1_555
H11 C15 1_555 1_555
H12 C5 1_555 1_555
H13 C10 1_555 1_555
H14 C27 1_555 1_555
H15 N3 1_555 1_555
H16 C21 1_555 1_555
H17 C12 1_555 1_555
H18 C30 1_555 1_555
H19 C22 1_555 1_555
H20 C31 1_555 1_555
H21 C24 1_555 1_555
H22 C24 1_555 1_555
H23 C24 1_555 1_555
H24 C17 1_555 1_555
H25 C17 1_555 1_555
H26 C17 1_555 1_555
N2 C15 1_555 1_555
C10 C11 1_555 1_555
C13 C14 1_555 1_555
C22 C23 1_555 1_555
C30 C31 1_555 1_555

#END
