
#######################################################################
#
#                 Cambridge Crystallographic Data Centre
#                                CCDC 
#
#######################################################################
#
# If this CIF has been generated from an entry in the Cambridge 
# Structural Database, then it will include bibliographic, chemical, 
# crystal, experimental, refinement or atomic coordinate data resulting 
# from the CCDC's data processing and validation procedures.
#
#######################################################################

data_MOHVAH
_chemical_formula_moiety         'C23 H22 O6'
_chemical_name_systematic        
1,2-bis(Methoxycarbonyl)-3-(1-ethoxycarbonylethyl)phenanthrene
_symmetry_cell_setting           triclinic
_symmetry_space_group_name_H-M   'P -1'
_symmetry_Int_Tables_number      2
_space_group_name_Hall           '-P 1'
loop_
_symmetry_equiv_pos_site_id
_symmetry_equiv_pos_as_xyz
1 x,y,z
2 -x,-y,-z
_cell_length_a                   7.7495(7)
_cell_length_b                   10.1805(9)
_cell_length_c                   13.3793(12)
_cell_angle_alpha                93.494(2)
_cell_angle_beta                 91.931(2)
_cell_angle_gamma                109.458(2)
_cell_volume                     991.771
_exptl_crystal_colour            colorless
_exptl_crystal_description       prismatic
_chemical_melting_point          '94-95 deg.C'
_cell_formula_units_Z            2
loop_
_atom_site_label
_atom_site_type_symbol
_atom_site_fract_x
_atom_site_fract_y
_atom_site_fract_z
O1 O 0.02012(17) -0.08327(15) 0.34462(9)
O2 O 0.30925(15) -0.02094(12) 0.40509(8)
O3 O 0.57543(17) 0.32002(14) 0.40962(9)
O4 O 0.27268(17) 0.24937(12) 0.42578(9)
O5 O 0.3915(3) 0.5694(2) 0.13012(15)
O6 O 0.3401(2) 0.51237(18) 0.28417(12)
C1 C 0.3511(3) 0.0783(2) -0.11341(13)
H1 H 0.4359 0.1681 -0.1035
C2 C 0.3113(3) 0.0135(2) -0.20839(14)
H2 H 0.3702 0.0596 -0.2621
C3 C 0.1843(3) -0.1199(2) -0.22532(14)
H3 H 0.1566 -0.1623 -0.2902
C4 C 0.1005(3) -0.1885(2) -0.14699(14)
H4 H 0.0147 -0.2777 -0.1588
C5 C 0.1412(2) -0.12684(18) -0.04809(12)
C6 C 0.2655(2) 0.01053(18) -0.03091(11)
C7 C 0.2995(2) 0.07529(16) 0.07134(11)
C8 C 0.2171(2) -0.00234(16) 0.15149(11)
C9 C 0.0966(2) -0.14353(18) 0.12971(13)
H5 H 0.0433 -0.1962 0.1820
C10 C 0.0599(3) -0.20047(19) 0.03500(14)
H6 H -0.0215 -0.2913 0.0232
C11 C 0.2590(2) 0.06183(16) 0.25059(11)
C12 C 0.3734(2) 0.19927(16) 0.26903(11)
C13 C 0.4476(2) 0.27927(16) 0.18814(12)
C14 C 0.4096(2) 0.21556(17) 0.09241(12)
H7 H 0.4592 0.2678 0.0393
C15 C 0.1792(2) -0.02184(17) 0.33656(12)
C16 C 0.2427(3) -0.0842(2) 0.49718(13)
H8 H 0.1630 -0.0395 0.5263
H9 H 0.3447 -0.0729 0.5436
H10 H 0.1763 -0.1819 0.4824
C17 C 0.4213(2) 0.26298(17) 0.37458(12)
C18 C 0.3079(3) 0.3028(2) 0.52996(15)
H11 H 0.3933 0.2661 0.5615
H12 H 0.1953 0.2748 0.5635
H13 H 0.3585 0.4029 0.5339
C19 C 0.5571(2) 0.43522(18) 0.20436(14)
C20 C 0.7043(3) 0.4879(2) 0.12968(17)
H14 H 0.6471 0.4847 0.0644
H15 H 0.7797 0.4298 0.1273
H16 H 0.7787 0.5824 0.1503
C21 C 0.4240(3) 0.51452(19) 0.20125(15)
C22 C 0.2044(4) 0.5826(4) 0.2888(3)
H17 H 0.2651 0.6819 0.3050
H18 H 0.1384 0.5699 0.2240
C23 C 0.0797(4) 0.5264(4) 0.3629(3)
H19 H 0.0212 0.4278 0.3471
H20 H -0.0114 0.5712 0.3647
H21 H 0.1448 0.5420 0.4273
H22 H 0.615(2) 0.4513(19) 0.2721(14)
loop_
_geom_bond_atom_site_label_1
_geom_bond_atom_site_label_2
_geom_bond_site_symmetry_1
_geom_bond_site_symmetry_2
O1 C15 1_555 1_555
O2 C15 1_555 1_555
O3 C17 1_555 1_555
O4 C17 1_555 1_555
O5 C21 1_555 1_555
O6 C21 1_555 1_555
C1 H1 1_555 1_555
C2 C1 1_555 1_555
H2 C2 1_555 1_555
C3 C2 1_555 1_555
H3 C3 1_555 1_555
C4 C3 1_555 1_555
H4 C4 1_555 1_555
C5 C4 1_555 1_555
C6 C1 1_555 1_555
C7 C6 1_555 1_555
C8 C7 1_555 1_555
C9 C8 1_555 1_555
H5 C9 1_555 1_555
C10 C5 1_555 1_555
H6 C10 1_555 1_555
C11 C8 1_555 1_555
C12 C11 1_555 1_555
C13 C12 1_555 1_555
C14 C7 1_555 1_555
H7 C14 1_555 1_555
C15 C11 1_555 1_555
C16 O2 1_555 1_555
H8 C16 1_555 1_555
H9 C16 1_555 1_555
H10 C16 1_555 1_555
C17 C12 1_555 1_555
C18 O4 1_555 1_555
H11 C18 1_555 1_555
H12 C18 1_555 1_555
H13 C18 1_555 1_555
C19 C13 1_555 1_555
C20 C19 1_555 1_555
H14 C20 1_555 1_555
H15 C20 1_555 1_555
H16 C20 1_555 1_555
C21 C19 1_555 1_555
C22 O6 1_555 1_555
H17 C22 1_555 1_555
H18 C22 1_555 1_555
C23 C22 1_555 1_555
H19 C23 1_555 1_555
H20 C23 1_555 1_555
H21 C23 1_555 1_555
H22 C19 1_555 1_555
C5 C6 1_555 1_555
C9 C10 1_555 1_555
C13 C14 1_555 1_555

#END
