
#######################################################################
#
#                 Cambridge Crystallographic Data Centre
#                                CCDC 
#
#######################################################################
#
# If this CIF has been generated from an entry in the Cambridge 
# Structural Database, then it will include bibliographic, chemical, 
# crystal, experimental, refinement or atomic coordinate data resulting 
# from the CCDC's data processing and validation procedures.
#
#######################################################################

data_MOHVEL
_chemical_formula_moiety         'C27 H23 O5 P1'
_chemical_name_systematic        
1,2-bis(Methoxycarbonyl)-4-(diphenylphosphinoyl)-3-methylnaphthalene
_symmetry_cell_setting           monoclinic
_symmetry_space_group_name_H-M   'P 21/c'
_symmetry_Int_Tables_number      14
_space_group_name_Hall           '-P 2ybc'
loop_
_symmetry_equiv_pos_site_id
_symmetry_equiv_pos_as_xyz
1 x,y,z
2 -x,1/2+y,1/2-z
3 -x,-y,-z
4 x,1/2-y,1/2+z
_cell_length_a                   11.330(10)
_cell_length_b                   22.000(19)
_cell_length_c                   9.420(8)
_cell_angle_alpha                90
_cell_angle_beta                 98.108(15)
_cell_angle_gamma                90
_cell_volume                     2324.56
_exptl_crystal_colour            colorless
_exptl_crystal_description       prismatic
_chemical_melting_point          '169-170 deg.C'
_cell_formula_units_Z            4
loop_
_atom_site_label
_atom_site_type_symbol
_atom_site_fract_x
_atom_site_fract_y
_atom_site_fract_z
P1 P 0.64897(4) 0.86440(2) 0.84238(6)
O1 O 0.70827(12) 0.80745(6) 0.80785(16)
O2 O 0.05141(19) 0.85899(12) 0.5515(3)
O3 O 0.07134(15) 0.78633(8) 0.7132(2)
O4 O 0.1143(2) 0.91625(11) 0.8926(3)
O5 O 0.1853(2) 0.84309(13) 1.0333(3)
C1 C 0.40253(18) 0.87327(9) 0.8807(2)
C2 C 0.27862(19) 0.86253(10) 0.8305(3)
C3 C 0.24094(18) 0.84159(9) 0.6938(2)
C4 C 0.32336(18) 0.82872(9) 0.5985(2)
C5 C 0.2848(2) 0.80667(10) 0.4565(3)
H1 H 0.2039 0.8007 0.4260
C6 C 0.3645(2) 0.79451(11) 0.3665(3)
H2 H 0.3383 0.7809 0.2740
C7 C 0.4861(2) 0.80243(11) 0.4123(3)
H3 H 0.5404 0.7936 0.3499
C8 C 0.5268(2) 0.82298(10) 0.5474(2)
H4 H 0.6083 0.8280 0.5747
C9 C 0.44726(17) 0.83679(9) 0.6472(2)
C10 C 0.48564(17) 0.85918(8) 0.7918(2)
C11 C 0.4323(2) 0.90144(13) 1.0295(3)
H5 H 0.4598 0.8703 1.0976
H6 H 0.3622 0.9202 1.0564
H7 H 0.4935 0.9315 1.0281
C12 C 0.69168(19) 0.92976(9) 0.7461(2)
C13 C 0.6136(2) 0.97563(11) 0.6942(3)
H8 H 0.5337 0.9734 0.7068
C14 C 0.6549(3) 1.02506(12) 0.6231(3)
H9 H 0.6024 1.0557 0.5874
C15 C 0.7727(3) 1.02865(13) 0.6057(3)
H10 H 0.7996 1.0617 0.5577
C16 C 0.8509(3) 0.98411(13) 0.6583(3)
H11 H 0.9311 0.9872 0.6477
C17 C 0.8109(2) 0.93486(11) 0.7266(3)
H12 H 0.8642 0.9043 0.7606
C18 C 0.69626(17) 0.88172(10) 1.0297(2)
C19 C 0.7322(2) 0.93897(11) 1.0799(3)
H13 H 0.7265 0.9719 1.0172
C20 C 0.7770(3) 0.94729(14) 1.2241(3)
H14 H 0.8007 0.9858 1.2575
C21 C 0.7864(3) 0.89892(15) 1.3174(3)
H15 H 0.8159 0.9049 1.4136
C22 C 0.7527(2) 0.84257(13) 1.2697(3)
H16 H 0.7595 0.8099 1.3332
C23 C 0.70817(19) 0.83347(11) 1.1269(2)
H17 H 0.6858 0.7946 1.0952
C24 C 0.1108(2) 0.83141(12) 0.6427(3)
C25 C -0.0539(3) 0.76860(19) 0.6683(5)
H18 H -0.1056 0.7976 0.7041
H19 H -0.0676 0.7291 0.7060
H20 H -0.0698 0.7675 0.5655
C26 C 0.1868(3) 0.87514(17) 0.9242(4)
C27 C 0.0866(4) 0.8675(3) 1.1078(6)
H21 H 0.0817 0.8441 1.1929
H22 H 0.0124 0.8647 1.0448
H23 H 0.1025 0.9092 1.1334
C28? C 0.0373(4) 0.9168(3) 1.0262(6)
H24? H 0.0888 0.9246 1.1142
H25? H -0.0004 0.8780 1.0317
H26? H -0.0226 0.9479 1.0109
loop_
_geom_bond_atom_site_label_1
_geom_bond_atom_site_label_2
_geom_bond_site_symmetry_1
_geom_bond_site_symmetry_2
P1 O1 1_555 1_555
O2 C24 1_555 1_555
O3 C24 1_555 1_555
O4 C26 1_555 1_555
O5 C26 1_555 1_555
C1 C2 1_555 1_555
C2 C3 1_555 1_555
C3 C4 1_555 1_555
C4 C5 1_555 1_555
C5 H1 1_555 1_555
C6 C5 1_555 1_555
H2 C6 1_555 1_555
C7 C6 1_555 1_555
H3 C7 1_555 1_555
C8 C7 1_555 1_555
H4 C8 1_555 1_555
C9 C4 1_555 1_555
C10 P1 1_555 1_555
C11 C1 1_555 1_555
H5 C11 1_555 1_555
H6 C11 1_555 1_555
H7 C11 1_555 1_555
C12 P1 1_555 1_555
C13 C12 1_555 1_555
H8 C13 1_555 1_555
C14 C13 1_555 1_555
H9 C14 1_555 1_555
C15 C14 1_555 1_555
H10 C15 1_555 1_555
C16 C15 1_555 1_555
H11 C16 1_555 1_555
C17 C12 1_555 1_555
H12 C17 1_555 1_555
C18 P1 1_555 1_555
C19 C18 1_555 1_555
H13 C19 1_555 1_555
C20 C19 1_555 1_555
H14 C20 1_555 1_555
C21 C20 1_555 1_555
H15 C21 1_555 1_555
C22 C21 1_555 1_555
H16 C22 1_555 1_555
C23 C18 1_555 1_555
H17 C23 1_555 1_555
C24 C3 1_555 1_555
C25 O3 1_555 1_555
H18 C25 1_555 1_555
H19 C25 1_555 1_555
H20 C25 1_555 1_555
C26 C2 1_555 1_555
C27 O5 1_555 1_555
H21 C27 1_555 1_555
H22 C27 1_555 1_555
H23 C27 1_555 1_555
C1 C10 1_555 1_555
C8 C9 1_555 1_555
C9 C10 1_555 1_555
C16 C17 1_555 1_555
C22 C23 1_555 1_555

#END
