
#######################################################################
#
#                 Cambridge Crystallographic Data Centre
#                                CCDC 
#
#######################################################################
#
# If this CIF has been generated from an entry in the Cambridge 
# Structural Database, then it will include bibliographic, chemical, 
# crystal, experimental, refinement or atomic coordinate data resulting 
# from the CCDC's data processing and validation procedures.
#
#######################################################################

data_MOHVUC
_chemical_formula_moiety         'C19 H24 N2,C1 H4 O1'
_chemical_name_systematic        'Alloyohimbane methanol solvate'
_symmetry_cell_setting           triclinic
_symmetry_space_group_name_H-M   'P -1'
_symmetry_Int_Tables_number      2
_space_group_name_Hall           '-P 1'
loop_
_symmetry_equiv_pos_site_id
_symmetry_equiv_pos_as_xyz
1 x,y,z
2 -x,-y,-z
_cell_length_a                   6.7504(4)
_cell_length_b                   11.5970(9)
_cell_length_c                   12.8888(14)
_cell_angle_alpha                63.386(9)
_cell_angle_beta                 75.767(7)
_cell_angle_gamma                81.754(6)
_cell_volume                     873.748
_exptl_crystal_colour            colorless
_exptl_crystal_description       parallelepiped
_cell_formula_units_Z            2
loop_
_atom_site_label
_atom_site_type_symbol
_atom_site_fract_x
_atom_site_fract_y
_atom_site_fract_z
N1 N 0.24406(16) 0.23675(9) 0.51741(9)
H1 H 0.139(2) 0.2892(14) 0.4853(13)
N2 N 0.74719(15) 0.29576(9) 0.30871(9)
C1 C 0.44227(18) 0.22623(11) 0.46056(10)
C2 C 0.52080(17) 0.30169(11) 0.33053(10)
H2 H 0.4778 0.2593 0.2874
C3 C 0.82704(19) 0.16016(11) 0.36334(11)
H3 H 0.9778 0.1579 0.3378
H4 H 0.7713 0.1079 0.3346
C4 C 0.77024(19) 0.10035(11) 0.49885(11)
H5 H 0.7881 0.0052 0.5309
H6 H 0.8618 0.1314 0.5295
C5 C 0.55317(18) 0.13649(11) 0.53868(11)
C6 C 0.41752(19) 0.08817(11) 0.65286(11)
C7 C 0.4357(2) -0.00481(12) 0.76757(11)
H7 H 0.5638 -0.0474 0.7825
C8 C 0.2644(2) -0.03296(12) 0.85778(12)
H8 H 0.2756 -0.0960 0.9351
C9 C 0.0751(2) 0.02904(12) 0.83801(11)
H9 H -0.0403 0.0062 0.9018
C10 C 0.0520(2) 0.12335(12) 0.72714(11)
H10 H -0.0762 0.1668 0.7140
C11 C 0.22512(19) 0.15181(11) 0.63560(11)
C12 C 0.44422(18) 0.44262(11) 0.28118(10)
H11 H 0.4912 0.4873 0.3202
H12 H 0.2928 0.4470 0.2986
C13 C 0.52431(19) 0.51043(11) 0.14697(10)
H13 H 0.4663 0.4662 0.1105
C14 C 0.4536(2) 0.65349(11) 0.09194(11)
H14 H 0.4739 0.6844 0.0051
H15 H 0.3054 0.6612 0.1234
C15 C 0.5673(2) 0.73977(13) 0.11707(12)
H16 H 0.5223 0.8310 0.0749
H17 H 0.5340 0.7165 0.2031
C16 C 0.7965(2) 0.72470(12) 0.07701(12)
H18 H 0.8679 0.7797 0.0957
H19 H 0.8310 0.7534 -0.0099
C17 C 0.8684(2) 0.58391(12) 0.13905(12)
H20 H 1.0175 0.5756 0.1105
H21 H 0.8431 0.5578 0.2255
C18 C 0.75855(19) 0.49369(12) 0.11627(11)
H22 H 0.7974 0.5181 0.0292
C19 C 0.82782(19) 0.35266(12) 0.17908(11)
H23 H 0.7820 0.3019 0.1452
H24 H 0.9791 0.3464 0.1639
O1 O 0.91676(13) 0.39252(8) 0.42684(8)
H25 H 0.851(3) 0.3675(16) 0.3859(15)
C20 C 0.7721(2) 0.42868(15) 0.50888(14)
H26 H 0.845(2) 0.4303(13) 0.5661(13)
H27 H 0.662(2) 0.3659(14) 0.5524(13)
H28 H 0.719(2) 0.5174(16) 0.4647(14)
loop_
_geom_bond_atom_site_label_1
_geom_bond_atom_site_label_2
_geom_bond_site_symmetry_1
_geom_bond_site_symmetry_2
N1 H1 1_555 1_555
N2 C2 1_555 1_555
C1 N1 1_555 1_555
C2 C1 1_555 1_555
H2 C2 1_555 1_555
C3 N2 1_555 1_555
H3 C3 1_555 1_555
H4 C3 1_555 1_555
C4 C3 1_555 1_555
H5 C4 1_555 1_555
H6 C4 1_555 1_555
C5 C1 1_555 1_555
C6 C5 1_555 1_555
C7 C6 1_555 1_555
H7 C7 1_555 1_555
C8 C7 1_555 1_555
H8 C8 1_555 1_555
C9 C8 1_555 1_555
H9 C9 1_555 1_555
C10 C9 1_555 1_555
H10 C10 1_555 1_555
C11 N1 1_555 1_555
C12 C2 1_555 1_555
H11 C12 1_555 1_555
H12 C12 1_555 1_555
C13 C12 1_555 1_555
H13 C13 1_555 1_555
C14 C13 1_555 1_555
H14 C14 1_555 1_555
H15 C14 1_555 1_555
C15 C14 1_555 1_555
H16 C15 1_555 1_555
H17 C15 1_555 1_555
C16 C15 1_555 1_555
H18 C16 1_555 1_555
H19 C16 1_555 1_555
C17 C16 1_555 1_555
H20 C17 1_555 1_555
H21 C17 1_555 1_555
C18 C13 1_555 1_555
H22 C18 1_555 1_555
C19 N2 1_555 1_555
H23 C19 1_555 1_555
H24 C19 1_555 1_555
O1 H25 1_555 1_555
C20 O1 1_555 1_555
H26 C20 1_555 1_555
H27 C20 1_555 1_555
H28 C20 1_555 1_555
C4 C5 1_555 1_555
C6 C11 1_555 1_555
C10 C11 1_555 1_555
C17 C18 1_555 1_555
C18 C19 1_555 1_555

#END
