
#######################################################################
#
#                 Cambridge Crystallographic Data Centre
#                                CCDC 
#
#######################################################################
#
# If this CIF has been generated from an entry in the Cambridge 
# Structural Database, then it will include bibliographic, chemical, 
# crystal, experimental, refinement or atomic coordinate data resulting 
# from the CCDC's data processing and validation procedures.
#
#######################################################################

data_MOJGIC
_chemical_formula_moiety         'C42 H42 N1 1+,Br1 1-,3(C1 H4 O1)'
_chemical_name_systematic        
"(S)-Di-n-butyl-(3,3'-diphenyl-2,2'-dimethylene-1,1'-binaphthyl)ammonium bromide methanol solvate"
_symmetry_cell_setting           triclinic
_symmetry_space_group_name_H-M   'P 1'
_symmetry_Int_Tables_number      1
_space_group_name_Hall           'P 1'
loop_
_symmetry_equiv_pos_site_id
_symmetry_equiv_pos_as_xyz
1 x,y,z
_cell_length_a                   9.4780(5)
_cell_length_b                   10.9451(5)
_cell_length_c                   11.3657(5)
_cell_angle_alpha                64.716(3)
_cell_angle_beta                 71.737(3)
_cell_angle_gamma                68.465(3)
_cell_volume                     974.339
_exptl_crystal_colour            colorless
_exptl_crystal_description       block
_cell_formula_units_Z            1
_exptl_crystal_recrystallization_method MeOH/ether/hexane
loop_
_atom_site_label
_atom_site_type_symbol
_atom_site_fract_x
_atom_site_fract_y
_atom_site_fract_z
Br1 Br 0.93650(12) 0.08653(12) 0.16969(11)
O1 O 0.7274(7) -0.0825(7) 0.4128(8)
C44 C 0.5741(11) -0.0197(10) 0.4013(12)
H49 H 0.5084 -0.0606 0.4848
H50 H 0.5546 -0.0354 0.3298
H51 H 0.5506 0.0814 0.3811
O2 O 0.7805(8) 0.3384(6) 0.2811(6)
C42 C 0.7197(11) 0.2769(10) 0.4156(11)
H45 H 0.7990 0.1955 0.4580
H46 H 0.6308 0.2467 0.4232
H47 H 0.6868 0.3457 0.4593
O3 O 1.1095(9) 0.3212(9) -0.0386(8)
C27 C 1.0982(10) 0.3235(10) -0.1558(9)
H20 H 0.9901 0.3367 -0.1558
H21 H 1.1613 0.2344 -0.1678
H22 H 1.1349 0.4010 -0.2284
N1 N 0.9498(6) 0.6755(5) 0.1195(5)
C1 C 0.7878(6) 0.6930(6) 0.1080(6)
H1 H 0.7636 0.6015 0.1590
H2 H 0.7874 0.7156 0.0140
C2 C 0.9283(7) 0.9082(6) -0.2079(6)
C3 C 0.9551(7) 0.8951(6) -0.3291(6)
H3 H 0.8844 0.9559 -0.3872
C4 C 1.4312(7) 0.6317(6) -0.1049(6)
C5 C 1.0808(8) 0.7970(6) -0.3698(6)
C6 C 1.4913(7) 0.7296(7) -0.2240(6)
H4 H 1.4244 0.7979 -0.2832
C7 C 1.1664(7) 0.7182(6) -0.1601(6)
C8 C 1.6919(7) 0.5356(7) -0.0504(7)
H5 H 1.7612 0.4702 0.0077
C9 C 1.0339(7) 0.8151(6) -0.1211(6)
C10 C 1.1910(7) 0.7067(6) -0.2858(6)
C11 C 1.5335(7) 0.5355(6) -0.0138(6)
C12 C 1.2209(7) 0.5361(6) 0.0539(6)
C13 C 1.4750(8) 0.4435(7) 0.1090(6)
H6 H 1.5434 0.3807 0.1686
C14 C 1.0044(7) 0.8047(6) 0.0233(6)
H7 H 1.1007 0.8000 0.0439
H8 H 0.9253 0.8900 0.0347
C15 C 1.1002(8) 0.7825(7) -0.4940(6)
H9 H 1.0266 0.8405 -0.5499
C16 C 1.6436(8) 0.7272(7) -0.2547(7)
H10 H 1.6817 0.7924 -0.3353
C17 C 1.2728(7) 0.3398(6) 0.2760(6)
C18 C 1.3170(7) 0.6044(7) -0.3280(7)
H11 H 1.3903 0.5431 -0.2724
C19 C 0.7913(7) 1.0190(6) -0.1733(6)
C20 C 1.2088(7) 0.2383(7) 0.2855(7)
H12 H 1.1979 0.2333 0.2075
C21 C 0.9578(7) 0.6590(6) 0.2578(6)
H13 H 1.0675 0.6342 0.2634
H14 H 0.9062 0.7508 0.2696
C22 C 1.2753(7) 0.6249(6) -0.0687(6)
C23 C 1.7450(7) 0.6279(7) -0.1670(7)
H15 H 1.8510 0.6259 -0.1900
C24 C 0.8852(8) 0.5500(7) 0.3707(6)
H16 H 0.7786 0.5681 0.3606
H17 H 0.9444 0.4559 0.3662
C25 C 1.2263(8) 0.6839(8) -0.5321(6)
H18 H 1.2409 0.6770 -0.6159
C26 C 1.3341(8) 0.5930(7) -0.4476(6)
H19 H 1.4187 0.5238 -0.4739
C28 C 1.0526(7) 0.5447(6) 0.0875(6)
H23 H 1.0347 0.4604 0.1646
H24 H 1.0226 0.5440 0.0118
C29 C 0.5043(8) 0.8034(8) 0.1381(9)
H25 H 0.5113 0.8158 0.0451
H26 H 0.4836 0.7114 0.1954
C30 C 1.2892(8) 0.3438(7) 0.3915(6)
H27 H 1.3319 0.4123 0.3867
C31 C 0.5351(10) 1.2227(8) -0.1071(8)
H28 H 0.4469 1.2911 -0.0833
C32 C 0.6782(8) 1.2069(7) -0.0849(7)
H29 H 0.6881 1.2638 -0.0456
C33 C 0.8811(9) 0.5505(8) 0.5038(6)
H30 H 0.8258 0.6455 0.5072
H31 H 0.9880 0.5278 0.5159
C34 C 1.1612(8) 0.1448(7) 0.4090(7)
H32 H 1.1167 0.0769 0.4151
C35 C 0.6491(8) 1.0374(8) -0.1952(7)
H33 H 0.6380 0.9795 -0.2328
C36 C 1.2432(8) 0.2472(8) 0.5151(7)
H34 H 1.2570 0.2491 0.5935
C37 C 1.1787(9) 0.1503(8) 0.5233(8)
H35 H 1.1456 0.0865 0.6074
C38 C 0.3702(9) 0.9206(8) 0.1742(9)
H36 H 0.3256 0.8854 0.2685
H37 H 0.2910 0.9513 0.1215
H38 H 0.4085 1.0002 0.1555
C39 C 0.6589(8) 0.8038(7) 0.1549(7)
H39 H 0.6774 0.8974 0.1025
H40 H 0.6560 0.7834 0.2492
C40 C 0.8006(10) 0.4438(8) 0.6165(7)
H41 H 0.6899 0.4890 0.6356
H42 H 0.8446 0.4093 0.6959
H43 H 0.8159 0.3648 0.5901
C41 C 0.8073(8) 1.1064(6) -0.1209(6)
H44 H 0.9062 1.0976 -0.1095
C43 C 0.5212(9) 1.1399(10) -0.1631(10)
H48 H 0.4239 1.1525 -0.1801
C45 C 1.3234(7) 0.4409(6) 0.1457(6)
loop_
_geom_bond_atom_site_label_1
_geom_bond_atom_site_label_2
_geom_bond_site_symmetry_1
_geom_bond_site_symmetry_2
O1 C44 1_555 1_555
O2 C42 1_555 1_555
O3 C27 1_555 1_555
N1 C1 1_555 1_555
C1 H1 1_555 1_555
H2 C1 1_555 1_555
C2 C3 1_555 1_555
C3 H3 1_555 1_555
C4 C6 1_555 1_555
C5 C3 1_555 1_555
C6 H4 1_555 1_555
C7 C9 1_555 1_555
C8 H5 1_555 1_555
C9 C2 1_555 1_555
C10 C5 1_555 1_555
C11 C4 1_555 1_555
C12 C22 1_555 1_555
C13 C11 1_555 1_555
H6 C13 1_555 1_555
C14 N1 1_555 1_555
H7 C14 1_555 1_555
H8 C14 1_555 1_555
C15 C5 1_555 1_555
H9 C15 1_555 1_555
C16 C6 1_555 1_555
H10 C16 1_555 1_555
C17 C20 1_555 1_555
C18 C10 1_555 1_555
H11 C18 1_555 1_555
C19 C2 1_555 1_555
C20 H12 1_555 1_555
C21 N1 1_555 1_555
H13 C21 1_555 1_555
H14 C21 1_555 1_555
C22 C4 1_555 1_555
C23 C8 1_555 1_555
H15 C23 1_555 1_555
C24 C21 1_555 1_555
H16 C24 1_555 1_555
H17 C24 1_555 1_555
C25 C15 1_555 1_555
H18 C25 1_555 1_555
C26 C18 1_555 1_555
H19 C26 1_555 1_555
C27 H20 1_555 1_555
H21 C27 1_555 1_555
H22 C27 1_555 1_555
C28 N1 1_555 1_555
H23 C28 1_555 1_555
H24 C28 1_555 1_555
C29 H25 1_555 1_555
H26 C29 1_555 1_555
C30 C17 1_555 1_555
H27 C30 1_555 1_555
C31 H28 1_555 1_555
C32 C31 1_555 1_555
H29 C32 1_555 1_555
C33 C24 1_555 1_555
H30 C33 1_555 1_555
H31 C33 1_555 1_555
C34 C20 1_555 1_555
H32 C34 1_555 1_555
C35 C19 1_555 1_555
H33 C35 1_555 1_555
C36 C30 1_555 1_555
H34 C36 1_555 1_555
C37 C34 1_555 1_555
H35 C37 1_555 1_555
C38 C29 1_555 1_555
H36 C38 1_555 1_555
H37 C38 1_555 1_555
H38 C38 1_555 1_555
C39 C1 1_555 1_555
H39 C39 1_555 1_555
H40 C39 1_555 1_555
C40 C33 1_555 1_555
H41 C40 1_555 1_555
H42 C40 1_555 1_555
H43 C40 1_555 1_555
C41 C19 1_555 1_555
H44 C41 1_555 1_555
C42 H45 1_555 1_555
H46 C42 1_555 1_555
H47 C42 1_555 1_555
C43 C31 1_555 1_555
H48 C43 1_555 1_555
C44 H49 1_555 1_555
H50 C44 1_555 1_555
H51 C44 1_555 1_555
C45 C12 1_555 1_555
C7 C10 1_555 1_555
C7 C22 1_555 1_555
C8 C11 1_555 1_555
C9 C14 1_555 1_555
C12 C28 1_555 1_555
C13 C45 1_555 1_555
C16 C23 1_555 1_555
C17 C45 1_555 1_555
C25 C26 1_555 1_555
C29 C39 1_555 1_555
C32 C41 1_555 1_555
C35 C43 1_555 1_555
C36 C37 1_555 1_555

#END
