
#######################################################################
#
#                 Cambridge Crystallographic Data Centre
#                                CCDC 
#
#######################################################################
#
# If this CIF has been generated from an entry in the Cambridge 
# Structural Database, then it will include bibliographic, chemical, 
# crystal, experimental, refinement or atomic coordinate data resulting 
# from the CCDC's data processing and validation procedures.
#
#######################################################################

data_MOJGUO
_chemical_formula_moiety         'C42 H32 F10 N1 1+,Br1 1-,C1 H2 Cl2'
_chemical_name_systematic        
"(S)-Di-n-butyl-(3,3'-bis(perfluorophenyl)-2,2'-dimethylene-1,1'-binaphthyl)ammonium bromide dichloromethane solvate"
_symmetry_cell_setting           monoclinic
_symmetry_space_group_name_H-M   'P 21'
_symmetry_Int_Tables_number      4
_space_group_name_Hall           'P 2yb'
loop_
_symmetry_equiv_pos_site_id
_symmetry_equiv_pos_as_xyz
1 x,y,z
2 -x,1/2+y,-z
_cell_length_a                   8.9891(3)
_cell_length_b                   16.7684(5)
_cell_length_c                   13.4757(4)
_cell_angle_alpha                90
_cell_angle_beta                 106.779(2)
_cell_angle_gamma                90
_cell_volume                     1944.75
_exptl_crystal_colour            colorless
_exptl_crystal_description       block
_cell_formula_units_Z            2
_exptl_crystal_recrystallization_method CH2Cl2/hexane
loop_
_atom_site_label
_atom_site_type_symbol
_atom_site_fract_x
_atom_site_fract_y
_atom_site_fract_z
Br1 Br 0.43811(17) 0.86066(10) 0.74819(12)
Cl1 Cl 0.4097(6) 0.9120(2) 0.4318(3)
Cl2 Cl 0.1289(6) 0.9845(4) 0.4585(5)
C42 C 0.235(3) 0.8943(11) 0.474(2)
H32 H 0.1703 0.8516 0.4321
H33 H 0.2646 0.8776 0.5480
F1 F 0.8397(7) 0.3789(4) 0.8641(5)
F2 F 0.8445(9) 0.9071(4) 0.8732(5)
F3 F 0.7295(11) 0.9991(6) 0.5323(6)
F4 F 0.3494(9) 0.2621(4) 0.7293(5)
F5 F 0.6582(8) 0.2693(4) 0.7435(5)
F6 F 0.2279(7) 0.3626(6) 0.8428(5)
F7 F 0.4075(8) 0.4741(4) 0.9615(5)
F8 F 0.7164(11) 1.0165(5) 0.7272(7)
F9 F 0.8560(12) 0.8658(7) 0.4763(5)
F10 F 0.9949(10) 0.7566(6) 0.6245(6)
N1 N 0.6869(9) 0.6358(5) 0.7782(6)
C1 C 1.0005(11) 0.7704(6) 0.8354(8)
C2 C 0.7300(12) 0.4945(6) 0.9828(7)
C3 C 0.9204(12) 0.6082(7) 1.1132(8)
C4 C 0.9190(14) 0.8256(7) 0.7525(8)
C5 C 0.9208(11) 0.7141(7) 0.8820(8)
C6 C 0.7848(13) 0.5602(7) 0.8270(8)
H1 H 0.7314 0.5118 0.7922
H2 H 0.8876 0.5630 0.8140
C7 C 0.4752(14) 0.4240(7) 0.9099(9)
C8 C 0.5935(14) 0.3212(6) 0.7953(8)
C9 C 0.7458(11) 0.7081(6) 0.8441(8)
H3 H 0.7048 0.7071 0.9048
H4 H 0.7043 0.7565 0.8033
C10 C 0.9311(15) 0.6120(8) 1.3245(10)
H5 H 0.9348 0.6130 1.3957
C11 C 1.2463(13) 0.7198(7) 0.9485(9)
C12 C 0.9986(11) 0.6638(7) 0.9609(8)
C13 C 0.8373(13) 0.5502(7) 1.1538(7)
C14 C 1.1643(11) 0.6642(7) 0.9931(8)
C15 C 1.1617(13) 0.7702(7) 0.8700(8)
H6 H 1.2168 0.8060 0.8388
C16 C 0.8477(17) 0.8954(8) 0.7743(9)
C17 C 1.4098(13) 0.7199(7) 0.9806(9)
H7 H 1.4646 0.7568 0.9507
C18 C 0.5174(11) 0.6231(7) 0.7790(8)
H8 H 0.5180 0.6079 0.8501
H9 H 0.4621 0.6747 0.7630
C19 C 1.2512(12) 0.6094(7) 1.0667(9)
H10 H 1.1985 0.5709 1.0958
C20 C 0.8479(13) 0.5523(7) 1.2601(8)
H11 H 0.7974 0.5123 1.2885
C21 C 1.0046(13) 0.6693(8) 1.1834(9)
H12 H 1.0582 0.7096 1.1580
C22 C 0.9075(12) 0.6066(6) 1.0057(8)
C23 C 0.8078(12) 0.5532(7) 0.9405(8)
C24 C 0.5988(15) 0.7066(7) 0.6016(8)
H13 H 0.6276 0.7605 0.6309
H14 H 0.4885 0.6971 0.5977
C25 C 0.7008(14) 0.6443(7) 0.6719(7)
H15 H 0.6776 0.5918 0.6371
H16 H 0.8105 0.6569 0.6774
C26 C 1.4877(13) 0.6694(7) 1.0516(9)
H17 H 1.5979 0.6718 1.0733
C27 C 0.9277(15) 0.8218(8) 0.6534(10)
C28 C 0.6870(12) 0.3779(6) 0.8596(8)
C29 C 0.6197(17) 0.7018(8) 0.4921(9)
H18 H 0.5811 0.7520 0.4548
H19 H 0.7321 0.6977 0.4987
C30 C 1.4112(13) 0.6109(8) 1.0969(10)
H20 H 1.4694 0.5741 1.1467
C31 C 0.6315(12) 0.4325(6) 0.9168(8)
C32 C 0.4248(15) 0.5607(9) 0.7043(9)
H21 H 0.4198 0.5757 0.6324
H22 H 0.4779 0.5084 0.7194
C33 C 0.8629(18) 0.8765(11) 0.5793(9)
C34 C 1.0082(14) 0.6699(8) 1.2854(9)
H23 H 1.0643 0.7105 1.3299
C35 C 0.7804(17) 0.9537(8) 0.7016(10)
C36 C 0.3794(12) 0.3680(9) 0.8470(9)
C37 C 0.7900(19) 0.9425(9) 0.6052(11)
C38 C 0.4408(14) 0.3187(7) 0.7904(8)
C39 C 0.537(2) 0.6325(7) 0.4283(9)
H24 H 0.6058 0.5860 0.4403
H25 H 0.5074 0.6468 0.3547
H26 H 0.4432 0.6197 0.4485
C40 C 0.161(3) 0.592(3) 0.662(2)
H27 H 0.1535 0.6419 0.6976
H28 H 0.0635 0.5619 0.6502
H29 H 0.1808 0.6028 0.5959
C41 C 0.2628(15) 0.5536(12) 0.7140(14)
H30 H 0.2321 0.4969 0.7020
H31 H 0.2689 0.5654 0.7871
C43 C 0.7474(13) 0.4936(7) 1.0880(8)
H34 H 0.6968 0.4534 1.1159
loop_
_geom_bond_atom_site_label_1
_geom_bond_atom_site_label_2
_geom_bond_site_symmetry_1
_geom_bond_site_symmetry_2
Cl1 C42 1_555 1_555
Cl2 C42 1_555 1_555
F1 C28 1_555 1_555
F2 C16 1_555 1_555
F3 C37 1_555 1_555
F4 C38 1_555 1_555
F5 C8 1_555 1_555
F6 C36 1_555 1_555
F7 C7 1_555 1_555
F8 C35 1_555 1_555
F9 C33 1_555 1_555
F10 C27 1_555 1_555
N1 C6 1_555 1_555
C1 C4 1_555 1_555
C2 C23 1_555 1_555
C3 C13 1_555 1_555
C4 C16 1_555 1_555
C5 C1 1_555 1_555
C6 H1 1_555 1_555
H2 C6 1_555 1_555
C7 C31 1_555 1_555
C8 C28 1_555 1_555
C9 N1 1_555 1_555
H3 C9 1_555 1_555
H4 C9 1_555 1_555
C10 H5 1_555 1_555
C11 C14 1_555 1_555
C12 C5 1_555 1_555
C13 C20 1_555 1_555
C14 C12 1_555 1_555
C15 C1 1_555 1_555
H6 C15 1_555 1_555
C16 C35 1_555 1_555
C17 C11 1_555 1_555
H7 C17 1_555 1_555
C18 N1 1_555 1_555
H8 C18 1_555 1_555
H9 C18 1_555 1_555
C19 C14 1_555 1_555
H10 C19 1_555 1_555
C20 C10 1_555 1_555
H11 C20 1_555 1_555
C21 C3 1_555 1_555
H12 C21 1_555 1_555
C22 C3 1_555 1_555
C23 C6 1_555 1_555
C24 H13 1_555 1_555
H14 C24 1_555 1_555
C25 N1 1_555 1_555
H15 C25 1_555 1_555
H16 C25 1_555 1_555
C26 C17 1_555 1_555
H17 C26 1_555 1_555
C27 C4 1_555 1_555
C28 C31 1_555 1_555
C29 C24 1_555 1_555
H18 C29 1_555 1_555
H19 C29 1_555 1_555
C30 C19 1_555 1_555
H20 C30 1_555 1_555
C31 C2 1_555 1_555
C32 C18 1_555 1_555
H21 C32 1_555 1_555
H22 C32 1_555 1_555
C33 C27 1_555 1_555
C34 C10 1_555 1_555
H23 C34 1_555 1_555
C35 C37 1_555 1_555
C36 C7 1_555 1_555
C37 C33 1_555 1_555
C38 C8 1_555 1_555
C39 C29 1_555 1_555
H24 C39 1_555 1_555
H25 C39 1_555 1_555
H26 C39 1_555 1_555
C40 H27 1_555 1_555
H28 C40 1_555 1_555
H29 C40 1_555 1_555
C41 C32 1_555 1_555
H30 C41 1_555 1_555
H31 C41 1_555 1_555
C42 H32 1_555 1_555
H33 C42 1_555 1_555
C43 C2 1_555 1_555
H34 C43 1_555 1_555
C5 C9 1_555 1_555
C11 C15 1_555 1_555
C12 C22 1_555 1_555
C13 C43 1_555 1_555
C21 C34 1_555 1_555
C22 C23 1_555 1_555
C24 C25 1_555 1_555
C26 C30 1_555 1_555
C36 C38 1_555 1_555
C40 C41 1_555 1_555

#END
