
#######################################################################
#
#                 Cambridge Crystallographic Data Centre
#                                CCDC 
#
#######################################################################
#
# If this CIF has been generated from an entry in the Cambridge 
# Structural Database, then it will include bibliographic, chemical, 
# crystal, experimental, refinement or atomic coordinate data resulting 
# from the CCDC's data processing and validation procedures.
#
#######################################################################

data_MOJKOM
_chemical_formula_moiety         'C26 H25 N1 O2'
_chemical_name_systematic        
1-((S)-2'-Methoxyphenyl((1'S)-1'-phenylethylamino)methyl)-2-naphthol
_symmetry_cell_setting           orthorhombic
_symmetry_space_group_name_H-M   'P 21 21 21'
_symmetry_Int_Tables_number      19
_space_group_name_Hall           'P 2ac 2ab'
loop_
_symmetry_equiv_pos_site_id
_symmetry_equiv_pos_as_xyz
1 x,y,z
2 1/2-x,-y,1/2+z
3 -x,1/2+y,1/2-z
4 1/2+x,1/2-y,-z
_cell_length_a                   9.671(4)
_cell_length_b                   16.177(6)
_cell_length_c                   27.802(11)
_cell_angle_alpha                90
_cell_angle_beta                 90
_cell_angle_gamma                90
_cell_volume                     4349.56
_exptl_crystal_colour            colorless
_chemical_melting_point          156-158deg.C
_cell_formula_units_Z            8
_exptl_crystal_recrystallization_method 'petroleum ether/ether'
loop_
_atom_site_label
_atom_site_type_symbol
_atom_site_fract_x
_atom_site_fract_y
_atom_site_fract_z
O1 O 0.4325(4) 1.1509(2) 0.08104(13)
O2 O 0.2726(3) 0.83934(19) 0.03228(11)
N1 N 0.4008(4) 0.9939(2) 0.09128(12)
C1 C 0.5879(4) 1.0452(2) -0.02420(14)
C2 C 0.5828(4) 0.9732(3) -0.05308(14)
H1 H 0.5275 0.9292 -0.0434
C3 C 0.6581(5) 0.9666(4) -0.09542(16)
H2 H 0.6521 0.9188 -0.1139
C4 C 0.7442(5) 1.0326(4) -0.11053(17)
H3 H 0.7946 1.0280 -0.1389
C5 C 0.7530(5) 1.1017(4) -0.08400(17)
H4 H 0.8108 1.1441 -0.0943
C6 C 0.6771(4) 1.1123(3) -0.04083(16)
C7 C 0.6793(5) 1.1862(3) -0.0147(2)
H5 H 0.7376 1.2285 -0.0247
C8 C 0.5989(6) 1.1986(3) 0.0253(2)
H6 H 0.6008 1.2489 0.0415
C9 C 0.5122(5) 1.1329(3) 0.04133(16)
C10 C 0.5066(4) 1.0567(2) 0.01869(13)
C11 C 0.4180(4) 0.9858(2) 0.03757(13)
H7 H 0.4653 0.9336 0.0307
C12 C 0.2717(4) 0.9818(3) 0.01620(13)
C13 C 0.2035(5) 1.0519(3) -0.00069(14)
H8 H 0.2510 1.1018 -0.0020
C14 C 0.0640(5) 1.0490(3) -0.01583(17)
H9 H 0.0188 1.0966 -0.0262
C15 C -0.0031(5) 0.9742(4) -0.01484(16)
H10 H -0.0943 0.9713 -0.0253
C16 C 0.0609(5) 0.9036(3) 0.00122(15)
H11 H 0.0127 0.8539 0.0024
C17 C 0.2004(5) 0.9070(3) 0.01597(14)
C18 C 0.2005(5) 0.7641(3) 0.04347(19)
H12 H 0.2655 0.7232 0.0542
H13 H 0.1538 0.7444 0.0153
H14 H 0.1340 0.7745 0.0684
C19 C 0.5267(4) 0.9713(3) 0.12006(14)
H15 H 0.6013 1.0089 0.1106
C20 C 0.4919(5) 0.9889(3) 0.17296(14)
H16 H 0.4635 1.0454 0.1763
H17 H 0.5722 0.9791 0.1925
H18 H 0.4184 0.9531 0.1832
C21 C 0.5767(5) 0.8837(3) 0.11125(14)
C22 C 0.7087(5) 0.8678(3) 0.09234(16)
H19 H 0.7657 0.9119 0.0841
C23 C 0.7551(6) 0.7881(4) 0.08584(19)
H20 H 0.8419 0.7795 0.0723
C24 C 0.6765(7) 0.7211(4) 0.0988(2)
H21 H 0.7103 0.6677 0.0952
C25 C 0.5455(6) 0.7349(3) 0.1175(2)
H22 H 0.4896 0.6903 0.1257
C26 C 0.4975(5) 0.8156(3) 0.12408(16)
H23 H 0.4103 0.8238 0.1374
H48 H 0.412(6) 1.0981(15) 0.089(2)
H50 H 0.341(3) 0.9556(18) 0.1014(13)
O3 O -0.1411(3) 0.4106(2) 0.35142(11)
O4 O -0.0911(3) 0.3463(2) 0.16584(11)
N2 N -0.0623(3) 0.3305(2) 0.27564(12)
C27 C 0.1219(4) 0.5330(2) 0.28479(15)
C28 C 0.1875(4) 0.5416(3) 0.23901(16)
H24 H 0.1631 0.5059 0.2142
C29 C 0.2860(5) 0.6016(3) 0.23071(18)
H25 H 0.3291 0.6049 0.2009
C30 C 0.3211(5) 0.6572(3) 0.2667(2)
H26 H 0.3847 0.6988 0.2603
C31 C 0.2635(5) 0.6515(3) 0.3111(2)
H27 H 0.2908 0.6881 0.3351
C32 C 0.1608(4) 0.5896(3) 0.32177(18)
C33 C 0.0972(5) 0.5823(3) 0.36778(18)
H28 H 0.1231 0.6181 0.3924
C34 C -0.0016(5) 0.5235(3) 0.37639(15)
H29 H -0.0432 0.5201 0.4065
C35 C -0.0404(4) 0.4681(3) 0.33964(15)
C36 C 0.0181(4) 0.4716(2) 0.29395(13)
C37 C -0.0273(4) 0.4124(2) 0.25393(13)
H30 H 0.0514 0.4044 0.2322
C38 C -0.1491(4) 0.4462(3) 0.22400(14)
C39 C -0.2298(4) 0.5117(3) 0.23887(15)
H31 H -0.2132 0.5356 0.2687
C40 C -0.3373(5) 0.5434(3) 0.20966(19)
H32 H -0.3915 0.5872 0.2203
C41 C -0.3607(5) 0.5084(4) 0.1650(2)
H33 H -0.4302 0.5292 0.1453
C42 C -0.2812(5) 0.4428(3) 0.14957(16)
H34 H -0.2980 0.4194 0.1196
C43 C -0.1753(4) 0.4107(3) 0.17862(16)
C44 C -0.0902(5) 0.3198(3) 0.11677(15)
H35 H -0.0264 0.2749 0.1131
H36 H -0.0624 0.3650 0.0965
H37 H -0.1812 0.3019 0.1078
C45 C 0.0646(4) 0.2852(2) 0.29255(14)
H38 H 0.1058 0.3185 0.3183
C46 C 0.0205(5) 0.2027(3) 0.31519(15)
H39 H -0.0480 0.2127 0.3395
H40 H 0.0995 0.1764 0.3294
H41 H -0.0176 0.1674 0.2908
C47 C 0.1750(4) 0.2745(2) 0.25389(14)
C48 C 0.2968(5) 0.3189(3) 0.25666(17)
H42 H 0.3128 0.3529 0.2830
C49 C 0.3963(5) 0.3134(3) 0.2202(2)
H43 H 0.4771 0.3444 0.2222
C50 C 0.3745(6) 0.2624(4) 0.18169(19)
H44 H 0.4412 0.2582 0.1577
C51 C 0.2530(6) 0.2170(3) 0.17841(17)
H45 H 0.2379 0.1825 0.1522
C52 C 0.1549(5) 0.2233(3) 0.21427(17)
H46 H 0.0738 0.1927 0.2119
H47 H -0.097(3) 0.2989(15) 0.2522(8)
H49 H -0.137(4) 0.3729(19) 0.3273(10)
loop_
_geom_bond_atom_site_label_1
_geom_bond_atom_site_label_2
_geom_bond_site_symmetry_1
_geom_bond_site_symmetry_2
O1 C9 1_555 1_555
O2 C17 1_555 1_555
N1 C11 1_555 1_555
C1 C2 1_555 1_555
C2 H1 1_555 1_555
C3 C2 1_555 1_555
H2 C3 1_555 1_555
C4 C3 1_555 1_555
H3 C4 1_555 1_555
C5 C4 1_555 1_555
H4 C5 1_555 1_555
C6 C1 1_555 1_555
C7 C6 1_555 1_555
H5 C7 1_555 1_555
C8 C7 1_555 1_555
H6 C8 1_555 1_555
C9 C8 1_555 1_555
C10 C1 1_555 1_555
C11 C10 1_555 1_555
H7 C11 1_555 1_555
C12 C11 1_555 1_555
C13 C12 1_555 1_555
H8 C13 1_555 1_555
C14 C13 1_555 1_555
H9 C14 1_555 1_555
C15 C14 1_555 1_555
H10 C15 1_555 1_555
C16 C15 1_555 1_555
H11 C16 1_555 1_555
C17 C12 1_555 1_555
C18 O2 1_555 1_555
H12 C18 1_555 1_555
H13 C18 1_555 1_555
H14 C18 1_555 1_555
C19 N1 1_555 1_555
H15 C19 1_555 1_555
C20 C19 1_555 1_555
H16 C20 1_555 1_555
H17 C20 1_555 1_555
H18 C20 1_555 1_555
C21 C19 1_555 1_555
C22 C21 1_555 1_555
H19 C22 1_555 1_555
C23 C22 1_555 1_555
H20 C23 1_555 1_555
C24 C23 1_555 1_555
H21 C24 1_555 1_555
C25 C24 1_555 1_555
H22 C25 1_555 1_555
C26 C21 1_555 1_555
H23 C26 1_555 1_555
O3 C35 1_555 1_555
O4 C43 1_555 1_555
N2 C37 1_555 1_555
C27 C28 1_555 1_555
C28 H24 1_555 1_555
C29 C28 1_555 1_555
H25 C29 1_555 1_555
C30 C29 1_555 1_555
H26 C30 1_555 1_555
C31 C30 1_555 1_555
H27 C31 1_555 1_555
C32 C27 1_555 1_555
C33 C32 1_555 1_555
H28 C33 1_555 1_555
C34 C33 1_555 1_555
H29 C34 1_555 1_555
C35 C34 1_555 1_555
C36 C27 1_555 1_555
C37 C36 1_555 1_555
H30 C37 1_555 1_555
C38 C37 1_555 1_555
C39 C38 1_555 1_555
H31 C39 1_555 1_555
C40 C39 1_555 1_555
H32 C40 1_555 1_555
C41 C40 1_555 1_555
H33 C41 1_555 1_555
C42 C41 1_555 1_555
H34 C42 1_555 1_555
C43 C38 1_555 1_555
C44 O4 1_555 1_555
H35 C44 1_555 1_555
H36 C44 1_555 1_555
H37 C44 1_555 1_555
C45 N2 1_555 1_555
H38 C45 1_555 1_555
C46 C45 1_555 1_555
H39 C46 1_555 1_555
H40 C46 1_555 1_555
H41 C46 1_555 1_555
C47 C45 1_555 1_555
C48 C47 1_555 1_555
H42 C48 1_555 1_555
C49 C48 1_555 1_555
H43 C49 1_555 1_555
C50 C49 1_555 1_555
H44 C50 1_555 1_555
C51 C50 1_555 1_555
H45 C51 1_555 1_555
C52 C47 1_555 1_555
H46 C52 1_555 1_555
H47 N2 1_555 1_555
H48 O1 1_555 1_555
H49 O3 1_555 1_555
H50 N1 1_555 1_555
C5 C6 1_555 1_555
C9 C10 1_555 1_555
C16 C17 1_555 1_555
C25 C26 1_555 1_555
C31 C32 1_555 1_555
C35 C36 1_555 1_555
C42 C43 1_555 1_555
C51 C52 1_555 1_555

#END
