
#######################################################################
#
#                 Cambridge Crystallographic Data Centre
#                                CCDC 
#
#######################################################################
#
# If this CIF has been generated from an entry in the Cambridge 
# Structural Database, then it will include bibliographic, chemical, 
# crystal, experimental, refinement or atomic coordinate data resulting 
# from the CCDC's data processing and validation procedures.
#
#######################################################################

data_MOJKUS
_chemical_formula_moiety         'C27 H27 N1 O2'
_chemical_name_systematic        
1-((S)-2'-Ethoxyphenyl((1'S)-1'-phenylethylamino)methyl)-2-naphthol
_symmetry_cell_setting           monoclinic
_symmetry_space_group_name_H-M   'P 21'
_symmetry_Int_Tables_number      4
_space_group_name_Hall           'P 2yb'
loop_
_symmetry_equiv_pos_site_id
_symmetry_equiv_pos_as_xyz
1 x,y,z
2 -x,1/2+y,-z
_cell_length_a                   9.013(2)
_cell_length_b                   14.877(4)
_cell_length_c                   16.963(4)
_cell_angle_alpha                90
_cell_angle_beta                 97.716(5)
_cell_angle_gamma                90
_cell_volume                     2253.91
_exptl_crystal_colour            colorless
_chemical_melting_point          158-159deg.C
_cell_formula_units_Z            4
_exptl_crystal_recrystallization_method 'petroleum ether/ether'
loop_
_atom_site_label
_atom_site_type_symbol
_atom_site_fract_x
_atom_site_fract_y
_atom_site_fract_z
O1 O 0.0666(4) 0.1542(3) -0.1605(2)
O2 O -0.0713(4) 0.1931(3) 0.1501(2)
N1 N 0.0467(5) 0.2548(3) -0.0421(2)
C1 C 0.1241(6) 0.0891(5) -0.1097(3)
C2 C 0.1907(7) 0.0119(5) -0.1419(3)
H1 H 0.1910 0.0071 -0.1966
C3 C 0.2522(6) -0.0530(4) -0.0937(4)
H2 H 0.2948 -0.1020 -0.1162
C4 C 0.2555(6) -0.0508(4) -0.0119(3)
C5 C 0.3203(6) -0.1192(4) 0.0379(4)
H3 H 0.3619 -0.1688 0.0157
C6 C 0.3234(7) -0.1145(5) 0.1164(5)
H4 H 0.3682 -0.1603 0.1485
C7 C 0.2599(7) -0.0412(5) 0.1510(4)
H5 H 0.2631 -0.0387 0.2059
C8 C 0.1925(5) 0.0275(4) 0.1046(3)
H6 H 0.1500 0.0755 0.1286
C9 C 0.1875(5) 0.0255(4) 0.0215(3)
C10 C 0.1209(5) 0.0948(4) -0.0287(3)
C11 C 0.0419(5) 0.1725(3) 0.0079(3)
H7 H 0.0964 0.1852 0.0607
C12 C -0.1196(5) 0.1507(3) 0.0175(3)
C13 C -0.2166(6) 0.1201(4) -0.0462(3)
H8 H -0.1837 0.1156 -0.0957
C14 C -0.3617(7) 0.0957(4) -0.0385(4)
H9 H -0.4255 0.0736 -0.0818
C15 C -0.4093(6) 0.1049(4) 0.0339(4)
H10 H -0.5074 0.0892 0.0393
C16 C -0.3193(6) 0.1359(4) 0.0983(3)
H11 H -0.3539 0.1406 0.1473
C17 C -0.1729(6) 0.1607(4) 0.0895(3)
C18 C -0.1149(7) 0.2017(5) 0.2253(4)
H12 H -0.1415 0.1433 0.2446
H13 H -0.2019 0.2405 0.2227
C19 C 0.0063(7) 0.2394(6) 0.2785(3)
H14 H -0.0233 0.2456 0.3305
H15 H 0.0318 0.2973 0.2593
H16 H 0.0917 0.2004 0.2813
C20 C 0.1911(6) 0.3042(4) -0.0283(3)
H17 H 0.2683 0.2633 -0.0427
C21 C 0.1840(7) 0.3836(4) -0.0858(3)
H18 H 0.2776 0.4153 -0.0782
H19 H 0.1049 0.4235 -0.0758
H20 H 0.1650 0.3620 -0.1395
C22 C 0.2388(6) 0.3322(4) 0.0562(3)
C23 C 0.3644(7) 0.2960(5) 0.0994(4)
H21 H 0.4192 0.2529 0.0760
C24 C 0.4106(8) 0.3221(6) 0.1763(5)
H22 H 0.4956 0.2962 0.2044
C25 C 0.3334(9) 0.3854(5) 0.2120(4)
H23 H 0.3670 0.4041 0.2637
C26 C 0.2055(8) 0.4215(5) 0.1709(4)
H24 H 0.1497 0.4635 0.1949
C27 C 0.1612(7) 0.3946(4) 0.0943(4)
H25 H 0.0750 0.4197 0.0667
H51 H -0.025(3) 0.288(2) -0.0253(19)
H54 H -0.0352 0.1509 -0.1757
O3 O 0.4636(5) 0.6146(3) 0.7121(2)
O4 O 0.5895(5) 0.5909(3) 0.3983(3)
N2 N 0.4673(4) 0.6890(3) 0.5742(2)
C28 C 0.4018(6) 0.5415(4) 0.6707(3)
C29 C 0.3376(6) 0.4766(4) 0.7184(3)
H26 H 0.3415 0.4851 0.7730
C30 C 0.2709(6) 0.4024(4) 0.6830(4)
H27 H 0.2284 0.3605 0.7140
C31 C 0.2642(5) 0.3870(4) 0.6011(3)
C32 C 0.1926(6) 0.3119(4) 0.5654(4)
H28 H 0.1510 0.2701 0.5968
C33 C 0.1817(6) 0.2980(4) 0.4862(4)
H29 H 0.1320 0.2477 0.4632
C34 C 0.2455(6) 0.3596(4) 0.4398(3)
H30 H 0.2400 0.3494 0.3854
C35 C 0.3165(5) 0.4350(4) 0.4717(3)
H31 H 0.3574 0.4756 0.4389
C36 C 0.3280(5) 0.4517(4) 0.5545(3)
C37 C 0.3986(5) 0.5293(4) 0.5901(3)
C38 C 0.4737(5) 0.5964(3) 0.5402(3)
H32 H 0.4189 0.5967 0.4862
C39 C 0.6361(6) 0.5710(3) 0.5350(4)
C40 C 0.7345(7) 0.5489(4) 0.6022(4)
H33 H 0.7012 0.5511 0.6517
C41 C 0.8798(8) 0.5237(6) 0.5977(6)
H34 H 0.9444 0.5103 0.6437
C42 C 0.9277(9) 0.5187(5) 0.5259(7)
H35 H 1.0254 0.5003 0.5229
C43 C 0.8371(8) 0.5399(5) 0.4573(5)
H36 H 0.8728 0.5372 0.4084
C44 C 0.6864(7) 0.5663(4) 0.4623(5)
C45 C 0.6376(9) 0.5955(6) 0.3228(5)
H37 H 0.7268 0.6326 0.3260
H38 H 0.6633 0.5357 0.3064
C46 C 0.5258(9) 0.6319(7) 0.2658(4)
H39 H 0.5619 0.6345 0.2151
H40 H 0.5011 0.6914 0.2817
H41 H 0.4382 0.5946 0.2617
C47 C 0.3173(5) 0.7304(3) 0.5531(3)
H42 H 0.2442 0.6900 0.5724
C48 C 0.3150(6) 0.8184(4) 0.5998(3)
H43 H 0.3440 0.8068 0.6554
H44 H 0.2159 0.8433 0.5918
H45 H 0.3838 0.8603 0.5814
C49 C 0.2720(5) 0.7421(4) 0.4656(3)
C50 C 0.1647(5) 0.6897(4) 0.4243(3)
H46 H 0.1170 0.6467 0.4517
C51 C 0.1243(6) 0.6980(5) 0.3434(4)
H47 H 0.0528 0.6598 0.3166
C52 C 0.1903(8) 0.7628(5) 0.3030(4)
H48 H 0.1609 0.7716 0.2489
C53 C 0.3005(8) 0.8146(4) 0.3435(4)
H49 H 0.3501 0.8567 0.3161
C54 C 0.3382(6) 0.8052(4) 0.4233(4)
H50 H 0.4111 0.8426 0.4499
H52 H 0.537(3) 0.7206(19) 0.5537(17)
H53 H 0.502(5) 0.650(3) 0.677(2)
loop_
_geom_bond_atom_site_label_1
_geom_bond_atom_site_label_2
_geom_bond_site_symmetry_1
_geom_bond_site_symmetry_2
O1 C1 1_555 1_555
O2 C17 1_555 1_555
N1 C11 1_555 1_555
C1 C2 1_555 1_555
C2 H1 1_555 1_555
C3 C2 1_555 1_555
H2 C3 1_555 1_555
C4 C3 1_555 1_555
C5 C4 1_555 1_555
H3 C5 1_555 1_555
C6 C5 1_555 1_555
H4 C6 1_555 1_555
C7 C6 1_555 1_555
H5 C7 1_555 1_555
C8 C7 1_555 1_555
H6 C8 1_555 1_555
C9 C4 1_555 1_555
C10 C1 1_555 1_555
C11 C10 1_555 1_555
H7 C11 1_555 1_555
C12 C11 1_555 1_555
C13 C12 1_555 1_555
H8 C13 1_555 1_555
C14 C13 1_555 1_555
H9 C14 1_555 1_555
C15 C14 1_555 1_555
H10 C15 1_555 1_555
C16 C15 1_555 1_555
H11 C16 1_555 1_555
C17 C12 1_555 1_555
C18 O2 1_555 1_555
H12 C18 1_555 1_555
H13 C18 1_555 1_555
C19 C18 1_555 1_555
H14 C19 1_555 1_555
H15 C19 1_555 1_555
H16 C19 1_555 1_555
C20 N1 1_555 1_555
H17 C20 1_555 1_555
C21 C20 1_555 1_555
H18 C21 1_555 1_555
H19 C21 1_555 1_555
H20 C21 1_555 1_555
C22 C20 1_555 1_555
C23 C22 1_555 1_555
H21 C23 1_555 1_555
C24 C23 1_555 1_555
H22 C24 1_555 1_555
C25 C24 1_555 1_555
H23 C25 1_555 1_555
C26 C25 1_555 1_555
H24 C26 1_555 1_555
C27 C22 1_555 1_555
H25 C27 1_555 1_555
O3 C28 1_555 1_555
O4 C44 1_555 1_555
N2 C38 1_555 1_555
C28 C29 1_555 1_555
C29 H26 1_555 1_555
C30 C29 1_555 1_555
H27 C30 1_555 1_555
C31 C30 1_555 1_555
C32 C31 1_555 1_555
H28 C32 1_555 1_555
C33 C32 1_555 1_555
H29 C33 1_555 1_555
C34 C33 1_555 1_555
H30 C34 1_555 1_555
C35 C34 1_555 1_555
H31 C35 1_555 1_555
C36 C31 1_555 1_555
C37 C28 1_555 1_555
C38 C37 1_555 1_555
H32 C38 1_555 1_555
C39 C38 1_555 1_555
C40 C39 1_555 1_555
H33 C40 1_555 1_555
C41 C40 1_555 1_555
H34 C41 1_555 1_555
C42 C41 1_555 1_555
H35 C42 1_555 1_555
C43 C42 1_555 1_555
H36 C43 1_555 1_555
C44 C39 1_555 1_555
C45 O4 1_555 1_555
H37 C45 1_555 1_555
H38 C45 1_555 1_555
C46 C45 1_555 1_555
H39 C46 1_555 1_555
H40 C46 1_555 1_555
H41 C46 1_555 1_555
C47 N2 1_555 1_555
H42 C47 1_555 1_555
C48 C47 1_555 1_555
H43 C48 1_555 1_555
H44 C48 1_555 1_555
H45 C48 1_555 1_555
C49 C47 1_555 1_555
C50 C49 1_555 1_555
H46 C50 1_555 1_555
C51 C50 1_555 1_555
H47 C51 1_555 1_555
C52 C51 1_555 1_555
H48 C52 1_555 1_555
C53 C52 1_555 1_555
H49 C53 1_555 1_555
C54 C49 1_555 1_555
H50 C54 1_555 1_555
H51 N1 1_555 1_555
H52 N2 1_555 1_555
H53 O3 1_555 1_555
H54 O1 1_555 1_555
C8 C9 1_555 1_555
C9 C10 1_555 1_555
C16 C17 1_555 1_555
C26 C27 1_555 1_555
C35 C36 1_555 1_555
C36 C37 1_555 1_555
C43 C44 1_555 1_555
C53 C54 1_555 1_555

#END
