
#######################################################################
#
#                 Cambridge Crystallographic Data Centre
#                                CCDC 
#
#######################################################################
#
# If this CIF has been generated from an entry in the Cambridge 
# Structural Database, then it will include bibliographic, chemical, 
# crystal, experimental, refinement or atomic coordinate data resulting 
# from the CCDC's data processing and validation procedures.
#
#######################################################################

data_MOJMAB
_chemical_formula_moiety         'C21 H15 N3'
_chemical_name_systematic        4-Methyl-2,6-bis(pyridin-3-ylethynyl)aniline
_symmetry_cell_setting           orthorhombic
_symmetry_space_group_name_H-M   'P c a 21'
_symmetry_Int_Tables_number      29
_space_group_name_Hall           'P 2c -2ac'
loop_
_symmetry_equiv_pos_site_id
_symmetry_equiv_pos_as_xyz
1 x,y,z
2 -x,-y,1/2+z
3 1/2-x,y,1/2+z
4 1/2+x,-y,z
_cell_length_a                   10.178(7)
_cell_length_b                   10.972(7)
_cell_length_c                   28.949(19)
_cell_angle_alpha                90
_cell_angle_beta                 90
_cell_angle_gamma                90
_cell_volume                     3232.82
_exptl_crystal_colour            yellow
_exptl_crystal_description       block
_cell_formula_units_Z            8
loop_
_atom_site_label
_atom_site_type_symbol
_atom_site_fract_x
_atom_site_fract_y
_atom_site_fract_z
N1 N 1.2545(5) 0.1210(4) 0.78487(16)
N2 N 0.7971(3) 0.2103(3) 0.64406(13)
H1 H 0.7606 0.2755 0.6337
H2 H 0.8603 0.2153 0.6637
N3 N 0.3174(4) 0.5605(3) 0.57223(13)
C1 C 1.3010(7) 0.0199(6) 0.8013(2)
H3 H 1.3676 0.0258 0.8232
C2 C 1.2612(6) -0.0942(5) 0.78928(17)
H4 H 1.3016 -0.1629 0.8016
C3 C 1.1568(6) -0.1051(5) 0.75754(16)
H5 H 1.1248 -0.1811 0.7489
C4 C 1.1049(6) -0.0016(3) 0.74016(16)
C5 C 1.1541(6) 0.1080(5) 0.75344(16)
H6 H 1.1179 0.1780 0.7406
C6 C 0.9988(7) -0.0059(4) 0.7045(2)
C7 C 0.9135(6) -0.0070(3) 0.67750(17)
C8 C 0.8108(6) -0.0104(3) 0.64512(16)
C9 C 0.7540(5) 0.0997(4) 0.62859(14)
C10 C 0.6487(4) 0.0889(3) 0.59698(13)
C11 C 0.6033(5) -0.0235(4) 0.58366(17)
H7 H 0.5308 -0.0274 0.5642
C12 C 0.6605(5) -0.1300(4) 0.59790(16)
C13 C 0.6123(5) -0.2532(3) 0.58107(19)
H8 H 0.5356 -0.2422 0.5622
H9 H 0.5907 -0.3035 0.6071
H10 H 0.6800 -0.2919 0.5632
C14 C 0.7620(5) -0.1236(4) 0.62932(16)
H11 H 0.7992 -0.1953 0.6404
C15 C 0.5836(4) 0.1971(4) 0.58118(13)
C16 C 0.5293(4) 0.2872(3) 0.56800(14)
C17 C 0.4621(4) 0.3965(3) 0.55362(15)
C18 C 0.4749(4) 0.4409(4) 0.50878(15)
H12 H 0.5283 0.4017 0.4874
C19 C 0.4062(4) 0.5445(5) 0.49704(16)
H13 H 0.4119 0.5764 0.4674
C20 C 0.3293(4) 0.5999(4) 0.52974(17)
H14 H 0.2828 0.6694 0.5213
C21 C 0.3806(4) 0.4597(4) 0.58289(15)
H15 H 0.3693 0.4289 0.6126
N4 N 0.4998(5) 0.6049(4) 0.69849(16)
N5 N 0.0436(3) 0.2874(3) 0.84348(13)
H16 H 0.1056 0.2836 0.8234
H17 H 0.0079 0.2217 0.8536
N6 N -0.4331(4) -0.0634(3) 0.91480(14)
C22 C 0.5510(6) 0.4987(4) 0.68402(18)
H18 H 0.6207 0.5004 0.6633
C23 C 0.5046(6) 0.3877(5) 0.69869(19)
H19 H 0.5396 0.3162 0.6866
C24 C 0.4087(5) 0.3822(4) 0.73046(16)
H20 H 0.3784 0.3069 0.7406
C25 C 0.3533(6) 0.4913(3) 0.74862(19)
C26 C 0.4073(5) 0.5992(5) 0.72929(17)
H21 H 0.3732 0.6729 0.7397
C27 C 0.2515(6) 0.4944(3) 0.7797(2)
C28 C 0.1645(6) 0.5001(3) 0.8076(2)
C29 C 0.0580(6) 0.5067(3) 0.84162(19)
C30 C 0.0135(5) 0.6182(4) 0.85680(17)
H22 H 0.0530 0.6881 0.8451
C31 C -0.0869(5) 0.6317(4) 0.88848(15)
C32 C -0.1363(5) 0.7527(4) 0.90609(19)
H23 H -0.1194 0.7588 0.9386
H24 H -0.2291 0.7587 0.9006
H25 H -0.0919 0.8176 0.8902
C33 C -0.1416(5) 0.5247(4) 0.90555(16)
H26 H -0.2059 0.5301 0.9283
C34 C -0.1040(5) 0.4097(4) 0.89002(14)
C35 C 0.0019(5) 0.4003(4) 0.85868(15)
C36 C -0.1681(4) 0.3023(3) 0.90613(13)
C37 C -0.2210(4) 0.2109(3) 0.91932(14)
C38 C -0.2865(4) 0.1031(3) 0.93472(15)
C39 C -0.2744(5) 0.0569(4) 0.97856(16)
H27 H -0.2210 0.0959 1.0000
C40 C -0.3410(5) -0.0466(5) 0.99068(17)
H28 H -0.3340 -0.0782 1.0204
C41 C -0.4177(4) -0.1022(4) 0.95856(17)
H29 H -0.4628 -0.1721 0.9675
C42 C -0.3647(5) 0.0370(4) 0.90420(15)
H30 H -0.3699 0.0650 0.8739
loop_
_geom_bond_atom_site_label_1
_geom_bond_atom_site_label_2
_geom_bond_site_symmetry_1
_geom_bond_site_symmetry_2
N1 C1 1_555 1_555
N2 H1 1_555 1_555
H2 N2 1_555 1_555
N3 C20 1_555 1_555
C1 H3 1_555 1_555
C2 C1 1_555 1_555
H4 C2 1_555 1_555
C3 C2 1_555 1_555
H5 C3 1_555 1_555
C4 C3 1_555 1_555
C5 N1 1_555 1_555
H6 C5 1_555 1_555
C6 C4 1_555 1_555
C7 C6 1_555 1_555
C8 C7 1_555 1_555
C9 N2 1_555 1_555
C10 C9 1_555 1_555
C11 C10 1_555 1_555
H7 C11 1_555 1_555
C12 C11 1_555 1_555
C13 C12 1_555 1_555
H8 C13 1_555 1_555
H9 C13 1_555 1_555
H10 C13 1_555 1_555
C14 C8 1_555 1_555
H11 C14 1_555 1_555
C15 C10 1_555 1_555
C16 C15 1_555 1_555
C17 C16 1_555 1_555
C18 C17 1_555 1_555
H12 C18 1_555 1_555
C19 C18 1_555 1_555
H13 C19 1_555 1_555
C20 C19 1_555 1_555
H14 C20 1_555 1_555
C21 N3 1_555 1_555
H15 C21 1_555 1_555
N4 C22 1_555 1_555
N5 H16 1_555 1_555
H17 N5 1_555 1_555
N6 C41 1_555 1_555
C22 H18 1_555 1_555
C23 C22 1_555 1_555
H19 C23 1_555 1_555
C24 C23 1_555 1_555
H20 C24 1_555 1_555
C25 C24 1_555 1_555
C26 N4 1_555 1_555
H21 C26 1_555 1_555
C27 C25 1_555 1_555
C28 C27 1_555 1_555
C29 C28 1_555 1_555
C30 C29 1_555 1_555
H22 C30 1_555 1_555
C31 C30 1_555 1_555
C32 C31 1_555 1_555
H23 C32 1_555 1_555
H24 C32 1_555 1_555
H25 C32 1_555 1_555
C33 C31 1_555 1_555
H26 C33 1_555 1_555
C34 C33 1_555 1_555
C35 N5 1_555 1_555
C36 C34 1_555 1_555
C37 C36 1_555 1_555
C38 C37 1_555 1_555
C39 C38 1_555 1_555
H27 C39 1_555 1_555
C40 C39 1_555 1_555
H28 C40 1_555 1_555
C41 C40 1_555 1_555
H29 C41 1_555 1_555
C42 N6 1_555 1_555
H30 C42 1_555 1_555
C4 C5 1_555 1_555
C8 C9 1_555 1_555
C12 C14 1_555 1_555
C17 C21 1_555 1_555
C25 C26 1_555 1_555
C29 C35 1_555 1_555
C34 C35 1_555 1_555
C38 C42 1_555 1_555

#END
