
#######################################################################
#
#                 Cambridge Crystallographic Data Centre
#                                CCDC 
#
#######################################################################
#
# If this CIF has been generated from an entry in the Cambridge 
# Structural Database, then it will include bibliographic, chemical, 
# crystal, experimental, refinement or atomic coordinate data resulting 
# from the CCDC's data processing and validation procedures.
#
#######################################################################

data_MOJTIO
_chemical_formula_moiety         'H2 O1,C27 H24 F2 N2 O4'
_chemical_name_systematic        
"N,N-Dimethyl (4S,3'S)-2-oxo-3-(9-phenylfluoren-9-yl)-oxazolidine-4-(2',2'-difluoro-3'-hydroxy)propionamide monohydrate"
_symmetry_cell_setting           orthorhombic
_symmetry_space_group_name_H-M   'P 21 21 21'
_symmetry_Int_Tables_number      19
_space_group_name_Hall           'P 2ac 2ab'
loop_
_symmetry_equiv_pos_site_id
_symmetry_equiv_pos_as_xyz
1 x,y,z
2 1/2-x,-y,1/2+z
3 1/2+x,1/2-y,-z
4 -x,1/2+y,1/2-z
_cell_length_a                   8.5056(5)
_cell_length_b                   11.6903(7)
_cell_length_c                   23.913(2)
_cell_angle_alpha                90
_cell_angle_beta                 90
_cell_angle_gamma                90
_cell_volume                     2377.74
_cell_formula_units_Z            4
loop_
_atom_site_label
_atom_site_type_symbol
_atom_site_fract_x
_atom_site_fract_y
_atom_site_fract_z
F1 F -0.1166(1) 0.3849(1) 0.9406(1)
F2 F 0.1277(1) 0.3377(1) 0.9493(1)
O1 O -0.0994(2) 0.7206(1) 0.8706(1)
O2 O -0.1639(2) 0.2272(1) 0.8695(1)
O3 O 0.0933(2) 0.8161(1) 0.8277(1)
O4 O -0.0314(2) 0.4786(1) 0.8286(1)
N1 N 0.0930(2) 0.1985(1) 0.8492(1)
N2 N 0.1459(2) 0.6676(1) 0.8890(1)
C1 C -0.0252(3) 0.2538(2) 0.8743(1)
C2 C 0.0134(2) 0.3602(2) 0.9099(1)
C3 C 0.0536(2) 0.7407(2) 0.8593(1)
C4 C 0.0633(2) 0.4654(2) 0.8765(1)
C5 C 0.0521(2) 0.5739(2) 0.9124(1)
C6 C 0.2608(3) 0.2234(2) 0.8528(1)
C7 C -0.1117(3) 0.6291(2) 0.9112(1)
C8 C 0.0529(3) 0.1059(2) 0.8102(1)
C9 C 0.3200(2) 0.6667(2) 0.8846(1)
C10 C 0.3883(2) 0.5820(2) 0.9268(1)
C11 C 0.3740(2) 0.5835(2) 0.9847(1)
C12 C 0.4451(2) 0.4957(2) 1.0148(1)
C13 C 0.5278(3) 0.4099(2) 0.9879(1)
C14 C 0.5455(2) 0.4097(2) 0.9304(1)
C15 C 0.4754(2) 0.4974(2) 0.9000(1)
C16 C 0.4721(2) 0.5194(2) 0.8394(1)
C17 C 0.5454(2) 0.4614(2) 0.7957(1)
C18 C 0.5205(3) 0.5000(2) 0.7416(1)
C19 C 0.4248(3) 0.5930(2) 0.7311(1)
C20 C 0.3529(2) 0.6526(2) 0.7748(1)
C21 C 0.3790(2) 0.6151(2) 0.8290(1)
C22 C 0.3895(2) 0.7852(2) 0.8964(1)
C23 C 0.3129(2) 0.8656(2) 0.9292(1)
C24 C 0.3855(3) 0.9687(2) 0.9425(1)
C25 C 0.5359(3) 0.9918(2) 0.9243(1)
C26 C 0.6144(3) 0.9114(2) 0.8926(1)
C27 C 0.5421(2) 0.8090(2) 0.8784(1)
H1 H 0.0310(40) 0.4520(30) 0.8006(14)
H2 H 0.1750 0.4552 0.8644
H3 H 0.0848 0.5575 0.9518
H4 H 0.2792 0.2799 0.8824
H5 H 0.2976 0.2540 0.8170
H6 H 0.3183 0.1529 0.8615
H7 H -0.1924 0.5727 0.8997
H8 H -0.1399 0.6596 0.9485
H9 H -0.0616 0.0981 0.8080
H10 H 0.0987 0.0340 0.8236
H11 H 0.0950 0.1237 0.7731
H12 H 0.3175 0.6426 1.0031
H13 H 0.4367 0.4947 1.0544
H14 H 0.5733 0.3500 1.0093
H15 H 0.6040 0.3514 0.9121
H16 H 0.6108 0.3972 0.8027
H17 H 0.5700 0.4618 0.7112
H18 H 0.4077 0.6169 0.6936
H19 H 0.2879 0.7170 0.7676
H20 H 0.2100 0.8501 0.9427
H21 H 0.3308 1.0238 0.9643
H22 H 0.5851 1.0623 0.9335
H23 H 0.7187 0.9262 0.8803
H24 H 0.5969 0.7547 0.8562
O5 O 0.1418(2) 0.3820(2) 0.7469(1)
H25 H 0.2270(50) 0.4210(30) 0.7350(16)
H26 H 0.0730(30) 0.3610(20) 0.7197(11)
loop_
_geom_bond_atom_site_label_1
_geom_bond_atom_site_label_2
_geom_bond_site_symmetry_1
_geom_bond_site_symmetry_2
F1 C2 1_555 1_555
F2 C2 1_555 1_555
O1 C3 1_555 1_555
O2 C1 1_555 1_555
O3 C3 1_555 1_555
O4 C4 1_555 1_555
N1 C1 1_555 1_555
N2 C3 1_555 1_555
C1 C2 1_555 1_555
C2 C4 1_555 1_555
C4 C5 1_555 1_555
C5 N2 1_555 1_555
C6 N1 1_555 1_555
C7 O1 1_555 1_555
C8 N1 1_555 1_555
C9 N2 1_555 1_555
C10 C9 1_555 1_555
C11 C10 1_555 1_555
C12 C11 1_555 1_555
C13 C12 1_555 1_555
C14 C13 1_555 1_555
C15 C10 1_555 1_555
C16 C15 1_555 1_555
C17 C16 1_555 1_555
C18 C17 1_555 1_555
C19 C18 1_555 1_555
C20 C19 1_555 1_555
C21 C9 1_555 1_555
C22 C9 1_555 1_555
C23 C22 1_555 1_555
C24 C23 1_555 1_555
C25 C24 1_555 1_555
C26 C25 1_555 1_555
C27 C22 1_555 1_555
O5 H25 1_555 1_555
H1 O4 1_555 1_555
H2 C4 1_555 1_555
H3 C5 1_555 1_555
H4 C6 1_555 1_555
H5 C6 1_555 1_555
H6 C6 1_555 1_555
H7 C7 1_555 1_555
H8 C7 1_555 1_555
H9 C8 1_555 1_555
H10 C8 1_555 1_555
H11 C8 1_555 1_555
H12 C11 1_555 1_555
H13 C12 1_555 1_555
H14 C13 1_555 1_555
H15 C14 1_555 1_555
H16 C17 1_555 1_555
H17 C18 1_555 1_555
H18 C19 1_555 1_555
H19 C20 1_555 1_555
H20 C23 1_555 1_555
H21 C24 1_555 1_555
H22 C25 1_555 1_555
H23 C26 1_555 1_555
H24 C27 1_555 1_555
H26 O5 1_555 1_555
C5 C7 1_555 1_555
C14 C15 1_555 1_555
C16 C21 1_555 1_555
C20 C21 1_555 1_555
C26 C27 1_555 1_555

#END
