
#######################################################################
#
#                 Cambridge Crystallographic Data Centre
#                                CCDC 
#
#######################################################################
#
# If this CIF has been generated from an entry in the Cambridge 
# Structural Database, then it will include bibliographic, chemical, 
# crystal, experimental, refinement or atomic coordinate data resulting 
# from the CCDC's data processing and validation procedures.
#
#######################################################################

data_MOJTUB
_chemical_compound_source        
'seeds of the mangrove Avicennia marina from Hong Kong'
_chemical_formula_moiety         'C10 H18 N2 O2'
_chemical_name_systematic        
1,3,4-trimethyl-6-isopropyl-2,5-piperazinedione
_symmetry_cell_setting           orthorhombic
_symmetry_space_group_name_H-M   'P 21 21 21'
_symmetry_Int_Tables_number      19
_space_group_name_Hall           'P 2ac 2ab'
loop_
_symmetry_equiv_pos_site_id
_symmetry_equiv_pos_as_xyz
1 x,y,z
2 1/2-x,-y,1/2+z
3 -x,1/2+y,1/2-z
4 1/2+x,1/2-y,-z
_cell_length_a                   8.9479(12)
_cell_length_b                   10.9181(15)
_cell_length_c                   11.1593(15)
_cell_angle_alpha                90
_cell_angle_beta                 90
_cell_angle_gamma                90
_cell_volume                     1090.2
_exptl_crystal_colour            colorless
_exptl_crystal_description       block
_chemical_melting_point          '136.3-138.9 deg.C'
_cell_formula_units_Z            4
_exptl_crystal_recrystallization_method 'ethyl acetate'
loop_
_atom_site_label
_atom_site_type_symbol
_atom_site_fract_x
_atom_site_fract_y
_atom_site_fract_z
C1 C 0.1676(3) 0.5996(2) 0.5672(2)
H1 H 0.1256 0.6629 0.5149
C2 C 0.1111(4) 0.6254(3) 0.6968(3)
H2 H 0.1688 0.5733 0.7513
C3 C 0.1428(5) 0.7587(4) 0.7309(4)
H3 H 0.0913 0.8123 0.6766
H4 H 0.2483 0.7739 0.7262
H5 H 0.1087 0.7736 0.8111
C4 C -0.0497(4) 0.5969(5) 0.7157(5)
H6 H -0.0742 0.6071 0.7989
H7 H -0.0691 0.5138 0.6921
H8 H -0.1097 0.6514 0.6683
C5 C -0.0258(3) 0.4712(3) 0.4610(3)
H9 H -0.0117 0.4398 0.3814
H10 H -0.0713 0.5507 0.4568
H11 H -0.0894 0.4168 0.5053
C6 C 0.1970(3) 0.3773(2) 0.5368(2)
C7 C 0.3537(3) 0.3870(2) 0.5886(3)
H12 H 0.4171 0.3333 0.5399
C8 C 0.3589(4) 0.3368(3) 0.7151(4)
H13 H 0.4600 0.3385 0.7439
H14 H 0.3228 0.2540 0.7154
H15 H 0.2971 0.3862 0.7663
C9 C 0.5805(3) 0.5181(3) 0.5814(4)
H16 H 0.6103 0.6013 0.5670
H17 H 0.6221 0.4661 0.5206
H18 H 0.6162 0.4925 0.6586
C10 C 0.3362(3) 0.6117(2) 0.5629(2)
N1 N 0.1189(2) 0.48080(19) 0.5210(2)
N2 N 0.4169(2) 0.5096(2) 0.5784(3)
O1 O 0.1492(2) 0.27616(17) 0.5092(2)
O2 O 0.3930(3) 0.71284(19) 0.5489(3)
loop_
_geom_bond_atom_site_label_1
_geom_bond_atom_site_label_2
_geom_bond_site_symmetry_1
_geom_bond_site_symmetry_2
C1 H1 1_555 1_555
C2 C1 1_555 1_555
H2 C2 1_555 1_555
C3 C2 1_555 1_555
H3 C3 1_555 1_555
H4 C3 1_555 1_555
H5 C3 1_555 1_555
C4 C2 1_555 1_555
H6 C4 1_555 1_555
H7 C4 1_555 1_555
H8 C4 1_555 1_555
C5 H9 1_555 1_555
H10 C5 1_555 1_555
H11 C5 1_555 1_555
C6 C7 1_555 1_555
C7 H12 1_555 1_555
C8 C7 1_555 1_555
H13 C8 1_555 1_555
H14 C8 1_555 1_555
H15 C8 1_555 1_555
C9 H16 1_555 1_555
H17 C9 1_555 1_555
H18 C9 1_555 1_555
C10 C1 1_555 1_555
N1 C1 1_555 1_555
N2 C7 1_555 1_555
O1 C6 1_555 1_555
O2 C10 1_555 1_555
C5 N1 1_555 1_555
C6 N1 1_555 1_555
C9 N2 1_555 1_555
C10 N2 1_555 1_555

#END
