
#######################################################################
#
#                 Cambridge Crystallographic Data Centre
#                                CCDC 
#
#######################################################################
#
# If this CIF has been generated from an entry in the Cambridge 
# Structural Database, then it will include bibliographic, chemical, 
# crystal, experimental, refinement or atomic coordinate data resulting 
# from the CCDC's data processing and validation procedures.
#
#######################################################################

data_MOKJEC
_chemical_formula_moiety         'C5 H8 O6 S2'
_chemical_name_systematic        
'2,4,8,10-Tetraoxa-3,9-dithiaspiro(5.5)undecane 3,9-dioxide'
_symmetry_cell_setting           orthorhombic
_symmetry_space_group_name_H-M   'P b n 21'
_symmetry_Int_Tables_number      33
_space_group_name_Hall           'P 2c -2ab'
loop_
_symmetry_equiv_pos_site_id
_symmetry_equiv_pos_as_xyz
1 x,y,z
2 -x,-y,1/2+z
3 1/2-x,1/2+y,z
4 1/2+x,1/2-y,1/2+z
_cell_length_a                   6.0489(5)
_cell_length_b                   12.8431(11)
_cell_length_c                   21.5830(18)
_cell_angle_alpha                90
_cell_angle_beta                 90
_cell_angle_gamma                90
_cell_volume                     1676.71
_exptl_crystal_colour            colorless
_exptl_crystal_description       prism
_cell_formula_units_Z            8
loop_
_atom_site_label
_atom_site_type_symbol
_atom_site_fract_x
_atom_site_fract_y
_atom_site_fract_z
C1 C 0.5760(5) 0.8962(2) -0.21898(13)
C2 C 0.3243(5) 0.8908(2) -0.21098(16)
H1 H 0.2803 0.9325 -0.1756
H2 H 0.2525 0.9189 -0.2475
C3 C 0.6435(5) 0.8264(3) -0.27315(14)
H3 H 0.5837 0.8547 -0.3113
H4 H 0.8033 0.8258 -0.2767
C4 C 0.6446(5) 1.0070(2) -0.23563(14)
H5 H 0.8011 1.0084 -0.2453
H6 H 0.5641 1.0296 -0.2721
C5 C 0.6937(6) 0.8619(3) -0.15935(16)
H7 H 0.6417 0.7934 -0.1472
H8 H 0.8516 0.8576 -0.1667
O1 O 0.2555(4) 0.7835(2) -0.20175(13)
O2 O 0.5638(4) 0.72017(16) -0.26492(13)
O3 O 0.1990(5) 0.7482(2) -0.31274(14)
O4 O 0.6503(4) 0.93608(18) -0.10970(10)
O5 O 0.6001(4) 1.07751(17) -0.18509(11)
O6 O 0.9676(4) 1.0477(2) -0.13830(14)
S1 S 0.73630(15) 1.05361(7) -0.12165(4)
S2 S 0.29956(16) 0.70421(6) -0.25830(4)
C6 C 0.0841(5) 0.8707(2) 0.04429(13)
C7 C 0.1496(6) 0.7587(3) 0.06034(15)
H9 H 0.3062 0.7561 0.0699
H10 H 0.0689 0.7363 0.0968
C8 C 0.2024(6) 0.9046(3) -0.01531(15)
H11 H 0.1525 0.9734 -0.0273
H12 H 0.3605 0.9077 -0.0081
C9 C 0.1562(5) 0.9395(3) 0.09843(15)
H13 H 0.0991 0.9107 0.1368
H14 H 0.3163 0.9397 0.1010
C10 C -0.1658(5) 0.8766(2) 0.03668(16)
H15 H -0.2105 0.8358 0.0010
H16 H -0.2372 0.8477 0.0731
O7 O 0.1022(4) 0.68874(18) 0.00930(12)
O8 O 0.1555(4) 0.83071(19) -0.06494(10)
O9 O 0.4707(4) 0.7194(2) -0.03627(15)
O10 O 0.0777(4) 1.04518(17) 0.09141(13)
O11 O -0.2349(4) 0.9845(2) 0.02836(13)
O12 O -0.2837(5) 1.0115(2) 0.13974(14)
S3 S 0.24084(16) 0.71310(7) -0.05390(5)
S4 S -0.18731(16) 1.06085(7) 0.08585(5)
loop_
_geom_bond_atom_site_label_1
_geom_bond_atom_site_label_2
_geom_bond_site_symmetry_1
_geom_bond_site_symmetry_2
C1 C2 1_555 1_555
C2 H1 1_555 1_555
H2 C2 1_555 1_555
C3 C1 1_555 1_555
H3 C3 1_555 1_555
H4 C3 1_555 1_555
C4 C1 1_555 1_555
H5 C4 1_555 1_555
H6 C4 1_555 1_555
C5 C1 1_555 1_555
H7 C5 1_555 1_555
H8 C5 1_555 1_555
C6 C7 1_555 1_555
C7 H9 1_555 1_555
H10 C7 1_555 1_555
C8 C6 1_555 1_555
H11 C8 1_555 1_555
H12 C8 1_555 1_555
C9 C6 1_555 1_555
H13 C9 1_555 1_555
H14 C9 1_555 1_555
C10 C6 1_555 1_555
H15 C10 1_555 1_555
H16 C10 1_555 1_555
O1 C2 1_555 1_555
O2 C3 1_555 1_555
O3 S2 1_555 1_555
O4 C5 1_555 1_555
O5 C4 1_555 1_555
O6 S1 1_555 1_555
O7 C7 1_555 1_555
O8 C8 1_555 1_555
O9 S3 1_555 1_555
O10 C9 1_555 1_555
O11 C10 1_555 1_555
O12 S4 1_555 1_555
S1 O4 1_555 1_555
S2 O1 1_555 1_555
S3 O7 1_555 1_555
S4 O10 1_555 1_555
O2 S2 1_555 1_555
O5 S1 1_555 1_555
O8 S3 1_555 1_555
O11 S4 1_555 1_555

#END
