
#######################################################################
#
#                 Cambridge Crystallographic Data Centre
#                                CCDC 
#
#######################################################################
#
# If this CIF has been generated from an entry in the Cambridge 
# Structural Database, then it will include bibliographic, chemical, 
# crystal, experimental, refinement or atomic coordinate data resulting 
# from the CCDC's data processing and validation procedures.
#
#######################################################################

data_MOKLUU
_chemical_formula_moiety         'C34 H30 F2 N6 O4'
_chemical_name_systematic        
2,2'-bis(4-fluoroanilino)-3,3'-(3,6-dioxaoctane-1,8-diyl)di(quinazolin-4(3H)-one)
_symmetry_cell_setting           monoclinic
_symmetry_space_group_name_H-M   'C 2/c'
_symmetry_Int_Tables_number      15
_space_group_name_Hall           '-C 2yn'
loop_
_symmetry_equiv_pos_site_id
_symmetry_equiv_pos_as_xyz
1 x,y,z
2 1/2+x,1/2+y,z
3 -x,y,1/2-z
4 1/2-x,1/2+y,1/2-z
5 -x,-y,-z
6 1/2-x,1/2-y,-z
7 x,-y,1/2+z
8 1/2+x,1/2-y,1/2+z
_cell_length_a                   13.923(3)
_cell_length_b                   12.509(3)
_cell_length_c                   18.726(4)
_cell_angle_alpha                90
_cell_angle_beta                 97.08(3)
_cell_angle_gamma                90
_cell_volume                     3236.5
_exptl_crystal_colour            colorless
_exptl_crystal_description       block
_chemical_melting_point          '415 K'
_cell_formula_units_Z            4
_exptl_crystal_recrystallization_method methanol/dichloromethane
loop_
_atom_site_label
_atom_site_type_symbol
_atom_site_fract_x
_atom_site_fract_y
_atom_site_fract_z
C1 C 0.24654(14) 0.79492(18) 0.12370(9)
C2 C 0.24527(18) 0.85820(18) 0.18204(11)
H1 H 0.2639 0.9295 0.1808
C3 C 0.21577(17) 0.81506(16) 0.24356(10)
H2 H 0.2140 0.8575 0.2841
C4 C 0.18901(12) 0.70941(14) 0.24493(8)
C5 C 0.19174(14) 0.64790(16) 0.18485(9)
H3 H 0.1740 0.5763 0.1858
C6 C 0.22039(15) 0.69037(18) 0.12292(9)
H4 H 0.2218 0.6487 0.0819
C7 C 0.21556(14) 0.65123(13) 0.36984(9)
C8 C 0.36454(15) 0.65449(13) 0.43630(9)
C9 C 0.46390(16) 0.67547(17) 0.44028(11)
H5 H 0.4893 0.7023 0.4003
C10 C 0.52371(19) 0.65675(19) 0.50253(12)
H6 H 0.5895 0.6713 0.5044
C11 C 0.4878(2) 0.61653(19) 0.56277(12)
H7 H 0.5292 0.6041 0.6048
C12 C 0.3909(2) 0.59501(16) 0.56025(10)
H8 H 0.3666 0.5682 0.6007
C13 C 0.32810(15) 0.61330(13) 0.49687(9)
C14 C 0.22605(15) 0.58965(14) 0.49317(9)
C15 C 0.06541(15) 0.60240(16) 0.42379(11)
H9 H 0.0350 0.6577 0.3924
H10 H 0.0468 0.6141 0.4714
C16 C 0.02768(14) 0.49650(16) 0.39706(11)
H11 H 0.0650 0.4397 0.4225
H12 H -0.0393 0.4887 0.4055
C17 C -0.00666(15) 0.39575(15) 0.28882(13)
H13 H -0.0751 0.3931 0.2939
H14 H 0.0241 0.3331 0.3121
F1 F 0.27593(11) 0.83760(13) 0.06324(6)
N1 N 0.15482(12) 0.66559(12) 0.30729(7)
H15 H 0.0949 0.6478 0.3056
N2 N 0.17129(11) 0.61347(11) 0.42748(7)
N3 N 0.30664(12) 0.67140(12) 0.37194(7)
O1 O 0.18667(12) 0.55312(13) 0.54259(7)
O2 O 0.03497(9) 0.48969(9) 0.32193(7)
C1B C -0.24654(14) 0.79492(18) 0.37630(9)
C2B C -0.24527(18) 0.85820(18) 0.31796(11)
H1B H -0.2639 0.9295 0.3192
C3B C -0.21577(17) 0.81506(16) 0.25644(10)
H2B H -0.2140 0.8575 0.2159
C4B C -0.18901(12) 0.70941(14) 0.25507(8)
C5B C -0.19174(14) 0.64790(16) 0.31515(9)
H3B H -0.1740 0.5763 0.3142
C6B C -0.22039(15) 0.69037(18) 0.37708(9)
H4B H -0.2218 0.6487 0.4181
C7B C -0.21556(14) 0.65123(13) 0.13016(9)
C8B C -0.36454(15) 0.65449(13) 0.06370(9)
C9B C -0.46390(16) 0.67547(17) 0.05972(11)
H5B H -0.4893 0.7023 0.0997
C10B C -0.52371(19) 0.65675(19) -0.00253(12)
H6B H -0.5895 0.6713 -0.0044
C11B C -0.4878(2) 0.61653(19) -0.06277(12)
H7B H -0.5292 0.6041 -0.1048
C12B C -0.3909(2) 0.59501(16) -0.06025(10)
H8B H -0.3666 0.5682 -0.1007
C13B C -0.32810(15) 0.61330(13) 0.00313(9)
C14B C -0.22605(15) 0.58965(14) 0.00683(9)
C15B C -0.06541(15) 0.60240(16) 0.07621(11)
H9B H -0.0350 0.6577 0.1076
H10B H -0.0468 0.6141 0.0286
C16B C -0.02768(14) 0.49650(16) 0.10294(11)
H11B H -0.0650 0.4397 0.0775
H12B H 0.0393 0.4887 0.0945
C17B C 0.00666(15) 0.39575(15) 0.21118(13)
H13B H 0.0751 0.3931 0.2061
H14B H -0.0241 0.3331 0.1879
F1B F -0.27593(11) 0.83760(13) 0.43676(6)
N1B N -0.15482(12) 0.66559(12) 0.19271(7)
H15B H -0.0949 0.6478 0.1944
N2B N -0.17129(11) 0.61347(11) 0.07252(7)
N3B N -0.30664(12) 0.67140(12) 0.12806(7)
O1B O -0.18667(12) 0.55312(13) -0.04259(7)
O2B O -0.03497(9) 0.48969(9) 0.17807(7)
loop_
_geom_bond_atom_site_label_1
_geom_bond_atom_site_label_2
_geom_bond_site_symmetry_1
_geom_bond_site_symmetry_2
C1 C2 1_555 1_555
C2 H1 1_555 1_555
C3 C2 1_555 1_555
H2 C3 1_555 1_555
C4 C3 1_555 1_555
C5 C4 1_555 1_555
H3 C5 1_555 1_555
C6 C1 1_555 1_555
H4 C6 1_555 1_555
C7 N1 1_555 1_555
C8 C9 1_555 1_555
C9 H5 1_555 1_555
C10 C9 1_555 1_555
H6 C10 1_555 1_555
C11 C10 1_555 1_555
H7 C11 1_555 1_555
C12 C11 1_555 1_555
H8 C12 1_555 1_555
C13 C8 1_555 1_555
C14 C13 1_555 1_555
C15 H9 1_555 1_555
H10 C15 1_555 1_555
C16 C15 1_555 1_555
H11 C16 1_555 1_555
H12 C16 1_555 1_555
C17 H13 1_555 1_555
H14 C17 1_555 1_555
F1 C1 1_555 1_555
N1 C4 1_555 1_555
H15 N1 1_555 1_555
N2 C7 1_555 1_555
N3 C7 1_555 1_555
O1 C14 1_555 1_555
O2 C16 1_555 1_555
C1B C2B 1_555 1_555
C2B H1B 1_555 1_555
C3B C2B 1_555 1_555
H2B C3B 1_555 1_555
C4B C3B 1_555 1_555
C5B C4B 1_555 1_555
H3B C5B 1_555 1_555
C6B C1B 1_555 1_555
H4B C6B 1_555 1_555
C7B N1B 1_555 1_555
C8B C9B 1_555 1_555
C9B H5B 1_555 1_555
C10B C9B 1_555 1_555
H6B C10B 1_555 1_555
C11B C10B 1_555 1_555
H7B C11B 1_555 1_555
C12B C11B 1_555 1_555
H8B C12B 1_555 1_555
C13B C8B 1_555 1_555
C14B C13B 1_555 1_555
C15B H9B 1_555 1_555
H10B C15B 1_555 1_555
C16B C15B 1_555 1_555
H11B C16B 1_555 1_555
H12B C16B 1_555 1_555
C17B C17 1_555 1_555
H13B C17B 1_555 1_555
H14B C17B 1_555 1_555
F1B C1B 1_555 1_555
N1B C4B 1_555 1_555
H15B N1B 1_555 1_555
N2B C7B 1_555 1_555
N3B C7B 1_555 1_555
O1B C14B 1_555 1_555
O2B C16B 1_555 1_555
C5 C6 1_555 1_555
C8 N3 1_555 1_555
C12 C13 1_555 1_555
C14 N2 1_555 1_555
C15 N2 1_555 1_555
C17 O2 1_555 1_555
C5B C6B 1_555 1_555
C8B N3B 1_555 1_555
C12B C13B 1_555 1_555
C14B N2B 1_555 1_555
C15B N2B 1_555 1_555
C17B O2B 1_555 1_555

#END
