
#######################################################################
#
#                 Cambridge Crystallographic Data Centre
#                                CCDC 
#
#######################################################################
#
# If this CIF has been generated from an entry in the Cambridge 
# Structural Database, then it will include bibliographic, chemical, 
# crystal, experimental, refinement or atomic coordinate data resulting 
# from the CCDC's data processing and validation procedures.
#
#######################################################################

data_MOKLIJ
_chemical_formula_moiety         'C33 H28 F3 N1 O2'
_chemical_name_systematic        
(Z)-4-(7-(Diphenylamino)-9,9-diethyl-9H-fluoren-2-yl)-1,1,1-trifluoro-4-hydroxybut-3-en-2-one
_symmetry_cell_setting           monoclinic
_symmetry_space_group_name_H-M   'P 21/c'
_symmetry_Int_Tables_number      14
_space_group_name_Hall           '-P 2ybc'
loop_
_symmetry_equiv_pos_site_id
_symmetry_equiv_pos_as_xyz
1 x,y,z
2 -x,1/2+y,1/2-z
3 -x,-y,-z
4 x,1/2-y,1/2+z
_cell_length_a                   16.290(5)
_cell_length_b                   17.033(6)
_cell_length_c                   10.392(4)
_cell_angle_alpha                90
_cell_angle_beta                 101.334(5)
_cell_angle_gamma                90
_cell_volume                     2827.21
_exptl_crystal_colour            white
_exptl_crystal_description       prism
_cell_formula_units_Z            4
loop_
_atom_site_label
_atom_site_type_symbol
_atom_site_fract_x
_atom_site_fract_y
_atom_site_fract_z
F1 F 0.630(2) 0.255(2) -0.2518(19)
F2 F 0.597(2) 0.183(2) -0.129(5)
F3 F 0.662(3) 0.209(3) -0.027(2)
O1 O 0.5617(5) 0.3742(6) -0.1584(10)
O2 O 0.4498(5) 0.4162(4) -0.0388(9)
N1 N 0.0914(3) 0.3969(3) 0.6514(5)
C1 C 0.2638(5) 0.4530(4) 0.3115(7)
C2 C 0.3082(4) 0.3904(4) 0.2461(7)
C3 C 0.3611(4) 0.4018(4) 0.1573(7)
H1 H 0.3725 0.4532 0.1299
C4 C 0.3971(4) 0.3361(5) 0.1092(7)
C5 C 0.3786(4) 0.2607(4) 0.1493(6)
H2 H 0.4033 0.2163 0.1167
C6 C 0.3245(4) 0.2498(4) 0.2359(6)
H3 H 0.3121 0.1984 0.2619
C7 C 0.2888(4) 0.3150(4) 0.2840(6)
C8 C 0.2305(3) 0.3224(4) 0.3736(6)
C9 C 0.1897(4) 0.2677(4) 0.4374(6)
H4 H 0.1951 0.2133 0.4205
C10 C 0.1417(4) 0.2916(4) 0.5250(6)
H5 H 0.1140 0.2536 0.5679
C11 C 0.1331(4) 0.3724(4) 0.5519(6)
C12 C 0.1694(4) 0.4273(4) 0.4829(6)
H6 H 0.1610 0.4818 0.4954
C13 C 0.2183(4) 0.4023(4) 0.3947(6)
C14 C 0.3267(6) 0.5100(5) 0.3960(9)
H7 H 0.3591 0.5372 0.3383
H8 H 0.2948 0.5503 0.4343
C15 C 0.3873(6) 0.4701(6) 0.5063(10)
H9 H 0.4249 0.5095 0.5552
H10 H 0.4202 0.4310 0.4694
H11 H 0.3559 0.4442 0.5656
C16 C 0.2008(5) 0.5001(4) 0.2078(8)
H12 H 0.1701 0.5372 0.2545
H13 H 0.2328 0.5315 0.1545
C17 C 0.1369(5) 0.4503(5) 0.1152(7)
H14 H 0.1001 0.4846 0.0536
H15 H 0.1034 0.4200 0.1664
H16 H 0.1663 0.4142 0.0662
C18 C 0.1212(5) 0.4645(4) 0.7262(6)
C19 C 0.2055(5) 0.4736(4) 0.7776(7)
H17 H 0.2434 0.4335 0.7641
C20 C 0.2359(6) 0.5395(5) 0.8481(8)
H18 H 0.2942 0.5449 0.8819
C21 C 0.1816(7) 0.5969(5) 0.8690(8)
H19 H 0.2024 0.6425 0.9174
C22 C 0.0981(7) 0.5896(4) 0.8210(8)
H20 H 0.0608 0.6296 0.8375
C23 C 0.0665(5) 0.5233(4) 0.7472(7)
H21 H 0.0083 0.5187 0.7121
C24 C 0.0123(4) 0.3638(4) 0.6623(7)
C25 C -0.0480(5) 0.3479(4) 0.5533(7)
H22 H -0.0375 0.3576 0.4680
C26 C -0.1237(5) 0.3178(5) 0.5687(10)
H23 H -0.1652 0.3063 0.4932
C27 C -0.1405(6) 0.3041(4) 0.6899(13)
H24 H -0.1935 0.2840 0.6988
C28 C -0.0812(7) 0.3195(5) 0.7978(10)
H25 H -0.0925 0.3098 0.8826
C29 C -0.0041(5) 0.3492(4) 0.7850(7)
H26 H 0.0375 0.3595 0.8609
C30 C 0.4534(5) 0.3467(5) 0.0181(9)
C31 C 0.5067(4) 0.2925(5) -0.0187(7)
H27 H 0.5062 0.2404 0.0139
C32 C 0.5604(5) 0.3103(6) -0.1003(9)
C33 C 0.6220(9) 0.2527(12) -0.1318(15)
F4? F 0.681(3) 0.277(3) -0.176(10)
F5? F 0.583(3) 0.193(4) -0.204(7)
F6? F 0.693(2) 0.270(4) -0.073(7)
loop_
_geom_bond_atom_site_label_1
_geom_bond_atom_site_label_2
_geom_bond_site_symmetry_1
_geom_bond_site_symmetry_2
F1 C33 1_555 1_555
F2 C33 1_555 1_555
F3 C33 1_555 1_555
O1 C32 1_555 1_555
O2 C30 1_555 1_555
N1 C11 1_555 1_555
C1 C2 1_555 1_555
C2 C3 1_555 1_555
C3 H1 1_555 1_555
C4 C3 1_555 1_555
C5 C4 1_555 1_555
H2 C5 1_555 1_555
C6 C5 1_555 1_555
H3 C6 1_555 1_555
C7 C2 1_555 1_555
C8 C7 1_555 1_555
C9 C8 1_555 1_555
H4 C9 1_555 1_555
C10 C9 1_555 1_555
H5 C10 1_555 1_555
C11 C10 1_555 1_555
C12 C11 1_555 1_555
H6 C12 1_555 1_555
C13 C1 1_555 1_555
C14 C1 1_555 1_555
H7 C14 1_555 1_555
H8 C14 1_555 1_555
C15 C14 1_555 1_555
H9 C15 1_555 1_555
H10 C15 1_555 1_555
H11 C15 1_555 1_555
C16 C1 1_555 1_555
H12 C16 1_555 1_555
H13 C16 1_555 1_555
C17 C16 1_555 1_555
H14 C17 1_555 1_555
H15 C17 1_555 1_555
H16 C17 1_555 1_555
C18 N1 1_555 1_555
C19 C18 1_555 1_555
H17 C19 1_555 1_555
C20 C19 1_555 1_555
H18 C20 1_555 1_555
C21 C20 1_555 1_555
H19 C21 1_555 1_555
C22 C21 1_555 1_555
H20 C22 1_555 1_555
C23 C18 1_555 1_555
H21 C23 1_555 1_555
C24 N1 1_555 1_555
C25 C24 1_555 1_555
H22 C25 1_555 1_555
C26 C25 1_555 1_555
H23 C26 1_555 1_555
C27 C26 1_555 1_555
H24 C27 1_555 1_555
C28 C27 1_555 1_555
H25 C28 1_555 1_555
C29 C24 1_555 1_555
H26 C29 1_555 1_555
C30 C4 1_555 1_555
C31 C30 1_555 1_555
H27 C31 1_555 1_555
C32 C31 1_555 1_555
C33 C32 1_555 1_555
C6 C7 1_555 1_555
C8 C13 1_555 1_555
C12 C13 1_555 1_555
C22 C23 1_555 1_555
C28 C29 1_555 1_555

#END
