
#######################################################################
#
#                 Cambridge Crystallographic Data Centre
#                                CCDC 
#
#######################################################################
#
# If this CIF has been generated from an entry in the Cambridge 
# Structural Database, then it will include bibliographic, chemical, 
# crystal, experimental, refinement or atomic coordinate data resulting 
# from the CCDC's data processing and validation procedures.
#
#######################################################################

data_MOKMEF
_chemical_formula_moiety         'C15 H15 N3 O2 S1'
_chemical_name_systematic        
5-(1H-Imidazol-1-ylsulfonyl)-N,N-dimethylnaphthalen-1-amine
_symmetry_cell_setting           orthorhombic
_symmetry_space_group_name_H-M   'P b c a'
_symmetry_Int_Tables_number      61
_space_group_name_Hall           '-P 2ac 2ab'
loop_
_symmetry_equiv_pos_site_id
_symmetry_equiv_pos_as_xyz
1 x,y,z
2 1/2-x,-y,1/2+z
3 -x,1/2+y,1/2-z
4 1/2+x,1/2-y,-z
5 -x,-y,-z
6 1/2+x,y,1/2-z
7 x,1/2-y,1/2+z
8 1/2-x,1/2+y,z
_cell_length_a                   16.3707(16)
_cell_length_b                   7.7928(7)
_cell_length_c                   22.088(2)
_cell_angle_alpha                90
_cell_angle_beta                 90
_cell_angle_gamma                90
_cell_volume                     2817.85
_exptl_crystal_colour            red
_exptl_crystal_description       block
_cell_formula_units_Z            8
_exptl_crystal_recrystallization_method 'ethyl acetate'
loop_
_atom_site_label
_atom_site_type_symbol
_atom_site_fract_x
_atom_site_fract_y
_atom_site_fract_z
C1 C 0.11008(13) -0.0608(3) 0.10523(10)
H1 H 0.1612 -0.1147 0.0922
H2 H 0.0721 -0.0558 0.0710
H3 H 0.0858 -0.1285 0.1380
C2 C 0.18098(13) 0.2027(3) 0.08508(9)
H4 H 0.1877 0.3221 0.0981
H5 H 0.1574 0.2002 0.0443
H6 H 0.2343 0.1457 0.0846
C3 C 0.14436(11) 0.1301(3) 0.18942(8)
C4 C 0.21791(12) 0.1896(3) 0.21123(9)
H7 H 0.2602 0.2184 0.1836
C5 C 0.23134(11) 0.2084(3) 0.27371(9)
H8 H 0.2825 0.2507 0.2874
C6 C 0.17273(11) 0.1673(3) 0.31536(9)
H9 H 0.1840 0.1773 0.3574
C7 C 0.09481(11) 0.1098(2) 0.29548(9)
C8 C 0.02739(11) 0.0735(2) 0.33507(9)
C9 C -0.04868(11) 0.0311(3) 0.31351(9)
H10 H -0.0917 0.0063 0.3410
C10 C -0.06277(11) 0.0244(3) 0.25099(9)
H11 H -0.1159 -0.0007 0.2360
C11 C -0.00036(11) 0.0539(2) 0.21174(9)
H12 H -0.0107 0.0476 0.1695
C12 C 0.08007(11) 0.0938(2) 0.23193(9)
C13 C 0.06482(12) -0.2592(3) 0.42799(9)
H13 H 0.0112 -0.2976 0.4187
C14 C 0.13037(12) -0.3564(3) 0.44095(9)
H14 H 0.1302 -0.4783 0.4420
C15 C 0.17381(12) -0.0973(3) 0.44626(9)
H15 H 0.2077 0.0005 0.4514
N1 N 0.12680(9) 0.1138(2) 0.12696(7)
N2 N 0.09210(9) -0.0906(2) 0.43108(7)
N3 N 0.19833(10) -0.2548(2) 0.45265(8)
O1 O -0.04379(8) 0.04896(19) 0.43910(6)
O2 O 0.08176(8) 0.22535(18) 0.43451(6)
S1 S 0.03535(3) 0.08123(6) 0.41480(2)
loop_
_geom_bond_atom_site_label_1
_geom_bond_atom_site_label_2
_geom_bond_site_symmetry_1
_geom_bond_site_symmetry_2
C1 H1 1_555 1_555
H2 C1 1_555 1_555
H3 C1 1_555 1_555
C2 H4 1_555 1_555
H5 C2 1_555 1_555
H6 C2 1_555 1_555
C3 C4 1_555 1_555
C4 H7 1_555 1_555
C5 C4 1_555 1_555
H8 C5 1_555 1_555
C6 C5 1_555 1_555
H9 C6 1_555 1_555
C7 C6 1_555 1_555
C8 C7 1_555 1_555
C9 C8 1_555 1_555
H10 C9 1_555 1_555
C10 C9 1_555 1_555
H11 C10 1_555 1_555
C11 C10 1_555 1_555
H12 C11 1_555 1_555
C12 C3 1_555 1_555
C13 H13 1_555 1_555
C14 C13 1_555 1_555
H14 C14 1_555 1_555
C15 H15 1_555 1_555
N1 C1 1_555 1_555
N2 C13 1_555 1_555
N3 C14 1_555 1_555
O1 S1 1_555 1_555
O2 S1 1_555 1_555
S1 C8 1_555 1_555
C2 N1 1_555 1_555
C3 N1 1_555 1_555
C7 C12 1_555 1_555
C11 C12 1_555 1_555
C15 N2 1_555 1_555
C15 N3 1_555 1_555
N2 S1 1_555 1_555

#END
