
#######################################################################
#
#                 Cambridge Crystallographic Data Centre
#                                CCDC 
#
#######################################################################
#
# If this CIF has been generated from an entry in the Cambridge 
# Structural Database, then it will include bibliographic, chemical, 
# crystal, experimental, refinement or atomic coordinate data resulting 
# from the CCDC's data processing and validation procedures.
#
#######################################################################

data_MOKNUV
_chemical_formula_moiety         'C35 H27 Cl1 O2'
_chemical_name_systematic        
7-Chloro-5'',5''-dimethyl-2-phenyldispiro[cyclobut[a]indene-1,9'-phenanthrene-10',2''-[1,3]dioxane]
_symmetry_cell_setting           monoclinic
_symmetry_space_group_name_H-M   'C 2/c'
_symmetry_Int_Tables_number      15
_space_group_name_Hall           '-C 2yn'
loop_
_symmetry_equiv_pos_site_id
_symmetry_equiv_pos_as_xyz
1 x,y,z
2 -x,y,1/2-z
3 1/2+x,1/2+y,z
4 1/2-x,1/2+y,1/2-z
5 -x,-y,-z
6 x,-y,1/2+z
7 1/2-x,1/2-y,-z
8 1/2+x,1/2-y,1/2+z
_cell_length_a                   23.730(2)
_cell_length_b                   12.119(1)
_cell_length_c                   18.817(2)
_cell_angle_alpha                90
_cell_angle_beta                 104.112(6)
_cell_angle_gamma                90
_cell_volume                     5248.15
_exptl_crystal_colour            orange
_chemical_melting_point          185-187deg.C
_cell_formula_units_Z            8
loop_
_atom_site_label
_atom_site_type_symbol
_atom_site_fract_x
_atom_site_fract_y
_atom_site_fract_z
Cl1 Cl 0.3104(1) 0.0917(1) 0.3723(1)
O1 O 0.4594(1) -0.2458(1) 0.3099(1)
O2 O 0.4371(1) -0.2070(1) 0.4211(1)
C1 C 0.3626(1) -0.1904(2) 0.3044(1)
C2 C 0.3283(1) -0.2948(2) 0.3194(1)
C3 C 0.2930(1) -0.2332(2) 0.3518(1)
C4 C 0.2459(1) -0.2106(2) 0.3875(1)
C5 C 0.2051(1) -0.2739(2) 0.4100(1)
C6 C 0.1666(1) -0.2225(2) 0.4446(2)
C7 C 0.1694(1) -0.1106(2) 0.4568(1)
C8 C 0.2101(1) -0.0448(2) 0.4341(1)
C9 C 0.2484(1) -0.0947(2) 0.3995(1)
C10 C 0.2953(1) -0.0474(2) 0.3697(1)
C11 C 0.3206(1) -0.1309(2) 0.3425(1)
C12 C 0.3334(1) -0.4116(2) 0.3055(1)
C13 C 0.3693(1) -0.4514(2) 0.2623(1)
C14 C 0.3742(1) -0.5637(2) 0.2518(2)
C15 C 0.3451(1) -0.6372(2) 0.2846(2)
C16 C 0.3099(1) -0.6001(2) 0.3274(2)
C17 C 0.3034(1) -0.4882(2) 0.3372(2)
C18 C 0.3562(1) -0.1554(2) 0.2253(1)
C19 C 0.3225(1) -0.2130(2) 0.1667(1)
C20 C 0.3168(1) -0.1756(2) 0.0955(1)
C21 C 0.3448(1) -0.0810(2) 0.0829(1)
C22 C 0.3788(1) -0.0234(2) 0.1410(1)
C23 C 0.3846(1) -0.0589(2) 0.2129(1)
C24 C 0.4211(1) 0.0007(2) 0.2761(1)
C25 C 0.4343(1) 0.1122(2) 0.2734(1)
C26 C 0.4686(1) 0.1657(2) 0.3328(2)
C27 C 0.4909(1) 0.1087(2) 0.3966(2)
C28 C 0.4777(1) -0.0018(2) 0.4014(1)
C29 C 0.4427(1) -0.0564(2) 0.3421(1)
C30 C 0.4269(1) -0.1775(2) 0.3458(1)
C31 C 0.5175(1) -0.2613(2) 0.3539(1)
C32 C 0.5161(1) -0.3380(2) 0.4181(1)
C33 C 0.4572(1) -0.3183(2) 0.4363(1)
C34 C 0.5666(1) -0.3116(3) 0.4825(1)
C35 C 0.5193(1) -0.4589(2) 0.3950(2)
H1 H 0.2033(1) -0.3498(2) 0.4022(1)
H2 H 0.1387(1) -0.2642(2) 0.4596(2)
H3 H 0.1436(1) -0.0780(2) 0.4806(1)
H4 H 0.2113(1) 0.0309(2) 0.4421(1)
H5 H 0.3900(1) -0.4021(2) 0.2406(1)
H6 H 0.3975(1) -0.5892(2) 0.2221(2)
H7 H 0.3492(1) -0.7126(2) 0.2780(2)
H8 H 0.2903(1) -0.6504(2) 0.3500(2)
H9 H 0.2787(1) -0.4638(2) 0.3654(2)
H10 H 0.3035(1) -0.2771(2) 0.1750(1)
H11 H 0.2939(1) -0.2145(2) 0.0563(1)
H12 H 0.3409(1) -0.0559(2) 0.0352(1)
H13 H 0.3981(1) 0.0399(2) 0.1321(1)
H14 H 0.4196(1) 0.1514(2) 0.2304(1)
H15 H 0.4767(1) 0.2404(2) 0.3298(2)
H16 H 0.5148(1) 0.1444(2) 0.4365(2)
H17 H 0.4925(1) -0.0399(2) 0.4449(1)
H18 H 0.5340(1) -0.1907(2) 0.3723(1)
H19 H 0.5416(1) -0.2932(2) 0.3244(1)
H20 H 0.4287(1) -0.3687(2) 0.4079(1)
H21 H 0.4608(1) -0.3340(2) 0.4878(1)
H22 H 0.5638(4) -0.2363(5) 0.4971(6)
H23 H 0.6025(1) -0.3222(14) 0.4685(3)
H24 H 0.5654(4) -0.3595(10) 0.5227(4)
H25 H 0.5134(7) -0.5064(2) 0.4333(4)
H26 H 0.5567(3) -0.4733(4) 0.3860(9)
H27 H 0.4896(5) -0.4726(4) 0.3510(5)
loop_
_geom_bond_atom_site_label_1
_geom_bond_atom_site_label_2
_geom_bond_site_symmetry_1
_geom_bond_site_symmetry_2
Cl1 C10 1_555 1_555
O1 C30 1_555 1_555
O2 C30 1_555 1_555
C1 C2 1_555 1_555
C2 C3 1_555 1_555
C3 C4 1_555 1_555
C4 C5 1_555 1_555
C5 C6 1_555 1_555
C6 C7 1_555 1_555
C7 C8 1_555 1_555
C8 C9 1_555 1_555
C9 C4 1_555 1_555
C10 C9 1_555 1_555
C11 C1 1_555 1_555
C12 C2 1_555 1_555
C13 C12 1_555 1_555
C14 C13 1_555 1_555
C15 C14 1_555 1_555
C16 C15 1_555 1_555
C17 C12 1_555 1_555
C18 C1 1_555 1_555
C19 C18 1_555 1_555
C20 C19 1_555 1_555
C21 C20 1_555 1_555
C22 C21 1_555 1_555
C23 C18 1_555 1_555
C24 C23 1_555 1_555
C25 C24 1_555 1_555
C26 C25 1_555 1_555
C27 C26 1_555 1_555
C28 C27 1_555 1_555
C29 C24 1_555 1_555
C30 C1 1_555 1_555
C31 O1 1_555 1_555
C32 C31 1_555 1_555
C33 O2 1_555 1_555
C34 C32 1_555 1_555
C35 C32 1_555 1_555
H1 C5 1_555 1_555
H2 C6 1_555 1_555
H3 C7 1_555 1_555
H4 C8 1_555 1_555
H5 C13 1_555 1_555
H6 C14 1_555 1_555
H7 C15 1_555 1_555
H8 C16 1_555 1_555
H9 C17 1_555 1_555
H10 C19 1_555 1_555
H11 C20 1_555 1_555
H12 C21 1_555 1_555
H13 C22 1_555 1_555
H14 C25 1_555 1_555
H15 C26 1_555 1_555
H16 C27 1_555 1_555
H17 C28 1_555 1_555
H18 C31 1_555 1_555
H19 C31 1_555 1_555
H20 C33 1_555 1_555
H21 C33 1_555 1_555
H22 C34 1_555 1_555
H23 C34 1_555 1_555
H24 C34 1_555 1_555
H25 C35 1_555 1_555
H26 C35 1_555 1_555
H27 C35 1_555 1_555
C3 C11 1_555 1_555
C10 C11 1_555 1_555
C16 C17 1_555 1_555
C22 C23 1_555 1_555
C28 C29 1_555 1_555
C29 C30 1_555 1_555
C32 C33 1_555 1_555

#END
