
#######################################################################
#
#                 Cambridge Crystallographic Data Centre
#                                CCDC 
#
#######################################################################
#
# If this CIF has been generated from an entry in the Cambridge 
# Structural Database, then it will include bibliographic, chemical, 
# crystal, experimental, refinement or atomic coordinate data resulting 
# from the CCDC's data processing and validation procedures.
#
#######################################################################

data_MOKPUY
_chemical_name_common            '3,4-methylenedioxyphenyl butyl ketone'
_chemical_formula_moiety         'C12 H14 O3'
_chemical_name_systematic        1-(1,3-benzodioxol-5-yl)pentan-1-one
_symmetry_cell_setting           monoclinic
_symmetry_space_group_name_H-M   'P 21/n'
_symmetry_Int_Tables_number      14
_space_group_name_Hall           '-P 2yn'
loop_
_symmetry_equiv_pos_site_id
_symmetry_equiv_pos_as_xyz
1 x,y,z
2 1/2-x,1/2+y,1/2-z
3 -x,-y,-z
4 1/2+x,1/2-y,1/2+z
_cell_length_a                   6.7940(14)
_cell_length_b                   12.960(3)
_cell_length_c                   12.244(2)
_cell_angle_alpha                90
_cell_angle_beta                 93.46(3)
_cell_angle_gamma                90
_cell_volume                     1076.12
_exptl_crystal_colour            colorless
_exptl_crystal_description       needle
_cell_formula_units_Z            4
_exptl_crystal_recrystallization_method methanol
loop_
_atom_site_label
_atom_site_type_symbol
_atom_site_fract_x
_atom_site_fract_y
_atom_site_fract_z
O1 O 0.0098(4) 0.8069(2) 1.06817(19)
O2 O 0.7749(3) 0.5827(2) 0.94774(18)
O3 O 0.6590(4) 0.6096(2) 1.11889(18)
C1 C -0.4973(6) 1.0228(4) 0.8325(3)
H1 H -0.5608 1.0466 0.7650
H2 H -0.4467 1.0809 0.8741
H3 H -0.5909 0.9864 0.8738
C2 C -0.3317(5) 0.9524(3) 0.8088(3)
H4 H -0.2416 0.9894 0.7644
H5 H -0.3849 0.8951 0.7655
C3 C -0.2171(5) 0.9099(3) 0.9067(3)
H6 H -0.3054 0.8699 0.9495
H7 H -0.1680 0.9670 0.9519
C4 C -0.0454(5) 0.8428(3) 0.8797(3)
H8 H -0.0947 0.7866 0.8333
H9 H 0.0435 0.8833 0.8379
C5 C 0.0698(5) 0.7978(3) 0.9768(3)
C6 C 0.2532(5) 0.7393(2) 0.9607(2)
C7 C 0.3230(5) 0.7220(3) 0.8582(2)
H10 H 0.2519 0.7472 0.7966
C8 C 0.4974(5) 0.6678(3) 0.8456(3)
H11 H 0.5421 0.6546 0.7766
C9 C 0.5996(5) 0.6350(3) 0.9378(3)
C10 C 0.5302(5) 0.6509(3) 1.0409(2)
C11 C 0.3604(5) 0.7021(3) 1.0545(2)
H12 H 0.3155 0.7125 1.1239
C12 C 0.8125(5) 0.5645(3) 1.0614(3)
H13 H 0.8183 0.4908 1.0754
H14 H 0.9382 0.5945 1.0860
loop_
_geom_bond_atom_site_label_1
_geom_bond_atom_site_label_2
_geom_bond_site_symmetry_1
_geom_bond_site_symmetry_2
O1 C5 1_555 1_555
O2 C9 1_555 1_555
O3 C10 1_555 1_555
C1 H1 1_555 1_555
H2 C1 1_555 1_555
H3 C1 1_555 1_555
C2 C1 1_555 1_555
H4 C2 1_555 1_555
H5 C2 1_555 1_555
C3 C2 1_555 1_555
H6 C3 1_555 1_555
H7 C3 1_555 1_555
C4 C3 1_555 1_555
H8 C4 1_555 1_555
H9 C4 1_555 1_555
C5 C4 1_555 1_555
C6 C5 1_555 1_555
C7 C6 1_555 1_555
H10 C7 1_555 1_555
C8 C7 1_555 1_555
H11 C8 1_555 1_555
C9 C8 1_555 1_555
C10 C9 1_555 1_555
C11 C6 1_555 1_555
H12 C11 1_555 1_555
C12 O2 1_555 1_555
H13 C12 1_555 1_555
H14 C12 1_555 1_555
O3 C12 1_555 1_555
C10 C11 1_555 1_555

#END
