
#######################################################################
#
#                 Cambridge Crystallographic Data Centre
#                                CCDC 
#
#######################################################################
#
# If this CIF has been generated from an entry in the Cambridge 
# Structural Database, then it will include bibliographic, chemical, 
# crystal, experimental, refinement or atomic coordinate data resulting 
# from the CCDC's data processing and validation procedures.
#
#######################################################################

data_MOKQOS
_chemical_formula_moiety         'C20 H14 N4 O1'
_chemical_name_systematic        
(Z)-2-(Benzotriazol-1-yl)-1-phenyl-3-(3-pyridinyl)-2-propen-1-one
_symmetry_cell_setting           monoclinic
_symmetry_space_group_name_H-M   'P 21/c'
_symmetry_Int_Tables_number      14
_space_group_name_Hall           '-P 2ybc'
loop_
_symmetry_equiv_pos_site_id
_symmetry_equiv_pos_as_xyz
1 x,y,z
2 -x,1/2+y,1/2-z
3 -x,-y,-z
4 x,1/2-y,1/2+z
_cell_length_a                   11.063(5)
_cell_length_b                   12.156(6)
_cell_length_c                   12.200(6)
_cell_angle_alpha                90
_cell_angle_beta                 97.391(5)
_cell_angle_gamma                90
_cell_volume                     1627.05
_exptl_crystal_colour            yellow
_chemical_melting_point          114-116deg.C
_cell_formula_units_Z            4
_exptl_crystal_recrystallization_method methanol/chloroform
loop_
_atom_site_label
_atom_site_type_symbol
_atom_site_fract_x
_atom_site_fract_y
_atom_site_fract_z
O1 O 0.6304(1) 0.0153(1) -0.0669(1)
C1 C 0.6010(1) 0.1099(1) -0.0935(1)
C2 C 0.6711(1) 0.2039(1) -0.0341(1)
C3 C 0.6264(1) 0.3049(1) -0.0193(1)
C4 C 0.4976(1) 0.1322(1) -0.1830(1)
C5 C 0.4059(1) 0.0517(1) -0.2020(1)
C6 C 0.3107(1) 0.0645(1) -0.2873(1)
C7 C 0.3069(1) 0.1569(1) -0.3555(1)
C8 C 0.3980(1) 0.2364(1) -0.3384(1)
C9 C 0.4937(1) 0.2246(1) -0.2523(1)
N1 N 0.7899(1) 0.1736(1) 0.0184(1)
N2 N 0.8131(1) 0.1619(1) 0.1315(1)
N3 N 0.9292(1) 0.1400(1) 0.1574(1)
C10 C 0.9843(1) 0.1373(1) 0.0619(1)
C11 C 1.1066(1) 0.1185(1) 0.0450(1)
C12 C 1.1332(1) 0.1244(1) -0.0617(1)
C13 C 1.0421(1) 0.1477(1) -0.1515(1)
C14 C 0.9212(1) 0.1650(1) -0.1374(1)
C15 C 0.8949(1) 0.1586(1) -0.0283(1)
C16 C 0.6909(1) 0.3981(1) 0.0405(1)
C17 C 0.6236(2) 0.4724(1) 0.0953(1)
C18 C 0.8148(2) 0.4200(2) 0.0413(2)
N4 N 0.6472(4) 0.5686(2) 0.1422(2)
C19 C 0.8516(5) 0.5195(4) 0.1133(5)
C20 C 0.7675(6) 0.5884(4) 0.1527(3)
H1 H 0.5444 0.3179 -0.0505
H2 H 0.4091 -0.0118 -0.1564
H3 H 0.2483 0.0105 -0.2991
H4 H 0.2419 0.1656 -0.4138
H5 H 0.3952 0.2989 -0.3854
H6 H 0.5557 0.2790 -0.2408
H7 H 1.1678 0.1026 0.1049
H8 H 1.2147 0.1125 -0.0758
H9 H 1.0648 0.1516 -0.2239
H10 H 0.8603 0.1802 -0.1977
H11 H 0.5198 0.4533 0.0982
H12 H 0.8690 0.3668 0.0127
H13 H 0.9573 0.5449 0.1161
H14 H 0.7977 0.6541 0.1925
C21? C 0.7224(10) 0.5509(5) 0.1561(4)
N5? N 0.8934(5) 0.4958(4) 0.0646(6)
C22? C 0.8416(12) 0.5611(7) 0.1363(7)
H15? H 0.6869 0.5951 0.2143
H16? H 0.8942 0.6198 0.1757
loop_
_geom_bond_atom_site_label_1
_geom_bond_atom_site_label_2
_geom_bond_site_symmetry_1
_geom_bond_site_symmetry_2
O1 C1 1_555 1_555
C1 C2 1_555 1_555
C2 C3 1_555 1_555
C3 C16 1_555 1_555
C4 C1 1_555 1_555
C5 C4 1_555 1_555
C6 C5 1_555 1_555
C7 C6 1_555 1_555
C8 C7 1_555 1_555
C9 C4 1_555 1_555
N1 C2 1_555 1_555
N2 N1 1_555 1_555
N3 N2 1_555 1_555
C10 N3 1_555 1_555
C11 C10 1_555 1_555
C12 C11 1_555 1_555
C13 C12 1_555 1_555
C14 C13 1_555 1_555
C15 N1 1_555 1_555
C16 C17 1_555 1_555
C17 N4 1_555 1_555
C18 C16 1_555 1_555
N4 C20 1_555 1_555
C19 C18 1_555 1_555
C20 C19 1_555 1_555
H1 C3 1_555 1_555
H2 C5 1_555 1_555
H3 C6 1_555 1_555
H4 C7 1_555 1_555
H5 C8 1_555 1_555
H6 C9 1_555 1_555
H7 C11 1_555 1_555
H8 C12 1_555 1_555
H9 C13 1_555 1_555
H10 C14 1_555 1_555
H11 C17 1_555 1_555
H12 C18 1_555 1_555
H13 C19 1_555 1_555
H14 C20 1_555 1_555
C8 C9 1_555 1_555
C10 C15 1_555 1_555
C14 C15 1_555 1_555

#END
