
#######################################################################
#
#                 Cambridge Crystallographic Data Centre
#                                CCDC 
#
#######################################################################
#
# If this CIF has been generated from an entry in the Cambridge 
# Structural Database, then it will include bibliographic, chemical, 
# crystal, experimental, refinement or atomic coordinate data resulting 
# from the CCDC's data processing and validation procedures.
#
#######################################################################

data_MOKREJ
_chemical_formula_moiety         'C14 H10 N2 O1'
_chemical_name_systematic        3-Phenyl-5-(3-pyridyl)isoxazole
_symmetry_cell_setting           monoclinic
_symmetry_space_group_name_H-M   'C 2/c'
_symmetry_Int_Tables_number      15
_space_group_name_Hall           '-C 2yn'
loop_
_symmetry_equiv_pos_site_id
_symmetry_equiv_pos_as_xyz
1 x,y,z
2 -x,y,1/2-z
3 1/2+x,1/2+y,z
4 1/2-x,1/2+y,1/2-z
5 -x,-y,-z
6 x,-y,1/2+z
7 1/2-x,1/2-y,-z
8 1/2+x,1/2-y,1/2+z
_cell_length_a                   26.759(10)
_cell_length_b                   5.750(2)
_cell_length_c                   7.301(3)
_cell_angle_alpha                90
_cell_angle_beta                 104.456(5)
_cell_angle_gamma                90
_cell_volume                     1087.8
_chemical_melting_point          143-144deg.C
_cell_formula_units_Z            4
loop_
_atom_site_label
_atom_site_type_symbol
_atom_site_fract_x
_atom_site_fract_y
_atom_site_fract_z
O1 O 0.4732(1) 0.0719(1) 0.1982(1)
N1 N 0.5268(1) 0.0719(1) 0.3018(1)
C1 C 0.4588(1) -0.1517(2) 0.1697(1)
C2 C 0.5000 -0.3002(3) 0.2500
C3 C 0.4047(1) -0.2020(2) 0.0651(1)
C4 C 0.3650(1) -0.0384(2) 0.0600(2)
N2 N 0.3143(1) -0.0814(2) -0.0358(2)
C6 C 0.3026(1) -0.2900(2) -0.1278(2)
C7 C 0.3403(1) -0.4590(2) -0.1264(2)
C8 C 0.3918(1) -0.4156(2) -0.0290(2)
H1 H 0.5000 -0.4654 0.2500
H2 H 0.3733 0.1056 0.1242
H4 H 0.2679 -0.3205 -0.1941
H5 H 0.3312 -0.6023 -0.1909
H6 H 0.4177 -0.5295 -0.0267
C1A C 0.5412(1) -0.1517(2) 0.3303(1)
C3A C 0.5953(1) -0.2020(2) 0.4349(1)
C4A C 0.6350(1) -0.0384(2) 0.4400(2)
N2A N 0.6857(1) -0.0814(2) 0.5358(2)
C6A C 0.6974(1) -0.2900(2) 0.6278(2)
C7A C 0.6597(1) -0.4590(2) 0.6264(2)
C8A C 0.6082(1) -0.4156(2) 0.5290(2)
H6A H 0.5823 -0.5295 0.5267
H5A H 0.6688 -0.6023 0.6909
H4A H 0.7321 -0.3205 0.6941
H2A H 0.6267 0.1056 0.3758
C5? C 0.3143(1) -0.0814(2) -0.0358(2)
H3? H 0.2882 0.0313 -0.0379
loop_
_geom_bond_atom_site_label_1
_geom_bond_atom_site_label_2
_geom_bond_site_symmetry_1
_geom_bond_site_symmetry_2
O1 N1 1_555 1_555
N1 C1A 1_555 1_555
C1 O1 1_555 1_555
C2 C1 1_555 1_555
C3 C1 1_555 1_555
C4 C3 1_555 1_555
N2 C4 1_555 1_555
C6 N2 1_555 1_555
C7 C6 1_555 1_555
C8 C3 1_555 1_555
H1 C2 1_555 1_555
H2 C4 1_555 1_555
H4 C6 1_555 1_555
H5 C7 1_555 1_555
H6 C8 1_555 1_555
C1A C2 1_555 1_555
C3A C1A 1_555 1_555
C4A C3A 1_555 1_555
N2A C4A 1_555 1_555
C6A N2A 1_555 1_555
C7A C6A 1_555 1_555
C8A C3A 1_555 1_555
H6A C8A 1_555 1_555
H5A C7A 1_555 1_555
H4A C6A 1_555 1_555
H2A C4A 1_555 1_555
C7 C8 1_555 1_555
C7A C8A 1_555 1_555

#END
