
#######################################################################
#
#                 Cambridge Crystallographic Data Centre
#                                CCDC 
#
#######################################################################
#
# If this CIF has been generated from an entry in the Cambridge 
# Structural Database, then it will include bibliographic, chemical, 
# crystal, experimental, refinement or atomic coordinate data resulting 
# from the CCDC's data processing and validation procedures.
#
#######################################################################

data_MOLPUA
_chemical_compound_source        'fungus Penicillium brocae MA-231'
_chemical_name_common            'Brocazine A'
_chemical_formula_moiety         'C19 H20 N2 O7 S2'
_chemical_name_systematic        
5,15-Dihydroxy-16-methoxy-21,22-dithia-3,13-diazahexacyclo[9.9.2.0^1,13^.0^3,11^.0^4,9^.0^14,19^]docos-6-ene-2,8,12,18-tetrone
_chemical_properties_biological  'cytotoxic activity'
_symmetry_cell_setting           orthorhombic
_symmetry_space_group_name_H-M   'P 21 21 21'
_symmetry_Int_Tables_number      19
_space_group_name_Hall           'P 2ac 2ab'
loop_
_symmetry_equiv_pos_site_id
_symmetry_equiv_pos_as_xyz
1 x,y,z
2 1/2-x,-y,1/2+z
3 -x,1/2+y,1/2-z
4 1/2+x,1/2-y,-z
_cell_length_a                   7.2595(7)
_cell_length_b                   7.5636(5)
_cell_length_c                   36.246(3)
_cell_angle_alpha                90
_cell_angle_beta                 90
_cell_angle_gamma                90
_cell_volume                     1990.19
_chemical_melting_point          '230-232 deg.C'
_cell_formula_units_Z            4
loop_
_atom_site_label
_atom_site_type_symbol
_atom_site_fract_x
_atom_site_fract_y
_atom_site_fract_z
N1 N 0.3276(7) 0.4086(6) 0.83599(13)
N2 N 0.2760(8) 0.2099(6) 0.89839(12)
O1 O 0.6318(6) 0.4319(7) 0.85269(13)
O2 O 0.0261(7) 0.0882(5) 0.87025(11)
O3 O 0.4306(7) 0.6741(6) 0.75163(11)
H1 H 0.4877 0.5990 0.7400
O4 O -0.1111(7) 0.6783(7) 0.77805(14)
O5 O 0.4540(7) 0.9508(5) 0.80694(12)
O6 O 0.6964(9) 0.0792(7) 0.98739(15)
O7 O 0.0418(8) -0.1117(5) 0.93328(12)
H2 H -0.0119 -0.0670 0.9157
S1 S 0.2868(3) 0.5665(2) 0.91326(4)
S2 S 0.0528(3) 0.5434(2) 0.88047(5)
C1 C 0.4699(10) 0.4004(7) 0.86008(17)
C2 C 0.4055(9) 0.3579(7) 0.89854(16)
C3 C 0.1418(10) 0.2054(7) 0.87335(16)
C4 C 0.1455(9) 0.3680(7) 0.84834(17)
C5 C 0.0332(9) 0.3561(7) 0.81316(15)
H3 H -0.0924 0.3952 0.8173
H4 H 0.0311 0.2359 0.8038
C6 C 0.1330(9) 0.4793(7) 0.78640(16)
H5 H 0.1182 0.4309 0.7615
C7 C 0.3372(9) 0.4653(8) 0.79672(15)
H6 H 0.3937 0.3705 0.7821
C8 C 0.4437(9) 0.6370(7) 0.79011(16)
H7 H 0.5727 0.6246 0.7977
C9 C 0.3523(9) 0.7892(7) 0.81010(17)
H8 H 0.3399 0.7588 0.8363
C10 C 0.1650(9) 0.8238(8) 0.79440(19)
H9 H 0.0979 0.8984 0.8115
H10 H 0.1795 0.8898 0.7716
C11 C 0.0513(10) 0.6645(8) 0.78655(16)
C12 C 0.6110(11) 0.9581(10) 0.8308(2)
H11 H 0.5728 0.9368 0.8558
H12 H 0.6669 1.0729 0.8292
H13 H 0.6985 0.8696 0.8235
C13 C 0.5560(11) 0.3063(8) 0.92636(17)
H14 H 0.6539 0.2388 0.9148
H15 H 0.6077 0.4089 0.9386
C14 C 0.4425(10) 0.1933(8) 0.95269(16)
H16 H 0.3644 0.2749 0.9667
C15 C 0.5329(12) 0.0759(9) 0.98024(19)
C16 C 0.4004(13) -0.0437(10) 0.9983(2)
H17 H 0.4367 -0.1045 1.0194
C17 C 0.2307(13) -0.0675(10) 0.9855(2)
H18 H 0.1544 -0.1435 0.9987
C18 C 0.1505(10) 0.0186(8) 0.95115(17)
H19 H 0.0728 0.1189 0.9582
C19 C 0.3130(9) 0.0839(8) 0.92824(16)
H20 H 0.3802 -0.0179 0.9183
loop_
_geom_bond_atom_site_label_1
_geom_bond_atom_site_label_2
_geom_bond_site_symmetry_1
_geom_bond_site_symmetry_2
N1 C1 1_555 1_555
N2 C2 1_555 1_555
O1 C1 1_555 1_555
O2 C3 1_555 1_555
O3 H1 1_555 1_555
O4 C11 1_555 1_555
O5 C9 1_555 1_555
O6 C15 1_555 1_555
O7 H2 1_555 1_555
S1 S2 1_555 1_555
S2 C4 1_555 1_555
C1 C2 1_555 1_555
C2 S1 1_555 1_555
C3 N2 1_555 1_555
C4 N1 1_555 1_555
C5 C4 1_555 1_555
H3 C5 1_555 1_555
H4 C5 1_555 1_555
C6 C5 1_555 1_555
H5 C6 1_555 1_555
C7 N1 1_555 1_555
H6 C7 1_555 1_555
C8 O3 1_555 1_555
H7 C8 1_555 1_555
C9 C8 1_555 1_555
H8 C9 1_555 1_555
C10 C9 1_555 1_555
H9 C10 1_555 1_555
H10 C10 1_555 1_555
C11 C6 1_555 1_555
C12 O5 1_555 1_555
H11 C12 1_555 1_555
H12 C12 1_555 1_555
H13 C12 1_555 1_555
C13 C2 1_555 1_555
H14 C13 1_555 1_555
H15 C13 1_555 1_555
C14 C13 1_555 1_555
H16 C14 1_555 1_555
C15 C14 1_555 1_555
C16 C15 1_555 1_555
H17 C16 1_555 1_555
C17 C16 1_555 1_555
H18 C17 1_555 1_555
C18 O7 1_555 1_555
H19 C18 1_555 1_555
C19 N2 1_555 1_555
H20 C19 1_555 1_555
C3 C4 1_555 1_555
C6 C7 1_555 1_555
C7 C8 1_555 1_555
C10 C11 1_555 1_555
C14 C19 1_555 1_555
C17 C18 1_555 1_555
C18 C19 1_555 1_555

#END
