
#######################################################################
#
#                 Cambridge Crystallographic Data Centre
#                                CCDC 
#
#######################################################################
#
# If this CIF has been generated from an entry in the Cambridge 
# Structural Database, then it will include bibliographic, chemical, 
# crystal, experimental, refinement or atomic coordinate data resulting 
# from the CCDC's data processing and validation procedures.
#
#######################################################################

data_MOLRIQ
_chemical_formula_moiety         'C6 H11 N2 1+,C3 H1 F6 O4 S1 1-'
_chemical_name_systematic        
'3-ethyl-2-methyl-1H-imidazol-3-ium 1,1,1,3,3,3-hexafluoropropan-2-yl sulfate'
_symmetry_cell_setting           monoclinic
_symmetry_space_group_name_H-M   'P 21/c'
_symmetry_Int_Tables_number      14
_space_group_name_Hall           '-P 2ybc'
loop_
_symmetry_equiv_pos_site_id
_symmetry_equiv_pos_as_xyz
1 x,y,z
2 -x,1/2+y,1/2-z
3 -x,-y,-z
4 x,1/2-y,1/2+z
_cell_length_a                   11.7389(4)
_cell_length_b                   10.0308(3)
_cell_length_c                   12.2863(4)
_cell_angle_alpha                90
_cell_angle_beta                 102.103(2)
_cell_angle_gamma                90
_cell_volume                     1414.56
_exptl_crystal_colour            colorless
_exptl_crystal_description       plate
_chemical_melting_point          '306 K'
_cell_formula_units_Z            4
_exptl_crystal_recrystallization_method tetrahydrofuran
loop_
_atom_site_label
_atom_site_type_symbol
_atom_site_fract_x
_atom_site_fract_y
_atom_site_fract_z
N1 N 0.35686(12) 0.59312(15) 0.73168(12)
N2 N 0.38042(13) 0.41657(16) 0.83800(12)
H1 H 0.3855(18) 0.332(2) 0.8574(17)
C1 C 0.37466(15) 0.46216(18) 0.73009(14)
C2 C 0.36574(16) 0.52034(19) 0.91018(15)
H2 H 0.3660 0.5148 0.9874
C3 C 0.35098(16) 0.63126(19) 0.84416(15)
H3 H 0.3388 0.7192 0.8681
C4 C 0.38746(17) 0.38171(19) 0.62793(15)
H4 H 0.3173 0.3926 0.5693
H5 H 0.3979 0.2873 0.6480
H6 H 0.4554 0.4136 0.6009
C5 C 0.33827(16) 0.68256(19) 0.63026(15)
H7 H 0.3780 0.7688 0.6509
H8 H 0.3740 0.6406 0.5726
C6 C 0.21601(17) 0.7068(2) 0.58460(18)
H9 H 0.2081 0.7666 0.5204
H10 H 0.1802 0.7480 0.6415
H11 H 0.1770 0.6221 0.5610
S1 S 0.33066(4) 0.05236(4) 0.79244(3)
F1 F 0.00895(11) 0.23826(15) 0.77125(13)
F2 F 0.05993(11) 0.05150(16) 0.85313(11)
F3 F -0.06070(11) 0.05542(16) 0.69230(12)
F4 F 0.10279(12) 0.31025(14) 0.58862(12)
F5 F 0.18208(10) 0.15545(14) 0.51076(10)
F6 F 0.00598(11) 0.14570(16) 0.50362(11)
O1 O 0.36023(11) 0.01402(14) 0.68479(11)
O2 O 0.29266(12) -0.05550(13) 0.85467(11)
O3 O 0.40845(11) 0.14216(13) 0.86345(10)
O4 O 0.22420(10) 0.15374(12) 0.75555(10)
C7 C 0.12604(15) 0.1008(2) 0.68433(15)
H12 H 0.1401 0.0047 0.6701
C8 C 0.10354(17) 0.1795(2) 0.57095(17)
C9 C 0.03233(18) 0.1118(2) 0.75098(18)
loop_
_geom_bond_atom_site_label_1
_geom_bond_atom_site_label_2
_geom_bond_site_symmetry_1
_geom_bond_site_symmetry_2
N1 C1 1_555 1_555
N2 H1 1_555 1_555
C1 N2 1_555 1_555
C2 N2 1_555 1_555
H2 C2 1_555 1_555
C3 N1 1_555 1_555
H3 C3 1_555 1_555
C4 C1 1_555 1_555
H4 C4 1_555 1_555
H5 C4 1_555 1_555
H6 C4 1_555 1_555
C5 N1 1_555 1_555
H7 C5 1_555 1_555
H8 C5 1_555 1_555
C6 C5 1_555 1_555
H9 C6 1_555 1_555
H10 C6 1_555 1_555
H11 C6 1_555 1_555
S1 O1 1_555 1_555
F1 C9 1_555 1_555
F2 C9 1_555 1_555
F3 C9 1_555 1_555
F4 C8 1_555 1_555
F5 C8 1_555 1_555
F6 C8 1_555 1_555
O2 S1 1_555 1_555
O3 S1 1_555 1_555
O4 S1 1_555 1_555
C7 O4 1_555 1_555
H12 C7 1_555 1_555
C8 C7 1_555 1_555
C9 C7 1_555 1_555
C2 C3 1_555 1_555

#END
