
#######################################################################
#
#                 Cambridge Crystallographic Data Centre
#                                CCDC 
#
#######################################################################
#
# If this CIF has been generated from an entry in the Cambridge 
# Structural Database, then it will include bibliographic, chemical, 
# crystal, experimental, refinement or atomic coordinate data resulting 
# from the CCDC's data processing and validation procedures.
#
#######################################################################

data_MOLREM
_chemical_formula_moiety         'C8 H15 N2 1+,C3 H1 F6 O4 S1 1-'
_chemical_name_systematic        
'1-butyl-2-methyl-1H-imidazol-3-ium 1,1,1,3,3,3-hexafluoropropan-2-yl sulfate'
_symmetry_cell_setting           triclinic
_symmetry_space_group_name_H-M   'P -1'
_symmetry_Int_Tables_number      2
_space_group_name_Hall           '-P 1'
loop_
_symmetry_equiv_pos_site_id
_symmetry_equiv_pos_as_xyz
1 x,y,z
2 -x,-y,-z
_cell_length_a                   9.1472(5)
_cell_length_b                   10.2575(6)
_cell_length_c                   10.3412(6)
_cell_angle_alpha                69.222(2)
_cell_angle_beta                 70.495(2)
_cell_angle_gamma                74.995(2)
_cell_volume                     844.191
_exptl_crystal_colour            colorless
_chemical_melting_point          '304 K'
_cell_formula_units_Z            2
_exptl_crystal_recrystallization_method dichloromethane
loop_
_atom_site_label
_atom_site_type_symbol
_atom_site_fract_x
_atom_site_fract_y
_atom_site_fract_z
N1 N 0.30315(12) 0.34030(10) 0.61371(11)
N2 N 0.22711(13) 0.22357(11) 0.51811(11)
H1 H 0.2117(19) 0.1522(18) 0.5031(17)
C1 C 0.29592(14) 0.21021(12) 0.61807(12)
C2 C 0.18877(16) 0.36444(13) 0.44843(14)
H2 H 0.1384 0.4025 0.3731
C3 C 0.23675(15) 0.43768(13) 0.50813(14)
H3 H 0.2268 0.5375 0.4825
C4 C 0.35186(17) 0.07427(14) 0.71547(15)
H4 H 0.3241 -0.0037 0.6992
H5 H 0.3023 0.0743 0.8154
H6 H 0.4662 0.0623 0.6962
C5 C 0.37492(15) 0.37674(14) 0.70172(14)
H7 H 0.4432 0.4484 0.6390
H8 H 0.4418 0.2915 0.7468
C6 C 0.25297(15) 0.43390(12) 0.81798(12)
H9 H 0.1839 0.3629 0.8808
H10 H 0.1869 0.5202 0.7734
C7 C 0.33219(17) 0.46856(15) 0.90753(14)
H11 H 0.4030 0.5378 0.8437
H12 H 0.3970 0.3817 0.9527
C8 C 0.2137(2) 0.52901(18) 1.02429(17)
H13 H 0.2696 0.5500 1.0787
H14 H 0.1449 0.4599 1.0892
H15 H 0.1503 0.6159 0.9800
S1 S 0.22275(3) 0.82321(3) 0.52315(3)
O1 O 0.36307(11) 0.74047(10) 0.55959(10)
O2 O 0.09272(11) 0.74991(9) 0.56339(9)
O3 O 0.17633(11) 0.95855(8) 0.55169(9)
O4 O 0.28392(10) 0.86356(9) 0.34566(8)
F1 F 0.05454(15) 0.90813(11) 0.11145(12)
F2 F 0.29611(12) 0.81469(11) 0.09611(10)
F3 F 0.11464(11) 0.72401(9) 0.27584(9)
F4 F 0.10659(12) 1.15818(10) 0.10838(11)
F5 F 0.35149(11) 1.06796(9) 0.07183(9)
F6 F 0.23801(11) 1.15185(8) 0.24878(9)
C9 C 0.16917(14) 0.93778(12) 0.27086(12)
H16 H 0.0653 0.9537 0.3411
C10 C 0.15885(17) 0.84574(14) 0.18705(14)
C11 C 0.21735(16) 1.08003(13) 0.17334(13)
loop_
_geom_bond_atom_site_label_1
_geom_bond_atom_site_label_2
_geom_bond_site_symmetry_1
_geom_bond_site_symmetry_2
N1 C1 1_555 1_555
N2 H1 1_555 1_555
C1 N2 1_555 1_555
C2 N2 1_555 1_555
H2 C2 1_555 1_555
C3 N1 1_555 1_555
H3 C3 1_555 1_555
C4 C1 1_555 1_555
H4 C4 1_555 1_555
H5 C4 1_555 1_555
H6 C4 1_555 1_555
C5 N1 1_555 1_555
H7 C5 1_555 1_555
H8 C5 1_555 1_555
C6 C5 1_555 1_555
H9 C6 1_555 1_555
H10 C6 1_555 1_555
C7 C6 1_555 1_555
H11 C7 1_555 1_555
H12 C7 1_555 1_555
C8 C7 1_555 1_555
H13 C8 1_555 1_555
H14 C8 1_555 1_555
H15 C8 1_555 1_555
S1 O1 1_555 1_555
O2 S1 1_555 1_555
O3 S1 1_555 1_555
O4 S1 1_555 1_555
F1 C10 1_555 1_555
F2 C10 1_555 1_555
F3 C10 1_555 1_555
F4 C11 1_555 1_555
F5 C11 1_555 1_555
F6 C11 1_555 1_555
C9 O4 1_555 1_555
H16 C9 1_555 1_555
C10 C9 1_555 1_555
C11 C9 1_555 1_555
C2 C3 1_555 1_555

#END
