
#######################################################################
#
#                 Cambridge Crystallographic Data Centre
#                                CCDC 
#
#######################################################################
#
# If this CIF has been generated from an entry in the Cambridge 
# Structural Database, then it will include bibliographic, chemical, 
# crystal, experimental, refinement or atomic coordinate data resulting 
# from the CCDC's data processing and validation procedures.
#
#######################################################################

data_MOLSUC
_chemical_name_common            
(S)-Diethyl-alpha-[(2,3,4,6-tetra-O-pivaloyl-beta-D-galactopyranosyl)amino](4-chlorophenyl)phosphonate
_chemical_formula_moiety         'C37 H59 Cl1 N1 O12 P1'
_chemical_name_systematic        
'(S)-2-(((4-Chlorophenyl)(diethoxyphosphoryl)methyl)amino)-6-(((2,2-dimethylpropanoyl)oxy)methyl)tetrahydro-2H-pyran-3,4,5-triyl tris(2,2-dimethylpropanoate)'
_symmetry_cell_setting           triclinic
_symmetry_space_group_name_H-M   'P 1'
_symmetry_Int_Tables_number      1
_space_group_name_Hall           'P 1'
loop_
_symmetry_equiv_pos_site_id
_symmetry_equiv_pos_as_xyz
1 x,y,z
_cell_length_a                   13.488(3)
_cell_length_b                   14.320(4)
_cell_length_c                   22.354(6)
_cell_angle_alpha                92.917(3)
_cell_angle_beta                 95.284(5)
_cell_angle_gamma                90.508(4)
_cell_volume                     4293.32
_exptl_crystal_colour            colorless
_exptl_crystal_description       block
_chemical_melting_point          121-123deg.C
_cell_formula_units_Z            4
loop_
_atom_site_label
_atom_site_type_symbol
_atom_site_fract_x
_atom_site_fract_y
_atom_site_fract_z
P1 P 0.45655(12) 0.34063(10) 0.57080(8)
Cl2 Cl 0.76050(14) -0.03523(13) 0.64638(9)
N2 N 0.3594(3) 0.1874(3) 0.52393(18)
H2 H 0.3106 0.2101 0.5436
O10 O 0.2147(3) 0.0390(2) 0.53118(15)
O11 O 0.0683(3) 0.1118(4) 0.5232(2)
O12 O 0.1245(2) -0.0314(2) 0.41463(16)
O13 O 0.1420(3) -0.1655(2) 0.46241(17)
O14 O 0.2068(2) 0.0840(2) 0.34060(14)
O15 O 0.1453(3) -0.0209(3) 0.26790(18)
O16 O 0.3746(2) 0.1340(2) 0.42382(14)
O17 O 0.5176(3) 0.1052(2) 0.33585(16)
O18 O 0.5159(3) 0.1699(4) 0.2480(2)
O19 O 0.3770(3) 0.3988(2) 0.5441(2)
O20 O 0.4501(4) 0.3232(4) 0.6401(2)
O21 O 0.5667(4) 0.3750(3) 0.5672(3)
C42 C 0.3480(4) 0.1070(3) 0.4823(2)
H73 H 0.3924 0.0558 0.4971
C43 C 0.2400(3) 0.0724(3) 0.4743(2)
H74 H 0.1949 0.1243 0.4616
C44 C 0.2294(3) -0.0091(3) 0.4274(2)
H75 H 0.2650 -0.0646 0.4438
C45 C 0.2692(3) 0.0142(3) 0.3686(2)
H76 H 0.2702 -0.0432 0.3413
C46 C 0.3733(3) 0.0563(3) 0.3808(2)
H77 H 0.4198 0.0076 0.3968
C47 C 0.4105(4) 0.0929(3) 0.3256(2)
H78 H 0.3935 0.0483 0.2908
H79 H 0.3789 0.1535 0.3167
C48 C 0.1262(5) 0.0643(5) 0.5508(3)
C49 C 0.1123(6) 0.0222(5) 0.6117(3)
C50 C 0.1981(6) 0.0577(6) 0.6558(3)
H80 H 0.2608 0.0329 0.6431
H81 H 0.1884 0.0370 0.6960
H82 H 0.2006 0.1262 0.6569
C51 C 0.0131(7) 0.0586(10) 0.6312(4)
H83 H 0.0171 0.1268 0.6376
H84 H -0.0009 0.0306 0.6686
H85 H -0.0405 0.0418 0.5997
C52 C 0.1074(10) -0.0823(7) 0.6030(4)
H86 H 0.0526 -0.1005 0.5727
H87 H 0.0961 -0.1095 0.6412
H88 H 0.1703 -0.1051 0.5895
C53 C 0.0905(4) -0.1127(3) 0.4343(2)
C54 C -0.0202(4) -0.1269(4) 0.4153(3)
C55 C -0.0783(4) -0.0379(4) 0.4302(4)
H89 H -0.1487 -0.0473 0.4158
H90 H -0.0511 0.0149 0.4104
H91 H -0.0720 -0.0245 0.4738
C56 C -0.0583(5) -0.2070(5) 0.4494(3)
H92 H -0.0195 -0.2631 0.4415
H93 H -0.1286 -0.2195 0.4360
H94 H -0.0513 -0.1899 0.4926
C57 C -0.0301(5) -0.1543(6) 0.3471(3)
H95 H 0.0041 -0.2134 0.3401
H96 H 0.0000 -0.1052 0.3255
H97 H -0.1007 -0.1618 0.3327
C58 C 0.1474(3) 0.0570(3) 0.2904(2)
C59 C 0.0851(4) 0.1388(3) 0.2675(2)
C60 C 0.0211(5) 0.1745(4) 0.3173(3)
H98 H -0.0247 0.1246 0.3262
H99 H -0.0173 0.2285 0.3036
H100 H 0.0644 0.1930 0.3536
C61 C 0.0165(5) 0.1053(5) 0.2122(3)
H101 H 0.0564 0.0771 0.1817
H102 H -0.0199 0.1585 0.1957
H103 H -0.0309 0.0587 0.2237
C62 C 0.1575(5) 0.2165(5) 0.2534(3)
H104 H 0.1990 0.2368 0.2902
H105 H 0.1196 0.2697 0.2380
H106 H 0.2001 0.1926 0.2230
C63 C 0.5621(4) 0.1441(4) 0.2925(2)
C64 C 0.6751(4) 0.1488(4) 0.3064(2)
C65 C 0.7027(6) 0.1888(7) 0.3688(3)
H107 H 0.6743 0.1496 0.3977
H108 H 0.6766 0.2523 0.3728
H109 H 0.7754 0.1910 0.3768
C66 C 0.7108(6) 0.0513(5) 0.2991(6)
H110 H 0.7837 0.0519 0.3009
H111 H 0.6831 0.0233 0.2602
H112 H 0.6893 0.0146 0.3315
C67 C 0.7186(5) 0.2089(6) 0.2605(4)
H113 H 0.7913 0.2110 0.2681
H114 H 0.6927 0.2725 0.2642
H115 H 0.6997 0.1819 0.2199
C68 C 0.4618(4) 0.2283(3) 0.5302(2)
H116 H 0.4817 0.2390 0.4891
C69 C 0.5351(4) 0.1632(3) 0.5601(2)
C70 C 0.5134(4) 0.1125(4) 0.6086(2)
H117 H 0.4505 0.1192 0.6241
C71 C 0.5836(5) 0.0514(4) 0.6349(3)
H118 H 0.5677 0.0161 0.6677
C72 C 0.6742(4) 0.0426(4) 0.6136(3)
C73 C 0.6971(5) 0.0920(5) 0.5642(3)
H119 H 0.7598 0.0842 0.5485
C74 C 0.6285(4) 0.1518(4) 0.5384(3)
H120 H 0.6449 0.1861 0.5053
C75 C 0.3561(7) 0.3243(5) 0.6662(3)
H121 H 0.3477 0.2662 0.6875
H122 H 0.3008 0.3276 0.6341
C76 C 0.3538(8) 0.4086(6) 0.7102(4)
H123 H 0.4092 0.4054 0.7416
H124 H 0.2906 0.4088 0.7287
H125 H 0.3601 0.4661 0.6888
C77 C 0.5870(9) 0.4817(10) 0.5575(8)
H126 H 0.5415 0.5038 0.5241
H127 H 0.5780 0.5205 0.5945
C78 C 0.6942(10) 0.4861(11) 0.5425(9)
H128 H 0.7122 0.5508 0.5355
H129 H 0.7017 0.4466 0.5061
H130 H 0.7380 0.4638 0.5761
P2 P 0.07612(14) 0.39052(13) 0.57772(9)
Cl3 Cl -0.07698(15) 0.81120(14) 0.71993(8)
N3 N 0.1948(3) 0.5347(3) 0.55652(18)
H3 H 0.2433 0.5102 0.5795
O22 O 0.3327(3) 0.6932(2) 0.57175(16)
O23 O 0.4463(2) 0.7084(2) 0.47026(16)
O24 O 0.4211(3) 0.8428(3) 0.4253(2)
O25 O 0.3525(2) 0.5590(2) 0.39463(14)
O26 O 0.4593(3) 0.6278(3) 0.33865(19)
O27 O 0.1807(2) 0.5601(2) 0.45333(14)
O28 O 0.0413(3) 0.5681(2) 0.34932(16)
O29 O 0.0447(4) 0.4172(3) 0.3275(3)
O30 O 0.1107(4) 0.3695(4) 0.6378(2)
O31 O -0.0374(4) 0.3760(4) 0.5578(3)
O32 O 0.1338(4) 0.3305(3) 0.5291(2)
C79 C 0.2099(4) 0.6018(3) 0.5128(2)
H131 H 0.1676 0.6574 0.5202
C80 C 0.3184(4) 0.6325(3) 0.5181(2)
H132 H 0.3635 0.5775 0.5207
C81 C 0.3404(4) 0.6930(3) 0.4659(2)
H133 H 0.3072 0.7546 0.4712
C82 C 0.3013(3) 0.6471(3) 0.4054(2)
H134 H 0.3103 0.6901 0.3724
C83 C 0.1925(4) 0.6219(3) 0.4067(2)
H135 H 0.1547 0.6803 0.4147
C84 C 0.1486(4) 0.5744(4) 0.3483(2)
H136 H 0.1653 0.6108 0.3141
H137 H 0.1765 0.5111 0.3435
C85 C 0.4126(7) 0.6815(5) 0.6104(4)
O51 O 0.4811(6) 0.6297(6) 0.5958(4)
C86 C 0.4053(8) 0.7573(7) 0.6605(4)
C87 C 0.3140(9) 0.7403(11) 0.6934(5)
H138 H 0.3178 0.6784 0.7102
H139 H 0.2541 0.7434 0.6653
H140 H 0.3110 0.7883 0.7261
C88 C 0.4003(11) 0.8552(6) 0.6339(6)
H141 H 0.3392 0.8593 0.6068
H142 H 0.4583 0.8647 0.6115
H143 H 0.4000 0.9034 0.6666
C89 C 0.5024(9) 0.7553(12) 0.7031(6)
H144 H 0.5084 0.6941 0.7207
H145 H 0.5007 0.8043 0.7352
H146 H 0.5597 0.7661 0.6802
C90 C 0.4779(4) 0.7878(4) 0.4478(3)
C91 C 0.5900(4) 0.7988(4) 0.4577(3)
C92 C 0.6386(5) 0.7117(6) 0.4363(6)
H147 H 0.6305 0.6626 0.4646
H148 H 0.7097 0.7242 0.4340
H149 H 0.6076 0.6912 0.3964
C93 C 0.6209(8) 0.8076(8) 0.5251(5)
H150 H 0.6014 0.8689 0.5413
H151 H 0.6933 0.8013 0.5321
H152 H 0.5879 0.7583 0.5451
C94 C 0.6197(8) 0.8824(7) 0.4267(5)
H153 H 0.5908 0.8779 0.3848
H154 H 0.6924 0.8859 0.4278
H155 H 0.5954 0.9388 0.4470
C95 C 0.4288(4) 0.5586(4) 0.3593(2)
C96 C 0.4643(4) 0.4606(4) 0.3470(3)
C97 C 0.4930(8) 0.4164(6) 0.4063(4)
H156 H 0.5385 0.4585 0.4318
H157 H 0.5259 0.3568 0.3987
H158 H 0.4330 0.4053 0.4267
C98 C 0.5561(5) 0.4649(5) 0.3109(4)
H159 H 0.6109 0.4974 0.3355
H160 H 0.5393 0.4988 0.2743
H161 H 0.5763 0.4013 0.2997
C99 C 0.3802(6) 0.4053(6) 0.3091(4)
H162 H 0.4054 0.3449 0.2950
H163 H 0.3565 0.4409 0.2744
H164 H 0.3251 0.3949 0.3337
C100 C -0.0018(4) 0.4846(4) 0.3394(3)
C101 C -0.1137(4) 0.4846(4) 0.3407(3)
C102 C -0.1419(6) 0.4121(6) 0.3836(4)
H165 H -0.1192 0.3505 0.3700
H166 H -0.2144 0.4105 0.3845
H167 H -0.1103 0.4286 0.4241
C103 C -0.1547(5) 0.5812(5) 0.3589(4)
H168 H -0.1260 0.6009 0.3995
H169 H -0.2273 0.5770 0.3583
H170 H -0.1368 0.6269 0.3304
C104 C -0.1556(5) 0.4531(5) 0.2771(3)
H171 H -0.1333 0.4967 0.2485
H172 H -0.2285 0.4521 0.2747
H173 H -0.1318 0.3902 0.2671
C105 C 0.0892(4) 0.5114(4) 0.5585(3)
H174 H 0.0555 0.5172 0.5171
C106 C 0.0435(5) 0.5822(5) 0.5999(3)
C107 C -0.0439(6) 0.6285(6) 0.5833(3)
H175 H -0.0798 0.6113 0.5457
C108 C -0.0804(6) 0.6985(5) 0.6193(3)
H176 H -0.1390 0.7304 0.6057
C109 C -0.0322(5) 0.7222(5) 0.6748(3)
C110 C 0.0524(6) 0.6754(6) 0.6946(3)
H177 H 0.0848 0.6905 0.7335
C111 C 0.0905(5) 0.6061(6) 0.6576(3)
H178 H 0.1491 0.5743 0.6714
C112 C -0.0934(8) 0.2928(7) 0.5664(5)
H179 H -0.0485 0.2385 0.5670
H180 H -0.1453 0.2820 0.5324
C113 C -0.1408(10) 0.3004(9) 0.6229(6)
H181 H -0.0921 0.3239 0.6556
H182 H -0.1655 0.2387 0.6322
H183 H -0.1966 0.3437 0.6188
C114 C 0.1060(6) 0.3314(5) 0.4651(3)
H184 H 0.0675 0.3883 0.4560
H185 H 0.0635 0.2761 0.4518
C115 C 0.2002(5) 0.3299(4) 0.4314(3)
H186 H 0.2474 0.3779 0.4497
H187 H 0.1824 0.3426 0.3891
H188 H 0.2309 0.2683 0.4339
P3 P 1.02088(11) 0.57734(8) -0.08717(6)
Cl4 Cl 1.30585(14) 0.94680(12) -0.16354(9)
N4 N 0.9356(3) 0.7288(3) -0.04039(18)
H4 H 0.8817 0.7046 -0.0608
O33 O 0.8019(3) 0.8805(2) -0.05934(14)
O34 O 0.6460(3) 0.8225(3) -0.06487(18)
O35 O 0.7159(2) 0.9443(2) 0.05270(16)
O36 O 0.7231(3) 1.0705(3) -0.0038(2)
O37 O 0.8058(3) 0.8229(2) 0.12775(15)
O38 O 0.7961(6) 0.8982(5) 0.2163(3)
O39 O 0.9685(2) 0.7850(2) 0.05997(14)
O40 O 1.1253(3) 0.8240(2) 0.15315(15)
O41 O 1.1478(3) 0.7454(3) 0.23729(18)
O42 O 0.9431(3) 0.5191(2) -0.06475(16)
O43 O 1.1301(3) 0.5416(3) -0.07997(18)
O44 O 1.0031(3) 0.5971(3) -0.15596(16)
C116 C 0.9330(3) 0.8087(3) -0.00027(19)
H189 H 0.9766 0.8590 -0.0135
C117 C 0.8255(4) 0.8443(3) -0.0003(2)
H190 H 0.7787 0.7921 0.0064
C118 C 0.8194(3) 0.9238(3) 0.0470(2)
H191 H 0.8540 0.9806 0.0344
C119 C 0.8662(3) 0.8972(3) 0.1082(2)
H192 H 0.8678 0.9523 0.1376
C120 C 0.9700(3) 0.8626(3) 0.1025(2)
H193 H 1.0107 0.9142 0.0881
C121 C 1.0204(3) 0.8312(3) 0.1611(2)
H194 H 1.0099 0.8772 0.1944
H195 H 0.9930 0.7699 0.1706
C122 C 0.7099(4) 0.8645(3) -0.0866(2)
C123 C 0.6992(5) 0.9002(4) -0.1499(3)
C124 C 0.7160(7) 0.8114(6) -0.1923(3)
H196 H 0.7105 0.8290 -0.2342
H197 H 0.6655 0.7636 -0.1872
H198 H 0.7824 0.7865 -0.1817
C125 C 0.5934(7) 0.9326(7) -0.1643(4)
H199 H 0.5826 0.9903 -0.1404
H200 H 0.5466 0.8841 -0.1547
H201 H 0.5825 0.9445 -0.2072
C126 C 0.7798(9) 0.9696(7) -0.1603(4)
H202 H 0.7715 1.0274 -0.1360
H203 H 0.7751 0.9834 -0.2030
H204 H 0.8451 0.9432 -0.1488
C127 C 0.6776(4) 1.0208(4) 0.0251(3)
C128 C 0.5690(4) 1.0349(4) 0.0408(3)
C129 C 0.5084(4) 0.9436(4) 0.0268(4)
H205 H 0.4391 0.9541 0.0350
H206 H 0.5367 0.8949 0.0523
H207 H 0.5107 0.9237 -0.0156
C130 C 0.5707(6) 1.0653(6) 0.1059(4)
H208 H 0.6169 1.1184 0.1148
H209 H 0.5925 1.0134 0.1306
H210 H 0.5037 1.0840 0.1149
C131 C 0.5263(5) 1.1114(5) 0.0024(5)
H211 H 0.4570 1.1222 0.0104
H212 H 0.5289 1.0927 -0.0402
H213 H 0.5653 1.1692 0.0120
C132 C 0.7701(5) 0.8338(5) 0.1814(3)
C133 C 0.7048(5) 0.7519(5) 0.1932(3)
C134 C 0.6168(5) 0.7455(6) 0.1456(4)
H214 H 0.5798 0.8041 0.1467
H215 H 0.5729 0.6936 0.1535
H216 H 0.6408 0.7349 0.1058
C135 C 0.6680(7) 0.7669(9) 0.2561(4)
H217 H 0.7253 0.7768 0.2861
H218 H 0.6301 0.7115 0.2654
H219 H 0.6252 0.8217 0.2569
C136 C 0.7694(6) 0.6641(6) 0.1911(5)
H220 H 0.7977 0.6580 0.1523
H221 H 0.7283 0.6088 0.1961
H222 H 0.8234 0.6696 0.2236
C137 C 1.1814(4) 0.7817(3) 0.1963(2)
C138 C 1.2913(4) 0.7830(4) 0.1843(2)
C139 C 1.3009(5) 0.7377(6) 0.1201(4)
H223 H 1.2502 0.7635 0.0915
H224 H 1.2912 0.6699 0.1206
H225 H 1.3672 0.7514 0.1080
C140 C 1.3276(5) 0.8809(6) 0.1844(5)
H226 H 1.3001 0.9093 0.1476
H227 H 1.4005 0.8819 0.1862
H228 H 1.3063 0.9164 0.2195
C141 C 1.3485(7) 0.7235(7) 0.2294(4)
H229 H 1.4183 0.7203 0.2207
H230 H 1.3194 0.6603 0.2267
H231 H 1.3448 0.7514 0.2701
C142 C 1.0350(4) 0.6896(3) -0.0453(2)
H232 H 1.0657 0.6787 -0.0039
C143 C 1.1021(4) 0.7562(3) -0.0741(2)
C144 C 1.0672(4) 0.8053(4) -0.1234(2)
H233 H 0.9992 0.7993 -0.1384
C145 C 1.1300(5) 0.8633(4) -0.1513(3)
H234 H 1.1050 0.8963 -0.1851
C146 C 1.2276(4) 0.8724(4) -0.1296(3)
C147 C 1.2650(5) 0.8251(5) -0.0799(3)
H235 H 1.3328 0.8332 -0.0647
C148 C 1.2031(4) 0.7661(4) -0.0526(3)
H236 H 1.2289 0.7323 -0.0193
C149 C 1.1831(6) 0.4973(5) -0.1274(3)
H237 H 1.2107 0.5454 -0.1517
H238 H 1.1372 0.4561 -0.1543
C150 C 1.2648(6) 0.4416(5) -0.0985(5)
H239 H 1.3057 0.4816 -0.0688
H240 H 1.3063 0.4167 -0.1292
H241 H 1.2365 0.3897 -0.0784
C151 C 0.9074(6) 0.5796(4) -0.1912(3)
H242 H 0.8935 0.6306 -0.2190
H243 H 0.8535 0.5782 -0.1640
C152 C 0.9103(11) 0.4873(6) -0.2266(4)
H244 H 0.9755 0.4804 -0.2424
H245 H 0.8580 0.4854 -0.2601
H246 H 0.8995 0.4361 -0.2004
Cl1 Cl 0.41242(12) 0.09633(10) 0.75352(6)
N1 N 0.7601(3) 0.3825(3) 0.90148(18)
H1 H 0.8028 0.4084 0.8797
O1 O 0.9102(3) 0.2375(2) 0.89133(16)
O2 O 1.0541(4) 0.3174(3) 0.8836(2)
O3 O 1.0291(2) 0.2101(2) 1.00010(17)
O4 O 1.0061(3) 0.0750(3) 1.0431(2)
O5 O 0.9532(3) 0.3587(2) 1.06832(15)
O6 O 0.9798(5) 0.3350(5) 1.1641(3)
O7 O 0.7665(3) 0.3554(2) 1.00287(15)
O8 O 0.6420(2) 0.3426(3) 1.09615(17)
O9 O 0.6364(3) 0.4587(4) 1.1647(2)
C1 C 0.7872(4) 0.3160(3) 0.9452(2)
H5 H 0.7454 0.2583 0.9356
C2 C 0.8968(4) 0.2897(3) 0.9469(2)
H6 H 0.9401 0.3471 0.9511
C3 C 0.9231(3) 0.2270(3) 0.9985(2)
H7 H 0.8861 0.1661 0.9903
C4 C 0.8966(4) 0.2711(3) 1.0578(2)
H8 H 0.9126 0.2284 1.0913
C5 C 0.7860(4) 0.2930(4) 1.0511(2)
H9 H 0.7471 0.2336 1.0410
C6 C 0.7494(4) 0.3408(4) 1.1069(2)
H10 H 0.7697 0.3054 1.1428
H11 H 0.7772 0.4051 1.1133
C7 C 0.9937(5) 0.2597(4) 0.8635(3)
C8 C 0.9965(5) 0.2005(4) 0.8051(3)
C9 C 0.8963(6) 0.1963(5) 0.7699(3)
H12 H 0.8485 0.1649 0.7929
H13 H 0.9010 0.1614 0.7314
H14 H 0.8739 0.2599 0.7624
C10 C 1.0770(7) 0.2425(7) 0.7700(4)
H15 H 1.0863 0.2017 0.7345
H16 H 1.1398 0.2483 0.7958
H17 H 1.0564 0.3045 0.7573
C11 C 1.0256(7) 0.1018(5) 0.8213(4)
H18 H 0.9744 0.0748 0.8439
H19 H 1.0895 0.1039 0.8461
H20 H 1.0317 0.0631 0.7844
C12 C 1.0612(4) 0.1296(3) 1.0225(3)
C13 C 1.1728(4) 0.1181(3) 1.0222(2)
C14 C 1.2202(7) 0.1993(6) 0.9903(5)
H21 H 1.1934 0.1977 0.9480
H22 H 1.2926 0.1920 0.9927
H23 H 1.2045 0.2593 1.0101
C15 C 1.1945(9) 0.0249(6) 0.9933(6)
H24 H 1.1646 0.0211 0.9515
H25 H 1.1663 -0.0247 1.0154
H26 H 1.2667 0.0172 0.9938
C16 C 1.2197(8) 0.1252(10) 1.0894(4)
H27 H 1.1917 0.0755 1.1116
H28 H 1.2044 0.1862 1.1080
H29 H 1.2920 0.1183 1.0905
C17 C 1.0060(6) 0.3766(4) 1.1188(3)
C18 C 1.0660(5) 0.4660(4) 1.1212(2)
C19 C 1.1352(5) 0.4633(5) 1.0716(3)
H30 H 1.1795 0.5183 1.0766
H31 H 1.0959 0.4633 1.0325
H32 H 1.1751 0.4065 1.0737
C20 C 0.9920(6) 0.5448(4) 1.1082(4)
H33 H 0.9372 0.5400 1.1338
H34 H 0.9656 0.5392 1.0659
H35 H 1.0260 0.6054 1.1167
C21 C 1.1252(9) 0.4803(6) 1.1809(4)
H36 H 1.0823 0.4694 1.2130
H37 H 1.1515 0.5445 1.1856
H38 H 1.1805 0.4364 1.1834
C22 C 0.5947(4) 0.4067(4) 1.1272(2)
C23 C 0.4824(4) 0.4046(3) 1.1106(2)
C24 C 0.4572(5) 0.3847(5) 1.0429(3)
H39 H 0.4896 0.4318 1.0208
H40 H 0.3849 0.3870 1.0333
H41 H 0.4809 0.3224 1.0313
C25 C 0.4401(5) 0.4975(4) 1.1290(4)
H42 H 0.4595 0.5121 1.1718
H43 H 0.3673 0.4946 1.1219
H44 H 0.4660 0.5463 1.1052
C26 C 0.4383(5) 0.3260(4) 1.1449(3)
H45 H 0.4681 0.2663 1.1335
H46 H 0.3661 0.3222 1.1348
H47 H 0.4526 0.3394 1.1883
C27 C 0.6530(4) 0.4032(4) 0.8966(2)
H48 H 0.6313 0.4066 0.9383
C28 C 0.5932(4) 0.3247(4) 0.8609(2)
C29 C 0.6254(5) 0.2836(5) 0.8090(3)
H49 H 0.6867 0.3039 0.7958
C30 C 0.5708(5) 0.2141(5) 0.7759(3)
H50 H 0.5940 0.1860 0.7404
C31 C 0.4814(4) 0.1859(4) 0.7954(2)
C32 C 0.4468(5) 0.2258(5) 0.8451(3)
H51 H 0.3850 0.2060 0.8577
C33 C 0.5032(4) 0.2966(5) 0.8777(3)
H52 H 0.4784 0.3259 0.9123
P4 P 0.62897(12) 0.51528(10) 0.86504(8)
C34 C 0.6448(7) 0.6030(7) 0.9765(4)
H53 H 0.5945 0.5560 0.9852
H54 H 0.6184 0.6666 0.9831
C35 C 0.7469(9) 0.5899(6) 1.0145(4)
H55 H 0.7378 0.5984 1.0574
H56 H 0.7953 0.6362 1.0038
H57 H 0.7715 0.5268 1.0060
C36 C 0.4497(7) 0.5829(6) 0.8314(4)
H58 H 0.3862 0.5495 0.8182
H59 H 0.4817 0.5991 0.7951
C37 C 0.4295(10) 0.6719(7) 0.8689(6)
H60 H 0.3853 0.7124 0.8448
H61 H 0.4925 0.7050 0.8813
H62 H 0.3977 0.6552 0.9047
O45 O 0.6619(4) 0.5241(5) 0.8073(3)
O46 O 0.6761(5) 0.5876(4) 0.9153(2)
O47 O 0.5135(4) 0.5244(5) 0.8672(3)
C38? C 0.6672(16) 0.4771(14) 0.7581(11)
H63? H 0.6485 0.4207 0.7319
H64? H 0.7305 0.4648 0.7823
C39? C 0.680(2) 0.5622(19) 0.7191(12)
H65? H 0.7324 0.5490 0.6922
H66? H 0.6993 0.6176 0.7454
H67? H 0.6174 0.5737 0.6952
C40? C 0.5011(14) 0.6350(9) 0.8981(6)
H68? H 0.4384 0.6478 0.8733
H69? H 0.5542 0.6767 0.8866
C41? C 0.4873(17) 0.6503(13) 0.9659(7)
H70? H 0.4689 0.7154 0.9744
H71? H 0.5498 0.6369 0.9897
H72? H 0.4346 0.6084 0.9765
O48? O 0.7113(6) 0.5853(6) 0.8759(4)
O49? O 0.5912(11) 0.4976(10) 0.7967(4)
O50? O 0.5282(8) 0.5379(9) 0.8896(7)
C153? C 1.2264(9) 0.1937(8) 1.0603(6)
C154? C 1.1987(9) 0.1173(10) 0.9557(4)
C155? C 1.1965(9) 0.0187(7) 1.0453(8)
C156? C 0.6097(12) 0.4420(10) 0.6203(7)
C157? C 0.6826(14) 0.5015(12) 0.5878(9)
C158? C 0.4449(11) 0.7315(9) 0.6686(5)
C159? C 0.3603(14) 0.7201(16) 0.7094(8)
C160? C 0.4594(17) 0.8352(8) 0.6565(9)
C161? C 0.5422(12) 0.6931(14) 0.6988(8)
H247? H 1.2093 0.2543 1.0441
H248? H 1.2984 0.1844 1.0607
H249? H 1.2070 0.1922 1.1015
H250? H 1.1849 0.1787 0.9396
H251? H 1.1580 0.0695 0.9316
H252? H 1.2693 0.1032 0.9540
H253? H 1.1809 0.0163 1.0871
H254? H 1.2673 0.0058 1.0429
H255? H 1.1563 -0.0283 1.0202
H256? H 0.5572 0.4807 0.6368
H257? H 0.6449 0.4075 0.6529
H258? H 0.7165 0.5478 0.6167
H259? H 0.6454 0.5337 0.5554
H260? H 0.7320 0.4607 0.5709
H261? H 0.2984 0.7442 0.6898
H262? H 0.3772 0.7552 0.7479
H263? H 0.3513 0.6538 0.7166
H264? H 0.3974 0.8593 0.6371
H265? H 0.5128 0.8416 0.6300
H266? H 0.4772 0.8708 0.6946
H267? H 0.5326 0.6272 0.7069
H268? H 0.5608 0.7289 0.7368
H269? H 0.5954 0.6988 0.6721
O52? O 0.4449(12) 0.6072(9) 0.6245(7)
loop_
_geom_bond_atom_site_label_1
_geom_bond_atom_site_label_2
_geom_bond_site_symmetry_1
_geom_bond_site_symmetry_2
P1 O19 1_555 1_555
P2 O30 1_555 1_555
P3 O42 1_555 1_555
Cl1 C31 1_555 1_555
Cl2 C72 1_555 1_555
Cl3 C109 1_555 1_555
Cl4 C146 1_555 1_555
N1 H1 1_555 1_555
N2 H2 1_555 1_555
N3 H3 1_555 1_555
N4 H4 1_555 1_555
O1 C2 1_555 1_555
O2 C7 1_555 1_555
O3 C3 1_555 1_555
O4 C12 1_555 1_555
O5 C4 1_555 1_555
O6 C17 1_555 1_555
O7 C1 1_555 1_555
O8 C6 1_555 1_555
O9 C22 1_555 1_555
O10 C43 1_555 1_555
O11 C48 1_555 1_555
O12 C44 1_555 1_555
O13 C53 1_555 1_555
O14 C45 1_555 1_555
O15 C58 1_555 1_555
O16 C42 1_555 1_555
O17 C47 1_555 1_555
O18 C63 1_555 1_555
O20 P1 1_555 1_555
O21 P1 1_555 1_555
O22 C80 1_555 1_555
O23 C81 1_555 1_555
O24 C90 1_555 1_555
O25 C82 1_555 1_555
O26 C95 1_555 1_555
O27 C79 1_555 1_555
O28 C84 1_555 1_555
O29 C100 1_555 1_555
O31 P2 1_555 1_555
O32 P2 1_555 1_555
O33 C117 1_555 1_555
O34 C122 1_555 1_555
O35 C118 1_555 1_555
O36 C127 1_555 1_555
O37 C119 1_555 1_555
O38 C132 1_555 1_555
O39 C116 1_555 1_555
O40 C121 1_555 1_555
O41 C137 1_555 1_555
O43 P3 1_555 1_555
O44 P3 1_555 1_555
C1 N1 1_555 1_555
H5 C1 1_555 1_555
C2 C1 1_555 1_555
H6 C2 1_555 1_555
C3 C2 1_555 1_555
H7 C3 1_555 1_555
C4 C3 1_555 1_555
H8 C4 1_555 1_555
C5 O7 1_555 1_555
H9 C5 1_555 1_555
C6 C5 1_555 1_555
H10 C6 1_555 1_555
H11 C6 1_555 1_555
C7 O1 1_555 1_555
C8 C7 1_555 1_555
C9 C8 1_555 1_555
H12 C9 1_555 1_555
H13 C9 1_555 1_555
H14 C9 1_555 1_555
C10 C8 1_555 1_555
H15 C10 1_555 1_555
H16 C10 1_555 1_555
H17 C10 1_555 1_555
C11 C8 1_555 1_555
H18 C11 1_555 1_555
H19 C11 1_555 1_555
H20 C11 1_555 1_555
C12 O3 1_555 1_555
C13 C12 1_555 1_555
C14 C13 1_555 1_555
H21 C14 1_555 1_555
H22 C14 1_555 1_555
H23 C14 1_555 1_555
C15 C13 1_555 1_555
H24 C15 1_555 1_555
H25 C15 1_555 1_555
H26 C15 1_555 1_555
C16 C13 1_555 1_555
H27 C16 1_555 1_555
H28 C16 1_555 1_555
H29 C16 1_555 1_555
C17 O5 1_555 1_555
C18 C17 1_555 1_555
C19 C18 1_555 1_555
H30 C19 1_555 1_555
H31 C19 1_555 1_555
H32 C19 1_555 1_555
C20 C18 1_555 1_555
H33 C20 1_555 1_555
H34 C20 1_555 1_555
H35 C20 1_555 1_555
C21 C18 1_555 1_555
H36 C21 1_555 1_555
H37 C21 1_555 1_555
H38 C21 1_555 1_555
C22 O8 1_555 1_555
C23 C22 1_555 1_555
C24 C23 1_555 1_555
H39 C24 1_555 1_555
H40 C24 1_555 1_555
H41 C24 1_555 1_555
C25 C23 1_555 1_555
H42 C25 1_555 1_555
H43 C25 1_555 1_555
H44 C25 1_555 1_555
C26 C23 1_555 1_555
H45 C26 1_555 1_555
H46 C26 1_555 1_555
H47 C26 1_555 1_555
C27 N1 1_555 1_555
H48 C27 1_555 1_555
C28 C27 1_555 1_555
C29 C28 1_555 1_555
H49 C29 1_555 1_555
C30 C29 1_555 1_555
H50 C30 1_555 1_555
C31 C30 1_555 1_555
C32 C31 1_555 1_555
H51 C32 1_555 1_555
C33 C28 1_555 1_555
H52 C33 1_555 1_555
P4 C27 1_555 1_555
C34 H53 1_555 1_555
H54 C34 1_555 1_555
C35 C34 1_555 1_555
H55 C35 1_555 1_555
H56 C35 1_555 1_555
H57 C35 1_555 1_555
C36 H58 1_555 1_555
H59 C36 1_555 1_555
C37 C36 1_555 1_555
H60 C37 1_555 1_555
H61 C37 1_555 1_555
H62 C37 1_555 1_555
O45 P4 1_555 1_555
O46 P4 1_555 1_555
O47 P4 1_555 1_555
C42 N2 1_555 1_555
H73 C42 1_555 1_555
C43 C42 1_555 1_555
H74 C43 1_555 1_555
C44 C43 1_555 1_555
H75 C44 1_555 1_555
C45 C44 1_555 1_555
H76 C45 1_555 1_555
C46 O16 1_555 1_555
H77 C46 1_555 1_555
C47 C46 1_555 1_555
H78 C47 1_555 1_555
H79 C47 1_555 1_555
C48 O10 1_555 1_555
C49 C48 1_555 1_555
C50 C49 1_555 1_555
H80 C50 1_555 1_555
H81 C50 1_555 1_555
H82 C50 1_555 1_555
C51 C49 1_555 1_555
H83 C51 1_555 1_555
H84 C51 1_555 1_555
H85 C51 1_555 1_555
C52 C49 1_555 1_555
H86 C52 1_555 1_555
H87 C52 1_555 1_555
H88 C52 1_555 1_555
C53 O12 1_555 1_555
C54 C53 1_555 1_555
C55 C54 1_555 1_555
H89 C55 1_555 1_555
H90 C55 1_555 1_555
H91 C55 1_555 1_555
C56 C54 1_555 1_555
H92 C56 1_555 1_555
H93 C56 1_555 1_555
H94 C56 1_555 1_555
C57 C54 1_555 1_555
H95 C57 1_555 1_555
H96 C57 1_555 1_555
H97 C57 1_555 1_555
C58 O14 1_555 1_555
C59 C58 1_555 1_555
C60 C59 1_555 1_555
H98 C60 1_555 1_555
H99 C60 1_555 1_555
H100 C60 1_555 1_555
C61 C59 1_555 1_555
H101 C61 1_555 1_555
H102 C61 1_555 1_555
H103 C61 1_555 1_555
C62 C59 1_555 1_555
H104 C62 1_555 1_555
H105 C62 1_555 1_555
H106 C62 1_555 1_555
C63 O17 1_555 1_555
C64 C63 1_555 1_555
C65 C64 1_555 1_555
H107 C65 1_555 1_555
H108 C65 1_555 1_555
H109 C65 1_555 1_555
C66 C64 1_555 1_555
H110 C66 1_555 1_555
H111 C66 1_555 1_555
H112 C66 1_555 1_555
C67 C64 1_555 1_555
H113 C67 1_555 1_555
H114 C67 1_555 1_555
H115 C67 1_555 1_555
C68 P1 1_555 1_555
H116 C68 1_555 1_555
C69 C68 1_555 1_555
C70 C69 1_555 1_555
H117 C70 1_555 1_555
C71 C70 1_555 1_555
H118 C71 1_555 1_555
C72 C71 1_555 1_555
C73 C72 1_555 1_555
H119 C73 1_555 1_555
C74 C69 1_555 1_555
H120 C74 1_555 1_555
C75 O20 1_555 1_555
H121 C75 1_555 1_555
H122 C75 1_555 1_555
C76 C75 1_555 1_555
H123 C76 1_555 1_555
H124 C76 1_555 1_555
H125 C76 1_555 1_555
C77 O21 1_555 1_555
H126 C77 1_555 1_555
H127 C77 1_555 1_555
C78 C77 1_555 1_555
H128 C78 1_555 1_555
H129 C78 1_555 1_555
H130 C78 1_555 1_555
C79 N3 1_555 1_555
H131 C79 1_555 1_555
C80 C79 1_555 1_555
H132 C80 1_555 1_555
C81 C80 1_555 1_555
H133 C81 1_555 1_555
C82 C81 1_555 1_555
H134 C82 1_555 1_555
C83 O27 1_555 1_555
H135 C83 1_555 1_555
C84 C83 1_555 1_555
H136 C84 1_555 1_555
H137 C84 1_555 1_555
C85 O22 1_555 1_555
O51 C85 1_555 1_555
C86 C85 1_555 1_555
C87 C86 1_555 1_555
H138 C87 1_555 1_555
H139 C87 1_555 1_555
H140 C87 1_555 1_555
C88 C86 1_555 1_555
H141 C88 1_555 1_555
H142 C88 1_555 1_555
H143 C88 1_555 1_555
C89 C86 1_555 1_555
H144 C89 1_555 1_555
H145 C89 1_555 1_555
H146 C89 1_555 1_555
C90 O23 1_555 1_555
C91 C90 1_555 1_555
C92 C91 1_555 1_555
H147 C92 1_555 1_555
H148 C92 1_555 1_555
H149 C92 1_555 1_555
C93 C91 1_555 1_555
H150 C93 1_555 1_555
H151 C93 1_555 1_555
H152 C93 1_555 1_555
C94 C91 1_555 1_555
H153 C94 1_555 1_555
H154 C94 1_555 1_555
H155 C94 1_555 1_555
C95 O25 1_555 1_555
C96 C95 1_555 1_555
C97 C96 1_555 1_555
H156 C97 1_555 1_555
H157 C97 1_555 1_555
H158 C97 1_555 1_555
C98 C96 1_555 1_555
H159 C98 1_555 1_555
H160 C98 1_555 1_555
H161 C98 1_555 1_555
C99 C96 1_555 1_555
H162 C99 1_555 1_555
H163 C99 1_555 1_555
H164 C99 1_555 1_555
C100 O28 1_555 1_555
C101 C100 1_555 1_555
C102 C101 1_555 1_555
H165 C102 1_555 1_555
H166 C102 1_555 1_555
H167 C102 1_555 1_555
C103 C101 1_555 1_555
H168 C103 1_555 1_555
H169 C103 1_555 1_555
H170 C103 1_555 1_555
C104 C101 1_555 1_555
H171 C104 1_555 1_555
H172 C104 1_555 1_555
H173 C104 1_555 1_555
C105 P2 1_555 1_555
H174 C105 1_555 1_555
C106 C105 1_555 1_555
C107 C106 1_555 1_555
H175 C107 1_555 1_555
C108 C107 1_555 1_555
H176 C108 1_555 1_555
C109 C108 1_555 1_555
C110 C109 1_555 1_555
H177 C110 1_555 1_555
C111 C106 1_555 1_555
H178 C111 1_555 1_555
C112 O31 1_555 1_555
H179 C112 1_555 1_555
H180 C112 1_555 1_555
C113 C112 1_555 1_555
H181 C113 1_555 1_555
H182 C113 1_555 1_555
H183 C113 1_555 1_555
C114 O32 1_555 1_555
H184 C114 1_555 1_555
H185 C114 1_555 1_555
C115 C114 1_555 1_555
H186 C115 1_555 1_555
H187 C115 1_555 1_555
H188 C115 1_555 1_555
C116 N4 1_555 1_555
H189 C116 1_555 1_555
C117 C116 1_555 1_555
H190 C117 1_555 1_555
C118 C117 1_555 1_555
H191 C118 1_555 1_555
C119 C118 1_555 1_555
H192 C119 1_555 1_555
C120 O39 1_555 1_555
H193 C120 1_555 1_555
C121 C120 1_555 1_555
H194 C121 1_555 1_555
H195 C121 1_555 1_555
C122 O33 1_555 1_555
C123 C122 1_555 1_555
C124 C123 1_555 1_555
H196 C124 1_555 1_555
H197 C124 1_555 1_555
H198 C124 1_555 1_555
C125 C123 1_555 1_555
H199 C125 1_555 1_555
H200 C125 1_555 1_555
H201 C125 1_555 1_555
C126 C123 1_555 1_555
H202 C126 1_555 1_555
H203 C126 1_555 1_555
H204 C126 1_555 1_555
C127 O35 1_555 1_555
C128 C127 1_555 1_555
C129 C128 1_555 1_555
H205 C129 1_555 1_555
H206 C129 1_555 1_555
H207 C129 1_555 1_555
C130 C128 1_555 1_555
H208 C130 1_555 1_555
H209 C130 1_555 1_555
H210 C130 1_555 1_555
C131 C128 1_555 1_555
H211 C131 1_555 1_555
H212 C131 1_555 1_555
H213 C131 1_555 1_555
C132 O37 1_555 1_555
C133 C132 1_555 1_555
C134 C133 1_555 1_555
H214 C134 1_555 1_555
H215 C134 1_555 1_555
H216 C134 1_555 1_555
C135 C133 1_555 1_555
H217 C135 1_555 1_555
H218 C135 1_555 1_555
H219 C135 1_555 1_555
C136 C133 1_555 1_555
H220 C136 1_555 1_555
H221 C136 1_555 1_555
H222 C136 1_555 1_555
C137 O40 1_555 1_555
C138 C137 1_555 1_555
C139 C138 1_555 1_555
H223 C139 1_555 1_555
H224 C139 1_555 1_555
H225 C139 1_555 1_555
C140 C138 1_555 1_555
H226 C140 1_555 1_555
H227 C140 1_555 1_555
H228 C140 1_555 1_555
C141 C138 1_555 1_555
H229 C141 1_555 1_555
H230 C141 1_555 1_555
H231 C141 1_555 1_555
C142 P3 1_555 1_555
H232 C142 1_555 1_555
C143 C142 1_555 1_555
C144 C143 1_555 1_555
H233 C144 1_555 1_555
C145 C144 1_555 1_555
H234 C145 1_555 1_555
C146 C145 1_555 1_555
C147 C146 1_555 1_555
H235 C147 1_555 1_555
C148 C143 1_555 1_555
H236 C148 1_555 1_555
C149 O43 1_555 1_555
H237 C149 1_555 1_555
H238 C149 1_555 1_555
C150 C149 1_555 1_555
H239 C150 1_555 1_555
H240 C150 1_555 1_555
H241 C150 1_555 1_555
C151 O44 1_555 1_555
H242 C151 1_555 1_555
H243 C151 1_555 1_555
C152 C151 1_555 1_555
H244 C152 1_555 1_555
H245 C152 1_555 1_555
H246 C152 1_555 1_555
N2 C68 1_555 1_555
N3 C105 1_555 1_555
N4 C142 1_555 1_555
C4 C5 1_555 1_555
C32 C33 1_555 1_555
C34 O46 1_555 1_555
C36 O47 1_555 1_555
C45 C46 1_555 1_555
C73 C74 1_555 1_555
C82 C83 1_555 1_555
C110 C111 1_555 1_555
C119 C120 1_555 1_555
C147 C148 1_555 1_555

#END
