
#######################################################################
#
#                 Cambridge Crystallographic Data Centre
#                                CCDC 
#
#######################################################################
#
# If this CIF has been generated from an entry in the Cambridge 
# Structural Database, then it will include bibliographic, chemical, 
# crystal, experimental, refinement or atomic coordinate data resulting 
# from the CCDC's data processing and validation procedures.
#
#######################################################################

data_MOLVAM
_chemical_formula_moiety         'C11 H10 Cl3 N1 O4'
_chemical_name_systematic        6-methoxy-3-nitro-4-(trichloromethyl)chromane
_symmetry_cell_setting           orthorhombic
_symmetry_space_group_name_H-M   'P c a 21'
_symmetry_Int_Tables_number      29
_space_group_name_Hall           'P 2c -2ac'
loop_
_symmetry_equiv_pos_site_id
_symmetry_equiv_pos_as_xyz
1 x,y,z
2 -x,-y,1/2+z
3 1/2-x,y,1/2+z
4 1/2+x,-y,z
_cell_length_a                   13.4971(2)
_cell_length_b                   5.70637(11)
_cell_length_c                   32.7029(6)
_cell_angle_alpha                90
_cell_angle_beta                 90
_cell_angle_gamma                90
_cell_volume                     2518.76
_exptl_crystal_colour            colorless
_exptl_crystal_description       plate
_cell_formula_units_Z            8
loop_
_atom_site_label
_atom_site_type_symbol
_atom_site_fract_x
_atom_site_fract_y
_atom_site_fract_z
Cl1 Cl 0.73710(7) 0.51359(17) 0.27389(4)
Cl2 Cl 0.78105(7) 0.97344(19) 0.24197(4)
Cl3 Cl 0.78725(7) 0.8952(2) 0.32847(4)
O1 O 0.4958(2) 0.4764(6) 0.27865(15)
O2 O 0.4743(3) 0.8725(7) 0.38207(11)
O3 O 0.5728(3) 1.1355(6) 0.35718(11)
O4 O 0.5069(2) 1.0975(6) 0.14931(10)
N1 N 0.5354(3) 0.9401(8) 0.35706(12)
C1 C 0.7224(3) 0.8189(8) 0.28280(13)
C2 C 0.4772(3) 0.6075(8) 0.31542(13)
H1 H 0.4655 0.4986 0.3385
H2 H 0.4173 0.7055 0.3119
C3 C 0.5670(3) 0.7640(8) 0.32478(13)
H3 H 0.6198 0.6628 0.3370
C4 C 0.6113(3) 0.8873(7) 0.28695(12)
H4 H 0.6079 1.0602 0.2918
C5 C 0.5520(3) 0.9918(8) 0.21584(18)
H5 H 0.5852 1.1381 0.2180
C6 C 0.5013(3) 0.9333(9) 0.17995(14)
C7 C 0.4519(3) 0.7194(8) 0.17646(14)
H6 H 0.4194 0.6782 0.1517
C8 C 0.4509(3) 0.5664(9) 0.20991(15)
H7 H 0.4163 0.4218 0.2081
C9 C 0.4999(3) 0.6249(8) 0.24531(15)
C10 C 0.5535(3) 0.8344(8) 0.24838(13)
C11 C 0.4581(4) 1.0447(11) 0.11194(18)
H8 H 0.4717 1.1688 0.0920
H9 H 0.3866 1.0342 0.1167
H10 H 0.4825 0.8947 0.1014
Cl4 Cl 0.50266(8) 0.01039(18) 0.49683(5)
Cl5 Cl 0.46150(8) 0.4694(2) 0.53016(3)
Cl6 Cl 0.45134(7) 0.39745(19) 0.44361(3)
O5 O 0.7428(2) -0.0334(6) 0.49035(13)
O6 O 0.7641(3) 0.3746(7) 0.38882(12)
O7 O 0.6639(3) 0.6327(6) 0.41376(10)
O8 O 0.7408(3) 0.5753(7) 0.62176(10)
N2 N 0.7026(3) 0.4390(8) 0.41369(12)
C12 C 0.5177(3) 0.3175(8) 0.48843(14)
C13 C 0.7613(3) 0.1016(8) 0.45461(14)
H11 H 0.7733 -0.0038 0.4311
H12 H 0.8212 0.1992 0.4587
C14 C 0.6717(3) 0.2597(7) 0.44568(13)
H13 H 0.6183 0.1599 0.4336
C15 C 0.6285(3) 0.3831(7) 0.48415(13)
H14 H 0.6329 0.5563 0.4798
C16 C 0.6915(3) 0.4770(8) 0.55527(16)
H15 H 0.6598 0.6254 0.5537
C17 C 0.7423(3) 0.4132(8) 0.59071(14)
C18 C 0.7903(3) 0.1969(9) 0.59305(14)
H16 H 0.8235 0.1519 0.6174
C19 C 0.7892(3) 0.0478(10) 0.55938(16)
H17 H 0.8228 -0.0982 0.5605
C20 C 0.7389(3) 0.1122(7) 0.52417(14)
C21 C 0.6871(3) 0.3228(8) 0.52217(12)
C22 C 0.7981(4) 0.5217(10) 0.65772(19)
H18 H 0.8669 0.4898 0.6498
H19 H 0.7702 0.3834 0.6713
H20 H 0.7963 0.6553 0.6765
loop_
_geom_bond_atom_site_label_1
_geom_bond_atom_site_label_2
_geom_bond_site_symmetry_1
_geom_bond_site_symmetry_2
Cl1 C1 1_555 1_555
Cl2 C1 1_555 1_555
Cl3 C1 1_555 1_555
O1 C2 1_555 1_555
O2 N1 1_555 1_555
O3 N1 1_555 1_555
O4 C6 1_555 1_555
N1 C3 1_555 1_555
C1 C4 1_555 1_555
C2 H1 1_555 1_555
H2 C2 1_555 1_555
C3 C2 1_555 1_555
H3 C3 1_555 1_555
C4 C3 1_555 1_555
H4 C4 1_555 1_555
C5 H5 1_555 1_555
C6 C5 1_555 1_555
C7 C6 1_555 1_555
H6 C7 1_555 1_555
C8 C7 1_555 1_555
H7 C8 1_555 1_555
C9 O1 1_555 1_555
C10 C4 1_555 1_555
C11 O4 1_555 1_555
H8 C11 1_555 1_555
H9 C11 1_555 1_555
H10 C11 1_555 1_555
Cl4 C12 1_555 1_555
Cl5 C12 1_555 1_555
Cl6 C12 1_555 1_555
O5 C13 1_555 1_555
O6 N2 1_555 1_555
O7 N2 1_555 1_555
O8 C17 1_555 1_555
N2 C14 1_555 1_555
C12 C15 1_555 1_555
C13 H11 1_555 1_555
H12 C13 1_555 1_555
C14 C13 1_555 1_555
H13 C14 1_555 1_555
C15 C14 1_555 1_555
H14 C15 1_555 1_555
C16 H15 1_555 1_555
C17 C16 1_555 1_555
C18 C17 1_555 1_555
H16 C18 1_555 1_555
C19 C18 1_555 1_555
H17 C19 1_555 1_555
C20 O5 1_555 1_555
C21 C15 1_555 1_555
C22 O8 1_555 1_555
H18 C22 1_555 1_555
H19 C22 1_555 1_555
H20 C22 1_555 1_555
C5 C10 1_555 1_555
C8 C9 1_555 1_555
C9 C10 1_555 1_555
C16 C21 1_555 1_555
C19 C20 1_555 1_555
C20 C21 1_555 1_555

#END
