
#######################################################################
#
#                 Cambridge Crystallographic Data Centre
#                                CCDC 
#
#######################################################################
#
# If this CIF has been generated from an entry in the Cambridge 
# Structural Database, then it will include bibliographic, chemical, 
# crystal, experimental, refinement or atomic coordinate data resulting 
# from the CCDC's data processing and validation procedures.
#
#######################################################################

data_MOMHON
_chemical_formula_moiety         'C21 H25 N1 O2'
_chemical_name_systematic        
1-(3,4-Dimethyl-6-nitro-5-phenylhex-2-en-1-yl)-4-methylbenzene
_symmetry_cell_setting           monoclinic
_symmetry_space_group_name_H-M   'P 21/n'
_symmetry_Int_Tables_number      14
_space_group_name_Hall           '-P 2yn'
loop_
_symmetry_equiv_pos_site_id
_symmetry_equiv_pos_as_xyz
1 x,y,z
2 1/2-x,1/2+y,1/2-z
3 -x,-y,-z
4 1/2+x,1/2-y,1/2+z
_cell_length_a                   9.6634(18)
_cell_length_b                   24.337(5)
_cell_length_c                   15.831(3)
_cell_angle_alpha                90
_cell_angle_beta                 98.145(3)
_cell_angle_gamma                90
_cell_volume                     3685.55
_exptl_crystal_colour            colorless
_exptl_crystal_description       plate
_cell_formula_units_Z            8
loop_
_atom_site_label
_atom_site_type_symbol
_atom_site_fract_x
_atom_site_fract_y
_atom_site_fract_z
C1 C 0.1690(2) -0.04039(8) 0.76201(12)
H1 H 0.1809 -0.0616 0.7102
H2 H 0.2621 -0.0264 0.7870
C2 C 0.07289(18) 0.00819(7) 0.73655(11)
H3 H -0.0184 -0.0065 0.7077
C3 C 0.13852(18) 0.04378(7) 0.67068(11)
H4 H 0.2312 0.0572 0.6994
C4 C 0.04949(18) 0.09373(7) 0.64401(11)
C5 C 0.10262(19) 0.14361(8) 0.65732(11)
H5 H 0.1966 0.1454 0.6846
C6 C 0.0326(2) 0.19798(8) 0.63452(12)
H6 H -0.0685 0.1919 0.6162
H7 H 0.0723 0.2144 0.5860
C7 C 0.04475(18) 0.04122(7) 0.81370(11)
C8 C 0.15229(19) 0.06575(8) 0.86830(11)
H8 H 0.2459 0.0622 0.8571
C9 C 0.1250(2) 0.09530(8) 0.93882(12)
H9 H 0.1999 0.1117 0.9755
C10 C -0.0099(2) 0.10106(9) 0.95630(13)
H10 H -0.0283 0.1209 1.0052
C11 C -0.1171(2) 0.07776(11) 0.90196(15)
H11 H -0.2107 0.0822 0.9127
C12 C -0.0904(2) 0.04787(9) 0.83160(13)
H12 H -0.1659 0.0317 0.7951
C13 C 0.1648(2) 0.01003(8) 0.59231(11)
H13 H 0.0809 -0.0112 0.5712
H14 H 0.2434 -0.0151 0.6084
H15 H 0.1870 0.0349 0.5474
C14 C -0.0966(2) 0.08310(9) 0.59951(14)
H16 H -0.1445 0.1182 0.5862
H17 H -0.1482 0.0614 0.6368
H18 H -0.0920 0.0628 0.5465
C15 C 0.05176(18) 0.23762(8) 0.70901(11)
C16 C 0.08969(18) 0.29211(7) 0.69888(12)
H19 H 0.1027 0.3050 0.6439
C17 C 0.10877(19) 0.32778(8) 0.76755(12)
H20 H 0.1343 0.3648 0.7588
C18 C 0.09142(19) 0.31064(8) 0.84907(12)
C19 C 0.05214(18) 0.25610(8) 0.85901(12)
H21 H 0.0384 0.2433 0.9139
C20 C 0.03274(18) 0.22019(8) 0.79051(12)
H22 H 0.0062 0.1833 0.7991
C21 C 0.1161(3) 0.34889(10) 0.92418(14)
H23 H 0.1951 0.3731 0.9181
H24 H 0.1373 0.3274 0.9768
H25 H 0.0321 0.3711 0.9267
N1 N 0.1150(2) -0.07795(7) 0.82505(11)
O1 O 0.2009(2) -0.10248(8) 0.87449(11)
O2 O -0.01177(18) -0.08350(6) 0.82265(9)
C22 C 0.1953(2) 0.16616(8) 0.30163(12)
H26 H 0.2078 0.1401 0.2553
H27 H 0.2875 0.1826 0.3225
C23 C 0.09463(18) 0.21155(7) 0.26581(11)
H28 H 0.0050 0.1940 0.2400
C24 C 0.15741(18) 0.24267(7) 0.19369(11)
H29 H 0.2451 0.2611 0.2208
C25 C 0.05930(18) 0.28748(7) 0.15470(11)
C26 C 0.09956(19) 0.33954(8) 0.16253(11)
H30 H 0.1899 0.3455 0.1935
C27 C 0.0218(2) 0.39046(8) 0.12907(12)
H31 H -0.0778 0.3811 0.1113
H32 H 0.0604 0.4037 0.0781
C28 C 0.06290(18) 0.25078(7) 0.33521(11)
C29 C 0.16957(19) 0.27714(8) 0.38901(11)
H33 H 0.2643 0.2703 0.3826
C30 C 0.13923(19) 0.31314(8) 0.45148(11)
H34 H 0.2130 0.3306 0.4878
C31 C 0.0017(2) 0.32382(8) 0.46112(11)
H35 H -0.0191 0.3485 0.5040
C32 C -0.1053(2) 0.29836(8) 0.40805(12)
H36 H -0.1998 0.3058 0.4142
C33 C -0.07462(19) 0.26197(8) 0.34595(12)
H37 H -0.1488 0.2444 0.3102
C34 C 0.1979(2) 0.20350(8) 0.12501(12)
H38 H 0.1198 0.1787 0.1063
H39 H 0.2800 0.1820 0.1488
H40 H 0.2199 0.2249 0.0762
C35 C -0.07993(19) 0.26926(8) 0.10696(12)
H41 H -0.1380 0.2543 0.1474
H42 H -0.0646 0.2409 0.0654
H43 H -0.1274 0.3008 0.0771
C36 C 0.03192(18) 0.43582(8) 0.19485(11)
C37 C 0.05720(19) 0.49002(8) 0.17393(13)
H44 H 0.0666 0.4993 0.1167
C38 C 0.0688(2) 0.53082(8) 0.23588(14)
H45 H 0.0852 0.5677 0.2204
C39 C 0.0566(2) 0.51833(9) 0.32036(13)
C40 C 0.03098(19) 0.46441(9) 0.34072(12)
H46 H 0.0214 0.4552 0.3979
C41 C 0.01912(18) 0.42362(8) 0.27950(12)
H47 H 0.0020 0.3868 0.2952
C42 C 0.0721(3) 0.56041(11) 0.38960(18)
H48 H -0.0206 0.5726 0.4001
H49 H 0.1245 0.5919 0.3722
H50 H 0.1225 0.5444 0.4419
N2 N 0.1443(2) 0.13539(7) 0.37315(12)
O3 O 0.2320(2) 0.12108(10) 0.43206(14)
O4 O 0.01961(17) 0.12541(6) 0.36889(10)
H51? H 0.0656 0.5461 0.3629
C43? C 0.0616(14) 0.5081(6) 0.0784(8)
H52? H 0.0915 0.5465 0.0771
H53? H -0.0318 0.5042 0.0456
H54? H 0.1277 0.4847 0.0534
loop_
_geom_bond_atom_site_label_1
_geom_bond_atom_site_label_2
_geom_bond_site_symmetry_1
_geom_bond_site_symmetry_2
C1 H1 1_555 1_555
H2 C1 1_555 1_555
C2 C1 1_555 1_555
H3 C2 1_555 1_555
C3 C2 1_555 1_555
H4 C3 1_555 1_555
C4 C3 1_555 1_555
C5 C4 1_555 1_555
H5 C5 1_555 1_555
C6 C5 1_555 1_555
H6 C6 1_555 1_555
H7 C6 1_555 1_555
C7 C2 1_555 1_555
C8 C7 1_555 1_555
H8 C8 1_555 1_555
C9 C8 1_555 1_555
H9 C9 1_555 1_555
C10 C9 1_555 1_555
H10 C10 1_555 1_555
C11 C10 1_555 1_555
H11 C11 1_555 1_555
C12 C7 1_555 1_555
H12 C12 1_555 1_555
C13 C3 1_555 1_555
H13 C13 1_555 1_555
H14 C13 1_555 1_555
H15 C13 1_555 1_555
C14 C4 1_555 1_555
H16 C14 1_555 1_555
H17 C14 1_555 1_555
H18 C14 1_555 1_555
C15 C6 1_555 1_555
C16 C15 1_555 1_555
H19 C16 1_555 1_555
C17 C16 1_555 1_555
H20 C17 1_555 1_555
C18 C17 1_555 1_555
C19 C18 1_555 1_555
H21 C19 1_555 1_555
C20 C15 1_555 1_555
H22 C20 1_555 1_555
C21 C18 1_555 1_555
H23 C21 1_555 1_555
H24 C21 1_555 1_555
H25 C21 1_555 1_555
N1 C1 1_555 1_555
O1 N1 1_555 1_555
O2 N1 1_555 1_555
C22 H26 1_555 1_555
H27 C22 1_555 1_555
C23 C22 1_555 1_555
H28 C23 1_555 1_555
C24 C23 1_555 1_555
H29 C24 1_555 1_555
C25 C24 1_555 1_555
C26 C25 1_555 1_555
H30 C26 1_555 1_555
C27 C26 1_555 1_555
H31 C27 1_555 1_555
H32 C27 1_555 1_555
C28 C23 1_555 1_555
C29 C28 1_555 1_555
H33 C29 1_555 1_555
C30 C29 1_555 1_555
H34 C30 1_555 1_555
C31 C30 1_555 1_555
H35 C31 1_555 1_555
C32 C31 1_555 1_555
H36 C32 1_555 1_555
C33 C28 1_555 1_555
H37 C33 1_555 1_555
C34 C24 1_555 1_555
H38 C34 1_555 1_555
H39 C34 1_555 1_555
H40 C34 1_555 1_555
C35 C25 1_555 1_555
H41 C35 1_555 1_555
H42 C35 1_555 1_555
H43 C35 1_555 1_555
C36 C27 1_555 1_555
C37 C36 1_555 1_555
H44 C37 1_555 1_555
C38 C37 1_555 1_555
H45 C38 1_555 1_555
C39 C38 1_555 1_555
C40 C39 1_555 1_555
H46 C40 1_555 1_555
C41 C36 1_555 1_555
H47 C41 1_555 1_555
C42 C39 1_555 1_555
H48 C42 1_555 1_555
H49 C42 1_555 1_555
H50 C42 1_555 1_555
N2 C22 1_555 1_555
O3 N2 1_555 1_555
O4 N2 1_555 1_555
C11 C12 1_555 1_555
C19 C20 1_555 1_555
C32 C33 1_555 1_555
C40 C41 1_555 1_555

#END
