
#######################################################################
#
#                 Cambridge Crystallographic Data Centre
#                                CCDC 
#
#######################################################################
#
# If this CIF has been generated from an entry in the Cambridge 
# Structural Database, then it will include bibliographic, chemical, 
# crystal, experimental, refinement or atomic coordinate data resulting 
# from the CCDC's data processing and validation procedures.
#
#######################################################################

data_MOMJOP
_chemical_formula_moiety         'C21 H17 N1 O3'
_chemical_name_systematic        
2-Ethyl-6-(4-methylphenoxy)-1H-benzo[de]isoquinoline-1,3(2H)-dione
_symmetry_cell_setting           monoclinic
_symmetry_space_group_name_H-M   'P 21/c'
_symmetry_Int_Tables_number      14
_space_group_name_Hall           '-P 2ybc'
loop_
_symmetry_equiv_pos_site_id
_symmetry_equiv_pos_as_xyz
1 x,y,z
2 -x,1/2+y,1/2-z
3 -x,-y,-z
4 x,1/2-y,1/2+z
_cell_length_a                   8.918(3)
_cell_length_b                   7.922(3)
_cell_length_c                   24.009(8)
_cell_angle_alpha                90
_cell_angle_beta                 99.595(10)
_cell_angle_gamma                90
_cell_volume                     1672.47
_cell_formula_units_Z            4
loop_
_atom_site_label
_atom_site_type_symbol
_atom_site_fract_x
_atom_site_fract_y
_atom_site_fract_z
N1 N 0.4424(2) 0.5729(2) 0.38115(7)
C1 C 0.4380(2) 0.7326(2) 0.48560(8)
C2 C 0.2995(2) 0.6864(2) 0.45141(8)
C3 C 0.4381(2) 0.8126(2) 0.53849(8)
O1 O 0.30372(17) 0.9168(2) 0.60724(6)
C4 C 0.5787(2) 0.7017(2) 0.46753(9)
C5 C 0.7122(2) 0.7481(3) 0.50090(10)
H1 H 0.8041 0.7256 0.4889
O2 O 0.18427(18) 0.5651(2) 0.36488(7)
C6 C 0.1646(2) 0.7177(3) 0.47009(9)
H2 H 0.0734 0.6868 0.4476
C7 C 0.5818(2) 0.6166(2) 0.41314(9)
C8 C 0.1750(2) 0.9175(3) 0.63440(8)
C9 C 0.3002(2) 0.6045(2) 0.39672(9)
C10 C 0.5780(2) 0.8600(3) 0.57123(9)
H3 H 0.5792 0.9132 0.6058
O3 O 0.70034(18) 0.5850(2) 0.39609(7)
C11 C 0.1169(3) 1.0699(3) 0.64670(9)
H4 H 0.1565 1.1698 0.6349
C12 C 0.1619(2) 0.7948(3) 0.52209(9)
H5 H 0.0694 0.8159 0.5338
C13 C 0.2949(2) 0.8397(3) 0.55589(8)
C14 C -0.0008(2) 0.7742(3) 0.68167(8)
H6 H -0.0402 0.6740 0.6933
C15 C -0.0622(2) 0.9262(3) 0.69520(9)
C16 C 0.1179(2) 0.7678(3) 0.65116(9)
H7 H 0.1580 0.6648 0.6422
C17 C -0.0021(3) 1.0732(3) 0.67710(10)
H8 H -0.0425 1.1765 0.6855
C18 C 0.7121(2) 0.8285(3) 0.55256(10)
H9 H 0.8037 0.8609 0.5744
C19 C -0.1924(3) 0.9315(3) 0.72844(12)
H10 H -0.2197 1.0468 0.7339
H11 H -0.1616 0.8786 0.7645
H12 H -0.2783 0.8726 0.7080
C20 C 0.4439(3) 0.4884(3) 0.32642(10)
H13 H 0.3591 0.4103 0.3191
H14 H 0.5370 0.4237 0.3284
C21 C 0.4330(4) 0.6126(4) 0.27850(12)
H15 H 0.4342 0.5529 0.2438
H16 H 0.5179 0.6887 0.2852
H17 H 0.3401 0.6754 0.2759
loop_
_geom_bond_atom_site_label_1
_geom_bond_atom_site_label_2
_geom_bond_site_symmetry_1
_geom_bond_site_symmetry_2
N1 C7 1_555 1_555
C1 C2 1_555 1_555
C2 C6 1_555 1_555
C3 C1 1_555 1_555
O1 C8 1_555 1_555
C4 C1 1_555 1_555
C5 C4 1_555 1_555
H1 C5 1_555 1_555
O2 C9 1_555 1_555
C6 H2 1_555 1_555
C7 C4 1_555 1_555
C8 C11 1_555 1_555
C9 N1 1_555 1_555
C10 C3 1_555 1_555
H3 C10 1_555 1_555
O3 C7 1_555 1_555
C11 H4 1_555 1_555
C12 C6 1_555 1_555
H5 C12 1_555 1_555
C13 C3 1_555 1_555
C14 H6 1_555 1_555
C15 C14 1_555 1_555
C16 C8 1_555 1_555
H7 C16 1_555 1_555
C17 C11 1_555 1_555
H8 C17 1_555 1_555
C18 C5 1_555 1_555
H9 C18 1_555 1_555
C19 C15 1_555 1_555
H10 C19 1_555 1_555
H11 C19 1_555 1_555
H12 C19 1_555 1_555
C20 N1 1_555 1_555
H13 C20 1_555 1_555
H14 C20 1_555 1_555
C21 C20 1_555 1_555
H15 C21 1_555 1_555
H16 C21 1_555 1_555
H17 C21 1_555 1_555
C2 C9 1_555 1_555
O1 C13 1_555 1_555
C10 C18 1_555 1_555
C12 C13 1_555 1_555
C14 C16 1_555 1_555
C15 C17 1_555 1_555

#END
