
#######################################################################
#
#                 Cambridge Crystallographic Data Centre
#                                CCDC 
#
#######################################################################
#
# If this CIF has been generated from an entry in the Cambridge 
# Structural Database, then it will include bibliographic, chemical, 
# crystal, experimental, refinement or atomic coordinate data resulting 
# from the CCDC's data processing and validation procedures.
#
#######################################################################

data_MOMMUX
_chemical_formula_moiety         'C10 H11 N3'
_chemical_name_systematic        3-(2'-Amino-3'-methylphenyl)-1H-pyrazole
_symmetry_cell_setting           monoclinic
_symmetry_space_group_name_H-M   'C 2'
_symmetry_Int_Tables_number      5
_space_group_name_Hall           'C 2y'
loop_
_symmetry_equiv_pos_site_id
_symmetry_equiv_pos_as_xyz
1 x,y,z
2 -x,y,-z
3 1/2+x,1/2+y,z
4 1/2-x,1/2+y,-z
_cell_length_a                   25.9750(3)
_cell_length_b                   9.5820(6)
_cell_length_c                   7.8299(7)
_cell_angle_alpha                90
_cell_angle_beta                 107.541(3)
_cell_angle_gamma                90
_cell_volume                     1858.19
_exptl_crystal_colour            colorless
_exptl_crystal_description       'Cut Block'
_chemical_melting_point          111deg.C
_cell_formula_units_Z            8
_exptl_crystal_recrystallization_method ethanol/water
loop_
_atom_site_label
_atom_site_type_symbol
_atom_site_fract_x
_atom_site_fract_y
_atom_site_fract_z
N1 N 0.46088(11) 0.5428(3) 0.1762(3)
N2 N 0.48598(12) 0.6667(3) 0.2246(4)
H1 H 0.5204(15) 0.686(4) 0.215(5)
N3 N 0.41780(11) 0.3000(4) 0.0037(4)
H2 H 0.4414(14) 0.383(3) 0.013(4)
H3 H 0.4152(14) 0.245(4) -0.076(5)
C1 C 0.45560(18) 0.7558(4) 0.2865(4)
H4 H 0.4690(15) 0.848(4) 0.332(5)
C2 C 0.40901(18) 0.6882(4) 0.2790(5)
H5 H 0.3799(15) 0.725(3) 0.311(5)
C3 C 0.41330(13) 0.5546(3) 0.2097(4)
C4 C 0.37288(12) 0.4432(4) 0.1735(4)
C5 C 0.37397(12) 0.3248(3) 0.0690(4)
C6 C 0.33258(13) 0.2241(4) 0.0364(4)
C7 C 0.29017(13) 0.2453(4) 0.1044(4)
H6 H 0.2616 0.1791 0.0797
C8 C 0.28816(15) 0.3602(4) 0.2075(5)
H7 H 0.2588 0.3725 0.2546
C9 C 0.32918(14) 0.4575(4) 0.2418(4)
H8 H 0.3277 0.5364 0.3138
C10 C 0.33550(17) 0.0960(4) -0.0693(5)
H9 H 0.3051 0.0345 -0.0727
H10 H 0.3695 0.0470 -0.0129
H11 H 0.3339 0.1226 -0.1917
N4 N 0.03905(11) 0.5427(3) 0.2542(3)
N5 N 0.01405(12) 0.6673(3) 0.2526(4)
H12 H -0.0181(15) 0.679(4) 0.184(5)
N6 N 0.08209(11) 0.3002(4) 0.1678(3)
H13 H 0.0561(14) 0.388(3) 0.134(4)
H14 H 0.0865(14) 0.249(4) 0.094(5)
C11 C 0.04471(18) 0.7566(4) 0.3757(5)
H15 H 0.0305(15) 0.851(4) 0.386(5)
C12 C 0.09126(17) 0.6890(4) 0.4617(5)
H16 H 0.1217(14) 0.733(3) 0.555(4)
C13 C 0.08658(13) 0.5544(3) 0.3823(4)
C14 C 0.12693(12) 0.4434(4) 0.4275(4)
C15 C 0.12596(12) 0.3244(4) 0.3215(4)
C16 C 0.16741(13) 0.2235(4) 0.3712(4)
C17 C 0.20998(14) 0.2455(4) 0.5243(4)
H17 H 0.2386 0.1795 0.5564
C18 C 0.21215(15) 0.3605(4) 0.6323(5)
H18 H 0.2415 0.3728 0.7383
C19 C 0.17104(14) 0.4574(4) 0.5838(4)
H19 H 0.1725 0.5364 0.6584
C20 C 0.16435(17) 0.0961(4) 0.2597(5)
H20 H 0.1945 0.0339 0.3176
H21 H 0.1664 0.1227 0.1411
H22 H 0.1302 0.0478 0.2471
loop_
_geom_bond_atom_site_label_1
_geom_bond_atom_site_label_2
_geom_bond_site_symmetry_1
_geom_bond_site_symmetry_2
N1 N2 1_555 1_555
N2 H1 1_555 1_555
N3 H2 1_555 1_555
H3 N3 1_555 1_555
C1 N2 1_555 1_555
H4 C1 1_555 1_555
C2 C1 1_555 1_555
H5 C2 1_555 1_555
C3 N1 1_555 1_555
C4 C3 1_555 1_555
C5 N3 1_555 1_555
C6 C5 1_555 1_555
C7 C6 1_555 1_555
H6 C7 1_555 1_555
C8 C7 1_555 1_555
H7 C8 1_555 1_555
C9 C4 1_555 1_555
H8 C9 1_555 1_555
C10 C6 1_555 1_555
H9 C10 1_555 1_555
H10 C10 1_555 1_555
H11 C10 1_555 1_555
N4 N5 1_555 1_555
N5 H12 1_555 1_555
N6 H13 1_555 1_555
H14 N6 1_555 1_555
C11 N5 1_555 1_555
H15 C11 1_555 1_555
C12 C11 1_555 1_555
H16 C12 1_555 1_555
C13 N4 1_555 1_555
C14 C13 1_555 1_555
C15 N6 1_555 1_555
C16 C15 1_555 1_555
C17 C16 1_555 1_555
H17 C17 1_555 1_555
C18 C17 1_555 1_555
H18 C18 1_555 1_555
C19 C14 1_555 1_555
H19 C19 1_555 1_555
C20 C16 1_555 1_555
H20 C20 1_555 1_555
H21 C20 1_555 1_555
H22 C20 1_555 1_555
C2 C3 1_555 1_555
C4 C5 1_555 1_555
C8 C9 1_555 1_555
C12 C13 1_555 1_555
C14 C15 1_555 1_555
C18 C19 1_555 1_555

#END
