
#######################################################################
#
#                 Cambridge Crystallographic Data Centre
#                                CCDC 
#
#######################################################################
#
# If this CIF has been generated from an entry in the Cambridge 
# Structural Database, then it will include bibliographic, chemical, 
# crystal, experimental, refinement or atomic coordinate data resulting 
# from the CCDC's data processing and validation procedures.
#
#######################################################################

data_MOMPAH
_chemical_formula_moiety         'C24 H25 N3 O2'
_chemical_name_systematic        
'ethyl cyano(5,5-dimethyl-3-(2-(4-(1H-pyrazol-1-yl)phenyl)vinyl)cyclohex-2-en-1-ylidene)acetate'
_symmetry_cell_setting           orthorhombic
_symmetry_space_group_name_H-M   'P n a 21'
_symmetry_Int_Tables_number      33
_space_group_name_Hall           'P 2c -2n'
loop_
_symmetry_equiv_pos_site_id
_symmetry_equiv_pos_as_xyz
1 x,y,z
2 -x,-y,1/2+z
3 1/2-x,1/2+y,1/2+z
4 1/2+x,1/2-y,z
_cell_length_a                   48.93(2)
_cell_length_b                   5.783(2)
_cell_length_c                   7.453(3)
_cell_angle_alpha                90
_cell_angle_beta                 90
_cell_angle_gamma                90
_cell_volume                     2108.92
_exptl_crystal_colour            yellow
_exptl_crystal_description       block
_cell_formula_units_Z            4
loop_
_atom_site_label
_atom_site_type_symbol
_atom_site_fract_x
_atom_site_fract_y
_atom_site_fract_z
C1 C 0.75336(10) -0.3785(9) 0.2918(11)
H1 H 0.7635 -0.4966 0.3529
H2 H 0.7363 -0.4414 0.2505
H3 H 0.7499 -0.2528 0.3726
C2 C 0.76900(9) -0.2954(11) 0.1398(8)
H4 H 0.7602 -0.1591 0.0907
H5 H 0.7692 -0.4132 0.0472
C3 C 0.80127(8) -0.0334(7) 0.2629(6)
C4 C 0.84923(8) -0.1438(6) 0.2050(6)
C5 C 0.83069(7) 0.0063(6) 0.2965(5)
C6 C 0.84067(7) 0.1780(6) 0.4082(5)
C7 C 0.86968(7) 0.2148(6) 0.4269(5)
H6 H 0.8815 0.1132 0.3696
C8 C 0.82221(7) 0.3410(6) 0.5076(6)
H7 H 0.8057 0.2587 0.5402
H8 H 0.8171 0.4655 0.4273
C9 C 0.83457(6) 0.4463(6) 0.6775(6)
C10 C 0.83764(9) 0.2618(7) 0.8231(6)
H9 H 0.8200 0.1982 0.8511
H10 H 0.8454 0.3303 0.9289
H11 H 0.8495 0.1410 0.7807
C11 C 0.81547(8) 0.6360(6) 0.7440(7)
H12 H 0.8145 0.7572 0.6563
H13 H 0.8223 0.6974 0.8550
H14 H 0.7975 0.5728 0.7627
C12 C 0.86262(6) 0.5487(6) 0.6324(5)
H15 H 0.8600 0.6915 0.5663
H16 H 0.8719 0.5866 0.7434
C13 C 0.88047(7) 0.3912(5) 0.5243(5)
C14 C 0.90961(7) 0.4325(6) 0.5149(5)
H17 H 0.9201 0.3218 0.4558
C15 C 0.92302(7) 0.6146(6) 0.5830(5)
H18 H 0.9125 0.7233 0.6440
C16 C 0.95224(6) 0.6605(6) 0.5719(5)
C17 C 0.96278(7) 0.8674(6) 0.6403(5)
H19 H 0.9508 0.9747 0.6900
C18 C 0.97106(7) 0.5088(6) 0.4934(5)
H20 H 0.9648 0.3719 0.4427
C19 C 0.99849(7) 0.5559(6) 0.4889(5)
H21 H 1.0105 0.4504 0.4374
C20 C 0.99016(7) 0.9170(6) 0.6364(5)
H22 H 0.9965 1.0555 0.6842
C21 C 1.00844(6) 0.7612(5) 0.5613(5)
C22 C 1.05753(8) 0.6688(8) 0.5161(7)
H23 H 1.0560 0.5149 0.4815
N1 N 1.04613(6) 1.0236(6) 0.6025(6)
C23 C 1.07319(9) 1.0076(9) 0.5861(7)
H24 H 1.0852 1.1288 0.6084
C24 C 1.08118(8) 0.7923(10) 0.5327(7)
H25 H 1.0989 0.7407 0.5121
N2 N 1.03682(5) 0.8110(5) 0.5589(4)
N3 N 0.86418(7) -0.2643(7) 0.1322(6)
O1 O 0.79695(5) -0.2381(5) 0.1891(5)
O2 O 0.78312(7) 0.0980(6) 0.2927(8)
loop_
_geom_bond_atom_site_label_1
_geom_bond_atom_site_label_2
_geom_bond_site_symmetry_1
_geom_bond_site_symmetry_2
C1 H1 1_555 1_555
H2 C1 1_555 1_555
H3 C1 1_555 1_555
C2 C1 1_555 1_555
H4 C2 1_555 1_555
H5 C2 1_555 1_555
C3 C5 1_555 1_555
C4 C5 1_555 1_555
C5 C6 1_555 1_555
C6 C7 1_555 1_555
C7 H6 1_555 1_555
C8 C6 1_555 1_555
H7 C8 1_555 1_555
H8 C8 1_555 1_555
C9 C8 1_555 1_555
C10 C9 1_555 1_555
H9 C10 1_555 1_555
H10 C10 1_555 1_555
H11 C10 1_555 1_555
C11 C9 1_555 1_555
H12 C11 1_555 1_555
H13 C11 1_555 1_555
H14 C11 1_555 1_555
C12 C9 1_555 1_555
H15 C12 1_555 1_555
H16 C12 1_555 1_555
C13 C7 1_555 1_555
C14 C13 1_555 1_555
H17 C14 1_555 1_555
C15 C14 1_555 1_555
H18 C15 1_555 1_555
C16 C15 1_555 1_555
C17 C16 1_555 1_555
H19 C17 1_555 1_555
C18 C16 1_555 1_555
H20 C18 1_555 1_555
C19 C18 1_555 1_555
H21 C19 1_555 1_555
C20 C17 1_555 1_555
H22 C20 1_555 1_555
C21 C19 1_555 1_555
C22 H23 1_555 1_555
N1 C23 1_555 1_555
C23 H24 1_555 1_555
C24 C22 1_555 1_555
H25 C24 1_555 1_555
N2 C21 1_555 1_555
N3 C4 1_555 1_555
O1 C2 1_555 1_555
O2 C3 1_555 1_555
C3 O1 1_555 1_555
C12 C13 1_555 1_555
C20 C21 1_555 1_555
C22 N2 1_555 1_555
N1 N2 1_555 1_555
C23 C24 1_555 1_555

#END
