
#######################################################################
#
#                 Cambridge Crystallographic Data Centre
#                                CCDC 
#
#######################################################################
#
# If this CIF has been generated from an entry in the Cambridge 
# Structural Database, then it will include bibliographic, chemical, 
# crystal, experimental, refinement or atomic coordinate data resulting 
# from the CCDC's data processing and validation procedures.
#
#######################################################################

data_MOMQEL
_chemical_formula_moiety         'C17 H11 B1 F2 N2 S1'
_chemical_name_systematic        
4,4-Difluoro-8-(3-benzothienyl)-4-bora-3a,4a-diaza-s-indacene
_symmetry_cell_setting           monoclinic
_symmetry_space_group_name_H-M   'P 21/c'
_symmetry_Int_Tables_number      14
_space_group_name_Hall           '-P 2ybc'
loop_
_symmetry_equiv_pos_site_id
_symmetry_equiv_pos_as_xyz
1 x,y,z
2 -x,1/2+y,1/2-z
3 -x,-y,-z
4 x,1/2-y,1/2+z
_cell_length_a                   10.6063(8)
_cell_length_b                   15.1578(12)
_cell_length_c                   9.2338(7)
_cell_angle_alpha                90.00
_cell_angle_beta                 92.587(2)
_cell_angle_gamma                90.00
_cell_volume                     1482.99
_cell_formula_units_Z            4
loop_
_atom_site_label
_atom_site_type_symbol
_atom_site_fract_x
_atom_site_fract_y
_atom_site_fract_z
B1 B 0.5664(3) 0.4525(2) 0.7259(4)
F1 F 0.61055(19) 0.50231(12) 0.6129(2)
F2 F 0.45977(18) 0.48893(14) 0.7763(3)
N1 N 0.6714(2) 0.44615(14) 0.8464(2)
N2 N 0.54114(18) 0.35733(13) 0.6727(2)
C1 C 0.7120(3) 0.5097(2) 0.9367(3)
H1 H 0.6736 0.5654 0.9442
C2 C 0.8184(3) 0.4830(2) 1.0181(3)
H2 H 0.8644 0.5165 1.0879
C3 C 0.8433(3) 0.3980(2) 0.9767(3)
H3 H 0.9095 0.3621 1.0138
C4 C 0.7510(2) 0.37417(18) 0.8680(3)
C5 C 0.7250(2) 0.29424(16) 0.7991(3)
C6 C 0.6184(2) 0.28500(16) 0.7039(2)
C7 C 0.5709(2) 0.21264(18) 0.6238(3)
H4 H 0.6041 0.1552 0.6247
C8 C 0.4662(3) 0.24164(18) 0.5434(3)
H5 H 0.4148 0.2078 0.4791
C9 C 0.4510(2) 0.33048(19) 0.5756(3)
H6 H 0.3867 0.3667 0.5351
S1 S 0.88831(7) 0.06356(5) 0.90623(8)
C10 C 0.8085(2) 0.21758(17) 0.8278(3)
C11 C 0.7686(2) 0.13882(17) 0.8784(3)
H7 H 0.6839 0.1267 0.8965
C12 C 0.9427(2) 0.21866(18) 0.8068(2)
C13 C 0.9990(2) 0.13782(18) 0.8452(3)
C14 C 1.1280(3) 0.1232(2) 0.8315(3)
H8 H 1.1649 0.0688 0.8583
C15 C 1.1993(3) 0.1900(2) 0.7781(3)
H9 H 1.2865 0.1817 0.7696
C16 C 1.1447(3) 0.2700(2) 0.7361(3)
H10 H 1.1952 0.3145 0.6979
C17 C 1.0175(3) 0.2851(2) 0.7496(3)
H11 H 0.9815 0.3393 0.7207
loop_
_geom_bond_atom_site_label_1
_geom_bond_atom_site_label_2
_geom_bond_site_symmetry_1
_geom_bond_site_symmetry_2
B1 F1 1_555 1_555
F2 B1 1_555 1_555
N1 B1 1_555 1_555
N2 B1 1_555 1_555
C1 N1 1_555 1_555
H1 C1 1_555 1_555
C2 C1 1_555 1_555
H2 C2 1_555 1_555
C3 C2 1_555 1_555
H3 C3 1_555 1_555
C4 N1 1_555 1_555
C5 C4 1_555 1_555
C6 N2 1_555 1_555
C7 C6 1_555 1_555
H4 C7 1_555 1_555
C8 C7 1_555 1_555
H5 C8 1_555 1_555
C9 N2 1_555 1_555
H6 C9 1_555 1_555
S1 C11 1_555 1_555
C10 C5 1_555 1_555
C11 C10 1_555 1_555
H7 C11 1_555 1_555
C12 C10 1_555 1_555
C13 S1 1_555 1_555
C14 C13 1_555 1_555
H8 C14 1_555 1_555
C15 C14 1_555 1_555
H9 C15 1_555 1_555
C16 C15 1_555 1_555
H10 C16 1_555 1_555
C17 C12 1_555 1_555
H11 C17 1_555 1_555
C3 C4 1_555 1_555
C5 C6 1_555 1_555
C8 C9 1_555 1_555
C12 C13 1_555 1_555
C16 C17 1_555 1_555

#END
