
#######################################################################
#
#                 Cambridge Crystallographic Data Centre
#                                CCDC 
#
#######################################################################
#
# If this CIF has been generated from an entry in the Cambridge 
# Structural Database, then it will include bibliographic, chemical, 
# crystal, experimental, refinement or atomic coordinate data resulting 
# from the CCDC's data processing and validation procedures.
#
#######################################################################

data_MOMREM
_chemical_formula_moiety         'C13 H1 B1 Br8 F2 N2 S1,0.5(C1 H2 Cl2)'
_chemical_name_systematic        
'1,2,3,5,6,7-Hexabromo-4,4-difluoro-8-(2,5-dibromo-3-thienyl)-4-bora-3a,4a-diaza-s-indacene dichloromethane solvate'
_symmetry_cell_setting           triclinic
_symmetry_space_group_name_H-M   'P -1'
_symmetry_Int_Tables_number      2
_space_group_name_Hall           '-P 1'
loop_
_symmetry_equiv_pos_site_id
_symmetry_equiv_pos_as_xyz
1 x,y,z
2 -x,-y,-z
_cell_length_a                   8.844(5)
_cell_length_b                   11.556(7)
_cell_length_c                   12.998(11)
_cell_angle_alpha                111.075(14)
_cell_angle_beta                 99.542(14)
_cell_angle_gamma                104.441(10)
_cell_volume                     1151.43
_cell_formula_units_Z            2
loop_
_atom_site_label
_atom_site_type_symbol
_atom_site_fract_x
_atom_site_fract_y
_atom_site_fract_z
B1 B 1.656(2) 0.403(3) 0.4084(17)
F1 F 1.7032(10) 0.4441(11) 0.5257(7)
F2 F 1.7663(11) 0.3532(10) 0.3605(8)
N1 N 1.6267(15) 0.5092(16) 0.3766(11)
N2 N 1.4867(16) 0.2905(16) 0.3599(12)
C1 C 1.739(2) 0.626(2) 0.4081(14)
C2 C 1.683(2) 0.700(2) 0.3568(16)
C3 C 1.520(2) 0.622(2) 0.2905(13)
C4 C 1.4908(19) 0.503(2) 0.2987(13)
C5 C 1.3507(17) 0.387(2) 0.2570(14)
C6 C 1.351(2) 0.286(2) 0.2895(13)
C7 C 1.221(2) 0.158(2) 0.2529(15)
C8 C 1.289(2) 0.097(2) 0.3105(17)
C9 C 1.451(2) 0.180(3) 0.3729(14)
C10 C 1.2026(17) 0.3822(18) 0.1797(13)
C11 C 1.1742(19) 0.3372(19) 0.0688(14)
C12 C 0.9571(18) 0.410(2) 0.1269(13)
C13 C 1.0792(19) 0.4278(19) 0.2164(14)
H1 H 1.0807 0.4662 0.2931
S1 S 0.9963(5) 0.3431(6) -0.0001(4)
Br1 Br 1.9464(3) 0.6798(3) 0.4973(2)
Br2 Br 1.7894(3) 0.8664(2) 0.3722(2)
Br3 Br 1.3895(3) 0.6754(3) 0.2056(2)
Br4 Br 1.0177(3) 0.1000(3) 0.1671(3)
Br5 Br 1.1843(3) -0.0648(3) 0.3033(2)
Br6 Br 1.5907(3) 0.1366(3) 0.4591(3)
Br7 Br 1.3127(2) 0.2793(3) -0.01908(17)
Br8 Br 0.7679(2) 0.4481(3) 0.13016(18)
C14 C 0.521(5) 0.045(4) -0.113(3)
Cl1 Cl 0.650(4) 0.062(3) -0.021(3)
Cl2 Cl 0.395(7) -0.074(6) -0.135(5)
loop_
_geom_bond_atom_site_label_1
_geom_bond_atom_site_label_2
_geom_bond_site_symmetry_1
_geom_bond_site_symmetry_2
B1 F1 1_555 1_555
F2 B1 1_555 1_555
N1 B1 1_555 1_555
N2 B1 1_555 1_555
C1 N1 1_555 1_555
C2 C1 1_555 1_555
C3 C2 1_555 1_555
C4 N1 1_555 1_555
C5 C4 1_555 1_555
C6 N2 1_555 1_555
C7 C6 1_555 1_555
C8 C7 1_555 1_555
C9 N2 1_555 1_555
C10 C5 1_555 1_555
C11 C10 1_555 1_555
C12 C13 1_555 1_555
C13 C10 1_555 1_555
H1 C13 1_555 1_555
S1 C11 1_555 1_555
Br1 C1 1_555 1_555
Br2 C2 1_555 1_555
Br3 C3 1_555 1_555
Br4 C7 1_555 1_555
Br5 C8 1_555 1_555
Br6 C9 1_555 1_555
Br7 C11 1_555 1_555
Br8 C12 1_555 1_555
C14 Cl1 1_555 1_555
Cl2 C14 1_555 1_555
C3 C4 1_555 1_555
C5 C6 1_555 1_555
C8 C9 1_555 1_555
C12 S1 1_555 1_555

#END
