
#######################################################################
#
#                 Cambridge Crystallographic Data Centre
#                                CCDC 
#
#######################################################################
#
# If this CIF has been generated from an entry in the Cambridge 
# Structural Database, then it will include bibliographic, chemical, 
# crystal, experimental, refinement or atomic coordinate data resulting 
# from the CCDC's data processing and validation procedures.
#
#######################################################################

data_MOMRAI
_chemical_formula_moiety         'C31 H23 B1 N2 S1'
_chemical_name_systematic        
3,4,4-Triphenyl-8-(3-thienyl)-4-bora-3a,4a-diaza-s-indacene
_symmetry_cell_setting           triclinic
_symmetry_space_group_name_H-M   'P -1'
_symmetry_Int_Tables_number      2
_space_group_name_Hall           '-P 1'
loop_
_symmetry_equiv_pos_site_id
_symmetry_equiv_pos_as_xyz
1 x,y,z
2 -x,-y,-z
_cell_length_a                   10.2174(14)
_cell_length_b                   10.5972(14)
_cell_length_c                   12.9493(16)
_cell_angle_alpha                69.787(2)
_cell_angle_beta                 77.364(2)
_cell_angle_gamma                66.530(2)
_cell_volume                     1201.52
_cell_formula_units_Z            2
loop_
_atom_site_label
_atom_site_type_symbol
_atom_site_fract_x
_atom_site_fract_y
_atom_site_fract_z
B1 B 0.7246(2) 0.3622(2) -0.23435(17)
N1 N 0.62199(16) 0.30142(16) -0.26401(12)
N2 N 0.68651(16) 0.34286(16) -0.10553(12)
C1 C 0.6251(2) 0.2719(2) -0.35880(14)
C2 C 0.5138(2) 0.2212(2) -0.34843(16)
H1 H 0.4931 0.1928 -0.4024
C3 C 0.4410(2) 0.2202(2) -0.24665(16)
H2 H 0.3611 0.1916 -0.2178
C4 C 0.5078(2) 0.2699(2) -0.19301(15)
C5 C 0.4823(2) 0.2736(2) -0.08336(15)
C6 C 0.5731(2) 0.3066(2) -0.03933(15)
C7 C 0.5721(2) 0.3148(2) 0.06745(15)
H3 H 0.5060 0.2968 0.1286
C8 C 0.6850(2) 0.3538(2) 0.06528(16)
H4 H 0.7123 0.3663 0.1248
C9 C 0.7523(2) 0.3716(2) -0.04245(16)
H5 H 0.8327 0.4000 -0.0671
C10 C 0.3619(2) 0.2349(2) -0.01299(17)
S2 S 0.1098(5) 0.2357(6) 0.0545(4)
C14 C 0.3768(11) 0.1247(11) 0.0890(8)
H9 H 0.4572 0.0605 0.1273
C15 C 0.226(3) 0.145(3) 0.1141(15)
H10 H 0.2024 0.0859 0.1830
C16 C 0.2199(12) 0.309(2) -0.0449(12)
H11 H 0.1919 0.3849 -0.1094
C17 C 0.6786(2) 0.5336(2) -0.29309(14)
C18 C 0.5416(2) 0.6184(2) -0.32628(15)
H12 H 0.4768 0.5734 -0.3215
C19 C 0.4979(2) 0.7667(2) -0.36607(16)
H13 H 0.4043 0.8205 -0.3867
C20 C 0.5902(3) 0.8352(2) -0.37553(17)
H14 H 0.5609 0.9358 -0.4034
C21 C 0.7257(3) 0.7559(3) -0.34405(19)
H15 H 0.7898 0.8023 -0.3501
C22 C 0.7687(2) 0.6081(2) -0.30336(17)
H16 H 0.8621 0.5559 -0.2818
C23 C 0.8913(2) 0.2645(2) -0.25419(16)
C24 C 0.9830(2) 0.3016(3) -0.34599(18)
H17 H 0.9484 0.3895 -0.4004
C25 C 1.1246(3) 0.2122(4) -0.3597(3)
H18 H 1.1839 0.2401 -0.4230
C26 C 1.1782(3) 0.0837(4) -0.2812(3)
H19 H 1.2739 0.0233 -0.2904
C27 C 1.0905(3) 0.0441(3) -0.1890(3)
H20 H 1.1265 -0.0436 -0.1346
C28 C 0.9499(2) 0.1328(2) -0.1761(2)
H21 H 0.8916 0.1036 -0.1126
C29 C 0.7248(2) 0.2892(2) -0.45896(15)
C30 C 0.7325(2) 0.4215(2) -0.52359(16)
H22 H 0.6802 0.5033 -0.4992
C31 C 0.8162(2) 0.4344(3) -0.62346(17)
H23 H 0.8205 0.5249 -0.6663
C32 C 0.8933(2) 0.3159(3) -0.66053(19)
H24 H 0.9500 0.3253 -0.7286
C33 C 0.8871(2) 0.1841(3) -0.5978(2)
H25 H 0.9397 0.1029 -0.6229
C34 C 0.8035(2) 0.1702(3) -0.49741(18)
H26 H 0.7999 0.0794 -0.4549
S1? S 0.23494(19) 0.0931(2) 0.14790(15)
C11? C 0.219(2) 0.277(2) -0.0282(15)
H6? H 0.1834 0.3541 -0.0902
C12? C 0.1217(17) 0.2101(13) 0.0445(12)
H7? H 0.0264 0.2248 0.0383
C13? C 0.373(2) 0.134(2) 0.0854(14)
H8? H 0.4600 0.0884 0.1174
loop_
_geom_bond_atom_site_label_1
_geom_bond_atom_site_label_2
_geom_bond_site_symmetry_1
_geom_bond_site_symmetry_2
B1 N1 1_555 1_555
N1 C1 1_555 1_555
N2 B1 1_555 1_555
C1 C2 1_555 1_555
C2 H1 1_555 1_555
C3 C2 1_555 1_555
H2 C3 1_555 1_555
C4 N1 1_555 1_555
C5 C4 1_555 1_555
C6 N2 1_555 1_555
C7 C6 1_555 1_555
H3 C7 1_555 1_555
C8 C7 1_555 1_555
H4 C8 1_555 1_555
C9 N2 1_555 1_555
H5 C9 1_555 1_555
C10 C5 1_555 1_555
S2 C15 1_555 1_555
C14 C10 1_555 1_555
H9 C14 1_555 1_555
C15 C14 1_555 1_555
H10 C15 1_555 1_555
C16 C10 1_555 1_555
H11 C16 1_555 1_555
C17 B1 1_555 1_555
C18 C17 1_555 1_555
H12 C18 1_555 1_555
C19 C18 1_555 1_555
H13 C19 1_555 1_555
C20 C19 1_555 1_555
H14 C20 1_555 1_555
C21 C20 1_555 1_555
H15 C21 1_555 1_555
C22 C17 1_555 1_555
H16 C22 1_555 1_555
C23 B1 1_555 1_555
C24 C23 1_555 1_555
H17 C24 1_555 1_555
C25 C24 1_555 1_555
H18 C25 1_555 1_555
C26 C25 1_555 1_555
H19 C26 1_555 1_555
C27 C26 1_555 1_555
H20 C27 1_555 1_555
C28 C23 1_555 1_555
H21 C28 1_555 1_555
C29 C1 1_555 1_555
C30 C29 1_555 1_555
H22 C30 1_555 1_555
C31 C30 1_555 1_555
H23 C31 1_555 1_555
C32 C31 1_555 1_555
H24 C32 1_555 1_555
C33 C32 1_555 1_555
H25 C33 1_555 1_555
C34 C29 1_555 1_555
H26 C34 1_555 1_555
C3 C4 1_555 1_555
C5 C6 1_555 1_555
C8 C9 1_555 1_555
S2 C16 1_555 1_555
C21 C22 1_555 1_555
C27 C28 1_555 1_555
C33 C34 1_555 1_555

#END
