
#######################################################################
#
#                 Cambridge Crystallographic Data Centre
#                                CCDC 
#
#######################################################################
#
# If this CIF has been generated from an entry in the Cambridge 
# Structural Database, then it will include bibliographic, chemical, 
# crystal, experimental, refinement or atomic coordinate data resulting 
# from the CCDC's data processing and validation procedures.
#
#######################################################################

data_MOMVAN
_chemical_formula_moiety         'C22 H26 N2 O4'
_chemical_name_systematic        
'methyl 2-((4-((2-methylphenoxy)acetyl)piperazin-1-yl)methyl)benzoate'
_symmetry_cell_setting           monoclinic
_symmetry_space_group_name_H-M   'P 21/c'
_symmetry_Int_Tables_number      14
_space_group_name_Hall           '-P 2ybc'
loop_
_symmetry_equiv_pos_site_id
_symmetry_equiv_pos_as_xyz
1 x,y,z
2 -x,1/2+y,1/2-z
3 -x,-y,-z
4 x,1/2-y,1/2+z
_cell_length_a                   11.145(2)
_cell_length_b                   13.667(3)
_cell_length_c                   13.998(3)
_cell_angle_alpha                90
_cell_angle_beta                 112.01(3)
_cell_angle_gamma                90
_cell_volume                     1976.76
_cell_formula_units_Z            4
loop_
_atom_site_label
_atom_site_type_symbol
_atom_site_fract_x
_atom_site_fract_y
_atom_site_fract_z
C1 C 0.8326(3) 0.3755(2) 0.9038(2)
H1 H 0.8604 0.3184 0.8778
H2 H 0.7836 0.3560 0.9443
H3 H 0.9069 0.4124 0.9460
C2 C 0.7497(2) 0.4377(2) 0.81534(19)
C3 C 0.7789(3) 0.5343(2) 0.8064(2)
H4 H 0.8527 0.5611 0.8560
C4 C 0.7021(3) 0.5929(2) 0.7261(2)
H5 H 0.7242 0.6580 0.7221
C5 C 0.5946(3) 0.5546(2) 0.6537(2)
H6 H 0.5420 0.5940 0.6001
C6 C 0.5617(3) 0.4573(2) 0.6582(2)
H7 H 0.4884 0.4312 0.6073
C7 C 0.6385(2) 0.39935(19) 0.73865(18)
C8 C 0.5063(3) 0.2568(2) 0.6771(2)
H8 H 0.4333 0.3014 0.6536
H9 H 0.4813 0.2000 0.7068
C9 C 0.5390(2) 0.22521(19) 0.58603(19)
C10 C 0.3070(2) 0.1883(2) 0.4904(2)
H10 H 0.2676 0.2455 0.4497
H11 H 0.2987 0.1943 0.5567
C11 C 0.2379(2) 0.0978(2) 0.43657(19)
H12 H 0.2708 0.0416 0.4809
H13 H 0.1463 0.1039 0.4231
C12 C 0.3929(2) 0.06799(19) 0.36255(18)
H14 H 0.4060 0.0549 0.2990
H15 H 0.4233 0.0117 0.4074
C13 C 0.4691(2) 0.1571(2) 0.41389(19)
H16 H 0.5607 0.1441 0.4330
H17 H 0.4460 0.2113 0.3657
C14 C 0.1787(3) -0.0001(2) 0.2833(2)
H18 H 0.0903 0.0069 0.2793
H19 H 0.2135 -0.0603 0.3200
C15 C 0.1794(2) -0.00609(19) 0.1755(2)
C16 C 0.1412(2) 0.07223(19) 0.1064(2)
C17 C 0.1521(3) 0.0635(2) 0.0111(2)
H20 H 0.1282 0.1158 -0.0348
C18 C 0.1976(3) -0.0212(3) -0.0166(3)
H21 H 0.2040 -0.0264 -0.0808
C19 C 0.2335(3) -0.0981(3) 0.0516(3)
H22 H 0.2637 -0.1558 0.0334
C20 C 0.2250(3) -0.0899(2) 0.1462(2)
H23 H 0.2506 -0.1422 0.1919
C21 C 0.0910(3) 0.1665(2) 0.1271(2)
C22 C -0.0387(3) 0.2470(2) 0.2018(3)
H24 H -0.0933 0.2320 0.2389
H25 H -0.0885 0.2797 0.1386
H26 H 0.0306 0.2889 0.2429
N1 N 0.44424(19) 0.18400(16) 0.50541(15)
N2 N 0.25572(18) 0.08276(15) 0.34012(15)
O1 O 0.61272(18) 0.30352(13) 0.75350(13)
O2 O 0.64979(18) 0.23341(16) 0.58876(15)
O3 O 0.1120(3) 0.24382(16) 0.0968(2)
O4 O 0.01396(17) 0.15810(13) 0.17912(14)
loop_
_geom_bond_atom_site_label_1
_geom_bond_atom_site_label_2
_geom_bond_site_symmetry_1
_geom_bond_site_symmetry_2
C1 H1 1_555 1_555
H2 C1 1_555 1_555
H3 C1 1_555 1_555
C2 C1 1_555 1_555
C3 C2 1_555 1_555
H4 C3 1_555 1_555
C4 C3 1_555 1_555
H5 C4 1_555 1_555
C5 C4 1_555 1_555
H6 C5 1_555 1_555
C6 C5 1_555 1_555
H7 C6 1_555 1_555
C7 C2 1_555 1_555
C8 H8 1_555 1_555
H9 C8 1_555 1_555
C9 C8 1_555 1_555
C10 H10 1_555 1_555
H11 C10 1_555 1_555
C11 C10 1_555 1_555
H12 C11 1_555 1_555
H13 C11 1_555 1_555
C12 H14 1_555 1_555
H15 C12 1_555 1_555
C13 C12 1_555 1_555
H16 C13 1_555 1_555
H17 C13 1_555 1_555
C14 H18 1_555 1_555
H19 C14 1_555 1_555
C15 C14 1_555 1_555
C16 C15 1_555 1_555
C17 C16 1_555 1_555
H20 C17 1_555 1_555
C18 C17 1_555 1_555
H21 C18 1_555 1_555
C19 C18 1_555 1_555
H22 C19 1_555 1_555
C20 C15 1_555 1_555
H23 C20 1_555 1_555
C21 C16 1_555 1_555
C22 H24 1_555 1_555
H25 C22 1_555 1_555
H26 C22 1_555 1_555
N1 C9 1_555 1_555
N2 C11 1_555 1_555
O1 C7 1_555 1_555
O2 C9 1_555 1_555
O3 C21 1_555 1_555
O4 C21 1_555 1_555
C6 C7 1_555 1_555
C8 O1 1_555 1_555
C10 N1 1_555 1_555
C12 N2 1_555 1_555
C13 N1 1_555 1_555
C14 N2 1_555 1_555
C19 C20 1_555 1_555
C22 O4 1_555 1_555

#END
