
#######################################################################
#
#                 Cambridge Crystallographic Data Centre
#                                CCDC 
#
#######################################################################
#
# If this CIF has been generated from an entry in the Cambridge 
# Structural Database, then it will include bibliographic, chemical, 
# crystal, experimental, refinement or atomic coordinate data resulting 
# from the CCDC's data processing and validation procedures.
#
#######################################################################

data_MOMVAM
_chemical_formula_moiety         'C48 H50 F6 N2'
_chemical_name_systematic        
5,11-dioctyl-2,8-bis(4-(trifluoromethyl)phenyl)-5,11-dihydroindolo[3,2-b]carbazole
_symmetry_cell_setting           triclinic
_symmetry_space_group_name_H-M   'P -1'
_symmetry_Int_Tables_number      2
_space_group_name_Hall           '-P 1'
loop_
_symmetry_equiv_pos_site_id
_symmetry_equiv_pos_as_xyz
1 x,y,z
2 -x,-y,-z
_cell_length_a                   10.049(5)
_cell_length_b                   13.480(5)
_cell_length_c                   14.920(5)
_cell_angle_alpha                89.126(5)
_cell_angle_beta                 86.187(5)
_cell_angle_gamma                85.385(5)
_cell_volume                     2009.96
_exptl_crystal_colour            colorless
_exptl_crystal_description       plate
_cell_formula_units_Z            2
_exptl_crystal_recrystallization_method dichloromethane
loop_
_atom_site_label
_atom_site_type_symbol
_atom_site_fract_x
_atom_site_fract_y
_atom_site_fract_z
C1 C 0.1070(5) 0.5267(3) 0.8997(2)
H1 H 0.0660 0.4648 0.8997
H2 H 0.0453 0.5771 0.9272
H3 H 0.1859 0.5188 0.9328
C2 C 0.1433(3) 0.5564(2) 0.80736(19)
H4 H 0.1806 0.6205 0.8083
H5 H 0.0625 0.5650 0.7751
C3 C 0.2419(3) 0.4849(2) 0.75626(17)
H6 H 0.3204 0.4720 0.7904
H7 H 0.2021 0.4223 0.7504
C4 C 0.2842(3) 0.52220(19) 0.66507(18)
H8 H 0.3125 0.5889 0.6704
H9 H 0.2077 0.5265 0.6284
C5 C 0.3976(3) 0.4571(2) 0.6174(2)
H10 H 0.4356 0.4950 0.5676
H11 H 0.4670 0.4428 0.6590
C6 C 0.3604(2) 0.35989(16) 0.58170(14)
H12 H 0.2937 0.3734 0.5381
H13 H 0.3205 0.3219 0.6307
C7 C 0.4787(2) 0.29799(16) 0.53794(15)
H14 H 0.5185 0.3362 0.4891
H15 H 0.5453 0.2847 0.5816
C8 C 0.4431(2) 0.20019(15) 0.50172(14)
H16 H 0.4128 0.1588 0.5516
H17 H 0.3695 0.2129 0.4632
C9 C 0.9149(3) 0.1740(2) -0.18423(18)
C10 C 0.8584(3) 0.17065(18) -0.08977(15)
C11 C 0.7272(3) 0.20590(19) -0.06846(15)
H18 H 0.6742 0.2321 -0.1133
C12 C 0.6747(3) 0.20215(18) 0.01949(15)
H19 H 0.5860 0.2252 0.0328
C13 C 0.7511(2) 0.16484(16) 0.08848(13)
C14 C 0.8825(2) 0.12916(18) 0.06483(14)
H20 H 0.9357 0.1025 0.1093
C15 C 0.9361(2) 0.13232(18) -0.02286(15)
H21 H 1.0244 0.1086 -0.0366
C16 C 0.6951(2) 0.16101(16) 0.18325(13)
C17 C 0.5817(2) 0.22375(16) 0.21182(14)
H22 H 0.5423 0.2668 0.1701
C18 C 0.5265(2) 0.22408(16) 0.29888(14)
H23 H 0.4511 0.2659 0.3158
C19 C 0.5871(2) 0.15992(15) 0.36069(14)
C20 C 0.7008(2) 0.09569(15) 0.33461(13)
C21 C 0.7531(2) 0.09680(16) 0.24594(13)
H24 H 0.8275 0.0543 0.2285
C22 C 0.7379(2) 0.03998(14) 0.41415(13)
C23 C 0.6450(2) 0.07380(14) 0.48473(13)
C24 C 0.6513(2) 0.03764(15) 0.57229(13)
H25 H 0.5902 0.0607 0.6183
C25 C 0.7545(2) -0.03516(14) 0.58717(13)
C26 C 0.8477(2) -0.06843(14) 0.51646(13)
C27 C 0.8414(2) -0.03245(14) 0.42906(13)
H26 H 0.9028 -0.0553 0.3831
C28 C 0.7915(2) -0.09102(15) 0.66648(13)
C29 C 0.7391(2) -0.09303(15) 0.75501(13)
H27 H 0.6654 -0.0500 0.7730
C30 C 0.7961(2) -0.15891(15) 0.81667(13)
C31 C 0.9083(2) -0.22283(16) 0.78733(14)
H28 H 0.9464 -0.2672 0.8285
C32 C 0.9635(2) -0.22238(16) 0.70085(14)
H29 H 1.0378 -0.2650 0.6834
C33 C 0.9042(2) -0.15566(15) 0.63975(13)
C34 C 0.7443(2) -0.16204(16) 0.91205(13)
C35 C 0.6891(2) -0.07624(16) 0.95579(14)
H30 H 0.6830 -0.0162 0.9242
C36 C 0.6433(2) -0.07859(17) 1.04503(14)
H31 H 0.6075 -0.0202 1.0728
C37 C 0.6502(2) -0.16633(17) 1.09328(14)
C38 C 0.7043(3) -0.25276(18) 1.05126(15)
H32 H 0.7101 -0.3126 1.0832
C39 C 0.7495(3) -0.24984(17) 0.96209(15)
H33 H 0.7845 -0.3085 0.9345
C40 C 0.6034(3) -0.1690(2) 1.19024(16)
C41 C 1.0492(2) -0.19520(15) 0.49910(14)
H34 H 1.1229 -0.2081 0.5376
H35 H 1.0795 -0.1537 0.4494
C42 C 1.0132(2) -0.29271(17) 0.46274(16)
H36 H 0.9482 -0.2792 0.4180
H37 H 0.9715 -0.3304 0.5112
C43 C 1.1324(2) -0.35541(16) 0.42074(15)
H38 H 1.1758 -0.3171 0.3734
H39 H 1.1963 -0.3708 0.4659
C44 C 1.0948(3) -0.4514(2) 0.3821(2)
H40 H 1.0292 -0.4355 0.3381
H41 H 1.0522 -0.4896 0.4299
C45 C 1.2111(3) -0.51666(19) 0.33746(19)
H42 H 1.2843 -0.5224 0.3769
H43 H 1.1828 -0.5829 0.3293
C46 C 1.2602(3) -0.4756(2) 0.24735(18)
H44 H 1.1845 -0.4617 0.2108
H45 H 1.2987 -0.4131 0.2566
C47 C 1.3619(3) -0.5443(2) 0.19763(18)
H46 H 1.3242 -0.6074 0.1896
H47 H 1.4388 -0.5568 0.2334
C48 C 1.4079(4) -0.5037(3) 0.1065(2)
H48 H 1.3318 -0.4881 0.0718
H49 H 1.4681 -0.5527 0.0758
H50 H 1.4529 -0.4446 0.1143
F1 F 0.5157(2) -0.09531(15) 1.21329(11)
F2 F 0.7008(2) -0.16555(17) 1.24468(10)
F3 F 0.54530(19) -0.25186(14) 1.21337(10)
F4 F 0.9792(2) 0.25362(17) -0.20304(13)
F5 F 0.8232(2) 0.17698(19) -0.24441(11)
F6 F 0.9990(3) 0.09844(17) -0.20595(12)
N1 N 0.55359(17) 0.14603(12) 0.45118(11)
N2 N 0.93852(17) -0.14107(12) 0.54992(11)
loop_
_geom_bond_atom_site_label_1
_geom_bond_atom_site_label_2
_geom_bond_site_symmetry_1
_geom_bond_site_symmetry_2
C1 H1 1_555 1_555
H2 C1 1_555 1_555
H3 C1 1_555 1_555
C2 C1 1_555 1_555
H4 C2 1_555 1_555
H5 C2 1_555 1_555
C3 C2 1_555 1_555
H6 C3 1_555 1_555
H7 C3 1_555 1_555
C4 C3 1_555 1_555
H8 C4 1_555 1_555
H9 C4 1_555 1_555
C5 C4 1_555 1_555
H10 C5 1_555 1_555
H11 C5 1_555 1_555
C6 C5 1_555 1_555
H12 C6 1_555 1_555
H13 C6 1_555 1_555
C7 C6 1_555 1_555
H14 C7 1_555 1_555
H15 C7 1_555 1_555
C8 C7 1_555 1_555
H16 C8 1_555 1_555
H17 C8 1_555 1_555
C9 C10 1_555 1_555
C10 C11 1_555 1_555
C11 H18 1_555 1_555
C12 C11 1_555 1_555
H19 C12 1_555 1_555
C13 C12 1_555 1_555
C14 C13 1_555 1_555
H20 C14 1_555 1_555
C15 C10 1_555 1_555
H21 C15 1_555 1_555
C16 C13 1_555 1_555
C17 C16 1_555 1_555
H22 C17 1_555 1_555
C18 C17 1_555 1_555
H23 C18 1_555 1_555
C19 C18 1_555 1_555
C20 C19 1_555 1_555
C21 C16 1_555 1_555
H24 C21 1_555 1_555
C22 C20 1_555 1_555
C23 C22 1_555 1_555
C24 C23 1_555 1_555
H25 C24 1_555 1_555
C25 C24 1_555 1_555
C26 C25 1_555 1_555
C27 C22 1_555 1_555
H26 C27 1_555 1_555
C28 C25 1_555 1_555
C29 C28 1_555 1_555
H27 C29 1_555 1_555
C30 C29 1_555 1_555
C31 C30 1_555 1_555
H28 C31 1_555 1_555
C32 C31 1_555 1_555
H29 C32 1_555 1_555
C33 C28 1_555 1_555
C34 C30 1_555 1_555
C35 C34 1_555 1_555
H30 C35 1_555 1_555
C36 C35 1_555 1_555
H31 C36 1_555 1_555
C37 C36 1_555 1_555
C38 C37 1_555 1_555
H32 C38 1_555 1_555
C39 C34 1_555 1_555
H33 C39 1_555 1_555
C40 C37 1_555 1_555
C41 H34 1_555 1_555
H35 C41 1_555 1_555
C42 C41 1_555 1_555
H36 C42 1_555 1_555
H37 C42 1_555 1_555
C43 C42 1_555 1_555
H38 C43 1_555 1_555
H39 C43 1_555 1_555
C44 C43 1_555 1_555
H40 C44 1_555 1_555
H41 C44 1_555 1_555
C45 C44 1_555 1_555
H42 C45 1_555 1_555
H43 C45 1_555 1_555
C46 C45 1_555 1_555
H44 C46 1_555 1_555
H45 C46 1_555 1_555
C47 C46 1_555 1_555
H46 C47 1_555 1_555
H47 C47 1_555 1_555
C48 C47 1_555 1_555
H48 C48 1_555 1_555
H49 C48 1_555 1_555
H50 C48 1_555 1_555
F1 C40 1_555 1_555
F2 C40 1_555 1_555
F3 C40 1_555 1_555
F4 C9 1_555 1_555
F5 C9 1_555 1_555
F6 C9 1_555 1_555
N1 C8 1_555 1_555
N2 C26 1_555 1_555
C14 C15 1_555 1_555
C19 N1 1_555 1_555
C20 C21 1_555 1_555
C23 N1 1_555 1_555
C26 C27 1_555 1_555
C32 C33 1_555 1_555
C33 N2 1_555 1_555
C38 C39 1_555 1_555
C41 N2 1_555 1_555

#END
