
#######################################################################
#
#                 Cambridge Crystallographic Data Centre
#                                CCDC 
#
#######################################################################
#
# If this CIF has been generated from an entry in the Cambridge 
# Structural Database, then it will include bibliographic, chemical, 
# crystal, experimental, refinement or atomic coordinate data resulting 
# from the CCDC's data processing and validation procedures.
#
#######################################################################

data_MOMWIW
_chemical_formula_moiety         'C20 H22 N2 O5'
_chemical_name_systematic        
'methyl 4-(9-ethyl-6-oxo-6,7,8,9-tetrahydropyrido[1,2-a]indol-9-yl)-2-(methoxyimino)-3-oxobutanoate'
_symmetry_cell_setting           triclinic
_symmetry_space_group_name_H-M   'P -1'
_symmetry_Int_Tables_number      2
_space_group_name_Hall           '-P 1'
loop_
_symmetry_equiv_pos_site_id
_symmetry_equiv_pos_as_xyz
1 x,y,z
2 -x,-y,-z
_cell_length_a                   12.199(3)
_cell_length_b                   12.840(3)
_cell_length_c                   14.621(3)
_cell_angle_alpha                100.605(4)
_cell_angle_beta                 114.357(4)
_cell_angle_gamma                104.026(4)
_cell_volume                     1916.78
_exptl_crystal_colour            white
_cell_formula_units_Z            4
_exptl_crystal_recrystallization_method 'diethyl ether/petroleum ether'
loop_
_atom_site_label
_atom_site_type_symbol
_atom_site_fract_x
_atom_site_fract_y
_atom_site_fract_z
C1 C 0.7962(3) 0.1457(3) 0.0711(2)
C2 C 0.7649(3) 0.1434(3) -0.0324(2)
H1 H 0.6965 0.0841 -0.0903
C3 C 0.8404(4) 0.2336(4) -0.0453(3)
H2 H 0.8217 0.2345 -0.1136
C4 C 0.9418(4) 0.3213(3) 0.0398(3)
H3 H 0.9902 0.3802 0.0280
C5 C 0.9730(3) 0.3237(3) 0.1423(3)
H4 H 1.0420 0.3832 0.1996
C6 C 0.8993(3) 0.2351(2) 0.1586(2)
C7 C 0.9023(3) 0.2123(2) 0.2519(2)
H5 H 0.9604 0.2584 0.3213
C8 C 0.8077(2) 0.1136(2) 0.22314(19)
C9 C 0.6346(3) -0.0317(3) 0.0511(2)
C10 C 0.5934(3) -0.0973(3) 0.1131(2)
H6 H 0.6335 -0.1541 0.1210
H7 H 0.5009 -0.1369 0.0730
C11 C 0.6268(3) -0.0254(3) 0.2224(2)
H8 H 0.6055 -0.0749 0.2601
H9 H 0.5750 0.0222 0.2147
C12 C 0.7700(3) 0.0499(2) 0.2883(2)
C13 C 0.7916(3) 0.1396(3) 0.3881(2)
H10 H 0.8836 0.1788 0.4330
H11 H 0.7554 0.1952 0.3646
C14 C 0.7377(4) 0.0981(4) 0.4535(3)
H12 H 0.6463 0.0599 0.4108
H13 H 0.7555 0.1610 0.5110
H14 H 0.7763 0.0464 0.4813
C15 C 0.8508(3) -0.0271(2) 0.3203(2)
H15 H 0.8490 -0.0438 0.3819
H16 H 0.8097 -0.0983 0.2629
C16 C 0.9888(3) 0.0222(2) 0.3455(2)
C17 C 1.0224(3) -0.0058(2) 0.2587(2)
C18 C 0.8708(4) -0.1462(4) -0.0107(3)
H17 H 0.8229 -0.2179 -0.0112
H18 H 0.9030 -0.1586 -0.0600
H19 H 0.8157 -0.1032 -0.0307
C19 C 1.1608(3) 0.0406(3) 0.2846(2)
C20 C 1.3578(3) 0.0107(4) 0.3507(4)
H20 H 1.3671 0.0111 0.2886
H21 H 1.3947 -0.0404 0.3815
H22 H 1.4014 0.0857 0.4011
N1 N 0.7389(2) 0.06937(19) 0.11024(16)
N2 N 0.9313(2) -0.0663(2) 0.16543(19)
O1 O 0.5835(2) -0.0632(2) -0.04508(16)
O2 O 1.07489(19) 0.0843(2) 0.43235(16)
O3 O 0.9773(2) -0.0846(2) 0.09448(17)
O4 O 1.2070(2) 0.1256(2) 0.2719(2)
O5 O 1.2224(2) -0.0259(2) 0.3215(2)
C21 C 0.5079(3) 0.5760(3) 0.2159(2)
C22 C 0.3744(3) 0.5363(3) 0.1757(3)
H23 H 0.3203 0.4731 0.1157
C23 C 0.3272(4) 0.5953(4) 0.2293(4)
H24 H 0.2388 0.5709 0.2048
C24 C 0.4066(5) 0.6901(4) 0.3189(4)
H25 H 0.3705 0.7279 0.3525
C25 C 0.5383(4) 0.7289(3) 0.3586(3)
H26 H 0.5915 0.7923 0.4186
C26 C 0.5901(3) 0.6701(3) 0.3061(2)
C27 C 0.7195(3) 0.6853(2) 0.3265(2)
H27 H 0.7934 0.7425 0.3817
C28 C 0.7164(2) 0.6027(2) 0.25215(19)
C29 C 0.5438(3) 0.4392(3) 0.0951(2)
C30 C 0.6471(3) 0.4109(3) 0.0782(2)
H28 H 0.6146 0.3784 0.0026
H29 H 0.6657 0.3534 0.1104
C31 C 0.7722(3) 0.5106(2) 0.1227(2)
H30 H 0.7578 0.5620 0.0817
H31 H 0.8363 0.4829 0.1153
C32 C 0.8243(2) 0.5759(2) 0.23999(19)
C33 C 0.9342(3) 0.6883(2) 0.2739(2)
H32 H 0.8976 0.7376 0.2380
H33 H 0.9702 0.7247 0.3494
C34 C 1.0433(3) 0.6791(3) 0.2517(3)
H34 H 1.0805 0.6302 0.2862
H35 H 1.1079 0.7529 0.2781
H36 H 1.0104 0.6483 0.1766
C35 C 0.8754(2) 0.5024(2) 0.31049(19)
H37 H 0.8240 0.4230 0.2710
H38 H 0.9635 0.5132 0.3259
C36 C 0.8712(2) 0.5313(2) 0.41265(19)
C37 C 0.7540(2) 0.4662(2) 0.41572(19)
C38 C 0.4607(3) 0.2558(3) 0.2427(2)
H39 H 0.4304 0.2971 0.1951
H40 H 0.3910 0.2136 0.2513
H41 H 0.4929 0.2045 0.2141
C39 C 0.7456(2) 0.4990(2) 0.5163(2)
C40 C 0.6594(4) 0.6009(3) 0.6014(3)
H42 H 0.6266 0.5359 0.6188
H43 H 0.5991 0.6397 0.5849
H44 H 0.7402 0.6511 0.6608
N3 N 0.5860(2) 0.53327(19) 0.18217(16)
N4 N 0.6661(2) 0.38596(18) 0.33176(16)
O6 O 0.4299(2) 0.3844(2) 0.03864(17)
O7 O 0.95633(18) 0.60689(16) 0.49200(14)
O8 O 0.56153(17) 0.33340(16) 0.34337(15)
O9 O 0.7947(2) 0.4680(2) 0.59004(17)
O10 O 0.6777(2) 0.56471(18) 0.51053(15)
loop_
_geom_bond_atom_site_label_1
_geom_bond_atom_site_label_2
_geom_bond_site_symmetry_1
_geom_bond_site_symmetry_2
C1 C2 1_555 1_555
C2 H1 1_555 1_555
C3 C2 1_555 1_555
H2 C3 1_555 1_555
C4 C3 1_555 1_555
H3 C4 1_555 1_555
C5 C4 1_555 1_555
H4 C5 1_555 1_555
C6 C1 1_555 1_555
C7 C6 1_555 1_555
H5 C7 1_555 1_555
C8 C7 1_555 1_555
C9 C10 1_555 1_555
C10 H6 1_555 1_555
H7 C10 1_555 1_555
C11 C10 1_555 1_555
H8 C11 1_555 1_555
H9 C11 1_555 1_555
C12 C8 1_555 1_555
C13 C12 1_555 1_555
H10 C13 1_555 1_555
H11 C13 1_555 1_555
C14 C13 1_555 1_555
H12 C14 1_555 1_555
H13 C14 1_555 1_555
H14 C14 1_555 1_555
C15 C12 1_555 1_555
H15 C15 1_555 1_555
H16 C15 1_555 1_555
C16 C15 1_555 1_555
C17 C16 1_555 1_555
C18 H17 1_555 1_555
H18 C18 1_555 1_555
H19 C18 1_555 1_555
C19 C17 1_555 1_555
C20 H20 1_555 1_555
H21 C20 1_555 1_555
H22 C20 1_555 1_555
N1 C1 1_555 1_555
N2 C17 1_555 1_555
O1 C9 1_555 1_555
O2 C16 1_555 1_555
O3 C18 1_555 1_555
O4 C19 1_555 1_555
O5 C19 1_555 1_555
C21 C22 1_555 1_555
C22 H23 1_555 1_555
C23 C22 1_555 1_555
H24 C23 1_555 1_555
C24 C23 1_555 1_555
H25 C24 1_555 1_555
C25 C24 1_555 1_555
H26 C25 1_555 1_555
C26 C21 1_555 1_555
C27 C26 1_555 1_555
H27 C27 1_555 1_555
C28 C27 1_555 1_555
C29 C30 1_555 1_555
C30 H28 1_555 1_555
H29 C30 1_555 1_555
C31 C30 1_555 1_555
H30 C31 1_555 1_555
H31 C31 1_555 1_555
C32 C28 1_555 1_555
C33 C32 1_555 1_555
H32 C33 1_555 1_555
H33 C33 1_555 1_555
C34 C33 1_555 1_555
H34 C34 1_555 1_555
H35 C34 1_555 1_555
H36 C34 1_555 1_555
C35 C32 1_555 1_555
H37 C35 1_555 1_555
H38 C35 1_555 1_555
C36 C35 1_555 1_555
C37 C36 1_555 1_555
C38 H39 1_555 1_555
H40 C38 1_555 1_555
H41 C38 1_555 1_555
C39 C37 1_555 1_555
C40 H42 1_555 1_555
H43 C40 1_555 1_555
H44 C40 1_555 1_555
N3 C21 1_555 1_555
N4 C37 1_555 1_555
O6 C29 1_555 1_555
O7 C36 1_555 1_555
O8 C38 1_555 1_555
O9 C39 1_555 1_555
O10 C39 1_555 1_555
C5 C6 1_555 1_555
C8 N1 1_555 1_555
C9 N1 1_555 1_555
C11 C12 1_555 1_555
C20 O5 1_555 1_555
N2 O3 1_555 1_555
C25 C26 1_555 1_555
C28 N3 1_555 1_555
C29 N3 1_555 1_555
C31 C32 1_555 1_555
C40 O10 1_555 1_555
N4 O8 1_555 1_555

#END
