
#######################################################################
#
#                 Cambridge Crystallographic Data Centre
#                                CCDC 
#
#######################################################################
#
# If this CIF has been generated from an entry in the Cambridge 
# Structural Database, then it will include bibliographic, chemical, 
# crystal, experimental, refinement or atomic coordinate data resulting 
# from the CCDC's data processing and validation procedures.
#
#######################################################################

data_MOMXET
_chemical_formula_moiety         'C20 H22 N2 O6'
_chemical_name_systematic        
'(E)-(10-(N,2-dimethoxy-2-oxoethanimidoyl)-9-ethyl-6-oxo-6,7,8,9-tetrahydropyrido[1,2-a]indol-9-yl)acetic acid'
_symmetry_cell_setting           monoclinic
_symmetry_space_group_name_H-M   'P 21/c'
_symmetry_Int_Tables_number      14
_space_group_name_Hall           '-P 2ybc'
loop_
_symmetry_equiv_pos_site_id
_symmetry_equiv_pos_as_xyz
1 x,y,z
2 -x,1/2+y,1/2-z
3 -x,-y,-z
4 x,1/2-y,1/2+z
_cell_length_a                   9.6391(8)
_cell_length_b                   27.150(2)
_cell_length_c                   8.0064(7)
_cell_angle_alpha                90
_cell_angle_beta                 111.845(2)
_cell_angle_gamma                90
_cell_volume                     1944.83
_cell_formula_units_Z            4
loop_
_atom_site_label
_atom_site_type_symbol
_atom_site_fract_x
_atom_site_fract_y
_atom_site_fract_z
C1 C 0.3759(5) 0.20090(14) 0.1057(5)
C2 C 0.2690(4) 0.16650(14) 0.1094(5)
C3 C 0.1177(5) 0.17532(15) 0.0120(5)
H1 H 0.0443 0.1522 0.0140
C4 C 0.0763(5) 0.21821(16) -0.0875(6)
H2 H -0.0262 0.2247 -0.1558
C5 C 0.1846(6) 0.25166(16) -0.0872(6)
H3 H 0.1540 0.2812 -0.1548
C6 C 0.3349(5) 0.24407(16) 0.0067(6)
H4 H 0.4074 0.2674 0.0038
C7 C 0.3449(4) 0.12694(14) 0.2273(5)
C8 C 0.4937(4) 0.13689(13) 0.2924(5)
C9 C 0.6260(5) 0.11024(14) 0.4271(5)
C10 C 0.7665(5) 0.12341(16) 0.3885(7)
H5 H 0.8555 0.1089 0.4829
H6 H 0.7582 0.1090 0.2715
C11 C 0.7872(5) 0.17913(17) 0.3835(7)
H7 H 0.8068 0.1928 0.5047
H8 H 0.8758 0.1860 0.3529
C12 C 0.6548(5) 0.20459(16) 0.2507(6)
C13 C 0.6389(5) 0.12699(16) 0.6184(6)
H9 H 0.6514 0.1632 0.6264
H10 H 0.5438 0.1192 0.6332
C14 C 0.7664(6) 0.1038(2) 0.7735(7)
H11 H 0.7658 0.1164 0.8879
H12 H 0.8618 0.1120 0.7629
H13 H 0.7539 0.0679 0.7697
C15 C 0.6014(5) 0.05393(14) 0.4124(5)
H14 H 0.6947 0.0379 0.4926
H15 H 0.5227 0.0458 0.4596
C16 C 0.5583(5) 0.03121(15) 0.2295(6)
C17 C 0.2612(4) 0.08540(14) 0.2646(5)
C18 C 0.1286(6) 0.01664(16) -0.1320(6)
H16 H 0.1432 0.0201 -0.2462
H17 H 0.0222 0.0203 -0.1532
H18 H 0.1630 -0.0160 -0.0808
C19 C 0.2263(5) 0.08461(15) 0.4270(5)
C20 C 0.2379(6) 0.13017(19) 0.6820(6)
H19 H 0.2689 0.1628 0.7350
H20 H 0.2963 0.1048 0.7659
H21 H 0.1314 0.1254 0.6580
N1 N 0.5160(4) 0.18217(11) 0.2184(4)
N2 N 0.1946(4) 0.04970(13) 0.1521(5)
O1 O 0.6631(4) 0.24260(12) 0.1766(5)
O2 O 0.5693(4) 0.05213(10) 0.0999(4)
O3 O 0.5088(4) -0.01394(10) 0.2256(4)
H22 H 0.4864 -0.0256 0.1216
O4 O 0.2131(4) 0.05415(11) -0.0080(4)
O5 O 0.1695(5) 0.04858(14) 0.4733(5)
O6 O 0.2631(4) 0.12650(11) 0.5156(4)
loop_
_geom_bond_atom_site_label_1
_geom_bond_atom_site_label_2
_geom_bond_site_symmetry_1
_geom_bond_site_symmetry_2
C1 C2 1_555 1_555
C2 C3 1_555 1_555
C3 H1 1_555 1_555
C4 C3 1_555 1_555
H2 C4 1_555 1_555
C5 C4 1_555 1_555
H3 C5 1_555 1_555
C6 C1 1_555 1_555
H4 C6 1_555 1_555
C7 C2 1_555 1_555
C8 C7 1_555 1_555
C9 C8 1_555 1_555
C10 C9 1_555 1_555
H5 C10 1_555 1_555
H6 C10 1_555 1_555
C11 C10 1_555 1_555
H7 C11 1_555 1_555
H8 C11 1_555 1_555
C12 C11 1_555 1_555
C13 C9 1_555 1_555
H9 C13 1_555 1_555
H10 C13 1_555 1_555
C14 C13 1_555 1_555
H11 C14 1_555 1_555
H12 C14 1_555 1_555
H13 C14 1_555 1_555
C15 C9 1_555 1_555
H14 C15 1_555 1_555
H15 C15 1_555 1_555
C16 C15 1_555 1_555
C17 C7 1_555 1_555
C18 H16 1_555 1_555
H17 C18 1_555 1_555
H18 C18 1_555 1_555
C19 C17 1_555 1_555
C20 H19 1_555 1_555
H20 C20 1_555 1_555
H21 C20 1_555 1_555
N1 C1 1_555 1_555
N2 C17 1_555 1_555
O1 C12 1_555 1_555
O2 C16 1_555 1_555
O3 C16 1_555 1_555
H22 O3 1_555 1_555
O4 C18 1_555 1_555
O5 C19 1_555 1_555
O6 C19 1_555 1_555
C5 C6 1_555 1_555
C8 N1 1_555 1_555
C12 N1 1_555 1_555
C20 O6 1_555 1_555
N2 O4 1_555 1_555

#END
