
#######################################################################
#
#                 Cambridge Crystallographic Data Centre
#                                CCDC 
#
#######################################################################
#
# If this CIF has been generated from an entry in the Cambridge 
# Structural Database, then it will include bibliographic, chemical, 
# crystal, experimental, refinement or atomic coordinate data resulting 
# from the CCDC's data processing and validation procedures.
#
#######################################################################

data_MOMXAP
_chemical_formula_moiety         'C20 H22 N2 O6'
_chemical_name_systematic        
'methyl 3a-ethyl-7-hydroxy-6-methoxy-1,5-dioxo-1,2,3,3a,4,5,6,7-octahydro-6,11b-diazacyclohepta[1,2,3-jk]fluorene-7-carboxylate'
_symmetry_cell_setting           monoclinic
_symmetry_space_group_name_H-M   'P 21/c'
_symmetry_Int_Tables_number      14
_space_group_name_Hall           '-P 2ybc'
loop_
_symmetry_equiv_pos_site_id
_symmetry_equiv_pos_as_xyz
1 x,y,z
2 -x,1/2+y,1/2-z
3 -x,-y,-z
4 x,1/2-y,1/2+z
_cell_length_a                   9.3854(18)
_cell_length_b                   18.319(3)
_cell_length_c                   11.434(2)
_cell_angle_alpha                90
_cell_angle_beta                 109.579(3)
_cell_angle_gamma                90
_cell_volume                     1852.2
_cell_formula_units_Z            4
loop_
_atom_site_label
_atom_site_type_symbol
_atom_site_fract_x
_atom_site_fract_y
_atom_site_fract_z
C1 C 0.6161(3) 0.16217(14) 0.5280(3)
C2 C 0.7334(3) 0.19347(17) 0.6227(3)
H1 H 0.8354 0.1877 0.6264
C3 C 0.6981(4) 0.23300(18) 0.7110(3)
H2 H 0.7770 0.2542 0.7777
C4 C 0.5485(4) 0.24253(17) 0.7044(3)
H3 H 0.5265 0.2696 0.7672
C5 C 0.4320(3) 0.21319(16) 0.6079(3)
H4 H 0.3300 0.2211 0.6028
C6 C 0.4645(3) 0.17191(14) 0.5181(3)
C7 C 0.3728(3) 0.12981(14) 0.4127(2)
C8 C 0.2025(3) 0.12911(15) 0.3716(2)
C9 C 0.1452(3) 0.20887(16) 0.3607(3)
C10 C 0.1620(4) 0.32468(17) 0.2742(4)
H5 H 0.2023 0.3468 0.2137
H6 H 0.2098 0.3474 0.3556
H7 H 0.0524 0.3324 0.2475
C11 C -0.0611(4) 0.14360(19) 0.0784(3)
H8 H -0.1668 0.1597 0.0477
H9 H -0.0475 0.1031 0.0272
H10 H 0.0049 0.1842 0.0740
C12 C 0.1438(3) 0.02168(17) 0.2287(3)
C13 C 0.3008(3) -0.00956(15) 0.2744(3)
H11 H 0.2996 -0.0557 0.2292
H12 H 0.3249 -0.0222 0.3632
C14 C 0.4315(3) 0.03806(15) 0.2625(2)
C15 C 0.3918(3) 0.07380(16) 0.1333(3)
H13 H 0.3194 0.1140 0.1276
H14 H 0.4849 0.0955 0.1255
C16 C 0.3236(4) 0.02168(19) 0.0247(3)
H15 H 0.3016 0.0484 -0.0536
H16 H 0.2298 0.0009 0.0301
H17 H 0.3955 -0.0177 0.0280
C17 C 0.5720(3) -0.01181(16) 0.2905(3)
H18 H 0.5821 -0.0411 0.3656
H19 H 0.5571 -0.0460 0.2204
C18 C 0.7180(3) 0.03126(17) 0.3111(3)
H20 H 0.8043 -0.0031 0.3322
H21 H 0.7125 0.0563 0.2329
C19 C 0.7460(3) 0.08666(16) 0.4122(3)
C20 C 0.4669(3) 0.09438(14) 0.3639(2)
N1 N 0.6176(2) 0.11352(12) 0.4321(2)
N2 N 0.1307(2) 0.09682(13) 0.2481(2)
O1 O 0.8708(2) 0.10806(12) 0.4744(2)
O2 O 0.1939(2) 0.24709(11) 0.2828(2)
O3 O 0.0736(2) 0.23256(12) 0.4208(2)
O4 O -0.02298(19) 0.11980(11) 0.20501(17)
O5 O 0.0359(2) -0.01485(12) 0.1707(2)
O6 O 0.1616(2) 0.09264(11) 0.46313(17)
H22 H 0.0712 0.1023 0.4547
loop_
_geom_bond_atom_site_label_1
_geom_bond_atom_site_label_2
_geom_bond_site_symmetry_1
_geom_bond_site_symmetry_2
C1 C2 1_555 1_555
C2 H1 1_555 1_555
C3 C2 1_555 1_555
H2 C3 1_555 1_555
C4 C3 1_555 1_555
H3 C4 1_555 1_555
C5 C4 1_555 1_555
H4 C5 1_555 1_555
C6 C1 1_555 1_555
C7 C6 1_555 1_555
C8 C7 1_555 1_555
C9 C8 1_555 1_555
C10 H5 1_555 1_555
H6 C10 1_555 1_555
H7 C10 1_555 1_555
C11 H8 1_555 1_555
H9 C11 1_555 1_555
H10 C11 1_555 1_555
C12 C13 1_555 1_555
C13 H11 1_555 1_555
H12 C13 1_555 1_555
C14 C13 1_555 1_555
C15 C14 1_555 1_555
H13 C15 1_555 1_555
H14 C15 1_555 1_555
C16 C15 1_555 1_555
H15 C16 1_555 1_555
H16 C16 1_555 1_555
H17 C16 1_555 1_555
C17 C14 1_555 1_555
H18 C17 1_555 1_555
H19 C17 1_555 1_555
C18 C17 1_555 1_555
H20 C18 1_555 1_555
H21 C18 1_555 1_555
C19 C18 1_555 1_555
C20 C7 1_555 1_555
N1 C1 1_555 1_555
N2 C8 1_555 1_555
O1 C19 1_555 1_555
O2 C9 1_555 1_555
O3 C9 1_555 1_555
O4 C11 1_555 1_555
O5 C12 1_555 1_555
O6 C8 1_555 1_555
H22 O6 1_555 1_555
C5 C6 1_555 1_555
C10 O2 1_555 1_555
C12 N2 1_555 1_555
C14 C20 1_555 1_555
C19 N1 1_555 1_555
C20 N1 1_555 1_555
N2 O4 1_555 1_555

#END
