
#######################################################################
#
#                 Cambridge Crystallographic Data Centre
#                                CCDC 
#
#######################################################################
#
# If this CIF has been generated from an entry in the Cambridge 
# Structural Database, then it will include bibliographic, chemical, 
# crystal, experimental, refinement or atomic coordinate data resulting 
# from the CCDC's data processing and validation procedures.
#
#######################################################################

data_MONDID
_chemical_name_common            
1-(2-(5-Hexanoyl-5H-[1,3]dithiolo[4,5-c]pyrrol-2-ylidene)-5H-[1,3]dithiolo[4,5-c]pyrrol-5-yl)-1-hexanone
_chemical_formula_moiety         'C22 H26 N2 O2 S4'
_chemical_name_systematic        
bis(N-n-hexanoylpyrrolo[3,4-d])tetrathiafulvalene
_symmetry_cell_setting           triclinic
_symmetry_space_group_name_H-M   'P -1'
_symmetry_Int_Tables_number      2
_space_group_name_Hall           '-P 1'
loop_
_symmetry_equiv_pos_site_id
_symmetry_equiv_pos_as_xyz
1 x,y,z
2 -x,-y,-z
_cell_length_a                   4.914(4)
_cell_length_b                   10.260(8)
_cell_length_c                   22.872(19)
_cell_angle_alpha                96.184(13)
_cell_angle_beta                 91.543(12)
_cell_angle_gamma                90.844(12)
_cell_volume                     1145.85
_exptl_crystal_colour            yellow
_exptl_crystal_description       block
_chemical_melting_point          '266.7-268.2 deg.C'
_cell_formula_units_Z            2
_exptl_crystal_recrystallization_method sublimation
loop_
_atom_site_label
_atom_site_type_symbol
_atom_site_fract_x
_atom_site_fract_y
_atom_site_fract_z
S1 S 0.0900(2) 1.14756(9) 0.57512(5)
S2 S 0.3053(2) 0.87838(8) 0.53874(5)
O1 O 0.8800(7) 1.1830(3) 0.75734(15)
N1 N 0.6739(7) 1.0501(3) 0.68355(16)
C1 C 0.0815(8) 1.0047(3) 0.52420(19)
C2 C 0.3499(8) 1.0928(3) 0.6181(2)
C3 C 0.4882(9) 1.1441(4) 0.6684(2)
C4 C 0.6434(9) 0.9382(3) 0.6424(2)
C5 C 0.4513(8) 0.9632(3) 0.60223(19)
C6 C 0.8576(9) 1.0723(4) 0.7303(2)
C7 C 1.0304(10) 0.9589(4) 0.7449(2)
C8 C 1.1920(13) 0.9850(5) 0.8018(3)
C9 C 1.0426(18) 0.9870(7) 0.8558(4)
C10 C 0.9527(18) 0.8612(8) 0.8709(4)
C11 C 0.808(3) 0.8663(10) 0.9304(5)
H1 H 0.4646 1.2300 0.6890
H2 H 0.7396 0.8572 0.6434
H3 H 1.1561 0.9371 0.7128
H4 H 0.9181 0.8816 0.7464
H5 H 1.2893 1.0659 0.8008
H6 H 1.3267 0.9167 0.8032
H7 H 0.8778 1.0408 0.8519
H8 H 1.1455 1.0326 0.8887
H9 H 0.8285 0.8169 0.8413
H10 H 1.1091 0.8026 0.8724
H11 H 0.6530 0.9201 0.9319
H12 H 0.9336 0.9057 0.9630
H13 H 0.7565 0.7821 0.9423
S1A S -0.0900(2) 0.85244(9) 0.42488(5)
S2A S -0.3053(2) 1.12162(8) 0.46126(5)
O1A O -0.8800(7) 0.8170(3) 0.24266(15)
N1A N -0.6739(7) 0.9499(3) 0.31645(16)
C1A C -0.0815(8) 0.9953(3) 0.47580(19)
C2A C -0.3499(8) 0.9072(3) 0.3819(2)
C3A C -0.4882(9) 0.8559(4) 0.3316(2)
C4A C -0.6434(9) 1.0618(3) 0.3576(2)
C5A C -0.4513(8) 1.0368(3) 0.39777(19)
C6A C -0.8576(9) 0.9277(4) 0.2697(2)
C7A C -1.0304(10) 1.0411(4) 0.2551(2)
C8A C -1.1920(13) 1.0150(5) 0.1982(3)
C9A C -1.0426(18) 1.0130(7) 0.1442(4)
C10A C -0.9527(18) 1.1388(8) 0.1291(4)
C11A C -0.808(3) 1.1337(10) 0.0696(5)
H1A H -0.4646 0.7700 0.3110
H2A H -0.7396 1.1428 0.3566
H3A H -1.1561 1.0629 0.2872
H4A H -0.9181 1.1184 0.2536
H5A H -1.2893 0.9341 0.1992
H6A H -1.3267 1.0833 0.1968
H7A H -0.8778 0.9592 0.1481
H8A H -1.1455 0.9674 0.1113
H9A H -0.8285 1.1831 0.1587
H10A H -1.1091 1.1974 0.1276
H11A H -0.6530 1.0799 0.0681
H12A H -0.9336 1.0943 0.0370
H13A H -0.7565 1.2179 0.0577
S3 S 0.8102(2) 0.64311(8) 0.53782(5)
S4 S 0.5836(2) 0.39376(9) 0.57680(5)
O2 O 1.4838(8) 0.6777(3) 0.74046(17)
N2 N 1.1587(8) 0.5578(3) 0.68609(17)
C12 C 0.5814(8) 0.5090(3) 0.52444(19)
C13 C 0.9447(9) 0.5948(3) 0.6033(2)
C14 C 1.1412(9) 0.6430(3) 0.6426(2)
C15 C 0.9692(9) 0.4532(4) 0.6720(2)
C16 C 0.8415(9) 0.4750(3) 0.6213(2)
C17 C 1.3384(10) 0.5803(4) 0.7348(2)
C18 C 1.3396(13) 0.4797(5) 0.7778(3)
C19 C 1.5078(16) 0.5080(6) 0.8309(3)
C20 C 1.5261(18) 0.3999(7) 0.8697(3)
C21 C 1.690(3) 0.4198(11) 0.9207(6)
C22 C 1.711(3) 0.3119(10) 0.9602(5)
H14 H 1.2499 0.7211 0.6406
H15 H 0.9430 0.3794 0.6943
H16 H 1.3872 0.3946 0.7582
H17 H 1.1521 0.4672 0.7910
H18 H 1.6972 0.5252 0.8176
H19 H 1.4558 0.5870 0.8524
H20 H 1.5833 0.3181 0.8474
H21 H 1.3405 0.3793 0.8818
H22 H 1.8778 0.4408 0.9101
H23 H 1.6332 0.4987 0.9451
H24 H 1.7763 0.2322 0.9392
H25 H 1.5320 0.2902 0.9742
H26 H 1.8273 0.3316 0.9946
S3A S 0.1898(2) 0.35689(8) 0.46218(5)
S4A S 0.4164(2) 0.60624(9) 0.42320(5)
O2A O -0.4838(8) 0.3223(3) 0.25954(17)
N2A N -0.1587(8) 0.4422(3) 0.31391(17)
C12A C 0.4186(8) 0.4910(3) 0.47556(19)
C13A C 0.0553(9) 0.4052(3) 0.3967(2)
C14A C -0.1412(9) 0.3570(3) 0.3574(2)
C15A C 0.0308(9) 0.5468(4) 0.3280(2)
C16A C 0.1585(9) 0.5250(3) 0.3787(2)
C17A C -0.3384(10) 0.4197(4) 0.2652(2)
C18A C -0.3396(13) 0.5203(5) 0.2222(3)
C19A C -0.5078(16) 0.4920(6) 0.1691(3)
C20A C -0.5261(18) 0.6001(7) 0.1303(3)
C21A C -0.690(3) 0.5802(11) 0.0793(6)
C22A C -0.711(3) 0.6881(10) 0.0398(5)
H14A H -0.2499 0.2789 0.3594
H15A H 0.0570 0.6206 0.3057
H16A H -0.3872 0.6054 0.2418
H17A H -0.1521 0.5328 0.2090
H18A H -0.6972 0.4748 0.1824
H19A H -0.4558 0.4130 0.1476
H20A H -0.5833 0.6819 0.1526
H21A H -0.3405 0.6207 0.1182
H22A H -0.8778 0.5592 0.0899
H23A H -0.6332 0.5013 0.0549
H24A H -0.7763 0.7678 0.0608
H25A H -0.5320 0.7098 0.0258
H26A H -0.8273 0.6684 0.0054
loop_
_geom_bond_atom_site_label_1
_geom_bond_atom_site_label_2
_geom_bond_site_symmetry_1
_geom_bond_site_symmetry_2
S1 C1 1_555 1_555
S2 C1 1_555 1_555
O1 C6 1_555 1_555
N1 C3 1_555 1_555
C1 C1A 1_555 1_555
C2 S1 1_555 1_555
C3 C2 1_555 1_555
C4 N1 1_555 1_555
C5 S2 1_555 1_555
C6 N1 1_555 1_555
C7 C6 1_555 1_555
C8 C7 1_555 1_555
C9 C8 1_555 1_555
C10 C9 1_555 1_555
C11 C10 1_555 1_555
H1 C3 1_555 1_555
H2 C4 1_555 1_555
H3 C7 1_555 1_555
H4 C7 1_555 1_555
H5 C8 1_555 1_555
H6 C8 1_555 1_555
H7 C9 1_555 1_555
H8 C9 1_555 1_555
H9 C10 1_555 1_555
H10 C10 1_555 1_555
H11 C11 1_555 1_555
H12 C11 1_555 1_555
H13 C11 1_555 1_555
S3 C12 1_555 1_555
S4 C12 1_555 1_555
O2 C17 1_555 1_555
N2 C14 1_555 1_555
C12 C12A 1_555 1_555
C13 S3 1_555 1_555
C14 C13 1_555 1_555
C15 N2 1_555 1_555
C16 S4 1_555 1_555
C17 N2 1_555 1_555
C18 C17 1_555 1_555
C19 C18 1_555 1_555
C20 C19 1_555 1_555
C21 C20 1_555 1_555
C22 C21 1_555 1_555
H14 C14 1_555 1_555
H15 C15 1_555 1_555
H16 C18 1_555 1_555
H17 C18 1_555 1_555
H18 C19 1_555 1_555
H19 C19 1_555 1_555
H20 C20 1_555 1_555
H21 C20 1_555 1_555
H22 C21 1_555 1_555
H23 C21 1_555 1_555
H24 C22 1_555 1_555
H25 C22 1_555 1_555
H26 C22 1_555 1_555
S1A C1A 1_555 1_555
S2A C1A 1_555 1_555
O1A C6A 1_555 1_555
N1A C3A 1_555 1_555
C2A S1A 1_555 1_555
C3A C2A 1_555 1_555
C4A N1A 1_555 1_555
C5A S2A 1_555 1_555
C6A N1A 1_555 1_555
C7A C6A 1_555 1_555
C8A C7A 1_555 1_555
C9A C8A 1_555 1_555
C10A C9A 1_555 1_555
C11A C10A 1_555 1_555
H1A C3A 1_555 1_555
H2A C4A 1_555 1_555
H3A C7A 1_555 1_555
H4A C7A 1_555 1_555
H5A C8A 1_555 1_555
H6A C8A 1_555 1_555
H7A C9A 1_555 1_555
H8A C9A 1_555 1_555
H9A C10A 1_555 1_555
H10A C10A 1_555 1_555
H11A C11A 1_555 1_555
H12A C11A 1_555 1_555
H13A C11A 1_555 1_555
S3A C12A 1_555 1_555
S4A C12A 1_555 1_555
O2A C17A 1_555 1_555
N2A C14A 1_555 1_555
C13A S3A 1_555 1_555
C14A C13A 1_555 1_555
C15A N2A 1_555 1_555
C16A S4A 1_555 1_555
C17A N2A 1_555 1_555
C18A C17A 1_555 1_555
C19A C18A 1_555 1_555
C20A C19A 1_555 1_555
C21A C20A 1_555 1_555
C22A C21A 1_555 1_555
H14A C14A 1_555 1_555
H15A C15A 1_555 1_555
H16A C18A 1_555 1_555
H17A C18A 1_555 1_555
H18A C19A 1_555 1_555
H19A C19A 1_555 1_555
H20A C20A 1_555 1_555
H21A C20A 1_555 1_555
H22A C21A 1_555 1_555
H23A C21A 1_555 1_555
H24A C22A 1_555 1_555
H25A C22A 1_555 1_555
H26A C22A 1_555 1_555
C2 C5 1_555 1_555
C4 C5 1_555 1_555
C13 C16 1_555 1_555
C15 C16 1_555 1_555
C2A C5A 1_555 1_555
C4A C5A 1_555 1_555
C13A C16A 1_555 1_555
C15A C16A 1_555 1_555

#END
