
#######################################################################
#
#                 Cambridge Crystallographic Data Centre
#                                CCDC 
#
#######################################################################
#
# If this CIF has been generated from an entry in the Cambridge 
# Structural Database, then it will include bibliographic, chemical, 
# crystal, experimental, refinement or atomic coordinate data resulting 
# from the CCDC's data processing and validation procedures.
#
#######################################################################

data_MONGUT
_chemical_formula_moiety         'C12 H12 B1 F2 N3 O1,0.33(C1 H2 Cl2)'
_chemical_name_systematic        
'(1-(7-amino-4-methyl-1,8-naphthyridin-2-yl)prop-1-en-2-olato)(difluoro)borate dichloromethane solvate'
_symmetry_cell_setting           triclinic
_symmetry_space_group_name_H-M   'P -1'
_symmetry_Int_Tables_number      2
_space_group_name_Hall           '-P 1'
loop_
_symmetry_equiv_pos_site_id
_symmetry_equiv_pos_as_xyz
1 x,y,z
2 -x,-y,-z
_cell_length_a                   11.461(3)
_cell_length_b                   12.130(3)
_cell_length_c                   14.451(4)
_cell_angle_alpha                83.107(7)
_cell_angle_beta                 82.118(7)
_cell_angle_gamma                73.049(6)
_cell_volume                     1896.77
_exptl_crystal_colour            yellow
_exptl_crystal_description       block
_cell_formula_units_Z            6
loop_
_atom_site_label
_atom_site_type_symbol
_atom_site_fract_x
_atom_site_fract_y
_atom_site_fract_z
F1 F -0.0512(2) 0.64592(18) 0.90680(14)
F2 F -0.17251(18) 0.82809(18) 0.87020(14)
O1 O -0.0353(2) 0.7298(2) 0.75582(17)
N1 N -0.1497(3) 0.8013(3) 1.1842(2)
H1 H -0.2018 0.7712 1.1642
H2 H -0.1571 0.8149 1.2435
N2 N -0.0514(3) 0.8046(2) 1.03562(19)
N3 N 0.0436(3) 0.8049(2) 0.88272(19)
B1 B -0.0563(4) 0.7502(4) 0.8554(3)
C1 C -0.0585(3) 0.8267(3) 1.1240(2)
C2 C 0.0254(3) 0.8756(3) 1.1574(2)
H3 H 0.0184 0.8894 1.2215
C3 C 0.1147(3) 0.9017(3) 1.0957(2)
H4 H 0.1705 0.9357 1.1162
C4 C 0.1262(3) 0.8789(3) 1.0000(2)
C5 C 0.2173(3) 0.9041(3) 0.9315(2)
C6 C 0.2180(3) 0.8787(3) 0.8417(2)
H5 H 0.2785 0.8950 0.7945
C7 C 0.1302(3) 0.8287(3) 0.8176(2)
C8 C 0.0392(3) 0.8293(3) 0.9752(2)
C9 C 0.3099(3) 0.9585(3) 0.9564(3)
H6 H 0.3655 0.9694 0.9004
H7 H 0.3572 0.9079 1.0045
H8 H 0.2674 1.0336 0.9805
C10 C 0.1344(3) 0.8039(3) 0.7225(2)
H9 H 0.1963 0.8212 0.6772
C11 C 0.0524(3) 0.7563(3) 0.6957(2)
C12 C 0.0505(4) 0.7302(3) 0.5975(2)
H10 H -0.0169 0.6964 0.5953
H11 H 0.1286 0.6752 0.5769
H12 H 0.0386 0.8018 0.5561
F3 F 0.75293(19) -0.18116(17) 0.45217(15)
F4 F 0.84146(18) -0.06675(18) 0.34774(13)
O2 O 0.8266(2) -0.0490(2) 0.50709(18)
N4 N 0.5655(3) -0.2014(3) 0.2147(2)
H13 H 0.6328 -0.2539 0.2299
H14 H 0.5220 -0.2155 0.1742
N5 N 0.5993(3) -0.0837(3) 0.31447(19)
N6 N 0.6398(3) 0.0246(2) 0.42068(19)
B2 B 0.7676(4) -0.0720(3) 0.4318(3)
C13 C 0.5287(3) -0.0983(3) 0.2540(2)
C14 C 0.4219(3) -0.0115(3) 0.2285(2)
H15 H 0.3755 -0.0235 0.1829
C15 C 0.3876(3) 0.0888(3) 0.2707(2)
H16 H 0.3157 0.1472 0.2555
C16 C 0.4587(3) 0.1069(3) 0.3378(2)
C17 C 0.4285(3) 0.2084(3) 0.3865(2)
C18 C 0.5032(3) 0.2116(3) 0.4507(2)
H17 H 0.4837 0.2779 0.4849
C19 C 0.6085(3) 0.1204(3) 0.4685(2)
C20 C 0.5642(3) 0.0156(3) 0.3564(2)
C21 C 0.3183(4) 0.3084(3) 0.3679(3)
H18 H 0.3131 0.3698 0.4080
H19 H 0.2439 0.2825 0.3818
H20 H 0.3261 0.3382 0.3019
C22 C 0.6845(3) 0.1284(3) 0.5362(2)
H21 H 0.6606 0.1948 0.5707
C23 C 0.7879(3) 0.0466(3) 0.5534(2)
C24 C 0.8697(4) 0.0488(4) 0.6242(3)
H22 H 0.8370 0.1204 0.6557
H23 H 0.9521 0.0452 0.5930
H24 H 0.8739 -0.0178 0.6706
F5 F 0.43284(18) 0.59151(17) 0.25489(13)
F6 F 0.32000(18) 0.77735(16) 0.22031(13)
O3 O 0.2228(2) 0.6476(2) 0.29740(16)
N7 N 0.6360(3) 0.7589(3) 0.0035(2)
H25 H 0.6377 0.7799 0.0594
H26 H 0.6899 0.7714 -0.0431
N8 N 0.4722(3) 0.6913(2) 0.0623(2)
N9 N 0.3044(3) 0.6275(2) 0.12776(19)
B3 B 0.3214(4) 0.6617(4) 0.2268(3)
C25 C 0.5506(3) 0.7076(3) -0.0107(2)
C26 C 0.5480(3) 0.6733(3) -0.1008(2)
H27 H 0.6070 0.6843 -0.1514
C27 C 0.4598(3) 0.6247(3) -0.1130(2)
H28 H 0.4564 0.6018 -0.1730
C28 C 0.3733(3) 0.6076(3) -0.0383(2)
C29 C 0.2766(3) 0.5567(3) -0.0449(2)
C30 C 0.1998(3) 0.5451(3) 0.0332(2)
H29 H 0.1344 0.5131 0.0292
C31 C 0.2132(3) 0.5786(3) 0.1206(2)
C32 C 0.3843(3) 0.6429(3) 0.0491(2)
C33 C 0.2636(3) 0.5168(3) -0.1363(2)
H30 H 0.1934 0.4847 -0.1286
H31 H 0.3385 0.4573 -0.1560
H32 H 0.2505 0.5825 -0.1841
C34 C 0.1330(3) 0.5617(3) 0.2013(2)
H33 H 0.0733 0.5230 0.1963
C35 C 0.1376(3) 0.5978(3) 0.2846(3)
C36 C 0.0509(4) 0.5890(4) 0.3711(3)
H34 H 0.0743 0.6214 0.4224
H35 H 0.0547 0.5076 0.3889
H36 H -0.0328 0.6322 0.3586
Cl1 Cl 0.34615(13) 0.56450(11) 0.48704(8)
Cl2 Cl 0.26812(12) 0.41541(12) 0.63723(9)
C37 C 0.3449(5) 0.5242(4) 0.6086(3)
H37 H 0.3021 0.5921 0.6441
H38 H 0.4300 0.4946 0.6255
loop_
_geom_bond_atom_site_label_1
_geom_bond_atom_site_label_2
_geom_bond_site_symmetry_1
_geom_bond_site_symmetry_2
F1 B1 1_555 1_555
F2 B1 1_555 1_555
O1 B1 1_555 1_555
N1 H1 1_555 1_555
H2 N1 1_555 1_555
N2 C1 1_555 1_555
N3 B1 1_555 1_555
C1 N1 1_555 1_555
C2 C1 1_555 1_555
H3 C2 1_555 1_555
C3 C2 1_555 1_555
H4 C3 1_555 1_555
C4 C3 1_555 1_555
C5 C4 1_555 1_555
C6 C5 1_555 1_555
H5 C6 1_555 1_555
C7 N3 1_555 1_555
C8 N2 1_555 1_555
C9 C5 1_555 1_555
H6 C9 1_555 1_555
H7 C9 1_555 1_555
H8 C9 1_555 1_555
C10 C7 1_555 1_555
H9 C10 1_555 1_555
C11 O1 1_555 1_555
C12 C11 1_555 1_555
H10 C12 1_555 1_555
H11 C12 1_555 1_555
H12 C12 1_555 1_555
F3 B2 1_555 1_555
F4 B2 1_555 1_555
O2 B2 1_555 1_555
N4 H13 1_555 1_555
H14 N4 1_555 1_555
N5 C13 1_555 1_555
N6 B2 1_555 1_555
C13 N4 1_555 1_555
C14 C13 1_555 1_555
H15 C14 1_555 1_555
C15 C14 1_555 1_555
H16 C15 1_555 1_555
C16 C15 1_555 1_555
C17 C16 1_555 1_555
C18 C17 1_555 1_555
H17 C18 1_555 1_555
C19 N6 1_555 1_555
C20 N5 1_555 1_555
C21 C17 1_555 1_555
H18 C21 1_555 1_555
H19 C21 1_555 1_555
H20 C21 1_555 1_555
C22 C19 1_555 1_555
H21 C22 1_555 1_555
C23 O2 1_555 1_555
C24 C23 1_555 1_555
H22 C24 1_555 1_555
H23 C24 1_555 1_555
H24 C24 1_555 1_555
F5 B3 1_555 1_555
F6 B3 1_555 1_555
O3 B3 1_555 1_555
N7 H25 1_555 1_555
H26 N7 1_555 1_555
N8 C25 1_555 1_555
N9 B3 1_555 1_555
C25 N7 1_555 1_555
C26 C25 1_555 1_555
H27 C26 1_555 1_555
C27 C26 1_555 1_555
H28 C27 1_555 1_555
C28 C27 1_555 1_555
C29 C28 1_555 1_555
C30 C29 1_555 1_555
H29 C30 1_555 1_555
C31 N9 1_555 1_555
C32 N8 1_555 1_555
C33 C29 1_555 1_555
H30 C33 1_555 1_555
H31 C33 1_555 1_555
H32 C33 1_555 1_555
C34 C31 1_555 1_555
H33 C34 1_555 1_555
C35 O3 1_555 1_555
C36 C35 1_555 1_555
H34 C36 1_555 1_555
H35 C36 1_555 1_555
H36 C36 1_555 1_555
Cl1 C37 1_555 1_555
Cl2 C37 1_555 1_555
C37 H37 1_555 1_555
H38 C37 1_555 1_555
N3 C8 1_555 1_555
C4 C8 1_555 1_555
C6 C7 1_555 1_555
C10 C11 1_555 1_555
N6 C20 1_555 1_555
C16 C20 1_555 1_555
C18 C19 1_555 1_555
C22 C23 1_555 1_555
N9 C32 1_555 1_555
C28 C32 1_555 1_555
C30 C31 1_555 1_555
C34 C35 1_555 1_555

#END
