
#######################################################################
#
#                 Cambridge Crystallographic Data Centre
#                                CCDC 
#
#######################################################################
#
# If this CIF has been generated from an entry in the Cambridge 
# Structural Database, then it will include bibliographic, chemical, 
# crystal, experimental, refinement or atomic coordinate data resulting 
# from the CCDC's data processing and validation procedures.
#
#######################################################################

data_MONHEE
_chemical_formula_moiety         'C26 H25 B1 F2 N6 O2'
_chemical_name_systematic        
difluoro(N-(7-(2-(oxy)prop-1-en-1-yl)-5-methyl-1,8-naphthyridin-2-yl)-N^2^,N^2^-bis(pyridin-2-ylmethyl)glycinamidato)borate
_symmetry_cell_setting           triclinic
_symmetry_space_group_name_H-M   'P -1'
_symmetry_Int_Tables_number      2
_space_group_name_Hall           '-P 1'
loop_
_symmetry_equiv_pos_site_id
_symmetry_equiv_pos_as_xyz
1 x,y,z
2 -x,-y,-z
_cell_length_a                   8.5060(10)
_cell_length_b                   8.8100(11)
_cell_length_c                   17.414(2)
_cell_angle_alpha                96.487(5)
_cell_angle_beta                 103.927(3)
_cell_angle_gamma                105.669(4)
_cell_volume                     1197.22
_exptl_crystal_colour            colorless
_exptl_crystal_description       prism
_cell_formula_units_Z            2
loop_
_atom_site_label
_atom_site_type_symbol
_atom_site_fract_x
_atom_site_fract_y
_atom_site_fract_z
F1 F 0.44350(11) 0.70040(10) 0.21027(5)
F2 F 0.62899(10) 0.94961(10) 0.22222(5)
O1 O 0.34090(12) 0.91352(11) 0.18989(6)
O2 O 1.03387(12) 0.43585(12) 0.12110(6)
N1 N 0.46551(13) 0.80214(12) 0.08795(6)
N2 N 0.69160(13) 0.70293(12) 0.12590(6)
N3 N 0.90841(14) 0.60599(14) 0.17436(7)
N4 N 1.06904(14) 0.60479(13) 0.32475(7)
N5 N 0.79475(16) 0.32151(15) 0.39664(8)
C1 C 0.34765(16) 0.83410(15) 0.03025(8)
C2 C 0.34506(17) 0.80336(16) -0.05172(8)
H1 H 0.2625 0.8294 -0.0909
C3 C 0.45615(17) 0.73812(15) -0.07627(8)
C4 C 0.58004(16) 0.70214(15) -0.01597(8)
C5 C 0.58187(15) 0.73507(15) 0.06558(8)
C6 C 0.80282(16) 0.63631(16) 0.10718(8)
C7 C 0.81559(17) 0.60026(16) 0.02851(8)
H2 H 0.8996 0.5549 0.0182
C8 C 0.70241(17) 0.63308(16) -0.03223(8)
H3 H 0.7062 0.6090 -0.0862
C9 C 0.22709(17) 0.90072(17) 0.05282(9)
H4 H 0.1422 0.9194 0.0117
C10 C 0.22817(17) 0.93844(16) 0.12990(9)
C11 C 0.10812(19) 1.01470(18) 0.15637(10)
H5 H 0.0507 0.9492 0.1894
H6 H 0.0232 1.0224 0.1089
H7 H 0.1718 1.1225 0.1881
C12 C 0.44898(18) 0.70080(17) -0.16329(8)
H8 H 0.3616 0.7389 -0.1958
H9 H 0.4207 0.5845 -0.1805
H10 H 0.5599 0.7546 -0.1706
C13 C 1.00652(16) 0.50579(16) 0.17835(8)
C14 C 1.07197(17) 0.48040(16) 0.26343(8)
H11 H 1.0016 0.3752 0.2694
H12 H 1.1903 0.4770 0.2722
C15 C 1.21846(17) 0.74720(17) 0.34494(9)
H13 H 1.2513 0.7686 0.2955
H14 H 1.3151 0.7277 0.3828
C16 C 1.18170(17) 0.89089(16) 0.38284(8)
C17 C 1.03931(17) 0.92302(17) 0.34455(8)
H15 H 0.9659 0.8578 0.2949
N6 N 1.29078(16) 0.98223(15) 0.45325(8)
C18 C 1.25332(19) 1.11014(17) 0.48684(9)
H16 H 1.3286 1.1756 0.5361
C19 C 1.1095(2) 1.14686(18) 0.45126(10)
H17 H 1.0833 1.2354 0.4756
C20 C 1.0044(2) 1.0518(2) 0.37949(10)
H18 H 0.9051 1.0764 0.3535
C21 C 1.03274(17) 0.54631(17) 0.39625(8)
H19 H 1.0761 0.6372 0.4426
H20 H 1.0929 0.4667 0.4096
C22 C 0.84422(17) 0.46967(17) 0.38251(8)
C23 C 0.73137(18) 0.55385(18) 0.35829(9)
H21 H 0.7711 0.6590 0.3480
C24 C 0.56112(19) 0.48389(19) 0.34931(9)
H22 H 0.4816 0.5400 0.3331
C25 C 0.5080(2) 0.3309(2) 0.36430(9)
H23 H 0.3913 0.2794 0.3590
C26 C 0.6279(2) 0.2551(2) 0.38700(11)
H24 H 0.5906 0.1489 0.3965
B1 B 0.4740(2) 0.84056(19) 0.18078(9)
H25 H 0.903(2) 0.6499(19) 0.2240(10)
N7? N 1.03931(17) 0.92302(17) 0.34455(8)
C27? C 1.29078(16) 0.98223(15) 0.45325(8)
H26? H 1.3906 0.9575 0.4784
loop_
_geom_bond_atom_site_label_1
_geom_bond_atom_site_label_2
_geom_bond_site_symmetry_1
_geom_bond_site_symmetry_2
F1 B1 1_555 1_555
F2 B1 1_555 1_555
O1 C10 1_555 1_555
O2 C13 1_555 1_555
N1 C1 1_555 1_555
N2 C5 1_555 1_555
N3 C6 1_555 1_555
N4 C14 1_555 1_555
N5 C22 1_555 1_555
C1 C2 1_555 1_555
C2 H1 1_555 1_555
C3 C2 1_555 1_555
C4 C3 1_555 1_555
C5 N1 1_555 1_555
C6 N2 1_555 1_555
C7 C6 1_555 1_555
H2 C7 1_555 1_555
C8 C4 1_555 1_555
H3 C8 1_555 1_555
C9 C1 1_555 1_555
H4 C9 1_555 1_555
C10 C9 1_555 1_555
C11 C10 1_555 1_555
H5 C11 1_555 1_555
H6 C11 1_555 1_555
H7 C11 1_555 1_555
C12 C3 1_555 1_555
H8 C12 1_555 1_555
H9 C12 1_555 1_555
H10 C12 1_555 1_555
C13 N3 1_555 1_555
C14 C13 1_555 1_555
H11 C14 1_555 1_555
H12 C14 1_555 1_555
C15 N4 1_555 1_555
H13 C15 1_555 1_555
H14 C15 1_555 1_555
C16 C15 1_555 1_555
C17 C16 1_555 1_555
H15 C17 1_555 1_555
N6 C16 1_555 1_555
C18 N6 1_555 1_555
H16 C18 1_555 1_555
C19 C18 1_555 1_555
H17 C19 1_555 1_555
C20 C17 1_555 1_555
H18 C20 1_555 1_555
C21 N4 1_555 1_555
H19 C21 1_555 1_555
H20 C21 1_555 1_555
C22 C21 1_555 1_555
C23 C22 1_555 1_555
H21 C23 1_555 1_555
C24 C23 1_555 1_555
H22 C24 1_555 1_555
C25 C24 1_555 1_555
H23 C25 1_555 1_555
C26 N5 1_555 1_555
H24 C26 1_555 1_555
B1 O1 1_555 1_555
H25 N3 1_555 1_555
N1 B1 1_555 1_555
C4 C5 1_555 1_555
C7 C8 1_555 1_555
C19 C20 1_555 1_555
C25 C26 1_555 1_555

#END
