
#######################################################################
#
#                 Cambridge Crystallographic Data Centre
#                                CCDC 
#
#######################################################################
#
# If this CIF has been generated from an entry in the Cambridge 
# Structural Database, then it will include bibliographic, chemical, 
# crystal, experimental, refinement or atomic coordinate data resulting 
# from the CCDC's data processing and validation procedures.
#
#######################################################################

data_MONHAA
_chemical_formula_moiety         'C14 H13 B1 Cl1 F2 N3 O2'
_chemical_name_systematic        
(2-chloro-N-(7-(2-(oxy)prop-1-en-1-yl)-5-methyl-1,8-naphthyridin-2-yl)acetamidato)(difluoro)borate
_symmetry_cell_setting           triclinic
_symmetry_space_group_name_H-M   'P -1'
_symmetry_Int_Tables_number      2
_space_group_name_Hall           '-P 1'
loop_
_symmetry_equiv_pos_site_id
_symmetry_equiv_pos_as_xyz
1 x,y,z
2 -x,-y,-z
_cell_length_a                   7.6450(15)
_cell_length_b                   12.310(3)
_cell_length_c                   16.339(3)
_cell_angle_alpha                94.37(3)
_cell_angle_beta                 99.76(3)
_cell_angle_gamma                95.76(3)
_cell_volume                     1500.93
_exptl_crystal_colour            colorless
_exptl_crystal_description       block
_cell_formula_units_Z            4
loop_
_atom_site_label
_atom_site_type_symbol
_atom_site_fract_x
_atom_site_fract_y
_atom_site_fract_z
Cl1 Cl 0.10392(12) 0.35371(6) 0.34060(4)
F1 F -0.0042(3) 0.28881(14) 0.09279(10)
N1 N 0.1494(3) 0.35554(16) -0.01849(12)
N2 N 0.2406(3) 0.47665(17) 0.10210(12)
C1 C 0.2823(3) 0.5416(2) -0.03162(15)
O1 O 0.0057(3) 0.16216(16) -0.01465(12)
F2 F 0.2652(3) 0.23211(15) 0.07986(12)
C2 C 0.2616(3) 0.5174(2) -0.12061(15)
C3 C 0.2255(3) 0.45969(19) 0.01761(14)
N3 N 0.3215(4) 0.59594(19) 0.22537(13)
H1 H 0.3761 0.6592 0.2457
C4 C 0.1274(4) 0.3334(2) -0.10318(15)
C5 C 0.3226(4) 0.6027(2) -0.17429(16)
H2 H 0.2990 0.5727 -0.2316
H3 H 0.4485 0.6243 -0.1570
H4 H 0.2592 0.6656 -0.1685
C6 C 0.1840(4) 0.4154(2) -0.15351(15)
H5 H 0.1672 0.3985 -0.2110
C7 C 0.3095(4) 0.5750(2) 0.13862(15)
O2 O 0.2743(4) 0.57529(19) 0.35518(12)
C8 C 0.2616(4) 0.5333(2) 0.28353(16)
C9 C 0.3598(4) 0.6445(2) 0.01139(16)
H6 H 0.4014 0.7002 -0.0183
C10 C -0.0143(4) 0.1480(2) -0.09687(16)
C11 C 0.1855(4) 0.4158(2) 0.25723(16)
H7 H 0.2773 0.3751 0.2399
H8 H 0.0888 0.4131 0.2100
B1 B 0.1055(4) 0.2584(2) 0.03812(18)
C12 C 0.0451(4) 0.2277(2) -0.14138(17)
H9 H 0.0322 0.2134 -0.1989
C13 C 0.3738(4) 0.6625(2) 0.09583(16)
H10 H 0.4237 0.7297 0.1243
C14 C -0.1151(5) 0.0393(2) -0.1344(2)
H11 H -0.1433 -0.0035 -0.0907
H12 H -0.0427 0.0007 -0.1666
H13 H -0.2237 0.0513 -0.1699
Cl2 Cl 0.74328(15) 0.56658(6) 0.39036(5)
F3 F 0.3387(3) 0.22008(13) 0.72146(10)
F4 F 0.6062(2) 0.15456(13) 0.71829(10)
N4 N 0.4323(3) 0.17495(16) 0.55604(12)
N5 N 0.3326(3) 0.04554(16) 0.63941(12)
O3 O 0.4148(3) 0.07293(16) 0.79589(12)
C15 C 0.3403(3) 0.07590(19) 0.55922(15)
O4 O 0.5629(3) 0.33356(18) 0.34995(11)
C16 C 0.3705(4) 0.1442(2) 0.40490(16)
H14 H 0.3826 0.1698 0.3538
C17 C 0.2425(4) -0.0531(2) 0.64822(17)
C18 C 0.2589(3) 0.00545(19) 0.48701(15)
N6 N 0.5508(3) 0.30911(17) 0.48672(12)
H15 H 0.5831 0.3422 0.5361
C19 C 0.1571(4) -0.1242(2) 0.57597(17)
H16 H 0.0942 -0.1903 0.5833
C20 C 0.2783(4) 0.0446(2) 0.40920(16)
H17 H 0.2271 0.0015 0.3601
C21 C 0.1649(3) -0.0984(2) 0.49690(17)
C22 C 0.6076(4) 0.3634(2) 0.42377(16)
C23 C 0.2353(4) -0.0857(2) 0.72995(18)
H18 H 0.1676 -0.1509 0.7354
C24 C 0.4475(3) 0.20744(19) 0.48141(15)
C25 C 0.3248(4) -0.0237(2) 0.79983(18)
B2 B 0.4253(4) 0.1262(2) 0.71938(18)
C26 C 0.0795(4) -0.1768(2) 0.42162(19)
H19 H 0.0227 -0.2416 0.4397
H20 H 0.1696 -0.1965 0.3907
H21 H -0.0080 -0.1420 0.3867
C27 C 0.7445(5) 0.4616(3) 0.45747(18)
H22 H 0.8626 0.4374 0.4669
H23 H 0.7210 0.4908 0.5108
C28 C 0.3368(5) -0.0572(3) 0.8871(2)
H24 H 0.4063 0.0000 0.9258
H25 H 0.3929 -0.1234 0.8912
H26 H 0.2189 -0.0696 0.9000
loop_
_geom_bond_atom_site_label_1
_geom_bond_atom_site_label_2
_geom_bond_site_symmetry_1
_geom_bond_site_symmetry_2
Cl1 C11 1_555 1_555
F1 B1 1_555 1_555
N1 C3 1_555 1_555
N2 C3 1_555 1_555
C1 C2 1_555 1_555
O1 C10 1_555 1_555
F2 B1 1_555 1_555
C2 C5 1_555 1_555
C3 C1 1_555 1_555
N3 H1 1_555 1_555
C4 N1 1_555 1_555
C5 H2 1_555 1_555
H3 C5 1_555 1_555
H4 C5 1_555 1_555
C6 C2 1_555 1_555
H5 C6 1_555 1_555
C7 N2 1_555 1_555
O2 C8 1_555 1_555
C8 N3 1_555 1_555
C9 C1 1_555 1_555
H6 C9 1_555 1_555
C10 C12 1_555 1_555
C11 C8 1_555 1_555
H7 C11 1_555 1_555
H8 C11 1_555 1_555
B1 N1 1_555 1_555
C12 C4 1_555 1_555
H9 C12 1_555 1_555
C13 C7 1_555 1_555
H10 C13 1_555 1_555
C14 C10 1_555 1_555
H11 C14 1_555 1_555
H12 C14 1_555 1_555
H13 C14 1_555 1_555
Cl2 C27 1_555 1_555
F3 B2 1_555 1_555
F4 B2 1_555 1_555
N4 C15 1_555 1_555
N5 C15 1_555 1_555
O3 C25 1_555 1_555
C15 C18 1_555 1_555
O4 C22 1_555 1_555
C16 H14 1_555 1_555
C17 N5 1_555 1_555
C18 C20 1_555 1_555
N6 H15 1_555 1_555
C19 C17 1_555 1_555
H16 C19 1_555 1_555
C20 C16 1_555 1_555
H17 C20 1_555 1_555
C21 C18 1_555 1_555
C22 N6 1_555 1_555
C23 C17 1_555 1_555
H18 C23 1_555 1_555
C24 N4 1_555 1_555
C25 C23 1_555 1_555
B2 N5 1_555 1_555
C26 C21 1_555 1_555
H19 C26 1_555 1_555
H20 C26 1_555 1_555
H21 C26 1_555 1_555
C27 C22 1_555 1_555
H22 C27 1_555 1_555
H23 C27 1_555 1_555
C28 C25 1_555 1_555
H24 C28 1_555 1_555
H25 C28 1_555 1_555
H26 C28 1_555 1_555
O1 B1 1_555 1_555
N3 C7 1_555 1_555
C4 C6 1_555 1_555
C9 C13 1_555 1_555
O3 B2 1_555 1_555
C16 C24 1_555 1_555
N6 C24 1_555 1_555
C19 C21 1_555 1_555

#END
