
#######################################################################
#
#                 Cambridge Crystallographic Data Centre
#                                CCDC 
#
#######################################################################
#
# If this CIF has been generated from an entry in the Cambridge 
# Structural Database, then it will include bibliographic, chemical, 
# crystal, experimental, refinement or atomic coordinate data resulting 
# from the CCDC's data processing and validation procedures.
#
#######################################################################

data_MONNUA
_chemical_formula_moiety         'C48 H33 N3'
_chemical_name_systematic        
2,2'-((phenylazanediyl)bis(4,1-phenylene))bis(3,3-diphenylacrylonitrile)
_symmetry_cell_setting           tetragonal
_symmetry_space_group_name_H-M   'P 43 21 2'
_symmetry_Int_Tables_number      96
_space_group_name_Hall           'P 4nw 2abw'
loop_
_symmetry_equiv_pos_site_id
_symmetry_equiv_pos_as_xyz
1 x,y,z
2 -x,-y,1/2+z
3 1/2-y,1/2+x,3/4+z
4 1/2+y,1/2-x,1/4+z
5 1/2-x,1/2+y,3/4-z
6 1/2+x,1/2-y,1/4-z
7 y,x,-z
8 -y,-x,1/2-z
_cell_length_a                   10.6097(11)
_cell_length_b                   10.6097(11)
_cell_length_c                   32.495(7)
_cell_angle_alpha                90
_cell_angle_beta                 90
_cell_angle_gamma                90
_cell_volume                     3657.82
_cell_formula_units_Z            4
loop_
_atom_site_label
_atom_site_type_symbol
_atom_site_fract_x
_atom_site_fract_y
_atom_site_fract_z
C1 C 0.7303(2) -0.2189(3) 0.16923(8)
H1 H 0.7497 -0.2860 0.1865
C2 C 0.7615(2) -0.0989(3) 0.18059(7)
H2 H 0.7993 -0.0843 0.2060
C3 C 0.73667(17) 0.0015(2) 0.15416(6)
H3 H 0.7597 0.0829 0.1617
C4 C 0.67766(15) -0.01903(17) 0.11648(5)
C5 C 0.6424(2) -0.1414(2) 0.10683(7)
H4 H 0.5989 -0.1567 0.0825
C6 C 0.6706(3) -0.2411(2) 0.13262(8)
H5 H 0.6491 -0.3229 0.1251
C7 C 0.64704(15) 0.08695(15) 0.08818(5)
C8 C 0.41412(16) 0.07731(16) 0.10000(6)
H6 H 0.4295 0.0628 0.1278
C9 C 0.51449(15) 0.09179(15) 0.07307(5)
C10 C 0.48918(17) 0.10829(16) 0.03140(5)
H7 H 0.5554 0.1150 0.0128
C11 C 0.29158(17) 0.08419(18) 0.08595(7)
H8 H 0.2250 0.0759 0.1044
C12 C 0.26761(18) 0.10329(18) 0.04492(7)
H9 H 0.1849 0.1085 0.0356
C13 C 0.36609(18) 0.11475(17) 0.01751(6)
H10 H 0.3498 0.1268 -0.0103
C14 C 0.86635(17) 0.14971(17) 0.08592(5)
C15 C 0.71224(15) 0.29624(15) 0.05560(5)
C16 C 0.60556(15) 0.36874(16) 0.06411(6)
H11 H 0.5453 0.3382 0.0823
C17 C 0.79989(16) 0.34640(18) 0.02827(5)
H12 H 0.8725 0.3009 0.0222
C18 C 0.78136(16) 0.46222(18) 0.01000(6)
H13 H 0.8415 0.4931 -0.0082
C19 C 0.67541(15) 0.53317(16) 0.01825(6)
C20 C 0.58815(17) 0.48446(17) 0.04604(6)
H14 H 0.5167 0.5312 0.0525
C21 C 0.74782(17) 0.74782(17) 0.0000
C22 C 0.8396(2) 0.7502(2) 0.03019(7)
H15 H 0.8397 0.6894 0.0508
C23 C 0.9315(2) 0.8430(2) 0.02977(9)
H16 H 0.9932 0.8441 0.0501
C24 C 0.9320(2) 0.9320(2) 0.0000
H17 H 0.9940 0.9940 0.0000
C25 C 0.73476(15) 0.17373(16) 0.07682(5)
N1 N 0.65332(13) 0.65332(13) 0.0000
N2 N 0.97191(15) 0.13569(18) 0.09026(5)
C1F C -0.2189(3) 0.7303(2) -0.16923(8)
H1F H -0.2860 0.7497 -0.1865
C2F C -0.0989(3) 0.7615(2) -0.18059(7)
H2F H -0.0843 0.7993 -0.2060
C3F C 0.0015(2) 0.73667(17) -0.15416(6)
H3F H 0.0829 0.7597 -0.1617
C4F C -0.01903(17) 0.67766(15) -0.11648(5)
C5F C -0.1414(2) 0.6424(2) -0.10683(7)
H4F H -0.1567 0.5989 -0.0825
C6F C -0.2411(2) 0.6706(3) -0.13262(8)
H5F H -0.3229 0.6491 -0.1251
C7F C 0.08695(15) 0.64704(15) -0.08818(5)
C8F C 0.07731(16) 0.41412(16) -0.10000(6)
H6F H 0.0628 0.4295 -0.1278
C9F C 0.09179(15) 0.51449(15) -0.07307(5)
C10F C 0.10829(16) 0.48918(17) -0.03140(5)
H7F H 0.1150 0.5554 -0.0128
C11F C 0.08419(18) 0.29158(17) -0.08595(7)
H8F H 0.0759 0.2250 -0.1044
C12F C 0.10329(18) 0.26761(18) -0.04492(7)
H9F H 0.1085 0.1849 -0.0356
C13F C 0.11475(17) 0.36609(18) -0.01751(6)
H10F H 0.1268 0.3498 0.0103
C14F C 0.14971(17) 0.86635(17) -0.08592(5)
C15F C 0.29624(15) 0.71224(15) -0.05560(5)
C16F C 0.36874(16) 0.60556(15) -0.06411(6)
H11F H 0.3382 0.5453 -0.0823
C17F C 0.34640(18) 0.79989(16) -0.02827(5)
H12F H 0.3009 0.8725 -0.0222
C18F C 0.46222(18) 0.78136(16) -0.01000(6)
H13F H 0.4931 0.8415 0.0082
C19F C 0.53317(16) 0.67541(15) -0.01825(6)
C20F C 0.48446(17) 0.58815(17) -0.04604(6)
H14F H 0.5312 0.5167 -0.0525
C22F C 0.7502(2) 0.8396(2) -0.03019(7)
H15F H 0.6894 0.8397 -0.0508
C23F C 0.8430(2) 0.9315(2) -0.02977(9)
H16F H 0.8441 0.9932 -0.0501
C25F C 0.17373(16) 0.73476(15) -0.07682(5)
N2F N 0.13569(18) 0.97191(15) -0.09026(5)
loop_
_geom_bond_atom_site_label_1
_geom_bond_atom_site_label_2
_geom_bond_site_symmetry_1
_geom_bond_site_symmetry_2
C1 H1 1_555 1_555
C2 C1 1_555 1_555
H2 C2 1_555 1_555
C3 C2 1_555 1_555
H3 C3 1_555 1_555
C4 C3 1_555 1_555
C5 C4 1_555 1_555
H4 C5 1_555 1_555
C6 C1 1_555 1_555
H5 C6 1_555 1_555
C7 C4 1_555 1_555
C8 H6 1_555 1_555
C9 C7 1_555 1_555
C10 C9 1_555 1_555
H7 C10 1_555 1_555
C11 C8 1_555 1_555
H8 C11 1_555 1_555
C12 C11 1_555 1_555
H9 C12 1_555 1_555
C13 C10 1_555 1_555
H10 C13 1_555 1_555
C14 C25 1_555 1_555
C15 C16 1_555 1_555
C16 H11 1_555 1_555
C17 C15 1_555 1_555
H12 C17 1_555 1_555
C18 C17 1_555 1_555
H13 C18 1_555 1_555
C19 C18 1_555 1_555
C20 C16 1_555 1_555
H14 C20 1_555 1_555
C21 C22 1_555 1_555
C22 H15 1_555 1_555
C23 C22 1_555 1_555
H16 C23 1_555 1_555
C24 C23 1_555 1_555
H17 C24 1_555 1_555
C25 C7 1_555 1_555
N1 C19 1_555 1_555
N2 C14 1_555 1_555
C1F H1F 1_555 1_555
C2F C1F 1_555 1_555
H2F C2F 1_555 1_555
C3F C2F 1_555 1_555
H3F C3F 1_555 1_555
C4F C3F 1_555 1_555
C5F C4F 1_555 1_555
H4F C5F 1_555 1_555
C6F C1F 1_555 1_555
H5F C6F 1_555 1_555
C7F C4F 1_555 1_555
C8F H6F 1_555 1_555
C9F C7F 1_555 1_555
C10F C9F 1_555 1_555
H7F C10F 1_555 1_555
C11F C8F 1_555 1_555
H8F C11F 1_555 1_555
C12F C11F 1_555 1_555
H9F C12F 1_555 1_555
C13F C10F 1_555 1_555
H10F C13F 1_555 1_555
C14F C25F 1_555 1_555
C15F C16F 1_555 1_555
C16F H11F 1_555 1_555
C17F C15F 1_555 1_555
H12F C17F 1_555 1_555
C18F C17F 1_555 1_555
H13F C18F 1_555 1_555
C19F N1 1_555 1_555
C20F C16F 1_555 1_555
H14F C20F 1_555 1_555
C22F C21 1_555 1_555
H15F C22F 1_555 1_555
C23F C24 1_555 1_555
H16F C23F 1_555 1_555
C25F C7F 1_555 1_555
N2F C14F 1_555 1_555
C5 C6 1_555 1_555
C8 C9 1_555 1_555
C12 C13 1_555 1_555
C15 C25 1_555 1_555
C19 C20 1_555 1_555
C21 N1 1_555 1_555
C5F C6F 1_555 1_555
C8F C9F 1_555 1_555
C12F C13F 1_555 1_555
C15F C25F 1_555 1_555
C18F C19F 1_555 1_555
C19F C20F 1_555 1_555
C22F C23F 1_555 1_555

#END
