
#######################################################################
#
#                 Cambridge Crystallographic Data Centre
#                                CCDC 
#
#######################################################################
#
# If this CIF has been generated from an entry in the Cambridge 
# Structural Database, then it will include bibliographic, chemical, 
# crystal, experimental, refinement or atomic coordinate data resulting 
# from the CCDC's data processing and validation procedures.
#
#######################################################################

data_MONQIQ
_chemical_name_common            
"4,4'-(4,4'-Bipyridinium-1,1'-diyldimethanediyl)dibenzoate pentahydrate"
_chemical_formula_moiety         'C26 H20 N2 O4,5(H2 O1)'
_chemical_name_systematic        
"1,1'-bis(4-Carboxylatebenzyl)-4,4'-bipyridinium pentahydrate"
_symmetry_cell_setting           trigonal
_symmetry_space_group_name_H-M   'P 32 2 1'
_symmetry_Int_Tables_number      154
_space_group_name_Hall           'P 32 2"'
loop_
_symmetry_equiv_pos_site_id
_symmetry_equiv_pos_as_xyz
1 x,y,z
2 -y,x-y,2/3+z
3 -x+y,-x,1/3+z
4 x-y,-y,1/3-z
5 -x,-x+y,2/3-z
6 y,x,-z
_cell_length_a                   9.6710(4)
_cell_length_b                   9.6710(4)
_cell_length_c                   22.6740(17)
_cell_angle_alpha                90
_cell_angle_beta                 90
_cell_angle_gamma                120
_cell_volume                     1836.54
_exptl_crystal_colour            colorless
_exptl_crystal_description       prism
_cell_formula_units_Z            3
_chemical_properties_physical    light-sensitive
_exptl_crystal_preparation       
'The compound undergoes spontaneous resolution to a racemic conglomerate; photochromic, turns blue in sunlight or 500W Xe lamp irradiation'
loop_
_atom_site_label
_atom_site_type_symbol
_atom_site_fract_x
_atom_site_fract_y
_atom_site_fract_z
O1 O 0.7250(2) 1.0003(3) 0.31377(9)
O2 O 0.5991(3) 0.8114(3) 0.38017(8)
N1 N 0.1738(2) 0.4655(2) 0.11096(7)
C1 C 0.6102(3) 0.8723(3) 0.33100(10)
C2 C 0.4750(3) 0.7854(3) 0.28749(9)
C3 C 0.4303(3) 0.8670(3) 0.24923(10)
H1 H 0.4822 0.9802 0.2509
C4 C 0.3962(3) 0.6198(3) 0.28491(10)
H2 H 0.4231 0.5624 0.3122
C5 C 0.3099(3) 0.7845(3) 0.20827(11)
H3 H 0.2780 0.8415 0.1828
C6 C 0.2793(3) 0.5377(3) 0.24325(10)
H4 H 0.2283 0.4246 0.2413
C7 C 0.2360(3) 0.6198(3) 0.20427(9)
C8 C 0.1119(3) 0.5300(3) 0.15774(10)
H5 H 0.0164 0.4407 0.1764
H6 H 0.0793 0.6023 0.1394
C9 C 0.3181(3) 0.5603(3) 0.08702(10)
H7 H 0.3802 0.6674 0.1002
C10 C 0.0850(3) 0.3149(3) 0.09263(10)
H8 H -0.0162 0.2484 0.1103
C11 C 0.3771(3) 0.5047(3) 0.04373(10)
H9 H 0.4800 0.5729 0.0276
C12 C 0.1370(3) 0.2542(3) 0.04876(10)
H10 H 0.0708 0.1475 0.0357
C13 C 0.2864(3) 0.3486(3) 0.02345(8)
O1E O 1.0003(3) 0.7250(2) -0.31377(9)
O2E O 0.8114(3) 0.5991(3) -0.38017(8)
N1E N 0.4655(2) 0.1738(2) -0.11096(7)
C1E C 0.8723(3) 0.6102(3) -0.33100(10)
C2E C 0.7854(3) 0.4750(3) -0.28749(9)
C3E C 0.8670(3) 0.4303(3) -0.24923(10)
H1E H 0.9802 0.4822 -0.2509
C4E C 0.6198(3) 0.3962(3) -0.28491(10)
H2E H 0.5624 0.4231 -0.3122
C5E C 0.7845(3) 0.3099(3) -0.20827(11)
H3E H 0.8415 0.2780 -0.1828
C6E C 0.5377(3) 0.2793(3) -0.24325(10)
H4E H 0.4246 0.2283 -0.2413
C7E C 0.6198(3) 0.2360(3) -0.20427(9)
C8E C 0.5300(3) 0.1119(3) -0.15774(10)
H5E H 0.4407 0.0164 -0.1764
H6E H 0.6023 0.0793 -0.1394
C9E C 0.5603(3) 0.3181(3) -0.08702(10)
H7E H 0.6674 0.3802 -0.1002
C10E C 0.3149(3) 0.0850(3) -0.09263(10)
H8E H 0.2484 -0.0162 -0.1103
C11E C 0.5047(3) 0.3771(3) -0.04373(10)
H9E H 0.5729 0.4800 -0.0276
C12E C 0.2542(3) 0.1370(3) -0.04876(10)
H10E H 0.1475 0.0708 -0.0357
C13E C 0.3486(3) 0.2864(3) -0.02345(8)
O3 O 1.1490(4) 1.2829(4) 0.46263(11)
H11 H 1.194(6) 1.285(5) 0.4296(19)
O4 O 0.8507(4) 0.9748(4) 0.45808(13)
H12 H 0.777(6) 0.921(6) 0.4364(18)
O5 O 1.0000 1.2663(4) 0.3333
H13 H 0.930(9) 1.175(5) 0.318(3)
H13D H 1.070(9) 1.245(10) 0.349(3)
loop_
_geom_bond_atom_site_label_1
_geom_bond_atom_site_label_2
_geom_bond_site_symmetry_1
_geom_bond_site_symmetry_2
O1 C1 1_555 1_555
O2 C1 1_555 1_555
N1 C8 1_555 1_555
C1 C2 1_555 1_555
C2 C3 1_555 1_555
C3 H1 1_555 1_555
C4 C2 1_555 1_555
H2 C4 1_555 1_555
C5 C3 1_555 1_555
H3 C5 1_555 1_555
C6 C4 1_555 1_555
H4 C6 1_555 1_555
C7 C5 1_555 1_555
C8 C7 1_555 1_555
H5 C8 1_555 1_555
H6 C8 1_555 1_555
C9 N1 1_555 1_555
H7 C9 1_555 1_555
C10 N1 1_555 1_555
H8 C10 1_555 1_555
C11 C9 1_555 1_555
H9 C11 1_555 1_555
C12 C10 1_555 1_555
H10 C12 1_555 1_555
C13 C11 1_555 1_555
O3 H11 1_555 1_555
O4 H12 1_555 1_555
O5 H13 1_555 1_555
O1E C1E 1_555 1_555
O2E C1E 1_555 1_555
N1E C8E 1_555 1_555
C1E C2E 1_555 1_555
C2E C3E 1_555 1_555
C3E H1E 1_555 1_555
C4E C2E 1_555 1_555
H2E C4E 1_555 1_555
C5E C3E 1_555 1_555
H3E C5E 1_555 1_555
C6E C4E 1_555 1_555
H4E C6E 1_555 1_555
C7E C5E 1_555 1_555
C8E C7E 1_555 1_555
H5E C8E 1_555 1_555
H6E C8E 1_555 1_555
C9E N1E 1_555 1_555
H7E C9E 1_555 1_555
C10E N1E 1_555 1_555
H8E C10E 1_555 1_555
C11E C9E 1_555 1_555
H9E C11E 1_555 1_555
C12E C10E 1_555 1_555
H10E C12E 1_555 1_555
C13E C13 1_555 1_555
H13D O5 1_555 1_555
C6 C7 1_555 1_555
C12 C13 1_555 1_555
C6E C7E 1_555 1_555
C11E C13E 1_555 1_555
C12E C13E 1_555 1_555

#END
