
#######################################################################
#
#                 Cambridge Crystallographic Data Centre
#                                CCDC 
#
#######################################################################
#
# If this CIF has been generated from an entry in the Cambridge 
# Structural Database, then it will include bibliographic, chemical, 
# crystal, experimental, refinement or atomic coordinate data resulting 
# from the CCDC's data processing and validation procedures.
#
#######################################################################

data_MONQUD
_chemical_formula_moiety         'C20 H19 N9'
_chemical_name_systematic        
6-amino-7-(1H-benzimidazol-2-yl)-5-(3-(dimethylamino)propyl)-5H-pyrrolo[2,3-b]pyrazine-2,3-dicarbonitrile
_symmetry_cell_setting           monoclinic
_symmetry_space_group_name_H-M   'P 21/c'
_symmetry_Int_Tables_number      14
_space_group_name_Hall           '-P 2ybc'
loop_
_symmetry_equiv_pos_site_id
_symmetry_equiv_pos_as_xyz
1 x,y,z
2 -x,1/2+y,1/2-z
3 -x,-y,-z
4 x,1/2-y,1/2+z
_cell_length_a                   9.0936(5)
_cell_length_b                   8.4659(6)
_cell_length_c                   24.451(2)
_cell_angle_alpha                90
_cell_angle_beta                 93.036(2)
_cell_angle_gamma                90
_cell_volume                     1879.73
_exptl_crystal_colour            'light yellow'
_exptl_crystal_description       needle
_cell_formula_units_Z            4
loop_
_atom_site_label
_atom_site_type_symbol
_atom_site_fract_x
_atom_site_fract_y
_atom_site_fract_z
N1 N 0.4189(3) 0.2682(3) -0.10206(8)
N2 N 0.5959(3) 0.4375(3) -0.14079(8)
N3 N 0.7199(3) 0.4525(3) -0.02934(8)
N4 N 0.2920(3) 0.1105(3) -0.03941(10)
N5 N 0.0401(3) 0.1315(3) -0.11699(9)
N6 N 0.8603(3) 0.6600(3) -0.20131(10)
N7 N 1.0159(3) 0.6943(3) -0.05435(10)
N8 N 0.6454(3) 0.2758(3) 0.07662(9)
N9 N 0.4257(3) 0.1514(3) 0.07097(8)
C1 C 0.5403(3) 0.3644(3) -0.09959(10)
C2 C 0.7186(3) 0.5226(3) -0.12568(10)
C3 C 0.7770(3) 0.5296(3) -0.07178(10)
C4 C 0.6008(3) 0.3664(3) -0.04360(10)
C5 C 0.5120(3) 0.2676(3) -0.01346(10)
C6 C 0.4001(3) 0.2089(3) -0.04995(10)
C7 C 0.3351(3) 0.2241(4) -0.15303(11)
C8 C 0.1991(3) 0.3233(4) -0.16528(12)
C9 C 0.0744(4) 0.2979(4) -0.12619(12)
C10 C -0.0048(4) 0.0506(4) -0.16847(12)
C11 C -0.0781(4) 0.1178(5) -0.07919(14)
C12 C 0.7935(3) 0.6007(3) -0.16853(11)
C13 C 0.9088(3) 0.6220(4) -0.06055(11)
C14 C 0.5259(3) 0.2303(3) 0.04407(10)
C15 C 0.6230(3) 0.2202(3) 0.12892(10)
C16 C 0.7083(4) 0.2304(4) 0.17801(11)
C17 C 0.6475(4) 0.1649(3) 0.22355(11)
C18 C 0.5099(4) 0.0903(4) 0.22035(11)
C19 C 0.4275(4) 0.0780(4) 0.17134(11)
C20 C 0.4862(3) 0.1447(3) 0.12492(10)
H1 H 0.213(4) 0.092(4) -0.0664(14)
H2 H 0.282(3) 0.083(4) -0.0054(13)
H3 H 0.309(3) 0.110(4) -0.1488(10)
H4 H 0.401(3) 0.234(3) -0.1819(12)
H5 H 0.167(3) 0.299(4) -0.2025(13)
H6 H 0.222(3) 0.435(4) -0.1647(10)
H7 H -0.022(4) 0.355(4) -0.1430(12)
H8 H 0.110(3) 0.343(4) -0.0908(12)
H9 H 0.077(3) 0.053(3) -0.1938(11)
H10 H -0.090(4) 0.107(4) -0.1873(12)
H11 H -0.036(4) -0.060(4) -0.1591(12)
H12 H -0.172(4) 0.172(4) -0.0940(13)
H13 H -0.047(4) 0.161(4) -0.0456(15)
H14 H -0.099(4) 0.002(4) -0.0713(12)
H15 H 0.722(4) 0.307(4) 0.0657(13)
H16 H 0.804(4) 0.282(4) 0.1796(13)
H17 H 0.706(4) 0.174(4) 0.2609(13)
H18 H 0.475(3) 0.047(4) 0.2545(12)
H19 H 0.333(4) 0.031(4) 0.1693(11)
loop_
_geom_bond_atom_site_label_1
_geom_bond_atom_site_label_2
_geom_bond_site_symmetry_1
_geom_bond_site_symmetry_2
N1 C1 1_555 1_555
N2 C1 1_555 1_555
N3 C3 1_555 1_555
N4 C6 1_555 1_555
N5 C9 1_555 1_555
N6 C12 1_555 1_555
N7 C13 1_555 1_555
N8 C14 1_555 1_555
N9 C14 1_555 1_555
C1 C4 1_555 1_555
C2 N2 1_555 1_555
C3 C2 1_555 1_555
C4 N3 1_555 1_555
C5 C4 1_555 1_555
C6 N1 1_555 1_555
C7 N1 1_555 1_555
C8 C7 1_555 1_555
C9 C8 1_555 1_555
C10 N5 1_555 1_555
C11 N5 1_555 1_555
C12 C2 1_555 1_555
C13 C3 1_555 1_555
C14 C5 1_555 1_555
C15 N8 1_555 1_555
C16 C15 1_555 1_555
C17 C16 1_555 1_555
C18 C17 1_555 1_555
C19 C18 1_555 1_555
C20 N9 1_555 1_555
H1 N4 1_555 1_555
H2 N4 1_555 1_555
H3 C7 1_555 1_555
H4 C7 1_555 1_555
H5 C8 1_555 1_555
H6 C8 1_555 1_555
H7 C9 1_555 1_555
H8 C9 1_555 1_555
H9 C10 1_555 1_555
H10 C10 1_555 1_555
H11 C10 1_555 1_555
H12 C11 1_555 1_555
H13 C11 1_555 1_555
H14 C11 1_555 1_555
H15 N8 1_555 1_555
H16 C16 1_555 1_555
H17 C17 1_555 1_555
H18 C18 1_555 1_555
H19 C19 1_555 1_555
C5 C6 1_555 1_555
C15 C20 1_555 1_555
C19 C20 1_555 1_555

#END
