
#######################################################################
#
#                 Cambridge Crystallographic Data Centre
#                                CCDC 
#
#######################################################################
#
# If this CIF has been generated from an entry in the Cambridge 
# Structural Database, then it will include bibliographic, chemical, 
# crystal, experimental, refinement or atomic coordinate data resulting 
# from the CCDC's data processing and validation procedures.
#
#######################################################################

data_MONQOX
_chemical_formula_moiety         'C25 H20 N8 O2,C2 H6 O1 S1'
_chemical_name_systematic        
'6-amino-7-(1H-benzimidazol-2-yl)-5-(2-(3,4-dimethoxyphenyl)ethyl)-5H-pyrrolo[2,3-b]pyrazine-2,3-dicarbonitrile dimethyl sulfoxide solvate'
_symmetry_cell_setting           triclinic
_symmetry_space_group_name_H-M   'P -1'
_symmetry_Int_Tables_number      2
_space_group_name_Hall           '-P 1'
loop_
_symmetry_equiv_pos_site_id
_symmetry_equiv_pos_as_xyz
1 x,y,z
2 -x,-y,-z
_cell_length_a                   9.6455(3)
_cell_length_b                   10.9118(4)
_cell_length_c                   13.5503(5)
_cell_angle_alpha                111.203(2)
_cell_angle_beta                 98.105(2)
_cell_angle_gamma                90.005(2)
_cell_volume                     1314.32
_exptl_crystal_colour            yellow
_exptl_crystal_description       Cube
_cell_formula_units_Z            2
loop_
_atom_site_label
_atom_site_type_symbol
_atom_site_fract_x
_atom_site_fract_y
_atom_site_fract_z
S1 S 0.93613(7) 0.17734(7) 0.17592(5)
O1 O 0.82601(19) 0.09972(19) 0.08212(15)
C1 C 0.8939(3) 0.3454(3) 0.2151(2)
C2 C 1.0884(3) 0.1912(3) 0.1187(3)
H1 H 0.890(3) 0.369(3) 0.155(3)
H2 H 0.802(3) 0.344(3) 0.239(2)
H3 H 0.964(3) 0.396(3) 0.277(3)
H4 H 1.157(4) 0.244(4) 0.176(3)
H5 H 1.123(3) 0.101(3) 0.085(2)
H6 H 1.057(3) 0.226(3) 0.067(2)
O2 O 1.05844(19) -0.42266(18) -0.58572(14)
O3 O 1.19268(19) -0.62436(18) -0.57434(14)
N1 N 1.7875(2) 0.3125(2) -0.05681(16)
N2 N 1.7462(2) 0.0424(2) -0.20610(16)
N3 N 1.5344(2) 0.0465(2) -0.13158(16)
N4 N 1.3468(2) 0.1241(3) -0.03204(19)
N5 N 2.1061(2) 0.3866(2) -0.11303(19)
N6 N 2.0408(3) 0.0350(3) -0.3263(2)
N7 N 1.6115(2) 0.4907(2) 0.10612(16)
N8 N 1.4118(2) 0.3917(2) 0.11638(17)
C3 C 1.8787(2) 0.2523(3) -0.12395(19)
C4 C 1.8595(3) 0.1229(3) -0.1973(2)
C5 C 1.6588(2) 0.1013(2) -0.14079(19)
C6 C 1.4710(2) 0.1436(2) -0.05691(19)
C7 C 1.5570(2) 0.2610(2) -0.01410(19)
C8 C 1.6743(3) 0.2360(2) -0.06671(18)
C9 C 2.0043(3) 0.3294(3) -0.1167(2)
C10 C 1.9601(3) 0.0710(3) -0.2695(2)
C11 C 1.4828(3) -0.0899(3) -0.1903(2)
C12 C 1.3931(3) -0.1069(3) -0.2962(2)
C13 C 1.3399(3) -0.2481(2) -0.36207(19)
C14 C 1.2196(3) -0.2688(3) -0.4386(2)
C15 C 1.1721(3) -0.3942(3) -0.50688(19)
C16 C 1.2445(3) -0.5037(3) -0.49999(19)
C17 C 1.3602(3) -0.4842(3) -0.4227(2)
C18 C 1.4083(3) -0.3564(3) -0.3539(2)
C19 C 0.9907(3) -0.3134(3) -0.6005(3)
C20 C 1.2695(3) -0.7353(3) -0.5720(3)
C21 C 1.5245(2) 0.3793(2) 0.06823(18)
C22 C 1.5516(3) 0.5827(3) 0.18569(19)
C23 C 1.5950(3) 0.7122(3) 0.2523(2)
C24 C 1.5081(3) 0.7771(3) 0.3260(2)
C25 C 1.3844(3) 0.7161(3) 0.3330(2)
C26 C 1.3414(3) 0.5881(3) 0.2662(2)
C27 C 1.4271(3) 0.5209(3) 0.1913(2)
H7 H 1.317(3) 0.194(3) 0.011(2)
H8 H 1.295(3) 0.049(4) -0.057(3)
H9 H 1.693(4) 0.499(3) 0.085(3)
H10 H 1.424(3) -0.122(3) -0.148(3)
H11 H 1.567(3) -0.145(3) -0.202(2)
H12 H 1.318(3) -0.053(3) -0.285(2)
H13 H 1.448(3) -0.074(3) -0.341(2)
H14 H 1.170(3) -0.198(3) -0.443(2)
H15 H 1.407(3) -0.559(3) -0.414(2)
H16 H 1.493(3) -0.350(3) -0.300(3)
H17 H 0.956(3) -0.256(3) -0.535(3)
H18 H 0.910(4) -0.352(3) -0.656(3)
H19 H 1.056(3) -0.256(3) -0.620(3)
H20 H 1.269(3) -0.743(3) -0.505(3)
H21 H 1.366(3) -0.721(3) -0.583(2)
H22 H 1.221(3) -0.810(4) -0.625(3)
H23 H 1.682(3) 0.752(3) 0.245(2)
H24 H 1.537(3) 0.862(3) 0.372(2)
H25 H 1.331(3) 0.766(3) 0.384(2)
H26 H 1.251(3) 0.542(3) 0.274(2)
loop_
_geom_bond_atom_site_label_1
_geom_bond_atom_site_label_2
_geom_bond_site_symmetry_1
_geom_bond_site_symmetry_2
S1 O1 1_555 1_555
C1 S1 1_555 1_555
C2 S1 1_555 1_555
H1 C1 1_555 1_555
H2 C1 1_555 1_555
H3 C1 1_555 1_555
H4 C2 1_555 1_555
H5 C2 1_555 1_555
H6 C2 1_555 1_555
O2 C15 1_555 1_555
O3 C16 1_555 1_555
N1 C3 1_555 1_555
N2 C4 1_555 1_555
N3 C5 1_555 1_555
N4 C6 1_555 1_555
N5 C9 1_555 1_555
N6 C10 1_555 1_555
N7 C21 1_555 1_555
N8 C21 1_555 1_555
C3 C4 1_555 1_555
C4 C10 1_555 1_555
C5 N2 1_555 1_555
C6 N3 1_555 1_555
C7 C6 1_555 1_555
C8 N1 1_555 1_555
C9 C3 1_555 1_555
C11 N3 1_555 1_555
C12 C11 1_555 1_555
C13 C12 1_555 1_555
C14 C13 1_555 1_555
C15 C14 1_555 1_555
C16 C15 1_555 1_555
C17 C16 1_555 1_555
C18 C13 1_555 1_555
C19 O2 1_555 1_555
C20 O3 1_555 1_555
C21 C7 1_555 1_555
C22 N7 1_555 1_555
C23 C22 1_555 1_555
C24 C23 1_555 1_555
C25 C24 1_555 1_555
C26 C25 1_555 1_555
C27 N8 1_555 1_555
H7 N4 1_555 1_555
H8 N4 1_555 1_555
H9 N7 1_555 1_555
H10 C11 1_555 1_555
H11 C11 1_555 1_555
H12 C12 1_555 1_555
H13 C12 1_555 1_555
H14 C14 1_555 1_555
H15 C17 1_555 1_555
H16 C18 1_555 1_555
H17 C19 1_555 1_555
H18 C19 1_555 1_555
H19 C19 1_555 1_555
H20 C20 1_555 1_555
H21 C20 1_555 1_555
H22 C20 1_555 1_555
H23 C23 1_555 1_555
H24 C24 1_555 1_555
H25 C25 1_555 1_555
H26 C26 1_555 1_555
C5 C8 1_555 1_555
C7 C8 1_555 1_555
C17 C18 1_555 1_555
C22 C27 1_555 1_555
C26 C27 1_555 1_555

#END
