
#######################################################################
#
#                 Cambridge Crystallographic Data Centre
#                                CCDC 
#
#######################################################################
#
# If this CIF has been generated from an entry in the Cambridge 
# Structural Database, then it will include bibliographic, chemical, 
# crystal, experimental, refinement or atomic coordinate data resulting 
# from the CCDC's data processing and validation procedures.
#
#######################################################################

data_MONVOC
_chemical_formula_moiety         'C22 H16 Br2 N2 O3'
_chemical_name_systematic        
'ethyl 2-(((5,7-dibromoquinolin-8-yl)oxy)methyl)quinoline-3-carboxylate'
_symmetry_cell_setting           monoclinic
_symmetry_space_group_name_H-M   'P 21/c'
_symmetry_Int_Tables_number      14
_space_group_name_Hall           '-P 2ybc'
loop_
_symmetry_equiv_pos_site_id
_symmetry_equiv_pos_as_xyz
1 x,y,z
2 -x,1/2+y,1/2-z
3 -x,-y,-z
4 x,1/2-y,1/2+z
_cell_length_a                   14.826(6)
_cell_length_b                   16.873(7)
_cell_length_c                   17.671(7)
_cell_angle_alpha                90
_cell_angle_beta                 112.889(7)
_cell_angle_gamma                90
_cell_volume                     4072.49
_exptl_crystal_colour            colorless
_exptl_crystal_description       block
_chemical_melting_point          '110.5-111 deg.C'
_cell_formula_units_Z            8
_exptl_crystal_preparation       Ethanol
loop_
_atom_site_label
_atom_site_type_symbol
_atom_site_fract_x
_atom_site_fract_y
_atom_site_fract_z
Br1 Br 0.14611(11) 0.09123(9) 0.59843(8)
Br2 Br -0.10073(9) 0.07239(7) 0.26545(7)
N1 N -0.1114(6) 0.3443(5) 0.0929(6)
N2 N 0.0754(7) 0.3361(6) 0.3969(6)
O1 O 0.0160(6) 0.0829(5) 0.1192(5)
O2 O 0.0984(5) 0.1674(5) 0.2144(5)
O3 O -0.0550(5) 0.2443(4) 0.2643(4)
C1 C 0.1170(11) -0.0217(9) 0.1223(10)
H1 H 0.0648 -0.0406 0.0736
H2 H 0.1515 -0.0660 0.1548
H3 H 0.1613 0.0097 0.1071
C2 C 0.0805(14) 0.0217(9) 0.1652(11)
H4 H 0.1340 0.0457 0.2105
H5 H 0.0453 -0.0126 0.1883
C3 C 0.0317(8) 0.1529(7) 0.1518(7)
C4 C -0.0374(7) 0.2125(6) 0.1018(6)
C5 C -0.0887(7) 0.2034(6) 0.0175(6)
H6 H -0.0811 0.1568 -0.0075
C6 C -0.1511(7) 0.2619(6) -0.0305(6)
C7 C -0.2062(7) 0.2581(7) -0.1170(7)
H7 H -0.2023 0.2127 -0.1455
C8 C -0.2628(9) 0.3176(7) -0.1578(7)
H8 H -0.2997 0.3122 -0.2138
C9 C -0.2680(9) 0.3865(8) -0.1193(8)
H9 H -0.3069 0.4277 -0.1499
C10 C -0.2171(8) 0.3967(7) -0.0364(8)
H10 H -0.2210 0.4442 -0.0111
C11 C -0.1592(8) 0.3344(6) 0.0096(8)
C12 C -0.0545(7) 0.2859(7) 0.1367(6)
C13 C -0.0075(8) 0.3008(5) 0.2268(6)
H11 H 0.0624 0.2913 0.2470
H12 H -0.0184 0.3551 0.2393
C14 C -0.0024(7) 0.2116(7) 0.3387(6)
C15 C -0.0183(8) 0.1339(7) 0.3521(7)
C16 C 0.0272(8) 0.0943(7) 0.4299(7)
H13 H 0.0157 0.0410 0.4364
C17 C 0.0880(9) 0.1391(8) 0.4936(8)
C18 C 0.1104(7) 0.2226(7) 0.4864(6)
C19 C 0.1758(8) 0.2682(8) 0.5508(7)
H14 H 0.2088 0.2459 0.6023
C20 C 0.1907(8) 0.3478(8) 0.5366(7)
H15 H 0.2344 0.3792 0.5780
C21 C 0.1377(8) 0.3790(7) 0.4578(8)
H16 H 0.1467 0.4320 0.4480
C22 C 0.0631(7) 0.2579(7) 0.4073(7)
Br3 Br 0.71634(9) 0.89060(9) 1.18143(7)
Br4 Br 0.46386(9) 0.93491(6) 0.85266(7)
N3 N 0.4510(6) 0.6672(5) 0.6674(5)
N4 N 0.6167(6) 0.6581(5) 0.9610(5)
O4 O 0.5459(6) 0.9345(4) 0.6743(5)
O5 O 0.6402(6) 0.8597(4) 0.7768(5)
O6 O 0.5012(4) 0.7616(4) 0.8364(4)
C23 C 0.6109(10) 1.0562(7) 0.6523(9)
H17 H 0.6479 1.1010 0.6817
H18 H 0.5475 1.0734 0.6149
H19 H 0.6447 1.0313 0.6221
C24 C 0.6000(11) 1.0017(8) 0.7082(9)
H20 H 0.6647 0.9853 0.7458
H21 H 0.5692 1.0287 0.7404
C25 C 0.5713(9) 0.8660(7) 0.7133(7)
C26 C 0.5125(7) 0.8006(6) 0.6690(6)
C27 C 0.4586(7) 0.8071(5) 0.5849(6)
H22 H 0.4603 0.8543 0.5583
C28 C 0.4018(7) 0.7437(6) 0.5394(6)
C29 C 0.3433(8) 0.7448(7) 0.4507(6)
H23 H 0.3422 0.7895 0.4197
C30 C 0.2911(8) 0.6800(7) 0.4150(7)
H24 H 0.2544 0.6818 0.3587
C31 C 0.2885(8) 0.6130(7) 0.4551(7)
H25 H 0.2510 0.5704 0.4263
C32 C 0.3415(8) 0.6067(5) 0.5394(7)
H26 H 0.3406 0.5601 0.5671
C33 C 0.3965(7) 0.6723(6) 0.5817(6)
C34 C 0.5026(7) 0.7281(6) 0.7068(6)
C35 C 0.5532(7) 0.7140(5) 0.7954(5)
H27 H 0.6211 0.7303 0.8141
H28 H 0.5510 0.6581 0.8077
C36 C 0.5541(7) 0.7875(5) 0.9151(6)
C37 C 0.5418(7) 0.8666(5) 0.9332(6)
C38 C 0.5924(7) 0.8982(6) 1.0131(6)
H29 H 0.5872 0.9515 1.0243
C39 C 0.6492(7) 0.8472(7) 1.0731(6)
C40 C 0.6647(7) 0.7667(6) 1.0611(6)
C41 C 0.7216(7) 0.7134(7) 1.1184(6)
H30 H 0.7566 0.7311 1.1716
C42 C 0.7290(8) 0.6371(7) 1.1013(7)
H31 H 0.7697 0.6025 1.1408
C43 C 0.6736(9) 0.6118(7) 1.0226(8)
H32 H 0.6761 0.5582 1.0114
C44 C 0.6125(7) 0.7360(6) 0.9791(6)
loop_
_geom_bond_atom_site_label_1
_geom_bond_atom_site_label_2
_geom_bond_site_symmetry_1
_geom_bond_site_symmetry_2
Br1 C17 1_555 1_555
Br2 C15 1_555 1_555
N1 C11 1_555 1_555
N2 C21 1_555 1_555
O1 C2 1_555 1_555
O2 C3 1_555 1_555
O3 C13 1_555 1_555
C1 H1 1_555 1_555
H2 C1 1_555 1_555
H3 C1 1_555 1_555
C2 C1 1_555 1_555
H4 C2 1_555 1_555
H5 C2 1_555 1_555
C3 O1 1_555 1_555
C4 C3 1_555 1_555
C5 C4 1_555 1_555
H6 C5 1_555 1_555
C6 C5 1_555 1_555
C7 C6 1_555 1_555
H7 C7 1_555 1_555
C8 C7 1_555 1_555
H8 C8 1_555 1_555
C9 C8 1_555 1_555
H9 C9 1_555 1_555
C10 C9 1_555 1_555
H10 C10 1_555 1_555
C11 C6 1_555 1_555
C12 N1 1_555 1_555
C13 C12 1_555 1_555
H11 C13 1_555 1_555
H12 C13 1_555 1_555
C14 O3 1_555 1_555
C15 C14 1_555 1_555
C16 C15 1_555 1_555
H13 C16 1_555 1_555
C17 C16 1_555 1_555
C18 C17 1_555 1_555
C19 C18 1_555 1_555
H14 C19 1_555 1_555
C20 C19 1_555 1_555
H15 C20 1_555 1_555
C21 C20 1_555 1_555
H16 C21 1_555 1_555
C22 N2 1_555 1_555
Br3 C39 1_555 1_555
Br4 C37 1_555 1_555
N3 C33 1_555 1_555
N4 C43 1_555 1_555
O4 C24 1_555 1_555
O5 C25 1_555 1_555
O6 C35 1_555 1_555
C23 H17 1_555 1_555
H18 C23 1_555 1_555
H19 C23 1_555 1_555
C24 C23 1_555 1_555
H20 C24 1_555 1_555
H21 C24 1_555 1_555
C25 O4 1_555 1_555
C26 C25 1_555 1_555
C27 C26 1_555 1_555
H22 C27 1_555 1_555
C28 C27 1_555 1_555
C29 C28 1_555 1_555
H23 C29 1_555 1_555
C30 C29 1_555 1_555
H24 C30 1_555 1_555
C31 C30 1_555 1_555
H25 C31 1_555 1_555
C32 C31 1_555 1_555
H26 C32 1_555 1_555
C33 C28 1_555 1_555
C34 N3 1_555 1_555
C35 C34 1_555 1_555
H27 C35 1_555 1_555
H28 C35 1_555 1_555
C36 O6 1_555 1_555
C37 C36 1_555 1_555
C38 C37 1_555 1_555
H29 C38 1_555 1_555
C39 C38 1_555 1_555
C40 C39 1_555 1_555
C41 C40 1_555 1_555
H30 C41 1_555 1_555
C42 C41 1_555 1_555
H31 C42 1_555 1_555
C43 C42 1_555 1_555
H32 C43 1_555 1_555
C44 N4 1_555 1_555
C4 C12 1_555 1_555
C10 C11 1_555 1_555
C14 C22 1_555 1_555
C18 C22 1_555 1_555
C26 C34 1_555 1_555
C32 C33 1_555 1_555
C36 C44 1_555 1_555
C40 C44 1_555 1_555

#END
