
#######################################################################
#
#                 Cambridge Crystallographic Data Centre
#                                CCDC 
#
#######################################################################
#
# If this CIF has been generated from an entry in the Cambridge 
# Structural Database, then it will include bibliographic, chemical, 
# crystal, experimental, refinement or atomic coordinate data resulting 
# from the CCDC's data processing and validation procedures.
#
#######################################################################

data_MOPFEE
_chemical_formula_moiety         'C8 H11 N5 S1'
_chemical_name_systematic        6-amino-9-propyl-9H-purine-8-thiol
_symmetry_cell_setting           monoclinic
_symmetry_space_group_name_H-M   'C 2/c'
_symmetry_Int_Tables_number      15
_space_group_name_Hall           '-C 2yn'
loop_
_symmetry_equiv_pos_site_id
_symmetry_equiv_pos_as_xyz
1 x,y,z
2 -x,y,1/2-z
3 1/2+x,1/2+y,z
4 1/2-x,1/2+y,1/2-z
5 -x,-y,-z
6 x,-y,1/2+z
7 1/2-x,1/2-y,-z
8 1/2+x,1/2-y,1/2+z
_cell_length_a                   28.366(8)
_cell_length_b                   4.8214(14)
_cell_length_c                   17.542(6)
_cell_angle_alpha                90
_cell_angle_beta                 123.286(10)
_cell_angle_gamma                90
_cell_volume                     2005.52
_exptl_crystal_colour            colorless
_exptl_crystal_description       block
_cell_formula_units_Z            8
loop_
_atom_site_label
_atom_site_type_symbol
_atom_site_fract_x
_atom_site_fract_y
_atom_site_fract_z
S1 S 0.33894(4) 0.83196(19) 0.85047(6)
H1 H 0.2968 0.8082 0.8503
N1 N 0.37622(12) 0.5851(6) 0.75324(19)
N2 N 0.23276(13) -0.0385(6) 0.5744(2)
H2 H 0.2196 -0.1708 0.5351
H3 H 0.2145 0.0167 0.5977
N3 N 0.29302(12) 0.4379(6) 0.71731(18)
N4 N 0.30935(13) -0.0099(7) 0.56165(19)
N5 N 0.38717(13) 0.3043(7) 0.6489(2)
C1 C 0.33602(14) 0.6148(7) 0.7726(2)
C2 C 0.35880(14) 0.3888(7) 0.6857(2)
C3 C 0.30671(14) 0.2960(7) 0.6629(2)
C4 C 0.43092(15) 0.7267(8) 0.8001(2)
H4 H 0.4285 0.8965 0.8274
H5 H 0.4400 0.7763 0.7560
C5 C 0.28141(15) 0.0806(7) 0.5992(2)
C6 C 0.47766(16) 0.5467(10) 0.8737(3)
H6 H 0.4812 0.3800 0.8463
H7 H 0.4681 0.4914 0.9168
C7 C 0.35891(16) 0.1066(8) 0.5877(2)
H8 H 0.3759 0.0392 0.5587
C8 C 0.53374(17) 0.7012(11) 0.9240(3)
H9 H 0.5625 0.5834 0.9704
H10 H 0.5304 0.8652 0.9518
H11 H 0.5436 0.7525 0.8817
loop_
_geom_bond_atom_site_label_1
_geom_bond_atom_site_label_2
_geom_bond_site_symmetry_1
_geom_bond_site_symmetry_2
S1 H1 1_555 1_555
N1 C1 1_555 1_555
N2 H2 1_555 1_555
H3 N2 1_555 1_555
N3 C1 1_555 1_555
N4 C5 1_555 1_555
N5 C2 1_555 1_555
C1 S1 1_555 1_555
C2 N1 1_555 1_555
C3 N3 1_555 1_555
C4 N1 1_555 1_555
H4 C4 1_555 1_555
H5 C4 1_555 1_555
C5 N2 1_555 1_555
C6 C4 1_555 1_555
H6 C6 1_555 1_555
H7 C6 1_555 1_555
C7 N4 1_555 1_555
H8 C7 1_555 1_555
C8 C6 1_555 1_555
H9 C8 1_555 1_555
H10 C8 1_555 1_555
H11 C8 1_555 1_555
N5 C7 1_555 1_555
C2 C3 1_555 1_555
C3 C5 1_555 1_555

#END
