
#######################################################################
#
#                 Cambridge Crystallographic Data Centre
#                                CCDC 
#
#######################################################################
#
# If this CIF has been generated from an entry in the Cambridge 
# Structural Database, then it will include bibliographic, chemical, 
# crystal, experimental, refinement or atomic coordinate data resulting 
# from the CCDC's data processing and validation procedures.
#
#######################################################################

data_MOPHIK
_chemical_formula_moiety         'C13 H12 N4 O3'
_chemical_name_systematic        
N'-benzylidene-1-methyl-4-nitro-1H-pyrrole-2-carbohydrazide
_symmetry_cell_setting           monoclinic
_symmetry_space_group_name_H-M   'P 21/c'
_symmetry_Int_Tables_number      14
_space_group_name_Hall           '-P 2ybc'
loop_
_symmetry_equiv_pos_site_id
_symmetry_equiv_pos_as_xyz
1 x,y,z
2 -x,1/2+y,1/2-z
3 -x,-y,-z
4 x,1/2-y,1/2+z
_cell_length_a                   13.030(3)
_cell_length_b                   11.900(3)
_cell_length_c                   8.331(2)
_cell_angle_alpha                90
_cell_angle_beta                 95.409(3)
_cell_angle_gamma                90
_cell_volume                     1286.03
_exptl_crystal_colour            yellow
_exptl_crystal_description       block
_cell_formula_units_Z            4
loop_
_atom_site_label
_atom_site_type_symbol
_atom_site_fract_x
_atom_site_fract_y
_atom_site_fract_z
N1 N 0.80415(15) 0.34342(17) 0.4275(2)
N2 N 0.74919(15) 0.27603(17) 0.5233(2)
H1 H 0.7314 0.3006 0.6138
N3 N 0.64881(15) -0.00154(17) 0.5892(2)
N4 N 0.45223(18) 0.0771(3) 0.8358(3)
O1 O 0.75036(14) 0.12934(15) 0.3497(2)
O2 O 0.41349(15) -0.0109(2) 0.8783(2)
O3 O 0.42286(18) 0.1703(2) 0.8735(3)
C1 C 0.72375(18) 0.1713(2) 0.4734(3)
C2 C 0.65549(18) 0.1145(2) 0.5783(3)
C3 C 0.58369(18) 0.1601(2) 0.6690(3)
H2 H 0.5704 0.2361 0.6829
C4 C 0.53470(19) 0.0704(2) 0.7359(3)
C5 C 0.57607(19) -0.0277(2) 0.6867(3)
H3 H 0.5572 -0.0998 0.7156
C6 C 0.7129(2) -0.0846(2) 0.5155(3)
H4 H 0.6865 -0.1586 0.5319
H5 H 0.7825 -0.0796 0.5644
H6 H 0.7117 -0.0700 0.4020
C7 C 0.81171(19) 0.4454(2) 0.4711(3)
H7 H 0.7786 0.4697 0.5589
C8 C 0.87158(18) 0.5250(2) 0.3853(3)
C9 C 0.93840(19) 0.4903(2) 0.2762(3)
H8 H 0.9426 0.4143 0.2512
C10 C 0.9988(2) 0.5662(2) 0.2040(3)
H9 H 1.0445 0.5413 0.1324
C11 C 0.9919(2) 0.6776(3) 0.2370(3)
H10 H 1.0330 0.7290 0.1885
C12 C 0.9246(3) 0.7139(2) 0.3416(4)
H11 H 0.9186 0.7903 0.3620
C13 C 0.8655(2) 0.6380(2) 0.4170(3)
H12 H 0.8210 0.6635 0.4901
loop_
_geom_bond_atom_site_label_1
_geom_bond_atom_site_label_2
_geom_bond_site_symmetry_1
_geom_bond_site_symmetry_2
N1 N2 1_555 1_555
N2 H1 1_555 1_555
N3 C2 1_555 1_555
N4 O2 1_555 1_555
O1 C1 1_555 1_555
O3 N4 1_555 1_555
C1 N2 1_555 1_555
C2 C1 1_555 1_555
C3 C2 1_555 1_555
H2 C3 1_555 1_555
C4 N4 1_555 1_555
C5 N3 1_555 1_555
H3 C5 1_555 1_555
C6 N3 1_555 1_555
H4 C6 1_555 1_555
H5 C6 1_555 1_555
H6 C6 1_555 1_555
C7 N1 1_555 1_555
H7 C7 1_555 1_555
C8 C7 1_555 1_555
C9 C8 1_555 1_555
H8 C9 1_555 1_555
C10 C9 1_555 1_555
H9 C10 1_555 1_555
C11 C10 1_555 1_555
H10 C11 1_555 1_555
C12 C11 1_555 1_555
H11 C12 1_555 1_555
C13 C8 1_555 1_555
H12 C13 1_555 1_555
C3 C4 1_555 1_555
C4 C5 1_555 1_555
C12 C13 1_555 1_555

#END
