
#######################################################################
#
#                 Cambridge Crystallographic Data Centre
#                                CCDC 
#
#######################################################################
#
# If this CIF has been generated from an entry in the Cambridge 
# Structural Database, then it will include bibliographic, chemical, 
# crystal, experimental, refinement or atomic coordinate data resulting 
# from the CCDC's data processing and validation procedures.
#
#######################################################################

data_MOPHAC
_chemical_name_common            '4-Sulfamoylanilinium phosphate'
_chemical_formula_moiety         'C6 H9 N2 O2 S1 1+,H2 O4 P1 1-'
_chemical_name_systematic        '4-sulfamoylanilinium dihydrogen phosphate'
_symmetry_cell_setting           monoclinic
_symmetry_space_group_name_H-M   'P c'
_symmetry_Int_Tables_number      7
_space_group_name_Hall           'P -2yc'
loop_
_symmetry_equiv_pos_site_id
_symmetry_equiv_pos_as_xyz
1 x,y,z
2 x,-y,1/2+z
_cell_length_a                   4.8041(7)
_cell_length_b                   10.8564(15)
_cell_length_c                   10.3862(15)
_cell_angle_alpha                90
_cell_angle_beta                 101.067(2)
_cell_angle_gamma                90
_cell_volume                     531.621
_exptl_crystal_colour            colorless
_exptl_crystal_description       needle
_cell_formula_units_Z            2
loop_
_atom_site_label
_atom_site_type_symbol
_atom_site_fract_x
_atom_site_fract_y
_atom_site_fract_z
C1 C 0.8098(4) 0.14923(16) 0.09044(19)
C2 C 1.0153(5) 0.1497(2) 0.2035(2)
H1 H 1.1473 0.0862 0.2199
C3 C 1.0231(5) 0.2455(2) 0.2922(2)
H2 H 1.1623 0.2475 0.3680
C4 C 0.8220(4) 0.33816(17) 0.26728(19)
C5 C 0.6183(5) 0.3379(2) 0.1532(2)
H3 H 0.4862 0.4013 0.1368
C6 C 0.6116(5) 0.2433(2) 0.0639(2)
H4 H 0.4759 0.2426 -0.0132
N1 N 0.7938(4) 0.04600(14) -0.00122(17)
N2 N 0.9589(4) 0.57959(17) 0.3299(2)
O1 O 1.0051(4) 0.42220(15) 0.50222(15)
O2 O 0.5320(3) 0.48636(17) 0.38326(17)
S1 S 0.82319(8) 0.45858(4) 0.38175(5)
H5 H 0.760(7) 0.072(3) -0.082(3)
H6 H 0.639(8) 0.001(3) 0.006(3)
H7 H 0.946(8) 0.003(3) 0.018(3)
H8 H 0.855(8) 0.611(3) 0.261(3)
H9 H 1.143(8) 0.578(3) 0.333(3)
O3 O 0.3160(3) 0.08705(13) 0.55239(13)
O4 O 0.7279(3) 0.12348(14) 0.74157(13)
O5 O 0.4839(5) 0.30112(15) 0.62757(19)
O6 O 0.2474(3) 0.1676(2) 0.77341(17)
P1 P 0.44104(7) 0.16369(4) 0.66908(4)
H10 H 0.343(6) 0.334(3) 0.594(4)
H11 H 0.083(6) 0.164(4) 0.742(4)
loop_
_geom_bond_atom_site_label_1
_geom_bond_atom_site_label_2
_geom_bond_site_symmetry_1
_geom_bond_site_symmetry_2
C1 C2 1_555 1_555
C2 H1 1_555 1_555
C3 C2 1_555 1_555
H2 C3 1_555 1_555
C4 C3 1_555 1_555
C5 C4 1_555 1_555
H3 C5 1_555 1_555
C6 C1 1_555 1_555
H4 C6 1_555 1_555
N1 C1 1_555 1_555
N2 S1 1_555 1_555
O1 S1 1_555 1_555
O2 S1 1_555 1_555
S1 C4 1_555 1_555
H5 N1 1_555 1_555
H6 N1 1_555 1_555
H7 N1 1_555 1_555
H8 N2 1_555 1_555
H9 N2 1_555 1_555
O3 P1 1_555 1_555
O4 P1 1_555 1_555
O5 P1 1_555 1_555
O6 P1 1_555 1_555
H10 O5 1_555 1_555
H11 O6 1_555 1_555
C5 C6 1_555 1_555

#END
