
#######################################################################
#
#                 Cambridge Crystallographic Data Centre
#                                CCDC 
#
#######################################################################
#
# If this CIF has been generated from an entry in the Cambridge 
# Structural Database, then it will include bibliographic, chemical, 
# crystal, experimental, refinement or atomic coordinate data resulting 
# from the CCDC's data processing and validation procedures.
#
#######################################################################

data_MOPPUD
_chemical_formula_moiety         'C24 H23 N1 O6'
_chemical_name_systematic        
4'-(9H-Fluoren-9-yl)-2,2-dimethyldihydro-5'H-spiro[1,3-dioxolo[4,5-c]pyran-6,2'-[1,4]oxazinane]-5',7(4H)-dione
_symmetry_cell_setting           orthorhombic
_symmetry_space_group_name_H-M   'P 21 21 21'
_symmetry_Int_Tables_number      19
_space_group_name_Hall           'P 2ac 2ab'
loop_
_symmetry_equiv_pos_site_id
_symmetry_equiv_pos_as_xyz
1 x,y,z
2 1/2-x,-y,1/2+z
3 -x,1/2+y,1/2-z
4 1/2+x,1/2-y,-z
_cell_length_a                   6.7640(3)
_cell_length_b                   10.3317(3)
_cell_length_c                   28.5745(12)
_cell_angle_alpha                90
_cell_angle_beta                 90
_cell_angle_gamma                90
_cell_volume                     1996.89
_exptl_crystal_colour            colorless
_exptl_crystal_description       cube
_cell_formula_units_Z            4
loop_
_atom_site_label
_atom_site_type_symbol
_atom_site_fract_x
_atom_site_fract_y
_atom_site_fract_z
N1 N 0.4172(3) 0.1002(2) 0.07830(6)
O1 O 0.0353(2) 0.20924(16) 0.10789(5)
O2 O -0.2644(3) 0.28752(17) 0.18100(5)
O3 O -0.0503(3) 0.38918(17) 0.23177(5)
O4 O 0.2347(3) 0.20724(18) 0.21224(5)
O5 O 0.3118(2) 0.34697(16) 0.10909(5)
O6 O 0.4462(3) 0.17308(18) 0.00356(5)
C1 C 0.2184(4) 0.2387(2) 0.12946(8)
C2 C -0.0998(4) 0.3168(3) 0.10647(8)
H1 H -0.2255 0.2880 0.0921
H2 H -0.0434 0.3854 0.0863
C3 C -0.1432(4) 0.3732(3) 0.15411(8)
H3 H -0.2110 0.4586 0.1505
C4 C 0.0354(4) 0.3877(2) 0.18676(7)
H4 H 0.1062 0.4708 0.1805
C5 C 0.1741(3) 0.2732(2) 0.18038(8)
C6 C -0.2372(4) 0.3202(2) 0.22947(8)
C7 C -0.3953(4) 0.4111(3) 0.24682(8)
H5 H -0.3939 0.4903 0.2280
H6 H -0.3700 0.4327 0.2797
H7 H -0.5248 0.3692 0.2441
C8 C -0.2269(4) 0.1944(3) 0.25649(8)
H8 H -0.1215 0.1400 0.2436
H9 H -0.3536 0.1489 0.2539
H10 H -0.1991 0.2128 0.2895
C9 C 0.3497(4) 0.3279(2) 0.05983(8)
H11 H 0.4565 0.3879 0.0503
H12 H 0.2294 0.3526 0.0423
C10 C 0.4082(4) 0.1920(3) 0.04513(8)
C11 C 0.3473(3) 0.1204(3) 0.12622(7)
H13 H 0.4623 0.1304 0.1474
H14 H 0.2715 0.0436 0.1366
C12 C 0.4671(4) -0.0329(2) 0.06506(8)
H15 H 0.5450 -0.0317 0.0353
C13 C 0.2884(4) -0.1195(2) 0.05889(7)
C14 C 0.1218(4) -0.1008(3) 0.03161(8)
H16 H 0.1048 -0.0229 0.0144
C15 C -0.0198(4) -0.1974(3) 0.02982(8)
H17 H -0.1352 -0.1854 0.0114
C16 C 0.0051(4) -0.3123(3) 0.05477(8)
H18 H -0.0923 -0.3783 0.0526
C17 C 0.1704(4) -0.3318(3) 0.08281(8)
H19 H 0.1865 -0.4097 0.1000
C18 C 0.3119(4) -0.2338(2) 0.08497(8)
C19 C 0.4956(3) -0.2229(2) 0.11247(8)
C20 C 0.5785(4) -0.3049(3) 0.14567(8)
H20 H 0.5210 -0.3869 0.1520
C21 C 0.7467(4) -0.2647(3) 0.16933(8)
H21 H 0.8038 -0.3196 0.1923
C22 C 0.8330(4) -0.1455(3) 0.15996(8)
H22 H 0.9468 -0.1191 0.1769
C23 C 0.7539(4) -0.0649(2) 0.12594(8)
H23 H 0.8148 0.0156 0.1188
C24 C 0.5840(4) -0.1037(2) 0.10243(7)
loop_
_geom_bond_atom_site_label_1
_geom_bond_atom_site_label_2
_geom_bond_site_symmetry_1
_geom_bond_site_symmetry_2
N1 C10 1_555 1_555
O1 C1 1_555 1_555
O2 C3 1_555 1_555
O3 C4 1_555 1_555
O4 C5 1_555 1_555
O5 C1 1_555 1_555
O6 C10 1_555 1_555
C1 C5 1_555 1_555
C2 O1 1_555 1_555
H1 C2 1_555 1_555
H2 C2 1_555 1_555
C3 C2 1_555 1_555
H3 C3 1_555 1_555
C4 C3 1_555 1_555
H4 C4 1_555 1_555
C5 C4 1_555 1_555
C6 O2 1_555 1_555
C7 C6 1_555 1_555
H5 C7 1_555 1_555
H6 C7 1_555 1_555
H7 C7 1_555 1_555
C8 C6 1_555 1_555
H8 C8 1_555 1_555
H9 C8 1_555 1_555
H10 C8 1_555 1_555
C9 O5 1_555 1_555
H11 C9 1_555 1_555
H12 C9 1_555 1_555
C10 C9 1_555 1_555
C11 N1 1_555 1_555
H13 C11 1_555 1_555
H14 C11 1_555 1_555
C12 N1 1_555 1_555
H15 C12 1_555 1_555
C13 C12 1_555 1_555
C14 C13 1_555 1_555
H16 C14 1_555 1_555
C15 C14 1_555 1_555
H17 C15 1_555 1_555
C16 C15 1_555 1_555
H18 C16 1_555 1_555
C17 C16 1_555 1_555
H19 C17 1_555 1_555
C18 C13 1_555 1_555
C19 C18 1_555 1_555
C20 C19 1_555 1_555
H20 C20 1_555 1_555
C21 C20 1_555 1_555
H21 C21 1_555 1_555
C22 C21 1_555 1_555
H22 C22 1_555 1_555
C23 C22 1_555 1_555
H23 C23 1_555 1_555
C24 C12 1_555 1_555
O3 C6 1_555 1_555
C1 C11 1_555 1_555
C17 C18 1_555 1_555
C19 C24 1_555 1_555
C23 C24 1_555 1_555

#END
