
#######################################################################
#
#                 Cambridge Crystallographic Data Centre
#                                CCDC 
#
#######################################################################
#
# If this CIF has been generated from an entry in the Cambridge 
# Structural Database, then it will include bibliographic, chemical, 
# crystal, experimental, refinement or atomic coordinate data resulting 
# from the CCDC's data processing and validation procedures.
#
#######################################################################

data_MOPPIR
_chemical_formula_moiety         'C13 H17 N1 O7'
_chemical_name_systematic        
4'-Acetyl-2,2-dimethyldihydro-5'H-spiro[1,3-dioxolo[4,5-c]pyran-6,2'-[1,4]oxazinane]-5',7(4H)-dione
_symmetry_cell_setting           monoclinic
_symmetry_space_group_name_H-M   'P 21'
_symmetry_Int_Tables_number      4
_space_group_name_Hall           'P 2yb'
loop_
_symmetry_equiv_pos_site_id
_symmetry_equiv_pos_as_xyz
1 x,y,z
2 -x,1/2+y,-z
_cell_length_a                   7.6742(2)
_cell_length_b                   13.4254(3)
_cell_length_c                   13.2089(3)
_cell_angle_alpha                90
_cell_angle_beta                 94.302(2)
_cell_angle_gamma                90
_cell_volume                     1357.07
_exptl_crystal_colour            colorless
_exptl_crystal_description       plate
_cell_formula_units_Z            4
loop_
_atom_site_label
_atom_site_type_symbol
_atom_site_fract_x
_atom_site_fract_y
_atom_site_fract_z
N1 N -0.3182(3) 0.08606(18) 0.34363(17)
O1 O 0.0944(2) -0.00277(15) 0.41814(14)
O2 O 0.2894(3) 0.15445(15) 0.65805(15)
O3 O 0.4190(2) 0.04577(14) 0.55214(14)
O4 O 0.0580(3) 0.22357(16) 0.50677(17)
O5 O -0.1554(2) 0.00826(15) 0.51053(13)
O6 O -0.5066(3) -0.04919(16) 0.33062(15)
O7 O -0.3609(3) 0.24130(18) 0.28124(17)
C1 C -0.0391(3) 0.0601(2) 0.4523(2)
C2 C 0.1802(4) -0.0630(2) 0.4972(2)
H1 H 0.2688 -0.1035 0.4685
H2 H 0.0952 -0.1077 0.5237
C3 C 0.2645(3) -0.0020(2) 0.58335(19)
H3 H 0.2941 -0.0448 0.6423
C4 C 0.1598(3) 0.0887(2) 0.6152(2)
H4 H 0.0803 0.0693 0.6664
C5 C 0.0569(4) 0.1356(2) 0.5237(2)
C6 C 0.4569(4) 0.1249(2) 0.6231(2)
C7 C 0.5729(4) 0.0888(2) 0.7135(2)
H5 H 0.5174 0.0340 0.7450
H6 H 0.5916 0.1420 0.7616
H7 H 0.6831 0.0674 0.6913
C8 C 0.5352(4) 0.2105(2) 0.5676(2)
H8 H 0.4566 0.2299 0.5111
H9 H 0.6446 0.1901 0.5435
H10 H 0.5542 0.2659 0.6131
C9 C -0.1308(4) 0.1084(2) 0.3574(2)
H11 H -0.1156 0.1801 0.3619
H12 H -0.0750 0.0856 0.2981
C10 C -0.3751(3) -0.0094(2) 0.3679(2)
C11 C -0.2590(4) -0.0610(2) 0.4491(2)
H13 H -0.3309 -0.0994 0.4921
H14 H -0.1822 -0.1069 0.4172
C12 C -0.4248(4) 0.1611(2) 0.2989(2)
C13 C -0.6167(4) 0.1395(3) 0.2760(3)
H15 H -0.6733 0.1970 0.2453
H16 H -0.6687 0.1237 0.3379
H17 H -0.6303 0.0841 0.2302
N2 N -0.8060(3) -0.15669(17) -0.10542(17)
O8 O -0.3994(2) -0.24484(14) -0.04601(14)
O9 O -0.1819(3) -0.11680(16) 0.20880(14)
O10 O -0.0648(2) -0.20679(15) 0.08322(14)
O11 O -0.4290(3) -0.03100(16) 0.07636(16)
O12 O -0.6388(2) -0.24605(14) 0.05450(15)
O13 O -0.9803(3) -0.29512(16) -0.13463(16)
O14 O -0.8565(3) -0.00298(17) -0.16873(17)
C14 C -0.5250(4) -0.1868(2) 0.0007(2)
C15 C -0.3051(4) -0.3127(2) 0.0232(2)
H18 H -0.2197 -0.3486 -0.0133
H19 H -0.3865 -0.3611 0.0470
C16 C -0.2127(3) -0.2617(2) 0.1135(2)
H20 H -0.1748 -0.3111 0.1652
C17 C -0.3134(4) -0.1779(2) 0.1614(2)
H21 H -0.3869 -0.2052 0.2123
C18 C -0.4256(4) -0.1203(2) 0.0808(2)
C19 C -0.0190(4) -0.1392(2) 0.1643(2)
C20 C 0.0528(4) -0.0455(2) 0.1198(2)
H22 H -0.0313 -0.0188 0.0696
H23 H 0.1589 -0.0608 0.0889
H24 H 0.0766 0.0027 0.1728
C21 C 0.1054(4) -0.1867(3) 0.2446(2)
H25 H 0.0529 -0.2456 0.2700
H26 H 0.1301 -0.1405 0.2993
H27 H 0.2122 -0.2041 0.2154
C22 C -0.6237(4) -0.1258(2) -0.0832(2)
H28 H -0.6216 -0.0563 -0.0633
H29 H -0.5629 -0.1315 -0.1447
C23 C -0.8556(4) -0.2554(2) -0.0905(2)
C24 C -0.7403(4) -0.3113(2) -0.0127(2)
H30 H -0.8125 -0.3533 0.0268
H31 H -0.6621 -0.3542 -0.0473
C25 C -0.9162(4) -0.0842(2) -0.1515(2)
C26 C -1.1048(5) -0.1069(3) -0.1744(4)
H32 H -1.1621 -0.0504 -0.2066
H33 H -1.1573 -0.1216 -0.1124
H34 H -1.1168 -0.1634 -0.2189
loop_
_geom_bond_atom_site_label_1
_geom_bond_atom_site_label_2
_geom_bond_site_symmetry_1
_geom_bond_site_symmetry_2
N1 C9 1_555 1_555
O1 C1 1_555 1_555
O2 C4 1_555 1_555
O3 C3 1_555 1_555
O4 C5 1_555 1_555
O5 C1 1_555 1_555
O6 C10 1_555 1_555
O7 C12 1_555 1_555
C1 C5 1_555 1_555
C2 O1 1_555 1_555
H1 C2 1_555 1_555
H2 C2 1_555 1_555
C3 C2 1_555 1_555
H3 C3 1_555 1_555
C4 C3 1_555 1_555
H4 C4 1_555 1_555
C5 C4 1_555 1_555
C6 O2 1_555 1_555
C7 C6 1_555 1_555
H5 C7 1_555 1_555
H6 C7 1_555 1_555
H7 C7 1_555 1_555
C8 C6 1_555 1_555
H8 C8 1_555 1_555
H9 C8 1_555 1_555
H10 C8 1_555 1_555
C9 C1 1_555 1_555
H11 C9 1_555 1_555
H12 C9 1_555 1_555
C10 N1 1_555 1_555
C11 O5 1_555 1_555
H13 C11 1_555 1_555
H14 C11 1_555 1_555
C12 N1 1_555 1_555
C13 C12 1_555 1_555
H15 C13 1_555 1_555
H16 C13 1_555 1_555
H17 C13 1_555 1_555
N2 C22 1_555 1_555
O8 C14 1_555 1_555
O9 C17 1_555 1_555
O10 C16 1_555 1_555
O11 C18 1_555 1_555
O12 C14 1_555 1_555
O13 C23 1_555 1_555
O14 C25 1_555 1_555
C14 C18 1_555 1_555
C15 O8 1_555 1_555
H18 C15 1_555 1_555
H19 C15 1_555 1_555
C16 C15 1_555 1_555
H20 C16 1_555 1_555
C17 C16 1_555 1_555
H21 C17 1_555 1_555
C18 C17 1_555 1_555
C19 O9 1_555 1_555
C20 C19 1_555 1_555
H22 C20 1_555 1_555
H23 C20 1_555 1_555
H24 C20 1_555 1_555
C21 C19 1_555 1_555
H25 C21 1_555 1_555
H26 C21 1_555 1_555
H27 C21 1_555 1_555
C22 C14 1_555 1_555
H28 C22 1_555 1_555
H29 C22 1_555 1_555
C23 N2 1_555 1_555
C24 O12 1_555 1_555
H30 C24 1_555 1_555
H31 C24 1_555 1_555
C25 N2 1_555 1_555
C26 C25 1_555 1_555
H32 C26 1_555 1_555
H33 C26 1_555 1_555
H34 C26 1_555 1_555
O3 C6 1_555 1_555
C10 C11 1_555 1_555
O10 C19 1_555 1_555
C23 C24 1_555 1_555

#END
