
#######################################################################
#
#                 Cambridge Crystallographic Data Centre
#                                CCDC 
#
#######################################################################
#
# If this CIF has been generated from an entry in the Cambridge 
# Structural Database, then it will include bibliographic, chemical, 
# crystal, experimental, refinement or atomic coordinate data resulting 
# from the CCDC's data processing and validation procedures.
#
#######################################################################

data_MOPQAK
_chemical_name_common            'Taxoid SB-T-2054'
_chemical_formula_moiety         'C51 H55 N1 O15'
_chemical_name_systematic        
'23,31-Diacetoxy-1,17,26-trihydroxy-21,25,34,34-tetramethyl-14,18,24-trioxo-16-phenyl-3,19,29-trioxa-15-azahexacyclo[20.11.1.0^2,20^.0^8,13^.0^25,32^.0^28,31^]tetratriaconta-6,8,10,12,21-pentaen-33-yl benzoate'
_chemical_properties_biological  
'Cytotoxicity against human breast, ovarian and colon cancer cell lines'
_symmetry_cell_setting           orthorhombic
_symmetry_space_group_name_H-M   'P 21 21 21'
_symmetry_Int_Tables_number      19
_space_group_name_Hall           'P 2ac 2ab'
loop_
_symmetry_equiv_pos_site_id
_symmetry_equiv_pos_as_xyz
1 x,y,z
2 1/2-x,-y,1/2+z
3 -x,1/2+y,1/2-z
4 1/2+x,1/2-y,-z
_cell_length_a                   14.567(2)
_cell_length_b                   15.564(3)
_cell_length_c                   31.013(5)
_cell_angle_alpha                90
_cell_angle_beta                 90
_cell_angle_gamma                90
_cell_volume                     7031.29
_exptl_crystal_colour            colorless
_exptl_crystal_description       diamond
_chemical_melting_point          '203-205 deg.C'
_cell_formula_units_Z            4
_chemical_properties_physical    air-sensitive
_exptl_crystal_recrystallization_method 'dichloromethane/hexanes/ethyl acetate'
loop_
_atom_site_label
_atom_site_type_symbol
_atom_site_fract_x
_atom_site_fract_y
_atom_site_fract_z
O1 O 0.0984(4) 0.3161(4) 0.0927(2)
O2 O -0.0206(5) 0.4412(4) 0.1379(2)
O3 O 0.0338(4) 0.1895(4) 0.2137(2)
O4 O -0.0036(5) 0.3515(4) 0.2455(2)
O5 O 0.0269(5) 0.5045(4) 0.2127(2)
H1 H 0.0224 0.5400 0.1932
O6 O 0.0979(5) 0.1382(4) 0.3100(2)
C1 C 0.0968(6) 0.2098(6) 0.2502(3)
O7 O -0.0153(6) 0.4380(5) 0.3056(3)
O8 O 0.1466(6) 0.3943(7) 0.0367(2)
O9 O -0.1915(5) 0.2675(5) 0.0295(3)
O10 O 0.4073(6) 0.4454(5) 0.1963(2)
N1 N -0.0559(5) 0.3039(5) 0.0022(2)
H2 H -0.0235 0.3394 -0.0126
C2 C 0.0916(7) 0.4398(6) 0.2005(3)
C3 C 0.2244(6) 0.3657(6) 0.1414(3)
O11 O 0.1544(6) 0.1346(5) 0.1756(2)
C4 C 0.2959(7) 0.2102(7) 0.2533(4)
H3 H 0.297(7) 0.204(7) 0.222(3)
O12 O 0.1232(4) 0.2586(5) -0.0203(2)
H4 H 0.1461 0.3064 -0.0232
O13 O 0.3651(6) 0.4017(5) 0.2747(3)
C5 C 0.2461(7) 0.2954(6) 0.2642(3)
C6 C 0.1269(7) 0.3864(7) 0.1216(3)
H5 H 0.130(6) 0.440(6) 0.105(3)
C7 C 0.1520(6) 0.2925(6) 0.2363(3)
H6 H 0.169(6) 0.286(5) 0.206(3)
C8 C 0.3156(8) 0.3638(7) 0.2478(4)
C9 C -0.1827(8) 0.4574(7) 0.0779(4)
H7 H -0.1267 0.4584 0.0635
C10 C -0.1923(7) 0.3866(7) -0.0172(4)
C11 C 0.0935(7) 0.3780(6) 0.2402(3)
H8 H 0.113(6) 0.410(6) 0.266(3)
C12 C 0.2499(7) 0.4107(6) 0.1758(3)
C13 C -0.0101(6) 0.2299(7) 0.0222(4)
H9 H -0.032(6) 0.225(6) 0.052(3)
C14 C 0.0423(7) 0.2074(6) 0.2926(3)
H10 H 0.0471 0.2602 0.3091
H11 H -0.0216 0.1916 0.2886
C15 C -0.0529(11) 0.3899(7) 0.2785(4)
C16 C 0.0560(7) 0.3936(6) 0.1576(3)
H12 H 0.035(6) 0.336(6) 0.165(3)
C17 C 0.0945(7) 0.2476(8) 0.0231(3)
H13 H 0.126(6) 0.198(6) 0.036(3)
O14 O 0.3909(5) 0.2091(5) 0.2688(3)
H14 H 0.4021 0.2543 0.2813
C18 C -0.0332(8) 0.1460(9) -0.0011(4)
C19 C 0.1862(8) 0.5574(6) 0.1591(3)
H15 H 0.1407 0.5990 0.1674
H16 H 0.1706 0.5337 0.1315
H17 H 0.2452 0.5848 0.1574
C20 C 0.0724(10) 0.1465(7) 0.1777(4)
C21 C 0.2752(6) 0.2927(7) 0.1192(3)
H18 H 0.3364 0.2889 0.1305
H19 H 0.2777 0.3035 0.0888
H20 H 0.2435 0.2396 0.1244
C22 C 0.2195(8) 0.5278(6) 0.2338(4)
H21 H 0.2226 0.4868 0.2569
H22 H 0.1761 0.5720 0.2411
H23 H 0.2789 0.5530 0.2295
C23 C 0.1145(7) 0.3275(9) 0.0507(4)
C24 C 0.1443(7) 0.1285(6) 0.2677(4)
H24 H 0.123(6) 0.077(6) 0.253(3)
C25 C -0.2361(13) 0.4488(11) -0.0844(5)
H25 H -0.2281 0.4516 -0.1141
C26 C 0.1896(7) 0.4838(6) 0.1936(3)
C27 C 0.0011(8) 0.1217(7) 0.1472(3)
H26 H 0.0242 0.1273 0.1183
H27 H -0.0514 0.1582 0.1508
H28 H -0.0163 0.0631 0.1523
C28 C -0.2562(9) 0.4497(8) 0.0548(4)
H29 H -0.3133 0.4469 0.0682
C29 C 0.2494(7) 0.1289(8) 0.2722(4)
H30 H 0.2739 0.0786 0.2577
H31 H 0.2652 0.1243 0.3025
C30 C -0.1840(8) 0.3925(7) -0.0600(4)
H32 H -0.1416 0.3575 -0.0739
C31 C -0.1468(8) 0.3185(7) 0.0060(3)
C32 C -0.1115(6) 0.4045(8) 0.1479(3)
H33 H -0.1210 0.4017 0.1788
H34 H -0.1170 0.3470 0.1361
C33 C -0.2061(12) 0.4150(9) 0.3086(5)
H35 H -0.1823 0.4566 0.3269
C34 C 0.3313(7) 0.3808(7) 0.2019(4)
H36 H 0.353(7) 0.327(6) 0.189(3)
C35 C -0.2501(8) 0.4452(8) 0.0060(4)
C36 C -0.1844(8) 0.3012(8) 0.2527(4)
H37 H -0.1458 0.2726 0.2336
C37 C -0.1514(8) 0.3659(8) 0.2792(4)
C38 C -0.3395(13) 0.3273(15) 0.2824(6)
H38 H -0.4018 0.3141 0.2834
C39 C -0.3012(12) 0.5017(11) -0.0641(6)
H39 H -0.3413 0.5350 -0.0804
C40 C 0.2290(7) 0.3084(8) 0.3140(3)
H40 H 0.2866 0.3069 0.3290
H41 H 0.1900 0.2633 0.3246
H42 H 0.1998 0.3629 0.3188
C41 C 0.5603(12) 0.4783(16) 0.1950(6)
H43 H 0.6159 0.4695 0.2110
H44 H 0.5313 0.5303 0.2045
H45 H 0.5746 0.4828 0.1648
C42 C -0.1810(7) 0.4648(8) 0.1270(4)
H46 H -0.1661 0.5235 0.1349
H47 H -0.2416 0.4521 0.1382
C43 C -0.2770(12) 0.2805(9) 0.2555(5)
H48 H -0.2992 0.2347 0.2394
C44 C -0.3043(10) 0.5033(9) -0.0217(5)
H49 H -0.3427 0.5431 -0.0085
O15 O 0.5037(9) 0.3327(10) 0.2100(6)
C45 C 0.4956(12) 0.4025(16) 0.2023(8)
C46 C -0.3025(14) 0.3926(13) 0.3066(7)
H50 H -0.3428 0.4252 0.3231
C47 C -0.0281(10) 0.1390(9) -0.0448(4)
H51 H -0.0097 0.1866 -0.0608
C48 C -0.0492(19) 0.0640(18) -0.0662(8)
H52 H -0.0432 0.0606 -0.0960
C49 C -0.075(2) 0.0046(19) -0.0463(9)
H53 H -0.0887 -0.0437 -0.0627
C50 C -0.0649(13) 0.0798(11) 0.0260(7)
H54 H -0.0708 0.0871 0.0557
C51 C -0.0896(18) -0.0066(12) 0.0032(9)
H55 H -0.1097 -0.0564 0.0168
loop_
_geom_bond_atom_site_label_1
_geom_bond_atom_site_label_2
_geom_bond_site_symmetry_1
_geom_bond_site_symmetry_2
O1 C6 1_555 1_555
O2 C16 1_555 1_555
O3 C1 1_555 1_555
O4 C11 1_555 1_555
O5 H1 1_555 1_555
O6 C14 1_555 1_555
C1 C7 1_555 1_555
O7 C15 1_555 1_555
O8 C23 1_555 1_555
O9 C31 1_555 1_555
O10 C34 1_555 1_555
N1 H2 1_555 1_555
C2 O5 1_555 1_555
C3 C6 1_555 1_555
O11 C20 1_555 1_555
C4 H3 1_555 1_555
O12 H4 1_555 1_555
O13 C8 1_555 1_555
C5 C4 1_555 1_555
C6 H5 1_555 1_555
C7 C5 1_555 1_555
H6 C7 1_555 1_555
C8 C5 1_555 1_555
C9 H7 1_555 1_555
C10 C30 1_555 1_555
C11 C2 1_555 1_555
H8 C11 1_555 1_555
C12 C3 1_555 1_555
C13 N1 1_555 1_555
H9 C13 1_555 1_555
C14 C1 1_555 1_555
H10 C14 1_555 1_555
H11 C14 1_555 1_555
C15 O4 1_555 1_555
C16 C2 1_555 1_555
H12 C16 1_555 1_555
C17 O12 1_555 1_555
H13 C17 1_555 1_555
O14 C4 1_555 1_555
H14 O14 1_555 1_555
C18 C13 1_555 1_555
C19 H15 1_555 1_555
H16 C19 1_555 1_555
H17 C19 1_555 1_555
C20 O3 1_555 1_555
C21 C3 1_555 1_555
H18 C21 1_555 1_555
H19 C21 1_555 1_555
H20 C21 1_555 1_555
C22 H21 1_555 1_555
H22 C22 1_555 1_555
H23 C22 1_555 1_555
C23 O1 1_555 1_555
C24 O6 1_555 1_555
H24 C24 1_555 1_555
C25 H25 1_555 1_555
C26 C2 1_555 1_555
C27 C20 1_555 1_555
H26 C27 1_555 1_555
H27 C27 1_555 1_555
H28 C27 1_555 1_555
C28 C9 1_555 1_555
H29 C28 1_555 1_555
C29 C4 1_555 1_555
H30 C29 1_555 1_555
H31 C29 1_555 1_555
C30 C25 1_555 1_555
H32 C30 1_555 1_555
C31 N1 1_555 1_555
C32 O2 1_555 1_555
H33 C32 1_555 1_555
H34 C32 1_555 1_555
C33 H35 1_555 1_555
C34 C8 1_555 1_555
H36 C34 1_555 1_555
C35 C10 1_555 1_555
C36 H37 1_555 1_555
C37 C15 1_555 1_555
C38 H38 1_555 1_555
C39 C25 1_555 1_555
H39 C39 1_555 1_555
C40 C5 1_555 1_555
H40 C40 1_555 1_555
H41 C40 1_555 1_555
H42 C40 1_555 1_555
C41 H43 1_555 1_555
H44 C41 1_555 1_555
H45 C41 1_555 1_555
C42 C9 1_555 1_555
H46 C42 1_555 1_555
H47 C42 1_555 1_555
C43 C36 1_555 1_555
H48 C43 1_555 1_555
C44 C35 1_555 1_555
H49 C44 1_555 1_555
O15 C45 1_555 1_555
C45 O10 1_555 1_555
C46 C33 1_555 1_555
H50 C46 1_555 1_555
C47 C18 1_555 1_555
H51 C47 1_555 1_555
C48 C47 1_555 1_555
H52 C48 1_555 1_555
C49 C48 1_555 1_555
H53 C49 1_555 1_555
C50 C18 1_555 1_555
H54 C50 1_555 1_555
C51 C49 1_555 1_555
H55 C51 1_555 1_555
C1 C24 1_555 1_555
C6 C16 1_555 1_555
C7 C11 1_555 1_555
C10 C31 1_555 1_555
C12 C26 1_555 1_555
C12 C34 1_555 1_555
C13 C17 1_555 1_555
C17 C23 1_555 1_555
C19 C26 1_555 1_555
C22 C26 1_555 1_555
C24 C29 1_555 1_555
C28 C35 1_555 1_555
C32 C42 1_555 1_555
C33 C37 1_555 1_555
C36 C37 1_555 1_555
C38 C43 1_555 1_555
C38 C46 1_555 1_555
C39 C44 1_555 1_555
C41 C45 1_555 1_555
C50 C51 1_555 1_555

#END
