
#######################################################################
#
#                 Cambridge Crystallographic Data Centre
#                                CCDC 
#
#######################################################################
#
# If this CIF has been generated from an entry in the Cambridge 
# Structural Database, then it will include bibliographic, chemical, 
# crystal, experimental, refinement or atomic coordinate data resulting 
# from the CCDC's data processing and validation procedures.
#
#######################################################################

data_MOPQUF
_chemical_formula_moiety         'C23 H20 N4 O4'
_chemical_name_systematic        
cis-(5aS,12S,14aS)-12-(4-Nitrophenyl)-1,2,3,5a,6,11,12,14a-octahydro-5H,14H-pyrrolo[1'',2'':4',5']pyrazino[1',2':1,6]pyrido[3,4-b]indole-5,14-dione
_chemical_properties_biological  'antimicrobial activity'
_symmetry_cell_setting           orthorhombic
_symmetry_space_group_name_H-M   'P 21 21 21'
_symmetry_Int_Tables_number      19
_space_group_name_Hall           'P 2ac 2ab'
loop_
_symmetry_equiv_pos_site_id
_symmetry_equiv_pos_as_xyz
1 x,y,z
2 1/2-x,-y,1/2+z
3 -x,1/2+y,1/2-z
4 1/2+x,1/2-y,-z
_cell_length_a                   10.1398(12)
_cell_length_b                   11.5318(13)
_cell_length_c                   17.013(2)
_cell_angle_alpha                90
_cell_angle_beta                 90
_cell_angle_gamma                90
_cell_volume                     1989.33
_chemical_melting_point          '262-264 deg.C'
_cell_formula_units_Z            4
loop_
_atom_site_label
_atom_site_type_symbol
_atom_site_fract_x
_atom_site_fract_y
_atom_site_fract_z
N1 N 1.1733(2) 0.00836(19) 0.18154(13)
N2 N 0.94473(19) 0.10870(16) 0.12332(11)
N3 N 0.6113(2) 0.24326(17) 0.14188(13)
H1 H 0.5942 0.2874 0.1024
N4 N 0.5405(3) -0.2076(3) -0.07936(16)
O1 O 1.0558(2) -0.0750(2) 0.27836(11)
O2 O 1.04634(18) 0.14003(15) 0.00725(11)
O3 O 0.5780(3) -0.3073(2) -0.07423(18)
O4 O 0.4390(3) -0.1799(2) -0.11319(15)
C1 C 1.2877(3) 0.0354(3) 0.0646(2)
H2 H 1.2472 -0.0145 0.0255
H3 H 1.3389 0.0945 0.0378
C2 C 1.3740(3) -0.0342(3) 0.1196(2)
H4 H 1.4068 -0.1031 0.0935
H5 H 1.4487 0.0118 0.1368
C3 C 1.2895(3) -0.0669(3) 0.18844(19)
H6 H 1.2645 -0.1480 0.1859
H7 H 1.3354 -0.0529 0.2375
C4 C 1.0660(3) -0.0021(2) 0.22583(16)
C5 C 0.9548(2) 0.0830(2) 0.20891(14)
H8 H 0.9754 0.1557 0.2360
C6 C 0.8257(2) 0.0374(2) 0.24215(15)
H9 H 0.8084 -0.0396 0.2217
H10 H 0.8316 0.0323 0.2989
C7 C 0.7164(2) 0.1169(2) 0.21982(14)
C8 C 0.5962(2) 0.1494(2) 0.25805(15)
C9 C 0.5343(3) 0.1173(2) 0.32771(16)
H11 H 0.5747 0.0657 0.3621
C10 C 0.4122(3) 0.1631(3) 0.3450(2)
H12 H 0.3695 0.1413 0.3911
C11 C 0.3522(3) 0.2413(3) 0.2944(2)
H13 H 0.2695 0.2704 0.3073
C12 C 0.4111(3) 0.2774(2) 0.22567(18)
H14 H 0.3711 0.3315 0.1929
C13 C 0.5338(3) 0.2291(2) 0.20733(16)
C14 C 0.7218(2) 0.1741(2) 0.15051(15)
C15 C 0.8193(2) 0.1470(2) 0.08767(14)
H15 H 0.8350 0.2167 0.0561
C16 C 1.0522(3) 0.1136(2) 0.07727(16)
C17 C 1.1837(3) 0.0901(2) 0.11690(17)
H16 H 1.2184 0.1635 0.1373
C18 C 0.7582(2) 0.0530(2) 0.03577(13)
C19 C 0.7936(2) -0.0624(2) 0.04315(15)
H17 H 0.8645 -0.0826 0.0750
C20 C 0.7249(3) -0.1475(2) 0.00387(15)
H18 H 0.7496 -0.2249 0.0082
C21 C 0.6191(3) -0.1158(2) -0.04196(16)
C22 C 0.5836(3) -0.0018(2) -0.05309(15)
H19 H 0.5139 0.0177 -0.0860
C23 C 0.6539(3) 0.0821(2) -0.01433(14)
H20 H 0.6318 0.1597 -0.0215
loop_
_geom_bond_atom_site_label_1
_geom_bond_atom_site_label_2
_geom_bond_site_symmetry_1
_geom_bond_site_symmetry_2
N1 C3 1_555 1_555
N2 C5 1_555 1_555
N3 H1 1_555 1_555
N4 O3 1_555 1_555
O1 C4 1_555 1_555
O2 C16 1_555 1_555
O4 N4 1_555 1_555
C1 H2 1_555 1_555
H3 C1 1_555 1_555
C2 C1 1_555 1_555
H4 C2 1_555 1_555
H5 C2 1_555 1_555
C3 C2 1_555 1_555
H6 C3 1_555 1_555
H7 C3 1_555 1_555
C4 N1 1_555 1_555
C5 C4 1_555 1_555
H8 C5 1_555 1_555
C6 C5 1_555 1_555
H9 C6 1_555 1_555
H10 C6 1_555 1_555
C7 C6 1_555 1_555
C8 C7 1_555 1_555
C9 C8 1_555 1_555
H11 C9 1_555 1_555
C10 C9 1_555 1_555
H12 C10 1_555 1_555
C11 C10 1_555 1_555
H13 C11 1_555 1_555
C12 C11 1_555 1_555
H14 C12 1_555 1_555
C13 N3 1_555 1_555
C14 N3 1_555 1_555
C15 N2 1_555 1_555
H15 C15 1_555 1_555
C16 N2 1_555 1_555
C17 N1 1_555 1_555
H16 C17 1_555 1_555
C18 C15 1_555 1_555
C19 C18 1_555 1_555
H17 C19 1_555 1_555
C20 C19 1_555 1_555
H18 C20 1_555 1_555
C21 N4 1_555 1_555
C22 C21 1_555 1_555
H19 C22 1_555 1_555
C23 C18 1_555 1_555
H20 C23 1_555 1_555
C1 C17 1_555 1_555
C7 C14 1_555 1_555
C8 C13 1_555 1_555
C12 C13 1_555 1_555
C14 C15 1_555 1_555
C16 C17 1_555 1_555
C20 C21 1_555 1_555
C22 C23 1_555 1_555

#END
