
#######################################################################
#
#                 Cambridge Crystallographic Data Centre
#                                CCDC 
#
#######################################################################
#
# If this CIF has been generated from an entry in the Cambridge 
# Structural Database, then it will include bibliographic, chemical, 
# crystal, experimental, refinement or atomic coordinate data resulting 
# from the CCDC's data processing and validation procedures.
#
#######################################################################

data_MOPVOC
_chemical_formula_moiety         'C19 H23 N1 O3'
_chemical_name_systematic        
4-(4-(Dimethylamino)phenyl)-7,7-dimethyl-5-oxo-3,4,5,6,7,8-hexahydrocoumarin
_symmetry_cell_setting           monoclinic
_symmetry_space_group_name_H-M   'P 21'
_symmetry_Int_Tables_number      4
_space_group_name_Hall           'P 2yb'
loop_
_symmetry_equiv_pos_site_id
_symmetry_equiv_pos_as_xyz
1 x,y,z
2 -x,1/2+y,-z
_cell_length_a                   9.364(2)
_cell_length_b                   5.974(1)
_cell_length_c                   15.731(3)
_cell_angle_alpha                90
_cell_angle_beta                 102.87(3)
_cell_angle_gamma                90
_cell_volume                     857.893
_chemical_melting_point          136-137deg.C
_cell_formula_units_Z            2
loop_
_atom_site_label
_atom_site_type_symbol
_atom_site_fract_x
_atom_site_fract_y
_atom_site_fract_z
O1 O 1.3487(2) 0.5600(5) 0.2966(1)
O2 O 1.0597(2) 0.0537(5) 0.1012(1)
O3 O 0.8244(2) 0.1017(9) 0.0471(2)
N1 N 0.7644(3) 0.2681(5) 0.4762(2)
C1 C 1.3361(3) 0.3845(6) 0.2551(2)
C2 C 1.4618(3) 0.2259(8) 0.2590(2)
C3 C 1.4637(3) 0.1105(6) 0.1730(2)
C4 C 1.3160(3) -0.0066(7) 0.1422(2)
C5 C 1.1900(3) 0.1357(6) 0.1508(2)
C6 C 0.9341(3) 0.1884(10) 0.0844(2)
C7 C 0.9550(4) 0.4232(9) 0.1109(2)
C8 C 1.0594(3) 0.4530(6) 0.2000(2)
C9 C 1.1943(3) 0.3177(6) 0.2002(2)
C10 C 0.9851(3) 0.3985(5) 0.2744(2)
C11 C 0.9999(3) 0.1951(5) 0.3178(2)
C12 C 0.9281(3) 0.1513(5) 0.3843(2)
C13 C 0.8357(3) 0.3098(5) 0.4095(2)
C14 C 0.8211(3) 0.5144(6) 0.3654(2)
C15 C 0.8941(3) 0.5554(6) 0.2994(2)
C16 C 1.4853(4) 0.2837(8) 0.1049(3)
C17 C 1.5877(4) -0.0605(8) 0.1859(3)
C18 C 0.7677(5) 0.0528(8) 0.5131(2)
C19 C 0.6688(4) 0.4312(8) 0.5002(3)
loop_
_geom_bond_atom_site_label_1
_geom_bond_atom_site_label_2
_geom_bond_site_symmetry_1
_geom_bond_site_symmetry_2
O1 C1 1_555 1_555
O2 C5 1_555 1_555
O3 C6 1_555 1_555
N1 C13 1_555 1_555
C1 C2 1_555 1_555
C2 C3 1_555 1_555
C3 C4 1_555 1_555
C4 C5 1_555 1_555
C5 C9 1_555 1_555
C6 O2 1_555 1_555
C7 C6 1_555 1_555
C8 C7 1_555 1_555
C9 C1 1_555 1_555
C10 C8 1_555 1_555
C11 C10 1_555 1_555
C12 C11 1_555 1_555
C13 C12 1_555 1_555
C14 C13 1_555 1_555
C15 C10 1_555 1_555
C16 C3 1_555 1_555
C17 C3 1_555 1_555
C18 N1 1_555 1_555
C19 N1 1_555 1_555
C8 C9 1_555 1_555
C14 C15 1_555 1_555

#END
