
#######################################################################
#
#                 Cambridge Crystallographic Data Centre
#                                CCDC 
#
#######################################################################
#
# If this CIF has been generated from an entry in the Cambridge 
# Structural Database, then it will include bibliographic, chemical, 
# crystal, experimental, refinement or atomic coordinate data resulting 
# from the CCDC's data processing and validation procedures.
#
#######################################################################

data_MOPVOC01
_chemical_formula_moiety         'C19 H23 N1 O3'
_chemical_name_systematic        
4-(4-(Dimethylamino)phenyl)-7,7-dimethyl-5-oxo-3,4,5,6,7,8-hexahydrocoumarin
_symmetry_cell_setting           monoclinic
_symmetry_space_group_name_H-M   'P 21'
_symmetry_Int_Tables_number      4
_space_group_name_Hall           'P 2yb'
loop_
_symmetry_equiv_pos_site_id
_symmetry_equiv_pos_as_xyz
1 x,y,z
2 -x,1/2+y,-z
_cell_length_a                   9.3639(19)
_cell_length_b                   5.9740(12)
_cell_length_c                   15.731(3)
_cell_angle_alpha                90
_cell_angle_beta                 102.87(3)
_cell_angle_gamma                90
_cell_volume                     857.884
_chemical_melting_point          '136-138 deg.C'
_cell_formula_units_Z            2
loop_
_atom_site_label
_atom_site_type_symbol
_atom_site_fract_x
_atom_site_fract_y
_atom_site_fract_z
C1 C 0.8352(4) 0.3099(7) 0.4096(2)
C2 C 1.1939(4) 0.3176(8) 0.2002(2)
O1 O 1.0595(3) 0.0548(8) 0.1007(2)
C3 C 1.0000(4) 0.1944(7) 0.3182(2)
C4 C 0.9285(4) 0.1514(7) 0.3848(2)
C5 C 1.0602(4) 0.4541(8) 0.2004(2)
C6 C 0.9849(4) 0.3991(7) 0.2744(2)
N1 N 0.7653(5) 0.2676(7) 0.4765(3)
C7 C 0.8937(5) 0.5568(8) 0.2987(2)
C8 C 1.1904(4) 0.1341(8) 0.1507(2)
C9 C 1.3163(4) -0.0062(10) 0.1423(3)
C10 C 1.3361(4) 0.3855(9) 0.2553(2)
C11 C 0.8207(5) 0.5144(8) 0.3656(3)
C12 C 0.9345(5) 0.1914(15) 0.0845(3)
C13 C 1.4645(4) 0.1114(8) 0.1736(3)
C14 C 0.9552(5) 0.4235(14) 0.1114(3)
C15 C 1.4634(5) 0.2236(12) 0.2592(3)
C16 C 0.7659(7) 0.0512(12) 0.5127(4)
O2 O 1.3487(4) 0.5587(7) 0.2970(2)
C17 C 0.6679(7) 0.4311(11) 0.4994(4)
C18 C 1.4867(6) 0.2819(12) 0.1050(4)
C19 C 1.5890(6) -0.0603(12) 0.1852(4)
O3 O 0.8230(4) 0.1009(14) 0.0466(2)
loop_
_geom_bond_atom_site_label_1
_geom_bond_atom_site_label_2
_geom_bond_site_symmetry_1
_geom_bond_site_symmetry_2
C1 C4 1_555 1_555
C2 C5 1_555 1_555
O1 C8 1_555 1_555
C3 C4 1_555 1_555
C5 C6 1_555 1_555
C6 C3 1_555 1_555
N1 C1 1_555 1_555
C7 C6 1_555 1_555
C8 C2 1_555 1_555
C9 C8 1_555 1_555
C10 C2 1_555 1_555
C11 C1 1_555 1_555
C12 O1 1_555 1_555
C13 C9 1_555 1_555
C14 C5 1_555 1_555
C15 C10 1_555 1_555
C16 N1 1_555 1_555
O2 C10 1_555 1_555
C17 N1 1_555 1_555
C18 C13 1_555 1_555
C19 C13 1_555 1_555
O3 C12 1_555 1_555
C7 C11 1_555 1_555
C12 C14 1_555 1_555
C13 C15 1_555 1_555

#END
