
#######################################################################
#
#                 Cambridge Crystallographic Data Centre
#                                CCDC 
#
#######################################################################
#
# If this CIF has been generated from an entry in the Cambridge 
# Structural Database, then it will include bibliographic, chemical, 
# crystal, experimental, refinement or atomic coordinate data resulting 
# from the CCDC's data processing and validation procedures.
#
#######################################################################

data_MOPWAR
_chemical_formula_moiety         'C8 H17 O1 P1 S1'
_chemical_name_systematic        
'(3R,5R)-3-(t-Butyl)-5-methyl-1,3-oxaphospholane 3-sulfide'
_symmetry_cell_setting           monoclinic
_symmetry_space_group_name_H-M   'P 21'
_symmetry_Int_Tables_number      4
_space_group_name_Hall           'P 2yb'
loop_
_symmetry_equiv_pos_site_id
_symmetry_equiv_pos_as_xyz
1 x,y,z
2 -x,1/2+y,-z
_cell_length_a                   5.9081(6)
_cell_length_b                   6.3401(7)
_cell_length_c                   13.7148(15)
_cell_angle_alpha                90
_cell_angle_beta                 96.014(2)
_cell_angle_gamma                90
_cell_volume                     510.901
_exptl_crystal_colour            colorless
_exptl_crystal_description       lath
_cell_formula_units_Z            2
loop_
_atom_site_label
_atom_site_type_symbol
_atom_site_fract_x
_atom_site_fract_y
_atom_site_fract_z
P1 P 0.70063(13) 0.86960(10) 0.25985(5)
S1 S 0.48976(14) 0.63523(11) 0.22834(6)
O1 O 0.9954(4) 0.9751(3) 0.40768(15)
C1 C 0.9542(5) 0.8014(5) 0.3436(2)
H1 H 0.9265 0.6721 0.3811
H2 H 1.0865 0.7768 0.3064
C2 C 0.7785(6) 1.0490(4) 0.4372(2)
H3 H 0.8024 1.1918 0.4675
C3 C 0.6117(6) 1.0709(4) 0.3434(2)
H4 H 0.6219 1.2134 0.3147
H5 H 0.4532 1.0460 0.3578
C4 C 0.6930(6) 0.9025(5) 0.5122(2)
H6 H 0.6466 0.7682 0.4808
H7 H 0.5624 0.9671 0.5392
H8 H 0.8147 0.8773 0.5652
C5 C 0.7971(5) 1.0036(5) 0.1519(2)
C6 C 0.9045(6) 0.8352(5) 0.0906(2)
H9 H 0.9622 0.9020 0.0337
H10 H 0.7894 0.7297 0.0682
H11 H 1.0303 0.7665 0.1308
C7 C 0.5912(6) 1.1029(5) 0.0923(2)
H12 H 0.6367 1.1575 0.0304
H13 H 0.5326 1.2187 0.1298
H14 H 0.4723 0.9960 0.0785
C8 C 0.9747(6) 1.1739(5) 0.1850(2)
H15 H 1.1047 1.1083 0.2239
H16 H 0.9058 1.2794 0.2250
H17 H 1.0267 1.2423 0.1273
P2? P 1.184(3) 0.870(6) 0.2617(13)
S2? S 0.974(4) 0.641(6) 0.2184(15)
O2? O 1.498(6) 0.987(9) 0.399(3)
C9? C 1.447(6) 0.803(8) 0.340(3)
H18? H 1.4230 0.6792 0.3814
H19? H 1.5724 0.7712 0.2994
C10? C 1.283(8) 1.033(8) 0.442(2)
H20? H 1.2975 1.1696 0.4782
C11? C 1.097(7) 1.051(8) 0.354(3)
H21? H 1.0862 1.1969 0.3291
H22? H 0.9467 1.0090 0.3743
C12? C 1.254(12) 0.854(12) 0.512(4)
H23? H 1.3782 0.8571 0.5656
H24? H 1.2560 0.7190 0.4776
H25? H 1.1080 0.8697 0.5398
C13? C 1.275(7) 1.013(7) 0.154(2)
C14? C 1.375(12) 0.840(10) 0.092(4)
H26? H 1.5072 0.7762 0.1299
H27? H 1.4218 0.9033 0.0321
H28? H 1.2594 0.7319 0.0748
C15? C 1.070(9) 1.120(11) 0.098(4)
H29? H 1.0072 1.2250 0.1407
H30? H 0.9529 1.0143 0.0783
H31? H 1.1166 1.1902 0.0400
C16? C 1.456(10) 1.180(10) 0.187(4)
H32? H 1.5880 1.1121 0.2224
H33? H 1.3917 1.2838 0.2291
H34? H 1.5028 1.2521 0.1286
loop_
_geom_bond_atom_site_label_1
_geom_bond_atom_site_label_2
_geom_bond_site_symmetry_1
_geom_bond_site_symmetry_2
P1 S1 1_555 1_555
O1 C1 1_555 1_555
C1 P1 1_555 1_555
H1 C1 1_555 1_555
H2 C1 1_555 1_555
C2 O1 1_555 1_555
H3 C2 1_555 1_555
C3 P1 1_555 1_555
H4 C3 1_555 1_555
H5 C3 1_555 1_555
C4 C2 1_555 1_555
H6 C4 1_555 1_555
H7 C4 1_555 1_555
H8 C4 1_555 1_555
C5 P1 1_555 1_555
C6 C5 1_555 1_555
H9 C6 1_555 1_555
H10 C6 1_555 1_555
H11 C6 1_555 1_555
C7 C5 1_555 1_555
H12 C7 1_555 1_555
H13 C7 1_555 1_555
H14 C7 1_555 1_555
C8 C5 1_555 1_555
H15 C8 1_555 1_555
H16 C8 1_555 1_555
H17 C8 1_555 1_555
C2 C3 1_555 1_555

#END
