
#######################################################################
#
#                 Cambridge Crystallographic Data Centre
#                                CCDC 
#
#######################################################################
#
# If this CIF has been generated from an entry in the Cambridge 
# Structural Database, then it will include bibliographic, chemical, 
# crystal, experimental, refinement or atomic coordinate data resulting 
# from the CCDC's data processing and validation procedures.
#
#######################################################################

data_MOPZIA
_chemical_formula_moiety         'C23 H19 N3 O3'
_chemical_name_systematic        
5-Amino-4,6-dicyano-3',4',5'-trimethoxy-1,3-terphenyl
_symmetry_cell_setting           triclinic
_symmetry_space_group_name_H-M   'P -1'
_symmetry_Int_Tables_number      2
_space_group_name_Hall           '-P 1'
loop_
_symmetry_equiv_pos_site_id
_symmetry_equiv_pos_as_xyz
1 x,y,z
2 -x,-y,-z
_cell_length_a                   10.3555(2)
_cell_length_b                   10.7103(2)
_cell_length_c                   11.010
_cell_angle_alpha                64.1020(10)
_cell_angle_beta                 65.8610(10)
_cell_angle_gamma                89.5660(10)
_cell_volume                     980.434
_exptl_crystal_colour            'pale yellow'
_exptl_crystal_description       rectangular
_chemical_melting_point          200-202deg.C
_cell_formula_units_Z            2
loop_
_atom_site_label
_atom_site_type_symbol
_atom_site_fract_x
_atom_site_fract_y
_atom_site_fract_z
O1 O 0.18629(12) 0.88016(12) 0.87645(11)
O2 O 0.23477(14) 0.69785(11) 0.76376(12)
O3 O 0.23369(15) 1.15694(12) 0.70016(12)
C1 C 0.3946(2) 1.0964(2) 0.2471(2)
C2 C 0.3312(2) 1.04482(15) 0.1827(2)
C3 C 0.3817(2) 1.1094(2) 0.0241(2)
C4 C 0.3129(2) 0.8897(2) 0.5069(2)
H1 H 0.3303(2) 0.8280(2) 0.4660(2)
C5 C 0.3381(2) 1.0350(2) 0.4139(2)
C6 C 0.5642(2) 1.2790(2) -0.0038(2)
C7 C 0.5105(2) 1.2116(2) 0.1526(2)
H2 H 0.5535(2) 1.2448(2) 0.1952(2)
C8 C 0.3130(2) 1.1276(2) 0.4745(2)
H3 H 0.3312(2) 1.2248(2) 0.4115(2)
C9 C 0.4984(2) 1.2287(2) -0.0672(2)
C10 C 0.2615(2) 0.8378(2) 0.6619(2)
C11 C 0.2607(2) 1.0749(2) 0.6295(2)
C12 C 0.6858(2) 1.4046(2) -0.0979(2)
C13 C 0.2332(2) 0.9301(2) 0.7239(2)
N1 N 0.3165(2) 1.0634(2) -0.0374(2)
H4 H 0.2430(2) 0.9936(2) 0.0200(2)
H5 H 0.3486(2) 1.1038(2) -0.1340(2)
C14 C 0.2055(2) 0.9328(2) 0.2725(2)
C15 C 0.6871(2) 1.5049(2) -0.0504(2)
H6 H 0.6127(2) 1.4919(2) 0.0406(2)
C16 C 0.5378(2) 1.3000(2) -0.2256(2)
C17 C 0.7975(2) 1.6238(2) -0.1365(2)
H7 H 0.7966(2) 1.6904(2) -0.1034(2)
C18 C 0.2682(2) 0.5990(2) 0.7079(2)
H8 H 0.2436(15) 0.5052(3) 0.7910(3)
H9 H 0.3698(4) 0.6221(10) 0.6409(14)
H10 H 0.2139(12) 0.6027(11) 0.6541(14)
C19 C 0.2439(3) 1.3038(2) 0.6116(2)
H11 H 0.2178(16) 1.3485(4) 0.6748(4)
H12 H 0.1795(12) 1.3157(2) 0.5665(13)
H13 H 0.3414(4) 1.3467(4) 0.5334(11)
N2 N 0.5617(2) 1.3521(2) -0.3498(2)
N3 N 0.1059(2) 0.8448(2) 0.3339(2)
C20 C 0.8001(2) 1.4256(2) -0.2335(2)
H14 H 0.8025(2) 1.3591(2) -0.2670(2)
C21 C 0.9098(2) 1.5450(2) -0.3181(2)
H15 H 0.9854(2) 1.5582(2) -0.4085(2)
C22 C 0.9087(2) 1.6443(2) -0.2710(2)
H16 H 0.9825(2) 1.7247(2) -0.3293(2)
C23 C 0.0393(2) 0.8138(3) 0.9684(2)
H17 H 0.0133(6) 0.7936(20) 1.0704(5)
H18 H 0.0228(5) 0.7269(11) 0.9662(18)
H19 H -0.0186(3) 0.8756(9) 0.9313(14)
loop_
_geom_bond_atom_site_label_1
_geom_bond_atom_site_label_2
_geom_bond_site_symmetry_1
_geom_bond_site_symmetry_2
O1 C13 1_555 1_555
O2 C10 1_555 1_555
O3 C11 1_555 1_555
C1 C2 1_555 1_555
C2 C3 1_555 1_555
C3 C9 1_555 1_555
C4 H1 1_555 1_555
C5 C1 1_555 1_555
C6 C7 1_555 1_555
C7 C1 1_555 1_555
H2 C7 1_555 1_555
C8 C5 1_555 1_555
H3 C8 1_555 1_555
C9 C6 1_555 1_555
C10 C4 1_555 1_555
C11 C8 1_555 1_555
C12 C6 1_555 1_555
C13 C10 1_555 1_555
N1 C3 1_555 1_555
H4 N1 1_555 1_555
H5 N1 1_555 1_555
C14 C2 1_555 1_555
C15 C12 1_555 1_555
H6 C15 1_555 1_555
C16 C9 1_555 1_555
C17 C15 1_555 1_555
H7 C17 1_555 1_555
C18 O2 1_555 1_555
H8 C18 1_555 1_555
H9 C18 1_555 1_555
H10 C18 1_555 1_555
C19 O3 1_555 1_555
H11 C19 1_555 1_555
H12 C19 1_555 1_555
H13 C19 1_555 1_555
N2 C16 1_555 1_555
N3 C14 1_555 1_555
C20 C12 1_555 1_555
H14 C20 1_555 1_555
C21 C20 1_555 1_555
H15 C21 1_555 1_555
C22 C17 1_555 1_555
H16 C22 1_555 1_555
C23 O1 1_555 1_555
H17 C23 1_555 1_555
H18 C23 1_555 1_555
H19 C23 1_555 1_555
C4 C5 1_555 1_555
C11 C13 1_555 1_555
C21 C22 1_555 1_555

#END
