
#######################################################################
#
#                 Cambridge Crystallographic Data Centre
#                                CCDC 
#
#######################################################################
#
# If this CIF has been generated from an entry in the Cambridge 
# Structural Database, then it will include bibliographic, chemical, 
# crystal, experimental, refinement or atomic coordinate data resulting 
# from the CCDC's data processing and validation procedures.
#
#######################################################################

data_MOQBOJ
_chemical_formula_moiety         'C17 H18 N4 O2'
_chemical_name_systematic        
'Ethyl 2-ethyl-5-(1-naphthylamino)-1,2,3-triazole-4-carboxylate'
_chemical_properties_biological  'potential biological activity'
_symmetry_cell_setting           triclinic
_symmetry_space_group_name_H-M   'P -1'
_symmetry_Int_Tables_number      2
_space_group_name_Hall           '-P 1'
loop_
_symmetry_equiv_pos_site_id
_symmetry_equiv_pos_as_xyz
1 x,y,z
2 -x,-y,-z
_cell_length_a                   8.043(3)
_cell_length_b                   9.410(3)
_cell_length_c                   11.300(17)
_cell_angle_alpha                110.08(3)
_cell_angle_beta                 97.77(8)
_cell_angle_gamma                96.34(2)
_cell_volume                     784.49
_exptl_crystal_colour            colorless
_exptl_crystal_description       prismatic
_chemical_melting_point          115-116deg.C
_cell_formula_units_Z            2
_exptl_crystal_recrystallization_method 'ethyl acetate/petroleum ether'
loop_
_atom_site_label
_atom_site_type_symbol
_atom_site_fract_x
_atom_site_fract_y
_atom_site_fract_z
O1 O 0.3286(3) 0.4823(2) 0.2579(2)
O2 O 0.3743(3) 0.6865(2) 0.4424(2)
N1 N 0.1692(3) 0.6480(2) 0.1285(2)
N2 N 0.1055(3) 0.7605(2) 0.1072(2)
N3 N 0.1194(3) 0.8916(2) 0.2096(2)
N4 N 0.2468(3) 0.9525(2) 0.4313(2)
C1 C 0.2003(4) 0.8571(3) 0.3047(2)
C2 C 0.2324(3) 0.7065(3) 0.2552(2)
C3 C 0.3183(4) 0.6257(3) 0.3277(3)
C4 C 0.4189(4) 0.4003(3) 0.3265(3)
C5 C 0.4196(5) 0.2445(4) 0.2334(3)
C6 C 0.1991(4) 1.0926(3) 0.4942(2)
C7 C 0.1010(4) 1.1649(3) 0.4326(3)
C8 C 0.0591(5) 1.3068(3) 0.5006(3)
C9 C 0.1153(4) 1.3769(3) 0.6292(3)
C10 C 0.2138(4) 1.3060(3) 0.6972(3)
C11 C 0.2717(4) 1.3743(3) 0.8317(3)
C12 C 0.3638(4) 1.3040(4) 0.8971(3)
C13 C 0.4038(4) 1.1610(4) 0.8325(3)
C14 C 0.3518(4) 1.0912(3) 0.7023(3)
C15 C 0.2565(3) 1.1605(3) 0.6302(2)
C16 C 0.0228(4) 0.7489(3) -0.0197(3)
C17 C 0.1387(6) 0.8208(5) -0.0825(3)
loop_
_geom_bond_atom_site_label_1
_geom_bond_atom_site_label_2
_geom_bond_site_symmetry_1
_geom_bond_site_symmetry_2
O1 C3 1_555 1_555
O2 C3 1_555 1_555
N1 N2 1_555 1_555
N2 N3 1_555 1_555
N3 C1 1_555 1_555
N4 C1 1_555 1_555
C1 C2 1_555 1_555
C2 N1 1_555 1_555
C3 C2 1_555 1_555
C4 O1 1_555 1_555
C5 C4 1_555 1_555
C6 N4 1_555 1_555
C7 C6 1_555 1_555
C8 C7 1_555 1_555
C9 C8 1_555 1_555
C10 C9 1_555 1_555
C11 C10 1_555 1_555
C12 C11 1_555 1_555
C13 C12 1_555 1_555
C14 C13 1_555 1_555
C15 C6 1_555 1_555
C16 N2 1_555 1_555
C17 C16 1_555 1_555
C10 C15 1_555 1_555
C14 C15 1_555 1_555

#END
