
#######################################################################
#
#                 Cambridge Crystallographic Data Centre
#                                CCDC 
#
#######################################################################
#
# If this CIF has been generated from an entry in the Cambridge 
# Structural Database, then it will include bibliographic, chemical, 
# crystal, experimental, refinement or atomic coordinate data resulting 
# from the CCDC's data processing and validation procedures.
#
#######################################################################

data_MOQNEM
_chemical_formula_moiety         'C26 H22 O3'
_chemical_name_systematic        
'(R,S)/(S,R)-Phenyl(10-phenyl-12-oxatricyclo[6.3.1.0^2,7^]dodeca-2,4,6,10-tetraen-1-yl)methyl acetate'
_symmetry_cell_setting           monoclinic
_symmetry_space_group_name_H-M   'P 21/c'
_symmetry_Int_Tables_number      14
_space_group_name_Hall           '-P 2ybc'
loop_
_symmetry_equiv_pos_site_id
_symmetry_equiv_pos_as_xyz
1 x,y,z
2 -x,1/2+y,1/2-z
3 -x,-y,-z
4 x,1/2-y,1/2+z
_cell_length_a                   10.686(3)
_cell_length_b                   21.425(6)
_cell_length_c                   9.005(3)
_cell_angle_alpha                90
_cell_angle_beta                 101.697(4)
_cell_angle_gamma                90
_cell_volume                     2018.86
_exptl_crystal_colour            colorless
_exptl_crystal_description       block
_chemical_melting_point          '166-167 deg.C'
_cell_formula_units_Z            4
loop_
_atom_site_label
_atom_site_type_symbol
_atom_site_fract_x
_atom_site_fract_y
_atom_site_fract_z
O1 O 0.42930(10) 0.45092(5) 0.12907(13)
O2 O 0.23974(10) 0.37291(5) -0.03169(12)
C1 C 0.41438(14) 0.38820(7) 0.17874(18)
C2 C 0.61423(14) 0.36848(7) 0.08651(18)
C3 C 0.18102(13) 0.40683(7) 0.19722(17)
C4 C 0.27527(14) 0.36831(7) 0.13292(17)
H1 H 0.2679 0.3247 0.1624
O3 O 0.24194(14) 0.26928(6) -0.06091(17)
C5 C 0.50321(14) 0.34687(7) 0.11120(17)
H2 H 0.4800 0.3057 0.0865
C6 C 0.70532(15) 0.32951(8) 0.02348(18)
C7 C 0.14908(15) 0.46671(8) 0.1467(2)
H3 H 0.1875 0.4842 0.0726
C8 C 0.46980(14) 0.39276(7) 0.34734(19)
C9 C 0.22564(16) 0.32054(9) -0.1141(2)
C10 C 0.12214(16) 0.38150(8) 0.3061(2)
H4 H 0.1420 0.3411 0.3408
C11 C 0.55650(15) 0.46692(8) 0.2086(2)
H5 H 0.5691 0.5122 0.2132
C12 C 0.65082(15) 0.43524(8) 0.1266(2)
H6 H 0.6541 0.4582 0.0347
H7 H 0.7354 0.4362 0.1909
C13 C 0.06064(17) 0.50087(9) 0.2050(2)
H8 H 0.0406 0.5414 0.1711
C14 C 0.45304(16) 0.35820(8) 0.4701(2)
H9 H 0.3927 0.3264 0.4596
C15 C 0.56051(15) 0.44006(7) 0.3631(2)
C16 C 0.00251(17) 0.47525(10) 0.3125(2)
H10 H -0.0581 0.4980 0.3506
C17 C 0.63628(17) 0.45314(9) 0.5024(2)
H11 H 0.6977 0.4844 0.5132
C18 C 0.03351(18) 0.41612(10) 0.3640(2)
H12 H -0.0051 0.3990 0.4383
C19 C 0.82241(18) 0.35224(10) 0.0095(3)
H13 H 0.8449 0.3929 0.0397
C20 C 0.6772(2) 0.26925(10) -0.0259(3)
H14 H 0.5979 0.2526 -0.0199
C21 C 0.7615(2) 0.23297(11) -0.0833(3)
H15 H 0.7397 0.1923 -0.1139
C22 C 0.6185(2) 0.41858(11) 0.6255(3)
H16 H 0.6685 0.4270 0.7205
C23 C 0.5290(2) 0.37218(10) 0.6108(2)
H17 H 0.5187 0.3497 0.6958
C24 C 0.8772(2) 0.25631(12) -0.0957(3)
H18 H 0.9347 0.2321 -0.1355
C25 C 0.1867(2) 0.33484(12) -0.2779(2)
H19 H 0.1961 0.2982 -0.3359
H20 H 0.2398 0.3676 -0.3039
H21 H 0.0991 0.3481 -0.3001
C26 C 0.9073(2) 0.31575(12) -0.0487(4)
H22 H 0.9865 0.3321 -0.0559
loop_
_geom_bond_atom_site_label_1
_geom_bond_atom_site_label_2
_geom_bond_site_symmetry_1
_geom_bond_site_symmetry_2
O1 C1 1_555 1_555
O2 C4 1_555 1_555
C1 C4 1_555 1_555
C2 C5 1_555 1_555
C3 C4 1_555 1_555
C4 H1 1_555 1_555
O3 C9 1_555 1_555
C5 C1 1_555 1_555
H2 C5 1_555 1_555
C6 C2 1_555 1_555
C7 C3 1_555 1_555
H3 C7 1_555 1_555
C8 C1 1_555 1_555
C9 O2 1_555 1_555
C10 C3 1_555 1_555
H4 C10 1_555 1_555
C11 O1 1_555 1_555
H5 C11 1_555 1_555
C12 C2 1_555 1_555
H6 C12 1_555 1_555
H7 C12 1_555 1_555
C13 C7 1_555 1_555
H8 C13 1_555 1_555
C14 C8 1_555 1_555
H9 C14 1_555 1_555
C15 C8 1_555 1_555
C16 C13 1_555 1_555
H10 C16 1_555 1_555
C17 C15 1_555 1_555
H11 C17 1_555 1_555
C18 C10 1_555 1_555
H12 C18 1_555 1_555
C19 C6 1_555 1_555
H13 C19 1_555 1_555
C20 C6 1_555 1_555
H14 C20 1_555 1_555
C21 C20 1_555 1_555
H15 C21 1_555 1_555
C22 C17 1_555 1_555
H16 C22 1_555 1_555
C23 C14 1_555 1_555
H17 C23 1_555 1_555
C24 C21 1_555 1_555
H18 C24 1_555 1_555
C25 C9 1_555 1_555
H19 C25 1_555 1_555
H20 C25 1_555 1_555
H21 C25 1_555 1_555
C26 C19 1_555 1_555
H22 C26 1_555 1_555
C11 C12 1_555 1_555
C11 C15 1_555 1_555
C16 C18 1_555 1_555
C22 C23 1_555 1_555
C24 C26 1_555 1_555

#END
