
#######################################################################
#
#                 Cambridge Crystallographic Data Centre
#                                CCDC 
#
#######################################################################
#
# If this CIF has been generated from an entry in the Cambridge 
# Structural Database, then it will include bibliographic, chemical, 
# crystal, experimental, refinement or atomic coordinate data resulting 
# from the CCDC's data processing and validation procedures.
#
#######################################################################

data_MORCUT
_chemical_formula_moiety         'C15 H11 N5 O2'
_chemical_name_systematic        
2-(2-(4-nitrobenzylidene)hydrazino)quinoxaline
_symmetry_cell_setting           monoclinic
_symmetry_space_group_name_H-M   'P 21/c'
_symmetry_Int_Tables_number      14
_space_group_name_Hall           '-P 2ybc'
loop_
_symmetry_equiv_pos_site_id
_symmetry_equiv_pos_as_xyz
1 x,y,z
2 -x,1/2+y,1/2-z
3 -x,-y,-z
4 x,1/2-y,1/2+z
_cell_length_a                   6.458(4)
_cell_length_b                   32.059(18)
_cell_length_c                   6.944(4)
_cell_angle_alpha                90
_cell_angle_beta                 115.997(7)
_cell_angle_gamma                90
_cell_volume                     1292.2
_exptl_crystal_colour            yellow
_exptl_crystal_description       plate
_cell_formula_units_Z            4
loop_
_atom_site_label
_atom_site_type_symbol
_atom_site_fract_x
_atom_site_fract_y
_atom_site_fract_z
O1 O 0.5843(3) 0.73812(4) 0.2170(2)
O2 O 0.2601(3) 0.74887(4) 0.2305(3)
N1 N -0.0643(2) 1.03752(4) 0.2843(2)
N2 N 0.3145(2) 1.06893(4) 0.2275(2)
N3 N 0.4432(2) 1.00262(4) 0.2259(2)
H1 H 0.580(4) 1.0119(7) 0.238(3)
N4 N 0.4126(2) 0.96088(4) 0.2329(2)
N5 N 0.4369(3) 0.76135(4) 0.2243(2)
C1 C 0.1601(3) 1.09537(5) 0.2496(2)
C2 C 0.1909(3) 1.13889(5) 0.2458(2)
H2 H 0.3172 1.1497 0.2262
C3 C 0.4716(3) 0.80644(5) 0.2255(3)
C4 C 0.5324(3) 0.89139(5) 0.2244(2)
C5 C 0.6535(3) 0.82160(5) 0.1908(3)
H3 H 0.7551 0.8031 0.1674
C6 C 0.6833(3) 0.86452(5) 0.1911(3)
H4 H 0.8073 0.8756 0.1685
C7 C 0.0377(3) 1.16553(5) 0.2707(2)
H5 H 0.0589 1.1948 0.2682
C8 C -0.0303(3) 1.07983(5) 0.2790(2)
C9 C 0.3195(3) 0.83233(5) 0.2604(3)
H6 H 0.1965 0.8210 0.2840
C10 C 0.3510(3) 0.87500(5) 0.2601(3)
H7 H 0.2491 0.8933 0.2843
C11 C 0.2821(3) 1.02901(5) 0.2403(2)
C12 C -0.1842(3) 1.10785(5) 0.3043(3)
H8 H -0.3113 1.0976 0.3246
C13 C 0.5631(3) 0.93659(5) 0.2193(3)
H9 H 0.691(4) 0.9476(8) 0.205(4)
C14 C -0.1506(3) 1.14990(5) 0.2997(3)
H10 H -0.2551 1.1687 0.3163
C15 C 0.0876(3) 1.01282(5) 0.2668(3)
H11 H 0.0695 0.9835 0.2715
loop_
_geom_bond_atom_site_label_1
_geom_bond_atom_site_label_2
_geom_bond_site_symmetry_1
_geom_bond_site_symmetry_2
O1 N5 1_555 1_555
O2 N5 1_555 1_555
N1 C8 1_555 1_555
N2 C1 1_555 1_555
N3 H1 1_555 1_555
N4 N3 1_555 1_555
N5 C3 1_555 1_555
C1 C2 1_555 1_555
C2 H2 1_555 1_555
C3 C5 1_555 1_555
C4 C6 1_555 1_555
C5 H3 1_555 1_555
C6 C5 1_555 1_555
H4 C6 1_555 1_555
C7 C2 1_555 1_555
H5 C7 1_555 1_555
C8 C1 1_555 1_555
C9 C3 1_555 1_555
H6 C9 1_555 1_555
C10 C4 1_555 1_555
H7 C10 1_555 1_555
C11 N2 1_555 1_555
C12 C8 1_555 1_555
H8 C12 1_555 1_555
C13 N4 1_555 1_555
H9 C13 1_555 1_555
C14 C7 1_555 1_555
H10 C14 1_555 1_555
C15 N1 1_555 1_555
H11 C15 1_555 1_555
N3 C11 1_555 1_555
C4 C13 1_555 1_555
C9 C10 1_555 1_555
C11 C15 1_555 1_555
C12 C14 1_555 1_555

#END
