
#######################################################################
#
#                 Cambridge Crystallographic Data Centre
#                                CCDC 
#
#######################################################################
#
# If this CIF has been generated from an entry in the Cambridge 
# Structural Database, then it will include bibliographic, chemical, 
# crystal, experimental, refinement or atomic coordinate data resulting 
# from the CCDC's data processing and validation procedures.
#
#######################################################################

data_MORIPA01
_chemical_formula_moiety         'C8 H5 I1,C4 H9 N1 O1'
_chemical_name_systematic        'Morpholine \b-iodophenylacetylene'
_symmetry_cell_setting           monoclinic
_symmetry_space_group_name_H-M   'P 21/c'
_symmetry_Int_Tables_number      14
_space_group_name_Hall           '-P 2ybc'
loop_
_symmetry_equiv_pos_site_id
_symmetry_equiv_pos_as_xyz
1 x,y,z
2 x,1/2-y,1/2+z
3 -x,-y,-z
4 -x,1/2+y,1/2-z
_cell_length_a                   8.867(1)
_cell_length_b                   4.8579(2)
_cell_length_c                   29.390(2)
_cell_angle_alpha                90
_cell_angle_beta                 96.05(1)
_cell_angle_gamma                90
_cell_volume                     1258.92
_exptl_crystal_colour            colorless
_exptl_crystal_description       plate
_chemical_melting_point          343-353K
_cell_formula_units_Z            4
loop_
_atom_site_label
_atom_site_type_symbol
_atom_site_fract_x
_atom_site_fract_y
_atom_site_fract_z
I1 I 0.241246(19) 0.58943(4) 0.468957(6)
C5 C 0.2439(3) 0.2693(8) 0.31857(10)
C6 C 0.3382(6) 0.3976(11) 0.29077(15)
H10 H 0.4017 0.5440 0.3026
C7 C 0.3414(7) 0.3153(11) 0.24561(15)
H11 H 0.4089 0.4033 0.2272
C8 C 0.2492(5) 0.1101(11) 0.22743(12)
H12 H 0.2477 0.0627 0.1960
C9 C 0.1587(6) -0.0271(12) 0.25492(15)
H13 H 0.0977 -0.1764 0.2429
C10 C 0.1559(5) 0.0513(11) 0.30045(13)
H14 H 0.0931 -0.0454 0.3193
C11 C 0.2375(3) 0.3592(7) 0.36494(10)
C12 C 0.2338(3) 0.4460(7) 0.40305(10)
O1 O 0.2882(2) 1.2521(4) 0.61565(7)
C1 C 0.4176(3) 1.0834(8) 0.61074(10)
H1 H 0.4271 0.9413 0.6350
H2 H 0.5105 1.1980 0.6142
C2 C 0.4027(3) 0.9453(7) 0.56413(10)
H3 H 0.4034 1.0878 0.5401
H4 H 0.4912 0.8235 0.5619
N1 N 0.2625(3) 0.7821(5) 0.55599(8)
H5 H 0.2686 0.6334 0.5760
C3 C 0.1310(3) 0.9520(7) 0.56448(10)
H6 H 0.0394 0.8344 0.5628
H7 H 0.1145 1.0939 0.5403
C4 C 0.1524(3) 1.0917(7) 0.61086(10)
H8 H 0.0643 1.2122 0.6144
H9 H 0.1574 0.9506 0.6353
loop_
_geom_bond_atom_site_label_1
_geom_bond_atom_site_label_2
_geom_bond_site_symmetry_1
_geom_bond_site_symmetry_2
I1 C12 1_555 1_555
O1 C1 1_555 1_555
C1 H1 1_555 1_555
H2 C1 1_555 1_555
C2 C1 1_555 1_555
H3 C2 1_555 1_555
H4 C2 1_555 1_555
N1 C2 1_555 1_555
H5 N1 1_555 1_555
C3 N1 1_555 1_555
H6 C3 1_555 1_555
H7 C3 1_555 1_555
C4 O1 1_555 1_555
H8 C4 1_555 1_555
H9 C4 1_555 1_555
C5 C6 1_555 1_555
C6 H10 1_555 1_555
C7 C6 1_555 1_555
H11 C7 1_555 1_555
C8 C7 1_555 1_555
H12 C8 1_555 1_555
C9 C8 1_555 1_555
H13 C9 1_555 1_555
C10 C5 1_555 1_555
H14 C10 1_555 1_555
C11 C5 1_555 1_555
C12 C11 1_555 1_555
C3 C4 1_555 1_555
C9 C10 1_555 1_555

#END
