
#######################################################################
#
#                 Cambridge Crystallographic Data Centre
#                                CCDC 
#
#######################################################################
#
# If this CIF has been generated from an entry in the Cambridge 
# Structural Database, then it will include bibliographic, chemical, 
# crystal, experimental, refinement or atomic coordinate data resulting 
# from the CCDC's data processing and validation procedures.
#
#######################################################################

data_MORPOZ
_chemical_formula_moiety         'C19 H13 N1 O1'
_chemical_name_systematic        Phenyl(pyrido[2,1-a]isoindol-6-yl)methanone
_symmetry_cell_setting           orthorhombic
_symmetry_space_group_name_H-M   'P 21 21 21'
_symmetry_Int_Tables_number      19
_space_group_name_Hall           'P 2ac 2ab'
loop_
_symmetry_equiv_pos_site_id
_symmetry_equiv_pos_as_xyz
1 x,y,z
2 1/2+x,1/2-y,-z
3 -x,1/2+y,1/2-z
4 1/2-x,-y,1/2+z
_cell_length_a                   4.9153(6)
_cell_length_b                   15.096(2)
_cell_length_c                   18.512(2)
_cell_angle_alpha                90
_cell_angle_beta                 90
_cell_angle_gamma                90
_cell_volume                     1373.62
_exptl_crystal_colour            yellow
_exptl_crystal_description       chunk
_cell_formula_units_Z            4
loop_
_atom_site_label
_atom_site_type_symbol
_atom_site_fract_x
_atom_site_fract_y
_atom_site_fract_z
O1 O 0.7308(6) 0.54426(17) 0.71706(12)
N1 N 0.9207(7) 0.5452(2) 0.57172(17)
C1 C 0.7337(8) 0.4841(2) 0.59924(19)
C2 C 0.6130(8) 0.4402(2) 0.5378(2)
C3 C 0.4046(8) 0.3772(2) 0.5308(2)
C4 C 0.3353(8) 0.3491(2) 0.4627(2)
C5 C 0.4613(11) 0.3825(3) 0.4017(2)
C6 C 0.6594(10) 0.4463(3) 0.4060(2)
C7 C 0.7333(9) 0.4756(2) 0.4752(2)
C8 C 0.9224(9) 0.5401(2) 0.4967(2)
C9 C 1.0951(10) 0.5958(3) 0.4590(2)
C10 C 1.2647(10) 0.6530(2) 0.4942(2)
C11 C 1.2638(9) 0.6545(2) 0.5698(2)
C12 C 1.0963(10) 0.6015(2) 0.6071(2)
C13 C 0.6650(9) 0.4833(2) 0.6746(2)
C14 C 0.5043(9) 0.4074(2) 0.7055(2)
C15 C 0.5787(9) 0.3209(2) 0.69030(18)
C16 C 0.4420(10) 0.2514(2) 0.7239(2)
C17 C 0.2303(11) 0.2686(3) 0.7701(2)
C18 C 0.1570(10) 0.3546(3) 0.7842(2)
C19 C 0.2920(9) 0.4254(3) 0.7534(2)
H1 H 0.3157 0.3550 0.5712
H2 H 0.2000 0.3065 0.4574
H3 H 0.4106 0.3610 0.3566
H4 H 0.7412 0.4693 0.3648
H5 H 1.0958 0.5942 0.4087
H6 H 1.3790 0.6904 0.4683
H7 H 1.3805 0.6925 0.5943
H8 H 1.0985 0.6028 0.6573
H9 H 0.7188 0.3093 0.6579
H10 H 0.4945 0.1932 0.7151
H11 H 0.1366 0.2221 0.7917
H12 H 0.0123 0.3655 0.8154
H13 H 0.2430 0.4834 0.7643
loop_
_geom_bond_atom_site_label_1
_geom_bond_atom_site_label_2
_geom_bond_site_symmetry_1
_geom_bond_site_symmetry_2
O1 C13 1_555 1_555
N1 C1 1_555 1_555
C1 C2 1_555 1_555
C2 C3 1_555 1_555
C3 C4 1_555 1_555
C4 C5 1_555 1_555
C5 C6 1_555 1_555
C6 C7 1_555 1_555
C7 C2 1_555 1_555
C8 N1 1_555 1_555
C9 C8 1_555 1_555
C10 C9 1_555 1_555
C11 C10 1_555 1_555
C12 N1 1_555 1_555
C13 C1 1_555 1_555
C14 C13 1_555 1_555
C15 C14 1_555 1_555
C16 C15 1_555 1_555
C17 C16 1_555 1_555
C18 C17 1_555 1_555
C19 C14 1_555 1_555
H1 C3 1_555 1_555
H2 C4 1_555 1_555
H3 C5 1_555 1_555
H4 C6 1_555 1_555
H5 C9 1_555 1_555
H6 C10 1_555 1_555
H7 C11 1_555 1_555
H8 C12 1_555 1_555
H9 C15 1_555 1_555
H10 C16 1_555 1_555
H11 C17 1_555 1_555
H12 C18 1_555 1_555
H13 C19 1_555 1_555
C7 C8 1_555 1_555
C11 C12 1_555 1_555
C18 C19 1_555 1_555

#END
