
#######################################################################
#
#                 Cambridge Crystallographic Data Centre
#                                CCDC 
#
#######################################################################
#
# If this CIF has been generated from an entry in the Cambridge 
# Structural Database, then it will include bibliographic, chemical, 
# crystal, experimental, refinement or atomic coordinate data resulting 
# from the CCDC's data processing and validation procedures.
#
#######################################################################

data_MORPUE
_chemical_formula_moiety         'C14 H25 N1 O3'
_chemical_name_systematic        
cis-N,N-Di-isopropyl-2-methoxycarbonyl-1-methyl-cyclobutanecarboxamide
_symmetry_cell_setting           monoclinic
_symmetry_space_group_name_H-M   'P 21/c'
_symmetry_Int_Tables_number      14
_space_group_name_Hall           '-P 2ybc'
loop_
_symmetry_equiv_pos_site_id
_symmetry_equiv_pos_as_xyz
1 x,y,z
2 x,1/2-y,1/2+z
3 -x,-y,-z
4 -x,1/2+y,1/2-z
_cell_length_a                   16.534(4)
_cell_length_b                   6.3109(13)
_cell_length_c                   15.230(3)
_cell_angle_alpha                90.00
_cell_angle_beta                 115.684(4)
_cell_angle_gamma                90.00
_cell_volume                     1432.15
_exptl_crystal_description       brick-shape
_chemical_melting_point          '84.0-85.0 deg.C'
_cell_formula_units_Z            4
_exptl_crystal_recrystallization_method cyclohexane
loop_
_atom_site_label
_atom_site_type_symbol
_atom_site_fract_x
_atom_site_fract_y
_atom_site_fract_z
C1 C 0.34575(15) 0.6808(3) 1.02536(16)
C2 C 0.39772(16) 0.8480(4) 0.99417(17)
H1 H 0.4133 0.7989 0.9417
H2 H 0.3686 0.9889 0.9788
C3 C 0.47574(16) 0.8326(4) 1.09697(17)
H3 H 0.4979 0.9720 1.1278
H4 H 0.5260 0.7425 1.1001
C4 C 0.41282(15) 0.7205(4) 1.13403(17)
H5 H 0.4392 0.5857 1.1694
C5 C 0.38219(15) 0.8645(4) 1.19209(18)
C6 C 0.31052(17) 1.1898(4) 1.18997(18)
H6 H 0.2703 1.1137 1.2109
H7 H 0.2771 1.3022 1.1442
H8 H 0.3599 1.2525 1.2468
C7 C 0.35895(17) 0.4561(4) 0.99474(18)
H9 H 0.3308 0.3530 1.0210
H10 H 0.4233 0.4256 1.0202
H11 H 0.3312 0.4464 0.9235
C8 C 0.24802(15) 0.7156(3) 1.00608(16)
C9 C 0.20360(16) 0.7863(4) 0.82923(16)
H12 H 0.2664 0.7357 0.8488
C10 C 0.19719(18) 1.0105(4) 0.78967(19)
H13 H 0.1366 1.0661 0.7712
H14 H 0.2097 1.0083 0.7324
H15 H 0.2411 1.1014 0.8400
C11 C 0.14089(17) 0.6359(4) 0.75060(18)
H16 H 0.1500 0.4909 0.7761
H17 H 0.1539 0.6423 0.6937
H18 H 0.0785 0.6782 0.7315
C12 C 0.09587(16) 0.8420(4) 0.90422(18)
H19 H 0.0623 0.8861 0.8346
C13 C 0.10030(17) 1.0373(4) 0.96539(18)
H20 H 0.1305 1.0006 1.0347
H21 H 0.0393 1.0869 0.9493
H22 H 0.1339 1.1497 0.9514
C14 C 0.04244(17) 0.6608(4) 0.9196(2)
H23 H 0.0410 0.5409 0.8780
H24 H -0.0190 0.7083 0.9026
H25 H 0.0709 0.6167 0.9880
N1 N 0.18655(13) 0.7786(3) 0.91707(14)
O1 O 0.34616(11) 1.0447(2) 1.14294(11)
O2 O 0.39175(12) 0.8322(3) 1.27434(12)
O3 O 0.22746(11) 0.6833(2) 1.07372(11)
loop_
_geom_bond_atom_site_label_1
_geom_bond_atom_site_label_2
_geom_bond_site_symmetry_1
_geom_bond_site_symmetry_2
C1 C2 1_555 1_555
C2 H1 1_555 1_555
H2 C2 1_555 1_555
C3 C2 1_555 1_555
H3 C3 1_555 1_555
H4 C3 1_555 1_555
C4 C1 1_555 1_555
H5 C4 1_555 1_555
C5 C4 1_555 1_555
C6 H6 1_555 1_555
H7 C6 1_555 1_555
H8 C6 1_555 1_555
C7 C1 1_555 1_555
H9 C7 1_555 1_555
H10 C7 1_555 1_555
H11 C7 1_555 1_555
C8 C1 1_555 1_555
C9 H12 1_555 1_555
C10 C9 1_555 1_555
H13 C10 1_555 1_555
H14 C10 1_555 1_555
H15 C10 1_555 1_555
C11 C9 1_555 1_555
H16 C11 1_555 1_555
H17 C11 1_555 1_555
H18 C11 1_555 1_555
C12 H19 1_555 1_555
C13 C12 1_555 1_555
H20 C13 1_555 1_555
H21 C13 1_555 1_555
H22 C13 1_555 1_555
C14 C12 1_555 1_555
H23 C14 1_555 1_555
H24 C14 1_555 1_555
H25 C14 1_555 1_555
N1 C8 1_555 1_555
O1 C5 1_555 1_555
O2 C5 1_555 1_555
O3 C8 1_555 1_555
C3 C4 1_555 1_555
C6 O1 1_555 1_555
C9 N1 1_555 1_555
C12 N1 1_555 1_555

#END
