
#######################################################################
#
#                 Cambridge Crystallographic Data Centre
#                                CCDC 
#
#######################################################################
#
# If this CIF has been generated from an entry in the Cambridge 
# Structural Database, then it will include bibliographic, chemical, 
# crystal, experimental, refinement or atomic coordinate data resulting 
# from the CCDC's data processing and validation procedures.
#
#######################################################################

data_MORPEO
_chemical_formula_moiety         'C4 H5 I1 O2'
_chemical_name_systematic        'cis-2-Iodo-cyclopropane-carboxylic acid'
_symmetry_cell_setting           orthorhombic
_symmetry_space_group_name_H-M   'P b c a'
_symmetry_Int_Tables_number      61
_space_group_name_Hall           '-P 2ac 2ab'
loop_
_symmetry_equiv_pos_site_id
_symmetry_equiv_pos_as_xyz
1 x,y,z
2 1/2+x,y,1/2-z
3 x,1/2-y,1/2+z
4 1/2-x,1/2+y,z
5 -x,-y,-z
6 1/2-x,-y,1/2+z
7 -x,1/2+y,1/2-z
8 1/2+x,1/2-y,-z
_cell_length_a                   8.698(6)
_cell_length_b                   5.720(4)
_cell_length_c                   23.768(16)
_cell_angle_alpha                90
_cell_angle_beta                 90
_cell_angle_gamma                90
_cell_volume                     1182.52
_exptl_crystal_description       plate
_chemical_melting_point          '69.5-70.5 deg.C'
_cell_formula_units_Z            8
_exptl_crystal_recrystallization_method chloroform
loop_
_atom_site_label
_atom_site_type_symbol
_atom_site_fract_x
_atom_site_fract_y
_atom_site_fract_z
C1 C 0.5473(3) 0.4506(5) 0.65130(14)
H1 H 0.6122 0.5708 0.6705
C2 C 0.5562(4) 0.4634(6) 0.58746(14)
H2 H 0.6259 0.5862 0.5718
C3 C 0.4165(4) 0.5524(6) 0.61986(13)
H3 H 0.4012 0.7237 0.6221
H4 H 0.3206 0.4598 0.6176
C4 C 0.5350(3) 0.2534(5) 0.55217(12)
I1 I 0.52756(3) 0.13628(4) 0.697358(9)
O1 O 0.4332(3) 0.1085(4) 0.55921(10)
O2 O 0.6373(3) 0.2417(4) 0.51132(9)
H5 H 0.6192 0.1241 0.4912
loop_
_geom_bond_atom_site_label_1
_geom_bond_atom_site_label_2
_geom_bond_site_symmetry_1
_geom_bond_site_symmetry_2
C1 H1 1_555 1_555
C2 C1 1_555 1_555
H2 C2 1_555 1_555
C3 C1 1_555 1_555
H3 C3 1_555 1_555
H4 C3 1_555 1_555
C4 C2 1_555 1_555
I1 C1 1_555 1_555
O1 C4 1_555 1_555
O2 C4 1_555 1_555
H5 O2 1_555 1_555
C2 C3 1_555 1_555

#END
