
#######################################################################
#
#                 Cambridge Crystallographic Data Centre
#                                CCDC 
#
#######################################################################
#
# If this CIF has been generated from an entry in the Cambridge 
# Structural Database, then it will include bibliographic, chemical, 
# crystal, experimental, refinement or atomic coordinate data resulting 
# from the CCDC's data processing and validation procedures.
#
#######################################################################

data_MORTCZ
_chemical_formula_moiety         'C5 H11 N3 O1 S1'
_chemical_name_systematic        Morpholino-thiosemicarbazide
_symmetry_cell_setting           orthorhombic
_symmetry_space_group_name_H-M   'P 21 21 21'
_symmetry_Int_Tables_number      19
_space_group_name_Hall           'P 2ac 2ab'
loop_
_symmetry_equiv_pos_site_id
_symmetry_equiv_pos_as_xyz
1 x,y,z
2 1/2+x,1/2-y,-z
3 -x,1/2+y,1/2-z
4 1/2-x,-y,1/2+z
_cell_length_a                   4.19(2)
_cell_length_b                   6.56(2)
_cell_length_c                   26.67(4)
_cell_angle_alpha                90
_cell_angle_beta                 90
_cell_angle_gamma                90
_cell_volume                     733.062
_cell_formula_units_Z            4
loop_
_atom_site_label
_atom_site_type_symbol
_atom_site_fract_x
_atom_site_fract_y
_atom_site_fract_z
C1 C -0.49600 -0.47000 0.41710
C2 C -0.29900 -0.43700 0.32870
C3 C -0.33500 -0.57600 0.28140
C4 C -0.22600 -0.88000 0.32820
C5 C -0.18900 -0.75400 0.37750
N1 N -0.35800 -0.56300 0.37560
N2 N -0.48000 -0.58700 0.45900
N3 N -0.66300 -0.52500 0.50360
O1 O -0.14400 -0.75600 0.28520
S1 S -0.66480 -0.23980 0.41490
loop_
_geom_bond_atom_site_label_1
_geom_bond_atom_site_label_2
_geom_bond_site_symmetry_1
_geom_bond_site_symmetry_2
C1 N1 1_555 1_555
C2 C3 1_555 1_555
C3 O1 1_555 1_555
C4 C5 1_555 1_555
C5 N1 1_555 1_555
N1 C2 1_555 1_555
N2 C1 1_555 1_555
N3 N2 1_555 1_555
O1 C4 1_555 1_555
S1 C1 1_555 1_555

#END
