
#######################################################################
#
#                 Cambridge Crystallographic Data Centre
#                                CCDC 
#
#######################################################################
#
# If this CIF has been generated from an entry in the Cambridge 
# Structural Database, then it will include bibliographic, chemical, 
# crystal, experimental, refinement or atomic coordinate data resulting 
# from the CCDC's data processing and validation procedures.
#
#######################################################################

data_MORWUM
_chemical_formula_moiety         'C22 H20 O2,C3 H8 O1'
_chemical_name_systematic        
'trans-1,4 bis(phenylethynyl)-cyclohexane-1,4-diol isopropanol solvate'
_symmetry_cell_setting           monoclinic
_symmetry_space_group_name_H-M   'P 21/c'
_symmetry_Int_Tables_number      14
_space_group_name_Hall           '-P 2ybc'
loop_
_symmetry_equiv_pos_site_id
_symmetry_equiv_pos_as_xyz
1 x,y,z
2 -x,1/2+y,1/2-z
3 -x,-y,-z
4 x,1/2-y,1/2+z
_cell_length_a                   5.9578(3)
_cell_length_b                   27.9297(17)
_cell_length_c                   13.1767(7)
_cell_angle_alpha                90
_cell_angle_beta                 91.098(2)
_cell_angle_gamma                90
_cell_volume                     2192.19
_exptl_crystal_colour            colorless
_exptl_crystal_description       cube
_cell_formula_units_Z            4
_exptl_crystal_recrystallization_method isopropanol
loop_
_atom_site_label
_atom_site_type_symbol
_atom_site_fract_x
_atom_site_fract_y
_atom_site_fract_z
O1 O 0.3641(2) 0.52898(5) 0.80441(10)
C1 C 0.2979(3) 0.57088(7) 0.95781(14)
C2 C 0.2960(3) 0.48159(7) 0.94954(14)
C3 C 0.3429(3) 0.47296(7) 1.06276(14)
C4 C 0.1080(3) 0.64998(7) 1.02548(14)
C6 C 0.4041(3) 0.52807(6) 0.91232(13)
C7 C -0.1948(4) 0.69146(8) 1.10716(15)
C10 C -0.0975(3) 0.64918(8) 1.07475(16)
C15 C 0.2142(4) 0.69390(7) 1.00906(15)
C17 C 0.2116(3) 0.60620(7) 0.99025(14)
C19 C 0.1160(4) 0.73606(8) 1.04216(16)
C21 C -0.0878(4) 0.73470(8) 1.09093(16)
H1 H 0.134(3) 0.4822(6) 0.9338(13)
H4 H 0.279(3) 0.4990(7) 1.1045(14)
H5 H 0.271(3) 0.4428(7) 1.0840(14)
H7 H 0.359(3) 0.4555(7) 0.9080(15)
H9 H -0.336(4) 0.6900(8) 1.1413(16)
H13 H 0.359(4) 0.6938(7) 0.9751(15)
H15 H 0.191(3) 0.7667(8) 1.0290(15)
H16 H -0.156(4) 0.7653(8) 1.1117(16)
H17 H -0.169(4) 0.6190(8) 1.0854(15)
H28 H 0.444(5) 0.5516(10) 0.773(2)
O1B O 0.6359(2) 0.47102(5) 1.19559(10)
C1B C 0.7021(3) 0.42912(7) 1.04219(14)
C2B C 0.7040(3) 0.51841(7) 1.05046(14)
C3B C 0.6571(3) 0.52704(7) 0.93724(14)
C4B C 0.8920(3) 0.35002(7) 0.97452(14)
C6B C 0.5959(3) 0.47193(6) 1.08768(13)
C7B C 1.1948(4) 0.30854(8) 0.89284(15)
C10B C 1.0975(3) 0.35082(8) 0.92525(16)
C15B C 0.7858(4) 0.30610(7) 0.99094(15)
C17B C 0.7884(3) 0.39380(7) 1.00975(14)
C19B C 0.8840(4) 0.26394(8) 0.95784(16)
C21B C 1.0878(4) 0.26530(8) 0.90907(16)
H1B H 0.866(3) 0.5178(6) 1.0662(13)
H4B H 0.721(3) 0.5010(7) 0.8955(14)
H5B H 0.729(3) 0.5572(7) 0.9160(14)
H7B H 0.641(3) 0.5445(7) 1.0920(15)
H9B H 1.336(4) 0.3100(8) 0.8587(16)
H13B H 0.641(4) 0.3062(7) 1.0249(15)
H15B H 0.809(3) 0.2333(8) 0.9710(15)
H16B H 1.156(4) 0.2347(8) 0.8883(16)
H17B H 1.169(4) 0.3810(8) 0.9146(15)
H28B H 0.556(5) 0.4484(10) 1.227(2)
O2 O 0.6356(2) 0.58495(5) 0.69748(11)
C23 C 0.6865(4) 0.63508(7) 0.69062(17)
C24 C 0.4668(5) 0.66021(10) 0.6709(3)
C25 C 0.8072(5) 0.65212(9) 0.7855(2)
H8 H 0.787(4) 0.6398(8) 0.6298(16)
H20 H 0.846(4) 0.6859(10) 0.7813(18)
H21 H 0.394(5) 0.6473(10) 0.608(2)
H22 H 0.948(5) 0.6345(10) 0.796(2)
H24 H 0.488(5) 0.6971(11) 0.666(2)
H25 H 0.367(5) 0.6556(9) 0.729(2)
H26 H 0.704(5) 0.6479(10) 0.847(2)
H27 H 0.760(4) 0.5675(9) 0.7017(19)
O3 O -0.0380(2) 0.51767(5) 0.70900(10)
C5 C 0.5757(4) 0.37037(8) 0.70435(16)
C8 C 0.1637(3) 0.53099(7) 0.55237(14)
C9 C 0.2391(3) 0.41378(7) 0.64157(14)
C11 C 0.6981(4) 0.32819(8) 0.71553(16)
C12 C 0.2049(3) 0.51262(7) 0.44480(15)
C13 C 0.3662(3) 0.36998(7) 0.65440(14)
C14 C 0.1381(3) 0.45049(7) 0.63115(14)
C16 C 0.2816(4) 0.32661(8) 0.61650(16)
C18 C 0.6122(4) 0.28531(8) 0.67745(16)
C20 C 0.0169(3) 0.49634(7) 0.61266(14)
C22 C 0.4043(4) 0.28477(8) 0.62816(16)
H2 H 0.302(3) 0.5363(6) 0.5896(13)
H3 H 0.080(3) 0.5633(7) 0.5479(13)
H6 H 0.286(3) 0.4835(7) 0.4506(14)
H10 H 0.343(4) 0.2556(8) 0.6010(16)
H11 H 0.299(4) 0.5347(8) 0.4060(16)
H12 H 0.844(4) 0.3293(7) 0.7502(16)
H14 H 0.637(4) 0.3996(8) 0.7312(16)
H18 H 0.139(4) 0.3257(7) 0.5820(15)
H19 H 0.101(5) 0.5224(10) 0.748(2)
H23 H 0.702(4) 0.2556(9) 0.6860(18)
O3B O 0.0380(2) 0.48233(5) 0.29100(10)
C5B C -0.5757(4) 0.62963(8) 0.29565(16)
C8B C -0.1637(3) 0.46901(7) 0.44763(14)
C9B C -0.2391(3) 0.58622(7) 0.35843(14)
C11B C -0.6981(4) 0.67181(8) 0.28447(16)
C12B C -0.2049(3) 0.48738(7) 0.55520(15)
C13B C -0.3662(3) 0.63002(7) 0.34560(14)
C14B C -0.1381(3) 0.54951(7) 0.36885(14)
C16B C -0.2816(4) 0.67339(8) 0.38350(16)
C18B C -0.6122(4) 0.71469(8) 0.32255(16)
C20B C -0.0169(3) 0.50366(7) 0.38734(14)
C22B C -0.4043(4) 0.71523(8) 0.37184(16)
H2B H -0.302(3) 0.4637(6) 0.4104(13)
H3B H -0.080(3) 0.4367(7) 0.4521(13)
H6B H -0.286(3) 0.5165(7) 0.5494(14)
H10B H -0.343(4) 0.7444(8) 0.3990(16)
H11B H -0.299(4) 0.4653(8) 0.5940(16)
H12B H -0.844(4) 0.6707(7) 0.2498(16)
H14B H -0.637(4) 0.6004(8) 0.2688(16)
H18B H -0.139(4) 0.6743(7) 0.4180(15)
H19B H -0.101(5) 0.4776(10) 0.252(2)
H23B H -0.702(4) 0.7444(9) 0.3140(18)
loop_
_geom_bond_atom_site_label_1
_geom_bond_atom_site_label_2
_geom_bond_site_symmetry_1
_geom_bond_site_symmetry_2
O1 C6 1_555 1_555
O2 C23 1_555 1_555
O3 C20 1_555 1_555
C1 C6 1_555 1_555
C2 C3 1_555 1_555
C3 H4 1_555 1_555
C4 C10 1_555 1_555
C5 C11 1_555 1_555
C6 C2 1_555 1_555
C7 C10 1_555 1_555
C8 C12 1_555 1_555
C9 C13 1_555 1_555
C10 H17 1_555 1_555
C11 C18 1_555 1_555
C12 H6 1_555 1_555
C13 C5 1_555 1_555
C14 C9 1_555 1_555
C15 C4 1_555 1_555
C16 C13 1_555 1_555
C17 C1 1_555 1_555
C18 C22 1_555 1_555
C19 C15 1_555 1_555
C20 C8 1_555 1_555
C21 C7 1_555 1_555
C22 C16 1_555 1_555
C23 C24 1_555 1_555
C24 H21 1_555 1_555
C25 C23 1_555 1_555
H1 C2 1_555 1_555
H2 C8 1_555 1_555
H3 C8 1_555 1_555
H5 C3 1_555 1_555
H7 C2 1_555 1_555
H8 C23 1_555 1_555
H9 C7 1_555 1_555
H10 C22 1_555 1_555
H11 C12 1_555 1_555
H12 C11 1_555 1_555
H13 C15 1_555 1_555
H14 C5 1_555 1_555
H15 C19 1_555 1_555
H16 C21 1_555 1_555
H18 C16 1_555 1_555
H19 O3 1_555 1_555
H20 C25 1_555 1_555
H22 C25 1_555 1_555
H23 C18 1_555 1_555
H24 C24 1_555 1_555
H25 C24 1_555 1_555
H26 C25 1_555 1_555
H27 O2 1_555 1_555
H28 O1 1_555 1_555
O1B C6B 1_555 1_555
O3B C20B 1_555 1_555
C1B C6B 1_555 1_555
C2B C3B 1_555 1_555
C3B C6 1_555 1_555
C4B C10B 1_555 1_555
C5B C11B 1_555 1_555
C6B C3 1_555 1_555
C7B C10B 1_555 1_555
C8B C12B 1_555 1_555
C9B C13B 1_555 1_555
C10B H17B 1_555 1_555
C11B C18B 1_555 1_555
C12B C20 1_555 1_555
C13B C5B 1_555 1_555
C14B C9B 1_555 1_555
C15B C4B 1_555 1_555
C16B C13B 1_555 1_555
C17B C1B 1_555 1_555
C18B C22B 1_555 1_555
C19B C15B 1_555 1_555
C20B C12 1_555 1_555
C21B C7B 1_555 1_555
C22B C16B 1_555 1_555
H1B C2B 1_555 1_555
H2B C8B 1_555 1_555
H3B C8B 1_555 1_555
H4B C3B 1_555 1_555
H5B C3B 1_555 1_555
H6B C12B 1_555 1_555
H7B C2B 1_555 1_555
H9B C7B 1_555 1_555
H10B C22B 1_555 1_555
H11B C12B 1_555 1_555
H12B C11B 1_555 1_555
H13B C15B 1_555 1_555
H14B C5B 1_555 1_555
H15B C19B 1_555 1_555
H16B C21B 1_555 1_555
H18B C16B 1_555 1_555
H19B O3B 1_555 1_555
H23B C18B 1_555 1_555
H28B O1B 1_555 1_555
C4 C17 1_555 1_555
C14 C20 1_555 1_555
C19 C21 1_555 1_555
C2B C6B 1_555 1_555
C4B C17B 1_555 1_555
C8B C20B 1_555 1_555
C14B C20B 1_555 1_555
C19B C21B 1_555 1_555

#END
