
#######################################################################
#
#                 Cambridge Crystallographic Data Centre
#                                CCDC 
#
#######################################################################
#
# If this CIF has been generated from an entry in the Cambridge 
# Structural Database, then it will include bibliographic, chemical, 
# crystal, experimental, refinement or atomic coordinate data resulting 
# from the CCDC's data processing and validation procedures.
#
#######################################################################

data_MORXAT
_chemical_formula_moiety         'C22 H20 O2,2(C1 H4 O1)'
_chemical_name_systematic        
'trans-1,4 bis(phenylethynyl)-cyclohexane-1,4-diol methanol solvate'
_symmetry_cell_setting           orthorhombic
_symmetry_space_group_name_H-M   'P b c a'
_symmetry_Int_Tables_number      61
_space_group_name_Hall           '-P 2ac 2ab'
loop_
_symmetry_equiv_pos_site_id
_symmetry_equiv_pos_as_xyz
1 x,y,z
2 1/2-x,-y,1/2+z
3 -x,1/2+y,1/2-z
4 1/2+x,1/2-y,-z
5 -x,-y,-z
6 1/2+x,y,1/2-z
7 x,1/2-y,1/2+z
8 1/2-x,1/2+y,z
_cell_length_a                   14.2235(2)
_cell_length_b                   7.64090(10)
_cell_length_c                   20.0319(3)
_cell_angle_alpha                90
_cell_angle_beta                 90
_cell_angle_gamma                90
_cell_volume                     2177.07
_exptl_crystal_colour            colorless
_exptl_crystal_description       plate
_cell_formula_units_Z            4
_exptl_crystal_recrystallization_method methanol
loop_
_atom_site_label
_atom_site_type_symbol
_atom_site_fract_x
_atom_site_fract_y
_atom_site_fract_z
O1 O 0.32481(6) 1.02738(11) 0.53901(4)
C8 C 0.34751(10) 1.04563(19) 0.60780(7)
H6 H 0.4134(12) 1.019(2) 0.6171(8)
H7 H 0.3075(13) 0.975(2) 0.6369(9)
H8 H 0.3360(12) 1.163(3) 0.6202(8)
H10 H 0.3279(11) 0.919(2) 0.5291(8)
O2 O 0.33143(6) 0.69024(10) 0.49670(4)
C1 C 0.40300(8) 0.56361(14) 0.59247(5)
C2 C 0.39410(8) 0.54658(15) 0.65142(6)
C3 C 0.38409(8) 0.52533(16) 0.72249(5)
C4 C 0.49920(8) 0.69207(14) 0.50149(6)
C5 C 0.58800(8) 0.58844(14) 0.51694(6)
C6 C 0.42365(9) 0.38028(18) 0.75396(6)
C7 C 0.41045(7) 0.58883(14) 0.51927(5)
C9 C 0.41486(10) 0.3600(2) 0.82242(7)
C10 C 0.36738(10) 0.4828(2) 0.85994(6)
C11 C 0.33570(10) 0.6480(2) 0.76062(7)
C12 C 0.32824(11) 0.6262(2) 0.82929(7)
H1 H 0.4959(9) 0.7179(17) 0.4532(6)
H2 H 0.6452(10) 0.6569(19) 0.5043(6)
H3 H 0.5003(10) 0.8055(19) 0.5263(6)
H4 H 0.5914(10) 0.5647(19) 0.5655(7)
H5 H 0.2794(13) 0.634(2) 0.5090(7)
H9 H 0.4578(11) 0.294(2) 0.7274(7)
H11 H 0.3075(12) 0.749(2) 0.7401(8)
H12 H 0.3610(12) 0.467(2) 0.9079(9)
H13 H 0.4421(12) 0.257(3) 0.8427(8)
H14 H 0.2950(13) 0.715(3) 0.8539(9)
O2D O 0.66857(6) 0.30976(10) 0.50330(4)
C1D C 0.59700(8) 0.43639(14) 0.40753(5)
C2D C 0.60590(8) 0.45342(15) 0.34858(6)
C3D C 0.61591(8) 0.47467(16) 0.27751(5)
C4D C 0.50080(8) 0.30793(14) 0.49851(6)
C5D C 0.41200(8) 0.41156(14) 0.48306(6)
C6D C 0.57635(9) 0.61972(18) 0.24604(6)
C7D C 0.58955(7) 0.41117(14) 0.48073(5)
C9D C 0.58514(10) 0.6400(2) 0.17758(7)
C10D C 0.63262(10) 0.5172(2) 0.14006(6)
C11D C 0.66430(10) 0.3520(2) 0.23938(7)
C12D C 0.67176(11) 0.3738(2) 0.17071(7)
H1D H 0.5041(9) 0.2821(17) 0.5468(6)
H2D H 0.3548(10) 0.3431(19) 0.4957(6)
H3D H 0.4997(10) 0.1945(19) 0.4737(6)
H4D H 0.4086(10) 0.4353(19) 0.4345(7)
H5D H 0.7206(13) 0.366(2) 0.4910(7)
H9D H 0.5422(11) 0.706(2) 0.2726(7)
H11D H 0.6925(12) 0.251(2) 0.2599(8)
H12D H 0.6390(12) 0.533(2) 0.0921(9)
H13D H 0.5579(12) 0.743(3) 0.1573(8)
H14D H 0.7050(13) 0.285(3) 0.1461(9)
loop_
_geom_bond_atom_site_label_1
_geom_bond_atom_site_label_2
_geom_bond_site_symmetry_1
_geom_bond_site_symmetry_2
O1 C8 1_555 1_555
O2 C7 1_555 1_555
C1 C2 1_555 1_555
C2 C3 1_555 1_555
C3 C6 1_555 1_555
C4 C5 1_555 1_555
C5 H2 1_555 1_555
C6 C9 1_555 1_555
C7 C1 1_555 1_555
C8 H6 1_555 1_555
C9 C10 1_555 1_555
C10 C12 1_555 1_555
C11 C3 1_555 1_555
C12 C11 1_555 1_555
H1 C4 1_555 1_555
H3 C4 1_555 1_555
H4 C5 1_555 1_555
H5 O2 1_555 1_555
H7 C8 1_555 1_555
H8 C8 1_555 1_555
H9 C6 1_555 1_555
H10 O1 1_555 1_555
H11 C11 1_555 1_555
H12 C10 1_555 1_555
H13 C9 1_555 1_555
H14 C12 1_555 1_555
O2D C7D 1_555 1_555
C1D C2D 1_555 1_555
C2D C3D 1_555 1_555
C3D C6D 1_555 1_555
C4D C5D 1_555 1_555
C5D C7 1_555 1_555
C6D C9D 1_555 1_555
C7D C5 1_555 1_555
C9D C10D 1_555 1_555
C10D C12D 1_555 1_555
C11D C3D 1_555 1_555
C12D C11D 1_555 1_555
H1D C4D 1_555 1_555
H2D C5D 1_555 1_555
H3D C4D 1_555 1_555
H4D C5D 1_555 1_555
H5D O2D 1_555 1_555
H9D C6D 1_555 1_555
H11D C11D 1_555 1_555
H12D C10D 1_555 1_555
H13D C9D 1_555 1_555
H14D C12D 1_555 1_555
C4 C7 1_555 1_555
C1D C7D 1_555 1_555
C4D C7D 1_555 1_555

#END
