
#######################################################################
#
#                 Cambridge Crystallographic Data Centre
#                                CCDC 
#
#######################################################################
#
# If this CIF has been generated from an entry in the Cambridge 
# Structural Database, then it will include bibliographic, chemical, 
# crystal, experimental, refinement or atomic coordinate data resulting 
# from the CCDC's data processing and validation procedures.
#
#######################################################################

data_MORYEY
_chemical_formula_moiety         'C27 H28 N3 O1 1+,B1 F4 1-'
_chemical_name_systematic        
'5-(Hydroxy(diphenyl)methyl)-2-mesityl-6,7-dihydro-5H-pyrrolo[2,1-c][1,2,4]triazol-2-ium tetrafluoroborate'
_symmetry_cell_setting           orthorhombic
_symmetry_space_group_name_H-M   'P 21 21 21'
_symmetry_Int_Tables_number      19
_space_group_name_Hall           'P 2ac 2ab'
loop_
_symmetry_equiv_pos_site_id
_symmetry_equiv_pos_as_xyz
1 x,y,z
2 1/2-x,-y,1/2+z
3 -x,1/2+y,1/2-z
4 1/2+x,1/2-y,-z
_cell_length_a                   10.187(2)
_cell_length_b                   11.625(2)
_cell_length_c                   20.564(4)
_cell_angle_alpha                90
_cell_angle_beta                 90
_cell_angle_gamma                90
_cell_volume                     2435.27
_exptl_crystal_colour            colorless
_exptl_crystal_description       needle
_cell_formula_units_Z            4
_exptl_crystal_recrystallization_method methanol
loop_
_atom_site_label
_atom_site_type_symbol
_atom_site_fract_x
_atom_site_fract_y
_atom_site_fract_z
F1 F 0.7293(2) 0.56952(15) 0.87660(10)
F2 F 0.7554(3) 0.76274(16) 0.88039(11)
F3 F 0.6589(2) 0.6791(2) 0.79331(10)
F4 F 0.8759(2) 0.65687(19) 0.80954(11)
B1 B 0.7541(4) 0.6683(3) 0.84112(18)
O1 O 0.0510(2) 0.83512(18) 0.77744(10)
H1 H 0.0045 0.7787 0.7884
N1 N 0.2448(2) 1.00055(19) 0.80464(11)
N2 N 0.2137(2) 1.13565(19) 0.87207(12)
N3 N 0.3471(2) 1.1122(2) 0.87495(13)
C1 C 0.3522(3) 0.6974(3) 0.84571(15)
H2 H 0.3986 0.6748 0.8077
C2 C 0.4021(3) 0.6687(3) 0.90622(17)
H3 H 0.4820 0.6269 0.9094
C3 C 0.3363(4) 0.7004(3) 0.96165(17)
H4 H 0.3711 0.6814 1.0031
C4 C 0.2193(4) 0.7601(3) 0.95692(16)
H5 H 0.1731 0.7814 0.9952
C5 C 0.1693(3) 0.7889(3) 0.89644(15)
H6 H 0.0888 0.8299 0.8936
C6 C 0.2355(3) 0.7586(2) 0.83960(15)
C7 C 0.2329(4) 0.7388(3) 0.65572(16)
H7 H 0.2476 0.8172 0.6447
C8 C 0.2441(4) 0.6548(3) 0.60809(17)
H8 H 0.2676 0.6761 0.5650
C9 C 0.2214(3) 0.5408(3) 0.62264(18)
H9 H 0.2307 0.4834 0.5901
C10 C 0.1853(3) 0.5112(3) 0.68484(18)
H10 H 0.1680 0.4330 0.6951
C11 C 0.1738(3) 0.5948(2) 0.73271(17)
H11 H 0.1474 0.5732 0.7753
C12 C 0.2005(3) 0.7098(2) 0.71921(15)
C13 C 0.1857(3) 0.8001(2) 0.77339(14)
C14 C 0.2551(3) 0.9121(2) 0.75326(14)
H12 H 0.2144 0.9420 0.7124
C15 C 0.4068(3) 0.9068(3) 0.74472(16)
H13 H 0.4356 0.8259 0.7402
H14 H 0.4331 0.9493 0.7051
C16 C 0.4711(3) 0.9615(3) 0.80506(18)
H15 H 0.5022 0.9021 0.8359
H16 H 0.5455 1.0119 0.7928
C17 C 0.3605(3) 1.0291(2) 0.83284(15)
C18 C 0.1538(3) 1.0684(2) 0.82920(14)
H17 H 0.0631 1.0691 0.8183
C19 C 0.1574(3) 1.2323(2) 0.90660(15)
C20 C 0.0703(3) 1.2121(3) 0.95699(15)
C21 C 0.0102(3) 1.3083(3) 0.98403(16)
H18 H -0.0516 1.2975 1.0181
C22 C 0.0367(3) 1.4198(3) 0.96325(16)
C23 C 0.1310(3) 1.4342(3) 0.91510(16)
H19 H 0.1539 1.5100 0.9021
C24 C 0.1925(3) 1.3423(3) 0.88547(14)
C25 C 0.0468(4) 1.0928(3) 0.98460(18)
H20 H 0.0974 1.0363 0.9597
H21 H -0.0469 1.0742 0.9818
H22 H 0.0746 1.0909 1.0302
C26 C -0.0302(4) 1.5232(3) 0.99228(19)
H23 H 0.0032 1.5932 0.9715
H24 H -0.0123 1.5262 1.0391
H25 H -0.1251 1.5175 0.9851
C27 C 0.2957(4) 1.3599(3) 0.8344(2)
H26 H 0.3067 1.4424 0.8262
H27 H 0.2688 1.3215 0.7941
H28 H 0.3791 1.3273 0.8494
loop_
_geom_bond_atom_site_label_1
_geom_bond_atom_site_label_2
_geom_bond_site_symmetry_1
_geom_bond_site_symmetry_2
F1 B1 1_555 1_555
F2 B1 1_555 1_555
F3 B1 1_555 1_555
F4 B1 1_555 1_555
O1 H1 1_555 1_555
N1 C14 1_555 1_555
N2 N3 1_555 1_555
N3 C17 1_555 1_555
C1 H2 1_555 1_555
C2 C1 1_555 1_555
H3 C2 1_555 1_555
C3 C2 1_555 1_555
H4 C3 1_555 1_555
C4 C3 1_555 1_555
H5 C4 1_555 1_555
C5 C4 1_555 1_555
H6 C5 1_555 1_555
C6 C1 1_555 1_555
C7 H7 1_555 1_555
C8 C7 1_555 1_555
H8 C8 1_555 1_555
C9 C8 1_555 1_555
H9 C9 1_555 1_555
C10 C9 1_555 1_555
H10 C10 1_555 1_555
C11 C10 1_555 1_555
H11 C11 1_555 1_555
C12 C7 1_555 1_555
C13 O1 1_555 1_555
C14 C13 1_555 1_555
H12 C14 1_555 1_555
C15 C14 1_555 1_555
H13 C15 1_555 1_555
H14 C15 1_555 1_555
C16 C15 1_555 1_555
H15 C16 1_555 1_555
H16 C16 1_555 1_555
C17 N1 1_555 1_555
C18 N1 1_555 1_555
H17 C18 1_555 1_555
C19 N2 1_555 1_555
C20 C19 1_555 1_555
C21 C20 1_555 1_555
H18 C21 1_555 1_555
C22 C21 1_555 1_555
C23 C22 1_555 1_555
H19 C23 1_555 1_555
C24 C19 1_555 1_555
C25 C20 1_555 1_555
H20 C25 1_555 1_555
H21 C25 1_555 1_555
H22 C25 1_555 1_555
C26 C22 1_555 1_555
H23 C26 1_555 1_555
H24 C26 1_555 1_555
H25 C26 1_555 1_555
C27 C24 1_555 1_555
H26 C27 1_555 1_555
H27 C27 1_555 1_555
H28 C27 1_555 1_555
N2 C18 1_555 1_555
C5 C6 1_555 1_555
C6 C13 1_555 1_555
C11 C12 1_555 1_555
C12 C13 1_555 1_555
C16 C17 1_555 1_555
C23 C24 1_555 1_555

#END
