
#######################################################################
#
#                 Cambridge Crystallographic Data Centre
#                                CCDC 
#
#######################################################################
#
# If this CIF has been generated from an entry in the Cambridge 
# Structural Database, then it will include bibliographic, chemical, 
# crystal, experimental, refinement or atomic coordinate data resulting 
# from the CCDC's data processing and validation procedures.
#
#######################################################################

data_MOSNCO
_chemical_formula_moiety         'C22 H21 N3 O5 S2'
_chemical_name_systematic        
'2S-(2\a,5\a)-3,3-Dimethyl-6-(p-tolyl-thio-imino)-7-oxo-4-thia-1-azabicyclo(3.2.0)heptane-2-carboxylic-acid-p-nitrobenzyl ester'
_symmetry_cell_setting           monoclinic
_symmetry_space_group_name_H-M   'C 2'
_symmetry_Int_Tables_number      5
_space_group_name_Hall           'C 2y'
loop_
_symmetry_equiv_pos_site_id
_symmetry_equiv_pos_as_xyz
1 x,y,z
2 1/2+x,1/2+y,z
3 -x,y,-z
4 1/2-x,1/2+y,-z
_cell_length_a                   25.65(1)
_cell_length_b                   6.061(1)
_cell_length_c                   15.085(3)
_cell_angle_alpha                90
_cell_angle_beta                 97.08(2)
_cell_angle_gamma                90
_cell_volume                     2327.3
_exptl_crystal_colour            'bright yellow'
_chemical_melting_point          84-6deg.C
_cell_formula_units_Z            4
loop_
_atom_site_label
_atom_site_type_symbol
_atom_site_fract_x
_atom_site_fract_y
_atom_site_fract_z
S1 S 0.52790 -0.46430 0.31990
C1 C 0.47930 -0.28090 0.25330
C2 C 0.49210 -0.29720 0.15670
N1 N 0.54950 -0.33560 0.16060
C3 C 0.57200 -0.47760 0.23390
C4 C 0.61890 -0.32360 0.24370
C5 C 0.58870 -0.17140 0.17570
O1 O 0.59370 0.00550 0.14360
C6 C 0.42460 -0.37240 0.26510
C7 C 0.48640 -0.04140 0.28560
C8 C 0.46660 -0.49300 0.10480
O2 O 0.48300 -0.67970 0.10890
O3 O 0.42330 -0.43140 0.05450
C9 C 0.39500 -0.60590 0.00490
C10 C 0.34350 -0.51500 -0.04010
C11 C 0.31300 -0.65560 -0.10300
C12 C 0.26390 -0.58970 -0.14180
C13 C 0.24790 -0.37990 -0.12090
C14 C 0.27690 -0.24140 -0.06500
C15 C 0.32440 -0.30390 -0.02470
N2 N 0.19420 -0.30160 -0.16440
O4 O 0.18710 -0.10990 -0.16720
O5 O 0.16270 -0.44150 -0.19060
N3 N 0.66440 -0.31510 0.28450
S2 S 0.68440 -0.52520 0.35260
C16 C 0.75210 -0.44690 0.38720
C17 C 0.78170 -0.60310 0.43520
C18 C 0.83340 -0.55600 0.46700
C19 C 0.85620 -0.36000 0.45040
C20 C 0.82540 -0.19140 0.40120
C21 C 0.77130 -0.25010 0.36910
C22 C 0.91320 -0.31560 0.49210
H1 H 0.48000 -0.14000 0.12000
H2 H 0.58000 -0.66000 0.23000
H3 H 0.39000 -0.74000 0.05000
H4 H 0.42000 -0.68000 -0.05000
H5 H 0.33000 -0.82000 -0.12000
H6 H 0.24000 -0.70000 -0.19000
H7 H 0.26000 -0.08000 -0.05000
H8 H 0.35000 -0.19000 0.02000
H9 H 0.76000 -0.76000 0.45000
H10 H 0.86000 -0.68000 0.51000
H11 H 0.84000 -0.03000 0.39000
H12 H 0.75000 -0.13000 0.33000
loop_
_geom_bond_atom_site_label_1
_geom_bond_atom_site_label_2
_geom_bond_site_symmetry_1
_geom_bond_site_symmetry_2
S1 C1 1_555 1_555
C1 C2 1_555 1_555
C2 N1 1_555 1_555
N1 C3 1_555 1_555
C3 S1 1_555 1_555
C4 C3 1_555 1_555
C5 N1 1_555 1_555
O1 C5 1_555 1_555
C6 C1 1_555 1_555
C7 C1 1_555 1_555
C8 C2 1_555 1_555
O2 C8 1_555 1_555
O3 C8 1_555 1_555
C9 O3 1_555 1_555
C10 C9 1_555 1_555
C11 C10 1_555 1_555
C12 C11 1_555 1_555
C13 C12 1_555 1_555
C14 C13 1_555 1_555
C15 C10 1_555 1_555
N2 C13 1_555 1_555
O4 N2 1_555 1_555
O5 N2 1_555 1_555
N3 C4 1_555 1_555
S2 N3 1_555 1_555
C16 S2 1_555 1_555
C17 C16 1_555 1_555
C18 C17 1_555 1_555
C19 C18 1_555 1_555
C20 C19 1_555 1_555
C21 C16 1_555 1_555
C22 C19 1_555 1_555
H1 C2 1_555 1_555
H2 C3 1_555 1_555
H3 C9 1_555 1_555
H4 C9 1_555 1_555
H5 C11 1_555 1_555
H6 C12 1_555 1_555
H7 C14 1_555 1_555
H8 C15 1_555 1_555
H9 C17 1_555 1_555
H10 C18 1_555 1_555
H11 C20 1_555 1_555
H12 C21 1_555 1_555
C4 C5 1_555 1_555
C14 C15 1_555 1_555
C20 C21 1_555 1_555

#END
