
#######################################################################
#
#                 Cambridge Crystallographic Data Centre
#                                CCDC 
#
#######################################################################
#
# If this CIF has been generated from an entry in the Cambridge 
# Structural Database, then it will include bibliographic, chemical, 
# crystal, experimental, refinement or atomic coordinate data resulting 
# from the CCDC's data processing and validation procedures.
#
#######################################################################

data_MOSPIU
_chemical_formula_moiety         'C9 H9 N3 S1'
_chemical_name_systematic        5-(4-Methylphenyl)-1,3,4-thiadiazol-2-amine
_symmetry_cell_setting           monoclinic
_symmetry_space_group_name_H-M   'P 21/c'
_symmetry_Int_Tables_number      14
_space_group_name_Hall           '-P 2ybc'
loop_
_symmetry_equiv_pos_site_id
_symmetry_equiv_pos_as_xyz
1 x,y,z
2 -x,1/2+y,1/2-z
3 -x,-y,-z
4 x,1/2-y,1/2+z
_cell_length_a                   12.284(3)
_cell_length_b                   7.3730(15)
_cell_length_c                   11.263(2)
_cell_angle_alpha                90
_cell_angle_beta                 109.09(3)
_cell_angle_gamma                90
_cell_volume                     963.99
_exptl_crystal_colour            colorless
_exptl_crystal_description       block
_chemical_melting_point          '476-478 K'
_cell_formula_units_Z            4
_exptl_crystal_recrystallization_method acetone
loop_
_atom_site_label
_atom_site_type_symbol
_atom_site_fract_x
_atom_site_fract_y
_atom_site_fract_z
S1 S 0.34151(8) 0.08993(12) 0.57346(7)
N1 N 0.3802(2) 0.1397(4) 0.3670(2)
N2 N 0.4336(3) 0.2834(4) 0.4424(2)
N3 N 0.4638(3) 0.3988(5) 0.6437(3)
H1 H 0.5027 0.4894 0.6309
H2 H 0.4527 0.3872 0.7149
C1 C 0.0739(4) -0.6083(7) 0.1831(5)
H3 H 0.0401 -0.5868 0.0945
H4 H 0.0143 -0.6328 0.2186
H5 H 0.1250 -0.7105 0.1966
C2 C 0.1409(3) -0.4424(6) 0.2453(4)
C3 C 0.1475(3) -0.2912(6) 0.1764(4)
H6 H 0.1101 -0.2917 0.0900
C4 C 0.2085(3) -0.1380(6) 0.2323(3)
H7 H 0.2112 -0.0376 0.1834
C5 C 0.2653(3) -0.1341(5) 0.3606(3)
C6 C 0.2590(3) -0.2873(5) 0.4300(4)
H8 H 0.2967 -0.2886 0.5164
C7 C 0.1975(4) -0.4375(5) 0.3720(4)
H9 H 0.1943 -0.5384 0.4203
C8 C 0.3296(3) 0.0279(4) 0.4202(3)
C9 C 0.4208(3) 0.2763(5) 0.5533(3)
loop_
_geom_bond_atom_site_label_1
_geom_bond_atom_site_label_2
_geom_bond_site_symmetry_1
_geom_bond_site_symmetry_2
S1 C8 1_555 1_555
N1 N2 1_555 1_555
N2 C9 1_555 1_555
N3 H1 1_555 1_555
H2 N3 1_555 1_555
C1 H3 1_555 1_555
H4 C1 1_555 1_555
H5 C1 1_555 1_555
C2 C1 1_555 1_555
C3 C2 1_555 1_555
H6 C3 1_555 1_555
C4 C3 1_555 1_555
H7 C4 1_555 1_555
C5 C4 1_555 1_555
C6 C5 1_555 1_555
H8 C6 1_555 1_555
C7 C2 1_555 1_555
H9 C7 1_555 1_555
C8 N1 1_555 1_555
C9 S1 1_555 1_555
N3 C9 1_555 1_555
C5 C8 1_555 1_555
C6 C7 1_555 1_555

#END
