
#######################################################################
#
#                 Cambridge Crystallographic Data Centre
#                                CCDC 
#
#######################################################################
#
# If this CIF has been generated from an entry in the Cambridge 
# Structural Database, then it will include bibliographic, chemical, 
# crystal, experimental, refinement or atomic coordinate data resulting 
# from the CCDC's data processing and validation procedures.
#
#######################################################################

data_MOSQAN
_chemical_formula_moiety         'C20 H22 Cl2 N3 O4 P1 S1'
_chemical_name_systematic        
'Diethyl ([5-(2,4-dichlorophenyl)-1,3,4-thiadiazol-2-ylamino](4-methoxyphenyl)methyl)phosphonate'
_symmetry_cell_setting           triclinic
_symmetry_space_group_name_H-M   'P -1'
_symmetry_Int_Tables_number      2
_space_group_name_Hall           '-P 1'
loop_
_symmetry_equiv_pos_site_id
_symmetry_equiv_pos_as_xyz
1 x,y,z
2 -x,-y,-z
_cell_length_a                   9.7100(19)
_cell_length_b                   11.825(2)
_cell_length_c                   11.845(2)
_cell_angle_alpha                98.74(3)
_cell_angle_beta                 112.16(3)
_cell_angle_gamma                103.05(3)
_cell_volume                     1183.92
_exptl_crystal_colour            colorless
_exptl_crystal_description       block
_cell_formula_units_Z            2
_exptl_crystal_recrystallization_method acetone
loop_
_atom_site_label
_atom_site_type_symbol
_atom_site_fract_x
_atom_site_fract_y
_atom_site_fract_z
Cl1 Cl 0.1915(3) -0.0588(2) 0.04559(17)
Cl2 Cl 0.60795(15) 0.19354(15) 0.51042(15)
S1 S 0.45871(13) 0.26753(10) 0.68952(11)
P1 P 0.28539(13) 0.35163(11) 1.04983(12)
N1 N 0.4404(4) 0.3110(3) 0.9121(3)
H1 H 0.4934 0.3843 0.9247
O1 O 0.1252(4) 0.2999(3) 0.9312(4)
C1 C -0.0855(9) 0.3620(8) 0.8045(8)
H2 H -0.1550 0.2881 0.7427
H3 H -0.1008 0.4286 0.7694
H4 H -0.1069 0.3689 0.8777
N2 N 0.2791(5) 0.1297(3) 0.7581(3)
O2 O 0.2564(4) 0.2931(3) 1.1510(3)
C2 C 0.0749(9) 0.3624(9) 0.8405(8)
H5 H 0.0851 0.3269 0.7658
H6 H 0.1427 0.4451 0.8733
O3 O 0.3460(4) 0.4837(3) 1.0857(3)
N3 N 0.2468(4) 0.0703(3) 0.6370(3)
C3 C 0.2866(11) 0.4070(7) 1.3512(7)
H7 H 0.3578 0.3667 1.3943
H8 H 0.2285 0.4241 1.3981
H9 H 0.3443 0.4808 1.3440
O4 O 0.9613(4) 0.3317(3) 1.4496(4)
C4 C 0.1777(9) 0.3289(7) 1.2240(7)
H10 H 0.1134 0.2577 1.2320
H11 H 0.1091 0.3715 1.1796
C5 C 0.4108(5) 0.2749(4) 1.0145(4)
H12 H 0.3525 0.1888 0.9834
C6 C 0.5616(5) 0.2897(4) 1.1290(4)
C7 C 0.6196(5) 0.1950(4) 1.1435(5)
H13 H 0.5671 0.1221 1.0821
C8 C 0.7548(5) 0.2052(4) 1.2475(5)
H14 H 0.7942 0.1406 1.2546
C9 C 0.8308(5) 0.3130(4) 1.3412(5)
C10 C 0.7780(6) 0.4085(4) 1.3276(5)
H15 H 0.8300 0.4811 1.3896
C11 C 0.6447(6) 0.3977(4) 1.2197(5)
H16 H 0.6114 0.4647 1.2088
C12 C 0.3876(5) 0.2336(4) 0.7974(4)
C13 C 0.3304(5) 0.1296(4) 0.5888(4)
C14 C 0.3017(5) 0.0854(4) 0.4561(4)
C15 C 0.1499(5) 0.0152(4) 0.3671(4)
H17 H 0.0708 -0.0020 0.3939
C16 C 0.1154(7) -0.0281(5) 0.2443(5)
H18 H 0.0133 -0.0731 0.1882
C17 C 0.2304(8) -0.0064(5) 0.2005(5)
C18 C 0.3822(8) 0.0635(6) 0.2868(6)
H19 H 0.4608 0.0802 0.2595
C19 C 0.4161(6) 0.1077(4) 0.4115(5)
C20 C 1.0077(7) 0.2351(6) 1.4818(7)
H20 H 0.9175 0.1691 1.4638
H21 H 1.0760 0.2571 1.5703
H22 H 1.0619 0.2116 1.4339
loop_
_geom_bond_atom_site_label_1
_geom_bond_atom_site_label_2
_geom_bond_site_symmetry_1
_geom_bond_site_symmetry_2
Cl1 C17 1_555 1_555
Cl2 C19 1_555 1_555
S1 C12 1_555 1_555
P1 O1 1_555 1_555
N1 H1 1_555 1_555
O1 C2 1_555 1_555
C1 H2 1_555 1_555
H3 C1 1_555 1_555
H4 C1 1_555 1_555
N2 N3 1_555 1_555
O2 P1 1_555 1_555
C2 C1 1_555 1_555
H5 C2 1_555 1_555
H6 C2 1_555 1_555
O3 P1 1_555 1_555
N3 C13 1_555 1_555
C3 H7 1_555 1_555
H8 C3 1_555 1_555
H9 C3 1_555 1_555
O4 C9 1_555 1_555
C4 O2 1_555 1_555
H10 C4 1_555 1_555
H11 C4 1_555 1_555
C5 P1 1_555 1_555
H12 C5 1_555 1_555
C6 C5 1_555 1_555
C7 C6 1_555 1_555
H13 C7 1_555 1_555
C8 C7 1_555 1_555
H14 C8 1_555 1_555
C9 C8 1_555 1_555
C10 C9 1_555 1_555
H15 C10 1_555 1_555
C11 C6 1_555 1_555
H16 C11 1_555 1_555
C12 N1 1_555 1_555
C13 S1 1_555 1_555
C14 C13 1_555 1_555
C15 C14 1_555 1_555
H17 C15 1_555 1_555
C16 C15 1_555 1_555
H18 C16 1_555 1_555
C17 C16 1_555 1_555
C18 C17 1_555 1_555
H19 C18 1_555 1_555
C19 C14 1_555 1_555
C20 O4 1_555 1_555
H20 C20 1_555 1_555
H21 C20 1_555 1_555
H22 C20 1_555 1_555
N1 C5 1_555 1_555
N2 C12 1_555 1_555
C3 C4 1_555 1_555
C10 C11 1_555 1_555
C18 C19 1_555 1_555

#END
