
#######################################################################
#
#                 Cambridge Crystallographic Data Centre
#                                CCDC 
#
#######################################################################
#
# If this CIF has been generated from an entry in the Cambridge 
# Structural Database, then it will include bibliographic, chemical, 
# crystal, experimental, refinement or atomic coordinate data resulting 
# from the CCDC's data processing and validation procedures.
#
#######################################################################

data_MOSTEU
_chemical_name_common            
N'-(3-Allyl-4-oxo-1,3-thiazolidin-2-ylidene)-5-fluoro-3-phenyl-1H-indole-2-carbohydrazide
_chemical_formula_moiety         'C21 H17 F1 N4 O2 S1'
_chemical_name_systematic        
N'-[(2Z)-3-Allyl-4-oxo-1,3-thiazolidin-2-ylidene]-5-fluoro-3-phenyl-1H-indole-2-carbohydrazide
_symmetry_cell_setting           monoclinic
_symmetry_space_group_name_H-M   'C 2/c'
_symmetry_Int_Tables_number      15
_space_group_name_Hall           '-C 2yn'
loop_
_symmetry_equiv_pos_site_id
_symmetry_equiv_pos_as_xyz
1 x,y,z
2 -x,y,1/2-z
3 1/2+x,1/2+y,z
4 1/2-x,1/2+y,1/2-z
5 -x,-y,-z
6 x,-y,1/2+z
7 1/2-x,1/2-y,-z
8 1/2+x,1/2-y,1/2+z
_cell_length_a                   21.9754(6)
_cell_length_b                   14.7215(5)
_cell_length_c                   16.2447(4)
_cell_angle_alpha                90
_cell_angle_beta                 132.022(2)
_cell_angle_gamma                90
_cell_volume                     3904.13
_exptl_crystal_colour            colorless
_exptl_crystal_description       prism
_chemical_melting_point          '535-538 K'
_cell_formula_units_Z            8
_exptl_crystal_recrystallization_method ethanol/chloroform
loop_
_atom_site_label
_atom_site_type_symbol
_atom_site_fract_x
_atom_site_fract_y
_atom_site_fract_z
S1 S 0.21369(3) 0.12252(4) 0.77932(4)
F1 F 0.17462(7) 0.15524(8) 0.14694(8)
O1 O 0.44729(7) 0.05930(11) 0.79608(9)
O2 O 0.31157(12) 0.14689(11) 1.08254(13)
N1 N 0.38666(7) 0.08425(9) 0.58683(10)
N2 N 0.33122(8) 0.10877(10) 0.75039(10)
N3 N 0.36940(9) 0.11650(10) 0.86108(11)
N4 N 0.35123(10) 0.13330(10) 0.98479(12)
C1 C 0.26040(8) 0.11360(10) 0.42564(12)
C2 C 0.20191(9) 0.13246(11) 0.31160(13)
C3 C 0.22958(11) 0.13647(12) 0.25772(13)
C4 C 0.31034(11) 0.12236(12) 0.30720(14)
C5 C 0.36848(10) 0.10389(12) 0.41841(14)
C6 C 0.34253(9) 0.09967(10) 0.47696(12)
C7 C 0.33549(8) 0.08846(10) 0.60763(12)
C8 C 0.25619(8) 0.10495(10) 0.50956(12)
C9 C 0.17981(8) 0.10843(10) 0.48911(12)
C10 C 0.15738(10) 0.03640(12) 0.51928(14)
C11 C 0.08451(11) 0.03946(15) 0.49644(16)
C12 C 0.03309(11) 0.11353(16) 0.44348(17)
C13 C 0.05436(10) 0.18427(15) 0.41220(17)
C14 C 0.12698(10) 0.18184(12) 0.43468(15)
C15 C 0.37596(8) 0.08369(11) 0.72532(12)
C16 C 0.32070(11) 0.12386(11) 0.87750(13)
C17 C 0.20908(14) 0.13479(16) 0.88526(19)
C18 C 0.29483(14) 0.13926(13) 0.99488(17)
C19 C 0.43942(16) 0.13472(19) 1.08020(18)
C20 C 0.4660(5) 0.2330(6) 1.0835(8)
C21 C 0.5130(6) 0.2848(8) 1.1365(7)
H1 H 0.14700 0.14170 0.27480
H2 H 0.43840 0.07360 0.63550
H3 H 0.42300 0.09450 0.45360
H4 H 0.19150 -0.01390 0.55490
H5 H 0.06990 -0.00890 0.51700
H6 H -0.01560 0.11540 0.42910
H7 H 0.01970 0.23410 0.37570
H8 H 0.14080 0.23020 0.41300
H9 H 0.17970 0.18980 0.87300
H10 H 0.18060 0.08350 0.88360
H11 H 0.4441(17) 0.1087(19) 1.132(2)
H12 H 0.4668(18) 0.086(2) 1.066(2)
H13 H 0.42670 0.25770 1.01300
H14 H 0.55760 0.27220 1.21060
H15 H 0.50830 0.34150 1.10740
H16 H 0.27970 0.11990 0.69870
H17 H 0.32490 0.12540 0.26510
C22? C 0.4920(5) 0.2117(6) 1.1294(7)
C23? C 0.4594(7) 0.2904(7) 1.0986(7)
H18? H 0.54860 0.20480 1.18250
H19? H 0.40270 0.29620 1.04540
H20? H 0.49230 0.34190 1.12940
loop_
_geom_bond_atom_site_label_1
_geom_bond_atom_site_label_2
_geom_bond_site_symmetry_1
_geom_bond_site_symmetry_2
S1 C16 1_555 1_555
F1 C3 1_555 1_555
O1 C15 1_555 1_555
O2 C18 1_555 1_555
N1 C6 1_555 1_555
N2 N3 1_555 1_555
N3 C16 1_555 1_555
N4 C16 1_555 1_555
C1 C2 1_555 1_555
C2 C3 1_555 1_555
C3 C4 1_555 1_555
C4 C5 1_555 1_555
C5 C6 1_555 1_555
C6 C1 1_555 1_555
C7 N1 1_555 1_555
C8 C1 1_555 1_555
C9 C8 1_555 1_555
C10 C9 1_555 1_555
C11 C10 1_555 1_555
C12 C11 1_555 1_555
C13 C12 1_555 1_555
C14 C9 1_555 1_555
C15 N2 1_555 1_555
C17 S1 1_555 1_555
C18 N4 1_555 1_555
C19 N4 1_555 1_555
C20 C19 1_555 1_555
C21 C20 1_555 1_555
H1 C2 1_555 1_555
H2 N1 1_555 1_555
H3 C5 1_555 1_555
H4 C10 1_555 1_555
H5 C11 1_555 1_555
H6 C12 1_555 1_555
H7 C13 1_555 1_555
H8 C14 1_555 1_555
H9 C17 1_555 1_555
H10 C17 1_555 1_555
H11 C19 1_555 1_555
H12 C19 1_555 1_555
H13 C20 1_555 1_555
H14 C21 1_555 1_555
H15 C21 1_555 1_555
H16 N2 1_555 1_555
H17 C4 1_555 1_555
C7 C8 1_555 1_555
C7 C15 1_555 1_555
C13 C14 1_555 1_555
C17 C18 1_555 1_555

#END
