
#######################################################################
#
#                 Cambridge Crystallographic Data Centre
#                                CCDC 
#
#######################################################################
#
# If this CIF has been generated from an entry in the Cambridge 
# Structural Database, then it will include bibliographic, chemical, 
# crystal, experimental, refinement or atomic coordinate data resulting 
# from the CCDC's data processing and validation procedures.
#
#######################################################################

data_MOSWEX
_chemical_formula_moiety         'C10 H9 N1 O1'
_chemical_name_systematic        N-Benzyl-2-propynamide
_symmetry_cell_setting           monoclinic
_symmetry_space_group_name_H-M   'P 21/c'
_symmetry_Int_Tables_number      14
_space_group_name_Hall           '-P 2ybc'
loop_
_symmetry_equiv_pos_site_id
_symmetry_equiv_pos_as_xyz
1 x,y,z
2 -x,1/2+y,1/2-z
3 -x,-y,-z
4 x,1/2-y,1/2+z
_cell_length_a                   9.495(2)
_cell_length_b                   10.703(2)
_cell_length_c                   8.9120(19)
_cell_angle_alpha                90
_cell_angle_beta                 101.637(3)
_cell_angle_gamma                90
_cell_volume                     887.066
_exptl_crystal_colour            'pale yellow'
_exptl_crystal_description       chunk
_cell_formula_units_Z            4
_exptl_crystal_recrystallization_method 'petroleum ether/ethyl acetate'
loop_
_atom_site_label
_atom_site_type_symbol
_atom_site_fract_x
_atom_site_fract_y
_atom_site_fract_z
O1 O 0.8163(2) 0.3454(2) 0.1877(2)
N1 N 0.7947(3) 0.3179(2) 0.4330(3)
H1 H 0.8203 0.2728 0.5166
C1 C 1.0048(4) 0.0859(3) 0.3289(4)
C2 C 0.9317(3) 0.1756(3) 0.3242(3)
C3 C 0.8422(3) 0.2867(3) 0.3095(3)
C4 C 0.7008(4) 0.4254(3) 0.4350(4)
H2 H 0.7389 0.4971 0.3855
H3 H 0.7015 0.4487 0.5427
C5 C 0.5485(3) 0.4009(3) 0.3545(3)
C6 C 0.4870(4) 0.4688(3) 0.2258(4)
H4 H 0.5418 0.5309 0.1873
C7 C 0.3471(4) 0.4469(4) 0.1532(4)
H5 H 0.3058 0.4943 0.0653
C8 C 0.2665(4) 0.3569(4) 0.2069(4)
H6 H 0.1702 0.3415 0.1559
C9 C 0.3268(4) 0.2895(3) 0.3353(4)
H7 H 0.2715 0.2277 0.3736
C10 C 0.4673(4) 0.3113(3) 0.4089(4)
H8 H 0.5081 0.2643 0.4974
H9 H 1.061(4) 0.014(4) 0.328(4)
loop_
_geom_bond_atom_site_label_1
_geom_bond_atom_site_label_2
_geom_bond_site_symmetry_1
_geom_bond_site_symmetry_2
O1 C3 1_555 1_555
N1 H1 1_555 1_555
C1 C2 1_555 1_555
C2 C3 1_555 1_555
C3 N1 1_555 1_555
C4 N1 1_555 1_555
H2 C4 1_555 1_555
H3 C4 1_555 1_555
C5 C4 1_555 1_555
C6 C5 1_555 1_555
H4 C6 1_555 1_555
C7 C6 1_555 1_555
H5 C7 1_555 1_555
C8 C7 1_555 1_555
H6 C8 1_555 1_555
C9 C8 1_555 1_555
H7 C9 1_555 1_555
C10 C5 1_555 1_555
H8 C10 1_555 1_555
H9 C1 1_555 1_555
C9 C10 1_555 1_555

#END
