
#######################################################################
#
#                 Cambridge Crystallographic Data Centre
#                                CCDC 
#
#######################################################################
#
# If this CIF has been generated from an entry in the Cambridge 
# Structural Database, then it will include bibliographic, chemical, 
# crystal, experimental, refinement or atomic coordinate data resulting 
# from the CCDC's data processing and validation procedures.
#
#######################################################################

data_MOSYAU
_chemical_name_common            
N-((2R)-2-(Phenylthio)-2-allyl-2-phenylacetyl)-(1S)-camphorsultam
_chemical_formula_moiety         'C27 H31 N1 O3 S2'
_chemical_name_systematic        
'(S)-1-((2R)-2-(Phenylthio)-2-allyl-2-phenylacetyl)-8,8-dimethyl-hexahydro-3a,6-methano-2,1-benzisothiazole 2,2-dioxide'
_symmetry_cell_setting           orthorhombic
_symmetry_space_group_name_H-M   'P 21 21 21'
_symmetry_Int_Tables_number      19
_space_group_name_Hall           'P 2ac 2ab'
loop_
_symmetry_equiv_pos_site_id
_symmetry_equiv_pos_as_xyz
1 x,y,z
2 1/2-x,-y,1/2+z
3 -x,1/2+y,1/2-z
4 1/2+x,1/2-y,-z
_cell_length_a                   14.808(1)
_cell_length_b                   15.348(1)
_cell_length_c                   11.096(1)
_cell_angle_alpha                90
_cell_angle_beta                 90
_cell_angle_gamma                90
_cell_volume                     2521.82
_exptl_crystal_colour            colorless
_exptl_crystal_description       block
_chemical_melting_point          '199-201 deg.C'
_cell_formula_units_Z            4
loop_
_atom_site_label
_atom_site_type_symbol
_atom_site_fract_x
_atom_site_fract_y
_atom_site_fract_z
S1 S 0.01340(4) 0.86728(4) 0.73702(5)
S2 S 0.30190(3) 0.75883(4) 0.93813(6)
O1 O 0.06169(9) 0.83630(10) 0.96481(14)
O2 O 0.31942(11) 0.70782(15) 0.83458(17)
O3 O 0.33392(10) 0.84546(11) 0.9418(2)
N1 N 0.18907(10) 0.75672(11) 0.96708(15)
C1 C 0.01364(13) 0.87676(14) 0.57733(19)
C2 C -0.03307(13) 0.81671(17) 0.5081(2)
H1 H -0.0588 0.7684 0.5453
C3 C -0.04212(15) 0.82704(18) 0.3855(2)
H2 H -0.0742 0.7866 0.3401
C4 C -0.00272(17) 0.89866(17) 0.3308(2)
H3 H -0.0077 0.9060 0.2478
C5 C 0.04384(15) 0.95928(17) 0.3985(2)
H4 H 0.0696 1.0075 0.3613
C6 C 0.05217(13) 0.94839(16) 0.5215(2)
H5 H 0.0837 0.9892 0.5669
C7 C 0.19801(13) 0.86532(13) 0.71569(19)
C8 C 0.24827(14) 0.84159(15) 0.6161(2)
H6 H 0.2401 0.7868 0.5821
C9 C 0.31070(16) 0.89827(18) 0.5662(3)
H7 H 0.3438 0.8813 0.4990
C10 C 0.32407(17) 0.97933(19) 0.6154(3)
H8 H 0.3662 1.0172 0.5818
C11 C 0.27508(16) 1.00399(17) 0.7140(3)
H9 H 0.2839 1.0589 0.7475
C12 C 0.21244(14) 0.94791(12) 0.7641(2)
H10 H 0.1795 0.9656 0.8312
C13 C 0.12244(12) 0.80951(12) 0.7666(2)
C14 C 0.11863(14) 0.71603(12) 0.7155(2)
H11 H 0.1145 0.7196 0.6284
H12 H 0.1749 0.6869 0.7349
C15 C 0.04278(14) 0.66154(13) 0.7602(3)
H13 H 0.0282 0.6655 0.8415
C16 C -0.00510(18) 0.60837(14) 0.6934(3)
H14 H 0.0075 0.6027 0.6117
H15 H -0.0517 0.5762 0.7278
C17 C 0.12305(13) 0.80581(14) 0.9059(2)
C18 C 0.17463(13) 0.74579(15) 1.09959(18)
H16 H 0.1754 0.8028 1.1393
C19 C 0.25273(15) 0.68886(15) 1.1478(2)
C20 C 0.33577(14) 0.70485(17) 1.0719(2)
H17 H 0.3647 0.6499 1.0523
H18 H 0.3786 0.7405 1.1160
C21 C 0.25750(16) 0.71037(16) 1.2826(2)
H19 H 0.2586 0.7728 1.2960
H20 H 0.3103 0.6843 1.3198
C22 C 0.16920(16) 0.66931(18) 1.3317(2)
H21 H 0.1819 0.6273 1.3948
H22 H 0.1289 0.7137 1.3632
C23 C 0.12802(15) 0.62444(16) 1.2201(2)
H23 H 0.0858 0.5772 1.2391
C24 C 0.21298(15) 0.59479(14) 1.1497(2)
C25 C 0.08900(14) 0.69470(15) 1.1375(2)
H24 H 0.0468 0.7318 1.1803
H25 H 0.0590 0.6692 1.0682
C26 C 0.19239(16) 0.55579(14) 1.0247(2)
H26 H 0.1581 0.5031 1.0341
H27 H 0.2480 0.5430 0.9839
H28 H 0.1582 0.5969 0.9781
C27 C 0.27256(18) 0.52921(15) 1.2170(3)
H29 H 0.2425 0.4739 1.2204
H30 H 0.2835 0.5498 1.2974
H31 H 0.3290 0.5229 1.1754
loop_
_geom_bond_atom_site_label_1
_geom_bond_atom_site_label_2
_geom_bond_site_symmetry_1
_geom_bond_site_symmetry_2
S1 C1 1_555 1_555
S2 O2 1_555 1_555
O1 C17 1_555 1_555
O3 S2 1_555 1_555
N1 S2 1_555 1_555
C1 C2 1_555 1_555
C2 H1 1_555 1_555
C3 C2 1_555 1_555
H2 C3 1_555 1_555
C4 C3 1_555 1_555
H3 C4 1_555 1_555
C5 C4 1_555 1_555
H4 C5 1_555 1_555
C6 C1 1_555 1_555
H5 C6 1_555 1_555
C7 C8 1_555 1_555
C8 H6 1_555 1_555
C9 C8 1_555 1_555
H7 C9 1_555 1_555
C10 C9 1_555 1_555
H8 C10 1_555 1_555
C11 C10 1_555 1_555
H9 C11 1_555 1_555
C12 C7 1_555 1_555
H10 C12 1_555 1_555
C13 S1 1_555 1_555
C14 C13 1_555 1_555
H11 C14 1_555 1_555
H12 C14 1_555 1_555
C15 C14 1_555 1_555
H13 C15 1_555 1_555
C16 C15 1_555 1_555
H14 C16 1_555 1_555
H15 C16 1_555 1_555
C17 N1 1_555 1_555
C18 N1 1_555 1_555
H16 C18 1_555 1_555
C19 C18 1_555 1_555
C20 S2 1_555 1_555
H17 C20 1_555 1_555
H18 C20 1_555 1_555
C21 C19 1_555 1_555
H19 C21 1_555 1_555
H20 C21 1_555 1_555
C22 C21 1_555 1_555
H21 C22 1_555 1_555
H22 C22 1_555 1_555
C23 C22 1_555 1_555
H23 C23 1_555 1_555
C24 C19 1_555 1_555
C25 C18 1_555 1_555
H24 C25 1_555 1_555
H25 C25 1_555 1_555
C26 C24 1_555 1_555
H26 C26 1_555 1_555
H27 C26 1_555 1_555
H28 C26 1_555 1_555
C27 C24 1_555 1_555
H29 C27 1_555 1_555
H30 C27 1_555 1_555
H31 C27 1_555 1_555
C5 C6 1_555 1_555
C7 C13 1_555 1_555
C11 C12 1_555 1_555
C13 C17 1_555 1_555
C19 C20 1_555 1_555
C23 C25 1_555 1_555
C23 C24 1_555 1_555

#END
