
#######################################################################
#
#                 Cambridge Crystallographic Data Centre
#                                CCDC 
#
#######################################################################
#
# If this CIF has been generated from an entry in the Cambridge 
# Structural Database, then it will include bibliographic, chemical, 
# crystal, experimental, refinement or atomic coordinate data resulting 
# from the CCDC's data processing and validation procedures.
#
#######################################################################

data_MOSYOJ
_chemical_name_common            
'5-(5,7-Dihydroxy-4-oxo-4H-chromen-3-yl)-2-hydroxybenzenesulfonic acid dihydrate'
_chemical_formula_moiety         'C15 H10 O8 S1,2(H2 O1)'
_chemical_name_systematic        "Genistein-3'-sulfonic acid dihydrate"
_symmetry_cell_setting           triclinic
_symmetry_space_group_name_H-M   'P -1'
_symmetry_Int_Tables_number      2
_space_group_name_Hall           '-P 1'
loop_
_symmetry_equiv_pos_site_id
_symmetry_equiv_pos_as_xyz
1 x,y,z
2 -x,-y,-z
_cell_length_a                   7.9100(4)
_cell_length_b                   8.1977(3)
_cell_length_c                   14.3431(7)
_cell_angle_alpha                73.626(3)
_cell_angle_beta                 80.346(3)
_cell_angle_gamma                65.498(3)
_cell_volume                     810.607
_exptl_crystal_colour            yellow
_exptl_crystal_description       block
_cell_formula_units_Z            2
_exptl_crystal_recrystallization_method acetonitrile
loop_
_atom_site_label
_atom_site_type_symbol
_atom_site_fract_x
_atom_site_fract_y
_atom_site_fract_z
S1 S 0.91573(8) 0.62831(8) 0.13396(4)
O1 O 0.3853(2) 0.9816(2) 0.33901(11)
O2 O 0.2966(2) 1.1865(2) 0.46121(12)
H1 H 0.3371 1.1535 0.4101
O3 O 0.0060(2) 0.9940(2) 0.76568(11)
H2 H 0.0326 1.0699 0.7804
O4 O 0.1972(2) 0.62379(19) 0.54241(11)
O5 O 0.7199(2) 0.4397(2) 0.05141(12)
H3 H 0.8324 0.4128 0.0492
C1 C 0.3351(3) 0.8670(3) 0.40347(15)
C2 C 0.2545(3) 0.9026(3) 0.49667(15)
C3 C 0.2355(3) 1.0616(3) 0.52404(16)
C4 C 0.1563(3) 1.0929(3) 0.61293(17)
H4 H 0.1465 1.1976 0.6303
C5 C 0.0900(3) 0.9663(3) 0.67758(16)
C6 C 0.1018(3) 0.8113(3) 0.65325(16)
H5 H 0.0550 0.7290 0.6959
C7 C 0.1848(3) 0.7812(3) 0.56408(16)
C8 C 0.2829(3) 0.5863(3) 0.45676(16)
H6 H 0.2944 0.4762 0.4448
C9 C 0.3528(3) 0.6939(3) 0.38735(15)
C10 C 0.4469(3) 0.6336(3) 0.29699(15)
C11 C 0.3792(3) 0.5469(3) 0.25092(17)
H7 H 0.2693 0.5304 0.2753
C12 C 0.4730(3) 0.4846(3) 0.16923(18)
H8 H 0.4249 0.4277 0.1391
C13 C 0.6385(3) 0.5062(3) 0.13165(16)
C14 C 0.7058(3) 0.5965(3) 0.17563(15)
C15 C 0.6094(3) 0.6585(3) 0.25784(15)
H9 H 0.6554 0.7181 0.2872
O8 O 0.9142(16) 0.6736(12) 0.0261(8)
O9 O 1.067(2) 0.456(2) 0.1681(9)
O10 O 0.8999(11) 0.7821(10) 0.1651(4)
O6 O 0.6658(3) 0.1139(2) 0.02597(15)
H10 H 0.7677 0.0288 0.0470
H11 H 0.6800 0.2140 0.0191
O7 O 0.3261(3) 0.0875(3) 0.13170(15)
H12 H 0.4261 0.0988 0.1045
H13 H 0.2363 0.1863 0.1398
O11? O 0.899(2) 0.7323(15) 0.0381(10)
O12? O 1.059(2) 0.450(3) 0.1480(12)
O13? O 0.9427(13) 0.7255(13) 0.2012(5)
loop_
_geom_bond_atom_site_label_1
_geom_bond_atom_site_label_2
_geom_bond_site_symmetry_1
_geom_bond_site_symmetry_2
S1 C14 1_555 1_555
O1 C1 1_555 1_555
O2 H1 1_555 1_555
O3 H2 1_555 1_555
O4 C7 1_555 1_555
O5 H3 1_555 1_555
C1 C2 1_555 1_555
C2 C3 1_555 1_555
C3 O2 1_555 1_555
C4 C3 1_555 1_555
H4 C4 1_555 1_555
C5 O3 1_555 1_555
C6 C5 1_555 1_555
H5 C6 1_555 1_555
C7 C2 1_555 1_555
C8 O4 1_555 1_555
H6 C8 1_555 1_555
C9 C1 1_555 1_555
C10 C9 1_555 1_555
C11 C10 1_555 1_555
H7 C11 1_555 1_555
C12 C11 1_555 1_555
H8 C12 1_555 1_555
C13 O5 1_555 1_555
C14 C13 1_555 1_555
C15 C10 1_555 1_555
H9 C15 1_555 1_555
O6 H10 1_555 1_555
H11 O6 1_555 1_555
O7 H12 1_555 1_555
H13 O7 1_555 1_555
O8 S1 1_555 1_555
O9 S1 1_555 1_555
O10 S1 1_555 1_555
C4 C5 1_555 1_555
C6 C7 1_555 1_555
C8 C9 1_555 1_555
C12 C13 1_555 1_555
C14 C15 1_555 1_555

#END
