
#######################################################################
#
#                 Cambridge Crystallographic Data Centre
#                                CCDC 
#
#######################################################################
#
# If this CIF has been generated from an entry in the Cambridge 
# Structural Database, then it will include bibliographic, chemical, 
# crystal, experimental, refinement or atomic coordinate data resulting 
# from the CCDC's data processing and validation procedures.
#
#######################################################################

data_MOTFOR
_chemical_formula_moiety         'C16 H10 N2 O3'
_chemical_name_systematic        
2-(3-Oxo-1,3-dihydro-2-benzofuran-1-yl)-1(2H)-phthalazinone
_symmetry_cell_setting           triclinic
_symmetry_space_group_name_H-M   'P -1'
_symmetry_Int_Tables_number      2
_space_group_name_Hall           '-P 1'
loop_
_symmetry_equiv_pos_site_id
_symmetry_equiv_pos_as_xyz
1 x,y,z
2 -x,-y,-z
_cell_length_a                   7.2356(2)
_cell_length_b                   8.0369(2)
_cell_length_c                   11.1686(4)
_cell_angle_alpha                80.047(2)
_cell_angle_beta                 86.093(2)
_cell_angle_gamma                88.6550(10)
_cell_volume                     638.168
_exptl_crystal_colour            colorless
_exptl_crystal_description       block
_cell_formula_units_Z            2
_exptl_crystal_recrystallization_method methanol/dimethylsulfoxide
loop_
_atom_site_label
_atom_site_type_symbol
_atom_site_fract_x
_atom_site_fract_y
_atom_site_fract_z
C1 C 0.2297(2) 1.0612(2) 0.05051(17)
C2 C 0.2968(2) 1.0522(3) -0.06731(17)
H1 H 0.3332 1.1489 -0.1215
C3 C 0.3079(2) 0.8959(3) -0.10149(17)
H2 H 0.3514 0.8863 -0.1803
C4 C 0.2552(3) 0.7527(3) -0.02004(18)
H3 H 0.2650 0.6480 -0.0448
C5 C 0.1881(2) 0.7618(2) 0.09758(17)
H4 H 0.1527 0.6652 0.1521
C6 C 0.1756(2) 0.9188(2) 0.13127(15)
C7 C 0.2067(3) 1.2059(3) 0.1138(2)
C8 C 0.1105(2) 0.9693(2) 0.24995(17)
H5 H -0.0224 0.9473 0.2655
C9 C 0.1102(2) 0.7947(2) 0.45282(17)
C10 C 0.2253(2) 0.7052(2) 0.54673(16)
C11 C 0.1443(3) 0.6004(2) 0.64863(18)
H6 H 0.0167 0.5861 0.6574
C12 C 0.2554(3) 0.5188(3) 0.73568(19)
H7 H 0.2024 0.4483 0.8036
C13 C 0.4459(3) 0.5403(3) 0.72353(19)
H8 H 0.5191 0.4850 0.7838
C14 C 0.5268(3) 0.6416(3) 0.62413(19)
H9 H 0.6546 0.6552 0.6167
C15 C 0.4170(2) 0.7251(2) 0.53311(16)
C16 C 0.4925(2) 0.8287(3) 0.42442(17)
H10 H 0.6202 0.8429 0.4162
N1 N 0.20803(18) 0.8852(2) 0.35304(13)
N2 N 0.39749(19) 0.9039(2) 0.33708(14)
O1 O 0.2366(2) 1.35289(19) 0.07887(16)
O2 O 0.14034(19) 1.14869(17) 0.23133(13)
O3 O -0.05902(16) 0.7908(2) 0.45814(13)
loop_
_geom_bond_atom_site_label_1
_geom_bond_atom_site_label_2
_geom_bond_site_symmetry_1
_geom_bond_site_symmetry_2
C1 C2 1_555 1_555
C2 H1 1_555 1_555
C3 C2 1_555 1_555
H2 C3 1_555 1_555
C4 C3 1_555 1_555
H3 C4 1_555 1_555
C5 C4 1_555 1_555
H4 C5 1_555 1_555
C6 C1 1_555 1_555
C7 C1 1_555 1_555
C8 C6 1_555 1_555
H5 C8 1_555 1_555
C9 C10 1_555 1_555
C10 C11 1_555 1_555
C11 H6 1_555 1_555
C12 C11 1_555 1_555
H7 C12 1_555 1_555
C13 C12 1_555 1_555
H8 C13 1_555 1_555
C14 C13 1_555 1_555
H9 C14 1_555 1_555
C15 C10 1_555 1_555
C16 C15 1_555 1_555
H10 C16 1_555 1_555
N1 C8 1_555 1_555
N2 C16 1_555 1_555
O1 C7 1_555 1_555
O2 C7 1_555 1_555
O3 C9 1_555 1_555
C5 C6 1_555 1_555
C8 O2 1_555 1_555
C9 N1 1_555 1_555
C14 C15 1_555 1_555
N1 N2 1_555 1_555

#END
