
#######################################################################
#
#                 Cambridge Crystallographic Data Centre
#                                CCDC 
#
#######################################################################
#
# If this CIF has been generated from an entry in the Cambridge 
# Structural Database, then it will include bibliographic, chemical, 
# crystal, experimental, refinement or atomic coordinate data resulting 
# from the CCDC's data processing and validation procedures.
#
#######################################################################

data_MOTFUX
_chemical_name_common            
4-((Amino(iminio)methyl)amino)benzenesulfonate
_chemical_formula_moiety         'C7 H9 N3 O3 S1'
_chemical_name_systematic        '4-guanidinobenzenesulfonic acid'
_symmetry_cell_setting           orthorhombic
_symmetry_space_group_name_H-M   'P b c a'
_symmetry_Int_Tables_number      61
_space_group_name_Hall           '-P 2ac 2ab'
loop_
_symmetry_equiv_pos_site_id
_symmetry_equiv_pos_as_xyz
1 x,y,z
2 1/2-x,-y,1/2+z
3 -x,1/2+y,1/2-z
4 1/2+x,1/2-y,-z
5 -x,-y,-z
6 1/2+x,y,1/2-z
7 x,1/2-y,1/2+z
8 1/2-x,1/2+y,z
_cell_length_a                   7.9967(9)
_cell_length_b                   11.9200(13)
_cell_length_c                   19.721(2)
_cell_angle_alpha                90
_cell_angle_beta                 90
_cell_angle_gamma                90
_cell_volume                     1879.82
_exptl_crystal_colour            colorless
_exptl_crystal_description       block
_chemical_melting_point          'above 300 deg.C'
_cell_formula_units_Z            8
_exptl_crystal_recrystallization_method water
loop_
_atom_site_label
_atom_site_type_symbol
_atom_site_fract_x
_atom_site_fract_y
_atom_site_fract_z
C1 C 0.0397(3) 0.48689(18) 0.26624(10)
C2 C 0.0470(3) 0.53779(18) 0.32882(11)
C3 C 0.1174(2) 0.64333(17) 0.33506(10)
C4 C 0.1778(3) 0.69826(18) 0.27833(11)
C5 C 0.1684(3) 0.64822(17) 0.21529(11)
C6 C 0.1005(2) 0.54177(16) 0.20961(10)
C7 C 0.1541(3) 0.65879(18) 0.45879(10)
H1 H -0.006(3) 0.4173(19) 0.2604(12)
H2 H -0.004(3) 0.504(2) 0.3685(11)
H3 H 0.230(3) 0.765(2) 0.2812(11)
H4 H 0.210(3) 0.6900(18) 0.1779(13)
H5 H 0.101(3) 0.767(2) 0.3958(12)
H6 H 0.253(3) 0.523(2) 0.4302(14)
H7 H 0.236(3) 0.529(2) 0.5062(14)
H8 H 0.178(3) 0.700(2) 0.5536(15)
H9 H 0.098(3) 0.787(2) 0.5079(13)
N1 N 0.1200(3) 0.70124(16) 0.39801(10)
N2 N 0.2066(3) 0.55499(17) 0.46566(11)
N3 N 0.1313(3) 0.7218(2) 0.51347(11)
O1 O 0.21174(19) 0.38280(13) 0.13149(8)
O2 O -0.07907(17) 0.43211(12) 0.12279(7)
O3 O 0.1335(2) 0.55807(12) 0.07941(8)
S1 S 0.09167(7) 0.47441(4) 0.12971(2)
loop_
_geom_bond_atom_site_label_1
_geom_bond_atom_site_label_2
_geom_bond_site_symmetry_1
_geom_bond_site_symmetry_2
C1 C2 1_555 1_555
C2 C3 1_555 1_555
C3 C4 1_555 1_555
C4 C5 1_555 1_555
C5 C6 1_555 1_555
C6 C1 1_555 1_555
C7 N1 1_555 1_555
H1 C1 1_555 1_555
H2 C2 1_555 1_555
H3 C4 1_555 1_555
H4 C5 1_555 1_555
H5 N1 1_555 1_555
H6 N2 1_555 1_555
H7 N2 1_555 1_555
H8 N3 1_555 1_555
H9 N3 1_555 1_555
N1 C3 1_555 1_555
N2 C7 1_555 1_555
N3 C7 1_555 1_555
O1 S1 1_555 1_555
O2 S1 1_555 1_555
O3 S1 1_555 1_555
S1 C6 1_555 1_555

#END
