
#######################################################################
#
#                 Cambridge Crystallographic Data Centre
#                                CCDC 
#
#######################################################################
#
# If this CIF has been generated from an entry in the Cambridge 
# Structural Database, then it will include bibliographic, chemical, 
# crystal, experimental, refinement or atomic coordinate data resulting 
# from the CCDC's data processing and validation procedures.
#
#######################################################################

data_MOTGOS
_chemical_formula_moiety         'C11 H15 N1 O2'
_chemical_name_systematic        N-(4-isopropoxyphenyl)acetamide
_symmetry_cell_setting           orthorhombic
_symmetry_space_group_name_H-M   'P b c a'
_symmetry_Int_Tables_number      61
_space_group_name_Hall           '-P 2ac 2ab'
loop_
_symmetry_equiv_pos_site_id
_symmetry_equiv_pos_as_xyz
1 x,y,z
2 1/2-x,-y,1/2+z
3 1/2+x,1/2-y,-z
4 -x,1/2+y,1/2-z
5 -x,-y,-z
6 1/2+x,y,1/2-z
7 1/2-x,1/2+y,z
8 x,1/2-y,1/2+z
_cell_length_a                   9.3010(19)
_cell_length_b                   7.6490(15)
_cell_length_c                   31.394(6)
_cell_angle_alpha                90
_cell_angle_beta                 90
_cell_angle_gamma                90
_cell_volume                     2233.47
_exptl_crystal_colour            colorless
_exptl_crystal_description       block
_chemical_melting_point          '403 K'
_cell_formula_units_Z            8
_exptl_crystal_recrystallization_method 'ethyl acetate'
loop_
_atom_site_label
_atom_site_type_symbol
_atom_site_fract_x
_atom_site_fract_y
_atom_site_fract_z
N1 N 0.5437(3) 0.2110(3) 0.52353(8)
H1 H 0.4609 0.2564 0.5183
O1 O 0.5722(3) -0.0692(3) 0.68713(7)
O2 O 0.7614(2) 0.1579(3) 0.49473(7)
C1 C 0.5187(7) -0.3739(7) 0.67643(15)
H2 H 0.5192 -0.3613 0.6460
H3 H 0.4231 -0.3546 0.6870
H4 H 0.5494 -0.4897 0.6839
C2 C 0.6254(7) -0.2587(7) 0.74329(13)
H5 H 0.6915 -0.1733 0.7542
H6 H 0.6577 -0.3737 0.7510
H7 H 0.5318 -0.2385 0.7552
C3 C 0.6181(5) -0.2437(6) 0.69566(12)
H8 H 0.7146 -0.2607 0.6838
C4 C 0.5728(4) -0.0080(4) 0.64580(11)
C5 C 0.6698(3) -0.0586(4) 0.61512(10)
H9 H 0.7396 -0.1415 0.6215
C6 C 0.6637(3) 0.0134(4) 0.57479(10)
H10 H 0.7297 -0.0221 0.5543
C7 C 0.5608(3) 0.1378(4) 0.56435(9)
C8 C 0.4652(4) 0.1886(5) 0.59609(12)
H11 H 0.3955 0.2722 0.5900
C9 C 0.4712(4) 0.1183(5) 0.63610(11)
H12 H 0.4069 0.1555 0.6569
C10 C 0.6390(3) 0.2191(4) 0.49183(10)
C11 C 0.5892(4) 0.3070(5) 0.45170(11)
H13 H 0.6652 0.3047 0.4310
H14 H 0.5638 0.4260 0.4578
H15 H 0.5069 0.2464 0.4406
loop_
_geom_bond_atom_site_label_1
_geom_bond_atom_site_label_2
_geom_bond_site_symmetry_1
_geom_bond_site_symmetry_2
N1 H1 1_555 1_555
O1 C3 1_555 1_555
O2 C10 1_555 1_555
C1 H2 1_555 1_555
H3 C1 1_555 1_555
H4 C1 1_555 1_555
C2 H5 1_555 1_555
H6 C2 1_555 1_555
H7 C2 1_555 1_555
C3 C1 1_555 1_555
H8 C3 1_555 1_555
C4 O1 1_555 1_555
C5 C4 1_555 1_555
H9 C5 1_555 1_555
C6 C5 1_555 1_555
H10 C6 1_555 1_555
C7 N1 1_555 1_555
C8 C7 1_555 1_555
H11 C8 1_555 1_555
C9 C4 1_555 1_555
H12 C9 1_555 1_555
C10 N1 1_555 1_555
C11 C10 1_555 1_555
H13 C11 1_555 1_555
H14 C11 1_555 1_555
H15 C11 1_555 1_555
C2 C3 1_555 1_555
C6 C7 1_555 1_555
C8 C9 1_555 1_555

#END
