
#######################################################################
#
#                 Cambridge Crystallographic Data Centre
#                                CCDC 
#
#######################################################################
#
# If this CIF has been generated from an entry in the Cambridge 
# Structural Database, then it will include bibliographic, chemical, 
# crystal, experimental, refinement or atomic coordinate data resulting 
# from the CCDC's data processing and validation procedures.
#
#######################################################################

data_MOTGEI
_chemical_formula_moiety         'C19 H13 N5,3(C1 H4 O1)'
_chemical_name_systematic        
"2,2'-(2,6-pyridinediyl)bis-1H-benzimidazole methanol solvate"
_symmetry_cell_setting           monoclinic
_symmetry_space_group_name_H-M   'P 21/n'
_symmetry_Int_Tables_number      14
_space_group_name_Hall           '-P 2yn'
loop_
_symmetry_equiv_pos_site_id
_symmetry_equiv_pos_as_xyz
1 x,y,z
2 1/2-x,1/2+y,1/2-z
3 -x,-y,-z
4 1/2+x,1/2-y,1/2+z
_cell_length_a                   11.2686(9)
_cell_length_b                   15.0928(13)
_cell_length_c                   13.0679(11)
_cell_angle_alpha                90
_cell_angle_beta                 107.391(2)
_cell_angle_gamma                90
_cell_volume                     2120.92
_cell_formula_units_Z            4
loop_
_atom_site_label
_atom_site_type_symbol
_atom_site_fract_x
_atom_site_fract_y
_atom_site_fract_z
O1 O 0.20534(18) 0.61337(13) 0.36351(15)
H1 H 0.2509 0.6582 0.3816
C20 C 0.1118(3) 0.6305(3) 0.2645(3)
H14 H 0.0453 0.6661 0.2780
H15 H 0.0773 0.5742 0.2312
H16 H 0.1484 0.6628 0.2163
O2 O 0.65988(19) 0.23950(14) 0.57774(17)
H2 H 0.6009 0.2626 0.5299
C21 C 0.7174(4) 0.1739(3) 0.5314(4)
H17 H 0.7639 0.2025 0.4879
H18 H 0.6536 0.1350 0.4858
H19 H 0.7745 0.1389 0.5883
N1 N 0.11042(19) 0.58598(15) 0.54657(17)
N2 N 0.0754(2) 0.53929(15) 0.69788(17)
N3 N 0.3694(2) 0.46017(15) 0.38227(18)
N4 N 0.4825(2) 0.33787(15) 0.43304(18)
N5 N 0.27120(19) 0.45211(14) 0.54781(16)
C1 C 0.0280(2) 0.64631(18) 0.5671(2)
C2 C -0.0274(2) 0.72243(19) 0.5148(2)
H3 H -0.0109 0.7432 0.4518
C3 C -0.1076(3) 0.7667(2) 0.5589(2)
H4 H -0.1476 0.8191 0.5254
C4 C -0.1313(3) 0.7359(2) 0.6519(2)
H5 H -0.1875 0.7680 0.6795
C5 C -0.0761(2) 0.6613(2) 0.7043(2)
H6 H -0.0930 0.6411 0.7674
C6 C 0.0060(2) 0.61602(18) 0.6613(2)
C7 C 0.1350(2) 0.52423(17) 0.6263(2)
C8 C 0.2211(2) 0.45155(17) 0.62863(19)
C9 C 0.2477(2) 0.38735(18) 0.7084(2)
H7 H 0.2096 0.3888 0.7641
C10 C 0.3312(2) 0.32126(18) 0.7045(2)
H8 H 0.3520 0.2767 0.7582
C11 C 0.3837(2) 0.32049(18) 0.6221(2)
H9 H 0.4411 0.2755 0.6181
C12 C 0.3512(2) 0.38721(17) 0.5444(2)
C13 C 0.4022(2) 0.39322(17) 0.4542(2)
C14 C 0.5051(2) 0.37188(19) 0.3421(2)
C15 C 0.5848(3) 0.3422(2) 0.2854(2)
H10 H 0.6334 0.2901 0.3066
C16 C 0.5905(3) 0.3906(2) 0.1981(3)
H11 H 0.6442 0.3717 0.1584
C17 C 0.5188(3) 0.4674(2) 0.1662(2)
H12 H 0.5244 0.4990 0.1049
C18 C 0.4406(3) 0.4980(2) 0.2211(2)
H13 H 0.3930 0.5504 0.1999
C19 C 0.4344(2) 0.44882(18) 0.3089(2)
H28 H 0.144(3) 0.589(2) 0.4954(17)
H29 H 0.316(3) 0.5018(17) 0.380(3)
O3 O 0.1278(5) 0.5658(3) 0.9743(4)
H20 H 0.1412 0.5425 1.0350
C22 C 0.2186(8) 0.5366(7) 0.9269(9)
H21 H 0.2730 0.5862 0.9227
H22 H 0.1774 0.5142 0.8547
H23 H 0.2681 0.4892 0.9707
O4? O 0.0859(9) 0.4916(6) 0.8986(6)
H24? H 0.0325 0.5092 0.9272
C23? C 0.1816(12) 0.5468(13) 0.9232(18)
H25? H 0.1522 0.6072 0.9022
H26? H 0.2405 0.5293 0.8848
H27? H 0.2230 0.5449 1.0006
loop_
_geom_bond_atom_site_label_1
_geom_bond_atom_site_label_2
_geom_bond_site_symmetry_1
_geom_bond_site_symmetry_2
O1 H1 1_555 1_555
O2 H2 1_555 1_555
N1 C1 1_555 1_555
N2 C6 1_555 1_555
N3 C13 1_555 1_555
N4 C13 1_555 1_555
N5 C8 1_555 1_555
C1 C2 1_555 1_555
C2 H3 1_555 1_555
C3 C2 1_555 1_555
H4 C3 1_555 1_555
C4 C3 1_555 1_555
H5 C4 1_555 1_555
C5 C4 1_555 1_555
H6 C5 1_555 1_555
C6 C1 1_555 1_555
C7 N1 1_555 1_555
C8 C7 1_555 1_555
C9 C8 1_555 1_555
H7 C9 1_555 1_555
C10 C9 1_555 1_555
H8 C10 1_555 1_555
C11 C10 1_555 1_555
H9 C11 1_555 1_555
C12 N5 1_555 1_555
C13 C12 1_555 1_555
C14 N4 1_555 1_555
C15 C14 1_555 1_555
H10 C15 1_555 1_555
C16 C15 1_555 1_555
H11 C16 1_555 1_555
C17 C16 1_555 1_555
H12 C17 1_555 1_555
C18 C17 1_555 1_555
H13 C18 1_555 1_555
C19 N3 1_555 1_555
C20 O1 1_555 1_555
H14 C20 1_555 1_555
H15 C20 1_555 1_555
H16 C20 1_555 1_555
C21 O2 1_555 1_555
H17 C21 1_555 1_555
H18 C21 1_555 1_555
H19 C21 1_555 1_555
O3 H20 1_555 1_555
C22 O3 1_555 1_555
H21 C22 1_555 1_555
H22 C22 1_555 1_555
H23 C22 1_555 1_555
H28 N1 1_555 1_555
H29 N3 1_555 1_555
N2 C7 1_555 1_555
C5 C6 1_555 1_555
C11 C12 1_555 1_555
C14 C19 1_555 1_555
C18 C19 1_555 1_555

#END
