
#######################################################################
#
#                 Cambridge Crystallographic Data Centre
#                                CCDC 
#
#######################################################################
#
# If this CIF has been generated from an entry in the Cambridge 
# Structural Database, then it will include bibliographic, chemical, 
# crystal, experimental, refinement or atomic coordinate data resulting 
# from the CCDC's data processing and validation procedures.
#
#######################################################################

data_MOTHOT
_chemical_formula_moiety         'C27 H34 Cl1 N1'
_chemical_name_systematic        
(E)-N-(4-chlorobenzylidene)((1R,4aS,10aR)-7-isopropyl-1,4a-dimethyl-1,2,3,4,4a,9,10,10a-octahydrophenanthren-1-yl)methanamine
_symmetry_cell_setting           triclinic
_symmetry_space_group_name_H-M   'P 1'
_symmetry_Int_Tables_number      1
_space_group_name_Hall           'P 1'
loop_
_symmetry_equiv_pos_site_id
_symmetry_equiv_pos_as_xyz
1 x,y,z
_cell_length_a                   5.9251(13)
_cell_length_b                   10.783(2)
_cell_length_c                   19.163(4)
_cell_angle_alpha                77.402(4)
_cell_angle_beta                 85.281(4)
_cell_angle_gamma                78.224(4)
_cell_volume                     1168.79
_cell_formula_units_Z            2
_exptl_crystal_recrystallization_method ethanol
loop_
_atom_site_label
_atom_site_type_symbol
_atom_site_fract_x
_atom_site_fract_y
_atom_site_fract_z
Cl1 Cl 0.6448(3) 0.02443(14) 0.95448(8)
N1 N 0.7860(7) 0.3166(4) 0.6107(2)
C1 C 0.7205(9) 0.1028(5) 0.8705(3)
C2 C 0.9094(9) 0.1611(5) 0.8606(3)
H1 H 0.9956 0.1589 0.8994
C3 C 0.9705(8) 0.2225(4) 0.7935(3)
H2 H 1.0990 0.2616 0.7875
C4 C 0.8469(8) 0.2281(4) 0.7343(3)
C5 C 0.6553(8) 0.1692(5) 0.7456(3)
H3 H 0.5657 0.1731 0.7073
C6 C 0.5960(9) 0.1047(5) 0.8136(3)
H4 H 0.4710 0.0627 0.8201
C7 C 0.9126(8) 0.2933(4) 0.6630(3)
H5 H 1.0550 0.3187 0.6560
C8 C 0.8646(8) 0.3851(4) 0.5415(3)
H6 H 0.8625 0.3336 0.5059
H7 H 1.0228 0.3941 0.5446
C9 C 0.7154(7) 0.5202(4) 0.5167(2)
C10 C 0.8146(7) 0.5824(4) 0.4425(2)
H8 H 0.9784 0.5763 0.4501
C11 C 0.7210(7) 0.7305(4) 0.4151(2)
C12 C 0.7548(8) 0.8004(4) 0.4746(2)
H9 H 0.9187 0.7944 0.4794
H10 H 0.6856 0.8914 0.4607
C13 C 0.6485(9) 0.7440(4) 0.5468(3)
H11 H 0.6798 0.7893 0.5824
H12 H 0.4825 0.7576 0.5434
C14 C 0.7427(8) 0.6014(4) 0.5706(2)
H13 H 0.6647 0.5694 0.6154
H14 H 0.9052 0.5895 0.5795
C15 C 0.4640(7) 0.5042(5) 0.5161(3)
H15 H 0.4268 0.4467 0.5593
H16 H 0.4446 0.4688 0.4756
H17 H 0.3634 0.5870 0.5129
C16 C 0.4675(8) 0.7659(5) 0.3954(3)
H18 H 0.4323 0.8551 0.3713
H19 H 0.3711 0.7529 0.4382
H20 H 0.4400 0.7120 0.3645
C17 C 0.8139(10) 0.5098(5) 0.3828(3)
H21 H 0.6631 0.5313 0.3622
H22 H 0.8497 0.4171 0.4014
C18 C 0.9984(10) 0.5508(5) 0.3255(3)
H23 H 1.1502 0.5107 0.3434
H24 H 0.9815 0.5190 0.2830
C19 C 0.9824(8) 0.6944(5) 0.3056(3)
C20 C 0.8615(7) 0.7769(5) 0.3472(2)
C21 C 0.8602(9) 0.9086(5) 0.3231(3)
H25 H 0.7773 0.9671 0.3494
C22 C 0.9813(10) 0.9543(6) 0.2601(3)
H26 H 0.9744 1.0429 0.2447
C23 C 1.1104(10) 0.8706(7) 0.2206(3)
C24 C 1.1028(10) 0.7438(6) 0.2432(3)
H27 H 1.1818 0.6862 0.2158
C25 C 1.2466(12) 0.9226(9) 0.1527(3)
H28 H 1.2850 0.8435 0.1334
C26 C 1.4624(18) 0.9347(17) 0.1631(5)
H29 H 1.4710 1.0249 0.1538
H30 H 1.5689 0.8922 0.1313
H31 H 1.5012 0.8958 0.2117
C27 C 1.1113(15) 1.0014(10) 0.0974(4)
H32 H 1.0691 1.0878 0.1060
H33 H 0.9744 0.9677 0.0956
H34 H 1.1976 1.0029 0.0527
Cl2 Cl 0.2808(4) 1.21464(16) 0.31626(9)
N2 N 0.1431(7) 0.9440(4) 0.6648(2)
C28 C 0.2749(11) 1.1576(5) 0.4080(3)
C29 C 0.1183(10) 1.0864(5) 0.4400(3)
H35 H 0.0073 1.0711 0.4130
C30 C 0.1221(9) 1.0363(5) 0.5123(3)
H36 H 0.0150 0.9861 0.5336
C31 C 0.2824(9) 1.0595(4) 0.5536(3)
C32 C 0.4389(9) 1.1340(5) 0.5202(3)
H37 H 0.5472 1.1519 0.5472
C33 C 0.4375(11) 1.1821(5) 0.4476(4)
H38 H 0.5459 1.2310 0.4255
C34 C 0.2938(9) 1.0030(4) 0.6301(3)
H39 H 0.4180 1.0108 0.6544
C35 C 0.1799(8) 0.8904(4) 0.7406(2)
H40 H 0.0820 0.9468 0.7685
H41 H 0.3390 0.8881 0.7502
C36 C 0.1272(7) 0.7531(4) 0.7642(2)
C37 C 0.2219(7) 0.6963(4) 0.8400(2)
H42 H 0.3820 0.7091 0.8352
C38 C 0.2411(7) 0.5500(4) 0.8699(2)
C39 C 0.3723(8) 0.4789(4) 0.8129(2)
H43 H 0.5315 0.4899 0.8093
H44 H 0.3717 0.3871 0.8283
C40 C 0.2700(9) 0.5267(5) 0.7394(2)
H45 H 0.3622 0.4798 0.7058
H46 H 0.1150 0.5091 0.7418
C41 C 0.2618(7) 0.6700(4) 0.7130(2)
H47 H 0.1910 0.6970 0.6668
H48 H 0.4184 0.6857 0.7060
C42 C -0.1340(7) 0.7623(5) 0.7600(3)
H49 H -0.2134 0.7978 0.7990
H50 H -0.1657 0.6775 0.7627
H51 H -0.1858 0.8174 0.7155
C43 C 0.0055(8) 0.5064(5) 0.8883(3)
H52 H 0.0302 0.4186 0.9149
H53 H -0.0693 0.5117 0.8448
H54 H -0.0901 0.5617 0.9165
C44 C 0.3735(7) 0.5133(4) 0.9388(2)
C45 C 0.3904(8) 0.6028(5) 0.9786(2)
C46 C 0.2772(12) 0.7434(5) 0.9571(3)
H55 H 0.3964 0.7945 0.9422
H56 H 0.1944 0.7711 0.9985
C47 C 0.1115(10) 0.7707(5) 0.8972(3)
H57 H 0.0781 0.8628 0.8769
H58 H -0.0322 0.7437 0.9156
C48 C 0.4797(8) 0.3865(5) 0.9648(2)
H59 H 0.4690 0.3239 0.9393
C49 C 0.5999(9) 0.3491(6) 1.0264(3)
H60 H 0.6649 0.2622 1.0422
C50 C 0.6257(10) 0.4384(7) 1.0652(3)
C51 C 0.5164(10) 0.5645(6) 1.0417(3)
H61 H 0.5255 0.6261 1.0681
C52 C 0.7630(13) 0.4000(8) 1.1328(3)
H62 H 0.8033 0.3058 1.1375
C53 C 0.6399(15) 0.4085(13) 1.1956(4)
H63 H 0.7389 0.3710 1.2350
H64 H 0.5150 0.3627 1.1995
H65 H 0.5792 0.4978 1.1964
C54 C 0.9861(14) 0.4327(14) 1.1228(4)
H66 H 0.9708 0.5251 1.1097
H67 H 1.0709 0.3943 1.0855
H68 H 1.0670 0.4009 1.1665
loop_
_geom_bond_atom_site_label_1
_geom_bond_atom_site_label_2
_geom_bond_site_symmetry_1
_geom_bond_site_symmetry_2
Cl1 C1 1_555 1_555
Cl2 C28 1_555 1_555
N1 C7 1_555 1_555
N2 C34 1_555 1_555
C1 C2 1_555 1_555
C2 H1 1_555 1_555
C3 C2 1_555 1_555
H2 C3 1_555 1_555
C4 C3 1_555 1_555
C5 C4 1_555 1_555
H3 C5 1_555 1_555
C6 C1 1_555 1_555
H4 C6 1_555 1_555
C7 C4 1_555 1_555
H5 C7 1_555 1_555
C8 N1 1_555 1_555
H6 C8 1_555 1_555
H7 C8 1_555 1_555
C9 C8 1_555 1_555
C10 C9 1_555 1_555
H8 C10 1_555 1_555
C11 C10 1_555 1_555
C12 C11 1_555 1_555
H9 C12 1_555 1_555
H10 C12 1_555 1_555
C13 C12 1_555 1_555
H11 C13 1_555 1_555
H12 C13 1_555 1_555
C14 C9 1_555 1_555
H13 C14 1_555 1_555
H14 C14 1_555 1_555
C15 C9 1_555 1_555
H15 C15 1_555 1_555
H16 C15 1_555 1_555
H17 C15 1_555 1_555
C16 C11 1_555 1_555
H18 C16 1_555 1_555
H19 C16 1_555 1_555
H20 C16 1_555 1_555
C17 C10 1_555 1_555
H21 C17 1_555 1_555
H22 C17 1_555 1_555
C18 C17 1_555 1_555
H23 C18 1_555 1_555
H24 C18 1_555 1_555
C19 C18 1_555 1_555
C20 C11 1_555 1_555
C21 C20 1_555 1_555
H25 C21 1_555 1_555
C22 C21 1_555 1_555
H26 C22 1_555 1_555
C23 C22 1_555 1_555
C24 C19 1_555 1_555
H27 C24 1_555 1_555
C25 C23 1_555 1_555
H28 C25 1_555 1_555
C26 C25 1_555 1_555
H29 C26 1_555 1_555
H30 C26 1_555 1_555
H31 C26 1_555 1_555
C27 C25 1_555 1_555
H32 C27 1_555 1_555
H33 C27 1_555 1_555
H34 C27 1_555 1_555
C28 C29 1_555 1_555
C29 H35 1_555 1_555
C30 C29 1_555 1_555
H36 C30 1_555 1_555
C31 C30 1_555 1_555
C32 C31 1_555 1_555
H37 C32 1_555 1_555
C33 C28 1_555 1_555
H38 C33 1_555 1_555
C34 C31 1_555 1_555
H39 C34 1_555 1_555
C35 N2 1_555 1_555
H40 C35 1_555 1_555
H41 C35 1_555 1_555
C36 C35 1_555 1_555
C37 C36 1_555 1_555
H42 C37 1_555 1_555
C38 C37 1_555 1_555
C39 C38 1_555 1_555
H43 C39 1_555 1_555
H44 C39 1_555 1_555
C40 C39 1_555 1_555
H45 C40 1_555 1_555
H46 C40 1_555 1_555
C41 C36 1_555 1_555
H47 C41 1_555 1_555
H48 C41 1_555 1_555
C42 C36 1_555 1_555
H49 C42 1_555 1_555
H50 C42 1_555 1_555
H51 C42 1_555 1_555
C43 C38 1_555 1_555
H52 C43 1_555 1_555
H53 C43 1_555 1_555
H54 C43 1_555 1_555
C44 C38 1_555 1_555
C45 C44 1_555 1_555
C46 C45 1_555 1_555
H55 C46 1_555 1_555
H56 C46 1_555 1_555
C47 C37 1_555 1_555
H57 C47 1_555 1_555
H58 C47 1_555 1_555
C48 C44 1_555 1_555
H59 C48 1_555 1_555
C49 C48 1_555 1_555
H60 C49 1_555 1_555
C50 C49 1_555 1_555
C51 C45 1_555 1_555
H61 C51 1_555 1_555
C52 C50 1_555 1_555
H62 C52 1_555 1_555
C53 C52 1_555 1_555
H63 C53 1_555 1_555
H64 C53 1_555 1_555
H65 C53 1_555 1_555
C54 C52 1_555 1_555
H66 C54 1_555 1_555
H67 C54 1_555 1_555
H68 C54 1_555 1_555
C5 C6 1_555 1_555
C13 C14 1_555 1_555
C19 C20 1_555 1_555
C23 C24 1_555 1_555
C32 C33 1_555 1_555
C40 C41 1_555 1_555
C46 C47 1_555 1_555
C50 C51 1_555 1_555

#END
