
#######################################################################
#
#                 Cambridge Crystallographic Data Centre
#                                CCDC 
#
#######################################################################
#
# If this CIF has been generated from an entry in the Cambridge 
# Structural Database, then it will include bibliographic, chemical, 
# crystal, experimental, refinement or atomic coordinate data resulting 
# from the CCDC's data processing and validation procedures.
#
#######################################################################

data_MOTJAI
_chemical_name_common            
'5,11,17,23-tetra-t-butyl-25-([3-(anthracen-9-yl)-1,2,4-oxadiazol-5-yl]methanolate)-27-(cyanomethanolate)-26,28-dihydroxycalix(4)arene scet solvate'
_chemical_formula_moiety         'C63 H67 N3 O5,3(C2 H3 N1)'
_chemical_name_systematic        
'((27-((3-(9-anthryl)-1,2,4-oxadiazol-5-yl)methoxy)-5,11,17,23-tetra-t-butyl-26,28-dihydroxypentacyclo[19.3.1.1^3,7^.1^9,13^.1^15,19^]octacosa-1(25),3(28),4,6,9(27),10,12,15(26),16,18,21,23-dodecaen-25-yl)oxy) acetonitrile solvate'
_symmetry_cell_setting           triclinic
_symmetry_space_group_name_H-M   'P -1'
_symmetry_Int_Tables_number      2
_space_group_name_Hall           '-P 1'
loop_
_symmetry_equiv_pos_site_id
_symmetry_equiv_pos_as_xyz
1 x,y,z
2 -x,-y,-z
_cell_length_a                   11.6842(4)
_cell_length_b                   12.7268(4)
_cell_length_c                   21.0351(7)
_cell_angle_alpha                87.302(3)
_cell_angle_beta                 81.672(3)
_cell_angle_gamma                77.419(3)
_cell_volume                     3020.28
_cell_formula_units_Z            2
loop_
_atom_site_label
_atom_site_type_symbol
_atom_site_fract_x
_atom_site_fract_y
_atom_site_fract_z
O1 O 0.73557(14) 0.32806(12) 0.47063(7)
O2 O 0.92856(11) 0.27444(11) 0.37480(6)
O3 O 0.69830(12) 0.27117(12) 0.33365(6)
H1 H 0.668(2) 0.334(2) 0.3369(12)
O4 O 0.61732(11) 0.48881(11) 0.33574(6)
O5 O 0.85803(12) 0.49053(12) 0.36287(7)
H2 H 0.884(3) 0.425(3) 0.3712(17)
N1 N 0.73348(15) 0.15544(13) 0.47623(8)
N2 N 0.61793(16) 0.32065(15) 0.49520(9)
N3 N 0.3171(2) 0.5565(3) 0.35725(14)
C1 C 0.92482(17) 0.20924(16) 0.43281(8)
H3 H 0.9715 0.2320 0.4633
H4 H 0.9575 0.1324 0.4229
C2 C 0.79643(17) 0.22637(16) 0.46086(8)
C3 C 0.62336(17) 0.21761(16) 0.49783(8)
C4 C 0.51796(17) 0.17154(14) 0.52277(9)
C5 C 0.44265(17) 0.15555(14) 0.48009(10)
C6 C 0.45830(18) 0.18387(16) 0.41302(10)
H5 H 0.5231 0.2154 0.3960
C7 C 0.3821(2) 0.16647(18) 0.37331(11)
H6 H 0.3944 0.1860 0.3291
C8 C 0.2842(2) 0.11933(18) 0.39734(12)
H7 H 0.2320 0.1076 0.3690
C9 C 0.26498(19) 0.09105(17) 0.46009(13)
H8 H 0.1991 0.0599 0.4755
C10 C 0.34305(17) 0.10758(15) 0.50380(11)
C11 C 0.32702(17) 0.07633(15) 0.56829(11)
H9 H 0.2621 0.0440 0.5839
C12 C 0.40314(18) 0.09105(15) 0.61038(10)
C13 C 0.3874(2) 0.05758(17) 0.67603(11)
H10 H 0.3249 0.0220 0.6912
C14 C 0.4600(2) 0.0754(2) 0.71746(11)
H11 H 0.4474 0.0534 0.7612
C15 C 0.5549(2) 0.1270(2) 0.69500(12)
H12 H 0.6049 0.1402 0.7242
C16 C 0.57534(19) 0.15783(18) 0.63254(11)
H13 H 0.6400 0.1913 0.6185
C17 C 0.50094(17) 0.14058(15) 0.58760(10)
C18 C 1.00881(15) 0.23256(14) 0.32227(8)
C19 C 1.09996(15) 0.28657(14) 0.30081(8)
C20 C 1.17776(15) 0.25102(15) 0.24546(9)
H14 H 1.2393 0.2880 0.2307
C21 C 1.16808(15) 0.16395(15) 0.21153(9)
C22 C 1.07520(15) 0.11162(14) 0.23402(8)
H15 H 1.0681 0.0507 0.2116
C23 C 0.99312(15) 0.14596(14) 0.28804(8)
C24 C 0.88542(15) 0.09502(13) 0.30264(8)
H16 H 0.9104 0.0160 0.2977
H17 H 0.8482 0.1098 0.3476
C25 C 0.79613(15) 0.14071(14) 0.25702(8)
C26 C 0.80613(15) 0.09589(14) 0.19689(8)
H18 H 0.8656 0.0330 0.1862
C27 C 0.73164(15) 0.14020(15) 0.15141(8)
C28 C 0.64289(14) 0.22962(14) 0.16995(8)
H19 H 0.5906 0.2608 0.1402
C29 C 0.62749(14) 0.27526(14) 0.23028(8)
C30 C 0.70595(15) 0.23147(14) 0.27358(8)
C31 C 0.52975(14) 0.37413(14) 0.24665(8)
H20 H 0.5007 0.3732 0.2932
H21 H 0.4628 0.3723 0.2231
C32 C 0.57389(14) 0.47753(14) 0.22898(9)
C33 C 0.57797(15) 0.51607(14) 0.16538(9)
H22 H 0.5475 0.4803 0.1351
C34 C 0.62530(15) 0.60510(14) 0.14537(9)
C35 C 0.67289(16) 0.65325(14) 0.19081(9)
H23 H 0.7063 0.7138 0.1778
C36 C 0.67350(15) 0.61661(14) 0.25404(9)
C37 C 0.61954(14) 0.53031(14) 0.27271(8)
C38 C 0.74123(16) 0.66505(14) 0.29734(9)
H24 H 0.7238 0.7443 0.2918
H25 H 0.7149 0.6479 0.3428
C39 C 0.87354(16) 0.62148(15) 0.28163(9)
C40 C 0.94136(18) 0.66753(16) 0.23222(9)
H26 H 0.9041 0.7293 0.2099
C41 C 1.06139(18) 0.62589(17) 0.21475(10)
C42 C 1.11417(16) 0.53649(16) 0.24968(9)
H27 H 1.1966 0.5076 0.2392
C43 C 1.04969(16) 0.48851(14) 0.29932(8)
C44 C 0.92832(16) 0.53122(14) 0.31490(8)
C45 C 1.11027(15) 0.38824(15) 0.33338(8)
H28 H 1.0734 0.3877 0.3788
H29 H 1.1949 0.3893 0.3327
C46 C 0.53168(18) 0.54965(17) 0.38252(9)
H30 H 0.5456 0.6236 0.3831
H31 H 0.5405 0.5164 0.4255
C47 C 0.41043(19) 0.5548(2) 0.36891(11)
C48 C 1.25014(17) 0.12552(17) 0.14974(9)
C49 C 1.3138(3) 0.0090(3) 0.15684(19)
H32 H 1.3618 0.0024 0.1920
H33 H 1.3653 -0.0142 0.1167
H34 H 1.2555 -0.0365 0.1664
C50 C 1.1765(2) 0.1310(3) 0.09434(12)
H35 H 1.2291 0.1063 0.0548
H36 H 1.1343 0.2054 0.0882
H37 H 1.1192 0.0846 0.1047
C51 C 1.3403(3) 0.1955(3) 0.12995(14)
H38 H 1.3892 0.1940 0.1642
H39 H 1.2988 0.2697 0.1225
H40 H 1.3909 0.1677 0.0904
C52 C 0.74648(16) 0.08743(16) 0.08576(9)
C53 C 0.87635(18) 0.0601(2) 0.05630(10)
H41 H 0.9222 0.0116 0.0855
H42 H 0.9066 0.1264 0.0495
H43 H 0.8837 0.0248 0.0150
C54 C 0.6973(3) -0.0143(2) 0.09537(13)
H44 H 0.7394 -0.0625 0.1261
H45 H 0.7080 -0.0505 0.0542
H46 H 0.6127 0.0047 0.1120
C55 C 0.6802(2) 0.1629(2) 0.03774(11)
H47 H 0.6915 0.1268 -0.0036
H48 H 0.7113 0.2288 0.0318
H49 H 0.5956 0.1812 0.0543
C56 C 0.62980(18) 0.65028(16) 0.07650(9)
C57 C 0.5830(3) 0.5821(2) 0.03236(11)
H50 H 0.5011 0.5790 0.0493
H51 H 0.6322 0.5090 0.0304
H52 H 0.5857 0.6145 -0.0109
C58 C 0.5516(2) 0.76453(18) 0.07780(11)
H53 H 0.4699 0.7614 0.0953
H54 H 0.5536 0.7947 0.0340
H55 H 0.5814 0.8102 0.1049
C59 C 0.7573(2) 0.6549(2) 0.04912(12)
H56 H 0.7596 0.6840 0.0051
H57 H 0.8072 0.5822 0.0489
H58 H 0.7869 0.7014 0.0758
C60 C 1.1368(2) 0.6727(2) 0.15908(14)
C61 C 1.1899(5) 0.5865(4) 0.10886(19)
H59 H 1.1261 0.5640 0.0911
H60 H 1.2376 0.5242 0.1290
H61 H 1.2402 0.6158 0.0742
C62 C 1.0668(3) 0.7708(3) 0.12792(19)
H62 H 1.0008 0.7513 0.1107
H63 H 1.1184 0.7976 0.0929
H64 H 1.0358 0.8271 0.1600
C63 C 1.2409(3) 0.7061(4) 0.1854(3)
H65 H 1.2094 0.7621 0.2176
H66 H 1.2909 0.7339 0.1501
H67 H 1.2881 0.6433 0.2053
N4 N 0.0440(5) 0.9358(3) 0.4178(2)
C64 C 0.0569(3) 0.8609(2) 0.39026(14)
C65 C 0.0750(8) 0.7651(6) 0.3564(4)
H68 H 0.1327 0.7674 0.3179
H69 H -0.0002 0.7571 0.3437
H70 H 0.1049 0.7039 0.3838
N5 N 0.8996(6) 0.3497(3) 0.0529(2)
C66 C 0.9037(3) 0.3670(2) 0.10479(15)
C67 C 0.9067(2) 0.38842(19) 0.17047(12)
H71 H 0.8270 0.4224 0.1906
H72 H 0.9606 0.4369 0.1728
H73 H 0.9346 0.3207 0.1932
N6 N 0.9762(5) 0.6378(5) 0.4724(3)
C68 C 0.8828(4) 0.6147(3) 0.48730(17)
C69 C 0.7711(3) 0.5859(3) 0.50416(16)
H74 H 0.7404 0.5726 0.4650
H75 H 0.7155 0.6448 0.5278
H76 H 0.7805 0.5206 0.5312
loop_
_geom_bond_atom_site_label_1
_geom_bond_atom_site_label_2
_geom_bond_site_symmetry_1
_geom_bond_site_symmetry_2
O1 N2 1_555 1_555
O2 C1 1_555 1_555
O3 H1 1_555 1_555
O4 C37 1_555 1_555
O5 H2 1_555 1_555
N1 C2 1_555 1_555
N2 C3 1_555 1_555
N3 C47 1_555 1_555
C1 H3 1_555 1_555
H4 C1 1_555 1_555
C2 O1 1_555 1_555
C3 N1 1_555 1_555
C4 C3 1_555 1_555
C5 C4 1_555 1_555
C6 C5 1_555 1_555
H5 C6 1_555 1_555
C7 C6 1_555 1_555
H6 C7 1_555 1_555
C8 C7 1_555 1_555
H7 C8 1_555 1_555
C9 C8 1_555 1_555
H8 C9 1_555 1_555
C10 C5 1_555 1_555
C11 C10 1_555 1_555
H9 C11 1_555 1_555
C12 C11 1_555 1_555
C13 C12 1_555 1_555
H10 C13 1_555 1_555
C14 C13 1_555 1_555
H11 C14 1_555 1_555
C15 C14 1_555 1_555
H12 C15 1_555 1_555
C16 C15 1_555 1_555
H13 C16 1_555 1_555
C17 C4 1_555 1_555
C18 O2 1_555 1_555
C19 C18 1_555 1_555
C20 C19 1_555 1_555
H14 C20 1_555 1_555
C21 C20 1_555 1_555
C22 C21 1_555 1_555
H15 C22 1_555 1_555
C23 C18 1_555 1_555
C24 C23 1_555 1_555
H16 C24 1_555 1_555
H17 C24 1_555 1_555
C25 C24 1_555 1_555
C26 C25 1_555 1_555
H18 C26 1_555 1_555
C27 C26 1_555 1_555
C28 C27 1_555 1_555
H19 C28 1_555 1_555
C29 C28 1_555 1_555
C30 O3 1_555 1_555
C31 C29 1_555 1_555
H20 C31 1_555 1_555
H21 C31 1_555 1_555
C32 C31 1_555 1_555
C33 C32 1_555 1_555
H22 C33 1_555 1_555
C34 C33 1_555 1_555
C35 C34 1_555 1_555
H23 C35 1_555 1_555
C36 C35 1_555 1_555
C37 C32 1_555 1_555
C38 C36 1_555 1_555
H24 C38 1_555 1_555
H25 C38 1_555 1_555
C39 C38 1_555 1_555
C40 C39 1_555 1_555
H26 C40 1_555 1_555
C41 C40 1_555 1_555
C42 C41 1_555 1_555
H27 C42 1_555 1_555
C43 C42 1_555 1_555
C44 O5 1_555 1_555
C45 C19 1_555 1_555
H28 C45 1_555 1_555
H29 C45 1_555 1_555
C46 O4 1_555 1_555
H30 C46 1_555 1_555
H31 C46 1_555 1_555
C47 C46 1_555 1_555
C48 C21 1_555 1_555
C49 C48 1_555 1_555
H32 C49 1_555 1_555
H33 C49 1_555 1_555
H34 C49 1_555 1_555
C50 C48 1_555 1_555
H35 C50 1_555 1_555
H36 C50 1_555 1_555
H37 C50 1_555 1_555
C51 C48 1_555 1_555
H38 C51 1_555 1_555
H39 C51 1_555 1_555
H40 C51 1_555 1_555
C52 C27 1_555 1_555
C53 C52 1_555 1_555
H41 C53 1_555 1_555
H42 C53 1_555 1_555
H43 C53 1_555 1_555
C54 C52 1_555 1_555
H44 C54 1_555 1_555
H45 C54 1_555 1_555
H46 C54 1_555 1_555
C55 C52 1_555 1_555
H47 C55 1_555 1_555
H48 C55 1_555 1_555
H49 C55 1_555 1_555
C56 C34 1_555 1_555
C57 C56 1_555 1_555
H50 C57 1_555 1_555
H51 C57 1_555 1_555
H52 C57 1_555 1_555
C58 C56 1_555 1_555
H53 C58 1_555 1_555
H54 C58 1_555 1_555
H55 C58 1_555 1_555
C59 C56 1_555 1_555
H56 C59 1_555 1_555
H57 C59 1_555 1_555
H58 C59 1_555 1_555
C60 C41 1_555 1_555
C61 C60 1_555 1_555
H59 C61 1_555 1_555
H60 C61 1_555 1_555
H61 C61 1_555 1_555
C62 C60 1_555 1_555
H62 C62 1_555 1_555
H63 C62 1_555 1_555
H64 C62 1_555 1_555
C63 C60 1_555 1_555
H65 C63 1_555 1_555
H66 C63 1_555 1_555
H67 C63 1_555 1_555
N4 C64 1_555 1_555
C64 C65 1_555 1_555
C65 H68 1_555 1_555
H69 C65 1_555 1_555
H70 C65 1_555 1_555
N5 C66 1_555 1_555
C66 C67 1_555 1_555
C67 H71 1_555 1_555
H72 C67 1_555 1_555
H73 C67 1_555 1_555
N6 C68 1_555 1_555
C68 C69 1_555 1_555
C69 H74 1_555 1_555
H75 C69 1_555 1_555
H76 C69 1_555 1_555
C1 C2 1_555 1_555
C9 C10 1_555 1_555
C12 C17 1_555 1_555
C16 C17 1_555 1_555
C22 C23 1_555 1_555
C25 C30 1_555 1_555
C29 C30 1_555 1_555
C36 C37 1_555 1_555
C39 C44 1_555 1_555
C43 C44 1_555 1_555
C43 C45 1_555 1_555

#END
