
#######################################################################
#
#                 Cambridge Crystallographic Data Centre
#                                CCDC 
#
#######################################################################
#
# If this CIF has been generated from an entry in the Cambridge 
# Structural Database, then it will include bibliographic, chemical, 
# crystal, experimental, refinement or atomic coordinate data resulting 
# from the CCDC's data processing and validation procedures.
#
#######################################################################

data_MOTJIQ
_chemical_formula_moiety         'C27 H24 N2 O4'
_chemical_name_systematic        
10-(5-((4-t-butylphenoxy)methyl)-1,2,4-oxadiazol-3-yl)-10-hydroxyanthracen-9(10H)-one
_symmetry_cell_setting           monoclinic
_symmetry_space_group_name_H-M   'P 21/c'
_symmetry_Int_Tables_number      14
_space_group_name_Hall           '-P 2ybc'
loop_
_symmetry_equiv_pos_site_id
_symmetry_equiv_pos_as_xyz
1 x,y,z
2 -x,1/2+y,1/2-z
3 -x,-y,-z
4 x,1/2-y,1/2+z
_cell_length_a                   17.5478(4)
_cell_length_b                   8.9851(2)
_cell_length_c                   15.2261(3)
_cell_angle_alpha                90
_cell_angle_beta                 108.5180(10)
_cell_angle_gamma                90
_cell_volume                     2276.38
_exptl_crystal_colour            colorless
_exptl_crystal_description       tabular
_cell_formula_units_Z            4
loop_
_atom_site_label
_atom_site_type_symbol
_atom_site_fract_x
_atom_site_fract_y
_atom_site_fract_z
C1 C 0.3856(2) 0.1764(5) 0.7695(2)
H1 H 0.3361 0.1450 0.7298
C2 C 0.3993(2) 0.3251(4) 0.7876(2)
H2 H 0.3592 0.3940 0.7603
C3 C 0.47509(18) 0.3745(3) 0.84854(19)
C4 C 0.53432(17) 0.2690(3) 0.88665(19)
C5 C 0.67823(17) 0.2547(3) 0.9073(2)
C6 C 0.74315(18) 0.2414(3) 0.8150(2)
C7 C 0.78049(19) 0.2617(4) 0.7410(2)
H3 H 0.7436 0.2302 0.6818
H4 H 0.7935 0.3657 0.7364
C8 C 0.9015(2) 0.1898(4) 0.7131(2)
C9 C 0.88878(19) 0.2732(3) 0.6356(2)
H5 H 0.8410 0.3253 0.6105
C10 C 0.9491(2) 0.2786(3) 0.5944(2)
H6 H 0.9406 0.3371 0.5418
C11 C 1.0201(2) 0.2029(3) 0.6271(3)
C12 C 1.0937(10) 0.2264(15) 0.6013(12)
C13 C 1.1121(14) 0.084(2) 0.5619(16)
H7 H 1.0977 0.0018 0.5935
H8 H 1.1686 0.0797 0.5697
H9 H 1.0821 0.0793 0.4972
C14 C 1.1666(10) 0.271(2) 0.6803(13)
H10 H 1.1575 0.3666 0.7034
H11 H 1.2125 0.2767 0.6589
H12 H 1.1764 0.1986 0.7289
C15 C 1.0800(7) 0.341(2) 0.5244(13)
H13 H 1.0392 0.3055 0.4701
H14 H 1.1291 0.3559 0.5104
H15 H 1.0632 0.4331 0.5440
C16 C 1.0280(2) 0.1155(5) 0.7024(3)
H16 H 1.0747 0.0596 0.7262
C17 C 0.4433(2) 0.0747(4) 0.8088(2)
H17 H 0.4331 -0.0261 0.7969
C18 C 0.5167(2) 0.1201(3) 0.8661(2)
H18 H 0.5559 0.0490 0.8921
C19 C 0.4879(2) 0.5305(3) 0.8736(2)
C20 C 0.5677(2) 0.5780(3) 0.9345(2)
C21 C 0.5826(3) 0.7276(3) 0.9565(3)
H19 H 0.5420 0.7970 0.9328
C22 C 0.6559(3) 0.7741(4) 1.0121(3)
H20 H 0.6648 0.8750 1.0250
C23 C 0.7175(3) 0.6732(4) 1.0499(3)
H21 H 0.7671 0.7057 1.0886
C24 C 0.7038(2) 0.5205(3) 1.0287(2)
H22 H 0.7447 0.4517 1.0532
C25 C 0.62975(19) 0.4737(3) 0.97147(19)
C26 C 0.9699(3) 0.1067(6) 0.7446(3)
H23 H 0.9771 0.0437 0.7950
C27 C 0.61749(17) 0.3088(3) 0.95167(18)
N1 N 0.72270(18) 0.1387(3) 0.9368(2)
N2 N 0.68901(14) 0.3238(2) 0.83201(16)
O1 O 0.84908(19) 0.1771(4) 0.7635(2)
O2 O 0.63419(13) 0.2259(2) 1.03582(13)
H24 H 0.6113 0.2648 1.0693
O3 O 0.43299(15) 0.6220(2) 0.84630(15)
O4 O 0.76679(15) 0.1278(2) 0.87380(17)
C28? C 1.0829(11) 0.2047(17) 0.5699(12)
C29? C 1.1182(10) 0.0535(15) 0.5692(10)
H25? H 1.1588 0.0584 0.5394
H26? H 1.0767 -0.0142 0.5361
H27? H 1.1417 0.0193 0.6317
C30? C 1.1440(13) 0.317(2) 0.6205(19)
H28? H 1.1369 0.4073 0.5846
H29? H 1.1970 0.2788 0.6298
H30? H 1.1373 0.3384 0.6794
C31? C 1.0457(11) 0.250(2) 0.4686(12)
H31? H 1.0178 0.3433 0.4653
H32? H 1.0086 0.1753 0.4361
H33? H 1.0874 0.2616 0.4407
loop_
_geom_bond_atom_site_label_1
_geom_bond_atom_site_label_2
_geom_bond_site_symmetry_1
_geom_bond_site_symmetry_2
C1 H1 1_555 1_555
C2 C1 1_555 1_555
H2 C2 1_555 1_555
C3 C2 1_555 1_555
C4 C3 1_555 1_555
C5 C27 1_555 1_555
C6 C7 1_555 1_555
C7 H3 1_555 1_555
H4 C7 1_555 1_555
C8 C9 1_555 1_555
C9 H5 1_555 1_555
C10 C9 1_555 1_555
H6 C10 1_555 1_555
C11 C10 1_555 1_555
C12 C11 1_555 1_555
C13 C12 1_555 1_555
H7 C13 1_555 1_555
H8 C13 1_555 1_555
H9 C13 1_555 1_555
C14 C12 1_555 1_555
H10 C14 1_555 1_555
H11 C14 1_555 1_555
H12 C14 1_555 1_555
C15 C12 1_555 1_555
H13 C15 1_555 1_555
H14 C15 1_555 1_555
H15 C15 1_555 1_555
C16 C11 1_555 1_555
H16 C16 1_555 1_555
C17 C1 1_555 1_555
H17 C17 1_555 1_555
C18 C4 1_555 1_555
H18 C18 1_555 1_555
C19 C3 1_555 1_555
C20 C19 1_555 1_555
C21 C20 1_555 1_555
H19 C21 1_555 1_555
C22 C21 1_555 1_555
H20 C22 1_555 1_555
C23 C22 1_555 1_555
H21 C23 1_555 1_555
C24 C23 1_555 1_555
H22 C24 1_555 1_555
C25 C20 1_555 1_555
C26 C8 1_555 1_555
H23 C26 1_555 1_555
C27 C4 1_555 1_555
N1 C5 1_555 1_555
N2 C5 1_555 1_555
O1 C7 1_555 1_555
O2 C27 1_555 1_555
H24 O2 1_555 1_555
O3 C19 1_555 1_555
O4 C6 1_555 1_555
C6 N2 1_555 1_555
C8 O1 1_555 1_555
C16 C26 1_555 1_555
C17 C18 1_555 1_555
C24 C25 1_555 1_555
C25 C27 1_555 1_555
N1 O4 1_555 1_555

#END
