
#######################################################################
#
#                 Cambridge Crystallographic Data Centre
#                                CCDC 
#
#######################################################################
#
# If this CIF has been generated from an entry in the Cambridge 
# Structural Database, then it will include bibliographic, chemical, 
# crystal, experimental, refinement or atomic coordinate data resulting 
# from the CCDC's data processing and validation procedures.
#
#######################################################################

data_MOTSEV
_chemical_formula_moiety         'C43 H47 Br1 N2 O3'
_chemical_name_systematic        
'Adamantan-1-yl (2R*,3S*,5S*)-3-(4-bromophenyl)-5-morpholino-2,5-diphenyl-2-(phenylamino)pentanoate'
_symmetry_cell_setting           monoclinic
_symmetry_space_group_name_H-M   'P 21/c'
_symmetry_Int_Tables_number      14
_space_group_name_Hall           '-P 2ybc'
loop_
_symmetry_equiv_pos_site_id
_symmetry_equiv_pos_as_xyz
1 x,y,z
2 -x,1/2+y,1/2-z
3 -x,-y,-z
4 x,1/2-y,1/2+z
_cell_length_a                   13.5360(11)
_cell_length_b                   24.3427(19)
_cell_length_c                   13.2357(10)
_cell_angle_alpha                90
_cell_angle_beta                 100.381(3)
_cell_angle_gamma                90
_cell_volume                     4289.81
_exptl_crystal_colour            colorless
_exptl_crystal_description       block
_cell_formula_units_Z            4
loop_
_atom_site_label
_atom_site_type_symbol
_atom_site_fract_x
_atom_site_fract_y
_atom_site_fract_z
Br1 Br 0.38413(7) 0.39090(5) 0.34845(8)
O1 O 0.8520(3) 0.2481(2) -0.0091(4)
O2 O 0.9330(3) 0.26866(19) 0.1503(3)
O3 O 0.8013(7) 0.5767(3) -0.0418(6)
N1 N 0.7612(4) 0.2369(2) 0.2143(4)
H1 H 0.7449 0.2490 0.2701
N2 N 0.8365(5) 0.4757(2) 0.0694(5)
C1 C 0.7895(5) 0.1824(3) 0.2078(5)
C2 C 0.8419(6) 0.1567(3) 0.2980(6)
H2 H 0.8584 0.1765 0.3588
C3 C 0.8682(8) 0.1015(4) 0.2944(8)
H3 H 0.8998 0.0843 0.3544
C4 C 0.8494(8) 0.0725(4) 0.2071(8)
H4 H 0.8705 0.0362 0.2056
C5 C 0.7978(8) 0.0974(4) 0.1187(8)
H5 H 0.7831 0.0772 0.0582
C6 C 0.7684(6) 0.1512(3) 0.1190(6)
H6 H 0.7337 0.1669 0.0590
C7 C 0.6595(5) 0.2668(3) 0.0489(5)
C8 C 0.5771(5) 0.2434(3) 0.0789(6)
H7 H 0.5830 0.2289 0.1448
C9 C 0.4855(6) 0.2409(4) 0.0128(9)
H8 H 0.4311 0.2239 0.0339
C10 C 0.4745(7) 0.2635(5) -0.0844(9)
H9 H 0.4123 0.2630 -0.1279
C11 C 0.5557(7) 0.2863(4) -0.1155(7)
H10 H 0.5495 0.3007 -0.1814
C12 C 0.6477(5) 0.2882(3) -0.0495(5)
H11 H 0.7025 0.3042 -0.0716
C13 C 0.6728(5) 0.3500(3) 0.2140(5)
C14 C 0.5837(6) 0.3673(3) 0.1525(6)
H12 H 0.5818 0.3705 0.0822
C15 C 0.4991(6) 0.3798(3) 0.1904(6)
H13 H 0.4412 0.3913 0.1465
C16 C 0.5003(6) 0.3752(3) 0.2947(6)
C17 C 0.5872(6) 0.3590(3) 0.3595(6)
H14 H 0.5886 0.3562 0.4299
C18 C 0.6726(5) 0.3468(3) 0.3187(5)
H15 H 0.7311 0.3363 0.3628
C19 C 0.9053(6) 0.4307(3) 0.2339(5)
C20 C 0.8936(8) 0.4379(4) 0.3338(6)
H16 H 0.8306 0.4443 0.3501
C21 C 0.9795(12) 0.4352(5) 0.4108(8)
H17 H 0.9730 0.4401 0.4790
C22 C 1.0712(11) 0.4259(4) 0.3884(10)
H18 H 1.1271 0.4244 0.4408
C23 C 1.0816(8) 0.4187(4) 0.2913(9)
H19 H 1.1449 0.4126 0.2755
C24 C 0.9995(6) 0.4205(3) 0.2148(7)
H20 H 1.0079 0.4145 0.1474
C25 C 1.0338(5) 0.2508(3) 0.1362(5)
C26 C 1.0971(5) 0.2646(4) 0.2386(5)
H21 H 1.0715 0.2452 0.2925
H22 H 1.0930 0.3037 0.2513
C27 C 1.2072(6) 0.2485(4) 0.2412(7)
H23 H 1.2480 0.2578 0.3079
C28 C 1.2128(7) 0.1879(4) 0.2210(7)
H24 H 1.1905 0.1676 0.2757
H25 H 1.2819 0.1777 0.2199
C29 C 1.1464(6) 0.1731(4) 0.1173(6)
H26 H 1.1501 0.1335 0.1055
C30 C 1.0369(5) 0.1896(3) 0.1176(6)
H27 H 0.9953 0.1805 0.0522
H28 H 1.0115 0.1700 0.1714
C31 C 1.0706(5) 0.2831(3) 0.0526(6)
H29 H 1.0668 0.3222 0.0656
H30 H 1.0295 0.2751 -0.0136
C32 C 1.1813(6) 0.2660(4) 0.0529(7)
H31 H 1.2066 0.2861 -0.0013
C33 C 1.1862(6) 0.2042(4) 0.0323(6)
H32 H 1.1458 0.1954 -0.0340
H33 H 1.2550 0.1934 0.0313
C34 C 1.2436(6) 0.2805(4) 0.1548(7)
H34 H 1.2388 0.3196 0.1668
H35 H 1.3135 0.2717 0.1545
C35 C 0.7536(7) 0.4822(4) -0.0160(6)
H36 H 0.6940 0.4937 0.0094
H37 H 0.7393 0.4473 -0.0510
C36 C 0.7797(10) 0.5241(4) -0.0894(8)
H38 H 0.8378 0.5116 -0.1165
H39 H 0.7241 0.5278 -0.1466
C37 C 0.8809(10) 0.5703(4) 0.0417(8)
H40 H 0.8961 0.6055 0.0750
H41 H 0.9402 0.5580 0.0165
C38 C 0.8567(8) 0.5295(3) 0.1194(7)
H42 H 0.9128 0.5266 0.1762
H43 H 0.7983 0.5417 0.1462
C39 C 0.7588(5) 0.2740(3) 0.1260(5)
C40 C 0.7667(5) 0.3346(3) 0.1720(5)
H44 H 0.8227 0.3346 0.2303
C41 C 0.7915(6) 0.3778(3) 0.0949(5)
H45 H 0.8488 0.3655 0.0664
H46 H 0.7348 0.3814 0.0389
C42 C 0.8151(6) 0.4338(3) 0.1461(6)
H47 H 0.7565 0.4460 0.1741
C43 C 0.8516(5) 0.2621(3) 0.0789(5)
loop_
_geom_bond_atom_site_label_1
_geom_bond_atom_site_label_2
_geom_bond_site_symmetry_1
_geom_bond_site_symmetry_2
Br1 C16 1_555 1_555
O1 C43 1_555 1_555
O2 C25 1_555 1_555
O3 C36 1_555 1_555
N1 H1 1_555 1_555
N2 C35 1_555 1_555
C1 N1 1_555 1_555
C2 C1 1_555 1_555
H2 C2 1_555 1_555
C3 C2 1_555 1_555
H3 C3 1_555 1_555
C4 C3 1_555 1_555
H4 C4 1_555 1_555
C5 C4 1_555 1_555
H5 C5 1_555 1_555
C6 C1 1_555 1_555
H6 C6 1_555 1_555
C7 C8 1_555 1_555
C8 H7 1_555 1_555
C9 C8 1_555 1_555
H8 C9 1_555 1_555
C10 C9 1_555 1_555
H9 C10 1_555 1_555
C11 C10 1_555 1_555
H10 C11 1_555 1_555
C12 C7 1_555 1_555
H11 C12 1_555 1_555
C13 C14 1_555 1_555
C14 H12 1_555 1_555
C15 C14 1_555 1_555
H13 C15 1_555 1_555
C16 C15 1_555 1_555
C17 C16 1_555 1_555
H14 C17 1_555 1_555
C18 C13 1_555 1_555
H15 C18 1_555 1_555
C19 C20 1_555 1_555
C20 H16 1_555 1_555
C21 C20 1_555 1_555
H17 C21 1_555 1_555
C22 C21 1_555 1_555
H18 C22 1_555 1_555
C23 C22 1_555 1_555
H19 C23 1_555 1_555
C24 C19 1_555 1_555
H20 C24 1_555 1_555
C25 C26 1_555 1_555
C26 H21 1_555 1_555
H22 C26 1_555 1_555
C27 C26 1_555 1_555
H23 C27 1_555 1_555
C28 C27 1_555 1_555
H24 C28 1_555 1_555
H25 C28 1_555 1_555
C29 C28 1_555 1_555
H26 C29 1_555 1_555
C30 C25 1_555 1_555
H27 C30 1_555 1_555
H28 C30 1_555 1_555
C31 C25 1_555 1_555
H29 C31 1_555 1_555
H30 C31 1_555 1_555
C32 C31 1_555 1_555
H31 C32 1_555 1_555
C33 C29 1_555 1_555
H32 C33 1_555 1_555
H33 C33 1_555 1_555
C34 C27 1_555 1_555
H34 C34 1_555 1_555
H35 C34 1_555 1_555
C35 H36 1_555 1_555
H37 C35 1_555 1_555
C36 C35 1_555 1_555
H38 C36 1_555 1_555
H39 C36 1_555 1_555
C37 O3 1_555 1_555
H40 C37 1_555 1_555
H41 C37 1_555 1_555
C38 N2 1_555 1_555
H42 C38 1_555 1_555
H43 C38 1_555 1_555
C39 N1 1_555 1_555
C40 C13 1_555 1_555
H44 C40 1_555 1_555
C41 C40 1_555 1_555
H45 C41 1_555 1_555
H46 C41 1_555 1_555
C42 N2 1_555 1_555
H47 C42 1_555 1_555
C43 O2 1_555 1_555
C5 C6 1_555 1_555
C7 C39 1_555 1_555
C11 C12 1_555 1_555
C17 C18 1_555 1_555
C19 C42 1_555 1_555
C23 C24 1_555 1_555
C29 C30 1_555 1_555
C32 C33 1_555 1_555
C32 C34 1_555 1_555
C37 C38 1_555 1_555
C39 C40 1_555 1_555
C39 C43 1_555 1_555
C41 C42 1_555 1_555

#END
