
#######################################################################
#
#                 Cambridge Crystallographic Data Centre
#                                CCDC 
#
#######################################################################
#
# If this CIF has been generated from an entry in the Cambridge 
# Structural Database, then it will include bibliographic, chemical, 
# crystal, experimental, refinement or atomic coordinate data resulting 
# from the CCDC's data processing and validation procedures.
#
#######################################################################

data_MOTWUP03
_chemical_formula_moiety         '2(C72 H84 N12),C72 H69 N11'
_chemical_name_systematic        
'bis(5,12,20,27,35,42,50,57,62,69,74,81-Dodecaazatridecacyclo[29.29.10.10^16,46^.1^3,59^.1^14,18^.1^29,33^.1^44,48^.0^6,11^.0^21,26^.0^36,41^.0^51,56^.0^63,68^.0^75,80^]tetraoctaconta-1,3(71),4,12,14(84),15,17,19,27,29(83),30,32,34,42,44(72),45,47,49,57,59,61,69,73,81-tetracosaene) 10,28,45-triphenyl-1,4,10,16,19,22,28,34,39,45,51-undecaazaoctacyclo[17.17.17.2^6,9^.2^11,14^.2^24,27^.2^29,32^.2^41,44^.2^46,49^]pentahexaconta-4,6,8,11,13,15,22,24,26,29,31,33,39,41,43,46,48,50,54,56,58,60,62,64-tetracosaene'
_symmetry_cell_setting           rhombohedral
_symmetry_space_group_name_H-M   'R 3 2'
_symmetry_Int_Tables_number      155
_space_group_name_Hall           'R 3 2"'
loop_
_symmetry_equiv_pos_site_id
_symmetry_equiv_pos_as_xyz
1 x,y,z
2 -y,x-y,z
3 -x+y,-x,z
4 x-y,-y,-z
5 -x,-x+y,-z
6 y,x,-z
7 2/3+x,1/3+y,1/3+z
8 2/3-y,1/3+x-y,1/3+z
9 2/3-x+y,1/3-x,1/3+z
10 2/3+x-y,1/3-y,1/3-z
11 2/3-x,1/3-x+y,1/3-z
12 2/3+y,1/3+x,1/3-z
13 1/3+x,2/3+y,2/3+z
14 1/3-y,2/3+x-y,2/3+z
15 1/3-x+y,2/3-x,2/3+z
16 1/3+x-y,2/3-y,2/3-z
17 1/3-x,2/3-x+y,2/3-z
18 1/3+y,2/3+x,2/3-z
_cell_length_a                   20.6365(16)
_cell_length_b                   20.6365(16)
_cell_length_c                   44.899(4)
_cell_angle_alpha                90
_cell_angle_beta                 90
_cell_angle_gamma                120
_cell_volume                     16559.2
_exptl_crystal_colour            colorless
_exptl_crystal_description       prism
_cell_formula_units_Z            3
loop_
_atom_site_label
_atom_site_type_symbol
_atom_site_fract_x
_atom_site_fract_y
_atom_site_fract_z
C25 C -0.8270(5) -0.8282(5) -0.52324(19)
C26 C -0.7944(4) -0.8264(5) -0.54974(17)
H29 H -0.7442 -0.8132 -0.5501
N5 N -1.0000 -1.0000 -0.67052(8)
C27 C -0.7174(4) -0.7349(3) -0.4956(2)
C28 C -0.5867(10) -0.6006(9) -0.4953(4)
H30 H -0.5427 -0.5546 -0.4942
C29 C -0.5904(10) -0.6620(12) -0.4811(4)
H31 H -0.5482 -0.6570 -0.4715
C30 C -0.6530(6) -0.7277(7) -0.4811(3)
H32 H -0.6547 -0.7686 -0.4716
N6 N -0.9166(7) -0.8602(5) -0.62887(18)
C31 C -0.9636(9) -0.8703(7) -0.6541(3)
H33 H -0.9480 -0.8222 -0.6633
H34 H -1.0150 -0.8910 -0.6475
C32 C -0.9587(10) -0.9238(11) -0.6772(3)
H35 H -0.9754 -0.9157 -0.6963
H36 H -0.9066 -0.9100 -0.6793
C33 C -0.9095(7) -0.8652(6) -0.5755(2)
C34 C -0.9528(7) -0.8785(6) -0.6037(3)
H37 H -1.0045 -0.8994 -0.6033
C35 C -0.8327(5) -0.8431(6) -0.57545(18)
H38 H -0.8085 -0.8401 -0.5933
C36 C -0.9422(7) -0.8704(11) -0.5483(6)
H39 H -0.9934 -0.8883 -0.5476
C37 C -0.9054(16) -0.8516(11) -0.5238(4)
H40 H -0.9297 -0.8532 -0.5061
N7 N -0.7855(3) -0.8065(3) -0.4963(2)
C25A C -1.1718(5) -0.9988(7) -0.52324(19)
C26A C -1.1736(5) -0.9680(6) -0.54974(17)
H29A H -1.1868 -0.9310 -0.5501
C27A C -1.2651(3) -0.9825(5) -0.4956(2)
C28A C -1.3994(9) -0.9861(13) -0.4953(4)
H30A H -1.4454 -0.9881 -0.4942
C29A C -1.3380(12) -0.9284(16) -0.4811(4)
H31A H -1.3430 -0.8912 -0.4715
C30A C -1.2723(7) -0.9253(9) -0.4811(3)
H32A H -1.2314 -0.8861 -0.4716
N6A N -1.1398(5) -1.0564(9) -0.62887(18)
C31A C -1.1297(7) -1.0933(11) -0.6541(3)
H33A H -1.1778 -1.1258 -0.6633
H34A H -1.1090 -1.1240 -0.6475
C32A C -1.0762(11) -1.0349(15) -0.6772(3)
H35A H -1.0843 -1.0597 -0.6963
H36A H -1.0900 -0.9966 -0.6793
C33A C -1.1348(6) -1.0443(9) -0.5755(2)
C34A C -1.1215(6) -1.0743(9) -0.6037(3)
H37A H -1.1006 -1.1051 -0.6033
C35A C -1.1569(6) -0.9896(8) -0.57545(18)
H38A H -1.1599 -0.9684 -0.5933
C36A C -1.1296(11) -1.0718(13) -0.5483(6)
H39A H -1.1117 -1.1051 -0.5476
C37A C -1.1484(11) -1.0538(19) -0.5238(4)
H40A H -1.1468 -1.0765 -0.5061
N7A N -1.1935(3) -0.9790(4) -0.4963(2)
C25B C -1.0012(7) -1.1730(5) -0.52324(19)
C26B C -1.0320(6) -1.2056(4) -0.54974(17)
H29B H -1.0690 -1.2558 -0.5501
C27B C -1.0175(5) -1.2826(4) -0.4956(2)
C28B C -1.0139(13) -1.4133(10) -0.4953(4)
H30B H -1.0119 -1.4573 -0.4942
C29B C -1.0716(16) -1.4096(10) -0.4811(4)
H31B H -1.1088 -1.4518 -0.4715
C30B C -1.0747(9) -1.3470(6) -0.4811(3)
H32B H -1.1139 -1.3453 -0.4716
N6B N -0.9436(9) -1.0834(7) -0.62887(18)
C31B C -0.9067(11) -1.0364(9) -0.6541(3)
H33B H -0.8742 -1.0520 -0.6633
H34B H -0.8760 -0.9850 -0.6475
C32B C -0.9651(15) -1.0413(10) -0.6772(3)
H35B H -0.9403 -1.0246 -0.6963
H36B H -1.0034 -1.0934 -0.6793
C33B C -0.9557(9) -1.0905(7) -0.5755(2)
C34B C -0.9257(9) -1.0472(7) -0.6037(3)
H37B H -0.8949 -0.9955 -0.6033
C35B C -1.0104(8) -1.1673(5) -0.57545(18)
H38B H -1.0316 -1.1915 -0.5933
C36B C -0.9282(13) -1.0578(7) -0.5483(6)
H39B H -0.8949 -1.0066 -0.5476
C37B C -0.9462(19) -1.0946(16) -0.5238(4)
H40B H -0.9235 -1.0703 -0.5061
N7B N -1.0210(4) -1.2145(3) -0.4963(2)
C25D C -1.1730(5) -1.0012(7) -0.47676(19)
C26D C -1.2056(4) -1.0320(6) -0.45026(17)
H29D H -1.2558 -1.0690 -0.4499
N5C N -1.0000 -1.0000 -0.32948(8)
C27D C -1.2826(4) -1.0175(5) -0.5044(2)
C28D C -1.4133(10) -1.0139(13) -0.5047(4)
H30D H -1.4573 -1.0119 -0.5058
C29D C -1.4096(10) -1.0716(16) -0.5189(4)
H31D H -1.4518 -1.1088 -0.5285
C30D C -1.3470(6) -1.0747(9) -0.5189(3)
H32D H -1.3453 -1.1139 -0.5284
N6D N -1.0834(7) -0.9436(9) -0.37113(18)
C31D C -1.0364(9) -0.9067(11) -0.3459(3)
H33D H -1.0520 -0.8742 -0.3367
H34D H -0.9850 -0.8760 -0.3525
C32D C -1.0413(10) -0.9651(15) -0.3228(3)
H35D H -1.0246 -0.9403 -0.3037
H36D H -1.0934 -1.0034 -0.3207
C33D C -1.0905(7) -0.9557(9) -0.4245(2)
C34D C -1.0472(7) -0.9257(9) -0.3963(3)
H37D H -0.9955 -0.8949 -0.3967
C35D C -1.1673(5) -1.0104(8) -0.42455(18)
H38D H -1.1915 -1.0316 -0.4067
C36D C -1.0578(7) -0.9282(13) -0.4517(6)
H39D H -1.0066 -0.8949 -0.4524
C37D C -1.0946(16) -0.9462(19) -0.4762(4)
H40D H -1.0703 -0.9235 -0.4939
N7D N -1.2145(3) -1.0210(4) -0.5037(2)
C25E C -0.8282(5) -0.8270(5) -0.47676(19)
C26E C -0.8264(5) -0.7944(4) -0.45026(17)
H29E H -0.8132 -0.7442 -0.4499
C27E C -0.7349(3) -0.7174(4) -0.5044(2)
C28E C -0.6006(9) -0.5867(10) -0.5047(4)
H30E H -0.5546 -0.5427 -0.5058
C29E C -0.6620(12) -0.5904(10) -0.5189(4)
H31E H -0.6570 -0.5482 -0.5285
C30E C -0.7277(7) -0.6530(6) -0.5189(3)
H32E H -0.7686 -0.6547 -0.5284
N6E N -0.8602(5) -0.9166(7) -0.37113(18)
C31E C -0.8703(7) -0.9636(9) -0.3459(3)
H33E H -0.8222 -0.9480 -0.3367
H34E H -0.8910 -1.0150 -0.3525
C32E C -0.9238(11) -0.9587(10) -0.3228(3)
H35E H -0.9157 -0.9754 -0.3037
H36E H -0.9100 -0.9066 -0.3207
C33E C -0.8652(6) -0.9095(7) -0.4245(2)
C34E C -0.8785(6) -0.9528(7) -0.3963(3)
H37E H -0.8994 -1.0045 -0.3967
C35E C -0.8431(6) -0.8327(5) -0.42455(18)
H38E H -0.8401 -0.8085 -0.4067
C36E C -0.8704(11) -0.9422(7) -0.4517(6)
H39E H -0.8883 -0.9934 -0.4524
C37E C -0.8516(11) -0.9054(16) -0.4762(4)
H40E H -0.8532 -0.9297 -0.4939
N7E N -0.8065(3) -0.7855(3) -0.5037(2)
C25C C -0.9988(7) -1.1718(5) -0.47676(19)
C26C C -0.9680(6) -1.1736(5) -0.45026(17)
H29C H -0.9310 -1.1868 -0.4499
C27C C -0.9825(5) -1.2651(3) -0.5044(2)
C28C C -0.9861(13) -1.3994(9) -0.5047(4)
H30C H -0.9881 -1.4454 -0.5058
C29C C -0.9284(16) -1.3380(12) -0.5189(4)
H31C H -0.8912 -1.3430 -0.5285
C30C C -0.9253(9) -1.2723(7) -0.5189(3)
H32C H -0.8861 -1.2314 -0.5284
N6C N -1.0564(9) -1.1398(5) -0.37113(18)
C31C C -1.0933(11) -1.1297(7) -0.3459(3)
H33C H -1.1258 -1.1778 -0.3367
H34C H -1.1240 -1.1090 -0.3525
C32C C -1.0349(15) -1.0762(11) -0.3228(3)
H35C H -1.0597 -1.0843 -0.3037
H36C H -0.9966 -1.0900 -0.3207
C33C C -1.0443(9) -1.1348(6) -0.4245(2)
C34C C -1.0743(9) -1.1215(6) -0.3963(3)
H37C H -1.1051 -1.1006 -0.3967
C35C C -0.9896(8) -1.1569(6) -0.42455(18)
H38C H -0.9684 -1.1599 -0.4067
C36C C -1.0718(13) -1.1296(11) -0.4517(6)
H39C H -1.1051 -1.1117 -0.4524
C37C C -1.0538(19) -1.1484(11) -0.4762(4)
H40C H -1.0765 -1.1468 -0.4939
N7C N -0.9790(4) -1.1935(3) -0.5037(2)
N1 N -0.61543(12) -0.89495(11) -0.46990(5)
C1 C -0.41089(13) -0.71333(13) -0.42816(5)
C2 C -0.58201(13) -0.73182(14) -0.56341(6)
H1 H -0.6036 -0.7165 -0.5489
C3 C -0.57391(14) -0.81591(13) -0.52628(6)
H2 H -0.5991 -0.8017 -0.5130
C4 C -0.63121(13) -0.93311(13) -0.44127(6)
H3 H -0.6059 -0.9626 -0.4403
N2 N -0.57558(11) -0.70569(11) -0.58897(5)
N3 N -0.52099(11) -0.83050(12) -0.41921(5)
C5 C -0.55787(13) -0.78517(13) -0.55458(5)
C6 C -0.62138(16) -0.91183(19) -0.38604(7)
H4 H -0.5958 -0.9400 -0.3832
H5 H -0.6041 -0.8735 -0.3708
C7 C -0.60433(13) -0.65501(14) -0.59412(5)
H6 H -0.6249 -0.6484 -0.5754
C8 C -0.55316(13) -0.86775(13) -0.51718(6)
C9 C -0.37973(14) -0.63690(14) -0.42834(5)
H7 H -0.4110 -0.6165 -0.4286
C10 C -0.60186(13) -0.87490(13) -0.41648(5)
H8 H -0.6235 -0.8423 -0.4186
C11 C -0.54274(14) -0.57943(14) -0.60468(5)
H9 H -0.5209 -0.5854 -0.6231
C12 C -0.57260(14) -0.90235(13) -0.48759(6)
H10 H -0.5520 -0.9314 -0.4816
C13 C -0.52072(14) -0.80734(14) -0.57449(6)
H11 H -0.5097 -0.7873 -0.5936
C14 C -0.70494(18) -0.9638(2) -0.38271(8)
H12 H -0.7152 -0.9890 -0.3636
H13 H -0.7302 -0.9348 -0.3832
C15 C -0.73456(17) -1.0209(2) -0.40722(9)
H14 H -0.7885 -1.0511 -0.4054
H15 H -0.7138 -1.0537 -0.4051
N4 N -0.48549(12) -0.54654(12) -0.58187(4)
C16 C -0.51590(14) -0.88804(13) -0.53737(6)
H16 H -0.5011 -0.9220 -0.5316
C17 C -0.50020(14) -0.85912(14) -0.56586(6)
C18 C -0.71522(15) -0.98498(16) -0.43759(7)
H17 H -0.7406 -0.9566 -0.4405
H18 H -0.7329 -1.0237 -0.4527
C19 C -0.49210(13) -0.76244(15) -0.42550(5)
H19 H -0.5232 -0.7424 -0.4286
C20 C -0.66676(16) -0.68892(17) -0.61735(6)
H20 H -0.6469 -0.6957 -0.6359
H21 H -0.7056 -0.7377 -0.6106
C21 C -0.6402(2) -0.5628(2) -0.63230(8)
H22 H -0.6618 -0.5306 -0.6341
H23 H -0.6217 -0.5662 -0.6518
C22 C -0.69983(19) -0.6394(2) -0.62253(8)
H24 H -0.7229 -0.6355 -0.6043
H25 H -0.7383 -0.6614 -0.6377
C23 C -0.57507(19) -0.52813(18) -0.61028(7)
H26 H -0.5922 -0.5185 -0.5916
H27 H -0.5361 -0.4807 -0.6181
C24 C -0.42128(15) -0.53544(15) -0.58756(6)
H28 H -0.4124 -0.5500 -0.6060
N1A N -0.10505(11) -0.72048(16) -0.46990(5)
C1A C -0.28667(13) -0.69756(18) -0.42816(5)
C2A C -0.26818(14) -0.85019(19) -0.56341(6)
H1A H -0.2835 -0.8871 -0.5489
C3A C -0.18409(13) -0.75800(19) -0.52628(6)
H2A H -0.1983 -0.7974 -0.5130
C4A C -0.06689(13) -0.69810(18) -0.44127(6)
H3A H -0.0374 -0.6433 -0.4403
N2A N -0.29431(11) -0.86989(16) -0.58897(5)
N3A N -0.16950(12) -0.69049(16) -0.41921(5)
C5A C -0.21483(13) -0.77270(18) -0.55458(5)
C6A C -0.08817(19) -0.70955(25) -0.38604(7)
H4A H -0.0600 -0.6558 -0.3832
H5A H -0.1265 -0.7306 -0.3708
C7A C -0.34499(14) -0.94932(19) -0.59412(5)
H6A H -0.3516 -0.9765 -0.5754
C8A C -0.13225(13) -0.68541(18) -0.51718(6)
C9A C -0.36310(14) -0.74283(20) -0.42834(5)
H7A H -0.3835 -0.7945 -0.4286
C10A C -0.12510(13) -0.72696(18) -0.41648(5)
H8A H -0.1577 -0.7812 -0.4186
C11A C -0.42057(14) -0.96331(20) -0.60468(5)
H9A H -0.4146 -0.9355 -0.6231
C12A C -0.09765(13) -0.67025(19) -0.48759(6)
H10A H -0.0686 -0.6206 -0.4816
C13A C -0.19266(14) -0.71338(20) -0.57449(6)
H11A H -0.2127 -0.7224 -0.5936
C14A C -0.0362(2) -0.74114(27) -0.38271(8)
H12A H -0.0110 -0.7262 -0.3636
H13A H -0.0652 -0.7954 -0.3832
C15A C 0.0209(2) -0.71366(26) -0.40722(9)
H14A H 0.0511 -0.7374 -0.4054
H15A H 0.0537 -0.6601 -0.4051
N4A N -0.45346(12) -0.93895(17) -0.58187(4)
C16A C -0.11196(13) -0.62786(19) -0.53737(6)
H16A H -0.0780 -0.5791 -0.5316
C17A C -0.14088(14) -0.64108(20) -0.56586(6)
C18A C -0.01502(16) -0.73024(22) -0.43759(7)
H17A H -0.0434 -0.7840 -0.4405
H18A H 0.0237 -0.7092 -0.4527
C19A C -0.23756(15) -0.72966(20) -0.42550(5)
H19A H -0.2576 -0.7808 -0.4286
C20A C -0.31108(17) -0.97784(23) -0.61735(6)
H20A H -0.3043 -0.9512 -0.6359
H21A H -0.2623 -0.9679 -0.6106
C21A C -0.4372(2) -1.0774(3) -0.63230(8)
H22A H -0.4694 -1.1312 -0.6341
H23A H -0.4338 -1.0555 -0.6518
C22A C -0.3606(2) -1.06043(28) -0.62253(8)
H24A H -0.3645 -1.0874 -0.6043
H25A H -0.3386 -1.0769 -0.6377
C23A C -0.47187(18) -1.04694(26) -0.61028(7)
H26A H -0.4815 -1.0737 -0.5916
H27A H -0.5193 -1.0554 -0.6181
C24A C -0.46456(15) -0.88584(21) -0.58756(6)
H28A H -0.4500 -0.8624 -0.6060
N1B N -0.27952(16) -0.38457(12) -0.46990(5)
C1B C -0.30244(18) -0.58911(13) -0.42816(5)
C2B C -0.14981(19) -0.41799(13) -0.56341(6)
H1B H -0.1129 -0.3964 -0.5489
C3B C -0.24200(19) -0.42609(14) -0.52628(6)
H2B H -0.2026 -0.4009 -0.5130
C4B C -0.30190(18) -0.36879(13) -0.44127(6)
H3B H -0.3567 -0.3941 -0.4403
N2B N -0.13011(16) -0.42442(11) -0.58897(5)
N3B N -0.30951(16) -0.47901(11) -0.41921(5)
C5B C -0.22730(18) -0.44213(13) -0.55458(5)
C6B C -0.29045(25) -0.37862(16) -0.38604(7)
H4B H -0.3442 -0.4042 -0.3832
H5B H -0.2694 -0.3959 -0.3708
C7B C -0.05068(19) -0.39567(13) -0.59412(5)
H6B H -0.0235 -0.3751 -0.5754
C8B C -0.31459(18) -0.44684(13) -0.51718(6)
C9B C -0.25717(20) -0.62027(14) -0.42834(5)
H7B H -0.2055 -0.5890 -0.4286
C10B C -0.27304(18) -0.39814(13) -0.41648(5)
H8B H -0.2188 -0.3765 -0.4186
C11B C -0.03669(20) -0.45726(14) -0.60468(5)
H9B H -0.0645 -0.4791 -0.6231
C12B C -0.32975(19) -0.42740(14) -0.48759(6)
H10B H -0.3794 -0.4480 -0.4816
C13B C -0.28662(20) -0.47928(14) -0.57449(6)
H11B H -0.2776 -0.4903 -0.5936
C14B C -0.25886(27) -0.29506(18) -0.38271(8)
H12B H -0.2738 -0.2848 -0.3636
H13B H -0.2046 -0.2698 -0.3832
C15B C -0.28634(26) -0.26544(17) -0.40722(9)
H14B H -0.2626 -0.2115 -0.4054
H15B H -0.3399 -0.2862 -0.4051
N4B N -0.06105(17) -0.51451(12) -0.58187(4)
C16B C -0.37214(19) -0.48410(14) -0.53737(6)
H16B H -0.4209 -0.4989 -0.5316
C17B C -0.35892(20) -0.49980(14) -0.56586(6)
C18B C -0.26976(22) -0.28478(15) -0.43759(7)
H17B H -0.2160 -0.2594 -0.4405
H18B H -0.2908 -0.2671 -0.4527
C19B C -0.27034(20) -0.50790(13) -0.42550(5)
H19B H -0.2192 -0.4768 -0.4286
C20B C -0.02216(23) -0.33324(16) -0.61735(6)
H20B H -0.0488 -0.3531 -0.6359
H21B H -0.0321 -0.2944 -0.6106
C21B C 0.0774(3) -0.3598(2) -0.63230(8)
H22B H 0.1312 -0.3382 -0.6341
H23B H 0.0555 -0.3783 -0.6518
C22B C 0.06043(28) -0.30017(19) -0.62253(8)
H24B H 0.0874 -0.2771 -0.6043
H25B H 0.0769 -0.2617 -0.6377
C23B C 0.04694(26) -0.42493(19) -0.61028(7)
H26B H 0.0737 -0.4078 -0.5916
H27B H 0.0554 -0.4639 -0.6181
C24B C -0.11416(21) -0.57872(15) -0.58756(6)
H28B H -0.1376 -0.5876 -0.6060
C38? C -0.8646(5) -0.9400(5) -0.4190(2)
C39? C -0.8212(4) -0.8623(5) -0.41751(15)
H41? H -0.8093 -0.8397 -0.3989
C40? C -0.7954(4) -0.8181(4) -0.44209(16)
H42? H -0.7669 -0.7665 -0.4400
C41? C -0.8111(5) -0.8493(5) -0.4701(2)
C42? C -0.8553(4) -0.9199(9) -0.4743(3)
H43? H -0.8699 -0.9388 -0.4935
C43? C -0.8827(9) -0.9703(6) -0.4481(4)
H44? H -0.9116 -1.0217 -0.4508
N8? N -0.8672(3) -0.9619(4) -0.36751(17)
C44? C -0.8890(5) -0.9875(4) -0.3923(3)
H45? H -0.9221 -1.0385 -0.3943
C45? C -0.9266(8) -0.9891(7) -0.3183(3)
H46? H -0.8930 -0.9368 -0.3136
H47? H -0.9343 -1.0184 -0.3004
C46? C -0.8937(4) -1.0143(4) -0.34233(18)
H48? H -0.8523 -1.0183 -0.3342
H49? H -0.9313 -1.0634 -0.3493
C47? C -0.7170(10) -0.6757(7) -0.5113(3)
H50? H -0.6807 -0.7588 -0.4787
C48? C -0.6460(13) -0.6062(13) -0.5107(4)
H51? H -0.5648 -0.6410 -0.4790
loop_
_geom_bond_atom_site_label_1
_geom_bond_atom_site_label_2
_geom_bond_site_symmetry_1
_geom_bond_site_symmetry_2
N1 C4 1_555 1_555
C1 C9 1_555 1_555
C2 H1 1_555 1_555
C3 H2 1_555 1_555
C4 H3 1_555 1_555
N2 C2 1_555 1_555
N3 C10 1_555 1_555
C5 C2 1_555 1_555
C6 H4 1_555 1_555
H5 C6 1_555 1_555
C7 N2 1_555 1_555
H6 C7 1_555 1_555
C8 C3 1_555 1_555
C9 H7 1_555 1_555
C10 C4 1_555 1_555
H8 C10 1_555 1_555
C11 C7 1_555 1_555
H9 C11 1_555 1_555
C12 N1 1_555 1_555
H10 C12 1_555 1_555
C13 C5 1_555 1_555
H11 C13 1_555 1_555
C14 C6 1_555 1_555
H12 C14 1_555 1_555
H13 C14 1_555 1_555
C15 C14 1_555 1_555
H14 C15 1_555 1_555
H15 C15 1_555 1_555
N4 C11 1_555 1_555
C16 C8 1_555 1_555
H16 C16 1_555 1_555
C17 C13 1_555 1_555
C18 C4 1_555 1_555
H17 C18 1_555 1_555
H18 C18 1_555 1_555
C19 C1 1_555 1_555
H19 C19 1_555 1_555
C20 C7 1_555 1_555
H20 C20 1_555 1_555
H21 C20 1_555 1_555
C21 H22 1_555 1_555
H23 C21 1_555 1_555
C22 C20 1_555 1_555
H24 C22 1_555 1_555
H25 C22 1_555 1_555
C23 C11 1_555 1_555
H26 C23 1_555 1_555
H27 C23 1_555 1_555
C24 N4 1_555 1_555
H28 C24 1_555 1_555
C25 C26 1_555 1_555
C26 H29 1_555 1_555
N5 C32 1_555 1_555
C27 C30 1_555 1_555
C28 H30 1_555 1_555
H30 C28E 1_555 1_555
C29 C28 1_555 1_555
H31 C29 1_555 1_555
C30 C29 1_555 1_555
H32 C30 1_555 1_555
N6 C31 1_555 1_555
C31 H33 1_555 1_555
H34 C31 1_555 1_555
C32 C31 1_555 1_555
H35 C32 1_555 1_555
H36 C32 1_555 1_555
C33 C34 1_555 1_555
C34 N6 1_555 1_555
H37 C34 1_555 1_555
C35 C26 1_555 1_555
H38 C35 1_555 1_555
C36 C33 1_555 1_555
H39 C36 1_555 1_555
C37 C25 1_555 1_555
H40 C37 1_555 1_555
N7 C25 1_555 1_555
N1A C4A 1_555 1_555
C1A C9A 1_555 1_555
C2A H1A 1_555 1_555
C3A H2A 1_555 1_555
C4A H3A 1_555 1_555
N2A C2A 1_555 1_555
N3A C10A 1_555 1_555
C5A C2A 1_555 1_555
C6A H4A 1_555 1_555
H5A C6A 1_555 1_555
C7A N2A 1_555 1_555
H6A C7A 1_555 1_555
C8A C3A 1_555 1_555
C9A C1 1_555 1_555
H7A C9A 1_555 1_555
C10A C4A 1_555 1_555
H8A C10A 1_555 1_555
C11A C7A 1_555 1_555
H9A C11A 1_555 1_555
C12A N1A 1_555 1_555
H10A C12A 1_555 1_555
C13A C5A 1_555 1_555
H11A C13A 1_555 1_555
C14A C6A 1_555 1_555
H12A C14A 1_555 1_555
H13A C14A 1_555 1_555
C15A C14A 1_555 1_555
H14A C15A 1_555 1_555
H15A C15A 1_555 1_555
N4A C11A 1_555 1_555
C16A C8A 1_555 1_555
H16A C16A 1_555 1_555
C17A C13A 1_555 1_555
C18A C4A 1_555 1_555
H17A C18A 1_555 1_555
H18A C18A 1_555 1_555
C19A C1A 1_555 1_555
H19A C19A 1_555 1_555
C20A C7A 1_555 1_555
H20A C20A 1_555 1_555
H21A C20A 1_555 1_555
C21A H22A 1_555 1_555
H23A C21A 1_555 1_555
C22A C20A 1_555 1_555
H24A C22A 1_555 1_555
H25A C22A 1_555 1_555
C23A C11A 1_555 1_555
H26A C23A 1_555 1_555
H27A C23A 1_555 1_555
C24A C17 1_555 1_555
H28A C24A 1_555 1_555
N1B C4B 1_555 1_555
C1B C9 1_555 1_555
C2B H1B 1_555 1_555
C3B H2B 1_555 1_555
C4B H3B 1_555 1_555
N2B C2B 1_555 1_555
N3B C10B 1_555 1_555
C5B C2B 1_555 1_555
C6B H4B 1_555 1_555
H5B C6B 1_555 1_555
C7B N2B 1_555 1_555
H6B C7B 1_555 1_555
C8B C3B 1_555 1_555
C9B C1A 1_555 1_555
H7B C9B 1_555 1_555
C10B C4B 1_555 1_555
H8B C10B 1_555 1_555
C11B C7B 1_555 1_555
H9B C11B 1_555 1_555
C12B N1B 1_555 1_555
H10B C12B 1_555 1_555
C13B C5B 1_555 1_555
H11B C13B 1_555 1_555
C14B C6B 1_555 1_555
H12B C14B 1_555 1_555
H13B C14B 1_555 1_555
C15B C14B 1_555 1_555
H14B C15B 1_555 1_555
H15B C15B 1_555 1_555
N4B C11B 1_555 1_555
C16B C8B 1_555 1_555
H16B C16B 1_555 1_555
C17B C24 1_555 1_555
C18B C4B 1_555 1_555
H17B C18B 1_555 1_555
H18B C18B 1_555 1_555
C19B C1B 1_555 1_555
H19B C19B 1_555 1_555
C20B C7B 1_555 1_555
H20B C20B 1_555 1_555
H21B C20B 1_555 1_555
C21B H22B 1_555 1_555
H23B C21B 1_555 1_555
C22B C20B 1_555 1_555
H24B C22B 1_555 1_555
H25B C22B 1_555 1_555
C23B C11B 1_555 1_555
H26B C23B 1_555 1_555
H27B C23B 1_555 1_555
C24B C17A 1_555 1_555
H28B C24B 1_555 1_555
C25A C26A 1_555 1_555
C26A H29A 1_555 1_555
C27A C30A 1_555 1_555
C28A H30A 1_555 1_555
H30A C28D 1_555 1_555
C29A C28A 1_555 1_555
H31A C29A 1_555 1_555
C30A C29A 1_555 1_555
H32A C30A 1_555 1_555
N6A C31A 1_555 1_555
C31A H33A 1_555 1_555
H34A C31A 1_555 1_555
C32A N5 1_555 1_555
H35A C32A 1_555 1_555
H36A C32A 1_555 1_555
C33A C34A 1_555 1_555
C34A N6A 1_555 1_555
H37A C34A 1_555 1_555
C35A C26A 1_555 1_555
H38A C35A 1_555 1_555
C36A C33A 1_555 1_555
H39A C36A 1_555 1_555
C37A C25A 1_555 1_555
H40A C37A 1_555 1_555
N7A C25A 1_555 1_555
C25B C26B 1_555 1_555
C26B H29B 1_555 1_555
C27B C30B 1_555 1_555
C28B H30B 1_555 1_555
H30B C28C 1_555 1_555
C29B C28B 1_555 1_555
H31B C29B 1_555 1_555
C30B C29B 1_555 1_555
H32B C30B 1_555 1_555
N6B C31B 1_555 1_555
C31B H33B 1_555 1_555
H34B C31B 1_555 1_555
C32B N5 1_555 1_555
H35B C32B 1_555 1_555
H36B C32B 1_555 1_555
C33B C34B 1_555 1_555
C34B N6B 1_555 1_555
H37B C34B 1_555 1_555
C35B C26B 1_555 1_555
H38B C35B 1_555 1_555
C36B C33B 1_555 1_555
H39B C36B 1_555 1_555
C37B C25B 1_555 1_555
H40B C37B 1_555 1_555
N7B C25B 1_555 1_555
C25D N7A 1_555 1_555
C26D C25D 1_555 1_555
H29D C26D 1_555 1_555
N5C C32D 1_555 1_555
C27D C27A 1_555 1_555
C28D C28A 1_555 1_555
H30D C28A 1_555 1_555
C29D C28D 1_555 1_555
H31D C29D 1_555 1_555
C30D C27D 1_555 1_555
H32D C30D 1_555 1_555
N6D C31D 1_555 1_555
C31D H33D 1_555 1_555
H34D C31D 1_555 1_555
C32D C31D 1_555 1_555
H35D C32D 1_555 1_555
H36D C32D 1_555 1_555
C33D C34D 1_555 1_555
C34D N6D 1_555 1_555
H37D C34D 1_555 1_555
C35D C26D 1_555 1_555
H38D C35D 1_555 1_555
C36D C33D 1_555 1_555
H39D C36D 1_555 1_555
C37D C25D 1_555 1_555
H40D C37D 1_555 1_555
N7D C25A 1_555 1_555
C25E N7 1_555 1_555
C26E C25E 1_555 1_555
H29E C26E 1_555 1_555
C27E C27 1_555 1_555
C28E C28 1_555 1_555
H30E C28 1_555 1_555
C29E C28E 1_555 1_555
H31E C29E 1_555 1_555
C30E C27E 1_555 1_555
H32E C30E 1_555 1_555
N6E C31E 1_555 1_555
C31E H33E 1_555 1_555
H34E C31E 1_555 1_555
C32E N5C 1_555 1_555
H35E C32E 1_555 1_555
H36E C32E 1_555 1_555
C33E C34E 1_555 1_555
C34E N6E 1_555 1_555
H37E C34E 1_555 1_555
C35E C26E 1_555 1_555
H38E C35E 1_555 1_555
C36E C33E 1_555 1_555
H39E C36E 1_555 1_555
C37E C25E 1_555 1_555
H40E C37E 1_555 1_555
N7E C25 1_555 1_555
C25C N7B 1_555 1_555
C26C C25C 1_555 1_555
H29C C26C 1_555 1_555
C27C C27B 1_555 1_555
C28C C28B 1_555 1_555
H30C C28B 1_555 1_555
C29C C28C 1_555 1_555
H31C C29C 1_555 1_555
C30C C27C 1_555 1_555
H32C C30C 1_555 1_555
N6C C31C 1_555 1_555
C31C H33C 1_555 1_555
H34C C31C 1_555 1_555
C32C N5C 1_555 1_555
H35C C32C 1_555 1_555
H36C C32C 1_555 1_555
C33C C34C 1_555 1_555
C34C N6C 1_555 1_555
H37C C34C 1_555 1_555
C35C C26C 1_555 1_555
H38C C35C 1_555 1_555
C36C C33C 1_555 1_555
H39C C36C 1_555 1_555
C37C C25C 1_555 1_555
H40C C37C 1_555 1_555
N7C C25B 1_555 1_555
C3 C5 1_555 1_555
N3 C19 1_555 1_555
C6 C10 1_555 1_555
C8 C12 1_555 1_555
C15 C18 1_555 1_555
C16 C17 1_555 1_555
C21 C22 1_555 1_555
C21 C23 1_555 1_555
C27 N7 1_555 1_555
C33 C35 1_555 1_555
C36 C37 1_555 1_555
N7 N7E 1_555 1_555
C3A C5A 1_555 1_555
N3A C19A 1_555 1_555
C6A C10A 1_555 1_555
C8A C12A 1_555 1_555
C15A C18A 1_555 1_555
N4A C24A 1_555 1_555
C16A C17A 1_555 1_555
C21A C22A 1_555 1_555
C21A C23A 1_555 1_555
C1B C9B 1_555 1_555
C3B C5B 1_555 1_555
N3B C19B 1_555 1_555
C6B C10B 1_555 1_555
C8B C12B 1_555 1_555
C13B C17B 1_555 1_555
C15B C18B 1_555 1_555
N4B C24B 1_555 1_555
C16B C17B 1_555 1_555
C21B C22B 1_555 1_555
C21B C23B 1_555 1_555
C27A N7A 1_555 1_555
C31A C32A 1_555 1_555
C33A C35A 1_555 1_555
C36A C37A 1_555 1_555
N7A N7D 1_555 1_555
C27B N7B 1_555 1_555
C31B C32B 1_555 1_555
C33B C35B 1_555 1_555
C36B C37B 1_555 1_555
N7B N7C 1_555 1_555
C25D N7D 1_555 1_555
C27D N7D 1_555 1_555
C28D H30D 1_555 1_555
C29D C30D 1_555 1_555
C33D C35D 1_555 1_555
C36D C37D 1_555 1_555
C25E N7E 1_555 1_555
C27E N7E 1_555 1_555
C28E H30E 1_555 1_555
C29E C30E 1_555 1_555
C31E C32E 1_555 1_555
C33E C35E 1_555 1_555
C36E C37E 1_555 1_555
C25C N7C 1_555 1_555
C27C N7C 1_555 1_555
C28C H30C 1_555 1_555
C29C C30C 1_555 1_555
C31C C32C 1_555 1_555
C33C C35C 1_555 1_555
C36C C37C 1_555 1_555

#END
