
#######################################################################
#
#                 Cambridge Crystallographic Data Centre
#                                CCDC 
#
#######################################################################
#
# If this CIF has been generated from an entry in the Cambridge 
# Structural Database, then it will include bibliographic, chemical, 
# crystal, experimental, refinement or atomic coordinate data resulting 
# from the CCDC's data processing and validation procedures.
#
#######################################################################

data_MOTWUP
_chemical_formula_moiety         '2(C72 H84 N12),C72 H69 N11'
_chemical_name_systematic        
'bis(5,12,20,27,35,42,50,57,62,69,74,81-Dodecaazatridecacyclo[29.29.10.10^16,46^.1^3,59^.1^14,18^.1^29,33^.1^44,48^.0^6,11^.0^21,26^.0^36,41^.0^51,56^.0^63,68^.0^75,80^]tetraoctaconta-1,3(71),4,12,14(84),15,17,19,27,29(83),30,32,34,42,44(72),45,47,49,57,59,61,69,73,81-tetracosaene) 10,28,45-triphenyl-1,4,10,16,19,22,28,34,39,45,51-undecaazaoctacyclo[17.17.17.2^6,9^.2^11,14^.2^24,27^.2^29,32^.2^41,44^.2^46,49^]pentahexaconta-4,6,8,11,13,15,22,24,26,29,31,33,39,41,43,46,48,50,54,56,58,60,62,64-tetracosaene'
_symmetry_cell_setting           rhombohedral
_symmetry_space_group_name_H-M   'R 3 2'
_symmetry_Int_Tables_number      155
_space_group_name_Hall           'R 3 2"'
loop_
_symmetry_equiv_pos_site_id
_symmetry_equiv_pos_as_xyz
1 x,y,z
2 -y,x-y,z
3 -x+y,-x,z
4 x-y,-y,-z
5 -x,-x+y,-z
6 y,x,-z
7 2/3+x,1/3+y,1/3+z
8 2/3-y,1/3+x-y,1/3+z
9 2/3-x+y,1/3-x,1/3+z
10 2/3+x-y,1/3-y,1/3-z
11 2/3-x,1/3-x+y,1/3-z
12 2/3+y,1/3+x,1/3-z
13 1/3+x,2/3+y,2/3+z
14 1/3-y,2/3+x-y,2/3+z
15 1/3-x+y,2/3-x,2/3+z
16 1/3+x-y,2/3-y,2/3-z
17 1/3-x,2/3-x+y,2/3-z
18 1/3+y,2/3+x,2/3-z
_cell_length_a                   20.792(4)
_cell_length_b                   20.792(4)
_cell_length_c                   45.156(9)
_cell_angle_alpha                90
_cell_angle_beta                 90
_cell_angle_gamma                120
_cell_volume                     16905.9
_exptl_crystal_colour            colorless
_exptl_crystal_description       prism
_cell_formula_units_Z            3
loop_
_atom_site_label
_atom_site_type_symbol
_atom_site_fract_x
_atom_site_fract_y
_atom_site_fract_z
N5 N 0.4244(14) 0.6260(11) 0.5348(4)
C25 C 0.3994(7) 0.5966(7) 0.5902(2)
C26 C 0.3677(8) 0.5202(8) 0.58704(16)
H29 H 0.3618 0.4995 0.5683
C27 C 0.3447(9) 0.4747(5) 0.6119(3)
H30 H 0.3235 0.4235 0.6098
C28 C 0.3535(9) 0.5056(7) 0.63994(19)
C29 C 0.3851(9) 0.5820(7) 0.64311(19)
H31 H 0.3910 0.6027 0.6619
C30 C 0.4081(9) 0.6275(5) 0.6182(3)
H32 H 0.4293 0.6786 0.6204
C31 C 0.3899(13) 0.6515(16) 0.4855(5)
H33 H 0.4112 0.6792 0.4674
H34 H 0.3691 0.5989 0.4815
C32 C 0.4299(12) 0.6430(11) 0.5596(5)
H35 H 0.4578 0.6940 0.5625
C33 C 0.4488(9) 0.6775(10) 0.5104(4)
H36 H 0.4945 0.6827 0.5025
H37 H 0.4592 0.7257 0.5176
C34 C 0.3333 0.39511(19) 0.6667
C35 C 0.3291(19) 0.2588(9) 0.6641(6)
C36 C 0.2729(15) 0.2657(4) 0.6800(5)
C37 C 0.2758(6) 0.3339(5) 0.68068(18)
N6 N 0.3333 0.4628(2) 0.6667
N7 N 0.3333 0.6667 0.49745(15)
N5A N 0.3740(11) 0.7984(18) 0.5348(4)
C25A C 0.4034(7) 0.8028(10) 0.5902(2)
C26A C 0.4798(8) 0.8475(11) 0.58704(16)
H29A H 0.5005 0.8623 0.5683
C27A C 0.5253(5) 0.8700(10) 0.6119(3)
H30A H 0.5765 0.9000 0.6098
C28A C 0.4944(7) 0.8479(11) 0.63994(19)
C29A C 0.4180(7) 0.8031(11) 0.64311(19)
H31A H 0.3973 0.7883 0.6619
C30A C 0.3725(5) 0.7806(10) 0.6182(3)
H32A H 0.3214 0.7507 0.6204
C31A C 0.3485(16) 0.7384(21) 0.4855(5)
H33A H 0.3208 0.7320 0.4674
H34A H 0.4011 0.7702 0.4815
C32A C 0.3570(11) 0.7869(16) 0.5596(5)
H35A H 0.3060 0.7638 0.5625
C33A C 0.3225(10) 0.7713(13) 0.5104(4)
H36A H 0.3173 0.8118 0.5025
H37A H 0.2743 0.7335 0.5176
C34A C 0.60489(19) 0.93819(19) 0.6667
C35A C 0.7412(9) 1.0703(21) 0.6641(6)
C36A C 0.7343(4) 1.0072(16) 0.6800(5)
C37A C 0.6661(5) 0.9419(8) 0.68068(18)
N6A N 0.5372(2) 0.8705(2) 0.6667
N5B N 0.2016(18) 0.5756(14) 0.5348(4)
C25B C 0.1972(10) 0.6006(7) 0.5902(2)
C26B C 0.1525(11) 0.6323(8) 0.58704(16)
H29B H 0.1377 0.6382 0.5683
C27B C 0.1300(10) 0.6553(9) 0.6119(3)
H30B H 0.1000 0.6765 0.6098
C28B C 0.1521(11) 0.6465(9) 0.63994(19)
C29B C 0.1969(11) 0.6149(9) 0.64311(19)
H31B H 0.2117 0.6090 0.6619
C30B C 0.2194(10) 0.5919(9) 0.6182(3)
H32B H 0.2493 0.5707 0.6204
C31B C 0.2616(21) 0.6101(13) 0.4855(5)
H33B H 0.2680 0.5888 0.4674
H34B H 0.2298 0.6309 0.4815
C32B C 0.2131(16) 0.5701(12) 0.5596(5)
H35B H 0.2362 0.5422 0.5625
C33B C 0.2287(13) 0.5512(9) 0.5104(4)
H36B H 0.1882 0.5055 0.5025
H37B H 0.2665 0.5408 0.5176
C34B C 0.06181(19) 0.6667 0.6667
C35B C -0.0703(21) 0.6709(19) 0.6641(6)
C36B C -0.0072(16) 0.7271(15) 0.6800(5)
C37B C 0.0581(8) 0.7242(6) 0.68068(18)
N6B N 0.1295(2) 0.6667 0.6667
N5I N 0.4651(18) 0.7073(11) 0.7985(4)
C25I C 0.4695(10) 0.7367(7) 0.7431(2)
C26I C 0.5142(11) 0.8131(8) 0.74629(16)
H29I H 0.5290 0.8338 0.7650
C27I C 0.5367(10) 0.8586(5) 0.7214(3)
H30I H 0.5667 0.9098 0.7235
C28I C 0.5146(11) 0.8277(7) 0.69339(19)
C29I C 0.4698(11) 0.7513(7) 0.69022(19)
H31I H 0.4550 0.7306 0.6714
C30I C 0.4473(10) 0.7058(5) 0.7151(3)
H32I H 0.4174 0.6547 0.7129
C31I C 0.4051(21) 0.6818(16) 0.8478(5)
H33I H 0.3987 0.6541 0.8659
H34I H 0.4369 0.7344 0.8518
C32I C 0.4536(16) 0.6903(11) 0.7737(5)
H35I H 0.4305 0.6393 0.7708
C33I C 0.4380(13) 0.6558(10) 0.8229(4)
H36I H 0.4785 0.6506 0.8308
H37I H 0.4002 0.6076 0.8157
C35I C 0.7370(21) 1.0745(9) 0.6692(6)
C36I C 0.6739(16) 1.0676(4) 0.6533(5)
C37I C 0.6086(8) 0.9994(5) 0.65265(18)
N7I N 0.3333 0.6666 0.83588(15)
N5J N 0.2423(14) 0.5349(18) 0.7985(4)
C25J C 0.2673(7) 0.5305(10) 0.7431(2)
C26J C 0.2990(8) 0.4858(11) 0.74629(16)
H29J H 0.3049 0.4710 0.7650
C27J C 0.3220(9) 0.4633(10) 0.7214(3)
H30J H 0.3432 0.4333 0.7235
C28J C 0.3132(9) 0.4854(11) 0.69339(19)
C29J C 0.2816(9) 0.5302(11) 0.69022(19)
H31J H 0.2757 0.5450 0.6714
C30J C 0.2586(9) 0.5527(10) 0.7151(3)
H32J H 0.2374 0.5826 0.7129
C31J C 0.2768(13) 0.5949(21) 0.8478(5)
H33J H 0.2555 0.6013 0.8659
H34J H 0.2976 0.5631 0.8518
C32J C 0.2368(12) 0.5464(16) 0.7737(5)
H35J H 0.2089 0.5695 0.7708
C33J C 0.2179(9) 0.5620(13) 0.8229(4)
H36J H 0.1722 0.5215 0.8308
H37J H 0.2075 0.5998 0.8157
C35J C 0.3376(19) 0.2630(21) 0.6692(6)
C36J C 0.3938(15) 0.3261(16) 0.6533(5)
C37J C 0.3909(6) 0.3914(8) 0.65265(18)
N5K N 0.2927(11) 0.7577(14) 0.7985(4)
C25K C 0.2633(7) 0.7327(7) 0.7431(2)
C26K C 0.1869(8) 0.7010(8) 0.74629(16)
H29K H 0.1662 0.6951 0.7650
C27K C 0.1414(5) 0.6780(9) 0.7214(3)
H30K H 0.0902 0.6568 0.7235
C28K C 0.1723(7) 0.6868(9) 0.69339(19)
C29K C 0.2487(7) 0.7184(9) 0.69022(19)
H31K H 0.2694 0.7243 0.6714
C30K C 0.2942(5) 0.7414(9) 0.7151(3)
H32K H 0.3453 0.7626 0.7129
C31K C 0.3182(16) 0.7232(13) 0.8478(5)
H33K H 0.3459 0.7445 0.8659
H34K H 0.2656 0.7024 0.8518
C32K C 0.3097(11) 0.7632(12) 0.7737(5)
H35K H 0.3607 0.7911 0.7708
C33K C 0.3442(10) 0.7821(9) 0.8229(4)
H36K H 0.3494 0.8278 0.8308
H37K H 0.3924 0.7925 0.8157
C35K C -0.0745(9) 0.6624(19) 0.6692(6)
C36K C -0.0676(4) 0.6062(15) 0.6533(5)
C37K C 0.0006(5) 0.6091(6) 0.65265(18)
C1 C 0.5597(2) 0.4509(2) 0.72197(11)
N1 N 0.8170(2) 0.6040(2) 0.74878(9)
N2 N 0.6115(2) 0.5590(2) 0.63725(9)
C2 C 0.6612(3) 0.5673(2) 0.65508(11)
H1 H 0.7105 0.5967 0.6493
C3 C 0.6337(2) 0.5972(2) 0.60866(11)
H2 H 0.6879 0.6269 0.6077
C4 C 0.6903(3) 0.5253(3) 0.73312(12)
C5 C 0.3563(3) 0.3539(3) 0.78376(13)
H3 H 0.3836 0.3622 0.8021
H4 H 0.3645 0.4015 0.7767
C6 C 0.4836(3) 0.3985(3) 0.73040(11)
H5 H 0.4472 0.3843 0.7159
N3 N 0.4633(2) 0.3711(2) 0.75546(10)
C7 C 0.5746(3) 0.4824(3) 0.69338(11)
H6 H 0.5356 0.4685 0.6801
C8 C 0.7031(3) 0.5541(3) 0.70491(12)
H7 H 0.7514 0.5883 0.6993
C9 C 0.6460(3) 0.5333(2) 0.68460(11)
C10 C 0.3725(3) 0.2449(3) 0.77160(10)
H8 H 0.4009 0.2515 0.7898
C11 C 0.7529(3) 0.5521(3) 0.75434(11)
H9 H 0.7442 0.5291 0.7727
C12 C 0.2885(3) 0.1931(3) 0.77744(15)
H10 H 0.2616 0.1830 0.7589
H11 H 0.2804 0.1463 0.7854
C13 C 0.6223(4) 0.5761(4) 0.55373(13)
H12 H 0.6757 0.6043 0.5508
H13 H 0.6015 0.5379 0.5386
C14 C 0.2587(4) 0.2286(5) 0.79943(17)
H14 H 0.2056 0.1961 0.8018
H15 H 0.2819 0.2335 0.8186
N4 N 0.6421(2) 0.4961(2) 0.58636(9)
C15 C 0.6057(2) 0.5397(3) 0.58394(10)
H16 H 0.5519 0.5070 0.5860
C16 C 0.6355(3) 0.3793(2) 0.59413(8)
C17 C 0.3847(2) 0.3199(3) 0.76073(10)
H17 H 0.3574 0.3124 0.7422
C18 C 0.6038(3) 0.4285(3) 0.59157(9)
H18 H 0.5528 0.4081 0.5940
C19 C 0.6182(3) 0.4732(3) 0.74161(11)
H19 H 0.6094 0.4533 0.7606
C20 C 0.5918(2) 0.3035(3) 0.59416(8)
H20 H 0.5405 0.2829 0.5942
C21 C 0.2733(4) 0.3023(6) 0.78951(18)
H21 H 0.2566 0.3239 0.8045
H22 H 0.2457 0.2969 0.7715
C22 C 0.5907(4) 0.6269(5) 0.55038(17)
H23 H 0.5368 0.5980 0.5508
H24 H 0.6056 0.6522 0.5314
C23 C 0.6182(4) 0.6841(4) 0.5753(2)
H25 H 0.6715 0.7164 0.5735
H26 H 0.5951 0.7145 0.5735
C24 C 0.6009(3) 0.6479(3) 0.60531(14)
H27 H 0.5475 0.6193 0.6080
H28 H 0.6211 0.6860 0.6205
C1A C 0.5491(2) 0.1088(3) 0.72197(11)
N1A N 0.3960(2) 0.2130(3) 0.74878(9)
N2A N 0.4410(2) 0.0525(3) 0.63725(9)
C2A C 0.4327(2) 0.0939(4) 0.65508(11)
H1A H 0.4033 0.1138 0.6493
C3A C 0.4028(2) 0.0365(3) 0.60866(11)
H2A H 0.3731 0.0610 0.6077
C4A C 0.4747(3) 0.1650(4) 0.73312(12)
C5A C 0.6461(3) 0.0024(4) 0.78376(13)
H3A H 0.6378 0.0214 0.8021
H4A H 0.5985 -0.0370 0.7767
C6A C 0.6015(3) 0.0851(4) 0.73040(11)
H5A H 0.6157 0.0629 0.7159
N3A N 0.6289(2) 0.0922(3) 0.75546(10)
C7A C 0.5176(3) 0.0922(4) 0.69338(11)
H6A H 0.5315 0.0671 0.6801
C8A C 0.4459(3) 0.1490(4) 0.70491(12)
H7A H 0.4117 0.1631 0.6993
C9A C 0.4667(2) 0.1127(4) 0.68460(11)
C10A C 0.7551(3) 0.1276(4) 0.77160(10)
H8A H 0.7485 0.1494 0.7898
C11A C 0.4479(3) 0.2008(4) 0.75434(11)
H9A H 0.4709 0.2151 0.7727
C12A C 0.8069(3) 0.0954(4) 0.77744(15)
H10A H 0.8170 0.0786 0.7589
H11A H 0.8537 0.1341 0.7854
C13A C 0.4239(4) 0.0462(6) 0.55373(13)
H12A H 0.3957 0.0714 0.5508
H13A H 0.4621 0.0636 0.5386
C14A C 0.7714(5) 0.0301(6) 0.79943(17)
H14A H 0.8039 0.0095 0.8018
H15A H 0.7665 0.0484 0.8186
N4A N 0.5039(2) 0.1460(3) 0.58636(9)
C15A C 0.4603(3) 0.0660(4) 0.58394(10)
H16A H 0.4930 0.0449 0.5860
C16A C 0.6207(2) 0.2562(4) 0.59413(8)
C17A C 0.6801(3) 0.0648(4) 0.76073(10)
H17A H 0.6876 0.0450 0.7422
C18A C 0.5715(3) 0.1753(4) 0.59157(9)
H18A H 0.5919 0.1447 0.5940
C19A C 0.5268(3) 0.1450(4) 0.74161(11)
H19A H 0.5467 0.1561 0.7606
C20A C 0.6965(3) 0.2883(4) 0.59416(8)
H20A H 0.7171 0.2576 0.5942
C21A C 0.6977(6) -0.0290(7) 0.78951(18)
H21A H 0.6761 -0.0673 0.8045
H22A H 0.7031 -0.0512 0.7715
C22A C 0.3731(5) -0.0362(6) 0.55038(17)
H23A H 0.4020 -0.0612 0.5508
H24A H 0.3478 -0.0466 0.5314
C23A C 0.3159(4) -0.0659(6) 0.5753(2)
H25A H 0.2836 -0.0449 0.5735
H26A H 0.2855 -0.1194 0.5735
C24A C 0.3521(3) -0.0470(4) 0.60531(14)
H27A H 0.3807 -0.0718 0.6080
H28A H 0.3140 -0.0649 0.6205
C1B C 0.8912(3) 0.4403(2) 0.72197(11)
N1B N 0.7870(3) 0.1830(2) 0.74878(9)
N2B N 0.9475(3) 0.3885(2) 0.63725(9)
C2B C 0.9061(4) 0.3388(3) 0.65508(11)
H1B H 0.8862 0.2895 0.6493
C3B C 0.9635(3) 0.3663(2) 0.60866(11)
H2B H 0.9390 0.3121 0.6077
C4B C 0.8350(4) 0.3097(3) 0.73312(12)
C5B C 0.9976(4) 0.6437(3) 0.78376(13)
H3B H 0.9786 0.6164 0.8021
H4B H 1.0370 0.6355 0.7767
C6B C 0.9149(4) 0.5164(3) 0.73040(11)
H5B H 0.9371 0.5528 0.7159
N3B N 0.9078(3) 0.5367(2) 0.75546(10)
C7B C 0.9078(4) 0.4254(3) 0.69338(11)
H6B H 0.9329 0.4644 0.6801
C8B C 0.8510(4) 0.2969(3) 0.70491(12)
H7B H 0.8369 0.2486 0.6993
C9B C 0.8873(4) 0.3540(3) 0.68460(11)
C10B C 0.8724(4) 0.6275(3) 0.77160(10)
H8B H 0.8506 0.5991 0.7898
C11B C 0.7992(4) 0.2471(3) 0.75434(11)
H9B H 0.7849 0.2558 0.7727
C12B C 0.9046(4) 0.7115(3) 0.77744(15)
H10B H 0.9214 0.7384 0.7589
H11B H 0.8659 0.7196 0.7854
C13B C 0.9538(6) 0.3777(4) 0.55373(13)
H12B H 0.9286 0.3243 0.5508
H13B H 0.9364 0.3985 0.5386
C14B C 0.9699(6) 0.7413(4) 0.79943(17)
H14B H 0.9905 0.7944 0.8018
H15B H 0.9516 0.7181 0.8186
N4B N 0.8540(3) 0.3579(2) 0.58636(9)
C15B C 0.9340(4) 0.3943(2) 0.58394(10)
H16B H 0.9551 0.4481 0.5860
C16B C 0.7438(4) 0.3645(3) 0.59413(8)
C17B C 0.9352(4) 0.6153(2) 0.76073(10)
H17B H 0.9550 0.6426 0.7422
C18B C 0.8247(4) 0.3962(3) 0.59157(9)
H18B H 0.8553 0.4472 0.5940
C19B C 0.8550(4) 0.3818(3) 0.74161(11)
H19B H 0.8439 0.3906 0.7606
C20B C 0.7117(4) 0.4082(2) 0.59416(8)
H20B H 0.7424 0.4595 0.5942
C21B C 1.0290(7) 0.7267(4) 0.78951(18)
H21B H 1.0673 0.7434 0.8045
H22B H 1.0512 0.7543 0.7715
C22B C 1.0362(6) 0.4093(4) 0.55038(17)
H23B H 1.0612 0.4632 0.5508
H24B H 1.0466 0.3944 0.5314
C23B C 1.0659(6) 0.3818(4) 0.5753(2)
H25B H 1.0449 0.3285 0.5735
H26B H 1.1194 0.4049 0.5735
C24B C 1.0470(4) 0.3991(3) 0.60531(14)
H27B H 1.0718 0.4525 0.6080
H28B H 1.0649 0.3789 0.6205
C38? C 0.288(2) 0.5872(15) 0.8433(4)
H38? H 0.2630 0.5832 0.8619
H39? H 0.3218 0.5683 0.8467
C39? C 0.2310(17) 0.5372(12) 0.8211(5)
H40? H 0.1986 0.4891 0.8301
H41? H 0.2008 0.5586 0.8152
N8? N 0.2683(16) 0.5281(15) 0.7950(5)
C40? C 0.2585(14) 0.5576(12) 0.7700(6)
H42? H 0.2392 0.5894 0.7690
C41? C 0.2817(9) 0.5329(7) 0.7460(2)
C42? C 0.2465(8) 0.5341(9) 0.7200(3)
H43? H 0.2120 0.5502 0.7203
C43? C 0.2628(7) 0.5112(8) 0.6935(2)
H44? H 0.2393 0.5120 0.6761
C44? C 0.3143(6) 0.4872(4) 0.69304(17)
C45? C 0.3495(7) 0.4860(7) 0.7190(3)
H45? H 0.3840 0.4699 0.7187
C46? C 0.3332(9) 0.5089(8) 0.74552(18)
H46? H 0.3568 0.5081 0.7629
H47? H 0.4268 0.4290 0.6425
H48? H 0.4230 0.3161 0.6416
H49? H 0.3243 0.2124 0.6607
H50? H 0.2350 0.2249 0.6897
H51? H 0.2391 0.3386 0.6906
C47? C 0.3854(13) 0.3199(12) 0.6512(5)
C48? C 0.3883(4) 0.3881(8) 0.65188(18)
loop_
_geom_bond_atom_site_label_1
_geom_bond_atom_site_label_2
_geom_bond_site_symmetry_1
_geom_bond_site_symmetry_2
C1 C6 1_555 1_555
N1 C11 1_555 1_555
N2 C2 1_555 1_555
C2 H1 1_555 1_555
C3 N2 1_555 1_555
H2 C3 1_555 1_555
C4 C8 1_555 1_555
C5 H3 1_555 1_555
H4 C5 1_555 1_555
C6 H5 1_555 1_555
N3 C6 1_555 1_555
C7 C1 1_555 1_555
H6 C7 1_555 1_555
C8 H7 1_555 1_555
C9 C2 1_555 1_555
C10 H8 1_555 1_555
C11 C4 1_555 1_555
H9 C11 1_555 1_555
C12 C10 1_555 1_555
H10 C12 1_555 1_555
H11 C12 1_555 1_555
C13 H12 1_555 1_555
H13 C13 1_555 1_555
C14 C12 1_555 1_555
H14 C14 1_555 1_555
H15 C14 1_555 1_555
N4 C15 1_555 1_555
C15 C3 1_555 1_555
H16 C15 1_555 1_555
C16 C18 1_555 1_555
C17 C5 1_555 1_555
H17 C17 1_555 1_555
C18 N4 1_555 1_555
H18 C18 1_555 1_555
C19 C1 1_555 1_555
H19 C19 1_555 1_555
C20 C16 1_555 1_555
H20 C20 1_555 1_555
C21 C5 1_555 1_555
H21 C21 1_555 1_555
H22 C21 1_555 1_555
C22 C13 1_555 1_555
H23 C22 1_555 1_555
H24 C22 1_555 1_555
C23 C22 1_555 1_555
H25 C23 1_555 1_555
H26 C23 1_555 1_555
C24 C3 1_555 1_555
H27 C24 1_555 1_555
H28 C24 1_555 1_555
N5 C32 1_555 1_555
C25 C26 1_555 1_555
C26 H29 1_555 1_555
C27 C26 1_555 1_555
H30 C27 1_555 1_555
C28 C27 1_555 1_555
C29 C28 1_555 1_555
H31 C29 1_555 1_555
C30 C25 1_555 1_555
H32 C30 1_555 1_555
C31 H33 1_555 1_555
H34 C31 1_555 1_555
C32 C25 1_555 1_555
H35 C32 1_555 1_555
C33 N5 1_555 1_555
H36 C33 1_555 1_555
H37 C33 1_555 1_555
C34 C37 1_555 1_555
C35 C36 1_555 1_555
C36 C37 1_555 1_555
N6 C28 1_555 1_555
N7 C31 1_555 1_555
C1A C6A 1_555 1_555
N1A C10 1_555 1_555
N2A C2A 1_555 1_555
C2A H1A 1_555 1_555
C3A N2A 1_555 1_555
H2A C3A 1_555 1_555
C4A C8A 1_555 1_555
C5A H3A 1_555 1_555
H4A C5A 1_555 1_555
C6A H5A 1_555 1_555
N3A C6A 1_555 1_555
C7A C1A 1_555 1_555
H6A C7A 1_555 1_555
C8A H7A 1_555 1_555
C9A C2A 1_555 1_555
C10A H8A 1_555 1_555
C11A N1A 1_555 1_555
H9A C11A 1_555 1_555
C12A C10A 1_555 1_555
H10A C12A 1_555 1_555
H11A C12A 1_555 1_555
C13A H12A 1_555 1_555
H13A C13A 1_555 1_555
C14A C12A 1_555 1_555
H14A C14A 1_555 1_555
H15A C14A 1_555 1_555
N4A C15A 1_555 1_555
C15A C3A 1_555 1_555
H16A C15A 1_555 1_555
C16A C20 1_555 1_555
C17A C5A 1_555 1_555
H17A C17A 1_555 1_555
C18A N4A 1_555 1_555
H18A C18A 1_555 1_555
C19A C1A 1_555 1_555
H19A C19A 1_555 1_555
C20A C16A 1_555 1_555
H20A C20A 1_555 1_555
C21A C5A 1_555 1_555
H21A C21A 1_555 1_555
H22A C21A 1_555 1_555
C22A C13A 1_555 1_555
H23A C22A 1_555 1_555
H24A C22A 1_555 1_555
C23A C22A 1_555 1_555
H25A C23A 1_555 1_555
H26A C23A 1_555 1_555
C24A C3A 1_555 1_555
H27A C24A 1_555 1_555
H28A C24A 1_555 1_555
C1B C6B 1_555 1_555
N1B C10A 1_555 1_555
N2B C2B 1_555 1_555
C2B H1B 1_555 1_555
C3B N2B 1_555 1_555
H2B C3B 1_555 1_555
C4B C8B 1_555 1_555
C5B H3B 1_555 1_555
H4B C5B 1_555 1_555
C6B H5B 1_555 1_555
N3B C6B 1_555 1_555
C7B C1B 1_555 1_555
H6B C7B 1_555 1_555
C8B H7B 1_555 1_555
C9B C2B 1_555 1_555
C10B N1 1_555 1_555
H8B C10B 1_555 1_555
C11B N1B 1_555 1_555
H9B C11B 1_555 1_555
C12B C10B 1_555 1_555
H10B C12B 1_555 1_555
H11B C12B 1_555 1_555
C13B H12B 1_555 1_555
H13B C13B 1_555 1_555
C14B C12B 1_555 1_555
H14B C14B 1_555 1_555
H15B C14B 1_555 1_555
N4B C15B 1_555 1_555
C15B C3B 1_555 1_555
H16B C15B 1_555 1_555
C16B C20A 1_555 1_555
C17B C5B 1_555 1_555
H17B C17B 1_555 1_555
C18B N4B 1_555 1_555
H18B C18B 1_555 1_555
C19B C1B 1_555 1_555
H19B C19B 1_555 1_555
C20B C16 1_555 1_555
H20B C20B 1_555 1_555
C21B C5B 1_555 1_555
H21B C21B 1_555 1_555
H22B C21B 1_555 1_555
C22B C13B 1_555 1_555
H23B C22B 1_555 1_555
H24B C22B 1_555 1_555
C23B C22B 1_555 1_555
H25B C23B 1_555 1_555
H26B C23B 1_555 1_555
C24B C3B 1_555 1_555
H27B C24B 1_555 1_555
H28B C24B 1_555 1_555
N5A C32A 1_555 1_555
C25A C26A 1_555 1_555
C26A H29A 1_555 1_555
C27A C26A 1_555 1_555
H30A C27A 1_555 1_555
C28A C27A 1_555 1_555
C29A C28A 1_555 1_555
H31A C29A 1_555 1_555
C30A C25A 1_555 1_555
H32A C30A 1_555 1_555
C31A N7 1_555 1_555
H33A C31A 1_555 1_555
H34A C31A 1_555 1_555
C32A C25A 1_555 1_555
H35A C32A 1_555 1_555
C33A N5A 1_555 1_555
H36A C33A 1_555 1_555
H37A C33A 1_555 1_555
C34A C37A 1_555 1_555
C35A C36A 1_555 1_555
C36A C37A 1_555 1_555
N6A C28A 1_555 1_555
N5B C32B 1_555 1_555
C25B C26B 1_555 1_555
C26B H29B 1_555 1_555
C27B C26B 1_555 1_555
H30B C27B 1_555 1_555
C28B C27B 1_555 1_555
C29B C28B 1_555 1_555
H31B C29B 1_555 1_555
C30B C25B 1_555 1_555
H32B C30B 1_555 1_555
C31B N7 1_555 1_555
H33B C31B 1_555 1_555
H34B C31B 1_555 1_555
C32B C25B 1_555 1_555
H35B C32B 1_555 1_555
C33B N5B 1_555 1_555
H36B C33B 1_555 1_555
H37B C33B 1_555 1_555
C34B C37B 1_555 1_555
C35B C36B 1_555 1_555
C36B C37B 1_555 1_555
N6B C28B 1_555 1_555
N5I C32I 1_555 1_555
C25I C26I 1_555 1_555
C26I H29I 1_555 1_555
C27I C26I 1_555 1_555
H30I C27I 1_555 1_555
C28I N6A 1_555 1_555
C29I C28I 1_555 1_555
H31I C29I 1_555 1_555
C30I C25I 1_555 1_555
H32I C30I 1_555 1_555
C31I H33I 1_555 1_555
H34I C31I 1_555 1_555
C32I C25I 1_555 1_555
H35I C32I 1_555 1_555
C33I N5I 1_555 1_555
H36I C33I 1_555 1_555
H37I C33I 1_555 1_555
C35I C36A 1_555 1_555
C36I C35A 1_555 1_555
C37I C34A 1_555 1_555
N7I C31I 1_555 1_555
N5J C32J 1_555 1_555
C25J C26J 1_555 1_555
C26J H29J 1_555 1_555
C27J C26J 1_555 1_555
H30J C27J 1_555 1_555
C28J N6 1_555 1_555
C29J C28J 1_555 1_555
H31J C29J 1_555 1_555
C30J C25J 1_555 1_555
H32J C30J 1_555 1_555
C31J N7I 1_555 1_555
H33J C31J 1_555 1_555
H34J C31J 1_555 1_555
C32J C25J 1_555 1_555
H35J C32J 1_555 1_555
C33J N5J 1_555 1_555
H36J C33J 1_555 1_555
H37J C33J 1_555 1_555
C35J C36 1_555 1_555
C36J C35 1_555 1_555
C37J C34 1_555 1_555
N5K C32K 1_555 1_555
C25K C26K 1_555 1_555
C26K H29K 1_555 1_555
C27K C26K 1_555 1_555
H30K C27K 1_555 1_555
C28K N6B 1_555 1_555
C29K C28K 1_555 1_555
H31K C29K 1_555 1_555
C30K C25K 1_555 1_555
H32K C30K 1_555 1_555
C31K N7I 1_555 1_555
H33K C31K 1_555 1_555
H34K C31K 1_555 1_555
C32K C25K 1_555 1_555
H35K C32K 1_555 1_555
C33K N5K 1_555 1_555
H36K C33K 1_555 1_555
H37K C33K 1_555 1_555
C35K C36B 1_555 1_555
C36K C35B 1_555 1_555
C37K C34B 1_555 1_555
C4 C19 1_555 1_555
N3 C17 1_555 1_555
C7 C9 1_555 1_555
C8 C9 1_555 1_555
C10 C17 1_555 1_555
C13 C15 1_555 1_555
C14 C21 1_555 1_555
C23 C24 1_555 1_555
C29 C30 1_555 1_555
C31 C33 1_555 1_555
C34 N6 1_555 1_555
C4A C11A 1_555 1_555
C4A C19A 1_555 1_555
N3A C17A 1_555 1_555
C7A C9A 1_555 1_555
C8A C9A 1_555 1_555
C10A C17A 1_555 1_555
C13A C15A 1_555 1_555
C14A C21A 1_555 1_555
C16A C18A 1_555 1_555
C23A C24A 1_555 1_555
C4B C11B 1_555 1_555
C4B C19B 1_555 1_555
N3B C17B 1_555 1_555
C7B C9B 1_555 1_555
C8B C9B 1_555 1_555
C10B C17B 1_555 1_555
C13B C15B 1_555 1_555
C14B C21B 1_555 1_555
C16B C18B 1_555 1_555
C16B C20B 1_555 1_555
C23B C24B 1_555 1_555
C29A C30A 1_555 1_555
C31A C33A 1_555 1_555
C34A N6A 1_555 1_555
C29B C30B 1_555 1_555
C31B C33B 1_555 1_555
C34B N6B 1_555 1_555
C27I C28I 1_555 1_555
C29I C30I 1_555 1_555
C31I C33I 1_555 1_555
C35I C36I 1_555 1_555
C36I C37I 1_555 1_555
C27J C28J 1_555 1_555
C29J C30J 1_555 1_555
C31J C33J 1_555 1_555
C35J C36J 1_555 1_555
C36J C37J 1_555 1_555
C27K C28K 1_555 1_555
C29K C30K 1_555 1_555
C31K C33K 1_555 1_555
C35K C36K 1_555 1_555
C36K C37K 1_555 1_555

#END
