
#######################################################################
#
#                 Cambridge Crystallographic Data Centre
#                                CCDC 
#
#######################################################################
#
# If this CIF has been generated from an entry in the Cambridge 
# Structural Database, then it will include bibliographic, chemical, 
# crystal, experimental, refinement or atomic coordinate data resulting 
# from the CCDC's data processing and validation procedures.
#
#######################################################################

data_MOTYUR
_chemical_formula_moiety         
'2(C72 H84 N12),C72 H69 N11,2(C1 H1 Cl3),8(C1 H4 O1)'
_chemical_name_systematic        
'bis(5,12,20,27,35,42,50,57,62,69,74,81-Dodecaazatridecacyclo[29.29.10.10^16,46^.1^3,59^.1^14,18^.1^29,33^.1^44,48^.0^6,11^.0^21,26^.0^36,41^.0^51,56^.0^63,68^.0^75,80^]tetraoctaconta-1,3(71),4,12,14(84),15,17,19,27,29(83),30,32,34,42,44(72),45,47,49,57,59,61,69,73,81-tetracosaene) 10,28,45-triphenyl-1,4,10,16,19,22,28,34,39,45,51-undecaazaoctacyclo[17.17.17.2^6,9^.2^11,14^.2^24,27^.2^29,32^.2^41,44^.2^46,49^]pentahexaconta-4,6,8,11,13,15,22,24,26,29,31,33,39,41,43,46,48,50,54,56,58,60,62,64-tetracosaene chloroform methanol solvate'
_symmetry_cell_setting           rhombohedral
_symmetry_space_group_name_H-M   'R 3 2'
_symmetry_Int_Tables_number      155
_space_group_name_Hall           'R 3 2"'
loop_
_symmetry_equiv_pos_site_id
_symmetry_equiv_pos_as_xyz
1 x,y,z
2 -y,x-y,z
3 -x+y,-x,z
4 x-y,-y,-z
5 -x,-x+y,-z
6 y,x,-z
7 2/3+x,1/3+y,1/3+z
8 2/3-y,1/3+x-y,1/3+z
9 2/3-x+y,1/3-x,1/3+z
10 2/3+x-y,1/3-y,1/3-z
11 2/3-x,1/3-x+y,1/3-z
12 2/3+y,1/3+x,1/3-z
13 1/3+x,2/3+y,2/3+z
14 1/3-y,2/3+x-y,2/3+z
15 1/3-x+y,2/3-x,2/3+z
16 1/3+x-y,2/3-y,2/3-z
17 1/3-x,2/3-x+y,2/3-z
18 1/3+y,2/3+x,2/3-z
_cell_length_a                   20.5397(11)
_cell_length_b                   20.5397(11)
_cell_length_c                   44.747(3)
_cell_angle_alpha                90
_cell_angle_beta                 90
_cell_angle_gamma                120
_cell_volume                     16348.7
_exptl_crystal_colour            colorless
_exptl_crystal_description       prism
_cell_formula_units_Z            3
loop_
_atom_site_label
_atom_site_type_symbol
_atom_site_fract_x
_atom_site_fract_y
_atom_site_fract_z
O1 O 0.6667 0.3333 0.7316(3)
C2 C 0.6667 0.3333 0.7633(4)
O2 O 0.5308(6) 0.4323(6) 0.8170(2)
H2 H 0.4844 0.4013 0.8173
C3 C 0.5426(8) 0.5070(7) 0.8188(3)
H3 H 0.5612 0.5325 0.7996
H4 H 0.5796 0.5350 0.8345
H5 H 0.4950 0.5049 0.8236
N1 N 0.39250(14) 0.21525(14) 0.74797(6)
N2 N 0.46182(14) 0.37647(14) 0.75711(6)
N3 N 0.61042(14) 0.56326(14) 0.63680(6)
N4 N 0.64092(14) 0.49693(14) 0.58619(6)
C4 C 0.75653(17) 0.55784(17) 0.75515(7)
H6 H 0.7470 0.5372 0.7747
C5 C 0.69367(16) 0.53132(16) 0.73357(7)
C6 C 0.62084(17) 0.47951(17) 0.74266(7)
H7 H 0.6122 0.4593 0.7623
C7 C 0.56055(16) 0.45727(16) 0.72297(7)
C8 C 0.57413(17) 0.48738(16) 0.69437(7)
H8 H 0.5332 0.4726 0.6810
C9 C 0.64709(17) 0.53925(16) 0.68484(7)
C10 C 0.70600(16) 0.56021(16) 0.70476(7)
H9 H 0.7558 0.5950 0.6986
C11 C 0.48233(16) 0.40267(16) 0.73140(7)
H10 H 0.4450 0.3863 0.7163
C12 C 0.38109(15) 0.32460(16) 0.76119(6)
H11 H 0.3544 0.3192 0.7418
C13 C 0.35113(18) 0.35646(19) 0.78474(7)
H12 H 0.3615 0.4070 0.7785
H13 H 0.3775 0.3619 0.8039
C14 C 0.2666(2) 0.3054(2) 0.78923(8)
H14 H 0.2488 0.3263 0.8051
H15 H 0.2398 0.3030 0.7705
C15 C 0.24920(19) 0.2268(2) 0.79798(8)
H16 H 0.2701 0.2283 0.8181
H17 H 0.1940 0.1931 0.7989
C16 C 0.28223(18) 0.19543(19) 0.77573(8)
H18 H 0.2564 0.1878 0.7563
H19 H 0.2728 0.1458 0.7829
C17 C 0.36715(16) 0.24744(17) 0.77123(7)
H20 H 0.3945 0.2523 0.7903
C18 C 0.66206(16) 0.57212(15) 0.65470(7)
H21 H 0.7128 0.6014 0.6483
C19 C 0.63261(16) 0.60056(16) 0.60781(8)
H22 H 0.6887 0.6312 0.6067
C20 C 0.60325(17) 0.54082(16) 0.58313(8)
H23 H 0.5477 0.5072 0.5853
C21 C 0.6210(2) 0.5775(2) 0.55220(8)
H24 H 0.6761 0.6073 0.5495
H25 H 0.6002 0.5380 0.5366
C22 C 0.5874(2) 0.6286(2) 0.54859(9)
H26 H 0.5319 0.5980 0.5493
H27 H 0.6019 0.6538 0.5289
C23 C 0.6152(2) 0.6880(2) 0.57341(10)
H28 H 0.6700 0.7222 0.5712
H29 H 0.5901 0.7182 0.5715
C24 C 0.5990(2) 0.65179(19) 0.60402(9)
H30 H 0.5439 0.6220 0.6070
H31 H 0.6200 0.6916 0.6195
C25 C 0.60122(17) 0.42832(17) 0.59259(7)
H32 H 0.5488 0.4074 0.5958
C26 C 0.63504(17) 0.37990(17) 0.59509(7)
C27 C 0.58898(17) 0.30222(18) 0.59527(7)
H33 H 0.5359 0.2809 0.5955
N1A N 0.78475(14) 0.17725(20) 0.74797(6)
N2A N 0.62353(14) 0.08535(20) 0.75711(6)
N3A N 0.43674(14) 0.04716(20) 0.63680(6)
N4A N 0.50307(14) 0.14399(20) 0.58619(6)
C4A C 0.44216(17) 0.19869(24) 0.75515(7)
H6A H 0.4628 0.2098 0.7747
C5A C 0.46868(16) 0.16235(23) 0.73357(7)
C6A C 0.52049(17) 0.14133(24) 0.74266(7)
H7A H 0.5407 0.1529 0.7623
C7A C 0.54273(16) 0.10328(23) 0.72297(7)
C8A C 0.51262(16) 0.08675(23) 0.69437(7)
H8A H 0.5274 0.0606 0.6810
C9A C 0.46075(16) 0.10784(23) 0.68484(7)
C10A C 0.43979(16) 0.14579(23) 0.70476(7)
H9A H 0.4050 0.1608 0.6986
C11A C 0.59733(16) 0.07966(23) 0.73140(7)
H10A H 0.6137 0.0587 0.7163
C12A C 0.67540(16) 0.05649(22) 0.76119(6)
H11A H 0.6808 0.0352 0.7418
C13A C 0.64354(19) -0.00533(26) 0.78474(7)
H12A H 0.5930 -0.0455 0.7785
H13A H 0.6381 0.0156 0.8039
C14A C 0.6946(2) -0.0388(3) 0.78923(8)
H14A H 0.6737 -0.0775 0.8051
H15A H 0.6970 -0.0632 0.7705
C15A C 0.7732(2) 0.02240(28) 0.79798(8)
H16A H 0.7717 0.0418 0.8181
H17A H 0.8069 0.0009 0.7989
C16A C 0.80457(19) 0.08680(26) 0.77573(8)
H18A H 0.8122 0.0686 0.7563
H19A H 0.8542 0.1270 0.7829
C17A C 0.75256(17) 0.11971(23) 0.77123(7)
H20A H 0.7477 0.1422 0.7903
C18A C 0.42788(15) 0.08994(22) 0.65470(7)
H21A H 0.3986 0.1114 0.6483
C19A C 0.39944(16) 0.03205(23) 0.60781(8)
H22A H 0.3688 0.0575 0.6067
C20A C 0.45918(16) 0.06243(23) 0.58313(8)
H23A H 0.4928 0.0405 0.5853
C21A C 0.4225(2) 0.0435(3) 0.55220(8)
H24A H 0.3927 0.0688 0.5495
H25A H 0.4620 0.0622 0.5366
C22A C 0.3714(2) -0.0412(3) 0.54859(9)
H26A H 0.4020 -0.0661 0.5493
H27A H 0.3462 -0.0519 0.5289
C23A C 0.3120(2) -0.0728(3) 0.57341(10)
H28A H 0.2778 -0.0522 0.5712
H29A H 0.2818 -0.1281 0.5715
C24A C 0.34821(19) -0.05279(28) 0.60402(9)
H30A H 0.3780 -0.0781 0.6070
H31A H 0.3084 -0.0716 0.6195
C25A C 0.57168(17) 0.17290(24) 0.59259(7)
H32A H 0.5926 0.1414 0.5958
C26A C 0.62010(17) 0.25514(24) 0.59509(7)
C27A C 0.69778(18) 0.28676(25) 0.59527(7)
H33A H 0.7191 0.2550 0.5955
N1B N 0.82275(20) 0.60750(14) 0.74797(6)
N2B N 0.91465(20) 0.53818(14) 0.75711(6)
N3B N 0.95284(20) 0.38958(14) 0.63680(6)
N4B N 0.85601(20) 0.35908(14) 0.58619(6)
C4B C 0.80131(24) 0.24347(17) 0.75515(7)
H6B H 0.7902 0.2530 0.7747
C5B C 0.83765(23) 0.30633(16) 0.73357(7)
C6B C 0.85867(24) 0.37916(17) 0.74266(7)
H7B H 0.8471 0.3878 0.7623
C7B C 0.89672(23) 0.43945(16) 0.72297(7)
C8B C 0.91325(23) 0.42587(17) 0.69437(7)
H8B H 0.9394 0.4668 0.6810
C9B C 0.89216(23) 0.35291(17) 0.68484(7)
C10B C 0.85421(23) 0.29400(16) 0.70476(7)
H9B H 0.8392 0.2442 0.6986
C11B C 0.92034(23) 0.51767(16) 0.73140(7)
H10B H 0.9413 0.5550 0.7163
C12B C 0.94351(22) 0.61891(15) 0.76119(6)
H11B H 0.9648 0.6456 0.7418
C13B C 1.00533(26) 0.64887(18) 0.78474(7)
H12B H 1.0455 0.6385 0.7785
H13B H 0.9844 0.6225 0.8039
C14B C 1.0388(3) 0.7334(2) 0.78923(8)
H14B H 1.0775 0.7512 0.8051
H15B H 1.0632 0.7602 0.7705
C15B C 0.97760(28) 0.75080(19) 0.79798(8)
H16B H 0.9582 0.7299 0.8181
H17B H 0.9991 0.8060 0.7989
C16B C 0.91320(26) 0.71777(18) 0.77573(8)
H18B H 0.9314 0.7436 0.7563
H19B H 0.8730 0.7272 0.7829
C17B C 0.88029(23) 0.63285(16) 0.77123(7)
H20B H 0.8578 0.6055 0.7903
C18B C 0.91006(22) 0.33794(16) 0.65470(7)
H21B H 0.8886 0.2872 0.6483
C19B C 0.96795(23) 0.36739(16) 0.60781(8)
H22B H 0.9425 0.3113 0.6067
C20B C 0.93757(23) 0.39675(17) 0.58313(8)
H23B H 0.9595 0.4523 0.5853
C21B C 0.9565(3) 0.3790(2) 0.55220(8)
H24B H 0.9312 0.3239 0.5495
H25B H 0.9378 0.3998 0.5366
C22B C 1.0412(3) 0.4126(2) 0.54859(9)
H26B H 1.0661 0.4681 0.5493
H27B H 1.0519 0.3981 0.5289
C23B C 1.0728(3) 0.3848(2) 0.57341(10)
H28B H 1.0522 0.3300 0.5712
H29B H 1.1281 0.4099 0.5715
C24B C 1.05279(28) 0.4010(2) 0.60402(9)
H30B H 1.0781 0.4561 0.6070
H31B H 1.0716 0.3800 0.6195
C25B C 0.82710(24) 0.39878(17) 0.59259(7)
H32B H 0.8586 0.4512 0.5958
C26B C 0.74486(24) 0.36496(17) 0.59509(7)
C27B C 0.71324(25) 0.41102(17) 0.59527(7)
H33B H 0.7450 0.4641 0.5955
N5 N 0.4340(3) 0.6369(3) 0.53004(12)
N6 N 0.3650(3) 0.4797(3) 0.65989(10)
N7 N 0.3333 0.6666 0.49544(16)
C28 C 0.3983(3) 0.6613(3) 0.48101(12)
H34 H 0.3827 0.6086 0.4759
H35 H 0.4161 0.6924 0.4627
C29 C 0.4592(3) 0.6915(3) 0.50512(12)
H36 H 0.5069 0.6986 0.4967
H37 H 0.4679 0.7408 0.5124
C30 C 0.4362(3) 0.6622(3) 0.55637(12)
H38 H 0.4516 0.7139 0.5588
C31 C 0.4159(3) 0.6147(3) 0.58265(14)
C32 C 0.4240(4) 0.6443(4) 0.61162(14)
H39 H 0.4401 0.6962 0.6139
C33 C 0.4097(4) 0.6018(5) 0.6363(2)
H40 H 0.4193 0.6247 0.6555
C34 C 0.3805(3) 0.5231(3) 0.63401(12)
C35 C 0.3688(3) 0.4916(3) 0.60521(11)
H41 H 0.3487 0.4390 0.6030
C36 C 0.3863(3) 0.5363(3) 0.58023(12)
H42 H 0.3783 0.5141 0.5610
C37 C 0.3610(4) 0.4087(4) 0.65972(17)
C38 C 0.3531(5) 0.2697(5) 0.66027(14)
C39 C 0.4121(5) 0.3292(4) 0.64578(15)
H43 H 0.4500 0.3227 0.6364
C40 C 0.4160(4) 0.3986(3) 0.64492(13)
H44 H 0.4557 0.4393 0.6344
N5A N 0.3631(3) 0.7971(4) 0.53004(12)
N6A N 0.5203(3) 0.8853(4) 0.65989(10)
C28A C 0.3387(3) 0.7370(4) 0.48101(12)
H34A H 0.3914 0.7741 0.4759
H35A H 0.3076 0.7237 0.4627
C29A C 0.3085(3) 0.7677(4) 0.50512(12)
H36A H 0.3014 0.8083 0.4967
H37A H 0.2592 0.7271 0.5124
C30A C 0.3378(3) 0.7740(4) 0.55637(12)
H38A H 0.2861 0.7377 0.5588
C31A C 0.3853(3) 0.8012(4) 0.58265(14)
C32A C 0.3557(4) 0.7797(6) 0.61162(14)
H39A H 0.3038 0.7439 0.6139
C33A C 0.3982(5) 0.8079(6) 0.6363(2)
H40A H 0.3753 0.7946 0.6555
C34A C 0.4769(3) 0.8574(4) 0.63401(12)
C35A C 0.5084(3) 0.8772(4) 0.60521(11)
H41A H 0.5610 0.9097 0.6030
C36A C 0.4637(3) 0.8500(4) 0.58023(12)
H42A H 0.4859 0.8642 0.5610
C37A C 0.5913(4) 0.9523(6) 0.65972(17)
C38A C 0.7303(5) 1.0834(7) 0.66027(14)
C39A C 0.6708(4) 1.0829(6) 0.64578(15)
H43A H 0.6773 1.1273 0.6364
C40A C 0.6014(3) 1.0174(5) 0.64492(13)
H44A H 0.5607 1.0164 0.6344
N5B N 0.2029(4) 0.5660(3) 0.53004(12)
N6B N 0.1147(4) 0.6350(3) 0.65989(10)
C28B C 0.2630(4) 0.6017(3) 0.48101(12)
H34B H 0.2259 0.6173 0.4759
H35B H 0.2763 0.5839 0.4627
C29B C 0.2323(4) 0.5408(3) 0.50512(12)
H36B H 0.1917 0.4931 0.4967
H37B H 0.2729 0.5321 0.5124
C30B C 0.2260(4) 0.5638(3) 0.55637(12)
H38B H 0.2623 0.5484 0.5588
C31B C 0.1988(4) 0.5841(3) 0.58265(14)
C32B C 0.2203(6) 0.5760(4) 0.61162(14)
H39B H 0.2561 0.5599 0.6139
C33B C 0.1921(6) 0.5903(4) 0.6363(2)
H40B H 0.2054 0.5807 0.6555
C34B C 0.1426(4) 0.6195(3) 0.63401(12)
C35B C 0.1228(4) 0.6312(3) 0.60521(11)
H41B H 0.0903 0.6513 0.6030
C36B C 0.1500(4) 0.6137(3) 0.58023(12)
H42B H 0.1358 0.6217 0.5610
C37B C 0.0477(6) 0.6390(4) 0.65972(17)
C38B C -0.0834(7) 0.6469(5) 0.66027(14)
C39B C -0.0829(6) 0.5879(5) 0.64578(15)
H43B H -0.1273 0.5500 0.6364
C40B C -0.0174(5) 0.5840(4) 0.64492(13)
H44B H -0.0164 0.5443 0.6344
N5I N 0.4638(4) 0.6964(3) 0.80329(12)
N6I N 0.5520(4) 0.8536(3) 0.67344(10)
N7I N 0.3334 0.6667 0.83789(16)
C28I C 0.4037(4) 0.6720(3) 0.85232(12)
H34I H 0.4408 0.7247 0.8574
H35I H 0.3904 0.6409 0.8706
C29I C 0.4344(4) 0.6418(3) 0.82821(12)
H36I H 0.4750 0.6347 0.8366
H37I H 0.3938 0.5925 0.8209
C30I C 0.4407(4) 0.6711(3) 0.77696(12)
H38I H 0.4044 0.6194 0.7745
C31I C 0.4679(4) 0.7186(3) 0.75068(14)
C32I C 0.4464(6) 0.6890(4) 0.72171(14)
H39I H 0.4106 0.6371 0.7194
C33I C 0.4746(6) 0.7315(5) 0.6970(2)
H40I H 0.4613 0.7086 0.6778
C34I C 0.5241(4) 0.8102(3) 0.69932(12)
C35I C 0.5439(4) 0.8417(3) 0.72812(11)
H41I H 0.5764 0.8943 0.7303
C36I C 0.5167(4) 0.7970(3) 0.75310(12)
H42I H 0.5309 0.8192 0.7723
C37I C 0.6190(6) 0.9246(4) 0.67361(17)
C38I C 0.7501(7) 1.0636(5) 0.67306(14)
C39I C 0.7496(6) 1.0041(4) 0.68755(15)
H43I H 0.7940 1.0106 0.6969
C40I C 0.6841(5) 0.9347(3) 0.68841(13)
H44I H 0.6831 0.8940 0.6989
N5J N 0.2327(3) 0.5362(4) 0.80329(12)
N6J N 0.3017(3) 0.4480(4) 0.67344(10)
C28J C 0.2684(3) 0.5963(4) 0.85232(12)
H34J H 0.2840 0.5592 0.8574
H35J H 0.2506 0.6096 0.8706
C29J C 0.2075(3) 0.5656(4) 0.82821(12)
H36J H 0.1598 0.5250 0.8366
H37J H 0.1988 0.6062 0.8209
C30J C 0.2305(3) 0.5593(4) 0.77696(12)
H38J H 0.2151 0.5956 0.7745
C31J C 0.2508(3) 0.5321(4) 0.75068(14)
C32J C 0.2427(4) 0.5536(6) 0.72171(14)
H39J H 0.2266 0.5894 0.7194
C33J C 0.2570(4) 0.5254(6) 0.6970(2)
H40J H 0.2474 0.5387 0.6778
C34J C 0.2862(3) 0.4759(4) 0.69932(12)
C35J C 0.2979(3) 0.4561(4) 0.72812(11)
H41J H 0.3180 0.4236 0.7303
C36J C 0.2804(3) 0.4833(4) 0.75310(12)
H42J H 0.2884 0.4691 0.7723
C37J C 0.3057(4) 0.3810(6) 0.67361(17)
C38J C 0.3136(5) 0.2499(7) 0.67306(14)
C39J C 0.2546(5) 0.2504(6) 0.68755(15)
H43J H 0.2167 0.2060 0.6969
C40J C 0.2507(4) 0.3159(5) 0.68841(13)
H44J H 0.2110 0.3169 0.6989
N5K N 0.3036(3) 0.7673(3) 0.80329(12)
N6K N 0.1464(3) 0.6983(3) 0.67344(10)
C28K C 0.3280(3) 0.7316(3) 0.85232(12)
H34K H 0.2753 0.7160 0.8574
H35K H 0.3591 0.7494 0.8706
C29K C 0.3582(3) 0.7925(3) 0.82821(12)
H36K H 0.3653 0.8402 0.8366
H37K H 0.4075 0.8012 0.8209
C30K C 0.3289(3) 0.7695(3) 0.77696(12)
H38K H 0.3806 0.7849 0.7745
C31K C 0.2814(3) 0.7492(3) 0.75068(14)
C32K C 0.3110(4) 0.7573(4) 0.72171(14)
H39K H 0.3629 0.7734 0.7194
C33K C 0.2685(5) 0.7430(4) 0.6970(2)
H40K H 0.2914 0.7526 0.6778
C34K C 0.1898(3) 0.7138(3) 0.69932(12)
C35K C 0.1583(3) 0.7021(3) 0.72812(11)
H41K H 0.1057 0.6820 0.7303
C36K C 0.2030(3) 0.7196(3) 0.75310(12)
H42K H 0.1808 0.7116 0.7723
C37K C 0.0754(4) 0.6943(4) 0.67361(17)
C38K C -0.0636(5) 0.6864(5) 0.67306(14)
C39K C -0.0041(4) 0.7454(5) 0.68755(15)
H43K H -0.0106 0.7833 0.6969
C40K C 0.0653(3) 0.7493(4) 0.68841(13)
H44K H 0.1060 0.7890 0.6989
Cl1 Cl 0.57976(8) 0.32204(8) 0.67979(4)
C1 C 0.6667 0.3333 0.66875(17)
H1 H 0.6667 0.3333 0.6464
Cl1A Cl 0.67796(8) 0.25772(11) 0.67979(4)
Cl1B Cl 0.74228(11) 0.42024(8) 0.67979(4)
O3? O 0.6869(16) 0.3716(12) 0.7911(5)
C41? C 0.6667 0.3333 0.7633(4)
C42? C 0.6667 0.501(2) 0.8333
H45? H 0.6849 0.4876 0.8155
H46? H 0.6356 0.4560 0.8452
H47? H 0.7096 0.5373 0.8453
O4? O 0.5950(18) 0.3757(18) 0.8396(6)
H48? H 0.6410 0.4023 0.8358
O5? O 0.622(3) 0.535(3) 0.8245(11)
H49? H 0.6446 0.5801 0.8296
C43? C 0.552(2) 0.371(2) 0.8132(7)
H50? H 0.5844 0.3847 0.7955
H51? H 0.5317 0.4047 0.8152
H52? H 0.5102 0.3189 0.8109
N8? N 0.2903(3) 0.5269(3) 0.79459(11)
C44? C 0.3456(3) 0.5014(3) 0.68700(12)
C45? C 0.2893(4) 0.5211(3) 0.68736(16)
C46? C 0.2685(4) 0.5386(4) 0.7135(2)
H53? H 0.2313 0.5532 0.7134
C47? C 0.3012(3) 0.5354(3) 0.74101(12)
C48? C 0.3596(4) 0.5194(3) 0.74020(12)
H54? H 0.3836 0.5188 0.7583
C49? C 0.3834(4) 0.5044(3) 0.71309(12)
H55? H 0.4250 0.4964 0.7126
C50? C 0.2718(4) 0.5443(3) 0.76942(17)
H56? H 0.2381 0.5633 0.7695
C51? C 0.2556(4) 0.5317(4) 0.82174(14)
H57? H 0.2321 0.4823 0.8320
H58? H 0.2154 0.5430 0.8168
C52? C 0.3099(4) 0.5902(4) 0.84238(12)
H59? H 0.2879 0.5768 0.8627
H60? H 0.3556 0.5857 0.8426
C53? C 0.2988(5) 0.2784(4) 0.67546(17)
C54? C 0.3027(4) 0.3495(5) 0.67506(17)
H61? H 0.4008 0.4238 0.6482
H62? H 0.4071 0.3110 0.6473
H63? H 0.3494 0.2217 0.6599
loop_
_geom_bond_atom_site_label_1
_geom_bond_atom_site_label_2
_geom_bond_site_symmetry_1
_geom_bond_site_symmetry_2
Cl1 C1 1_555 1_555
C1 H1 1_555 1_555
O1 C2 1_555 1_555
O2 H2 1_555 1_555
C3 O2 1_555 1_555
H3 C3 1_555 1_555
H4 C3 1_555 1_555
H5 C3 1_555 1_555
N1 C17 1_555 1_555
N2 C11 1_555 1_555
N3 C18 1_555 1_555
N4 C20 1_555 1_555
C4 H6 1_555 1_555
C5 C4 1_555 1_555
C6 C5 1_555 1_555
H7 C6 1_555 1_555
C7 C6 1_555 1_555
C8 C7 1_555 1_555
H8 C8 1_555 1_555
C9 C8 1_555 1_555
C10 C5 1_555 1_555
H9 C10 1_555 1_555
C11 C7 1_555 1_555
H10 C11 1_555 1_555
C12 N2 1_555 1_555
H11 C12 1_555 1_555
C13 C12 1_555 1_555
H12 C13 1_555 1_555
H13 C13 1_555 1_555
C14 C13 1_555 1_555
H14 C14 1_555 1_555
H15 C14 1_555 1_555
C15 C14 1_555 1_555
H16 C15 1_555 1_555
H17 C15 1_555 1_555
C16 C15 1_555 1_555
H18 C16 1_555 1_555
H19 C16 1_555 1_555
C17 C12 1_555 1_555
H20 C17 1_555 1_555
C18 C9 1_555 1_555
H21 C18 1_555 1_555
C19 N3 1_555 1_555
H22 C19 1_555 1_555
C20 C19 1_555 1_555
H23 C20 1_555 1_555
C21 C20 1_555 1_555
H24 C21 1_555 1_555
H25 C21 1_555 1_555
C22 C21 1_555 1_555
H26 C22 1_555 1_555
H27 C22 1_555 1_555
C23 C22 1_555 1_555
H28 C23 1_555 1_555
H29 C23 1_555 1_555
C24 C19 1_555 1_555
H30 C24 1_555 1_555
H31 C24 1_555 1_555
C25 N4 1_555 1_555
H32 C25 1_555 1_555
C26 C25 1_555 1_555
C27 C26 1_555 1_555
H33 C27 1_555 1_555
N5 C29 1_555 1_555
N6 C34 1_555 1_555
N7 C28 1_555 1_555
C28 H34 1_555 1_555
H35 C28 1_555 1_555
C29 C28 1_555 1_555
H36 C29 1_555 1_555
H37 C29 1_555 1_555
C30 N5 1_555 1_555
H38 C30 1_555 1_555
C31 C30 1_555 1_555
C32 C31 1_555 1_555
H39 C32 1_555 1_555
C33 C32 1_555 1_555
H40 C33 1_555 1_555
C34 C33 1_555 1_555
C35 C34 1_555 1_555
H41 C35 1_555 1_555
C36 C31 1_555 1_555
H42 C36 1_555 1_555
C37 N6 1_555 1_555
C38 C39 1_555 1_555
C39 H43 1_555 1_555
C40 C37 1_555 1_555
H44 C40 1_555 1_555
Cl1A C1 1_555 1_555
Cl1B C1 1_555 1_555
N1A C17A 1_555 1_555
N2A C11A 1_555 1_555
N3A C18A 1_555 1_555
N4A C20A 1_555 1_555
C4A N1 1_555 1_555
H6A C4A 1_555 1_555
C5A C4A 1_555 1_555
C6A C5A 1_555 1_555
H7A C6A 1_555 1_555
C7A C6A 1_555 1_555
C8A C7A 1_555 1_555
H8A C8A 1_555 1_555
C9A C8A 1_555 1_555
C10A C5A 1_555 1_555
H9A C10A 1_555 1_555
C11A C7A 1_555 1_555
H10A C11A 1_555 1_555
C12A N2A 1_555 1_555
H11A C12A 1_555 1_555
C13A C12A 1_555 1_555
H12A C13A 1_555 1_555
H13A C13A 1_555 1_555
C14A C13A 1_555 1_555
H14A C14A 1_555 1_555
H15A C14A 1_555 1_555
C15A C14A 1_555 1_555
H16A C15A 1_555 1_555
H17A C15A 1_555 1_555
C16A C15A 1_555 1_555
H18A C16A 1_555 1_555
H19A C16A 1_555 1_555
C17A C12A 1_555 1_555
H20A C17A 1_555 1_555
C18A C9A 1_555 1_555
H21A C18A 1_555 1_555
C19A N3A 1_555 1_555
H22A C19A 1_555 1_555
C20A C19A 1_555 1_555
H23A C20A 1_555 1_555
C21A C20A 1_555 1_555
H24A C21A 1_555 1_555
H25A C21A 1_555 1_555
C22A C21A 1_555 1_555
H26A C22A 1_555 1_555
H27A C22A 1_555 1_555
C23A C22A 1_555 1_555
H28A C23A 1_555 1_555
H29A C23A 1_555 1_555
C24A C19A 1_555 1_555
H30A C24A 1_555 1_555
H31A C24A 1_555 1_555
C25A N4A 1_555 1_555
H32A C25A 1_555 1_555
C26A C27 1_555 1_555
C27A C26A 1_555 1_555
H33A C27A 1_555 1_555
N1B C4 1_555 1_555
N2B C11B 1_555 1_555
N3B C18B 1_555 1_555
N4B C20B 1_555 1_555
C4B N1A 1_555 1_555
H6B C4B 1_555 1_555
C5B C4B 1_555 1_555
C6B C5B 1_555 1_555
H7B C6B 1_555 1_555
C7B C6B 1_555 1_555
C8B C7B 1_555 1_555
H8B C8B 1_555 1_555
C9B C8B 1_555 1_555
C10B C5B 1_555 1_555
H9B C10B 1_555 1_555
C11B C7B 1_555 1_555
H10B C11B 1_555 1_555
C12B N2B 1_555 1_555
H11B C12B 1_555 1_555
C13B C12B 1_555 1_555
H12B C13B 1_555 1_555
H13B C13B 1_555 1_555
C14B C13B 1_555 1_555
H14B C14B 1_555 1_555
H15B C14B 1_555 1_555
C15B C14B 1_555 1_555
H16B C15B 1_555 1_555
H17B C15B 1_555 1_555
C16B C15B 1_555 1_555
H18B C16B 1_555 1_555
H19B C16B 1_555 1_555
C17B N1B 1_555 1_555
H20B C17B 1_555 1_555
C18B C9B 1_555 1_555
H21B C18B 1_555 1_555
C19B N3B 1_555 1_555
H22B C19B 1_555 1_555
C20B C19B 1_555 1_555
H23B C20B 1_555 1_555
C21B C20B 1_555 1_555
H24B C21B 1_555 1_555
H25B C21B 1_555 1_555
C22B C21B 1_555 1_555
H26B C22B 1_555 1_555
H27B C22B 1_555 1_555
C23B C22B 1_555 1_555
H28B C23B 1_555 1_555
H29B C23B 1_555 1_555
C24B C19B 1_555 1_555
H30B C24B 1_555 1_555
H31B C24B 1_555 1_555
C25B N4B 1_555 1_555
H32B C25B 1_555 1_555
C26B C27A 1_555 1_555
C27B C26 1_555 1_555
H33B C27B 1_555 1_555
N5A C29A 1_555 1_555
N6A C34A 1_555 1_555
C28A N7 1_555 1_555
H34A C28A 1_555 1_555
H35A C28A 1_555 1_555
C29A C28A 1_555 1_555
H36A C29A 1_555 1_555
H37A C29A 1_555 1_555
C30A N5A 1_555 1_555
H38A C30A 1_555 1_555
C31A C30A 1_555 1_555
C32A C31A 1_555 1_555
H39A C32A 1_555 1_555
C33A C32A 1_555 1_555
H40A C33A 1_555 1_555
C34A C33A 1_555 1_555
C35A C34A 1_555 1_555
H41A C35A 1_555 1_555
C36A C31A 1_555 1_555
H42A C36A 1_555 1_555
C37A N6A 1_555 1_555
C38A C39A 1_555 1_555
C39A H43A 1_555 1_555
C40A C37A 1_555 1_555
H44A C40A 1_555 1_555
N5B C29B 1_555 1_555
N6B C34B 1_555 1_555
C28B N7 1_555 1_555
H34B C28B 1_555 1_555
H35B C28B 1_555 1_555
C29B C28B 1_555 1_555
H36B C29B 1_555 1_555
H37B C29B 1_555 1_555
C30B N5B 1_555 1_555
H38B C30B 1_555 1_555
C31B C30B 1_555 1_555
C32B C31B 1_555 1_555
H39B C32B 1_555 1_555
C33B C32B 1_555 1_555
H40B C33B 1_555 1_555
C34B C33B 1_555 1_555
C35B C34B 1_555 1_555
H41B C35B 1_555 1_555
C36B C31B 1_555 1_555
H42B C36B 1_555 1_555
C37B N6B 1_555 1_555
C38B C39B 1_555 1_555
C39B H43B 1_555 1_555
C40B C37B 1_555 1_555
H44B C40B 1_555 1_555
N5I C29I 1_555 1_555
N6I N6A 1_555 1_555
N7I C28I 1_555 1_555
C28I H34I 1_555 1_555
H35I C28I 1_555 1_555
C29I C28I 1_555 1_555
H36I C29I 1_555 1_555
H37I C29I 1_555 1_555
C30I N5I 1_555 1_555
H38I C30I 1_555 1_555
C31I C30I 1_555 1_555
C32I C31I 1_555 1_555
H39I C32I 1_555 1_555
C33I C32I 1_555 1_555
H40I C33I 1_555 1_555
C34I N6I 1_555 1_555
C35I C34I 1_555 1_555
H41I C35I 1_555 1_555
C36I C31I 1_555 1_555
H42I C36I 1_555 1_555
C37I C37A 1_555 1_555
C38I C38A 1_555 1_555
C39I C38I 1_555 1_555
H43I C39I 1_555 1_555
C40I C37I 1_555 1_555
H44I C40I 1_555 1_555
N5J C29J 1_555 1_555
N6J N6 1_555 1_555
C28J N7I 1_555 1_555
H34J C28J 1_555 1_555
H35J C28J 1_555 1_555
C29J C28J 1_555 1_555
H36J C29J 1_555 1_555
H37J C29J 1_555 1_555
C30J N5J 1_555 1_555
H38J C30J 1_555 1_555
C31J C30J 1_555 1_555
C32J C31J 1_555 1_555
H39J C32J 1_555 1_555
C33J C32J 1_555 1_555
H40J C33J 1_555 1_555
C34J N6J 1_555 1_555
C35J C34J 1_555 1_555
H41J C35J 1_555 1_555
C36J C31J 1_555 1_555
H42J C36J 1_555 1_555
C37J C37 1_555 1_555
C38J C38 1_555 1_555
C39J C38J 1_555 1_555
H43J C39J 1_555 1_555
C40J C37J 1_555 1_555
H44J C40J 1_555 1_555
N5K C29K 1_555 1_555
N6K N6B 1_555 1_555
C28K N7I 1_555 1_555
H34K C28K 1_555 1_555
H35K C28K 1_555 1_555
C29K C28K 1_555 1_555
H36K C29K 1_555 1_555
H37K C29K 1_555 1_555
C30K N5K 1_555 1_555
H38K C30K 1_555 1_555
C31K C30K 1_555 1_555
C32K C31K 1_555 1_555
H39K C32K 1_555 1_555
C33K C32K 1_555 1_555
H40K C33K 1_555 1_555
C34K N6K 1_555 1_555
C35K C34K 1_555 1_555
H41K C35K 1_555 1_555
C36K C31K 1_555 1_555
H42K C36K 1_555 1_555
C37K C37B 1_555 1_555
C38K C38B 1_555 1_555
C39K C38K 1_555 1_555
H43K C39K 1_555 1_555
C40K C37K 1_555 1_555
H44K C40K 1_555 1_555
C9 C10 1_555 1_555
C16 C17 1_555 1_555
C23 C24 1_555 1_555
C35 C36 1_555 1_555
C39 C40 1_555 1_555
C9A C10A 1_555 1_555
C16A C17A 1_555 1_555
C23A C24A 1_555 1_555
C25A C26A 1_555 1_555
C9B C10B 1_555 1_555
C12B C17B 1_555 1_555
C16B C17B 1_555 1_555
C23B C24B 1_555 1_555
C25B C26B 1_555 1_555
C26B C27B 1_555 1_555
C35A C36A 1_555 1_555
C39A C40A 1_555 1_555
C35B C36B 1_555 1_555
C39B C40B 1_555 1_555
N6I C37I 1_555 1_555
C33I C34I 1_555 1_555
C35I C36I 1_555 1_555
C39I C40I 1_555 1_555
N6J C37J 1_555 1_555
C33J C34J 1_555 1_555
C35J C36J 1_555 1_555
C39J C40J 1_555 1_555
N6K C37K 1_555 1_555
C33K C34K 1_555 1_555
C35K C36K 1_555 1_555
C39K C40K 1_555 1_555

#END
