
#######################################################################
#
#                 Cambridge Crystallographic Data Centre
#                                CCDC 
#
#######################################################################
#
# If this CIF has been generated from an entry in the Cambridge 
# Structural Database, then it will include bibliographic, chemical, 
# crystal, experimental, refinement or atomic coordinate data resulting 
# from the CCDC's data processing and validation procedures.
#
#######################################################################

data_MOTZUQ
_chemical_formula_moiety         'C6 H3 Br1 N2 S2'
_chemical_name_systematic        8-Bromo-1,3,2,4-benzodithiadiazine
_symmetry_cell_setting           monoclinic
_symmetry_space_group_name_H-M   'P 21/c'
_symmetry_Int_Tables_number      14
_space_group_name_Hall           '-P 2ybc'
loop_
_symmetry_equiv_pos_site_id
_symmetry_equiv_pos_as_xyz
1 x,y,z
2 x,1/2-y,1/2+z
3 -x,-y,-z
4 -x,1/2+y,1/2-z
_cell_length_a                   13.6916(17)
_cell_length_b                   3.9952(4)
_cell_length_c                   14.3927(17)
_cell_angle_alpha                90
_cell_angle_beta                 95.789(10)
_cell_angle_gamma                90
_cell_volume                     783.275
_exptl_crystal_colour            black
_exptl_crystal_description       plate
_chemical_melting_point          '95-97 deg.C'
_cell_formula_units_Z            4
loop_
_atom_site_label
_atom_site_type_symbol
_atom_site_fract_x
_atom_site_fract_y
_atom_site_fract_z
Br1 Br 0.07608(4) 0.14010(13) 0.33991(4)
S1 S 0.28598(10) 0.3779(3) 0.29858(8)
N1 N 0.4007(3) 0.5286(12) 0.2973(3)
S2 S 0.45589(10) 0.7203(4) 0.37914(9)
N2 N 0.4067(3) 0.7650(12) 0.4694(3)
C1 C 0.2819(4) 0.6671(14) 0.5700(3)
C2 C 0.1903(4) 0.5484(14) 0.5899(4)
C3 C 0.1300(4) 0.3902(13) 0.5232(3)
C4 C 0.1625(4) 0.3478(11) 0.4350(3)
C5 C 0.2527(4) 0.4581(11) 0.4135(3)
C6 C 0.3131(4) 0.6270(11) 0.4830(3)
H1 H 0.067(3) 0.265(12) 0.540(3)
H2 H 0.318(4) 0.770(14) 0.616(4)
H3 H 0.166(4) 0.595(14) 0.647(4)
loop_
_geom_bond_atom_site_label_1
_geom_bond_atom_site_label_2
_geom_bond_site_symmetry_1
_geom_bond_site_symmetry_2
Br1 C4 1_555 1_555
S1 N1 1_555 1_555
N1 S2 1_555 1_555
S2 N2 1_555 1_555
N2 C6 1_555 1_555
C1 C2 1_555 1_555
C2 C3 1_555 1_555
C3 C4 1_555 1_555
C4 C5 1_555 1_555
C5 S1 1_555 1_555
C6 C1 1_555 1_555
H1 C3 1_555 1_555
H2 C1 1_555 1_555
H3 C2 1_555 1_555
C5 C6 1_555 1_555

#END
