
#######################################################################
#
#                 Cambridge Crystallographic Data Centre
#                                CCDC 
#
#######################################################################
#
# If this CIF has been generated from an entry in the Cambridge 
# Structural Database, then it will include bibliographic, chemical, 
# crystal, experimental, refinement or atomic coordinate data resulting 
# from the CCDC's data processing and validation procedures.
#
#######################################################################

data_MOTZEC
_chemical_formula_moiety         
'2(C72 H84 N12),C72 H69 N11,0.5(C1 H1 Cl3),1.5(C1 H4 O1)'
_chemical_name_systematic        
'bis(5,12,20,27,35,42,50,57,62,69,74,81-Dodecaazatridecacyclo[29.29.10.10^16,46^.1^3,59^.1^14,18^.1^29,33^.1^44,48^.0^6,11^.0^21,26^.0^36,41^.0^51,56^.0^63,68^.0^75,80^]tetraoctaconta-1,3(71),4,12,14(84),15,17,19,27,29(83),30,32,34,42,44(72),45,47,49,57,59,61,69,73,81-tetracosaene) 10,28,45-triphenyl-1,4,10,16,19,22,28,34,39,45,51-undecaazaoctacyclo[17.17.17.2^6,9^.2^11,14^.2^24,27^.2^29,32^.2^41,44^.2^46,49^]pentahexaconta-4,6,8,11,13,15,22,24,26,29,31,33,39,41,43,46,48,50,54,56,58,60,62,64-tetracosaene chloroform methanol solvate'
_symmetry_cell_setting           rhombohedral
_symmetry_space_group_name_H-M   'R 3 2'
_symmetry_Int_Tables_number      155
_space_group_name_Hall           'R 3 2"'
loop_
_symmetry_equiv_pos_site_id
_symmetry_equiv_pos_as_xyz
1 x,y,z
2 -y,x-y,z
3 -x+y,-x,z
4 x-y,-y,-z
5 -x,-x+y,-z
6 y,x,-z
7 2/3+x,1/3+y,1/3+z
8 2/3-y,1/3+x-y,1/3+z
9 2/3-x+y,1/3-x,1/3+z
10 2/3+x-y,1/3-y,1/3-z
11 2/3-x,1/3-x+y,1/3-z
12 2/3+y,1/3+x,1/3-z
13 1/3+x,2/3+y,2/3+z
14 1/3-y,2/3+x-y,2/3+z
15 1/3-x+y,2/3-x,2/3+z
16 1/3+x-y,2/3-y,2/3-z
17 1/3-x,2/3-x+y,2/3-z
18 1/3+y,2/3+x,2/3-z
_cell_length_a                   20.718(2)
_cell_length_b                   20.718(2)
_cell_length_c                   44.992(5)
_cell_angle_alpha                90
_cell_angle_beta                 90
_cell_angle_gamma                120
_cell_volume                     16724.8
_exptl_crystal_colour            colorless
_exptl_crystal_description       prism
_cell_formula_units_Z            3
loop_
_atom_site_label
_atom_site_type_symbol
_atom_site_fract_x
_atom_site_fract_y
_atom_site_fract_z
N5 N 0.4724(4) 0.3534(6) 0.3369(3)
C25 C 0.4025(3) 0.3509(5) 0.3375(2)
C26 C 0.3413(5) 0.2942(5) 0.3228(2)
C27 C 0.2735(4) 0.2928(11) 0.3230(4)
C28 C 0.2669(7) 0.3481(14) 0.3378(5)
N6 N 0.6667 0.3334 0.16286(13)
N7 N 0.5290(7) 0.2708(10) 0.2039(3)
C29 C 0.5867(14) 0.2894(19) 0.1571(4)
H29 H 0.5614 0.2780 0.1383
H30 H 0.6014 0.3396 0.1626
C30 C 0.5376(10) 0.2390(13) 0.1793(4)
H31 H 0.4890 0.2083 0.1703
H32 H 0.5562 0.2062 0.1851
C31 C 0.5453(8) 0.2591(10) 0.2306(4)
H33 H 0.5673 0.2297 0.2323
C32 C 0.5319(5) 0.2881(6) 0.25786(17)
C33 C 0.5366(6) 0.2583(6) 0.2849(2)
H34 H 0.5521 0.2232 0.2855
C34 C 0.5181(6) 0.2808(5) 0.31109(17)
H35 H 0.5212 0.2609 0.3292
C35 C 0.4949(5) 0.3332(5) 0.31022(14)
C36 C 0.4902(5) 0.3631(6) 0.28318(16)
H36 H 0.4747 0.3981 0.2826
C37 C 0.5087(5) 0.3405(6) 0.25700(14)
H37 H 0.5056 0.3605 0.2389
N5A N 0.6466(6) 0.1190(7) 0.3369(3)
C25A C 0.6491(5) 0.0516(6) 0.3375(2)
C26A C 0.7058(5) 0.0471(7) 0.3228(2)
C27A C 0.7072(11) -0.0193(12) 0.3230(4)
C28A C 0.6519(14) -0.0812(16) 0.3378(5)
N7A N 0.7292(10) 0.2582(12) 0.2039(3)
C29A C 0.7106(19) 0.2973(24) 0.1571(4)
H29A H 0.7220 0.2834 0.1383
H30A H 0.6604 0.2618 0.1626
C30A C 0.7610(13) 0.2986(16) 0.1793(4)
H31A H 0.7917 0.2807 0.1703
H32A H 0.7938 0.3500 0.1851
C31A C 0.7409(10) 0.2862(13) 0.2306(4)
H33A H 0.7703 0.3376 0.2323
C32A C 0.7119(6) 0.2438(8) 0.25786(17)
C33A C 0.7417(6) 0.2783(8) 0.2849(2)
H34A H 0.7768 0.3289 0.2855
C34A C 0.7192(5) 0.2373(8) 0.31109(17)
H35A H 0.7391 0.2603 0.3292
C35A C 0.6668(5) 0.1617(7) 0.31022(14)
C36A C 0.6369(6) 0.1271(8) 0.28318(16)
H36A H 0.6019 0.0766 0.2826
C37A C 0.6595(6) 0.1682(8) 0.25700(14)
H37A H 0.6395 0.1451 0.2389
N5B N 0.8810(7) 0.5276(4) 0.3369(3)
C25B C 0.9484(6) 0.5975(3) 0.3375(2)
C26B C 0.9529(7) 0.6587(5) 0.3228(2)
C27B C 1.0193(12) 0.7265(4) 0.3230(4)
C28B C 1.0812(16) 0.7331(7) 0.3378(5)
N7B N 0.7418(12) 0.4710(7) 0.2039(3)
C29B C 0.7027(24) 0.4133(14) 0.1571(4)
H29B H 0.7166 0.4386 0.1383
H30B H 0.7382 0.3986 0.1626
C30B C 0.7014(16) 0.4624(10) 0.1793(4)
H31B H 0.7193 0.5110 0.1703
H32B H 0.6500 0.4438 0.1851
C31B C 0.7138(13) 0.4547(8) 0.2306(4)
H33B H 0.6624 0.4327 0.2323
C32B C 0.7562(8) 0.4681(5) 0.25786(17)
C33B C 0.7217(8) 0.4634(6) 0.2849(2)
H34B H 0.6711 0.4479 0.2855
C34B C 0.7627(8) 0.4819(6) 0.31109(17)
H35B H 0.7397 0.4788 0.3292
C35B C 0.8383(7) 0.5051(5) 0.31022(14)
C36B C 0.8729(8) 0.5098(5) 0.28318(16)
H36B H 0.9234 0.5253 0.2826
C37B C 0.8318(8) 0.4913(5) 0.25700(14)
H37B H 0.8549 0.4944 0.2389
N5O N 0.4523(7) 0.3133(6) 0.3298(3)
C25O C 0.3849(6) 0.3158(5) 0.3292(2)
C26O C 0.3804(7) 0.3725(5) 0.3439(2)
C27O C 0.3140(12) 0.3739(11) 0.3437(4)
C28O C 0.2521(16) 0.3186(14) 0.3289(5)
N6O N 0.6666 0.3333 0.50381(13)
N7O N 0.5915(12) 0.3959(10) 0.4628(3)
C29O C 0.6306(24) 0.3773(19) 0.5096(4)
H29O H 0.6167 0.3887 0.5284
H30O H 0.5951 0.3271 0.5041
C30O C 0.6319(16) 0.4277(13) 0.4874(4)
H31O H 0.6140 0.4584 0.4964
H32O H 0.6833 0.4605 0.4816
C31O C 0.6195(13) 0.4076(10) 0.4361(4)
H33O H 0.6709 0.4370 0.4344
C32O C 0.5771(8) 0.3786(6) 0.40881(17)
C33O C 0.6116(8) 0.4084(6) 0.3818(2)
H34O H 0.6622 0.4435 0.3812
C34O C 0.5706(8) 0.3859(5) 0.35558(17)
H35O H 0.5936 0.4058 0.3375
C35O C 0.4950(7) 0.3335(5) 0.35645(14)
C36O C 0.4604(8) 0.3036(6) 0.38349(16)
H36O H 0.4099 0.2686 0.3841
C37O C 0.5015(8) 0.3262(6) 0.40967(14)
H37O H 0.4784 0.3062 0.4278
N5Q N 0.6867(6) 0.1391(4) 0.3298(3)
C25Q C 0.6842(5) 0.0692(3) 0.3292(2)
C26Q C 0.6275(5) 0.0080(5) 0.3439(2)
C27Q C 0.6261(11) -0.0598(4) 0.3437(4)
C28Q C 0.6814(14) -0.0664(7) 0.3289(5)
N7Q N 0.6041(10) 0.1957(7) 0.4628(3)
C29Q C 0.6227(19) 0.2534(14) 0.5096(4)
H29Q H 0.6113 0.2281 0.5284
H30Q H 0.6729 0.2681 0.5041
C30Q C 0.5723(13) 0.2043(10) 0.4874(4)
H31Q H 0.5416 0.1557 0.4964
H32Q H 0.5395 0.2229 0.4816
C31Q C 0.5924(10) 0.2120(8) 0.4361(4)
H33Q H 0.5630 0.2340 0.4344
C32Q C 0.6214(6) 0.1986(5) 0.40881(17)
C33Q C 0.5916(6) 0.2033(6) 0.3818(2)
H34Q H 0.5565 0.2188 0.3812
C34Q C 0.6141(5) 0.1848(6) 0.35558(17)
H35Q H 0.5942 0.1879 0.3375
C35Q C 0.6665(5) 0.1616(5) 0.35645(14)
C36Q C 0.6964(6) 0.1569(5) 0.38349(16)
H36Q H 0.7314 0.1414 0.3841
C37Q C 0.6738(6) 0.1754(5) 0.40967(14)
H37Q H 0.6938 0.1723 0.4278
N5P N 0.8609(4) 0.5477(7) 0.3298(3)
C25P C 0.9308(3) 0.6151(6) 0.3292(2)
C26P C 0.9920(5) 0.6196(7) 0.3439(2)
C27P C 1.0598(4) 0.6860(12) 0.3437(4)
C28P C 1.0664(7) 0.7479(16) 0.3289(5)
N7P N 0.8043(7) 0.4085(12) 0.4628(3)
C29P C 0.7466(14) 0.3694(24) 0.5096(4)
H29P H 0.7719 0.3833 0.5284
H30P H 0.7319 0.4049 0.5041
C30P C 0.7957(10) 0.3681(16) 0.4874(4)
H31P H 0.8443 0.3860 0.4964
H32P H 0.7771 0.3167 0.4816
C31P C 0.7880(8) 0.3805(13) 0.4361(4)
H33P H 0.7660 0.3291 0.4344
C32P C 0.8014(5) 0.4229(8) 0.40881(17)
C33P C 0.7967(6) 0.3884(8) 0.3818(2)
H34P H 0.7812 0.3378 0.3812
C34P C 0.8152(6) 0.4294(8) 0.35558(17)
H35P H 0.8121 0.4064 0.3375
C35P C 0.8384(5) 0.5050(7) 0.35645(14)
C36P C 0.8431(5) 0.5396(8) 0.38349(16)
H36P H 0.8586 0.5901 0.3841
C37P C 0.8246(5) 0.4985(8) 0.40967(14)
H37P H 0.8277 0.5216 0.4278
O1 O 0.3333 0.6667 0.19853(11)
C38 C 0.3333 0.6667 0.1667
O1I O 0.3333 0.6666 0.13480(11)
Cl1 Cl 0.4214(3) 0.7420(3) 0.32503(12)
C39 C 0.3333 0.6667 0.3308(9)
H38 H 0.3333 0.6667 0.3526
Cl1A Cl 0.2580(3) 0.6794(4) 0.32503(12)
Cl1B Cl 0.3206(4) 0.5786(3) 0.32503(12)
N1 N 0.49596(17) 0.64133(16) 0.41390(7)
N2 N 0.56073(16) 0.61148(15) 0.36312(7)
N3 N 0.60533(17) 0.81940(17) 0.25175(6)
N4 N 0.37352(17) 0.46367(16) 0.24406(7)
C1 C 0.4094(2) 0.7127(2) 0.40600(7)
H1 H 0.4609 0.7435 0.4059
C2 C 0.7442(3) 0.9720(3) 0.20140(12)
H2 H 0.7230 0.9532 0.1819
H3 H 0.7978 0.9931 0.2000
C3 C 0.37919(19) 0.6351(2) 0.40608(7)
C4 C 0.5403(2) 0.60495(19) 0.41661(8)
H4 H 0.5078 0.5509 0.4146
C5 C 0.5770(3) 0.6222(3) 0.44690(10)
H5 H 0.5388 0.6016 0.4622
H6 H 0.6055 0.6758 0.4497
C6 C 0.6281(4) 0.5899(3) 0.45024(12)
H7 H 0.6527 0.6041 0.4694
H8 H 0.5988 0.5360 0.4495
C7 C 0.6859(3) 0.6174(3) 0.42602(13)
H9 H 0.7157 0.5933 0.4278
H10 H 0.7189 0.6707 0.4281
C8 C 0.6483(2) 0.6003(3) 0.39550(11)
H11 H 0.6864 0.6197 0.3802
H12 H 0.6188 0.5467 0.3930
C9 C 0.59879(19) 0.63356(18) 0.39167(8)
H13 H 0.6289 0.6880 0.3927
C10 C 0.56984(19) 0.6616(2) 0.34528(8)
H14 H 0.5994 0.7108 0.3513
C11 C 0.53676(18) 0.6474(2) 0.31542(8)
C12 C 0.55713(19) 0.70508(19) 0.29569(8)
H15 H 0.5909 0.7535 0.3016
C13 C 0.5279(2) 0.6920(2) 0.26687(8)
C14 C 0.4763(2) 0.6201(2) 0.25807(8)
H16 H 0.4564 0.6114 0.2390
C15 C 0.4542(2) 0.56062(19) 0.27788(8)
C16 C 0.4849(2) 0.5747(2) 0.30630(9)
H17 H 0.4708 0.5353 0.3195
C17 C 0.5541(2) 0.7541(2) 0.24557(8)
H18 H 0.5322 0.7449 0.2269
C18 C 0.62968(19) 0.8761(2) 0.22883(8)
H19 H 0.6020 0.8541 0.2104
C19 C 0.7130(3) 0.9087(3) 0.22334(11)
H20 H 0.7394 0.9263 0.2420
H21 H 0.7216 0.8696 0.2160
C20 C 0.7268(3) 1.0327(3) 0.21084(12)
H22 H 0.7536 1.0562 0.2290
H23 H 0.7433 1.0706 0.1955
C21 C 0.40052(19) 0.48381(19) 0.26936(8)
H24 H 0.3855 0.4473 0.2840
C22 C 0.3221(2) 0.38411(17) 0.23911(7)
H25 H 0.3158 0.3573 0.2578
C23 C 0.3555(3) 0.3556(2) 0.21590(9)
H26 H 0.3620 0.3820 0.1973
H27 H 0.4041 0.3654 0.2225
C24 C 0.4285(2) 0.60304(19) 0.40841(7)
H28 H 0.4081 0.5520 0.4056
N1A N 0.35867(16) 0.85463(23) 0.41390(7)
N2A N 0.38852(15) 0.94925(22) 0.36312(7)
N3A N 0.18060(17) 0.78593(24) 0.25175(6)
N4A N 0.53633(16) 0.90985(23) 0.24406(7)
C1A C 0.2873(2) 0.6967(3) 0.40600(7)
H1A H 0.2565 0.7174 0.4059
C2A C 0.0280(3) 0.7722(4) 0.20140(12)
H2A H 0.0468 0.7698 0.1819
H3A H 0.0069 0.8047 0.2000
C3A C 0.3649(2) 0.74409(28) 0.40608(7)
C4A C 0.39505(19) 0.93535(28) 0.41661(8)
H4A H 0.4491 0.9569 0.4146
C5A C 0.3778(3) 0.9548(4) 0.44690(10)
H5A H 0.3984 0.9372 0.4622
H6A H 0.3242 0.9297 0.4497
C6A C 0.4101(3) 1.0382(5) 0.45024(12)
H7A H 0.3959 1.0486 0.4694
H8A H 0.4640 1.0628 0.4495
C7A C 0.3826(3) 1.0685(4) 0.42602(13)
H9A H 0.4067 1.1224 0.4278
H10A H 0.3293 1.0482 0.4281
C8A C 0.3997(3) 1.0480(4) 0.39550(11)
H11A H 0.3803 1.0667 0.3802
H12A H 0.4533 1.0721 0.3930
C9A C 0.36644(18) 0.96523(26) 0.39167(8)
H13A H 0.3120 0.9409 0.3927
C10A C 0.3384(2) 0.90824(28) 0.34528(8)
H14A H 0.2892 0.8886 0.3513
C11A C 0.3526(2) 0.88936(27) 0.31542(8)
C12A C 0.29492(19) 0.85205(27) 0.29569(8)
H15A H 0.2465 0.8374 0.3016
C13A C 0.3080(2) 0.8359(3) 0.26687(8)
C14A C 0.3799(2) 0.8562(3) 0.25807(8)
H16A H 0.3886 0.8450 0.2390
C15A C 0.43938(19) 0.89358(28) 0.27788(8)
C16A C 0.4253(2) 0.9102(3) 0.30630(9)
H17A H 0.4647 0.9355 0.3195
C17A C 0.2459(2) 0.8000(3) 0.24557(8)
H18A H 0.2551 0.7873 0.2269
C18A C 0.1239(2) 0.75358(28) 0.22883(8)
H19A H 0.1459 0.7479 0.2104
C19A C 0.0913(3) 0.8043(4) 0.22334(11)
H20A H 0.0737 0.8131 0.2420
H21A H 0.1304 0.8520 0.2160
C20A C -0.0327(3) 0.6941(4) 0.21084(12)
H22A H -0.0562 0.6974 0.2290
H23A H -0.0706 0.6727 0.1955
C21A C 0.51619(19) 0.91671(27) 0.26936(8)
H24A H 0.5527 0.9382 0.2840
C22A C 0.61589(17) 0.93799(26) 0.23911(7)
H25A H 0.6427 0.9585 0.2578
C23A C 0.6444(2) 0.9999(4) 0.21590(9)
H26A H 0.6180 0.9800 0.1973
H27A H 0.6346 1.0387 0.2225
C24A C 0.39696(19) 0.82546(28) 0.40841(7)
H28A H 0.4480 0.8561 0.4056
N1B N 0.14537(23) 0.50404(17) 0.41390(7)
N2B N 0.05075(22) 0.43927(16) 0.36312(7)
N3B N 0.21407(24) 0.39467(17) 0.25175(6)
N4B N 0.09015(23) 0.62648(17) 0.24406(7)
C1B C 0.3033(3) 0.5906(2) 0.40600(7)
H1B H 0.2826 0.5391 0.4059
C2B C 0.2278(4) 0.2558(3) 0.20140(12)
H2B H 0.2302 0.2770 0.1819
H3B H 0.1953 0.2022 0.2000
C3B C 0.25591(28) 0.62081(19) 0.40608(7)
C4B C 0.06465(28) 0.4597(2) 0.41661(8)
H4B H 0.0431 0.4922 0.4146
C5B C 0.0452(4) 0.4230(3) 0.44690(10)
H5B H 0.0628 0.4612 0.4622
H6B H 0.0703 0.3945 0.4497
C6B C -0.0382(5) 0.3719(4) 0.45024(12)
H7B H -0.0486 0.3473 0.4694
H8B H -0.0628 0.4012 0.4495
C7B C -0.0685(4) 0.3141(3) 0.42602(13)
H9B H -0.1224 0.2843 0.4278
H10B H -0.0482 0.2811 0.4281
C8B C -0.0480(4) 0.3517(2) 0.39550(11)
H11B H -0.0667 0.3136 0.3802
H12B H -0.0721 0.3812 0.3930
C9B C 0.03477(26) 0.40121(19) 0.39167(8)
H13B H 0.0591 0.3711 0.3927
C10B C 0.09176(28) 0.43016(19) 0.34528(8)
H14B H 0.1114 0.4006 0.3513
C11B C 0.11064(27) 0.46324(18) 0.31542(8)
C12B C 0.14795(27) 0.44287(19) 0.29569(8)
H15B H 0.1626 0.4091 0.3016
C13B C 0.1641(3) 0.4721(2) 0.26687(8)
C14B C 0.1438(3) 0.5237(2) 0.25807(8)
H16B H 0.1550 0.5436 0.2390
C15B C 0.10642(28) 0.5458(2) 0.27788(8)
C16B C 0.0898(3) 0.5151(2) 0.30630(9)
H17B H 0.0645 0.5292 0.3195
C17B C 0.2000(3) 0.4459(2) 0.24557(8)
H18B H 0.2127 0.4678 0.2269
C18B C 0.24642(28) 0.37032(19) 0.22883(8)
H19B H 0.2521 0.3980 0.2104
C19B C 0.1957(4) 0.2870(3) 0.22334(11)
H20B H 0.1869 0.2606 0.2420
H21B H 0.1480 0.2784 0.2160
C20B C 0.3059(4) 0.2732(3) 0.21084(12)
H22B H 0.3026 0.2464 0.2290
H23B H 0.3273 0.2567 0.1955
C21B C 0.08329(27) 0.59948(19) 0.26936(8)
H24B H 0.0618 0.6145 0.2840
C22B C 0.06201(26) 0.6779(2) 0.23911(7)
H25B H 0.0415 0.6842 0.2578
C23B C 0.0001(4) 0.6445(3) 0.21590(9)
H26B H 0.0200 0.6380 0.1973
H27B H -0.0387 0.5959 0.2225
C24B C 0.17454(28) 0.5715(2) 0.40841(7)
H28B H 0.1439 0.5919 0.4056
H39? H 0.2236 0.3508 0.3392
C40? C 0.3281(8) 0.4048(10) 0.3525(4)
H40? H 0.3237 0.4417 0.3624
C41? C 0.3959(5) 0.4062(5) 0.35233(17)
H41? H 0.4368 0.4441 0.3621
N8? N 0.6307(6) 0.4298(6) 0.4660(3)
C42? C 0.6062(4) 0.4076(4) 0.41360(18)
C43? C 0.5294(4) 0.3755(4) 0.41643(13)
H42? H 0.5077 0.3664 0.4352
C44? C 0.4849(3) 0.3570(4) 0.39120(15)
H43? H 0.4335 0.3355 0.3931
C45? C 0.5172(5) 0.3705(4) 0.36314(13)
C46? C 0.5940(5) 0.4026(5) 0.36032(16)
H44? H 0.6156 0.4117 0.3415
C47? C 0.6385(3) 0.4212(5) 0.3855(2)
H45? H 0.6898 0.4427 0.3837
C48? C 0.6538(6) 0.4307(6) 0.4403(3)
H46? H 0.7042 0.4470 0.4378
C49? C 0.6794(6) 0.4518(5) 0.4907(3)
H47? H 0.6851 0.4980 0.4986
H48? H 0.7280 0.4618 0.4840
C50? C 0.6525(8) 0.3929(9) 0.5161(3)
H49? H 0.6807 0.4142 0.5342
H50? H 0.5999 0.3730 0.5203
H51? H 0.3458 0.2572 0.3129
H52? H 0.2326 0.2549 0.3132
H53? H 0.6301 0.2841 0.1555
C51? C 0.3318(16) 0.6262(14) 0.2991(4)
O2? O 0.3333 0.6667 0.2731(2)
loop_
_geom_bond_atom_site_label_1
_geom_bond_atom_site_label_2
_geom_bond_site_symmetry_1
_geom_bond_site_symmetry_2
N1 C4 1_555 1_555
N2 C9 1_555 1_555
N3 C17 1_555 1_555
N4 C21 1_555 1_555
C1 H1 1_555 1_555
C2 H2 1_555 1_555
H3 C2 1_555 1_555
C3 C1 1_555 1_555
C4 H4 1_555 1_555
C5 C4 1_555 1_555
H5 C5 1_555 1_555
H6 C5 1_555 1_555
C6 C5 1_555 1_555
H7 C6 1_555 1_555
H8 C6 1_555 1_555
C7 C6 1_555 1_555
H9 C7 1_555 1_555
H10 C7 1_555 1_555
C8 C7 1_555 1_555
H11 C8 1_555 1_555
H12 C8 1_555 1_555
C9 C4 1_555 1_555
H13 C9 1_555 1_555
C10 N2 1_555 1_555
H14 C10 1_555 1_555
C11 C10 1_555 1_555
C12 C11 1_555 1_555
H15 C12 1_555 1_555
C13 C12 1_555 1_555
C14 C13 1_555 1_555
H16 C14 1_555 1_555
C15 C14 1_555 1_555
C16 C11 1_555 1_555
H17 C16 1_555 1_555
C17 C13 1_555 1_555
H18 C17 1_555 1_555
C18 N3 1_555 1_555
H19 C18 1_555 1_555
C19 C2 1_555 1_555
H20 C19 1_555 1_555
H21 C19 1_555 1_555
C20 C2 1_555 1_555
H22 C20 1_555 1_555
H23 C20 1_555 1_555
C21 C15 1_555 1_555
H24 C21 1_555 1_555
C22 N4 1_555 1_555
H25 C22 1_555 1_555
C23 C22 1_555 1_555
H26 C23 1_555 1_555
H27 C23 1_555 1_555
C24 N1 1_555 1_555
H28 C24 1_555 1_555
N5 C25 1_555 1_555
C25 C26 1_555 1_555
C26 C27 1_555 1_555
C27 C28 1_555 1_555
C28 C27O 1_555 1_555
N6 C29 1_555 1_555
N7 C30 1_555 1_555
C29 H29 1_555 1_555
H30 C29 1_555 1_555
C30 C29 1_555 1_555
H31 C30 1_555 1_555
H32 C30 1_555 1_555
C31 N7 1_555 1_555
H33 C31 1_555 1_555
C32 C31 1_555 1_555
C33 C32 1_555 1_555
H34 C33 1_555 1_555
C34 C33 1_555 1_555
H35 C34 1_555 1_555
C35 N5 1_555 1_555
C36 C35 1_555 1_555
H36 C36 1_555 1_555
C37 C32 1_555 1_555
H37 C37 1_555 1_555
O1 C38 1_555 1_555
C38 O1I 1_555 1_555
Cl1 C39 1_555 1_555
C39 H38 1_555 1_555
N1A C4A 1_555 1_555
N2A C9A 1_555 1_555
N3A C17A 1_555 1_555
N4A C21A 1_555 1_555
C1A H1A 1_555 1_555
C2A H2A 1_555 1_555
H3A C2A 1_555 1_555
C3A C1 1_555 1_555
C4A H4A 1_555 1_555
C5A C4A 1_555 1_555
H5A C5A 1_555 1_555
H6A C5A 1_555 1_555
C6A C5A 1_555 1_555
H7A C6A 1_555 1_555
H8A C6A 1_555 1_555
C7A C6A 1_555 1_555
H9A C7A 1_555 1_555
H10A C7A 1_555 1_555
C8A C7A 1_555 1_555
H11A C8A 1_555 1_555
H12A C8A 1_555 1_555
C9A C4A 1_555 1_555
H13A C9A 1_555 1_555
C10A N2A 1_555 1_555
H14A C10A 1_555 1_555
C11A C10A 1_555 1_555
C12A C11A 1_555 1_555
H15A C12A 1_555 1_555
C13A C12A 1_555 1_555
C14A C13A 1_555 1_555
H16A C14A 1_555 1_555
C15A C14A 1_555 1_555
C16A C11A 1_555 1_555
H17A C16A 1_555 1_555
C17A C13A 1_555 1_555
H18A C17A 1_555 1_555
C18A N3A 1_555 1_555
H19A C18A 1_555 1_555
C19A C2A 1_555 1_555
H20A C19A 1_555 1_555
H21A C19A 1_555 1_555
C20A C2A 1_555 1_555
H22A C20A 1_555 1_555
H23A C20A 1_555 1_555
C21A C15A 1_555 1_555
H24A C21A 1_555 1_555
C22A C18 1_555 1_555
H25A C22A 1_555 1_555
C23A C20 1_555 1_555
H26A C23A 1_555 1_555
H27A C23A 1_555 1_555
C24A N1A 1_555 1_555
H28A C24A 1_555 1_555
N1B C4B 1_555 1_555
N2B C9B 1_555 1_555
N3B C17B 1_555 1_555
N4B C21B 1_555 1_555
C1B C3 1_555 1_555
H1B C1B 1_555 1_555
C2B H2B 1_555 1_555
H3B C2B 1_555 1_555
C3B C1A 1_555 1_555
C4B H4B 1_555 1_555
C5B C4B 1_555 1_555
H5B C5B 1_555 1_555
H6B C5B 1_555 1_555
C6B C5B 1_555 1_555
H7B C6B 1_555 1_555
H8B C6B 1_555 1_555
C7B C6B 1_555 1_555
H9B C7B 1_555 1_555
H10B C7B 1_555 1_555
C8B C7B 1_555 1_555
H11B C8B 1_555 1_555
H12B C8B 1_555 1_555
C9B C4B 1_555 1_555
H13B C9B 1_555 1_555
C10B N2B 1_555 1_555
H14B C10B 1_555 1_555
C11B C10B 1_555 1_555
C12B C11B 1_555 1_555
H15B C12B 1_555 1_555
C13B C12B 1_555 1_555
C14B C13B 1_555 1_555
H16B C14B 1_555 1_555
C15B C14B 1_555 1_555
C16B C11B 1_555 1_555
H17B C16B 1_555 1_555
C17B C13B 1_555 1_555
H18B C17B 1_555 1_555
C18B C22 1_555 1_555
H19B C18B 1_555 1_555
C19B C2B 1_555 1_555
H20B C19B 1_555 1_555
H21B C19B 1_555 1_555
C20B C23 1_555 1_555
H22B C20B 1_555 1_555
H23B C20B 1_555 1_555
C21B C15B 1_555 1_555
H24B C21B 1_555 1_555
C22B C18A 1_555 1_555
H25B C22B 1_555 1_555
C23B C20A 1_555 1_555
H26B C23B 1_555 1_555
H27B C23B 1_555 1_555
C24B N1B 1_555 1_555
H28B C24B 1_555 1_555
N5A C25A 1_555 1_555
C25A C26A 1_555 1_555
C26A C27A 1_555 1_555
C27A C28A 1_555 1_555
C28A C27Q 1_555 1_555
N7A C30A 1_555 1_555
C29A N6 1_555 1_555
H29A C29A 1_555 1_555
H30A C29A 1_555 1_555
C30A C29A 1_555 1_555
H31A C30A 1_555 1_555
H32A C30A 1_555 1_555
C31A N7A 1_555 1_555
H33A C31A 1_555 1_555
C32A C31A 1_555 1_555
C33A C32A 1_555 1_555
H34A C33A 1_555 1_555
C34A C33A 1_555 1_555
H35A C34A 1_555 1_555
C35A N5A 1_555 1_555
C36A C35A 1_555 1_555
H36A C36A 1_555 1_555
C37A C32A 1_555 1_555
H37A C37A 1_555 1_555
N5B C25B 1_555 1_555
C25B C26B 1_555 1_555
C26B C27B 1_555 1_555
C27B C28B 1_555 1_555
C28B C27P 1_555 1_555
N7B C30B 1_555 1_555
C29B N6 1_555 1_555
H29B C29B 1_555 1_555
H30B C29B 1_555 1_555
C30B C29B 1_555 1_555
H31B C30B 1_555 1_555
H32B C30B 1_555 1_555
C31B N7B 1_555 1_555
H33B C31B 1_555 1_555
C32B C31B 1_555 1_555
C33B C32B 1_555 1_555
H34B C33B 1_555 1_555
C34B C33B 1_555 1_555
H35B C34B 1_555 1_555
C35B N5B 1_555 1_555
C36B C35B 1_555 1_555
H36B C36B 1_555 1_555
C37B C32B 1_555 1_555
H37B C37B 1_555 1_555
N5O N5 1_555 1_555
C25O C25 1_555 1_555
C26O C25 1_555 1_555
C27O C27 1_555 1_555
C28O C27 1_555 1_555
N6O C29O 1_555 1_555
N7O C30O 1_555 1_555
C29O H29O 1_555 1_555
H30O C29O 1_555 1_555
C30O C29O 1_555 1_555
H31O C30O 1_555 1_555
H32O C30O 1_555 1_555
C31O N7O 1_555 1_555
H33O C31O 1_555 1_555
C32O C31O 1_555 1_555
C33O C32O 1_555 1_555
H34O C33O 1_555 1_555
C34O C33O 1_555 1_555
H35O C34O 1_555 1_555
C35O N5 1_555 1_555
C36O C35O 1_555 1_555
H36O C36O 1_555 1_555
C37O C32O 1_555 1_555
H37O C37O 1_555 1_555
N5Q N5A 1_555 1_555
C25Q C25A 1_555 1_555
C26Q C25A 1_555 1_555
C27Q C27A 1_555 1_555
C28Q C27A 1_555 1_555
N7Q C30Q 1_555 1_555
C29Q N6O 1_555 1_555
H29Q C29Q 1_555 1_555
H30Q C29Q 1_555 1_555
C30Q C29Q 1_555 1_555
H31Q C30Q 1_555 1_555
H32Q C30Q 1_555 1_555
C31Q N7Q 1_555 1_555
H33Q C31Q 1_555 1_555
C32Q C31Q 1_555 1_555
C33Q C32Q 1_555 1_555
H34Q C33Q 1_555 1_555
C34Q C33Q 1_555 1_555
H35Q C34Q 1_555 1_555
C35Q N5A 1_555 1_555
C36Q C35Q 1_555 1_555
H36Q C36Q 1_555 1_555
C37Q C32Q 1_555 1_555
H37Q C37Q 1_555 1_555
N5P N5B 1_555 1_555
C25P C25B 1_555 1_555
C26P C25B 1_555 1_555
C27P C27B 1_555 1_555
C28P C27B 1_555 1_555
N7P C30P 1_555 1_555
C29P N6O 1_555 1_555
H29P C29P 1_555 1_555
H30P C29P 1_555 1_555
C30P C29P 1_555 1_555
H31P C30P 1_555 1_555
H32P C30P 1_555 1_555
C31P N7P 1_555 1_555
H33P C31P 1_555 1_555
C32P C31P 1_555 1_555
C33P C32P 1_555 1_555
H34P C33P 1_555 1_555
C34P C33P 1_555 1_555
H35P C34P 1_555 1_555
C35P N5B 1_555 1_555
C36P C35P 1_555 1_555
H36P C36P 1_555 1_555
C37P C32P 1_555 1_555
H37P C37P 1_555 1_555
Cl1A C39 1_555 1_555
Cl1B C39 1_555 1_555
C3 C24 1_555 1_555
C8 C9 1_555 1_555
C15 C16 1_555 1_555
C18 C19 1_555 1_555
C26 C25O 1_555 1_555
C26 C26O 1_555 1_555
C28 C28O 1_555 1_555
C34 C35 1_555 1_555
C35 N5O 1_555 1_555
C36 C37 1_555 1_555
N4A C22A 1_555 1_555
C1A C3A 1_555 1_555
C3A C24A 1_555 1_555
C8A C9A 1_555 1_555
C15A C16A 1_555 1_555
C18A C19A 1_555 1_555
C22A C23A 1_555 1_555
N3B C18B 1_555 1_555
N4B C22B 1_555 1_555
C1B C3B 1_555 1_555
C2B C20B 1_555 1_555
C3B C24B 1_555 1_555
C8B C9B 1_555 1_555
C15B C16B 1_555 1_555
C18B C19B 1_555 1_555
C22B C23B 1_555 1_555
C26A C25Q 1_555 1_555
C26A C26Q 1_555 1_555
C28A C28Q 1_555 1_555
C34A C35A 1_555 1_555
C35A N5Q 1_555 1_555
C36A C37A 1_555 1_555
C26B C25P 1_555 1_555
C26B C26P 1_555 1_555
C28B C28P 1_555 1_555
C34B C35B 1_555 1_555
C35B N5P 1_555 1_555
C36B C37B 1_555 1_555
N5O C25O 1_555 1_555
N5O C35O 1_555 1_555
C25O C26O 1_555 1_555
C26O C27O 1_555 1_555
C27O C28O 1_555 1_555
C34O C35O 1_555 1_555
C36O C37O 1_555 1_555
N5Q C25Q 1_555 1_555
N5Q C35Q 1_555 1_555
C25Q C26Q 1_555 1_555
C26Q C27Q 1_555 1_555
C27Q C28Q 1_555 1_555
C34Q C35Q 1_555 1_555
C36Q C37Q 1_555 1_555
N5P C25P 1_555 1_555
N5P C35P 1_555 1_555
C25P C26P 1_555 1_555
C26P C27P 1_555 1_555
C27P C28P 1_555 1_555
C34P C35P 1_555 1_555
C36P C37P 1_555 1_555

#END
