
#######################################################################
#
#                 Cambridge Crystallographic Data Centre
#                                CCDC 
#
#######################################################################
#
# If this CIF has been generated from an entry in the Cambridge 
# Structural Database, then it will include bibliographic, chemical, 
# crystal, experimental, refinement or atomic coordinate data resulting 
# from the CCDC's data processing and validation procedures.
#
#######################################################################

data_MOVBUW
_chemical_formula_moiety         
'C72 H84 N12,0.25(C1 H2 Cl2),5.5(C1 H4 O1),5.25(H2 O1)'
_chemical_name_systematic        
'5,12,20,27,35,42,50,57,62,69,74,81-Dodecaazatridecacyclo[29.29.10.10^16,46^.1^3,59^.1^14,18^.1^29,33^.1^44,48^.0^6,11^.0^21,26^.0^36,41^.0^51,56^.0^63,68^.0^75,80^]tetraoctaconta-1,3(71),4,12,14(84),15,17,19,27,29(83),30,32,34,42,44(72),45,47,49,57,59,61,69,73,81-tetracosaene dichloromethane methanol solvate hydrate'
_symmetry_cell_setting           monoclinic
_symmetry_space_group_name_H-M   'C 2'
_symmetry_Int_Tables_number      5
_space_group_name_Hall           'C 2y'
loop_
_symmetry_equiv_pos_site_id
_symmetry_equiv_pos_as_xyz
1 x,y,z
2 -x,y,-z
3 1/2+x,1/2+y,z
4 1/2-x,1/2+y,-z
_cell_length_a                   34.692(2)
_cell_length_b                   19.8867(13)
_cell_length_c                   26.6702(18)
_cell_angle_alpha                90
_cell_angle_beta                 93.334(2)
_cell_angle_gamma                90
_cell_volume                     18368.9
_exptl_crystal_colour            colorless
_exptl_crystal_description       needle
_cell_formula_units_Z            8
loop_
_atom_site_label
_atom_site_type_symbol
_atom_site_fract_x
_atom_site_fract_y
_atom_site_fract_z
Cl1 Cl 0.7602(2) 1.0155(4) 0.2305(3)
Cl2 Cl 0.7279(5) 0.9638(9) 0.3033(6)
C1 C 0.7606(4) 0.9832(7) 0.2753(5)
H1 H 0.7770 1.0112 0.2987
H2 H 0.7752 0.9412 0.2705
O1 O 0.73238(15) 0.8134(3) 0.0384(2)
H3 H 0.7280 0.8464 0.0191
C2 C 0.6988(4) 0.7654(8) 0.0337(6)
H4 H 0.6931 0.7542 -0.0017
H5 H 0.6761 0.7864 0.0473
H6 H 0.7053 0.7242 0.0526
O2 O 0.8190(2) 1.1066(4) 0.0388(3)
O3 O 0.8743(2) 1.0043(4) 0.0275(3)
H7 H 0.8601 1.0355 0.0159
C3 C 0.9102(6) 1.0043(12) 0.0027(8)
H8 H 0.9096 1.0400 -0.0227
H9 H 0.9136 0.9607 -0.0136
H10 H 0.9317 1.0123 0.0275
O4 O 0.5282(2) 0.5576(4) 0.0857(3)
O5 O 0.6126(3) 0.8470(5) 0.0536(3)
O6 O 0.5835(4) 0.9519(8) 0.1133(5)
O7 O 0.5678(3) 0.9666(5) 0.2136(4)
H11 H 0.5820 0.9728 0.1897
C4 C 0.5480(8) 1.0274(9) 0.2240(11)
H12 H 0.5375 1.0472 0.1925
H13 H 0.5661 1.0591 0.2410
H14 H 0.5269 1.0178 0.2458
O8 O 0.60313(17) 0.9078(3) 0.2943(2)
O9 O 0.82991(18) 1.0020(3) 0.2073(2)
H15 H 0.8070 0.9962 0.2149
C5 C 0.8302(3) 1.0350(6) 0.1620(4)
H16 H 0.8079 1.0206 0.1403
H17 H 0.8541 1.0243 0.1458
H18 H 0.8288 1.0836 0.1676
O10 O 0.89861(14) 0.9669(3) 0.24845(19)
O11 O 0.9430(2) 1.0072(4) 0.3321(3)
H19 H 0.9555 0.9939 0.3079
C6 C 0.9432(6) 0.9597(12) 0.3670(8)
H20 H 0.9309 0.9190 0.3530
H21 H 0.9290 0.9755 0.3955
H22 H 0.9699 0.9495 0.3785
O12 O 0.9000(4) 0.9066(8) 0.5584(6)
H23 H 0.8794 0.9229 0.5456
C7 C 0.9178(5) 0.9562(10) 0.6003(7)
H24 H 0.9376 0.9845 0.5859
H25 H 0.9296 0.9300 0.6283
H26 H 0.8974 0.9848 0.6125
O13 O 0.8774(3) 1.0306(5) 0.5483(3)
H27 H 0.8861 0.9913 0.5460
C8 C 0.8965(5) 1.0741(9) 0.5148(6)
H28 H 0.9080 1.0471 0.4888
H29 H 0.9168 1.0993 0.5336
H30 H 0.8777 1.1056 0.4991
O14 O 0.78211(17) 0.8054(3) 0.5201(2)
H31 H 0.7740 0.7757 0.5393
C9 C 0.7628(4) 0.8750(8) 0.5321(6)
H32 H 0.7500 0.8934 0.5013
H33 H 0.7827 0.9065 0.5450
H34 H 0.7437 0.8685 0.5573
O15 O 0.6621(2) 0.9912(4) 0.3982(3)
H35 H 0.6608 1.0325 0.4045
C10 C 0.6575(4) 0.9804(8) 0.3425(5)
H36 H 0.6575 1.0239 0.3253
H37 H 0.6330 0.9573 0.3341
H38 H 0.6789 0.9528 0.3317
O16 O 0.5052(8) 1.2621(14) 0.1204(11)
H39 H 0.5240 1.2536 0.1029
C11 C 0.4760(7) 1.2124(14) 0.1114(10)
H40 H 0.4647 1.2170 0.0771
H41 H 0.4558 1.2185 0.1352
H42 H 0.4874 1.1675 0.1158
O17 O 0.5284(9) 1.3335(16) 0.0431(11)
O18 O 0.6915(4) 1.0031(7) 0.5136(5)
O19 O 0.6726(4) 1.1866(7) 0.5434(5)
H43 H 0.6532 1.1631 0.5493
C12 C 0.6614(3) 1.2538(6) 0.5375(4)
H44 H 0.6420 1.2575 0.5094
H45 H 0.6840 1.2811 0.5304
H46 H 0.6505 1.2698 0.5683
O20 O 0.5626(2) 0.7196(4) 0.5719(3)
O21 O 0.5369(4) 0.8260(8) 0.5284(5)
H47 H 0.5486 0.7978 0.5472
C13 C 0.5567(3) 0.8889(6) 0.5317(4)
H48 H 0.5498 0.9158 0.5018
H49 H 0.5846 0.8811 0.5341
H50 H 0.5492 0.9131 0.5617
O22 O 0.5270(3) 0.6287(5) 0.6323(3)
H51 H 0.5431 0.6104 0.6143
C14 C 0.4885(5) 0.6145(10) 0.6122(7)
H52 H 0.4820 0.6448 0.5840
H53 H 0.4702 0.6212 0.6384
H54 H 0.4871 0.5678 0.6006
O23 O 0.6257(7) 0.9160(12) 0.9762(8)
O24 O 0.7237(8) 0.9185(14) 0.9773(9)
O25 O 0.6759(3) 0.9827(6) 0.9393(4)
N1 N 0.73963(12) 1.1117(2) -0.13856(17)
N2 N 0.68953(13) 1.1318(2) -0.05617(17)
N3 N 0.86023(14) 0.8648(3) -0.12864(18)
N4 N 0.88000(17) 0.7867(3) -0.0387(2)
N5 N 0.92061(14) 1.1705(3) -0.12621(18)
N6 N 0.94496(12) 1.2404(2) -0.03394(17)
N7 N 0.94560(13) 0.9165(2) 0.17151(19)
N8 N 0.97506(13) 1.0501(2) 0.16003(18)
N9 N 0.85063(13) 1.2895(2) 0.16130(16)
N10 N 0.76869(13) 1.2772(2) 0.14043(16)
N11 N 0.76326(15) 0.8494(2) 0.13582(17)
N12 N 0.71451(13) 0.9654(2) 0.14830(16)
C15 C 0.93065(17) 1.1364(3) 0.1264(2)
C16 C 0.90360(16) 1.1824(3) 0.1390(2)
H55 H 0.8938 1.1809 0.1715
C17 C 0.88991(16) 1.2320(3) 0.1045(2)
C18 C 0.90411(15) 1.2321(3) 0.0567(2)
H56 H 0.8951 1.2650 0.0330
C19 C 0.93131(16) 1.1849(3) 0.0431(2)
C20 C 0.94393(16) 1.1364(3) 0.0785(2)
H57 H 0.9619 1.1030 0.0695
C21 C 0.94572(18) 1.0874(3) 0.1650(2)
H58 H 0.9326 1.0838 0.1952
C22 C 0.86277(16) 1.2832(3) 0.1185(2)
H59 H 0.8536 1.3140 0.0933
C23 C 0.94888(15) 1.1888(3) -0.00535(19)
H60 H 0.9637 1.1518 -0.0160
C24 C 0.71790(16) 1.1461(3) 0.0275(2)
C25 C 0.73548(16) 1.1901(3) 0.0618(2)
H61 H 0.7424 1.2339 0.0513
C26 C 0.74317(16) 1.1707(3) 0.1113(2)
C27 C 0.73352(16) 1.1065(3) 0.1264(2)
H62 H 0.7390 1.0929 0.1602
C28 C 0.71579(17) 1.0617(3) 0.0919(2)
C29 C 0.70774(18) 1.0818(3) 0.0434(2)
H63 H 0.6951 1.0517 0.0202
C30 C 0.70903(15) 1.1676(3) -0.0247(2)
H64 H 0.7183 1.2100 -0.0352
C31 C 0.76090(15) 1.2176(3) 0.1503(2)
H65 H 0.7663 1.2014 0.1835
C32 C 0.70601(18) 0.9916(3) 0.1055(2)
H66 H 0.6926 0.9647 0.0808
C33 C 0.85821(16) 0.9859(3) -0.1257(2)
C34 C 0.87966(17) 1.0436(3) -0.1255(2)
H67 H 0.9070 1.0406 -0.1251
C35 C 0.86190(15) 1.1077(3) -0.1259(2)
C36 C 0.82175(15) 1.1109(3) -0.1284(2)
H68 H 0.8092 1.1534 -0.1297
C37 C 0.79991(15) 1.0526(3) -0.1291(2)
C38 C 0.81787(16) 0.9898(3) -0.1272(2)
H69 H 0.8028 0.9499 -0.1270
C39 C 0.87809(17) 0.9206(3) -0.1258(2)
H70 H 0.9055 0.9201 -0.1236
C40 C 0.88424(17) 1.1704(3) -0.1255(2)
H71 H 0.8710 1.2121 -0.1248
C41 C 0.75683(15) 1.0561(3) -0.13220(19)
H72 H 0.7422 1.0160 -0.1294
C42 C 0.85818(19) 0.8309(3) 0.0394(2)
C43 C 0.8263(2) 0.8378(3) 0.0680(2)
H73 H 0.8013 0.8271 0.0537
C44 C 0.83062(18) 0.8600(3) 0.1169(2)
C45 C 0.86758(17) 0.8766(3) 0.1380(2)
H74 H 0.8707 0.8920 0.1718
C46 C 0.89935(17) 0.8704(3) 0.1092(2)
C47 C 0.89504(19) 0.8467(3) 0.0599(2)
H75 H 0.9169 0.8415 0.0405
C48 C 0.8527(2) 0.8026(3) -0.0128(2)
H76 H 0.8271 0.7966 -0.0267
C49 C 0.79758(17) 0.8642(3) 0.1497(2)
H77 H 0.8026 0.8790 0.1833
C50 C 0.93874(18) 0.8901(3) 0.1293(2)
H78 H 0.9598 0.8822 0.1089
C51 C 0.98576(17) 0.9345(3) 0.1857(3)
H79 H 1.0020 0.9281 0.1563
C52 C 1.0007(2) 0.8886(4) 0.2292(3)
H80 H 0.9835 0.8924 0.2573
H81 H 1.0003 0.8412 0.2177
C53 C 1.0411(2) 0.9076(5) 0.2471(4)
H82 H 1.0500 0.8779 0.2753
H83 H 1.0587 0.9013 0.2195
C54 C 1.0428(2) 0.9792(5) 0.2641(3)
H84 H 1.0696 0.9908 0.2753
H85 H 1.0265 0.9848 0.2932
C55 C 1.02847(19) 1.0278(4) 0.2215(3)
H86 H 1.0284 1.0746 0.2343
H87 H 1.0460 1.0256 0.1936
C56 C 0.98806(16) 1.0077(3) 0.2029(2)
H88 H 0.9702 1.0143 0.2306
C57 C 0.96693(15) 1.2424(3) -0.07957(19)
H89 H 0.9853 1.2036 -0.0793
C58 C 0.98973(16) 1.3081(3) -0.0791(2)
H90 H 1.0083 1.3090 -0.0496
H91 H 0.9718 1.3466 -0.0764
C59 C 1.01163(18) 1.3151(3) -0.1273(2)
H92 H 1.0252 1.3589 -0.1271
H93 H 1.0312 1.2790 -0.1284
C60 C 0.9847(2) 1.3105(5) -0.1728(2)
H94 H 0.9997 1.3128 -0.2033
H95 H 0.9667 1.3492 -0.1735
C61 C 0.9616(2) 1.2451(5) -0.1732(2)
H96 H 0.9433 1.2442 -0.2031
H97 H 0.9795 1.2065 -0.1756
C62 C 0.93939(16) 1.2381(3) -0.1260(2)
H98 H 0.9194 1.2742 -0.1251
C63 C 0.8699(2) 0.7565(3) -0.0880(2)
H99 H 0.8412 0.7508 -0.0920
C64 C 0.8893(3) 0.6868(4) -0.0900(3)
H100 H 0.9174 0.6915 -0.0820
H101 H 0.8786 0.6569 -0.0646
C65 C 0.8824(3) 0.6560(4) -0.1418(3)
H102 H 0.8961 0.6124 -0.1430
H103 H 0.8544 0.6473 -0.1483
C66 C 0.8963(3) 0.7017(4) -0.1820(3)
H104 H 0.8908 0.6808 -0.2153
H105 H 0.9246 0.7076 -0.1769
C67 C 0.8766(2) 0.7703(4) -0.1808(3)
H106 H 0.8486 0.7650 -0.1891
H107 H 0.8872 0.8000 -0.2065
C68 C 0.88287(19) 0.8032(3) -0.1286(2)
H108 H 0.9108 0.8142 -0.1220
C69 C 0.69756(14) 1.1096(3) -0.14418(19)
H109 H 0.6883 1.0629 -0.1375
C70 C 0.68479(15) 1.1303(3) -0.1977(2)
H110 H 0.6958 1.1749 -0.2051
H111 H 0.6948 1.0975 -0.2217
C71 C 0.64104(15) 1.1335(3) -0.20465(19)
H112 H 0.6335 1.1466 -0.2397
H113 H 0.6301 1.0884 -0.1987
C72 C 0.62459(16) 1.1832(3) -0.1691(2)
H114 H 0.5961 1.1833 -0.1736
H115 H 0.6340 1.2290 -0.1764
C73 C 0.63690(16) 1.1642(3) -0.1151(2)
H116 H 0.6249 1.1208 -0.1069
H117 H 0.6274 1.1987 -0.0921
C74 C 0.68117(15) 1.1581(3) -0.10682(19)
H118 H 0.6934 1.2034 -0.1100
C75 C 0.70086(16) 0.8976(3) 0.1563(2)
H119 H 0.6889 0.8794 0.1241
C76 C 0.67083(17) 0.8985(3) 0.1962(2)
H120 H 0.6828 0.9168 0.2279
H121 H 0.6492 0.9285 0.1850
C77 C 0.65516(19) 0.8287(3) 0.2056(3)
H122 H 0.6409 0.8120 0.1748
H123 H 0.6369 0.8307 0.2328
C78 C 0.68794(18) 0.7804(3) 0.2205(2)
H124 H 0.6774 0.7343 0.2229
H125 H 0.6994 0.7930 0.2540
C79 C 0.71987(18) 0.7808(3) 0.1824(2)
H126 H 0.7416 0.7518 0.1949
H127 H 0.7095 0.7623 0.1499
C80 C 0.73466(17) 0.8528(3) 0.1745(2)
H128 H 0.7469 0.8708 0.2066
C81 C 0.82435(15) 1.3462(3) 0.1692(2)
H129 H 0.8214 1.3736 0.1377
C82 C 0.84123(16) 1.3901(3) 0.2119(2)
H130 H 0.8452 1.3628 0.2427
H131 H 0.8666 1.4080 0.2030
C83 C 0.81433(16) 1.4478(3) 0.22148(19)
H132 H 0.8131 1.4784 0.1921
H133 H 0.8247 1.4736 0.2510
C84 C 0.77346(17) 1.4232(3) 0.2309(2)
H134 H 0.7740 1.3986 0.2632
H135 H 0.7561 1.4624 0.2336
C85 C 0.75777(16) 1.3776(3) 0.1892(2)
H136 H 0.7545 1.4035 0.1576
H137 H 0.7321 1.3604 0.1975
C86 C 0.78490(15) 1.3186(3) 0.18196(18)
H138 H 0.7876 1.2912 0.2134
N13 N 0.71143(12) 1.2256(2) 0.39202(16)
N14 N 0.62853(12) 1.2181(2) 0.37939(17)
N15 N 0.56189(12) 0.8333(2) 0.36759(16)
N16 N 0.52199(12) 0.9569(2) 0.38764(15)
N17 N 0.54231(13) 1.1545(2) 0.58040(16)
N18 N 0.58216(12) 1.0911(2) 0.66525(15)
N19 N 0.64756(12) 0.7182(2) 0.56917(16)
N20 N 0.66320(12) 0.8049(2) 0.65488(15)
N21 N 0.76632(11) 1.0699(2) 0.66628(15)
N22 N 0.81314(12) 1.0995(2) 0.58287(16)
N23 N 0.74773(12) 0.8051(2) 0.38300(15)
N24 N 0.78727(12) 0.9326(2) 0.37790(16)
C87 C 0.68238(15) 0.8083(2) 0.40968(19)
C88 C 0.64436(14) 0.8152(3) 0.39368(18)
H139 H 0.6381 0.8307 0.3605
C89 C 0.61418(15) 0.8000(3) 0.42528(19)
C90 C 0.62387(16) 0.7772(3) 0.4731(2)
H140 H 0.6039 0.7662 0.4945
C91 C 0.66233(15) 0.7699(3) 0.49093(19)
C92 C 0.69170(15) 0.7853(3) 0.45990(18)
H141 H 0.7179 0.7807 0.4718
C93 C 0.71222(15) 0.8213(3) 0.37428(19)
H142 H 0.7049 0.8427 0.3433
C94 C 0.57324(15) 0.8082(3) 0.40964(18)
H143 H 0.5544 0.7942 0.4319
C95 C 0.67227(15) 0.7441(2) 0.54189(19)
H144 H 0.6983 0.7471 0.5548
C96 C 0.70985(14) 1.0024(3) 0.64835(18)
C97 C 0.69614(13) 0.9383(2) 0.64395(17)
H145 H 0.7137 0.9022 0.6403
C98 C 0.65641(14) 0.9247(2) 0.64471(18)
C99 C 0.63095(14) 0.9778(3) 0.64835(18)
H146 H 0.6040 0.9693 0.6485
C100 C 0.64451(14) 1.0437(2) 0.65187(18)
C101 C 0.68398(13) 1.0567(2) 0.65224(17)
H147 H 0.6934 1.1015 0.6551
C102 C 0.75169(14) 1.0141(2) 0.65217(18)
H148 H 0.7684 0.9786 0.6437
C103 C 0.64124(14) 0.8548(2) 0.64544(18)
H149 H 0.6144 0.8473 0.6386
C104 C 0.61722(13) 1.1002(2) 0.65765(18)
H150 H 0.6266 1.1450 0.6555
C105 C 0.77506(14) 1.1030(3) 0.50408(19)
C106 C 0.75170(14) 1.1425(2) 0.47240(19)
H151 H 0.7413 1.1831 0.4846
C107 C 0.74325(14) 1.1235(2) 0.42276(19)
C108 C 0.75662(14) 1.0615(3) 0.40590(19)
H152 H 0.7498 1.0471 0.3726
C109 C 0.77997(14) 1.0207(3) 0.4379(2)
C110 C 0.78902(14) 1.0414(3) 0.48679(19)
H153 H 0.8047 1.0138 0.5087
C111 C 0.78594(14) 1.1262(2) 0.55618(18)
H154 H 0.7719 1.1622 0.5698
C112 C 0.72062(14) 1.1647(3) 0.38513(19)
H155 H 0.7126 1.1443 0.3541
C113 C 0.79516(15) 0.9564(3) 0.4206(2)
H156 H 0.8119 0.9315 0.4431
C114 C 0.56035(13) 1.0509(3) 0.42017(18)
C115 C 0.58359(14) 1.1034(3) 0.40534(19)
H157 H 0.5931 1.1034 0.3727
C116 C 0.59301(15) 1.1568(3) 0.4388(2)
C117 C 0.58043(15) 1.1548(3) 0.4870(2)
H158 H 0.5876 1.1900 0.5097
C118 C 0.55737(14) 1.1023(3) 0.50303(19)
C119 C 0.54775(14) 1.0497(3) 0.46938(19)
H159 H 0.5326 1.0131 0.4799
C120 C 0.54767(14) 1.0000(3) 0.38223(19)
H160 H 0.5600 1.0001 0.3513
C121 C 0.61646(15) 1.2137(3) 0.4226(2)
H161 H 0.6227 1.2485 0.4460
C122 C 0.54257(14) 1.1024(3) 0.55315(19)
H162 H 0.5327 1.0616 0.5659
C123 C 0.51099(14) 0.9138(3) 0.34407(19)
H163 H 0.5257 0.9279 0.3147
C124 C 0.46786(15) 0.9228(3) 0.33138(19)
H164 H 0.4624 0.9703 0.3225
H165 H 0.4533 0.9114 0.3611
C125 C 0.45465(15) 0.8774(3) 0.2874(2)
H166 H 0.4264 0.8821 0.2805
H167 H 0.4676 0.8914 0.2569
C126 C 0.46444(15) 0.8043(3) 0.2995(2)
H168 H 0.4569 0.7759 0.2700
H169 H 0.4494 0.7893 0.3278
C127 C 0.50742(16) 0.7947(3) 0.3133(2)
H170 H 0.5124 0.7471 0.3226
H171 H 0.5224 0.8053 0.2839
C128 C 0.52049(15) 0.8401(3) 0.3571(2)
H172 H 0.5068 0.8268 0.3876
C129 C 0.64543(15) 0.7388(2) 0.65878(19)
H173 H 0.6167 0.7430 0.6539
C130 C 0.65623(19) 0.7102(3) 0.7115(2)
H174 H 0.6456 0.7397 0.7372
H175 H 0.6847 0.7094 0.7172
C131 C 0.6401(2) 0.6384(3) 0.7166(2)
H176 H 0.6476 0.6204 0.7504
H177 H 0.6115 0.6395 0.7127
C132 C 0.6559(2) 0.5925(3) 0.6764(2)
H178 H 0.6448 0.5469 0.6791
H179 H 0.6843 0.5889 0.6817
C133 C 0.64550(18) 0.6213(3) 0.6239(2)
H180 H 0.6565 0.5920 0.5983
H181 H 0.6171 0.6214 0.6178
C134 C 0.66058(15) 0.6920(3) 0.61824(18)
H182 H 0.6894 0.6915 0.6212
C135 C 0.77430(15) 0.8205(3) 0.34360(19)
H183 H 0.7597 0.8422 0.3145
C136 C 0.79231(17) 0.7549(3) 0.3263(2)
H184 H 0.7719 0.7254 0.3110
H185 H 0.8047 0.7311 0.3556
C137 C 0.82244(19) 0.7691(3) 0.2879(2)
H186 H 0.8348 0.7263 0.2785
H187 H 0.8095 0.7886 0.2571
C138 C 0.85291(18) 0.8170(3) 0.3089(3)
H188 H 0.8714 0.8268 0.2829
H189 H 0.8674 0.7958 0.3378
C139 C 0.83464(17) 0.8826(3) 0.3257(2)
H190 H 0.8550 0.9129 0.3404
H191 H 0.8218 0.9055 0.2964
C140 C 0.80528(15) 0.8683(3) 0.3646(2)
H192 H 0.8186 0.8480 0.3952
C141 C 0.82147(14) 1.1259(3) 0.63300(19)
H193 H 0.8074 1.1693 0.6370
C142 C 0.86492(15) 1.1377(3) 0.6409(2)
H194 H 0.8787 1.0952 0.6346
H195 H 0.8731 1.1715 0.6164
C143 C 0.87599(17) 1.1620(3) 0.6938(2)
H196 H 0.9044 1.1675 0.6978
H197 H 0.8640 1.2064 0.6992
C144 C 0.86296(16) 1.1128(3) 0.7329(2)
H198 H 0.8683 1.1321 0.7669
H199 H 0.8779 1.0706 0.7309
C145 C 0.82013(15) 1.0972(3) 0.7255(2)
H200 H 0.8051 1.1378 0.7334
H201 H 0.8134 1.0613 0.7492
C146 C 0.80865(13) 1.0745(3) 0.67176(18)
H202 H 0.8203 1.0296 0.6652
C147 C 0.55745(14) 1.1491(3) 0.67147(18)
H203 H 0.5731 1.1912 0.6699
C148 C 0.53942(15) 1.1449(3) 0.7221(2)
H204 H 0.5601 1.1454 0.7492
H205 H 0.5253 1.1019 0.7243
C149 C 0.51175(18) 1.2032(4) 0.7298(2)
H206 H 0.5261 1.2462 0.7302
H207 H 0.5000 1.1981 0.7626
C150 C 0.48000(17) 1.2043(4) 0.6876(3)
H208 H 0.4631 1.2438 0.6918
H209 H 0.4640 1.1632 0.6893
C151 C 0.49794(17) 1.2080(3) 0.6365(2)
H210 H 0.5121 1.2509 0.6341
H211 H 0.4771 1.2074 0.6095
C152 C 0.52574(15) 1.1491(3) 0.6288(2)
H212 H 0.5110 1.1060 0.6299
C153 C 0.68928(15) 1.2586(3) 0.3508(2)
H213 H 0.6860 1.2266 0.3220
C154 C 0.71163(15) 1.3209(3) 0.3338(2)
H214 H 0.7172 1.3509 0.3630
H215 H 0.7366 1.3064 0.3211
C155 C 0.68857(17) 1.3593(3) 0.2929(2)
H216 H 0.7026 1.4009 0.2848
H217 H 0.6862 1.3314 0.2621
C156 C 0.64910(16) 1.3773(3) 0.3084(2)
H218 H 0.6344 1.3988 0.2798
H219 H 0.6515 1.4105 0.3361
C157 C 0.62667(16) 1.3167(3) 0.3257(2)
H220 H 0.6208 1.2864 0.2968
H221 H 0.6019 1.3318 0.3386
C158 C 0.65008(14) 1.2787(3) 0.36695(19)
H222 H 0.6533 1.3079 0.3974
O26? O 0.7001(2) 1.0551(4) 0.2882(3)
H223? H 0.7237 1.0555 0.2825
C159? C 0.6792(4) 1.0915(7) 0.2506(5)
H224? H 0.6739 1.0626 0.2213
H225? H 0.6945 1.1305 0.2409
H226? H 0.6549 1.1070 0.2634
O27? O 0.5863(4) 1.2836(8) 0.5765(6)
H227? H 0.5821 1.2490 0.5590
C160? C 0.6035(12) 1.3344(17) 0.5468(15)
H228? H 0.6121 1.3142 0.5159
H229? H 0.6257 1.3541 0.5660
H230? H 0.5845 1.3696 0.5384
O28? O 0.7854(4) 0.9772(8) 1.0006(5)
H231? H 0.7796 1.0181 1.0023
C161? C 0.7526(6) 0.9398(10) 0.9774(7)
H232? H 0.7621 0.9016 0.9585
H233? H 0.7374 0.9695 0.9546
H234? H 0.7363 0.9233 1.0036
C162? C 0.5373(7) 1.2920(13) 0.5439(9)
H235? H 0.5593 1.3143 0.5296
H236? H 0.5448 1.2464 0.5546
H237? H 0.5294 1.3176 0.5730
O29? O 0.5000 1.2879(18) 0.5000
H238? H 0.4939 1.3269 0.4904
O30? O 0.5127(4) 0.9107(8) 0.5266(5)
loop_
_geom_bond_atom_site_label_1
_geom_bond_atom_site_label_2
_geom_bond_site_symmetry_1
_geom_bond_site_symmetry_2
Cl1 C1 1_555 1_555
Cl2 C1 1_555 1_555
C1 H1 1_555 1_555
H2 C1 1_555 1_555
O1 H3 1_555 1_555
C2 O1 1_555 1_555
H4 C2 1_555 1_555
H5 C2 1_555 1_555
H6 C2 1_555 1_555
O3 H7 1_555 1_555
C3 O3 1_555 1_555
H8 C3 1_555 1_555
H9 C3 1_555 1_555
H10 C3 1_555 1_555
O7 H11 1_555 1_555
C4 O7 1_555 1_555
H12 C4 1_555 1_555
H13 C4 1_555 1_555
H14 C4 1_555 1_555
O9 H15 1_555 1_555
C5 O9 1_555 1_555
H16 C5 1_555 1_555
H17 C5 1_555 1_555
H18 C5 1_555 1_555
O11 H19 1_555 1_555
C6 O11 1_555 1_555
H20 C6 1_555 1_555
H21 C6 1_555 1_555
H22 C6 1_555 1_555
O12 H23 1_555 1_555
C7 O12 1_555 1_555
H24 C7 1_555 1_555
H25 C7 1_555 1_555
H26 C7 1_555 1_555
O13 H27 1_555 1_555
C8 O13 1_555 1_555
H28 C8 1_555 1_555
H29 C8 1_555 1_555
H30 C8 1_555 1_555
O14 H31 1_555 1_555
C9 O14 1_555 1_555
H32 C9 1_555 1_555
H33 C9 1_555 1_555
H34 C9 1_555 1_555
O15 H35 1_555 1_555
C10 O15 1_555 1_555
H36 C10 1_555 1_555
H37 C10 1_555 1_555
H38 C10 1_555 1_555
O16 H39 1_555 1_555
C11 O16 1_555 1_555
H40 C11 1_555 1_555
H41 C11 1_555 1_555
H42 C11 1_555 1_555
O19 H43 1_555 1_555
C12 O19 1_555 1_555
H44 C12 1_555 1_555
H45 C12 1_555 1_555
H46 C12 1_555 1_555
O21 H47 1_555 1_555
C13 O21 1_555 1_555
H48 C13 1_555 1_555
H49 C13 1_555 1_555
H50 C13 1_555 1_555
O22 H51 1_555 1_555
C14 O22 1_555 1_555
H52 C14 1_555 1_555
H53 C14 1_555 1_555
H54 C14 1_555 1_555
N1 C41 1_555 1_555
N2 C30 1_555 1_555
N3 C39 1_555 1_555
N4 C48 1_555 1_555
N5 C40 1_555 1_555
N6 C23 1_555 1_555
N7 C50 1_555 1_555
N8 C21 1_555 1_555
N9 C22 1_555 1_555
N10 C31 1_555 1_555
N11 C49 1_555 1_555
N12 C32 1_555 1_555
C15 C16 1_555 1_555
C16 H55 1_555 1_555
C17 C16 1_555 1_555
C18 C17 1_555 1_555
H56 C18 1_555 1_555
C19 C18 1_555 1_555
C20 C15 1_555 1_555
H57 C20 1_555 1_555
C21 C15 1_555 1_555
H58 C21 1_555 1_555
C22 C17 1_555 1_555
H59 C22 1_555 1_555
C23 C19 1_555 1_555
H60 C23 1_555 1_555
C24 C25 1_555 1_555
C25 H61 1_555 1_555
C26 C25 1_555 1_555
C27 C26 1_555 1_555
H62 C27 1_555 1_555
C28 C27 1_555 1_555
C29 C24 1_555 1_555
H63 C29 1_555 1_555
C30 C24 1_555 1_555
H64 C30 1_555 1_555
C31 C26 1_555 1_555
H65 C31 1_555 1_555
C32 C28 1_555 1_555
H66 C32 1_555 1_555
C33 C34 1_555 1_555
C34 H67 1_555 1_555
C35 C34 1_555 1_555
C36 C35 1_555 1_555
H68 C36 1_555 1_555
C37 C36 1_555 1_555
C38 C33 1_555 1_555
H69 C38 1_555 1_555
C39 C33 1_555 1_555
H70 C39 1_555 1_555
C40 C35 1_555 1_555
H71 C40 1_555 1_555
C41 C37 1_555 1_555
H72 C41 1_555 1_555
C42 C43 1_555 1_555
C43 H73 1_555 1_555
C44 C43 1_555 1_555
C45 C44 1_555 1_555
H74 C45 1_555 1_555
C46 C45 1_555 1_555
C47 C42 1_555 1_555
H75 C47 1_555 1_555
C48 C42 1_555 1_555
H76 C48 1_555 1_555
C49 C44 1_555 1_555
H77 C49 1_555 1_555
C50 C46 1_555 1_555
H78 C50 1_555 1_555
C51 N7 1_555 1_555
H79 C51 1_555 1_555
C52 C51 1_555 1_555
H80 C52 1_555 1_555
H81 C52 1_555 1_555
C53 C52 1_555 1_555
H82 C53 1_555 1_555
H83 C53 1_555 1_555
C54 C53 1_555 1_555
H84 C54 1_555 1_555
H85 C54 1_555 1_555
C55 C54 1_555 1_555
H86 C55 1_555 1_555
H87 C55 1_555 1_555
C56 N8 1_555 1_555
H88 C56 1_555 1_555
C57 N6 1_555 1_555
H89 C57 1_555 1_555
C58 C57 1_555 1_555
H90 C58 1_555 1_555
H91 C58 1_555 1_555
C59 C58 1_555 1_555
H92 C59 1_555 1_555
H93 C59 1_555 1_555
C60 C59 1_555 1_555
H94 C60 1_555 1_555
H95 C60 1_555 1_555
C61 C60 1_555 1_555
H96 C61 1_555 1_555
H97 C61 1_555 1_555
C62 N5 1_555 1_555
H98 C62 1_555 1_555
C63 N4 1_555 1_555
H99 C63 1_555 1_555
C64 C63 1_555 1_555
H100 C64 1_555 1_555
H101 C64 1_555 1_555
C65 C64 1_555 1_555
H102 C65 1_555 1_555
H103 C65 1_555 1_555
C66 C65 1_555 1_555
H104 C66 1_555 1_555
H105 C66 1_555 1_555
C67 C66 1_555 1_555
H106 C67 1_555 1_555
H107 C67 1_555 1_555
C68 N3 1_555 1_555
H108 C68 1_555 1_555
C69 N1 1_555 1_555
H109 C69 1_555 1_555
C70 C69 1_555 1_555
H110 C70 1_555 1_555
H111 C70 1_555 1_555
C71 C70 1_555 1_555
H112 C71 1_555 1_555
H113 C71 1_555 1_555
C72 C71 1_555 1_555
H114 C72 1_555 1_555
H115 C72 1_555 1_555
C73 C72 1_555 1_555
H116 C73 1_555 1_555
H117 C73 1_555 1_555
C74 N2 1_555 1_555
H118 C74 1_555 1_555
C75 N12 1_555 1_555
H119 C75 1_555 1_555
C76 C75 1_555 1_555
H120 C76 1_555 1_555
H121 C76 1_555 1_555
C77 C76 1_555 1_555
H122 C77 1_555 1_555
H123 C77 1_555 1_555
C78 C77 1_555 1_555
H124 C78 1_555 1_555
H125 C78 1_555 1_555
C79 C78 1_555 1_555
H126 C79 1_555 1_555
H127 C79 1_555 1_555
C80 N11 1_555 1_555
H128 C80 1_555 1_555
C81 N9 1_555 1_555
H129 C81 1_555 1_555
C82 C81 1_555 1_555
H130 C82 1_555 1_555
H131 C82 1_555 1_555
C83 C82 1_555 1_555
H132 C83 1_555 1_555
H133 C83 1_555 1_555
C84 C83 1_555 1_555
H134 C84 1_555 1_555
H135 C84 1_555 1_555
C85 C84 1_555 1_555
H136 C85 1_555 1_555
H137 C85 1_555 1_555
C86 N10 1_555 1_555
H138 C86 1_555 1_555
N13 C112 1_555 1_555
N14 C121 1_555 1_555
N15 C94 1_555 1_555
N16 C120 1_555 1_555
N17 C122 1_555 1_555
N18 C104 1_555 1_555
N19 C95 1_555 1_555
N20 C103 1_555 1_555
N21 C102 1_555 1_555
N22 C111 1_555 1_555
N23 C93 1_555 1_555
N24 C113 1_555 1_555
C87 C88 1_555 1_555
C88 H139 1_555 1_555
C89 C88 1_555 1_555
C90 C89 1_555 1_555
H140 C90 1_555 1_555
C91 C90 1_555 1_555
C92 C87 1_555 1_555
H141 C92 1_555 1_555
C93 C87 1_555 1_555
H142 C93 1_555 1_555
C94 C89 1_555 1_555
H143 C94 1_555 1_555
C95 C91 1_555 1_555
H144 C95 1_555 1_555
C96 C97 1_555 1_555
C97 H145 1_555 1_555
C98 C97 1_555 1_555
C99 C98 1_555 1_555
H146 C99 1_555 1_555
C100 C99 1_555 1_555
C101 C96 1_555 1_555
H147 C101 1_555 1_555
C102 C96 1_555 1_555
H148 C102 1_555 1_555
C103 C98 1_555 1_555
H149 C103 1_555 1_555
C104 C100 1_555 1_555
H150 C104 1_555 1_555
C105 C106 1_555 1_555
C106 H151 1_555 1_555
C107 C106 1_555 1_555
C108 C107 1_555 1_555
H152 C108 1_555 1_555
C109 C108 1_555 1_555
C110 C105 1_555 1_555
H153 C110 1_555 1_555
C111 C105 1_555 1_555
H154 C111 1_555 1_555
C112 C107 1_555 1_555
H155 C112 1_555 1_555
C113 C109 1_555 1_555
H156 C113 1_555 1_555
C114 C115 1_555 1_555
C115 H157 1_555 1_555
C116 C115 1_555 1_555
C117 C116 1_555 1_555
H158 C117 1_555 1_555
C118 C117 1_555 1_555
C119 C114 1_555 1_555
H159 C119 1_555 1_555
C120 C114 1_555 1_555
H160 C120 1_555 1_555
C121 C116 1_555 1_555
H161 C121 1_555 1_555
C122 C118 1_555 1_555
H162 C122 1_555 1_555
C123 N16 1_555 1_555
H163 C123 1_555 1_555
C124 C123 1_555 1_555
H164 C124 1_555 1_555
H165 C124 1_555 1_555
C125 C124 1_555 1_555
H166 C125 1_555 1_555
H167 C125 1_555 1_555
C126 C125 1_555 1_555
H168 C126 1_555 1_555
H169 C126 1_555 1_555
C127 C126 1_555 1_555
H170 C127 1_555 1_555
H171 C127 1_555 1_555
C128 N15 1_555 1_555
H172 C128 1_555 1_555
C129 N20 1_555 1_555
H173 C129 1_555 1_555
C130 C129 1_555 1_555
H174 C130 1_555 1_555
H175 C130 1_555 1_555
C131 C130 1_555 1_555
H176 C131 1_555 1_555
H177 C131 1_555 1_555
C132 C131 1_555 1_555
H178 C132 1_555 1_555
H179 C132 1_555 1_555
C133 C132 1_555 1_555
H180 C133 1_555 1_555
H181 C133 1_555 1_555
C134 N19 1_555 1_555
H182 C134 1_555 1_555
C135 N23 1_555 1_555
H183 C135 1_555 1_555
C136 C135 1_555 1_555
H184 C136 1_555 1_555
H185 C136 1_555 1_555
C137 C136 1_555 1_555
H186 C137 1_555 1_555
H187 C137 1_555 1_555
C138 C137 1_555 1_555
H188 C138 1_555 1_555
H189 C138 1_555 1_555
C139 C138 1_555 1_555
H190 C139 1_555 1_555
H191 C139 1_555 1_555
C140 N24 1_555 1_555
H192 C140 1_555 1_555
C141 N22 1_555 1_555
H193 C141 1_555 1_555
C142 C141 1_555 1_555
H194 C142 1_555 1_555
H195 C142 1_555 1_555
C143 C142 1_555 1_555
H196 C143 1_555 1_555
H197 C143 1_555 1_555
C144 C143 1_555 1_555
H198 C144 1_555 1_555
H199 C144 1_555 1_555
C145 C144 1_555 1_555
H200 C145 1_555 1_555
H201 C145 1_555 1_555
C146 N21 1_555 1_555
H202 C146 1_555 1_555
C147 N18 1_555 1_555
H203 C147 1_555 1_555
C148 C147 1_555 1_555
H204 C148 1_555 1_555
H205 C148 1_555 1_555
C149 C148 1_555 1_555
H206 C149 1_555 1_555
H207 C149 1_555 1_555
C150 C149 1_555 1_555
H208 C150 1_555 1_555
H209 C150 1_555 1_555
C151 C150 1_555 1_555
H210 C151 1_555 1_555
H211 C151 1_555 1_555
C152 N17 1_555 1_555
H212 C152 1_555 1_555
C153 N13 1_555 1_555
H213 C153 1_555 1_555
C154 C153 1_555 1_555
H214 C154 1_555 1_555
H215 C154 1_555 1_555
C155 C154 1_555 1_555
H216 C155 1_555 1_555
H217 C155 1_555 1_555
C156 C155 1_555 1_555
H218 C156 1_555 1_555
H219 C156 1_555 1_555
C157 C156 1_555 1_555
H220 C157 1_555 1_555
H221 C157 1_555 1_555
C158 N14 1_555 1_555
H222 C158 1_555 1_555
C19 C20 1_555 1_555
C28 C29 1_555 1_555
C37 C38 1_555 1_555
C46 C47 1_555 1_555
C51 C56 1_555 1_555
C55 C56 1_555 1_555
C57 C62 1_555 1_555
C61 C62 1_555 1_555
C63 C68 1_555 1_555
C67 C68 1_555 1_555
C69 C74 1_555 1_555
C73 C74 1_555 1_555
C75 C80 1_555 1_555
C79 C80 1_555 1_555
C81 C86 1_555 1_555
C85 C86 1_555 1_555
C91 C92 1_555 1_555
C100 C101 1_555 1_555
C109 C110 1_555 1_555
C118 C119 1_555 1_555
C123 C128 1_555 1_555
C127 C128 1_555 1_555
C129 C134 1_555 1_555
C133 C134 1_555 1_555
C135 C140 1_555 1_555
C139 C140 1_555 1_555
C141 C146 1_555 1_555
C145 C146 1_555 1_555
C147 C152 1_555 1_555
C151 C152 1_555 1_555
C153 C158 1_555 1_555
C157 C158 1_555 1_555

#END
