
#######################################################################
#
#                 Cambridge Crystallographic Data Centre
#                                CCDC 
#
#######################################################################
#
# If this CIF has been generated from an entry in the Cambridge 
# Structural Database, then it will include bibliographic, chemical, 
# crystal, experimental, refinement or atomic coordinate data resulting 
# from the CCDC's data processing and validation procedures.
#
#######################################################################

data_MOVBII
_chemical_formula_moiety         'C12 H9 F2 N3 S2'
_chemical_name_systematic        
1,5-bis(4-Fluorophenyl)-1,3,5-triaza-2,4-dithia-1,2-pentadiene
_symmetry_cell_setting           monoclinic
_symmetry_space_group_name_H-M   'P 21/n'
_symmetry_Int_Tables_number      14
_space_group_name_Hall           '-P 2yn'
loop_
_symmetry_equiv_pos_site_id
_symmetry_equiv_pos_as_xyz
1 x,y,z
2 1/2+x,1/2-y,1/2+z
3 -x,-y,-z
4 1/2-x,1/2+y,1/2-z
_cell_length_a                   12.463(3)
_cell_length_b                   4.6520(10)
_cell_length_c                   23.276(6)
_cell_angle_alpha                90
_cell_angle_beta                 102.86(2)
_cell_angle_gamma                90
_cell_volume                     1315.64
_exptl_crystal_colour            orange
_exptl_crystal_description       needle
_chemical_melting_point          '126-127 deg.C'
_cell_formula_units_Z            4
_exptl_crystal_recrystallization_method hexane
loop_
_atom_site_label
_atom_site_type_symbol
_atom_site_fract_x
_atom_site_fract_y
_atom_site_fract_z
S1 S 0.11577(8) 0.1419(2) 0.77858(4)
S2 S -0.04187(8) 0.3941(2) 0.68903(5)
C1 C 0.2630(3) 0.4407(7) 0.85945(16)
C2 C -0.2305(4) 0.1179(10) 0.60287(18)
N1 N -0.0982(2) 0.1077(6) 0.69963(13)
C3 C -0.1991(3) 0.0301(8) 0.66152(16)
N2 N 0.2392(3) 0.2523(8) 0.81125(17)
C4 C -0.2665(3) -0.1560(9) 0.68418(18)
F1 F 0.3460(3) 0.9832(8) 1.00095(14)
N3 N 0.0727(3) 0.4166(6) 0.73155(15)
C5 C 0.1829(4) 0.5855(9) 0.87982(19)
F2 F -0.4882(3) -0.2598(9) 0.55701(15)
C6 C 0.3727(4) 0.4840(10) 0.8866(2)
C7 C -0.3650(4) -0.2535(11) 0.6488(2)
C8 C 0.3196(5) 0.8016(10) 0.9534(2)
C9 C 0.4003(5) 0.6683(12) 0.9340(2)
C10 C -0.3919(4) -0.1581(12) 0.5921(2)
C11 C -0.3289(4) 0.0226(13) 0.5682(2)
C12 C 0.2115(5) 0.7662(11) 0.9277(2)
H1 H 0.426(4) 0.378(9) 0.875(2)
H2 H 0.114(3) 0.553(8) 0.8636(17)
H3 H 0.158(4) 0.844(9) 0.9364(19)
H4 H 0.469(5) 0.710(12) 0.948(3)
H5 H 0.281(3) 0.202(9) 0.7981(19)
H6 H -0.186(3) 0.261(8) 0.5860(18)
H7 H -0.413(4) -0.395(8) 0.6617(18)
H8 H -0.246(4) -0.234(10) 0.726(2)
H9 H -0.347(5) 0.091(11) 0.526(3)
loop_
_geom_bond_atom_site_label_1
_geom_bond_atom_site_label_2
_geom_bond_site_symmetry_1
_geom_bond_site_symmetry_2
S1 N2 1_555 1_555
S2 N1 1_555 1_555
C1 N2 1_555 1_555
C2 C3 1_555 1_555
N1 C3 1_555 1_555
C3 C4 1_555 1_555
N2 H5 1_555 1_555
C4 C7 1_555 1_555
F1 C8 1_555 1_555
N3 S1 1_555 1_555
C5 C1 1_555 1_555
F2 C10 1_555 1_555
C6 C1 1_555 1_555
C7 C10 1_555 1_555
C8 C9 1_555 1_555
C9 C6 1_555 1_555
C10 C11 1_555 1_555
C11 C2 1_555 1_555
C12 C5 1_555 1_555
H1 C6 1_555 1_555
H2 C5 1_555 1_555
H3 C12 1_555 1_555
H4 C9 1_555 1_555
H6 C2 1_555 1_555
H7 C7 1_555 1_555
H8 C4 1_555 1_555
H9 C11 1_555 1_555
S2 N3 1_555 1_555
C8 C12 1_555 1_555

#END
