
#######################################################################
#
#                 Cambridge Crystallographic Data Centre
#                                CCDC 
#
#######################################################################
#
# If this CIF has been generated from an entry in the Cambridge 
# Structural Database, then it will include bibliographic, chemical, 
# crystal, experimental, refinement or atomic coordinate data resulting 
# from the CCDC's data processing and validation procedures.
#
#######################################################################

data_MOVCEH
_chemical_formula_moiety         
'C72 H84 N12,1.5(C1 H1 Cl3),3.5(C1 H4 O1),2.38(H2 O1)'
_chemical_name_systematic        
'5,12,20,27,35,42,50,57,62,69,74,81-Dodecaazatridecacyclo[29.29.10.10^16,46^.1^3,59^.1^14,18^.1^29,33^.1^44,48^.0^6,11^.0^21,26^.0^36,41^.0^51,56^.0^63,68^.0^75,80^]tetraoctaconta-1,3(71),4,12,14(84),15,17,19,27,29(83),30,32,34,42,44(72),45,47,49,57,59,61,69,73,81-tetracosaene chloroform methanol solvate hydrate'
_symmetry_cell_setting           monoclinic
_symmetry_space_group_name_H-M   'C 2'
_symmetry_Int_Tables_number      5
_space_group_name_Hall           'C 2y'
loop_
_symmetry_equiv_pos_site_id
_symmetry_equiv_pos_as_xyz
1 x,y,z
2 -x,y,-z
3 1/2+x,1/2+y,z
4 1/2-x,1/2+y,-z
_cell_length_a                   34.796(3)
_cell_length_b                   19.8984(14)
_cell_length_c                   26.7636(18)
_cell_angle_alpha                90
_cell_angle_beta                 93.452(2)
_cell_angle_gamma                90
_cell_volume                     18497.1
_exptl_crystal_colour            colorless
_exptl_crystal_description       needle
_cell_formula_units_Z            8
loop_
_atom_site_label
_atom_site_type_symbol
_atom_site_fract_x
_atom_site_fract_y
_atom_site_fract_z
Cl1 Cl 0.33855(16) 0.8585(3) 0.0772(2)
Cl2 Cl 0.3106(2) 0.8897(4) -0.0236(3)
Cl3 Cl 0.37934(19) 0.8064(4) -0.0103(3)
C1 C 0.3477(7) 0.8687(13) 0.0182(9)
H1 H 0.3639 0.9103 0.0192
Cl4 Cl 0.2754(3) 1.0022(5) 0.2517(4)
Cl5 Cl 0.2619(3) 0.8610(5) 0.2181(3)
Cl6 Cl 0.3392(3) 0.9234(6) 0.2241(4)
C2 C 0.2917(7) 0.9199(13) 0.2523(9)
H2 H 0.2956 0.9044 0.2878
Cl7 Cl 0.1147(2) 0.8624(4) 0.4921(3)
Cl8 Cl 0.1864(3) 0.9318(6) 0.5131(4)
Cl9 Cl 0.1640(3) 0.8846(5) 0.4137(3)
C3 C 0.1620(3) 0.8715(10) 0.4773(4)
H3 H 0.1751 0.8276 0.4850
O1 O 0.3356(6) 1.1382(12) -0.0293(8)
H4 H 0.3219 1.1517 -0.0064
C4 C 0.3258(6) 1.0739(11) -0.0416(8)
H5 H 0.3394 1.0601 -0.0710
H6 H 0.2980 1.0711 -0.0493
H7 H 0.3331 1.0441 -0.0135
O2 O 0.4288(8) 0.5435(15) -0.0497(11)
H8 H 0.4240 0.5583 -0.0213
C5 C 0.4652(12) 0.568(2) -0.0631(17)
H9 H 0.4730 0.5448 -0.0930
H10 H 0.4844 0.5609 -0.0354
H11 H 0.4631 0.6167 -0.0701
O3 O 0.4194(10) 1.2006(19) -0.0691(13)
O4 O 0.5000 1.157(2) 0.0000
O5 O 0.4677(7) 0.4705(13) 0.1218(10)
O6 O 0.2267(2) 0.6754(5) -0.0268(3)
H12 H 0.2167 0.6605 -0.0540
C6 C 0.2435(4) 0.7349(8) -0.0348(6)
H13 H 0.2562 0.7334 -0.0664
H14 H 0.2626 0.7444 -0.0073
H15 H 0.2239 0.7703 -0.0363
O7 O 0.1577(4) 0.8263(8) -0.0778(6)
H16 H 0.1567 0.8424 -0.1068
C7 C 0.1194(7) 0.817(3) -0.0622(19)
H17 H 0.1101 0.8588 -0.0482
H18 H 0.1195 0.7814 -0.0367
H19 H 0.1024 0.8036 -0.0911
O8 O 0.1020(6) 0.9222(11) -0.0082(8)
O9 O 0.4562(6) 0.9077(11) 0.2804(7)
H20 H 0.4388 0.8784 0.2771
C8 C 0.4684(13) 0.914(2) 0.3325(10)
H21 H 0.4914 0.8864 0.3398
H22 H 0.4477 0.8991 0.3531
H23 H 0.4746 0.9612 0.3400
O10 O 0.4368(5) 0.7745(10) 0.5215(7)
H24 H 0.4374 0.7563 0.5498
C9 C 0.4013(6) 0.7529(11) 0.4917(8)
H25 H 0.4008 0.7735 0.4584
H26 H 0.3786 0.7671 0.5088
H27 H 0.4013 0.7038 0.4883
O11 O 0.4669(8) 0.4767(15) -0.1802(12)
H28 H 0.4515 0.5080 -0.1751
C10 C 0.4490(14) 0.4115(19) -0.1686(19)
H29 H 0.4651 0.3747 -0.1798
H30 H 0.4234 0.4087 -0.1859
H31 H 0.4465 0.4079 -0.1324
O12 O 0.4627(8) 0.8928(15) -0.3332(11)
O13 O 0.3961(5) 0.8233(10) -0.4160(7)
H32 H 0.3818 0.7978 -0.4004
C11 C 0.3733(6) 0.8517(13) -0.4631(8)
H33 H 0.3874 0.8425 -0.4929
H34 H 0.3700 0.9004 -0.4594
H35 H 0.3479 0.8302 -0.4667
O14 O 0.2606(4) 0.7119(7) -0.4576(5)
N1 N 0.0538(2) 1.0902(4) 0.5365(3)
N2 N 0.0788(3) 1.0249(4) 0.6295(3)
N3 N 0.1438(3) 0.7215(5) 0.6325(4)
N4 N 0.1307(3) 0.6380(5) 0.5420(4)
N5 N 0.2591(2) 0.9722(4) 0.6421(3)
N6 N 0.3081(2) 0.9910(3) 0.5615(3)
N7 N 0.1474(2) 1.1451(4) 0.3440(3)
N8 N 0.2281(2) 1.1342(4) 0.3645(2)
N9 N 0.2872(3) 0.8282(4) 0.3559(3)
N10 N 0.2409(3) 0.7069(4) 0.3646(3)
N11 N 0.0280(3) 0.8968(5) 0.3482(3)
N12 N 0.0571(3) 0.7650(4) 0.3335(4)
C12 C 0.2617(3) 0.9613(4) 0.3796(3)
H36 H 0.2576 0.9480 0.3456
C13 C 0.2791(3) 0.9173(4) 0.4150(3)
C14 C 0.2872(3) 0.9375(4) 0.4624(3)
H37 H 0.2998 0.9075 0.4857
C15 C 0.2772(3) 1.0029(5) 0.4781(3)
C16 C 0.2589(3) 1.0456(4) 0.4426(3)
H38 H 0.2524 1.0899 0.4524
C17 C 0.2503(3) 1.0260(4) 0.3952(3)
C18 C 0.2922(3) 0.8509(5) 0.4005(3)
H39 H 0.3050 0.8234 0.4253
C19 C 0.2858(2) 1.0263(4) 0.5306(3)
H40 H 0.2750 1.0671 0.5416
C20 C 0.2338(3) 1.0734(4) 0.3548(3)
H41 H 0.2278 1.0568 0.3220
C21 C 0.1094(3) 1.0842(5) 0.4007(3)
C22 C 0.0949(2) 1.0842(4) 0.4484(3)
H42 H 0.1030 1.1179 0.4720
C23 C 0.0688(3) 1.0353(5) 0.4617(3)
C24 C 0.0564(3) 0.9857(4) 0.4255(4)
H43 H 0.0383 0.9524 0.4338
C25 C 0.0706(3) 0.9864(5) 0.3795(4)
C26 C 0.0970(3) 1.0325(5) 0.3661(3)
H44 H 0.1073 1.0304 0.3340
C27 C 0.1347(3) 1.1381(5) 0.3869(4)
H45 H 0.1424 1.1703 0.4118
C28 C 0.0508(2) 1.0403(5) 0.5099(4)
H46 H 0.0363 1.0032 0.5209
C29 C 0.0551(3) 0.9381(6) 0.3415(4)
H47 H 0.0661 0.9380 0.3098
C30 C 0.1373(3) 0.9656(5) 0.6294(3)
C31 C 0.1765(3) 0.9673(5) 0.6357(4)
H48 H 0.1886 1.0098 0.6403
C32 C 0.1994(3) 0.9112(5) 0.6356(4)
C33 C 0.1826(3) 0.8481(5) 0.6337(4)
H49 H 0.1984 0.8092 0.6350
C34 C 0.1416(3) 0.8411(5) 0.6298(4)
C35 C 0.1191(3) 0.8999(5) 0.6268(4)
H50 H 0.0918 0.8967 0.6231
C36 C 0.1137(3) 1.0231(5) 0.6304(4)
H51 H 0.1265 1.0652 0.6320
C37 C 0.2410(3) 0.9156(5) 0.6385(4)
H52 H 0.2555 0.8752 0.6378
C38 C 0.1229(3) 0.7732(6) 0.6279(4)
H53 H 0.0957 0.7691 0.6232
C39 C 0.1052(4) 0.7270(6) 0.3944(5)
C40 C 0.1110(4) 0.7020(5) 0.4440(5)
H54 H 0.0899 0.6948 0.4643
C41 C 0.1493(3) 0.6879(5) 0.4624(4)
C42 C 0.1800(3) 0.6975(5) 0.4339(5)
H55 H 0.2052 0.6887 0.4482
C43 C 0.1757(3) 0.7198(5) 0.3843(5)
C44 C 0.1360(3) 0.7336(5) 0.3668(4)
H56 H 0.1315 0.7483 0.3331
C45 C 0.0656(3) 0.7393(5) 0.3768(5)
H57 H 0.0455 0.7281 0.3978
C46 C 0.1571(4) 0.6591(5) 0.5158(5)
H58 H 0.1829 0.6573 0.5293
C47 C 0.2072(3) 0.7242(5) 0.3524(3)
H59 H 0.2021 0.7415 0.3196
C48 C 0.2704(3) 0.7139(4) 0.3274(3)
H60 H 0.2583 0.7341 0.2961
C49 C 0.2855(3) 0.6416(5) 0.3156(4)
H61 H 0.2951 0.6194 0.3471
H62 H 0.2642 0.6142 0.3003
C50 C 0.3180(4) 0.6458(5) 0.2797(4)
H63 H 0.3077 0.6632 0.2470
H64 H 0.3285 0.6002 0.2744
C51 C 0.3505(3) 0.6919(5) 0.3005(5)
H65 H 0.3708 0.6952 0.2763
H66 H 0.3621 0.6732 0.3322
C52 C 0.3332(3) 0.7638(5) 0.3102(4)
H67 H 0.3540 0.7943 0.3229
H68 H 0.3218 0.7824 0.2783
C53 C 0.3027(3) 0.7592(4) 0.3477(3)
H69 H 0.3142 0.7407 0.3800
C54 C 0.2120(3) 1.1759(4) 0.3218(3)
H70 H 0.2090 1.1471 0.2911
C55 C 0.2383(3) 1.2318(4) 0.3122(3)
H71 H 0.2631 1.2132 0.3019
H72 H 0.2437 1.2573 0.3436
C56 C 0.2222(3) 1.2799(5) 0.2715(3)
H73 H 0.2392 1.3198 0.2705
H74 H 0.2222 1.2573 0.2386
C57 C 0.1814(3) 1.3026(5) 0.2808(3)
H75 H 0.1824 1.3346 0.3092
H76 H 0.1705 1.3266 0.2508
C58 C 0.1555(3) 1.2456(4) 0.2922(3)
H77 H 0.1510 1.2178 0.2618
H78 H 0.1303 1.2639 0.3011
C59 C 0.1719(3) 1.2001(4) 0.3358(3)
H79 H 0.1749 1.2275 0.3672
C60 C 0.0170(3) 0.7817(7) 0.3256(5)
H80 H 0.0025 0.7758 0.3564
C61 C 0.0015(4) 0.7360(7) 0.2814(6)
H81 H 0.0033 0.6883 0.2916
H82 H 0.0175 0.7424 0.2523
C62 C -0.0414(5) 0.7542(9) 0.2660(7)
H83 H -0.0575 0.7487 0.2950
H84 H -0.0515 0.7240 0.2388
C63 C -0.0425(5) 0.8294(9) 0.2475(9)
H85 H -0.0251 0.8360 0.2200
H86 H -0.0690 0.8423 0.2355
C64 C -0.0290(4) 0.8712(9) 0.2936(9)
H87 H -0.0440 0.8593 0.3226
H88 H -0.0325 0.9198 0.2866
C65 C 0.0147(4) 0.8545(6) 0.3049(5)
H89 H 0.0304 0.8611 0.2752
C66 C 0.0590(3) 1.0916(6) 0.6286(3)
H90 H 0.0786 1.1281 0.6269
C67 C 0.0371(4) 1.1004(8) 0.6755(4)
H91 H 0.0554 1.1008 0.7052
H92 H 0.0192 1.0621 0.6788
C68 C 0.0140(4) 1.1669(9) 0.6730(4)
H93 H -0.0010 1.1710 0.7031
H94 H 0.0320 1.2054 0.6726
C69 C -0.0136(3) 1.1690(6) 0.6258(4)
H95 H -0.0335 1.1338 0.6280
H96 H -0.0266 1.2132 0.6235
C70 C 0.0078(3) 1.1580(5) 0.5811(3)
H97 H 0.0254 1.1966 0.5772
H98 H -0.0107 1.1574 0.5515
C71 C 0.0311(3) 1.0945(5) 0.5813(3)
H99 H 0.0132 1.0551 0.5816
C72 C 0.3010(2) 0.9708(4) 0.6468(3)
H100 H 0.3099 0.9243 0.6395
C73 C 0.3142(3) 0.9888(5) 0.7014(3)
H101 H 0.3023 1.0320 0.7105
H102 H 0.3051 0.9537 0.7241
C74 C 0.3584(3) 0.9947(4) 0.7085(3)
H103 H 0.3658 1.0084 0.7434
H104 H 0.3704 0.9506 0.7023
C75 C 0.3727(3) 1.0468(5) 0.6722(3)
H105 H 0.3619 1.0914 0.6799
H106 H 0.4011 1.0498 0.6761
C76 C 0.3606(3) 1.0275(5) 0.6188(3)
H107 H 0.3735 0.9849 0.6105
H108 H 0.3695 1.0626 0.5960
C77 C 0.3175(3) 1.0188(4) 0.6098(3)
H109 H 0.3046 1.0636 0.6123
C78 C 0.1405(4) 0.6114(6) 0.5912(5)
H110 H 0.1691 0.6113 0.5969
C79 C 0.1258(5) 0.5378(8) 0.5939(7)
H111 H 0.1396 0.5094 0.5705
H112 H 0.0980 0.5362 0.5838
C80 C 0.1328(6) 0.5105(9) 0.6484(7)
H113 H 0.1222 0.4645 0.6509
H114 H 0.1606 0.5092 0.6581
C81 C 0.1130(6) 0.5565(9) 0.6806(6)
H115 H 0.1135 0.5370 0.7147
H116 H 0.0857 0.5595 0.6681
C82 C 0.1293(5) 0.6277(6) 0.6846(5)
H117 H 0.1155 0.6548 0.7088
H118 H 0.1571 0.6268 0.6954
C83 C 0.1233(4) 0.6566(5) 0.6319(5)
H119 H 0.0952 0.6639 0.6236
N13 N 0.2148(2) 0.7987(3) 0.1249(3)
N14 N 0.2548(2) 0.6736(3) 0.1199(2)
N15 N 0.3523(2) 0.5878(4) -0.0671(3)
N16 N 0.33440(19) 0.6701(3) -0.1548(2)
N17 N 0.23182(19) 0.9350(3) -0.1674(2)
N18 N 0.1881(2) 0.9629(3) -0.0799(2)
N19 N 0.4158(2) 0.9549(3) -0.1639(2)
N20 N 0.45640(19) 1.0203(3) -0.0790(3)
N21 N 0.3719(2) 1.0865(3) 0.1215(3)
N22 N 0.2882(2) 1.0901(3) 0.1099(2)
N23 N 0.4781(2) 0.8260(3) 0.1138(2)
N24 N 0.4396(2) 0.7030(4) 0.1339(3)
C84 C 0.4518(2) 0.9179(4) 0.0333(3)
H120 H 0.4669 0.8813 0.0229
C85 C 0.4394(2) 0.9195(4) 0.0820(3)
C86 C 0.4165(2) 0.9735(5) 0.0958(4)
H121 H 0.4075 0.9747 0.1286
C87 C 0.4068(2) 1.0242(4) 0.0635(3)
C88 C 0.4198(2) 1.0227(5) 0.0139(3)
H122 H 0.4131 1.0582 -0.0087
C89 C 0.4418(2) 0.9709(4) -0.0010(3)
C90 C 0.4520(2) 0.8690(4) 0.1188(3)
H123 H 0.4395 0.8684 0.1494
C91 C 0.3828(3) 1.0841(5) 0.0789(4)
H124 H 0.3765 1.1191 0.0557
C92 C 0.4570(2) 0.9686(4) -0.0512(3)
H125 H 0.4673 0.9277 -0.0629
C93 C 0.3411(2) 0.7885(4) -0.1470(2)
C94 C 0.3674(2) 0.8420(3) -0.1481(2)
H126 H 0.3944 0.8337 -0.1454
C95 C 0.3533(2) 0.9087(4) -0.1533(3)
C96 C 0.3143(2) 0.9212(4) -0.1537(2)
H127 H 0.3053 0.9663 -0.1555
C97 C 0.2877(2) 0.8683(3) -0.1515(3)
C98 C 0.3019(2) 0.8019(4) -0.1470(3)
H128 H 0.2843 0.7658 -0.1440
C99 C 0.3568(2) 0.7190(4) -0.1475(3)
H129 H 0.3837 0.7116 -0.1423
C100 C 0.3808(2) 0.9647(4) -0.1576(3)
H130 H 0.3717 1.0096 -0.1555
C101 C 0.2471(2) 0.8798(4) -0.1558(3)
H131 H 0.2306 0.8432 -0.1493
C102 C 0.2219(3) 0.8844(4) 0.0630(3)
C103 C 0.2127(3) 0.9068(4) 0.0146(3)
H132 H 0.1973 0.8791 -0.0075
C104 C 0.2253(3) 0.9682(4) -0.0025(3)
C105 C 0.2488(2) 1.0089(4) 0.0290(3)
H133 H 0.2578 1.0508 0.0175
C106 C 0.2589(2) 0.9871(4) 0.0780(3)
C107 C 0.2457(3) 0.9249(4) 0.0940(3)
H134 H 0.2531 0.9099 0.1268
C108 C 0.2074(3) 0.8221(4) 0.0820(3)
H135 H 0.1908 0.7965 0.0599
C109 C 0.2138(3) 0.9912(4) -0.0545(3)
H136 H 0.2267 1.0284 -0.0682
C110 C 0.2816(2) 1.0287(4) 0.1146(3)
H137 H 0.2920 1.0072 0.1441
C111 C 0.3865(3) 0.6699(4) 0.0758(3)
C112 C 0.3773(3) 0.6466(4) 0.0272(3)
H138 H 0.3971 0.6364 0.0054
C113 C 0.3378(3) 0.6383(4) 0.0106(3)
C114 C 0.3099(2) 0.6530(4) 0.0429(3)
H139 H 0.2835 0.6474 0.0324
C115 C 0.3199(2) 0.6763(4) 0.0912(3)
C116 C 0.3586(3) 0.6866(4) 0.1073(3)
H140 H 0.3652 0.7048 0.1395
C117 C 0.4280(2) 0.6782(4) 0.0895(4)
H141 H 0.4464 0.6657 0.0664
C118 C 0.3280(3) 0.6118(4) -0.0390(3)
H142 H 0.3017 0.6127 -0.0510
C119 C 0.2896(3) 0.6904(4) 0.1286(3)
H143 H 0.2970 0.7123 0.1592
C120 C 0.2290(2) 0.6874(4) 0.1581(3)
H144 H 0.2437 0.7095 0.1868
C121 C 0.2101(3) 0.6220(4) 0.1773(3)
H145 H 0.1976 0.5979 0.1483
H146 H 0.2306 0.5925 0.1923
C122 C 0.1812(3) 0.6335(5) 0.2147(3)
H147 H 0.1939 0.6529 0.2455
H148 H 0.1692 0.5903 0.2234
C123 C 0.1507(4) 0.6812(5) 0.1934(4)
H149 H 0.1315 0.6890 0.2186
H150 H 0.1372 0.6604 0.1637
C124 C 0.1679(3) 0.7492(5) 0.1783(4)
H151 H 0.1474 0.7792 0.1639
H152 H 0.1808 0.7715 0.2078
C125 C 0.1970(3) 0.7337(4) 0.1394(3)
H153 H 0.1833 0.7133 0.1093
C126 C 0.3104(2) 1.1237(4) 0.1508(3)
H154 H 0.3149 1.0909 0.1789
C127 C 0.2875(3) 1.1845(4) 0.1702(3)
H155 H 0.2808 1.2154 0.1420
H156 H 0.2632 1.1682 0.1834
C128 C 0.3109(3) 1.2230(6) 0.2116(4)
H157 H 0.2962 1.2630 0.2213
H158 H 0.3147 1.1938 0.2415
C129 C 0.3498(3) 1.2452(5) 0.1952(4)
H159 H 0.3646 1.2671 0.2234
H160 H 0.3463 1.2781 0.1676
C130 C 0.3720(3) 1.1837(5) 0.1775(4)
H161 H 0.3766 1.1522 0.2059
H162 H 0.3973 1.1983 0.1665
C131 C 0.3497(2) 1.1469(4) 0.1340(3)
H163 H 0.3463 1.1771 0.1042
C132 C 0.4729(2) 1.0118(4) -0.1273(3)
H164 H 0.4874 0.9684 -0.1283
C133 C 0.5006(3) 1.0725(5) -0.1353(4)
H165 H 0.4861 1.1151 -0.1334
H166 H 0.5214 1.0727 -0.1084
C134 C 0.5179(3) 1.0677(6) -0.1853(4)
H167 H 0.5333 1.0260 -0.1867
H168 H 0.5354 1.1063 -0.1895
C135 C 0.4865(3) 1.0675(6) -0.2281(4)
H169 H 0.4983 1.0620 -0.2606
H170 H 0.4723 1.1106 -0.2287
C136 C 0.4586(3) 1.0086(5) -0.2196(3)
H171 H 0.4378 1.0086 -0.2466
H172 H 0.4727 0.9656 -0.2213
C137 C 0.4411(2) 1.0141(4) -0.1693(3)
H173 H 0.4259 1.0566 -0.1674
C138 C 0.3526(3) 0.6032(3) -0.1566(3)
H174 H 0.3812 0.6079 -0.1523
C139 C 0.3410(3) 0.5724(4) -0.2091(3)
H175 H 0.3126 0.5728 -0.2146
H176 H 0.3518 0.6003 -0.2354
C140 C 0.3558(3) 0.4995(4) -0.2134(4)
H177 H 0.3462 0.4800 -0.2458
H178 H 0.3843 0.4995 -0.2124
C141 C 0.3423(4) 0.4568(5) -0.1707(4)
H179 H 0.3140 0.4513 -0.1749
H180 H 0.3541 0.4116 -0.1723
C142 C 0.3527(3) 0.4876(5) -0.1197(4)
H181 H 0.3415 0.4599 -0.0935
H182 H 0.3810 0.4871 -0.1135
C143 C 0.3383(3) 0.5588(4) -0.1157(3)
H183 H 0.3095 0.5587 -0.1180
C144 C 0.1894(2) 0.9408(4) -0.1715(3)
H184 H 0.1775 0.8959 -0.1658
C145 C 0.1769(3) 0.9660(5) -0.2228(4)
H185 H 0.1831 0.9320 -0.2481
H186 H 0.1911 1.0077 -0.2299
C146 C 0.1331(3) 0.9804(5) -0.2269(4)
H187 H 0.1258 0.9991 -0.2604
H188 H 0.1188 0.9378 -0.2232
C147 C 0.1218(3) 1.0303(5) -0.1865(4)
H189 H 0.1338 1.0745 -0.1924
H190 H 0.0935 1.0364 -0.1886
C148 C 0.1346(2) 1.0052(4) -0.1356(3)
H191 H 0.1204 0.9635 -0.1286
H192 H 0.1283 1.0392 -0.1104
C149 C 0.1778(2) 0.9909(4) -0.1307(3)
H193 H 0.1921 1.0340 -0.1347
C150 C 0.4900(2) 0.7821(4) 0.1577(3)
H194 H 0.4751 0.7952 0.1871
C151 C 0.5319(3) 0.7920(5) 0.1702(3)
H195 H 0.5368 0.8396 0.1794
H196 H 0.5464 0.7817 0.1405
C152 C 0.5463(3) 0.7458(5) 0.2145(4)
H197 H 0.5743 0.7514 0.2215
H198 H 0.5331 0.7577 0.2451
C153 C 0.5372(3) 0.6748(6) 0.1997(3)
H199 H 0.5459 0.6447 0.2276
H200 H 0.5521 0.6631 0.1705
C154 C 0.4935(3) 0.6615(5) 0.1860(4)
H201 H 0.4895 0.6145 0.1747
H202 H 0.4782 0.6694 0.2155
C155 C 0.4814(3) 0.7102(5) 0.1440(4)
H203 H 0.4948 0.6982 0.1133
O15? O 0.0793(8) 0.8455(14) -0.1004(10)
H204? H 0.0745 0.8180 -0.1238
H205? H 0.1388 0.7983 -0.0834
H206? H 0.1110 0.7818 -0.0395
H207? H 0.1305 0.8544 -0.0426
O16? O 0.4336(6) 0.8459(10) 0.3574(7)
O17? O 0.2768(4) 0.6643(8) 0.4582(6)
H208? H 0.2648 0.6581 0.4841
H209? H 0.3202 0.6061 0.4258
H210? H 0.3090 0.5765 0.4786
H211? H 0.3357 0.6417 0.4767
O18? O 0.4770(7) 0.4893(13) -0.2196(10)
O19? O 0.3928(5) 0.8914(10) -0.5049(7)
H212? H 0.3911 0.8692 -0.5316
H213? H 0.3533 0.8223 -0.4784
H214? H 0.3616 0.8834 -0.4405
H215? H 0.3926 0.8246 -0.4442
O20? O 0.4868(4) 0.7828(8) -0.0269(6)
O21? O 0.3251(6) 0.7017(11) 0.4893(7)
H216? H 0.3398 0.7232 0.4714
C156? C 0.3140(7) 0.6177(13) 0.4600(9)
H217? H 0.3195 0.6190 0.4245
H218? H 0.2867 0.6070 0.4630
H219? H 0.3299 0.5831 0.4771
loop_
_geom_bond_atom_site_label_1
_geom_bond_atom_site_label_2
_geom_bond_site_symmetry_1
_geom_bond_site_symmetry_2
Cl1 C1 1_555 1_555
Cl2 C1 1_555 1_555
Cl3 C1 1_555 1_555
C1 H1 1_555 1_555
Cl4 C2 1_555 1_555
Cl5 C2 1_555 1_555
Cl6 C2 1_555 1_555
C2 H2 1_555 1_555
Cl7 C3 1_555 1_555
Cl8 C3 1_555 1_555
Cl9 C3 1_555 1_555
C3 H3 1_555 1_555
O1 H4 1_555 1_555
C4 O1 1_555 1_555
H5 C4 1_555 1_555
H6 C4 1_555 1_555
H7 C4 1_555 1_555
O2 H8 1_555 1_555
C5 O2 1_555 1_555
H9 C5 1_555 1_555
H10 C5 1_555 1_555
H11 C5 1_555 1_555
O6 H12 1_555 1_555
C6 O6 1_555 1_555
H13 C6 1_555 1_555
H14 C6 1_555 1_555
H15 C6 1_555 1_555
O7 H16 1_555 1_555
C7 O7 1_555 1_555
H17 C7 1_555 1_555
H18 C7 1_555 1_555
H19 C7 1_555 1_555
O9 H20 1_555 1_555
C8 O9 1_555 1_555
H21 C8 1_555 1_555
H22 C8 1_555 1_555
H23 C8 1_555 1_555
O10 H24 1_555 1_555
C9 O10 1_555 1_555
H25 C9 1_555 1_555
H26 C9 1_555 1_555
H27 C9 1_555 1_555
O11 H28 1_555 1_555
C10 O11 1_555 1_555
H29 C10 1_555 1_555
H30 C10 1_555 1_555
H31 C10 1_555 1_555
O13 H32 1_555 1_555
C11 O13 1_555 1_555
H33 C11 1_555 1_555
H34 C11 1_555 1_555
H35 C11 1_555 1_555
N1 C28 1_555 1_555
N2 C36 1_555 1_555
N3 C38 1_555 1_555
N4 C46 1_555 1_555
N5 C37 1_555 1_555
N6 C19 1_555 1_555
N7 C27 1_555 1_555
N8 C20 1_555 1_555
N9 C18 1_555 1_555
N10 C47 1_555 1_555
N11 C29 1_555 1_555
N12 C45 1_555 1_555
C12 H36 1_555 1_555
C13 C12 1_555 1_555
C14 C13 1_555 1_555
H37 C14 1_555 1_555
C15 C14 1_555 1_555
C16 C15 1_555 1_555
H38 C16 1_555 1_555
C17 C12 1_555 1_555
C18 C13 1_555 1_555
H39 C18 1_555 1_555
C19 C15 1_555 1_555
H40 C19 1_555 1_555
C20 C17 1_555 1_555
H41 C20 1_555 1_555
C21 C22 1_555 1_555
C22 H42 1_555 1_555
C23 C22 1_555 1_555
C24 C23 1_555 1_555
H43 C24 1_555 1_555
C25 C24 1_555 1_555
C26 C21 1_555 1_555
H44 C26 1_555 1_555
C27 C21 1_555 1_555
H45 C27 1_555 1_555
C28 C23 1_555 1_555
H46 C28 1_555 1_555
C29 C25 1_555 1_555
H47 C29 1_555 1_555
C30 C31 1_555 1_555
C31 H48 1_555 1_555
C32 C31 1_555 1_555
C33 C32 1_555 1_555
H49 C33 1_555 1_555
C34 C33 1_555 1_555
C35 C30 1_555 1_555
H50 C35 1_555 1_555
C36 C30 1_555 1_555
H51 C36 1_555 1_555
C37 C32 1_555 1_555
H52 C37 1_555 1_555
C38 C34 1_555 1_555
H53 C38 1_555 1_555
C39 C40 1_555 1_555
C40 H54 1_555 1_555
C41 C40 1_555 1_555
C42 C41 1_555 1_555
H55 C42 1_555 1_555
C43 C42 1_555 1_555
C44 C39 1_555 1_555
H56 C44 1_555 1_555
C45 C39 1_555 1_555
H57 C45 1_555 1_555
C46 C41 1_555 1_555
H58 C46 1_555 1_555
C47 C43 1_555 1_555
H59 C47 1_555 1_555
C48 N10 1_555 1_555
H60 C48 1_555 1_555
C49 C48 1_555 1_555
H61 C49 1_555 1_555
H62 C49 1_555 1_555
C50 C49 1_555 1_555
H63 C50 1_555 1_555
H64 C50 1_555 1_555
C51 C50 1_555 1_555
H65 C51 1_555 1_555
H66 C51 1_555 1_555
C52 C51 1_555 1_555
H67 C52 1_555 1_555
H68 C52 1_555 1_555
C53 N9 1_555 1_555
H69 C53 1_555 1_555
C54 N8 1_555 1_555
H70 C54 1_555 1_555
C55 C54 1_555 1_555
H71 C55 1_555 1_555
H72 C55 1_555 1_555
C56 C55 1_555 1_555
H73 C56 1_555 1_555
H74 C56 1_555 1_555
C57 C56 1_555 1_555
H75 C57 1_555 1_555
H76 C57 1_555 1_555
C58 C57 1_555 1_555
H77 C58 1_555 1_555
H78 C58 1_555 1_555
C59 N7 1_555 1_555
H79 C59 1_555 1_555
C60 N12 1_555 1_555
H80 C60 1_555 1_555
C61 C60 1_555 1_555
H81 C61 1_555 1_555
H82 C61 1_555 1_555
C62 C61 1_555 1_555
H83 C62 1_555 1_555
H84 C62 1_555 1_555
C63 C62 1_555 1_555
H85 C63 1_555 1_555
H86 C63 1_555 1_555
C64 C63 1_555 1_555
H87 C64 1_555 1_555
H88 C64 1_555 1_555
C65 N11 1_555 1_555
H89 C65 1_555 1_555
C66 N2 1_555 1_555
H90 C66 1_555 1_555
C67 C66 1_555 1_555
H91 C67 1_555 1_555
H92 C67 1_555 1_555
C68 C67 1_555 1_555
H93 C68 1_555 1_555
H94 C68 1_555 1_555
C69 C68 1_555 1_555
H95 C69 1_555 1_555
H96 C69 1_555 1_555
C70 C69 1_555 1_555
H97 C70 1_555 1_555
H98 C70 1_555 1_555
C71 N1 1_555 1_555
H99 C71 1_555 1_555
C72 N5 1_555 1_555
H100 C72 1_555 1_555
C73 C72 1_555 1_555
H101 C73 1_555 1_555
H102 C73 1_555 1_555
C74 C73 1_555 1_555
H103 C74 1_555 1_555
H104 C74 1_555 1_555
C75 C74 1_555 1_555
H105 C75 1_555 1_555
H106 C75 1_555 1_555
C76 C75 1_555 1_555
H107 C76 1_555 1_555
H108 C76 1_555 1_555
C77 N6 1_555 1_555
H109 C77 1_555 1_555
C78 N4 1_555 1_555
H110 C78 1_555 1_555
C79 C78 1_555 1_555
H111 C79 1_555 1_555
H112 C79 1_555 1_555
C80 C79 1_555 1_555
H113 C80 1_555 1_555
H114 C80 1_555 1_555
C81 C80 1_555 1_555
H115 C81 1_555 1_555
H116 C81 1_555 1_555
C82 C81 1_555 1_555
H117 C82 1_555 1_555
H118 C82 1_555 1_555
C83 N3 1_555 1_555
H119 C83 1_555 1_555
N13 C108 1_555 1_555
N14 C119 1_555 1_555
N15 C118 1_555 1_555
N16 C99 1_555 1_555
N17 C101 1_555 1_555
N18 C109 1_555 1_555
N19 C100 1_555 1_555
N20 C92 1_555 1_555
N21 C91 1_555 1_555
N22 C110 1_555 1_555
N23 C90 1_555 1_555
N24 C117 1_555 1_555
C84 H120 1_555 1_555
C85 C84 1_555 1_555
C86 C85 1_555 1_555
H121 C86 1_555 1_555
C87 C86 1_555 1_555
C88 C87 1_555 1_555
H122 C88 1_555 1_555
C89 C84 1_555 1_555
C90 C85 1_555 1_555
H123 C90 1_555 1_555
C91 C87 1_555 1_555
H124 C91 1_555 1_555
C92 C89 1_555 1_555
H125 C92 1_555 1_555
C93 C94 1_555 1_555
C94 H126 1_555 1_555
C95 C94 1_555 1_555
C96 C95 1_555 1_555
H127 C96 1_555 1_555
C97 C96 1_555 1_555
C98 C93 1_555 1_555
H128 C98 1_555 1_555
C99 C93 1_555 1_555
H129 C99 1_555 1_555
C100 C95 1_555 1_555
H130 C100 1_555 1_555
C101 C97 1_555 1_555
H131 C101 1_555 1_555
C102 C103 1_555 1_555
C103 H132 1_555 1_555
C104 C103 1_555 1_555
C105 C104 1_555 1_555
H133 C105 1_555 1_555
C106 C105 1_555 1_555
C107 C102 1_555 1_555
H134 C107 1_555 1_555
C108 C102 1_555 1_555
H135 C108 1_555 1_555
C109 C104 1_555 1_555
H136 C109 1_555 1_555
C110 C106 1_555 1_555
H137 C110 1_555 1_555
C111 C112 1_555 1_555
C112 H138 1_555 1_555
C113 C112 1_555 1_555
C114 C113 1_555 1_555
H139 C114 1_555 1_555
C115 C114 1_555 1_555
C116 C111 1_555 1_555
H140 C116 1_555 1_555
C117 C111 1_555 1_555
H141 C117 1_555 1_555
C118 C113 1_555 1_555
H142 C118 1_555 1_555
C119 C115 1_555 1_555
H143 C119 1_555 1_555
C120 N14 1_555 1_555
H144 C120 1_555 1_555
C121 C120 1_555 1_555
H145 C121 1_555 1_555
H146 C121 1_555 1_555
C122 C121 1_555 1_555
H147 C122 1_555 1_555
H148 C122 1_555 1_555
C123 C122 1_555 1_555
H149 C123 1_555 1_555
H150 C123 1_555 1_555
C124 C123 1_555 1_555
H151 C124 1_555 1_555
H152 C124 1_555 1_555
C125 N13 1_555 1_555
H153 C125 1_555 1_555
C126 N22 1_555 1_555
H154 C126 1_555 1_555
C127 C126 1_555 1_555
H155 C127 1_555 1_555
H156 C127 1_555 1_555
C128 C127 1_555 1_555
H157 C128 1_555 1_555
H158 C128 1_555 1_555
C129 C128 1_555 1_555
H159 C129 1_555 1_555
H160 C129 1_555 1_555
C130 C129 1_555 1_555
H161 C130 1_555 1_555
H162 C130 1_555 1_555
C131 N21 1_555 1_555
H163 C131 1_555 1_555
C132 N20 1_555 1_555
H164 C132 1_555 1_555
C133 C132 1_555 1_555
H165 C133 1_555 1_555
H166 C133 1_555 1_555
C134 C133 1_555 1_555
H167 C134 1_555 1_555
H168 C134 1_555 1_555
C135 C134 1_555 1_555
H169 C135 1_555 1_555
H170 C135 1_555 1_555
C136 C135 1_555 1_555
H171 C136 1_555 1_555
H172 C136 1_555 1_555
C137 N19 1_555 1_555
H173 C137 1_555 1_555
C138 N16 1_555 1_555
H174 C138 1_555 1_555
C139 C138 1_555 1_555
H175 C139 1_555 1_555
H176 C139 1_555 1_555
C140 C139 1_555 1_555
H177 C140 1_555 1_555
H178 C140 1_555 1_555
C141 C140 1_555 1_555
H179 C141 1_555 1_555
H180 C141 1_555 1_555
C142 C141 1_555 1_555
H181 C142 1_555 1_555
H182 C142 1_555 1_555
C143 N15 1_555 1_555
H183 C143 1_555 1_555
C144 N17 1_555 1_555
H184 C144 1_555 1_555
C145 C144 1_555 1_555
H185 C145 1_555 1_555
H186 C145 1_555 1_555
C146 C145 1_555 1_555
H187 C146 1_555 1_555
H188 C146 1_555 1_555
C147 C146 1_555 1_555
H189 C147 1_555 1_555
H190 C147 1_555 1_555
C148 C147 1_555 1_555
H191 C148 1_555 1_555
H192 C148 1_555 1_555
C149 N18 1_555 1_555
H193 C149 1_555 1_555
C150 N23 1_555 1_555
H194 C150 1_555 1_555
C151 C150 1_555 1_555
H195 C151 1_555 1_555
H196 C151 1_555 1_555
C152 C151 1_555 1_555
H197 C152 1_555 1_555
H198 C152 1_555 1_555
C153 C152 1_555 1_555
H199 C153 1_555 1_555
H200 C153 1_555 1_555
C154 C153 1_555 1_555
H201 C154 1_555 1_555
H202 C154 1_555 1_555
C155 N24 1_555 1_555
H203 C155 1_555 1_555
C16 C17 1_555 1_555
C25 C26 1_555 1_555
C34 C35 1_555 1_555
C43 C44 1_555 1_555
C48 C53 1_555 1_555
C52 C53 1_555 1_555
C54 C59 1_555 1_555
C58 C59 1_555 1_555
C60 C65 1_555 1_555
C64 C65 1_555 1_555
C66 C71 1_555 1_555
C70 C71 1_555 1_555
C72 C77 1_555 1_555
C76 C77 1_555 1_555
C78 C83 1_555 1_555
C82 C83 1_555 1_555
C88 C89 1_555 1_555
C97 C98 1_555 1_555
C106 C107 1_555 1_555
C115 C116 1_555 1_555
C120 C125 1_555 1_555
C124 C125 1_555 1_555
C126 C131 1_555 1_555
C130 C131 1_555 1_555
C132 C137 1_555 1_555
C136 C137 1_555 1_555
C138 C143 1_555 1_555
C142 C143 1_555 1_555
C144 C149 1_555 1_555
C148 C149 1_555 1_555
C150 C155 1_555 1_555
C154 C155 1_555 1_555

#END
