
#######################################################################
#
#                 Cambridge Crystallographic Data Centre
#                                CCDC 
#
#######################################################################
#
# If this CIF has been generated from an entry in the Cambridge 
# Structural Database, then it will include bibliographic, chemical, 
# crystal, experimental, refinement or atomic coordinate data resulting 
# from the CCDC's data processing and validation procedures.
#
#######################################################################

data_MOVDEH
_chemical_formula_moiety         'C44 H90 O2 P1 1+,Br1 1-'
_chemical_name_systematic        
'carboxymethyl-tri-n-tetradecylphosphonium bromide'
_symmetry_cell_setting           monoclinic
_symmetry_space_group_name_H-M   'P 21/c'
_symmetry_Int_Tables_number      14
_space_group_name_Hall           '-P 2ybc'
loop_
_symmetry_equiv_pos_site_id
_symmetry_equiv_pos_as_xyz
1 x,y,z
2 -x,1/2+y,1/2-z
3 -x,-y,-z
4 x,1/2-y,1/2+z
_cell_length_a                   22.004(12)
_cell_length_b                   14.111(8)
_cell_length_c                   15.110(8)
_cell_angle_alpha                90
_cell_angle_beta                 100.015(10)
_cell_angle_gamma                90
_cell_volume                     4620.14
_exptl_crystal_colour            colorless
_exptl_crystal_description       plate
_chemical_melting_point          '362.8 K'
_cell_formula_units_Z            4
_exptl_crystal_recrystallization_method acetonitrile
loop_
_atom_site_label
_atom_site_type_symbol
_atom_site_fract_x
_atom_site_fract_y
_atom_site_fract_z
Br1 Br 0.49216(3) 0.76667(4) 0.49374(5)
P1 P 0.46300(8) 1.15115(11) 0.23016(11)
O1 O 0.51304(19) 0.9664(3) 0.3220(3)
O2 O 0.44028(17) 0.9557(2) 0.4080(3)
H1 H 0.4582 0.9043 0.4238
C1 C 0.4374(2) 1.0907(3) 0.3218(3)
H2 H 0.4433 1.1336 0.3744
H3 H 0.3926 1.0786 0.3048
C2 C 0.4688(3) 0.9986(5) 0.3499(4)
C3 C 0.5344(2) 1.2109(3) 0.2632(3)
H4 H 0.5358 1.2642 0.2210
H5 H 0.5344 1.2386 0.3233
C4 C 0.5941(2) 1.1538(4) 0.2676(4)
H6 H 0.5958 1.1045 0.3146
H7 H 0.5935 1.1214 0.2093
C5 C 0.6499(3) 1.2134(3) 0.2876(4)
H8 H 0.6495 1.2466 0.3453
H9 H 0.6477 1.2624 0.2403
C6 C 0.7106(2) 1.1624(4) 0.2941(4)
H10 H 0.7124 1.1329 0.2352
H11 H 0.7118 1.1107 0.3386
C7 C 0.7670(3) 1.2231(3) 0.3204(3)
H12 H 0.7658 1.2752 0.2762
H13 H 0.7657 1.2521 0.3797
C8 C 0.8267(3) 1.1707(4) 0.3255(4)
H14 H 0.8285 1.1432 0.2657
H15 H 0.8274 1.1175 0.3684
C9 C 0.8836(2) 1.2309(3) 0.3542(3)
H16 H 0.8828 1.2842 0.3115
H17 H 0.8818 1.2582 0.4141
C10 C 0.9434(3) 1.1797(3) 0.3593(4)
H18 H 0.9456 1.1537 0.2990
H19 H 0.9437 1.1253 0.4008
C11 C 1.0007(2) 1.2382(3) 0.3902(3)
H20 H 0.9990 1.2636 0.4507
H21 H 1.0006 1.2928 0.3490
C12 C 1.0608(2) 1.1849(3) 0.3940(4)
H22 H 1.0608 1.1298 0.4345
H23 H 1.0628 1.1602 0.3333
C13 C 1.1177(2) 1.2431(3) 0.4259(3)
H24 H 1.1176 1.2984 0.3856
H25 H 1.1159 1.2674 0.4868
C14 C 1.1769(2) 1.1907(3) 0.4290(4)
H26 H 1.1787 1.1661 0.3682
H27 H 1.1772 1.1355 0.4696
C15 C 1.2346(2) 1.2498(4) 0.4609(3)
H28 H 1.2345 1.3047 0.4201
H29 H 1.2328 1.2747 0.5216
C16 C 1.2941(2) 1.1963(3) 0.4644(4)
H30 H 1.3290 1.2385 0.4858
H31 H 1.2972 1.1732 0.4042
H32 H 1.2951 1.1425 0.5055
C17 C 0.4065(2) 1.2401(3) 0.1928(3)
H33 H 0.4168 1.2710 0.1385
H34 H 0.3657 1.2094 0.1757
C18 C 0.4019(2) 1.3180(3) 0.2654(3)
H35 H 0.3959 1.2875 0.3223
H36 H 0.4406 1.3551 0.2772
C19 C 0.3482(3) 1.3831(3) 0.2322(4)
H37 H 0.3528 1.4082 0.1726
H38 H 0.3498 1.4375 0.2738
C20 C 0.2855(2) 1.3364(3) 0.2243(4)
H39 H 0.2840 1.2829 0.1817
H40 H 0.2820 1.3094 0.2837
C21 C 0.2303(3) 1.3974(3) 0.1944(4)
H41 H 0.2333 1.4249 0.1350
H42 H 0.2308 1.4505 0.2374
C22 C 0.1696(3) 1.3459(4) 0.1871(4)
H43 H 0.1700 1.2919 0.1454
H44 H 0.1668 1.3193 0.2469
C23 C 0.1124(3) 1.4036(4) 0.1555(4)
H45 H 0.1124 1.4583 0.1965
H46 H 0.1148 1.4291 0.0951
C24 C 0.0533(3) 1.3526(3) 0.1504(4)
H47 H 0.0517 1.3258 0.2105
H48 H 0.0534 1.2986 0.1085
C25 C -0.0044(3) 1.4078(3) 0.1211(4)
H49 H -0.0030 1.4346 0.0609
H50 H -0.0047 1.4617 0.1630
C26 C -0.0635(2) 1.3546(3) 0.1164(4)
H51 H -0.0649 1.3276 0.1765
H52 H -0.0635 1.3009 0.0742
C27 C -0.1211(3) 1.4122(3) 0.0871(4)
H53 H -0.1201 1.4384 0.0266
H54 H -0.1209 1.4663 0.1289
C28 C -0.1807(2) 1.3574(4) 0.0840(4)
H55 H -0.1816 1.3044 0.0409
H56 H -0.1814 1.3298 0.1440
C29 C -0.2372(3) 1.4161(4) 0.0572(4)
H57 H -0.2365 1.4433 -0.0030
H58 H -0.2359 1.4696 0.1000
C30 C -0.2972(2) 1.3633(3) 0.0544(4)
H59 H -0.3318 1.4065 0.0354
H60 H -0.2993 1.3385 0.1144
H61 H -0.2993 1.3107 0.0117
C31 C 0.4657(2) 1.0699(3) 0.1389(3)
H62 H 0.4789 1.1045 0.0886
H63 H 0.4968 1.0202 0.1592
C32 C 0.4032(2) 1.0226(3) 0.1054(3)
H64 H 0.3935 0.9783 0.1518
H65 H 0.3705 1.0717 0.0956
C33 C 0.4033(3) 0.9683(3) 0.0176(4)
H66 H 0.4387 0.9240 0.0258
H67 H 0.4087 1.0137 -0.0303
C34 C 0.3435(2) 0.9124(4) -0.0116(4)
H68 H 0.3490 0.8696 -0.0615
H69 H 0.3360 0.8723 0.0393
C35 C 0.2871(3) 0.9730(3) -0.0417(3)
H70 H 0.2917 1.0055 -0.0983
H71 H 0.2852 1.0224 0.0042
C36 C 0.2266(3) 0.9180(4) -0.0570(4)
H72 H 0.2278 0.8710 -0.1053
H73 H 0.2232 0.8828 -0.0015
C37 C 0.1701(3) 0.9789(4) -0.0824(3)
H74 H 0.1720 1.0112 -0.1400
H75 H 0.1698 1.0282 -0.0359
C38 C 0.1114(2) 0.9221(3) -0.0918(4)
H76 H 0.1115 0.8736 -0.1391
H77 H 0.1100 0.8887 -0.0346
C39 C 0.0549(2) 0.9825(4) -0.1153(3)
H78 H 0.0564 1.0150 -0.1729
H79 H 0.0559 1.0319 -0.0686
C40 C -0.0059(3) 0.9298(3) -0.1239(4)
H80 H -0.0067 0.8801 -0.1703
H81 H -0.0075 0.8977 -0.0661
C41 C -0.0623(3) 0.9894(4) -0.1479(3)
H82 H -0.0601 1.0225 -0.2050
H83 H -0.0617 1.0384 -0.1009
C42 C -0.1237(3) 0.9379(4) -0.1585(4)
H84 H -0.1248 0.8896 -0.2063
H85 H -0.1258 0.9040 -0.1018
C43 C -0.1796(3) 0.9990(4) -0.1811(3)
H86 H -0.1769 1.0340 -0.2371
H87 H -0.1788 1.0464 -0.1327
C44 C -0.2420(2) 0.9468(3) -0.1939(4)
H88 H -0.2757 0.9929 -0.2073
H89 H -0.2457 0.9124 -0.1388
H90 H -0.2444 0.9019 -0.2439
loop_
_geom_bond_atom_site_label_1
_geom_bond_atom_site_label_2
_geom_bond_site_symmetry_1
_geom_bond_site_symmetry_2
P1 C1 1_555 1_555
O1 C2 1_555 1_555
O2 H1 1_555 1_555
C1 H2 1_555 1_555
H3 C1 1_555 1_555
C2 O2 1_555 1_555
C3 P1 1_555 1_555
H4 C3 1_555 1_555
H5 C3 1_555 1_555
C4 C3 1_555 1_555
H6 C4 1_555 1_555
H7 C4 1_555 1_555
C5 C4 1_555 1_555
H8 C5 1_555 1_555
H9 C5 1_555 1_555
C6 C5 1_555 1_555
H10 C6 1_555 1_555
H11 C6 1_555 1_555
C7 C6 1_555 1_555
H12 C7 1_555 1_555
H13 C7 1_555 1_555
C8 C7 1_555 1_555
H14 C8 1_555 1_555
H15 C8 1_555 1_555
C9 C8 1_555 1_555
H16 C9 1_555 1_555
H17 C9 1_555 1_555
C10 C9 1_555 1_555
H18 C10 1_555 1_555
H19 C10 1_555 1_555
C11 C10 1_555 1_555
H20 C11 1_555 1_555
H21 C11 1_555 1_555
C12 C11 1_555 1_555
H22 C12 1_555 1_555
H23 C12 1_555 1_555
C13 C12 1_555 1_555
H24 C13 1_555 1_555
H25 C13 1_555 1_555
C14 C13 1_555 1_555
H26 C14 1_555 1_555
H27 C14 1_555 1_555
C15 C14 1_555 1_555
H28 C15 1_555 1_555
H29 C15 1_555 1_555
C16 C15 1_555 1_555
H30 C16 1_555 1_555
H31 C16 1_555 1_555
H32 C16 1_555 1_555
C17 P1 1_555 1_555
H33 C17 1_555 1_555
H34 C17 1_555 1_555
C18 C17 1_555 1_555
H35 C18 1_555 1_555
H36 C18 1_555 1_555
C19 C18 1_555 1_555
H37 C19 1_555 1_555
H38 C19 1_555 1_555
C20 C19 1_555 1_555
H39 C20 1_555 1_555
H40 C20 1_555 1_555
C21 C20 1_555 1_555
H41 C21 1_555 1_555
H42 C21 1_555 1_555
C22 C21 1_555 1_555
H43 C22 1_555 1_555
H44 C22 1_555 1_555
C23 C22 1_555 1_555
H45 C23 1_555 1_555
H46 C23 1_555 1_555
C24 C23 1_555 1_555
H47 C24 1_555 1_555
H48 C24 1_555 1_555
C25 C24 1_555 1_555
H49 C25 1_555 1_555
H50 C25 1_555 1_555
C26 C25 1_555 1_555
H51 C26 1_555 1_555
H52 C26 1_555 1_555
C27 C26 1_555 1_555
H53 C27 1_555 1_555
H54 C27 1_555 1_555
C28 C27 1_555 1_555
H55 C28 1_555 1_555
H56 C28 1_555 1_555
C29 C28 1_555 1_555
H57 C29 1_555 1_555
H58 C29 1_555 1_555
C30 C29 1_555 1_555
H59 C30 1_555 1_555
H60 C30 1_555 1_555
H61 C30 1_555 1_555
C31 P1 1_555 1_555
H62 C31 1_555 1_555
H63 C31 1_555 1_555
C32 C31 1_555 1_555
H64 C32 1_555 1_555
H65 C32 1_555 1_555
C33 C32 1_555 1_555
H66 C33 1_555 1_555
H67 C33 1_555 1_555
C34 C33 1_555 1_555
H68 C34 1_555 1_555
H69 C34 1_555 1_555
C35 C34 1_555 1_555
H70 C35 1_555 1_555
H71 C35 1_555 1_555
C36 C35 1_555 1_555
H72 C36 1_555 1_555
H73 C36 1_555 1_555
C37 C36 1_555 1_555
H74 C37 1_555 1_555
H75 C37 1_555 1_555
C38 C37 1_555 1_555
H76 C38 1_555 1_555
H77 C38 1_555 1_555
C39 C38 1_555 1_555
H78 C39 1_555 1_555
H79 C39 1_555 1_555
C40 C39 1_555 1_555
H80 C40 1_555 1_555
H81 C40 1_555 1_555
C41 C40 1_555 1_555
H82 C41 1_555 1_555
H83 C41 1_555 1_555
C42 C41 1_555 1_555
H84 C42 1_555 1_555
H85 C42 1_555 1_555
C43 C42 1_555 1_555
H86 C43 1_555 1_555
H87 C43 1_555 1_555
C44 C43 1_555 1_555
H88 C44 1_555 1_555
H89 C44 1_555 1_555
H90 C44 1_555 1_555
C1 C2 1_555 1_555

#END
