
#######################################################################
#
#                 Cambridge Crystallographic Data Centre
#                                CCDC 
#
#######################################################################
#
# If this CIF has been generated from an entry in the Cambridge 
# Structural Database, then it will include bibliographic, chemical, 
# crystal, experimental, refinement or atomic coordinate data resulting 
# from the CCDC's data processing and validation procedures.
#
#######################################################################

data_MOVDIL
_chemical_formula_moiety         'C44 H91 N1 O1 P1 1+,Br1 1-'
_chemical_name_systematic        
'(2-Amino-2-oxoethyl)-tris(tetradecyl)-phosphonium bromide'
_symmetry_cell_setting           monoclinic
_symmetry_space_group_name_H-M   'P 21/c'
_symmetry_Int_Tables_number      14
_space_group_name_Hall           '-P 2ybc'
loop_
_symmetry_equiv_pos_site_id
_symmetry_equiv_pos_as_xyz
1 x,y,z
2 -x,1/2+y,1/2-z
3 -x,-y,-z
4 x,1/2-y,1/2+z
_cell_length_a                   21.568(3)
_cell_length_b                   14.199(2)
_cell_length_c                   15.455(2)
_cell_angle_alpha                90
_cell_angle_beta                 96.566(3)
_cell_angle_gamma                90
_cell_volume                     4701.96
_exptl_crystal_colour            colorless
_exptl_crystal_description       plate
_chemical_melting_point          '317.5 K'
_cell_formula_units_Z            4
_exptl_crystal_recrystallization_method 'ethyl acetate'
loop_
_atom_site_label
_atom_site_type_symbol
_atom_site_fract_x
_atom_site_fract_y
_atom_site_fract_z
Br1 Br 0.49232(2) 0.21528(3) 0.49026(3)
P1 P 1.45470(5) 0.34937(7) 0.70872(7)
N1 N 1.49685(18) 0.5045(2) 0.8935(2)
H1 H 1.5185 0.5551 0.9105
H2 H 1.5010 0.4527 0.9250
O1 O 1.44935(18) 0.57253(19) 0.77444(19)
C1 C 1.42604(17) 0.4108(2) 0.7986(2)
H3 H 1.3806 0.4208 0.7848
H4 H 1.4324 0.3703 0.8510
C2 C 1.4575(2) 0.5063(3) 0.8198(3)
C3 C 1.52701(16) 0.2931(3) 0.7431(2)
H5 H 1.5227 0.2608 0.7989
H6 H 1.5334 0.2435 0.6999
C4 C 1.58632(16) 0.3526(3) 0.7560(2)
H7 H 1.5927 0.3842 0.7006
H8 H 1.5819 0.4018 0.8002
C5 C 1.64261(17) 0.2910(3) 0.7855(3)
H9 H 1.6448 0.2395 0.7428
H10 H 1.6365 0.2620 0.8421
C6 C 1.70447(17) 0.3440(3) 0.7951(3)
H11 H 1.7026 0.3950 0.8384
H12 H 1.7105 0.3735 0.7387
C7 C 1.76030(16) 0.2810(3) 0.8237(2)
H13 H 1.7546 0.2530 0.8809
H14 H 1.7611 0.2288 0.7813
C8 C 1.82228(17) 0.3309(3) 0.8311(2)
H15 H 1.8212 0.3835 0.8729
H16 H 1.8280 0.3585 0.7737
C9 C 1.87817(17) 0.2698(3) 0.8601(2)
H17 H 1.8731 0.2436 0.9183
H18 H 1.8786 0.2162 0.8193
C10 C 1.93994(18) 0.3190(3) 0.8652(2)
H19 H 1.9393 0.3729 0.9057
H20 H 1.9451 0.3448 0.8069
C11 C 1.99611(17) 0.2579(2) 0.8949(2)
H21 H 1.9915 0.2335 0.9538
H22 H 1.9962 0.2032 0.8552
C12 C 2.05783(17) 0.3072(3) 0.8976(2)
H23 H 2.0574 0.3624 0.9367
H24 H 2.0625 0.3310 0.8385
C13 C 2.11401(17) 0.2475(3) 0.9282(3)
H25 H 2.1138 0.1914 0.8901
H26 H 2.1098 0.2250 0.9879
C14 C 2.17630(16) 0.2964(3) 0.9289(2)
H27 H 2.1799 0.3208 0.8697
H28 H 2.1771 0.3511 0.9687
C15 C 2.23225(18) 0.2354(3) 0.9566(3)
H29 H 2.2314 0.1803 0.9172
H30 H 2.2290 0.2115 1.0161
C16 C 2.29441(17) 0.2855(3) 0.9560(3)
H31 H 2.3284 0.2418 0.9750
H32 H 2.2962 0.3394 0.9958
H33 H 2.2987 0.3076 0.8970
C17 C 1.45937(16) 0.4284(3) 0.6193(2)
H34 H 1.4901 0.4784 0.6376
H35 H 1.4750 0.3933 0.5708
C18 C 1.39746(17) 0.4741(3) 0.5864(2)
H36 H 1.3820 0.5098 0.6346
H37 H 1.3666 0.4242 0.5684
C19 C 1.40214(18) 0.5406(3) 0.5095(2)
H38 H 1.4118 0.5035 0.4584
H39 H 1.4369 0.5854 0.5246
C20 C 1.34158(18) 0.5958(3) 0.4852(3)
H40 H 1.3328 0.6332 0.5365
H41 H 1.3484 0.6408 0.4383
C21 C 1.28410(18) 0.5370(3) 0.4550(3)
H42 H 1.2915 0.5034 0.4010
H43 H 1.2788 0.4889 0.5000
C22 C 1.22394(18) 0.5927(3) 0.4378(2)
H44 H 1.2181 0.6302 0.4902
H45 H 1.2277 0.6372 0.3893
C23 C 1.16685(18) 0.5315(3) 0.4149(3)
H46 H 1.1649 0.4843 0.4616
H47 H 1.1718 0.4969 0.3605
C24 C 1.10540(19) 0.5847(3) 0.4026(3)
H48 H 1.1013 0.6218 0.4558
H49 H 1.1064 0.6295 0.3537
C25 C 1.0490(2) 0.5227(3) 0.3842(3)
H50 H 1.0480 0.4782 0.4334
H51 H 1.0536 0.4850 0.3315
C26 C 0.98755(19) 0.5736(3) 0.3708(3)
H52 H 0.9882 0.6176 0.3212
H53 H 0.9829 0.6117 0.4233
C27 C 0.93142(18) 0.5104(3) 0.3533(3)
H54 H 0.9368 0.4710 0.3018
H55 H 0.9303 0.4676 0.4036
C28 C 0.86938(19) 0.5597(3) 0.3372(3)
H56 H 0.8637 0.5989 0.3887
H57 H 0.8702 0.6026 0.2868
C29 C 0.81432(19) 0.4953(3) 0.3198(3)
H58 H 0.8125 0.4543 0.3712
H59 H 0.8209 0.4543 0.2699
C30 C 0.7522(2) 0.5445(3) 0.3001(3)
H60 H 0.7191 0.4974 0.2887
H61 H 0.7531 0.5847 0.2487
H62 H 0.7442 0.5832 0.3501
C31 C 1.39816(16) 0.2600(2) 0.6759(2)
H63 H 1.3568 0.2904 0.6631
H64 H 1.4088 0.2313 0.6212
C32 C 1.39273(18) 0.1812(3) 0.7426(2)
H65 H 1.4317 0.1438 0.7491
H66 H 1.3877 0.2095 0.7999
C33 C 1.33793(18) 0.1164(3) 0.7157(3)
H67 H 1.3423 0.0907 0.6572
H68 H 1.3395 0.0627 0.7568
C34 C 1.27504(19) 0.1635(3) 0.7135(3)
H69 H 1.2740 0.2178 0.6731
H70 H 1.2709 0.1887 0.7723
C35 C 1.21857(19) 0.1015(3) 0.6859(3)
H71 H 1.2226 0.0756 0.6273
H72 H 1.2188 0.0478 0.7267
C36 C 1.15704(18) 0.1516(3) 0.6833(3)
H73 H 1.1525 0.1751 0.7426
H74 H 1.1578 0.2070 0.6446
C37 C 1.10078(19) 0.0930(3) 0.6526(3)
H75 H 1.1052 0.0696 0.5933
H76 H 1.1000 0.0375 0.6912
C38 C 1.03948(18) 0.1434(3) 0.6504(3)
H77 H 1.0402 0.1988 0.6117
H78 H 1.0351 0.1669 0.7097
C39 C 0.98281(19) 0.0846(3) 0.6196(3)
H79 H 0.9875 0.0603 0.5607
H80 H 0.9817 0.0297 0.6589
C40 C 0.92120(18) 0.1359(3) 0.6162(3)
H81 H 0.9166 0.1609 0.6749
H82 H 0.9220 0.1902 0.5762
C41 C 0.86500(19) 0.0758(3) 0.5865(3)
H83 H 0.8644 0.0214 0.6265
H84 H 0.8698 0.0507 0.5279
C42 C 0.80295(19) 0.1261(3) 0.5827(3)
H85 H 0.8029 0.1792 0.5411
H86 H 0.7987 0.1529 0.6408
C43 C 0.7468(2) 0.0643(3) 0.5555(3)
H87 H 0.7502 0.0397 0.4963
H88 H 0.7479 0.0097 0.5955
C44 C 0.6849(2) 0.1129(3) 0.5552(3)
H89 H 0.6512 0.0682 0.5374
H90 H 0.6826 0.1657 0.5142
H91 H 0.6805 0.1364 0.6138
loop_
_geom_bond_atom_site_label_1
_geom_bond_atom_site_label_2
_geom_bond_site_symmetry_1
_geom_bond_site_symmetry_2
P1 C1 1_555 1_555
N1 H1 1_555 1_555
H2 N1 1_555 1_555
O1 C2 1_555 1_555
C1 H3 1_555 1_555
H4 C1 1_555 1_555
C2 N1 1_555 1_555
C3 P1 1_555 1_555
H5 C3 1_555 1_555
H6 C3 1_555 1_555
C4 C3 1_555 1_555
H7 C4 1_555 1_555
H8 C4 1_555 1_555
C5 C4 1_555 1_555
H9 C5 1_555 1_555
H10 C5 1_555 1_555
C6 C5 1_555 1_555
H11 C6 1_555 1_555
H12 C6 1_555 1_555
C7 C6 1_555 1_555
H13 C7 1_555 1_555
H14 C7 1_555 1_555
C8 C7 1_555 1_555
H15 C8 1_555 1_555
H16 C8 1_555 1_555
C9 C8 1_555 1_555
H17 C9 1_555 1_555
H18 C9 1_555 1_555
C10 C9 1_555 1_555
H19 C10 1_555 1_555
H20 C10 1_555 1_555
C11 C10 1_555 1_555
H21 C11 1_555 1_555
H22 C11 1_555 1_555
C12 C11 1_555 1_555
H23 C12 1_555 1_555
H24 C12 1_555 1_555
C13 C12 1_555 1_555
H25 C13 1_555 1_555
H26 C13 1_555 1_555
C14 C13 1_555 1_555
H27 C14 1_555 1_555
H28 C14 1_555 1_555
C15 C14 1_555 1_555
H29 C15 1_555 1_555
H30 C15 1_555 1_555
C16 C15 1_555 1_555
H31 C16 1_555 1_555
H32 C16 1_555 1_555
H33 C16 1_555 1_555
C17 P1 1_555 1_555
H34 C17 1_555 1_555
H35 C17 1_555 1_555
C18 C17 1_555 1_555
H36 C18 1_555 1_555
H37 C18 1_555 1_555
C19 C18 1_555 1_555
H38 C19 1_555 1_555
H39 C19 1_555 1_555
C20 C19 1_555 1_555
H40 C20 1_555 1_555
H41 C20 1_555 1_555
C21 C20 1_555 1_555
H42 C21 1_555 1_555
H43 C21 1_555 1_555
C22 C21 1_555 1_555
H44 C22 1_555 1_555
H45 C22 1_555 1_555
C23 C22 1_555 1_555
H46 C23 1_555 1_555
H47 C23 1_555 1_555
C24 C23 1_555 1_555
H48 C24 1_555 1_555
H49 C24 1_555 1_555
C25 C24 1_555 1_555
H50 C25 1_555 1_555
H51 C25 1_555 1_555
C26 C25 1_555 1_555
H52 C26 1_555 1_555
H53 C26 1_555 1_555
C27 C26 1_555 1_555
H54 C27 1_555 1_555
H55 C27 1_555 1_555
C28 C27 1_555 1_555
H56 C28 1_555 1_555
H57 C28 1_555 1_555
C29 C28 1_555 1_555
H58 C29 1_555 1_555
H59 C29 1_555 1_555
C30 C29 1_555 1_555
H60 C30 1_555 1_555
H61 C30 1_555 1_555
H62 C30 1_555 1_555
C31 P1 1_555 1_555
H63 C31 1_555 1_555
H64 C31 1_555 1_555
C32 C31 1_555 1_555
H65 C32 1_555 1_555
H66 C32 1_555 1_555
C33 C32 1_555 1_555
H67 C33 1_555 1_555
H68 C33 1_555 1_555
C34 C33 1_555 1_555
H69 C34 1_555 1_555
H70 C34 1_555 1_555
C35 C34 1_555 1_555
H71 C35 1_555 1_555
H72 C35 1_555 1_555
C36 C35 1_555 1_555
H73 C36 1_555 1_555
H74 C36 1_555 1_555
C37 C36 1_555 1_555
H75 C37 1_555 1_555
H76 C37 1_555 1_555
C38 C37 1_555 1_555
H77 C38 1_555 1_555
H78 C38 1_555 1_555
C39 C38 1_555 1_555
H79 C39 1_555 1_555
H80 C39 1_555 1_555
C40 C39 1_555 1_555
H81 C40 1_555 1_555
H82 C40 1_555 1_555
C41 C40 1_555 1_555
H83 C41 1_555 1_555
H84 C41 1_555 1_555
C42 C41 1_555 1_555
H85 C42 1_555 1_555
H86 C42 1_555 1_555
C43 C42 1_555 1_555
H87 C43 1_555 1_555
H88 C43 1_555 1_555
C44 C43 1_555 1_555
H89 C44 1_555 1_555
H90 C44 1_555 1_555
H91 C44 1_555 1_555
C1 C2 1_555 1_555

#END
