
#######################################################################
#
#                 Cambridge Crystallographic Data Centre
#                                CCDC 
#
#######################################################################
#
# If this CIF has been generated from an entry in the Cambridge 
# Structural Database, then it will include bibliographic, chemical, 
# crystal, experimental, refinement or atomic coordinate data resulting 
# from the CCDC's data processing and validation procedures.
#
#######################################################################

data_MOVLEP
_chemical_formula_moiety         'C23 H17 Br1 N2 O1 S2'
_chemical_name_systematic        
(5-Anilino-3-(phenylimino)-3H-1,2-dithiol-4-yl)(2-bromo-6-methylphenyl)methanone
_chemical_properties_biological  
'lacked anticancer activity against human HepG2 liver cancer cells'
_symmetry_cell_setting           triclinic
_symmetry_space_group_name_H-M   'P -1'
_symmetry_Int_Tables_number      2
_space_group_name_Hall           '-P 1'
loop_
_symmetry_equiv_pos_site_id
_symmetry_equiv_pos_as_xyz
1 x,y,z
2 -x,-y,-z
_cell_length_a                   6.3729(13)
_cell_length_b                   12.941(3)
_cell_length_c                   13.413(3)
_cell_angle_alpha                108.64(3)
_cell_angle_beta                 96.27(3)
_cell_angle_gamma                96.96(3)
_cell_volume                     1027.49
_exptl_crystal_colour            colorless
_exptl_crystal_description       block
_chemical_melting_point          '173 deg.C'
_cell_formula_units_Z            2
loop_
_atom_site_label
_atom_site_type_symbol
_atom_site_fract_x
_atom_site_fract_y
_atom_site_fract_z
Br1 Br 0.6087(2) -0.02178(13) 0.85777(11)
S1 S 0.2979(4) 0.39701(14) 0.89615(15)
S2 S 0.1294(4) 0.38710(14) 1.01682(15)
O1 O 0.1259(12) 0.0158(4) 0.9221(5)
N1 N 0.0176(10) 0.2000(5) 1.0485(5)
H1 H 0.0167 0.1306 1.0363
N2 N 0.3979(12) 0.2161(5) 0.7594(6)
C1 C 0.0010(14) 0.2651(6) 1.2362(7)
H2 H 0.1227 0.2350 1.2482
C2 C -0.1015(18) 0.3196(7) 1.3213(7)
H3 H -0.0485 0.3239 1.3902
C3 C -0.2705(17) 0.3643(7) 1.3050(7)
H4 H -0.3359 0.3998 1.3622
C4 C -0.3516(15) 0.3589(8) 1.2035(9)
H5 H -0.4692 0.3924 1.1927
C5 C -0.2596(12) 0.3047(7) 1.1191(6)
H6 H -0.3165 0.2996 1.0505
C6 C -0.0839(11) 0.2578(5) 1.1352(5)
C7 C 0.1128(11) 0.2451(5) 0.9856(5)
C8 C 0.1960(12) 0.1850(5) 0.8936(6)
C9 C 0.3025(11) 0.2523(5) 0.8389(6)
C10 C 0.4903(13) 0.2898(5) 0.7111(6)
C11 C 0.7076(16) 0.3370(7) 0.7453(7)
H7 H 0.7875 0.3229 0.8003
C12 C 0.8017(14) 0.4067(7) 0.6937(7)
H8 H 0.9440 0.4406 0.7162
C13 C 0.6859(16) 0.4238(6) 0.6125(6)
H9 H 0.7494 0.4682 0.5778
C14 C 0.4799(18) 0.3776(7) 0.5809(8)
H10 H 0.4032 0.3912 0.5246
C15 C 0.3770(15) 0.3107(7) 0.6285(8)
H11 H 0.2331 0.2801 0.6052
C16 C 0.1850(13) 0.0678(6) 0.8646(7)
C17 C 0.2270(15) 0.0029(6) 0.7542(8)
C18 C 0.046(2) -0.0153(7) 0.6579(9)
C19 C 0.103(3) -0.0824(9) 0.5650(9)
H12 H 0.0040 -0.0988 0.5034
C20 C 0.284(3) -0.1272(9) 0.5528(11)
H13 H 0.3028 -0.1711 0.4855
C21 C 0.442(2) -0.1081(8) 0.6400(10)
H14 H 0.5693 -0.1361 0.6308
C22 C 0.4073(16) -0.0455(7) 0.7424(8)
C24 C -0.119(5) 0.045(3) 0.672(3)
H18 H -0.2162 0.0228 0.6058
H19 H -0.0621 0.1220 0.6926
H20 H -0.1932 0.0311 0.7258
C23? C -0.0707(17) 0.0741(9) 0.6837(9)
H15? H -0.1826 0.0634 0.6255
H16? H 0.0241 0.1421 0.6964
H17? H -0.1322 0.0773 0.7466
loop_
_geom_bond_atom_site_label_1
_geom_bond_atom_site_label_2
_geom_bond_site_symmetry_1
_geom_bond_site_symmetry_2
Br1 C22 1_555 1_555
S1 S2 1_555 1_555
S2 C7 1_555 1_555
O1 C16 1_555 1_555
N1 H1 1_555 1_555
N2 C9 1_555 1_555
C1 H2 1_555 1_555
C2 C1 1_555 1_555
H3 C2 1_555 1_555
C3 C2 1_555 1_555
H4 C3 1_555 1_555
C4 C3 1_555 1_555
H5 C4 1_555 1_555
C5 C4 1_555 1_555
H6 C5 1_555 1_555
C6 N1 1_555 1_555
C7 N1 1_555 1_555
C8 C7 1_555 1_555
C9 S1 1_555 1_555
C10 N2 1_555 1_555
C11 C10 1_555 1_555
H7 C11 1_555 1_555
C12 C11 1_555 1_555
H8 C12 1_555 1_555
C13 C12 1_555 1_555
H9 C13 1_555 1_555
C14 C13 1_555 1_555
H10 C14 1_555 1_555
C15 C10 1_555 1_555
H11 C15 1_555 1_555
C16 C8 1_555 1_555
C17 C16 1_555 1_555
C18 C17 1_555 1_555
C19 C18 1_555 1_555
H12 C19 1_555 1_555
C20 C19 1_555 1_555
H13 C20 1_555 1_555
C21 C20 1_555 1_555
H14 C21 1_555 1_555
C22 C17 1_555 1_555
C24 C18 1_555 1_555
H18 C24 1_555 1_555
H19 C24 1_555 1_555
H20 C24 1_555 1_555
C1 C6 1_555 1_555
C5 C6 1_555 1_555
C8 C9 1_555 1_555
C14 C15 1_555 1_555
C21 C22 1_555 1_555

#END
