
#######################################################################
#
#                 Cambridge Crystallographic Data Centre
#                                CCDC 
#
#######################################################################
#
# If this CIF has been generated from an entry in the Cambridge 
# Structural Database, then it will include bibliographic, chemical, 
# crystal, experimental, refinement or atomic coordinate data resulting 
# from the CCDC's data processing and validation procedures.
#
#######################################################################

data_MOVLUG
_chemical_name_common            '3-Methoxy 2,4,6-trioxaadamantane'
_chemical_formula_moiety         'C8 H12 O4'
_chemical_name_systematic        
3-methoxy-2,4,10-trioxatricyclo[3.3.1.1^3,7^]decane
_symmetry_cell_setting           orthorhombic
_symmetry_space_group_name_H-M   'P 21 21 21'
_symmetry_Int_Tables_number      19
_space_group_name_Hall           'P 2ac 2ab'
loop_
_symmetry_equiv_pos_site_id
_symmetry_equiv_pos_as_xyz
1 x,y,z
2 1/2-x,-y,1/2+z
3 1/2+x,1/2-y,-z
4 -x,1/2+y,1/2-z
_cell_length_a                   6.4039(5)
_cell_length_b                   7.7438(6)
_cell_length_c                   15.8502(12)
_cell_angle_alpha                90
_cell_angle_beta                 90
_cell_angle_gamma                90
_cell_volume                     786.02
_exptl_crystal_colour            colorless
_cell_formula_units_Z            4
_exptl_crystal_recrystallization_method Hexane
loop_
_atom_site_label
_atom_site_type_symbol
_atom_site_fract_x
_atom_site_fract_y
_atom_site_fract_z
C1 C 0.0231(3) 0.6871(3) 0.03444(11)
H1 H 0.0448 0.8061 0.0198
H2 H -0.0146 0.6232 -0.0152
H3 H 0.1492 0.6403 0.0578
C2 C -0.1886(3) 0.5110(2) 0.12188(11)
C3 C -0.4261(3) 0.3668(3) 0.20942(12)
H4 H -0.5456 0.3840 0.2471
C4 C -0.2458(3) 0.2904(3) 0.25859(11)
H5 H -0.2077 0.3659 0.3049
H6 H -0.2847 0.1788 0.2816
C5 C -0.0643(3) 0.2709(3) 0.19817(11)
H7 H 0.0573 0.2250 0.2283
C6 C -0.1185(3) 0.1539(3) 0.12494(12)
H8 H -0.1563 0.0400 0.1454
H9 H 0.0002 0.1425 0.0873
C7 C -0.3011(3) 0.2350(3) 0.07878(12)
H10 H -0.3375 0.1649 0.0295
C8 C -0.4904(3) 0.2540(3) 0.13591(11)
H11 H -0.6049 0.3070 0.1053
H12 H -0.5355 0.1417 0.1560
O1 O -0.1409(2) 0.67483(17) 0.09521(8)
O2 O -0.3583(2) 0.53313(16) 0.17564(8)
O3 O -0.01564(18) 0.44156(17) 0.16428(8)
O4 O -0.2402(2) 0.40834(17) 0.05180(7)
loop_
_geom_bond_atom_site_label_1
_geom_bond_atom_site_label_2
_geom_bond_site_symmetry_1
_geom_bond_site_symmetry_2
C1 H1 1_555 1_555
H2 C1 1_555 1_555
H3 C1 1_555 1_555
C2 O1 1_555 1_555
C3 H4 1_555 1_555
C4 C3 1_555 1_555
H5 C4 1_555 1_555
H6 C4 1_555 1_555
C5 C4 1_555 1_555
H7 C5 1_555 1_555
C6 C5 1_555 1_555
H8 C6 1_555 1_555
H9 C6 1_555 1_555
C7 C6 1_555 1_555
H10 C7 1_555 1_555
C8 C3 1_555 1_555
H11 C8 1_555 1_555
H12 C8 1_555 1_555
O1 C1 1_555 1_555
O2 C2 1_555 1_555
O3 C2 1_555 1_555
O4 C2 1_555 1_555
C3 O2 1_555 1_555
C5 O3 1_555 1_555
C7 C8 1_555 1_555
C7 O4 1_555 1_555

#END
