
#######################################################################
#
#                 Cambridge Crystallographic Data Centre
#                                CCDC 
#
#######################################################################
#
# If this CIF has been generated from an entry in the Cambridge 
# Structural Database, then it will include bibliographic, chemical, 
# crystal, experimental, refinement or atomic coordinate data resulting 
# from the CCDC's data processing and validation procedures.
#
#######################################################################

data_MOVRAR
_chemical_formula_moiety         'C10 H16 O1'
_chemical_name_systematic        6-Methyl-2,6-cyclononadien-1-ol
_symmetry_cell_setting           monoclinic
_symmetry_space_group_name_H-M   'C 2'
_symmetry_Int_Tables_number      5
_space_group_name_Hall           'C 2y'
loop_
_symmetry_equiv_pos_site_id
_symmetry_equiv_pos_as_xyz
1 x,y,z
2 -x,y,-z
3 1/2+x,1/2+y,z
4 1/2-x,1/2+y,-z
_cell_length_a                   25.689(3)
_cell_length_b                   8.9045(11)
_cell_length_c                   8.1025(10)
_cell_angle_alpha                90
_cell_angle_beta                 103.065(2)
_cell_angle_gamma                90
_cell_volume                     1805.45
_exptl_crystal_colour            colorless
_exptl_crystal_description       'flat rod'
_cell_formula_units_Z            8
loop_
_atom_site_label
_atom_site_type_symbol
_atom_site_fract_x
_atom_site_fract_y
_atom_site_fract_z
O1 O 0.46829(9) 0.0812(4) 0.3470(3)
H1 H 0.4783 0.1007 0.4508
C1 C 0.43384(9) 0.2012(4) 0.2629(3)
H2 H 0.4144 0.1648 0.1488
C2 C 0.46666(12) 0.3373(6) 0.2395(4)
H3 H 0.5023 0.3033 0.2272
H4 H 0.4720 0.4001 0.3428
C3 C 0.44132(14) 0.4345(5) 0.0852(5)
H5 H 0.4578 0.5356 0.0964
H6 H 0.4473 0.3877 -0.0199
C4 C 0.38313(13) 0.4466(4) 0.0773(4)
H7 H 0.3723 0.5185 0.1495
C5 C 0.34495(11) 0.3661(3) -0.0215(4)
C6 C 0.29486(11) 0.3362(4) 0.0381(4)
H8 H 0.2646 0.3180 -0.0598
H9 H 0.2860 0.4235 0.1023
C7 C 0.30519(10) 0.1940(4) 0.1547(3)
H10 H 0.2707 0.1547 0.1713
H11 H 0.3221 0.1147 0.0988
C8 C 0.34099(10) 0.2310(3) 0.3245(3)
H12 H 0.3233 0.2559 0.4119
C9 C 0.39385(10) 0.2331(4) 0.3675(3)
H13 H 0.4087 0.2588 0.4823
C10 C 0.35216(12) 0.2766(4) -0.1703(3)
H14 H 0.3853 0.3071 -0.2014
H15 H 0.3218 0.2941 -0.2661
H16 H 0.3540 0.1696 -0.1412
O2 O 0.0347(4) 0.4907(10) 0.1414(10)
H17 H 0.0129 0.4981 0.2042
C11 C 0.0761(2) 0.3866(6) 0.2146(9)
H18 H 0.1038 0.4418 0.2997
C12 C 0.10135(17) 0.3378(6) 0.0691(7)
H19 H 0.0966 0.4194 -0.0159
H20 H 0.0819 0.2486 0.0135
C13 C 0.16196(16) 0.2989(6) 0.1246(5)
H21 H 0.1731 0.2378 0.0363
H22 H 0.1836 0.3920 0.1416
C14 C 0.17010(12) 0.2129(4) 0.2858(4)
H23 H 0.1622 0.1086 0.2780
C15 C 0.18762(19) 0.2706(6) 0.4403(6)
C16 C 0.17091(19) 0.1995(6) 0.5868(6)
H24 H 0.1979 0.2188 0.6930
H25 H 0.1671 0.0896 0.5701
C17 C 0.11656(16) 0.2703(5) 0.5966(4)
H26 H 0.1089 0.2480 0.7084
H27 H 0.1185 0.3807 0.5852
C18 C 0.0722(2) 0.2099(7) 0.4591(6)
H28 H 0.0528 0.1274 0.4892
C19 C 0.05697(18) 0.2578(6) 0.3014(6)
H29 H 0.0292 0.2005 0.2320
C20 C 0.21496(15) 0.4210(5) 0.4739(6)
H30 H 0.2269 0.4536 0.3729
H31 H 0.2459 0.4123 0.5696
H32 H 0.1899 0.4949 0.5008
C21? C 0.0683(5) 0.4133(13) 0.238(2)
C22? C 0.0329(4) 0.2816(10) 0.2637(11)
C23? C 0.0567(3) 0.1685(12) 0.4069(14)
C24? C 0.1139(3) 0.1459(8) 0.4047(9)
C25? C 0.1552(3) 0.2157(10) 0.5042(11)
C26? C 0.2045(3) 0.2375(12) 0.4401(15)
C27? C 0.1976(3) 0.3836(9) 0.3349(10)
C28? C 0.1591(3) 0.3648(13) 0.1671(11)
C29? C 0.1062(3) 0.3739(11) 0.1315(12)
C30? C 0.1536(4) 0.2960(11) 0.6663(10)
H33? H 0.0891 0.4482 0.3508
H34? H 0.0231 0.2251 0.1559
H35? H -0.0005 0.3229 0.2869
H36? H 0.0535 0.2089 0.5181
H37? H 0.0372 0.0719 0.3875
H38? H 0.1216 0.0756 0.3255
H39? H 0.2098 0.1512 0.3686
H40? H 0.2360 0.2454 0.5360
H41? H 0.1846 0.4641 0.3996
H42? H 0.2327 0.4150 0.3159
H43? H 0.1746 0.3434 0.0739
H44? H 0.0896 0.3510 0.0172
H45? H 0.1709 0.3943 0.6677
H46? H 0.1726 0.2363 0.7630
H47? H 0.1164 0.3098 0.6740
H48? H 0.0221 0.5161 0.0587
O3? O 0.0314(9) 0.529(2) 0.164(3)
loop_
_geom_bond_atom_site_label_1
_geom_bond_atom_site_label_2
_geom_bond_site_symmetry_1
_geom_bond_site_symmetry_2
O1 H1 1_555 1_555
C1 O1 1_555 1_555
H2 C1 1_555 1_555
C2 C1 1_555 1_555
H3 C2 1_555 1_555
H4 C2 1_555 1_555
C3 C2 1_555 1_555
H5 C3 1_555 1_555
H6 C3 1_555 1_555
C4 C3 1_555 1_555
H7 C4 1_555 1_555
C5 C4 1_555 1_555
C6 C5 1_555 1_555
H8 C6 1_555 1_555
H9 C6 1_555 1_555
C7 C6 1_555 1_555
H10 C7 1_555 1_555
H11 C7 1_555 1_555
C8 C7 1_555 1_555
H12 C8 1_555 1_555
C9 C1 1_555 1_555
H13 C9 1_555 1_555
C10 C5 1_555 1_555
H14 C10 1_555 1_555
H15 C10 1_555 1_555
H16 C10 1_555 1_555
O2 H17 1_555 1_555
C11 O2 1_555 1_555
H18 C11 1_555 1_555
C12 C11 1_555 1_555
H19 C12 1_555 1_555
H20 C12 1_555 1_555
C13 C12 1_555 1_555
H21 C13 1_555 1_555
H22 C13 1_555 1_555
C14 C13 1_555 1_555
H23 C14 1_555 1_555
C15 C14 1_555 1_555
C16 C15 1_555 1_555
H24 C16 1_555 1_555
H25 C16 1_555 1_555
C17 C16 1_555 1_555
H26 C17 1_555 1_555
H27 C17 1_555 1_555
C18 C17 1_555 1_555
H28 C18 1_555 1_555
C19 C11 1_555 1_555
H29 C19 1_555 1_555
C20 C15 1_555 1_555
H30 C20 1_555 1_555
H31 C20 1_555 1_555
H32 C20 1_555 1_555
C8 C9 1_555 1_555
C18 C19 1_555 1_555

#END
