
#######################################################################
#
#                 Cambridge Crystallographic Data Centre
#                                CCDC 
#
#######################################################################
#
# If this CIF has been generated from an entry in the Cambridge 
# Structural Database, then it will include bibliographic, chemical, 
# crystal, experimental, refinement or atomic coordinate data resulting 
# from the CCDC's data processing and validation procedures.
#
#######################################################################

data_MOVRIZ
_chemical_formula_moiety         'C10 H16 O2,0.33(C6 H14)'
_chemical_name_systematic        
'7a-Methyl-1,2,3,6,7,7a-hexahydro-3aH-indene-1,3a-diol hexane solvate'
_symmetry_cell_setting           trigonal
_symmetry_space_group_name_H-M   'P 31'
_symmetry_Int_Tables_number      144
_space_group_name_Hall           'P 31'
loop_
_symmetry_equiv_pos_site_id
_symmetry_equiv_pos_as_xyz
1 x,y,z
2 -y,x-y,1/3+z
3 -x+y,-x,2/3+z
_cell_length_a                   11.0926(3)
_cell_length_b                   11.0926(3)
_cell_length_c                   7.5122(5)
_cell_angle_alpha                90
_cell_angle_beta                 90
_cell_angle_gamma                120
_cell_volume                     800.506
_exptl_crystal_colour            colorless
_exptl_crystal_description       rod
_cell_formula_units_Z            3
loop_
_atom_site_label
_atom_site_type_symbol
_atom_site_fract_x
_atom_site_fract_y
_atom_site_fract_z
O1 O 0.60248(12) 0.36072(12) 1.07402(13)
H1 H 0.629(3) 0.352(3) 0.983(3)
O2 O 0.34329(11) 0.60883(11) 1.07934(14)
H2 H 0.317(2) 0.623(2) 0.986(3)
C1 C 0.49861(12) 0.51222(13) 1.00926(16)
C2 C 0.47673(14) 0.36368(14) 1.03524(17)
C3 C 0.38137(17) 0.30916(16) 1.20182(19)
H3 H 0.3155 0.2080 1.1911
H4 H 0.4379 0.3259 1.3107
C4 C 0.30175(15) 0.38949(16) 1.2106(2)
H5 H 0.2000 0.3247 1.2056
H6 H 0.3241 0.4445 1.3218
C5 C 0.35081(13) 0.48538(14) 1.04765(16)
H7 H 0.2895 0.4343 0.9444
C6 C 0.40883(16) 0.27365(15) 0.87410(19)
H8 H 0.3702 0.1760 0.8873
C7 C 0.39906(18) 0.32067(16) 0.7151(2)
H9 H 0.3558 0.2552 0.6217
C8 C 0.45248(17) 0.47132(17) 0.67537(19)
H10 H 0.3726 0.4871 0.6623
H11 H 0.5034 0.4953 0.5608
C9 C 0.54905(15) 0.56692(14) 0.82070(18)
H12 H 0.5575 0.6597 0.8084
H13 H 0.6428 0.5786 0.8035
C10 C 0.60427(15) 0.61471(16) 1.14342(19)
H14 H 0.6933 0.6172 1.1289
H15 H 0.5695 0.5846 1.2646
H16 H 0.6176 0.7078 1.1226
C11? C 0.0390(10) -0.0040(11) 0.4349(12)
H17? H 0.0947 0.0983 0.4205
H18? H 0.0985 -0.0396 0.3873
C12? C 0.0442(9) -0.0227(8) 0.6319(10)
H19? H -0.0126 -0.1241 0.6536
H20? H 0.1416 0.0034 0.6588
C13? C 0.0387(7) 0.0651(7) 0.4682(9)
C14? C 0.0084(15) 0.0039(15) 0.6401(14)
H21? H 0.0034 0.1313 0.4670
H22? H 0.1414 0.1223 0.4613
H23? H -0.0135 -0.0914 0.6072
H24? H 0.1043 0.0474 0.6879
loop_
_geom_bond_atom_site_label_1
_geom_bond_atom_site_label_2
_geom_bond_site_symmetry_1
_geom_bond_site_symmetry_2
O1 H1 1_555 1_555
O2 H2 1_555 1_555
C1 C2 1_555 1_555
C2 O1 1_555 1_555
C3 C2 1_555 1_555
H3 C3 1_555 1_555
H4 C3 1_555 1_555
C4 C3 1_555 1_555
H5 C4 1_555 1_555
H6 C4 1_555 1_555
C5 O2 1_555 1_555
H7 C5 1_555 1_555
C6 C2 1_555 1_555
H8 C6 1_555 1_555
C7 C6 1_555 1_555
H9 C7 1_555 1_555
C8 C7 1_555 1_555
H10 C8 1_555 1_555
H11 C8 1_555 1_555
C9 C1 1_555 1_555
H12 C9 1_555 1_555
H13 C9 1_555 1_555
C10 C1 1_555 1_555
H14 C10 1_555 1_555
H15 C10 1_555 1_555
H16 C10 1_555 1_555
C1 C5 1_555 1_555
C4 C5 1_555 1_555
C8 C9 1_555 1_555

#END
