
#######################################################################
#
#                 Cambridge Crystallographic Data Centre
#                                CCDC 
#
#######################################################################
#
# If this CIF has been generated from an entry in the Cambridge 
# Structural Database, then it will include bibliographic, chemical, 
# crystal, experimental, refinement or atomic coordinate data resulting 
# from the CCDC's data processing and validation procedures.
#
#######################################################################

data_MOVREV
_chemical_formula_moiety         'C10 H14 O2'
_chemical_name_systematic        9-Methyl-10-oxabicyclo[7.1.0]dec-5-en-4-one
_symmetry_cell_setting           monoclinic
_symmetry_space_group_name_H-M   'P 21'
_symmetry_Int_Tables_number      4
_space_group_name_Hall           'P 2yb'
loop_
_symmetry_equiv_pos_site_id
_symmetry_equiv_pos_as_xyz
1 x,y,z
2 -x,1/2+y,-z
_cell_length_a                   6.7487(5)
_cell_length_b                   10.2052(8)
_cell_length_c                   7.0711(5)
_cell_angle_alpha                90
_cell_angle_beta                 118.019(1)
_cell_angle_gamma                90
_cell_volume                     429.919
_exptl_crystal_colour            colorless
_exptl_crystal_description       rod
_cell_formula_units_Z            2
loop_
_atom_site_label
_atom_site_type_symbol
_atom_site_fract_x
_atom_site_fract_y
_atom_site_fract_z
O1 O 0.35838(11) 0.98584(7) 0.29517(11)
O2 O -0.25460(10) 0.79752(6) 0.27669(10)
C1 C -0.08472(13) 0.90003(7) 0.37064(13)
C2 C 0.01574(14) 0.91939(8) 0.61083(13)
C3 C 0.25919(14) 0.97218(9) 0.70727(14)
C4 C 0.42592(14) 0.86787(9) 0.72598(13)
C5 C 0.47666(13) 0.82559(9) 0.57419(14)
C6 C 0.36846(13) 0.87127(9) 0.34673(13)
C7 C 0.25825(13) 0.76298(9) 0.18082(14)
C8 C 0.00231(13) 0.76315(9) 0.10323(13)
C9 C -0.03385(12) 0.77548(8) 0.29677(12)
C10 C -0.14588(15) 1.02360(8) 0.23844(14)
H1 H -0.080(2) 0.9807(15) 0.636(2)
H2 H 0.011(2) 0.8390(13) 0.677(2)
H3 H 0.309(2) 1.0066(15) 0.855(2)
H4 H 0.262(3) 1.0456(14) 0.619(2)
H5 H 0.499(2) 0.8255(14) 0.858(2)
H6 H 0.570(3) 0.7548(16) 0.600(3)
H7 H 0.316(2) 0.6810(13) 0.243(2)
H8 H 0.288(2) 0.7733(16) 0.059(2)
H9 H -0.064(3) 0.6839(15) 0.025(2)
H10 H -0.062(2) 0.8325(14) 0.011(2)
H11 H 0.050(2) 0.7152(13) 0.405(2)
H12 H -0.251(3) 1.0679(16) 0.260(2)
H13 H -0.026(3) 1.0770(17) 0.277(2)
H14 H -0.200(2) 1.0026(15) 0.096(2)
loop_
_geom_bond_atom_site_label_1
_geom_bond_atom_site_label_2
_geom_bond_site_symmetry_1
_geom_bond_site_symmetry_2
O1 C6 1_555 1_555
O2 C1 1_555 1_555
C1 C2 1_555 1_555
C2 C3 1_555 1_555
C3 C4 1_555 1_555
C4 C5 1_555 1_555
C5 C6 1_555 1_555
C6 C7 1_555 1_555
C7 C8 1_555 1_555
C8 C9 1_555 1_555
C9 O2 1_555 1_555
C10 C1 1_555 1_555
H1 C2 1_555 1_555
H2 C2 1_555 1_555
H3 C3 1_555 1_555
H4 C3 1_555 1_555
H5 C4 1_555 1_555
H6 C5 1_555 1_555
H7 C7 1_555 1_555
H8 C7 1_555 1_555
H9 C8 1_555 1_555
H10 C8 1_555 1_555
H11 C9 1_555 1_555
H12 C10 1_555 1_555
H13 C10 1_555 1_555
H14 C10 1_555 1_555
C1 C9 1_555 1_555

#END
