
#######################################################################
#
#                 Cambridge Crystallographic Data Centre
#                                CCDC 
#
#######################################################################
#
# If this CIF has been generated from an entry in the Cambridge 
# Structural Database, then it will include bibliographic, chemical, 
# crystal, experimental, refinement or atomic coordinate data resulting 
# from the CCDC's data processing and validation procedures.
#
#######################################################################

data_MOVSOH
_chemical_formula_moiety         'C27 H31 N1 O6 S1'
_chemical_name_systematic        
'isopropyl 4-ethoxy-5,5-dimethyl-2-(1-((4-methylphenyl)sulfonyl)-1H-indol-3-yl)-2,5-dihydrofuran-3-carboxylate'
_symmetry_cell_setting           monoclinic
_symmetry_space_group_name_H-M   'P 21'
_symmetry_Int_Tables_number      4
_space_group_name_Hall           'P 2yb'
loop_
_symmetry_equiv_pos_site_id
_symmetry_equiv_pos_as_xyz
1 x,y,z
2 -x,1/2+y,-z
_cell_length_a                   18.2388(11)
_cell_length_b                   14.6418(8)
_cell_length_c                   20.7375(12)
_cell_angle_alpha                90
_cell_angle_beta                 90.251(2)
_cell_angle_gamma                90
_cell_volume                     5537.87
_cell_formula_units_Z            8
loop_
_atom_site_label
_atom_site_type_symbol
_atom_site_fract_x
_atom_site_fract_y
_atom_site_fract_z
S1 S 0.84398(9) 0.96329(12) 0.74657(9)
O1 O 0.9060(2) 1.0030(3) 0.7784(2)
O2 O 0.8108(2) 1.0051(3) 0.6916(2)
O3 O 0.5663(3) 1.0902(3) 0.9542(3)
O4 O 0.5682(2) 1.0955(3) 0.8458(2)
O5 O 0.5674(2) 0.8127(3) 0.84628(18)
O6 O 0.4586(3) 0.8965(3) 0.9727(2)
N1 N 0.7778(2) 0.9566(3) 0.8012(2)
C1 C 0.7036(3) 0.9449(4) 0.7845(3)
H1 H 0.6846 0.9517 0.7431
C2 C 0.6643(3) 0.9227(3) 0.8363(3)
C3 C 0.7148(4) 0.9169(4) 0.8893(3)
C4 C 0.7066(4) 0.8989(5) 0.9551(3)
H2 H 0.6604 0.8886 0.9724
C5 C 0.7684(5) 0.8968(5) 0.9939(4)
H3 H 0.7635 0.8835 1.0375
C6 C 0.8363(5) 0.9139(5) 0.9694(4)
H4 H 0.8768 0.9114 0.9968
C7 C 0.8467(4) 0.9347(4) 0.9048(4)
H5 H 0.8930 0.9478 0.8884
C8 C 0.7849(4) 0.9352(4) 0.8661(3)
C9 C 0.8639(3) 0.8503(5) 0.7305(3)
C10 C 0.9208(4) 0.8067(6) 0.7594(3)
H6 H 0.9521 0.8382 0.7871
C11 C 0.9319(4) 0.7133(6) 0.7469(4)
H7 H 0.9708 0.6835 0.7670
C12 C 0.8879(4) 0.6658(5) 0.7068(4)
C13 C 0.8317(5) 0.7096(6) 0.6788(5)
H8 H 0.8001 0.6768 0.6521
C14 C 0.8190(4) 0.8014(6) 0.6880(4)
H9 H 0.7809 0.8305 0.6662
C15 C 0.5833(3) 0.9077(4) 0.8367(3)
H10 H 0.5622 0.9279 0.7956
C16 C 0.5452(3) 0.9557(4) 0.8918(3)
C17 C 0.5044(3) 0.8945(4) 0.9232(3)
C18 C 0.5094(4) 0.8007(5) 0.8926(3)
C19 C 0.9029(4) 0.5659(5) 0.6932(5)
H11 H 0.8668 0.5429 0.6635
H12 H 0.9007 0.5319 0.7327
H13 H 0.9508 0.5596 0.6746
C20 C 0.5333(5) 0.7259(5) 0.9397(3)
H14 H 0.5778 0.7442 0.9611
H15 H 0.5416 0.6702 0.9165
H16 H 0.4956 0.7165 0.9712
C21 C 0.4390(4) 0.7778(5) 0.8565(4)
H17 H 0.4267 0.8271 0.8279
H18 H 0.4000 0.7690 0.8868
H19 H 0.4459 0.7229 0.8320
C22 C 0.4351(4) 0.9825(5) 0.9981(3)
H20 H 0.4246 1.0252 0.9635
H21 H 0.4727 1.0086 1.0258
C23 C 0.3667(4) 0.9624(6) 1.0361(4)
H22 H 0.3483 1.0180 1.0545
H23 H 0.3780 0.9199 1.0700
H24 H 0.3302 0.9366 1.0081
C24 C 0.5598(3) 1.0525(4) 0.9032(4)
C25 C 0.5950(4) 1.1903(4) 0.8459(4)
H25 H 0.6305 1.1989 0.8810
C26 C 0.5313(4) 1.2516(5) 0.8553(4)
H26 H 0.5113 1.2421 0.8976
H27 H 0.4945 1.2384 0.8234
H28 H 0.5468 1.3140 0.8511
C27 C 0.6324(4) 1.2008(5) 0.7822(4)
H29 H 0.6734 1.1598 0.7801
H30 H 0.6493 1.2625 0.7775
H31 H 0.5984 1.1867 0.7481
S2 S 0.40244(10) 1.04290(13) 1.24021(9)
O7 O 0.4009(2) 0.9533(3) 1.2663(2)
O8 O 0.4636(2) 1.0735(3) 1.2033(2)
O9 O 0.5256(3) 1.2894(4) 1.5128(3)
O10 O 0.5609(2) 1.2849(3) 1.4102(2)
O11 O 0.3561(2) 1.4018(3) 1.36656(19)
O12 O 0.4315(3) 1.4889(3) 1.5107(2)
N2 N 0.4004(3) 1.1139(4) 1.3033(2)
C28 C 0.4265(3) 1.2030(4) 1.3009(3)
H32 H 0.4561 1.2262 1.2684
C29 C 0.4031(3) 1.2510(4) 1.3519(3)
C30 C 0.3548(3) 1.1907(4) 1.3875(3)
C31 C 0.3133(4) 1.2017(5) 1.4436(3)
H33 H 0.3140 1.2566 1.4662
C32 C 0.2714(4) 1.1298(6) 1.4645(4)
H34 H 0.2434 1.1364 1.5016
C33 C 0.2701(4) 1.0484(6) 1.4319(4)
H35 H 0.2406 1.0013 1.4470
C34 C 0.3110(3) 1.0345(5) 1.3777(3)
H36 H 0.3104 0.9787 1.3563
C35 C 0.3532(3) 1.1063(4) 1.3559(3)
C36 C 0.3220(4) 1.0639(5) 1.1983(3)
C37 C 0.2699(5) 0.9957(5) 1.1922(3)
H37 H 0.2770 0.9393 1.2120
C38 C 0.2068(5) 1.0124(6) 1.1563(4)
H38 H 0.1719 0.9665 1.1516
C39 C 0.1953(5) 1.0964(7) 1.1273(4)
C40 C 0.2468(5) 1.1627(6) 1.1352(4)
H39 H 0.2387 1.2197 1.1167
C41 C 0.3102(4) 1.1484(5) 1.1694(4)
H40 H 0.3449 1.1947 1.1733
C42 C 0.3613(4) 1.4736(5) 1.4138(3)
C43 C 0.4209(4) 1.4384(5) 1.4570(3)
C44 C 0.4554(3) 1.3666(4) 1.4320(3)
C45 C 0.4221(3) 1.3480(4) 1.3661(3)
H41 H 0.4550 1.3711 1.3326
C46 C 0.1267(5) 1.1104(7) 1.0877(4)
H42 H 0.1259 1.1715 1.0711
H43 H 0.0844 1.1007 1.1143
H44 H 0.1260 1.0677 1.0525
C47 C 0.3844(4) 1.5624(5) 1.3818(3)
H45 H 0.4302 1.5536 1.3600
H46 H 0.3899 1.6091 1.4139
H47 H 0.3476 1.5806 1.3511
C48 C 0.2884(4) 1.4820(6) 1.4474(3)
H48 H 0.2755 1.4243 1.4662
H49 H 0.2515 1.4996 1.4167
H50 H 0.2918 1.5274 1.4806
C49 C 0.5044(5) 1.4986(7) 1.5371(4)
H51 H 0.5247 1.4389 1.5468
H52 H 0.5027 1.5336 1.5768
C50 C 0.5528(5) 1.5478(8) 1.4875(6)
H53 H 0.6017 1.5538 1.5044
H54 H 0.5330 1.6072 1.4788
H55 H 0.5541 1.5129 1.4483
C51 C 0.5163(4) 1.3101(5) 1.4573(4)
C52 C 0.6229(4) 1.2233(5) 1.4275(4)
H56 H 0.6066 1.1780 1.4591
C53 C 0.6836(4) 1.2792(7) 1.4556(5)
H57 H 0.6677 1.3064 1.4953
H58 H 0.6969 1.3265 1.4257
H59 H 0.7253 1.2409 1.4638
C54 C 0.6409(5) 1.1770(7) 1.3653(5)
H60 H 0.5992 1.1425 1.3507
H61 H 0.6818 1.1366 1.3716
H62 H 0.6532 1.2221 1.3335
S3 S 1.26487(11) 1.15899(14) 0.89198(9)
O13 O 1.3301(3) 1.1242(4) 0.9198(2)
O14 O 1.1978(3) 1.1611(3) 0.9276(2)
O15 O 1.1221(2) 0.8561(3) 0.7956(3)
O16 O 1.1748(3) 0.7626(3) 0.7220(2)
O17 O 1.1074(2) 1.0502(3) 0.6512(2)
O18 O 1.0809(3) 0.8303(3) 0.5873(2)
N3 N 1.2475(3) 1.0944(4) 0.8280(3)
C55 C 1.1766(4) 1.0810(4) 0.8026(3)
H63 H 1.1338 1.1023 0.8216
C56 C 1.1789(3) 1.0335(4) 0.7472(3)
C57 C 1.2557(4) 1.0184(4) 0.7340(3)
C58 C 1.2927(4) 0.9730(5) 0.6847(3)
H64 H 1.2671 0.9453 0.6510
C59 C 1.3693(4) 0.9704(6) 0.6874(4)
H65 H 1.3950 0.9404 0.6551
C60 C 1.4070(4) 1.0110(6) 0.7364(5)
H66 H 1.4579 1.0089 0.7361
C61 C 1.3728(4) 1.0546(5) 0.7861(4)
H67 H 1.3993 1.0813 0.8196
C62 C 1.2969(4) 1.0572(4) 0.7842(3)
C63 C 1.2319(4) 1.3122(6) 0.8273(4)
H68 H 1.1871 1.2846 0.8183
C64 C 1.2463(5) 1.3999(7) 0.8058(4)
H69 H 1.2103 1.4311 0.7828
C65 C 1.3119(6) 1.4422(6) 0.8175(5)
C66 C 1.3622(5) 1.3967(8) 0.8523(6)
H70 H 1.4066 1.4250 0.8621
C67 C 1.3498(4) 1.3090(7) 0.8739(4)
H71 H 1.3860 1.2781 0.8969
C68 C 1.2838(4) 1.2673(5) 0.8615(3)
C69 C 1.1136(3) 1.0017(4) 0.7112(3)
H72 H 1.0696 1.0127 0.7370
C70 C 1.1152(3) 0.9031(4) 0.6900(3)
C71 C 1.0940(3) 0.8968(5) 0.6289(4)
C72 C 1.0760(4) 0.9902(4) 0.6033(3)
C73 C 1.3267(6) 1.5394(7) 0.7932(6)
H73 H 1.2848 1.5612 0.7698
H74 H 1.3687 1.5390 0.7654
H75 H 1.3361 1.5788 0.8293
C74 C 0.9934(4) 1.0052(5) 0.5973(3)
H76 H 0.9703 0.9910 0.6376
H77 H 0.9740 0.9663 0.5641
H78 H 0.9840 1.0679 0.5864
C75 C 1.1139(4) 1.0116(5) 0.5389(3)
H79 H 1.1656 1.0010 0.5430
H80 H 1.1054 1.0743 0.5276
H81 H 1.0942 0.9728 0.5057
C76 C 1.0729(5) 0.7385(5) 0.6105(4)
H82 H 1.0405 0.7374 0.6475
H83 H 1.1202 0.7143 0.6235
C77 C 1.0417(6) 0.6826(6) 0.5578(4)
H84 H 1.0356 0.6208 0.5724
H85 H 1.0744 0.6835 0.5216
H86 H 0.9950 0.7071 0.5451
C78 C 1.1401(4) 0.8317(6) 0.7352(4)
C79 C 1.1516(5) 0.8026(6) 0.8492(4)
H87 H 1.1567 0.7389 0.8353
C80 C 1.2266(5) 0.8398(9) 0.8656(5)
H88 H 1.2591 0.8297 0.8300
H89 H 1.2454 0.8092 0.9031
H90 H 1.2231 0.9041 0.8740
C81 C 1.0976(6) 0.8068(11) 0.9005(5)
H91 H 1.0526 0.7796 0.8859
H92 H 1.0890 0.8694 0.9119
H93 H 1.1156 0.7741 0.9375
S4 S 1.13006(13) 1.34231(18) 0.58602(10)
O19 O 1.1052(3) 1.2629(4) 0.5520(2)
O20 O 1.1236(3) 1.4328(4) 0.5587(3)
O21 O 0.8069(3) 1.3026(4) 0.7874(2)
O22 O 0.8788(2) 1.2459(3) 0.7102(2)
O23 O 1.04432(19) 1.2124(3) 0.84530(19)
O24 O 0.8738(2) 1.2217(4) 0.9238(2)
N4 N 1.0804(3) 1.3443(4) 0.6537(3)
C82 C 1.0537(4) 1.2669(5) 0.6837(4)
H94 H 1.0512 1.2097 0.6644
C83 C 1.0319(3) 1.2843(4) 0.7442(3)
C84 C 1.0479(3) 1.3794(4) 0.7560(4)
C85 C 1.0398(4) 1.4358(5) 0.8088(4)
H95 H 1.0170 1.4146 0.8460
C86 C 1.0661(5) 1.5238(6) 0.8056(5)
H96 H 1.0623 1.5615 0.8415
C87 C 1.0977(5) 1.5569(5) 0.7508(6)
H97 H 1.1150 1.6167 0.7504
C88 C 1.1046(4) 1.5044(6) 0.6964(5)
H98 H 1.1253 1.5277 0.6590
C89 C 1.0795(4) 1.4150(5) 0.6994(4)
C90 C 1.2202(4) 1.3255(7) 0.6130(3)
C91 C 1.2426(5) 1.2393(6) 0.6307(3)
H99 H 1.2099 1.1906 0.6296
C92 C 1.3135(6) 1.2265(6) 0.6502(4)
H100 H 1.3281 1.1682 0.6625
C93 C 1.3641(6) 1.2960(9) 0.6523(4)
C94 C 1.3397(6) 1.3803(8) 0.6346(5)
H101 H 1.3720 1.4293 0.6367
C95 C 1.2693(6) 1.3957(6) 0.6138(4)
H102 H 1.2551 1.4537 0.6003
C96 C 0.9994(3) 1.2166(4) 0.7882(3)
H103 H 0.9994 1.1566 0.7672
C97 C 0.9229(3) 1.2363(4) 0.8136(3)
C98 C 0.9243(3) 1.2221(4) 0.8769(4)
C99 C 0.9991(3) 1.1972(4) 0.9020(3)
C100 C 1.4414(5) 1.2800(8) 0.6727(5)
H104 H 1.4480 1.2166 0.6830
H105 H 1.4523 1.3165 0.7100
H106 H 1.4738 1.2965 0.6382
C101 C 1.0042(3) 1.0976(5) 0.9204(3)
H107 H 0.9862 1.0606 0.8855
H108 H 0.9752 1.0866 0.9581
H109 H 1.0544 1.0821 0.9292
C102 C 1.0270(3) 1.2596(5) 0.9544(3)
H110 H 1.0222 1.3220 0.9406
H111 H 1.0777 1.2464 0.9629
H112 H 0.9990 1.2503 0.9929
C103 C 0.7983(4) 1.1998(6) 0.9098(4)
H113 H 0.7956 1.1520 0.8775
H114 H 0.7728 1.2532 0.8934
C104 C 0.7642(4) 1.1684(6) 0.9710(4)
H115 H 0.7138 1.1529 0.9633
H116 H 0.7670 1.2163 1.0025
H117 H 0.7899 1.1156 0.9867
C105 C 0.8628(4) 1.2639(4) 0.7717(4)
C106 C 0.8321(4) 1.2962(9) 0.6598(4)
H118 H 0.8081 1.3498 0.6786
C107 C 0.7836(8) 1.2325(10) 0.6444(6)
H119 H 0.7495 1.2566 0.6134
H120 H 0.7577 1.2139 0.6824
H121 H 0.8085 1.1808 0.6263
C108 C 0.8786(7) 1.3215(10) 0.6075(6)
H122 H 0.8503 1.3529 0.5752
H123 H 0.8999 1.2676 0.5890
H124 H 0.9169 1.3609 0.6230
loop_
_geom_bond_atom_site_label_1
_geom_bond_atom_site_label_2
_geom_bond_site_symmetry_1
_geom_bond_site_symmetry_2
S1 O1 1_555 1_555
O2 S1 1_555 1_555
O3 C24 1_555 1_555
O4 C24 1_555 1_555
O5 C15 1_555 1_555
O6 C17 1_555 1_555
N1 S1 1_555 1_555
C1 N1 1_555 1_555
H1 C1 1_555 1_555
C2 C1 1_555 1_555
C3 C2 1_555 1_555
C4 C3 1_555 1_555
H2 C4 1_555 1_555
C5 C4 1_555 1_555
H3 C5 1_555 1_555
C6 C5 1_555 1_555
H4 C6 1_555 1_555
C7 C6 1_555 1_555
H5 C7 1_555 1_555
C8 N1 1_555 1_555
C9 S1 1_555 1_555
C10 C9 1_555 1_555
H6 C10 1_555 1_555
C11 C10 1_555 1_555
H7 C11 1_555 1_555
C12 C11 1_555 1_555
C13 C12 1_555 1_555
H8 C13 1_555 1_555
C14 C9 1_555 1_555
H9 C14 1_555 1_555
C15 C2 1_555 1_555
H10 C15 1_555 1_555
C16 C15 1_555 1_555
C17 C16 1_555 1_555
C18 O5 1_555 1_555
C19 C12 1_555 1_555
H11 C19 1_555 1_555
H12 C19 1_555 1_555
H13 C19 1_555 1_555
C20 C18 1_555 1_555
H14 C20 1_555 1_555
H15 C20 1_555 1_555
H16 C20 1_555 1_555
C21 C18 1_555 1_555
H17 C21 1_555 1_555
H18 C21 1_555 1_555
H19 C21 1_555 1_555
C22 O6 1_555 1_555
H20 C22 1_555 1_555
H21 C22 1_555 1_555
C23 C22 1_555 1_555
H22 C23 1_555 1_555
H23 C23 1_555 1_555
H24 C23 1_555 1_555
C24 C16 1_555 1_555
C25 O4 1_555 1_555
H25 C25 1_555 1_555
C26 C25 1_555 1_555
H26 C26 1_555 1_555
H27 C26 1_555 1_555
H28 C26 1_555 1_555
C27 C25 1_555 1_555
H29 C27 1_555 1_555
H30 C27 1_555 1_555
H31 C27 1_555 1_555
S2 O7 1_555 1_555
O8 S2 1_555 1_555
O9 C51 1_555 1_555
O10 C51 1_555 1_555
O11 C42 1_555 1_555
O12 C43 1_555 1_555
N2 S2 1_555 1_555
C28 N2 1_555 1_555
H32 C28 1_555 1_555
C29 C28 1_555 1_555
C30 C29 1_555 1_555
C31 C30 1_555 1_555
H33 C31 1_555 1_555
C32 C31 1_555 1_555
H34 C32 1_555 1_555
C33 C32 1_555 1_555
H35 C33 1_555 1_555
C34 C33 1_555 1_555
H36 C34 1_555 1_555
C35 N2 1_555 1_555
C36 S2 1_555 1_555
C37 C36 1_555 1_555
H37 C37 1_555 1_555
C38 C37 1_555 1_555
H38 C38 1_555 1_555
C39 C38 1_555 1_555
C40 C39 1_555 1_555
H39 C40 1_555 1_555
C41 C36 1_555 1_555
H40 C41 1_555 1_555
C42 C43 1_555 1_555
C43 C44 1_555 1_555
C44 C45 1_555 1_555
C45 O11 1_555 1_555
H41 C45 1_555 1_555
C46 C39 1_555 1_555
H42 C46 1_555 1_555
H43 C46 1_555 1_555
H44 C46 1_555 1_555
C47 C42 1_555 1_555
H45 C47 1_555 1_555
H46 C47 1_555 1_555
H47 C47 1_555 1_555
C48 C42 1_555 1_555
H48 C48 1_555 1_555
H49 C48 1_555 1_555
H50 C48 1_555 1_555
C49 O12 1_555 1_555
H51 C49 1_555 1_555
H52 C49 1_555 1_555
C50 C49 1_555 1_555
H53 C50 1_555 1_555
H54 C50 1_555 1_555
H55 C50 1_555 1_555
C51 C44 1_555 1_555
C52 O10 1_555 1_555
H56 C52 1_555 1_555
C53 C52 1_555 1_555
H57 C53 1_555 1_555
H58 C53 1_555 1_555
H59 C53 1_555 1_555
C54 C52 1_555 1_555
H60 C54 1_555 1_555
H61 C54 1_555 1_555
H62 C54 1_555 1_555
S3 O13 1_555 1_555
O14 S3 1_555 1_555
O15 C78 1_555 1_555
O16 C78 1_555 1_555
O17 C69 1_555 1_555
O18 C71 1_555 1_555
N3 S3 1_555 1_555
C55 N3 1_555 1_555
H63 C55 1_555 1_555
C56 C55 1_555 1_555
C57 C56 1_555 1_555
C58 C57 1_555 1_555
H64 C58 1_555 1_555
C59 C58 1_555 1_555
H65 C59 1_555 1_555
C60 C59 1_555 1_555
H66 C60 1_555 1_555
C61 C60 1_555 1_555
H67 C61 1_555 1_555
C62 N3 1_555 1_555
C63 H68 1_555 1_555
C64 C63 1_555 1_555
H69 C64 1_555 1_555
C65 C64 1_555 1_555
C66 C65 1_555 1_555
H70 C66 1_555 1_555
C67 C66 1_555 1_555
H71 C67 1_555 1_555
C68 S3 1_555 1_555
C69 C56 1_555 1_555
H72 C69 1_555 1_555
C70 C69 1_555 1_555
C71 C70 1_555 1_555
C72 O17 1_555 1_555
C73 C65 1_555 1_555
H73 C73 1_555 1_555
H74 C73 1_555 1_555
H75 C73 1_555 1_555
C74 C72 1_555 1_555
H76 C74 1_555 1_555
H77 C74 1_555 1_555
H78 C74 1_555 1_555
C75 C72 1_555 1_555
H79 C75 1_555 1_555
H80 C75 1_555 1_555
H81 C75 1_555 1_555
C76 O18 1_555 1_555
H82 C76 1_555 1_555
H83 C76 1_555 1_555
C77 C76 1_555 1_555
H84 C77 1_555 1_555
H85 C77 1_555 1_555
H86 C77 1_555 1_555
C78 C70 1_555 1_555
C79 O15 1_555 1_555
H87 C79 1_555 1_555
C80 C79 1_555 1_555
H88 C80 1_555 1_555
H89 C80 1_555 1_555
H90 C80 1_555 1_555
C81 C79 1_555 1_555
H91 C81 1_555 1_555
H92 C81 1_555 1_555
H93 C81 1_555 1_555
S4 O19 1_555 1_555
O20 S4 1_555 1_555
O21 C105 1_555 1_555
O22 C105 1_555 1_555
O23 C96 1_555 1_555
O24 C98 1_555 1_555
N4 S4 1_555 1_555
C82 N4 1_555 1_555
H94 C82 1_555 1_555
C83 C82 1_555 1_555
C84 C83 1_555 1_555
C85 C84 1_555 1_555
H95 C85 1_555 1_555
C86 C85 1_555 1_555
H96 C86 1_555 1_555
C87 C86 1_555 1_555
H97 C87 1_555 1_555
C88 C87 1_555 1_555
H98 C88 1_555 1_555
C89 N4 1_555 1_555
C90 S4 1_555 1_555
C91 C90 1_555 1_555
H99 C91 1_555 1_555
C92 C91 1_555 1_555
H100 C92 1_555 1_555
C93 C92 1_555 1_555
C94 C93 1_555 1_555
H101 C94 1_555 1_555
C95 C90 1_555 1_555
H102 C95 1_555 1_555
C96 C83 1_555 1_555
H103 C96 1_555 1_555
C97 C96 1_555 1_555
C98 C97 1_555 1_555
C99 O23 1_555 1_555
C100 C93 1_555 1_555
H104 C100 1_555 1_555
H105 C100 1_555 1_555
H106 C100 1_555 1_555
C101 C99 1_555 1_555
H107 C101 1_555 1_555
H108 C101 1_555 1_555
H109 C101 1_555 1_555
C102 C99 1_555 1_555
H110 C102 1_555 1_555
H111 C102 1_555 1_555
H112 C102 1_555 1_555
C103 O24 1_555 1_555
H113 C103 1_555 1_555
H114 C103 1_555 1_555
C104 C103 1_555 1_555
H115 C104 1_555 1_555
H116 C104 1_555 1_555
H117 C104 1_555 1_555
C105 C97 1_555 1_555
C106 O22 1_555 1_555
H118 C106 1_555 1_555
C107 C106 1_555 1_555
H119 C107 1_555 1_555
H120 C107 1_555 1_555
H121 C107 1_555 1_555
C108 C106 1_555 1_555
H122 C108 1_555 1_555
H123 C108 1_555 1_555
H124 C108 1_555 1_555
C3 C8 1_555 1_555
C7 C8 1_555 1_555
C13 C14 1_555 1_555
C17 C18 1_555 1_555
C29 C45 1_555 1_555
C30 C35 1_555 1_555
C34 C35 1_555 1_555
C40 C41 1_555 1_555
C57 C62 1_555 1_555
C61 C62 1_555 1_555
C63 C68 1_555 1_555
C67 C68 1_555 1_555
C71 C72 1_555 1_555
C84 C89 1_555 1_555
C88 C89 1_555 1_555
C94 C95 1_555 1_555
C98 C99 1_555 1_555

#END
