
#######################################################################
#
#                 Cambridge Crystallographic Data Centre
#                                CCDC 
#
#######################################################################
#
# If this CIF has been generated from an entry in the Cambridge 
# Structural Database, then it will include bibliographic, chemical, 
# crystal, experimental, refinement or atomic coordinate data resulting 
# from the CCDC's data processing and validation procedures.
#
#######################################################################

data_MOVSUL
_chemical_formula_moiety         'C42 H76 N10 6+,6(Cl1 O4 1-),2(H2 O1)'
_chemical_name_systematic        
'4,14-Dimethyl-9,19-(1,4)dibenzena-1,7,11,17-(1,4)tetrapiperidina-4,14-diazacycloicosaphane hexaperchlorate dihydrate'
_symmetry_cell_setting           monoclinic
_symmetry_space_group_name_H-M   'P 21/n'
_symmetry_Int_Tables_number      14
_space_group_name_Hall           '-P 2yn'
loop_
_symmetry_equiv_pos_site_id
_symmetry_equiv_pos_as_xyz
1 x,y,z
2 1/2-x,1/2+y,1/2-z
3 -x,-y,-z
4 1/2+x,1/2-y,1/2+z
_cell_length_a                   11.311(6)
_cell_length_b                   21.05(2)
_cell_length_c                   14.190(10)
_cell_angle_alpha                90
_cell_angle_beta                 112.28(5)
_cell_angle_gamma                90
_cell_volume                     3126.35
_exptl_crystal_colour            colorless
_exptl_crystal_description       prismatic
_cell_formula_units_Z            2
loop_
_atom_site_label
_atom_site_type_symbol
_atom_site_fract_x
_atom_site_fract_y
_atom_site_fract_z
O1 O 0.5373(16) 0.1038(7) -0.3098(12)
Cl1 Cl 0.5814(7) -0.3477(4) -0.1050(6)
O2 O 0.6548(18) -0.2959(11) -0.0943(15)
O3 O 0.6509(19) -0.4028(11) -0.1062(13)
O4 O 0.4749(15) -0.3455(6) -0.1956(11)
O5 O 0.5406(16) -0.3487(11) -0.0262(13)
Cl2 Cl 0.8057(7) 0.4011(4) -0.1138(6)
O6 O 0.8425(15) 0.3438(10) -0.1439(13)
O7 O 0.914(2) 0.4242(13) -0.0372(16)
O8 O 0.7686(18) 0.4426(9) -0.1959(16)
O9 O 0.7106(18) 0.3959(10) -0.0741(15)
Cl3 Cl 0.3591(10) -0.1020(5) 0.0401(7)
O10 O 0.278(3) -0.1050(9) -0.0574(18)
O11 O 0.3434(16) -0.1548(10) 0.0943(15)
O12 O 0.349(2) -0.0485(11) 0.0890(18)
O13 O 0.473(3) -0.1011(16) 0.039(2)
C1 C -0.0345 -0.0885 0.0647
C2 C 0.0497 -0.1377 0.1106
H1 H 0.1118 -0.1324 0.1755
C3 C 0.0411 -0.1948 0.0593
H2 H 0.0974 -0.2277 0.0899
C4 C -0.0517 -0.2028 -0.0378
C5 C -0.1359 -0.1536 -0.0837
H3 H -0.1980 -0.1589 -0.1487
C6 C -0.1273 -0.0965 -0.0324
H4 H -0.1836 -0.0636 -0.0631
C7 C -0.0637(17) -0.2634(9) -0.0950(14)
H5 H -0.1523 -0.2690 -0.1399
H6 H -0.0412 -0.2983 -0.0467
N1 N 0.0211(13) -0.2675(7) -0.1599(11)
C8 C -0.0215(16) -0.2243(9) -0.2442(13)
H7 H -0.0166 -0.1811 -0.2193
H8 H -0.1098 -0.2332 -0.2866
C9 C 0.0619(15) -0.2310(9) -0.3073(13)
H9 H 0.0498 -0.2729 -0.3377
H10 H 0.0350 -0.2000 -0.3620
C10 C 0.2334(16) -0.2635(8) -0.1621(12)
H11 H 0.3231 -0.2563 -0.1216
H12 H 0.2252 -0.3067 -0.1877
C11 C 0.1576(15) -0.2582(9) -0.0910(13)
H13 H 0.1846 -0.2906 -0.0386
H14 H 0.1700 -0.2167 -0.0587
N2 N 0.1960(12) -0.2217(6) -0.2460(10)
C12 C 0.2696(16) -0.2313(9) -0.3085(13)
H15 H 0.2817 -0.2764 -0.3156
H16 H 0.2242 -0.2138 -0.3758
C13 C 0.3976(16) -0.1992(8) -0.2601(13)
H17 H 0.4483 -0.2087 -0.3002
H18 H 0.4415 -0.2171 -0.1928
N3 N 0.3914(14) -0.1296(7) -0.2504(11)
C14 C 0.5149(17) -0.1080(9) -0.1809(13)
H19 H 0.5699 -0.1013 -0.2175
H20 H 0.5050 -0.0688 -0.1500
H21 H 0.5518 -0.1394 -0.1289
C15 C 0.349(2) -0.0994(9) -0.3518(14)
H22 H 0.4145 -0.1062 -0.3797
H23 H 0.2720 -0.1203 -0.3966
C16 C 0.3239(18) -0.0293(8) -0.3520(14)
H24 H 0.4036 -0.0059 -0.3264
H25 H 0.2741 -0.0149 -0.4205
N4 N 0.2504(13) -0.0192(6) -0.2835(10)
C17 C 0.1160(17) -0.0291(10) -0.3379(14)
H26 H 0.0799 0.0050 -0.3863
H27 H 0.1009 -0.0691 -0.3747
C18 C 0.0576(18) -0.0300(8) -0.2604(13)
H28 H -0.0328 -0.0395 -0.2932
H29 H 0.0970 -0.0633 -0.2112
C19 C 0.2175(15) 0.0458(8) -0.1590(12)
H30 H 0.2584 0.0143 -0.1068
H31 H 0.2335 0.0874 -0.1274
C20 C 0.2708(18) 0.0426(9) -0.2369(13)
H32 H 0.3616 0.0514 -0.2069
H33 H 0.2309 0.0746 -0.2884
N5 N 0.0745(13) 0.0334(7) -0.2057(10)
C21 C -0.0185(16) -0.0274(7) 0.1251(12)
H34 H 0.0716 -0.0172 0.1572
H35 H -0.0605 0.0071 0.0793
N5B N -0.0745(13) -0.0334(7) 0.2057(10)
C18B C -0.0576(18) 0.0300(8) 0.2604(13)
C17B C -0.1160(17) 0.0291(10) 0.3379(14)
N4B N -0.2504(13) 0.0192(6) 0.2835(10)
C16B C -0.3239(18) 0.0293(8) 0.3520(14)
C15B C -0.349(2) 0.0994(9) 0.3518(14)
N3B N -0.3914(14) 0.1296(7) 0.2504(11)
C13B C -0.3976(16) 0.1992(8) 0.2601(13)
C12B C -0.2696(16) 0.2313(9) 0.3085(13)
N2B N -0.1960(12) 0.2217(6) 0.2460(10)
C9B C -0.0619(15) 0.2310(9) 0.3073(13)
C8B C 0.0215(16) 0.2243(9) 0.2442(13)
N1B N -0.0211(13) 0.2675(7) 0.1599(11)
C7B C 0.0637(17) 0.2634(9) 0.0950(14)
C4B C 0.0517 0.2028 0.0378
C3B C -0.0411 0.1948 -0.0593
C2B C -0.0497 0.1377 -0.1106
C1B C 0.0345 0.0885 -0.0647
C6B C 0.1273 0.0965 0.0324
C5B C 0.1359 0.1536 0.0837
H3B H 0.1980 0.1589 0.1487
H4B H 0.1836 0.0636 0.0631
C21B C 0.0185(16) 0.0274(7) -0.1251(12)
H34B H -0.0716 0.0172 -0.1572
H35B H 0.0605 -0.0071 -0.0793
H1B H -0.1118 0.1324 -0.1755
H2B H -0.0974 0.2277 -0.0899
H5B H 0.1523 0.2690 0.1399
H6B H 0.0412 0.2983 0.0467
C11B C -0.1576(15) 0.2582(9) 0.0910(13)
C10B C -0.2334(16) 0.2635(8) 0.1621(12)
H11B H -0.3231 0.2563 0.1216
H12B H -0.2252 0.3067 0.1877
H13B H -0.1846 0.2906 0.0386
H14B H -0.1700 0.2167 0.0587
H7B H 0.0166 0.1811 0.2193
H8B H 0.1098 0.2332 0.2866
H9B H -0.0498 0.2729 0.3377
H10B H -0.0350 0.2000 0.3620
H15B H -0.2817 0.2764 0.3156
H16B H -0.2242 0.2138 0.3758
H17B H -0.4483 0.2087 0.3002
H18B H -0.4415 0.2171 0.1928
C14B C -0.5149(17) 0.1080(9) 0.1809(13)
H19B H -0.5699 0.1013 0.2175
H20B H -0.5050 0.0688 0.1500
H21B H -0.5518 0.1394 0.1289
H22B H -0.4145 0.1062 0.3797
H23B H -0.2720 0.1203 0.3966
H24B H -0.4036 0.0059 0.3264
H25B H -0.2741 0.0149 0.4205
C20B C -0.2708(18) -0.0426(9) 0.2369(13)
C19B C -0.2175(15) -0.0458(8) 0.1590(12)
H30B H -0.2584 -0.0143 0.1068
H31B H -0.2335 -0.0874 0.1274
H32B H -0.3616 -0.0514 0.2069
H33B H -0.2309 -0.0746 0.2884
H26B H -0.0799 -0.0050 0.3863
H27B H -0.1009 0.0691 0.3747
H28B H 0.0328 0.0395 0.2932
H29B H -0.0970 0.0633 0.2112
loop_
_geom_bond_atom_site_label_1
_geom_bond_atom_site_label_2
_geom_bond_site_symmetry_1
_geom_bond_site_symmetry_2
Cl1 O2 1_555 1_555
O3 Cl1 1_555 1_555
O4 Cl1 1_555 1_555
O5 Cl1 1_555 1_555
Cl2 O6 1_555 1_555
O7 Cl2 1_555 1_555
O8 Cl2 1_555 1_555
O9 Cl2 1_555 1_555
Cl3 O10 1_555 1_555
O11 Cl3 1_555 1_555
O12 Cl3 1_555 1_555
O13 Cl3 1_555 1_555
C1 C2 1_555 1_555
C2 H1 1_555 1_555
C3 C2 1_555 1_555
H2 C3 1_555 1_555
C4 C3 1_555 1_555
C5 C4 1_555 1_555
H3 C5 1_555 1_555
C6 C1 1_555 1_555
H4 C6 1_555 1_555
C7 C4 1_555 1_555
H5 C7 1_555 1_555
H6 C7 1_555 1_555
N1 C7 1_555 1_555
C8 N1 1_555 1_555
H7 C8 1_555 1_555
H8 C8 1_555 1_555
C9 C8 1_555 1_555
H9 C9 1_555 1_555
H10 C9 1_555 1_555
C10 H11 1_555 1_555
H12 C10 1_555 1_555
C11 N1 1_555 1_555
H13 C11 1_555 1_555
H14 C11 1_555 1_555
N2 C9 1_555 1_555
C12 N2 1_555 1_555
H15 C12 1_555 1_555
H16 C12 1_555 1_555
C13 C12 1_555 1_555
H17 C13 1_555 1_555
H18 C13 1_555 1_555
N3 C13 1_555 1_555
C14 N3 1_555 1_555
H19 C14 1_555 1_555
H20 C14 1_555 1_555
H21 C14 1_555 1_555
C15 N3 1_555 1_555
H22 C15 1_555 1_555
H23 C15 1_555 1_555
C16 C15 1_555 1_555
H24 C16 1_555 1_555
H25 C16 1_555 1_555
N4 C16 1_555 1_555
C17 N4 1_555 1_555
H26 C17 1_555 1_555
H27 C17 1_555 1_555
C18 C17 1_555 1_555
H28 C18 1_555 1_555
H29 C18 1_555 1_555
C19 H30 1_555 1_555
H31 C19 1_555 1_555
C20 N4 1_555 1_555
H32 C20 1_555 1_555
H33 C20 1_555 1_555
N5 C18 1_555 1_555
C21 C1 1_555 1_555
H34 C21 1_555 1_555
H35 C21 1_555 1_555
N5B C21 1_555 1_555
C18B N5B 1_555 1_555
C17B C18B 1_555 1_555
N4B C17B 1_555 1_555
C16B N4B 1_555 1_555
C15B C16B 1_555 1_555
N3B C15B 1_555 1_555
C13B N3B 1_555 1_555
C12B C13B 1_555 1_555
N2B C12B 1_555 1_555
C9B N2B 1_555 1_555
C8B C9B 1_555 1_555
N1B C8B 1_555 1_555
C7B N1B 1_555 1_555
C4B C7B 1_555 1_555
C3B C4B 1_555 1_555
C2B C3B 1_555 1_555
C1B C2B 1_555 1_555
C6B C1B 1_555 1_555
C5B C4B 1_555 1_555
H3B C5B 1_555 1_555
H4B C6B 1_555 1_555
C21B N5 1_555 1_555
H34B C21B 1_555 1_555
H35B C21B 1_555 1_555
H1B C2B 1_555 1_555
H2B C3B 1_555 1_555
H5B C7B 1_555 1_555
H6B C7B 1_555 1_555
C11B N1B 1_555 1_555
C10B N2B 1_555 1_555
H11B C10B 1_555 1_555
H12B C10B 1_555 1_555
H13B C11B 1_555 1_555
H14B C11B 1_555 1_555
H7B C8B 1_555 1_555
H8B C8B 1_555 1_555
H9B C9B 1_555 1_555
H10B C9B 1_555 1_555
H15B C12B 1_555 1_555
H16B C12B 1_555 1_555
H17B C13B 1_555 1_555
H18B C13B 1_555 1_555
C14B N3B 1_555 1_555
H19B C14B 1_555 1_555
H20B C14B 1_555 1_555
H21B C14B 1_555 1_555
H22B C15B 1_555 1_555
H23B C15B 1_555 1_555
H24B C16B 1_555 1_555
H25B C16B 1_555 1_555
C20B N4B 1_555 1_555
C19B N5B 1_555 1_555
H30B C19B 1_555 1_555
H31B C19B 1_555 1_555
H32B C20B 1_555 1_555
H33B C20B 1_555 1_555
H26B C17B 1_555 1_555
H27B C17B 1_555 1_555
H28B C18B 1_555 1_555
H29B C18B 1_555 1_555
C5 C6 1_555 1_555
C10 C11 1_555 1_555
C10 N2 1_555 1_555
C19 C20 1_555 1_555
C19 N5 1_555 1_555
C1B C21B 1_555 1_555
C6B C5B 1_555 1_555
C11B C10B 1_555 1_555
C20B C19B 1_555 1_555

#END
