
#######################################################################
#
#                 Cambridge Crystallographic Data Centre
#                                CCDC 
#
#######################################################################
#
# If this CIF has been generated from an entry in the Cambridge 
# Structural Database, then it will include bibliographic, chemical, 
# crystal, experimental, refinement or atomic coordinate data resulting 
# from the CCDC's data processing and validation procedures.
#
#######################################################################

data_MOVYOM
_chemical_formula_moiety         'C19 H23 N3'
_chemical_name_systematic        1-Cyclohexyl-2,3-diphenylguanidine
_symmetry_cell_setting           monoclinic
_symmetry_space_group_name_H-M   'P 21/n'
_symmetry_Int_Tables_number      14
_space_group_name_Hall           '-P 2yn'
loop_
_symmetry_equiv_pos_site_id
_symmetry_equiv_pos_as_xyz
1 x,y,z
2 1/2-x,1/2+y,1/2-z
3 -x,-y,-z
4 1/2+x,1/2-y,1/2+z
_cell_length_a                   11.7513(18)
_cell_length_b                   16.702(3)
_cell_length_c                   17.037(3)
_cell_angle_alpha                90
_cell_angle_beta                 92.995(3)
_cell_angle_gamma                90
_cell_volume                     3339.29
_exptl_crystal_colour            colorless
_cell_formula_units_Z            8
_exptl_crystal_recrystallization_method benzene
loop_
_atom_site_label
_atom_site_type_symbol
_atom_site_fract_x
_atom_site_fract_y
_atom_site_fract_z
C1 C 0.6342(3) 0.6288(2) 0.2645(2)
C2 C 0.8044(3) 0.6933(2) 0.3284(2)
C3 C 0.9258(4) 0.6758(3) 0.3379(3)
H1 H 0.9562 0.6670 0.2855
H2 H 0.9367 0.6258 0.3685
C4 C 0.9928(4) 0.7430(3) 0.3795(3)
H3 H 1.0732 0.7264 0.3887
H4 H 0.9910 0.7912 0.3457
C5 C 0.9441(4) 0.7623(3) 0.4554(3)
H5 H 0.9555 0.7162 0.4914
H6 H 0.9855 0.8086 0.4792
C6 C 0.8243(4) 0.7809(3) 0.4474(3)
H7 H 0.8134 0.8320 0.4186
H8 H 0.7943 0.7878 0.5003
C7 C 0.7578(3) 0.7145(2) 0.4034(3)
H9 H 0.7575 0.6662 0.4371
H10 H 0.6778 0.7319 0.3938
C8 C 0.5015(3) 0.5283(2) 0.1998(2)
C9 C 0.4939(3) 0.5609(2) 0.1249(2)
H11 H 0.5456 0.6013 0.1104
C10 C 0.4091(4) 0.5332(2) 0.0711(2)
H12 H 0.3938 0.5610 0.0230
C11 C 0.3472(4) 0.4652(3) 0.0879(3)
H13 H 0.2980 0.4417 0.0483
C12 C 0.3565(4) 0.4317(2) 0.1610(3)
H14 H 0.3067 0.3896 0.1743
C13 C 0.4400(3) 0.4596(2) 0.2165(2)
H15 H 0.4543 0.4319 0.2648
C14 C 0.4675(3) 0.7059(2) 0.2382(2)
C15 C 0.4218(3) 0.7558(2) 0.1786(2)
H16 H 0.4703 0.7804 0.1428
C16 C 0.3046(4) 0.7694(2) 0.1720(3)
H17 H 0.2740 0.8038 0.1318
C17 C 0.2327(4) 0.7338(3) 0.2225(3)
H18 H 0.1528 0.7421 0.2164
C18 C 0.2777(4) 0.6862(3) 0.2819(3)
H19 H 0.2288 0.6623 0.3179
C19 C 0.3938(4) 0.6728(2) 0.2895(2)
H20 H 0.4235 0.6400 0.3312
N1 N 0.7438(3) 0.6257(2) 0.2929(2)
N2 N 0.5855(3) 0.55366(19) 0.2570(2)
N3 N 0.5870(2) 0.69696(16) 0.24526(16)
H21 H 0.616(3) 0.512(2) 0.285(2)
H22 H 0.775(3) 0.582(2) 0.296(2)
C20 C 0.7933(3) 0.3818(2) 0.3234(3)
C21 C 0.8891(5) 0.4437(3) 0.2151(3)
C22 C 0.8530(5) 0.4610(4) 0.1392(4)
H23 H 0.7698 0.4709 0.1380
H24 H 0.8653 0.4129 0.1066
C23 C 0.9085(7) 0.5310(5) 0.1014(4)
H25 H 0.8919 0.5282 0.0439
H26 H 0.8743 0.5809 0.1206
C24 C 1.0290(7) 0.5346(5) 0.1164(5)
H27 H 1.0651 0.4953 0.0820
H28 H 1.0557 0.5885 0.1016
C25 C 1.0657(5) 0.5196(3) 0.1931(4)
H29 H 1.0534 0.5682 0.2249
H30 H 1.1487 0.5089 0.1950
C26 C 1.0074(5) 0.4511(3) 0.2292(3)
H31 H 1.0431 0.4013 0.2110
H32 H 1.0230 0.4541 0.2868
C27 C 0.7045(3) 0.2898(2) 0.4169(3)
C28 C 0.7306(4) 0.2306(3) 0.4697(3)
H33 H 0.8020 0.2040 0.4693
C29 C 0.6510(5) 0.2091(3) 0.5250(3)
H34 H 0.6742 0.1829 0.5726
C30 C 0.5346(5) 0.2279(3) 0.5069(3)
H35 H 0.4765 0.2001 0.5324
C31 C 0.5068(3) 0.2856(3) 0.4536(3)
H36 H 0.4347 0.3113 0.4533
C32 C 0.5885(3) 0.3070(2) 0.3974(3)
H37 H 0.5656 0.3318 0.3490
C33 C 0.7573(3) 0.46478(19) 0.4319(3)
C34 C 0.8492(3) 0.4499(2) 0.4844(3)
H38 H 0.9155 0.4255 0.4657
C35 C 0.8472(4) 0.4697(3) 0.5632(3)
H39 H 0.9115 0.4590 0.5978
C36 C 0.7520(4) 0.5047(2) 0.5908(3)
H40 H 0.7491 0.5173 0.6450
C37 C 0.6613(4) 0.5216(2) 0.5404(3)
H41 H 0.5957 0.5468 0.5595
C38 C 0.6644(3) 0.5024(2) 0.4621(3)
H42 H 0.6008 0.5154 0.4278
N4 N 0.8334(3) 0.3767(2) 0.2511(3)
N5 N 0.7879(3) 0.31018(19) 0.3626(2)
N6 N 0.7613(2) 0.45155(17) 0.35027(19)
H43 H 0.830(3) 0.271(3) 0.335(3)
H44 H 0.844(3) 0.333(2) 0.231(3)
loop_
_geom_bond_atom_site_label_1
_geom_bond_atom_site_label_2
_geom_bond_site_symmetry_1
_geom_bond_site_symmetry_2
C1 N1 1_555 1_555
C2 C3 1_555 1_555
C3 H1 1_555 1_555
H2 C3 1_555 1_555
C4 C3 1_555 1_555
H3 C4 1_555 1_555
H4 C4 1_555 1_555
C5 C4 1_555 1_555
H5 C5 1_555 1_555
H6 C5 1_555 1_555
C6 C5 1_555 1_555
H7 C6 1_555 1_555
H8 C6 1_555 1_555
C7 C2 1_555 1_555
H9 C7 1_555 1_555
H10 C7 1_555 1_555
C8 C9 1_555 1_555
C9 H11 1_555 1_555
C10 C9 1_555 1_555
H12 C10 1_555 1_555
C11 C10 1_555 1_555
H13 C11 1_555 1_555
C12 C11 1_555 1_555
H14 C12 1_555 1_555
C13 C8 1_555 1_555
H15 C13 1_555 1_555
C14 C15 1_555 1_555
C15 H16 1_555 1_555
C16 C15 1_555 1_555
H17 C16 1_555 1_555
C17 C16 1_555 1_555
H18 C17 1_555 1_555
C18 C17 1_555 1_555
H19 C18 1_555 1_555
C19 C14 1_555 1_555
H20 C19 1_555 1_555
N1 C2 1_555 1_555
N2 C1 1_555 1_555
N3 C1 1_555 1_555
H21 N2 1_555 1_555
H22 N1 1_555 1_555
C20 N4 1_555 1_555
C21 C22 1_555 1_555
C22 H23 1_555 1_555
H24 C22 1_555 1_555
C23 C22 1_555 1_555
H25 C23 1_555 1_555
H26 C23 1_555 1_555
C24 C23 1_555 1_555
H27 C24 1_555 1_555
H28 C24 1_555 1_555
C25 C24 1_555 1_555
H29 C25 1_555 1_555
H30 C25 1_555 1_555
C26 C21 1_555 1_555
H31 C26 1_555 1_555
H32 C26 1_555 1_555
C27 C28 1_555 1_555
C28 H33 1_555 1_555
C29 C28 1_555 1_555
H34 C29 1_555 1_555
C30 C29 1_555 1_555
H35 C30 1_555 1_555
C31 C30 1_555 1_555
H36 C31 1_555 1_555
C32 C27 1_555 1_555
H37 C32 1_555 1_555
C33 C34 1_555 1_555
C34 H38 1_555 1_555
C35 C34 1_555 1_555
H39 C35 1_555 1_555
C36 C35 1_555 1_555
H40 C36 1_555 1_555
C37 C36 1_555 1_555
H41 C37 1_555 1_555
C38 C33 1_555 1_555
H42 C38 1_555 1_555
N4 C21 1_555 1_555
N5 C20 1_555 1_555
N6 C20 1_555 1_555
H43 N5 1_555 1_555
H44 N4 1_555 1_555
C6 C7 1_555 1_555
C8 N2 1_555 1_555
C12 C13 1_555 1_555
C14 N3 1_555 1_555
C18 C19 1_555 1_555
C25 C26 1_555 1_555
C27 N5 1_555 1_555
C31 C32 1_555 1_555
C33 N6 1_555 1_555
C37 C38 1_555 1_555

#END
