
#######################################################################
#
#                 Cambridge Crystallographic Data Centre
#                                CCDC 
#
#######################################################################
#
# If this CIF has been generated from an entry in the Cambridge 
# Structural Database, then it will include bibliographic, chemical, 
# crystal, experimental, refinement or atomic coordinate data resulting 
# from the CCDC's data processing and validation procedures.
#
#######################################################################

data_MOVYUT
_chemical_formula_moiety         'C42 H46 N6 O4'
_chemical_name_systematic        
'5,5,15,15-tetraethyl-10,20-dimethyl-10,20-bis(4-nitrophenyl)-5,10,15,20,22,24-hexahydroporphyrin unknown solvate'
_symmetry_cell_setting           triclinic
_symmetry_space_group_name_H-M   'P -1'
_symmetry_Int_Tables_number      2
_space_group_name_Hall           '-P 1'
loop_
_symmetry_equiv_pos_site_id
_symmetry_equiv_pos_as_xyz
1 x,y,z
2 -x,-y,-z
_cell_length_a                   10.4592(11)
_cell_length_b                   10.4709(12)
_cell_length_c                   18.802(2)
_cell_angle_alpha                97.952(4)
_cell_angle_beta                 90.100(3)
_cell_angle_gamma                95.966(3)
_cell_volume                     2028.03
_cell_formula_units_Z            2
loop_
_atom_site_label
_atom_site_type_symbol
_atom_site_fract_x
_atom_site_fract_y
_atom_site_fract_z
C1 C 0.05519(19) 0.4671(2) 0.27785(12)
C2 C 0.1062(2) 0.5680(2) 0.24493(14)
H1 H 0.1264 0.6531 0.2665
C3 C 0.1230(2) 0.5200(2) 0.17193(14)
H2 H 0.1567 0.5685 0.1371
C4 C 0.08171(19) 0.3913(2) 0.16093(12)
C5 C 0.0693(2) 0.2921(2) 0.09424(12)
C6 C -0.0745(2) 0.2396(2) 0.08136(13)
H3 H -0.0810 0.1715 0.0405
H4 H -0.1051 0.2009 0.1230
C7 C -0.1618(2) 0.3403(3) 0.06772(17)
H5 H -0.1518 0.4113 0.1062
H6 H -0.2495 0.3021 0.0651
H7 H -0.1395 0.3715 0.0232
C8 C 0.1226(2) 0.3582(2) 0.03024(13)
H8 H 0.0788 0.4348 0.0280
H9 H 0.2130 0.3868 0.0396
C9 C 0.1092(3) 0.2751(3) -0.04218(14)
H10 H 0.1428 0.1940 -0.0393
H11 H 0.1562 0.3191 -0.0770
H12 H 0.0200 0.2593 -0.0562
C10 C 0.1446(2) 0.1802(2) 0.10371(11)
C11 C 0.1203(2) 0.0510(2) 0.08188(14)
H13 H 0.0462 0.0097 0.0580
C12 C 0.2263(3) -0.0099(2) 0.10157(14)
H14 H 0.2345 -0.0983 0.0926
C13 C 0.3142(2) 0.0820(2) 0.13580(12)
C14 C 0.4430(2) 0.0724(2) 0.17014(12)
C15 C 0.5492(2) 0.1629(2) 0.13936(15)
H15 H 0.5364 0.2516 0.1555
H16 H 0.5450 0.1473 0.0878
H17 H 0.6319 0.1458 0.1556
C16 C 0.4701(2) -0.0699(2) 0.15165(12)
C17 C 0.4285(2) -0.1602(2) 0.19550(14)
H18 H 0.3889 -0.1333 0.2384
C18 C 0.4441(3) -0.2894(2) 0.17726(15)
H19 H 0.4136 -0.3496 0.2069
C19 C 0.5046(2) -0.3277(2) 0.11537(14)
C20 C 0.5489(3) -0.2416(2) 0.07053(15)
H20 H 0.5902 -0.2692 0.0283
C21 C 0.5310(2) -0.1137(2) 0.08912(14)
H21 H 0.5607 -0.0545 0.0588
C22 C 0.4406(2) 0.1107(2) 0.25062(13)
C23 C 0.5389(2) 0.1528(2) 0.29887(14)
H22 H 0.6252 0.1689 0.2877
C24 C 0.4886(2) 0.1673(2) 0.36753(14)
H23 H 0.5354 0.1952 0.4099
C25 C 0.3589(2) 0.1335(2) 0.36234(12)
C26 C 0.2592(2) 0.1171(2) 0.41970(12)
C27 C 0.2205(2) -0.0310(2) 0.41940(15)
H24 H 0.1549 -0.0423 0.4551
H25 H 0.1829 -0.0674 0.3728
C28 C 0.3318(3) -0.1067(3) 0.4348(2)
H26 H 0.3997 -0.0917 0.4017
H27 H 0.3026 -0.1976 0.4294
H28 H 0.3631 -0.0786 0.4831
C29 C 0.3181(2) 0.1813(3) 0.49311(13)
H29 H 0.3983 0.1454 0.5002
H30 H 0.3387 0.2732 0.4911
C30 C 0.2349(3) 0.1660(3) 0.55828(15)
H31 H 0.1504 0.1889 0.5492
H32 H 0.2727 0.2218 0.5994
H33 H 0.2290 0.0776 0.5673
C31 C 0.1392(2) 0.1795(2) 0.40529(12)
C32 C 0.0125(2) 0.1389(3) 0.41301(14)
H34 H -0.0200 0.0604 0.4272
C33 C -0.0614(2) 0.2369(3) 0.39561(14)
H35 H -0.1506 0.2339 0.3961
C34 C 0.0216(2) 0.3362(2) 0.37803(12)
C35 C 0.00063(19) 0.4637(2) 0.35172(12)
C36 C 0.0664(2) 0.5798(2) 0.40303(14)
H36 H 0.1570 0.5726 0.4058
H37 H 0.0303 0.5801 0.4500
H38 H 0.0528 0.6591 0.3853
C37 C -0.14534(19) 0.4742(2) 0.35067(12)
C38 C -0.2147(2) 0.4788(2) 0.41365(13)
H39 H -0.1711 0.4790 0.4568
C39 C -0.3455(2) 0.4832(2) 0.41445(14)
H40 H -0.3903 0.4853 0.4572
C40 C -0.4081(2) 0.4843(2) 0.35043(14)
C41 C -0.3444(2) 0.4823(2) 0.28702(14)
H41 H -0.3887 0.4836 0.2443
C42 C -0.2125(2) 0.4785(2) 0.28759(13)
H42 H -0.1681 0.4788 0.2448
N1 N 0.04118(16) 0.35983(16) 0.22634(10)
H43 H 0.0111 0.2834 0.2340
N2 N 0.26342(16) 0.19806(16) 0.13636(10)
H44 H 0.3013 0.2721 0.1548
N3 N 0.33060(16) 0.09905(17) 0.29045(10)
H45 H 0.2549 0.0737 0.2728
N4 N 0.14331(15) 0.30017(17) 0.38450(10)
H46 H 0.2128 0.3472 0.3766
N5 N 0.5219(2) -0.4650(2) 0.09570(14)
N6 N -0.5482(2) 0.4802(2) 0.35009(17)
O1 O 0.6021(2) -0.4942(2) 0.05114(14)
O2 O 0.4541(3) -0.5434(2) 0.12466(14)
O3 O -0.60329(17) 0.4962(2) 0.40699(13)
O4 O -0.60629(19) 0.4533(3) 0.29209(15)
loop_
_geom_bond_atom_site_label_1
_geom_bond_atom_site_label_2
_geom_bond_site_symmetry_1
_geom_bond_site_symmetry_2
C1 C2 1_555 1_555
C2 H1 1_555 1_555
C3 C2 1_555 1_555
H2 C3 1_555 1_555
C4 C3 1_555 1_555
C5 C4 1_555 1_555
C6 C5 1_555 1_555
H3 C6 1_555 1_555
H4 C6 1_555 1_555
C7 C6 1_555 1_555
H5 C7 1_555 1_555
H6 C7 1_555 1_555
H7 C7 1_555 1_555
C8 C5 1_555 1_555
H8 C8 1_555 1_555
H9 C8 1_555 1_555
C9 C8 1_555 1_555
H10 C9 1_555 1_555
H11 C9 1_555 1_555
H12 C9 1_555 1_555
C10 C5 1_555 1_555
C11 C10 1_555 1_555
H13 C11 1_555 1_555
C12 C11 1_555 1_555
H14 C12 1_555 1_555
C13 C12 1_555 1_555
C14 C13 1_555 1_555
C15 C14 1_555 1_555
H15 C15 1_555 1_555
H16 C15 1_555 1_555
H17 C15 1_555 1_555
C16 C14 1_555 1_555
C17 C16 1_555 1_555
H18 C17 1_555 1_555
C18 C17 1_555 1_555
H19 C18 1_555 1_555
C19 C18 1_555 1_555
C20 C19 1_555 1_555
H20 C20 1_555 1_555
C21 C16 1_555 1_555
H21 C21 1_555 1_555
C22 C14 1_555 1_555
C23 C22 1_555 1_555
H22 C23 1_555 1_555
C24 C23 1_555 1_555
H23 C24 1_555 1_555
C25 C24 1_555 1_555
C26 C25 1_555 1_555
C27 C26 1_555 1_555
H24 C27 1_555 1_555
H25 C27 1_555 1_555
C28 C27 1_555 1_555
H26 C28 1_555 1_555
H27 C28 1_555 1_555
H28 C28 1_555 1_555
C29 C26 1_555 1_555
H29 C29 1_555 1_555
H30 C29 1_555 1_555
C30 C29 1_555 1_555
H31 C30 1_555 1_555
H32 C30 1_555 1_555
H33 C30 1_555 1_555
C31 C26 1_555 1_555
C32 C31 1_555 1_555
H34 C32 1_555 1_555
C33 C32 1_555 1_555
H35 C33 1_555 1_555
C34 C33 1_555 1_555
C35 C1 1_555 1_555
C36 C35 1_555 1_555
H36 C36 1_555 1_555
H37 C36 1_555 1_555
H38 C36 1_555 1_555
C37 C35 1_555 1_555
C38 C37 1_555 1_555
H39 C38 1_555 1_555
C39 C38 1_555 1_555
H40 C39 1_555 1_555
C40 C39 1_555 1_555
C41 C40 1_555 1_555
H41 C41 1_555 1_555
C42 C37 1_555 1_555
H42 C42 1_555 1_555
N1 C1 1_555 1_555
H43 N1 1_555 1_555
N2 C10 1_555 1_555
H44 N2 1_555 1_555
N3 C22 1_555 1_555
H45 N3 1_555 1_555
N4 C31 1_555 1_555
H46 N4 1_555 1_555
N5 C19 1_555 1_555
N6 C40 1_555 1_555
O1 N5 1_555 1_555
O2 N5 1_555 1_555
O3 N6 1_555 1_555
O4 N6 1_555 1_555
C4 N1 1_555 1_555
C13 N2 1_555 1_555
C20 C21 1_555 1_555
C25 N3 1_555 1_555
C34 C35 1_555 1_555
C34 N4 1_555 1_555
C41 C42 1_555 1_555

#END
