
#######################################################################
#
#                 Cambridge Crystallographic Data Centre
#                                CCDC 
#
#######################################################################
#
# If this CIF has been generated from an entry in the Cambridge 
# Structural Database, then it will include bibliographic, chemical, 
# crystal, experimental, refinement or atomic coordinate data resulting 
# from the CCDC's data processing and validation procedures.
#
#######################################################################

data_MOVZEE
_chemical_formula_moiety         'C44 H46 N6 O4,2(C4 H8 O2)'
_chemical_name_systematic        
"7',17'-dimethyl-7',17'-bis(4-nitrophenyl)-21',22',23',24'-tetraazadispiro[cyclohexane-1,2'-pentacyclo[16.2.1.1^3,6^.1^8,11^.1^13,16^]tetracosane-12',1''-cyclohexane]-1'(20'),3',5',8',10',13',15',18'-octaene ethyl acetate solvate"
_symmetry_cell_setting           triclinic
_symmetry_space_group_name_H-M   'P -1'
_symmetry_Int_Tables_number      2
_space_group_name_Hall           '-P 1'
loop_
_symmetry_equiv_pos_site_id
_symmetry_equiv_pos_as_xyz
1 x,y,z
2 -x,-y,-z
_cell_length_a                   11.6052(12)
_cell_length_b                   14.4589(16)
_cell_length_c                   16.3359(18)
_cell_angle_alpha                75.251(3)
_cell_angle_beta                 71.592(3)
_cell_angle_gamma                70.705(3)
_cell_volume                     2420
_cell_formula_units_Z            2
loop_
_atom_site_label
_atom_site_type_symbol
_atom_site_fract_x
_atom_site_fract_y
_atom_site_fract_z
C1 C 0.33885(19) 0.40526(14) 0.27779(14)
C2 C 0.3587(2) 0.46435(16) 0.19813(15)
H1 H 0.3188 0.5317 0.1855
C3 C 0.4510(2) 0.40528(16) 0.13773(15)
H2 H 0.4823 0.4269 0.0785
C4 C 0.48558(19) 0.31139(15) 0.18178(14)
C5 C 0.57306(19) 0.21573(15) 0.15051(14)
C6 C 0.6555(2) 0.15488(17) 0.21383(17)
H3 H 0.6026 0.1347 0.2696
H4 H 0.7023 0.1948 0.2208
H5 H 0.7131 0.0971 0.1906
C7 C 0.66168(19) 0.24165(15) 0.06145(15)
C8 C 0.7385(2) 0.3014(2) 0.05340(19)
H6 H 0.7327 0.3266 0.1020
C9 C 0.8224(2) 0.3241(2) -0.0239(2)
H7 H 0.8718 0.3652 -0.0283
C10 C 0.8318(2) 0.28531(18) -0.09392(17)
C11 C 0.7590(2) 0.22506(19) -0.08928(17)
H8 H 0.7671 0.1989 -0.1379
C12 C 0.6735(2) 0.20418(17) -0.01116(16)
H9 H 0.6232 0.1641 -0.0075
C13 C 0.49395(19) 0.15379(15) 0.14475(14)
C14 C 0.5066(2) 0.05424(16) 0.16381(16)
H10 H 0.5683 0.0062 0.1882
C15 C 0.4099(2) 0.03665(15) 0.14006(16)
H11 H 0.3968 -0.0251 0.1459
C16 C 0.33869(19) 0.12614(14) 0.10693(14)
C17 C 0.22861(19) 0.15399(14) 0.06653(14)
C18 C 0.2809(2) 0.16927(17) -0.03395(15)
H12 H 0.3129 0.2274 -0.0524
H13 H 0.3513 0.1123 -0.0495
C19 C 0.1836(3) 0.1827(2) -0.08343(18)
H14 H 0.1193 0.2449 -0.0751
H15 H 0.2244 0.1860 -0.1455
C20 C 0.1222(3) 0.0984(2) -0.0526(2)
H16 H 0.0560 0.1120 -0.0818
H17 H 0.1845 0.0373 -0.0679
C21 C 0.0668(2) 0.08533(19) 0.0452(2)
H18 H 0.0314 0.0290 0.0636
H19 H -0.0010 0.1441 0.0598
C22 C 0.1658(2) 0.06853(16) 0.09396(17)
H20 H 0.2301 0.0069 0.0829
H21 H 0.1265 0.0618 0.1563
C23 C 0.13638(18) 0.24986(14) 0.09502(14)
C24 C 0.1206(2) 0.34622(15) 0.05480(15)
H22 H 0.1630 0.3685 -0.0018
C25 C 0.0286(2) 0.40671(15) 0.11381(15)
H23 H 0.0002 0.4757 0.1029
C26 C -0.01111(19) 0.34679(15) 0.18915(14)
C27 C -0.09845(19) 0.37010(15) 0.27677(15)
C28 C -0.1786(2) 0.29516(18) 0.31883(18)
H24 H -0.2250 0.2955 0.2794
H25 H -0.2365 0.3138 0.3725
H26 H -0.1241 0.2297 0.3307
C29 C -0.19314(18) 0.47339(15) 0.26382(14)
C30 C -0.2696(2) 0.49376(19) 0.20779(18)
H27 H -0.2578 0.4465 0.1744
C31 C -0.3627(2) 0.58179(19) 0.19985(19)
H28 H -0.4139 0.5937 0.1623
C32 C -0.3779(2) 0.65089(16) 0.24853(16)
C33 C -0.3028(2) 0.63503(17) 0.30298(17)
H29 H -0.3136 0.6837 0.3347
C34 C -0.2101(2) 0.54572(15) 0.31077(15)
H30 H -0.1590 0.5346 0.3481
C35 C -0.02180(19) 0.36456(15) 0.33813(14)
C36 C -0.0359(2) 0.32955(17) 0.42513(16)
H31 H -0.0990 0.3007 0.4618
C37 C 0.0616(2) 0.34444(18) 0.45034(16)
H32 H 0.0738 0.3273 0.5065
C38 C 0.13469(19) 0.38828(15) 0.37812(14)
C39 C 0.24792(19) 0.42609(15) 0.36479(14)
C40 C 0.2009(2) 0.53876(16) 0.36681(17)
H33 H 0.1658 0.5724 0.3170
H34 H 0.1337 0.5506 0.4195
C41 C 0.3040(3) 0.58360(18) 0.36454(19)
H35 H 0.3649 0.5812 0.3080
H36 H 0.2667 0.6528 0.3712
C42 C 0.3713(3) 0.5298(2) 0.4356(2)
H37 H 0.3140 0.5417 0.4921
H38 H 0.4421 0.5556 0.4274
C43 C 0.4186(3) 0.4188(2) 0.43437(19)
H39 H 0.4558 0.3856 0.4833
H40 H 0.4837 0.4064 0.3808
C44 C 0.3121(2) 0.37592(17) 0.44009(15)
H41 H 0.2498 0.3845 0.4954
H42 H 0.3458 0.3052 0.4387
N1 N 0.41667(15) 0.31204(12) 0.26661(11)
H43 H 0.4214 0.2610 0.3075
N2 N 0.39152(15) 0.19664(12) 0.11025(11)
H44 H 0.3640 0.2594 0.0930
N3 N 0.05564(15) 0.25065(12) 0.17701(11)
H45 H 0.0477 0.1985 0.2155
N4 N 0.08240(16) 0.40039(12) 0.31031(11)
H46 H 0.1111 0.4269 0.2574
N5 N 0.9228(2) 0.3079(2) -0.17685(18)
N6 N -0.4775(2) 0.74472(17) 0.24157(17)
O1 O 0.9702(2) 0.3742(2) -0.18544(16)
O2 O 0.9455(2) 0.2588(2) -0.23348(16)
O3 O -0.5430(2) 0.75817(16) 0.19263(16)
O4 O -0.4890(3) 0.80541(17) 0.2849(2)
C45 C 1.1207(10) 0.9040(5) 0.3829(9)
H47 H 1.1181 0.9276 0.4335
H48 H 1.1937 0.9137 0.3372
H49 H 1.1250 0.8345 0.3979
C46 C 1.0089(5) 0.9580(4) 0.3533(4)
C47 C 0.8371(5) 0.9341(4) 0.3293(4)
H50 H 0.7783 0.9930 0.3516
H51 H 0.8703 0.9528 0.2669
C48 C 0.7734(4) 0.8630(4) 0.3432(4)
H52 H 0.8322 0.8033 0.3241
H53 H 0.7103 0.8877 0.3108
H54 H 0.7338 0.8488 0.4044
O5 O 0.9895(3) 1.04066(19) 0.31526(19)
O6 O 0.9367(3) 0.89914(19) 0.3703(2)
C49 C 0.2285(2) 1.14007(18) 0.33560(18)
H55 H 0.2460 1.2012 0.3024
H56 H 0.1462 1.1542 0.3752
H57 H 0.2314 1.0992 0.2966
C50 C 0.3246(2) 1.08682(17) 0.38616(16)
C51 C 0.4047(3) 0.9349(2) 0.4725(2)
H58 H 0.4052 0.9691 0.5162
H59 H 0.4886 0.9205 0.4333
C52 C 0.3697(4) 0.8424(2) 0.5149(3)
H60 H 0.2866 0.8573 0.5535
H61 H 0.4290 0.8007 0.5478
H62 H 0.3705 0.8086 0.4711
O7 O 0.40336(17) 1.11957(12) 0.39298(12)
O8 O 0.31379(17) 0.99665(12) 0.42392(13)
loop_
_geom_bond_atom_site_label_1
_geom_bond_atom_site_label_2
_geom_bond_site_symmetry_1
_geom_bond_site_symmetry_2
C1 C2 1_555 1_555
C2 H1 1_555 1_555
C3 C2 1_555 1_555
H2 C3 1_555 1_555
C4 C3 1_555 1_555
C5 C4 1_555 1_555
C6 C5 1_555 1_555
H3 C6 1_555 1_555
H4 C6 1_555 1_555
H5 C6 1_555 1_555
C7 C5 1_555 1_555
C8 C7 1_555 1_555
H6 C8 1_555 1_555
C9 C8 1_555 1_555
H7 C9 1_555 1_555
C10 C9 1_555 1_555
C11 C10 1_555 1_555
H8 C11 1_555 1_555
C12 C7 1_555 1_555
H9 C12 1_555 1_555
C13 C5 1_555 1_555
C14 C13 1_555 1_555
H10 C14 1_555 1_555
C15 C14 1_555 1_555
H11 C15 1_555 1_555
C16 C15 1_555 1_555
C17 C16 1_555 1_555
C18 C17 1_555 1_555
H12 C18 1_555 1_555
H13 C18 1_555 1_555
C19 C18 1_555 1_555
H14 C19 1_555 1_555
H15 C19 1_555 1_555
C20 C19 1_555 1_555
H16 C20 1_555 1_555
H17 C20 1_555 1_555
C21 C20 1_555 1_555
H18 C21 1_555 1_555
H19 C21 1_555 1_555
C22 C17 1_555 1_555
H20 C22 1_555 1_555
H21 C22 1_555 1_555
C23 C17 1_555 1_555
C24 C23 1_555 1_555
H22 C24 1_555 1_555
C25 C24 1_555 1_555
H23 C25 1_555 1_555
C26 C25 1_555 1_555
C27 C26 1_555 1_555
C28 C27 1_555 1_555
H24 C28 1_555 1_555
H25 C28 1_555 1_555
H26 C28 1_555 1_555
C29 C27 1_555 1_555
C30 C29 1_555 1_555
H27 C30 1_555 1_555
C31 C30 1_555 1_555
H28 C31 1_555 1_555
C32 C31 1_555 1_555
C33 C32 1_555 1_555
H29 C33 1_555 1_555
C34 C29 1_555 1_555
H30 C34 1_555 1_555
C35 C27 1_555 1_555
C36 C35 1_555 1_555
H31 C36 1_555 1_555
C37 C36 1_555 1_555
H32 C37 1_555 1_555
C38 C37 1_555 1_555
C39 C1 1_555 1_555
C40 C39 1_555 1_555
H33 C40 1_555 1_555
H34 C40 1_555 1_555
C41 C40 1_555 1_555
H35 C41 1_555 1_555
H36 C41 1_555 1_555
C42 C41 1_555 1_555
H37 C42 1_555 1_555
H38 C42 1_555 1_555
C43 C42 1_555 1_555
H39 C43 1_555 1_555
H40 C43 1_555 1_555
C44 C39 1_555 1_555
H41 C44 1_555 1_555
H42 C44 1_555 1_555
N1 C1 1_555 1_555
H43 N1 1_555 1_555
N2 C13 1_555 1_555
H44 N2 1_555 1_555
N3 C23 1_555 1_555
H45 N3 1_555 1_555
N4 C35 1_555 1_555
H46 N4 1_555 1_555
N5 C10 1_555 1_555
N6 C32 1_555 1_555
O1 N5 1_555 1_555
O2 N5 1_555 1_555
O3 N6 1_555 1_555
O4 N6 1_555 1_555
C45 H47 1_555 1_555
H48 C45 1_555 1_555
H49 C45 1_555 1_555
C46 C45 1_555 1_555
C47 H50 1_555 1_555
H51 C47 1_555 1_555
C48 C47 1_555 1_555
H52 C48 1_555 1_555
H53 C48 1_555 1_555
H54 C48 1_555 1_555
O5 C46 1_555 1_555
O6 C46 1_555 1_555
C49 H55 1_555 1_555
H56 C49 1_555 1_555
H57 C49 1_555 1_555
C50 C49 1_555 1_555
C51 H58 1_555 1_555
H59 C51 1_555 1_555
C52 C51 1_555 1_555
H60 C52 1_555 1_555
H61 C52 1_555 1_555
H62 C52 1_555 1_555
O7 C50 1_555 1_555
O8 C50 1_555 1_555
C4 N1 1_555 1_555
C11 C12 1_555 1_555
C16 N2 1_555 1_555
C21 C22 1_555 1_555
C26 N3 1_555 1_555
C33 C34 1_555 1_555
C38 C39 1_555 1_555
C38 N4 1_555 1_555
C43 C44 1_555 1_555
C47 O6 1_555 1_555
C51 O8 1_555 1_555

#END
