
#######################################################################
#
#                 Cambridge Crystallographic Data Centre
#                                CCDC 
#
#######################################################################
#
# If this CIF has been generated from an entry in the Cambridge 
# Structural Database, then it will include bibliographic, chemical, 
# crystal, experimental, refinement or atomic coordinate data resulting 
# from the CCDC's data processing and validation procedures.
#
#######################################################################

data_MOWHUB
_chemical_formula_moiety         'C17 H31 N3 O6'
_chemical_name_systematic        
't-butoxycarbonyl-\g-aminobutyryl-\a-aminoisobutyryl-alanine methyl ester'
_symmetry_cell_setting           monoclinic
_symmetry_space_group_name_H-M   'P 21'
_symmetry_Int_Tables_number      4
_space_group_name_Hall           'P 2yb'
loop_
_symmetry_equiv_pos_site_id
_symmetry_equiv_pos_as_xyz
1 x,y,z
2 -x,1/2+y,-z
_cell_length_a                   9.3020(10)
_cell_length_b                   23.785(2)
_cell_length_c                   10.022(3)
_cell_angle_alpha                90
_cell_angle_beta                 101.35(4)
_cell_angle_gamma                90
_cell_volume                     2173.98
_exptl_crystal_colour            colorless
_exptl_crystal_description       needle
_cell_formula_units_Z            4
_exptl_crystal_recrystallization_method 'ethyl acetate/toluene'
loop_
_atom_site_label
_atom_site_type_symbol
_atom_site_fract_x
_atom_site_fract_y
_atom_site_fract_z
O1 O 0.0469(4) 0.1174(2) 0.3274(4)
O3 O 0.3595(4) 0.0260(3) 0.3678(4)
O5 O -0.3148(5) -0.0297(2) 0.5935(5)
N1 N -0.3287(5) 0.0250(3) 0.4154(6)
C1 C -0.2447(7) -0.0112(3) 0.4979(7)
C2 C 0.2532(7) 0.0282(3) 0.4243(6)
O8 O -0.1219(5) -0.0250(3) 0.4880(6)
N4 N 0.1008(5) 0.0873(3) 0.5425(5)
O9 O 0.2862(6) -0.1300(3) 0.2628(6)
N5 N 0.1423(6) -0.0068(3) 0.3948(6)
C4 C 0.0118(6) 0.1107(3) 0.4381(5)
C5 C -0.2799(7) 0.0560(3) 0.3080(7)
C6 C 0.2558(9) -0.0962(4) 0.3617(9)
C8 C 0.2508(7) 0.0688(4) 0.5425(6)
C9 C -0.2603(7) 0.1176(3) 0.3403(7)
C13 C 0.1373(7) -0.0548(4) 0.3025(8)
C14 C -0.1391(7) 0.1293(3) 0.4611(6)
C18 C -0.2568(8) -0.0753(3) 0.6872(8)
C20 C 0.3102(8) 0.0374(5) 0.6727(7)
C21 C -0.1059(10) -0.0612(5) 0.7663(9)
C22 C 0.3487(8) 0.1214(4) 0.5330(7)
O10 O 0.3131(8) -0.1014(3) 0.4739(6)
C26 C 0.3848(11) -0.1775(5) 0.3121(12)
C29 C 0.1294(11) -0.0367(4) 0.1565(7)
C31 C -0.3726(10) -0.0793(5) 0.7721(10)
C33 C -0.2531(11) -0.1283(5) 0.6044(11)
H1 H -0.4170(5) 0.0302(3) 0.4265(6)
H4 H 0.0680(5) 0.0827(3) 0.6162(5)
H5 H 0.0679(6) -0.0012(3) 0.4322(6)
H6 H -0.3511(7) 0.0514(3) 0.2239(7)
H7 H -0.1875(7) 0.0405(3) 0.2942(7)
H9 H -0.3516(7) 0.1326(3) 0.3584(7)
H10 H -0.2389(7) 0.1370(3) 0.2614(7)
H15 H 0.0442(7) -0.0739(4) 0.3038(8)
H16 H -0.1366(7) 0.1693(3) 0.4804(6)
H17 H -0.1604(7) 0.1099(3) 0.5401(6)
H23 H 0.3102(8) 0.0617(5) 0.7491(7)
H24 H 0.4085(8) 0.0252(5) 0.6725(7)
H25 H 0.2496(8) 0.0052(5) 0.6793(7)
H26 H -0.1103(10) -0.0271(5) 0.8168(9)
H27 H -0.0402(10) -0.0560(5) 0.7044(9)
H28 H -0.0710(20) -0.0913(5) 0.8280(9)
H29 H 0.3115(8) 0.1413(4) 0.4501(7)
H30 H 0.4475(8) 0.1095(4) 0.5339(7)
H31 H 0.3472(8) 0.1456(4) 0.6093(7)
H39 H 0.4015(11) -0.1993(5) 0.2359(12)
H40 H 0.3405(11) -0.2008(5) 0.3710(12)
H41 H 0.4766(11) -0.1632(5) 0.3614(12)
H45 H 0.0483(11) -0.0115(4) 0.1298(7)
H46 H 0.1162(11) -0.0692(4) 0.0985(7)
H47 H 0.2188(11) -0.0180(4) 0.1487(7)
H51 H -0.3753(10) -0.0449(5) 0.8217(10)
H52 H -0.3502(10) -0.1100(5) 0.8350(10)
H53 H -0.4663(10) -0.0856(5) 0.7141(10)
H57 H -0.1769(11) -0.1253(5) 0.5526(11)
H58 H -0.3459(11) -0.1332(5) 0.5438(11)
H59 H -0.2341(11) -0.1601(5) 0.6644(11)
O2 O -0.0476(4) -0.4040(2) 1.1723(4)
O4 O -0.3632(4) -0.3183(3) 1.1393(5)
O6 O 0.3105(5) -0.2545(2) 0.9102(5)
O7 O 0.1205(5) -0.2579(3) 1.0197(6)
N2 N 0.3277(5) -0.3079(3) 1.0894(6)
N3 N -0.0955(5) -0.3693(3) 0.9591(5)
C3 C -0.2555(6) -0.3159(4) 1.0837(6)
C7 C -0.0090(6) -0.3952(3) 1.0636(5)
N6 N -0.1488(6) -0.2783(3) 1.1242(5)
C10 C 0.1379(6) -0.4125(3) 1.0397(6)
C11 C -0.2481(7) -0.3534(4) 0.9616(6)
C12 C 0.2825(7) -0.3395(3) 1.1956(7)
C15 C 0.2592(6) -0.4011(3) 1.1629(7)
C16 C -0.2963(10) -0.3128(5) 0.8367(7)
C17 C 0.2412(7) -0.2722(3) 1.0089(7)
C19 C 0.2519(10) -0.2089(4) 0.8174(9)
C23 C 0.3599(12) -0.2077(5) 0.7194(11)
C24 C 0.2546(14) -0.1551(4) 0.8953(11)
O11 O -0.2378(13) -0.1755(4) 1.0310(8)
O12 O -0.2637(8) -0.1465(3) 1.2325(7)
C25 C -0.1627(8) -0.2356(3) 1.2219(7)
C27 C -0.2272(10) -0.1829(4) 1.1506(9)
C28 C -0.0142(9) -0.2212(4) 1.3111(8)
C30 C -0.3453(7) -0.4027(5) 0.9533(9)
C32 C 0.1018(11) -0.2227(6) 0.7353(9)
C34 C -0.3259(15) -0.0940(5) 1.1787(11)
H2 H 0.4158(5) -0.3123(3) 1.0770(6)
H3 H -0.0608(5) -0.3616(3) 0.8878(5)
H8 H -0.0704(6) -0.2798(3) 1.0910(5)
H11 H 0.1590(6) -0.3921(3) 0.9619(6)
H12 H 0.1362(6) -0.4523(3) 1.0184(6)
H13 H 0.1918(7) -0.3236(3) 1.2130(7)
H14 H 0.3562(7) -0.3356(3) 1.2782(7)
H18 H 0.2353(6) -0.4201(3) 1.2414(7)
H19 H 0.3501(6) -0.4170(3) 1.1463(7)
H20 H -0.2301(10) -0.2815(5) 0.8444(7)
H21 H -0.3939(10) -0.2994(5) 0.8356(7)
H22 H -0.2944(10) -0.3328(5) 0.7538(7)
H32 H 0.4567(12) -0.1996(5) 0.7695(11)
H33 H 0.3306(12) -0.1791(5) 0.6519(11)
H34 H 0.3598(12) -0.2436(5) 0.6757(11)
H35 H 0.3516(4) -0.1488(4) 0.9471(11)
H36 H 0.1866(14) -0.1575(4) 0.9558(11)
H37 H 0.2274(14) -0.1245(4) 0.8330(11)
H38 H -0.2283(8) -0.2493(3) 1.2803(7)
H42 H 0.0285(9) -0.2546(4) 1.3563(8)
H43 H -0.0276(9) -0.1937(4) 1.3777(8)
H44 H 0.0496(9) -0.2063(4) 1.2553(8)
H48 H -0.3377(7) -0.4245(5) 0.8745(9)
H49 H -0.4447(7) -0.3904(5) 0.9467(9)
H50 H -0.3167(7) -0.4253(5) 1.0335(9)
H54 H 0.0326(11) -0.2245(6) 0.7947(9)
H55 H 0.1052(11) -0.2583(6) 0.6910(9)
H56 H 0.0723(11) -0.1940(6) 0.6681(9)
H60 H -0.3459(15) -0.0710(5) 1.2517(11)
H61 H -0.4156(15) -0.1010(5) 1.1149(11)
H62 H -0.2581(15) -0.0749(5) 1.1336(11)
loop_
_geom_bond_atom_site_label_1
_geom_bond_atom_site_label_2
_geom_bond_site_symmetry_1
_geom_bond_site_symmetry_2
O1 C4 1_555 1_555
O2 C7 1_555 1_555
O3 C2 1_555 1_555
O4 C3 1_555 1_555
O5 C1 1_555 1_555
N1 C1 1_555 1_555
O6 C17 1_555 1_555
C1 O8 1_555 1_555
O7 C17 1_555 1_555
N2 C12 1_555 1_555
C2 N5 1_555 1_555
N3 C7 1_555 1_555
N4 C4 1_555 1_555
C3 N6 1_555 1_555
O9 C6 1_555 1_555
N5 C13 1_555 1_555
C4 C14 1_555 1_555
C5 N1 1_555 1_555
C6 C13 1_555 1_555
C7 C10 1_555 1_555
N6 C25 1_555 1_555
C8 C2 1_555 1_555
C9 C5 1_555 1_555
C10 C15 1_555 1_555
C11 N3 1_555 1_555
C12 C15 1_555 1_555
C13 C29 1_555 1_555
C14 C9 1_555 1_555
C15 H18 1_555 1_555
C16 C11 1_555 1_555
C17 N2 1_555 1_555
C18 O5 1_555 1_555
C19 O6 1_555 1_555
C20 C8 1_555 1_555
C21 C18 1_555 1_555
C22 C8 1_555 1_555
O10 C6 1_555 1_555
C23 C19 1_555 1_555
C24 C19 1_555 1_555
O11 C27 1_555 1_555
O12 C27 1_555 1_555
C25 C27 1_555 1_555
C26 O9 1_555 1_555
C28 C25 1_555 1_555
C29 H45 1_555 1_555
C30 C11 1_555 1_555
C31 C18 1_555 1_555
C32 C19 1_555 1_555
C33 C18 1_555 1_555
C34 O12 1_555 1_555
H1 N1 1_555 1_555
H2 N2 1_555 1_555
H3 N3 1_555 1_555
H4 N4 1_555 1_555
H5 N5 1_555 1_555
H6 C5 1_555 1_555
H7 C5 1_555 1_555
H8 N6 1_555 1_555
H9 C9 1_555 1_555
H10 C9 1_555 1_555
H11 C10 1_555 1_555
H12 C10 1_555 1_555
H13 C12 1_555 1_555
H14 C12 1_555 1_555
H15 C13 1_555 1_555
H16 C14 1_555 1_555
H17 C14 1_555 1_555
H19 C15 1_555 1_555
H20 C16 1_555 1_555
H21 C16 1_555 1_555
H22 C16 1_555 1_555
H23 C20 1_555 1_555
H24 C20 1_555 1_555
H25 C20 1_555 1_555
H26 C21 1_555 1_555
H27 C21 1_555 1_555
H28 C21 1_555 1_555
H29 C22 1_555 1_555
H30 C22 1_555 1_555
H31 C22 1_555 1_555
H32 C23 1_555 1_555
H33 C23 1_555 1_555
H34 C23 1_555 1_555
H35 C24 1_555 1_555
H36 C24 1_555 1_555
H37 C24 1_555 1_555
H38 C25 1_555 1_555
H39 C26 1_555 1_555
H40 C26 1_555 1_555
H41 C26 1_555 1_555
H42 C28 1_555 1_555
H43 C28 1_555 1_555
H44 C28 1_555 1_555
H46 C29 1_555 1_555
H47 C29 1_555 1_555
H48 C30 1_555 1_555
H49 C30 1_555 1_555
H50 C30 1_555 1_555
H51 C31 1_555 1_555
H52 C31 1_555 1_555
H53 C31 1_555 1_555
H54 C32 1_555 1_555
H55 C32 1_555 1_555
H56 C32 1_555 1_555
H57 C33 1_555 1_555
H58 C33 1_555 1_555
H59 C33 1_555 1_555
H60 C34 1_555 1_555
H61 C34 1_555 1_555
H62 C34 1_555 1_555
N4 C8 1_555 1_555
C3 C11 1_555 1_555

#END
