
#######################################################################
#
#                 Cambridge Crystallographic Data Centre
#                                CCDC 
#
#######################################################################
#
# If this CIF has been generated from an entry in the Cambridge 
# Structural Database, then it will include bibliographic, chemical, 
# crystal, experimental, refinement or atomic coordinate data resulting 
# from the CCDC's data processing and validation procedures.
#
#######################################################################

data_MOWPIZ
_chemical_formula_moiety         'C42 H62 O7'
_chemical_name_systematic        
'5-((6-acetoxy-11a-hydroxy-7a-isopropyl-4,4,9,12b-tetramethyl-7,12-dioxo-1,2,3,4,4a,5,6,7,7a,8,11,11a,12,12b-tetradecahydrotetraphen-8-yl)methyl)-1,4a,6-trimethyldecahydronaphthalene-1-carboxylic acid'
_symmetry_cell_setting           orthorhombic
_symmetry_space_group_name_H-M   'P 21 21 21'
_symmetry_Int_Tables_number      19
_space_group_name_Hall           'P 2ac 2ab'
loop_
_symmetry_equiv_pos_site_id
_symmetry_equiv_pos_as_xyz
1 x,y,z
2 1/2-x,-y,1/2+z
3 -x,1/2+y,1/2-z
4 1/2+x,1/2-y,-z
_cell_length_a                   13.1166(2)
_cell_length_b                   17.5883(2)
_cell_length_c                   18.6924(3)
_cell_angle_alpha                90
_cell_angle_beta                 90
_cell_angle_gamma                90
_cell_volume                     4312.31
_cell_formula_units_Z            4
loop_
_atom_site_label
_atom_site_type_symbol
_atom_site_fract_x
_atom_site_fract_y
_atom_site_fract_z
O1 O 0.2837(2) 0.12032(15) -0.03778(17)
O2 O 0.4475(3) 0.10016(15) -0.05176(18)
O3 O 0.74031(15) 0.51406(10) -0.03763(11)
H1 H 0.7464 0.5071 -0.0808
O4 O 0.8304(2) 0.68192(14) -0.03291(14)
O5 O 0.61654(18) 0.50934(13) 0.13992(12)
O6 O 0.73071(19) 0.60388(13) 0.23578(12)
O7 O 0.7329(3) 0.5205(2) 0.32301(15)
C1 C 0.5535(3) 0.30771(17) -0.10001(19)
H2 H 0.5396 0.3437 -0.1381
H3 H 0.6178 0.3220 -0.0781
C2 C 1.0126(3) 0.6044(2) 0.0233(2)
H4 H 0.9956 0.5543 0.0050
H5 H 0.9974 0.6412 -0.0138
C3 C 0.5639(3) 0.2285(2) -0.1321(2)
H6 H 0.6170 0.2286 -0.1682
H7 H 0.5834 0.1927 -0.0950
C4 C 1.1253(3) 0.6072(3) 0.0400(3)
H8 H 1.1637 0.5954 -0.0029
H9 H 1.1435 0.6581 0.0551
C5 C 0.4639(3) 0.2037(2) -0.1654(2)
H10 H 0.4720 0.1523 -0.1834
H11 H 0.4502 0.2363 -0.2062
C6 C 1.1532(3) 0.5518(3) 0.0977(3)
H12 H 1.2253 0.5570 0.1082
H13 H 1.1421 0.5006 0.0800
C7 C 0.3714(3) 0.20540(17) -0.1164(2)
C8 C 1.0934(3) 0.5619(2) 0.1668(2)
C9 C 0.3686(2) 0.28393(17) -0.0774(2)
H14 H 0.3542 0.3204 -0.1157
C10 C 0.9791(2) 0.56571(17) 0.14846(17)
H15 H 0.9626 0.5150 0.1300
C11 C 0.2775(3) 0.2922(2) -0.0265(3)
H16 H 0.2865 0.2581 0.0138
H17 H 0.2157 0.2774 -0.0514
C12 C 0.9077(3) 0.5764(2) 0.21302(18)
H18 H 0.9302 0.5442 0.2521
H19 H 0.9108 0.6288 0.2290
C13 C 0.7992(2) 0.55664(18) 0.19357(16)
H20 H 0.7864 0.5029 0.2043
C14 C 0.2655(3) 0.3740(2) 0.0013(3)
H21 H 0.2422 0.4067 -0.0371
H22 H 0.2149 0.3752 0.0391
C15 C 0.7705(2) 0.57267(15) 0.11780(15)
C16 C 0.3647(3) 0.40231(19) 0.0292(3)
C17 C 0.8350(2) 0.60515(16) 0.07108(16)
C18 C 0.4494(2) 0.39926(16) -0.0236(2)
H23 H 0.4221 0.4227 -0.0671
C19 C 0.4688(2) 0.31324(16) -0.04396(18)
C20 C 0.9469(2) 0.62099(16) 0.08809(18)
C21 C 0.7915(3) 0.63125(17) 0.00124(16)
C22 C 0.5444(2) 0.44538(16) -0.00510(18)
H24 H 0.5950 0.4375 -0.0422
H25 H 0.5725 0.4263 0.0394
C23 C 0.5246(2) 0.53195(15) 0.00273(17)
H26 H 0.4689 0.5371 0.0373
C24 C 0.6978(2) 0.58950(15) -0.02495(16)
C25 C 0.6141(2) 0.58152(15) 0.03188(16)
C26 C 0.4862(3) 0.56723(17) -0.06693(19)
C27 C 0.6637(3) 0.55085(16) 0.09898(17)
C28 C 0.5501(3) 0.60485(17) -0.11083(18)
H27 H 0.5244 0.6203 -0.1549
C29 C 0.6578(3) 0.62369(17) -0.09505(16)
H28 H 0.6648 0.6785 -0.0928
H29 H 0.7000 0.6057 -0.1342
C30 C 0.5671(3) 0.66253(17) 0.05396(18)
H30 H 0.5357 0.6834 0.0106
C31 C 0.3729(3) 0.5693(2) -0.0803(2)
H31 H 0.3598 0.5917 -0.1262
H32 H 0.3404 0.5992 -0.0438
H33 H 0.3462 0.5185 -0.0793
C32 C 0.4817(4) 0.6550(2) 0.1088(3)
H34 H 0.4558 0.7046 0.1203
H35 H 0.5078 0.6314 0.1513
H36 H 0.4279 0.6244 0.0892
C33 C 0.6396(3) 0.72263(18) 0.0811(2)
H37 H 0.6022 0.7679 0.0925
H38 H 0.6892 0.7338 0.0449
H39 H 0.6736 0.7043 0.1232
C34 C 0.3767(4) 0.4201(2) 0.0967(3)
H40 H 0.4458 0.4359 0.1048
H41 H 0.3618 0.3766 0.1259
H42 H 0.3312 0.4609 0.1089
C35 C 0.2766(3) 0.1958(2) -0.1645(2)
H43 H 0.2793 0.1473 -0.1880
H44 H 0.2754 0.2356 -0.1997
H45 H 0.2161 0.1987 -0.1357
C36 C 1.1134(3) 0.4911(3) 0.2149(3)
H46 H 1.0902 0.4462 0.1907
H47 H 1.0773 0.4967 0.2592
H48 H 1.1851 0.4869 0.2243
C37 C 0.3735(4) 0.1377(2) -0.0653(2)
C38 C 1.1336(3) 0.6310(3) 0.2086(3)
H49 H 1.1232 0.6763 0.1809
H50 H 1.2050 0.6246 0.2179
H51 H 1.0975 0.6353 0.2531
C39 C 0.9523(3) 0.70607(17) 0.1083(2)
H52 H 0.9316 0.7364 0.0682
H53 H 1.0210 0.7189 0.1213
H54 H 0.9078 0.7158 0.1480
C40 C 0.4990(3) 0.26951(18) 0.02341(19)
H55 H 0.5124 0.2174 0.0113
H56 H 0.4444 0.2718 0.0576
H57 H 0.5592 0.2918 0.0437
C41 C 0.7023(3) 0.5788(3) 0.2991(2)
C42 C 0.6302(5) 0.6313(4) 0.3360(2)
H58 H 0.6112 0.6102 0.3814
H59 H 0.5705 0.6380 0.3070
H60 H 0.6627 0.6796 0.3433
loop_
_geom_bond_atom_site_label_1
_geom_bond_atom_site_label_2
_geom_bond_site_symmetry_1
_geom_bond_site_symmetry_2
O1 C37 1_555 1_555
O2 C37 1_555 1_555
O3 H1 1_555 1_555
O4 C21 1_555 1_555
O5 C27 1_555 1_555
O6 C13 1_555 1_555
O7 C41 1_555 1_555
C1 H2 1_555 1_555
H3 C1 1_555 1_555
C2 H4 1_555 1_555
H5 C2 1_555 1_555
C3 C1 1_555 1_555
H6 C3 1_555 1_555
H7 C3 1_555 1_555
C4 C2 1_555 1_555
H8 C4 1_555 1_555
H9 C4 1_555 1_555
C5 C3 1_555 1_555
H10 C5 1_555 1_555
H11 C5 1_555 1_555
C6 C4 1_555 1_555
H12 C6 1_555 1_555
H13 C6 1_555 1_555
C7 C5 1_555 1_555
C8 C6 1_555 1_555
C9 C7 1_555 1_555
H14 C9 1_555 1_555
C10 C8 1_555 1_555
H15 C10 1_555 1_555
C11 C9 1_555 1_555
H16 C11 1_555 1_555
H17 C11 1_555 1_555
C12 C10 1_555 1_555
H18 C12 1_555 1_555
H19 C12 1_555 1_555
C13 C12 1_555 1_555
H20 C13 1_555 1_555
C14 C11 1_555 1_555
H21 C14 1_555 1_555
H22 C14 1_555 1_555
C15 C13 1_555 1_555
C16 C14 1_555 1_555
C17 C15 1_555 1_555
C18 C16 1_555 1_555
H23 C18 1_555 1_555
C19 C1 1_555 1_555
C20 C2 1_555 1_555
C21 C17 1_555 1_555
C22 C18 1_555 1_555
H24 C22 1_555 1_555
H25 C22 1_555 1_555
C23 C22 1_555 1_555
H26 C23 1_555 1_555
C24 O3 1_555 1_555
C25 C23 1_555 1_555
C26 C23 1_555 1_555
C27 C15 1_555 1_555
C28 C26 1_555 1_555
H27 C28 1_555 1_555
C29 C24 1_555 1_555
H28 C29 1_555 1_555
H29 C29 1_555 1_555
C30 C25 1_555 1_555
H30 C30 1_555 1_555
C31 C26 1_555 1_555
H31 C31 1_555 1_555
H32 C31 1_555 1_555
H33 C31 1_555 1_555
C32 C30 1_555 1_555
H34 C32 1_555 1_555
H35 C32 1_555 1_555
H36 C32 1_555 1_555
C33 C30 1_555 1_555
H37 C33 1_555 1_555
H38 C33 1_555 1_555
H39 C33 1_555 1_555
C34 C16 1_555 1_555
H40 C34 1_555 1_555
H41 C34 1_555 1_555
H42 C34 1_555 1_555
C35 C7 1_555 1_555
H43 C35 1_555 1_555
H44 C35 1_555 1_555
H45 C35 1_555 1_555
C36 C8 1_555 1_555
H46 C36 1_555 1_555
H47 C36 1_555 1_555
H48 C36 1_555 1_555
C37 C7 1_555 1_555
C38 C8 1_555 1_555
H49 C38 1_555 1_555
H50 C38 1_555 1_555
H51 C38 1_555 1_555
C39 C20 1_555 1_555
H52 C39 1_555 1_555
H53 C39 1_555 1_555
H54 C39 1_555 1_555
C40 C19 1_555 1_555
H55 C40 1_555 1_555
H56 C40 1_555 1_555
H57 C40 1_555 1_555
C41 O6 1_555 1_555
C42 C41 1_555 1_555
H58 C42 1_555 1_555
H59 C42 1_555 1_555
H60 C42 1_555 1_555
C9 C19 1_555 1_555
C10 C20 1_555 1_555
C17 C20 1_555 1_555
C18 C19 1_555 1_555
C21 C24 1_555 1_555
C24 C25 1_555 1_555
C25 C27 1_555 1_555
C28 C29 1_555 1_555

#END
