
#######################################################################
#
#                 Cambridge Crystallographic Data Centre
#                                CCDC 
#
#######################################################################
#
# If this CIF has been generated from an entry in the Cambridge 
# Structural Database, then it will include bibliographic, chemical, 
# crystal, experimental, refinement or atomic coordinate data resulting 
# from the CCDC's data processing and validation procedures.
#
#######################################################################

data_MOXCAD
_chemical_formula_moiety         'C14 H19 N3 O6'
_chemical_name_systematic        
'N,N-bis(2,5-Dioxopyrrolidin-1-ylmethyl)-\g-amino-butyric acid'
_symmetry_cell_setting           monoclinic
_symmetry_space_group_name_H-M   'P 21'
_symmetry_Int_Tables_number      4
_space_group_name_Hall           'P 2yb'
loop_
_symmetry_equiv_pos_site_id
_symmetry_equiv_pos_as_xyz
1 x,y,z
2 -x,1/2+y,-z
_cell_length_a                   9.0782(3)
_cell_length_b                   5.3717(2)
_cell_length_c                   16.0105(6)
_cell_angle_alpha                90
_cell_angle_beta                 98.591(2)
_cell_angle_gamma                90
_cell_volume                     771.998
_exptl_crystal_colour            colorless
_cell_formula_units_Z            2
loop_
_atom_site_label
_atom_site_type_symbol
_atom_site_fract_x
_atom_site_fract_y
_atom_site_fract_z
O1 O 0.5996(2) 1.2442(5) 0.2656(1)
O2 O 0.5054(2) 1.1420(5) 0.1367(1)
O3 O 0.0193(2) 1.0609(4) 0.4365(1)
O4 O 0.3195(2) 0.4025(4) 0.4085(1)
O5 O -0.2336(2) 0.6000(4) 0.2125(1)
O6 O -0.0593(2) 1.1992(4) 0.0541(1)
N1 N 0.0935(2) 0.8244(4) 0.2576(1)
N2 N 0.1537(2) 0.7254(3) 0.4053(1)
N3 N -0.1213(2) 0.9082(3) 0.1479(1)
C1 C 0.5075(2) 1.1200(5) 0.2111(2)
C5 C 0.4290(7) 0.9149(12) 0.2638(4)
C6 C 0.2926(4) 0.8479(8) 0.1721(2)
C7 C 0.1821(6) 0.6778(11) 0.2064(3)
C8 C 0.0611(2) 0.6682(5) 0.3250(1)
C9 C 0.1217(2) 0.9186(5) 0.4555(1)
C10 C 0.2363(3) 0.9191(5) 0.5335(1)
C11 C 0.3277(2) 0.6854(5) 0.5273(1)
C12 C 0.2722(2) 0.5821(4) 0.4415(1)
C13 C -0.0188(2) 0.9971(4) 0.2227(1)
C14 C -0.2200(2) 0.7178(5) 0.1490(1)
C15 C -0.3048(3) 0.6831(2) 0.0616(2)
C16 C -0.2511(2) 0.8892(5) 0.0100(1)
C17 C -0.1329(2) 1.0208(4) 0.0688(1)
C2? C 0.3969(10) 0.9867(15) 0.2365(5)
C3? C 0.3426(5) 0.7027(12) 0.2234(3)
C4? C 0.1851(8) 0.7888(18) 0.1872(5)
loop_
_geom_bond_atom_site_label_1
_geom_bond_atom_site_label_2
_geom_bond_site_symmetry_1
_geom_bond_site_symmetry_2
O1 C1 1_555 1_555
O2 C1 1_555 1_555
O3 C9 1_555 1_555
O4 C12 1_555 1_555
O5 C14 1_555 1_555
O6 C17 1_555 1_555
N1 C7 1_555 1_555
N2 C8 1_555 1_555
N3 C13 1_555 1_555
C1 C5 1_555 1_555
C5 C6 1_555 1_555
C6 C7 1_555 1_555
C8 N1 1_555 1_555
C9 N2 1_555 1_555
C10 C9 1_555 1_555
C11 C10 1_555 1_555
C12 N2 1_555 1_555
C13 N1 1_555 1_555
C14 N3 1_555 1_555
C15 C14 1_555 1_555
C16 C15 1_555 1_555
C17 N3 1_555 1_555
C11 C12 1_555 1_555
C16 C17 1_555 1_555

#END
