
#######################################################################
#
#                 Cambridge Crystallographic Data Centre
#                                CCDC 
#
#######################################################################
#
# If this CIF has been generated from an entry in the Cambridge 
# Structural Database, then it will include bibliographic, chemical, 
# crystal, experimental, refinement or atomic coordinate data resulting 
# from the CCDC's data processing and validation procedures.
#
#######################################################################

data_MOXVIF03
_chemical_name_common            'carbamazepine 4-hydroxybenzoic acid'
_chemical_formula_moiety         'C15 H12 N2 O1,C7 H6 O3'
_chemical_name_systematic        
'5H-dibenzo[b,f]azepine-5-carboxamide 4-hydroxybenzoic acid'
_symmetry_cell_setting           monoclinic
_symmetry_space_group_name_H-M   'P 21'
_symmetry_Int_Tables_number      4
_space_group_name_Hall           'P 2ybc'
loop_
_symmetry_equiv_pos_site_id
_symmetry_equiv_pos_as_xyz
1 x,y,z
2 -x,1/2+y,1/2-z
_cell_length_a                   7.1120(10)
_cell_length_b                   12.7640(10)
_cell_length_c                   20.288(4)
_cell_angle_alpha                90
_cell_angle_beta                 92.143(3)
_cell_angle_gamma                90
_cell_volume                     1840.41
_cell_formula_units_Z            4
loop_
_atom_site_label
_atom_site_type_symbol
_atom_site_fract_x
_atom_site_fract_y
_atom_site_fract_z
C1 C 0.4177(4) -0.0453(3) 0.58570(16)
O1 O 0.1461(4) 0.0462(3) 0.54871(14)
C2 C 0.5348(5) -0.1327(3) 0.5803(2)
H1 H 0.4957 -0.1889 0.5541
C3 C 0.7073(5) -0.1364(4) 0.61341(17)
H2 H 0.7844 -0.1947 0.6094
C4 C 0.7657(4) -0.0524(3) 0.65293(15)
C5 C 0.6521(5) 0.0369(3) 0.65853(19)
O2 O 0.1657(4) -0.1249(3) 0.52515(16)
C6 C 0.4793(5) 0.0394(3) 0.62379(15)
H3 H 0.4039 0.0987 0.6261
O3 O 0.9350(3) -0.0595(3) 0.68655(13)
C7 C 0.2325(5) -0.0444(3) 0.55063(18)
H4 H 0.931(6) -0.005(5) 0.720(2)
H5 H 0.698(4) 0.092(3) 0.6904(16)
H6 H 0.025(7) 0.039(7) 0.523(3)
H7 H 0.966(5) -0.125(5) 0.476(2)
O4 O 0.8341(4) 0.0419(3) 0.47455(15)
O5 O 0.8543(4) -0.1295(3) 0.45132(15)
H8 H 0.513(5) 0.114(3) 0.4437(18)
O6 O 0.0661(3) -0.0232(3) 0.31334(12)
C8 C 0.5820(4) -0.0385(3) 0.41411(16)
C9 C 0.4655(5) 0.0482(4) 0.4194(2)
C10 C 0.2922(4) 0.0512(3) 0.38634(17)
C11 C 0.2338(4) -0.0327(3) 0.34657(15)
C12 C 0.3491(6) -0.1200(3) 0.3426(2)
H9 H 0.3089 -0.1772 0.3174
C13 C 0.5216(5) -0.1234(3) 0.37537(16)
H10 H 0.5980 -0.1821 0.3718
C14 C 0.7666(5) -0.0394(3) 0.44916(17)
H11 H 0.055(5) -0.073(4) 0.2871(18)
H12 H 0.206(5) 0.115(3) 0.3837(18)
N1 N 0.8514(5) 0.1915(3) 0.35019(18)
N2 N 0.7766(4) 0.3659(2) 0.36871(14)
H13 H 0.816(4) 0.176(2) 0.3860(13)
O7 O 0.9382(3) 0.3186(2) 0.27922(11)
C15 C 0.8592(4) 0.2935(3) 0.33012(17)
C16 C 0.6622(4) 0.3411(3) 0.42296(16)
C17 C 0.7437(5) 0.3158(4) 0.48435(18)
H14 H 0.8739 0.3163 0.4906
C18 C 0.6313(7) 0.2899(5) 0.5361(2)
H15 H 0.6856 0.2735 0.5773
C19 C 0.4367(6) 0.2884(4) 0.5264(2)
H16 H 0.3610 0.2708 0.5611
C20 C 0.3554(6) 0.3129(4) 0.4657(3)
H17 H 0.479(7) 0.615(4) 0.261(2)
C21 C 0.4657(5) 0.3404(3) 0.4127(2)
C22 C 0.3741(5) 0.3708(4) 0.3496(2)
H18 H 0.2626 0.3362 0.3381
C23 C 0.4321(5) 0.4430(4) 0.30628(18)
H19 H 0.225(5) 0.298(5) 0.455(2)
C24 C 0.6012(5) 0.5062(3) 0.31143(17)
H20 H 0.929(4) 0.154(3) 0.3283(14)
C25 C 0.7661(5) 0.4719(3) 0.34497(17)
H21 H 0.342(4) 0.446(3) 0.2695(17)
C26 C 0.9217(5) 0.5378(4) 0.3536(2)
H22 H 1.0298 0.5156 0.3767
C27 C 0.9096(8) 0.6390(4) 0.3260(3)
H23 H 1.0110 0.6845 0.3318
C28 C 0.7568(6) 0.6713(4) 0.2919(2)
H24 H 0.7550 0.7377 0.2729
C29 C 0.6021(7) 0.6074(4) 0.2844(2)
N3 N 0.2200(4) 0.5490(2) 0.63048(14)
N4 N 0.1486(5) 0.7238(3) 0.6509(2)
H25 H 0.504(7) 0.273(4) 0.739(2)
O8 O 0.0607(3) 0.5981(2) 0.72077(11)
H26 H 0.782(5) 0.602(5) 0.544(2)
H27 H 0.117(6) 0.783(3) 0.679(2)
H28 H -0.040(4) 0.417(3) 0.6251(15)
H29 H 0.296(6) 0.663(4) 0.416(2)
H30 H 0.219(10) 0.750(8) 0.616(4)
C30 C 0.3973(6) 0.3087(4) 0.71501(18)
C31 C 0.2427(7) 0.2442(4) 0.7082(2)
H31 H 0.2452 0.1778 0.7270
C32 C 0.0806(7) 0.2790(4) 0.6726(3)
H32 H -0.0237 0.2355 0.6671
C33 C 0.0790(6) 0.3779(4) 0.6463(2)
C34 C 0.2335(5) 0.4436(3) 0.65464(17)
C35 C 0.3980(5) 0.4104(3) 0.68736(16)
H33 H 0.653(4) 0.439(3) 0.7329(18)
C36 C 0.5334(5) 0.5745(3) 0.58739(19)
C37 C 0.6257(5) 0.5461(4) 0.6501(2)
H34 H 0.7381 0.5804 0.6608
C38 C 0.5677(4) 0.4768(4) 0.69368(18)
C39 C 0.3381(4) 0.5754(3) 0.57686(17)
C40 C 0.1410(4) 0.6245(3) 0.67042(17)
C41 C 0.2578(5) 0.5993(4) 0.51608(19)
H35 H 0.1278 0.5970 0.5094
C42 C 0.3720(8) 0.6270(4) 0.4643(2)
C43 C 0.5617(6) 0.6281(4) 0.4731(2)
H36 H 0.6372 0.6461 0.4384
C44 C 0.6416(6) 0.6027(4) 0.5332(3)
loop_
_geom_bond_atom_site_label_1
_geom_bond_atom_site_label_2
_geom_bond_site_symmetry_1
_geom_bond_site_symmetry_2
C1 C2 1_555 1_555
O1 C7 1_555 1_555
C2 H1 1_555 1_555
C3 C2 1_555 1_555
H2 C3 1_555 1_555
C4 C3 1_555 1_555
C5 C4 1_555 1_555
O2 C7 1_555 1_555
C6 C1 1_555 1_555
H3 C6 1_555 1_555
O3 C4 1_555 1_555
C7 C1 1_555 1_555
H4 O3 1_555 1_555
H5 C5 1_555 1_555
H6 O1 1_555 1_555
H7 O5 1_555 1_555
O4 C14 1_555 1_555
O5 C14 1_555 1_555
H8 C9 1_555 1_555
O6 C11 1_555 1_555
C8 C9 1_555 1_555
C9 C10 1_555 1_555
C10 C11 1_555 1_555
C11 C12 1_555 1_555
C12 H9 1_555 1_555
C13 C8 1_555 1_555
H10 C13 1_555 1_555
C14 C8 1_555 1_555
H11 O6 1_555 1_555
H12 C10 1_555 1_555
N1 H13 1_555 1_555
N2 C15 1_555 1_555
O7 C15 1_555 1_555
C15 N1 1_555 1_555
C16 N2 1_555 1_555
C17 C16 1_555 1_555
H14 C17 1_555 1_555
C18 C17 1_555 1_555
H15 C18 1_555 1_555
C19 C18 1_555 1_555
H16 C19 1_555 1_555
C20 C19 1_555 1_555
H17 C29 1_555 1_555
C21 C16 1_555 1_555
C22 C21 1_555 1_555
H18 C22 1_555 1_555
C23 C22 1_555 1_555
H19 C20 1_555 1_555
C24 C23 1_555 1_555
H20 N1 1_555 1_555
C25 N2 1_555 1_555
H21 C23 1_555 1_555
C26 C25 1_555 1_555
H22 C26 1_555 1_555
C27 C26 1_555 1_555
H23 C27 1_555 1_555
C28 C27 1_555 1_555
H24 C28 1_555 1_555
C29 C24 1_555 1_555
N3 C34 1_555 1_555
N4 H27 1_555 1_555
H25 C30 1_555 1_555
O8 C40 1_555 1_555
H26 C44 1_555 1_555
H28 C33 1_555 1_555
H29 C42 1_555 1_555
H30 N4 1_555 1_555
C30 C31 1_555 1_555
C31 H31 1_555 1_555
C32 C31 1_555 1_555
H32 C32 1_555 1_555
C33 C32 1_555 1_555
C34 C33 1_555 1_555
C35 C30 1_555 1_555
H33 C38 1_555 1_555
C36 C37 1_555 1_555
C37 H34 1_555 1_555
C38 C35 1_555 1_555
C39 N3 1_555 1_555
C40 N3 1_555 1_555
C41 C39 1_555 1_555
H35 C41 1_555 1_555
C42 C41 1_555 1_555
C43 C42 1_555 1_555
H36 C43 1_555 1_555
C44 C36 1_555 1_555
C5 C6 1_555 1_555
C12 C13 1_555 1_555
C20 C21 1_555 1_555
C24 C25 1_555 1_555
C28 C29 1_555 1_555
N4 C40 1_555 1_555
C34 C35 1_555 1_555
C36 C39 1_555 1_555
C37 C38 1_555 1_555
C43 C44 1_555 1_555

#END
