
#######################################################################
#
#                 Cambridge Crystallographic Data Centre
#                                CCDC 
#
#######################################################################
#
# If this CIF has been generated from an entry in the Cambridge 
# Structural Database, then it will include bibliographic, chemical, 
# crystal, experimental, refinement or atomic coordinate data resulting 
# from the CCDC's data processing and validation procedures.
#
#######################################################################

data_MOXXII
_chemical_name_common            'Gloeophyllin I'
_chemical_formula_moiety         'C32 H48 O8,C1 H4 O1,2(H2 O1)'
_chemical_name_systematic        
'13-acetoxy-1,7-dihydroxy-6,10,14-trimethyl-15-(6-methyl-5-methyleneheptan-2-yl)-3-oxo-18-oxatetracyclo[12.3.1.0^2,11^.0^5,10^]octadec-2(11)-ene-6-carboxylic acid methanol solvate dihydrate'
_symmetry_cell_setting           orthorhombic
_symmetry_space_group_name_H-M   'P 21 21 21'
_symmetry_Int_Tables_number      19
_space_group_name_Hall           'P 2ac 2ab'
loop_
_symmetry_equiv_pos_site_id
_symmetry_equiv_pos_as_xyz
1 x,y,z
2 1/2-x,-y,1/2+z
3 1/2+x,1/2-y,-z
4 -x,1/2+y,1/2-z
_cell_length_a                   7.57984(12)
_cell_length_b                   12.0701(2)
_cell_length_c                   36.9017(5)
_cell_angle_alpha                90
_cell_angle_beta                 90
_cell_angle_gamma                90
_cell_volume                     3376.12
_exptl_crystal_colour            white
_cell_formula_units_Z            4
loop_
_atom_site_label
_atom_site_type_symbol
_atom_site_fract_x
_atom_site_fract_y
_atom_site_fract_z
O1 O -0.21173(17) -0.39496(10) -0.16451(3)
H1 H -0.3011 -0.3960 -0.1770
O2 O -0.37976(17) -0.56965(10) -0.20005(3)
O3 O 0.10926(18) -0.62245(10) -0.05000(3)
O4 O -0.10459(16) -0.43740(10) -0.11198(3)
O5 O 0.10418(18) -1.08376(10) -0.20481(3)
H2 H 0.0701 -1.1378 -0.1933
O6 O -0.2604(2) -0.95795(12) -0.25441(4)
O7 O -0.30329(19) -0.99347(12) -0.19586(4)
H3 H -0.3895 -1.0268 -0.2037
O8 O 0.0738(2) -0.80735(11) -0.05601(4)
C1 C 0.1410(3) -0.72940(16) -0.04124(5)
C2 C 0.0032(2) -0.64163(14) -0.14838(4)
C3 C -0.3457(2) -0.40501(15) -0.03702(5)
H4 H -0.2482 -0.3787 -0.0218
C4 C 0.0318(2) -0.41006(15) -0.05648(5)
H5 H 0.1477 -0.4133 -0.0670
H6 H 0.0377 -0.4317 -0.0315
H7 H -0.0126 -0.3358 -0.0582
C5 C -0.4034(2) -0.55484(15) -0.08643(5)
H8 H -0.3727 -0.6319 -0.0905
H9 H -0.5214 -0.5530 -0.0763
C6 C -0.2194(2) -0.48137(14) -0.13885(4)
C7 C 0.1129(2) -0.60662(14) -0.11592(5)
H10 H 0.1629 -0.5339 -0.1203
H11 H 0.2092 -0.6585 -0.1125
C8 C -0.1469(2) -0.58771(14) -0.15712(4)
C9 C 0.0795(2) -0.73884(14) -0.17082(5)
C10 C -0.0767(2) -0.79645(14) -0.19029(4)
H12 H -0.1571 -0.8200 -0.1710
C11 C -0.1802(3) -0.71390(15) -0.21282(5)
H13 H -0.1050 -0.6851 -0.2319
H14 H -0.2790 -0.7514 -0.2242
C12 C 0.0590(2) -0.98412(14) -0.18552(5)
H15 H -0.0250 -1.0032 -0.1663
C13 C -0.0006(2) -0.60331(15) -0.08175(4)
H16 H -0.0911 -0.6612 -0.0832
C14 C -0.4271(3) -0.20012(16) -0.03675(5)
H17 H -0.5161 -0.2138 -0.0184
H18 H -0.3166 -0.1857 -0.0243
C15 C -0.2480(2) -0.61948(14) -0.19038(4)
C16 C -0.2091(3) -0.95470(15) -0.22333(5)
C17 C -0.2734(2) -0.50506(14) -0.05856(4)
H19 H -0.2551 -0.5635 -0.0405
C18 C -0.0319(2) -0.90397(14) -0.21200(4)
C19 C -0.4049(2) -0.49436(15) -0.12305(5)
H20 H -0.4776 -0.5355 -0.1400
H21 H -0.4572 -0.4216 -0.1199
C20 C 0.2693(3) -0.73600(18) -0.01037(6)
H22 H 0.3668 -0.6872 -0.0149
H23 H 0.3117 -0.8106 -0.0081
H24 H 0.2115 -0.7144 0.0117
C21 C 0.2180(3) -0.68362(17) -0.19577(6)
H25 H 0.1589 -0.6419 -0.2143
H26 H 0.2898 -0.7398 -0.2068
H27 H 0.2911 -0.6350 -0.1817
C22 C -0.3317(3) -0.01545(17) -0.06631(6)
H28 H -0.2813 0.0070 -0.0430
C23 C -0.4789(3) -0.09695(17) -0.05792(5)
C24 C -0.0913(2) -0.48874(14) -0.07693(4)
C25 C -0.4916(3) -0.44379(17) -0.01083(5)
H29 H -0.4468 -0.5021 0.0043
H30 H -0.5905 -0.4707 -0.0245
H31 H -0.5283 -0.3827 0.0040
C26 C 0.2202(3) -0.93166(15) -0.16816(5)
H32 H 0.3052 -0.9130 -0.1868
H33 H 0.2750 -0.9845 -0.1519
C27 C -0.4058(2) -0.30511(15) -0.05971(5)
H34 H -0.3200 -0.2914 -0.0787
H35 H -0.5175 -0.3224 -0.0712
C28 C 0.0768(3) -0.88585(16) -0.24646(5)
H36 H 0.0284 -0.8249 -0.2599
H37 H 0.0733 -0.9516 -0.2611
H38 H 0.1967 -0.8696 -0.2400
C29 C 0.1710(3) -0.82675(16) -0.14699(5)
H39 H 0.2772 -0.7950 -0.1366
H40 H 0.0931 -0.8467 -0.1272
C30 C -0.6459(3) -0.0816(2) -0.06721(7)
H41 H -0.6788 -0.0178 -0.0796
H42 H -0.7302 -0.1345 -0.0613
C31 C -0.1817(3) -0.0687(2) -0.08807(6)
H43 H -0.1408 -0.1337 -0.0757
H44 H -0.0864 -0.0168 -0.0905
H45 H -0.2241 -0.0888 -0.1117
C32 C -0.3924(4) 0.09051(19) -0.08520(7)
H46 H -0.4407 0.0724 -0.1085
H47 H -0.2936 0.1394 -0.0882
H48 H -0.4809 0.1263 -0.0707
O9 O -0.44283(18) -0.60933(11) -0.27481(4)
H49 H -0.3361(18) -0.599(3) -0.2806(7)
H50 H -0.454(4) -0.594(3) -0.2525(3)
O10 O 0.0498(2) -1.23932(13) -0.15696(5)
H51 H -0.0289 -1.2852 -0.1598
C33 C 0.2072(4) -1.2936(3) -0.14877(9)
H52 H 0.2193 -1.3577 -0.1640
H53 H 0.2061 -1.3161 -0.1238
H54 H 0.3047 -1.2443 -0.1529
O11 O -0.5379(2) -0.83611(14) -0.28804(6)
H55 H -0.500(4) -0.7696(11) -0.2866(9)
H56 H -0.458(3) -0.880(2) -0.2802(9)
loop_
_geom_bond_atom_site_label_1
_geom_bond_atom_site_label_2
_geom_bond_site_symmetry_1
_geom_bond_site_symmetry_2
O1 H1 1_555 1_555
O2 C15 1_555 1_555
O3 C1 1_555 1_555
O4 C6 1_555 1_555
O5 H2 1_555 1_555
O6 C16 1_555 1_555
O7 H3 1_555 1_555
O8 C1 1_555 1_555
C1 C20 1_555 1_555
C2 C7 1_555 1_555
C3 H4 1_555 1_555
C4 H5 1_555 1_555
H6 C4 1_555 1_555
H7 C4 1_555 1_555
C5 H8 1_555 1_555
H9 C5 1_555 1_555
C6 O1 1_555 1_555
C7 H10 1_555 1_555
H11 C7 1_555 1_555
C8 C2 1_555 1_555
C9 C2 1_555 1_555
C10 C9 1_555 1_555
H12 C10 1_555 1_555
C11 C10 1_555 1_555
H13 C11 1_555 1_555
H14 C11 1_555 1_555
C12 O5 1_555 1_555
H15 C12 1_555 1_555
C13 O3 1_555 1_555
H16 C13 1_555 1_555
C14 H17 1_555 1_555
H18 C14 1_555 1_555
C15 C8 1_555 1_555
C16 O7 1_555 1_555
C17 C3 1_555 1_555
H19 C17 1_555 1_555
C18 C10 1_555 1_555
C19 C5 1_555 1_555
H20 C19 1_555 1_555
H21 C19 1_555 1_555
C20 H22 1_555 1_555
H23 C20 1_555 1_555
H24 C20 1_555 1_555
C21 C9 1_555 1_555
H25 C21 1_555 1_555
H26 C21 1_555 1_555
H27 C21 1_555 1_555
C22 H28 1_555 1_555
C23 C14 1_555 1_555
C24 O4 1_555 1_555
C25 C3 1_555 1_555
H29 C25 1_555 1_555
H30 C25 1_555 1_555
H31 C25 1_555 1_555
C26 C12 1_555 1_555
H32 C26 1_555 1_555
H33 C26 1_555 1_555
C27 C3 1_555 1_555
H34 C27 1_555 1_555
H35 C27 1_555 1_555
C28 C18 1_555 1_555
H36 C28 1_555 1_555
H37 C28 1_555 1_555
H38 C28 1_555 1_555
C29 C9 1_555 1_555
H39 C29 1_555 1_555
H40 C29 1_555 1_555
C30 C23 1_555 1_555
H41 C30 1_555 1_555
H42 C30 1_555 1_555
C31 C22 1_555 1_555
H43 C31 1_555 1_555
H44 C31 1_555 1_555
H45 C31 1_555 1_555
C32 C22 1_555 1_555
H46 C32 1_555 1_555
H47 C32 1_555 1_555
H48 C32 1_555 1_555
O9 H49 1_555 1_555
H50 O9 1_555 1_555
O10 H51 1_555 1_555
C33 O10 1_555 1_555
H52 C33 1_555 1_555
H53 C33 1_555 1_555
H54 C33 1_555 1_555
O11 H55 1_555 1_555
H56 O11 1_555 1_555
C4 C24 1_555 1_555
C5 C17 1_555 1_555
C6 C8 1_555 1_555
C6 C19 1_555 1_555
C7 C13 1_555 1_555
C11 C15 1_555 1_555
C12 C18 1_555 1_555
C13 C24 1_555 1_555
C14 C27 1_555 1_555
C16 C18 1_555 1_555
C17 C24 1_555 1_555
C22 C23 1_555 1_555
C26 C29 1_555 1_555

#END
