
#######################################################################
#
#                 Cambridge Crystallographic Data Centre
#                                CCDC 
#
#######################################################################
#
# If this CIF has been generated from an entry in the Cambridge 
# Structural Database, then it will include bibliographic, chemical, 
# crystal, experimental, refinement or atomic coordinate data resulting 
# from the CCDC's data processing and validation procedures.
#
#######################################################################

data_MOYFAJ
_chemical_formula_moiety         'C15 H12 N1 O1 P1 S1'
_chemical_name_systematic        2-(Diphenylphosphoryl)-1,3-thiazole
_symmetry_cell_setting           monoclinic
_symmetry_space_group_name_H-M   'C 2/c'
_symmetry_Int_Tables_number      15
_space_group_name_Hall           '-C 2yn'
loop_
_symmetry_equiv_pos_site_id
_symmetry_equiv_pos_as_xyz
1 x,y,z
2 -x,y,1/2-z
3 1/2+x,1/2+y,z
4 1/2-x,1/2+y,1/2-z
5 -x,-y,-z
6 x,-y,1/2+z
7 1/2-x,1/2-y,-z
8 1/2+x,1/2-y,1/2+z
_cell_length_a                   10.4363(4)
_cell_length_b                   13.1058(5)
_cell_length_c                   20.7087(8)
_cell_angle_alpha                90
_cell_angle_beta                 96.816(3)
_cell_angle_gamma                90
_cell_volume                     2812.44
_exptl_crystal_colour            colorless
_exptl_crystal_description       block
_cell_formula_units_Z            8
loop_
_atom_site_label
_atom_site_type_symbol
_atom_site_fract_x
_atom_site_fract_y
_atom_site_fract_z
P1 P 0.83703(5) 0.55109(3) 0.37910(2)
S1 S 0.65026(6) 0.56961(4) 0.48010(3)
O1 O 0.86829(14) 0.45661(10) 0.41705(7)
N1 N 0.67179(17) 0.71345(12) 0.39881(8)
C1 C 0.8221(3) 0.44419(19) 0.26564(13)
H1 H 0.8824 0.4017 0.2888
C2 C 1.1833(2) 0.67908(17) 0.43100(11)
H2 H 1.2537 0.6660 0.4618
C3 C 1.1859(2) 0.76153(17) 0.39008(11)
H3 H 1.2579 0.8038 0.3932
C4 C 0.6908(4) 0.4843(4) 0.16778(15)
H4 H 0.6617 0.4688 0.1247
C5 C 0.9749(2) 0.71846(15) 0.33910(10)
H5 H 0.9051 0.7316 0.3080
C6 C 0.5607(2) 0.67675(17) 0.48568(10)
H6 H 0.5036 0.6873 0.5163
C7 C 0.6441(3) 0.5677(3) 0.19557(14)
H7 H 0.5837 0.6092 0.1717
C8 C 0.5839(2) 0.74409(16) 0.43968(10)
H8 H 0.5434 0.8074 0.4356
C9 C 0.97261(17) 0.63541(13) 0.38041(8)
C10 C 0.71457(17) 0.62222(13) 0.41495(8)
C11 C 0.77529(19) 0.52873(15) 0.29543(9)
C12 C 1.0819(2) 0.78163(16) 0.34449(11)
H9 H 1.0836 0.8378 0.3172
C13 C 0.7789(5) 0.4231(3) 0.20152(18)
H10 H 0.8106 0.3666 0.1814
C14 C 0.6869(3) 0.5909(3) 0.26011(12)
H11 H 0.6557 0.6484 0.2793
C15 C 1.07743(19) 0.61569(15) 0.42668(10)
H12 H 1.0760 0.5601 0.4545
loop_
_geom_bond_atom_site_label_1
_geom_bond_atom_site_label_2
_geom_bond_site_symmetry_1
_geom_bond_site_symmetry_2
P1 O1 1_555 1_555
S1 C6 1_555 1_555
N1 C8 1_555 1_555
C1 H1 1_555 1_555
C2 H2 1_555 1_555
C3 C2 1_555 1_555
H3 C3 1_555 1_555
C4 H4 1_555 1_555
C5 H5 1_555 1_555
C6 H6 1_555 1_555
C7 C4 1_555 1_555
H7 C7 1_555 1_555
C8 C6 1_555 1_555
H8 C8 1_555 1_555
C9 P1 1_555 1_555
C10 P1 1_555 1_555
C11 P1 1_555 1_555
C12 C3 1_555 1_555
H9 C12 1_555 1_555
C13 C1 1_555 1_555
H10 C13 1_555 1_555
C14 C7 1_555 1_555
H11 C14 1_555 1_555
C15 C2 1_555 1_555
H12 C15 1_555 1_555
S1 C10 1_555 1_555
N1 C10 1_555 1_555
C1 C11 1_555 1_555
C4 C13 1_555 1_555
C5 C9 1_555 1_555
C5 C12 1_555 1_555
C9 C15 1_555 1_555
C11 C14 1_555 1_555

#END
