
#######################################################################
#
#                 Cambridge Crystallographic Data Centre
#                                CCDC 
#
#######################################################################
#
# If this CIF has been generated from an entry in the Cambridge 
# Structural Database, then it will include bibliographic, chemical, 
# crystal, experimental, refinement or atomic coordinate data resulting 
# from the CCDC's data processing and validation procedures.
#
#######################################################################

data_MOYFAH
_chemical_formula_moiety         'C20 H25 N1 O4'
_chemical_name_systematic        
'(2R,3S)-N-1,2-cyclohexanedicarboxy-4-phenylvaline methyl ester'
_symmetry_cell_setting           monoclinic
_symmetry_space_group_name_H-M   'P 21'
_symmetry_Int_Tables_number      4
_space_group_name_Hall           'P 2yb'
loop_
_symmetry_equiv_pos_site_id
_symmetry_equiv_pos_as_xyz
1 x,y,z
2 -x,1/2+y,-z
_cell_length_a                   15.741(3)
_cell_length_b                   6.444(2)
_cell_length_c                   9.106(2)
_cell_angle_alpha                90
_cell_angle_beta                 93.35(2)
_cell_angle_gamma                90
_cell_volume                     922.089
_chemical_melting_point          74-76deg.C
_cell_formula_units_Z            2
_exptl_crystal_recrystallization_method ethanol
loop_
_atom_site_label
_atom_site_type_symbol
_atom_site_fract_x
_atom_site_fract_y
_atom_site_fract_z
N1 N 0.81442(15) 0.34760(57) 0.49913(28)
O1 O 0.68583(15) 0.62400 0.46836(30)
O2 O 0.91239(15) 0.54156(64) 0.63723(31)
O3 O 0.59734(14) 0.36918(65) 0.52664(31)
O4 O 0.74467(18) 0.17120(67) 0.31056(31)
C1 C 0.66641(19) 0.44240(69) 0.52872(34)
C2 C 0.74692(17) 0.34324(65) 0.60348(33)
C3 C 0.88982(18) 0.45746(70) 0.52258(35)
C4 C 0.8073(2) 0.2536(7) 0.3614(3)
C5 C 0.5629(2) -0.1110(8) 0.7619(4)
C6 C 0.7306(2) 0.1266(7) 0.6657(4)
C7 C 0.63583(19) -0.04894(70) 0.84521(31)
C8 C 0.93303(17) 0.45859(74) 0.37895(37)
C9 C 0.8939(2) 0.2733(7) 0.2968(4)
C10 C 0.6805(2) 0.1477(8) 0.8056(4)
C11 C 0.5194(3) -0.2889(9) 0.7934(5)
C12 C 0.5474(3) -0.4115(8) 0.9085(5)
C13 C 0.6632(3) -0.1760(9) 0.9609(4)
C14 C 0.8126(3) 0.0071(8) 0.6982(6)
C15 C 0.6162(3) 0.7350(9) 0.3932(5)
C16 C 0.9109(3) 0.6669(7) 0.3020(5)
C17 C 0.8926(3) 0.2768(9) 0.1290(5)
C18 C 0.6193(3) -0.3582(8) 0.9918(5)
C19 C 0.8719(3) 0.4887(11) 0.0658(5)
C20 C 0.9267(3) 0.6582(10) 0.1391(6)
H1 H 0.763(2) 0.433(7) 0.682(4)
H2 H 0.719(3) 0.194(10) 0.889(6)
H3 H 0.543(2) -0.015(7) 0.673(4)
H4 H 0.92656 0.13326 0.33658
H5 H 0.696(2) 0.055(6) 0.588(4)
H6 H 0.470(4) -0.323(11) 0.735(6)
H7 H 0.641(3) -0.437(8) 1.075(5)
H8 H 0.99213 0.45479 0.40525
H9 H 0.96186 0.23812 0.10202
H10 H 0.704(4) -0.183(10) 1.022(6)
H11 H 0.91369 0.81494 0.09083
H12 H 0.93752 0.80109 0.34348
H13 H 0.637(2) 0.253(7) 0.792(4)
H14 H 0.84566 0.16432 0.08782
H15 H 0.84752 0.69559 0.32378
H16 H 0.516(4) -0.540(11) 0.939(6)
H17 H 0.98629 0.61054 0.13073
H18 H 0.80218 -0.12963 0.73513
H19 H 0.84668 0.08237 0.77103
H20 H 0.84338 -0.00463 0.61063
H21 H 0.62983 0.86545 0.34944
H22 H 0.57333 0.75975 0.46183
H23 H 0.59343 0.64555 0.31644
H24 H 0.81338 0.51806 0.08220
H25 H 0.87918 0.48826 -0.03810
loop_
_geom_bond_atom_site_label_1
_geom_bond_atom_site_label_2
_geom_bond_site_symmetry_1
_geom_bond_site_symmetry_2
N1 C2 1_555 1_555
O1 C1 1_555 1_555
O2 C3 1_555 1_555
O3 C1 1_555 1_555
O4 C4 1_555 1_555
C1 C2 1_555 1_555
C2 C6 1_555 1_555
C3 N1 1_555 1_555
C4 N1 1_555 1_555
C5 C7 1_555 1_555
C6 C10 1_555 1_555
C7 C10 1_555 1_555
C8 C3 1_555 1_555
C9 C4 1_555 1_555
C10 H2 1_555 1_555
C11 C5 1_555 1_555
C12 C11 1_555 1_555
C13 C7 1_555 1_555
C14 C6 1_555 1_555
C15 O1 1_555 1_555
C16 C8 1_555 1_555
C17 C9 1_555 1_555
C18 C12 1_555 1_555
C19 C17 1_555 1_555
C20 C16 1_555 1_555
H1 C2 1_555 1_555
H3 C5 1_555 1_555
H4 C9 1_555 1_555
H5 C6 1_555 1_555
H6 C11 1_555 1_555
H7 C18 1_555 1_555
H8 C8 1_555 1_555
H9 C17 1_555 1_555
H10 C13 1_555 1_555
H11 C20 1_555 1_555
H12 C16 1_555 1_555
H13 C10 1_555 1_555
H14 C17 1_555 1_555
H15 C16 1_555 1_555
H16 C12 1_555 1_555
H17 C20 1_555 1_555
H18 C14 1_555 1_555
H19 C14 1_555 1_555
H20 C14 1_555 1_555
H21 C15 1_555 1_555
H22 C15 1_555 1_555
H23 C15 1_555 1_555
H24 C19 1_555 1_555
H25 C19 1_555 1_555
C8 C9 1_555 1_555
C13 C18 1_555 1_555
C19 C20 1_555 1_555

#END
