
#######################################################################
#
#                 Cambridge Crystallographic Data Centre
#                                CCDC 
#
#######################################################################
#
# If this CIF has been generated from an entry in the Cambridge 
# Structural Database, then it will include bibliographic, chemical, 
# crystal, experimental, refinement or atomic coordinate data resulting 
# from the CCDC's data processing and validation procedures.
#
#######################################################################

data_MOYPOF
_chemical_formula_moiety         'C31 H27 N1 O2 P2,0.5(H2 O1)'
_chemical_name_systematic        
'Diphenyl(2-(diphenylphosphorylmethylamino)phenyl)phosphine oxide hemihydrate'
_symmetry_cell_setting           monoclinic
_symmetry_space_group_name_H-M   'C 2/c'
_symmetry_Int_Tables_number      15
_space_group_name_Hall           '-C 2yn'
loop_
_symmetry_equiv_pos_site_id
_symmetry_equiv_pos_as_xyz
1 x,y,z
2 1/2+x,1/2+y,z
3 x,-y,1/2+z
4 1/2+x,1/2-y,1/2+z
5 -x,-y,-z
6 1/2-x,1/2-y,-z
7 -x,y,1/2-z
8 1/2-x,1/2+y,1/2-z
_cell_length_a                   26.754(2)
_cell_length_b                   9.0619(6)
_cell_length_c                   25.046(2)
_cell_angle_alpha                90
_cell_angle_beta                 119.409(2)
_cell_angle_gamma                90
_cell_volume                     5289.72
_exptl_crystal_colour            colorless
_exptl_crystal_description       prism
_cell_formula_units_Z            8
loop_
_atom_site_label
_atom_site_type_symbol
_atom_site_fract_x
_atom_site_fract_y
_atom_site_fract_z
P1 P 0.16562(7) 0.92831(16) -0.14412(7)
O1 O 0.11114(17) 1.0119(5) -0.1680(2)
C1 C 0.2058(2) 0.9703(6) -0.1821(2)
C2 C 0.2545(3) 1.0537(7) -0.1559(3)
H1 H 0.2692 1.0848 -0.1156
C3 C 0.2829(3) 1.0936(8) -0.1881(3)
H2 H 0.3159 1.1508 -0.1691
C4 C 0.2623(4) 1.0492(7) -0.2466(4)
H3 H 0.2809 1.0760 -0.2682
C5 C 0.2153(4) 0.9668(8) -0.2729(3)
H4 H 0.2016 0.9360 -0.3131
C6 C 0.1855(3) 0.9243(6) -0.2422(3)
H5 H 0.1527 0.8663 -0.2619
C7 C 0.1539(3) 0.7308(6) -0.1495(2)
C8 C 0.1989(3) 0.6324(6) -0.1284(2)
H6 H 0.2363 0.6675 -0.1117
C9 C 0.1891(3) 0.4832(7) -0.1319(3)
H7 H 0.2200 0.4182 -0.1173
C10 C 0.1348(4) 0.4292(8) -0.1563(3)
H8 H 0.1284 0.3280 -0.1591
C11 C 0.0898(4) 0.5262(10) -0.1768(3)
H9 H 0.0526 0.4897 -0.1929
C12 C 0.0984(3) 0.6786(7) -0.1740(3)
H10 H 0.0676 0.7435 -0.1883
N1 N 0.18513(19) 0.9322(4) -0.02812(19)
H11 H 0.1851(19) 0.8311(19) -0.0145(19)
C13 C 0.2138(2) 0.9614(6) -0.0633(2)
H12 H 0.2472 0.8980 -0.0491
H13 H 0.2268 1.0631 -0.0573
C14 C 0.1603(2) 1.0393(5) -0.0093(2)
C15 C 0.1303(2) 0.9956(5) 0.0214(2)
C16 C 0.1087(2) 1.1054(6) 0.0438(2)
H14 H 0.0902 1.0777 0.0654
C17 C 0.1139(2) 1.2525(6) 0.0347(3)
H15 H 0.0993 1.3233 0.0502
C18 C 0.1408(2) 1.2944(6) 0.0025(3)
H16 H 0.1438 1.3939 -0.0046
C19 C 0.1635(2) 1.1889(6) -0.0194(2)
H17 H 0.1814 1.2188 -0.0414
P2 P 0.11629(6) 0.80270(14) 0.02699(6)
O2 O 0.16543(14) 0.7068(4) 0.03759(15)
C20 C 0.0977(2) 0.7840(5) 0.0869(2)
C21 C 0.0435(2) 0.8150(6) 0.0782(3)
H18 H 0.0146 0.8461 0.0400
C22 C 0.0321(3) 0.7997(6) 0.1265(3)
H19 H -0.0045 0.8196 0.1204
C23 C 0.0745(3) 0.7557(6) 0.1827(3)
H20 H 0.0669 0.7476 0.2151
C24 C 0.1273(3) 0.7239(7) 0.1917(3)
H21 H 0.1559 0.6929 0.2301
C25 C 0.1391(3) 0.7374(6) 0.1435(3)
H22 H 0.1755 0.7144 0.1499
C26 C 0.0524(2) 0.7586(5) -0.0434(2)
C27 C 0.0299(2) 0.8476(6) -0.0940(3)
H23 H 0.0470 0.9383 -0.0917
C28 C -0.0181(3) 0.8060(7) -0.1489(3)
H24 H -0.0317 0.8667 -0.1832
C29 C -0.0450(3) 0.6761(7) -0.1521(3)
H25 H -0.0778 0.6492 -0.1881
C30 C -0.0236(3) 0.5860(7) -0.1023(3)
H26 H -0.0416 0.4964 -0.1048
C31 C 0.0248(3) 0.6255(6) -0.0476(3)
H27 H 0.0387 0.5629 -0.0139
O3 O 0.0000 1.1448(9) -0.2500
H28 H 0.005(2) 1.0371(19) -0.2286(17)
H28F H -0.005(2) 1.0371(19) -0.2714(17)
loop_
_geom_bond_atom_site_label_1
_geom_bond_atom_site_label_2
_geom_bond_site_symmetry_1
_geom_bond_site_symmetry_2
P1 O1 1_555 1_555
C1 P1 1_555 1_555
C2 C1 1_555 1_555
H1 C2 1_555 1_555
C3 C2 1_555 1_555
H2 C3 1_555 1_555
C4 C3 1_555 1_555
H3 C4 1_555 1_555
C5 C4 1_555 1_555
H4 C5 1_555 1_555
C6 C1 1_555 1_555
H5 C6 1_555 1_555
C7 P1 1_555 1_555
C8 C7 1_555 1_555
H6 C8 1_555 1_555
C9 C8 1_555 1_555
H7 C9 1_555 1_555
C10 C9 1_555 1_555
H8 C10 1_555 1_555
C11 C10 1_555 1_555
H9 C11 1_555 1_555
C12 C7 1_555 1_555
H10 C12 1_555 1_555
N1 H11 1_555 1_555
C13 P1 1_555 1_555
H12 C13 1_555 1_555
H13 C13 1_555 1_555
C14 N1 1_555 1_555
C15 C14 1_555 1_555
C16 C15 1_555 1_555
H14 C16 1_555 1_555
C17 C16 1_555 1_555
H15 C17 1_555 1_555
C18 C17 1_555 1_555
H16 C18 1_555 1_555
C19 C14 1_555 1_555
H17 C19 1_555 1_555
P2 C15 1_555 1_555
O2 P2 1_555 1_555
C20 P2 1_555 1_555
C21 C20 1_555 1_555
H18 C21 1_555 1_555
C22 C21 1_555 1_555
H19 C22 1_555 1_555
C23 C22 1_555 1_555
H20 C23 1_555 1_555
C24 C23 1_555 1_555
H21 C24 1_555 1_555
C25 C20 1_555 1_555
H22 C25 1_555 1_555
C26 P2 1_555 1_555
C27 C26 1_555 1_555
H23 C27 1_555 1_555
C28 C27 1_555 1_555
H24 C28 1_555 1_555
C29 C28 1_555 1_555
H25 C29 1_555 1_555
C30 C29 1_555 1_555
H26 C30 1_555 1_555
C31 C26 1_555 1_555
H27 C31 1_555 1_555
O3 H28 1_555 1_555
H28F O3 1_555 1_555
C5 C6 1_555 1_555
C11 C12 1_555 1_555
N1 C13 1_555 1_555
C18 C19 1_555 1_555
C24 C25 1_555 1_555
C30 C31 1_555 1_555

#END
