
#######################################################################
#
#                 Cambridge Crystallographic Data Centre
#                                CCDC 
#
#######################################################################
#
# If this CIF has been generated from an entry in the Cambridge 
# Structural Database, then it will include bibliographic, chemical, 
# crystal, experimental, refinement or atomic coordinate data resulting 
# from the CCDC's data processing and validation procedures.
#
#######################################################################

data_MOYPUL
_chemical_formula_moiety         'C31 H27 N1 P2 S2'
_chemical_name_systematic        
'Diphenyl(2-(diphenylthiophosphorylmethylamino)phenyl)phosphine sulfide'
_symmetry_cell_setting           triclinic
_symmetry_space_group_name_H-M   'P -1'
_symmetry_Int_Tables_number      2
_space_group_name_Hall           '-P 1'
loop_
_symmetry_equiv_pos_site_id
_symmetry_equiv_pos_as_xyz
1 x,y,z
2 -x,-y,-z
_cell_length_a                   9.6227(3)
_cell_length_b                   12.3446(4)
_cell_length_c                   13.2192(3)
_cell_angle_alpha                108.7150(10)
_cell_angle_beta                 110.4580(10)
_cell_angle_gamma                93.9340(10)
_cell_volume                     1364.24
_exptl_crystal_colour            colorless
_exptl_crystal_description       prism
_cell_formula_units_Z            2
loop_
_atom_site_label
_atom_site_type_symbol
_atom_site_fract_x
_atom_site_fract_y
_atom_site_fract_z
S1 S 0.16293(11) 0.81824(9) 0.88708(8)
P1 P 0.23981(9) 0.68212(7) 0.82322(6)
C1 C 0.4208(3) 0.7173(3) 0.8137(2)
C2 C 0.5172(4) 0.8240(3) 0.8865(3)
H1 H 0.4878 0.8788 0.9380
C3 C 0.6574(4) 0.8494(4) 0.8827(4)
H2 H 0.7223 0.9208 0.9325
C4 C 0.7013(4) 0.7703(4) 0.8063(4)
H3 H 0.7960 0.7875 0.8048
C5 C 0.6055(4) 0.6664(4) 0.7325(4)
H4 H 0.6345 0.6135 0.6794
C6 C 0.4662(4) 0.6385(3) 0.7353(3)
H5 H 0.4024 0.5669 0.6847
C7 C 0.2642(3) 0.5836(3) 0.9031(3)
C8 C 0.3068(4) 0.4781(3) 0.8619(3)
H6 H 0.3257 0.4587 0.7946
C9 C 0.3213(4) 0.4021(3) 0.9203(3)
H7 H 0.3489 0.3313 0.8918
C10 C 0.2953(4) 0.4307(4) 1.0199(4)
H8 H 0.3046 0.3792 1.0590
C11 C 0.2554(5) 0.5354(5) 1.0625(4)
H9 H 0.2392 0.5551 1.1310
C12 C 0.2393(4) 0.6119(4) 1.0037(3)
H10 H 0.2115 0.6824 1.0325
C13 C 0.1148(3) 0.5865(3) 0.6748(2)
H11 H 0.1536 0.5159 0.6527
H12 H 0.0148 0.5641 0.6725
N1 N 0.1028(3) 0.6426(2) 0.5922(2)
H13 H 0.187(2) 0.647(3) 0.567(3)
C14 C -0.0232(3) 0.6790(2) 0.5348(2)
C15 C -0.0155(3) 0.7387(2) 0.4600(2)
C16 C -0.1456(3) 0.7703(3) 0.3989(2)
H14 H -0.1413 0.8077 0.3489
C17 C -0.2808(3) 0.7481(3) 0.4102(3)
H15 H -0.3663 0.7704 0.3687
C18 C -0.2870(4) 0.6920(3) 0.4846(3)
H16 H -0.3774 0.6768 0.4933
C19 C -0.1611(3) 0.6585(3) 0.5457(3)
H17 H -0.1678 0.6213 0.5954
P2 P 0.16004(9) 0.77232(7) 0.44304(7)
S2 S 0.25389(10) 0.63675(8) 0.40089(8)
C20 C 0.1131(3) 0.8377(3) 0.3331(3)
C21 C 0.0607(4) 0.7671(3) 0.2170(3)
H18 H 0.0506 0.6865 0.1954
C22 C 0.0231(4) 0.8161(4) 0.1325(3)
H19 H -0.0131 0.7683 0.0544
C23 C 0.0394(4) 0.9349(3) 0.1642(3)
H20 H 0.0152 0.9674 0.1073
C24 C 0.0908(4) 1.0059(3) 0.2783(3)
H21 H 0.1010 1.0864 0.2989
C25 C 0.1280(3) 0.9583(3) 0.3639(3)
H22 H 0.1629 1.0067 0.4417
C26 C 0.2828(3) 0.8890(3) 0.5777(3)
C27 C 0.2346(4) 0.9423(3) 0.6648(3)
H23 H 0.1366 0.9159 0.6558
C28 C 0.3278(4) 1.0333(3) 0.7644(3)
H24 H 0.2926 1.0673 0.8220
C29 C 0.4714(4) 1.0738(3) 0.7791(3)
H25 H 0.5344 1.1357 0.8463
C30 C 0.5226(4) 1.0222(4) 0.6934(3)
H26 H 0.6204 1.0500 0.7029
C31 C 0.4306(4) 0.9299(3) 0.5938(3)
H27 H 0.4672 0.8949 0.5374
loop_
_geom_bond_atom_site_label_1
_geom_bond_atom_site_label_2
_geom_bond_site_symmetry_1
_geom_bond_site_symmetry_2
S1 P1 1_555 1_555
P1 C1 1_555 1_555
C1 C2 1_555 1_555
C2 H1 1_555 1_555
C3 C2 1_555 1_555
H2 C3 1_555 1_555
C4 C3 1_555 1_555
H3 C4 1_555 1_555
C5 C4 1_555 1_555
H4 C5 1_555 1_555
C6 C1 1_555 1_555
H5 C6 1_555 1_555
C7 P1 1_555 1_555
C8 C7 1_555 1_555
H6 C8 1_555 1_555
C9 C8 1_555 1_555
H7 C9 1_555 1_555
C10 C9 1_555 1_555
H8 C10 1_555 1_555
C11 C10 1_555 1_555
H9 C11 1_555 1_555
C12 C7 1_555 1_555
H10 C12 1_555 1_555
C13 P1 1_555 1_555
H11 C13 1_555 1_555
H12 C13 1_555 1_555
N1 C13 1_555 1_555
H13 N1 1_555 1_555
C14 N1 1_555 1_555
C15 C14 1_555 1_555
C16 C15 1_555 1_555
H14 C16 1_555 1_555
C17 C16 1_555 1_555
H15 C17 1_555 1_555
C18 C17 1_555 1_555
H16 C18 1_555 1_555
C19 C14 1_555 1_555
H17 C19 1_555 1_555
P2 C15 1_555 1_555
S2 P2 1_555 1_555
C20 P2 1_555 1_555
C21 C20 1_555 1_555
H18 C21 1_555 1_555
C22 C21 1_555 1_555
H19 C22 1_555 1_555
C23 C22 1_555 1_555
H20 C23 1_555 1_555
C24 C23 1_555 1_555
H21 C24 1_555 1_555
C25 C20 1_555 1_555
H22 C25 1_555 1_555
C26 P2 1_555 1_555
C27 C26 1_555 1_555
H23 C27 1_555 1_555
C28 C27 1_555 1_555
H24 C28 1_555 1_555
C29 C28 1_555 1_555
H25 C29 1_555 1_555
C30 C29 1_555 1_555
H26 C30 1_555 1_555
C31 C26 1_555 1_555
H27 C31 1_555 1_555
C5 C6 1_555 1_555
C11 C12 1_555 1_555
C18 C19 1_555 1_555
C24 C25 1_555 1_555
C30 C31 1_555 1_555

#END
