
#######################################################################
#
#                 Cambridge Crystallographic Data Centre
#                                CCDC 
#
#######################################################################
#
# If this CIF has been generated from an entry in the Cambridge 
# Structural Database, then it will include bibliographic, chemical, 
# crystal, experimental, refinement or atomic coordinate data resulting 
# from the CCDC's data processing and validation procedures.
#
#######################################################################

data_MOYQOH01
_chemical_formula_moiety         'C7 H5 O3 1-,C5 H7 N2 1+,H2 O1'
_chemical_name_systematic        
'4-Aminopyridinium 4-hydroxybenzoate monohydrate'
_symmetry_cell_setting           triclinic
_symmetry_space_group_name_H-M   'P -1'
_symmetry_Int_Tables_number      2
_space_group_name_Hall           '-P 1'
loop_
_symmetry_equiv_pos_site_id
_symmetry_equiv_pos_as_xyz
1 x,y,z
2 -x,-y,-z
_cell_length_a                   7.3492(11)
_cell_length_b                   11.7221(18)
_cell_length_c                   14.185(2)
_cell_angle_alpha                87.582(6)
_cell_angle_beta                 79.100(6)
_cell_angle_gamma                83.395(6)
_cell_volume                     1191.74
_cell_formula_units_Z            4
loop_
_atom_site_label
_atom_site_type_symbol
_atom_site_fract_x
_atom_site_fract_y
_atom_site_fract_z
O1 O 0.66231(14) 0.25040(8) 0.50194(7)
O2 O 0.76008(15) 0.41790(9) 0.52392(7)
O3 O 1.22808(15) 0.31388(9) 0.10876(7)
H1 H 1.2453 0.2434 0.0765
C1 C 1.11756(19) 0.31194(12) 0.19730(9)
C2 C 1.11318(19) 0.40517(12) 0.25581(10)
H2 H 1.1829 0.4655 0.2335
C3 C 1.00519(19) 0.40812(11) 0.34710(10)
H3 H 1.0042 0.4700 0.3862
C4 C 0.89785(18) 0.31918(11) 0.38100(9)
C5 C 0.90427(19) 0.22598(11) 0.32194(10)
H4 H 0.8342 0.1658 0.3441
C6 C 1.01358(19) 0.22169(11) 0.23079(10)
H5 H 1.0174 0.1589 0.1923
C7 C 0.76658(19) 0.32808(11) 0.47592(10)
O4 O 0.15363(16) 0.74683(9) -0.03457(7)
O5 O 0.27296(16) 0.90820(9) -0.01592(7)
O6 O -0.08517(14) 0.80558(8) 0.41797(7)
H6 H -0.1457 0.7417 0.4372
C8 C -0.02504(18) 0.80716(11) 0.32134(9)
C9 C 0.06715(19) 0.89985(11) 0.28072(10)
H7 H 0.0846 0.9581 0.3195
C10 C 0.13263(19) 0.90529(11) 0.18288(10)
H8 H 0.1960 0.9668 0.1566
C11 C 0.10539(18) 0.81999(11) 0.12273(9)
C12 C 0.01010(19) 0.72848(11) 0.16408(10)
H9 H -0.0110 0.6715 0.1250
C13 C -0.05365(19) 0.72105(11) 0.26239(10)
H10 H -0.1152 0.6589 0.2889
C14 C 0.18040(19) 0.82407(11) 0.01639(10)
N1 N 0.7539(2) 0.49622(11) 0.03462(9)
H11 H 0.7576 0.5481 -0.0102
H12 H 0.8057 0.4233 0.0241
N2 N 0.44624(17) 0.57482(10) 0.30103(8)
H13 H 0.3716 0.5891 0.3636
C15 C 0.5417(2) 0.46993(13) 0.28484(10)
H14 H 0.5369 0.4158 0.3348
C16 C 0.6447(2) 0.44140(12) 0.19734(10)
H15 H 0.7094 0.3686 0.1879
C17 C 0.6531(2) 0.52273(12) 0.12078(10)
C18 C 0.5522(2) 0.63208(12) 0.14047(10)
H16 H 0.5548 0.6887 0.0924
C19 C 0.4515(2) 0.65422(12) 0.22968(10)
H17 H 0.3846 0.7260 0.2417
N3 N 0.29120(17) -0.00550(10) 0.46822(8)
H18 H 0.2952 -0.0793 0.4893
H19 H 0.2189 0.0503 0.5025
N4 N 0.59691(17) 0.06799(10) 0.20389(8)
H20 H 0.6552 0.0817 0.1399
C20 C 0.4886(2) 0.15281(12) 0.25547(10)
H21 H 0.4816 0.2270 0.2295
C21 C 0.3894(2) 0.13268(12) 0.34459(10)
H22 H 0.3175 0.1929 0.3793
C22 C 0.39590(18) 0.02007(11) 0.38411(9)
C23 C 0.5153(2) -0.06623(12) 0.32899(10)
H23 H 0.5283 -0.1410 0.3535
C24 C 0.6109(2) -0.04009(12) 0.24032(10)
H24 H 0.6870 -0.0977 0.2043
O7 O 0.33840(17) 0.12854(9) 0.00642(8)
H25 H 0.2986 0.0566 0.0045
H26 H 0.4616 0.1151 0.0075
O8 O 0.29873(16) 0.35251(9) 0.52105(9)
H27 H 0.2798 0.4284 0.5136
H28 H 0.4130 0.3284 0.5188
loop_
_geom_bond_atom_site_label_1
_geom_bond_atom_site_label_2
_geom_bond_site_symmetry_1
_geom_bond_site_symmetry_2
O1 C7 1_555 1_555
O2 C7 1_555 1_555
O3 H1 1_555 1_555
C1 O3 1_555 1_555
C2 C1 1_555 1_555
H2 C2 1_555 1_555
C3 C2 1_555 1_555
H3 C3 1_555 1_555
C4 C3 1_555 1_555
C5 C4 1_555 1_555
H4 C5 1_555 1_555
C6 C1 1_555 1_555
H5 C6 1_555 1_555
C7 C4 1_555 1_555
O4 C14 1_555 1_555
O5 C14 1_555 1_555
O6 H6 1_555 1_555
C8 O6 1_555 1_555
C9 C8 1_555 1_555
H7 C9 1_555 1_555
C10 C9 1_555 1_555
H8 C10 1_555 1_555
C11 C10 1_555 1_555
C12 C11 1_555 1_555
H9 C12 1_555 1_555
C13 C8 1_555 1_555
H10 C13 1_555 1_555
C14 C11 1_555 1_555
N1 H11 1_555 1_555
H12 N1 1_555 1_555
N2 H13 1_555 1_555
C15 N2 1_555 1_555
H14 C15 1_555 1_555
C16 C15 1_555 1_555
H15 C16 1_555 1_555
C17 N1 1_555 1_555
C18 C17 1_555 1_555
H16 C18 1_555 1_555
C19 N2 1_555 1_555
H17 C19 1_555 1_555
N3 H18 1_555 1_555
H19 N3 1_555 1_555
N4 H20 1_555 1_555
C20 N4 1_555 1_555
H21 C20 1_555 1_555
C21 C20 1_555 1_555
H22 C21 1_555 1_555
C22 N3 1_555 1_555
C23 C22 1_555 1_555
H23 C23 1_555 1_555
C24 N4 1_555 1_555
H24 C24 1_555 1_555
O7 H25 1_555 1_555
H26 O7 1_555 1_555
O8 H27 1_555 1_555
H28 O8 1_555 1_555
C5 C6 1_555 1_555
C12 C13 1_555 1_555
C16 C17 1_555 1_555
C18 C19 1_555 1_555
C21 C22 1_555 1_555
C23 C24 1_555 1_555

#END
