
#######################################################################
#
#                 Cambridge Crystallographic Data Centre
#                                CCDC 
#
#######################################################################
#
# If this CIF has been generated from an entry in the Cambridge 
# Structural Database, then it will include bibliographic, chemical, 
# crystal, experimental, refinement or atomic coordinate data resulting 
# from the CCDC's data processing and validation procedures.
#
#######################################################################

data_MOYVAZ
_chemical_formula_moiety         'C4 H10 O1,2(C1 H1 Cl3)'
_chemical_name_systematic        'diethyl ether bis(chloroform)'
_symmetry_cell_setting           monoclinic
_symmetry_space_group_name_H-M   'P 21/c'
_symmetry_Int_Tables_number      14
_space_group_name_Hall           '-P 2ybc'
loop_
_symmetry_equiv_pos_site_id
_symmetry_equiv_pos_as_xyz
1 x,y,z
2 -x,1/2+y,1/2-z
3 -x,-y,-z
4 x,1/2-y,1/2+z
_cell_length_a                   10.6215(9)
_cell_length_b                   11.2989(8)
_cell_length_c                   12.4235(12)
_cell_angle_alpha                90
_cell_angle_beta                 108.717(10)
_cell_angle_gamma                90
_cell_volume                     1412.11
_exptl_crystal_colour            'light colorless'
_exptl_crystal_description       cylinder
_chemical_melting_point          '184-185 K'
_cell_formula_units_Z            4
_exptl_crystal_recrystallization_method 'in situ cryocrystallization'
loop_
_atom_site_label
_atom_site_type_symbol
_atom_site_fract_x
_atom_site_fract_y
_atom_site_fract_z
Cl1 Cl 0.53027(8) 0.32361(8) 0.24952(9)
Cl2 Cl 0.32736(8) 0.15706(9) 0.13192(9)
Cl3 Cl 0.41841(10) 0.16417(12) 0.37644(10)
C1 C 0.4649(3) 0.1816(3) 0.2549(3)
H1 H 0.522(3) 0.126(3) 0.251(3)
Cl4 Cl 0.86270(9) 0.42276(9) 0.26564(14)
Cl5 Cl 1.04510(9) 0.22905(8) 0.29126(10)
Cl6 Cl 0.97651(12) 0.30893(15) 0.48235(10)
C2 C 0.9181(3) 0.2902(3) 0.3348(3)
H2 H 0.849(3) 0.233(3) 0.323(3)
O1 O 0.73381(17) 0.05560(16) 0.26070(17)
C3 C 0.7472(3) 0.0251(3) 0.1538(3)
H3 H 0.7143 -0.0546 0.1331
H4 H 0.8402 0.0273 0.1589
C4 C 0.6700(3) 0.1104(4) 0.0656(3)
H5 H 0.6766 0.0882 -0.0070
H6 H 0.7054 0.1886 0.0848
H7 H 0.5785 0.1093 0.0622
C5 C 0.8062(3) -0.0218(3) 0.3491(3)
H8 H 0.9008 -0.0123 0.3627
H9 H 0.7826 -0.1033 0.3271
C6 C 0.7743(4) 0.0064(4) 0.4541(3)
H10 H 0.6829 -0.0126 0.4431
H11 H 0.7888 0.0892 0.4708
H12 H 0.8305 -0.0392 0.5162
loop_
_geom_bond_atom_site_label_1
_geom_bond_atom_site_label_2
_geom_bond_site_symmetry_1
_geom_bond_site_symmetry_2
Cl1 C1 1_555 1_555
Cl2 C1 1_555 1_555
Cl3 C1 1_555 1_555
C1 H1 1_555 1_555
Cl4 C2 1_555 1_555
Cl5 C2 1_555 1_555
Cl6 C2 1_555 1_555
C2 H2 1_555 1_555
O1 C3 1_555 1_555
C3 H3 1_555 1_555
H4 C3 1_555 1_555
C4 C3 1_555 1_555
H5 C4 1_555 1_555
H6 C4 1_555 1_555
H7 C4 1_555 1_555
C5 O1 1_555 1_555
H8 C5 1_555 1_555
H9 C5 1_555 1_555
C6 C5 1_555 1_555
H10 C6 1_555 1_555
H11 C6 1_555 1_555
H12 C6 1_555 1_555

#END
