
#######################################################################
#
#                 Cambridge Crystallographic Data Centre
#                                CCDC 
#
#######################################################################
#
# If this CIF has been generated from an entry in the Cambridge 
# Structural Database, then it will include bibliographic, chemical, 
# crystal, experimental, refinement or atomic coordinate data resulting 
# from the CCDC's data processing and validation procedures.
#
#######################################################################

data_MOYVUT
_chemical_formula_moiety         'C4 H8 O1,C1 H1 Br3'
_chemical_name_systematic        'bromoform tetrahydrofuran'
_symmetry_cell_setting           orthorhombic
_symmetry_space_group_name_H-M   'P n m a'
_symmetry_Int_Tables_number      62
_space_group_name_Hall           '-P 2ac 2n'
loop_
_symmetry_equiv_pos_site_id
_symmetry_equiv_pos_as_xyz
1 x,y,z
2 1/2-x,-y,1/2+z
3 1/2+x,1/2-y,1/2-z
4 -x,1/2+y,-z
5 -x,-y,-z
6 1/2+x,y,1/2-z
7 1/2-x,1/2+y,1/2+z
8 x,1/2-y,z
_cell_length_a                   10.4254(16)
_cell_length_b                   8.4671(8)
_cell_length_c                   10.5646(17)
_cell_angle_alpha                90
_cell_angle_beta                 90
_cell_angle_gamma                90
_cell_volume                     932.568
_exptl_crystal_colour            'light colorless'
_exptl_crystal_description       cylinder
_chemical_melting_point          '211-213 K'
_cell_formula_units_Z            4
_exptl_crystal_recrystallization_method 'in situ cryocrystallization'
loop_
_atom_site_label
_atom_site_type_symbol
_atom_site_fract_x
_atom_site_fract_y
_atom_site_fract_z
O1 O 0.7822(3) 0.2500 0.1030(3)
C2 C 0.8765(5) 0.2250(12) 0.0047(5)
H2 H 0.8788 0.3148 -0.0524
H3 H 0.8558 0.1312 -0.0439
C3 C 1.0028(7) 0.2057(9) 0.0692(6)
H4 H 1.0711 0.2547 0.0208
H5 H 1.0230 0.0950 0.0818
C4 C 0.9828(7) 0.2904(9) 0.1965(6)
H6 H 1.0361 0.2443 0.2621
H7 H 1.0025 0.4020 0.1895
C5 C 0.8464(5) 0.266(2) 0.2234(5)
H8 H 0.8346 0.1708 0.2736
H9 H 0.8119 0.3546 0.2701
C2G C 0.8765(5) 0.2750(12) 0.0047(5)
H2G H 0.8788 0.1852 -0.0524
H3G H 0.8558 0.3688 -0.0439
C3G C 1.0028(7) 0.2943(9) 0.0692(6)
H4G H 1.0711 0.2453 0.0208
H5G H 1.0230 0.4050 0.0818
C4G C 0.9828(7) 0.2096(9) 0.1965(6)
H6G H 1.0361 0.2557 0.2621
H7G H 1.0025 0.0980 0.1895
C5G C 0.8464(5) 0.234(2) 0.2234(5)
H8G H 0.8346 0.3292 0.2736
H9G H 0.8119 0.1454 0.2701
Br1 Br 0.65203(3) 0.56255(5) 0.08664(4)
Br2 Br 0.41893(5) 0.7500 0.20806(5)
C1 C 0.5482(4) 0.7500 0.0783(4)
H1 H 0.502(4) 0.7500 -0.004(4)
Br1G Br 0.65203(3) 0.93745(5) 0.08664(4)
loop_
_geom_bond_atom_site_label_1
_geom_bond_atom_site_label_2
_geom_bond_site_symmetry_1
_geom_bond_site_symmetry_2
Br1 C1 1_555 1_555
Br2 C1 1_555 1_555
C1 H1 1_555 1_555
O1 C2 1_555 1_555
C2 H2 1_555 1_555
H2 C2G 1_555 1_555
H3 C2 1_555 1_555
C3 C2 1_555 1_555
H4 C3 1_555 1_555
H5 C3 1_555 1_555
C4 C3 1_555 1_555
H6 C4 1_555 1_555
H7 C4 1_555 1_555
C5 O1 1_555 1_555
H8 C5 1_555 1_555
H9 C5 1_555 1_555
Br1G C1 1_555 1_555
C2G O1 1_555 1_555
H2G C2 1_555 1_555
H3G C2 1_555 1_555
C3G C2 1_555 1_555
H4G C3 1_555 1_555
H5G C3G 1_555 1_555
C4G C3 1_555 1_555
H6G C4 1_555 1_555
H7G C4G 1_555 1_555
C5G O1 1_555 1_555
H8G C5 1_555 1_555
H9G C5 1_555 1_555
H3 C2G 1_555 1_555
C3 C2G 1_555 1_555
C3 C3G 1_555 1_555
H4 C3G 1_555 1_555
C4 C5 1_555 1_555
C4 C3G 1_555 1_555
C4 C4G 1_555 1_555
C4 C5G 1_555 1_555
H6 C4G 1_555 1_555
C5 C4G 1_555 1_555
H8 C5G 1_555 1_555
H9 C5G 1_555 1_555
C2G H2G 1_555 1_555
C2G H3G 1_555 1_555
C2G C3G 1_555 1_555
C3G H4G 1_555 1_555
C3G C4G 1_555 1_555
C4G H6G 1_555 1_555
C4G C5G 1_555 1_555
C5G H8G 1_555 1_555
C5G H9G 1_555 1_555

#END
