
#######################################################################
#
#                 Cambridge Crystallographic Data Centre
#                                CCDC 
#
#######################################################################
#
# If this CIF has been generated from an entry in the Cambridge 
# Structural Database, then it will include bibliographic, chemical, 
# crystal, experimental, refinement or atomic coordinate data resulting 
# from the CCDC's data processing and validation procedures.
#
#######################################################################

data_MOYVAY
_chemical_formula_moiety         'C21 H28 N2'
_chemical_name_systematic        
(1'S,2S,3S)-1-(1'-Phenylethyl)-2-phenyl-3-t-butylaminoazetidine
_symmetry_cell_setting           monoclinic
_symmetry_space_group_name_H-M   'C 2'
_symmetry_Int_Tables_number      5
_space_group_name_Hall           'C 2y'
loop_
_symmetry_equiv_pos_site_id
_symmetry_equiv_pos_as_xyz
1 x,y,z
2 -x,y,-z
3 1/2+x,1/2+y,z
4 1/2-x,1/2+y,-z
_cell_length_a                   17.528(3)
_cell_length_b                   5.9153(7)
_cell_length_c                   18.131(3)
_cell_angle_alpha                90
_cell_angle_beta                 98.876(4)
_cell_angle_gamma                90
_cell_volume                     1857.37
_exptl_crystal_colour            colorless
_exptl_crystal_description       prism
_chemical_melting_point          '50-51 deg.C'
_cell_formula_units_Z            4
loop_
_atom_site_label
_atom_site_type_symbol
_atom_site_fract_x
_atom_site_fract_y
_atom_site_fract_z
N1 N 0.21111(8) 0.3492(3) 0.72924(7)
N2 N 0.35374(8) 0.3452(3) 0.65946(8)
C1 C 0.25766(9) 0.5564(3) 0.72308(9)
H1 H 0.2228 0.6901 0.7122
C2 C 0.27991(9) 0.4612(3) 0.64877(9)
H2 H 0.2736 0.5727 0.6068
C3 C 0.20985(9) 0.3030(4) 0.64875(9)
H3 H 0.1624 0.3567 0.6168
H4 H 0.2206 0.1433 0.6377
C4 C 0.13509(9) 0.3774(3) 0.75271(9)
H5 H 0.1085 0.5086 0.7250
C5 C 0.08738(11) 0.1654(4) 0.73122(10)
H6 H 0.1157 0.0325 0.7530
H7 H 0.0777 0.1509 0.6767
H8 H 0.0381 0.1767 0.7501
C6 C 0.14269(9) 0.4259(3) 0.83559(9)
C7 C 0.17537(10) 0.2680(3) 0.88834(10)
H9 H 0.1964 0.1318 0.8723
C8 C 0.17749(10) 0.3080(4) 0.96422(10)
H10 H 0.1989 0.1980 0.9996
C9 C 0.14832(10) 0.5089(4) 0.98827(10)
H11 H 0.1501 0.5370 1.0401
C10 C 0.11671(11) 0.6674(4) 0.93651(11)
H12 H 0.0971 0.8054 0.9527
C11 C 0.11355(10) 0.6252(3) 0.86063(10)
H13 H 0.0911 0.7344 0.8254
C12 C 0.32281(9) 0.6130(3) 0.78426(9)
C13 C 0.35724(10) 0.8256(3) 0.78417(10)
H14 H 0.3353 0.9376 0.7497
C14 C 0.42362(10) 0.8740(4) 0.83441(11)
H15 H 0.4471 1.0186 0.8337
C15 C 0.45568(10) 0.7134(4) 0.88528(10)
H16 H 0.5013 0.7466 0.9192
C16 C 0.42078(10) 0.5034(4) 0.88648(10)
H17 H 0.4420 0.3934 0.9220
C17 C 0.35473(10) 0.4527(3) 0.83599(9)
H18 H 0.3314 0.3079 0.8369
C18 C 0.38838(10) 0.2928(3) 0.59232(9)
C19 C 0.40599(12) 0.5033(4) 0.54882(11)
H19 H 0.4416 0.6015 0.5813
H20 H 0.3579 0.5854 0.5318
H21 H 0.4297 0.4579 0.5056
C20 C 0.46363(11) 0.1681(4) 0.62004(11)
H22 H 0.4524 0.0309 0.6468
H23 H 0.4979 0.2665 0.6538
H24 H 0.4889 0.1267 0.5774
C21 C 0.33383(12) 0.1377(5) 0.54152(12)
H25 H 0.2853 0.2174 0.5245
H26 H 0.3233 0.0018 0.5692
H27 H 0.3579 0.0943 0.4983
H28 H 0.3890(15) 0.430(5) 0.6933(14)
loop_
_geom_bond_atom_site_label_1
_geom_bond_atom_site_label_2
_geom_bond_site_symmetry_1
_geom_bond_site_symmetry_2
N1 C1 1_555 1_555
N2 C2 1_555 1_555
C1 H1 1_555 1_555
C2 C1 1_555 1_555
H2 C2 1_555 1_555
C3 N1 1_555 1_555
H3 C3 1_555 1_555
H4 C3 1_555 1_555
C4 N1 1_555 1_555
H5 C4 1_555 1_555
C5 C4 1_555 1_555
H6 C5 1_555 1_555
H7 C5 1_555 1_555
H8 C5 1_555 1_555
C6 C4 1_555 1_555
C7 C6 1_555 1_555
H9 C7 1_555 1_555
C8 C7 1_555 1_555
H10 C8 1_555 1_555
C9 C8 1_555 1_555
H11 C9 1_555 1_555
C10 C9 1_555 1_555
H12 C10 1_555 1_555
C11 C6 1_555 1_555
H13 C11 1_555 1_555
C12 C1 1_555 1_555
C13 C12 1_555 1_555
H14 C13 1_555 1_555
C14 C13 1_555 1_555
H15 C14 1_555 1_555
C15 C14 1_555 1_555
H16 C15 1_555 1_555
C16 C15 1_555 1_555
H17 C16 1_555 1_555
C17 C12 1_555 1_555
H18 C17 1_555 1_555
C18 N2 1_555 1_555
C19 C18 1_555 1_555
H19 C19 1_555 1_555
H20 C19 1_555 1_555
H21 C19 1_555 1_555
C20 C18 1_555 1_555
H22 C20 1_555 1_555
H23 C20 1_555 1_555
H24 C20 1_555 1_555
C21 C18 1_555 1_555
H25 C21 1_555 1_555
H26 C21 1_555 1_555
H27 C21 1_555 1_555
H28 N2 1_555 1_555
C2 C3 1_555 1_555
C10 C11 1_555 1_555
C16 C17 1_555 1_555

#END
