
#######################################################################
#
#                 Cambridge Crystallographic Data Centre
#                                CCDC 
#
#######################################################################
#
# If this CIF has been generated from an entry in the Cambridge 
# Structural Database, then it will include bibliographic, chemical, 
# crystal, experimental, refinement or atomic coordinate data resulting 
# from the CCDC's data processing and validation procedures.
#
#######################################################################

data_MOYVED
_chemical_formula_moiety         'C4 H10 O1,C1 H2 Cl2'
_chemical_name_systematic        'dichloromethane diethyl ether'
_symmetry_cell_setting           tetragonal
_symmetry_space_group_name_H-M   'P 41 21 2'
_symmetry_Int_Tables_number      92
_space_group_name_Hall           'P 4abw 2nw'
loop_
_symmetry_equiv_pos_site_id
_symmetry_equiv_pos_as_xyz
1 x,y,z
2 1/2-y,1/2+x,1/4+z
3 -x,-y,1/2+z
4 1/2+y,1/2-x,3/4+z
5 1/2+x,1/2-y,3/4-z
6 1/2-x,1/2+y,1/4-z
7 y,x,-z
8 -y,-x,1/2-z
_cell_length_a                   10.7816(7)
_cell_length_b                   10.7816(7)
_cell_length_c                   29.7877(19)
_cell_angle_alpha                90
_cell_angle_beta                 90
_cell_angle_gamma                90
_cell_volume                     3462.61
_exptl_crystal_colour            'light colorless'
_exptl_crystal_description       cylinder
_cell_formula_units_Z            16
_exptl_crystal_recrystallization_method 'in situ cryocrystallization'
loop_
_atom_site_label
_atom_site_type_symbol
_atom_site_fract_x
_atom_site_fract_y
_atom_site_fract_z
Cl1 Cl 0.09188(7) 0.45754(7) 0.56120(2)
Cl2 Cl -0.09607(6) 0.26605(7) 0.56435(2)
C1 C 0.0278(3) 0.3289(3) 0.53398(8)
H1 H -0.004(3) 0.361(3) 0.5054(12)
H2 H 0.096(3) 0.270(3) 0.5316(12)
Cl3 Cl 0.69286(6) 0.84691(6) 0.39364(2)
Cl4 Cl 0.50811(6) 0.65256(6) 0.40142(2)
C2 C 0.6081(2) 0.7523(2) 0.43077(7)
H3 H 0.665(3) 0.706(3) 0.4485(10)
H4 H 0.559(3) 0.810(3) 0.4492(10)
O1 O 0.10634(14) 0.24488(14) 0.43475(4)
C3 C 0.1866(2) 0.3193(2) 0.40751(7)
C4 C 0.2665(2) 0.3973(3) 0.43749(9)
C5 C 0.0261(2) 0.1671(2) 0.40900(7)
C6 C -0.0532(3) 0.0933(3) 0.43968(9)
H5 H 0.134(3) 0.376(3) 0.3861(9)
H6 H 0.236(3) 0.261(3) 0.3886(8)
H7 H 0.319(2) 0.346(2) 0.4578(8)
H8 H 0.326(3) 0.456(3) 0.4179(10)
H9 H 0.227(3) 0.451(3) 0.4598(11)
H10 H 0.072(3) 0.118(3) 0.3907(10)
H11 H -0.016(3) 0.216(3) 0.3918(9)
H12 H -0.111(3) 0.047(3) 0.4216(9)
H13 H 0.001(3) 0.037(3) 0.4594(10)
H14 H -0.106(3) 0.140(3) 0.4592(11)
O2 O 0.53807(16) 0.82769(15) 0.53312(5)
C7 C 0.5939(3) 0.9292(2) 0.55586(8)
C8 C 0.7026(3) 0.9735(3) 0.52925(11)
C9 C 0.4366(2) 0.7770(3) 0.55723(8)
C10 C 0.3832(3) 0.6717(4) 0.53112(11)
H15 H 0.528(3) 0.994(3) 0.5607(9)
H16 H 0.615(3) 0.906(3) 0.5858(10)
H17 H 0.750(3) 1.029(3) 0.5408(10)
H18 H 0.681(3) 1.003(3) 0.4993(12)
H19 H 0.769(4) 0.905(4) 0.5250(12)
H20 H 0.385(3) 0.843(3) 0.5623(10)
H21 H 0.467(2) 0.744(2) 0.5857(9)
H22 H 0.356(3) 0.699(3) 0.5018(10)
H23 H 0.309(4) 0.650(4) 0.5486(13)
H24 H 0.441(4) 0.613(3) 0.5263(12)
loop_
_geom_bond_atom_site_label_1
_geom_bond_atom_site_label_2
_geom_bond_site_symmetry_1
_geom_bond_site_symmetry_2
Cl1 C1 1_555 1_555
Cl2 C1 1_555 1_555
C1 H1 1_555 1_555
H2 C1 1_555 1_555
Cl3 C2 1_555 1_555
Cl4 C2 1_555 1_555
C2 H3 1_555 1_555
H4 C2 1_555 1_555
O1 C3 1_555 1_555
C3 C4 1_555 1_555
C4 H7 1_555 1_555
C5 O1 1_555 1_555
C6 C5 1_555 1_555
H5 C3 1_555 1_555
H6 C3 1_555 1_555
H8 C4 1_555 1_555
H9 C4 1_555 1_555
H10 C5 1_555 1_555
H11 C5 1_555 1_555
H12 C6 1_555 1_555
H13 C6 1_555 1_555
H14 C6 1_555 1_555
O2 C7 1_555 1_555
C7 C8 1_555 1_555
C8 H17 1_555 1_555
C9 O2 1_555 1_555
C10 C9 1_555 1_555
H15 C7 1_555 1_555
H16 C7 1_555 1_555
H18 C8 1_555 1_555
H19 C8 1_555 1_555
H20 C9 1_555 1_555
H21 C9 1_555 1_555
H22 C10 1_555 1_555
H23 C10 1_555 1_555
H24 C10 1_555 1_555

#END
