
#######################################################################
#
#                 Cambridge Crystallographic Data Centre
#                                CCDC 
#
#######################################################################
#
# If this CIF has been generated from an entry in the Cambridge 
# Structural Database, then it will include bibliographic, chemical, 
# crystal, experimental, refinement or atomic coordinate data resulting 
# from the CCDC's data processing and validation procedures.
#
#######################################################################

data_MOYYEG
_chemical_formula_moiety         'C7 H4 F1 O2 1-,C5 H7 N2 1+'
_chemical_name_systematic        '2-Aminopyridinium 4-fluorobenzoate'
_symmetry_cell_setting           monoclinic
_symmetry_space_group_name_H-M   'P n'
_symmetry_Int_Tables_number      7
_space_group_name_Hall           'P -2yac'
loop_
_symmetry_equiv_pos_site_id
_symmetry_equiv_pos_as_xyz
1 x,y,z
2 1/2+x,-y,1/2+z
_cell_length_a                   5.4908(3)
_cell_length_b                   9.0587(8)
_cell_length_c                   11.1187(10)
_cell_angle_alpha                90
_cell_angle_beta                 100.864(5)
_cell_angle_gamma                90
_cell_volume                     543.127
_exptl_crystal_colour            colorless
_exptl_crystal_description       plate
_chemical_melting_point          '428 K'
_cell_formula_units_Z            2
loop_
_atom_site_label
_atom_site_type_symbol
_atom_site_fract_x
_atom_site_fract_y
_atom_site_fract_z
C1 C -0.1963(4) 0.3097(2) 0.9518(2)
C2 C -0.2289(4) 0.3778(3) 0.8382(2)
H1 H -0.1217 0.3534 0.7833
C3 C -0.4148(4) 0.4805(3) 0.8035(2)
H2 H -0.4366 0.5276 0.7258
C4 C -0.5669(4) 0.5124(3) 0.8848(2)
C5 C -0.5429(4) 0.4480(3) 0.9981(2)
H3 H -0.6529 0.4723 1.0515
C6 C -0.3530(4) 0.3461(3) 1.0325(2)
H4 H -0.3300 0.3012 1.1111
C7 C 0.0093(4) 0.2003(2) 0.9918(2)
O1 O 0.1176(3) 0.14845(17) 0.90953(15)
O2 O 0.0619(3) 0.1685(2) 1.10197(16)
F1 F -0.7509(3) 0.61402(17) 0.85239(15)
C8 C 0.5634(4) -0.0851(2) 1.0912(2)
C9 C 0.7644(4) -0.1843(3) 1.1176(2)
H5 H 0.8216 -0.2175 1.1991
C10 C 0.8759(4) -0.2320(3) 1.0249(2)
H6 H 1.0123 -0.2981 1.0424
C11 C 0.7919(5) -0.1847(3) 0.9042(2)
H7 H 0.8703 -0.2178 0.8399
C12 C 0.5970(4) -0.0912(3) 0.8813(2)
H8 H 0.5356 -0.0595 0.7998
N1 N 0.4874(4) -0.0419(2) 0.97422(17)
N2 N 0.4451(4) -0.0317(2) 1.17567(19)
H9 H 0.348(5) 0.027(3) 0.950(3)
H10 H 0.499(5) -0.068(3) 1.259(3)
H11 H 0.298(7) 0.032(4) 1.144(3)
loop_
_geom_bond_atom_site_label_1
_geom_bond_atom_site_label_2
_geom_bond_site_symmetry_1
_geom_bond_site_symmetry_2
C1 C2 1_555 1_555
C2 H1 1_555 1_555
C3 C2 1_555 1_555
H2 C3 1_555 1_555
C4 C3 1_555 1_555
C5 C4 1_555 1_555
H3 C5 1_555 1_555
C6 C1 1_555 1_555
H4 C6 1_555 1_555
C7 C1 1_555 1_555
O1 C7 1_555 1_555
O2 C7 1_555 1_555
F1 C4 1_555 1_555
C8 C9 1_555 1_555
C9 H5 1_555 1_555
C10 C9 1_555 1_555
H6 C10 1_555 1_555
C11 C10 1_555 1_555
H7 C11 1_555 1_555
C12 C11 1_555 1_555
H8 C12 1_555 1_555
N1 C8 1_555 1_555
N2 C8 1_555 1_555
H9 N1 1_555 1_555
H10 N2 1_555 1_555
H11 N2 1_555 1_555
C5 C6 1_555 1_555
C12 N1 1_555 1_555

#END
