
#######################################################################
#
#                 Cambridge Crystallographic Data Centre
#                                CCDC 
#
#######################################################################
#
# If this CIF has been generated from an entry in the Cambridge 
# Structural Database, then it will include bibliographic, chemical, 
# crystal, experimental, refinement or atomic coordinate data resulting 
# from the CCDC's data processing and validation procedures.
#
#######################################################################

data_MOYZUX
_chemical_formula_moiety         'C7 H7 N1 O3,C4 H5 N3'
_chemical_name_systematic        '2-Aminopyrimidine 4-aminosalicylic acid'
_symmetry_cell_setting           monoclinic
_symmetry_space_group_name_H-M   'P 21/n'
_symmetry_Int_Tables_number      14
_space_group_name_Hall           '-P 2yn'
loop_
_symmetry_equiv_pos_site_id
_symmetry_equiv_pos_as_xyz
1 x,y,z
2 1/2-x,1/2+y,1/2-z
3 -x,-y,-z
4 1/2+x,1/2-y,1/2+z
_cell_length_a                   9.4940(2)
_cell_length_b                   8.9083(3)
_cell_length_c                   13.2649(5)
_cell_angle_alpha                90
_cell_angle_beta                 99.881(2)
_cell_angle_gamma                90
_cell_volume                     1105.24
_exptl_crystal_colour            'orange brown'
_exptl_crystal_description       block
_chemical_melting_point          '411 K'
_cell_formula_units_Z            4
loop_
_atom_site_label
_atom_site_type_symbol
_atom_site_fract_x
_atom_site_fract_y
_atom_site_fract_z
C1 C 0.94679(13) 0.18030(14) 0.55327(9)
C2 C 1.01934(13) 0.20382(14) 0.65370(9)
C3 C 1.13132(13) 0.30436(15) 0.67453(10)
H1 H 1.1783 0.3191 0.7430
C4 C 1.17562(13) 0.38447(15) 0.59497(10)
C5 C 1.10449(14) 0.36004(15) 0.49377(10)
H2 H 1.1340 0.4130 0.4388
C6 C 0.99336(13) 0.26060(14) 0.47436(9)
H3 H 0.9467 0.2457 0.4058
C7 C 0.82831(13) 0.07464(14) 0.53383(10)
O1 O 0.98130(10) 0.12740(11) 0.73378(7)
O2 O 0.76688(10) 0.05708(11) 0.43825(7)
O3 O 0.78613(9) 0.00540(10) 0.60488(7)
H4 H 0.902(2) 0.067(2) 0.7017(17)
H5 H 1.331(2) 0.494(2) 0.6772(15)
H6 H 1.3145(19) 0.534(2) 0.5604(14)
N1 N 1.28337(12) 0.48626(14) 0.61339(10)
H7 H 0.693(2) -0.019(3) 0.4319(16)
C8 C 1.50585(13) 0.76716(14) 0.47262(10)
C9 C 1.50010(14) 0.84666(15) 0.30811(10)
H8 H 1.5348 0.9095 0.2599
C10 C 1.39201(14) 0.74666(16) 0.27324(10)
H9 H 1.3522 0.7380 0.2027
C11 C 1.34491(14) 0.65949(15) 0.34721(10)
H10 H 1.2696 0.5902 0.3259
N2 N 1.39892(11) 0.66731(12) 0.44597(8)
N3 N 1.56625(12) 0.77693(14) 0.57111(9)
N4 N 1.55778(11) 0.85883(12) 0.40629(8)
H11 H 1.5305(18) 0.7243(19) 0.6176(13)
H12 H 1.6369(19) 0.850(2) 0.5874(13)
loop_
_geom_bond_atom_site_label_1
_geom_bond_atom_site_label_2
_geom_bond_site_symmetry_1
_geom_bond_site_symmetry_2
C1 C2 1_555 1_555
C2 C3 1_555 1_555
C3 H1 1_555 1_555
C4 C3 1_555 1_555
C5 C4 1_555 1_555
H2 C5 1_555 1_555
C6 C1 1_555 1_555
H3 C6 1_555 1_555
C7 C1 1_555 1_555
O1 C2 1_555 1_555
O2 C7 1_555 1_555
O3 C7 1_555 1_555
H4 O1 1_555 1_555
H5 N1 1_555 1_555
H6 N1 1_555 1_555
N1 C4 1_555 1_555
H7 O2 1_555 1_555
C8 N2 1_555 1_555
C9 H8 1_555 1_555
C10 C9 1_555 1_555
H9 C10 1_555 1_555
C11 C10 1_555 1_555
H10 C11 1_555 1_555
N2 C11 1_555 1_555
N3 C8 1_555 1_555
N4 C8 1_555 1_555
H11 N3 1_555 1_555
H12 N3 1_555 1_555
C5 C6 1_555 1_555
C9 N4 1_555 1_555

#END
