
#######################################################################
#
#                 Cambridge Crystallographic Data Centre
#                                CCDC 
#
#######################################################################
#
# If this CIF has been generated from an entry in the Cambridge 
# Structural Database, then it will include bibliographic, chemical, 
# crystal, experimental, refinement or atomic coordinate data resulting 
# from the CCDC's data processing and validation procedures.
#
#######################################################################

data_MOYZEH
_chemical_formula_moiety         'C7 H4 Br1 O2 1-,C5 H7 N2 1+'
_chemical_name_systematic        '2-Aminopyridinium 2-bromobenzoate'
_symmetry_cell_setting           monoclinic
_symmetry_space_group_name_H-M   'P 21/c'
_symmetry_Int_Tables_number      14
_space_group_name_Hall           '-P 2ybc'
loop_
_symmetry_equiv_pos_site_id
_symmetry_equiv_pos_as_xyz
1 x,y,z
2 -x,1/2+y,1/2-z
3 -x,-y,-z
4 x,1/2-y,1/2+z
_cell_length_a                   6.959(3)
_cell_length_b                   8.645(4)
_cell_length_c                   19.626(14)
_cell_angle_alpha                90
_cell_angle_beta                 94.97(5)
_cell_angle_gamma                90
_cell_volume                     1176.27
_exptl_crystal_colour            yellow
_exptl_crystal_description       plates
_chemical_melting_point          '350 K'
_cell_formula_units_Z            4
loop_
_atom_site_label
_atom_site_type_symbol
_atom_site_fract_x
_atom_site_fract_y
_atom_site_fract_z
C1 C 0.0810(7) 0.9459(5) 0.1280(2)
C2 C 0.2042(7) 0.9723(6) 0.1854(3)
C3 C 0.1548(7) 1.0642(6) 0.2374(3)
H1 H 0.2422 1.0776 0.2769
C4 C -0.0200(7) 1.1372(6) 0.2331(3)
H2 H -0.0532 1.2041 0.2686
C5 C -0.1465(7) 1.1125(6) 0.1767(3)
H3 H -0.2689 1.1618 0.1731
C6 C -0.0969(7) 1.0168(6) 0.1253(2)
H4 H -0.1873 0.9989 0.0870
C7 C 0.1311(7) 0.8475(6) 0.0698(3)
O1 O 0.2734(5) 0.8893(4) 0.03964(17)
O2 O 0.0284(5) 0.7346(4) 0.05429(19)
Br1 Br 0.44733(7) 0.87464(7) 0.19760(3)
C8 C 0.3604(6) 0.9247(5) 0.4358(2)
C9 C 0.4667(7) 1.0231(5) 0.3977(2)
H5 H 0.4183 1.1232 0.3859
C10 C 0.6363(7) 0.9783(6) 0.3774(2)
H6 H 0.7071 1.0463 0.3509
C11 C 0.7100(7) 0.8321(5) 0.3948(3)
H7 H 0.8291 0.7987 0.3796
C12 C 0.6091(7) 0.7399(5) 0.4335(2)
H8 H 0.6584 0.6411 0.4472
N1 N 0.4377(6) 0.7876(5) 0.4531(2)
N2 N 0.1894(6) 0.9580(5) 0.4554(2)
H9 H 0.373(8) 0.730(6) 0.479(3)
H10 H 0.141(7) 0.902(6) 0.484(3)
H11 H 0.123(8) 1.045(7) 0.445(3)
loop_
_geom_bond_atom_site_label_1
_geom_bond_atom_site_label_2
_geom_bond_site_symmetry_1
_geom_bond_site_symmetry_2
C1 C2 1_555 1_555
C2 C3 1_555 1_555
C3 H1 1_555 1_555
C4 C3 1_555 1_555
H2 C4 1_555 1_555
C5 C4 1_555 1_555
H3 C5 1_555 1_555
C6 C1 1_555 1_555
H4 C6 1_555 1_555
C7 C1 1_555 1_555
O1 C7 1_555 1_555
O2 C7 1_555 1_555
Br1 C2 1_555 1_555
C8 C9 1_555 1_555
C9 H5 1_555 1_555
C10 C9 1_555 1_555
H6 C10 1_555 1_555
C11 C10 1_555 1_555
H7 C11 1_555 1_555
C12 C11 1_555 1_555
H8 C12 1_555 1_555
N1 C8 1_555 1_555
N2 C8 1_555 1_555
H9 N1 1_555 1_555
H10 N2 1_555 1_555
H11 N2 1_555 1_555
C5 C6 1_555 1_555
C12 N1 1_555 1_555

#END
