
#######################################################################
#
#                 Cambridge Crystallographic Data Centre
#                                CCDC 
#
#######################################################################
#
# If this CIF has been generated from an entry in the Cambridge 
# Structural Database, then it will include bibliographic, chemical, 
# crystal, experimental, refinement or atomic coordinate data resulting 
# from the CCDC's data processing and validation procedures.
#
#######################################################################

data_MOZDEL
_chemical_name_common            
'Caffeine 2,3-dihydroxybenzoic acid monohydrate'
_chemical_formula_moiety         'C8 H10 N4 O2,C7 H6 O4,H2 O1'
_chemical_name_systematic        
'2,3-Dihydroxybenzoic acid 1,3,7-trimethyl-3,7-dihydro-1H-purine-2,6-dione monohydrate'
_symmetry_cell_setting           triclinic
_symmetry_space_group_name_H-M   'P -1'
_symmetry_Int_Tables_number      2
_space_group_name_Hall           '-P 1'
loop_
_symmetry_equiv_pos_site_id
_symmetry_equiv_pos_as_xyz
1 x,y,z
2 -x,-y,-z
_cell_length_a                   6.657(4)
_cell_length_b                   8.796(5)
_cell_length_c                   15.670(9)
_cell_angle_alpha                77.832(9)
_cell_angle_beta                 83.426(9)
_cell_angle_gamma                71.568(9)
_cell_volume                     849.796
_exptl_crystal_colour            colorless
_exptl_crystal_description       plate
_cell_formula_units_Z            2
_exptl_crystal_recrystallization_method acetonitrile/water
loop_
_atom_site_label
_atom_site_type_symbol
_atom_site_fract_x
_atom_site_fract_y
_atom_site_fract_z
O1 O -0.0279(4) 0.9151(3) 0.21300(15)
H1 H 0.0133 0.8151 0.2243
O2 O -0.0672(4) 0.8819(3) 0.35870(15)
O3 O -0.1876(4) 1.1290(3) 0.43343(14)
H2 H -0.1436 1.0319 0.4305
O4 O -0.3218(4) 1.4461(3) 0.42112(15)
H3 H -0.3650 1.5461 0.4108
C1 C -0.0821(5) 0.9719(4) 0.2858(2)
C2 C -0.1610(5) 1.1518(3) 0.2756(2)
C3 C -0.2097(5) 1.2200(4) 0.35115(19)
C4 C -0.2832(5) 1.3897(4) 0.3449(2)
C5 C -0.3101(5) 1.4899(4) 0.2621(2)
H4 H -0.3601 1.6026 0.2572
C6 C -0.2623(5) 1.4213(4) 0.1871(2)
H5 H -0.2808 1.4886 0.1323
C7 C -0.1879(5) 1.2544(4) 0.1933(2)
H6 H -0.1555 1.2097 0.1428
O5 O 0.3893(4) 0.0314(3) 0.29696(19)
O6 O 0.3281(5) 0.3188(4) 0.01695(16)
N1 N 0.2244(4) 0.3593(3) 0.35587(17)
N2 N 0.3572(4) 0.1772(3) 0.15710(18)
N3 N 0.2321(4) 0.4648(3) 0.12612(17)
N4 N 0.1414(4) 0.5934(3) 0.2543(2)
C8 C 0.2449(7) 0.2559(5) 0.4405(2)
H7 H 0.2444 0.3184 0.4839
H8 H 0.3757 0.1689 0.4410
H9 H 0.1283 0.2111 0.4531
C9 C 0.2608(5) 0.3205(4) 0.27343(19)
C10 C 0.3390(5) 0.1653(4) 0.2481(2)
C11 C 0.4349(7) 0.0248(5) 0.1228(3)
H10 H 0.3433 0.0277 0.0790
H11 H 0.4362 -0.0657 0.1695
H12 H 0.5760 0.0128 0.0974
C12 C 0.3063(5) 0.3209(4) 0.0950(2)
C13 C 0.1769(7) 0.6212(5) 0.0635(3)
H13 H 0.0353 0.6455 0.0456
H14 H 0.2743 0.6132 0.0133
H15 H 0.1854 0.7067 0.0910
C14 C 0.2111(5) 0.4631(4) 0.2150(2)
C15 C 0.1519(6) 0.5261(4) 0.3406(3)
H16 H 0.1136 0.5872 0.3848
O7 O -0.4255(5) 1.2579(3) 0.59022(17)
loop_
_geom_bond_atom_site_label_1
_geom_bond_atom_site_label_2
_geom_bond_site_symmetry_1
_geom_bond_site_symmetry_2
O1 H1 1_555 1_555
O2 C1 1_555 1_555
O3 H2 1_555 1_555
O4 H3 1_555 1_555
C1 O1 1_555 1_555
C2 C1 1_555 1_555
C3 O3 1_555 1_555
C4 O4 1_555 1_555
C5 C4 1_555 1_555
H4 C5 1_555 1_555
C6 C5 1_555 1_555
H5 C6 1_555 1_555
C7 C2 1_555 1_555
H6 C7 1_555 1_555
O5 C10 1_555 1_555
O6 C12 1_555 1_555
N1 C8 1_555 1_555
N2 C10 1_555 1_555
N3 C12 1_555 1_555
N4 C14 1_555 1_555
C8 H7 1_555 1_555
H8 C8 1_555 1_555
H9 C8 1_555 1_555
C9 N1 1_555 1_555
C10 C9 1_555 1_555
C11 N2 1_555 1_555
H10 C11 1_555 1_555
H11 C11 1_555 1_555
H12 C11 1_555 1_555
C12 N2 1_555 1_555
C13 N3 1_555 1_555
H13 C13 1_555 1_555
H14 C13 1_555 1_555
H15 C13 1_555 1_555
C14 N3 1_555 1_555
C15 N1 1_555 1_555
H16 C15 1_555 1_555
C2 C3 1_555 1_555
C3 C4 1_555 1_555
C6 C7 1_555 1_555
N4 C15 1_555 1_555
C9 C14 1_555 1_555

#END
