
#######################################################################
#
#                 Cambridge Crystallographic Data Centre
#                                CCDC 
#
#######################################################################
#
# If this CIF has been generated from an entry in the Cambridge 
# Structural Database, then it will include bibliographic, chemical, 
# crystal, experimental, refinement or atomic coordinate data resulting 
# from the CCDC's data processing and validation procedures.
#
#######################################################################

data_MOZFOY
_chemical_name_common            '2-Fluorobenzoic acid and 3-aminopyridine'
_chemical_formula_moiety         'C7 H4 F1 O2 1-,C5 H7 N2 1+'
_chemical_name_systematic        '3-Aminopyridinium 2-fluorobenzoate salt'
_symmetry_cell_setting           orthorhombic
_symmetry_space_group_name_H-M   'P b c a'
_symmetry_Int_Tables_number      61
_space_group_name_Hall           '-P 2ac 2ab'
loop_
_symmetry_equiv_pos_site_id
_symmetry_equiv_pos_as_xyz
1 x,y,z
2 1/2-x,-y,1/2+z
3 -x,1/2+y,1/2-z
4 1/2+x,1/2-y,-z
5 -x,-y,-z
6 1/2+x,y,1/2-z
7 x,1/2-y,1/2+z
8 1/2-x,1/2+y,z
_cell_length_a                   9.319(3)
_cell_length_b                   11.002(4)
_cell_length_c                   21.133(3)
_cell_angle_alpha                90
_cell_angle_beta                 90
_cell_angle_gamma                90
_cell_volume                     2166.72
_exptl_crystal_colour            brown
_exptl_crystal_description       slab
_cell_formula_units_Z            8
loop_
_atom_site_label
_atom_site_type_symbol
_atom_site_fract_x
_atom_site_fract_y
_atom_site_fract_z
C1 C 0.02509(19) 0.94474(17) 0.32471(8)
C2 C 0.0669(2) 0.82618(19) 0.31870(9)
C3 C 0.1484(2) 0.7842(2) 0.26964(9)
H1 H 0.1761 0.7011 0.2677
C4 C 0.1893(2) 0.8637(2) 0.22347(10)
H2 H 0.2439 0.8358 0.1884
C5 C 0.1517(2) 0.9839(2) 0.22774(9)
H3 H 0.1814 1.0397 0.1960
C6 C 0.0711(2) 1.0231(2) 0.27773(9)
H4 H 0.0460 1.1066 0.2803
C7 C -0.0678(2) 0.9942(2) 0.37661(9)
O1 O -0.11020(16) 0.91989(13) 0.41801(6)
O2 O -0.09818(16) 1.10310(13) 0.37556(6)
F1 F 0.02770(17) 0.74294(11) 0.36170(6)
C8 C 0.3519(2) 0.88679(18) 0.51481(9)
H5 H 0.3471 0.8571 0.5570
C9 C 0.4396(2) 0.82922(18) 0.47119(9)
C10 C 0.4398(2) 0.87562(19) 0.41007(9)
H6 H 0.4967 0.8379 0.3784
C11 C 0.3589(2) 0.9747(2) 0.39522(9)
H7 H 0.3601 1.0063 0.3534
C12 C 0.2760(2) 1.02886(19) 0.44062(9)
H8 H 0.2201 1.0986 0.4308
N1 N 0.27487(17) 0.98278(16) 0.49833(7)
N2 N 0.5226(2) 0.73460(17) 0.48767(10)
H9 H 0.215(3) 1.021(2) 0.5306(13)
H10 H 0.495(3) 0.699(2) 0.5212(12)
H11 H 0.556(3) 0.687(2) 0.4528(12)
loop_
_geom_bond_atom_site_label_1
_geom_bond_atom_site_label_2
_geom_bond_site_symmetry_1
_geom_bond_site_symmetry_2
C1 C2 1_555 1_555
C2 C3 1_555 1_555
C3 H1 1_555 1_555
C4 C3 1_555 1_555
H2 C4 1_555 1_555
C5 C4 1_555 1_555
H3 C5 1_555 1_555
C6 C1 1_555 1_555
H4 C6 1_555 1_555
C7 C1 1_555 1_555
O1 C7 1_555 1_555
O2 C7 1_555 1_555
F1 C2 1_555 1_555
C8 H5 1_555 1_555
C9 C8 1_555 1_555
C10 C9 1_555 1_555
H6 C10 1_555 1_555
C11 C10 1_555 1_555
H7 C11 1_555 1_555
C12 C11 1_555 1_555
H8 C12 1_555 1_555
N1 C8 1_555 1_555
N2 C9 1_555 1_555
H9 N1 1_555 1_555
H10 N2 1_555 1_555
H11 N2 1_555 1_555
C5 C6 1_555 1_555
C12 N1 1_555 1_555

#END
