
#######################################################################
#
#                 Cambridge Crystallographic Data Centre
#                                CCDC 
#
#######################################################################
#
# If this CIF has been generated from an entry in the Cambridge 
# Structural Database, then it will include bibliographic, chemical, 
# crystal, experimental, refinement or atomic coordinate data resulting 
# from the CCDC's data processing and validation procedures.
#
#######################################################################

data_MOZGIT
_chemical_formula_moiety         'C12 H10 N4 O1 2+,2(N1 O3 1-),2(H2 O1)'
_chemical_name_systematic        
"4,4'-(1,3,4-oxadiazole-2,5-diyl)dipyridinium dinitrate dihydrate"
_symmetry_cell_setting           monoclinic
_symmetry_space_group_name_H-M   'P 21/c'
_symmetry_Int_Tables_number      14
_space_group_name_Hall           '-P 2ybc'
loop_
_symmetry_equiv_pos_site_id
_symmetry_equiv_pos_as_xyz
1 x,y,z
2 -x,1/2+y,1/2-z
3 -x,-y,-z
4 x,1/2-y,1/2+z
_cell_length_a                   7.4845(15)
_cell_length_b                   18.648(4)
_cell_length_c                   11.768(2)
_cell_angle_alpha                90
_cell_angle_beta                 90.46(3)
_cell_angle_gamma                90
_cell_volume                     1642.42
_exptl_crystal_colour            colorless
_exptl_crystal_description       needle
_cell_formula_units_Z            4
loop_
_atom_site_label
_atom_site_type_symbol
_atom_site_fract_x
_atom_site_fract_y
_atom_site_fract_z
C1 C 0.8730(3) 0.73305(14) 0.9424(2)
H1 H 0.8148 0.7240 1.0104
C2 C 0.9397(4) 0.67782(15) 0.8788(2)
H2 H 0.9259 0.6307 0.9030
N1 N 1.0244(3) 0.69180(13) 0.7822(2)
H3 H 1.0645 0.6565 0.7430
C3 C 1.0495(4) 0.75829(18) 0.7439(2)
H4 H 1.1113 0.7656 0.6767
C4 C 0.9851(4) 0.81604(15) 0.8029(2)
H5 H 1.0019 0.8625 0.7765
C5 C 0.8939(3) 0.80308(13) 0.9033(2)
C6 C 0.8204(3) 0.86428(14) 0.9639(2)
N2 N 0.8201(3) 0.93048(12) 0.93222(19)
N3 N 0.7302(3) 0.96841(12) 1.01648(19)
C7 C 0.6827(3) 0.92184(13) 1.0909(2)
O1 O 0.7357(2) 0.85415(9) 1.06457(14)
C8 C 0.5785(3) 0.93443(13) 1.1935(2)
C9 C 0.5292(3) 0.87839(14) 1.2645(2)
H6 H 0.5637 0.8316 1.2487
C10 C 0.4287(4) 0.89360(15) 1.3583(2)
H7 H 0.3947 0.8569 1.4071
N4 N 0.3798(3) 0.96072(12) 1.37938(19)
H8 H 0.3154 0.9691 1.4381
C11 C 0.4263(4) 1.01550(15) 1.3136(2)
H9 H 0.3891 1.0617 1.3317
C12 C 0.5286(3) 1.00425(14) 1.2195(2)
H10 H 0.5638 1.0424 1.1739
N5 N 0.1265(3) 0.96881(14) 0.6118(2)
O2 O 0.1960(3) 1.01821(11) 0.55469(17)
O3 O 0.1604(3) 0.90548(12) 0.5860(2)
O4 O 0.0276(3) 0.98384(14) 0.69085(19)
N6 N 0.3711(3) 0.69773(13) 0.4565(2)
O5 O 0.4675(3) 0.72366(13) 0.3814(2)
O6 O 0.3463(3) 0.63249(11) 0.4600(2)
O7 O 0.3034(3) 0.73791(14) 0.5270(2)
O8 O 0.1205(3) 0.91322(10) 0.14107(17)
H11 H 0.0998 0.9535 0.1721
H12 H 0.0600 0.9098 0.0798
O9 O 0.5824(3) 0.81075(13) 0.6577(2)
H13 H 0.5593 0.8068 0.7202
H14 H 0.4918 0.8135 0.6139
loop_
_geom_bond_atom_site_label_1
_geom_bond_atom_site_label_2
_geom_bond_site_symmetry_1
_geom_bond_site_symmetry_2
C1 H1 1_555 1_555
C2 C1 1_555 1_555
H2 C2 1_555 1_555
N1 C2 1_555 1_555
H3 N1 1_555 1_555
C3 N1 1_555 1_555
H4 C3 1_555 1_555
C4 C3 1_555 1_555
H5 C4 1_555 1_555
C5 C1 1_555 1_555
C6 C5 1_555 1_555
N2 C6 1_555 1_555
N3 N2 1_555 1_555
C7 N3 1_555 1_555
O1 C6 1_555 1_555
C8 C7 1_555 1_555
C9 C8 1_555 1_555
H6 C9 1_555 1_555
C10 C9 1_555 1_555
H7 C10 1_555 1_555
N4 C10 1_555 1_555
H8 N4 1_555 1_555
C11 N4 1_555 1_555
H9 C11 1_555 1_555
C12 C8 1_555 1_555
H10 C12 1_555 1_555
N5 O2 1_555 1_555
O3 N5 1_555 1_555
O4 N5 1_555 1_555
N6 O5 1_555 1_555
O6 N6 1_555 1_555
O7 N6 1_555 1_555
O8 H11 1_555 1_555
H12 O8 1_555 1_555
O9 H13 1_555 1_555
H14 O9 1_555 1_555
C4 C5 1_555 1_555
C7 O1 1_555 1_555
C11 C12 1_555 1_555

#END
