
#######################################################################
#
#                 Cambridge Crystallographic Data Centre
#                                CCDC 
#
#######################################################################
#
# If this CIF has been generated from an entry in the Cambridge 
# Structural Database, then it will include bibliographic, chemical, 
# crystal, experimental, refinement or atomic coordinate data resulting 
# from the CCDC's data processing and validation procedures.
#
#######################################################################

data_MOZGUF
_chemical_formula_moiety         
'2(C12 H10 N4 O1 2+),C12 H9 N4 O1 1+,3(I3 1-),2(H2 O1),2(I1 1-)'
_chemical_name_systematic        
"bis(4,4'-(1,3,4-oxadiazole-2,5-diyl)dipyridinium) 4-[5-(pyridin-4-yl)-1,3,4-oxadiazol-2-yl]pyridinium tris(triiodide) diiodide dihydrate"
_symmetry_cell_setting           triclinic
_symmetry_space_group_name_H-M   'P -1'
_symmetry_Int_Tables_number      2
_space_group_name_Hall           '-P 1'
loop_
_symmetry_equiv_pos_site_id
_symmetry_equiv_pos_as_xyz
1 x,y,z
2 -x,-y,-z
_cell_length_a                   10.637(2)
_cell_length_b                   13.967(3)
_cell_length_c                   21.237(4)
_cell_angle_alpha                82.92(3)
_cell_angle_beta                 76.08(3)
_cell_angle_gamma                69.64(3)
_cell_volume                     2868.42
_exptl_crystal_colour            yellow
_exptl_crystal_description       lamellar
_cell_formula_units_Z            2
loop_
_atom_site_label
_atom_site_type_symbol
_atom_site_fract_x
_atom_site_fract_y
_atom_site_fract_z
C1 C 0.8851(8) -0.0998(6) 0.4530(4)
H1 H 0.8903 -0.0343 0.4503
C2 C 0.9893(8) -0.1771(7) 0.4189(4)
H2 H 1.0653 -0.1640 0.3923
N1 N 0.9809(7) -0.2702(5) 0.4241(3)
H3 H 1.0476 -0.3181 0.4032
C3 C 0.8739(8) -0.2924(6) 0.4603(4)
H4 H 0.8719 -0.3588 0.4624
C4 C 0.7666(8) -0.2188(6) 0.4944(4)
H5 H 0.6905 -0.2339 0.5193
C5 C 0.7732(7) -0.1213(5) 0.4912(3)
C6 C 0.6609(8) -0.0446(6) 0.5304(3)
N2 N 0.5527(6) -0.0579(5) 0.5693(3)
N3 N 0.4762(6) 0.0352(5) 0.5983(3)
C7 C 0.5448(7) 0.0966(6) 0.5753(3)
O1 O 0.6608(5) 0.0531(4) 0.5309(2)
C8 C 0.5085(7) 0.2019(5) 0.5932(3)
C9 C 0.3995(8) 0.2362(6) 0.6456(4)
H6 H 0.3511 0.1934 0.6672
C10 C 0.3642(9) 0.3341(7) 0.6650(4)
H7 H 0.2927 0.3580 0.7004
N4 N 0.4330(8) 0.3940(5) 0.6329(4)
H8 H 0.4094 0.4553 0.6452
C11 C 0.5358(10) 0.3642(7) 0.5830(5)
H9 H 0.5813 0.4091 0.5620
C12 C 0.5762(8) 0.2669(6) 0.5618(4)
H10 H 0.6488 0.2456 0.5264
C13 C 1.1485(8) 0.7197(6) 0.0852(4)
H11 H 1.1456 0.7873 0.0774
C14 C 1.2226(8) 0.6475(6) 0.0395(4)
H12 H 1.2731 0.6671 0.0011
N5 N 1.2249(7) 0.5523(5) 0.0479(3)
C15 C 1.1557(9) 0.5216(6) 0.1040(4)
H13 H 1.1593 0.4537 0.1098
C16 C 1.0804(8) 0.5872(6) 0.1526(4)
H14 H 1.0321 0.5652 0.1908
C17 C 1.0787(7) 0.6880(6) 0.1430(3)
C18 C 1.0027(7) 0.7577(6) 0.1965(4)
N6 N 0.9500(6) 0.7361(4) 0.2537(3)
N7 N 0.8900(6) 0.8283(5) 0.2856(3)
C19 C 0.9088(7) 0.8974(6) 0.2439(3)
O2 O 0.9769(5) 0.8609(4) 0.1834(2)
C20 C 0.8600(7) 1.0075(6) 0.2510(4)
C21 C 0.7775(7) 1.0433(6) 0.3098(4)
H15 H 0.7513 0.9986 0.3423
C22 C 0.7349(8) 1.1454(7) 0.3194(4)
H16 H 0.6818 1.1706 0.3593
N8 N 0.7694(7) 1.2096(5) 0.2713(4)
H17 H 0.7386 1.2743 0.2771
C23 C 0.8489(10) 1.1754(7) 0.2159(4)
H18 H 0.8742 1.2216 0.1844
C24 C 0.8963(8) 1.0740(6) 0.2026(4)
H19 H 0.9508 1.0509 0.1625
C25 C 0.5521(9) 0.7714(6) 0.0600(4)
H20 H 0.4858 0.8335 0.0530
C26 C 0.5784(9) 0.6918(7) 0.0222(4)
H21 H 0.5331 0.7003 -0.0116
N9 N 0.6708(7) 0.6005(5) 0.0340(3)
H22 H 0.6860 0.5499 0.0107
C27 C 0.7378(8) 0.5877(7) 0.0806(4)
H23 H 0.8011 0.5239 0.0872
C28 C 0.7182(8) 0.6648(6) 0.1197(4)
H24 H 0.7662 0.6544 0.1526
C29 C 0.6213(7) 0.7612(6) 0.1078(3)
C30 C 0.6018(8) 0.8430(6) 0.1499(3)
N10 N 0.6690(7) 0.8378(5) 0.1944(3)
N11 N 0.6112(6) 0.9316(5) 0.2234(3)
C31 C 0.5117(8) 0.9844(6) 0.1943(3)
O3 O 0.4998(5) 0.9329(4) 0.1474(2)
C32 C 0.4159(8) 1.0863(6) 0.2103(3)
C33 C 0.4332(9) 1.1314(7) 0.2608(4)
H25 H 0.5042 1.0977 0.2823
C34 C 0.3431(11) 1.2273(7) 0.2786(4)
H26 H 0.3556 1.2608 0.3106
N12 N 0.2418(8) 1.2694(6) 0.2504(4)
H27 H 0.1833 1.3267 0.2645
C35 C 0.2198(10) 1.2310(7) 0.2004(4)
H28 H 0.1465 1.2662 0.1807
C36 C 0.3097(9) 1.1383(7) 0.1801(4)
H29 H 0.2989 1.1098 0.1452
I1 I 0.69939(6) 0.21992(5) 0.74374(3)
I2 I 0.58271(5) 0.42708(5) 0.80014(3)
I3 I 0.47175(7) 0.62513(5) 0.85605(3)
I4 I 0.18047(7) 0.56383(5) 0.54196(3)
I5 I 0.03507(6) 0.76212(4) 0.59750(3)
I6 I -0.12850(6) 0.96315(5) 0.65277(3)
I7 I 0.95166(7) 0.72053(5) -0.05691(3)
I8 I 0.82967(6) 0.92109(5) 0.00186(3)
I9 I 0.70383(7) 1.11500(5) 0.06542(3)
I10 I 0.83184(6) 0.43841(4) 0.23927(3)
I11 I 0.53929(6) 0.62553(4) 0.60253(3)
O4 O -0.0921(7) 0.5475(6) 0.7002(4)
H30 H -0.1206 0.5194 0.6740
H31 H -0.0035 0.5188 0.6909
O5 O -0.1802(6) 0.4256(5) 0.6402(3)
H32 H -0.2237 0.4090 0.6766
H33 H -0.2388 0.4665 0.6199
loop_
_geom_bond_atom_site_label_1
_geom_bond_atom_site_label_2
_geom_bond_site_symmetry_1
_geom_bond_site_symmetry_2
C1 H1 1_555 1_555
C2 C1 1_555 1_555
H2 C2 1_555 1_555
N1 C2 1_555 1_555
H3 N1 1_555 1_555
C3 N1 1_555 1_555
H4 C3 1_555 1_555
C4 C3 1_555 1_555
H5 C4 1_555 1_555
C5 C1 1_555 1_555
C6 C5 1_555 1_555
N2 C6 1_555 1_555
N3 N2 1_555 1_555
C7 N3 1_555 1_555
O1 C6 1_555 1_555
C8 C7 1_555 1_555
C9 C8 1_555 1_555
H6 C9 1_555 1_555
C10 C9 1_555 1_555
H7 C10 1_555 1_555
N4 C10 1_555 1_555
H8 N4 1_555 1_555
C11 N4 1_555 1_555
H9 C11 1_555 1_555
C12 C8 1_555 1_555
H10 C12 1_555 1_555
C13 H11 1_555 1_555
C14 C13 1_555 1_555
H12 C14 1_555 1_555
N5 C14 1_555 1_555
C15 N5 1_555 1_555
H13 C15 1_555 1_555
C16 C15 1_555 1_555
H14 C16 1_555 1_555
C17 C13 1_555 1_555
C18 C17 1_555 1_555
N6 C18 1_555 1_555
N7 N6 1_555 1_555
C19 N7 1_555 1_555
O2 C18 1_555 1_555
C20 C19 1_555 1_555
C21 C20 1_555 1_555
H15 C21 1_555 1_555
C22 C21 1_555 1_555
H16 C22 1_555 1_555
N8 C22 1_555 1_555
H17 N8 1_555 1_555
C23 N8 1_555 1_555
H18 C23 1_555 1_555
C24 C20 1_555 1_555
H19 C24 1_555 1_555
C25 H20 1_555 1_555
C26 C25 1_555 1_555
H21 C26 1_555 1_555
N9 C26 1_555 1_555
H22 N9 1_555 1_555
C27 N9 1_555 1_555
H23 C27 1_555 1_555
C28 C27 1_555 1_555
H24 C28 1_555 1_555
C29 C25 1_555 1_555
C30 C29 1_555 1_555
N10 C30 1_555 1_555
N11 N10 1_555 1_555
C31 N11 1_555 1_555
O3 C30 1_555 1_555
C32 C31 1_555 1_555
C33 C32 1_555 1_555
H25 C33 1_555 1_555
C34 C33 1_555 1_555
H26 C34 1_555 1_555
N12 C34 1_555 1_555
H27 N12 1_555 1_555
C35 N12 1_555 1_555
H28 C35 1_555 1_555
C36 C32 1_555 1_555
H29 C36 1_555 1_555
I1 I2 1_555 1_555
I2 I3 1_555 1_555
I4 I5 1_555 1_555
I5 I6 1_555 1_555
I7 I8 1_555 1_555
I8 I9 1_555 1_555
O4 H30 1_555 1_555
H31 O4 1_555 1_555
O5 H32 1_555 1_555
H33 O5 1_555 1_555
C4 C5 1_555 1_555
C7 O1 1_555 1_555
C11 C12 1_555 1_555
C16 C17 1_555 1_555
C19 O2 1_555 1_555
C23 C24 1_555 1_555
C28 C29 1_555 1_555
C31 O3 1_555 1_555
C35 C36 1_555 1_555

#END
