
#######################################################################
#
#                 Cambridge Crystallographic Data Centre
#                                CCDC 
#
#######################################################################
#
# If this CIF has been generated from an entry in the Cambridge 
# Structural Database, then it will include bibliographic, chemical, 
# crystal, experimental, refinement or atomic coordinate data resulting 
# from the CCDC's data processing and validation procedures.
#
#######################################################################

data_MOZGOZ
_chemical_formula_moiety         'C12 H10 N4 O1 2+,H1 O4 P1 2-'
_chemical_name_systematic        
"4,4'-(1,3,4-oxadiazole-2,5-diyl)-dipyridinium hydrogen phosphate"
_symmetry_cell_setting           monoclinic
_symmetry_space_group_name_H-M   'C 2/c'
_symmetry_Int_Tables_number      15
_space_group_name_Hall           '-C 2yn'
loop_
_symmetry_equiv_pos_site_id
_symmetry_equiv_pos_as_xyz
1 x,y,z
2 -x,y,1/2-z
3 1/2+x,1/2+y,z
4 1/2-x,1/2+y,1/2-z
5 -x,-y,-z
6 x,-y,1/2+z
7 1/2-x,1/2-y,-z
8 1/2+x,1/2-y,1/2+z
_cell_length_a                   14.716(3)
_cell_length_b                   17.249(3)
_cell_length_c                   10.967(2)
_cell_angle_alpha                90
_cell_angle_beta                 94.24(3)
_cell_angle_gamma                90
_cell_volume                     2776.2
_exptl_crystal_colour            colorless
_exptl_crystal_description       rodlike
_cell_formula_units_Z            8
loop_
_atom_site_label
_atom_site_type_symbol
_atom_site_fract_x
_atom_site_fract_y
_atom_site_fract_z
C1 C 0.1686(2) 0.45381(16) 0.8412(3)
H1 H 0.1913 0.4920 0.8950
C2 C 0.1803(2) 0.37621(17) 0.8696(3)
H2 H 0.2117 0.3630 0.9434
N1 N 0.14895(17) 0.32011(14) 0.7966(2)
H3 H 0.1573 0.2723 0.8169
C3 C 0.1037(2) 0.33890(18) 0.6900(3)
H4 H 0.0811 0.2992 0.6390
C4 C 0.0894(2) 0.41353(17) 0.6533(3)
H5 H 0.0584 0.4246 0.5783
C5 C 0.12240(18) 0.47341(16) 0.7311(3)
C6 C 0.10480(18) 0.55349(16) 0.6946(2)
N2 N 0.05795(17) 0.57748(14) 0.5982(2)
N3 N 0.05777(17) 0.65838(14) 0.6042(2)
C7 C 0.10410(19) 0.67683(15) 0.7041(3)
O1 O 0.13588(12) 0.61305(11) 0.76833(16)
C8 C 0.11947(18) 0.75398(16) 0.7536(2)
C9 C 0.1482(2) 0.76710(18) 0.8749(3)
H6 H 0.1610 0.7258 0.9280
C10 C 0.1576(2) 0.84263(19) 0.9157(3)
H7 H 0.1754 0.8515 0.9976
N4 N 0.14194(18) 0.90311(14) 0.8420(3)
H8 H 0.1498 0.9496 0.8691
C11 C 0.1139(2) 0.89024(18) 0.7256(3)
H9 H 0.1023 0.9327 0.6746
C12 C 0.1014(2) 0.81722(16) 0.6771(3)
H10 H 0.0813 0.8103 0.5954
P1 P 0.12932(6) 0.11171(5) 0.83938(7)
O2 O 0.04215(16) 0.12420(17) 0.9012(2)
H11 H -0.0015 0.1125 0.8541
O3 O 0.19203(15) 0.18171(12) 0.8696(2)
O4 O 0.18508(18) 0.04522(13) 0.9028(2)
O5 O 0.11141(15) 0.09652(15) 0.70571(19)
loop_
_geom_bond_atom_site_label_1
_geom_bond_atom_site_label_2
_geom_bond_site_symmetry_1
_geom_bond_site_symmetry_2
C1 H1 1_555 1_555
C2 C1 1_555 1_555
H2 C2 1_555 1_555
N1 C2 1_555 1_555
H3 N1 1_555 1_555
C3 N1 1_555 1_555
H4 C3 1_555 1_555
C4 C3 1_555 1_555
H5 C4 1_555 1_555
C5 C1 1_555 1_555
C6 C5 1_555 1_555
N2 C6 1_555 1_555
N3 N2 1_555 1_555
C7 N3 1_555 1_555
O1 C6 1_555 1_555
C8 C7 1_555 1_555
C9 C8 1_555 1_555
H6 C9 1_555 1_555
C10 C9 1_555 1_555
H7 C10 1_555 1_555
N4 C10 1_555 1_555
H8 N4 1_555 1_555
C11 N4 1_555 1_555
H9 C11 1_555 1_555
C12 C8 1_555 1_555
H10 C12 1_555 1_555
P1 O2 1_555 1_555
O2 H11 1_555 1_555
O3 P1 1_555 1_555
O4 P1 1_555 1_555
O5 P1 1_555 1_555
C4 C5 1_555 1_555
C7 O1 1_555 1_555
C11 C12 1_555 1_555

#END
