
#######################################################################
#
#                 Cambridge Crystallographic Data Centre
#                                CCDC 
#
#######################################################################
#
# If this CIF has been generated from an entry in the Cambridge 
# Structural Database, then it will include bibliographic, chemical, 
# crystal, experimental, refinement or atomic coordinate data resulting 
# from the CCDC's data processing and validation procedures.
#
#######################################################################

data_MOZHIU
_chemical_formula_moiety         'C12 H9 N4 O1 1+,B1 F4 1-'
_chemical_name_systematic        
'2,5-bis(pyridin-4-yl)-1,3,4-oxadiazol-3-ium tetrafluoroborate'
_symmetry_cell_setting           triclinic
_symmetry_space_group_name_H-M   'P -1'
_symmetry_Int_Tables_number      2
_space_group_name_Hall           '-P 1'
loop_
_symmetry_equiv_pos_site_id
_symmetry_equiv_pos_as_xyz
1 x,y,z
2 -x,-y,-z
_cell_length_a                   8.4767(17)
_cell_length_b                   8.9502(18)
_cell_length_c                   9.2925(19)
_cell_angle_alpha                80.43(3)
_cell_angle_beta                 78.98(3)
_cell_angle_gamma                80.97(3)
_cell_volume                     676.644
_exptl_crystal_colour            colorless
_exptl_crystal_description       block
_cell_formula_units_Z            2
loop_
_atom_site_label
_atom_site_type_symbol
_atom_site_fract_x
_atom_site_fract_y
_atom_site_fract_z
C1 C 0.3435(3) 0.2916(3) 0.7227(3)
H1 H 0.2646 0.3760 0.7158
C2 C 0.3642(3) 0.2095(3) 0.8582(3)
H2 H 0.2986 0.2398 0.9434
N1 N 0.4763(3) 0.0868(2) 0.8704(2)
C3 C 0.5741(3) 0.0447(3) 0.7495(3)
H3 H 0.6530 -0.0394 0.7597
C4 C 0.5620(3) 0.1214(3) 0.6104(3)
H4 H 0.6319 0.0907 0.5274
C5 C 0.4428(3) 0.2459(3) 0.5967(3)
C6 C 0.4251(3) 0.3239(3) 0.4480(3)
N2 N 0.4963(3) 0.2810(3) 0.3243(2)
H5 H 0.5675 0.2024 0.3119
N3 N 0.4359(3) 0.3868(3) 0.2137(2)
C7 C 0.3336(3) 0.4852(3) 0.2815(2)
O1 O 0.3194(2) 0.45355(18) 0.43176(16)
C8 C 0.2397(3) 0.6204(3) 0.2133(2)
C9 C 0.2692(3) 0.6566(3) 0.0607(3)
H6 H 0.3453 0.5946 0.0031
C10 C 0.1848(4) 0.7851(3) -0.0041(3)
H7 H 0.2043 0.8094 -0.1066
N4 N 0.0759(3) 0.8762(2) 0.0753(2)
C11 C 0.0458(4) 0.8423(3) 0.2237(3)
H8 H -0.0304 0.9068 0.2785
C12 C 0.1250(3) 0.7148(3) 0.2960(3)
H9 H 0.1022 0.6921 0.3986
B1 B 0.0255(4) 0.2458(4) 0.3057(4)
F1 F 0.1315(3) 0.2025(3) 0.4081(2)
F2 F -0.1042(2) 0.1647(2) 0.3490(2)
F3 F -0.0250(4) 0.3947(3) 0.3037(4)
F4 F 0.1086(2) 0.2080(3) 0.1718(2)
loop_
_geom_bond_atom_site_label_1
_geom_bond_atom_site_label_2
_geom_bond_site_symmetry_1
_geom_bond_site_symmetry_2
C1 H1 1_555 1_555
C2 C1 1_555 1_555
H2 C2 1_555 1_555
N1 C2 1_555 1_555
C3 N1 1_555 1_555
H3 C3 1_555 1_555
C4 C3 1_555 1_555
H4 C4 1_555 1_555
C5 C1 1_555 1_555
C6 C5 1_555 1_555
N2 C6 1_555 1_555
H5 N2 1_555 1_555
N3 N2 1_555 1_555
C7 N3 1_555 1_555
O1 C6 1_555 1_555
C8 C7 1_555 1_555
C9 C8 1_555 1_555
H6 C9 1_555 1_555
C10 C9 1_555 1_555
H7 C10 1_555 1_555
N4 C10 1_555 1_555
C11 N4 1_555 1_555
H8 C11 1_555 1_555
C12 C8 1_555 1_555
H9 C12 1_555 1_555
B1 F1 1_555 1_555
F2 B1 1_555 1_555
F3 B1 1_555 1_555
F4 B1 1_555 1_555
C4 C5 1_555 1_555
C7 O1 1_555 1_555
C11 C12 1_555 1_555

#END
