
#######################################################################
#
#                 Cambridge Crystallographic Data Centre
#                                CCDC 
#
#######################################################################
#
# If this CIF has been generated from an entry in the Cambridge 
# Structural Database, then it will include bibliographic, chemical, 
# crystal, experimental, refinement or atomic coordinate data resulting 
# from the CCDC's data processing and validation procedures.
#
#######################################################################

data_MOZJIW
_chemical_formula_moiety         'C16 H12 N2 O1 S1'
_chemical_name_systematic        
7-methoxy-3-phenyl-4H-1,4-benzothiazine-4-carbonitrile
_symmetry_cell_setting           monoclinic
_symmetry_space_group_name_H-M   'P 21'
_symmetry_Int_Tables_number      4
_space_group_name_Hall           'P 2yb'
loop_
_symmetry_equiv_pos_site_id
_symmetry_equiv_pos_as_xyz
1 x,y,z
2 -x,1/2+y,-z
_cell_length_a                   4.1231(13)
_cell_length_b                   16.176(5)
_cell_length_c                   10.044(3)
_cell_angle_alpha                90
_cell_angle_beta                 94.086(7)
_cell_angle_gamma                90
_cell_volume                     668.185
_exptl_crystal_colour            colorless
_exptl_crystal_description       Block
_cell_formula_units_Z            2
loop_
_atom_site_label
_atom_site_type_symbol
_atom_site_fract_x
_atom_site_fract_y
_atom_site_fract_z
S1 S 0.2820(4) 0.76381(9) -0.00643(12)
O1 O -0.0773(11) 0.4822(2) -0.2008(4)
N1 N 0.5609(10) 0.6543(2) 0.2239(4)
N2 N 0.9373(12) 0.5700(3) 0.3716(5)
C1 C -0.2195(17) 0.5246(4) -0.3143(6)
H1 H -0.3954 0.5585 -0.2882
H2 H -0.3007 0.4852 -0.3799
H3 H -0.0586 0.5588 -0.3514
C2 C 0.0672(14) 0.5284(3) -0.0995(5)
C3 C 0.2119(14) 0.4842(3) 0.0069(5)
H4 H 0.2050 0.4267 0.0066
C4 C 0.3658(14) 0.5256(3) 0.1129(5)
H5 H 0.4550 0.4956 0.1856
C5 C 0.3910(12) 0.6109(3) 0.1142(5)
C6 C 0.2506(12) 0.6550(3) 0.0063(5)
C7 C 0.0833(12) 0.6136(3) -0.1000(5)
H6 H -0.0166 0.6434 -0.1707
C8 C 0.7633(12) 0.6095(3) 0.3052(5)
C9 C 0.3653(14) 0.7887(3) 0.1621(5)
H7 H 0.3145 0.8420 0.1885
C10 C 0.4938(11) 0.7385(3) 0.2548(5)
C11 C 0.5668(10) 0.7648(3) 0.3961(4)
C12 C 0.4717(13) 0.7189(3) 0.5032(5)
H8 H 0.3673 0.6684 0.4880
C13 C 0.5304(13) 0.7473(3) 0.6314(5)
H9 H 0.4652 0.7162 0.7026
C14 C 0.6860(16) 0.8220(4) 0.6550(6)
H10 H 0.7253 0.8410 0.7420
C15 C 0.7830(15) 0.8684(4) 0.5499(6)
H11 H 0.8866 0.9189 0.5656
C16 C 0.7250(14) 0.8392(3) 0.4206(6)
H12 H 0.7932 0.8700 0.3495
loop_
_geom_bond_atom_site_label_1
_geom_bond_atom_site_label_2
_geom_bond_site_symmetry_1
_geom_bond_site_symmetry_2
S1 C6 1_555 1_555
O1 C1 1_555 1_555
N1 C5 1_555 1_555
N2 C8 1_555 1_555
C1 H1 1_555 1_555
H2 C1 1_555 1_555
H3 C1 1_555 1_555
C2 O1 1_555 1_555
C3 C2 1_555 1_555
H4 C3 1_555 1_555
C4 C3 1_555 1_555
H5 C4 1_555 1_555
C5 C4 1_555 1_555
C6 C5 1_555 1_555
C7 C2 1_555 1_555
H6 C7 1_555 1_555
C8 N1 1_555 1_555
C9 S1 1_555 1_555
H7 C9 1_555 1_555
C10 N1 1_555 1_555
C11 C10 1_555 1_555
C12 C11 1_555 1_555
H8 C12 1_555 1_555
C13 C12 1_555 1_555
H9 C13 1_555 1_555
C14 C13 1_555 1_555
H10 C14 1_555 1_555
C15 C14 1_555 1_555
H11 C15 1_555 1_555
C16 C11 1_555 1_555
H12 C16 1_555 1_555
C6 C7 1_555 1_555
C9 C10 1_555 1_555
C15 C16 1_555 1_555

#END
