
#######################################################################
#
#                 Cambridge Crystallographic Data Centre
#                                CCDC 
#
#######################################################################
#
# If this CIF has been generated from an entry in the Cambridge 
# Structural Database, then it will include bibliographic, chemical, 
# crystal, experimental, refinement or atomic coordinate data resulting 
# from the CCDC's data processing and validation procedures.
#
#######################################################################

data_MOZKUI
_chemical_formula_moiety         'C18 H16 N2 O2 S2'
_chemical_name_systematic        
"2,2'-(o-Phenylenebis(methylenethio))bis(pyridine N-oxide)"
_symmetry_cell_setting           monoclinic
_symmetry_space_group_name_H-M   'P 21/n'
_symmetry_Int_Tables_number      14
_space_group_name_Hall           '-P 2yn'
loop_
_symmetry_equiv_pos_site_id
_symmetry_equiv_pos_as_xyz
1 x,y,z
2 1/2-x,1/2+y,1/2-z
3 -x,-y,-z
4 1/2+x,1/2-y,1/2+z
_cell_length_a                   7.5075(15)
_cell_length_b                   17.810(4)
_cell_length_c                   12.480(3)
_cell_angle_alpha                90
_cell_angle_beta                 105.20(3)
_cell_angle_gamma                90
_cell_volume                     1610.31
_exptl_crystal_colour            colorless
_exptl_crystal_description       prism
_cell_formula_units_Z            4
_exptl_crystal_recrystallization_method 'chloroform/acetonitrile/diethyl ether'
loop_
_atom_site_label
_atom_site_type_symbol
_atom_site_fract_x
_atom_site_fract_y
_atom_site_fract_z
S1 S 0.17377(5) 0.17901(2) 0.34399(3)
S2 S -0.30419(5) -0.03050(2) -0.04963(3)
C1 C -0.00609(19) 0.04497(8) 0.25080(11)
N1 N -0.47078(17) -0.01887(7) -0.25627(10)
O1 O -0.48428(16) -0.09127(6) -0.24087(9)
C2 C -0.38096(18) 0.02425(8) -0.16810(11)
C3 C 0.0423(2) 0.12465(8) 0.22786(12)
C4 C 0.0008(2) 0.20710(8) 0.40531(11)
C5 C -0.11785(18) 0.00251(8) 0.16387(11)
C6 C -0.3632(2) 0.10057(9) -0.18273(13)
H1 H -0.3009 0.1304 -0.1235
N2 N 0.06622(19) 0.25129(7) 0.49662(10)
C7 C -0.1847(2) 0.18976(9) 0.37257(13)
H2 H -0.2299 0.1592 0.3111
C8 C -0.1519(2) -0.07213(9) 0.18381(13)
H3 H -0.2260 -0.1007 0.1270
C9 C -0.19734(19) 0.03928(8) 0.05228(11)
H4 H -0.0999 0.0646 0.0285
H5 H -0.2883 0.0765 0.0587
O2 O 0.24350(18) 0.26652(7) 0.52668(10)
C10 C 0.0643(2) 0.01115(9) 0.35310(12)
H6 H 0.1367 0.0392 0.4112
C11 C 0.0293(3) -0.06342(10) 0.37091(14)
H7 H 0.0787 -0.0852 0.4401
C12 C -0.5444(2) 0.01241(10) -0.35676(13)
H8 H -0.6060 -0.0178 -0.4157
C13 C -0.0505(3) 0.27874(9) 0.55340(14)
H9 H -0.0048 0.3091 0.6151
C14 C -0.3033(3) 0.21749(10) 0.43040(16)
H10 H -0.4284 0.2060 0.4084
C15 C -0.5296(3) 0.08746(11) -0.37289(14)
H11 H -0.5807 0.1085 -0.4424
C16 C -0.4379(3) 0.13227(10) -0.28521(14)
H12 H -0.4269 0.1836 -0.2955
C17 C -0.0783(3) -0.10491(10) 0.28622(14)
H13 H -0.1019 -0.1552 0.2975
C18 C -0.2338(3) 0.26248(10) 0.52122(17)
H14 H -0.3125 0.2819 0.5608
H15 H 0.125(2) 0.1237(9) 0.1798(14)
H16 H -0.062(2) 0.1528(10) 0.1903(14)
loop_
_geom_bond_atom_site_label_1
_geom_bond_atom_site_label_2
_geom_bond_site_symmetry_1
_geom_bond_site_symmetry_2
S1 C3 1_555 1_555
S2 C2 1_555 1_555
C1 C3 1_555 1_555
N1 O1 1_555 1_555
C2 N1 1_555 1_555
C3 H15 1_555 1_555
C4 S1 1_555 1_555
C5 C1 1_555 1_555
C6 C2 1_555 1_555
H1 C6 1_555 1_555
N2 C4 1_555 1_555
C7 C4 1_555 1_555
H2 C7 1_555 1_555
C8 C5 1_555 1_555
H3 C8 1_555 1_555
C9 S2 1_555 1_555
H4 C9 1_555 1_555
H5 C9 1_555 1_555
O2 N2 1_555 1_555
C10 C1 1_555 1_555
H6 C10 1_555 1_555
C11 C10 1_555 1_555
H7 C11 1_555 1_555
C12 N1 1_555 1_555
H8 C12 1_555 1_555
C13 N2 1_555 1_555
H9 C13 1_555 1_555
C14 C7 1_555 1_555
H10 C14 1_555 1_555
C15 C12 1_555 1_555
H11 C15 1_555 1_555
C16 C6 1_555 1_555
H12 C16 1_555 1_555
C17 C8 1_555 1_555
H13 C17 1_555 1_555
C18 C13 1_555 1_555
H14 C18 1_555 1_555
H16 C3 1_555 1_555
C5 C9 1_555 1_555
C11 C17 1_555 1_555
C14 C18 1_555 1_555
C15 C16 1_555 1_555

#END
