
#######################################################################
#
#                 Cambridge Crystallographic Data Centre
#                                CCDC 
#
#######################################################################
#
# If this CIF has been generated from an entry in the Cambridge 
# Structural Database, then it will include bibliographic, chemical, 
# crystal, experimental, refinement or atomic coordinate data resulting 
# from the CCDC's data processing and validation procedures.
#
#######################################################################

data_MOZKAN
_chemical_formula_moiety         'C17 H15 N1 O3'
_chemical_name_systematic        7,8-Dimethoxy-3-phenylisoquinolin-1(2H)-one
_symmetry_cell_setting           monoclinic
_symmetry_space_group_name_H-M   'P 21/a'
_symmetry_Int_Tables_number      14
_space_group_name_Hall           '-P 2yab'
loop_
_symmetry_equiv_pos_site_id
_symmetry_equiv_pos_as_xyz
1 x,y,z
2 1/2+x,1/2-y,z
3 -x,-y,-z
4 1/2-x,1/2+y,-z
_cell_length_a                   13.806(2)
_cell_length_b                   15.682(2)
_cell_length_c                   12.633(2)
_cell_angle_alpha                90.00
_cell_angle_beta                 93.86(1)
_cell_angle_gamma                90.00
_cell_volume                     2728.91
_exptl_crystal_colour            yellow
_exptl_crystal_description       prism
_chemical_melting_point          226.4-228.5deg.C
_cell_formula_units_Z            8
_exptl_crystal_recrystallization_method 'ethyl acetate'
loop_
_atom_site_label
_atom_site_type_symbol
_atom_site_fract_x
_atom_site_fract_y
_atom_site_fract_z
N1 N 1.0200(2) 0.1350(1) 0.4385(2)
O1 O 0.7978(1) 0.2018(1) 0.8255(1)
O2 O 0.9582(1) 0.1323(1) 0.7674(1)
O3 O 1.0680(1) 0.0895(1) 0.6026(1)
C1 C 1.0051(2) 0.1264(2) 0.5449(2)
C2 C 0.9541(2) 0.1733(2) 0.3637(2)
C3 C 0.8705(2) 0.2053(2) 0.3964(2)
C4 C 0.7655(2) 0.2418(2) 0.5396(2)
C5 C 0.7459(2) 0.2428(2) 0.6444(2)
C6 C 0.8101(2) 0.2035(2) 0.7192(2)
C7 C 0.7133(3) 0.2403(3) 0.8613(3)
C8 C 0.8944(2) 0.1644(2) 0.6885(2)
C9 C 0.9374(3) 0.0456(3) 0.7951(3)
C10 C 0.9150(2) 0.1638(2) 0.5815(2)
C11 C 0.9833(2) 0.1785(2) 0.2529(2)
C12 C 1.0807(2) 0.1820(2) 0.2304(2)
C13 C 1.1044(3) 0.1874(2) 0.1248(2)
C14 C 1.0338(3) 0.1898(2) 0.0435(2)
C15 C 0.9383(2) 0.1867(2) 0.0656(2)
C16 C 0.9131(2) 0.1810(2) 0.1690(2)
C17 C 0.8495(2) 0.2028(2) 0.5049(2)
H1 H 1.094(2) 0.104(2) 0.418(2)
H2 H 0.821(1) 0.232(1) 0.342(2)
H3 H 0.719(1) 0.270(1) 0.488(2)
H4 H 0.681(2) 0.275(1) 0.661(2)
H5 H 0.718(2) 0.234(2) 0.945(2)
H6 H 0.710(2) 0.298(2) 0.841(2)
H7 H 0.650(3) 0.213(2) 0.833(3)
H8 H 0.969(2) 0.032(2) 0.880(2)
H9 H 0.969(3) 0.014(2) 0.750(3)
H10 H 0.873(2) 0.030(2) 0.789(2)
H11 H 1.141(2) 0.187(2) 0.289(2)
H12 H 1.172(2) 0.183(2) 0.107(2)
H13 H 1.051(2) 0.194(1) -0.032(2)
H14 H 0.888(2) 0.190(2) 0.006(2)
H15 H 0.844(2) 0.179(2) 0.179(2)
N2 N 0.7497(2) -0.0069(1) 0.4396(2)
O4 O 0.5358(1) 0.0737(1) 0.8278(1)
O5 O 0.6853(1) -0.0126(1) 0.7674(1)
O6 O 0.7913(1) -0.0621(1) 0.6014(1)
C18 C 0.7363(2) -0.0161(2) 0.5456(2)
C19 C 0.6924(2) 0.0395(2) 0.3649(2)
C20 C 0.6166(2) 0.0829(2) 0.4011(2)
C21 C 0.5153(2) 0.1255(2) 0.5440(3)
C22 C 0.4935(2) 0.1243(2) 0.6474(2)
C23 C 0.5501(2) 0.0775(2) 0.7217(2)
C24 C 0.4578(3) 0.1240(3) 0.8653(3)
C25 C 0.6298(2) 0.0310(2) 0.6903(2)
C26 C 0.6457(3) -0.0931(2) 0.7937(4)
C27 C 0.6531(2) 0.0314(2) 0.5842(2)
C28 C 0.7149(2) 0.0357(2) 0.2524(2)
C29 C 0.7883(2) -0.0138(2) 0.2159(2)
C30 C 0.8033(3) -0.0182(2) 0.1076(2)
C31 C 0.7450(3) 0.0262(2) 0.0357(2)
C32 C 0.6725(3) 0.0763(2) 0.0706(3)
C33 C 0.6570(2) 0.0817(2) 0.1772(3)
C34 C 0.5954(2) 0.0800(2) 0.5103(2)
H16 H 0.802(2) -0.029(1) 0.420(2)
H17 H 0.572(2) 0.115(1) 0.351(2)
H18 H 0.476(2) 0.156(1) 0.490(2)
H19 H 0.435(2) 0.157(1) 0.675(2)
H20 H 0.397(2) 0.112(2) 0.829(2)
H21 H 0.466(2) 0.111(2) 0.947(2)
H22 H 0.467(2) 0.190(2) 0.850(2)
H23 H 0.698(3) -0.116(2) 0.862(3)
H24 H 0.587(5) -0.092(4) 0.841(5)
H25 H 0.640(3) -0.125(2) 0.735(3)
H26 H 0.834(2) -0.047(1) 0.261(2)
H27 H 0.860(2) -0.055(2) 0.082(2)
H28 H 0.751(2) 0.024(1) -0.041(2)
H29 H 0.628(2) 0.107(2) 0.015(2)
H30 H 0.607(2) 0.121(2) 0.201(2)
loop_
_geom_bond_atom_site_label_1
_geom_bond_atom_site_label_2
_geom_bond_site_symmetry_1
_geom_bond_site_symmetry_2
N1 C1 1_555 1_555
O1 C6 1_555 1_555
O2 C8 1_555 1_555
O3 C1 1_555 1_555
C1 C10 1_555 1_555
C2 N1 1_555 1_555
C3 C2 1_555 1_555
C4 C5 1_555 1_555
C5 C6 1_555 1_555
C6 C8 1_555 1_555
C7 O1 1_555 1_555
C8 C10 1_555 1_555
C9 O2 1_555 1_555
C10 C17 1_555 1_555
C11 C2 1_555 1_555
C12 C11 1_555 1_555
C13 C12 1_555 1_555
C14 C13 1_555 1_555
C15 C14 1_555 1_555
C16 C11 1_555 1_555
C17 C3 1_555 1_555
H1 N1 1_555 1_555
H2 C3 1_555 1_555
H3 C4 1_555 1_555
H4 C5 1_555 1_555
H5 C7 1_555 1_555
H6 C7 1_555 1_555
H7 C7 1_555 1_555
H8 C9 1_555 1_555
H9 C9 1_555 1_555
H10 C9 1_555 1_555
H11 C12 1_555 1_555
H12 C13 1_555 1_555
H13 C14 1_555 1_555
H14 C15 1_555 1_555
H15 C16 1_555 1_555
N2 C18 1_555 1_555
O4 C23 1_555 1_555
O5 C25 1_555 1_555
O6 C18 1_555 1_555
C18 C27 1_555 1_555
C19 N2 1_555 1_555
C20 C19 1_555 1_555
C21 C22 1_555 1_555
C22 C23 1_555 1_555
C23 C25 1_555 1_555
C24 O4 1_555 1_555
C25 C27 1_555 1_555
C26 O5 1_555 1_555
C27 C34 1_555 1_555
C28 C19 1_555 1_555
C29 C28 1_555 1_555
C30 C29 1_555 1_555
C31 C30 1_555 1_555
C32 C31 1_555 1_555
C33 C28 1_555 1_555
C34 C20 1_555 1_555
H16 N2 1_555 1_555
H17 C20 1_555 1_555
H18 C21 1_555 1_555
H19 C22 1_555 1_555
H20 C24 1_555 1_555
H21 C24 1_555 1_555
H22 C24 1_555 1_555
H23 C26 1_555 1_555
H24 C26 1_555 1_555
H25 C26 1_555 1_555
H26 C29 1_555 1_555
H27 C30 1_555 1_555
H28 C31 1_555 1_555
H29 C32 1_555 1_555
H30 C33 1_555 1_555
C4 C17 1_555 1_555
C15 C16 1_555 1_555
C21 C34 1_555 1_555
C32 C33 1_555 1_555

#END
