
#######################################################################
#
#                 Cambridge Crystallographic Data Centre
#                                CCDC 
#
#######################################################################
#
# If this CIF has been generated from an entry in the Cambridge 
# Structural Database, then it will include bibliographic, chemical, 
# crystal, experimental, refinement or atomic coordinate data resulting 
# from the CCDC's data processing and validation procedures.
#
#######################################################################

data_MOZLUI
_chemical_compound_source        'Roots of Stemona tuberosa'
_chemical_formula_moiety         'C22 H31 N1 O6,H2 O1'
_chemical_name_systematic        'Neotuberostemoninol monohydrate'
_chemical_properties_biological  
'Plant root (herb Radix Stemonae) used in Traditional Chinese Medicine as an antitussive in treatment of repiratory diseases (bronchitis, pertussis, tuberculosis) and in domestic animals as an anthelmintic; crude plant extract has antibiotic, antiviral, antifungal and insecticidal activities'
_symmetry_cell_setting           monoclinic
_symmetry_space_group_name_H-M   'P 21'
_symmetry_Int_Tables_number      4
_space_group_name_Hall           'P 2yb'
loop_
_symmetry_equiv_pos_site_id
_symmetry_equiv_pos_as_xyz
1 x,y,z
2 -x,1/2+y,-z
_cell_length_a                   8.0436(7)
_cell_length_b                   6.6308(5)
_cell_length_c                   19.7970(16)
_cell_angle_alpha                90
_cell_angle_beta                 91.284(2)
_cell_angle_gamma                90
_cell_volume                     1055.62
_exptl_crystal_colour            colorless
_exptl_crystal_description       prism
_chemical_melting_point          190-192deg.C
_cell_formula_units_Z            2
loop_
_atom_site_label
_atom_site_type_symbol
_atom_site_fract_x
_atom_site_fract_y
_atom_site_fract_z
O1 O 0.7752(4) 0.8674(4) 0.31308(16)
H1 H 0.744(6) 0.882(8) 0.263(2)
H2 H 0.700(5) 0.811(7) 0.318(2)
O2 O 0.1987(2) 0.4851(4) 0.05362(9)
O3 O 0.1117(3) 0.1769(4) 0.02776(12)
O4 O 0.0866(2) 0.3572(3) 0.45183(9)
O5 O 0.0133(3) 0.3491(3) 0.55927(9)
O6 O 0.0609(3) 0.7719(3) 0.23812(9)
H3 H -0.0304 0.7903 0.2547
O7 O 0.4756(2) 0.6488(3) 0.28373(9)
C1 C 0.0709(3) 0.5665(4) 0.21306(13)
C2 C -0.0065(3) 0.4297(4) 0.26549(12)
H4 H 0.0077 0.2896 0.2527
H5 H -0.1246 0.4571 0.2681
C3 C 0.0783(3) 0.4686(4) 0.33398(13)
H6 H 0.0411 0.6020 0.3487
N1 N 0.2628(3) 0.4782(4) 0.33151(11)
C4 C 0.3678(3) 0.3145(5) 0.35852(13)
H7 H 0.3222 0.2669 0.4006
H8 H 0.4784 0.3664 0.3683
C5 C 0.3798(4) 0.1402(5) 0.31007(14)
H9 H 0.2719 0.0756 0.3061
H10 H 0.4575 0.0421 0.3288
C6 C 0.4360(4) 0.1993(4) 0.23954(15)
H11 H 0.4729 0.0781 0.2169
H12 H 0.5317 0.2874 0.2447
C7 C 0.3074(3) 0.3052(4) 0.19301(13)
H13 H 0.2061 0.2258 0.1933
H14 H 0.3487 0.3003 0.1474
C8 C 0.2591(3) 0.5302(4) 0.20839(13)
C9 C 0.3392(3) 0.5720(4) 0.27682(13)
C10 C 0.3034(3) 0.6768(5) 0.15025(13)
H15 H 0.2930 0.8135 0.1685
C11 C 0.1566(3) 0.6480(5) 0.09961(13)
H16 H 0.1320 0.7730 0.0749
C12 C 0.0040(3) 0.5756(4) 0.13937(13)
H17 H -0.0822 0.6799 0.1363
C13 C -0.0563(4) 0.3895(5) 0.09852(14)
H18 H -0.1384 0.4435 0.0660
C14 C 0.0877(4) 0.3326(6) 0.05692(14)
C15 C -0.1415(4) 0.2111(5) 0.12973(15)
H19 H -0.1689 0.1141 0.0952
H20 H -0.2413 0.2551 0.1509
H21 H -0.0685 0.1503 0.1629
C16 C 0.4746(4) 0.6644(6) 0.11953(15)
H22 H 0.4893 0.5311 0.1004
H23 H 0.5584 0.6823 0.1550
C17 C 0.5011(5) 0.8214(7) 0.06482(16)
H24 H 0.6105 0.8062 0.0471
H25 H 0.4898 0.9539 0.0837
H26 H 0.4197 0.8031 0.0291
C18 C 0.0134(3) 0.3192(5) 0.38461(12)
H27 H 0.0405 0.1819 0.3703
C19 C -0.1737(3) 0.3363(5) 0.39557(12)
H28 H -0.2127 0.4720 0.3861
H29 H -0.2347 0.2425 0.3668
C20 C -0.1947(3) 0.2841(4) 0.46982(13)
H30 H -0.2120 0.1382 0.4731
C21 C -0.0267(4) 0.3315(4) 0.50015(15)
C22 C -0.3338(4) 0.3880(6) 0.50708(16)
H31 H -0.3330 0.3435 0.5532
H32 H -0.4387 0.3548 0.4858
H33 H -0.3176 0.5314 0.5057
loop_
_geom_bond_atom_site_label_1
_geom_bond_atom_site_label_2
_geom_bond_site_symmetry_1
_geom_bond_site_symmetry_2
O1 H1 1_555 1_555
H2 O1 1_555 1_555
O2 C11 1_555 1_555
O3 C14 1_555 1_555
O4 C18 1_555 1_555
O5 C21 1_555 1_555
O6 H3 1_555 1_555
O7 C9 1_555 1_555
C1 O6 1_555 1_555
C2 C1 1_555 1_555
H4 C2 1_555 1_555
H5 C2 1_555 1_555
C3 C2 1_555 1_555
H6 C3 1_555 1_555
N1 C3 1_555 1_555
C4 N1 1_555 1_555
H7 C4 1_555 1_555
H8 C4 1_555 1_555
C5 C4 1_555 1_555
H9 C5 1_555 1_555
H10 C5 1_555 1_555
C6 C5 1_555 1_555
H11 C6 1_555 1_555
H12 C6 1_555 1_555
C7 C6 1_555 1_555
H13 C7 1_555 1_555
H14 C7 1_555 1_555
C8 C1 1_555 1_555
C9 N1 1_555 1_555
C10 C8 1_555 1_555
H15 C10 1_555 1_555
C11 C10 1_555 1_555
H16 C11 1_555 1_555
C12 C1 1_555 1_555
H17 C12 1_555 1_555
C13 C12 1_555 1_555
H18 C13 1_555 1_555
C14 O2 1_555 1_555
C15 C13 1_555 1_555
H19 C15 1_555 1_555
H20 C15 1_555 1_555
H21 C15 1_555 1_555
C16 C10 1_555 1_555
H22 C16 1_555 1_555
H23 C16 1_555 1_555
C17 C16 1_555 1_555
H24 C17 1_555 1_555
H25 C17 1_555 1_555
H26 C17 1_555 1_555
C18 C3 1_555 1_555
H27 C18 1_555 1_555
C19 C18 1_555 1_555
H28 C19 1_555 1_555
H29 C19 1_555 1_555
C20 C19 1_555 1_555
H30 C20 1_555 1_555
C21 O4 1_555 1_555
C22 C20 1_555 1_555
H31 C22 1_555 1_555
H32 C22 1_555 1_555
H33 C22 1_555 1_555
C7 C8 1_555 1_555
C8 C9 1_555 1_555
C11 C12 1_555 1_555
C13 C14 1_555 1_555
C20 C21 1_555 1_555

#END
