
#######################################################################
#
#                 Cambridge Crystallographic Data Centre
#                                CCDC 
#
#######################################################################
#
# If this CIF has been generated from an entry in the Cambridge 
# Structural Database, then it will include bibliographic, chemical, 
# crystal, experimental, refinement or atomic coordinate data resulting 
# from the CCDC's data processing and validation procedures.
#
#######################################################################

data_MOZLOC
_chemical_compound_source        'Root of Stemona tuberosa'
_chemical_formula_moiety         'C22 H31 N1 O5'
_chemical_name_systematic        Neotuberostemonol
_chemical_properties_biological  
'Plant root (herb Radix Stemonae) used in Traditional Chinese Medicine as an antitussive in treatment of respiratory diseases (bronchitis, pertussis, tuberculosis) and in domestic animals as an anthelmintic; crude plant extract has antibiotic, antiviral, antifungal and insecticidal activities'
_symmetry_cell_setting           monoclinic
_symmetry_space_group_name_H-M   'P 21'
_symmetry_Int_Tables_number      4
_space_group_name_Hall           'P 2yb'
loop_
_symmetry_equiv_pos_site_id
_symmetry_equiv_pos_as_xyz
1 x,y,z
2 -x,1/2+y,-z
_cell_length_a                   9.7090(7)
_cell_length_b                   8.7904(6)
_cell_length_c                   12.2457(9)
_cell_angle_alpha                90
_cell_angle_beta                 98.548(2)
_cell_angle_gamma                90
_cell_volume                     1033.51
_exptl_crystal_colour            colorless
_exptl_crystal_description       prism
_chemical_melting_point          195-197deg.C
_cell_formula_units_Z            2
_chemical_properties_physical    'highly moisture-sensitive'
loop_
_atom_site_label
_atom_site_type_symbol
_atom_site_fract_x
_atom_site_fract_y
_atom_site_fract_z
O1 O 0.7784(3) -0.0720(4) 0.4846(2)
O2 O 0.7029(4) 0.0719(6) 0.6101(2)
O3 O 0.4338(2) 0.5434(3) 0.15108(19)
O4 O 0.3380(3) 0.7643(3) 0.0982(2)
O5 O 0.5998(2) -0.0730(3) 0.13682(18)
H1 H 0.5264 -0.1162 0.1137
C1 C 0.5785(3) 0.0299(4) 0.2241(2)
C2 C 0.4436(3) 0.1169(3) 0.1924(3)
H2 H 0.3962 0.1309 0.2560
H3 H 0.3822 0.0629 0.1356
C3 C 0.4869(3) 0.2712(4) 0.1489(2)
H4 H 0.4855 0.2666 0.0687
N1 N 0.6291(2) 0.2907(3) 0.2049(2)
C4 C 0.7175(4) 0.4009(4) 0.1568(3)
H5 H 0.6587 0.4739 0.1125
H6 H 0.7719 0.3476 0.1085
C5 C 0.8143(5) 0.4843(5) 0.2440(5)
H7 H 0.8876 0.5304 0.2093
H8 H 0.7627 0.5660 0.2725
C6 C 0.8776(6) 0.3945(8) 0.3350(5)
H9 H 0.8101 0.3836 0.3855
H10 H 0.9550 0.4526 0.3734
C7 C 0.9302(5) 0.2410(8) 0.3149(5)
H11 H 0.9901 0.2081 0.3813
H12 H 0.9876 0.2484 0.2567
C8 C 0.6889(3) 0.1506(4) 0.2371(2)
C9 C 0.8205(3) 0.1176(5) 0.2827(3)
C10 C 0.8465(4) -0.0536(5) 0.3041(3)
H13 H 0.8272 -0.1024 0.2315
C11 C 0.7406(4) -0.1159(5) 0.3690(3)
H14 H 0.7408 -0.2271 0.3638
C12 C 0.5904(4) -0.0577(4) 0.3345(3)
H15 H 0.5257 -0.1440 0.3266
C13 C 0.5626(4) 0.0427(4) 0.4319(3)
H16 H 0.5613 0.1491 0.4078
C14 C 0.6841(5) 0.0215(6) 0.5180(3)
C15 C 0.4281(4) 0.0119(7) 0.4789(4)
H17 H 0.4218 0.0803 0.5390
H18 H 0.4282 -0.0911 0.5049
H19 H 0.3497 0.0271 0.4222
C16 C 0.9953(4) -0.1033(7) 0.3528(4)
H20 H 1.0287 -0.0388 0.4154
H21 H 0.9923 -0.2069 0.3797
C17 C 1.0939(5) -0.0958(9) 0.2733(5)
H22 H 1.1836 -0.1307 0.3077
H23 H 1.1012 0.0074 0.2491
H24 H 1.0615 -0.1591 0.2109
C18 C 0.3881(3) 0.3916(4) 0.1774(3)
H25 H 0.3832 0.3863 0.2566
C19 C 0.2416(3) 0.3804(4) 0.1140(3)
H26 H 0.2429 0.3440 0.0394
H27 H 0.1842 0.3129 0.1509
C20 C 0.1893(3) 0.5422(4) 0.1139(3)
H28 H 0.1508 0.5594 0.1824
C21 C 0.3233(3) 0.6335(4) 0.1191(3)
C22 C 0.0803(4) 0.5876(5) 0.0173(3)
H29 H 0.0536 0.6916 0.0258
H30 H 0.0001 0.5232 0.0153
H31 H 0.1182 0.5767 -0.0504
loop_
_geom_bond_atom_site_label_1
_geom_bond_atom_site_label_2
_geom_bond_site_symmetry_1
_geom_bond_site_symmetry_2
O1 C11 1_555 1_555
O2 C14 1_555 1_555
O3 C18 1_555 1_555
O4 C21 1_555 1_555
O5 H1 1_555 1_555
C1 O5 1_555 1_555
C2 C1 1_555 1_555
H2 C2 1_555 1_555
H3 C2 1_555 1_555
C3 C2 1_555 1_555
H4 C3 1_555 1_555
N1 C3 1_555 1_555
C4 N1 1_555 1_555
H5 C4 1_555 1_555
H6 C4 1_555 1_555
C5 C4 1_555 1_555
H7 C5 1_555 1_555
H8 C5 1_555 1_555
C6 C5 1_555 1_555
H9 C6 1_555 1_555
H10 C6 1_555 1_555
C7 C6 1_555 1_555
H11 C7 1_555 1_555
H12 C7 1_555 1_555
C8 C1 1_555 1_555
C9 C7 1_555 1_555
C10 C9 1_555 1_555
H13 C10 1_555 1_555
C11 C10 1_555 1_555
H14 C11 1_555 1_555
C12 C1 1_555 1_555
H15 C12 1_555 1_555
C13 C12 1_555 1_555
H16 C13 1_555 1_555
C14 O1 1_555 1_555
C15 C13 1_555 1_555
H17 C15 1_555 1_555
H18 C15 1_555 1_555
H19 C15 1_555 1_555
C16 C10 1_555 1_555
H20 C16 1_555 1_555
H21 C16 1_555 1_555
C17 C16 1_555 1_555
H22 C17 1_555 1_555
H23 C17 1_555 1_555
H24 C17 1_555 1_555
C18 C3 1_555 1_555
H25 C18 1_555 1_555
C19 C18 1_555 1_555
H26 C19 1_555 1_555
H27 C19 1_555 1_555
C20 C19 1_555 1_555
H28 C20 1_555 1_555
C21 O3 1_555 1_555
C22 C20 1_555 1_555
H29 C22 1_555 1_555
H30 C22 1_555 1_555
H31 C22 1_555 1_555
N1 C8 1_555 1_555
C8 C9 1_555 1_555
C11 C12 1_555 1_555
C13 C14 1_555 1_555
C20 C21 1_555 1_555

#END
