
#######################################################################
#
#                 Cambridge Crystallographic Data Centre
#                                CCDC 
#
#######################################################################
#
# If this CIF has been generated from an entry in the Cambridge 
# Structural Database, then it will include bibliographic, chemical, 
# crystal, experimental, refinement or atomic coordinate data resulting 
# from the CCDC's data processing and validation procedures.
#
#######################################################################

data_MOZMUK
_chemical_formula_moiety         'C11 H12 Cl1 N3 O3'
_chemical_name_systematic        
'Ethyl 2-(3-chloro-2-pyridinyl)-5-oxo-3-pyrazolidinecarboxylate'
_symmetry_cell_setting           orthorhombic
_symmetry_space_group_name_H-M   'P b c a'
_symmetry_Int_Tables_number      61
_space_group_name_Hall           '-P 2ac 2ab'
loop_
_symmetry_equiv_pos_site_id
_symmetry_equiv_pos_as_xyz
1 x,y,z
2 1/2-x,-y,1/2+z
3 -x,1/2+y,1/2-z
4 1/2+x,1/2-y,-z
5 -x,-y,-z
6 1/2+x,y,1/2-z
7 x,1/2-y,1/2+z
8 1/2-x,1/2+y,z
_cell_length_a                   15.488(3)
_cell_length_b                   10.009(2)
_cell_length_c                   16.249(3)
_cell_angle_alpha                90
_cell_angle_beta                 90
_cell_angle_gamma                90
_cell_volume                     2518.91
_exptl_crystal_colour            colorless
_exptl_crystal_description       block
_cell_formula_units_Z            8
_exptl_crystal_recrystallization_method ethanol
loop_
_atom_site_label
_atom_site_type_symbol
_atom_site_fract_x
_atom_site_fract_y
_atom_site_fract_z
Cl1 Cl 0.45523(4) 0.14184(7) 0.43566(5)
O1 O 0.30427(10) 0.43898(19) 0.31272(11)
O2 O 0.34478(11) 0.4578(2) 0.44373(11)
O3 O 0.55616(12) 0.7407(2) 0.33051(13)
N1 N 0.54947(12) 0.55100(18) 0.40815(12)
H1 H 0.5776 0.5814 0.4497
N2 N 0.51613(11) 0.41865(17) 0.40548(11)
N3 N 0.66149(12) 0.3566(2) 0.37919(13)
C1 C 0.1756(2) 0.3232(4) 0.3592(2)
H2 H 0.1163 0.3358 0.3745
H3 H 0.2069 0.2863 0.4049
H4 H 0.1789 0.2631 0.3133
C2 C 0.21401(15) 0.4539(3) 0.3359(2)
H5 H 0.1820 0.4915 0.2902
H6 H 0.2096 0.5152 0.3820
C3 C 0.36204(14) 0.4419(2) 0.37295(15)
C4 C 0.45184(14) 0.4216(2) 0.33772(13)
H7 H 0.4542 0.3381 0.3063
C5 C 0.48079(15) 0.5388(3) 0.28374(15)
H8 H 0.5154 0.5078 0.2378
H9 H 0.4315 0.5878 0.2627
C6 C 0.53378(15) 0.6246(3) 0.34130(15)
C7 C 0.58184(14) 0.3194(2) 0.39697(13)
C8 C 0.72260(16) 0.2612(3) 0.37550(18)
H10 H 0.7790 0.2872 0.3639
C9 C 0.70658(18) 0.1279(3) 0.38781(17)
H11 H 0.7509 0.0655 0.3842
C10 C 0.62367(17) 0.0884(3) 0.40552(16)
H12 H 0.6104 -0.0013 0.4134
C11 C 0.56048(14) 0.1858(2) 0.41127(15)
loop_
_geom_bond_atom_site_label_1
_geom_bond_atom_site_label_2
_geom_bond_site_symmetry_1
_geom_bond_site_symmetry_2
Cl1 C11 1_555 1_555
O1 C2 1_555 1_555
O2 C3 1_555 1_555
O3 C6 1_555 1_555
N1 H1 1_555 1_555
N2 N1 1_555 1_555
N3 C7 1_555 1_555
C1 H2 1_555 1_555
H3 C1 1_555 1_555
H4 C1 1_555 1_555
C2 C1 1_555 1_555
H5 C2 1_555 1_555
H6 C2 1_555 1_555
C3 O1 1_555 1_555
C4 N2 1_555 1_555
H7 C4 1_555 1_555
C5 C4 1_555 1_555
H8 C5 1_555 1_555
H9 C5 1_555 1_555
C6 N1 1_555 1_555
C7 N2 1_555 1_555
C8 N3 1_555 1_555
H10 C8 1_555 1_555
C9 C8 1_555 1_555
H11 C9 1_555 1_555
C10 C9 1_555 1_555
H12 C10 1_555 1_555
C11 C7 1_555 1_555
C3 C4 1_555 1_555
C5 C6 1_555 1_555
C10 C11 1_555 1_555

#END
