
#######################################################################
#
#                 Cambridge Crystallographic Data Centre
#                                CCDC 
#
#######################################################################
#
# If this CIF has been generated from an entry in the Cambridge 
# Structural Database, then it will include bibliographic, chemical, 
# crystal, experimental, refinement or atomic coordinate data resulting 
# from the CCDC's data processing and validation procedures.
#
#######################################################################

data_MOZNIZ
_chemical_formula_moiety         'C21 H16 N3 O2 1+,Cl1 1-'
_chemical_name_systematic        
'2-(4-Nitrophenyl)-4,5-diphenyl-1H-imidazol-3-ium chloride'
_symmetry_cell_setting           monoclinic
_symmetry_space_group_name_H-M   'P 21/c'
_symmetry_Int_Tables_number      14
_space_group_name_Hall           '-P 2ybc'
loop_
_symmetry_equiv_pos_site_id
_symmetry_equiv_pos_as_xyz
1 x,y,z
2 -x,1/2+y,1/2-z
3 -x,-y,-z
4 x,1/2-y,1/2+z
_cell_length_a                   15.106(3)
_cell_length_b                   15.837(3)
_cell_length_c                   7.8833(16)
_cell_angle_alpha                90
_cell_angle_beta                 105.10(3)
_cell_angle_gamma                90
_cell_volume                     1820.83
_exptl_crystal_colour            colorless
_exptl_crystal_description       block
_cell_formula_units_Z            4
_exptl_crystal_recrystallization_method 'ethanol/hydrochloric acid'
loop_
_atom_site_label
_atom_site_type_symbol
_atom_site_fract_x
_atom_site_fract_y
_atom_site_fract_z
Cl1 Cl 0.50431(5) 0.90216(4) 0.28931(13)
N1 N 0.57993(14) 0.72042(13) 0.2790(3)
H1 H 0.5620 0.7717 0.2840
C1 C 0.52567(17) 0.65254(16) 0.2629(3)
N2 N 0.57744(14) 0.58548(13) 0.2592(3)
H2 H 0.5581 0.5342 0.2501
N3 N 0.14392(17) 0.65834(17) 0.2081(4)
C2 C 0.42716(17) 0.65341(15) 0.2489(3)
C3 C 0.27691(18) 0.59458(17) 0.1358(4)
H3 H 0.2382 0.5540 0.0700
C4 C 0.66881(17) 0.69658(16) 0.2865(3)
C5 C 0.73980(17) 0.54725(16) 0.2772(3)
C6 C 0.24275(18) 0.65705(17) 0.2217(4)
C7 C 0.37003(18) 0.59320(16) 0.1493(4)
H4 H 0.3944 0.5517 0.0912
C8 C 0.66699(17) 0.60935(16) 0.2719(3)
C9 C 0.7947(2) 0.89632(18) 0.2438(4)
H5 H 0.7821 0.9490 0.1908
C10 C 0.29746(19) 0.71829(17) 0.3209(4)
H6 H 0.2725 0.7601 0.3773
O1 O 0.11287(15) 0.71883(15) 0.2695(4)
C11 C 0.39062(19) 0.71577(17) 0.3342(4)
H7 H 0.4291 0.7562 0.4008
O2 O 0.09771(15) 0.59864(15) 0.1374(4)
C12 C 0.74249(18) 0.75918(15) 0.3069(3)
C13 C 0.7250(2) 0.83847(16) 0.2293(4)
H8 H 0.6657 0.8526 0.1671
C14 C 0.8082(2) 0.41135(18) 0.3652(4)
H9 H 0.8052 0.3581 0.4132
C15 C 0.83144(18) 0.74111(17) 0.4041(4)
H10 H 0.8441 0.6893 0.4608
C16 C 0.81528(19) 0.56718(17) 0.2152(4)
H11 H 0.8172 0.6190 0.1606
C17 C 0.73622(19) 0.46743(17) 0.3498(4)
H12 H 0.6853 0.4518 0.3881
C18 C 0.8874(2) 0.51169(19) 0.2330(4)
H13 H 0.9381 0.5266 0.1934
C19 C 0.9012(2) 0.7994(2) 0.4172(4)
H14 H 0.9605 0.7861 0.4812
C20 C 0.8833(2) 0.8769(2) 0.3361(4)
H15 H 0.9303 0.9157 0.3435
C21 C 0.8841(2) 0.4339(2) 0.3099(4)
H16 H 0.9331 0.3967 0.3243
loop_
_geom_bond_atom_site_label_1
_geom_bond_atom_site_label_2
_geom_bond_site_symmetry_1
_geom_bond_site_symmetry_2
N1 H1 1_555 1_555
C1 N1 1_555 1_555
N2 C1 1_555 1_555
H2 N2 1_555 1_555
N3 C6 1_555 1_555
C2 C1 1_555 1_555
C3 H3 1_555 1_555
C4 N1 1_555 1_555
C5 C8 1_555 1_555
C6 C3 1_555 1_555
C7 C2 1_555 1_555
H4 C7 1_555 1_555
C8 N2 1_555 1_555
C9 H5 1_555 1_555
C10 C6 1_555 1_555
H6 C10 1_555 1_555
O1 N3 1_555 1_555
C11 C2 1_555 1_555
H7 C11 1_555 1_555
O2 N3 1_555 1_555
C12 C4 1_555 1_555
C13 C9 1_555 1_555
H8 C13 1_555 1_555
C14 H9 1_555 1_555
C15 C12 1_555 1_555
H10 C15 1_555 1_555
C16 C5 1_555 1_555
H11 C16 1_555 1_555
C17 C5 1_555 1_555
H12 C17 1_555 1_555
C18 C16 1_555 1_555
H13 C18 1_555 1_555
C19 C15 1_555 1_555
H14 C19 1_555 1_555
C20 C9 1_555 1_555
H15 C20 1_555 1_555
C21 C14 1_555 1_555
H16 C21 1_555 1_555
C3 C7 1_555 1_555
C4 C8 1_555 1_555
C10 C11 1_555 1_555
C12 C13 1_555 1_555
C14 C17 1_555 1_555
C18 C21 1_555 1_555
C19 C20 1_555 1_555

#END
