
#######################################################################
#
#                 Cambridge Crystallographic Data Centre
#                                CCDC 
#
#######################################################################
#
# If this CIF has been generated from an entry in the Cambridge 
# Structural Database, then it will include bibliographic, chemical, 
# crystal, experimental, refinement or atomic coordinate data resulting 
# from the CCDC's data processing and validation procedures.
#
#######################################################################

data_MPIMZR02
_chemical_formula_moiety         'C13 H17 N2 O2'
_chemical_name_systematic        
4,4,5,5-Tetramethyl-2-phenyl-4,5-dihydro-1H-3\l^5^-imidazole-1,3-diol
_symmetry_cell_setting           monoclinic
_symmetry_space_group_name_H-M   'C 2/c'
_symmetry_Int_Tables_number      15
_space_group_name_Hall           '-C 2yn'
loop_
_symmetry_equiv_pos_site_id
_symmetry_equiv_pos_as_xyz
1 x,y,z
2 -x,y,1/2-z
3 1/2+x,1/2+y,z
4 1/2-x,1/2+y,1/2-z
5 -x,-y,-z
6 x,-y,1/2+z
7 1/2-x,1/2-y,-z
8 1/2+x,1/2-y,1/2+z
_cell_length_a                   11.170(6)
_cell_length_b                   10.417(5)
_cell_length_c                   10.995(5)
_cell_angle_alpha                90
_cell_angle_beta                 108.059(9)
_cell_angle_gamma                90
_cell_volume                     1216.33
_cell_formula_units_Z            4
loop_
_atom_site_label
_atom_site_type_symbol
_atom_site_fract_x
_atom_site_fract_y
_atom_site_fract_z
C1 C 0.5000 0.5326(4) 0.2500
H1 H 0.5000 0.6219 0.2500
C2 C 0.4398(3) 0.4655(3) 0.1481(3)
H2 H 0.3973 0.5108 0.0745
C3 C 0.4348(3) 0.3338(3) 0.1417(3)
H3 H 0.3889 0.2923 0.0668
C4 C 0.5000 0.2637(4) 0.2500
C5 C 0.5000 0.1233(4) 0.2500
C6 C 0.4332(3) -0.0921(3) 0.1995(3)
C7 C 0.4244(3) -0.1600(3) 0.0757(3)
H4 H 0.3411 -0.1495 0.0169
H5 H 0.4416 -0.2497 0.0921
H6 H 0.4847 -0.1239 0.0394
C8 C 0.3279(3) -0.1368(4) 0.2487(4)
H7 H 0.3326 -0.0919 0.3263
H8 H 0.3359 -0.2273 0.2653
H9 H 0.2483 -0.1194 0.1856
N1 N 0.4131(2) 0.0489(2) 0.1714(2)
O1 O 0.3152(2) 0.0867(2) 0.0831(2)
C2A C 0.5602(3) 0.4655(3) 0.3519(3)
H2A H 0.6027 0.5108 0.4255
C3A C 0.5652(3) 0.3338(3) 0.3583(3)
H3A H 0.6111 0.2923 0.4332
C6A C 0.5668(3) -0.0921(3) 0.3005(3)
C7A C 0.5756(3) -0.1600(3) 0.4243(3)
H4A H 0.6589 -0.1495 0.4831
H5A H 0.5584 -0.2497 0.4079
H6A H 0.5153 -0.1239 0.4606
C8A C 0.6721(3) -0.1368(4) 0.2513(4)
H7A H 0.6674 -0.0919 0.1737
H8A H 0.6641 -0.2273 0.2347
H9A H 0.7517 -0.1194 0.3144
N1A N 0.5869(2) 0.0489(2) 0.3286(2)
O1A O 0.6848(2) 0.0867(2) 0.4169(2)
loop_
_geom_bond_atom_site_label_1
_geom_bond_atom_site_label_2
_geom_bond_site_symmetry_1
_geom_bond_site_symmetry_2
C1 H1 1_555 1_555
C2 C1 1_555 1_555
H2 C2 1_555 1_555
C3 C2 1_555 1_555
H3 C3 1_555 1_555
C4 C3 1_555 1_555
C5 C4 1_555 1_555
C6 C7 1_555 1_555
C7 H4 1_555 1_555
H5 C7 1_555 1_555
H6 C7 1_555 1_555
C8 C6 1_555 1_555
H7 C8 1_555 1_555
H8 C8 1_555 1_555
H9 C8 1_555 1_555
N1 C5 1_555 1_555
O1 N1 1_555 1_555
C2A C1 1_555 1_555
H2A C2A 1_555 1_555
C3A C4 1_555 1_555
H3A C3A 1_555 1_555
C6A C6 1_555 1_555
C7A C6A 1_555 1_555
H4A C7A 1_555 1_555
H5A C7A 1_555 1_555
H6A C7A 1_555 1_555
C8A C6A 1_555 1_555
H7A C8A 1_555 1_555
H8A C8A 1_555 1_555
H9A C8A 1_555 1_555
N1A C5 1_555 1_555
O1A N1A 1_555 1_555
C6 N1 1_555 1_555
C2A C3A 1_555 1_555
C6A N1A 1_555 1_555

#END
