
#######################################################################
#
#                 Cambridge Crystallographic Data Centre
#                                CCDC 
#
#######################################################################
#
# If this CIF has been generated from an entry in the Cambridge 
# Structural Database, then it will include bibliographic, chemical, 
# crystal, experimental, refinement or atomic coordinate data resulting 
# from the CCDC's data processing and validation procedures.
#
#######################################################################

data_MPININ
_chemical_formula_moiety         'C35 H27 N3'
_chemical_name_systematic        
2-(1-Methyl-2-phenyl-3-indolyl)-3-phenyl-3-phenylamino-3H-indole
_symmetry_cell_setting           monoclinic
_symmetry_space_group_name_H-M   'C 2/c'
_symmetry_Int_Tables_number      15
_space_group_name_Hall           '-C 2yn'
loop_
_symmetry_equiv_pos_site_id
_symmetry_equiv_pos_as_xyz
1 x,y,z
2 1/2+x,1/2+y,z
3 -x,y,1/2-z
4 1/2-x,1/2+y,1/2-z
5 -x,-y,-z
6 1/2-x,1/2-y,-z
7 x,-y,1/2+z
8 1/2+x,1/2-y,1/2+z
_cell_length_a                   19.483
_cell_length_b                   14.802
_cell_length_c                   18.526
_cell_angle_alpha                90
_cell_angle_beta                 99.17
_cell_angle_gamma                90
_cell_volume                     5274.38
_cell_formula_units_Z            8
loop_
_atom_site_label
_atom_site_type_symbol
_atom_site_fract_x
_atom_site_fract_y
_atom_site_fract_z
C12 C 0.21210 0.37060 0.13510
C13 C 0.20030 0.44500 0.17960
C14 C 0.13970 0.50230 0.15930
C15 C 0.09450 0.48400 0.09320
C16 C 0.10560 0.41180 0.04880
C17 C 0.16500 0.35490 0.06940
C18 C 0.30030 0.27890 0.29850
C19 C 0.24190 0.22790 0.30850
C2 C 0.31620 0.32550 0.23490
C21 C 0.32010 0.21270 0.41300
C22 C 0.35310 0.18370 0.48430
C23 C 0.42260 0.21440 0.50520
C24 C 0.45440 0.27370 0.46010
C25 C 0.41940 0.30130 0.39000
C26 C 0.34960 0.26900 0.36690
C3 C 0.27950 0.31450 0.15300
C31 C 0.31620 0.15240 0.13830
C32 C 0.38760 0.16840 0.15620
C33 C 0.43630 0.09270 0.16170
C34 C 0.41020 0.00480 0.15040
C35 C 0.33910 -0.01300 0.13380
C36 C 0.29060 0.06190 0.12710
C37 C 0.17420 0.20810 0.26060
C38 C 0.12510 0.27870 0.24360
C39 C 0.06090 0.25830 0.19570
C4 C 0.33080 0.36510 0.11450
C40 C 0.04760 0.17020 0.16740
C41 C 0.09590 0.10060 0.18500
C42 C 0.15980 0.12000 0.23240
C43 C 0.20480 0.12670 0.41220
C5 C 0.33190 0.37860 0.03940
C6 C 0.38670 0.43660 0.02140
C7 C 0.43680 0.47750 0.07670
C8 C 0.43390 0.46200 0.15150
C9 C 0.38080 0.40520 0.16850
N1 N 0.37060 0.38070 0.24080
N20 N 0.25340 0.18820 0.37810
N27 N 0.26390 0.22030 0.12840
loop_
_geom_bond_atom_site_label_1
_geom_bond_atom_site_label_2
_geom_bond_site_symmetry_1
_geom_bond_site_symmetry_2
C12 C13 1_555 1_555
C13 C14 1_555 1_555
C14 C15 1_555 1_555
C15 C16 1_555 1_555
C16 C17 1_555 1_555
C17 C12 1_555 1_555
C18 C19 1_555 1_555
C19 C37 1_555 1_555
C2 C18 1_555 1_555
C21 C22 1_555 1_555
C22 C23 1_555 1_555
C23 C24 1_555 1_555
C24 C25 1_555 1_555
C25 C26 1_555 1_555
C26 C18 1_555 1_555
C3 C12 1_555 1_555
C31 C32 1_555 1_555
C32 C33 1_555 1_555
C33 C34 1_555 1_555
C34 C35 1_555 1_555
C35 C36 1_555 1_555
C36 C31 1_555 1_555
C37 C38 1_555 1_555
C38 C39 1_555 1_555
C39 C40 1_555 1_555
C4 C3 1_555 1_555
C40 C41 1_555 1_555
C41 C42 1_555 1_555
C42 C37 1_555 1_555
C43 N20 1_555 1_555
C5 C4 1_555 1_555
C6 C5 1_555 1_555
C7 C6 1_555 1_555
C8 C7 1_555 1_555
C9 C4 1_555 1_555
N1 C2 1_555 1_555
N20 C19 1_555 1_555
N27 C3 1_555 1_555
C2 C3 1_555 1_555
C21 C26 1_555 1_555
C21 N20 1_555 1_555
C31 N27 1_555 1_555
C8 C9 1_555 1_555
C9 N1 1_555 1_555

#END
