
#######################################################################
#
#                 Cambridge Crystallographic Data Centre
#                                CCDC 
#
#######################################################################
#
# If this CIF has been generated from an entry in the Cambridge 
# Structural Database, then it will include bibliographic, chemical, 
# crystal, experimental, refinement or atomic coordinate data resulting 
# from the CCDC's data processing and validation procedures.
#
#######################################################################

data_MPSUFO01
_chemical_name_common            'PDB Chemical Component code: SML'
_chemical_formula_moiety         'C7 H8 O2 S1'
_chemical_name_systematic        'Methyl phenyl sulfone'
_symmetry_cell_setting           monoclinic
_symmetry_space_group_name_H-M   'P 21/c'
_symmetry_Int_Tables_number      14
_space_group_name_Hall           '-P 2ybc'
loop_
_symmetry_equiv_pos_site_id
_symmetry_equiv_pos_as_xyz
1 x,y,z
2 -x,1/2+y,1/2-z
3 -x,-y,-z
4 x,1/2-y,1/2+z
_cell_length_a                   8.172(2)
_cell_length_b                   9.095(2)
_cell_length_c                   10.844(13)
_cell_angle_alpha                90
_cell_angle_beta                 111.66(5)
_cell_angle_gamma                90
_cell_volume                     749.064
_cell_formula_units_Z            4
loop_
_atom_site_label
_atom_site_type_symbol
_atom_site_fract_x
_atom_site_fract_y
_atom_site_fract_z
S1 S 0.36772(6) 0.13937(5) 0.16715(5)
O1 O 0.3100(2) 0.0148(2) 0.0804(2)
O2 O 0.4538(2) 0.1111(2) 0.3073(2)
C1 C 0.1849(2) 0.2542(2) 0.1448(2)
C2 C 0.0274(3) 0.2304(2) 0.0392(2)
C3 C -0.1150(3) 0.3184(3) 0.0261(2)
C4 C -0.1014(3) 0.4282(3) 0.1160(2)
C5 C 0.0567(3) 0.4520(3) 0.2216(2)
C6 C 0.2005(3) 0.3653(2) 0.2367(2)
C7 C 0.5104(3) 0.2435(3) 0.1148(2)
H1 H 0.017(3) 0.155(3) -0.019(2)
H2 H -0.220(3) 0.301(3) -0.045(2)
H3 H -0.195(4) 0.487(4) 0.104(3)
H4 H 0.067(4) 0.519(3) 0.293(3)
H5 H 0.318(3) 0.374(3) 0.309(2)
H6 H 0.539(3) 0.308(3) 0.160(2)
H7 H 0.447(3) 0.281(3) 0.023(2)
H8 H 0.612(4) 0.185(3) 0.131(3)
loop_
_geom_bond_atom_site_label_1
_geom_bond_atom_site_label_2
_geom_bond_site_symmetry_1
_geom_bond_site_symmetry_2
S1 O1 1_555 1_555
O2 S1 1_555 1_555
C1 S1 1_555 1_555
C2 C1 1_555 1_555
C3 C2 1_555 1_555
C4 C3 1_555 1_555
C5 C4 1_555 1_555
C6 C1 1_555 1_555
C7 S1 1_555 1_555
H1 C2 1_555 1_555
H2 C3 1_555 1_555
H3 C4 1_555 1_555
H4 C5 1_555 1_555
H5 C6 1_555 1_555
H6 C7 1_555 1_555
H7 C7 1_555 1_555
H8 C7 1_555 1_555
C5 C6 1_555 1_555

#END
