
#######################################################################
#
#                 Cambridge Crystallographic Data Centre
#                                CCDC 
#
#######################################################################
#
# If this CIF has been generated from an entry in the Cambridge 
# Structural Database, then it will include bibliographic, chemical, 
# crystal, experimental, refinement or atomic coordinate data resulting 
# from the CCDC's data processing and validation procedures.
#
#######################################################################

data_MPYAZO11
_chemical_formula_moiety         'C4 H6 N2 O1'
_chemical_name_systematic        3-Methyl-3-pyrazolin-5-one
_symmetry_cell_setting           orthorhombic
_symmetry_space_group_name_H-M   'F d d 2'
_symmetry_Int_Tables_number      43
_space_group_name_Hall           'F 2 -2d'
loop_
_symmetry_equiv_pos_site_id
_symmetry_equiv_pos_as_xyz
1 x,y,z
2 -x,-y,z
3 1/4+x,1/4-y,1/4+z
4 1/4-x,1/4+y,1/4+z
5 x,1/2+y,1/2+z
6 -x,1/2-y,1/2+z
7 1/4+x,3/4-y,3/4+z
8 1/4-x,3/4+y,3/4+z
9 1/2+x,y,1/2+z
10 1/2-x,-y,1/2+z
11 3/4+x,1/4-y,3/4+z
12 3/4-x,1/4+y,3/4+z
13 1/2+x,1/2+y,z
14 1/2-x,1/2-y,z
15 3/4+x,3/4-y,1/4+z
16 3/4-x,3/4+y,1/4+z
_cell_length_a                   11.722(2)
_cell_length_b                   16.945(3)
_cell_length_c                   9.898(2)
_cell_angle_alpha                90
_cell_angle_beta                 90
_cell_angle_gamma                90
_cell_volume                     1966.03
_exptl_crystal_colour            colorless
_exptl_crystal_description       block
_chemical_melting_point          '488 K'
_cell_formula_units_Z            16
_exptl_crystal_recrystallization_method '95% ethanol'
loop_
_atom_site_label
_atom_site_type_symbol
_atom_site_fract_x
_atom_site_fract_y
_atom_site_fract_z
O1 O 0.9969(2) 0.38889(15) 0.3766(3)
N1 N 0.9383(3) 0.21227(16) 0.5257(3)
H1 H 0.8992 0.1829 0.5794
N2 N 0.9171(3) 0.28983(16) 0.4984(3)
H2 H 0.8611 0.3168 0.5303
C1 C 1.0662(5) 0.1058(2) 0.4573(6)
H3 H 1.0528 0.0834 0.5450
H4 H 1.1461 0.1031 0.4366
H5 H 1.0240 0.0767 0.3907
C2 C 1.0284(3) 0.1899(2) 0.4565(4)
C3 C 1.0689(3) 0.2535(2) 0.3862(4)
H6 H 1.1326 0.2545 0.3301
C4 C 0.9962(3) 0.3171(2) 0.4151(4)
loop_
_geom_bond_atom_site_label_1
_geom_bond_atom_site_label_2
_geom_bond_site_symmetry_1
_geom_bond_site_symmetry_2
O1 C4 1_555 1_555
N1 H1 1_555 1_555
N2 N1 1_555 1_555
H2 N2 1_555 1_555
C1 H3 1_555 1_555
H4 C1 1_555 1_555
H5 C1 1_555 1_555
C2 N1 1_555 1_555
C3 C2 1_555 1_555
H6 C3 1_555 1_555
C4 N2 1_555 1_555
C1 C2 1_555 1_555
C3 C4 1_555 1_555

#END
