
#######################################################################
#
#                 Cambridge Crystallographic Data Centre
#                                CCDC 
#
#######################################################################
#
# If this CIF has been generated from an entry in the Cambridge 
# Structural Database, then it will include bibliographic, chemical, 
# crystal, experimental, refinement or atomic coordinate data resulting 
# from the CCDC's data processing and validation procedures.
#
#######################################################################

data_MTHMID11
_chemical_name_common            'cis-syn-1,3-dimethylthymine dimer'
_chemical_formula_moiety         'C14 H20 N4 O4'
_chemical_name_systematic        
cis-syn-1,3,4a,4b,6,8-hexamethylhexahydropyrimido[5',4':3,4]cyclobuta[1,2-d]pyrimidine-2,4,5,7(3H,6H)-tetrone
_symmetry_cell_setting           monoclinic
_symmetry_space_group_name_H-M   'P 21/n'
_symmetry_Int_Tables_number      14
_space_group_name_Hall           '-P 2yn'
loop_
_symmetry_equiv_pos_site_id
_symmetry_equiv_pos_as_xyz
1 x,y,z
2 1/2-x,1/2+y,1/2-z
3 -x,-y,-z
4 1/2+x,1/2-y,1/2+z
_cell_length_a                   8.2420(16)
_cell_length_b                   14.058(3)
_cell_length_c                   13.106(3)
_cell_angle_alpha                90
_cell_angle_beta                 97.91(3)
_cell_angle_gamma                90
_cell_volume                     1504.09
_exptl_crystal_colour            colorless
_exptl_crystal_description       prism
_cell_formula_units_Z            4
loop_
_atom_site_label
_atom_site_type_symbol
_atom_site_fract_x
_atom_site_fract_y
_atom_site_fract_z
O1 O 0.3780(3) 0.23676(19) 0.45062(16)
O2 O 0.1216(3) 0.03503(13) 0.64504(16)
O3 O 0.6118(3) 0.13756(16) 0.65498(15)
O4 O 0.4351(3) 0.11854(18) 0.96604(18)
N1 N 0.2557(3) 0.13518(16) 0.54968(16)
N2 N 0.1530(3) 0.18673(15) 0.70002(16)
N3 N 0.3826(3) 0.25476(15) 0.87831(16)
N4 N 0.5101(3) 0.12687(15) 0.80534(17)
C1 C 0.2701(5) 0.0559(2) 0.4781(3)
H1 H 0.3275 0.0771 0.4233
H2 H 0.1627 0.0343 0.4500
H3 H 0.3295 0.0046 0.5144
C2 C 0.3349(5) 0.3946(2) 0.5727(3)
H4 H 0.2456 0.4002 0.5177
H5 H 0.4361 0.4075 0.5468
H6 H 0.3206 0.4394 0.6259
C3 C 0.0436(4) 0.1678(3) 0.7765(2)
H7 H 0.0095 0.1025 0.7718
H8 H -0.0508 0.2083 0.7636
H9 H 0.1002 0.1802 0.8442
C4 C 0.3260(3) 0.2212(2) 0.5311(2)
C5 C 0.1741(3) 0.11530(18) 0.63385(19)
C6 C 0.2176(3) 0.28204(18) 0.6956(2)
H10 H 0.1324 0.3311 0.6892
C7 C 0.3388(3) 0.29359(19) 0.6167(2)
C8 C 0.6377(4) 0.3397(2) 0.7086(2)
H11 H 0.7156 0.3240 0.7676
H12 H 0.6084 0.4056 0.7116
H13 H 0.6853 0.3281 0.6469
C9 C 0.4852(3) 0.27849(18) 0.70821(19)
C10 C 0.3636(3) 0.30441(17) 0.7815(2)
H14 H 0.3683 0.3731 0.7943
C11 C 0.5401(3) 0.17583(19) 0.71899(19)
C12 C 0.5643(5) 0.0273(2) 0.8146(3)
H15 H 0.6095 0.0091 0.7538
H16 H 0.4726 -0.0128 0.8224
H17 H 0.6463 0.0205 0.8737
C13 C 0.4396(3) 0.1655(2) 0.8889(2)
C14 C 0.3149(4) 0.2982(3) 0.9646(2)
H18 H 0.3360 0.2577 1.0239
H19 H 0.1988 0.3063 0.9466
H20 H 0.3653 0.3590 0.9799
loop_
_geom_bond_atom_site_label_1
_geom_bond_atom_site_label_2
_geom_bond_site_symmetry_1
_geom_bond_site_symmetry_2
O1 C4 1_555 1_555
O2 C5 1_555 1_555
O3 C11 1_555 1_555
O4 C13 1_555 1_555
N1 C1 1_555 1_555
N2 C3 1_555 1_555
N3 C10 1_555 1_555
N4 C11 1_555 1_555
C1 H1 1_555 1_555
H2 C1 1_555 1_555
H3 C1 1_555 1_555
C2 H4 1_555 1_555
H5 C2 1_555 1_555
H6 C2 1_555 1_555
C3 H7 1_555 1_555
H8 C3 1_555 1_555
H9 C3 1_555 1_555
C4 N1 1_555 1_555
C5 N1 1_555 1_555
C6 N2 1_555 1_555
H10 C6 1_555 1_555
C7 C2 1_555 1_555
C8 H11 1_555 1_555
H12 C8 1_555 1_555
H13 C8 1_555 1_555
C9 C7 1_555 1_555
C10 C6 1_555 1_555
H14 C10 1_555 1_555
C11 C9 1_555 1_555
C12 N4 1_555 1_555
H15 C12 1_555 1_555
H16 C12 1_555 1_555
H17 C12 1_555 1_555
C13 N3 1_555 1_555
C14 N3 1_555 1_555
H18 C14 1_555 1_555
H19 C14 1_555 1_555
H20 C14 1_555 1_555
N2 C5 1_555 1_555
N4 C13 1_555 1_555
C4 C7 1_555 1_555
C6 C7 1_555 1_555
C8 C9 1_555 1_555
C9 C10 1_555 1_555

#END
