
#######################################################################
#
#                 Cambridge Crystallographic Data Centre
#                                CCDC 
#
#######################################################################
#
# If this CIF has been generated from an entry in the Cambridge 
# Structural Database, then it will include bibliographic, chemical, 
# crystal, experimental, refinement or atomic coordinate data resulting 
# from the CCDC's data processing and validation procedures.
#
#######################################################################

data_MTHOPH04
_chemical_name_common            2,5-Dimethyl-6a-thiathiophthene
_chemical_formula_moiety         'C7 H8 S3'
_chemical_name_systematic        
2,5-Dimethyl(1,2)dithiolo(1,5-b)(1,2)dithiole-7-S^iv^
_symmetry_cell_setting           orthorhombic
_symmetry_space_group_name_H-M   'P n m a'
_symmetry_Int_Tables_number      62
_space_group_name_Hall           '-P 2ac 2n'
loop_
_symmetry_equiv_pos_site_id
_symmetry_equiv_pos_as_xyz
1 x,y,z
2 1/2-x,1/2+y,1/2+z
3 x,1/2-y,z
4 1/2-x,-y,1/2+z
5 -x,-y,-z
6 1/2+x,1/2-y,1/2-z
7 -x,1/2+y,-z
8 1/2+x,y,1/2-z
_cell_length_a                   7.596(4)
_cell_length_b                   19.920(7)
_cell_length_c                   5.361(2)
_cell_angle_alpha                90
_cell_angle_beta                 90
_cell_angle_gamma                90
_cell_volume                     811.185
_exptl_crystal_colour            orange
_cell_formula_units_Z            4
loop_
_atom_site_label
_atom_site_type_symbol
_atom_site_fract_x
_atom_site_fract_y
_atom_site_fract_z
S1 S 0.47316(5) 0.75000 0.21240(6)
S2 S 0.46997(4) 0.632040(10) 0.20364(5)
C1 C 0.3470(2) 0.75000 -0.0576(4)
C2 C 0.29722(15) 0.68836(7) -0.1658(2)
C3 C 0.34621(17) 0.62849(6) -0.0599(3)
C4 C 0.2918(2) 0.56246(6) -0.1671(3)
S2B S 0.46997(4) 0.867960(10) 0.20364(5)
C2B C 0.29722(15) 0.81164(7) -0.1658(2)
C3B C 0.34621(17) 0.87151(6) -0.0599(3)
C4B C 0.2918(2) 0.93754(6) -0.1671(3)
loop_
_geom_bond_atom_site_label_1
_geom_bond_atom_site_label_2
_geom_bond_site_symmetry_1
_geom_bond_site_symmetry_2
S1 S2 1_555 1_555
S2 C3 1_555 1_555
C1 S1 1_555 1_555
C2 C1 1_555 1_555
C3 C2 1_555 1_555
C4 C3 1_555 1_555
S2B S1 1_555 1_555
C2B C1 1_555 1_555
C3B S2B 1_555 1_555
C4B C3B 1_555 1_555
C2B C3B 1_555 1_555

#END
