
#######################################################################
#
#                 Cambridge Crystallographic Data Centre
#                                CCDC 
#
#######################################################################
#
# If this CIF has been generated from an entry in the Cambridge 
# Structural Database, then it will include bibliographic, chemical, 
# crystal, experimental, refinement or atomic coordinate data resulting 
# from the CCDC's data processing and validation procedures.
#
#######################################################################

data_MTHOPH05
_chemical_name_common            2,5-Dimethyl-6a-thiathiophthene
_chemical_formula_moiety         'C7 H8 S3'
_chemical_name_systematic        
2,5-Dimethyl(1,2)dithiolo(1,5-b)(1,2)dithiole-7-S^iv^
_symmetry_cell_setting           orthorhombic
_symmetry_space_group_name_H-M   'P n m a'
_symmetry_Int_Tables_number      62
_space_group_name_Hall           '-P 2ac 2n'
loop_
_symmetry_equiv_pos_site_id
_symmetry_equiv_pos_as_xyz
1 x,y,z
2 1/2-x,1/2+y,1/2+z
3 x,1/2-y,z
4 1/2-x,-y,1/2+z
5 -x,-y,-z
6 1/2+x,1/2-y,1/2-z
7 -x,1/2+y,-z
8 1/2+x,y,1/2-z
_cell_length_a                   7.817(1)
_cell_length_b                   20.129(2)
_cell_length_c                   5.370(1)
_cell_angle_alpha                90
_cell_angle_beta                 90
_cell_angle_gamma                90
_cell_volume                     844.961
_exptl_crystal_colour            orange
_cell_formula_units_Z            4
loop_
_atom_site_label
_atom_site_type_symbol
_atom_site_fract_x
_atom_site_fract_y
_atom_site_fract_z
S1 S 0.4927(3) 0.7500 0.2089(3)
S2 S 0.48992(21) 0.63321(5) 0.20066(21)
C1 C 0.3655(7) 0.7500 -0.0553(10)
C2 C 0.3178(5) 0.6889(3) -0.1575(7)
C3 C 0.3654(5) 0.63001(23) -0.0574(7)
C4 C 0.3110(9) 0.5648(3) -0.1660(13)
H1 H 0.242(4) 0.6887(22) -0.289(6)
H2 H 0.297(9) 0.567(4) -0.329(13)
H3 H 0.400(5) 0.5373(22) -0.162(9)
H4 H 0.205(7) 0.545(3) -0.071(9)
S2B S 0.48992(21) 0.86679(5) 0.20066(21)
C2B C 0.3178(5) 0.8111(3) -0.1575(7)
C3B C 0.3654(5) 0.86999(23) -0.0574(7)
H1B H 0.242(4) 0.8113(22) -0.289(6)
C4B C 0.3110(9) 0.9352(3) -0.1660(13)
H2B H 0.297(9) 0.933(4) -0.329(13)
H3B H 0.400(5) 0.9627(22) -0.162(9)
H4B H 0.205(7) 0.955(3) -0.071(9)
loop_
_geom_bond_atom_site_label_1
_geom_bond_atom_site_label_2
_geom_bond_site_symmetry_1
_geom_bond_site_symmetry_2
S1 S2 1_555 1_555
S2 C3 1_555 1_555
C1 S1 1_555 1_555
C2 C1 1_555 1_555
C3 C2 1_555 1_555
C4 C3 1_555 1_555
H1 C2 1_555 1_555
H2 C4 1_555 1_555
H3 C4 1_555 1_555
H4 C4 1_555 1_555
S2B S1 1_555 1_555
C2B C1 1_555 1_555
C3B S2B 1_555 1_555
H1B C2B 1_555 1_555
C4B C3B 1_555 1_555
H2B C4B 1_555 1_555
H3B C4B 1_555 1_555
H4B C4B 1_555 1_555
C2B C3B 1_555 1_555

#END
