
#######################################################################
#
#                 Cambridge Crystallographic Data Centre
#                                CCDC 
#
#######################################################################
#
# If this CIF has been generated from an entry in the Cambridge 
# Structural Database, then it will include bibliographic, chemical, 
# crystal, experimental, refinement or atomic coordinate data resulting 
# from the CCDC's data processing and validation procedures.
#
#######################################################################

data_MTHOPH03
_chemical_name_common            2,5-Dimethyl-6a-thiathiophthene
_chemical_formula_moiety         'C7 H8 S3'
_chemical_name_systematic        
2,5-Dimethyl(1,2)dithiolo(1,5-b)(1,2)dithiole-7-S^iv^
_symmetry_cell_setting           orthorhombic
_symmetry_space_group_name_H-M   'P n m a'
_symmetry_Int_Tables_number      62
_space_group_name_Hall           '-P 2ac 2n'
loop_
_symmetry_equiv_pos_site_id
_symmetry_equiv_pos_as_xyz
1 x,y,z
2 1/2-x,1/2+y,1/2+z
3 x,1/2-y,z
4 1/2-x,-y,1/2+z
5 -x,-y,-z
6 1/2+x,1/2-y,1/2-z
7 -x,1/2+y,-z
8 1/2+x,y,1/2-z
_cell_length_a                   7.596(4)
_cell_length_b                   19.920(7)
_cell_length_c                   5.361(2)
_cell_angle_alpha                90
_cell_angle_beta                 90
_cell_angle_gamma                90
_cell_volume                     811.185
_exptl_crystal_colour            orange
_cell_formula_units_Z            4
loop_
_atom_site_label
_atom_site_type_symbol
_atom_site_fract_x
_atom_site_fract_y
_atom_site_fract_z
S1 S 0.47304(10) 0.75000 0.21230(11)
S2 S 0.46991(7) 0.632040(19) 0.20354(9)
C1 C 0.3473(3) 0.75000 -0.0577(5)
C2 C 0.29721(19) 0.68844(11) -0.1662(3)
C3 C 0.34644(24) 0.62840(8) -0.0592(3)
C4 C 0.2916(3) 0.56233(9) -0.1671(4)
H1 H 0.2148 0.6882 -0.330
H2 H 0.2439 0.5697 -0.355
H3 H 0.3973 0.5264 -0.150
H4 H 0.1777 0.5431 -0.070
S2B S 0.46991(7) 0.867960(19) 0.20354(9)
C2B C 0.29721(19) 0.81156(11) -0.1662(3)
C3B C 0.34644(24) 0.87160(8) -0.0592(3)
H1B H 0.2148 0.8118 -0.330
C4B C 0.2916(3) 0.93767(9) -0.1671(4)
H2B H 0.2439 0.9303 -0.355
H3B H 0.3973 0.9736 -0.150
H4B H 0.1777 0.9569 -0.070
loop_
_geom_bond_atom_site_label_1
_geom_bond_atom_site_label_2
_geom_bond_site_symmetry_1
_geom_bond_site_symmetry_2
S1 S2 1_555 1_555
S2 C3 1_555 1_555
C1 S1 1_555 1_555
C2 C1 1_555 1_555
C3 C2 1_555 1_555
C4 C3 1_555 1_555
H1 C2 1_555 1_555
H2 C4 1_555 1_555
H3 C4 1_555 1_555
H4 C4 1_555 1_555
S2B S1 1_555 1_555
C2B C1 1_555 1_555
C3B S2B 1_555 1_555
H1B C2B 1_555 1_555
C4B C3B 1_555 1_555
H2B C4B 1_555 1_555
H3B C4B 1_555 1_555
H4B C4B 1_555 1_555
C2B C3B 1_555 1_555

#END
