
#######################################################################
#
#                 Cambridge Crystallographic Data Centre
#                                CCDC 
#
#######################################################################
#
# If this CIF has been generated from an entry in the Cambridge 
# Structural Database, then it will include bibliographic, chemical, 
# crystal, experimental, refinement or atomic coordinate data resulting 
# from the CCDC's data processing and validation procedures.
#
#######################################################################

data_MTHPHE01
_chemical_formula_moiety         'C6 H6 O2 S1'
_chemical_name_systematic        '5-Methyl-2-thiophene carboxylic acid'
_symmetry_cell_setting           monoclinic
_symmetry_space_group_name_H-M   'P 21/c'
_symmetry_Int_Tables_number      14
_space_group_name_Hall           '-P 2ybc'
loop_
_symmetry_equiv_pos_site_id
_symmetry_equiv_pos_as_xyz
1 x,y,z
2 -x,1/2+y,1/2-z
3 -x,-y,-z
4 x,1/2-y,1/2+z
_cell_length_a                   5.079(1)
_cell_length_b                   13.925(3)
_cell_length_c                   9.450(2)
_cell_angle_alpha                90
_cell_angle_beta                 93.30(1)
_cell_angle_gamma                90
_cell_volume                     667.244
_exptl_crystal_colour            colorless
_cell_formula_units_Z            4
loop_
_atom_site_label
_atom_site_type_symbol
_atom_site_fract_x
_atom_site_fract_y
_atom_site_fract_z
S1 S 0.1099(1) 0.5438(1) 0.1841(1)
C1 C -0.0817(6) 0.6095(2) 0.2912(3)
C2 C -0.0583(7) 0.7063(2) 0.2655(3)
C3 C 0.1130(6) 0.7254(2) 0.1588(4)
C4 C 0.2200(6) 0.6456(2) 0.1042(3)
C5 C 0.4109(8) 0.6393(3) -0.0101(4)
C6 C -0.2523(6) 0.5617(2) 0.3866(3)
O1 O -0.2671(4) 0.47208(13) 0.3891(2)
O2 O -0.3845(5) 0.61708(15) 0.4653(2)
H1 H -0.1475(63) 0.7525(26) 0.3139(34)
H2 H 0.1630(76) 0.7861(30) 0.1279(41)
H3 H 0.565(10) 0.6036(37) 0.0184(51)
H4 H 0.3425(89) 0.6091(35) -0.0880(52)
H5 H 0.448(10) 0.6964(39) -0.0381(56)
H6 H -0.5013(99) 0.5869(36) 0.5176(53)
loop_
_geom_bond_atom_site_label_1
_geom_bond_atom_site_label_2
_geom_bond_site_symmetry_1
_geom_bond_site_symmetry_2
S1 C1 1_555 1_555
C1 C2 1_555 1_555
C2 C3 1_555 1_555
C3 C4 1_555 1_555
C4 S1 1_555 1_555
C5 C4 1_555 1_555
C6 C1 1_555 1_555
O1 C6 1_555 1_555
O2 C6 1_555 1_555
H1 C2 1_555 1_555
H2 C3 1_555 1_555
H3 C5 1_555 1_555
H4 C5 1_555 1_555
H5 C5 1_555 1_555
H6 O2 1_555 1_555

#END
