
#######################################################################
#
#                 Cambridge Crystallographic Data Centre
#                                CCDC 
#
#######################################################################
#
# If this CIF has been generated from an entry in the Cambridge 
# Structural Database, then it will include bibliographic, chemical, 
# crystal, experimental, refinement or atomic coordinate data resulting 
# from the CCDC's data processing and validation procedures.
#
#######################################################################

data_MTPDCX
_chemical_formula_moiety         'C11 H14 O5 S2'
_chemical_name_systematic        
2,3-trans-Di(methoxycarbonyl)-cyclopentan-4-one-1,1-ethylenedithiolane
_symmetry_cell_setting           monoclinic
_symmetry_space_group_name_H-M   'P 2/c'
_symmetry_Int_Tables_number      13
_space_group_name_Hall           '-P 2yc'
loop_
_symmetry_equiv_pos_site_id
_symmetry_equiv_pos_as_xyz
1 x,y,z
2 -x,y,1/2-z
3 -x,-y,-z
4 x,-y,1/2+z
_cell_length_a                   14.49(2)
_cell_length_b                   5.90(1)
_cell_length_c                   14.69(2)
_cell_angle_alpha                90
_cell_angle_beta                 94.0(2)
_cell_angle_gamma                90
_cell_volume                     1252.8
_cell_formula_units_Z            4
loop_
_atom_site_label
_atom_site_type_symbol
_atom_site_fract_x
_atom_site_fract_y
_atom_site_fract_z
S1 S 0.38480 0.35050 -0.37800
S2 S 0.32850 0.78660 -0.30620
C1 C 0.36270 0.57620 -0.22640
C2 C 0.35150 0.35280 -0.26470
C3 C 0.33950 0.61910 -0.40790
C4 C 0.25150 0.63860 -0.47210
C5 C 0.25380 0.87090 -0.50920
C6 C 0.35420 0.90100 -0.52830
C7 C 0.41160 0.74380 -0.47100
C8 C 0.16300 0.57440 -0.42980
C9 C 0.06920 0.28890 -0.37650
C10 C 0.18330 0.91800 -0.59470
C11 C 0.10670 1.20420 -0.67990
O1 O 0.38060 1.03350 -0.58010
O2 O 0.15860 0.36780 -0.41020
O3 O 0.10320 0.71760 -0.41870
O4 O 0.15540 0.76910 -0.64230
O5 O 0.17340 1.12920 -0.60220
H1 H 0.32700 0.56300 -0.16100
H2 H 0.38900 0.60600 -0.18000
H3 H 0.27100 0.35000 -0.26900
H4 H 0.29100 0.22400 -0.26100
H5 H 0.45800 0.83200 -0.43100
H6 H 0.44100 0.62900 -0.51000
H7 H 0.25400 0.52700 -0.52300
H8 H 0.20600 0.88700 -0.46100
H9 H 0.05600 0.37200 -0.32000
H10 H 0.07300 0.12200 -0.36300
H11 H 0.01800 0.31500 -0.42500
H12 H 0.08000 1.06500 -0.71300
H13 H 0.13900 1.29900 -0.72400
H14 H 0.05400 1.29100 -0.65500
loop_
_geom_bond_atom_site_label_1
_geom_bond_atom_site_label_2
_geom_bond_site_symmetry_1
_geom_bond_site_symmetry_2
S1 C2 1_555 1_555
S2 C1 1_555 1_555
C1 C2 1_555 1_555
C2 H3 1_555 1_555
C3 S1 1_555 1_555
C4 C3 1_555 1_555
C5 C4 1_555 1_555
C6 C5 1_555 1_555
C7 C3 1_555 1_555
C8 C4 1_555 1_555
C9 O2 1_555 1_555
C10 C5 1_555 1_555
C11 O5 1_555 1_555
O1 C6 1_555 1_555
O2 C8 1_555 1_555
O3 C8 1_555 1_555
O4 C10 1_555 1_555
O5 C10 1_555 1_555
H1 C1 1_555 1_555
H2 C1 1_555 1_555
H4 C2 1_555 1_555
H5 C7 1_555 1_555
H6 C7 1_555 1_555
H7 C4 1_555 1_555
H8 C5 1_555 1_555
H9 C9 1_555 1_555
H10 C9 1_555 1_555
H11 C9 1_555 1_555
H12 C11 1_555 1_555
H13 C11 1_555 1_555
H14 C11 1_555 1_555
S2 C3 1_555 1_555
C6 C7 1_555 1_555

#END
