
#######################################################################
#
#                 Cambridge Crystallographic Data Centre
#                                CCDC 
#
#######################################################################
#
# If this CIF has been generated from an entry in the Cambridge 
# Structural Database, then it will include bibliographic, chemical, 
# crystal, experimental, refinement or atomic coordinate data resulting 
# from the CCDC's data processing and validation procedures.
#
#######################################################################

data_MUBFEV
_chemical_compound_source        
'roots of Euphorbia kansuensis Proch. (Euphorbiaceae)'
_chemical_formula_moiety         'C20 H30 O2'
_chemical_name_systematic        3\a-Hydroxy-ent-atis-16-en-14-one
_chemical_properties_biological  'E.kansuensis is used as a Tibetan medicine'
_symmetry_cell_setting           orthorhombic
_symmetry_space_group_name_H-M   'P 21 21 21'
_symmetry_Int_Tables_number      19
_space_group_name_Hall           'P 2ac 2ab'
loop_
_symmetry_equiv_pos_site_id
_symmetry_equiv_pos_as_xyz
1 x,y,z
2 1/2-x,-y,1/2+z
3 -x,1/2+y,1/2-z
4 1/2+x,1/2-y,-z
_cell_length_a                   7.3100(10)
_cell_length_b                   12.346(2)
_cell_length_c                   18.431(3)
_cell_angle_alpha                90
_cell_angle_beta                 90
_cell_angle_gamma                90
_cell_volume                     1663.38
_exptl_crystal_colour            colorless
_exptl_crystal_description       prism
_cell_formula_units_Z            4
_exptl_crystal_recrystallization_method methanol
loop_
_atom_site_label
_atom_site_type_symbol
_atom_site_fract_x
_atom_site_fract_y
_atom_site_fract_z
O1 O 0.6384(3) 0.66962(17) 0.56057(11)
O2 O 0.6926(3) 0.34246(17) 0.20401(9)
C1 C 0.8688(4) 0.4212(2) 0.48422(14)
H1 H 0.8136 0.3692 0.5170
H2 H 0.9969 0.4023 0.4789
C2 C 0.8547(4) 0.5341(2) 0.51763(16)
H3 H 0.9139 0.5344 0.5648
H4 H 0.9173 0.5859 0.4869
C3 C 0.6573(4) 0.5667(2) 0.52594(14)
H5 H 0.5982 0.5127 0.5571
C4 C 0.5518(4) 0.5697(2) 0.45424(14)
C5 C 0.5770(4) 0.45689(19) 0.41716(13)
H6 H 0.5164 0.4058 0.4500
C6 C 0.4748(4) 0.4443(2) 0.34489(14)
H7 H 0.3540 0.4762 0.3490
H8 H 0.5406 0.4823 0.3070
C7 C 0.4570(4) 0.3248(2) 0.32477(15)
H9 H 0.3784 0.2894 0.3599
H10 H 0.3987 0.3192 0.2777
C8 C 0.6396(4) 0.26588(19) 0.32227(13)
C9 C 0.7584(4) 0.29023(19) 0.38987(14)
H11 H 0.6941 0.2567 0.4308
C10 C 0.7746(3) 0.4128(2) 0.40951(13)
C11 C 0.9430(4) 0.2297(2) 0.38417(15)
H12 H 1.0415 0.2820 0.3799
H13 H 0.9630 0.1879 0.4280
C12 C 0.9455(4) 0.1535(2) 0.31781(15)
H14 H 1.0595 0.1119 0.3158
C13 C 0.9223(5) 0.2234(2) 0.24987(17)
H15 H 1.0244 0.2733 0.2459
H16 H 0.9220 0.1776 0.2071
C14 C 0.7470(5) 0.2859(2) 0.25353(15)
C15 C 0.6065(4) 0.1418(2) 0.32132(16)
H17 H 0.5334 0.1217 0.3631
H18 H 0.5382 0.1227 0.2780
C16 C 0.7825(4) 0.0797(2) 0.32255(15)
C17 C 0.7944(5) -0.0274(2) 0.32922(14)
H19 H 0.6887 -0.0688 0.3335
H20 H 0.9084 -0.0608 0.3296
C18 C 0.6115(5) 0.6678(2) 0.40765(14)
H21 H 0.5673 0.7334 0.4294
H22 H 0.5617 0.6608 0.3597
H23 H 0.7426 0.6701 0.4049
C19 C 0.3481(4) 0.5846(2) 0.47237(17)
H24 H 0.3332 0.6468 0.5030
H25 H 0.3037 0.5214 0.4971
H26 H 0.2801 0.5948 0.4283
C20 C 0.8897(4) 0.4746(2) 0.35366(15)
H27 H 1.0031 0.4371 0.3460
H28 H 0.9141 0.5463 0.3713
H29 H 0.8239 0.4790 0.3087
H30 H 0.683(4) 0.667(3) 0.6009(9)
loop_
_geom_bond_atom_site_label_1
_geom_bond_atom_site_label_2
_geom_bond_site_symmetry_1
_geom_bond_site_symmetry_2
O1 C3 1_555 1_555
O2 C14 1_555 1_555
C1 H1 1_555 1_555
H2 C1 1_555 1_555
C2 C1 1_555 1_555
H3 C2 1_555 1_555
H4 C2 1_555 1_555
C3 C2 1_555 1_555
H5 C3 1_555 1_555
C4 C3 1_555 1_555
C5 C4 1_555 1_555
H6 C5 1_555 1_555
C6 C5 1_555 1_555
H7 C6 1_555 1_555
H8 C6 1_555 1_555
C7 C6 1_555 1_555
H9 C7 1_555 1_555
H10 C7 1_555 1_555
C8 C7 1_555 1_555
C9 C8 1_555 1_555
H11 C9 1_555 1_555
C10 C1 1_555 1_555
C11 C9 1_555 1_555
H12 C11 1_555 1_555
H13 C11 1_555 1_555
C12 C11 1_555 1_555
H14 C12 1_555 1_555
C13 C12 1_555 1_555
H15 C13 1_555 1_555
H16 C13 1_555 1_555
C14 C8 1_555 1_555
C15 C8 1_555 1_555
H17 C15 1_555 1_555
H18 C15 1_555 1_555
C16 C12 1_555 1_555
C17 C16 1_555 1_555
H19 C17 1_555 1_555
H20 C17 1_555 1_555
C18 C4 1_555 1_555
H21 C18 1_555 1_555
H22 C18 1_555 1_555
H23 C18 1_555 1_555
C19 C4 1_555 1_555
H24 C19 1_555 1_555
H25 C19 1_555 1_555
H26 C19 1_555 1_555
C20 C10 1_555 1_555
H27 C20 1_555 1_555
H28 C20 1_555 1_555
H29 C20 1_555 1_555
H30 O1 1_555 1_555
C5 C10 1_555 1_555
C9 C10 1_555 1_555
C13 C14 1_555 1_555
C15 C16 1_555 1_555

#END
