
#######################################################################
#
#                 Cambridge Crystallographic Data Centre
#                                CCDC 
#
#######################################################################
#
# If this CIF has been generated from an entry in the Cambridge 
# Structural Database, then it will include bibliographic, chemical, 
# crystal, experimental, refinement or atomic coordinate data resulting 
# from the CCDC's data processing and validation procedures.
#
#######################################################################

data_MUBGOG
_chemical_formula_moiety         'C32 H16 S4,1.5(C6 H6)'
_chemical_name_systematic        
'1,2,4(2,3),3(3,2)-Tetra-1-benzothiophenacyclotetraphane benzene solvate'
_symmetry_cell_setting           triclinic
_symmetry_space_group_name_H-M   'P -1'
_symmetry_Int_Tables_number      2
_space_group_name_Hall           '-P 1'
loop_
_symmetry_equiv_pos_site_id
_symmetry_equiv_pos_as_xyz
1 x,y,z
2 -x,-y,-z
_cell_length_a                   9.5167(10)
_cell_length_b                   13.3035(14)
_cell_length_c                   13.9186(15)
_cell_angle_alpha                65.6740(10)
_cell_angle_beta                 84.6460(10)
_cell_angle_gamma                81.9550(10)
_cell_volume                     1588.67
_exptl_crystal_colour            yellow
_exptl_crystal_description       block
_cell_formula_units_Z            2
_exptl_crystal_recrystallization_method benzene
loop_
_atom_site_label
_atom_site_type_symbol
_atom_site_fract_x
_atom_site_fract_y
_atom_site_fract_z
C1 C 0.1068(3) 0.6386(2) 0.2230(2)
C2 C 0.0961(3) 0.5385(2) 0.2153(3)
H1 H 0.0810 0.5372 0.1507
C3 C 0.1082(3) 0.4420(2) 0.3052(3)
H2 H 0.1015 0.3747 0.3013
C4 C 0.1304(3) 0.4435(2) 0.4019(2)
H3 H 0.1388 0.3773 0.4617
C5 C 0.1400(3) 0.5421(2) 0.4101(2)
H4 H 0.1547 0.5423 0.4751
C6 C 0.1276(2) 0.6421(2) 0.31980(19)
C7 C 0.1259(2) 0.75439(19) 0.31116(18)
C8 C 0.1456(2) 0.78278(18) 0.40068(18)
C9 C 0.2687(2) 0.74267(19) 0.46507(18)
C10 C 0.3936(3) 0.6788(2) 0.4529(2)
H5 H 0.4040 0.6542 0.3988
C11 C 0.5009(3) 0.6526(2) 0.5222(2)
H6 H 0.5836 0.6094 0.5150
C12 C 0.4870(3) 0.6902(2) 0.6029(2)
H7 H 0.5608 0.6719 0.6486
C13 C 0.3664(3) 0.7535(2) 0.6163(2)
H8 H 0.3576 0.7785 0.6700
C14 C 0.2573(3) 0.7792(2) 0.54677(19)
C15 C 0.0472(3) 0.84729(19) 0.43395(18)
C16 C -0.0901(2) 0.90222(18) 0.38884(18)
C17 C -0.1138(2) 0.97723(18) 0.28804(18)
C18 C -0.2632(3) 1.01481(19) 0.27136(19)
C19 C -0.3476(3) 0.9663(2) 0.3631(2)
C20 C -0.4957(3) 0.9883(2) 0.3643(3)
H9 H -0.5503 0.9551 0.4256
C21 C -0.5581(3) 1.0605(3) 0.2721(3)
H10 H -0.6563 1.0774 0.2714
C22 C -0.4768(3) 1.1085(3) 0.1800(3)
H11 H -0.5216 1.1562 0.1184
C23 C -0.3308(3) 1.0868(2) 0.1784(2)
H12 H -0.2777 1.1197 0.1163
C24 C 0.0004(2) 1.01805(19) 0.20673(18)
C25 C 0.0249(3) 1.1333(2) 0.15376(18)
C26 C -0.0462(3) 1.2254(2) 0.1694(2)
H13 H -0.1216 1.2167 0.2187
C27 C -0.0033(4) 1.3285(2) 0.1110(2)
H14 H -0.0507 1.3899 0.1208
C28 C 0.1104(4) 1.3430(2) 0.0372(3)
H15 H 0.1383 1.4135 -0.0007
C29 C 0.1816(3) 1.2545(2) 0.0197(2)
H16 H 0.2564 1.2643 -0.0301
C30 C 0.1387(3) 1.1492(2) 0.07885(19)
C31 C 0.0942(3) 0.9515(2) 0.17253(18)
C32 C 0.1042(2) 0.83069(19) 0.21043(18)
S1 S 0.08749(7) 0.77085(6) 0.12239(5)
S2 S 0.09726(7) 0.86121(6) 0.54491(5)
S3 S -0.24494(7) 0.87555(5) 0.46789(5)
S4 S 0.21218(7) 1.02532(6) 0.07232(5)
C33 C 0.2633(3) 0.3588(4) 0.7185(2)
H17 H 0.1831 0.3940 0.6795
C34 C 0.3502(5) 0.4197(2) 0.7428(3)
H18 H 0.3282 0.4961 0.7200
C35 C 0.4697(4) 0.3670(4) 0.8010(3)
H19 H 0.5277 0.4081 0.8172
C36 C 0.5032(3) 0.2531(4) 0.8351(2)
H20 H 0.5837 0.2179 0.8737
C37 C 0.4159(5) 0.1920(2) 0.8112(3)
H21 H 0.4373 0.1155 0.8345
C38 C 0.2969(4) 0.2450(4) 0.7526(3)
H22 H 0.2391 0.2039 0.7360
C39 C 0.4111(5) 0.4474(5) 0.0892(4)
H23 H 0.3517 0.4117 0.1468
C40 C 0.5457(6) 0.4043(3) 0.0777(4)
H24 H 0.5791 0.3391 0.1330
C41 C 0.6349(5) 0.4453(5) -0.0039(5)
H25 H 0.7238 0.4075 -0.0073
C39A C 0.5889(5) 0.5526(5) -0.0892(4)
H23A H 0.6483 0.5883 -0.1468
C40A C 0.4543(6) 0.5957(3) -0.0777(4)
H24A H 0.4209 0.6609 -0.1330
C41A C 0.3651(5) 0.5547(5) 0.0039(5)
H25A H 0.2762 0.5925 0.0073
loop_
_geom_bond_atom_site_label_1
_geom_bond_atom_site_label_2
_geom_bond_site_symmetry_1
_geom_bond_site_symmetry_2
C1 C2 1_555 1_555
C2 H1 1_555 1_555
C3 C2 1_555 1_555
H2 C3 1_555 1_555
C4 C3 1_555 1_555
H3 C4 1_555 1_555
C5 C4 1_555 1_555
H4 C5 1_555 1_555
C6 C1 1_555 1_555
C7 C6 1_555 1_555
C8 C7 1_555 1_555
C9 C8 1_555 1_555
C10 C9 1_555 1_555
H5 C10 1_555 1_555
C11 C10 1_555 1_555
H6 C11 1_555 1_555
C12 C11 1_555 1_555
H7 C12 1_555 1_555
C13 C12 1_555 1_555
H8 C13 1_555 1_555
C14 C9 1_555 1_555
C15 C8 1_555 1_555
C16 C15 1_555 1_555
C17 C16 1_555 1_555
C18 C17 1_555 1_555
C19 C18 1_555 1_555
C20 C19 1_555 1_555
H9 C20 1_555 1_555
C21 C20 1_555 1_555
H10 C21 1_555 1_555
C22 C21 1_555 1_555
H11 C22 1_555 1_555
C23 C18 1_555 1_555
H12 C23 1_555 1_555
C24 C17 1_555 1_555
C25 C24 1_555 1_555
C26 C25 1_555 1_555
H13 C26 1_555 1_555
C27 C26 1_555 1_555
H14 C27 1_555 1_555
C28 C27 1_555 1_555
H15 C28 1_555 1_555
C29 C28 1_555 1_555
H16 C29 1_555 1_555
C30 C25 1_555 1_555
C31 C24 1_555 1_555
C32 C7 1_555 1_555
S1 C1 1_555 1_555
S2 C14 1_555 1_555
S3 C16 1_555 1_555
S4 C30 1_555 1_555
C33 H17 1_555 1_555
C34 C33 1_555 1_555
H18 C34 1_555 1_555
C35 C34 1_555 1_555
H19 C35 1_555 1_555
C36 C35 1_555 1_555
H20 C36 1_555 1_555
C37 C36 1_555 1_555
H21 C37 1_555 1_555
C38 C33 1_555 1_555
H22 C38 1_555 1_555
C39 H23 1_555 1_555
C40 C39 1_555 1_555
H24 C40 1_555 1_555
C41 C40 1_555 1_555
H25 C41 1_555 1_555
C39A C41 1_555 1_555
H23A C39A 1_555 1_555
C40A C39A 1_555 1_555
H24A C40A 1_555 1_555
C41A C39 1_555 1_555
H25A C41A 1_555 1_555
C5 C6 1_555 1_555
C13 C14 1_555 1_555
C15 S2 1_555 1_555
C19 S3 1_555 1_555
C22 C23 1_555 1_555
C29 C30 1_555 1_555
C31 C32 1_555 1_555
C31 S4 1_555 1_555
C32 S1 1_555 1_555
C37 C38 1_555 1_555
C40A C41A 1_555 1_555

#END
