
#######################################################################
#
#                 Cambridge Crystallographic Data Centre
#                                CCDC 
#
#######################################################################
#
# If this CIF has been generated from an entry in the Cambridge 
# Structural Database, then it will include bibliographic, chemical, 
# crystal, experimental, refinement or atomic coordinate data resulting 
# from the CCDC's data processing and validation procedures.
#
#######################################################################

data_MUBNON
_chemical_formula_moiety         'C25 H20 N2 O3'
_chemical_name_systematic        'bis(4-(3-aminophenoxy)phenyl) ketone'
_symmetry_cell_setting           triclinic
_symmetry_space_group_name_H-M   'P -1'
_symmetry_Int_Tables_number      2
_space_group_name_Hall           '-P 1'
loop_
_symmetry_equiv_pos_site_id
_symmetry_equiv_pos_as_xyz
1 x,y,z
2 -x,-y,-z
_cell_length_a                   7.370(3)
_cell_length_b                   11.856(3)
_cell_length_c                   12.319(3)
_cell_angle_alpha                101.79(4)
_cell_angle_beta                 95.10(4)
_cell_angle_gamma                107.86(3)
_cell_volume                     989.572
_exptl_crystal_colour            red
_exptl_crystal_description       block
_chemical_melting_point          '411-413 K'
_cell_formula_units_Z            2
_exptl_crystal_recrystallization_method toluene
loop_
_atom_site_label
_atom_site_type_symbol
_atom_site_fract_x
_atom_site_fract_y
_atom_site_fract_z
O1 O 0.4068(2) 0.59493(16) 0.42259(15)
O2 O 1.2554(2) 0.95837(18) 0.55618(15)
O3 O 0.0557(2) 0.57862(15) 0.86702(15)
N1 N 1.7663(5) 1.3024(3) 0.7708(4)
H1 H 1.729(5) 1.346(3) 0.725(3)
H2 H 1.840(5) 1.333(3) 0.828(3)
N2 N -0.3694(6) 0.6550(4) 1.1145(3)
H3 H -0.378(6) 0.581(4) 1.131(3)
H4 H -0.399(8) 0.712(5) 1.153(5)
C1 C 1.6441(3) 1.1849(2) 0.7619(2)
C2 C 1.6600(4) 1.1216(3) 0.8431(2)
H5 H 1.7550 1.1581 0.9064
C3 C 1.5354(4) 1.0050(3) 0.8303(2)
H6 H 1.5464 0.9638 0.8859
C4 C 1.3949(3) 0.9477(2) 0.7371(2)
H7 H 1.3115 0.8685 0.7286
C5 C 1.3819(3) 1.0112(2) 0.6574(2)
C6 C 1.5030(3) 1.1280(2) 0.6682(2)
H8 H 1.4901 1.1689 0.6126
C7 C 1.0692(3) 0.8848(2) 0.5542(2)
C8 C 0.9903(3) 0.7910(2) 0.4600(2)
H9 H 1.0622 0.7789 0.4031
C9 C 0.8035(3) 0.7150(2) 0.4507(2)
H10 H 0.7494 0.6512 0.3869
C10 C 0.6938(3) 0.73176(19) 0.53531(19)
C11 C 0.7750(3) 0.8300(2) 0.6275(2)
H11 H 0.7023 0.8444 0.6834
C12 C 0.9628(3) 0.9070(2) 0.6377(2)
H12 H 1.0165 0.9728 0.7000
C13 C 0.4904(3) 0.6501(2) 0.5182(2)
C14 C 0.3844(3) 0.63592(19) 0.6137(2)
C15 C 0.1849(3) 0.61103(19) 0.5934(2)
H13 H 0.1256 0.6057 0.5218
C16 C 0.0742(3) 0.5943(2) 0.6765(2)
H14 H -0.0585 0.5779 0.6615
C17 C 0.1629(3) 0.6021(2) 0.7822(2)
C18 C 0.3584(3) 0.6242(2) 0.8042(2)
H15 H 0.4165 0.6282 0.8757
C19 C 0.4680(3) 0.6404(2) 0.7205(2)
H16 H 0.6000 0.6546 0.7356
C20 C -0.0391(3) 0.6582(2) 0.9107(2)
C21 C -0.1542(3) 0.6200(2) 0.9866(2)
H17 H -0.1692 0.5443 1.0020
C22 C -0.2484(4) 0.6946(3) 1.0405(2)
C23 C -0.2239(4) 0.8067(3) 1.0155(3)
H18 H -0.2847 0.8584 1.0514
C24 C -0.1107(4) 0.8412(2) 0.9382(2)
H19 H -0.0982 0.9157 0.9210
C25 C -0.0142(3) 0.7687(2) 0.8849(2)
H20 H 0.0647 0.7937 0.8334
loop_
_geom_bond_atom_site_label_1
_geom_bond_atom_site_label_2
_geom_bond_site_symmetry_1
_geom_bond_site_symmetry_2
O1 C13 1_555 1_555
O2 C5 1_555 1_555
O3 C17 1_555 1_555
N1 H1 1_555 1_555
H2 N1 1_555 1_555
N2 H3 1_555 1_555
H4 N2 1_555 1_555
C1 N1 1_555 1_555
C2 C1 1_555 1_555
H5 C2 1_555 1_555
C3 C2 1_555 1_555
H6 C3 1_555 1_555
C4 C3 1_555 1_555
H7 C4 1_555 1_555
C5 C4 1_555 1_555
C6 C1 1_555 1_555
H8 C6 1_555 1_555
C7 O2 1_555 1_555
C8 C7 1_555 1_555
H9 C8 1_555 1_555
C9 C8 1_555 1_555
H10 C9 1_555 1_555
C10 C9 1_555 1_555
C11 C10 1_555 1_555
H11 C11 1_555 1_555
C12 C7 1_555 1_555
H12 C12 1_555 1_555
C13 C10 1_555 1_555
C14 C13 1_555 1_555
C15 C14 1_555 1_555
H13 C15 1_555 1_555
C16 C15 1_555 1_555
H14 C16 1_555 1_555
C17 C16 1_555 1_555
C18 C17 1_555 1_555
H15 C18 1_555 1_555
C19 C14 1_555 1_555
H16 C19 1_555 1_555
C20 O3 1_555 1_555
C21 C20 1_555 1_555
H17 C21 1_555 1_555
C22 N2 1_555 1_555
C23 C22 1_555 1_555
H18 C23 1_555 1_555
C24 C23 1_555 1_555
H19 C24 1_555 1_555
C25 C20 1_555 1_555
H20 C25 1_555 1_555
C5 C6 1_555 1_555
C11 C12 1_555 1_555
C18 C19 1_555 1_555
C21 C22 1_555 1_555
C24 C25 1_555 1_555

#END
