
#######################################################################
#
#                 Cambridge Crystallographic Data Centre
#                                CCDC 
#
#######################################################################
#
# If this CIF has been generated from an entry in the Cambridge 
# Structural Database, then it will include bibliographic, chemical, 
# crystal, experimental, refinement or atomic coordinate data resulting 
# from the CCDC's data processing and validation procedures.
#
#######################################################################

data_MUBPAC
_chemical_formula_moiety         'C38 H32 O4 Si4'
_chemical_name_systematic        
4',8'-dimethyl-4',8'-diphenyldispiro[dibenzo[b,d]silole-5,2'-[1,3,5,7,2,4,6,8]tetroxatetrasilocane-6',5''-dibenzo[b,d]silole]
_symmetry_cell_setting           triclinic
_symmetry_space_group_name_H-M   'P -1'
_symmetry_Int_Tables_number      2
_space_group_name_Hall           '-P 1'
loop_
_symmetry_equiv_pos_site_id
_symmetry_equiv_pos_as_xyz
1 x,y,z
2 -x,-y,-z
_cell_length_a                   8.677(3)
_cell_length_b                   8.727(4)
_cell_length_c                   10.940(6)
_cell_angle_alpha                89.76(2)
_cell_angle_beta                 81.67(3)
_cell_angle_gamma                77.835(14)
_cell_volume                     800.979
_exptl_crystal_colour            colorless
_exptl_crystal_description       block
_cell_formula_units_Z            1
loop_
_atom_site_label
_atom_site_type_symbol
_atom_site_fract_x
_atom_site_fract_y
_atom_site_fract_z
Si1 Si 0.46161(7) -0.09483(7) 0.81672(5)
Si2 Si 0.41738(7) 0.23660(7) 0.93994(5)
O1 O 0.38891(18) 0.08320(17) 0.86857(14)
O2 O 0.44000(18) 0.18938(18) 1.08130(13)
C1 C 0.5847(3) -0.1207(3) 0.6614(2)
C2 C 0.7281(3) -0.0813(3) 0.6143(2)
H1 H 0.7804 -0.0286 0.6660
C3 C 0.7963(3) -0.1182(3) 0.4917(2)
H2 H 0.8939 -0.0900 0.4597
C4 C 0.7204(3) -0.1964(3) 0.4171(2)
H3 H 0.7669 -0.2221 0.3337
C5 C 0.5778(3) -0.2378(3) 0.4620(2)
H4 H 0.5274 -0.2919 0.4098
C6 C 0.5086(3) -0.2002(3) 0.5836(2)
C7 C 0.3533(3) -0.2334(3) 0.6410(2)
C8 C 0.2554(3) -0.3031(3) 0.5787(2)
H5 H 0.2893 -0.3383 0.4952
C9 C 0.1094(3) -0.3207(3) 0.6385(2)
H6 H 0.0430 -0.3679 0.5955
C10 C 0.0578(3) -0.2707(3) 0.7603(2)
H7 H -0.0438 -0.2821 0.8002
C11 C 0.1562(3) -0.2035(3) 0.8241(2)
H8 H 0.1219 -0.1702 0.9080
C12 C 0.3041(3) -0.1849(3) 0.7658(2)
C13 C 0.6034(3) 0.2890(3) 0.8615(2)
C14 C 0.6019(3) 0.4283(3) 0.7984(2)
H9 H 0.5033 0.4996 0.7956
C15 C 0.7424(3) 0.4647(3) 0.7395(2)
H10 H 0.7393 0.5600 0.6968
C16 C 0.8859(3) 0.3622(3) 0.7431(2)
H11 H 0.9818 0.3875 0.7032
C17 C 0.8913(3) 0.2227(3) 0.8048(2)
H12 H 0.9904 0.1519 0.8069
C18 C 0.7512(3) 0.1872(3) 0.8633(2)
H13 H 0.7554 0.0915 0.9056
C19 C 0.2399(3) 0.3948(3) 0.9393(2)
H14 H 0.2314 0.4272 0.8542
H15 H 0.2492 0.4843 0.9893
H16 H 0.1445 0.3569 0.9739
Si1A Si 0.53839(7) 0.09483(7) 1.18328(5)
Si2A Si 0.58262(7) -0.23660(7) 1.06006(5)
O1A O 0.61109(18) -0.08320(17) 1.13143(14)
O2A O 0.56000(18) -0.18938(18) 0.91870(13)
C1A C 0.4153(3) 0.1207(3) 1.3386(2)
C2A C 0.2719(3) 0.0813(3) 1.3857(2)
H1A H 0.2196 0.0286 1.3340
C3A C 0.2037(3) 0.1182(3) 1.5083(2)
H2A H 0.1061 0.0900 1.5403
C4A C 0.2796(3) 0.1964(3) 1.5829(2)
H3A H 0.2331 0.2221 1.6663
C5A C 0.4222(3) 0.2378(3) 1.5380(2)
H4A H 0.4726 0.2919 1.5902
C6A C 0.4914(3) 0.2002(3) 1.4164(2)
C7A C 0.6467(3) 0.2334(3) 1.3590(2)
C8A C 0.7446(3) 0.3031(3) 1.4213(2)
H5A H 0.7107 0.3383 1.5048
C9A C 0.8906(3) 0.3207(3) 1.3615(2)
H6A H 0.9570 0.3679 1.4045
C10A C 0.9422(3) 0.2707(3) 1.2397(2)
H7A H 1.0438 0.2821 1.1998
C11A C 0.8438(3) 0.2035(3) 1.1759(2)
H8A H 0.8781 0.1702 1.0920
C12A C 0.6959(3) 0.1849(3) 1.2342(2)
C13A C 0.3966(3) -0.2890(3) 1.1385(2)
C14A C 0.3981(3) -0.4283(3) 1.2016(2)
H9A H 0.4967 -0.4996 1.2044
C15A C 0.2576(3) -0.4647(3) 1.2605(2)
H10A H 0.2607 -0.5600 1.3032
C16A C 0.1141(3) -0.3622(3) 1.2569(2)
H11A H 0.0182 -0.3875 1.2968
C17A C 0.1087(3) -0.2227(3) 1.1952(2)
H12A H 0.0096 -0.1519 1.1931
C18A C 0.2488(3) -0.1872(3) 1.1367(2)
H13A H 0.2446 -0.0915 1.0944
C19A C 0.7601(3) -0.3948(3) 1.0607(2)
H14A H 0.7686 -0.4272 1.1458
H15A H 0.7508 -0.4843 1.0107
H16A H 0.8555 -0.3569 1.0261
loop_
_geom_bond_atom_site_label_1
_geom_bond_atom_site_label_2
_geom_bond_site_symmetry_1
_geom_bond_site_symmetry_2
Si1 O1 1_555 1_555
Si2 O1 1_555 1_555
O2 Si2 1_555 1_555
C1 Si1 1_555 1_555
C2 C1 1_555 1_555
H1 C2 1_555 1_555
C3 C2 1_555 1_555
H2 C3 1_555 1_555
C4 C3 1_555 1_555
H3 C4 1_555 1_555
C5 C4 1_555 1_555
H4 C5 1_555 1_555
C6 C1 1_555 1_555
C7 C6 1_555 1_555
C8 C7 1_555 1_555
H5 C8 1_555 1_555
C9 C8 1_555 1_555
H6 C9 1_555 1_555
C10 C9 1_555 1_555
H7 C10 1_555 1_555
C11 C10 1_555 1_555
H8 C11 1_555 1_555
C12 Si1 1_555 1_555
C13 Si2 1_555 1_555
C14 C13 1_555 1_555
H9 C14 1_555 1_555
C15 C14 1_555 1_555
H10 C15 1_555 1_555
C16 C15 1_555 1_555
H11 C16 1_555 1_555
C17 C16 1_555 1_555
H12 C17 1_555 1_555
C18 C13 1_555 1_555
H13 C18 1_555 1_555
C19 Si2 1_555 1_555
H14 C19 1_555 1_555
H15 C19 1_555 1_555
H16 C19 1_555 1_555
Si1A O2 1_555 1_555
Si2A O1A 1_555 1_555
O1A Si1A 1_555 1_555
O2A Si1 1_555 1_555
C1A Si1A 1_555 1_555
C2A C1A 1_555 1_555
H1A C2A 1_555 1_555
C3A C2A 1_555 1_555
H2A C3A 1_555 1_555
C4A C3A 1_555 1_555
H3A C4A 1_555 1_555
C5A C4A 1_555 1_555
H4A C5A 1_555 1_555
C6A C1A 1_555 1_555
C7A C6A 1_555 1_555
C8A C7A 1_555 1_555
H5A C8A 1_555 1_555
C9A C8A 1_555 1_555
H6A C9A 1_555 1_555
C10A C9A 1_555 1_555
H7A C10A 1_555 1_555
C11A C10A 1_555 1_555
H8A C11A 1_555 1_555
C12A Si1A 1_555 1_555
C13A Si2A 1_555 1_555
C14A C13A 1_555 1_555
H9A C14A 1_555 1_555
C15A C14A 1_555 1_555
H10A C15A 1_555 1_555
C16A C15A 1_555 1_555
H11A C16A 1_555 1_555
C17A C16A 1_555 1_555
H12A C17A 1_555 1_555
C18A C13A 1_555 1_555
H13A C18A 1_555 1_555
C19A Si2A 1_555 1_555
H14A C19A 1_555 1_555
H15A C19A 1_555 1_555
H16A C19A 1_555 1_555
C5 C6 1_555 1_555
C7 C12 1_555 1_555
C11 C12 1_555 1_555
C17 C18 1_555 1_555
Si2A O2A 1_555 1_555
C5A C6A 1_555 1_555
C7A C12A 1_555 1_555
C11A C12A 1_555 1_555
C17A C18A 1_555 1_555

#END
