
#######################################################################
#
#                 Cambridge Crystallographic Data Centre
#                                CCDC 
#
#######################################################################
#
# If this CIF has been generated from an entry in the Cambridge 
# Structural Database, then it will include bibliographic, chemical, 
# crystal, experimental, refinement or atomic coordinate data resulting 
# from the CCDC's data processing and validation procedures.
#
#######################################################################

data_MUBPOP
_chemical_formula_moiety         'C11 H10 N2 O4,H2 O1'
_chemical_name_systematic        
'3-Carboxymethyl-1,3-benzimidazolium-1-acetate monohydrate'
_symmetry_cell_setting           monoclinic
_symmetry_space_group_name_H-M   'C 2/c'
_symmetry_Int_Tables_number      15
_space_group_name_Hall           '-C 2yn'
loop_
_symmetry_equiv_pos_site_id
_symmetry_equiv_pos_as_xyz
1 x,y,z
2 -x,y,1/2-z
3 1/2+x,1/2+y,z
4 1/2-x,1/2+y,1/2-z
5 -x,-y,-z
6 x,-y,1/2+z
7 1/2-x,1/2-y,-z
8 1/2+x,1/2-y,1/2+z
_cell_length_a                   16.0731(15)
_cell_length_b                   8.1619(11)
_cell_length_c                   18.8678(17)
_cell_angle_alpha                90
_cell_angle_beta                 113.3680(10)
_cell_angle_gamma                90
_cell_volume                     2272.18
_exptl_crystal_colour            colorless
_exptl_crystal_description       plate
_cell_formula_units_Z            8
_exptl_crystal_recrystallization_method water
loop_
_atom_site_label
_atom_site_type_symbol
_atom_site_fract_x
_atom_site_fract_y
_atom_site_fract_z
O1 O 0.64155(9) 0.6138(2) 0.28621(9)
O2 O 0.75932(9) 0.5077(2) 0.38158(10)
O3 O 1.16479(10) 0.80460(19) 0.41440(9)
H1 H 1.1979(16) 0.867(3) 0.3937(14)
O4 O 1.20178(11) 0.6063(2) 0.35149(10)
N1 N 0.87906(10) 0.7126(2) 0.36403(9)
N2 N 1.01818(10) 0.62393(18) 0.40836(9)
C1 C 0.72276(12) 0.6073(3) 0.32812(11)
C2 C 0.78365(12) 0.7326(3) 0.31305(11)
H4 H 0.7772 0.7230 0.2599
H5 H 0.7641 0.8417 0.3199
C3 C 1.16099(12) 0.6581(3) 0.38815(11)
C4 C 1.10076(13) 0.5451(3) 0.41022(13)
H6 H 1.0840 0.4524 0.3752
H7 H 1.1348 0.5034 0.4618
C5 C 0.94014(13) 0.6308(2) 0.34744(11)
H8 H 0.9297 0.5845 0.2996
C6 C 1.00799(12) 0.7058(2) 0.46895(11)
C7 C 0.91917(12) 0.7614(2) 0.44087(10)
C8 C 0.88646(14) 0.8494(3) 0.48694(12)
H9 H 0.8271 0.8877 0.4683
C9 C 0.94620(17) 0.8773(3) 0.56172(13)
H10 H 0.9265 0.9350 0.5947
C10 C 1.03527(16) 0.8218(3) 0.58943(12)
H11 H 1.0736 0.8443 0.6403
C11 C 1.06811(14) 0.7353(3) 0.54415(11)
H12 H 1.1277 0.6981 0.5628
O5 O 0.5000 0.8452(3) 0.2500
H2 H 0.5476(18) 0.782(4) 0.2614(17)
H2A H 0.4524(18) 0.782(4) 0.2386(17)
O6 O 0.5000 0.3611(3) 0.2500
H3 H 0.544(2) 0.427(4) 0.2634(19)
H3A H 0.456(2) 0.427(4) 0.2366(19)
loop_
_geom_bond_atom_site_label_1
_geom_bond_atom_site_label_2
_geom_bond_site_symmetry_1
_geom_bond_site_symmetry_2
O1 C1 1_555 1_555
O2 C1 1_555 1_555
O3 H1 1_555 1_555
O4 C3 1_555 1_555
O5 H2 1_555 1_555
O6 H3 1_555 1_555
N1 C2 1_555 1_555
N2 C4 1_555 1_555
C1 C2 1_555 1_555
C2 H4 1_555 1_555
H5 C2 1_555 1_555
C3 O3 1_555 1_555
C4 C3 1_555 1_555
H6 C4 1_555 1_555
H7 C4 1_555 1_555
C5 N1 1_555 1_555
H8 C5 1_555 1_555
C6 N2 1_555 1_555
C7 N1 1_555 1_555
C8 C7 1_555 1_555
H9 C8 1_555 1_555
C9 C8 1_555 1_555
H10 C9 1_555 1_555
C10 C9 1_555 1_555
H11 C10 1_555 1_555
C11 C6 1_555 1_555
H12 C11 1_555 1_555
H2A O5 1_555 1_555
H3A O6 1_555 1_555
N2 C5 1_555 1_555
C6 C7 1_555 1_555
C10 C11 1_555 1_555

#END
