
#######################################################################
#
#                 Cambridge Crystallographic Data Centre
#                                CCDC 
#
#######################################################################
#
# If this CIF has been generated from an entry in the Cambridge 
# Structural Database, then it will include bibliographic, chemical, 
# crystal, experimental, refinement or atomic coordinate data resulting 
# from the CCDC's data processing and validation procedures.
#
#######################################################################

data_MUBQAC
_chemical_name_common            
2,2'-[1,1'-(Decane-1,10-diyldioxydinitrilo)diethylidyne]diphenol
_chemical_formula_moiety         'C26 H36 N2 O4'
_chemical_name_systematic        
2,2'-(4,15-Dioxa-3,16-diazaoctadeca-2,16-diene-2,17-diyl)diphenol
_symmetry_cell_setting           monoclinic
_symmetry_space_group_name_H-M   'C 2/c'
_symmetry_Int_Tables_number      15
_space_group_name_Hall           '-C 2yn'
loop_
_symmetry_equiv_pos_site_id
_symmetry_equiv_pos_as_xyz
1 x,y,z
2 -x,y,1/2-z
3 1/2+x,1/2+y,z
4 1/2-x,1/2+y,1/2-z
5 -x,-y,-z
6 x,-y,1/2+z
7 1/2-x,1/2-y,-z
8 1/2+x,1/2-y,1/2+z
_cell_length_a                   13.0031(16)
_cell_length_b                   4.6922(6)
_cell_length_c                   40.654(3)
_cell_angle_alpha                90
_cell_angle_beta                 93.109(2)
_cell_angle_gamma                90
_cell_volume                     2476.78
_exptl_crystal_colour            colorless
_exptl_crystal_description       block
_chemical_melting_point          '343-344 K'
_cell_formula_units_Z            4
_exptl_crystal_recrystallization_method 'diethyl ether'
loop_
_atom_site_label
_atom_site_type_symbol
_atom_site_fract_x
_atom_site_fract_y
_atom_site_fract_z
O1 O 0.6948(2) 0.6651(8) 0.60162(7)
O2 O 0.5126(2) 0.3324(9) 0.66379(8)
H1 H 0.5375 0.4228 0.6489
N1 N 0.6559(2) 0.5081(8) 0.62776(8)
C1 C 0.6125(3) 0.8304(11) 0.58630(10)
H2 H 0.6413 0.9723 0.5721
H3 H 0.5769 0.9302 0.6032
C2 C 0.5353(3) 0.6509(11) 0.56611(10)
H4 H 0.5718 0.5358 0.5507
H5 H 0.5010 0.5226 0.5807
C3 C 0.4551(3) 0.8281(11) 0.54718(10)
H6 H 0.4895 0.9470 0.5316
H7 H 0.4227 0.9536 0.5625
C4 C 0.3718(3) 0.6584(11) 0.52849(10)
H8 H 0.3377 0.5384 0.5440
H9 H 0.4040 0.5342 0.5130
C5 C 0.2911(3) 0.8377(11) 0.50978(10)
H10 H 0.3253 0.9613 0.4947
H11 H 0.2574 0.9581 0.5253
C6 C 0.8336(3) 0.3275(14) 0.63241(13)
H12 H 0.8384 0.1795 0.6163
H13 H 0.8786 0.2842 0.6513
H14 H 0.8535 0.5060 0.6231
C7 C 0.7246(3) 0.3474(10) 0.64272(9)
C8 C 0.6903(3) 0.1753(10) 0.67002(9)
C9 C 0.5870(3) 0.1717(11) 0.67948(11)
C10 C 0.5576(4) 0.0034(13) 0.70503(12)
H15 H 0.4895 0.0057 0.7109
C11 C 0.6286(4) -0.1700(13) 0.72215(12)
H16 H 0.6078 -0.2850 0.7392
C12 C 0.7295(4) -0.1711(12) 0.71384(12)
H17 H 0.7773 -0.2859 0.7254
C13 C 0.7603(3) -0.0015(11) 0.68828(10)
H18 H 0.8290 -0.0041 0.6830
O1F O -0.1948(2) 0.8349(8) 0.39838(7)
O2F O -0.0126(2) 1.1676(9) 0.33621(8)
H1F H -0.0375 1.0772 0.3511
N1F N -0.1559(2) 0.9919(8) 0.37224(8)
C1F C -0.1125(3) 0.6696(11) 0.41370(10)
H2F H -0.1413 0.5277 0.4279
H3F H -0.0769 0.5698 0.3968
C2F C -0.0353(3) 0.8491(11) 0.43389(10)
H4F H -0.0718 0.9642 0.4493
H5F H -0.0010 0.9774 0.4193
C3F C 0.0449(3) 0.6719(11) 0.45282(10)
H6F H 0.0105 0.5530 0.4684
H7F H 0.0773 0.5464 0.4375
C4F C 0.1282(3) 0.8416(11) 0.47151(10)
H8F H 0.1623 0.9616 0.4560
H9F H 0.0960 0.9658 0.4870
C5F C 0.2089(3) 0.6623(11) 0.49022(10)
H10F H 0.1747 0.5387 0.5053
H11F H 0.2426 0.5419 0.4747
C6F C -0.3336(3) 1.1725(14) 0.36759(13)
H12F H -0.3384 1.3205 0.3837
H13F H -0.3786 1.2158 0.3487
H14F H -0.3535 0.9940 0.3769
C7F C -0.2246(3) 1.1526(10) 0.35728(9)
C8F C -0.1903(3) 1.3247(10) 0.32998(9)
C9F C -0.0870(3) 1.3283(11) 0.32052(11)
C10F C -0.0576(4) 1.4966(13) 0.29497(12)
H15F H 0.0105 1.4943 0.2891
C11F C -0.1286(4) 1.6700(13) 0.27785(12)
H16F H -0.1078 1.7850 0.2608
C12F C -0.2295(4) 1.6711(12) 0.28616(12)
H17F H -0.2773 1.7859 0.2746
C13F C -0.2603(3) 1.5015(11) 0.31172(10)
H18F H -0.3290 1.5041 0.3170
loop_
_geom_bond_atom_site_label_1
_geom_bond_atom_site_label_2
_geom_bond_site_symmetry_1
_geom_bond_site_symmetry_2
O1 N1 1_555 1_555
O2 H1 1_555 1_555
N1 C7 1_555 1_555
C1 O1 1_555 1_555
H2 C1 1_555 1_555
H3 C1 1_555 1_555
C2 C1 1_555 1_555
H4 C2 1_555 1_555
H5 C2 1_555 1_555
C3 C2 1_555 1_555
H6 C3 1_555 1_555
H7 C3 1_555 1_555
C4 C3 1_555 1_555
H8 C4 1_555 1_555
H9 C4 1_555 1_555
C5 C4 1_555 1_555
H10 C5 1_555 1_555
H11 C5 1_555 1_555
C6 H12 1_555 1_555
H13 C6 1_555 1_555
H14 C6 1_555 1_555
C7 C6 1_555 1_555
C8 C7 1_555 1_555
C9 O2 1_555 1_555
C10 C9 1_555 1_555
H15 C10 1_555 1_555
C11 C10 1_555 1_555
H16 C11 1_555 1_555
C12 C11 1_555 1_555
H17 C12 1_555 1_555
C13 C8 1_555 1_555
H18 C13 1_555 1_555
O1F N1F 1_555 1_555
O2F H1F 1_555 1_555
N1F C7F 1_555 1_555
C1F O1F 1_555 1_555
H2F C1F 1_555 1_555
H3F C1F 1_555 1_555
C2F C1F 1_555 1_555
H4F C2F 1_555 1_555
H5F C2F 1_555 1_555
C3F C2F 1_555 1_555
H6F C3F 1_555 1_555
H7F C3F 1_555 1_555
C4F C3F 1_555 1_555
H8F C4F 1_555 1_555
H9F C4F 1_555 1_555
C5F C5 1_555 1_555
H10F C5F 1_555 1_555
H11F C5F 1_555 1_555
C6F H12F 1_555 1_555
H13F C6F 1_555 1_555
H14F C6F 1_555 1_555
C7F C6F 1_555 1_555
C8F C7F 1_555 1_555
C9F O2F 1_555 1_555
C10F C9F 1_555 1_555
H15F C10F 1_555 1_555
C11F C10F 1_555 1_555
H16F C11F 1_555 1_555
C12F C11F 1_555 1_555
H17F C12F 1_555 1_555
C13F C8F 1_555 1_555
H18F C13F 1_555 1_555
C8 C9 1_555 1_555
C12 C13 1_555 1_555
C4F C5F 1_555 1_555
C8F C9F 1_555 1_555
C12F C13F 1_555 1_555

#END
