
#######################################################################
#
#                 Cambridge Crystallographic Data Centre
#                                CCDC 
#
#######################################################################
#
# If this CIF has been generated from an entry in the Cambridge 
# Structural Database, then it will include bibliographic, chemical, 
# crystal, experimental, refinement or atomic coordinate data resulting 
# from the CCDC's data processing and validation procedures.
#
#######################################################################

data_MUBQOQ
_chemical_name_common            N-(4-Hydroxyphenethyl)acetamide
_chemical_formula_moiety         'C10 H13 N1 O2'
_chemical_name_systematic        N-(2-(4-Hydroxyphenyl)ethyl)acetamide
_chemical_properties_biological  'displays various biological activities'
_symmetry_cell_setting           monoclinic
_symmetry_space_group_name_H-M   'P 21/c'
_symmetry_Int_Tables_number      14
_space_group_name_Hall           '-P 2ybc'
loop_
_symmetry_equiv_pos_site_id
_symmetry_equiv_pos_as_xyz
1 x,y,z
2 -x,1/2+y,1/2-z
3 -x,-y,-z
4 x,1/2-y,1/2+z
_cell_length_a                   9.9206(13)
_cell_length_b                   8.7861(11)
_cell_length_c                   11.4943(16)
_cell_angle_alpha                90
_cell_angle_beta                 102.9980(10)
_cell_angle_gamma                90
_cell_volume                     976.212
_exptl_crystal_colour            colorless
_exptl_crystal_description       block
_cell_formula_units_Z            4
_exptl_crystal_recrystallization_method methanol/water
loop_
_atom_site_label
_atom_site_type_symbol
_atom_site_fract_x
_atom_site_fract_y
_atom_site_fract_z
N1 N 0.15094(14) 0.38049(16) 0.35383(14)
H1 H 0.1936 0.4303 0.3086
O1 O 0.72697(12) 0.10975(15) 0.27285(11)
H2 H 0.7957 0.1586 0.3049
O2 O -0.04072(13) 0.25522(17) 0.36772(12)
C1 C 0.40477(16) 0.18477(19) 0.44391(14)
C2 C 0.39022(17) 0.09127(19) 0.34533(15)
H3 H 0.3057 0.0435 0.3162
C3 C 0.49703(18) 0.0664(2) 0.28865(16)
H4 H 0.4843 0.0024 0.2226
C4 C 0.62273(16) 0.13710(18) 0.33044(14)
C5 C 0.64007(17) 0.23153(18) 0.42830(14)
H5 H 0.7244 0.2800 0.4568
C6 C 0.53229(17) 0.25403(19) 0.48397(15)
H6 H 0.5455 0.3175 0.5503
C7 C 0.28890(18) 0.2102(2) 0.50690(16)
H7 H 0.3257 0.2034 0.5924
H8 H 0.2210 0.1299 0.4845
C8 C 0.21757(18) 0.3629(2) 0.47851(17)
H9 H 0.1488 0.3745 0.5260
H10 H 0.2854 0.4434 0.5012
C9 C 0.02736(18) 0.3236(2) 0.30588(17)
C10 C -0.0253(2) 0.3440(3) 0.17442(18)
H11 H 0.0416 0.3994 0.1425
H12 H -0.1108 0.3995 0.1597
H13 H -0.0404 0.2461 0.1366
H14? H -0.1146 0.2973 0.1501
H15? H 0.0377 0.2972 0.1329
H16? H -0.0326 0.4506 0.1559
loop_
_geom_bond_atom_site_label_1
_geom_bond_atom_site_label_2
_geom_bond_site_symmetry_1
_geom_bond_site_symmetry_2
N1 H1 1_555 1_555
O1 H2 1_555 1_555
O2 C9 1_555 1_555
C1 C2 1_555 1_555
C2 H3 1_555 1_555
C3 C2 1_555 1_555
H4 C3 1_555 1_555
C4 O1 1_555 1_555
C5 C4 1_555 1_555
H5 C5 1_555 1_555
C6 C1 1_555 1_555
H6 C6 1_555 1_555
C7 C1 1_555 1_555
H7 C7 1_555 1_555
H8 C7 1_555 1_555
C8 N1 1_555 1_555
H9 C8 1_555 1_555
H10 C8 1_555 1_555
C9 N1 1_555 1_555
C10 C9 1_555 1_555
H11 C10 1_555 1_555
H12 C10 1_555 1_555
H13 C10 1_555 1_555
C3 C4 1_555 1_555
C5 C6 1_555 1_555
C7 C8 1_555 1_555

#END
