
#######################################################################
#
#                 Cambridge Crystallographic Data Centre
#                                CCDC 
#
#######################################################################
#
# If this CIF has been generated from an entry in the Cambridge 
# Structural Database, then it will include bibliographic, chemical, 
# crystal, experimental, refinement or atomic coordinate data resulting 
# from the CCDC's data processing and validation procedures.
#
#######################################################################

data_MUBRIL
_chemical_formula_moiety         'C11 H10 Cl1 N3 S1'
_chemical_name_systematic        
4-(4-Chlorophenyl)-6-(methylsulfanyl)pyrimidin-2-amine
_symmetry_cell_setting           orthorhombic
_symmetry_space_group_name_H-M   'P 21 21 21'
_symmetry_Int_Tables_number      19
_space_group_name_Hall           'P 2ac 2ab'
loop_
_symmetry_equiv_pos_site_id
_symmetry_equiv_pos_as_xyz
1 x,y,z
2 1/2-x,-y,1/2+z
3 -x,1/2+y,1/2-z
4 1/2+x,1/2-y,-z
_cell_length_a                   6.8148(11)
_cell_length_b                   10.6107(16)
_cell_length_c                   16.509(3)
_cell_angle_alpha                90
_cell_angle_beta                 90
_cell_angle_gamma                90
_cell_volume                     1193.76
_exptl_crystal_colour            yellow
_exptl_crystal_description       block
_cell_formula_units_Z            4
loop_
_atom_site_label
_atom_site_type_symbol
_atom_site_fract_x
_atom_site_fract_y
_atom_site_fract_z
Cl1 Cl 1.15208(14) 1.01534(10) 0.62970(5)
S1 S -0.01688(13) 0.85410(8) 0.91781(5)
N1 N 0.4426(3) 1.1541(2) 0.89640(13)
N2 N 0.1442(4) 1.0763(2) 0.95722(13)
N3 N 0.2824(4) 1.2627(2) 0.99649(16)
H1 H 0.3713 1.3201 0.9931
H2 H 0.1880 1.2708 1.0307
C1 C 0.9466(5) 1.0272(3) 0.69138(17)
C2 C 0.8052(5) 0.9354(3) 0.68825(18)
H3 H 0.8186 0.8682 0.6526
C3 C 0.6427(5) 0.9430(3) 0.73817(19)
H4 H 0.5474 0.8803 0.7359
C4 C 0.6197(4) 1.0437(3) 0.79209(16)
C5 C 0.7638(5) 1.1359(3) 0.79272(17)
H5 H 0.7502 1.2044 0.8274
C6 C 0.9275(5) 1.1292(3) 0.74324(18)
H6 H 1.0228 1.1919 0.7448
C7 C 0.4499(4) 1.0503(3) 0.84876(16)
C8 C 0.3107(5) 0.9576(3) 0.85466(18)
H7 H 0.3171 0.8859 0.8224
C9 C 0.1589(4) 0.9737(3) 0.91043(17)
C10 C 0.2911(4) 1.1611(3) 0.94864(16)
C11 C -0.1656(6) 0.9020(4) 1.0015(2)
H8 H -0.2674 0.8410 1.0102
H9 H -0.2235 0.9826 0.9900
H10 H -0.0858 0.9083 1.0493
loop_
_geom_bond_atom_site_label_1
_geom_bond_atom_site_label_2
_geom_bond_site_symmetry_1
_geom_bond_site_symmetry_2
Cl1 C1 1_555 1_555
S1 C9 1_555 1_555
N1 C7 1_555 1_555
N2 C9 1_555 1_555
N3 H1 1_555 1_555
H2 N3 1_555 1_555
C1 C2 1_555 1_555
C2 H3 1_555 1_555
C3 C2 1_555 1_555
H4 C3 1_555 1_555
C4 C3 1_555 1_555
C5 C4 1_555 1_555
H5 C5 1_555 1_555
C6 C1 1_555 1_555
H6 C6 1_555 1_555
C7 C4 1_555 1_555
C8 C7 1_555 1_555
H7 C8 1_555 1_555
C9 C8 1_555 1_555
C10 N1 1_555 1_555
C11 S1 1_555 1_555
H8 C11 1_555 1_555
H9 C11 1_555 1_555
H10 C11 1_555 1_555
N2 C10 1_555 1_555
N3 C10 1_555 1_555
C5 C6 1_555 1_555

#END
