
#######################################################################
#
#                 Cambridge Crystallographic Data Centre
#                                CCDC 
#
#######################################################################
#
# If this CIF has been generated from an entry in the Cambridge 
# Structural Database, then it will include bibliographic, chemical, 
# crystal, experimental, refinement or atomic coordinate data resulting 
# from the CCDC's data processing and validation procedures.
#
#######################################################################

data_MUBSIM
_chemical_formula_moiety         'C19 H15 N1 O1 S1'
_chemical_name_systematic        '10-Benzyl-10H-phenothiazine 5-oxide'
_symmetry_cell_setting           monoclinic
_symmetry_space_group_name_H-M   'P 21/n'
_symmetry_Int_Tables_number      14
_space_group_name_Hall           '-P 2yn'
loop_
_symmetry_equiv_pos_site_id
_symmetry_equiv_pos_as_xyz
1 x,y,z
2 1/2-x,1/2+y,1/2-z
3 -x,-y,-z
4 1/2+x,1/2-y,1/2+z
_cell_length_a                   6.2819(4)
_cell_length_b                   11.9259(8)
_cell_length_c                   20.3220(14)
_cell_angle_alpha                90
_cell_angle_beta                 94.6140(10)
_cell_angle_gamma                90
_cell_volume                     1517.54
_exptl_crystal_colour            yellow
_exptl_crystal_description       block
_cell_formula_units_Z            4
_exptl_crystal_recrystallization_method ethanol
loop_
_atom_site_label
_atom_site_type_symbol
_atom_site_fract_x
_atom_site_fract_y
_atom_site_fract_z
N1 N 0.2291(2) 0.28879(12) 0.65659(8)
O1 O 0.2735(3) -0.01747(11) 0.65821(7)
S1 S 0.11841(9) 0.04344(4) 0.61145(3)
C1 C 0.0471(3) 0.24089(15) 0.67982(9)
C2 C -0.0702(3) 0.29706(17) 0.72559(10)
H1 H -0.0251 0.3672 0.7411
C3 C -0.2502(3) 0.2501(2) 0.74777(12)
H2 H -0.3216 0.2879 0.7794
C4 C -0.3281(4) 0.1485(2) 0.72440(12)
H3 H -0.4534 0.1190 0.7387
C5 C -0.2173(3) 0.09217(19) 0.67984(11)
H4 H -0.2685 0.0235 0.6636
C6 C -0.0284(3) 0.13530(16) 0.65792(10)
C7 C 0.3155(3) 0.25083(15) 0.59956(9)
C8 C 0.4588(3) 0.31695(18) 0.56709(11)
H5 H 0.4994 0.3865 0.5845
C9 C 0.5405(4) 0.2812(2) 0.51022(12)
H6 H 0.6383 0.3261 0.4904
C10 C 0.4801(4) 0.1798(2) 0.48169(12)
H7 H 0.5326 0.1571 0.4423
C11 C 0.3413(4) 0.11342(18) 0.51272(11)
H8 H 0.3003 0.0447 0.4942
C12 C 0.2605(3) 0.14667(16) 0.57131(10)
C13 C 0.3051(3) 0.39597(15) 0.68456(10)
H9 H 0.4581 0.4007 0.6815
H10 H 0.2798 0.3974 0.7310
C14 C 0.2012(3) 0.49772(15) 0.65152(9)
C15 C 0.0249(4) 0.49180(19) 0.60717(11)
H11 H -0.0329 0.4223 0.5951
C16 C -0.0678(4) 0.5888(2) 0.58025(13)
H12 H -0.1875 0.5843 0.5503
C17 C 0.0174(4) 0.6915(2) 0.59780(13)
H13 H -0.0449 0.7566 0.5799
C18 C 0.1927(4) 0.69818(18) 0.64129(12)
H14 H 0.2498 0.7679 0.6531
C19 C 0.2860(3) 0.60252(16) 0.66792(10)
H15 H 0.4072 0.6080 0.6972
loop_
_geom_bond_atom_site_label_1
_geom_bond_atom_site_label_2
_geom_bond_site_symmetry_1
_geom_bond_site_symmetry_2
N1 C1 1_555 1_555
O1 S1 1_555 1_555
S1 C6 1_555 1_555
C1 C2 1_555 1_555
C2 H1 1_555 1_555
C3 C2 1_555 1_555
H2 C3 1_555 1_555
C4 C3 1_555 1_555
H3 C4 1_555 1_555
C5 C4 1_555 1_555
H4 C5 1_555 1_555
C6 C1 1_555 1_555
C7 N1 1_555 1_555
C8 C7 1_555 1_555
H5 C8 1_555 1_555
C9 C8 1_555 1_555
H6 C9 1_555 1_555
C10 C9 1_555 1_555
H7 C10 1_555 1_555
C11 C10 1_555 1_555
H8 C11 1_555 1_555
C12 S1 1_555 1_555
C13 N1 1_555 1_555
H9 C13 1_555 1_555
H10 C13 1_555 1_555
C14 C13 1_555 1_555
C15 C14 1_555 1_555
H11 C15 1_555 1_555
C16 C15 1_555 1_555
H12 C16 1_555 1_555
C17 C16 1_555 1_555
H13 C17 1_555 1_555
C18 C17 1_555 1_555
H14 C18 1_555 1_555
C19 C14 1_555 1_555
H15 C19 1_555 1_555
C5 C6 1_555 1_555
C7 C12 1_555 1_555
C11 C12 1_555 1_555
C18 C19 1_555 1_555

#END
