
#######################################################################
#
#                 Cambridge Crystallographic Data Centre
#                                CCDC 
#
#######################################################################
#
# If this CIF has been generated from an entry in the Cambridge 
# Structural Database, then it will include bibliographic, chemical, 
# crystal, experimental, refinement or atomic coordinate data resulting 
# from the CCDC's data processing and validation procedures.
#
#######################################################################

data_MUBZIU
_chemical_formula_moiety         'C25 H21 Cl1 N2 O1,H2 O1'
_chemical_name_systematic        
'11-(2-chlorophenyl)-3-phenyl-2,3,4,5,10,11-hexahydro-1H-dibenzo[b,e][1,4]diazepin-1-one monohydrate'
_symmetry_cell_setting           monoclinic
_symmetry_space_group_name_H-M   'P 21/c'
_symmetry_Int_Tables_number      14
_space_group_name_Hall           '-P 2ybc'
loop_
_symmetry_equiv_pos_site_id
_symmetry_equiv_pos_as_xyz
1 x,y,z
2 -x,1/2+y,1/2-z
3 -x,-y,-z
4 x,1/2-y,1/2+z
_cell_length_a                   14.3192(17)
_cell_length_b                   7.9273(9)
_cell_length_c                   18.744(2)
_cell_angle_alpha                90
_cell_angle_beta                 97.831(2)
_cell_angle_gamma                90
_cell_volume                     2107.84
_cell_formula_units_Z            4
loop_
_atom_site_label
_atom_site_type_symbol
_atom_site_fract_x
_atom_site_fract_y
_atom_site_fract_z
C1 C 0.27124(15) 0.0787(3) 0.42127(13)
C2 C 0.18081(17) 0.0446(3) 0.43748(15)
H1 H 0.1364 -0.0013 0.4020
C3 C 0.15669(19) 0.0792(4) 0.50437(17)
H2 H 0.0963 0.0536 0.5141
C4 C 0.2216(2) 0.1528(4) 0.55634(16)
H3 H 0.2051 0.1756 0.6017
C5 C 0.31088(18) 0.1906(3) 0.54077(14)
H4 H 0.3542 0.2375 0.5769
C6 C 0.33676(15) 0.1538(3) 0.47363(12)
C7 C 0.47282(15) 0.2176(3) 0.40427(12)
C8 C 0.57714(16) 0.2524(4) 0.42315(13)
H5 H 0.5851 0.3671 0.4410
H6 H 0.6023 0.1775 0.4620
C9 C 0.6319(2) 0.2319(6) 0.36462(18)
H7 H 0.6344 0.1093 0.3586
C10 C 0.58807(18) 0.2907(6) 0.29441(15)
H8 H 0.5773 0.4076 0.2826
H9 H 0.6278 0.2814 0.2573
C11 C 0.48349(16) 0.2598(4) 0.27727(13)
C12 C 0.42994(14) 0.2212(3) 0.33439(12)
C13 C 0.32751(14) 0.1823(3) 0.31175(12)
H10 H 0.3215 0.1463 0.2613
C14 C 0.73569(16) 0.2823(4) 0.38131(13)
C15 C 0.77291(19) 0.3833(4) 0.43850(15)
H11 H 0.7322 0.4330 0.4670
C16 C 0.86957(19) 0.4065(4) 0.45431(17)
H12 H 0.8930 0.4785 0.4917
C17 C 0.92949(18) 0.3312(4) 0.41289(16)
H13 H 0.9943 0.3460 0.4237
C18 C 0.89300(18) 0.2342(4) 0.35538(16)
H14 H 0.9332 0.1816 0.3273
C19 C 0.79757(18) 0.2104(4) 0.34005(15)
H15 H 0.7740 0.1446 0.3006
C20 C 0.26110(14) 0.3305(3) 0.31579(11)
C21 C 0.16769(15) 0.3227(3) 0.28291(13)
C22 C 0.10265(17) 0.4468(4) 0.29174(15)
H16 H 0.0402 0.4373 0.2707
C23 C 0.1298(2) 0.5836(4) 0.33372(17)
H17 H 0.0862 0.6665 0.3411
C24 C 0.22258(19) 0.5991(3) 0.36558(15)
H18 H 0.2411 0.6947 0.3927
C25 C 0.28669(16) 0.4735(3) 0.35615(13)
H19 H 0.3487 0.4849 0.3780
N1 N 0.43110(13) 0.1883(3) 0.46390(10)
H20 H 0.4692 0.1919 0.5035
N2 N 0.29733(13) 0.0366(2) 0.35364(10)
H21 H 0.2960 -0.0653 0.3377
O1 O 0.44516(12) 0.2676(3) 0.21370(9)
Cl1 Cl 0.12965(4) 0.15004(10) 0.22822(4)
O2 O 0.54740(12) 0.2152(2) 0.60083(9)
H23 H 0.5423 0.1449 0.6343
H24 H 0.6036 0.2139 0.5909
C26? C 0.6242(10) 0.335(3) 0.3595(8)
H22? H 0.6192 0.4576 0.3634
loop_
_geom_bond_atom_site_label_1
_geom_bond_atom_site_label_2
_geom_bond_site_symmetry_1
_geom_bond_site_symmetry_2
C1 C2 1_555 1_555
C2 H1 1_555 1_555
C3 C2 1_555 1_555
H2 C3 1_555 1_555
C4 C3 1_555 1_555
H3 C4 1_555 1_555
C5 C4 1_555 1_555
H4 C5 1_555 1_555
C6 C1 1_555 1_555
C7 C8 1_555 1_555
C8 H5 1_555 1_555
H6 C8 1_555 1_555
C9 C8 1_555 1_555
H7 C9 1_555 1_555
C10 C9 1_555 1_555
H8 C10 1_555 1_555
H9 C10 1_555 1_555
C11 C10 1_555 1_555
C12 C7 1_555 1_555
C13 C12 1_555 1_555
H10 C13 1_555 1_555
C14 C9 1_555 1_555
C15 C14 1_555 1_555
H11 C15 1_555 1_555
C16 C15 1_555 1_555
H12 C16 1_555 1_555
C17 C16 1_555 1_555
H13 C17 1_555 1_555
C18 C17 1_555 1_555
H14 C18 1_555 1_555
C19 C14 1_555 1_555
H15 C19 1_555 1_555
C20 C13 1_555 1_555
C21 C20 1_555 1_555
C22 C21 1_555 1_555
H16 C22 1_555 1_555
C23 C22 1_555 1_555
H17 C23 1_555 1_555
C24 C23 1_555 1_555
H18 C24 1_555 1_555
C25 C20 1_555 1_555
H19 C25 1_555 1_555
N1 C6 1_555 1_555
H20 N1 1_555 1_555
N2 C1 1_555 1_555
H21 N2 1_555 1_555
O1 C11 1_555 1_555
Cl1 C21 1_555 1_555
O2 H23 1_555 1_555
H24 O2 1_555 1_555
C5 C6 1_555 1_555
C7 N1 1_555 1_555
C11 C12 1_555 1_555
C13 N2 1_555 1_555
C18 C19 1_555 1_555
C24 C25 1_555 1_555

#END
