
#######################################################################
#
#                 Cambridge Crystallographic Data Centre
#                                CCDC 
#
#######################################################################
#
# If this CIF has been generated from an entry in the Cambridge 
# Structural Database, then it will include bibliographic, chemical, 
# crystal, experimental, refinement or atomic coordinate data resulting 
# from the CCDC's data processing and validation procedures.
#
#######################################################################

data_MUCFAS
_chemical_formula_moiety         'C20 H16 Br1 F1 N4 O3'
_chemical_name_systematic        
(RS)-(2-Bromo-4-fluoroanilino)[2-(4,6-dimethoxypyrimidin-2-yloxy)phenyl]acetonitrile
_symmetry_cell_setting           triclinic
_symmetry_space_group_name_H-M   'P -1'
_symmetry_Int_Tables_number      2
_space_group_name_Hall           '-P 1'
loop_
_symmetry_equiv_pos_site_id
_symmetry_equiv_pos_as_xyz
1 x,y,z
2 -x,-y,-z
_cell_length_a                   8.9131(4)
_cell_length_b                   10.6646(4)
_cell_length_c                   11.7804(5)
_cell_angle_alpha                67.2350(10)
_cell_angle_beta                 82.0880(10)
_cell_angle_gamma                81.277(2)
_cell_volume                     1016.77
_exptl_crystal_colour            colorless
_exptl_crystal_description       block
_chemical_melting_point          '383-385 K'
_cell_formula_units_Z            2
_exptl_crystal_recrystallization_method ethanol
loop_
_atom_site_label
_atom_site_type_symbol
_atom_site_fract_x
_atom_site_fract_y
_atom_site_fract_z
Br1 Br 0.87179(6) 0.19137(4) 0.47691(3)
C1 C 0.8782(7) 0.4408(4) 0.8262(5)
H1 H 0.8212 0.3653 0.8427
H2 H 0.8092 0.5218 0.8175
H3 H 0.9392 0.4212 0.8935
C2 C 1.3827(9) 0.1531(8) 0.4604(6)
H4 H 1.4643 0.1246 0.5134
H5 H 1.4241 0.1733 0.3764
H6 H 1.3183 0.0810 0.4843
C3 C 1.0640(5) 0.3549(4) 0.7042(4)
C4 C 1.1396(6) 0.3699(5) 0.5916(4)
H7 H 1.1326 0.4534 0.5254
C5 C 1.2246(5) 0.2596(5) 0.5801(4)
C6 C 1.1638(4) 0.1373(3) 0.7778(3)
C7 C 1.2094(3) -0.1058(3) 0.8622(2)
C8 C 1.3569(4) -0.1646(4) 0.8608(3)
H8 H 1.4359 -0.1196 0.8658
C9 C 1.3867(4) -0.2903(4) 0.8520(4)
H9 H 1.4867 -0.3307 0.8506
C10 C 1.2715(5) -0.3569(4) 0.8453(3)
H10 H 1.2933 -0.4422 0.8391
C11 C 1.1221(4) -0.2986(3) 0.8477(3)
H11 H 1.0439 -0.3444 0.8426
C12 C 1.0890(3) -0.1719(3) 0.8578(2)
C13 C 0.9288(3) -0.1037(3) 0.8654(2)
H12 H 0.9238 -0.0567 0.9230
C14 C 0.8165(4) -0.2064(4) 0.9153(3)
C15 C 0.7744(3) 0.1025(3) 0.7335(3)
C16 C 0.7497(4) 0.2024(3) 0.6176(3)
C17 C 0.6375(5) 0.3112(4) 0.6020(4)
H13 H 0.6229 0.3771 0.5237
C18 C 0.5498(5) 0.3204(4) 0.7017(4)
C19 C 0.5653(4) 0.2244(4) 0.8178(4)
H14 H 0.5017 0.2317 0.8851
C20 C 0.6787(4) 0.1154(3) 0.8330(3)
H15 H 0.6908 0.0496 0.9117
F1 F 0.4432(4) 0.4297(3) 0.6871(3)
N1 N 1.0762(3) 0.2366(3) 0.8016(2)
N2 N 1.2403(3) 0.1355(3) 0.6752(3)
N3 N 0.7278(4) -0.2815(4) 0.9507(4)
N4 N 0.8911(3) -0.0024(2) 0.7473(2)
H16 H 0.949(3) -0.018(3) 0.692(3)
O1 O 0.9737(4) 0.4619(3) 0.7162(3)
O2 O 1.2974(6) 0.2699(5) 0.4710(3)
O3 O 1.1745(2) 0.0177(2) 0.88013(18)
loop_
_geom_bond_atom_site_label_1
_geom_bond_atom_site_label_2
_geom_bond_site_symmetry_1
_geom_bond_site_symmetry_2
Br1 C16 1_555 1_555
C1 H1 1_555 1_555
H2 C1 1_555 1_555
H3 C1 1_555 1_555
C2 H4 1_555 1_555
H5 C2 1_555 1_555
H6 C2 1_555 1_555
C3 C4 1_555 1_555
C4 H7 1_555 1_555
C5 C4 1_555 1_555
C6 N1 1_555 1_555
C7 C8 1_555 1_555
C8 H8 1_555 1_555
C9 C8 1_555 1_555
H9 C9 1_555 1_555
C10 C9 1_555 1_555
H10 C10 1_555 1_555
C11 C10 1_555 1_555
H11 C11 1_555 1_555
C12 C7 1_555 1_555
C13 C12 1_555 1_555
H12 C13 1_555 1_555
C14 C13 1_555 1_555
C15 C16 1_555 1_555
C16 C17 1_555 1_555
C17 H13 1_555 1_555
C18 C17 1_555 1_555
C19 C18 1_555 1_555
H14 C19 1_555 1_555
C20 C15 1_555 1_555
H15 C20 1_555 1_555
F1 C18 1_555 1_555
N1 C3 1_555 1_555
N2 C5 1_555 1_555
N3 C14 1_555 1_555
N4 C13 1_555 1_555
H16 N4 1_555 1_555
O1 C1 1_555 1_555
O2 C2 1_555 1_555
O3 C6 1_555 1_555
C3 O1 1_555 1_555
C5 O2 1_555 1_555
C6 N2 1_555 1_555
C7 O3 1_555 1_555
C11 C12 1_555 1_555
C15 N4 1_555 1_555
C19 C20 1_555 1_555

#END
