
#######################################################################
#
#                 Cambridge Crystallographic Data Centre
#                                CCDC 
#
#######################################################################
#
# If this CIF has been generated from an entry in the Cambridge 
# Structural Database, then it will include bibliographic, chemical, 
# crystal, experimental, refinement or atomic coordinate data resulting 
# from the CCDC's data processing and validation procedures.
#
#######################################################################

data_MUCFOH
_chemical_formula_moiety         'C21 H20 N2 O1 S2'
_chemical_name_systematic        
2-(4,5-bis(2,5-Dimethyl-3-thienyl)-1H-imidazol-2-yl)phenol
_symmetry_cell_setting           monoclinic
_symmetry_space_group_name_H-M   'P 21/c'
_symmetry_Int_Tables_number      14
_space_group_name_Hall           '-P 2ybc'
loop_
_symmetry_equiv_pos_site_id
_symmetry_equiv_pos_as_xyz
1 x,y,z
2 -x,1/2+y,1/2-z
3 -x,-y,-z
4 x,1/2-y,1/2+z
_cell_length_a                   10.083(4)
_cell_length_b                   15.939(7)
_cell_length_c                   11.976(5)
_cell_angle_alpha                90
_cell_angle_beta                 98.764(11)
_cell_angle_gamma                90
_cell_volume                     1902.23
_exptl_crystal_colour            colorless
_exptl_crystal_description       needle-like
_cell_formula_units_Z            4
loop_
_atom_site_label
_atom_site_type_symbol
_atom_site_fract_x
_atom_site_fract_y
_atom_site_fract_z
S1 S 0.24976(13) 0.14891(9) 0.48164(9)
S2 S 0.16994(12) -0.05204(8) 0.98719(10)
O1 O 0.6351(3) 0.1819(2) 1.1751(2)
H1 H 0.571(3) 0.166(2) 1.130(3)
C1 C 0.4531(4) 0.0612(3) 0.6194(3)
H2 H 0.5019 0.0613 0.6948
H3 H 0.4063 0.0089 0.6053
H4 H 0.5145 0.0682 0.5662
C2 C 0.3552(4) 0.1297(3) 0.6067(3)
C3 C 0.3287(4) 0.1848(3) 0.6876(3)
C4 C 0.2255(4) 0.2428(3) 0.6454(4)
H5 H 0.185(3) 0.287(2) 0.696(3)
C5 C 0.1738(4) 0.2301(3) 0.5350(4)
C6 C 0.0639(4) 0.2796(3) 0.4643(4)
H6 H 0.0347 0.3231 0.5106
H7 H 0.0969 0.3044 0.4009
H8 H -0.0102 0.2433 0.4379
C7 C 0.3694(4) 0.0351(3) 1.1230(3)
H9 H 0.3455 -0.0089 1.1711
H10 H 0.3487 0.0884 1.1535
H11 H 0.4639 0.0323 1.1202
C8 C 0.2912(4) 0.0244(3) 1.0079(3)
C9 C 0.2971(4) 0.0674(3) 0.9092(3)
C10 C 0.2019(4) 0.0354(3) 0.8184(4)
H12 H 0.191(3) 0.0536(19) 0.747(2)
C11 C 0.1260(4) -0.0280(3) 0.8468(3)
C12 C 0.0183(4) -0.0759(3) 0.7729(4)
H13 H 0.0078 -0.0535 0.6976
H14 H 0.0436 -0.1339 0.7714
H15 H -0.0650 -0.0710 0.8020
C13 C 0.4009(4) 0.1838(3) 0.8033(3)
C14 C 0.3898(4) 0.1350(3) 0.8966(3)
C15 C 0.5508(4) 0.2241(3) 0.9479(3)
C16 C 0.6568(4) 0.2716(3) 1.0162(3)
C17 C 0.6944(4) 0.2472(3) 1.1299(3)
C18 C 0.7918(4) 0.2923(3) 1.2001(3)
H16 H 0.8149 0.2768 1.2781
C19 C 0.8554(4) 0.3589(3) 1.1584(4)
H17 H 0.9238 0.3889 1.2071
C20 C 0.8217(4) 0.3831(3) 1.0471(4)
H18 H 0.8653 0.4305 1.0190
C21 C 0.7246(4) 0.3389(3) 0.9760(3)
H19 H 0.7037 0.3549 0.8981
N1 N 0.5031(4) 0.2399(2) 0.8377(3)
H20 H 0.538(3) 0.269(2) 0.796(3)
N2 N 0.4851(3) 0.1624(2) 0.9862(2)
loop_
_geom_bond_atom_site_label_1
_geom_bond_atom_site_label_2
_geom_bond_site_symmetry_1
_geom_bond_site_symmetry_2
S1 C2 1_555 1_555
S2 C8 1_555 1_555
O1 H1 1_555 1_555
C1 H2 1_555 1_555
H3 C1 1_555 1_555
H4 C1 1_555 1_555
C2 C1 1_555 1_555
C3 C2 1_555 1_555
C4 C3 1_555 1_555
H5 C4 1_555 1_555
C5 S1 1_555 1_555
C6 C5 1_555 1_555
H6 C6 1_555 1_555
H7 C6 1_555 1_555
H8 C6 1_555 1_555
C7 H9 1_555 1_555
H10 C7 1_555 1_555
H11 C7 1_555 1_555
C8 C7 1_555 1_555
C9 C8 1_555 1_555
C10 C9 1_555 1_555
H12 C10 1_555 1_555
C11 S2 1_555 1_555
C12 C11 1_555 1_555
H13 C12 1_555 1_555
H14 C12 1_555 1_555
H15 C12 1_555 1_555
C13 C3 1_555 1_555
C14 C9 1_555 1_555
C15 C16 1_555 1_555
C16 C17 1_555 1_555
C17 O1 1_555 1_555
C18 C17 1_555 1_555
H16 C18 1_555 1_555
C19 C18 1_555 1_555
H17 C19 1_555 1_555
C20 C19 1_555 1_555
H18 C20 1_555 1_555
C21 C16 1_555 1_555
H19 C21 1_555 1_555
N1 C13 1_555 1_555
H20 N1 1_555 1_555
N2 C14 1_555 1_555
C4 C5 1_555 1_555
C10 C11 1_555 1_555
C13 C14 1_555 1_555
C15 N1 1_555 1_555
C15 N2 1_555 1_555
C20 C21 1_555 1_555

#END
