
#######################################################################
#
#                 Cambridge Crystallographic Data Centre
#                                CCDC 
#
#######################################################################
#
# If this CIF has been generated from an entry in the Cambridge 
# Structural Database, then it will include bibliographic, chemical, 
# crystal, experimental, refinement or atomic coordinate data resulting 
# from the CCDC's data processing and validation procedures.
#
#######################################################################

data_MUCGAT
_chemical_formula_moiety         'C25 H20 N4'
_chemical_name_systematic        
9-(4-[(E)-2-(4,6-Dimethyl-1,3,5-triazin-2-yl)ethenyl]phenyl)-9H-carbazole
_symmetry_cell_setting           orthorhombic
_symmetry_space_group_name_H-M   'P 21 21 21'
_symmetry_Int_Tables_number      19
_space_group_name_Hall           'P 2ac 2ab'
loop_
_symmetry_equiv_pos_site_id
_symmetry_equiv_pos_as_xyz
1 x,y,z
2 1/2-x,-y,1/2+z
3 1/2+x,1/2-y,-z
4 -x,1/2+y,1/2-z
_cell_length_a                   8.0415(8)
_cell_length_b                   15.716(2)
_cell_length_c                   16.0980(10)
_cell_angle_alpha                90
_cell_angle_beta                 90
_cell_angle_gamma                90
_cell_volume                     2034.47
_exptl_crystal_colour            'pale green'
_exptl_crystal_description       prism
_cell_formula_units_Z            4
_exptl_crystal_recrystallization_method benzene/ethanol
loop_
_atom_site_label
_atom_site_type_symbol
_atom_site_fract_x
_atom_site_fract_y
_atom_site_fract_z
N1 N 0.3440(7) 0.5461(3) 0.7650(3)
N2 N 0.2899(6) 0.4809(2) 0.6348(2)
N3 N 0.4255(6) 0.4024(3) 0.7419(3)
N4 N 0.3597(5) 0.0613(2) 0.3022(2)
C1 C 0.2848(8) 0.5466(3) 0.6880(4)
C2 C 0.4126(8) 0.4724(4) 0.7893(3)
C3 C 0.3621(7) 0.4108(3) 0.6658(3)
C4 C 0.2098(9) 0.6278(3) 0.6563(4)
H1 H 0.1203 0.6448 0.6921
H2 H 0.1680 0.6190 0.6011
H3 H 0.2932 0.6715 0.6554
C5 C 0.4801(8) 0.4663(4) 0.8757(3)
H4 H 0.4946 0.4076 0.8903
H5 H 0.4036 0.4925 0.9137
H6 H 0.5853 0.4950 0.8785
C6 C 0.3767(7) 0.3359(3) 0.6121(3)
H7 H 0.4272 0.2875 0.6337
C7 C 0.3217(7) 0.3333(3) 0.5341(3)
H8 H 0.2704 0.3823 0.5144
C8 C 0.3331(7) 0.2616(3) 0.4757(3)
C9 C 0.2847(7) 0.2736(3) 0.3941(3)
H9 H 0.2475 0.3269 0.3771
C10 C 0.2910(7) 0.2076(3) 0.3373(3)
H10 H 0.2559 0.2166 0.2830
C11 C 0.3490(6) 0.1284(3) 0.3607(3)
C12 C 0.3989(7) 0.1159(3) 0.4417(3)
H11 H 0.4389 0.0630 0.4581
C13 C 0.3898(7) 0.1816(3) 0.4988(3)
H12 H 0.4223 0.1720 0.5534
C14 C 0.4250(6) 0.0677(3) 0.2221(3)
C15 C 0.5018(7) 0.1357(3) 0.1836(3)
H13 H 0.5147 0.1875 0.2108
C16 C 0.5584(7) 0.1243(4) 0.1036(3)
H14 H 0.6104 0.1693 0.0766
C17 C 0.5401(7) 0.0476(4) 0.0625(3)
H15 H 0.5785 0.0419 0.0083
C18 C 0.4658(6) -0.0198(4) 0.1013(3)
H16 H 0.4539 -0.0713 0.0735
C19 C 0.4080(6) -0.0115(3) 0.1823(3)
C20 C 0.3274(6) -0.0680(3) 0.2402(3)
C21 C 0.2764(7) -0.1526(3) 0.2366(3)
H17 H 0.2946 -0.1844 0.1888
C22 C 0.2003(8) -0.1884(3) 0.3032(3)
H18 H 0.1661 -0.2448 0.3006
C23 C 0.1725(7) -0.1418(3) 0.3754(3)
H19 H 0.1202 -0.1675 0.4204
C24 C 0.2220(7) -0.0573(3) 0.3811(3)
H20 H 0.2028 -0.0260 0.4291
C25 C 0.3004(6) -0.0213(3) 0.3137(3)
loop_
_geom_bond_atom_site_label_1
_geom_bond_atom_site_label_2
_geom_bond_site_symmetry_1
_geom_bond_site_symmetry_2
N1 C1 1_555 1_555
N2 C1 1_555 1_555
N3 C2 1_555 1_555
N4 C11 1_555 1_555
C1 C4 1_555 1_555
C2 N1 1_555 1_555
C3 N2 1_555 1_555
C4 H1 1_555 1_555
H2 C4 1_555 1_555
H3 C4 1_555 1_555
C5 C2 1_555 1_555
H4 C5 1_555 1_555
H5 C5 1_555 1_555
H6 C5 1_555 1_555
C6 C3 1_555 1_555
H7 C6 1_555 1_555
C7 C6 1_555 1_555
H8 C7 1_555 1_555
C8 C7 1_555 1_555
C9 C8 1_555 1_555
H9 C9 1_555 1_555
C10 C9 1_555 1_555
H10 C10 1_555 1_555
C11 C10 1_555 1_555
C12 C11 1_555 1_555
H11 C12 1_555 1_555
C13 C8 1_555 1_555
H12 C13 1_555 1_555
C14 N4 1_555 1_555
C15 C14 1_555 1_555
H13 C15 1_555 1_555
C16 C15 1_555 1_555
H14 C16 1_555 1_555
C17 C16 1_555 1_555
H15 C17 1_555 1_555
C18 C17 1_555 1_555
H16 C18 1_555 1_555
C19 C14 1_555 1_555
C20 C19 1_555 1_555
C21 C20 1_555 1_555
H17 C21 1_555 1_555
C22 C21 1_555 1_555
H18 C22 1_555 1_555
C23 C22 1_555 1_555
H19 C23 1_555 1_555
C24 C23 1_555 1_555
H20 C24 1_555 1_555
C25 N4 1_555 1_555
N3 C3 1_555 1_555
C12 C13 1_555 1_555
C18 C19 1_555 1_555
C20 C25 1_555 1_555
C24 C25 1_555 1_555

#END
