
#######################################################################
#
#                 Cambridge Crystallographic Data Centre
#                                CCDC 
#
#######################################################################
#
# If this CIF has been generated from an entry in the Cambridge 
# Structural Database, then it will include bibliographic, chemical, 
# crystal, experimental, refinement or atomic coordinate data resulting 
# from the CCDC's data processing and validation procedures.
#
#######################################################################

data_MUCJEA02
_chemical_name_common            
(E,E)-N3,N3'-bis(2-hydroxybenzylidene)-(2,2'-bipyridine)-3,3'-diamine
_chemical_formula_moiety         'C24 H18 N4 O2'
_chemical_name_systematic        
2,2'-(2,2'-bipyridine-3,3'-diylbis(nitrilomethylylidene))diphenol
_symmetry_cell_setting           triclinic
_symmetry_space_group_name_H-M   'P -1'
_symmetry_Int_Tables_number      2
_space_group_name_Hall           '-P 1'
loop_
_symmetry_equiv_pos_site_id
_symmetry_equiv_pos_as_xyz
1 x,y,z
2 -x,-y,-z
_cell_length_a                   8.2616(5)
_cell_length_b                   11.0442(7)
_cell_length_c                   11.8712(7)
_cell_angle_alpha                69.313(4)
_cell_angle_beta                 76.743(4)
_cell_angle_gamma                71.691(4)
_cell_volume                     953.447
_exptl_crystal_colour            colorless
_exptl_crystal_description       hexagonal
_cell_formula_units_Z            2
loop_
_atom_site_label
_atom_site_type_symbol
_atom_site_fract_x
_atom_site_fract_y
_atom_site_fract_z
N1 N 0.51820(18) 0.37049(14) 0.30960(13)
N2 N 0.69095(18) 0.10484(14) 0.21307(13)
N3 N 0.35050(17) 0.07563(14) 0.39186(13)
N4 N 0.34909(18) 0.39963(14) 0.09236(13)
O1 O 0.36696(17) -0.07500(13) 0.25658(12)
H1 H 0.3891 -0.0170 0.2740
O2 O 0.11008(17) 0.53277(13) 0.22079(12)
H2 H 0.1996 0.4778 0.2074
C1 C 0.4597(2) 0.40969(18) 0.40898(17)
H3 H 0.4820 0.4870 0.4094
C2 C 0.3673(2) 0.34108(18) 0.51199(17)
H4 H 0.3316 0.3710 0.5800
C3 C 0.3293(2) 0.22819(18) 0.51194(16)
H5 H 0.2666 0.1813 0.5795
C4 C 0.3866(2) 0.18510(17) 0.40847(16)
C5 C 0.4836(2) 0.25872(16) 0.31070(15)
C6 C 0.5583(2) 0.21496(16) 0.19959(16)
C7 C 0.4938(2) 0.28904(17) 0.08943(16)
C8 C 0.5710(2) 0.24536(18) -0.01183(17)
H6 H 0.5300 0.2906 -0.0863
C9 C 0.7091(2) 0.13389(18) 0.00047(17)
H7 H 0.7642 0.1039 -0.0660
C10 C 0.7643(2) 0.06729(18) 0.11357(17)
H8 H 0.8575 -0.0076 0.1207
C11 C 0.2660(2) 0.00042(17) 0.47842(16)
H9 H 0.2330 0.0168 0.5531
C12 C 0.2210(2) -0.10867(17) 0.46265(16)
C13 C 0.2697(2) -0.14123(17) 0.35243(16)
C14 C 0.2167(2) -0.24467(18) 0.34171(17)
H10 H 0.2456 -0.2651 0.2689
C15 C 0.1216(2) -0.31672(18) 0.43897(17)
H11 H 0.0870 -0.3852 0.4305
C16 C 0.0766(2) -0.28887(17) 0.54902(17)
H12 H 0.0146 -0.3391 0.6145
C17 C 0.1258(2) -0.18487(17) 0.55942(16)
H13 H 0.0948 -0.1650 0.6326
C18 C 0.2884(2) 0.48363(17) -0.00465(16)
H14 H 0.3445 0.4760 -0.0802
C19 C 0.1337(2) 0.58989(17) 0.00241(17)
C20 C 0.0480(2) 0.60924(18) 0.11473(17)
C21 C -0.1046(2) 0.70979(19) 0.11694(19)
H15 H -0.1625 0.7226 0.1905
C22 C -0.1698(2) 0.79057(19) 0.0096(2)
H16 H -0.2715 0.8573 0.0120
C23 C -0.0859(2) 0.77362(18) -0.10130(19)
H17 H -0.1304 0.8288 -0.1728
C24 C 0.0644(2) 0.67397(18) -0.10433(17)
H18 H 0.1208 0.6624 -0.1786
loop_
_geom_bond_atom_site_label_1
_geom_bond_atom_site_label_2
_geom_bond_site_symmetry_1
_geom_bond_site_symmetry_2
N1 C1 1_555 1_555
N2 C6 1_555 1_555
N3 C4 1_555 1_555
N4 C7 1_555 1_555
O1 H1 1_555 1_555
O2 H2 1_555 1_555
C1 H3 1_555 1_555
C2 C1 1_555 1_555
H4 C2 1_555 1_555
C3 C2 1_555 1_555
H5 C3 1_555 1_555
C4 C3 1_555 1_555
C5 N1 1_555 1_555
C6 C5 1_555 1_555
C7 C6 1_555 1_555
C8 C7 1_555 1_555
H6 C8 1_555 1_555
C9 C8 1_555 1_555
H7 C9 1_555 1_555
C10 N2 1_555 1_555
H8 C10 1_555 1_555
C11 N3 1_555 1_555
H9 C11 1_555 1_555
C12 C11 1_555 1_555
C13 O1 1_555 1_555
C14 C13 1_555 1_555
H10 C14 1_555 1_555
C15 C14 1_555 1_555
H11 C15 1_555 1_555
C16 C15 1_555 1_555
H12 C16 1_555 1_555
C17 C12 1_555 1_555
H13 C17 1_555 1_555
C18 N4 1_555 1_555
H14 C18 1_555 1_555
C19 C18 1_555 1_555
C20 O2 1_555 1_555
C21 C20 1_555 1_555
H15 C21 1_555 1_555
C22 C21 1_555 1_555
H16 C22 1_555 1_555
C23 C22 1_555 1_555
H17 C23 1_555 1_555
C24 C19 1_555 1_555
H18 C24 1_555 1_555
C4 C5 1_555 1_555
C9 C10 1_555 1_555
C12 C13 1_555 1_555
C16 C17 1_555 1_555
C19 C20 1_555 1_555
C23 C24 1_555 1_555

#END
