
#######################################################################
#
#                 Cambridge Crystallographic Data Centre
#                                CCDC 
#
#######################################################################
#
# If this CIF has been generated from an entry in the Cambridge 
# Structural Database, then it will include bibliographic, chemical, 
# crystal, experimental, refinement or atomic coordinate data resulting 
# from the CCDC's data processing and validation procedures.
#
#######################################################################

data_MUDDEW
_chemical_formula_moiety         'C11 H20 O2'
_chemical_name_systematic        '(E)-undec-2-enoic acid'
_symmetry_cell_setting           triclinic
_symmetry_space_group_name_H-M   'P -1'
_symmetry_Int_Tables_number      2
_space_group_name_Hall           '-P 1'
loop_
_symmetry_equiv_pos_site_id
_symmetry_equiv_pos_as_xyz
1 x,y,z
2 -x,-y,-z
_cell_length_a                   4.6346(4)
_cell_length_b                   5.4200(5)
_cell_length_c                   22.7564(19)
_cell_angle_alpha                88.386(2)
_cell_angle_beta                 88.357(2)
_cell_angle_gamma                78.340(2)
_cell_volume                     559.458
_exptl_crystal_colour            colorless
_exptl_crystal_description       plate
_cell_formula_units_Z            2
loop_
_atom_site_label
_atom_site_type_symbol
_atom_site_fract_x
_atom_site_fract_y
_atom_site_fract_z
C1 C 0.7148(3) -0.2848(2) 0.45696(6)
C2 C 0.8753(3) -0.1147(2) 0.42422(6)
H1 H 0.9723 -0.0090 0.4457
C3 C 0.8904(3) -0.1026(2) 0.36643(6)
H2 H 0.7934 -0.2107 0.3457
C4 C 1.0477(3) 0.0674(3) 0.33084(6)
H3 H 1.2051 -0.0358 0.3066
H4 H 1.1418 0.1667 0.3576
C5 C 0.8388(3) 0.2471(2) 0.29077(6)
H5 H 0.7283 0.1481 0.2672
H6 H 0.6942 0.3622 0.3154
C6 C 0.9983(3) 0.4033(2) 0.24928(6)
H7 H 1.1150 0.4972 0.2728
H8 H 1.1374 0.2884 0.2236
C7 C 0.7898(3) 0.5893(2) 0.21098(6)
H9 H 0.6536 0.7060 0.2367
H10 H 0.6700 0.4953 0.1883
C8 C 0.9460(3) 0.7429(2) 0.16835(6)
H11 H 1.0691 0.8340 0.1910
H12 H 1.0792 0.6263 0.1421
C9 C 0.7376(3) 0.9326(2) 0.13091(6)
H13 H 0.6155 0.8415 0.1080
H14 H 0.6036 1.0487 0.1571
C10 C 0.8949(3) 1.0861(3) 0.08881(6)
H15 H 1.0269 0.9703 0.0622
H16 H 1.0190 1.1756 0.1116
C11 C 0.6854(4) 1.2777(3) 0.05206(7)
H17 H 0.5668 1.1901 0.0282
H18 H 0.7991 1.3723 0.0262
H19 H 0.5552 1.3943 0.0781
O1 O 0.5924(2) -0.43092(19) 0.42681(4)
O2 O 0.7045(2) -0.28190(19) 0.51201(4)
H20 H 0.490(5) -0.520(4) 0.4504(9)
loop_
_geom_bond_atom_site_label_1
_geom_bond_atom_site_label_2
_geom_bond_site_symmetry_1
_geom_bond_site_symmetry_2
C1 C2 1_555 1_555
C2 H1 1_555 1_555
C3 C2 1_555 1_555
H2 C3 1_555 1_555
C4 C3 1_555 1_555
H3 C4 1_555 1_555
H4 C4 1_555 1_555
C5 C4 1_555 1_555
H5 C5 1_555 1_555
H6 C5 1_555 1_555
C6 C5 1_555 1_555
H7 C6 1_555 1_555
H8 C6 1_555 1_555
C7 C6 1_555 1_555
H9 C7 1_555 1_555
H10 C7 1_555 1_555
C8 C7 1_555 1_555
H11 C8 1_555 1_555
H12 C8 1_555 1_555
C9 C8 1_555 1_555
H13 C9 1_555 1_555
H14 C9 1_555 1_555
C10 C9 1_555 1_555
H15 C10 1_555 1_555
H16 C10 1_555 1_555
C11 C10 1_555 1_555
H17 C11 1_555 1_555
H18 C11 1_555 1_555
H19 C11 1_555 1_555
O1 C1 1_555 1_555
O2 C1 1_555 1_555
H20 O1 1_555 1_555

#END
