
#######################################################################
#
#                 Cambridge Crystallographic Data Centre
#                                CCDC 
#
#######################################################################
#
# If this CIF has been generated from an entry in the Cambridge 
# Structural Database, then it will include bibliographic, chemical, 
# crystal, experimental, refinement or atomic coordinate data resulting 
# from the CCDC's data processing and validation procedures.
#
#######################################################################

data_MUDDEV
_chemical_formula_moiety         'C23 H34 O4'
_chemical_name_systematic        
4-Cyclohexyl-5-(2-((4-methoxybenzyl)oxy)but-3-en-2-yl)-2,2-dimethyl-1,3-dioxolane
_symmetry_cell_setting           monoclinic
_symmetry_space_group_name_H-M   'C 2'
_symmetry_Int_Tables_number      5
_space_group_name_Hall           'C 2y'
loop_
_symmetry_equiv_pos_site_id
_symmetry_equiv_pos_as_xyz
1 x,y,z
2 -x,y,-z
3 1/2+x,1/2+y,z
4 1/2-x,1/2+y,-z
_cell_length_a                   26.323(2)
_cell_length_b                   6.1374(6)
_cell_length_c                   13.3377(11)
_cell_angle_alpha                90
_cell_angle_beta                 96.461(5)
_cell_angle_gamma                90
_cell_volume                     2141.08
_exptl_crystal_colour            colorless
_exptl_crystal_description       plate
_cell_formula_units_Z            4
loop_
_atom_site_label
_atom_site_type_symbol
_atom_site_fract_x
_atom_site_fract_y
_atom_site_fract_z
C1 C 0.93142(10) 0.5490(4) 0.68918(17)
H1 H 0.9553 0.4254 0.7035
H2 H 0.8979 0.4890 0.6611
C2 C 0.95146(10) 0.6977(5) 0.61209(19)
H3 H 0.9261 0.8140 0.5933
H4 H 0.9560 0.6131 0.5505
C3 C 1.00229(10) 0.8006(5) 0.65298(19)
H5 H 1.0127 0.9075 0.6036
H6 H 1.0290 0.6865 0.6628
C4 C 0.99758(10) 0.9145(4) 0.75307(19)
H7 H 1.0316 0.9695 0.7809
H8 H 0.9745 1.0414 0.7408
C5 C 0.97718(9) 0.7669(5) 0.83013(18)
H9 H 0.9732 0.8510 0.8921
H10 H 1.0018 0.6477 0.8482
C6 C 0.92534(9) 0.6702(4) 0.78781(16)
H11 H 0.9003 0.7918 0.7730
C7 C 0.90481(9) 0.5150(4) 0.86267(16)
H12 H 0.9255 0.3783 0.8634
C8 C 0.88314(10) 0.4673(5) 1.02239(17)
C9 C 0.91358(11) 0.2677(5) 1.0604(2)
H13 H 0.9448 0.3137 1.1021
H14 H 0.9227 0.1829 1.0028
H15 H 0.8929 0.1776 1.1008
C10 C 0.86563(10) 0.6013(5) 1.10731(18)
H16 H 0.8456 0.7260 1.0791
H17 H 0.8955 0.6538 1.1511
H18 H 0.8444 0.5110 1.1467
C11 C 0.84755(9) 0.4473(4) 0.85219(16)
H19 H 0.8438 0.3100 0.8117
C12 C 0.80514(9) 0.6069(4) 0.80952(16)
C13 C 0.75401(9) 0.4945(4) 0.81127(18)
H20 H 0.7525 0.3662 0.7673
H21 H 0.7264 0.5954 0.7872
H22 H 0.7500 0.4491 0.8804
C14 C 0.80871(9) 0.8226(4) 0.86288(17)
H23 H 0.8396 0.9020 0.8609
C15 C 0.77380(11) 0.9131(5) 0.91191(19)
H24 H 0.7422 0.8407 0.9162
H25 H 0.7801 1.0511 0.9431
C16 C 0.77918(9) 0.7617(5) 0.64290(17)
H26 H 0.7645 0.8776 0.6825
H27 H 0.7511 0.6660 0.6136
C17 C 0.80626(9) 0.8601(4) 0.56078(17)
C18 C 0.82862(9) 1.0643(4) 0.57224(17)
H28 H 0.8250 1.1455 0.6317
C19 C 0.85608(10) 1.1536(4) 0.49948(18)
H29 H 0.8716 1.2928 0.5095
C20 C 0.86052(9) 1.0372(4) 0.41208(16)
C21 C 0.83767(9) 0.8339(4) 0.39821(17)
H30 H 0.8406 0.7544 0.3380
C22 C 0.81061(9) 0.7469(4) 0.47190(17)
H31 H 0.7948 0.6082 0.4616
C23 C 0.91719(11) 1.2989(5) 0.3538(2)
H32 H 0.9422 1.2740 0.4130
H33 H 0.8954 1.4230 0.3666
H34 H 0.9352 1.3299 0.2950
O1 O 0.91150(6) 0.6039(3) 0.96348(11)
O2 O 0.83955(6) 0.3957(3) 0.95460(11)
O3 O 0.81617(6) 0.6374(3) 0.70654(11)
O4 O 0.88621(7) 1.1083(3) 0.33473(12)
loop_
_geom_bond_atom_site_label_1
_geom_bond_atom_site_label_2
_geom_bond_site_symmetry_1
_geom_bond_site_symmetry_2
C1 H1 1_555 1_555
H2 C1 1_555 1_555
C2 C1 1_555 1_555
H3 C2 1_555 1_555
H4 C2 1_555 1_555
C3 C2 1_555 1_555
H5 C3 1_555 1_555
H6 C3 1_555 1_555
C4 C3 1_555 1_555
H7 C4 1_555 1_555
H8 C4 1_555 1_555
C5 C4 1_555 1_555
H9 C5 1_555 1_555
H10 C5 1_555 1_555
C6 C1 1_555 1_555
H11 C6 1_555 1_555
C7 C6 1_555 1_555
H12 C7 1_555 1_555
C8 C9 1_555 1_555
C9 H13 1_555 1_555
H14 C9 1_555 1_555
H15 C9 1_555 1_555
C10 C8 1_555 1_555
H16 C10 1_555 1_555
H17 C10 1_555 1_555
H18 C10 1_555 1_555
C11 C7 1_555 1_555
H19 C11 1_555 1_555
C12 C11 1_555 1_555
C13 C12 1_555 1_555
H20 C13 1_555 1_555
H21 C13 1_555 1_555
H22 C13 1_555 1_555
C14 C12 1_555 1_555
H23 C14 1_555 1_555
C15 C14 1_555 1_555
H24 C15 1_555 1_555
H25 C15 1_555 1_555
C16 H26 1_555 1_555
H27 C16 1_555 1_555
C17 C16 1_555 1_555
C18 C17 1_555 1_555
H28 C18 1_555 1_555
C19 C18 1_555 1_555
H29 C19 1_555 1_555
C20 C19 1_555 1_555
C21 C20 1_555 1_555
H30 C21 1_555 1_555
C22 C17 1_555 1_555
H31 C22 1_555 1_555
C23 H32 1_555 1_555
H33 C23 1_555 1_555
H34 C23 1_555 1_555
O1 C7 1_555 1_555
O2 C8 1_555 1_555
O3 C12 1_555 1_555
O4 C20 1_555 1_555
C5 C6 1_555 1_555
C8 O1 1_555 1_555
C11 O2 1_555 1_555
C16 O3 1_555 1_555
C21 C22 1_555 1_555
C23 O4 1_555 1_555

#END
