
#######################################################################
#
#                 Cambridge Crystallographic Data Centre
#                                CCDC 
#
#######################################################################
#
# If this CIF has been generated from an entry in the Cambridge 
# Structural Database, then it will include bibliographic, chemical, 
# crystal, experimental, refinement or atomic coordinate data resulting 
# from the CCDC's data processing and validation procedures.
#
#######################################################################

data_MUDFUN
_chemical_formula_moiety         'C17 H28 O6'
_chemical_name_systematic        
7,13-Dihydroxy-5,7,11,13-tetramethyloxacyclotetradecane-2,6,12-trione
_symmetry_cell_setting           triclinic
_symmetry_space_group_name_H-M   'P -1'
_symmetry_Int_Tables_number      2
_space_group_name_Hall           '-P 1'
loop_
_symmetry_equiv_pos_site_id
_symmetry_equiv_pos_as_xyz
1 x,y,z
2 -x,-y,-z
_cell_length_a                   10.1289(16)
_cell_length_b                   11.2387(17)
_cell_length_c                   15.895(3)
_cell_angle_alpha                94.122(3)
_cell_angle_beta                 108.355(3)
_cell_angle_gamma                90.646(3)
_cell_volume                     1711.82
_exptl_crystal_colour            colorless
_exptl_crystal_description       rod
_cell_formula_units_Z            4
loop_
_atom_site_label
_atom_site_type_symbol
_atom_site_fract_x
_atom_site_fract_y
_atom_site_fract_z
O1 O 0.8415(4) 0.9549(3) 0.8724(2)
H1 H 0.8990 0.9004 0.8841
O2 O 0.8853(4) 0.8269(3) 0.7409(2)
O3 O 0.6736(4) 0.2999(3) 0.6153(2)
H2 H 0.6934 0.2321 0.6337
O4 O 0.8312(4) 0.3202(3) 0.7794(2)
O5 O 0.5625(4) 0.6946(3) 0.9481(2)
O6 O 0.7160(3) 0.7368(3) 0.8787(2)
C1 C 0.6329(5) 0.8342(4) 0.8415(3)
H3 H 0.6057 0.8812 0.8882
H4 H 0.5474 0.8038 0.7942
C2 C 0.7201(5) 0.9118(4) 0.8032(3)
C3 C 0.6381(6) 1.0222(4) 0.7698(3)
H5 H 0.6224 1.0692 0.8199
H6 H 0.5482 0.9969 0.7259
H7 H 0.6911 1.0710 0.7420
C4 C 0.7623(6) 0.8406(4) 0.7295(3)
C5 C 0.6526(6) 0.7885(4) 0.6438(3)
H8 H 0.5664 0.7644 0.6572
C6 C 0.6175(6) 0.8825(5) 0.5746(3)
H9 H 0.6975 0.8959 0.5540
H10 H 0.5957 0.9576 0.6019
H11 H 0.5369 0.8538 0.5240
C7 C 0.7090(6) 0.6795(5) 0.6050(3)
H12 H 0.6438 0.6573 0.5447
H13 H 0.7987 0.7042 0.5977
C8 C 0.7329(6) 0.5675(5) 0.6559(3)
H14 H 0.7977 0.5164 0.6355
H15 H 0.7776 0.5910 0.7200
C9 C 0.6014(6) 0.4967(5) 0.6440(3)
H16 H 0.5455 0.4921 0.5803
H17 H 0.5474 0.5407 0.6775
C10 C 0.6192(5) 0.3674(5) 0.6741(3)
C11 C 0.4782(6) 0.3136(5) 0.6686(3)
H18 H 0.4162 0.3110 0.6071
H19 H 0.4380 0.3627 0.7071
H20 H 0.4896 0.2325 0.6880
C12 C 0.7207(5) 0.3684(4) 0.7677(3)
C13 C 0.6839(5) 0.4301(4) 0.8453(3)
H21 H 0.6084 0.4870 0.8218
C14 C 0.6301(6) 0.3355(5) 0.8921(3)
H22 H 0.5436 0.2980 0.8514
H23 H 0.6124 0.3733 0.9449
H24 H 0.7000 0.2748 0.9101
C15 C 0.8116(5) 0.5002(5) 0.9089(3)
H25 H 0.8799 0.4433 0.9408
H26 H 0.8562 0.5467 0.8739
C16 C 0.7741(6) 0.5852(4) 0.9767(3)
H27 H 0.7341 0.5381 1.0137
H28 H 0.8599 0.6272 1.0164
C17 C 0.6728(6) 0.6748(4) 0.9342(3)
O7 O 0.3232(4) 0.5183(3) 0.8501(2)
H29 H 0.3722 0.5800 0.8735
O8 O 0.3906(4) 0.6385(3) 0.7342(2)
O9 O 0.1533(4) 1.1090(3) 0.5920(2)
H30 H 0.2134 1.1621 0.6197
O10 O 0.3125(4) 1.1349(3) 0.7555(2)
O11 O 0.0668(4) 0.7759(3) 0.9353(2)
O12 O 0.2025(4) 0.7394(3) 0.8495(2)
C18 C 0.1198(5) 0.6340(4) 0.8080(3)
H31 H 0.0402 0.6546 0.7570
H32 H 0.0827 0.5970 0.8511
C19 C 0.2112(5) 0.5479(4) 0.7765(3)
C20 C 0.1284(5) 0.4322(4) 0.7377(4)
H33 H 0.1885 0.3746 0.7199
H34 H 0.0497 0.4480 0.6857
H35 H 0.0936 0.3994 0.7825
C21 C 0.2668(6) 0.6095(4) 0.7105(3)
C22 C 0.1745(6) 0.6310(5) 0.6171(3)
H36 H 0.0767 0.6424 0.6171
C23 C 0.1792(6) 0.5198(5) 0.5547(3)
H37 H 0.2746 0.5104 0.5534
H38 H 0.1174 0.5301 0.4946
H39 H 0.1487 0.4487 0.5768
C24 C 0.2257(6) 0.7397(4) 0.5815(3)
H40 H 0.3188 0.7222 0.5767
H41 H 0.1626 0.7469 0.5203
C25 C 0.2371(5) 0.8610(5) 0.6326(3)
H42 H 0.2902 0.9172 0.6091
H43 H 0.2903 0.8534 0.6958
C26 C 0.0966(5) 0.9135(4) 0.6272(3)
H44 H 0.0565 0.8722 0.6670
H45 H 0.0326 0.8978 0.5657
C27 C 0.1053(6) 1.0494(5) 0.6533(3)
C28 C -0.0392(5) 1.0939(5) 0.6467(3)
H46 H -0.0328 1.1799 0.6636
H47 H -0.0764 1.0520 0.6868
H48 H -0.1012 1.0783 0.5855
C29 C 0.2050(6) 1.0773(5) 0.7461(3)
C30 C 0.1735(6) 1.0350(5) 0.8257(3)
H49 H 0.0951 0.9740 0.8053
C31 C 0.1297(6) 1.1433(5) 0.8755(3)
H50 H 0.2034 1.2059 0.8916
H51 H 0.1143 1.1182 0.9296
H52 H 0.0435 1.1744 0.8369
C32 C 0.3034(5) 0.9785(5) 0.8871(3)
H53 H 0.3457 0.9265 0.8504
H54 H 0.3727 1.0425 0.9190
C33 C 0.2681(5) 0.9049(4) 0.9549(3)
H55 H 0.3552 0.8732 0.9937
H56 H 0.2294 0.9581 0.9929
C34 C 0.1658(6) 0.8020(4) 0.9142(3)
loop_
_geom_bond_atom_site_label_1
_geom_bond_atom_site_label_2
_geom_bond_site_symmetry_1
_geom_bond_site_symmetry_2
O1 H1 1_555 1_555
O2 C4 1_555 1_555
O3 H2 1_555 1_555
O4 C12 1_555 1_555
O5 C17 1_555 1_555
O6 C1 1_555 1_555
C1 H3 1_555 1_555
H4 C1 1_555 1_555
C2 O1 1_555 1_555
C3 C2 1_555 1_555
H5 C3 1_555 1_555
H6 C3 1_555 1_555
H7 C3 1_555 1_555
C4 C2 1_555 1_555
C5 C4 1_555 1_555
H8 C5 1_555 1_555
C6 C5 1_555 1_555
H9 C6 1_555 1_555
H10 C6 1_555 1_555
H11 C6 1_555 1_555
C7 C5 1_555 1_555
H12 C7 1_555 1_555
H13 C7 1_555 1_555
C8 C7 1_555 1_555
H14 C8 1_555 1_555
H15 C8 1_555 1_555
C9 C8 1_555 1_555
H16 C9 1_555 1_555
H17 C9 1_555 1_555
C10 O3 1_555 1_555
C11 C10 1_555 1_555
H18 C11 1_555 1_555
H19 C11 1_555 1_555
H20 C11 1_555 1_555
C12 C10 1_555 1_555
C13 C12 1_555 1_555
H21 C13 1_555 1_555
C14 C13 1_555 1_555
H22 C14 1_555 1_555
H23 C14 1_555 1_555
H24 C14 1_555 1_555
C15 C13 1_555 1_555
H25 C15 1_555 1_555
H26 C15 1_555 1_555
C16 C15 1_555 1_555
H27 C16 1_555 1_555
H28 C16 1_555 1_555
C17 O6 1_555 1_555
O7 H29 1_555 1_555
O8 C21 1_555 1_555
O9 H30 1_555 1_555
O10 C29 1_555 1_555
O11 C34 1_555 1_555
O12 C18 1_555 1_555
C18 H31 1_555 1_555
H32 C18 1_555 1_555
C19 O7 1_555 1_555
C20 C19 1_555 1_555
H33 C20 1_555 1_555
H34 C20 1_555 1_555
H35 C20 1_555 1_555
C21 C19 1_555 1_555
C22 C21 1_555 1_555
H36 C22 1_555 1_555
C23 C22 1_555 1_555
H37 C23 1_555 1_555
H38 C23 1_555 1_555
H39 C23 1_555 1_555
C24 C22 1_555 1_555
H40 C24 1_555 1_555
H41 C24 1_555 1_555
C25 C24 1_555 1_555
H42 C25 1_555 1_555
H43 C25 1_555 1_555
C26 C25 1_555 1_555
H44 C26 1_555 1_555
H45 C26 1_555 1_555
C27 O9 1_555 1_555
C28 C27 1_555 1_555
H46 C28 1_555 1_555
H47 C28 1_555 1_555
H48 C28 1_555 1_555
C29 C27 1_555 1_555
C30 C29 1_555 1_555
H49 C30 1_555 1_555
C31 C30 1_555 1_555
H50 C31 1_555 1_555
H51 C31 1_555 1_555
H52 C31 1_555 1_555
C32 C30 1_555 1_555
H53 C32 1_555 1_555
H54 C32 1_555 1_555
C33 C32 1_555 1_555
H55 C33 1_555 1_555
H56 C33 1_555 1_555
C34 O12 1_555 1_555
C1 C2 1_555 1_555
C9 C10 1_555 1_555
C16 C17 1_555 1_555
C18 C19 1_555 1_555
C26 C27 1_555 1_555
C33 C34 1_555 1_555

#END
