
#######################################################################
#
#                 Cambridge Crystallographic Data Centre
#                                CCDC 
#
#######################################################################
#
# If this CIF has been generated from an entry in the Cambridge 
# Structural Database, then it will include bibliographic, chemical, 
# crystal, experimental, refinement or atomic coordinate data resulting 
# from the CCDC's data processing and validation procedures.
#
#######################################################################

data_MUDFOI
_chemical_formula_moiety         'C10 H10 I1 N1 O1'
_chemical_name_systematic        1-ethyl-5-iodo-1,3-dihydro-2H-indol-2-one
_symmetry_cell_setting           orthorhombic
_symmetry_space_group_name_H-M   'P 21 21 21'
_symmetry_Int_Tables_number      19
_space_group_name_Hall           'P 2ac 2ab'
loop_
_symmetry_equiv_pos_site_id
_symmetry_equiv_pos_as_xyz
1 x,y,z
2 1/2+x,1/2-y,-z
3 -x,1/2+y,1/2-z
4 1/2-x,-y,1/2+z
_cell_length_a                   4.4622(1)
_cell_length_b                   8.2664(2)
_cell_length_c                   27.4400(5)
_cell_angle_alpha                90
_cell_angle_beta                 90
_cell_angle_gamma                90
_cell_volume                     1012.16
_exptl_crystal_colour            orange
_exptl_crystal_description       parallelepiped
_cell_formula_units_Z            4
loop_
_atom_site_label
_atom_site_type_symbol
_atom_site_fract_x
_atom_site_fract_y
_atom_site_fract_z
I1 I 0.57349(4) -0.10015(2) 0.963176(7)
C1 C 0.7961(6) 0.0703(3) 0.91955(9)
O1 O 1.3877(6) 0.3521(3) 0.74792(8)
C2 C 0.8354(6) 0.0383(3) 0.87003(10)
C3 C 0.9948(5) 0.1476(3) 0.84294(9)
C4 C 1.1096(6) 0.2881(3) 0.86420(9)
N1 N 1.2652(5) 0.3781(3) 0.82916(8)
C5 C 1.4198(8) 0.5309(4) 0.83826(12)
C6 C 1.2102(8) 0.6717(4) 0.84543(12)
H1 H 1.0772 0.6795 0.8180
H2 H 1.3242 0.7698 0.8482
H3 H 1.0955 0.6557 0.8746
C7 C 1.2634(7) 0.3027(3) 0.78470(10)
C8 C 1.0825(9) 0.1476(3) 0.78985(10)
C9 C 1.0700(8) 0.3218(3) 0.91288(10)
C10 C 0.9096(8) 0.2096(4) 0.94064(9)
H4 H 1.216(8) 0.054(4) 0.7827(11)
H5 H 0.899(12) 0.165(5) 0.7685(17)
H6 H 0.754(8) -0.062(4) 0.8534(12)
H7 H 0.884(8) 0.234(4) 0.9737(11)
H8 H 1.143(7) 0.419(4) 0.9266(11)
H9 H 1.548(9) 0.555(4) 0.8089(13)
H10 H 1.528(10) 0.520(5) 0.8662(14)
loop_
_geom_bond_atom_site_label_1
_geom_bond_atom_site_label_2
_geom_bond_site_symmetry_1
_geom_bond_site_symmetry_2
I1 C1 1_555 1_555
C1 C2 1_555 1_555
O1 C7 1_555 1_555
C2 C3 1_555 1_555
C3 C4 1_555 1_555
C4 N1 1_555 1_555
N1 C5 1_555 1_555
C5 C6 1_555 1_555
C6 H1 1_555 1_555
H2 C6 1_555 1_555
H3 C6 1_555 1_555
C7 N1 1_555 1_555
C8 C3 1_555 1_555
C9 C4 1_555 1_555
C10 C1 1_555 1_555
H4 C8 1_555 1_555
H5 C8 1_555 1_555
H6 C2 1_555 1_555
H7 C10 1_555 1_555
H8 C9 1_555 1_555
H9 C5 1_555 1_555
H10 C5 1_555 1_555
C7 C8 1_555 1_555
C9 C10 1_555 1_555

#END
