
#######################################################################
#
#                 Cambridge Crystallographic Data Centre
#                                CCDC 
#
#######################################################################
#
# If this CIF has been generated from an entry in the Cambridge 
# Structural Database, then it will include bibliographic, chemical, 
# crystal, experimental, refinement or atomic coordinate data resulting 
# from the CCDC's data processing and validation procedures.
#
#######################################################################

data_MUDGUO
_chemical_formula_moiety         'C22 H29 N1 O7 S1,0.5(C6 H14)'
_chemical_name_systematic        
'3a,4,10,12-Tetrahydroxy-4,12-dimethyl-2-phenyl-4,5,9,10,13,14,15,15a-octahydro-3aH-oxacyclotetradecino[4,5-d][1,3]thiazole-7,11(8H,12H)-dione hexane'
_symmetry_cell_setting           monoclinic
_symmetry_space_group_name_H-M   'P 21/c'
_symmetry_Int_Tables_number      14
_space_group_name_Hall           '-P 2ybc'
loop_
_symmetry_equiv_pos_site_id
_symmetry_equiv_pos_as_xyz
1 x,y,z
2 -x,1/2+y,1/2-z
3 -x,-y,-z
4 x,1/2-y,1/2+z
_cell_length_a                   10.8167(2)
_cell_length_b                   21.5317(4)
_cell_length_c                   10.6353(2)
_cell_angle_alpha                90
_cell_angle_beta                 99.470(1)
_cell_angle_gamma                90
_cell_volume                     2443.23
_exptl_crystal_colour            colorless
_exptl_crystal_description       lathe
_cell_formula_units_Z            4
loop_
_atom_site_label
_atom_site_type_symbol
_atom_site_fract_x
_atom_site_fract_y
_atom_site_fract_z
S1 S 0.71323(11) 0.03646(6) 0.20788(10)
N1 N 0.9379(4) 0.0290(2) 0.1482(3)
O1 O 0.8456(3) 0.03567(15) -0.0648(3)
H1 H 0.902(4) 0.027(2) -0.104(5)
O2 O 1.0672(3) 0.0998(2) -0.0169(3)
H2 H 1.084(7) 0.068(2) 0.025(6)
O3 O 0.8208(3) 0.20994(16) -0.0148(3)
O4 O 0.7557(4) 0.25689(18) -0.2005(3)
O5 O 0.3654(5) 0.3309(2) -0.2033(3)
H3 H 0.336(7) 0.312(3) -0.268(5)
O6 O 0.4094(3) 0.27956(18) 0.0678(3)
O7 O 0.2724(3) 0.18015(18) 0.0348(3)
H4 H 0.245(6) 0.1448(13) 0.024(7)
C1 C 0.8729(4) 0.0701(2) 0.0494(4)
C2 C 0.7456(4) 0.0914(2) 0.0866(4)
H5 H 0.7585 0.1324 0.1268
C3 C 0.8681(5) 0.0083(3) 0.2253(4)
C4 C 0.9619(4) 0.1247(3) 0.0325(4)
C5 C 0.9048(4) 0.1703(2) -0.0700(4)
H6 H 0.9701 0.1949 -0.0986
H7 H 0.8595 0.1481 -0.1426
C6 C 0.7531(5) 0.2521(2) -0.0887(4)
C7 C 0.6803(5) 0.2905(2) -0.0102(4)
H8 H 0.7373 0.3191 0.0406
H9 H 0.6459 0.2634 0.0481
C8 C 0.5741(6) 0.3275(2) -0.0859(5)
H10 H 0.5484 0.3592 -0.0307
H11 H 0.6055 0.3485 -0.1548
C9 C 0.4601(5) 0.2899(2) -0.1417(4)
H12 H 0.4824 0.2596 -0.2030
C10 C 0.4008(4) 0.2567(2) -0.0379(4)
C11 C 0.3305(4) 0.1965(2) -0.0722(4)
C12 C 0.4231(4) 0.1456(2) -0.0969(4)
H13 H 0.3763 0.1078 -0.1216
H14 H 0.4629 0.1582 -0.1682
C13 C 0.5247(3) 0.1311(2) 0.0161(4)
H15 H 0.4888 0.1063 0.0772
H16 H 0.5542 0.1697 0.0576
C14 C 0.6360(4) 0.0963(2) -0.0214(4)
H17 H 0.6094 0.0549 -0.0496
H18 H 0.6631 0.1176 -0.0926
C15 C 1.0108(4) 0.1586(3) 0.1576(4)
H19 H 1.0556 0.1299 0.2175
H20 H 0.9414 0.1756 0.1921
H21 H 1.0659 0.1916 0.1416
C16 C 0.2283(4) 0.2053(3) -0.1882(4)
H22 H 0.1824 0.1672 -0.2057
H23 H 0.2660 0.2165 -0.2607
H24 H 0.1722 0.2376 -0.1713
C17 C 0.9236(5) -0.0328(2) 0.3294(4)
C18 C 1.0525(4) -0.0385(2) 0.3668(4)
H25 H 1.1067 -0.0144 0.3277
C19 C 1.1002(4) -0.0801(2) 0.4625(4)
H26 H 1.1864 -0.0839 0.4874
C20 C 1.0191(5) -0.1160(2) 0.5208(4)
H27 H 1.0511 -0.1438 0.5849
C21 C 0.8903(5) -0.1103(2) 0.4835(5)
H28 H 0.8361 -0.1344 0.5226
C22 C 0.8426(4) -0.0687(3) 0.3878(5)
H29 H 0.7564 -0.0649 0.3628
C23? C 0.630(2) -0.0329(9) 0.7443(16)
H30? H 0.6583 -0.0088 0.8195
H31? H 0.5502 -0.0513 0.7507
H32? H 0.6895 -0.0650 0.7362
C24? C 0.616(2) 0.0090(9) 0.6280(17)
H33? H 0.5564 0.0425 0.6319
H34? H 0.6952 0.0257 0.6125
C25? C 0.5621(14) -0.0435(8) 0.5285(13)
H35? H 0.5533 -0.0831 0.5697
H36? H 0.6132 -0.0487 0.4623
C26? C 0.4353(12) -0.0140(7) 0.4776(11)
H37? H 0.4359 0.0300 0.4974
H38? H 0.3689 -0.0339 0.5141
C27? C 0.4177(14) -0.0240(10) 0.3384(12)
H39? H 0.4588 0.0087 0.2980
H40? H 0.4534 -0.0636 0.3195
C28? C 0.2750(18) -0.0234(15) 0.289(2)
H41? H 0.2603 -0.0291 0.1979
H42? H 0.2356 -0.0564 0.3281
H43? H 0.2405 0.0157 0.3091
C29? C 0.8745(12) -0.0497(6) 0.3195(13)
C30? C 0.9888(11) -0.0803(7) 0.3290(12)
C31? C 1.0171(11) -0.1287(7) 0.4153(12)
C32? C 0.9311(13) -0.1466(6) 0.4922(11)
C33? C 0.8168(12) -0.1160(7) 0.4827(13)
C34? C 0.7885(10) -0.0675(7) 0.3964(15)
H44? H 1.0464 -0.0684 0.2775
H45? H 1.0936 -0.1492 0.4216
H46? H 0.9500 -0.1790 0.5499
H47? H 0.7593 -0.1279 0.5342
H48? H 0.7120 -0.0471 0.3901
loop_
_geom_bond_atom_site_label_1
_geom_bond_atom_site_label_2
_geom_bond_site_symmetry_1
_geom_bond_site_symmetry_2
S1 C2 1_555 1_555
N1 C1 1_555 1_555
O1 H1 1_555 1_555
O2 H2 1_555 1_555
O3 C5 1_555 1_555
O4 C6 1_555 1_555
O5 H3 1_555 1_555
O6 C10 1_555 1_555
O7 H4 1_555 1_555
C1 O1 1_555 1_555
C2 C1 1_555 1_555
H5 C2 1_555 1_555
C3 S1 1_555 1_555
C4 O2 1_555 1_555
C5 C4 1_555 1_555
H6 C5 1_555 1_555
H7 C5 1_555 1_555
C6 O3 1_555 1_555
C7 C6 1_555 1_555
H8 C7 1_555 1_555
H9 C7 1_555 1_555
C8 C7 1_555 1_555
H10 C8 1_555 1_555
H11 C8 1_555 1_555
C9 O5 1_555 1_555
H12 C9 1_555 1_555
C10 C9 1_555 1_555
C11 O7 1_555 1_555
C12 C11 1_555 1_555
H13 C12 1_555 1_555
H14 C12 1_555 1_555
C13 C12 1_555 1_555
H15 C13 1_555 1_555
H16 C13 1_555 1_555
C14 C2 1_555 1_555
H17 C14 1_555 1_555
H18 C14 1_555 1_555
C15 C4 1_555 1_555
H19 C15 1_555 1_555
H20 C15 1_555 1_555
H21 C15 1_555 1_555
C16 C11 1_555 1_555
H22 C16 1_555 1_555
H23 C16 1_555 1_555
H24 C16 1_555 1_555
C17 C3 1_555 1_555
C18 C17 1_555 1_555
H25 C18 1_555 1_555
C19 C18 1_555 1_555
H26 C19 1_555 1_555
C20 C19 1_555 1_555
H27 C20 1_555 1_555
C21 C20 1_555 1_555
H28 C21 1_555 1_555
C22 C17 1_555 1_555
H29 C22 1_555 1_555
N1 C3 1_555 1_555
C1 C4 1_555 1_555
C8 C9 1_555 1_555
C10 C11 1_555 1_555
C13 C14 1_555 1_555
C21 C22 1_555 1_555

#END
