
#######################################################################
#
#                 Cambridge Crystallographic Data Centre
#                                CCDC 
#
#######################################################################
#
# If this CIF has been generated from an entry in the Cambridge 
# Structural Database, then it will include bibliographic, chemical, 
# crystal, experimental, refinement or atomic coordinate data resulting 
# from the CCDC's data processing and validation procedures.
#
#######################################################################

data_MUDGOI
_chemical_formula_moiety         'C21 H36 O5 Si1'
_chemical_name_systematic        
7-Hydroxy-7,13-dimethyl-5-((triethylsilyl)oxy)oxacyclotetradeca-11,12-diene-2,6-dione
_symmetry_cell_setting           monoclinic
_symmetry_space_group_name_H-M   'P 21/n'
_symmetry_Int_Tables_number      14
_space_group_name_Hall           '-P 2yn'
loop_
_symmetry_equiv_pos_site_id
_symmetry_equiv_pos_as_xyz
1 x,y,z
2 1/2-x,1/2+y,1/2-z
3 -x,-y,-z
4 1/2+x,1/2-y,1/2+z
_cell_length_a                   15.3280(2)
_cell_length_b                   8.3368(1)
_cell_length_c                   17.8070(3)
_cell_angle_alpha                90
_cell_angle_beta                 106.080(1)
_cell_angle_gamma                90
_cell_volume                     2186.47
_exptl_crystal_colour            colorless
_exptl_crystal_description       needle
_cell_formula_units_Z            4
loop_
_atom_site_label
_atom_site_type_symbol
_atom_site_fract_x
_atom_site_fract_y
_atom_site_fract_z
Si1 Si 0.64685(3) 0.66097(6) 1.07717(3)
O1 O 0.68864(9) 0.27890(15) 0.81248(7)
H1 H 0.6547 0.3295 0.7748
O2 O 0.60491(8) 0.55763(16) 0.81384(7)
O3 O 0.63407(8) 0.61499(15) 0.98384(7)
O4 O 0.87352(9) 0.89055(18) 0.97052(7)
O5 O 0.88966(8) 0.90212(15) 0.84862(7)
C1 C 0.98364(12) 0.9526(2) 0.87580(11)
H2 H 0.9955 0.9944 0.9297
H3 H 0.9939 1.0413 0.8423
C2 C 1.04978(13) 0.8195(2) 0.87501(10)
C3 C 1.13780(13) 0.8757(2) 0.86124(12)
H4 H 1.1771 0.7830 0.8610
H5 H 1.1684 0.9496 0.9030
H6 H 1.1250 0.9309 0.8108
C4 C 1.03420(12) 0.6696(2) 0.88725(11)
C5 C 1.02071(13) 0.5172(2) 0.89817(12)
H7 H 1.0435 0.4766 0.9497
C6 C 0.97214(13) 0.4015(2) 0.83594(12)
H8 H 1.0145 0.3154 0.8305
H9 H 0.9516 0.4582 0.7853
C7 C 0.88990(13) 0.3272(2) 0.85632(12)
H10 H 0.8620 0.2452 0.8167
H11 H 0.9103 0.2733 0.9078
C8 C 0.81929(12) 0.4546(2) 0.85899(11)
H12 H 0.8037 0.5143 0.8090
H13 H 0.8468 0.5317 0.9012
C9 C 0.73088(12) 0.3883(2) 0.87283(10)
C10 C 0.74681(13) 0.2986(2) 0.94996(11)
H14 H 0.6884 0.2651 0.9571
H15 H 0.7779 0.3692 0.9931
H16 H 0.7844 0.2038 0.9493
C11 C 0.66967(12) 0.5347(2) 0.86981(10)
C12 C 0.69409(12) 0.6551(2) 0.93822(10)
H17 H 0.7584 0.6386 0.9697
C13 C 0.68072(13) 0.8276(2) 0.90965(11)
H18 H 0.6929 0.8999 0.9555
H19 H 0.6165 0.8425 0.8794
C14 C 0.74157(12) 0.8761(2) 0.85862(10)
H20 H 0.7338 0.7968 0.8159
H21 H 0.7208 0.9813 0.8344
C15 C 0.84076(13) 0.8880(2) 0.90080(10)
C16 C 0.77104(12) 0.6574(2) 1.12931(11)
H22 H 0.7945 0.5478 1.1257
H23 H 0.8030 0.7310 1.1022
C17 C 0.79370(14) 0.7055(3) 1.21573(11)
H24 H 0.7706 0.8138 1.2200
H25 H 0.8597 0.7040 1.2385
H26 H 0.7653 0.6296 1.2438
C18 C 0.58079(13) 0.5043(2) 1.11215(11)
H27 H 0.5951 0.5120 1.1698
H28 H 0.5153 0.5280 1.0905
C19 C 0.59797(14) 0.3319(2) 1.09066(12)
H29 H 0.5838 0.3221 1.0337
H30 H 0.5592 0.2587 1.1102
H31 H 0.6619 0.3044 1.1143
C20 C 0.59772(13) 0.8644(2) 1.08646(11)
H32 H 0.6465 0.9454 1.0932
H33 H 0.5511 0.8892 1.0370
C21 C 0.55459(15) 0.8808(3) 1.15435(13)
H34 H 0.5044 0.8044 1.1472
H35 H 0.5315 0.9902 1.1554
H36 H 0.6003 0.8584 1.2038
loop_
_geom_bond_atom_site_label_1
_geom_bond_atom_site_label_2
_geom_bond_site_symmetry_1
_geom_bond_site_symmetry_2
Si1 O3 1_555 1_555
O1 H1 1_555 1_555
O2 C11 1_555 1_555
O3 C12 1_555 1_555
O4 C15 1_555 1_555
O5 C1 1_555 1_555
C1 H2 1_555 1_555
H3 C1 1_555 1_555
C2 C1 1_555 1_555
C3 C2 1_555 1_555
H4 C3 1_555 1_555
H5 C3 1_555 1_555
H6 C3 1_555 1_555
C4 C2 1_555 1_555
C5 C4 1_555 1_555
H7 C5 1_555 1_555
C6 C5 1_555 1_555
H8 C6 1_555 1_555
H9 C6 1_555 1_555
C7 C6 1_555 1_555
H10 C7 1_555 1_555
H11 C7 1_555 1_555
C8 C7 1_555 1_555
H12 C8 1_555 1_555
H13 C8 1_555 1_555
C9 O1 1_555 1_555
C10 C9 1_555 1_555
H14 C10 1_555 1_555
H15 C10 1_555 1_555
H16 C10 1_555 1_555
C11 C9 1_555 1_555
C12 C11 1_555 1_555
H17 C12 1_555 1_555
C13 C12 1_555 1_555
H18 C13 1_555 1_555
H19 C13 1_555 1_555
C14 C13 1_555 1_555
H20 C14 1_555 1_555
H21 C14 1_555 1_555
C15 O5 1_555 1_555
C16 Si1 1_555 1_555
H22 C16 1_555 1_555
H23 C16 1_555 1_555
C17 C16 1_555 1_555
H24 C17 1_555 1_555
H25 C17 1_555 1_555
H26 C17 1_555 1_555
C18 Si1 1_555 1_555
H27 C18 1_555 1_555
H28 C18 1_555 1_555
C19 C18 1_555 1_555
H29 C19 1_555 1_555
H30 C19 1_555 1_555
H31 C19 1_555 1_555
C20 Si1 1_555 1_555
H32 C20 1_555 1_555
H33 C20 1_555 1_555
C21 C20 1_555 1_555
H34 C21 1_555 1_555
H35 C21 1_555 1_555
H36 C21 1_555 1_555
C8 C9 1_555 1_555
C14 C15 1_555 1_555

#END
