
#######################################################################
#
#                 Cambridge Crystallographic Data Centre
#                                CCDC 
#
#######################################################################
#
# If this CIF has been generated from an entry in the Cambridge 
# Structural Database, then it will include bibliographic, chemical, 
# crystal, experimental, refinement or atomic coordinate data resulting 
# from the CCDC's data processing and validation procedures.
#
#######################################################################

data_MUDHIC01
_chemical_formula_moiety         'C22 H19 N3 O2'
_chemical_name_systematic        
4-(((2-Hydroxy-1-naphthyl)methylidene)amino)-1,5-dimethyl-2-phenyl-1H-pyrazol-3(2H)-one
_symmetry_cell_setting           orthorhombic
_symmetry_space_group_name_H-M   'P n a 21'
_symmetry_Int_Tables_number      33
_space_group_name_Hall           'P 2c -2n'
loop_
_symmetry_equiv_pos_site_id
_symmetry_equiv_pos_as_xyz
1 x,y,z
2 -x,-y,1/2+z
3 1/2-x,1/2+y,1/2+z
4 1/2+x,1/2-y,z
_cell_length_a                   11.7130(10)
_cell_length_b                   14.9510(10)
_cell_length_c                   21.877(2)
_cell_angle_alpha                90
_cell_angle_beta                 90
_cell_angle_gamma                90
_cell_volume                     3831.12
_exptl_crystal_colour            yellow
_exptl_crystal_description       block
_cell_formula_units_Z            8
_exptl_crystal_recrystallization_method methanol
loop_
_atom_site_label
_atom_site_type_symbol
_atom_site_fract_x
_atom_site_fract_y
_atom_site_fract_z
O1 O 0.4986(3) 0.4407(2) 0.39088(17)
H1 H 0.5623 0.4411 0.4065
O2 O 0.8274(3) 0.24940(15) 0.52372(16)
N1 N 0.6663(2) 0.3787(2) 0.44958(14)
N2 N 0.8834(3) 0.47425(17) 0.54214(14)
N3 N 0.9123(3) 0.38358(18) 0.54892(15)
C1 C 0.5324(3) 0.2843(3) 0.39861(18)
C2 C 0.4672(3) 0.3559(3) 0.37953(17)
C3 C 0.3658(4) 0.3422(4) 0.3478(2)
H2 H 0.3220 0.3912 0.3361
C4 C 0.3300(4) 0.2591(3) 0.3338(2)
H3 H 0.2621 0.2520 0.3123
C5 C 0.3925(3) 0.1827(3) 0.35072(18)
C6 C 0.3585(4) 0.0967(3) 0.33524(19)
H4 H 0.2897 0.0891 0.3147
C7 C 0.4221(4) 0.0229(3) 0.3490(2)
H5 H 0.3984 -0.0339 0.3373
C8 C 0.5239(4) 0.0355(3) 0.3812(2)
H6 H 0.5679 -0.0143 0.3911
C9 C 0.5605(3) 0.1167(3) 0.3983(2)
H7 H 0.6282 0.1217 0.4203
C10 C 0.4974(3) 0.1959(3) 0.38331(19)
C11 C 0.6342(3) 0.2981(2) 0.43532(17)
H8 H 0.6764 0.2492 0.4487
C12 C 0.7611(3) 0.3958(2) 0.48612(16)
C13 C 0.7976(3) 0.4771(3) 0.50101(19)
C14 C 0.7563(4) 0.5674(3) 0.4780(2)
H9 H 0.8192 0.6085 0.4767
H10 H 0.6985 0.5900 0.5050
H11 H 0.7251 0.5607 0.4377
C15 C 0.9715(4) 0.5396(3) 0.5513(3)
H12 H 1.0219 0.5396 0.5167
H13 H 1.0138 0.5251 0.5875
H14 H 0.9376 0.5977 0.5557
C16 C 0.8316(3) 0.3310(2) 0.51801(18)
C17 C 0.9718(3) 0.3562(2) 0.60279(19)
C18 C 0.9366(4) 0.3844(3) 0.6594(2)
H15 H 0.8728 0.4210 0.6632
C19 C 0.9954(5) 0.3585(4) 0.7103(3)
H16 H 0.9731 0.3787 0.7487
C20 C 1.0888(6) 0.3019(4) 0.7044(3)
H17 H 1.1263 0.2808 0.7390
C21 C 1.1255(5) 0.2770(4) 0.6467(4)
H18 H 1.1914 0.2429 0.6425
C22 C 1.0658(4) 0.3022(3) 0.5962(2)
H19 H 1.0885 0.2830 0.5576
O3 O 0.7437(3) 0.0598(2) 0.17357(17)
H20 H 0.7990 0.0582 0.1506
O4 O 1.0713(3) 0.25090(15) 0.04195(17)
N4 N 0.9098(3) 0.1211(2) 0.11165(15)
N5 N 1.1240(3) 0.02692(18) 0.01714(15)
N6 N 1.1531(3) 0.11739(19) 0.01070(16)
C23 C 0.7772(3) 0.2179(3) 0.16267(18)
C24 C 0.7135(4) 0.1471(3) 0.1838(2)
C25 C 0.6123(4) 0.1616(3) 0.2169(2)
H21 H 0.5708 0.1128 0.2310
C26 C 0.5744(4) 0.2450(3) 0.2286(2)
H22 H 0.5056 0.2525 0.2492
C27 C 0.6374(4) 0.3218(3) 0.2100(2)
C28 C 0.6025(4) 0.4086(3) 0.22507(19)
H23 H 0.5360 0.4172 0.2475
C29 C 0.6645(4) 0.4800(3) 0.2072(2)
H24 H 0.6402 0.5376 0.2167
C30 C 0.7643(4) 0.4671(3) 0.1749(2)
H25 H 0.8070 0.5166 0.1630
C31 C 0.8020(4) 0.3833(3) 0.1597(2)
H26 H 0.8697 0.3769 0.1378
C32 C 0.7408(3) 0.3079(3) 0.17648(19)
C33 C 0.8790(3) 0.2011(3) 0.12645(16)
H27 H 0.9231 0.2493 0.1136
C34 C 1.0042(3) 0.1058(2) 0.07410(17)
C35 C 1.0389(3) 0.0210(3) 0.05805(19)
C36 C 0.9970(4) -0.0664(3) 0.0808(2)
H28 H 1.0008 -0.1098 0.0485
H29 H 0.9193 -0.0603 0.0942
H30 H 1.0436 -0.0857 0.1144
C37 C 1.2108(4) -0.0400(3) 0.0045(3)
H31 H 1.2741 -0.0317 0.0317
H32 H 1.2364 -0.0339 -0.0370
H33 H 1.1792 -0.0986 0.0103
C38 C 1.0738(3) 0.1693(2) 0.04304(18)
C39 C 1.2126(3) 0.1467(2) -0.04194(18)
C40 C 1.1767(4) 0.1229(3) -0.0991(2)
H34 H 1.1131 0.0865 -0.1042
C41 C 1.2375(6) 0.1542(4) -0.1496(3)
H35 H 1.2158 0.1378 -0.1889
C42 C 1.3302(6) 0.2097(4) -0.1407(3)
H36 H 1.3696 0.2314 -0.1745
C43 C 1.3639(6) 0.2327(4) -0.0853(4)
H37 H 1.4255 0.2714 -0.0805
C44 C 1.3079(4) 0.1993(3) -0.0344(2)
H38 H 1.3346 0.2123 0.0047
loop_
_geom_bond_atom_site_label_1
_geom_bond_atom_site_label_2
_geom_bond_site_symmetry_1
_geom_bond_site_symmetry_2
O1 H1 1_555 1_555
O2 C16 1_555 1_555
N1 C11 1_555 1_555
N2 N3 1_555 1_555
N3 C16 1_555 1_555
C1 C2 1_555 1_555
C2 O1 1_555 1_555
C3 C2 1_555 1_555
H2 C3 1_555 1_555
C4 C3 1_555 1_555
H3 C4 1_555 1_555
C5 C4 1_555 1_555
C6 C5 1_555 1_555
H4 C6 1_555 1_555
C7 C6 1_555 1_555
H5 C7 1_555 1_555
C8 C7 1_555 1_555
H6 C8 1_555 1_555
C9 C8 1_555 1_555
H7 C9 1_555 1_555
C10 C1 1_555 1_555
C11 C1 1_555 1_555
H8 C11 1_555 1_555
C12 N1 1_555 1_555
C13 N2 1_555 1_555
C14 C13 1_555 1_555
H9 C14 1_555 1_555
H10 C14 1_555 1_555
H11 C14 1_555 1_555
C15 N2 1_555 1_555
H12 C15 1_555 1_555
H13 C15 1_555 1_555
H14 C15 1_555 1_555
C16 C12 1_555 1_555
C17 N3 1_555 1_555
C18 C17 1_555 1_555
H15 C18 1_555 1_555
C19 C18 1_555 1_555
H16 C19 1_555 1_555
C20 C19 1_555 1_555
H17 C20 1_555 1_555
C21 C20 1_555 1_555
H18 C21 1_555 1_555
C22 C17 1_555 1_555
H19 C22 1_555 1_555
O3 H20 1_555 1_555
O4 C38 1_555 1_555
N4 C33 1_555 1_555
N5 N6 1_555 1_555
N6 C38 1_555 1_555
C23 C24 1_555 1_555
C24 O3 1_555 1_555
C25 C24 1_555 1_555
H21 C25 1_555 1_555
C26 C25 1_555 1_555
H22 C26 1_555 1_555
C27 C26 1_555 1_555
C28 C27 1_555 1_555
H23 C28 1_555 1_555
C29 C28 1_555 1_555
H24 C29 1_555 1_555
C30 C29 1_555 1_555
H25 C30 1_555 1_555
C31 C30 1_555 1_555
H26 C31 1_555 1_555
C32 C23 1_555 1_555
C33 C23 1_555 1_555
H27 C33 1_555 1_555
C34 N4 1_555 1_555
C35 N5 1_555 1_555
C36 C35 1_555 1_555
H28 C36 1_555 1_555
H29 C36 1_555 1_555
H30 C36 1_555 1_555
C37 N5 1_555 1_555
H31 C37 1_555 1_555
H32 C37 1_555 1_555
H33 C37 1_555 1_555
C38 C34 1_555 1_555
C39 N6 1_555 1_555
C40 C39 1_555 1_555
H34 C40 1_555 1_555
C41 C40 1_555 1_555
H35 C41 1_555 1_555
C42 C41 1_555 1_555
H36 C42 1_555 1_555
C43 C42 1_555 1_555
H37 C43 1_555 1_555
C44 C39 1_555 1_555
H38 C44 1_555 1_555
C5 C10 1_555 1_555
C9 C10 1_555 1_555
C12 C13 1_555 1_555
C21 C22 1_555 1_555
C27 C32 1_555 1_555
C31 C32 1_555 1_555
C34 C35 1_555 1_555
C43 C44 1_555 1_555

#END
