
#######################################################################
#
#                 Cambridge Crystallographic Data Centre
#                                CCDC 
#
#######################################################################
#
# If this CIF has been generated from an entry in the Cambridge 
# Structural Database, then it will include bibliographic, chemical, 
# crystal, experimental, refinement or atomic coordinate data resulting 
# from the CCDC's data processing and validation procedures.
#
#######################################################################

data_MUDLUT
_chemical_formula_moiety         'C20 H22 O6'
_chemical_name_systematic        
'Diethyl 2-oxo-15-oxatetracyclo[7.5.1.0^1,11^.0^3,8^]pentadeca-3,5,7-triene-13,13-dicarboxylate'
_symmetry_cell_setting           monoclinic
_symmetry_space_group_name_H-M   'C 2/c'
_symmetry_Int_Tables_number      15
_space_group_name_Hall           '-C 2yn'
loop_
_symmetry_equiv_pos_site_id
_symmetry_equiv_pos_as_xyz
1 x,y,z
2 -x,y,1/2-z
3 1/2+x,1/2+y,z
4 1/2-x,1/2+y,1/2-z
5 -x,-y,-z
6 x,-y,1/2+z
7 1/2-x,1/2-y,-z
8 1/2+x,1/2-y,1/2+z
_cell_length_a                   28.20(3)
_cell_length_b                   9.085(9)
_cell_length_c                   17.51(2)
_cell_angle_alpha                90
_cell_angle_beta                 122.27(3)
_cell_angle_gamma                90
_cell_volume                     3793.11
_exptl_crystal_colour            colorless
_exptl_crystal_description       block
_cell_formula_units_Z            8
loop_
_atom_site_label
_atom_site_type_symbol
_atom_site_fract_x
_atom_site_fract_y
_atom_site_fract_z
O1 O 0.05088(6) 0.69037(16) 0.22456(11)
C1 C 0.02221(8) 0.7861(2) 0.14591(16)
O2 O -0.07577(7) 0.8592(2) 0.06440(16)
O3 O 0.15629(8) 0.9570(2) 0.34025(13)
C2 C -0.04120(9) 0.7596(3) 0.09977(18)
C3 C 0.09980(9) 0.9464(2) 0.17974(17)
C4 C -0.05678(10) 0.6009(3) 0.09720(18)
C5 C 0.04354(9) 0.7341(2) 0.08263(17)
H1 H 0.0123 0.7299 0.0194
C6 C 0.04717(9) 0.5462(2) 0.18524(17)
H2 H 0.0723 0.4759 0.2320
O4 O 0.17644(8) 0.7740(2) 0.27443(16)
C7 C 0.04315(9) 0.9434(2) 0.17534(18)
H3 H 0.0488 0.9646 0.2339
H4 H 0.0169 1.0141 0.1317
O5 O 0.16962(7) 1.1061(2) 0.18966(16)
C8 C 0.14817(9) 0.8789(3) 0.26845(19)
C9 C -0.01354(10) 0.4945(3) 0.13823(17)
O6 O 0.08664(9) 1.2099(2) 0.1486(2)
C10 C 0.08726(10) 0.8525(3) 0.09544(19)
H5 H 0.0721 0.9143 0.0422
H6 H 0.1213 0.8061 0.1061
C11 C 0.11698(10) 1.1042(3) 0.17150(19)
C12 C 0.06682(10) 0.5767(2) 0.11895(19)
H7 H 0.0512 0.5052 0.0703
H8 H 0.1074 0.5746 0.1501
C13 C -0.02775(13) 0.3448(3) 0.1360(2)
H9 H 0.0004 0.2741 0.1630
C14 C -0.11328(11) 0.5559(3) 0.0546(2)
H10 H -0.1418 0.6255 0.0273
C15 C -0.08401(14) 0.3026(3) 0.0933(3)
H11 H -0.0932 0.2039 0.0916
C16 C -0.12646(14) 0.4082(4) 0.0532(3)
H12 H -0.1638 0.3795 0.0255
C17 C 0.19242(14) 1.2501(3) 0.1863(3)
H13 H 0.1627 1.3099 0.1391
H14 H 0.2209 1.2362 0.1719
C18 C 0.20335(15) 0.9064(4) 0.4282(2)
H15 H 0.1959 0.8075 0.4401
H16 H 0.2374 0.9040 0.4272
C19 C 0.2174(2) 1.3279(6) 0.2746(4)
H17 H 0.1888 1.3466 0.2873
H18 H 0.2334 1.4195 0.2719
H19 H 0.2462 1.2676 0.3216
C20 C 0.21074(18) 1.0056(6) 0.4994(3)
H20 H 0.2150 1.1047 0.4848
H21 H 0.2436 0.9776 0.5558
H22 H 0.1785 0.9998 0.5044
loop_
_geom_bond_atom_site_label_1
_geom_bond_atom_site_label_2
_geom_bond_site_symmetry_1
_geom_bond_site_symmetry_2
O1 C1 1_555 1_555
C1 C2 1_555 1_555
O2 C2 1_555 1_555
O3 C8 1_555 1_555
C2 C4 1_555 1_555
C3 C7 1_555 1_555
C4 C9 1_555 1_555
C5 C1 1_555 1_555
H1 C5 1_555 1_555
C6 O1 1_555 1_555
H2 C6 1_555 1_555
O4 C8 1_555 1_555
C7 C1 1_555 1_555
H3 C7 1_555 1_555
H4 C7 1_555 1_555
O5 C11 1_555 1_555
C8 C3 1_555 1_555
C9 C6 1_555 1_555
O6 C11 1_555 1_555
C10 C3 1_555 1_555
H5 C10 1_555 1_555
H6 C10 1_555 1_555
C11 C3 1_555 1_555
C12 C5 1_555 1_555
H7 C12 1_555 1_555
H8 C12 1_555 1_555
C13 C9 1_555 1_555
H9 C13 1_555 1_555
C14 C4 1_555 1_555
H10 C14 1_555 1_555
C15 C13 1_555 1_555
H11 C15 1_555 1_555
C16 C14 1_555 1_555
H12 C16 1_555 1_555
C17 O5 1_555 1_555
H13 C17 1_555 1_555
H14 C17 1_555 1_555
C18 O3 1_555 1_555
H15 C18 1_555 1_555
H16 C18 1_555 1_555
C19 C17 1_555 1_555
H17 C19 1_555 1_555
H18 C19 1_555 1_555
H19 C19 1_555 1_555
C20 C18 1_555 1_555
H20 C20 1_555 1_555
H21 C20 1_555 1_555
H22 C20 1_555 1_555
C5 C10 1_555 1_555
C6 C12 1_555 1_555
C15 C16 1_555 1_555

#END
