
#######################################################################
#
#                 Cambridge Crystallographic Data Centre
#                                CCDC 
#
#######################################################################
#
# If this CIF has been generated from an entry in the Cambridge 
# Structural Database, then it will include bibliographic, chemical, 
# crystal, experimental, refinement or atomic coordinate data resulting 
# from the CCDC's data processing and validation procedures.
#
#######################################################################

data_MUDPAD
_chemical_formula_moiety         'C24 H20 N2 O3'
_chemical_name_systematic        
2-(2-(4-Methoxyphenyl)-7,8-dihydrocyclohepta[b]pyrrol-1(6H)-yl)-1H-isoindole-1,3(2H)-dione
_symmetry_cell_setting           monoclinic
_symmetry_space_group_name_H-M   'P c'
_symmetry_Int_Tables_number      7
_space_group_name_Hall           'P -2yc'
loop_
_symmetry_equiv_pos_site_id
_symmetry_equiv_pos_as_xyz
1 x,y,z
2 x,-y,1/2+z
_cell_length_a                   9.688(2)
_cell_length_b                   18.712(4)
_cell_length_c                   13.6455(19)
_cell_angle_alpha                90
_cell_angle_beta                 127.461(9)
_cell_angle_gamma                90
_cell_volume                     1963.53
_exptl_crystal_colour            yellow
_exptl_crystal_description       block
_cell_formula_units_Z            4
loop_
_atom_site_label
_atom_site_type_symbol
_atom_site_fract_x
_atom_site_fract_y
_atom_site_fract_z
N1 N 0.9548(2) 0.09992(10) 0.47721(16)
C1 C 1.0196(3) 0.16710(12) 0.6547(2)
N2 N 0.9364(2) 0.11060(9) 0.56851(16)
O1 O 0.2264(2) 0.28404(10) 0.13482(16)
C2 C 0.9816(3) 0.15364(11) 0.7425(2)
C3 C 0.8612(3) 0.06051(11) 0.5994(2)
O2 O 0.7908(2) 0.00632(9) 0.54353(16)
C4 C 0.8577(3) 0.13535(11) 0.3640(2)
C5 C 1.1001(3) 0.06767(11) 0.4992(2)
C6 C 0.9411(3) 0.12138(12) 0.3137(2)
H1 H 0.9048 0.1372 0.2368
C7 C 0.5670(3) 0.15437(14) 0.3201(2)
H2 H 0.5829 0.1134 0.3645
C8 C 0.8893(3) 0.09047(11) 0.7109(2)
O3 O 1.1045(3) 0.21278(10) 0.65256(17)
C9 C 0.6711(3) 0.23919(13) 0.2503(2)
H3 H 0.7587 0.2563 0.2473
C10 C 0.8411(3) 0.06403(13) 0.7804(2)
H4 H 0.7807 0.0212 0.7601
C11 C 0.3866(3) 0.25258(13) 0.1941(2)
C12 C 1.3385(4) 0.00703(16) 0.4344(3)
H5 H 1.3975 -0.0041 0.4024
C13 C 1.0915(3) 0.07900(12) 0.3962(2)
C14 C 0.6992(3) 0.17680(12) 0.3145(2)
C15 C 1.2270(3) 0.02929(14) 0.6164(2)
H6 H 1.1793 -0.0171 0.6128
H7 H 1.2427 0.0559 0.6836
C16 C 1.2065(3) 0.05263(14) 0.3698(2)
H8 H 1.1850 0.0700 0.2978
C17 C 1.4037(3) 0.01857(15) 0.6446(2)
H9 H 1.4504 0.0650 0.6472
H10 H 1.4820 -0.0026 0.7260
C18 C 0.8861(3) 0.10381(15) 0.8818(2)
H11 H 0.8545 0.0874 0.9300
C19 C 0.5169(3) 0.27678(13) 0.1903(2)
H12 H 0.5015 0.3184 0.1475
C20 C 1.0260(3) 0.19297(15) 0.8432(2)
H13 H 1.0872 0.2356 0.8640
C21 C 1.4011(4) -0.02801(15) 0.5530(3)
H14 H 1.5180 -0.0456 0.5921
H15 H 1.3278 -0.0691 0.5344
C22 C 0.9762(4) 0.16682(17) 0.9126(3)
H16 H 1.0043 0.1924 0.9810
C23 C 0.1985(4) 0.35026(15) 0.0733(3)
H17 H 0.2795 0.3852 0.1321
H18 H 0.0820 0.3664 0.0348
H19 H 0.2154 0.3437 0.0114
C24 C 0.4129(3) 0.19167(14) 0.2611(2)
H20 H 0.3265 0.1759 0.2662
C25 C 0.5451(3) 0.50888(11) -0.00106(18)
O4 O 0.5270(2) 0.46408(10) 0.21692(15)
N3 N 0.6372(2) 0.54980(9) 0.10685(15)
N4 N 0.7439(2) 0.51944(10) 0.22278(14)
C26 C 0.6788(3) 0.47523(12) 0.26892(19)
C27 C 0.6471(3) 0.28905(12) -0.0175(2)
C28 C 0.9260(3) 0.52611(13) 0.3029(2)
C29 C 0.5861(3) 0.43428(11) -0.00561(18)
C30 C 0.4795(3) 0.31464(12) -0.0851(2)
H21 H 0.3861 0.2840 -0.1358
O5 O 0.6918(2) 0.21906(9) -0.01250(17)
C31 C 0.4503(3) 0.38615(12) -0.07750(18)
H22 H 0.3364 0.4025 -0.1218
C32 C 0.8355(3) 0.44849(12) 0.38742(19)
O6 O 1.0089(2) 0.56309(12) 0.28444(17)
C33 C 0.4141(3) 0.55158(12) -0.0893(2)
H23 H 0.3331 0.5394 -0.1720
C34 C 0.9808(3) 0.47928(12) 0.40761(18)
C35 C 0.4195(3) 0.61800(12) -0.0358(2)
C36 C 0.8497(4) 0.40089(14) 0.4702(2)
H24 H 0.7526 0.3805 0.4578
C37 C 0.7556(3) 0.40749(13) 0.0594(2)
H25 H 0.8494 0.4384 0.1066
C38 C 0.5563(3) 0.61513(12) 0.0867(2)
C39 C 0.7855(3) 0.33611(13) 0.0546(2)
H26 H 0.8990 0.3192 0.0998
C40 C 1.1466(3) 0.46403(15) 0.5106(2)
H27 H 1.2435 0.4850 0.5236
C41 C 0.6274(4) 0.66742(14) 0.1894(2)
H28 H 0.7531 0.6681 0.2382
H29 H 0.5985 0.6514 0.2426
C42 C 0.2887(4) 0.67396(15) -0.1034(3)
H30 H 0.2062 0.6663 -0.1878
C43 C 1.1623(4) 0.41641(18) 0.5934(2)
H31 H 1.2725 0.4051 0.6644
C44 C 0.5551(4) 0.16768(15) -0.0710(3)
H32 H 0.4899 0.1720 -0.0394
H33 H 0.6035 0.1205 -0.0544
H34 H 0.4796 0.1759 -0.1585
C45 C 1.0193(5) 0.38508(16) 0.5741(2)
H35 H 1.0355 0.3524 0.6317
C46 C 0.2724(5) 0.73296(19) -0.0613(3)
H36 H 0.1790 0.7620 -0.1184
C47 C 0.5601(5) 0.74193(19) 0.1467(4)
H37 H 0.6083 0.7702 0.2205
H38 H 0.6121 0.7598 0.1092
C48 C 0.3844(7) 0.7588(2) 0.0660(5)
H39 H 0.3764 0.8105 0.0622
H40 H 0.3327 0.7428 0.1047
loop_
_geom_bond_atom_site_label_1
_geom_bond_atom_site_label_2
_geom_bond_site_symmetry_1
_geom_bond_site_symmetry_2
N1 N2 1_555 1_555
C1 N2 1_555 1_555
N2 C3 1_555 1_555
O1 C11 1_555 1_555
C2 C1 1_555 1_555
C3 O2 1_555 1_555
C4 N1 1_555 1_555
C5 N1 1_555 1_555
C6 C4 1_555 1_555
H1 C6 1_555 1_555
C7 H2 1_555 1_555
C8 C2 1_555 1_555
O3 C1 1_555 1_555
C9 H3 1_555 1_555
C10 C8 1_555 1_555
H4 C10 1_555 1_555
C11 C19 1_555 1_555
C12 H5 1_555 1_555
C13 C5 1_555 1_555
C14 C4 1_555 1_555
C15 C5 1_555 1_555
H6 C15 1_555 1_555
H7 C15 1_555 1_555
C16 C12 1_555 1_555
H8 C16 1_555 1_555
C17 C15 1_555 1_555
H9 C17 1_555 1_555
H10 C17 1_555 1_555
C18 C10 1_555 1_555
H11 C18 1_555 1_555
C19 C9 1_555 1_555
H12 C19 1_555 1_555
C20 C2 1_555 1_555
H13 C20 1_555 1_555
C21 C12 1_555 1_555
H14 C21 1_555 1_555
H15 C21 1_555 1_555
C22 C18 1_555 1_555
H16 C22 1_555 1_555
C23 O1 1_555 1_555
H17 C23 1_555 1_555
H18 C23 1_555 1_555
H19 C23 1_555 1_555
C24 C7 1_555 1_555
H20 C24 1_555 1_555
C25 N3 1_555 1_555
O4 C26 1_555 1_555
N3 N4 1_555 1_555
N4 C26 1_555 1_555
C26 C32 1_555 1_555
C27 C30 1_555 1_555
C28 N4 1_555 1_555
C29 C25 1_555 1_555
C30 H21 1_555 1_555
O5 C27 1_555 1_555
C31 C29 1_555 1_555
H22 C31 1_555 1_555
C32 C34 1_555 1_555
O6 C28 1_555 1_555
C33 C25 1_555 1_555
H23 C33 1_555 1_555
C34 C28 1_555 1_555
C35 C33 1_555 1_555
C36 C32 1_555 1_555
H24 C36 1_555 1_555
C37 C29 1_555 1_555
H25 C37 1_555 1_555
C38 N3 1_555 1_555
C39 C27 1_555 1_555
H26 C39 1_555 1_555
C40 C34 1_555 1_555
H27 C40 1_555 1_555
C41 C38 1_555 1_555
H28 C41 1_555 1_555
H29 C41 1_555 1_555
C42 C35 1_555 1_555
H30 C42 1_555 1_555
C43 C40 1_555 1_555
H31 C43 1_555 1_555
C44 O5 1_555 1_555
H32 C44 1_555 1_555
H33 C44 1_555 1_555
H34 C44 1_555 1_555
C45 C36 1_555 1_555
H35 C45 1_555 1_555
C46 C42 1_555 1_555
H36 C46 1_555 1_555
C47 C41 1_555 1_555
H37 C47 1_555 1_555
H38 C47 1_555 1_555
C48 C46 1_555 1_555
H39 C48 1_555 1_555
H40 C48 1_555 1_555
C3 C8 1_555 1_555
C6 C13 1_555 1_555
C7 C14 1_555 1_555
C9 C14 1_555 1_555
C11 C24 1_555 1_555
C13 C16 1_555 1_555
C17 C21 1_555 1_555
C20 C22 1_555 1_555
C30 C31 1_555 1_555
C35 C38 1_555 1_555
C37 C39 1_555 1_555
C43 C45 1_555 1_555
C47 C48 1_555 1_555

#END
