
#######################################################################
#
#                 Cambridge Crystallographic Data Centre
#                                CCDC 
#
#######################################################################
#
# If this CIF has been generated from an entry in the Cambridge 
# Structural Database, then it will include bibliographic, chemical, 
# crystal, experimental, refinement or atomic coordinate data resulting 
# from the CCDC's data processing and validation procedures.
#
#######################################################################

data_MUDROT
_chemical_formula_moiety         'C18 H14 Cl1 F3 O2'
_chemical_name_systematic        
4-(4-Chlorophenyl)-3-methyl-3-(4-methylphenyl)-4-(trifluoromethyl)oxetan-2-one
_symmetry_cell_setting           monoclinic
_symmetry_space_group_name_H-M   'P 21'
_symmetry_Int_Tables_number      4
_space_group_name_Hall           'P 2yb'
loop_
_symmetry_equiv_pos_site_id
_symmetry_equiv_pos_as_xyz
1 x,y,z
2 -x,1/2+y,-z
_cell_length_a                   6.2698(13)
_cell_length_b                   7.4785(15)
_cell_length_c                   17.432(4)
_cell_angle_alpha                90
_cell_angle_beta                 95.01(3)
_cell_angle_gamma                90
_cell_volume                     814.241
_exptl_crystal_colour            colorless
_exptl_crystal_description       pillar
_cell_formula_units_Z            2
loop_
_atom_site_label
_atom_site_type_symbol
_atom_site_fract_x
_atom_site_fract_y
_atom_site_fract_z
Cl1 Cl 0.41850(11) 0.89230(8) 0.91697(3)
F1 F 0.1416(2) 0.71420(17) 1.27604(7)
F2 F -0.1459(2) 0.82553(17) 1.31552(7)
F3 F -0.1571(2) 0.69552(18) 1.20539(8)
O1 O -0.2036(2) 1.06797(19) 1.20320(8)
O2 O -0.2448(2) 1.3199(2) 1.27539(8)
C1 C 0.0924(3) 1.1382(2) 1.26754(10)
C2 C 0.0052(3) 0.9786(3) 1.21364(11)
C3 C -0.1384(3) 1.2010(3) 1.25550(11)
C4 C 0.2331(3) 1.2684(3) 1.22658(11)
H1 H 0.2517 1.3789 1.2566
H2 H 0.1643 1.2959 1.1753
H3 H 0.3733 1.2137 1.2216
C5 C -0.0375(3) 0.8020(3) 1.25334(12)
C6 C 0.1850(3) 1.1013(2) 1.34929(10)
C7 C 0.3905(3) 1.0299(3) 1.36197(11)
H4 H 0.4682 0.9998 1.3194
C8 C 0.4822(3) 1.0025(3) 1.43632(11)
H5 H 0.6222 0.9532 1.4438
C9 C 0.3738(3) 1.0456(3) 1.50023(11)
C10 C 0.1691(3) 1.1154(3) 1.48690(12)
H6 H 0.0912 1.1446 1.5296
C11 C 0.0748(3) 1.1440(3) 1.41261(11)
H7 H -0.0653 1.1929 1.4052
C12 C 0.4790(4) 1.0189(3) 1.58066(12)
H8 H 0.3728 1.0355 1.6181
H9 H 0.5947 1.1062 1.5906
H10 H 0.5380 0.8976 1.5855
C13 C 0.1047(3) 0.9509(2) 1.13878(11)
C14 C 0.3081(3) 0.8772(3) 1.13857(11)
H11 H 0.3819 0.8389 1.1856
C15 C 0.4045(3) 0.8588(3) 1.07043(12)
H12 H 0.5435 0.8082 1.0705
C16 C 0.2964(4) 0.9150(3) 1.00261(11)
C17 C 0.0946(4) 0.9889(3) 1.00100(11)
H13 H 0.0223 1.0272 0.9537
C18 C -0.0014(3) 1.0068(3) 1.06917(11)
H14 H -0.1404 1.0575 1.0686
loop_
_geom_bond_atom_site_label_1
_geom_bond_atom_site_label_2
_geom_bond_site_symmetry_1
_geom_bond_site_symmetry_2
Cl1 C16 1_555 1_555
F1 C5 1_555 1_555
F2 C5 1_555 1_555
F3 C5 1_555 1_555
O1 C2 1_555 1_555
O2 C3 1_555 1_555
C1 C2 1_555 1_555
C2 C5 1_555 1_555
C3 O1 1_555 1_555
C4 C1 1_555 1_555
H1 C4 1_555 1_555
H2 C4 1_555 1_555
H3 C4 1_555 1_555
C6 C1 1_555 1_555
C7 C6 1_555 1_555
H4 C7 1_555 1_555
C8 C7 1_555 1_555
H5 C8 1_555 1_555
C9 C8 1_555 1_555
C10 C9 1_555 1_555
H6 C10 1_555 1_555
C11 C6 1_555 1_555
H7 C11 1_555 1_555
C12 C9 1_555 1_555
H8 C12 1_555 1_555
H9 C12 1_555 1_555
H10 C12 1_555 1_555
C13 C2 1_555 1_555
C14 C13 1_555 1_555
H11 C14 1_555 1_555
C15 C14 1_555 1_555
H12 C15 1_555 1_555
C16 C15 1_555 1_555
C17 C16 1_555 1_555
H13 C17 1_555 1_555
C18 C13 1_555 1_555
H14 C18 1_555 1_555
C1 C3 1_555 1_555
C10 C11 1_555 1_555
C17 C18 1_555 1_555

#END
