
#######################################################################
#
#                 Cambridge Crystallographic Data Centre
#                                CCDC 
#
#######################################################################
#
# If this CIF has been generated from an entry in the Cambridge 
# Structural Database, then it will include bibliographic, chemical, 
# crystal, experimental, refinement or atomic coordinate data resulting 
# from the CCDC's data processing and validation procedures.
#
#######################################################################

data_MUDZUI
_chemical_formula_moiety         'C37 H31 O2 P1'
_chemical_name_systematic        
(2'-(t-butyl(phenyl)phosphoryl)-1,1'-binaphthalen-2-yl)(phenyl)methanone
_symmetry_cell_setting           orthorhombic
_symmetry_space_group_name_H-M   'P 21 21 21'
_symmetry_Int_Tables_number      19
_space_group_name_Hall           'P 2ac 2ab'
loop_
_symmetry_equiv_pos_site_id
_symmetry_equiv_pos_as_xyz
1 x,y,z
2 1/2-x,-y,1/2+z
3 -x,1/2+y,1/2-z
4 1/2+x,1/2-y,-z
_cell_length_a                   10.6865(3)
_cell_length_b                   16.5951(3)
_cell_length_c                   16.9234(3)
_cell_angle_alpha                90
_cell_angle_beta                 90
_cell_angle_gamma                90
_cell_volume                     3001.26
_exptl_crystal_colour            'light yellow'
_exptl_crystal_description       block
_cell_formula_units_Z            4
loop_
_atom_site_label
_atom_site_type_symbol
_atom_site_fract_x
_atom_site_fract_y
_atom_site_fract_z
P1 P 0.07367(8) 0.55794(4) 0.03809(4)
O1 O -0.0024(3) 0.60210(13) -0.02052(13)
O2 O -0.0873(3) 0.3514(2) -0.1390(4)
C1 C 0.1329(3) 0.46179(15) 0.00032(16)
C2 C 0.1341(3) 0.44517(17) -0.07957(15)
C3 C 0.1919(3) 0.37229(17) -0.10721(17)
C4 C 0.2003(4) 0.3535(2) -0.18891(19)
H1 H 0.1661 0.3886 -0.2259
C5 C 0.2576(4) 0.2849(2) -0.2139(2)
H2 H 0.2622 0.2739 -0.2677
C6 C 0.3087(5) 0.2317(2) -0.1607(3)
H3 H 0.3473 0.1850 -0.1788
C7 C 0.3035(6) 0.2468(2) -0.0817(3)
H4 H 0.3379 0.2101 -0.0463
C8 C 0.2462(4) 0.31804(18) -0.0528(2)
C9 C 0.2432(5) 0.3370(2) 0.0279(2)
H5 H 0.2793 0.3019 0.0642
C10 C 0.1884(4) 0.40582(19) 0.05368(18)
H6 H 0.1871 0.4168 0.1076
C11 C 0.0791(3) 0.50028(18) -0.14108(16)
C12 C 0.1545(4) 0.5650(2) -0.17093(17)
C13 C 0.2761(5) 0.5803(2) -0.1434(2)
H7 H 0.3113 0.5466 -0.1054
C14 C 0.3436(7) 0.6442(3) -0.1718(3)
H8 H 0.4236 0.6540 -0.1524
C15 C 0.2934(10) 0.6943(3) -0.2290(3)
H9 H 0.3416 0.7361 -0.2494
C16 C 0.1772(9) 0.6835(3) -0.2554(3)
H10 H 0.1436 0.7198 -0.2914
C17 C 0.1034(6) 0.6168(3) -0.2291(2)
C18 C -0.0206(8) 0.6017(4) -0.2566(3)
H11 H -0.0553 0.6348 -0.2952
C19 C -0.0868(6) 0.5409(4) -0.2278(3)
H12 H -0.1674 0.5327 -0.2469
C20 C -0.0402(4) 0.4874(3) -0.1689(2)
C21 C -0.2455(4) 0.4425(4) -0.1058(3)
C22 C -0.1219(4) 0.4212(3) -0.1385(3)
C23 C -0.2745(5) 0.5207(4) -0.0841(4)
H13 H -0.2184 0.5626 -0.0931
C24 C -0.3898(7) 0.5353(5) -0.0482(5)
H14 H -0.4123 0.5871 -0.0328
C25 C -0.4695(7) 0.4715(7) -0.0362(6)
H15 H -0.5451 0.4810 -0.0107
C26 C -0.4430(7) 0.3952(7) -0.0599(6)
H16 H -0.4996 0.3535 -0.0517
C27 C -0.3301(5) 0.3815(5) -0.0964(4)
H17 H -0.3111 0.3302 -0.1149
C28 C 0.2138(4) 0.61500(19) 0.06369(16)
C29 C 0.2162(5) 0.6951(2) 0.0391(2)
H18 H 0.1475 0.7168 0.0129
C30 C 0.3196(7) 0.7424(3) 0.0533(3)
H19 H 0.3207 0.7953 0.0352
C31 C 0.4195(7) 0.7134(4) 0.0929(4)
H20 H 0.4877 0.7465 0.1037
C32 C 0.4192(5) 0.6341(4) 0.1171(3)
H21 H 0.4885 0.6134 0.1434
C33 C 0.3169(4) 0.5849(3) 0.1029(2)
H22 H 0.3178 0.5316 0.1198
C34 C -0.0205(4) 0.5411(2) 0.1296(2)
C35 C -0.0799(7) 0.6224(3) 0.1466(4)
H23 H -0.0159 0.6630 0.1487
H24 H -0.1228 0.6203 0.1964
H25 H -0.1383 0.6354 0.1055
C36 C 0.0517(6) 0.5164(4) 0.2022(2)
H26 H 0.0850 0.4632 0.1948
H27 H -0.0030 0.5166 0.2472
H28 H 0.1191 0.5536 0.2108
C37 C -0.1212(6) 0.4803(4) 0.1083(4)
H29 H -0.1602 0.4958 0.0595
H30 H -0.1829 0.4786 0.1495
H31 H -0.0841 0.4279 0.1024
loop_
_geom_bond_atom_site_label_1
_geom_bond_atom_site_label_2
_geom_bond_site_symmetry_1
_geom_bond_site_symmetry_2
P1 O1 1_555 1_555
O2 C22 1_555 1_555
C1 P1 1_555 1_555
C2 C1 1_555 1_555
C3 C2 1_555 1_555
C4 C3 1_555 1_555
H1 C4 1_555 1_555
C5 C4 1_555 1_555
H2 C5 1_555 1_555
C6 C5 1_555 1_555
H3 C6 1_555 1_555
C7 C6 1_555 1_555
H4 C7 1_555 1_555
C8 C3 1_555 1_555
C9 C8 1_555 1_555
H5 C9 1_555 1_555
C10 C1 1_555 1_555
H6 C10 1_555 1_555
C11 C2 1_555 1_555
C12 C11 1_555 1_555
C13 C12 1_555 1_555
H7 C13 1_555 1_555
C14 C13 1_555 1_555
H8 C14 1_555 1_555
C15 C14 1_555 1_555
H9 C15 1_555 1_555
C16 C15 1_555 1_555
H10 C16 1_555 1_555
C17 C12 1_555 1_555
C18 C17 1_555 1_555
H11 C18 1_555 1_555
C19 C18 1_555 1_555
H12 C19 1_555 1_555
C20 C11 1_555 1_555
C21 C22 1_555 1_555
C22 C20 1_555 1_555
C23 C21 1_555 1_555
H13 C23 1_555 1_555
C24 C23 1_555 1_555
H14 C24 1_555 1_555
C25 C24 1_555 1_555
H15 C25 1_555 1_555
C26 C25 1_555 1_555
H16 C26 1_555 1_555
C27 C21 1_555 1_555
H17 C27 1_555 1_555
C28 P1 1_555 1_555
C29 C28 1_555 1_555
H18 C29 1_555 1_555
C30 C29 1_555 1_555
H19 C30 1_555 1_555
C31 C30 1_555 1_555
H20 C31 1_555 1_555
C32 C31 1_555 1_555
H21 C32 1_555 1_555
C33 C28 1_555 1_555
H22 C33 1_555 1_555
C34 P1 1_555 1_555
C35 C34 1_555 1_555
H23 C35 1_555 1_555
H24 C35 1_555 1_555
H25 C35 1_555 1_555
C36 C34 1_555 1_555
H26 C36 1_555 1_555
H27 C36 1_555 1_555
H28 C36 1_555 1_555
C37 C34 1_555 1_555
H29 C37 1_555 1_555
H30 C37 1_555 1_555
H31 C37 1_555 1_555
C7 C8 1_555 1_555
C9 C10 1_555 1_555
C16 C17 1_555 1_555
C19 C20 1_555 1_555
C26 C27 1_555 1_555
C32 C33 1_555 1_555

#END
