
#######################################################################
#
#                 Cambridge Crystallographic Data Centre
#                                CCDC 
#
#######################################################################
#
# If this CIF has been generated from an entry in the Cambridge 
# Structural Database, then it will include bibliographic, chemical, 
# crystal, experimental, refinement or atomic coordinate data resulting 
# from the CCDC's data processing and validation procedures.
#
#######################################################################

data_MUFBAR
_chemical_formula_moiety         'C22 H14 Cl1 N6 1+,C6 H6,Cl1 O4 1-'
_chemical_name_systematic        
'9-(9-Chloro-6H-pyrido[2,1-c][1,2,4]benzotriazin-6-yl)pyrido[2,1-c][1,2,4]benzotriazin-11-ium perchlorate benzene solvate'
_symmetry_cell_setting           monoclinic
_symmetry_space_group_name_H-M   'P 21/a'
_symmetry_Int_Tables_number      14
_space_group_name_Hall           '-P 2yab'
loop_
_symmetry_equiv_pos_site_id
_symmetry_equiv_pos_as_xyz
1 x,y,z
2 1/2-x,1/2+y,-z
3 -x,-y,-z
4 1/2+x,1/2-y,z
_cell_length_a                   7.518(3)
_cell_length_b                   27.568(8)
_cell_length_c                   12.404(4)
_cell_angle_alpha                90
_cell_angle_beta                 105.52(2)
_cell_angle_gamma                90
_cell_volume                     2477.07
_exptl_crystal_colour            blue
_exptl_crystal_description       block
_cell_formula_units_Z            4
loop_
_atom_site_label
_atom_site_type_symbol
_atom_site_fract_x
_atom_site_fract_y
_atom_site_fract_z
Cl1 Cl 0.00629(10) 0.07691(2) -0.05018(6)
N1 N -0.1307(3) 0.26060(7) -0.05267(17)
N2 N 0.0469(3) 0.30858(8) 0.09740(18)
N3 N 0.0254(3) 0.26903(8) 0.16504(18)
C1 C 0.0844(3) 0.32620(9) 0.3171(2)
H1 H 0.1007 0.3512 0.2703
C2 C 0.0859(3) 0.29678(9) 0.5027(2)
C3 C 0.1140(3) 0.18177(9) 0.1784(2)
H2 H 0.1788 0.1850 0.2532
N4 N 0.1470(3) 0.38019(7) 0.48081(17)
C4 C -0.0658(3) 0.17282(9) -0.0483(2)
H3 H -0.1208 0.1700 -0.1246
C5 C 0.0380(3) 0.27903(9) 0.2752(2)
N5 N 0.1801(3) 0.34363(8) 0.66170(19)
C6 C 0.1478(3) 0.42149(9) 0.4199(2)
H4 H 0.1185 0.4196 0.3423
C7 C -0.0614(3) 0.21679(9) 0.0055(2)
C8 C 0.0244(3) 0.25104(9) 0.4564(2)
H5 H 0.0021 0.2265 0.5025
C9 C -0.0024(3) 0.24246(9) 0.3457(2)
H6 H -0.0474 0.2126 0.3158
N6 N 0.1234(3) 0.30177(8) 0.61489(18)
C10 C -0.0410(3) 0.30348(9) -0.0077(2)
C11 C 0.1907(3) 0.46526(10) 0.4709(2)
H7 H 0.1884 0.4931 0.4282
C12 C 0.1054(3) 0.13711(10) 0.1267(2)
H8 H 0.1606 0.1101 0.1670
C13 C 0.1049(3) 0.33431(9) 0.4296(2)
C14 C 0.1875(3) 0.38264(10) 0.5956(2)
C15 C 0.0266(3) 0.22177(9) 0.1195(2)
C16 C -0.2627(4) 0.29771(10) -0.2281(2)
H9 H -0.3443 0.2969 -0.2991
C17 C -0.1572(4) 0.34002(10) -0.1900(2)
H10 H -0.1629 0.3661 -0.2384
C18 C 0.2357(4) 0.42739(10) 0.6481(2)
H11 H 0.2666 0.4292 0.7258
C19 C -0.2441(3) 0.25908(10) -0.1614(2)
H12 H -0.3078 0.2307 -0.1880
C20 C -0.0496(4) 0.34282(10) -0.0850(2)
H13 H 0.0205 0.3706 -0.0618
C21 C 0.2381(3) 0.46824(11) 0.5876(2)
H14 H 0.2710 0.4978 0.6233
C23 C 0.0140(3) 0.13297(9) 0.0147(2)
Cl2 Cl 0.65212(9) 0.39092(3) 0.46634(7)
O1 O 0.7668(3) 0.35570(11) 0.5299(3)
O2 O 0.6131(4) 0.43049(11) 0.5276(3)
O3 O 0.4804(3) 0.36935(9) 0.4024(2)
O4 O 0.7427(3) 0.40959(9) 0.3822(2)
C22 C 0.0035(4) 0.44341(11) 0.1114(2)
H15 H -0.0790 0.4194 0.0766
C24 C 0.1908(4) 0.43405(11) 0.1413(2)
H16 H 0.2347 0.4039 0.1265
C25 C -0.0620(4) 0.48833(11) 0.1329(3)
H17 H -0.1882 0.4945 0.1127
C26 C 0.3133(4) 0.47007(12) 0.1939(3)
H18 H 0.4397 0.4641 0.2143
C27 C 0.0598(4) 0.52369(11) 0.1842(3)
H19 H 0.0159 0.5540 0.1978
C28 C 0.2472(4) 0.51457(11) 0.2157(3)
H20 H 0.3288 0.5385 0.2517
O5? O 0.7986(15) 0.4144(5) 0.5666(10)
O6? O 0.5422(12) 0.3668(4) 0.5470(10)
O7? O 0.550(2) 0.4216(6) 0.4030(14)
O8? O 0.7504(18) 0.3519(5) 0.4430(13)
loop_
_geom_bond_atom_site_label_1
_geom_bond_atom_site_label_2
_geom_bond_site_symmetry_1
_geom_bond_site_symmetry_2
Cl1 C23 1_555 1_555
Cl2 O1 1_555 1_555
N1 C7 1_555 1_555
N2 N3 1_555 1_555
N3 C5 1_555 1_555
C1 H1 1_555 1_555
C2 C8 1_555 1_555
C3 H2 1_555 1_555
N4 C6 1_555 1_555
C4 H3 1_555 1_555
C5 C1 1_555 1_555
N5 N6 1_555 1_555
C6 H4 1_555 1_555
C7 C4 1_555 1_555
C8 H5 1_555 1_555
C9 C5 1_555 1_555
H6 C9 1_555 1_555
N6 C2 1_555 1_555
C10 N1 1_555 1_555
C11 C6 1_555 1_555
H7 C11 1_555 1_555
C12 C3 1_555 1_555
H8 C12 1_555 1_555
C13 C1 1_555 1_555
C14 N4 1_555 1_555
C15 N3 1_555 1_555
C16 H9 1_555 1_555
C17 C16 1_555 1_555
H10 C17 1_555 1_555
C18 C14 1_555 1_555
H11 C18 1_555 1_555
C19 N1 1_555 1_555
H12 C19 1_555 1_555
C20 C10 1_555 1_555
H13 C20 1_555 1_555
C21 C11 1_555 1_555
H14 C21 1_555 1_555
C22 H15 1_555 1_555
C23 C4 1_555 1_555
C24 C22 1_555 1_555
H16 C24 1_555 1_555
C25 C22 1_555 1_555
H17 C25 1_555 1_555
C26 C24 1_555 1_555
H18 C26 1_555 1_555
C27 C25 1_555 1_555
H19 C27 1_555 1_555
C28 C26 1_555 1_555
H20 C28 1_555 1_555
O2 Cl2 1_555 1_555
O3 Cl2 1_555 1_555
O4 Cl2 1_555 1_555
N2 C10 1_555 1_555
C2 C13 1_555 1_555
C3 C15 1_555 1_555
N4 C13 1_555 1_555
N5 C14 1_555 1_555
C7 C15 1_555 1_555
C8 C9 1_555 1_555
C12 C23 1_555 1_555
C16 C19 1_555 1_555
C17 C20 1_555 1_555
C18 C21 1_555 1_555
C27 C28 1_555 1_555

#END
