
#######################################################################
#
#                 Cambridge Crystallographic Data Centre
#                                CCDC 
#
#######################################################################
#
# If this CIF has been generated from an entry in the Cambridge 
# Structural Database, then it will include bibliographic, chemical, 
# crystal, experimental, refinement or atomic coordinate data resulting 
# from the CCDC's data processing and validation procedures.
#
#######################################################################

data_MUFCIB
_chemical_formula_moiety         'C44 H32 N4'
_chemical_name_systematic        
4,4'-quinoxaline-2,3-diylbis(N,N-diphenylaniline)
_symmetry_cell_setting           triclinic
_symmetry_space_group_name_H-M   'P -1'
_symmetry_Int_Tables_number      2
_space_group_name_Hall           '-P 1'
loop_
_symmetry_equiv_pos_site_id
_symmetry_equiv_pos_as_xyz
1 x,y,z
2 -x,-y,-z
_cell_length_a                   10.9996(4)
_cell_length_b                   15.5466(7)
_cell_length_c                   20.7794(10)
_cell_angle_alpha                97.458(3)
_cell_angle_beta                 104.211(3)
_cell_angle_gamma                109.487(3)
_cell_volume                     3159.02
_exptl_crystal_colour            yellow
_exptl_crystal_description       plate
_cell_formula_units_Z            4
loop_
_atom_site_label
_atom_site_type_symbol
_atom_site_fract_x
_atom_site_fract_y
_atom_site_fract_z
C1 C 0.2348(3) 0.0867(2) 0.14824(18)
C2 C 0.2032(3) 0.0529(2) 0.20341(18)
H1 H 0.246 0.0916 0.2483
C3 C 0.1087(3) -0.0377(2) 0.1926(2)
H2 H 0.0889 -0.0615 0.2303
C4 C 0.0440(3) -0.0929(2) 0.1274(2)
H3 H -0.0218 -0.1541 0.1199
C5 C 0.0752(3) -0.0588(2) 0.0726(2)
H4 H 0.0305 -0.097 0.0277
C6 C 0.1705(3) 0.0302(2) 0.08280(18)
H5 H 0.192 0.0527 0.045
C7 C 0.3126(3) 0.2322(2) 0.10928(17)
C8 C 0.4174(3) 0.2784(2) 0.08479(17)
H6 H 0.5038 0.2749 0.1012
C9 C 0.3952(3) 0.3294(2) 0.03650(18)
H7 H 0.4676 0.3616 0.0204
C10 C 0.2702(3) 0.3346(2) 0.01113(18)
H8 H 0.256 0.3695 -0.0223
C11 C 0.1665(3) 0.2882(2) 0.03510(17)
H9 H 0.08 0.2913 0.0181
C12 C 0.1869(3) 0.2369(2) 0.08380(17)
H10 H 0.1143 0.2049 0.0997
C13 C 0.4588(3) 0.2077(2) 0.21046(17)
C14 C 0.5159(3) 0.1433(2) 0.22764(18)
H11 H 0.469 0.0789 0.2052
C15 C 0.6402(3) 0.1721(2) 0.27695(18)
H12 H 0.6778 0.1268 0.2873
C16 C 0.7121(3) 0.2653(2) 0.31193(16)
C17 C 0.6527(3) 0.3291(2) 0.29567(16)
H13 H 0.6983 0.3931 0.3193
C18 C 0.5288(3) 0.3015(2) 0.24582(17)
H14 H 0.491 0.3467 0.2356
C19 C 0.8457(3) 0.2881(2) 0.36507(17)
C20 C 0.9541(3) 0.3791(2) 0.38710(16)
C21 C 1.0886(3) 0.3201(2) 0.45679(16)
C22 C 1.2159(3) 0.3329(2) 0.50036(16)
H15 H 1.2888 0.3922 0.5127
C23 C 1.2341(3) 0.2587(2) 0.52511(17)
H16 H 1.3206 0.2662 0.5538
C24 C 1.1254(4) 0.1719(2) 0.50800(17)
H17 H 1.1388 0.1216 0.5262
C25 C 1.0009(3) 0.1583(2) 0.46569(17)
H18 H 0.9279 0.0994 0.4552
C26 C 0.9810(3) 0.2325(2) 0.43758(16)
C27 C 0.9465(3) 0.4612(2) 0.35971(16)
C28 C 0.9299(3) 0.5342(2) 0.39804(17)
H19 H 0.9268 0.5326 0.4432
C29 C 0.9177(3) 0.6093(2) 0.37138(17)
H20 H 0.9054 0.6584 0.398
C30 C 0.9233(3) 0.6127(2) 0.30545(17)
C31 C 0.9482(3) 0.5426(2) 0.26811(17)
H21 H 0.9576 0.5463 0.2242
C32 C 0.9592(3) 0.4678(2) 0.29514(17)
H22 H 0.9756 0.4201 0.2694
C33 C 0.9717(3) 0.7791(2) 0.31111(17)
C34 C 0.9124(3) 0.8426(2) 0.32365(18)
H23 H 0.8164 0.8225 0.3092
C35 C 0.9915(4) 0.9351(2) 0.35707(18)
H24 H 0.9497 0.9785 0.3639
C36 C 1.1313(4) 0.9647(2) 0.38053(19)
H25 H 1.1852 1.0281 0.4037
C37 C 1.1922(4) 0.9018(2) 0.37014(18)
H26 H 1.2881 0.9219 0.3866
C38 C 1.1135(3) 0.8094(2) 0.33567(17)
H27 H 1.1559 0.7663 0.3286
C39 C 0.7720(3) 0.6562(2) 0.22248(16)
C40 C 0.7434(3) 0.7173(2) 0.18361(18)
H28 H 0.8099 0.7783 0.1909
C41 C 0.6186(4) 0.6901(3) 0.13424(19)
H29 H 0.5994 0.7331 0.1088
C42 C 0.5218(4) 0.6008(3) 0.1218(2)
H30 H 0.436 0.5828 0.0883
C43 C 0.5503(3) 0.5385(2) 0.15793(18)
H31 H 0.4852 0.4765 0.1485
C44 C 0.6736(3) 0.5656(2) 0.20811(17)
H32 H 0.6918 0.522 0.2332
N1 N 0.3323(3) 0.17864(18) 0.15898(14)
N2 N 0.8595(3) 0.21720(18) 0.39132(13)
N3 N 1.0713(2) 0.39427(17) 0.43218(13)
N4 N 0.8964(3) 0.68415(17) 0.27497(14)
C45 C -0.2498(3) 0.0845(2) 0.12322(18)
C46 C -0.3889(3) 0.0581(2) 0.10172(17)
H33 H -0.4272 0.1042 0.1063
C47 C -0.4730(3) -0.0352(2) 0.07345(18)
H34 H -0.5686 -0.0529 0.0594
C48 C -0.4184(3) -0.1027(2) 0.06558(19)
H35 H -0.4759 -0.1666 0.0457
C49 C -0.2789(3) -0.0762(2) 0.08700(19)
H36 H -0.2408 -0.1222 0.082
C50 C -0.1944(3) 0.0167(2) 0.11567(18)
H37 H -0.0988 0.0343 0.1302
C51 C -0.1957(3) 0.2420(2) 0.10622(18)
C52 C -0.2023(3) 0.2234(3) 0.03853(19)
H38 H -0.1879 0.1699 0.0198
C53 C -0.2299(3) 0.2825(3) -0.0022(2)
H39 H -0.2358 0.2688 -0.049
C54 C -0.2489(4) 0.3611(3) 0.0247(2)
H40 H -0.2657 0.4024 -0.003
C55 C -0.2433(3) 0.3793(3) 0.0926(2)
H41 H -0.2565 0.4331 0.1116
C56 C -0.2185(3) 0.3194(2) 0.1327(2)
H42 H -0.217 0.3313 0.179
C57 C -0.0432(3) 0.2143(2) 0.20176(17)
C58 C -0.0254(3) 0.1680(2) 0.25387(17)
H43 H -0.0987 0.1148 0.2549
C59 C 0.0985(3) 0.1986(2) 0.30451(17)
H44 H 0.1087 0.1653 0.3394
C60 C 0.2086(3) 0.2770(2) 0.30564(17)
C61 C 0.1887(3) 0.3240(2) 0.25393(17)
H45 H 0.2613 0.378 0.2533
C62 C 0.0652(3) 0.2938(2) 0.20319(17)
H46 H 0.0542 0.3279 0.1689
C63 C 0.3420(3) 0.3003(2) 0.35797(17)
C64 C 0.4440(3) 0.3939(2) 0.38735(17)
C65 C 0.5857(3) 0.3322(2) 0.44986(16)
C66 C 0.7101(3) 0.3449(2) 0.49584(16)
H47 H 0.7775 0.4062 0.5153
C67 C 0.7343(3) 0.2691(2) 0.51253(17)
H48 H 0.8181 0.2779 0.5445
C68 C 0.6365(3) 0.1775(2) 0.48301(18)
H49 H 0.6558 0.1252 0.4943
C69 C 0.5140(3) 0.1638(2) 0.43811(17)
H50 H 0.448 0.102 0.4185
C70 C 0.4860(3) 0.2410(2) 0.42121(16)
C71 C 0.4281(3) 0.4788(2) 0.36745(16)
C72 C 0.5248(3) 0.5354(2) 0.34227(17)
H51 H 0.6049 0.524 0.3438
C73 C 0.5050(3) 0.6081(2) 0.31516(17)
H52 H 0.571 0.6461 0.2978
C74 C 0.3884(3) 0.6255(2) 0.31328(17)
C75 C 0.2987(3) 0.5744(2) 0.34355(17)
H53 H 0.2229 0.5898 0.3459
C76 C 0.3175(3) 0.5015(2) 0.37040(17)
H54 H 0.2548 0.4668 0.3909
C77 C 0.2506(3) 0.6561(2) 0.21494(17)
C78 C 0.1802(3) 0.7110(2) 0.19034(18)
H55 H 0.2077 0.7741 0.2142
C79 C 0.0699(3) 0.6738(3) 0.13103(18)
H56 H 0.0221 0.7115 0.115
C80 C 0.0297(4) 0.5828(2) 0.09549(19)
H57 H -0.0458 0.5577 0.0551
C81 C 0.0995(3) 0.5282(2) 0.11881(18)
H58 H 0.0723 0.4655 0.0942
C82 C 0.2092(3) 0.5644(2) 0.17801(18)
H59 H 0.2567 0.5262 0.1935
C83 C 0.4539(3) 0.7852(2) 0.29714(19)
C84 C 0.4973(3) 0.8328(2) 0.24960(19)
H60 H 0.4613 0.8031 0.2024
C85 C 0.5926(4) 0.9233(2) 0.2712(2)
H61 H 0.6207 0.9563 0.2386
C86 C 0.6476(4) 0.9662(3) 0.3399(2)
H62 H 0.7141 1.0283 0.3546
C87 C 0.6056(4) 0.9188(3) 0.3870(2)
H63 H 0.6432 0.9485 0.4342
C88 C 0.5098(3) 0.8287(2) 0.36644(19)
H64 H 0.4819 0.7962 0.3993
N5 N -0.1670(3) 0.18161(18) 0.14842(14)
N6 N 0.3645(3) 0.22644(18) 0.37520(13)
N7 N 0.5627(3) 0.40854(18) 0.43185(13)
N8 N 0.3569(3) 0.69203(18) 0.27744(14)
loop_
_geom_bond_atom_site_label_1
_geom_bond_atom_site_label_2
_geom_bond_site_symmetry_1
_geom_bond_site_symmetry_2
C1 C2 1_555 1_555
C2 H1 1_555 1_555
C3 C2 1_555 1_555
H2 C3 1_555 1_555
C4 C3 1_555 1_555
H3 C4 1_555 1_555
C5 C4 1_555 1_555
H4 C5 1_555 1_555
C6 C1 1_555 1_555
H5 C6 1_555 1_555
C7 C8 1_555 1_555
C8 H6 1_555 1_555
C9 C8 1_555 1_555
H7 C9 1_555 1_555
C10 C9 1_555 1_555
H8 C10 1_555 1_555
C11 C10 1_555 1_555
H9 C11 1_555 1_555
C12 C7 1_555 1_555
H10 C12 1_555 1_555
C13 C14 1_555 1_555
C14 H11 1_555 1_555
C15 C14 1_555 1_555
H12 C15 1_555 1_555
C16 C15 1_555 1_555
C17 C16 1_555 1_555
H13 C17 1_555 1_555
C18 C13 1_555 1_555
H14 C18 1_555 1_555
C19 C16 1_555 1_555
C20 C19 1_555 1_555
C21 C22 1_555 1_555
C22 H15 1_555 1_555
C23 C22 1_555 1_555
H16 C23 1_555 1_555
C24 C23 1_555 1_555
H17 C24 1_555 1_555
C25 C24 1_555 1_555
H18 C25 1_555 1_555
C26 C21 1_555 1_555
C27 C20 1_555 1_555
C28 C27 1_555 1_555
H19 C28 1_555 1_555
C29 C28 1_555 1_555
H20 C29 1_555 1_555
C30 C29 1_555 1_555
C31 C30 1_555 1_555
H21 C31 1_555 1_555
C32 C27 1_555 1_555
H22 C32 1_555 1_555
C33 C34 1_555 1_555
C34 H23 1_555 1_555
C35 C34 1_555 1_555
H24 C35 1_555 1_555
C36 C35 1_555 1_555
H25 C36 1_555 1_555
C37 C36 1_555 1_555
H26 C37 1_555 1_555
C38 C33 1_555 1_555
H27 C38 1_555 1_555
C39 C40 1_555 1_555
C40 H28 1_555 1_555
C41 C40 1_555 1_555
H29 C41 1_555 1_555
C42 C41 1_555 1_555
H30 C42 1_555 1_555
C43 C42 1_555 1_555
H31 C43 1_555 1_555
C44 C39 1_555 1_555
H32 C44 1_555 1_555
N1 C1 1_555 1_555
N2 C19 1_555 1_555
N3 C20 1_555 1_555
N4 C30 1_555 1_555
C45 C46 1_555 1_555
C46 H33 1_555 1_555
C47 C46 1_555 1_555
H34 C47 1_555 1_555
C48 C47 1_555 1_555
H35 C48 1_555 1_555
C49 C48 1_555 1_555
H36 C49 1_555 1_555
C50 C45 1_555 1_555
H37 C50 1_555 1_555
C51 C52 1_555 1_555
C52 H38 1_555 1_555
C53 C52 1_555 1_555
H39 C53 1_555 1_555
C54 C53 1_555 1_555
H40 C54 1_555 1_555
C55 C54 1_555 1_555
H41 C55 1_555 1_555
C56 C51 1_555 1_555
H42 C56 1_555 1_555
C57 C58 1_555 1_555
C58 H43 1_555 1_555
C59 C58 1_555 1_555
H44 C59 1_555 1_555
C60 C59 1_555 1_555
C61 C60 1_555 1_555
H45 C61 1_555 1_555
C62 C57 1_555 1_555
H46 C62 1_555 1_555
C63 C60 1_555 1_555
C64 C63 1_555 1_555
C65 C66 1_555 1_555
C66 H47 1_555 1_555
C67 C66 1_555 1_555
H48 C67 1_555 1_555
C68 C67 1_555 1_555
H49 C68 1_555 1_555
C69 C68 1_555 1_555
H50 C69 1_555 1_555
C70 C65 1_555 1_555
C71 C64 1_555 1_555
C72 C71 1_555 1_555
H51 C72 1_555 1_555
C73 C72 1_555 1_555
H52 C73 1_555 1_555
C74 C73 1_555 1_555
C75 C74 1_555 1_555
H53 C75 1_555 1_555
C76 C71 1_555 1_555
H54 C76 1_555 1_555
C77 C78 1_555 1_555
C78 H55 1_555 1_555
C79 C78 1_555 1_555
H56 C79 1_555 1_555
C80 C79 1_555 1_555
H57 C80 1_555 1_555
C81 C80 1_555 1_555
H58 C81 1_555 1_555
C82 C77 1_555 1_555
H59 C82 1_555 1_555
C83 C84 1_555 1_555
C84 H60 1_555 1_555
C85 C84 1_555 1_555
H61 C85 1_555 1_555
C86 C85 1_555 1_555
H62 C86 1_555 1_555
C87 C86 1_555 1_555
H63 C87 1_555 1_555
C88 C83 1_555 1_555
H64 C88 1_555 1_555
N5 C45 1_555 1_555
N6 C63 1_555 1_555
N7 C64 1_555 1_555
N8 C74 1_555 1_555
C5 C6 1_555 1_555
C7 N1 1_555 1_555
C11 C12 1_555 1_555
C13 N1 1_555 1_555
C17 C18 1_555 1_555
C21 N3 1_555 1_555
C25 C26 1_555 1_555
C26 N2 1_555 1_555
C31 C32 1_555 1_555
C33 N4 1_555 1_555
C37 C38 1_555 1_555
C39 N4 1_555 1_555
C43 C44 1_555 1_555
C49 C50 1_555 1_555
C51 N5 1_555 1_555
C55 C56 1_555 1_555
C57 N5 1_555 1_555
C61 C62 1_555 1_555
C65 N7 1_555 1_555
C69 C70 1_555 1_555
C70 N6 1_555 1_555
C75 C76 1_555 1_555
C77 N8 1_555 1_555
C81 C82 1_555 1_555
C83 N8 1_555 1_555
C87 C88 1_555 1_555

#END
