
#######################################################################
#
#                 Cambridge Crystallographic Data Centre
#                                CCDC 
#
#######################################################################
#
# If this CIF has been generated from an entry in the Cambridge 
# Structural Database, then it will include bibliographic, chemical, 
# crystal, experimental, refinement or atomic coordinate data resulting 
# from the CCDC's data processing and validation procedures.
#
#######################################################################

data_MUFCOH
_chemical_formula_moiety         'C46 H36 N4'
_chemical_name_systematic        
4,4'-(6,7-dimethylquinoxaline-2,3-diyl)bis(N,N-diphenylaniline)
_symmetry_cell_setting           monoclinic
_symmetry_space_group_name_H-M   'P 21/c'
_symmetry_Int_Tables_number      14
_space_group_name_Hall           '-P 2ybc'
loop_
_symmetry_equiv_pos_site_id
_symmetry_equiv_pos_as_xyz
1 x,y,z
2 -x,1/2+y,1/2-z
3 -x,-y,-z
4 x,1/2-y,1/2+z
_cell_length_a                   6.3955(13)
_cell_length_b                   19.271(4)
_cell_length_c                   28.780(6)
_cell_angle_alpha                90
_cell_angle_beta                 93.751(6)
_cell_angle_gamma                90
_cell_volume                     3539.47
_exptl_crystal_colour            yellow
_exptl_crystal_description       needle
_cell_formula_units_Z            4
loop_
_atom_site_label
_atom_site_type_symbol
_atom_site_fract_x
_atom_site_fract_y
_atom_site_fract_z
C1 C 0.2073(9) 0.4251(2) 0.40682(16)
C2 C 0.0044(9) 0.4371(2) 0.41788(16)
H1 H -0.0968 0.4533 0.3948
C3 C -0.0522(9) 0.4254(2) 0.46359(16)
H2 H -0.1917 0.434 0.4716
C4 C 0.0957(9) 0.4014(2) 0.49687(17)
H3 H 0.0579 0.3937 0.5278
C5 C 0.2963(9) 0.3886(2) 0.48541(17)
H4 H 0.3969 0.3715 0.5083
C6 C 0.3541(8) 0.4008(2) 0.44003(16)
H5 H 0.4937 0.3922 0.4322
C7 C 0.1687(8) 0.4102(2) 0.32115(15)
C8 C 0.0726(8) 0.3459(2) 0.32440(17)
H6 H 0.0796 0.3219 0.3533
C9 C -0.0331(9) 0.3168(2) 0.28574(17)
H7 H -0.0996 0.273 0.2884
C10 C -0.0434(9) 0.3503(2) 0.24326(17)
H8 H -0.1158 0.33 0.2168
C11 C 0.0544(8) 0.4145(2) 0.23997(16)
H9 H 0.0485 0.4383 0.211
C12 C 0.1598(9) 0.4438(2) 0.27844(15)
H10 H 0.227 0.4874 0.2757
C13 C 0.4417(8) 0.4880(2) 0.35769(16)
C14 C 0.4625(8) 0.5440(2) 0.38911(15)
H11 H 0.3652 0.5498 0.4124
C15 C 0.6253(8) 0.5904(2) 0.38590(15)
H12 H 0.6423 0.6266 0.4082
C16 C 0.7653(8) 0.5857(2) 0.35095(15)
C17 C 0.7401(7) 0.5298(2) 0.32010(15)
H13 H 0.8331 0.525 0.2959
C18 C 0.5841(8) 0.4817(2) 0.32410(15)
H14 H 0.5742 0.4434 0.3033
C19 C 0.9421(8) 0.6363(2) 0.34951(15)
C20 C 1.0235(8) 0.6584(2) 0.30627(15)
C21 C 1.2873(8) 0.7165(2) 0.34791(15)
C22 C 1.4694(8) 0.7583(2) 0.34883(16)
H15 H 1.5279 0.7706 0.3205
C23 C 1.5632(8) 0.7815(2) 0.39077(16)
C24 C 1.7560(8) 0.8264(2) 0.39075(16)
H16 H 1.7273 0.8715 0.4048
H17 H 1.7943 0.8333 0.3587
H18 H 1.8718 0.8036 0.4088
C25 C 1.4706(8) 0.7638(2) 0.43296(16)
C26 C 1.5763(8) 0.7886(2) 0.47872(15)
H19 H 1.4903 0.7758 0.5043
H20 H 1.5921 0.8392 0.4779
H21 H 1.7146 0.7669 0.4835
C27 C 1.2956(8) 0.7239(2) 0.43226(15)
H22 H 1.2371 0.7124 0.4608
C28 C 1.1979(8) 0.6992(2) 0.38961(15)
C29 C 0.9147(9) 0.6436(2) 0.25983(15)
C30 C 0.7030(8) 0.6565(2) 0.25134(15)
H23 H 0.6232 0.6724 0.2759
C31 C 0.6050(8) 0.6463(2) 0.20706(15)
H24 H 0.4607 0.657 0.2012
C32 C 0.7201(9) 0.6204(2) 0.17153(15)
C33 C 0.9311(8) 0.6075(2) 0.17985(16)
H25 H 1.0105 0.591 0.1554
C34 C 1.0285(8) 0.6185(2) 0.22380(15)
H26 H 1.1737 0.6089 0.2293
C35 C 0.6729(8) 0.5449(2) 0.10342(15)
C36 C 0.6930(8) 0.5460(2) 0.05550(15)
H27 H 0.6665 0.5876 0.0383
C37 C 0.7520(8) 0.4862(2) 0.03311(17)
H28 H 0.7671 0.4872 0.0005
C38 C 0.7891(8) 0.4251(2) 0.05718(17)
H29 H 0.8284 0.3843 0.0414
C39 C 0.7682(8) 0.4241(2) 0.10461(17)
H30 H 0.7951 0.3825 0.1216
C40 C 0.7083(8) 0.4833(2) 0.12757(16)
H31 H 0.6914 0.4817 0.1601
C41 C 0.4550(8) 0.6501(2) 0.10865(15)
C42 C 0.4616(8) 0.7223(2) 0.11632(15)
H32 H 0.5791 0.7425 0.1331
C43 C 0.2994(9) 0.7635(2) 0.09963(16)
H33 H 0.3024 0.8117 0.1066
C44 C 0.1305(9) 0.7363(2) 0.07276(16)
H34 H 0.0207 0.7658 0.0608
C45 C 0.1239(8) 0.6664(2) 0.06367(16)
H35 H 0.0099 0.6471 0.0452
C46 C 0.2857(8) 0.6239(2) 0.08177(15)
H36 H 0.2796 0.5755 0.0755
N1 N 0.2719(7) 0.44044(18) 0.36118(12)
N2 N 1.0259(6) 0.65762(17) 0.39038(12)
N3 N 1.1959(7) 0.69623(17) 0.30584(12)
N4 N 0.6189(7) 0.60676(17) 0.12677(12)
loop_
_geom_bond_atom_site_label_1
_geom_bond_atom_site_label_2
_geom_bond_site_symmetry_1
_geom_bond_site_symmetry_2
C1 C2 1_555 1_555
C2 H1 1_555 1_555
C3 C2 1_555 1_555
H2 C3 1_555 1_555
C4 C3 1_555 1_555
H3 C4 1_555 1_555
C5 C4 1_555 1_555
H4 C5 1_555 1_555
C6 C1 1_555 1_555
H5 C6 1_555 1_555
C7 C8 1_555 1_555
C8 H6 1_555 1_555
C9 C8 1_555 1_555
H7 C9 1_555 1_555
C10 C9 1_555 1_555
H8 C10 1_555 1_555
C11 C10 1_555 1_555
H9 C11 1_555 1_555
C12 C7 1_555 1_555
H10 C12 1_555 1_555
C13 C14 1_555 1_555
C14 H11 1_555 1_555
C15 C14 1_555 1_555
H12 C15 1_555 1_555
C16 C15 1_555 1_555
C17 C16 1_555 1_555
H13 C17 1_555 1_555
C18 C13 1_555 1_555
H14 C18 1_555 1_555
C19 C16 1_555 1_555
C20 C19 1_555 1_555
C21 C22 1_555 1_555
C22 H15 1_555 1_555
C23 C22 1_555 1_555
C24 C23 1_555 1_555
H16 C24 1_555 1_555
H17 C24 1_555 1_555
H18 C24 1_555 1_555
C25 C23 1_555 1_555
C26 C25 1_555 1_555
H19 C26 1_555 1_555
H20 C26 1_555 1_555
H21 C26 1_555 1_555
C27 C25 1_555 1_555
H22 C27 1_555 1_555
C28 C21 1_555 1_555
C29 C20 1_555 1_555
C30 C29 1_555 1_555
H23 C30 1_555 1_555
C31 C30 1_555 1_555
H24 C31 1_555 1_555
C32 C31 1_555 1_555
C33 C32 1_555 1_555
H25 C33 1_555 1_555
C34 C29 1_555 1_555
H26 C34 1_555 1_555
C35 C36 1_555 1_555
C36 H27 1_555 1_555
C37 C36 1_555 1_555
H28 C37 1_555 1_555
C38 C37 1_555 1_555
H29 C38 1_555 1_555
C39 C38 1_555 1_555
H30 C39 1_555 1_555
C40 C35 1_555 1_555
H31 C40 1_555 1_555
C41 C42 1_555 1_555
C42 H32 1_555 1_555
C43 C42 1_555 1_555
H33 C43 1_555 1_555
C44 C43 1_555 1_555
H34 C44 1_555 1_555
C45 C44 1_555 1_555
H35 C45 1_555 1_555
C46 C41 1_555 1_555
H36 C46 1_555 1_555
N1 C1 1_555 1_555
N2 C19 1_555 1_555
N3 C20 1_555 1_555
N4 C32 1_555 1_555
C5 C6 1_555 1_555
C7 N1 1_555 1_555
C11 C12 1_555 1_555
C13 N1 1_555 1_555
C17 C18 1_555 1_555
C21 N3 1_555 1_555
C27 C28 1_555 1_555
C28 N2 1_555 1_555
C33 C34 1_555 1_555
C35 N4 1_555 1_555
C39 C40 1_555 1_555
C41 N4 1_555 1_555
C45 C46 1_555 1_555

#END
