
#######################################################################
#
#                 Cambridge Crystallographic Data Centre
#                                CCDC 
#
#######################################################################
#
# If this CIF has been generated from an entry in the Cambridge 
# Structural Database, then it will include bibliographic, chemical, 
# crystal, experimental, refinement or atomic coordinate data resulting 
# from the CCDC's data processing and validation procedures.
#
#######################################################################

data_MUFDOH
_chemical_formula_moiety         'C36 H52 O12'
_chemical_name_systematic        
17,35-bis(Allyloxymethyl)-2,5,8,11,14,20,23,26,29,32-decaoxatricyclo[31.3.1.1^15,19^]octatriaconta-1(37),15(38),16,18,33,35-hexaene
_symmetry_cell_setting           triclinic
_symmetry_space_group_name_H-M   'P -1'
_symmetry_Int_Tables_number      2
_space_group_name_Hall           '-P 1'
loop_
_symmetry_equiv_pos_site_id
_symmetry_equiv_pos_as_xyz
1 x,y,z
2 -x,-y,-z
_cell_length_a                   7.0217(2)
_cell_length_b                   11.5023(4)
_cell_length_c                   12.3086(4)
_cell_angle_alpha                113.4510(10)
_cell_angle_beta                 94.5990(10)
_cell_angle_gamma                97.8820(10)
_cell_volume                     893.396
_exptl_crystal_colour            colorless
_exptl_crystal_description       block
_cell_formula_units_Z            1
loop_
_atom_site_label
_atom_site_type_symbol
_atom_site_fract_x
_atom_site_fract_y
_atom_site_fract_z
O1 O -0.39634(13) 0.87140(9) 1.44692(8)
O2 O -0.10767(12) 0.94203(8) 1.24680(7)
O3 O 0.21689(12) 0.85181(8) 1.12610(7)
O4 O 0.19791(12) 0.59474(8) 0.93385(7)
O5 O 0.05183(12) 0.37639(8) 0.70380(7)
O6 O -0.44246(13) 0.28508(9) 0.24637(8)
C1 C -0.56616(18) 0.80255(12) 1.45372(11)
C2 C -0.36626(18) 0.87545(12) 1.33519(10)
H1 H -0.4603 0.9208 1.3112
H2 H -0.3803 0.7873 1.2715
C3 C -0.16158(17) 0.94828(12) 1.35735(10)
H3 H -0.1537 1.0393 1.4136
H4 H -0.0717 0.9099 1.3936
C4 C 0.08069(18) 1.01743(12) 1.26587(11)
H5 H 0.1653 1.0081 1.3291
H6 H 0.0708 1.1095 1.2934
C5 C 0.16902(19) 0.97516(12) 1.15257(11)
H7 H 0.0757 0.9711 1.0859
H8 H 0.2876 1.0380 1.1623
C6 C 0.34098(18) 0.81774(12) 1.03725(11)
H9 H 0.4685 0.8767 1.0678
H10 H 0.2831 0.8256 0.9650
C7 C 0.36769(17) 0.68176(12) 1.00600(11)
H11 H 0.4803 0.6650 0.9622
H12 H 0.3944 0.6688 1.0802
C8 C 0.21773(18) 0.46488(12) 0.90297(11)
H13 H 0.2336 0.4489 0.9762
H14 H 0.3347 0.4479 0.8635
C9 C 0.04098(18) 0.37688(12) 0.82005(10)
H15 H 0.0358 0.2886 0.8155
H16 H -0.0778 0.4075 0.8497
C10 C -0.27436(18) 0.24831(11) 0.63672(10)
H17 H -0.2777 0.2362 0.7086
C11 C -0.10973(18) 0.31738(11) 0.61909(10)
C12 C -0.10252(19) 0.33270(13) 0.51271(11)
H18 H 0.0115 0.3788 0.5013
C13 C -0.26285(19) 0.28020(13) 0.42344(11)
C14 C -0.42891(18) 0.21345(13) 0.44062(11)
H19 H -0.5394 0.1786 0.3800
C15 C -0.2560(2) 0.29254(17) 0.30532(12)
H20 H -0.1738 0.3761 0.3204
H21 H -0.1943 0.2231 0.2519
C16 C -0.5208(3) 0.39767(16) 0.30135(14)
H22 H -0.4328 0.4730 0.3019
H23 H -0.5329 0.4129 0.3853
C17 C -0.7187(3) 0.3823(2) 0.2333(2)
C18 C -0.8016(3) 0.2863(2) 0.1348(2)
H24 H -0.737(3) 0.2082(19) 0.0948(17)
H25 H -0.932(3) 0.288(2) 0.093(2)
H26 H -0.773(4) 0.448(3) 0.267(2)
O1A O -0.60366(13) 0.12860(9) 0.55308(8)
O2A O -0.89233(12) 0.05797(8) 0.75320(7)
O3A O -1.21689(12) 0.14819(8) 0.87390(7)
O4A O -1.19791(12) 0.40526(8) 1.06615(7)
O5A O -1.05183(12) 0.62361(8) 1.29620(7)
O6A O -0.55754(13) 0.71492(9) 1.75363(8)
C1A C -0.43384(18) 0.19745(12) 0.54628(11)
C2A C -0.63374(18) 0.12455(12) 0.66481(10)
H1A H -0.5397 0.0792 0.6888
H2A H -0.6197 0.2127 0.7285
C3A C -0.83842(17) 0.05172(12) 0.64265(10)
H3A H -0.8463 -0.0393 0.5864
H4A H -0.9283 0.0901 0.6064
C4A C -1.08069(18) -0.01743(12) 0.73413(11)
H5A H -1.1653 -0.0081 0.6709
H6A H -1.0708 -0.1095 0.7066
C5A C -1.16902(19) 0.02484(12) 0.84743(11)
H7A H -1.0757 0.0289 0.9141
H8A H -1.2876 -0.0380 0.8377
C6A C -1.34098(18) 0.18226(12) 0.96275(11)
H9A H -1.4685 0.1233 0.9322
H10A H -1.2831 0.1744 1.0350
C7A C -1.36769(17) 0.31824(12) 0.99400(11)
H11A H -1.4803 0.3350 1.0378
H12A H -1.3944 0.3312 0.9198
C8A C -1.21773(18) 0.53512(12) 1.09703(11)
H13A H -1.2336 0.5511 1.0238
H14A H -1.3347 0.5521 1.1365
C9A C -1.04098(18) 0.62312(12) 1.17995(10)
H15A H -1.0358 0.7114 1.1845
H16A H -0.9222 0.5925 1.1503
C10A C -0.72564(18) 0.75169(11) 1.36328(10)
H17A H -0.7223 0.7638 1.2914
C11A C -0.89027(18) 0.68262(11) 1.38091(10)
C12A C -0.89748(19) 0.66730(13) 1.48729(11)
H18A H -1.0115 0.6212 1.4987
C13A C -0.73715(19) 0.71980(13) 1.57656(11)
C14A C -0.57109(18) 0.78655(13) 1.55938(11)
H19A H -0.4606 0.8214 1.6200
C15A C -0.7440(2) 0.70746(17) 1.69468(12)
H20A H -0.8262 0.6239 1.6796
H21A H -0.8057 0.7769 1.7481
C16A C -0.4792(3) 0.60233(16) 1.69865(14)
H22A H -0.5672 0.5270 1.6981
H23A H -0.4671 0.5871 1.6147
C17A C -0.2813(3) 0.6177(2) 1.7667(2)
C18A C -0.1984(3) 0.7137(2) 1.8652(2)
H24A H -0.263(3) 0.7918(19) 1.9052(17)
H25A H -0.068(3) 0.712(2) 1.907(2)
H26A H -0.227(4) 0.552(3) 1.733(2)
loop_
_geom_bond_atom_site_label_1
_geom_bond_atom_site_label_2
_geom_bond_site_symmetry_1
_geom_bond_site_symmetry_2
O1 C1 1_555 1_555
O2 C3 1_555 1_555
O3 C5 1_555 1_555
O4 C7 1_555 1_555
O5 C9 1_555 1_555
O6 C15 1_555 1_555
C1 C10A 1_555 1_555
C2 O1 1_555 1_555
H1 C2 1_555 1_555
H2 C2 1_555 1_555
C3 C2 1_555 1_555
H3 C3 1_555 1_555
H4 C3 1_555 1_555
C4 O2 1_555 1_555
H5 C4 1_555 1_555
H6 C4 1_555 1_555
C5 C4 1_555 1_555
H7 C5 1_555 1_555
H8 C5 1_555 1_555
C6 O3 1_555 1_555
H9 C6 1_555 1_555
H10 C6 1_555 1_555
C7 C6 1_555 1_555
H11 C7 1_555 1_555
H12 C7 1_555 1_555
C8 O4 1_555 1_555
H13 C8 1_555 1_555
H14 C8 1_555 1_555
C9 C8 1_555 1_555
H15 C9 1_555 1_555
H16 C9 1_555 1_555
C10 H17 1_555 1_555
C11 O5 1_555 1_555
C12 C11 1_555 1_555
H18 C12 1_555 1_555
C13 C12 1_555 1_555
C14 C13 1_555 1_555
H19 C14 1_555 1_555
C15 C13 1_555 1_555
H20 C15 1_555 1_555
H21 C15 1_555 1_555
C16 O6 1_555 1_555
H22 C16 1_555 1_555
H23 C16 1_555 1_555
C17 C16 1_555 1_555
C18 C17 1_555 1_555
H24 C18 1_555 1_555
H25 C18 1_555 1_555
H26 C17 1_555 1_555
O1A C1A 1_555 1_555
O2A C3A 1_555 1_555
O3A C5A 1_555 1_555
O4A C7A 1_555 1_555
O5A C9A 1_555 1_555
O6A C15A 1_555 1_555
C1A C10 1_555 1_555
C2A O1A 1_555 1_555
H1A C2A 1_555 1_555
H2A C2A 1_555 1_555
C3A C2A 1_555 1_555
H3A C3A 1_555 1_555
H4A C3A 1_555 1_555
C4A O2A 1_555 1_555
H5A C4A 1_555 1_555
H6A C4A 1_555 1_555
C5A C4A 1_555 1_555
H7A C5A 1_555 1_555
H8A C5A 1_555 1_555
C6A O3A 1_555 1_555
H9A C6A 1_555 1_555
H10A C6A 1_555 1_555
C7A C6A 1_555 1_555
H11A C7A 1_555 1_555
H12A C7A 1_555 1_555
C8A O4A 1_555 1_555
H13A C8A 1_555 1_555
H14A C8A 1_555 1_555
C9A C8A 1_555 1_555
H15A C9A 1_555 1_555
H16A C9A 1_555 1_555
C10A H17A 1_555 1_555
C11A O5A 1_555 1_555
C12A C11A 1_555 1_555
H18A C12A 1_555 1_555
C13A C12A 1_555 1_555
C14A C1 1_555 1_555
H19A C14A 1_555 1_555
C15A C13A 1_555 1_555
H20A C15A 1_555 1_555
H21A C15A 1_555 1_555
C16A O6A 1_555 1_555
H22A C16A 1_555 1_555
H23A C16A 1_555 1_555
C17A C16A 1_555 1_555
C18A C17A 1_555 1_555
H24A C18A 1_555 1_555
H25A C18A 1_555 1_555
H26A C17A 1_555 1_555
C10 C11 1_555 1_555
C14 C1A 1_555 1_555
C10A C11A 1_555 1_555
C13A C14A 1_555 1_555

#END
