
#######################################################################
#
#                 Cambridge Crystallographic Data Centre
#                                CCDC 
#
#######################################################################
#
# If this CIF has been generated from an entry in the Cambridge 
# Structural Database, then it will include bibliographic, chemical, 
# crystal, experimental, refinement or atomic coordinate data resulting 
# from the CCDC's data processing and validation procedures.
#
#######################################################################

data_MUFMIL
_chemical_formula_moiety         'C40 H44 N2 O6 S2 2+,H2 O1,2(I1 1-)'
_chemical_name_systematic        
"2,2'-(2,4-bis(3,4-dimethoxyphenyl)cyclobutane-1,3-diyl)bis(3-ethyl-5-methoxy-1,3-benzothiazol-3-ium) diiodide monohydrate"
_symmetry_cell_setting           triclinic
_symmetry_space_group_name_H-M   'P -1'
_symmetry_Int_Tables_number      2
_space_group_name_Hall           '-P 1'
loop_
_symmetry_equiv_pos_site_id
_symmetry_equiv_pos_as_xyz
1 x,y,z
2 -x,-y,-z
_cell_length_a                   7.808(4)
_cell_length_b                   10.354(6)
_cell_length_c                   13.780(7)
_cell_angle_alpha                93.69(2)
_cell_angle_beta                 103.61(2)
_cell_angle_gamma                105.59(2)
_cell_volume                     1033.18
_cell_formula_units_Z            1
loop_
_atom_site_label
_atom_site_type_symbol
_atom_site_fract_x
_atom_site_fract_y
_atom_site_fract_z
I1 I -0.2323(2) 0.10302(13) -0.17756(10)
S1 S 0.0479(8) 0.5316(5) 0.2422(4)
O1 O -0.6707(18) 0.3760(15) -0.2614(10)
O2 O -0.677(2) 0.6217(16) -0.2884(13)
O3 O 0.232(2) 0.1426(15) 0.5060(11)
N1 N -0.010(2) 0.2833(16) 0.1791(11)
C1 C -0.021(3) 0.4011(19) 0.1465(13)
C2 C -0.076(3) 0.419(2) 0.0403(14)
H1 H -0.186(3) 0.344(2) 0.0017(14)
C3 C -0.096(3) 0.558(2) 0.0158(14)
H2 H -0.057(3) 0.623(2) 0.0794(14)
C4 C -0.273(3) 0.569(2) -0.0497(13)
C5 C -0.397(2) 0.4571(19) -0.1188(15)
H3 H -0.384(2) 0.3691(19) -0.1146(15)
C6 C -0.544(3) 0.477(2) -0.1949(15)
C7 C -0.546(3) 0.607(2) -0.2063(18)
C8 C -0.430(3) 0.712(2) -0.1358(15)
H4 H -0.443(3) 0.801(2) -0.1393(15)
C9 C -0.293(3) 0.691(2) -0.0591(15)
H5 H -0.212(3) 0.766(2) -0.0121(15)
C10 C -0.690(3) 0.243(2) -0.2401(15)
H6 H -0.786(3) 0.180(2) -0.2944(15)
H7 H -0.573(3) 0.222(2) -0.2345(15)
H8 H -0.724(3) 0.234(2) -0.1763(15)
C11 C -0.631(3) 0.735(2) -0.3385(15)
H9 H -0.736(3) 0.732(2) -0.3949(15)
H10 H -0.601(3) 0.818(2) -0.2914(15)
H11 H -0.524(3) 0.734(2) -0.3642(15)
C12 C 0.100(3) 0.4292(19) 0.3330(15)
C13 C 0.061(3) 0.295(2) 0.2864(14)
C14 C 0.101(3) 0.1932(19) 0.3390(14)
H12 H 0.079(3) 0.1042(19) 0.3066(14)
C15 C 0.176(3) 0.228(2) 0.4412(15)
C16 C 0.213(3) 0.363(2) 0.4897(17)
H13 H 0.268(3) 0.385(2) 0.5602(17)
C17 C 0.170(3) 0.458(2) 0.4346(15)
H14 H 0.189(3) 0.547(2) 0.4672(15)
C18 C 0.213(3) 0.010(2) 0.4656(16)
H15 H 0.258(3) -0.039(2) 0.5199(16)
H16 H 0.083(3) -0.036(2) 0.4326(16)
H17 H 0.286(3) 0.013(2) 0.4161(16)
C19 C -0.072(3) 0.1513(16) 0.1141(14)
H18 H -0.076(3) 0.1673(16) 0.0437(14)
H19 H 0.019(3) 0.1014(16) 0.1352(14)
C20 C -0.255(3) 0.066(2) 0.1179(15)
H20 H -0.289(3) -0.020(2) 0.0735(15)
H21 H -0.252(3) 0.048(2) 0.1872(15)
H22 H -0.347(3) 0.114(2) 0.0956(15)
S1A S -0.0479(8) 0.4684(5) -0.2422(4)
O1A O 0.6707(18) 0.6240(15) 0.2614(10)
O2A O 0.677(2) 0.3783(16) 0.2884(13)
O3A O -0.232(2) 0.8574(15) -0.5060(11)
N1A N 0.010(2) 0.7167(16) -0.1791(11)
C1A C 0.021(3) 0.5989(19) -0.1465(13)
C2A C 0.076(3) 0.581(2) -0.0403(14)
H1A H 0.186(3) 0.656(2) -0.0017(14)
C3A C 0.096(3) 0.442(2) -0.0158(14)
H2A H 0.057(3) 0.377(2) -0.0794(14)
C4A C 0.273(3) 0.431(2) 0.0497(13)
C5A C 0.397(2) 0.5429(19) 0.1188(15)
H3A H 0.384(2) 0.6309(19) 0.1146(15)
C6A C 0.544(3) 0.523(2) 0.1949(15)
C7A C 0.546(3) 0.393(2) 0.2063(18)
C8A C 0.430(3) 0.288(2) 0.1358(15)
H4A H 0.443(3) 0.199(2) 0.1393(15)
C9A C 0.293(3) 0.309(2) 0.0591(15)
H5A H 0.212(3) 0.234(2) 0.0121(15)
C10A C 0.690(3) 0.757(2) 0.2401(15)
H6A H 0.786(3) 0.820(2) 0.2944(15)
H7A H 0.573(3) 0.778(2) 0.2345(15)
H8A H 0.724(3) 0.766(2) 0.1763(15)
C11A C 0.631(3) 0.265(2) 0.3385(15)
H9A H 0.736(3) 0.268(2) 0.3949(15)
H10A H 0.601(3) 0.182(2) 0.2914(15)
H11A H 0.524(3) 0.266(2) 0.3642(15)
C12A C -0.100(3) 0.5708(19) -0.3330(15)
C13A C -0.061(3) 0.705(2) -0.2864(14)
C14A C -0.101(3) 0.8068(19) -0.3390(14)
H12A H -0.079(3) 0.8958(19) -0.3066(14)
C15A C -0.176(3) 0.772(2) -0.4412(15)
C16A C -0.213(3) 0.637(2) -0.4897(17)
H13A H -0.268(3) 0.615(2) -0.5602(17)
C17A C -0.170(3) 0.542(2) -0.4346(15)
H14A H -0.189(3) 0.453(2) -0.4672(15)
C18A C -0.213(3) 0.990(2) -0.4656(16)
H15A H -0.258(3) 1.039(2) -0.5199(16)
H16A H -0.083(3) 1.036(2) -0.4326(16)
H17A H -0.286(3) 0.987(2) -0.4161(16)
C19A C 0.072(3) 0.8487(16) -0.1141(14)
H18A H 0.076(3) 0.8327(16) -0.0437(14)
H19A H -0.019(3) 0.8986(16) -0.1352(14)
C20A C 0.255(3) 0.934(2) -0.1179(15)
H20A H 0.289(3) 1.020(2) -0.0735(15)
H21A H 0.252(3) 0.952(2) -0.1872(15)
H22A H 0.347(3) 0.886(2) -0.0956(15)
O4 O -0.354(3) 0.241(2) -0.4044(15)
loop_
_geom_bond_atom_site_label_1
_geom_bond_atom_site_label_2
_geom_bond_site_symmetry_1
_geom_bond_site_symmetry_2
S1 C1 1_555 1_555
O1 C6 1_555 1_555
O2 C7 1_555 1_555
O3 C15 1_555 1_555
N1 C1 1_555 1_555
C1 C2 1_555 1_555
C2 H1 1_555 1_555
C3 C2 1_555 1_555
H2 C3 1_555 1_555
C4 C3 1_555 1_555
C5 C4 1_555 1_555
H3 C5 1_555 1_555
C6 C5 1_555 1_555
C7 C6 1_555 1_555
C8 C7 1_555 1_555
H4 C8 1_555 1_555
C9 C4 1_555 1_555
H5 C9 1_555 1_555
C10 O1 1_555 1_555
H6 C10 1_555 1_555
H7 C10 1_555 1_555
H8 C10 1_555 1_555
C11 O2 1_555 1_555
H9 C11 1_555 1_555
H10 C11 1_555 1_555
H11 C11 1_555 1_555
C12 S1 1_555 1_555
C13 N1 1_555 1_555
C14 C13 1_555 1_555
H12 C14 1_555 1_555
C15 C14 1_555 1_555
C16 C15 1_555 1_555
H13 C16 1_555 1_555
C17 C12 1_555 1_555
H14 C17 1_555 1_555
C18 O3 1_555 1_555
H15 C18 1_555 1_555
H16 C18 1_555 1_555
H17 C18 1_555 1_555
C19 N1 1_555 1_555
H18 C19 1_555 1_555
H19 C19 1_555 1_555
C20 C19 1_555 1_555
H20 C20 1_555 1_555
H21 C20 1_555 1_555
H22 C20 1_555 1_555
S1A C1A 1_555 1_555
O1A C6A 1_555 1_555
O2A C7A 1_555 1_555
O3A C15A 1_555 1_555
N1A C1A 1_555 1_555
C1A C2A 1_555 1_555
C2A C3 1_555 1_555
H1A C2A 1_555 1_555
C3A C2 1_555 1_555
H2A C3A 1_555 1_555
C4A C3A 1_555 1_555
C5A C4A 1_555 1_555
H3A C5A 1_555 1_555
C6A C5A 1_555 1_555
C7A C6A 1_555 1_555
C8A C7A 1_555 1_555
H4A C8A 1_555 1_555
C9A C4A 1_555 1_555
H5A C9A 1_555 1_555
C10A O1A 1_555 1_555
H6A C10A 1_555 1_555
H7A C10A 1_555 1_555
H8A C10A 1_555 1_555
C11A O2A 1_555 1_555
H9A C11A 1_555 1_555
H10A C11A 1_555 1_555
H11A C11A 1_555 1_555
C12A S1A 1_555 1_555
C13A N1A 1_555 1_555
C14A C13A 1_555 1_555
H12A C14A 1_555 1_555
C15A C14A 1_555 1_555
C16A C15A 1_555 1_555
H13A C16A 1_555 1_555
C17A C12A 1_555 1_555
H14A C17A 1_555 1_555
C18A O3A 1_555 1_555
H15A C18A 1_555 1_555
H16A C18A 1_555 1_555
H17A C18A 1_555 1_555
C19A N1A 1_555 1_555
H18A C19A 1_555 1_555
H19A C19A 1_555 1_555
C20A C19A 1_555 1_555
H20A C20A 1_555 1_555
H21A C20A 1_555 1_555
H22A C20A 1_555 1_555
C8 C9 1_555 1_555
C12 C13 1_555 1_555
C16 C17 1_555 1_555
C2A C3A 1_555 1_555
C8A C9A 1_555 1_555
C12A C13A 1_555 1_555
C16A C17A 1_555 1_555

#END
