
#######################################################################
#
#                 Cambridge Crystallographic Data Centre
#                                CCDC 
#
#######################################################################
#
# If this CIF has been generated from an entry in the Cambridge 
# Structural Database, then it will include bibliographic, chemical, 
# crystal, experimental, refinement or atomic coordinate data resulting 
# from the CCDC's data processing and validation procedures.
#
#######################################################################

data_MUFMUX
_chemical_formula_moiety         'C53 H33 N1 O4,C3 D6 O1'
_chemical_name_systematic        
'19-(2-(3-phenanthryloxy)phenyl)-1,16-diphenyl-19-azahexacyclo[14.5.1.0^2,15^.0^3,8^.0^9,14^.0^17,21^]docosa-2(15),3,5,7,9,11,13-heptaene-18,20,22-trione perdeuteroacetone solvate'
_symmetry_cell_setting           triclinic
_symmetry_space_group_name_H-M   'P -1'
_symmetry_Int_Tables_number      2
_space_group_name_Hall           '-P 1'
loop_
_symmetry_equiv_pos_site_id
_symmetry_equiv_pos_as_xyz
1 x,y,z
2 -x,-y,-z
_cell_length_a                   12.7410(12)
_cell_length_b                   16.6787(16)
_cell_length_c                   20.596(2)
_cell_angle_alpha                102.918(2)
_cell_angle_beta                 90.565(2)
_cell_angle_gamma                106.517(2)
_cell_volume                     4077.27
_exptl_crystal_colour            colorless
_exptl_crystal_description       block
_cell_formula_units_Z            4
loop_
_atom_site_label
_atom_site_type_symbol
_atom_site_fract_x
_atom_site_fract_y
_atom_site_fract_z
O1 O 0.21889(18) 0.04679(14) 0.37971(11)
O2 O 0.31280(19) 0.02691(14) 0.11708(11)
O3 O 0.40122(17) 0.29974(14) 0.24811(10)
O4 O 0.53077(18) 0.17513(14) 0.09570(10)
N1 N 0.3566(2) 0.17037(16) 0.17076(13)
C1 C 0.2203(3) 0.0744(2) 0.33028(17)
C2 C 0.2043(2) 0.0259(2) 0.25601(15)
C3 C 0.3240(3) 0.07160(19) 0.23945(15)
H1 H 0.3771 0.0414 0.2500
C4 C 0.3291(3) 0.0818(2) 0.16829(17)
C5 C 0.3746(3) 0.2215(2) 0.23520(16)
C6 C 0.3527(3) 0.16426(19) 0.28357(15)
H2 H 0.4189 0.1769 0.3149
C7 C 0.2489(2) 0.16724(19) 0.32292(15)
C8 C 0.1570(2) 0.1549(2) 0.27046(15)
C9 C 0.1310(2) 0.0729(2) 0.23166(15)
C10 C 0.0550(3) 0.0453(2) 0.17342(15)
C11 C 0.0256(3) -0.0389(2) 0.13229(16)
H3 H 0.0593 -0.0794 0.1419
C12 C -0.0503(3) -0.0633(2) 0.07904(17)
H4 H -0.0687 -0.1202 0.0519
C13 C -0.1007(3) -0.0050(2) 0.06446(18)
H5 H -0.1555 -0.0229 0.0283
C14 C -0.0720(3) 0.0783(2) 0.10183(16)
H6 H -0.1055 0.1179 0.0904
C15 C 0.0065(3) 0.1057(2) 0.15692(16)
C16 C 0.0382(3) 0.1946(2) 0.19670(15)
C17 C 0.0011(3) 0.2584(2) 0.17786(17)
H7 H -0.0492 0.2427 0.1396
C18 C 0.0356(3) 0.3427(2) 0.21317(17)
H8 H 0.0111 0.3850 0.1986
C19 C 0.1070(3) 0.3659(2) 0.27085(16)
H9 H 0.1290 0.4237 0.2965
C20 C 0.1448(3) 0.3056(2) 0.29002(15)
H10 H 0.1937 0.3224 0.3290
C21 C 0.1136(3) 0.2190(2) 0.25387(15)
C22 C 0.1743(3) -0.0707(2) 0.24532(15)
C23 C 0.2340(3) -0.1197(2) 0.20920(17)
H11 H 0.2934 -0.0932 0.1862
C24 C 0.2090(3) -0.2069(2) 0.20588(19)
H12 H 0.2505 -0.2400 0.1803
C25 C 0.1242(3) -0.2458(2) 0.23969(19)
H13 H 0.1082 -0.3053 0.2384
C26 C 0.0626(3) -0.1982(2) 0.27532(17)
H14 H 0.0033 -0.2252 0.2982
C27 C 0.0869(3) -0.1110(2) 0.27797(16)
H15 H 0.0435 -0.0785 0.3022
C28 C 0.2644(3) 0.2333(2) 0.38822(16)
C29 C 0.1812(3) 0.2232(2) 0.43131(16)
H16 H 0.1166 0.1759 0.4188
C30 C 0.1913(3) 0.2813(2) 0.49225(16)
H17 H 0.1336 0.2743 0.5213
C31 C 0.2858(3) 0.3497(2) 0.51068(17)
H18 H 0.2928 0.3898 0.5524
C32 C 0.3699(3) 0.3600(2) 0.46889(16)
H19 H 0.4351 0.4066 0.4822
C33 C 0.3594(3) 0.3022(2) 0.40722(15)
H20 H 0.4170 0.3098 0.3781
C34 C 0.3603(3) 0.2024(2) 0.11141(15)
C35 C 0.4497(3) 0.2046(2) 0.07342(16)
C36 C 0.4525(3) 0.2343(2) 0.01607(16)
H21 H 0.5136 0.2365 -0.0102
C37 C 0.3669(3) 0.2606(2) -0.00313(16)
H22 H 0.3692 0.2805 -0.0430
C38 C 0.2774(3) 0.2587(2) 0.03445(16)
H23 H 0.2184 0.2769 0.0207
C39 C 0.2754(3) 0.2299(2) 0.09218(17)
H24 H 0.2149 0.2290 0.1189
C40 C 0.6322(3) 0.1964(2) 0.06682(16)
C41 C 0.7027(3) 0.2766(2) 0.08879(15)
H25 H 0.6837 0.3176 0.1229
C42 C 0.8047(3) 0.2990(2) 0.06054(16)
C43 C 0.8832(3) 0.3845(2) 0.08089(15)
C44 C 0.8629(3) 0.4517(2) 0.12931(15)
H26 H 0.7957 0.4419 0.1501
C45 C 0.9394(3) 0.5310(2) 0.14660(17)
H27 H 0.9245 0.5757 0.1792
C46 C 1.0390(3) 0.5470(2) 0.11710(18)
H28 H 1.0915 0.6022 0.1294
C47 C 1.0603(3) 0.4823(2) 0.07010(17)
H29 H 1.1284 0.4929 0.0503
C48 C 0.9834(3) 0.4009(2) 0.05084(16)
C49 C 1.0051(3) 0.3350(2) -0.00025(17)
H30 H 1.0725 0.3469 -0.0207
C50 C 0.9319(3) 0.2566(2) -0.01987(16)
H31 H 0.9479 0.2145 -0.0544
C51 C 0.8299(3) 0.2356(2) 0.01054(16)
C52 C 0.7546(3) 0.1534(2) -0.00957(16)
H32 H 0.7721 0.1110 -0.0432
C53 C 0.6560(3) 0.1327(2) 0.01828(16)
H33 H 0.6056 0.0767 0.0048
O5 O 0.23290(19) 0.56770(14) 0.23627(10)
O6 O 0.59061(18) 0.44716(14) 0.16767(11)
O7 O 0.54341(17) 0.49598(14) 0.39028(11)
O8 O 0.66191(18) 0.33605(14) 0.26406(11)
N2 N 0.5935(2) 0.48156(16) 0.28233(12)
C54 C 0.3238(3) 0.5660(2) 0.25075(16)
C55 C 0.4171(3) 0.5552(2) 0.20533(15)
C56 C 0.4308(3) 0.4733(2) 0.22379(15)
H34 H 0.3749 0.4206 0.1974
C57 C 0.5454(3) 0.4637(2) 0.21770(17)
C58 C 0.5203(3) 0.48934(19) 0.33165(17)
C59 C 0.4127(3) 0.4867(2) 0.29913(14)
H35 H 0.3522 0.4376 0.3073
C60 C 0.3811(3) 0.5728(2) 0.31936(15)
C61 C 0.4826(3) 0.6455(2) 0.31323(16)
C62 C 0.5067(3) 0.63166(19) 0.24790(15)
C63 C 0.6091(3) 0.6784(2) 0.22717(15)
C64 C 0.6452(3) 0.6527(2) 0.16350(16)
H36 H 0.5988 0.6052 0.1315
C65 C 0.7465(3) 0.6953(2) 0.14726(17)
H37 H 0.7708 0.6763 0.1047
C66 C 0.8133(3) 0.7659(2) 0.19251(18)
H38 H 0.8819 0.7970 0.1803
C67 C 0.7810(3) 0.7909(2) 0.25494(18)
H39 H 0.8288 0.8388 0.2858
C68 C 0.6792(3) 0.7481(2) 0.27495(16)
C69 C 0.6467(3) 0.7707(2) 0.34274(15)
C70 C 0.7098(3) 0.8436(2) 0.39043(17)
H40 H 0.7733 0.8806 0.3774
C71 C 0.6826(3) 0.8625(2) 0.45445(17)
H41 H 0.7270 0.9123 0.4853
C72 C 0.5911(3) 0.8100(2) 0.47489(17)
H42 H 0.5731 0.8234 0.5199
C73 C 0.5255(3) 0.7382(2) 0.43054(15)
H43 H 0.4627 0.7023 0.4451
C74 C 0.5510(3) 0.7177(2) 0.36331(15)
C75 C 0.3923(2) 0.5544(2) 0.13423(15)
C76 C 0.3939(2) 0.4869(2) 0.08120(16)
H44 H 0.4126 0.4386 0.0893
C77 C 0.3681(3) 0.4900(2) 0.01659(16)
H45 H 0.3692 0.4433 -0.0193
C78 C 0.3412(3) 0.5589(2) 0.00303(17)
H46 H 0.3248 0.5606 -0.0416
C79 C 0.3385(3) 0.6262(2) 0.05627(16)
H47 H 0.3187 0.6741 0.0481
C80 C 0.3642(2) 0.6238(2) 0.12064(16)
H48 H 0.3626 0.6704 0.1565
C81 C 0.3103(3) 0.5815(2) 0.37782(16)
C82 C 0.2478(3) 0.6381(2) 0.38476(16)
H49 H 0.2509 0.6728 0.3536
C83 C 0.1794(3) 0.6442(2) 0.43815(18)
H50 H 0.1365 0.6831 0.4433
C84 C 0.1759(3) 0.5928(3) 0.48274(18)
H51 H 0.1295 0.5963 0.5184
C85 C 0.2375(3) 0.5375(2) 0.47659(18)
H52 H 0.2347 0.5032 0.5080
C86 C 0.3044(3) 0.5314(2) 0.42414(16)
H53 H 0.3470 0.4924 0.4198
C87 C 0.7058(3) 0.4876(2) 0.29808(15)
C88 C 0.7385(3) 0.4149(2) 0.29324(16)
C89 C 0.8447(3) 0.4211(2) 0.31257(16)
H54 H 0.8667 0.3706 0.3094
C90 C 0.9192(3) 0.5014(2) 0.33664(16)
H55 H 0.9923 0.5060 0.3506
C91 C 0.8883(3) 0.5748(2) 0.34050(16)
H56 H 0.9403 0.6297 0.3565
C92 C 0.7816(3) 0.5687(2) 0.32102(16)
H57 H 0.7600 0.6192 0.3232
C93 C 0.6473(3) 0.2696(2) 0.29654(17)
C94 C 0.6262(3) 0.1886(2) 0.25649(16)
H58 H 0.6307 0.1811 0.2096
C95 C 0.5977(3) 0.1162(2) 0.28435(16)
C96 C 0.5742(3) 0.0288(2) 0.24381(17)
C97 C 0.5836(3) 0.0102(2) 0.17430(17)
H59 H 0.6026 0.0559 0.1522
C98 C 0.5658(3) -0.0726(2) 0.13811(18)
H60 H 0.5749 -0.0834 0.0916
C99 C 0.5344(3) -0.1411(2) 0.16878(19)
H61 H 0.5214 -0.1984 0.1432
C100 C 0.5222(3) -0.1254(2) 0.2363(2)
H62 H 0.4998 -0.1725 0.2569
C101 C 0.5422(3) -0.0407(2) 0.27578(18)
C102 C 0.5335(3) -0.0252(2) 0.34623(18)
H63 H 0.5100 -0.0723 0.3668
C103 C 0.5585(3) 0.0560(2) 0.38360(18)
H64 H 0.5539 0.0650 0.4306
C104 C 0.5920(3) 0.1295(2) 0.35504(17)
C105 C 0.6174(3) 0.2144(2) 0.39357(17)
H65 H 0.6162 0.2238 0.4407
C106 C 0.6440(3) 0.2843(2) 0.36573(17)
H66 H 0.6597 0.3411 0.3928
O9 O 0.0474(2) 0.7777(2) 0.42789(15)
C107 C 0.1009(4) 0.8559(3) 0.4472(2)
C108 C 0.0435(4) 0.9210(3) 0.4643(2)
D1 D -0.0359 0.8934 0.4556
D2 D 0.0671 0.9632 0.4371
D3 D 0.0605 0.9500 0.5118
C109 C 0.2247(3) 0.8831(3) 0.4532(3)
D4 D 0.2505 0.8322 0.4402
D5 D 0.2517 0.9130 0.4996
D6 D 0.2524 0.9219 0.4238
O10 O 0.9460(2) 0.0372(2) 0.36559(14)
C110 C 0.8954(3) 0.0714(3) 0.3354(2)
C111 C 0.8353(3) 0.0241(3) 0.2703(2)
D7 D 0.8743 -0.0151 0.2466
D8 D 0.8303 0.0650 0.2438
D9 D 0.7612 -0.0091 0.2774
C112 C 0.8897(3) 0.1610(3) 0.3633(2)
D10 D 0.9216 0.1810 0.4097
D11 D 0.8129 0.1611 0.3620
D12 D 0.9310 0.1994 0.3367
loop_
_geom_bond_atom_site_label_1
_geom_bond_atom_site_label_2
_geom_bond_site_symmetry_1
_geom_bond_site_symmetry_2
O1 C1 1_555 1_555
O2 C4 1_555 1_555
O3 C5 1_555 1_555
O4 C35 1_555 1_555
N1 C4 1_555 1_555
C1 C2 1_555 1_555
C2 C3 1_555 1_555
C3 H1 1_555 1_555
C4 C3 1_555 1_555
C5 N1 1_555 1_555
C6 C3 1_555 1_555
H2 C6 1_555 1_555
C7 C1 1_555 1_555
C8 C7 1_555 1_555
C9 C2 1_555 1_555
C10 C9 1_555 1_555
C11 C10 1_555 1_555
H3 C11 1_555 1_555
C12 C11 1_555 1_555
H4 C12 1_555 1_555
C13 C12 1_555 1_555
H5 C13 1_555 1_555
C14 C13 1_555 1_555
H6 C14 1_555 1_555
C15 C10 1_555 1_555
C16 C15 1_555 1_555
C17 C16 1_555 1_555
H7 C17 1_555 1_555
C18 C17 1_555 1_555
H8 C18 1_555 1_555
C19 C18 1_555 1_555
H9 C19 1_555 1_555
C20 C19 1_555 1_555
H10 C20 1_555 1_555
C21 C8 1_555 1_555
C22 C2 1_555 1_555
C23 C22 1_555 1_555
H11 C23 1_555 1_555
C24 C23 1_555 1_555
H12 C24 1_555 1_555
C25 C24 1_555 1_555
H13 C25 1_555 1_555
C26 C25 1_555 1_555
H14 C26 1_555 1_555
C27 C22 1_555 1_555
H15 C27 1_555 1_555
C28 C7 1_555 1_555
C29 C28 1_555 1_555
H16 C29 1_555 1_555
C30 C29 1_555 1_555
H17 C30 1_555 1_555
C31 C30 1_555 1_555
H18 C31 1_555 1_555
C32 C31 1_555 1_555
H19 C32 1_555 1_555
C33 C28 1_555 1_555
H20 C33 1_555 1_555
C34 N1 1_555 1_555
C35 C34 1_555 1_555
C36 C35 1_555 1_555
H21 C36 1_555 1_555
C37 C36 1_555 1_555
H22 C37 1_555 1_555
C38 C37 1_555 1_555
H23 C38 1_555 1_555
C39 C34 1_555 1_555
H24 C39 1_555 1_555
C40 O4 1_555 1_555
C41 C40 1_555 1_555
H25 C41 1_555 1_555
C42 C41 1_555 1_555
C43 C42 1_555 1_555
C44 C43 1_555 1_555
H26 C44 1_555 1_555
C45 C44 1_555 1_555
H27 C45 1_555 1_555
C46 C45 1_555 1_555
H28 C46 1_555 1_555
C47 C46 1_555 1_555
H29 C47 1_555 1_555
C48 C43 1_555 1_555
C49 C48 1_555 1_555
H30 C49 1_555 1_555
C50 C49 1_555 1_555
H31 C50 1_555 1_555
C51 C42 1_555 1_555
C52 C51 1_555 1_555
H32 C52 1_555 1_555
C53 C40 1_555 1_555
H33 C53 1_555 1_555
O5 C54 1_555 1_555
O6 C57 1_555 1_555
O7 C58 1_555 1_555
O8 C88 1_555 1_555
N2 C57 1_555 1_555
C54 C55 1_555 1_555
C55 C56 1_555 1_555
C56 H34 1_555 1_555
C57 C56 1_555 1_555
C58 N2 1_555 1_555
C59 C56 1_555 1_555
H35 C59 1_555 1_555
C60 C54 1_555 1_555
C61 C60 1_555 1_555
C62 C55 1_555 1_555
C63 C62 1_555 1_555
C64 C63 1_555 1_555
H36 C64 1_555 1_555
C65 C64 1_555 1_555
H37 C65 1_555 1_555
C66 C65 1_555 1_555
H38 C66 1_555 1_555
C67 C66 1_555 1_555
H39 C67 1_555 1_555
C68 C63 1_555 1_555
C69 C68 1_555 1_555
C70 C69 1_555 1_555
H40 C70 1_555 1_555
C71 C70 1_555 1_555
H41 C71 1_555 1_555
C72 C71 1_555 1_555
H42 C72 1_555 1_555
C73 C72 1_555 1_555
H43 C73 1_555 1_555
C74 C61 1_555 1_555
C75 C55 1_555 1_555
C76 C75 1_555 1_555
H44 C76 1_555 1_555
C77 C76 1_555 1_555
H45 C77 1_555 1_555
C78 C77 1_555 1_555
H46 C78 1_555 1_555
C79 C78 1_555 1_555
H47 C79 1_555 1_555
C80 C75 1_555 1_555
H48 C80 1_555 1_555
C81 C60 1_555 1_555
C82 C81 1_555 1_555
H49 C82 1_555 1_555
C83 C82 1_555 1_555
H50 C83 1_555 1_555
C84 C83 1_555 1_555
H51 C84 1_555 1_555
C85 C84 1_555 1_555
H52 C85 1_555 1_555
C86 C81 1_555 1_555
H53 C86 1_555 1_555
C87 N2 1_555 1_555
C88 C87 1_555 1_555
C89 C88 1_555 1_555
H54 C89 1_555 1_555
C90 C89 1_555 1_555
H55 C90 1_555 1_555
C91 C90 1_555 1_555
H56 C91 1_555 1_555
C92 C87 1_555 1_555
H57 C92 1_555 1_555
C93 O8 1_555 1_555
C94 C93 1_555 1_555
H58 C94 1_555 1_555
C95 C94 1_555 1_555
C96 C95 1_555 1_555
C97 C96 1_555 1_555
H59 C97 1_555 1_555
C98 C97 1_555 1_555
H60 C98 1_555 1_555
C99 C98 1_555 1_555
H61 C99 1_555 1_555
C100 C99 1_555 1_555
H62 C100 1_555 1_555
C101 C96 1_555 1_555
C102 C101 1_555 1_555
H63 C102 1_555 1_555
C103 C102 1_555 1_555
H64 C103 1_555 1_555
C104 C95 1_555 1_555
C105 C104 1_555 1_555
H65 C105 1_555 1_555
C106 C93 1_555 1_555
H66 C106 1_555 1_555
O9 C107 1_555 1_555
C107 C108 1_555 1_555
C108 D1 1_555 1_555
D2 C108 1_555 1_555
D3 C108 1_555 1_555
C109 C107 1_555 1_555
D4 C109 1_555 1_555
D5 C109 1_555 1_555
D6 C109 1_555 1_555
O10 C110 1_555 1_555
C110 C111 1_555 1_555
C111 D7 1_555 1_555
D8 C111 1_555 1_555
D9 C111 1_555 1_555
C112 C110 1_555 1_555
D10 C112 1_555 1_555
D11 C112 1_555 1_555
D12 C112 1_555 1_555
C5 C6 1_555 1_555
C6 C7 1_555 1_555
C8 C9 1_555 1_555
C14 C15 1_555 1_555
C16 C21 1_555 1_555
C20 C21 1_555 1_555
C26 C27 1_555 1_555
C32 C33 1_555 1_555
C38 C39 1_555 1_555
C47 C48 1_555 1_555
C50 C51 1_555 1_555
C52 C53 1_555 1_555
C58 C59 1_555 1_555
C59 C60 1_555 1_555
C61 C62 1_555 1_555
C67 C68 1_555 1_555
C69 C74 1_555 1_555
C73 C74 1_555 1_555
C79 C80 1_555 1_555
C85 C86 1_555 1_555
C91 C92 1_555 1_555
C100 C101 1_555 1_555
C103 C104 1_555 1_555
C105 C106 1_555 1_555

#END
