
#######################################################################
#
#                 Cambridge Crystallographic Data Centre
#                                CCDC 
#
#######################################################################
#
# If this CIF has been generated from an entry in the Cambridge 
# Structural Database, then it will include bibliographic, chemical, 
# crystal, experimental, refinement or atomic coordinate data resulting 
# from the CCDC's data processing and validation procedures.
#
#######################################################################

data_MUFNAE
_chemical_formula_moiety         'C42 H29 N1 O4'
_chemical_name_systematic        
11-(2-(biphenyl-4-yloxy)phenyl)-1,8-diphenyl-14-oxa-11-azatetracyclo[6.5.1.0^2,7^.0^9,13^]tetradeca-2,4,6-triene-10,12-dione
_symmetry_cell_setting           orthorhombic
_symmetry_space_group_name_H-M   'P 21 21 21'
_symmetry_Int_Tables_number      19
_space_group_name_Hall           'P 2ac 2ab'
loop_
_symmetry_equiv_pos_site_id
_symmetry_equiv_pos_as_xyz
1 x,y,z
2 1/2-x,-y,1/2+z
3 1/2+x,1/2-y,-z
4 -x,1/2+y,1/2-z
_cell_length_a                   8.0214(14)
_cell_length_b                   18.267(3)
_cell_length_c                   21.084(4)
_cell_angle_alpha                90
_cell_angle_beta                 90
_cell_angle_gamma                90
_cell_volume                     3089.37
_exptl_crystal_colour            colorless
_exptl_crystal_description       plate
_cell_formula_units_Z            4
loop_
_atom_site_label
_atom_site_type_symbol
_atom_site_fract_x
_atom_site_fract_y
_atom_site_fract_z
O1 O 0.1431(2) 0.63391(10) 0.46496(9)
O2 O 0.4453(3) 0.48412(11) 0.33841(9)
O3 O 0.2808(3) 0.40659(10) 0.53492(10)
O4 O 0.3006(3) 0.30533(11) 0.39830(10)
N1 N 0.3936(3) 0.43711(12) 0.43803(11)
C1 C 0.2581(4) 0.61668(16) 0.41360(14)
C2 C 0.2173(4) 0.53327(15) 0.40459(13)
H1 H 0.1220 0.5263 0.3746
C3 C 0.3631(4) 0.48443(16) 0.38703(15)
C4 C 0.2820(4) 0.44493(16) 0.48797(14)
C5 C 0.1695(4) 0.50910(14) 0.47262(13)
H2 H 0.0495 0.4945 0.4748
C6 C 0.2014(4) 0.58039(16) 0.51161(13)
C7 C 0.3875(4) 0.59571(15) 0.51037(14)
C8 C 0.4241(4) 0.61948(15) 0.44904(14)
C9 C 0.5863(4) 0.63504(15) 0.43125(15)
H3 H 0.6116 0.6502 0.3892
C10 C 0.7107(4) 0.62798(16) 0.47639(14)
H4 H 0.8226 0.6393 0.4653
C11 C 0.6747(4) 0.60462(16) 0.53768(15)
H5 H 0.7621 0.6004 0.5679
C12 C 0.5111(4) 0.58727(16) 0.55541(14)
H6 H 0.4860 0.5703 0.5969
C13 C 0.2290(4) 0.66448(15) 0.35708(14)
C14 C 0.3007(4) 0.64541(16) 0.29936(14)
H7 H 0.3679 0.6027 0.2964
C15 C 0.2745(4) 0.68855(16) 0.24602(14)
H8 H 0.3246 0.6757 0.2067
C16 C 0.1754(4) 0.75023(17) 0.25034(15)
H9 H 0.1558 0.7794 0.2138
C17 C 0.1051(4) 0.76933(16) 0.30758(15)
H10 H 0.0383 0.8121 0.3105
C18 C 0.1311(4) 0.72657(15) 0.36102(15)
H11 H 0.0818 0.7400 0.4003
C19 C 0.1133(4) 0.58956(16) 0.57389(13)
C20 C 0.0881(4) 0.65920(16) 0.59798(14)
H12 H 0.1248 0.7007 0.5747
C21 C 0.0099(4) 0.66866(17) 0.65580(14)
H13 H -0.0082 0.7166 0.6719
C22 C -0.0424(4) 0.60835(18) 0.69042(15)
H14 H -0.0959 0.6149 0.7302
C23 C -0.0162(4) 0.53877(18) 0.66687(15)
H15 H -0.0512 0.4974 0.6907
C24 C 0.0607(4) 0.52917(17) 0.60866(14)
H16 H 0.0776 0.4812 0.5925
C25 C 0.5158(4) 0.37975(16) 0.43553(14)
C26 C 0.4672(4) 0.31132(17) 0.41544(15)
C27 C 0.5798(4) 0.25394(16) 0.41467(14)
H17 H 0.5459 0.2062 0.4024
C28 C 0.7424(4) 0.26773(17) 0.43216(13)
H18 H 0.8209 0.2288 0.4311
C29 C 0.7952(4) 0.33671(16) 0.45129(15)
H19 H 0.9084 0.3452 0.4622
C30 C 0.6784(4) 0.39314(16) 0.45407(14)
H20 H 0.7102 0.4404 0.4686
C31 C 0.2513(4) 0.24180(17) 0.36540(15)
C32 C 0.1544(4) 0.19170(16) 0.39613(15)
H21 H 0.1246 0.1991 0.4393
C33 C 0.0996(4) 0.12977(16) 0.36404(15)
H22 H 0.0329 0.0948 0.3857
C34 C 0.1410(4) 0.11812(16) 0.30037(15)
C35 C 0.2377(4) 0.17162(17) 0.27066(15)
H23 H 0.2662 0.1656 0.2272
C36 C 0.2936(4) 0.23337(17) 0.30265(15)
H24 H 0.3597 0.2690 0.2816
C37 C 0.0847(4) 0.05066(16) 0.26682(14)
C38 C -0.0647(4) 0.01636(16) 0.28327(14)
H25 H -0.1340 0.0371 0.3151
C39 C -0.1123(4) -0.04784(16) 0.25341(15)
H26 H -0.2138 -0.0709 0.2652
C40 C -0.0147(4) -0.07869(17) 0.20696(14)
H27 H -0.0484 -0.1226 0.1864
C41 C 0.1343(4) -0.04454(17) 0.19050(14)
H28 H 0.2040 -0.0655 0.1589
C42 C 0.1806(4) 0.01949(16) 0.21989(13)
H29 H 0.2814 0.0428 0.2075
loop_
_geom_bond_atom_site_label_1
_geom_bond_atom_site_label_2
_geom_bond_site_symmetry_1
_geom_bond_site_symmetry_2
O1 C1 1_555 1_555
O2 C3 1_555 1_555
O3 C4 1_555 1_555
O4 C26 1_555 1_555
N1 C3 1_555 1_555
C1 C2 1_555 1_555
C2 H1 1_555 1_555
C3 C2 1_555 1_555
C4 N1 1_555 1_555
C5 C2 1_555 1_555
H2 C5 1_555 1_555
C6 O1 1_555 1_555
C7 C6 1_555 1_555
C8 C1 1_555 1_555
C9 C8 1_555 1_555
H3 C9 1_555 1_555
C10 C9 1_555 1_555
H4 C10 1_555 1_555
C11 C10 1_555 1_555
H5 C11 1_555 1_555
C12 C7 1_555 1_555
H6 C12 1_555 1_555
C13 C1 1_555 1_555
C14 C13 1_555 1_555
H7 C14 1_555 1_555
C15 C14 1_555 1_555
H8 C15 1_555 1_555
C16 C15 1_555 1_555
H9 C16 1_555 1_555
C17 C16 1_555 1_555
H10 C17 1_555 1_555
C18 C13 1_555 1_555
H11 C18 1_555 1_555
C19 C6 1_555 1_555
C20 C19 1_555 1_555
H12 C20 1_555 1_555
C21 C20 1_555 1_555
H13 C21 1_555 1_555
C22 C21 1_555 1_555
H14 C22 1_555 1_555
C23 C22 1_555 1_555
H15 C23 1_555 1_555
C24 C19 1_555 1_555
H16 C24 1_555 1_555
C25 N1 1_555 1_555
C26 C25 1_555 1_555
C27 C26 1_555 1_555
H17 C27 1_555 1_555
C28 C27 1_555 1_555
H18 C28 1_555 1_555
C29 C28 1_555 1_555
H19 C29 1_555 1_555
C30 C25 1_555 1_555
H20 C30 1_555 1_555
C31 O4 1_555 1_555
C32 C31 1_555 1_555
H21 C32 1_555 1_555
C33 C32 1_555 1_555
H22 C33 1_555 1_555
C34 C33 1_555 1_555
C35 C34 1_555 1_555
H23 C35 1_555 1_555
C36 C31 1_555 1_555
H24 C36 1_555 1_555
C37 C34 1_555 1_555
C38 C37 1_555 1_555
H25 C38 1_555 1_555
C39 C38 1_555 1_555
H26 C39 1_555 1_555
C40 C39 1_555 1_555
H27 C40 1_555 1_555
C41 C40 1_555 1_555
H28 C41 1_555 1_555
C42 C37 1_555 1_555
H29 C42 1_555 1_555
C4 C5 1_555 1_555
C5 C6 1_555 1_555
C7 C8 1_555 1_555
C11 C12 1_555 1_555
C17 C18 1_555 1_555
C23 C24 1_555 1_555
C29 C30 1_555 1_555
C35 C36 1_555 1_555
C41 C42 1_555 1_555

#END
