
#######################################################################
#
#                 Cambridge Crystallographic Data Centre
#                                CCDC 
#
#######################################################################
#
# If this CIF has been generated from an entry in the Cambridge 
# Structural Database, then it will include bibliographic, chemical, 
# crystal, experimental, refinement or atomic coordinate data resulting 
# from the CCDC's data processing and validation procedures.
#
#######################################################################

data_MUFSEN
_chemical_formula_moiety         'C22 H19 Cl1 N2 O2'
_chemical_name_systematic        
2-((4-(N-(benzyloxy)ethanimidoyl)phenyl)carbonoimidoyl)-4-chlorophenol
_symmetry_cell_setting           monoclinic
_symmetry_space_group_name_H-M   'P 21/c'
_symmetry_Int_Tables_number      14
_space_group_name_Hall           '-P 2ybc'
loop_
_symmetry_equiv_pos_site_id
_symmetry_equiv_pos_as_xyz
1 x,y,z
2 -x,1/2+y,1/2-z
3 -x,-y,-z
4 x,1/2-y,1/2+z
_cell_length_a                   42.678(5)
_cell_length_b                   7.2297(9)
_cell_length_c                   6.1309(6)
_cell_angle_alpha                90
_cell_angle_beta                 91.498(9)
_cell_angle_gamma                90
_cell_volume                     1891.04
_exptl_crystal_colour            brown
_exptl_crystal_description       block-like
_cell_formula_units_Z            4
loop_
_atom_site_label
_atom_site_type_symbol
_atom_site_fract_x
_atom_site_fract_y
_atom_site_fract_z
Cl1 Cl 0.47130(4) 0.5743(3) 0.8159(3)
N1 N 0.18160(13) 0.5222(9) 0.6858(10)
N2 N 0.32762(12) 0.5099(8) 0.5420(8)
O1 O 0.15064(12) 0.5161(8) 0.7629(8)
O2 O 0.36382(12) 0.4243(8) 0.2248(7)
H1 H 0.3472 0.4445 0.2850
C1 C 0.1936(2) 0.4595(15) 1.0723(13)
H2 H 0.1813 0.3486 1.0795
H3 H 0.1817 0.5617 1.1268
H4 H 0.2124 0.4447 1.1593
C2 C 0.20173(17) 0.4957(10) 0.8428(11)
C3 C 0.23497(15) 0.4990(9) 0.7713(10)
C4 C 0.25935(17) 0.4245(10) 0.9002(11)
H5 H 0.2551 0.3709 1.0340
C5 C 0.29020(15) 0.4305(9) 0.8284(10)
H6 H 0.3063 0.3801 0.9143
C6 C 0.29683(16) 0.5116(9) 0.6290(10)
C7 C 0.27266(16) 0.5819(9) 0.5013(10)
H7 H 0.2769 0.6312 0.3651
C8 C 0.24237(17) 0.5806(9) 0.5718(10)
H8 H 0.2266 0.6346 0.4860
C9 C 0.35173(15) 0.5436(9) 0.6643(10)
H9 H 0.3491 0.5807 0.8079
C10 C 0.38341(13) 0.5244(8) 0.5802(9)
C11 C 0.38811(16) 0.4613(9) 0.3656(10)
C12 C 0.41852(16) 0.4298(10) 0.2975(11)
H10 H 0.4217 0.3846 0.1577
C13 C 0.44415(16) 0.4646(9) 0.4339(11)
H11 H 0.4643 0.4415 0.3875
C14 C 0.43930(15) 0.5353(10) 0.6432(11)
C15 C 0.40936(15) 0.5604(9) 0.7170(10)
H12 H 0.4064 0.6016 0.8587
C16 C 0.12945(17) 0.5370(15) 0.5826(12)
H13 H 0.1335 0.4429 0.4741
H14 H 0.1323 0.6573 0.5160
C17 C 0.09632(18) 0.5190(13) 0.6600(12)
C18 C 0.0887(2) 0.4372(14) 0.8563(13)
H15 H 0.1047 0.3929 0.9484
C19 C 0.0582(2) 0.4201(15) 0.9175(15)
H16 H 0.0536 0.3652 1.0500
C20 C 0.0344(2) 0.4844(17) 0.7827(15)
H17 H 0.0137 0.4736 0.8239
C21 C 0.0414(2) 0.5645(15) 0.5871(14)
H18 H 0.0251 0.6053 0.4949
C22 C 0.0721(2) 0.5858(14) 0.5247(13)
H19 H 0.0766 0.6440 0.3938
loop_
_geom_bond_atom_site_label_1
_geom_bond_atom_site_label_2
_geom_bond_site_symmetry_1
_geom_bond_site_symmetry_2
Cl1 C14 1_555 1_555
N1 O1 1_555 1_555
N2 C6 1_555 1_555
O1 C16 1_555 1_555
O2 H1 1_555 1_555
C1 H2 1_555 1_555
H3 C1 1_555 1_555
H4 C1 1_555 1_555
C2 N1 1_555 1_555
C3 C2 1_555 1_555
C4 C3 1_555 1_555
H5 C4 1_555 1_555
C5 C4 1_555 1_555
H6 C5 1_555 1_555
C6 C5 1_555 1_555
C7 C6 1_555 1_555
H7 C7 1_555 1_555
C8 C3 1_555 1_555
H8 C8 1_555 1_555
C9 N2 1_555 1_555
H9 C9 1_555 1_555
C10 C9 1_555 1_555
C11 O2 1_555 1_555
C12 C11 1_555 1_555
H10 C12 1_555 1_555
C13 C12 1_555 1_555
H11 C13 1_555 1_555
C14 C13 1_555 1_555
C15 C10 1_555 1_555
H12 C15 1_555 1_555
C16 H13 1_555 1_555
H14 C16 1_555 1_555
C17 C16 1_555 1_555
C18 C17 1_555 1_555
H15 C18 1_555 1_555
C19 C18 1_555 1_555
H16 C19 1_555 1_555
C20 C19 1_555 1_555
H17 C20 1_555 1_555
C21 C20 1_555 1_555
H18 C21 1_555 1_555
C22 C17 1_555 1_555
H19 C22 1_555 1_555
C1 C2 1_555 1_555
C7 C8 1_555 1_555
C10 C11 1_555 1_555
C14 C15 1_555 1_555
C21 C22 1_555 1_555

#END
