
#######################################################################
#
#                 Cambridge Crystallographic Data Centre
#                                CCDC 
#
#######################################################################
#
# If this CIF has been generated from an entry in the Cambridge 
# Structural Database, then it will include bibliographic, chemical, 
# crystal, experimental, refinement or atomic coordinate data resulting 
# from the CCDC's data processing and validation procedures.
#
#######################################################################

data_MUGJEF
_chemical_formula_moiety         'C30 H36 N2 O3'
_chemical_name_systematic        
'17-(4-formyl-1-phenyl-1H-pyrazol-3-yl)androst-5-en-3-yl formate'
_symmetry_cell_setting           orthorhombic
_symmetry_space_group_name_H-M   'P 21 21 21'
_symmetry_Int_Tables_number      19
_space_group_name_Hall           'P 2ac 2ab'
loop_
_symmetry_equiv_pos_site_id
_symmetry_equiv_pos_as_xyz
1 x,y,z
2 1/2-x,-y,1/2+z
3 -x,1/2+y,1/2-z
4 1/2+x,1/2-y,-z
_cell_length_a                   7.3584(12)
_cell_length_b                   9.9907(17)
_cell_length_c                   33.841(6)
_cell_angle_alpha                90
_cell_angle_beta                 90
_cell_angle_gamma                90
_cell_volume                     2487.84
_cell_formula_units_Z            4
loop_
_atom_site_label
_atom_site_type_symbol
_atom_site_fract_x
_atom_site_fract_y
_atom_site_fract_z
N1 N 0.2659(2) 0.76581(16) 0.05187(5)
N2 N 0.1464(2) 0.75818(17) 0.08279(4)
O1 O 0.3308(3) 0.35820(17) 0.10927(6)
O2 O 0.2646(2) 0.60223(15) 0.43069(4)
O3 O 0.2997(3) 0.3842(2) 0.44414(6)
C1 C 0.2165(4) 1.0034(2) 0.04563(7)
H1 H 0.1704 1.0046 0.0712
C2 C 0.2270(4) 1.1193(2) 0.02411(8)
H2 H 0.1875 1.1994 0.0352
C3 C 0.2955(4) 1.1183(3) -0.01367(7)
H3 H 0.3027 1.1974 -0.0281
C4 C 0.3530(3) 1.0002(3) -0.02991(7)
H4 H 0.4000 0.9995 -0.0554
C5 C 0.3421(3) 0.8830(2) -0.00895(6)
H5 H 0.3799 0.8029 -0.0203
C6 C 0.2748(3) 0.8851(2) 0.02901(6)
C7 C 0.3674(3) 0.6554(2) 0.04926(6)
H6 H 0.4581 0.6391 0.0307
C8 C 0.3135(3) 0.5702(2) 0.07883(6)
C9 C 0.1750(3) 0.64088(19) 0.09927(5)
C10 C 0.3832(4) 0.4373(2) 0.08534(8)
H7 H 0.4789 0.4102 0.0692
C11 C 0.0734(3) 0.60136(19) 0.13599(5)
H8 H 0.0685 0.5034 0.1368
C12 C -0.1245(3) 0.6540(2) 0.13804(6)
H9 H -0.1395 0.7312 0.1210
H10 H -0.2092 0.5851 0.1298
C13 C -0.1579(3) 0.6925(3) 0.18117(6)
H11 H -0.1620 0.7890 0.1842
H12 H -0.2716 0.6550 0.1906
C14 C 0.0012(2) 0.63413(19) 0.20357(5)
H13 H -0.0221 0.5378 0.2054
C15 C 0.1619(2) 0.64973(18) 0.17517(5)
C16 C 0.2244(3) 0.7950(2) 0.17133(6)
H14 H 0.2526 0.8299 0.1970
H15 H 0.1292 0.8474 0.1596
H16 H 0.3307 0.7989 0.1549
C17 C 0.3151(3) 0.5623(2) 0.19086(6)
H17 H 0.4205 0.5710 0.1738
H18 H 0.2772 0.4693 0.1906
C18 C 0.3665(3) 0.6029(2) 0.23311(6)
H19 H 0.4228 0.6906 0.2324
H20 H 0.4561 0.5402 0.2431
C19 C 0.2054(3) 0.60729(18) 0.26219(5)
H21 H 0.1671 0.5141 0.2657
C20 C 0.0399(2) 0.6807(2) 0.24529(6)
H22 H 0.0667 0.7767 0.2446
C21 C -0.1237(3) 0.6583(3) 0.27200(6)
H23 H -0.2175 0.7227 0.2654
H24 H -0.1722 0.5694 0.2673
C22 C -0.0768(3) 0.6719(2) 0.31478(6)
H25 H -0.1725 0.6808 0.3325
C23 C 0.0891(3) 0.67220(19) 0.32937(6)
C24 C 0.2590(2) 0.65771(18) 0.30391(5)
C25 C 0.3865(3) 0.5544(2) 0.32318(6)
H26 H 0.3372 0.4657 0.3186
H27 H 0.5035 0.5589 0.3101
C26 C 0.4166(3) 0.5720(2) 0.36770(6)
H28 H 0.4887 0.4981 0.3777
H29 H 0.4827 0.6543 0.3726
C27 C 0.2374(3) 0.5763(2) 0.38878(6)
H30 H 0.1744 0.4906 0.3854
C28 C 0.1201(3) 0.6879(2) 0.37335(6)
H31 H 0.1785 0.7732 0.3785
H32 H 0.0041 0.6873 0.3870
C29 C 0.2934(4) 0.4981(3) 0.45387(7)
H33 H 0.3104 0.5160 0.4806
C30 C 0.3546(3) 0.79461(18) 0.30217(6)
H34 H 0.2815 0.8561 0.2873
H35 H 0.4709 0.7848 0.2897
H36 H 0.3708 0.8283 0.3285
loop_
_geom_bond_atom_site_label_1
_geom_bond_atom_site_label_2
_geom_bond_site_symmetry_1
_geom_bond_site_symmetry_2
N1 N2 1_555 1_555
N2 C9 1_555 1_555
O1 C10 1_555 1_555
O2 C27 1_555 1_555
O3 C29 1_555 1_555
C1 H1 1_555 1_555
C2 C1 1_555 1_555
H2 C2 1_555 1_555
C3 C2 1_555 1_555
H3 C3 1_555 1_555
C4 C3 1_555 1_555
H4 C4 1_555 1_555
C5 C4 1_555 1_555
H5 C5 1_555 1_555
C6 N1 1_555 1_555
C7 N1 1_555 1_555
H6 C7 1_555 1_555
C8 C7 1_555 1_555
C9 C8 1_555 1_555
C10 C8 1_555 1_555
H7 C10 1_555 1_555
C11 C9 1_555 1_555
H8 C11 1_555 1_555
C12 C11 1_555 1_555
H9 C12 1_555 1_555
H10 C12 1_555 1_555
C13 C12 1_555 1_555
H11 C13 1_555 1_555
H12 C13 1_555 1_555
C14 C13 1_555 1_555
H13 C14 1_555 1_555
C15 C11 1_555 1_555
C16 C15 1_555 1_555
H14 C16 1_555 1_555
H15 C16 1_555 1_555
H16 C16 1_555 1_555
C17 C15 1_555 1_555
H17 C17 1_555 1_555
H18 C17 1_555 1_555
C18 C17 1_555 1_555
H19 C18 1_555 1_555
H20 C18 1_555 1_555
C19 C18 1_555 1_555
H21 C19 1_555 1_555
C20 C14 1_555 1_555
H22 C20 1_555 1_555
C21 C20 1_555 1_555
H23 C21 1_555 1_555
H24 C21 1_555 1_555
C22 C21 1_555 1_555
H25 C22 1_555 1_555
C23 C22 1_555 1_555
C24 C19 1_555 1_555
C25 C24 1_555 1_555
H26 C25 1_555 1_555
H27 C25 1_555 1_555
C26 C25 1_555 1_555
H28 C26 1_555 1_555
H29 C26 1_555 1_555
C27 C26 1_555 1_555
H30 C27 1_555 1_555
C28 C23 1_555 1_555
H31 C28 1_555 1_555
H32 C28 1_555 1_555
C29 O2 1_555 1_555
H33 C29 1_555 1_555
C30 C24 1_555 1_555
H34 C30 1_555 1_555
H35 C30 1_555 1_555
H36 C30 1_555 1_555
C1 C6 1_555 1_555
C5 C6 1_555 1_555
C14 C15 1_555 1_555
C19 C20 1_555 1_555
C23 C24 1_555 1_555
C27 C28 1_555 1_555

#END
