
#######################################################################
#
#                 Cambridge Crystallographic Data Centre
#                                CCDC 
#
#######################################################################
#
# If this CIF has been generated from an entry in the Cambridge 
# Structural Database, then it will include bibliographic, chemical, 
# crystal, experimental, refinement or atomic coordinate data resulting 
# from the CCDC's data processing and validation procedures.
#
#######################################################################

data_MUGKUW
_chemical_formula_moiety         'C2 H6 N5 1+,C1 N5 O2 1-'
_chemical_name_systematic        
'4,5-diamino-4H-1,2,4-triazol-1-ium 5-nitrotetrazol-1-ide'
_symmetry_cell_setting           triclinic
_symmetry_space_group_name_H-M   'P -1'
_symmetry_Int_Tables_number      2
_space_group_name_Hall           '-P 1'
loop_
_symmetry_equiv_pos_site_id
_symmetry_equiv_pos_as_xyz
1 x,y,z
2 -x,-y,-z
_cell_length_a                   6.0990(12)
_cell_length_b                   7.2406(14)
_cell_length_c                   9.830(2)
_cell_angle_alpha                70.679(20)
_cell_angle_beta                 87.577(18)
_cell_angle_gamma                87.682(16)
_cell_volume                     409.121
_cell_formula_units_Z            2
loop_
_atom_site_label
_atom_site_type_symbol
_atom_site_fract_x
_atom_site_fract_y
_atom_site_fract_z
N1 N 0.5659(6) 0.2791(5) 0.7384(4)
N2 N 0.7547(6) 0.3633(5) 0.6793(4)
N3 N 0.7751(6) 0.3668(5) 0.5426(4)
N4 N 0.6002(6) 0.2838(5) 0.5102(4)
N5 N 0.2733(6) 0.1417(5) 0.6479(4)
O1 O 0.1703(5) 0.1119(5) 0.7630(3)
O2 O 0.2136(5) 0.0923(4) 0.5476(3)
C1 C 0.4816(6) 0.2358(6) 0.6317(4)
N6 N 0.5047(5) 0.7439(5) 0.8964(4)
N7 N 0.6560(5) 0.7494(5) 0.9952(4)
H1 H 0.6222 0.7597 1.0783
N8 N 0.8428(5) 0.7277(5) 0.8125(3)
N9 N 1.0473(6) 0.7297(5) 1.0113(4)
H2 H 1.0456 0.7334 1.0979
H3 H 1.1703 0.7215 0.9673
N10 N 1.0260(5) 0.6954(5) 0.7306(4)
H4 H 1.1549 0.6807 0.7657
H5 H 1.0092 0.6904 0.6455
C2 C 0.8617(7) 0.7366(6) 0.9462(4)
C3 C 0.6216(6) 0.7314(6) 0.7860(4)
H6 H 0.5646 0.7258 0.7012
loop_
_geom_bond_atom_site_label_1
_geom_bond_atom_site_label_2
_geom_bond_site_symmetry_1
_geom_bond_site_symmetry_2
N1 N2 1_555 1_555
N2 N3 1_555 1_555
N3 N4 1_555 1_555
N4 C1 1_555 1_555
N5 O1 1_555 1_555
O2 N5 1_555 1_555
C1 N1 1_555 1_555
N6 N7 1_555 1_555
N7 H1 1_555 1_555
N8 N10 1_555 1_555
N9 H2 1_555 1_555
H3 N9 1_555 1_555
N10 H4 1_555 1_555
H5 N10 1_555 1_555
C2 N7 1_555 1_555
C3 N6 1_555 1_555
H6 C3 1_555 1_555
N5 C1 1_555 1_555
N8 C2 1_555 1_555
N8 C3 1_555 1_555
N9 C2 1_555 1_555

#END
