
#######################################################################
#
#                 Cambridge Crystallographic Data Centre
#                                CCDC 
#
#######################################################################
#
# If this CIF has been generated from an entry in the Cambridge 
# Structural Database, then it will include bibliographic, chemical, 
# crystal, experimental, refinement or atomic coordinate data resulting 
# from the CCDC's data processing and validation procedures.
#
#######################################################################

data_MUGKEE
_chemical_formula_moiety         'C24 H17 N1 O2 S1'
_chemical_name_systematic        
11-Methyl-12a-phenyl-9a,11,12,12a-tetrahydrophenanthro(9',10:5,6)(1,4)dioxino(2,3-d)thiazole
_symmetry_cell_setting           orthorhombic
_symmetry_space_group_name_H-M   'P n a 21'
_symmetry_Int_Tables_number      33
_space_group_name_Hall           'P 2c -2n'
loop_
_symmetry_equiv_pos_site_id
_symmetry_equiv_pos_as_xyz
1 x,y,z
2 -x,-y,1/2+z
3 1/2+x,1/2-y,z
4 1/2-x,1/2+y,1/2+z
_cell_length_a                   10.79990(10)
_cell_length_b                   9.28510(10)
_cell_length_c                   18.7949(3)
_cell_angle_alpha                90
_cell_angle_beta                 90
_cell_angle_gamma                90
_cell_volume                     1884.72
_exptl_crystal_colour            yellow
_exptl_crystal_description       block
_cell_formula_units_Z            4
_exptl_crystal_recrystallization_method 'acetone/petroleum ether'
loop_
_atom_site_label
_atom_site_type_symbol
_atom_site_fract_x
_atom_site_fract_y
_atom_site_fract_z
S1 S 0.37224(9) 0.59958(10) 0.00909(5)
O1 O 0.4913(2) 0.8164(2) 0.17363(13)
O2 O 0.3769(2) 0.5527(3) 0.14726(14)
N1 N 0.5567(2) 0.7521(3) 0.05771(16)
C1 C 0.5283(3) 0.6917(4) 0.20767(17)
C2 C 0.6277(3) 0.7046(4) 0.25853(17)
C3 C 0.6890(3) 0.8373(4) 0.26976(18)
H1 H 0.6668 0.9176 0.2431
C4 C 0.7790(4) 0.8478(5) 0.3187(2)
H2 H 0.8160 0.9364 0.3276
C5 C 0.8170(4) 0.7265(5) 0.3561(2)
H3 H 0.8803 0.7350 0.3894
C6 C 0.7637(4) 0.5959(4) 0.3451(2)
H4 H 0.7918 0.5161 0.3703
C7 C 0.6668(3) 0.5803(4) 0.29613(18)
C8 C 0.6022(4) 0.4443(4) 0.28271(18)
C9 C 0.6367(4) 0.3156(4) 0.3191(2)
H5 H 0.7026 0.3158 0.3510
C10 C 0.5694(5) 0.1884(4) 0.3062(2)
H6 H 0.5868 0.1064 0.3328
C11 C 0.4802(4) 0.1827(4) 0.2559(2)
H7 H 0.4401 0.0961 0.2466
C12 C 0.4486(4) 0.3048(4) 0.2186(2)
H8 H 0.3870 0.2998 0.1840
C13 C 0.5075(3) 0.4359(4) 0.23166(17)
C14 C 0.4737(3) 0.5649(4) 0.19417(18)
C15 C 0.3544(3) 0.6689(4) 0.09831(18)
H9 H 0.2710 0.7080 0.1051
C16 C 0.4528(3) 0.7915(4) 0.10186(18)
C17 C 0.5272(3) 0.6637(4) 0.0092(2)
C18 C 0.3964(3) 0.9342(4) 0.07739(18)
C19 C 0.2938(3) 0.9918(4) 0.1142(2)
H10 H 0.2604 0.9418 0.1525
C20 C 0.2429(4) 1.1205(4) 0.0939(2)
H11 H 0.1774 1.1583 0.1200
C21 C 0.2860(4) 1.1947(4) 0.0363(2)
H12 H 0.2485 1.2801 0.0220
C22 C 0.3878(5) 1.1394(5) -0.0009(3)
H13 H 0.4199 1.1907 -0.0392
C23 C 0.4418(4) 1.0094(4) 0.0184(2)
H14 H 0.5078 0.9726 -0.0077
C24 C 0.6128(4) 0.6123(5) -0.0483(2)
H15 H 0.6145 0.5090 -0.0485
H16 H 0.6947 0.6485 -0.0395
H17 H 0.5840 0.6466 -0.0935
loop_
_geom_bond_atom_site_label_1
_geom_bond_atom_site_label_2
_geom_bond_site_symmetry_1
_geom_bond_site_symmetry_2
S1 C15 1_555 1_555
O1 C1 1_555 1_555
O2 C14 1_555 1_555
N1 C16 1_555 1_555
C1 C2 1_555 1_555
C2 C3 1_555 1_555
C3 H1 1_555 1_555
C4 C3 1_555 1_555
H2 C4 1_555 1_555
C5 C4 1_555 1_555
H3 C5 1_555 1_555
C6 C5 1_555 1_555
H4 C6 1_555 1_555
C7 C2 1_555 1_555
C8 C7 1_555 1_555
C9 C8 1_555 1_555
H5 C9 1_555 1_555
C10 C9 1_555 1_555
H6 C10 1_555 1_555
C11 C10 1_555 1_555
H7 C11 1_555 1_555
C12 C11 1_555 1_555
H8 C12 1_555 1_555
C13 C8 1_555 1_555
C14 C1 1_555 1_555
C15 O2 1_555 1_555
H9 C15 1_555 1_555
C16 O1 1_555 1_555
C17 S1 1_555 1_555
C18 C16 1_555 1_555
C19 C18 1_555 1_555
H10 C19 1_555 1_555
C20 C19 1_555 1_555
H11 C20 1_555 1_555
C21 C20 1_555 1_555
H12 C21 1_555 1_555
C22 C21 1_555 1_555
H13 C22 1_555 1_555
C23 C18 1_555 1_555
H14 C23 1_555 1_555
C24 C17 1_555 1_555
H15 C24 1_555 1_555
H16 C24 1_555 1_555
H17 C24 1_555 1_555
N1 C17 1_555 1_555
C6 C7 1_555 1_555
C12 C13 1_555 1_555
C13 C14 1_555 1_555
C15 C16 1_555 1_555
C22 C23 1_555 1_555

#END
