
#######################################################################
#
#                 Cambridge Crystallographic Data Centre
#                                CCDC 
#
#######################################################################
#
# If this CIF has been generated from an entry in the Cambridge 
# Structural Database, then it will include bibliographic, chemical, 
# crystal, experimental, refinement or atomic coordinate data resulting 
# from the CCDC's data processing and validation procedures.
#
#######################################################################

data_MUGLAD
_chemical_formula_moiety         '2(C2 H6 N5 1+),C1 N6 O2 2-'
_chemical_name_systematic        
'bis(4,5-diamino-4H-1,2,4-triazol-1-ium) 5-(nitroimino)tetrazole-1,4-diide'
_symmetry_cell_setting           monoclinic
_symmetry_space_group_name_H-M   'P 21/n'
_symmetry_Int_Tables_number      14
_space_group_name_Hall           '-P 2yn'
loop_
_symmetry_equiv_pos_site_id
_symmetry_equiv_pos_as_xyz
1 x,y,z
2 1/2-x,1/2+y,1/2-z
3 -x,-y,-z
4 1/2+x,1/2-y,1/2+z
_cell_length_a                   8.700(2)
_cell_length_b                   16.414(4)
_cell_length_c                   9.122(3)
_cell_angle_alpha                90
_cell_angle_beta                 90.905(5)
_cell_angle_gamma                90
_cell_volume                     1302.48
_exptl_crystal_colour            colorless
_exptl_crystal_description       Prism
_cell_formula_units_Z            4
loop_
_atom_site_label
_atom_site_type_symbol
_atom_site_fract_x
_atom_site_fract_y
_atom_site_fract_z
N1 N 0.68438(16) 0.21855(8) 0.44180(15)
N2 N 0.62080(15) 0.28781(8) 0.37826(15)
N3 N 0.51617(15) 0.18621(8) 0.26790(15)
N4 N 0.41565(18) 0.14552(10) 0.17213(17)
N5 N 0.43528(17) 0.31666(9) 0.18855(17)
C1 C 0.61889(19) 0.15848(10) 0.37299(18)
H1 H 0.6391 0.1026 0.3925
C2 C 0.51895(17) 0.26838(9) 0.27288(17)
H2 H 0.445(3) 0.3751(16) 0.202(2)
H3 H 0.372(3) 0.2925(15) 0.120(2)
H4 H 0.654(3) 0.3427(14) 0.410(2)
H5 H 0.340(3) 0.1251(15) 0.227(3)
H6 H 0.466(3) 0.1090(15) 0.124(2)
N6 N 0.69625(15) 0.78579(8) 0.43700(14)
N7 N 0.59811(14) 0.74655(8) 0.33899(14)
N8 N 0.56129(14) 0.87465(7) 0.30902(14)
N9 N 0.50417(17) 0.95139(8) 0.26790(17)
N10 N 0.41223(16) 0.78610(9) 0.15697(16)
C3 C 0.67127(18) 0.86270(10) 0.41558(17)
H7 H 0.7227 0.9052 0.4672
C4 C 0.51643(16) 0.80001(9) 0.26091(16)
H8 H 0.600(3) 0.6847(17) 0.340(3)
H9 H 0.393(2) 0.7321(14) 0.135(2)
H10 H 0.370(3) 0.8265(14) 0.111(2)
H11 H 0.516(3) 0.9581(13) 0.174(3)
H12 H 0.405(3) 0.9542(13) 0.292(2)
N11 N 0.69436(15) 0.45419(8) 0.42726(15)
N12 N 0.79769(15) 0.49640(8) 0.50711(15)
N13 N 0.77876(15) 0.57474(8) 0.48257(15)
N14 N 0.66182(15) 0.58600(8) 0.38519(14)
N15 N 0.49798(15) 0.48158(8) 0.26070(15)
N16 N 0.40575(15) 0.53265(8) 0.19621(15)
O1 O 0.29926(14) 0.50121(8) 0.11684(14)
O2 O 0.41413(15) 0.60875(7) 0.20902(14)
C5 C 0.61325(17) 0.51079(9) 0.35367(16)
loop_
_geom_bond_atom_site_label_1
_geom_bond_atom_site_label_2
_geom_bond_site_symmetry_1
_geom_bond_site_symmetry_2
N1 N2 1_555 1_555
N2 C2 1_555 1_555
N3 N4 1_555 1_555
N4 H5 1_555 1_555
N5 C2 1_555 1_555
C1 N1 1_555 1_555
H1 C1 1_555 1_555
C2 N3 1_555 1_555
H2 N5 1_555 1_555
H3 N5 1_555 1_555
H4 N2 1_555 1_555
H6 N4 1_555 1_555
N6 N7 1_555 1_555
N7 C4 1_555 1_555
N8 N9 1_555 1_555
N9 H11 1_555 1_555
N10 C4 1_555 1_555
C3 N6 1_555 1_555
H7 C3 1_555 1_555
C4 N8 1_555 1_555
H8 N7 1_555 1_555
H9 N10 1_555 1_555
H10 N10 1_555 1_555
H12 N9 1_555 1_555
N11 N12 1_555 1_555
N12 N13 1_555 1_555
N13 N14 1_555 1_555
N14 C5 1_555 1_555
N15 N16 1_555 1_555
N16 O1 1_555 1_555
O2 N16 1_555 1_555
C5 N11 1_555 1_555
N3 C1 1_555 1_555
N8 C3 1_555 1_555
N15 C5 1_555 1_555

#END
