
#######################################################################
#
#                 Cambridge Crystallographic Data Centre
#                                CCDC 
#
#######################################################################
#
# If this CIF has been generated from an entry in the Cambridge 
# Structural Database, then it will include bibliographic, chemical, 
# crystal, experimental, refinement or atomic coordinate data resulting 
# from the CCDC's data processing and validation procedures.
#
#######################################################################

data_MUGRUC
_chemical_formula_moiety         'C10 H20 N4 2+,C14 H6 N2 O4 2-,2(C1 H1 Cl3)'
_chemical_name_systematic        
"2,2'-Ethane-1,2-diylbis-3,4,5,6-tetrahydropyrimidin-1-ium 1,10-phenanthroline-4,7-dicarboxylate chloroform solvate"
_symmetry_cell_setting           orthorhombic
_symmetry_space_group_name_H-M   'P 21 21 21'
_symmetry_Int_Tables_number      19
_space_group_name_Hall           'P 2ac 2ab'
loop_
_symmetry_equiv_pos_site_id
_symmetry_equiv_pos_as_xyz
1 x,y,z
2 1/2-x,-y,1/2+z
3 -x,1/2+y,1/2-z
4 1/2+x,1/2-y,-z
_cell_length_a                   10.0015(12)
_cell_length_b                   14.7201(17)
_cell_length_c                   21.396(2)
_cell_angle_alpha                90
_cell_angle_beta                 90
_cell_angle_gamma                90
_cell_volume                     3149.99
_exptl_crystal_colour            colorless
_exptl_crystal_description       prism
_cell_formula_units_Z            4
loop_
_atom_site_label
_atom_site_type_symbol
_atom_site_fract_x
_atom_site_fract_y
_atom_site_fract_z
C1 C 0.2559(5) 1.1026(4) 0.8436(2)
N1 N 0.3443(5) 1.1479(3) 0.8765(2)
H1 H 0.4215 1.1222 0.8852
C2 C 0.3179(6) 1.2397(4) 0.8990(3)
H2 H 0.3505 1.2845 0.8680
H3 H 0.3663 1.2500 0.9387
C3 C 0.1695(6) 1.2524(4) 0.9092(3)
H4 H 0.1506 1.3167 0.9195
H5 H 0.1395 1.2142 0.9446
C4 C 0.0943(6) 1.2258(4) 0.8505(3)
H6 H -0.0028 1.2242 0.8592
H7 H 0.1106 1.2714 0.8173
N2 N 0.1387(5) 1.1364(3) 0.8291(2)
H8 H 0.0845 1.1040 0.8056
C5 C 0.2888(6) 1.0090(3) 0.8230(2)
H9 H 0.3857 1.0050 0.8140
H10 H 0.2398 0.9952 0.7840
C6 C 0.2526(6) 0.9387(4) 0.8725(2)
H11 H 0.3067 0.9496 0.9105
H12 H 0.1572 0.9457 0.8839
C7 C 0.2763(5) 0.8441(3) 0.8500(2)
N3 N 0.3923(5) 0.8051(3) 0.8607(2)
H13 H 0.4530 0.8350 0.8822
C8 C 0.4236(7) 0.7147(4) 0.8383(3)
H14 H 0.4011 0.6694 0.8708
H15 H 0.5205 0.7101 0.8294
C9 C 0.3441(7) 0.6950(4) 0.7792(3)
H16 H 0.3770 0.7338 0.7446
H17 H 0.3562 0.6307 0.7670
C10 C 0.1990(7) 0.7138(4) 0.7907(3)
H18 H 0.1493 0.7105 0.7507
H19 H 0.1620 0.6672 0.8192
N4 N 0.1824(5) 0.8035(3) 0.8182(2)
H20 H 0.1055 0.8317 0.8132
C11 C 0.2159(5) 0.4551(3) 0.7761(2)
C12 C 0.3292(6) 0.4232(4) 0.7467(2)
H21 H 0.3263 0.4060 0.7039
C13 C 0.4477(6) 0.4167(4) 0.7803(2)
H22 H 0.5254 0.3974 0.7585
N5 N 0.4600(4) 0.4353(3) 0.84058(19)
C14 C 0.3485(5) 0.4624(3) 0.8710(2)
C15 C 0.3562(5) 0.4737(3) 0.9385(2)
N6 N 0.4741(4) 0.4548(3) 0.9665(2)
C16 C 0.4777(6) 0.4603(4) 1.0282(2)
H23 H 0.5598 0.4467 1.0485
C17 C 0.3689(6) 0.4849(4) 1.0656(2)
H24 H 0.3778 0.4877 1.1098
C18 C 0.2493(5) 0.5050(3) 1.0377(2)
C19 C 0.2414(5) 0.5009(3) 0.9717(2)
C20 C 0.1205(5) 0.5200(4) 0.9388(2)
H25 H 0.0448 0.5417 0.9611
C21 C 0.1119(5) 0.5077(4) 0.8763(2)
H26 H 0.0297 0.5199 0.8557
C22 C 0.2242(5) 0.4767(3) 0.8405(2)
C23 C 0.0871(6) 0.4667(4) 0.7395(2)
O1 O 0.0423(5) 0.3986(4) 0.7138(3)
O2 O 0.0399(5) 0.5437(3) 0.7376(2)
C24 C 0.1269(6) 0.5286(4) 1.0758(2)
O3 O 0.0568(5) 0.4635(3) 1.0932(3)
O4 O 0.1059(4) 0.6086(3) 1.0870(2)
C25 C 0.7253(6) 0.3595(4) 0.9024(3)
H27 H 0.6397 0.3946 0.9046
Cl1 Cl 0.82896(17) 0.39257(13) 0.96552(7)
Cl2 Cl 0.80547(16) 0.38473(11) 0.83132(6)
Cl3 Cl 0.68877(17) 0.24300(10) 0.90722(8)
C26 C 0.7971(8) 0.7259(6) 0.9183(4)
H28 H 0.7412 0.7821 0.9156
Cl4 Cl 0.7046(3) 0.6396(2) 0.95383(15)
Cl5 Cl 0.8386(3) 0.6894(2) 0.84242(13)
Cl6 Cl 0.9438(3) 0.7498(2) 0.96013(17)
loop_
_geom_bond_atom_site_label_1
_geom_bond_atom_site_label_2
_geom_bond_site_symmetry_1
_geom_bond_site_symmetry_2
C1 N1 1_555 1_555
N1 H1 1_555 1_555
C2 N1 1_555 1_555
H2 C2 1_555 1_555
H3 C2 1_555 1_555
C3 C2 1_555 1_555
H4 C3 1_555 1_555
H5 C3 1_555 1_555
C4 C3 1_555 1_555
H6 C4 1_555 1_555
H7 C4 1_555 1_555
N2 C1 1_555 1_555
H8 N2 1_555 1_555
C5 C1 1_555 1_555
H9 C5 1_555 1_555
H10 C5 1_555 1_555
C6 C5 1_555 1_555
H11 C6 1_555 1_555
H12 C6 1_555 1_555
C7 C6 1_555 1_555
N3 C7 1_555 1_555
H13 N3 1_555 1_555
C8 N3 1_555 1_555
H14 C8 1_555 1_555
H15 C8 1_555 1_555
C9 C8 1_555 1_555
H16 C9 1_555 1_555
H17 C9 1_555 1_555
C10 C9 1_555 1_555
H18 C10 1_555 1_555
H19 C10 1_555 1_555
N4 C7 1_555 1_555
H20 N4 1_555 1_555
C11 C12 1_555 1_555
C12 H21 1_555 1_555
C13 C12 1_555 1_555
H22 C13 1_555 1_555
N5 C13 1_555 1_555
C14 N5 1_555 1_555
C15 C14 1_555 1_555
N6 C15 1_555 1_555
C16 N6 1_555 1_555
H23 C16 1_555 1_555
C17 C16 1_555 1_555
H24 C17 1_555 1_555
C18 C17 1_555 1_555
C19 C15 1_555 1_555
C20 C19 1_555 1_555
H25 C20 1_555 1_555
C21 C20 1_555 1_555
H26 C21 1_555 1_555
C22 C11 1_555 1_555
C23 C11 1_555 1_555
O1 C23 1_555 1_555
O2 C23 1_555 1_555
C24 C18 1_555 1_555
O3 C24 1_555 1_555
O4 C24 1_555 1_555
C25 H27 1_555 1_555
Cl1 C25 1_555 1_555
Cl2 C25 1_555 1_555
Cl3 C25 1_555 1_555
C26 H28 1_555 1_555
Cl4 C26 1_555 1_555
Cl5 C26 1_555 1_555
Cl6 C26 1_555 1_555
C4 N2 1_555 1_555
C10 N4 1_555 1_555
C14 C22 1_555 1_555
C18 C19 1_555 1_555
C21 C22 1_555 1_555

#END
