
#######################################################################
#
#                 Cambridge Crystallographic Data Centre
#                                CCDC 
#
#######################################################################
#
# If this CIF has been generated from an entry in the Cambridge 
# Structural Database, then it will include bibliographic, chemical, 
# crystal, experimental, refinement or atomic coordinate data resulting 
# from the CCDC's data processing and validation procedures.
#
#######################################################################

data_MUHJOQ
_chemical_formula_moiety         'C33 H77 Ca3 N12 1+,C18 H15 Si1 1-,2(C4 H8 O1)'
_chemical_name_systematic        
'bis(\m-hydrido)-tris(1,4,7-trimethyl-1,4,7,10-tetraazacyclododecane)-tri-calcium triphenylsilicate tetrahydrofuran solvate'
_symmetry_cell_setting           trigonal
_symmetry_space_group_name_H-M   'P 3 1 c'
_symmetry_Int_Tables_number      159
_space_group_name_Hall           "P 3 -2'c"
loop_
_symmetry_equiv_pos_site_id
_symmetry_equiv_pos_as_xyz
1 x,y,z
2 -y,x-y,z
3 -x+y,-x,z
4 y,x,1/2+z
5 -x,-x+y,1/2+z
6 x-y,-y,1/2+z
_cell_length_a                   14.2498(18)
_cell_length_b                   14.2498(18)
_cell_length_c                   18.506(3)
_cell_angle_alpha                90
_cell_angle_beta                 90
_cell_angle_gamma                120
_cell_volume                     3254.32
_exptl_crystal_colour            red
_exptl_crystal_description       block
_cell_formula_units_Z            2
_chemical_properties_physical    
'Air-sensitive, Moisture-sensitive, Hygroscopic, Oxygen-sensitive'
_exptl_crystal_recrystallization_method tetrahydrofuran
loop_
_atom_site_label
_atom_site_type_symbol
_atom_site_fract_x
_atom_site_fract_y
_atom_site_fract_z
Si1 Si 1.0000 1.0000 0.8558(3)
C12 C 0.8737(4) 0.8823(4) 0.9048(3)
C13 C 0.8247(5) 0.8970(4) 0.9654(3)
H28 H 0.8558 0.9661 0.9878
C14 C 0.7303(5) 0.8107(6) 0.9931(3)
H29 H 0.6968 0.8207 1.0344
C15 C 0.6848(5) 0.7095(5) 0.9602(4)
H30 H 0.6202 0.6505 0.9791
C16 C 0.7337(6) 0.6948(4) 0.8996(4)
H31 H 0.7026 0.6257 0.8772
C17 C 0.8282(5) 0.7812(5) 0.8720(3)
H32 H 0.8616 0.7711 0.8306
C12A C 1.1177(4) 0.9914(6) 0.9048(3)
C13A C 1.1030(4) 0.9277(6) 0.9654(3)
H28A H 1.0339 0.8897 0.9878
C14A C 1.1893(6) 0.9196(8) 0.9931(3)
H29A H 1.1793 0.8761 1.0344
C15A C 1.2905(5) 0.9753(7) 0.9602(4)
H30A H 1.3495 0.9697 0.9791
C16A C 1.3052(4) 1.0389(7) 0.8996(4)
H31A H 1.3743 1.0769 0.8772
C17A C 1.2188(5) 1.0470(7) 0.8720(3)
H32A H 1.2289 1.0905 0.8306
C12B C 1.0086(6) 1.1263(4) 0.9048(3)
C13B C 1.0723(6) 1.1753(5) 0.9654(3)
H28B H 1.1103 1.1442 0.9878
C14B C 1.0804(8) 1.2697(5) 0.9931(3)
H29B H 1.1239 1.3032 1.0344
C15B C 1.0247(7) 1.3152(5) 0.9602(4)
H30B H 1.0303 1.3798 0.9791
C16B C 0.9611(7) 1.2663(6) 0.8996(4)
H31B H 0.9231 1.2974 0.8772
C17B C 0.9530(7) 1.1718(5) 0.8720(3)
H32B H 0.9095 1.1384 0.8306
Ca1 Ca 0.48781(7) 0.76702(7) 0.68596(6)
H1 H 0.3333 0.6667 0.7584
H2 H 0.3333 0.6667 0.6209
N1 N 0.5550(11) 0.8870(13) 0.5675(9)
N2 N 0.6976(11) 0.8838(11) 0.6810(9)
N3 N 0.5522(17) 0.8843(17) 0.8058(11)
N4 N 0.4097(14) 0.8875(13) 0.6813(9)
C1 C 0.6642(9) 0.9717(9) 0.5786(6)
H3 H 0.6648 1.0258 0.6125
H4 H 0.6951 1.0087 0.5321
C2 C 0.7335(9) 0.9286(10) 0.6087(6)
H5 H 0.7297 0.8715 0.5763
H6 H 0.8099 0.9878 0.6109
C3 C 0.7374(9) 0.9678(10) 0.7363(6)
H7 H 0.7296 1.0290 0.7185
H8 H 0.8156 0.9950 0.7439
C4 C 0.6798(9) 0.9308(10) 0.8083(6)
H9 H 0.7124 0.9928 0.8422
H10 H 0.6932 0.8739 0.8280
C5 C 0.5368(9) 0.9733(9) 0.7940(6)
H11 H 0.5924 1.0250 0.7601
H12 H 0.5440 1.0114 0.8402
C6 C 0.4237(9) 0.9320(9) 0.7625(6)
H13 H 0.4071 0.9917 0.7634
H14 H 0.3701 0.8732 0.7937
C7 C 0.4612(9) 0.9734(9) 0.6370(6)
H15 H 0.5323 1.0267 0.6577
H16 H 0.4175 1.0091 0.6304
C8 C 0.4770(9) 0.9316(9) 0.5645(6)
H17 H 0.5047 0.9914 0.5289
H18 H 0.4056 0.8736 0.5471
C9 C 0.5388(12) 0.8235(12) 0.5045(8)
H19 H 0.5688 0.8744 0.4640
H20 H 0.4595 0.7880 0.5036
H21 H 0.5609 0.7687 0.5003
C10 C 0.7453(10) 0.8106(9) 0.6728(8)
H22 H 0.8239 0.8545 0.6798
H23 H 0.7301 0.7810 0.6237
H24 H 0.7151 0.7510 0.7078
C11 C 0.5130(9) 0.8303(9) 0.8732(6)
H25 H 0.4358 0.7759 0.8759
H26 H 0.5330 0.8790 0.9148
H27 H 0.5559 0.7939 0.8734
Ca1A Ca 0.23298(7) 0.72079(10) 0.68596(6)
N1A N 0.1130(13) 0.6680(17) 0.5675(9)
N2A N 0.1162(11) 0.8138(16) 0.6810(9)
N3A N 0.1157(17) 0.6679(24) 0.8058(11)
N4A N 0.1125(13) 0.5222(19) 0.6813(9)
C1A C 0.0283(9) 0.6925(13) 0.5786(6)
H3A H -0.0258 0.6390 0.6125
H4A H -0.0087 0.6864 0.5321
C2A C 0.0714(10) 0.8049(13) 0.6087(6)
H5A H 0.1285 0.8582 0.5763
H6A H 0.0122 0.8221 0.6109
C3A C 0.0322(10) 0.7696(13) 0.7363(6)
H7A H -0.0290 0.7006 0.7185
H8A H 0.0050 0.8206 0.7439
C4A C 0.0692(10) 0.7490(13) 0.8083(6)
H9A H 0.0072 0.7196 0.8422
H10A H 0.1261 0.8193 0.8280
C5A C 0.0267(9) 0.5635(13) 0.7940(6)
H11A H -0.0250 0.5674 0.7601
H12A H -0.0114 0.5326 0.8402
C6A C 0.0680(9) 0.4917(13) 0.7625(6)
H13A H 0.0083 0.4154 0.7634
H14A H 0.1268 0.4969 0.7937
C7A C 0.0266(9) 0.4878(13) 0.6370(6)
H15A H -0.0267 0.5056 0.6577
H16A H -0.0091 0.4084 0.6304
C8A C 0.0684(9) 0.5454(13) 0.5645(6)
H17A H 0.0086 0.5133 0.5289
H18A H 0.1264 0.5320 0.5471
C9A C 0.1765(12) 0.7153(17) 0.5045(8)
H19A H 0.1256 0.6944 0.4640
H20A H 0.2120 0.6715 0.5036
H21A H 0.2313 0.7922 0.5003
C10A C 0.1894(9) 0.9347(13) 0.6728(8)
H22A H 0.1455 0.9694 0.6798
H23A H 0.2190 0.9491 0.6237
H24A H 0.2490 0.9641 0.7078
C11A C 0.1697(9) 0.6827(13) 0.8732(6)
H25A H 0.2241 0.6599 0.8759
H26A H 0.1210 0.6540 0.9148
H27A H 0.2061 0.7620 0.8734
Ca1B Ca 0.27921(10) 0.51219(7) 0.68596(6)
N1B N 0.3320(17) 0.4450(11) 0.5675(9)
N2B N 0.1862(16) 0.3024(11) 0.6810(9)
N3B N 0.3321(24) 0.4478(17) 0.8058(11)
N4B N 0.4778(19) 0.5903(14) 0.6813(9)
C1B C 0.3075(13) 0.3358(9) 0.5786(6)
H3B H 0.3610 0.3352 0.6125
H4B H 0.3136 0.3049 0.5321
C2B C 0.1951(13) 0.2665(9) 0.6087(6)
H5B H 0.1418 0.2703 0.5763
H6B H 0.1779 0.1901 0.6109
C3B C 0.2304(13) 0.2626(9) 0.7363(6)
H7B H 0.2994 0.2704 0.7185
H8B H 0.1794 0.1844 0.7439
C4B C 0.2510(13) 0.3202(9) 0.8083(6)
H9B H 0.2804 0.2876 0.8422
H10B H 0.1807 0.3068 0.8280
C5B C 0.4365(13) 0.4632(9) 0.7940(6)
H11B H 0.4326 0.4076 0.7601
H12B H 0.4674 0.4560 0.8402
C6B C 0.5083(13) 0.5763(9) 0.7625(6)
H13B H 0.5846 0.5929 0.7634
H14B H 0.5031 0.6299 0.7937
C7B C 0.5122(13) 0.5388(9) 0.6370(6)
H15B H 0.4944 0.4677 0.6577
H16B H 0.5916 0.5825 0.6304
C8B C 0.4546(13) 0.5230(9) 0.5645(6)
H17B H 0.4867 0.4953 0.5289
H18B H 0.4680 0.5944 0.5471
C9B C 0.2847(17) 0.4612(12) 0.5045(8)
H19B H 0.3056 0.4312 0.4640
H20B H 0.3285 0.5405 0.5036
H21B H 0.2078 0.4391 0.5003
C10B C 0.0653(13) 0.2547(10) 0.6728(8)
H22B H 0.0306 0.1761 0.6798
H23B H 0.0509 0.2699 0.6237
H24B H 0.0359 0.2849 0.7078
C11B C 0.3173(13) 0.4870(9) 0.8732(6)
H25B H 0.3401 0.5642 0.8759
H26B H 0.3460 0.4670 0.9148
H27B H 0.2380 0.4441 0.8734
N5? N 0.5556(9) 0.8815(9) 0.5714(6)
N6? N 0.7007(9) 0.8784(9) 0.6904(6)
N7? N 0.5602(19) 0.8859(19) 0.7994(12)
N8? N 0.4094(16) 0.8858(16) 0.6916(9)
C18? C 0.6802(9) 0.9305(9) 0.5633(6)
H33? H 0.6950 0.8753 0.5423
H34? H 0.7089 0.9927 0.5296
C19? C 0.7382(9) 0.9678(9) 0.6351(6)
H35? H 0.8170 0.9990 0.6271
H36? H 0.7267 1.0260 0.6545
C20? C 0.7325(9) 0.9275(10) 0.7628(7)
H37? H 0.8088 0.9870 0.7608
H38? H 0.7292 0.8722 0.7967
C21? C 0.6639(9) 0.9723(9) 0.7931(6)
H39? H 0.6917 1.0060 0.8409
H40? H 0.6652 1.0277 0.7602
C22? C 0.4776(9) 0.9313(9) 0.8065(6)
H41? H 0.4071 0.8728 0.8247
H42? H 0.5064 0.9910 0.8422
C23? C 0.4602(9) 0.9724(9) 0.7351(6)
H43? H 0.4154 1.0068 0.7421
H44? H 0.5306 1.0264 0.7139
C24? C 0.4251(9) 0.9339(10) 0.6099(6)
H45? H 0.3707 0.8767 0.5780
H46? H 0.4103 0.9948 0.6101
C25? C 0.5358(9) 0.9731(9) 0.5784(6)
H47? H 0.5408 1.0057 0.5303
H48? H 0.5915 1.0293 0.6101
C26? C 0.5127(11) 0.8249(10) 0.5006(7)
H49? H 0.5427 0.8758 0.4601
H50? H 0.4334 0.7894 0.4997
H51? H 0.5348 0.7701 0.4964
C27? C 0.7458(9) 0.8109(9) 0.6996(8)
H52? H 0.7199 0.7546 0.6623
H53? H 0.7207 0.7772 0.7471
H54? H 0.8251 0.8523 0.6990
C28? C 0.5336(11) 0.8202(10) 0.8677(7)
H55? H 0.4564 0.7659 0.8705
H56? H 0.5537 0.8689 0.9094
H57? H 0.5766 0.7838 0.8680
Si2? Si 1.0000 1.0000 1.0159(3)
C29? C 0.8826(4) 0.8741(4) 0.9669(3)
C30? C 0.8974(4) 0.8247(5) 0.9066(3)
H58? H 0.9666 0.8556 0.8842
C31? C 0.8111(5) 0.7302(5) 0.8790(3)
H59? H 0.8212 0.6965 0.8378
C32? C 0.7099(5) 0.6850(5) 0.9117(4)
H60? H 0.6508 0.6204 0.8929
C33? C 0.6950(4) 0.7343(6) 0.9720(4)
H61? H 0.6259 0.7034 0.9944
C34? C 0.7814(5) 0.8289(5) 0.9996(3)
H62? H 0.7713 0.8626 1.0408
O1? O 0.394(2) 0.761(2) 0.2527(15)
C35? C 0.445(3) 0.729(4) 0.306(3)
H63? H 0.4749 0.7836 0.3458
H64? H 0.5049 0.7224 0.2848
C36? C 0.361(2) 0.626(3) 0.334(2)
H65? H 0.3693 0.6232 0.3867
H66? H 0.3696 0.5671 0.3118
C37? C 0.249(2) 0.607(2) 0.3166(18)
H67? H 0.2046 0.5954 0.3606
H68? H 0.2088 0.5470 0.2822
C38? C 0.2867(19) 0.7222(19) 0.2810(17)
H69? H 0.2366 0.7153 0.2417
H70? H 0.2874 0.7731 0.3176
H71? H 0.4563 0.6648 0.0583
H72? H 0.3861 0.6411 -0.0148
H73? H 0.3112 0.5298 0.1102
H74? H 0.2377 0.5173 0.0409
H75? H 0.1614 0.5964 0.1042
H76? H 0.2426 0.6189 0.1705
H77? H 0.2481 0.7640 0.0767
H78? H 0.3289 0.7867 0.1436
O2? O 0.380(2) 0.754(2) 0.0507(17)
C39? C 0.389(3) 0.657(3) 0.038(3)
C40? C 0.290(2) 0.570(2) 0.0761(16)
C41? C 0.239(2) 0.628(2) 0.1178(17)
C42? C 0.297(3) 0.742(2) 0.100(2)
loop_
_geom_bond_atom_site_label_1
_geom_bond_atom_site_label_2
_geom_bond_site_symmetry_1
_geom_bond_site_symmetry_2
Ca1 H1 1_555 1_555
H1 Ca1A 1_555 1_555
H2 Ca1 1_555 1_555
N1 Ca1 1_555 1_555
N2 Ca1 1_555 1_555
N3 Ca1 1_555 1_555
N4 Ca1 1_555 1_555
C1 N1 1_555 1_555
H3 C1 1_555 1_555
H4 C1 1_555 1_555
C2 N2 1_555 1_555
H5 C2 1_555 1_555
H6 C2 1_555 1_555
C3 N2 1_555 1_555
H7 C3 1_555 1_555
H8 C3 1_555 1_555
C4 N3 1_555 1_555
H9 C4 1_555 1_555
H10 C4 1_555 1_555
C5 N3 1_555 1_555
H11 C5 1_555 1_555
H12 C5 1_555 1_555
C6 N4 1_555 1_555
H13 C6 1_555 1_555
H14 C6 1_555 1_555
C7 N4 1_555 1_555
H15 C7 1_555 1_555
H16 C7 1_555 1_555
C8 N1 1_555 1_555
H17 C8 1_555 1_555
H18 C8 1_555 1_555
C9 N1 1_555 1_555
H19 C9 1_555 1_555
H20 C9 1_555 1_555
H21 C9 1_555 1_555
C10 N2 1_555 1_555
H22 C10 1_555 1_555
H23 C10 1_555 1_555
H24 C10 1_555 1_555
C11 N3 1_555 1_555
H25 C11 1_555 1_555
H26 C11 1_555 1_555
H27 C11 1_555 1_555
Si1 C12 1_555 1_555
C12 C13 1_555 1_555
C13 H28 1_555 1_555
C14 C13 1_555 1_555
H29 C14 1_555 1_555
C15 C14 1_555 1_555
H30 C15 1_555 1_555
C16 C15 1_555 1_555
H31 C16 1_555 1_555
C17 C12 1_555 1_555
H32 C17 1_555 1_555
Ca1A H2 1_555 1_555
N1A Ca1A 1_555 1_555
N2A Ca1A 1_555 1_555
N3A Ca1A 1_555 1_555
N4A Ca1A 1_555 1_555
C1A N1A 1_555 1_555
H3A C1A 1_555 1_555
H4A C1A 1_555 1_555
C2A N2A 1_555 1_555
H5A C2A 1_555 1_555
H6A C2A 1_555 1_555
C3A N2A 1_555 1_555
H7A C3A 1_555 1_555
H8A C3A 1_555 1_555
C4A N3A 1_555 1_555
H9A C4A 1_555 1_555
H10A C4A 1_555 1_555
C5A N3A 1_555 1_555
H11A C5A 1_555 1_555
H12A C5A 1_555 1_555
C6A N4A 1_555 1_555
H13A C6A 1_555 1_555
H14A C6A 1_555 1_555
C7A N4A 1_555 1_555
H15A C7A 1_555 1_555
H16A C7A 1_555 1_555
C8A N1A 1_555 1_555
H17A C8A 1_555 1_555
H18A C8A 1_555 1_555
C9A N1A 1_555 1_555
H19A C9A 1_555 1_555
H20A C9A 1_555 1_555
H21A C9A 1_555 1_555
C10A N2A 1_555 1_555
H22A C10A 1_555 1_555
H23A C10A 1_555 1_555
H24A C10A 1_555 1_555
C11A N3A 1_555 1_555
H25A C11A 1_555 1_555
H26A C11A 1_555 1_555
H27A C11A 1_555 1_555
Ca1B H1 1_555 1_555
N1B Ca1B 1_555 1_555
N2B Ca1B 1_555 1_555
N3B Ca1B 1_555 1_555
N4B Ca1 1_555 1_555
C1B N1B 1_555 1_555
H3B C1B 1_555 1_555
H4B C1B 1_555 1_555
C2B N2B 1_555 1_555
H5B C2B 1_555 1_555
H6B C2B 1_555 1_555
C3B N2B 1_555 1_555
H7B C3B 1_555 1_555
H8B C3B 1_555 1_555
C4B N3B 1_555 1_555
H9B C4B 1_555 1_555
H10B C4B 1_555 1_555
C5B N3B 1_555 1_555
H11B C5B 1_555 1_555
H12B C5B 1_555 1_555
C6B N4B 1_555 1_555
H13B C6B 1_555 1_555
H14B C6B 1_555 1_555
C7B N4B 1_555 1_555
H15B C7B 1_555 1_555
H16B C7B 1_555 1_555
C8B N1B 1_555 1_555
H17B C8B 1_555 1_555
H18B C8B 1_555 1_555
C9B N1B 1_555 1_555
H19B C9B 1_555 1_555
H20B C9B 1_555 1_555
H21B C9B 1_555 1_555
C10B N2B 1_555 1_555
H22B C10B 1_555 1_555
H23B C10B 1_555 1_555
H24B C10B 1_555 1_555
C11B N3B 1_555 1_555
H25B C11B 1_555 1_555
H26B C11B 1_555 1_555
H27B C11B 1_555 1_555
C12A Si1 1_555 1_555
C13A C12A 1_555 1_555
H28A C13A 1_555 1_555
C14A C13A 1_555 1_555
H29A C14A 1_555 1_555
C15A C14A 1_555 1_555
H30A C15A 1_555 1_555
C16A C15A 1_555 1_555
H31A C16A 1_555 1_555
C17A C12A 1_555 1_555
H32A C17A 1_555 1_555
C12B Si1 1_555 1_555
C13B C12B 1_555 1_555
H28B C13B 1_555 1_555
C14B C13B 1_555 1_555
H29B C14B 1_555 1_555
C15B C14B 1_555 1_555
H30B C15B 1_555 1_555
C16B C15B 1_555 1_555
H31B C16B 1_555 1_555
C17B C12B 1_555 1_555
H32B C17B 1_555 1_555
H2 Ca1B 1_555 1_555
N4 Ca1A 1_555 1_555
C1 C2 1_555 1_555
C3 C4 1_555 1_555
C5 C6 1_555 1_555
C7 C8 1_555 1_555
C16 C17 1_555 1_555
N4A Ca1B 1_555 1_555
C1A C2A 1_555 1_555
C3A C4A 1_555 1_555
C5A C6A 1_555 1_555
C7A C8A 1_555 1_555
Ca1B N4B 1_555 1_555
C1B C2B 1_555 1_555
C3B C4B 1_555 1_555
C5B C6B 1_555 1_555
C7B C8B 1_555 1_555
C16A C17A 1_555 1_555
C16B C17B 1_555 1_555

#END
