
#######################################################################
#
#                 Cambridge Crystallographic Data Centre
#                                CCDC 
#
#######################################################################
#
# If this CIF has been generated from an entry in the Cambridge 
# Structural Database, then it will include bibliographic, chemical, 
# crystal, experimental, refinement or atomic coordinate data resulting 
# from the CCDC's data processing and validation procedures.
#
#######################################################################

data_MUJBOJ
_chemical_formula_moiety         'C24 H30 N4 O4'
_chemical_name_systematic        
(R~a~,S~c~)-N,N'-(6,6'-Dimethoxybiphenyl-2,2'-diyl)dipyrrolidine-2-carboxamide
_symmetry_cell_setting           orthorhombic
_symmetry_space_group_name_H-M   'P 21 21 21'
_symmetry_Int_Tables_number      19
_space_group_name_Hall           'P 2ac 2ab'
loop_
_symmetry_equiv_pos_site_id
_symmetry_equiv_pos_as_xyz
1 x,y,z
2 1/2+x,1/2-y,-z
3 -x,1/2+y,1/2-z
4 1/2-x,-y,1/2+z
_cell_length_a                   8.771(3)
_cell_length_b                   9.743(3)
_cell_length_c                   26.204(9)
_cell_angle_alpha                90
_cell_angle_beta                 90
_cell_angle_gamma                90
_cell_volume                     2239.29
_exptl_crystal_colour            colorless
_exptl_crystal_description       block
_cell_formula_units_Z            4
loop_
_atom_site_label
_atom_site_type_symbol
_atom_site_fract_x
_atom_site_fract_y
_atom_site_fract_z
O1 O -1.0828(6) -0.8775(5) -0.86178(16)
O2 O -0.4248(6) -1.0307(5) -0.96716(18)
O3 O -0.9797(6) -1.2276(4) -0.89813(14)
O4 O -0.6551(5) -0.9333(4) -0.70284(15)
N1 N -0.6176(6) -1.0828(5) -0.91191(17)
H1 H -0.6432 -1.1424 -0.8893
N2 N -0.5196(7) -1.3340(6) -0.8937(2)
N3 N -0.7316(6) -0.9175(4) -0.78527(16)
H2 H -0.7273 -0.8642 -0.8114
N4 N -0.5984(8) -0.6780(6) -0.8004(2)
C1 C -0.8457(8) -0.9717(6) -0.8848(2)
C2 C -0.9574(10) -0.8709(7) -0.8924(2)
C3 C -0.9355(10) -0.7666(7) -0.9284(2)
H3 H -1.0076 -0.6975 -0.9325
C4 C -0.8058(10) -0.7683(7) -0.9575(2)
H4 H -0.7911 -0.6995 -0.9816
C5 C -0.6967(9) -0.8683(7) -0.9522(2)
H5 H -0.6092 -0.8665 -0.9722
C6 C -0.7182(8) -0.9712(6) -0.9170(2)
C7 C -1.2195(9) -0.8124(9) -0.8776(3)
H6 H -1.2047 -0.7147 -0.8782
H7 H -1.3000 -0.8347 -0.8542
H8 H -1.2463 -0.8436 -0.9112
C8 C -0.4871(8) -1.1107(7) -0.9371(2)
C9 C -0.4202(8) -1.2515(7) -0.9266(2)
H9 H -0.3216 -1.2399 -0.9095
C10 C -0.3963(11) -1.3351(7) -0.9748(3)
H10 H -0.4025 -1.2770 -1.0048
H11 H -0.2976 -1.3800 -0.9744
C11 C -0.5182(12) -1.4355(11) -0.9748(3)
H12 H -0.4820 -1.5214 -0.9890
H13 H -0.6024 -1.4031 -0.9956
C12 C -0.5690(11) -1.4563(7) -0.9224(3)
H14 H -0.5233 -1.5385 -0.9082
H15 H -0.6790 -1.4656 -0.9211
C13 C -0.8668(7) -1.0708(5) -0.84214(19)
C14 C -0.9385(7) -1.1964(6) -0.8491(2)
C15 C -0.9712(7) -1.2841(6) -0.8083(2)
H16 H -1.0229 -1.3662 -0.8137
C16 C -0.9261(7) -1.2470(6) -0.7609(2)
H17 H -0.9484 -1.3046 -0.7336
C17 C -0.8484(7) -1.1271(6) -0.7517(2)
H18 H -0.8183 -1.1041 -0.7188
C18 C -0.8154(7) -1.0404(6) -0.7925(2)
C19 C -1.0206(9) -1.3683(7) -0.9088(3)
H19 H -0.9395 -1.4279 -0.8980
H20 H -1.0374 -1.3793 -0.9447
H21 H -1.1121 -1.3913 -0.8906
C20 C -0.6585(7) -0.8723(6) -0.7440(2)
C21 C -0.5732(7) -0.7378(6) -0.7505(2)
H22 H -0.4639 -0.7547 -0.7461
C22 C -0.6261(8) -0.6317(6) -0.7105(2)
H23 H -0.6803 -0.6764 -0.6828
H24 H -0.5395 -0.5825 -0.6964
C23 C -0.7288(8) -0.5364(6) -0.7385(2)
H25 H -0.6950 -0.4423 -0.7343
H26 H -0.8323 -0.5440 -0.7258
C24 C -0.7222(9) -0.5773(7) -0.7945(2)
H27 H -0.8185 -0.6173 -0.8049
H28 H -0.7026 -0.4973 -0.8155
H29 H -0.481(8) -1.354(7) -0.860(3)
H30 H -0.519(8) -0.644(8) -0.810(3)
loop_
_geom_bond_atom_site_label_1
_geom_bond_atom_site_label_2
_geom_bond_site_symmetry_1
_geom_bond_site_symmetry_2
O1 C2 1_555 1_555
O2 C8 1_555 1_555
O3 C14 1_555 1_555
O4 C20 1_555 1_555
N1 H1 1_555 1_555
N2 C9 1_555 1_555
N3 H2 1_555 1_555
N4 C21 1_555 1_555
C1 C2 1_555 1_555
C2 C3 1_555 1_555
C3 H3 1_555 1_555
C4 C3 1_555 1_555
H4 C4 1_555 1_555
C5 C4 1_555 1_555
H5 C5 1_555 1_555
C6 N1 1_555 1_555
C7 O1 1_555 1_555
H6 C7 1_555 1_555
H7 C7 1_555 1_555
H8 C7 1_555 1_555
C8 N1 1_555 1_555
C9 C8 1_555 1_555
H9 C9 1_555 1_555
C10 C9 1_555 1_555
H10 C10 1_555 1_555
H11 C10 1_555 1_555
C11 C10 1_555 1_555
H12 C11 1_555 1_555
H13 C11 1_555 1_555
C12 N2 1_555 1_555
H14 C12 1_555 1_555
H15 C12 1_555 1_555
C13 C1 1_555 1_555
C14 C13 1_555 1_555
C15 C14 1_555 1_555
H16 C15 1_555 1_555
C16 C15 1_555 1_555
H17 C16 1_555 1_555
C17 C16 1_555 1_555
H18 C17 1_555 1_555
C18 N3 1_555 1_555
C19 O3 1_555 1_555
H19 C19 1_555 1_555
H20 C19 1_555 1_555
H21 C19 1_555 1_555
C20 N3 1_555 1_555
C21 C20 1_555 1_555
H22 C21 1_555 1_555
C22 C21 1_555 1_555
H23 C22 1_555 1_555
H24 C22 1_555 1_555
C23 C22 1_555 1_555
H25 C23 1_555 1_555
H26 C23 1_555 1_555
C24 N4 1_555 1_555
H27 C24 1_555 1_555
H28 C24 1_555 1_555
H29 N2 1_555 1_555
H30 N4 1_555 1_555
C1 C6 1_555 1_555
C5 C6 1_555 1_555
C11 C12 1_555 1_555
C13 C18 1_555 1_555
C17 C18 1_555 1_555
C23 C24 1_555 1_555

#END
