
#######################################################################
#
#                 Cambridge Crystallographic Data Centre
#                                CCDC 
#
#######################################################################
#
# If this CIF has been generated from an entry in the Cambridge 
# Structural Database, then it will include bibliographic, chemical, 
# crystal, experimental, refinement or atomic coordinate data resulting 
# from the CCDC's data processing and validation procedures.
#
#######################################################################

data_MUJBEA
_chemical_formula_moiety         'C14 H17 Br1 Cl1 N1 O4 S1'
_chemical_name_systematic        
4-(1-bromo-3-chloropropyl)-3-((4-methylphenyl)sulfonyl)-1,3-oxazinan-2-one
_symmetry_cell_setting           monoclinic
_symmetry_space_group_name_H-M   'P 21'
_symmetry_Int_Tables_number      4
_space_group_name_Hall           'P 2yb'
loop_
_symmetry_equiv_pos_site_id
_symmetry_equiv_pos_as_xyz
1 x,y,z
2 -x,1/2+y,-z
_cell_length_a                   9.240(5)
_cell_length_b                   6.262(3)
_cell_length_c                   14.504(8)
_cell_angle_alpha                90
_cell_angle_beta                 91.561(9)
_cell_angle_gamma                90
_cell_volume                     838.903
_exptl_crystal_colour            colorless
_exptl_crystal_description       rod
_cell_formula_units_Z            2
loop_
_atom_site_label
_atom_site_type_symbol
_atom_site_fract_x
_atom_site_fract_y
_atom_site_fract_z
Br1 Br 0.12585(4) 0.48023(7) 0.92475(2)
Cl1 Cl -0.16942(10) 0.75811(18) 0.72938(7)
S1 S 0.36629(9) 0.41473(12) 0.69599(5)
O1 O 0.5719(3) 0.6320(4) 0.90914(16)
O2 O 0.5680(3) 0.3136(4) 0.84436(18)
O3 O 0.2604(3) 0.5391(4) 0.64585(16)
O4 O 0.3325(3) 0.1995(4) 0.71821(17)
N1 N 0.3992(3) 0.5567(4) 0.79385(18)
C1 C 0.3063(3) 0.7464(5) 0.8125(2)
H1 H 0.3111 0.8397 0.7584
C2 C 0.1472(3) 0.6894(5) 0.8239(2)
H2 H 0.1109 0.6239 0.7664
C3 C 0.0584(4) 0.8878(6) 0.8416(3)
H3 H 0.0814 0.9940 0.7955
H4 H 0.0878 0.9452 0.9013
C4 C -0.1047(4) 0.8553(7) 0.8400(3)
H5 H -0.1519 0.9897 0.8534
H6 H -0.1297 0.7538 0.8875
C5 C 0.3702(3) 0.8715(5) 0.8941(2)
H7 H 0.3418 1.0203 0.8893
H8 H 0.3338 0.8148 0.9512
C6 C 0.5321(4) 0.8537(5) 0.8945(2)
H9 H 0.5683 0.9033 0.8362
H10 H 0.5742 0.9416 0.9434
C7 C 0.5164(3) 0.4885(7) 0.8498(2)
C8 C 0.5283(3) 0.4243(5) 0.6354(2)
C9 C 0.5556(4) 0.6035(6) 0.5825(2)
H11 H 0.4920 0.7187 0.5822
C10 C 0.6781(4) 0.6094(6) 0.5301(2)
H12 H 0.6980 0.7307 0.4956
C11 C 0.7721(4) 0.4365(6) 0.5282(2)
C12 C 0.7432(4) 0.2578(6) 0.5821(3)
H13 H 0.8064 0.1422 0.5819
C13 C 0.6216(4) 0.2500(6) 0.6363(2)
H14 H 0.6030 0.1307 0.6723
C14 C 0.9037(4) 0.4413(8) 0.4682(3)
H15 H 0.8950 0.5577 0.4253
H16 H 0.9100 0.3092 0.4349
H17 H 0.9893 0.4599 0.5063
loop_
_geom_bond_atom_site_label_1
_geom_bond_atom_site_label_2
_geom_bond_site_symmetry_1
_geom_bond_site_symmetry_2
Br1 C2 1_555 1_555
Cl1 C4 1_555 1_555
S1 O3 1_555 1_555
O1 C6 1_555 1_555
O2 C7 1_555 1_555
O4 S1 1_555 1_555
N1 S1 1_555 1_555
C1 N1 1_555 1_555
H1 C1 1_555 1_555
C2 C1 1_555 1_555
H2 C2 1_555 1_555
C3 C2 1_555 1_555
H3 C3 1_555 1_555
H4 C3 1_555 1_555
C4 C3 1_555 1_555
H5 C4 1_555 1_555
H6 C4 1_555 1_555
C5 C1 1_555 1_555
H7 C5 1_555 1_555
H8 C5 1_555 1_555
C6 C5 1_555 1_555
H9 C6 1_555 1_555
H10 C6 1_555 1_555
C7 O1 1_555 1_555
C8 S1 1_555 1_555
C9 C8 1_555 1_555
H11 C9 1_555 1_555
C10 C9 1_555 1_555
H12 C10 1_555 1_555
C11 C10 1_555 1_555
C12 C11 1_555 1_555
H13 C12 1_555 1_555
C13 C8 1_555 1_555
H14 C13 1_555 1_555
C14 C11 1_555 1_555
H15 C14 1_555 1_555
H16 C14 1_555 1_555
H17 C14 1_555 1_555
N1 C7 1_555 1_555
C12 C13 1_555 1_555

#END
