
#######################################################################
#
#                 Cambridge Crystallographic Data Centre
#                                CCDC 
#
#######################################################################
#
# If this CIF has been generated from an entry in the Cambridge 
# Structural Database, then it will include bibliographic, chemical, 
# crystal, experimental, refinement or atomic coordinate data resulting 
# from the CCDC's data processing and validation procedures.
#
#######################################################################

data_MUJBIE
_chemical_formula_moiety         'C13 H19 N1 O3 S1'
_chemical_name_systematic        
N-(2-ethyltetrahydrofuran-3-yl)-4-methylbenzenesulfonamide
_symmetry_cell_setting           orthorhombic
_symmetry_space_group_name_H-M   'P 21 21 21'
_symmetry_Int_Tables_number      19
_space_group_name_Hall           'P 2ac 2ab'
loop_
_symmetry_equiv_pos_site_id
_symmetry_equiv_pos_as_xyz
1 x,y,z
2 1/2-x,-y,1/2+z
3 -x,1/2+y,1/2-z
4 1/2+x,1/2-y,-z
_cell_length_a                   7.789(2)
_cell_length_b                   11.669(3)
_cell_length_c                   15.029(4)
_cell_angle_alpha                90
_cell_angle_beta                 90
_cell_angle_gamma                90
_cell_volume                     1365.98
_exptl_crystal_colour            colorless
_exptl_crystal_description       block
_cell_formula_units_Z            4
loop_
_atom_site_label
_atom_site_type_symbol
_atom_site_fract_x
_atom_site_fract_y
_atom_site_fract_z
S1 S 0.70710(8) 0.48725(5) 0.38006(4)
O1 O 0.2721(3) 0.75718(15) 0.46183(11)
O2 O 0.6241(3) 0.42572(16) 0.30969(12)
O3 O 0.8804(2) 0.52715(16) 0.36915(13)
N1 N 0.5925(3) 0.60052(17) 0.40104(14)
C1 C 0.3429(3) 0.65243(19) 0.49685(17)
H1 H 0.4407 0.6703 0.5354
C2 C 0.4053(3) 0.5837(2) 0.41590(16)
H2 H 0.3791 0.5022 0.4235
C3 C 0.3002(4) 0.6340(2) 0.33998(18)
H3 H 0.3599 0.6265 0.2836
H4 H 0.1889 0.5971 0.3355
C4 C 0.2822(4) 0.7577(2) 0.36632(16)
H5 H 0.3806 0.8017 0.3464
H6 H 0.1791 0.7906 0.3407
C5 C 0.2070(4) 0.5901(2) 0.55002(17)
H7 H 0.1201 0.5612 0.5096
H8 H 0.1519 0.6440 0.5900
C6 C 0.2789(5) 0.4906(2) 0.60418(19)
H9 H 0.3285 0.4349 0.5647
H10 H 0.1881 0.4556 0.6378
H11 H 0.3655 0.5185 0.6441
C7 C 0.6997(3) 0.40115(19) 0.47696(15)
C8 C 0.6235(3) 0.2940(2) 0.47551(17)
H12 H 0.5766 0.2652 0.4232
C9 C 0.6183(3) 0.2302(2) 0.55363(18)
H13 H 0.5677 0.1580 0.5529
C10 C 0.6864(3) 0.2714(2) 0.63231(16)
C11 C 0.7620(3) 0.3801(2) 0.63210(17)
H14 H 0.8079 0.4093 0.6845
C12 C 0.7697(3) 0.4447(2) 0.55531(16)
H15 H 0.8211 0.5166 0.5558
C13 C 0.6819(4) 0.2017(3) 0.71645(19)
H16 H 0.5960 0.1431 0.7113
H17 H 0.6547 0.2506 0.7658
H18 H 0.7920 0.1669 0.7260
H19 H 0.642(4) 0.643(3) 0.441(2)
loop_
_geom_bond_atom_site_label_1
_geom_bond_atom_site_label_2
_geom_bond_site_symmetry_1
_geom_bond_site_symmetry_2
S1 O2 1_555 1_555
O1 C1 1_555 1_555
O3 S1 1_555 1_555
N1 S1 1_555 1_555
C1 H1 1_555 1_555
C2 N1 1_555 1_555
H2 C2 1_555 1_555
C3 C2 1_555 1_555
H3 C3 1_555 1_555
H4 C3 1_555 1_555
C4 O1 1_555 1_555
H5 C4 1_555 1_555
H6 C4 1_555 1_555
C5 C1 1_555 1_555
H7 C5 1_555 1_555
H8 C5 1_555 1_555
C6 C5 1_555 1_555
H9 C6 1_555 1_555
H10 C6 1_555 1_555
H11 C6 1_555 1_555
C7 S1 1_555 1_555
C8 C7 1_555 1_555
H12 C8 1_555 1_555
C9 C8 1_555 1_555
H13 C9 1_555 1_555
C10 C9 1_555 1_555
C11 C10 1_555 1_555
H14 C11 1_555 1_555
C12 C7 1_555 1_555
H15 C12 1_555 1_555
C13 C10 1_555 1_555
H16 C13 1_555 1_555
H17 C13 1_555 1_555
H18 C13 1_555 1_555
H19 N1 1_555 1_555
C1 C2 1_555 1_555
C3 C4 1_555 1_555
C11 C12 1_555 1_555

#END
