
#######################################################################
#
#                 Cambridge Crystallographic Data Centre
#                                CCDC 
#
#######################################################################
#
# If this CIF has been generated from an entry in the Cambridge 
# Structural Database, then it will include bibliographic, chemical, 
# crystal, experimental, refinement or atomic coordinate data resulting 
# from the CCDC's data processing and validation procedures.
#
#######################################################################

data_MUJCOL
_chemical_formula_moiety         'C28 H57 B2 K1 O11'
_chemical_name_systematic        
(18-Crown-6)-(2-t-butoxy-4,4,4',4',5,5,5',5'-octamethyl-2,2'-bi-1,3,2-dioxaborolane)-potassium
_symmetry_cell_setting           orthorhombic
_symmetry_space_group_name_H-M   'P n m a'
_symmetry_Int_Tables_number      62
_space_group_name_Hall           '-P 2ac 2n'
loop_
_symmetry_equiv_pos_site_id
_symmetry_equiv_pos_as_xyz
1 x,y,z
2 1/2-x,-y,1/2+z
3 1/2+x,1/2-y,1/2-z
4 -x,1/2+y,-z
5 -x,-y,-z
6 1/2+x,y,1/2-z
7 1/2-x,1/2+y,1/2+z
8 x,1/2-y,z
_cell_length_a                   19.3897(8)
_cell_length_b                   16.8411(7)
_cell_length_c                   10.8066(4)
_cell_angle_alpha                90
_cell_angle_beta                 90
_cell_angle_gamma                90
_cell_volume                     3528.83
_exptl_crystal_colour            colorless
_exptl_crystal_description       needle
_cell_formula_units_Z            4
loop_
_atom_site_label
_atom_site_type_symbol
_atom_site_fract_x
_atom_site_fract_y
_atom_site_fract_z
C1 C 0.6579(4) 0.2500 0.4949(9)
C2 C 0.6125(5) 0.2500 0.3866(8)
C3 C 0.6888(11) 0.1664(11) 0.521(2)
H1 H 0.7195 0.1514 0.4526
H2 H 0.6515 0.1275 0.5276
H3 H 0.7150 0.1677 0.5983
C4 C 0.6269(15) 0.1972(10) 0.2724(15)
H4 H 0.6739 0.2067 0.2428
H5 H 0.5940 0.2101 0.2066
H6 H 0.6219 0.1412 0.2953
C5 C 0.7235(9) 0.3005(12) 0.511(2)
H7 H 0.7555 0.2893 0.4430
H8 H 0.7455 0.2875 0.5899
H9 H 0.7112 0.3570 0.5098
C6 C 0.6133(15) 0.3338(9) 0.323(2)
H10 H 0.6582 0.3424 0.2832
H11 H 0.6054 0.3750 0.3851
H12 H 0.5769 0.3362 0.2601
O1 O 0.4909(3) 0.2062(4) 0.7772(5)
O2 O 0.4292(3) 0.1711(4) 0.5979(6)
C7 C 0.4500(15) 0.143(2) 0.811(3)
C8 C 0.4438(10) 0.105(2) 0.686(5)
C9 C 0.4874(6) 0.0833(7) 0.8934(11)
H13 H 0.5366 0.0828 0.8727
H14 H 0.4679 0.0303 0.8801
H15 H 0.4816 0.0984 0.9804
C10 C 0.3800(6) 0.1673(7) 0.8629(13)
H16 H 0.3574 0.1208 0.8993
H17 H 0.3512 0.1886 0.7961
H18 H 0.3863 0.2081 0.9266
C11 C 0.5009(10) 0.0561(10) 0.6233(17)
H19 H 0.4880 0.0452 0.5372
H20 H 0.5066 0.0058 0.6678
H21 H 0.5443 0.0857 0.6251
C12 C 0.3792(4) 0.0559(4) 0.6639(10)
H22 H 0.3783 0.0377 0.5778
H23 H 0.3382 0.0883 0.6805
H24 H 0.3796 0.0099 0.7193
B1 B 0.5458(3) 0.2500 0.5603(6)
B2 B 0.4715(4) 0.2366(14) 0.6513(9)
O3 O 0.6124(3) 0.2686(7) 0.5960(6)
O4 O 0.5465(4) 0.2317(12) 0.4392(6)
K1 K 0.32644(7) 0.2500 0.48458(12)
O5 O 0.2104(8) 0.2500 0.6197(14)
O6 O 0.2357(13) 0.1371(16) 0.475(2)
O7 O 0.3354(14) 0.1334(18) 0.325(3)
O8 O 0.3796(11) 0.2500 0.259(2)
C3G C 0.6888(11) 0.3336(11) 0.521(2)
H1G H 0.7195 0.3486 0.4526
H2G H 0.6515 0.3725 0.5276
H3G H 0.7150 0.3323 0.5983
C4G C 0.6269(15) 0.3028(10) 0.2724(15)
H4G H 0.6739 0.2933 0.2428
H5G H 0.5940 0.2899 0.2066
H6G H 0.6219 0.3588 0.2953
C5G C 0.7235(9) 0.1995(12) 0.511(2)
H7G H 0.7555 0.2107 0.4430
H8G H 0.7455 0.2125 0.5899
H9G H 0.7112 0.1430 0.5098
C6G C 0.6133(15) 0.1662(9) 0.323(2)
H10G H 0.6582 0.1576 0.2832
H11G H 0.6054 0.1250 0.3851
H12G H 0.5769 0.1638 0.2601
O1G O 0.4909(3) 0.2938(4) 0.7772(5)
O2G O 0.4292(3) 0.3289(4) 0.5979(6)
C7G C 0.4500(15) 0.357(2) 0.811(3)
C8G C 0.4438(10) 0.395(2) 0.686(5)
C9G C 0.4874(6) 0.4167(7) 0.8934(11)
H13G H 0.5366 0.4172 0.8727
H14G H 0.4679 0.4697 0.8801
H15G H 0.4816 0.4016 0.9804
C10G C 0.3800(6) 0.3327(7) 0.8629(13)
H16G H 0.3574 0.3792 0.8993
H17G H 0.3512 0.3114 0.7961
H18G H 0.3863 0.2919 0.9266
C11G C 0.5009(10) 0.4439(10) 0.6233(17)
H19G H 0.4880 0.4548 0.5372
H20G H 0.5066 0.4942 0.6678
H21G H 0.5443 0.4143 0.6251
C12G C 0.3792(4) 0.4441(4) 0.6639(10)
H22G H 0.3783 0.4623 0.5778
H23G H 0.3382 0.4117 0.6805
H24G H 0.3796 0.4901 0.7193
B2G B 0.4715(4) 0.2634(14) 0.6513(9)
O3G O 0.6124(3) 0.2314(7) 0.5960(6)
O4G O 0.5465(4) 0.2683(12) 0.4392(6)
O6G O 0.2357(13) 0.3629(16) 0.475(2)
O7G O 0.3354(14) 0.3666(18) 0.325(3)
O9? O 0.4232(3) 0.1930(4) 0.6550(6)
C13? C 0.4445(17) 0.125(2) 0.835(4)
H25? H 0.4025 0.1461 0.8731
H26? H 0.4831 0.1609 0.8519
H27? H 0.4546 0.0725 0.8698
C14? C 0.4343(10) 0.118(2) 0.698(5)
C15? C 0.5075(10) 0.0861(10) 0.6701(17)
H28? H 0.5117 0.0744 0.5816
H29? H 0.5155 0.0376 0.7180
H30? H 0.5417 0.1263 0.6934
C16? C 0.3792(4) 0.0559(4) 0.6639(10)
H31? H 0.3711 0.0569 0.5743
H32? H 0.3362 0.0683 0.7073
H33? H 0.3952 0.0030 0.6884
loop_
_geom_bond_atom_site_label_1
_geom_bond_atom_site_label_2
_geom_bond_site_symmetry_1
_geom_bond_site_symmetry_2
C1 C2 1_555 1_555
C2 C4 1_555 1_555
C3 C1 1_555 1_555
H1 C3 1_555 1_555
H2 C3 1_555 1_555
H3 C3 1_555 1_555
C4 H4 1_555 1_555
H5 C4 1_555 1_555
H6 C4 1_555 1_555
C5 C1 1_555 1_555
H7 C5 1_555 1_555
H8 C5 1_555 1_555
H9 C5 1_555 1_555
C6 C2 1_555 1_555
H10 C6 1_555 1_555
H11 C6 1_555 1_555
H12 C6 1_555 1_555
O1 C7 1_555 1_555
O2 C8 1_555 1_555
C7 C8 1_555 1_555
C8 C11 1_555 1_555
C9 C7 1_555 1_555
H13 C9 1_555 1_555
H14 C9 1_555 1_555
H15 C9 1_555 1_555
C10 C7 1_555 1_555
H16 C10 1_555 1_555
H17 C10 1_555 1_555
H18 C10 1_555 1_555
C11 H19 1_555 1_555
H20 C11 1_555 1_555
H21 C11 1_555 1_555
C12 C8 1_555 1_555
H22 C12 1_555 1_555
H23 C12 1_555 1_555
H24 C12 1_555 1_555
B1 B2 1_555 1_555
B2 O1 1_555 1_555
O3 C1 1_555 1_555
O4 C2 1_555 1_555
K1 O2 1_555 1_555
O5 K1 1_555 1_555
O6 K1 1_555 1_555
O7 K1 1_555 1_555
O8 K1 1_555 1_555
C3G C1 1_555 1_555
H1G C5 1_555 1_555
H2G C3G 1_555 1_555
H3G C5 1_555 1_555
C4G C2 1_555 1_555
H4G C4G 1_555 1_555
H5G C4G 1_555 1_555
H6G C4G 1_555 1_555
C5G C1 1_555 1_555
H7G C5G 1_555 1_555
H8G C5G 1_555 1_555
H9G C3 1_555 1_555
C6G C2 1_555 1_555
H10G C4 1_555 1_555
H11G C6G 1_555 1_555
H12G C4 1_555 1_555
O1G O1 1_555 1_555
O2G B2 1_555 1_555
C7G O1G 1_555 1_555
C8G O2G 1_555 1_555
C9G C7G 1_555 1_555
H13G C9G 1_555 1_555
H14G C9G 1_555 1_555
H15G C9G 1_555 1_555
C10G C7G 1_555 1_555
H16G C10G 1_555 1_555
H17G C10G 1_555 1_555
H18G C10G 1_555 1_555
C11G C8G 1_555 1_555
H19G C11G 1_555 1_555
H20G C11G 1_555 1_555
H21G C11G 1_555 1_555
C12G C8G 1_555 1_555
H22G C12G 1_555 1_555
H23G C12G 1_555 1_555
H24G C12G 1_555 1_555
B2G O1 1_555 1_555
O3G C1 1_555 1_555
O4G C2 1_555 1_555
O6G K1 1_555 1_555
O7G K1 1_555 1_555
C3 C5G 1_555 1_555
H1 C5G 1_555 1_555
H3 C5G 1_555 1_555
C4 C4G 1_555 1_555
C4 C6G 1_555 1_555
C5 C3G 1_555 1_555
C5 C5G 1_555 1_555
H9 C3G 1_555 1_555
C6 C4G 1_555 1_555
H10 C4G 1_555 1_555
H12 C4G 1_555 1_555
O2 B2 1_555 1_555
O2 B2G 1_555 1_555
B1 O3 1_555 1_555
B1 O4 1_555 1_555
B1 B2G 1_555 1_555
B1 O3G 1_555 1_555
B1 O4G 1_555 1_555
B2 O1G 1_555 1_555
O3 O3G 1_555 1_555
O4 O4G 1_555 1_555
K1 O2G 1_555 1_555
C3G H1G 1_555 1_555
C3G H3G 1_555 1_555
C5G H9G 1_555 1_555
C6G H10G 1_555 1_555
C6G H12G 1_555 1_555
O1G B2G 1_555 1_555
O2G B2G 1_555 1_555
C7G C8G 1_555 1_555

#END
