
#######################################################################
#
#                 Cambridge Crystallographic Data Centre
#                                CCDC 
#
#######################################################################
#
# If this CIF has been generated from an entry in the Cambridge 
# Structural Database, then it will include bibliographic, chemical, 
# crystal, experimental, refinement or atomic coordinate data resulting 
# from the CCDC's data processing and validation procedures.
#
#######################################################################

data_MUJFUT
_chemical_formula_moiety         'C14 H19 N1 O2'
_chemical_name_systematic        
(1R,3S)-N-benzyl-3-(hydroxymethyl)-2,2-dimethylcyclopropanecarboxamide
_symmetry_cell_setting           orthorhombic
_symmetry_space_group_name_H-M   'P 21 21 21'
_symmetry_Int_Tables_number      19
_space_group_name_Hall           'P 2ac 2ab'
loop_
_symmetry_equiv_pos_site_id
_symmetry_equiv_pos_as_xyz
1 x,y,z
2 1/2-x,-y,1/2+z
3 -x,1/2+y,1/2-z
4 1/2+x,1/2-y,-z
_cell_length_a                   9.2626(19)
_cell_length_b                   11.332(2)
_cell_length_c                   12.680(3)
_cell_angle_alpha                90
_cell_angle_beta                 90
_cell_angle_gamma                90
_cell_volume                     1330.94
_exptl_crystal_colour            colorless
_exptl_crystal_description       block
_cell_formula_units_Z            4
loop_
_atom_site_label
_atom_site_type_symbol
_atom_site_fract_x
_atom_site_fract_y
_atom_site_fract_z
O1 O 0.4412(2) 0.28785(18) 0.38595(16)
O2 O 0.1203(2) 0.41056(16) 0.61427(15)
H1 H 0.058(4) 0.346(3) 0.591(3)
N1 N 0.4854(2) 0.3901(2) 0.23540(18)
C1 C 0.4075(3) 0.3677(2) 0.3228(2)
C2 C 0.2783(3) 0.4422(2) 0.3344(2)
H2 H 0.2798 0.5128 0.2898
C3 C 0.1945(3) 0.4591(2) 0.4376(2)
H3 H 0.1539 0.5385 0.4451
C4 C 0.1277(3) 0.3903(3) 0.3493(2)
C5 C 0.1100(5) 0.2584(3) 0.3616(3)
H4 H 0.0667 0.2264 0.2990
H5 H 0.0492 0.2423 0.4212
H6 H 0.2029 0.2228 0.3724
C6 C 0.0092(4) 0.4503(5) 0.2862(3)
H7 H -0.0241 0.3979 0.2319
H8 H 0.0464 0.5210 0.2547
H9 H -0.0696 0.4698 0.3322
C7 C 0.2380(3) 0.4057(3) 0.5400(2)
H10 H 0.2663 0.3242 0.5290
H11 H 0.3204 0.4480 0.5683
C8 C 0.6112(4) 0.3166(3) 0.2102(2)
H12 H 0.5835 0.2342 0.2125
H13 H 0.6854 0.3291 0.2631
C9 C 0.6719(3) 0.3449(3) 0.1026(2)
C10 C 0.7386(4) 0.4506(3) 0.0825(3)
H14 H 0.7412 0.5084 0.1346
C11 C 0.8020(4) 0.4722(4) -0.0140(3)
H15 H 0.8462 0.5444 -0.0270
C12 C 0.7999(4) 0.3878(4) -0.0903(3)
H16 H 0.8438 0.4018 -0.1551
C13 C 0.7336(5) 0.2831(4) -0.0715(3)
H17 H 0.7328 0.2253 -0.1236
C14 C 0.6684(4) 0.2618(3) 0.0225(3)
H18 H 0.6208 0.1905 0.0333
loop_
_geom_bond_atom_site_label_1
_geom_bond_atom_site_label_2
_geom_bond_site_symmetry_1
_geom_bond_site_symmetry_2
O1 C1 1_555 1_555
O2 H1 1_555 1_555
N1 C1 1_555 1_555
C1 C2 1_555 1_555
C2 H2 1_555 1_555
C3 C2 1_555 1_555
H3 C3 1_555 1_555
C4 C2 1_555 1_555
C5 C4 1_555 1_555
H4 C5 1_555 1_555
H5 C5 1_555 1_555
H6 C5 1_555 1_555
C6 C4 1_555 1_555
H7 C6 1_555 1_555
H8 C6 1_555 1_555
H9 C6 1_555 1_555
C7 O2 1_555 1_555
H10 C7 1_555 1_555
H11 C7 1_555 1_555
C8 N1 1_555 1_555
H12 C8 1_555 1_555
H13 C8 1_555 1_555
C9 C8 1_555 1_555
C10 C9 1_555 1_555
H14 C10 1_555 1_555
C11 C10 1_555 1_555
H15 C11 1_555 1_555
C12 C11 1_555 1_555
H16 C12 1_555 1_555
C13 C12 1_555 1_555
H17 C13 1_555 1_555
C14 C9 1_555 1_555
H18 C14 1_555 1_555
C3 C4 1_555 1_555
C3 C7 1_555 1_555
C13 C14 1_555 1_555

#END
