
#######################################################################
#
#                 Cambridge Crystallographic Data Centre
#                                CCDC 
#
#######################################################################
#
# If this CIF has been generated from an entry in the Cambridge 
# Structural Database, then it will include bibliographic, chemical, 
# crystal, experimental, refinement or atomic coordinate data resulting 
# from the CCDC's data processing and validation procedures.
#
#######################################################################

data_MUJHAC
_chemical_formula_moiety         'C26 H24 F1 N3 O3'
_chemical_name_systematic        
2-(1,3-dioxo-1,3-dihydro-2H-isoindol-2-yl)-3-fluoro-3-(4-methylphenyl)-N-(2-(pyridin-2-yl)propan-2-yl)propanamide
_symmetry_cell_setting           monoclinic
_symmetry_space_group_name_H-M   'P 21'
_symmetry_Int_Tables_number      4
_space_group_name_Hall           'P 2yb'
loop_
_symmetry_equiv_pos_site_id
_symmetry_equiv_pos_as_xyz
1 x,y,z
2 -x,1/2+y,-z
_cell_length_a                   12.1939(8)
_cell_length_b                   14.0887(9)
_cell_length_c                   13.9512(13)
_cell_angle_alpha                90
_cell_angle_beta                 104.752(8)
_cell_angle_gamma                90
_cell_volume                     2317.76
_exptl_crystal_colour            colorless
_exptl_crystal_description       block
_cell_formula_units_Z            4
loop_
_atom_site_label
_atom_site_type_symbol
_atom_site_fract_x
_atom_site_fract_y
_atom_site_fract_z
F1 F 0.18667(16) 0.38479(16) 0.0067(2)
O1 O 0.3560(2) 0.6021(3) 0.2339(2)
O2 O 0.5072(2) 0.5410(2) -0.0250(2)
O3 O 0.2443(2) 0.68374(19) 0.0172(3)
N1 N 0.4078(2) 0.5593(2) 0.0923(2)
N2 N 0.1042(2) 0.5740(2) -0.0169(2)
H1 H 0.0909 0.5140 -0.0215
N3 N -0.0886(2) 0.4833(2) -0.0568(2)
C1 C 0.6001(4) 0.6879(4) 0.2927(3)
H2 H 0.5682 0.7005 0.3452
C2 C 0.7107(4) 0.7158(4) 0.2948(4)
H3 H 0.7543 0.7467 0.3504
C3 C 0.7556(3) 0.6983(4) 0.2160(4)
H4 H 0.8284 0.7195 0.2183
C4 C 0.6957(3) 0.6505(3) 0.1339(3)
H5 H 0.7274 0.6376 0.0813
C5 C 0.5871(3) 0.6219(3) 0.1316(3)
C6 C 0.5411(3) 0.6410(3) 0.2095(3)
C7 C 0.4240(3) 0.6017(3) 0.1853(3)
C8 C 0.5013(3) 0.5701(2) 0.0541(3)
C9 C 0.3011(2) 0.5207(2) 0.0346(3)
H6 H 0.3136 0.5020 -0.0295
C10 C 0.2703(3) 0.4307(2) 0.0813(3)
H7 H 0.2380 0.4475 0.1365
C11 C 0.3674(3) 0.3635(2) 0.1175(3)
C12 C 0.4325(3) 0.3313(3) 0.0557(3)
H8 H 0.4149 0.3505 -0.0103
C13 C 0.5234(3) 0.2710(3) 0.0912(3)
H9 H 0.5666 0.2510 0.0488
C14 C 0.5512(3) 0.2402(3) 0.1879(3)
C15 C 0.4852(3) 0.2715(3) 0.2497(3)
H10 H 0.5018 0.2514 0.3153
C16 C 0.3953(3) 0.3321(3) 0.2139(3)
H11 H 0.3523 0.3524 0.2563
C17 C 0.6508(4) 0.1735(3) 0.2263(4)
H12 H 0.7195 0.2098 0.2460
H13 H 0.6563 0.1299 0.1749
H14 H 0.6395 0.1388 0.2822
C18 C 0.2128(3) 0.6011(3) 0.0127(3)
C19 C 0.0056(3) 0.6376(3) -0.0423(3)
C20 C -0.1002(3) 0.5767(3) -0.0726(3)
C21 C -0.2058(3) 0.6171(3) -0.1103(3)
H15 H -0.2125 0.6821 -0.1214
C22 C -0.3002(3) 0.5608(4) -0.1312(3)
H16 H -0.3715 0.5874 -0.1567
C23 C -0.2892(3) 0.4664(4) -0.1145(3)
H17 H -0.3524 0.4269 -0.1275
C24 C -0.1823(3) 0.4304(3) -0.0778(3)
H18 H -0.1747 0.3653 -0.0670
C25 C 0.0157(4) 0.7021(4) -0.1273(4)
H19 H 0.0163 0.6642 -0.1844
H20 H 0.0848 0.7378 -0.1080
H21 H -0.0477 0.7448 -0.1432
C26 C -0.0001(3) 0.6946(3) 0.0495(3)
H22 H -0.0650 0.7357 0.0335
H23 H 0.0675 0.7319 0.0712
H24 H -0.0065 0.6519 0.1014
F2 F 0.31408(17) 0.75020(17) 0.4639(2)
O4 O 0.1204(2) 0.5186(2) 0.2241(2)
O5 O 0.0349(2) 0.5861(2) 0.5154(2)
O6 O 0.2632(2) 0.45526(19) 0.4739(2)
N4 N 0.10024(19) 0.57003(19) 0.3749(2)
N5 N 0.4028(2) 0.5663(2) 0.5031(2)
H25 H 0.4151 0.6264 0.5025
N6 N 0.5953(2) 0.6567(2) 0.5449(2)
C27 C -0.0483(3) 0.4865(3) 0.2794(3)
C28 C -0.1222(3) 0.4401(3) 0.2025(3)
H26 H -0.1033 0.4269 0.1434
C29 C -0.2256(4) 0.4142(4) 0.2175(4)
H27 H -0.2779 0.3828 0.1673
C30 C -0.2531(4) 0.4337(4) 0.3046(4)
H28 H -0.3235 0.4150 0.3125
C31 C -0.1782(3) 0.4808(3) 0.3815(3)
H29 H -0.1971 0.4944 0.4405
C32 C -0.0751(3) 0.5066(2) 0.3670(3)
C33 C 0.0219(3) 0.5577(2) 0.4319(3)
C34 C 0.0657(3) 0.5240(3) 0.2849(3)
C35 C 0.2129(2) 0.6115(2) 0.4084(3)
H30 H 0.2383 0.6253 0.3486
C36 C 0.2098(3) 0.7063(3) 0.4606(3)
H31 H 0.2038 0.6947 0.5283
C37 C 0.1157(3) 0.7708(3) 0.4087(3)
C38 C 0.1050(3) 0.8009(3) 0.3127(3)
H32 H 0.1562 0.7800 0.2780
C39 C 0.0186(3) 0.8620(3) 0.2676(3)
H33 H 0.0125 0.8816 0.2028
C40 C -0.0592(3) 0.8944(3) 0.3170(3)
C41 C -0.0494(3) 0.8631(3) 0.4124(3)
H34 H -0.1021 0.8828 0.4461
C42 C 0.0379(3) 0.8028(3) 0.4591(3)
H35 H 0.0445 0.7838 0.5242
C43 C -0.1541(4) 0.9602(3) 0.2674(4)
H36 H -0.2137 0.9568 0.3010
H37 H -0.1832 0.9418 0.1995
H38 H -0.1260 1.0241 0.2703
C44 C 0.2959(3) 0.5362(3) 0.4675(3)
C45 C 0.5005(3) 0.5041(3) 0.5432(3)
C46 C 0.6064(3) 0.5662(3) 0.5695(3)
C47 C 0.7116(3) 0.5266(3) 0.6142(3)
H39 H 0.7172 0.4628 0.6318
C48 C 0.8072(3) 0.5826(4) 0.6322(3)
H40 H 0.8782 0.5573 0.6617
C49 C 0.7954(3) 0.6762(4) 0.6058(3)
H41 H 0.8583 0.7159 0.6166
C50 C 0.6903(3) 0.7100(3) 0.5636(3)
H42 H 0.6831 0.7739 0.5464
C51 C 0.5116(3) 0.4348(3) 0.4623(3)
H43 H 0.4422 0.3998 0.4399
H44 H 0.5728 0.3916 0.4883
H45 H 0.5267 0.4694 0.4078
C52 C 0.4855(4) 0.4526(4) 0.6355(3)
H46 H 0.4836 0.4982 0.6862
H47 H 0.5477 0.4097 0.6591
H48 H 0.4156 0.4176 0.6192
loop_
_geom_bond_atom_site_label_1
_geom_bond_atom_site_label_2
_geom_bond_site_symmetry_1
_geom_bond_site_symmetry_2
F1 C10 1_555 1_555
O1 C7 1_555 1_555
O2 C8 1_555 1_555
O3 C18 1_555 1_555
N1 C7 1_555 1_555
N2 H1 1_555 1_555
N3 C20 1_555 1_555
C1 H2 1_555 1_555
C2 C1 1_555 1_555
H3 C2 1_555 1_555
C3 C2 1_555 1_555
H4 C3 1_555 1_555
C4 C3 1_555 1_555
H5 C4 1_555 1_555
C5 C4 1_555 1_555
C6 C1 1_555 1_555
C7 C6 1_555 1_555
C8 N1 1_555 1_555
C9 N1 1_555 1_555
H6 C9 1_555 1_555
C10 C9 1_555 1_555
H7 C10 1_555 1_555
C11 C10 1_555 1_555
C12 C11 1_555 1_555
H8 C12 1_555 1_555
C13 C12 1_555 1_555
H9 C13 1_555 1_555
C14 C13 1_555 1_555
C15 C14 1_555 1_555
H10 C15 1_555 1_555
C16 C11 1_555 1_555
H11 C16 1_555 1_555
C17 C14 1_555 1_555
H12 C17 1_555 1_555
H13 C17 1_555 1_555
H14 C17 1_555 1_555
C18 N2 1_555 1_555
C19 N2 1_555 1_555
C20 C19 1_555 1_555
C21 C20 1_555 1_555
H15 C21 1_555 1_555
C22 C21 1_555 1_555
H16 C22 1_555 1_555
C23 C22 1_555 1_555
H17 C23 1_555 1_555
C24 N3 1_555 1_555
H18 C24 1_555 1_555
C25 C19 1_555 1_555
H19 C25 1_555 1_555
H20 C25 1_555 1_555
H21 C25 1_555 1_555
C26 C19 1_555 1_555
H22 C26 1_555 1_555
H23 C26 1_555 1_555
H24 C26 1_555 1_555
F2 C36 1_555 1_555
O4 C34 1_555 1_555
O5 C33 1_555 1_555
O6 C44 1_555 1_555
N4 C33 1_555 1_555
N5 H25 1_555 1_555
N6 C46 1_555 1_555
C27 C28 1_555 1_555
C28 H26 1_555 1_555
C29 C28 1_555 1_555
H27 C29 1_555 1_555
C30 C29 1_555 1_555
H28 C30 1_555 1_555
C31 C30 1_555 1_555
H29 C31 1_555 1_555
C32 C27 1_555 1_555
C33 C32 1_555 1_555
C34 N4 1_555 1_555
C35 N4 1_555 1_555
H30 C35 1_555 1_555
C36 C35 1_555 1_555
H31 C36 1_555 1_555
C37 C36 1_555 1_555
C38 C37 1_555 1_555
H32 C38 1_555 1_555
C39 C38 1_555 1_555
H33 C39 1_555 1_555
C40 C39 1_555 1_555
C41 C40 1_555 1_555
H34 C41 1_555 1_555
C42 C37 1_555 1_555
H35 C42 1_555 1_555
C43 C40 1_555 1_555
H36 C43 1_555 1_555
H37 C43 1_555 1_555
H38 C43 1_555 1_555
C44 N5 1_555 1_555
C45 N5 1_555 1_555
C46 C45 1_555 1_555
C47 C46 1_555 1_555
H39 C47 1_555 1_555
C48 C47 1_555 1_555
H40 C48 1_555 1_555
C49 C48 1_555 1_555
H41 C49 1_555 1_555
C50 N6 1_555 1_555
H42 C50 1_555 1_555
C51 C45 1_555 1_555
H43 C51 1_555 1_555
H44 C51 1_555 1_555
H45 C51 1_555 1_555
C52 C45 1_555 1_555
H46 C52 1_555 1_555
H47 C52 1_555 1_555
H48 C52 1_555 1_555
C5 C6 1_555 1_555
C5 C8 1_555 1_555
C9 C18 1_555 1_555
C15 C16 1_555 1_555
C23 C24 1_555 1_555
C27 C34 1_555 1_555
C31 C32 1_555 1_555
C35 C44 1_555 1_555
C41 C42 1_555 1_555
C49 C50 1_555 1_555

#END
