
#######################################################################
#
#                 Cambridge Crystallographic Data Centre
#                                CCDC 
#
#######################################################################
#
# If this CIF has been generated from an entry in the Cambridge 
# Structural Database, then it will include bibliographic, chemical, 
# crystal, experimental, refinement or atomic coordinate data resulting 
# from the CCDC's data processing and validation procedures.
#
#######################################################################

data_MUJHEG
_chemical_formula_moiety         'C29 H30 F1 N3 O3'
_chemical_name_systematic        
3-(4-t-butylphenyl)-2-(1,3-dioxo-1,3-dihydro-2H-isoindol-2-yl)-3-fluoro-N-(2-(pyridin-2-yl)propan-2-yl)propanamide
_symmetry_cell_setting           monoclinic
_symmetry_space_group_name_H-M   'P 21'
_symmetry_Int_Tables_number      4
_space_group_name_Hall           'P 2yb'
loop_
_symmetry_equiv_pos_site_id
_symmetry_equiv_pos_as_xyz
1 x,y,z
2 -x,1/2+y,-z
_cell_length_a                   11.8336(6)
_cell_length_b                   11.9775(7)
_cell_length_c                   19.0565(12)
_cell_angle_alpha                90
_cell_angle_beta                 100.114(2)
_cell_angle_gamma                90
_cell_volume                     2659.04
_exptl_crystal_colour            colorless
_exptl_crystal_description       chunk
_cell_formula_units_Z            4
loop_
_atom_site_label
_atom_site_type_symbol
_atom_site_fract_x
_atom_site_fract_y
_atom_site_fract_z
C1 C 0.4357(6) 0.4333(6) 0.2923(4)
H1 H 0.3714 0.3889 0.2674
C2 C 0.5257(7) 0.4375(7) 0.2440(4)
H2 H 0.5979 0.4658 0.2714
C3 C 0.4957(6) 0.5034(7) 0.1768(4)
C4 C 0.3926(7) 0.4905(8) 0.1310(4)
H3 H 0.3370 0.4430 0.1432
C5 C 0.3708(7) 0.5481(7) 0.0663(4)
H4 H 0.3008 0.5376 0.0361
C6 C 0.4488(7) 0.6191(7) 0.0461(4)
C7 C 0.5519(8) 0.6293(11) 0.0937(5)
H5 H 0.6093 0.6736 0.0807
C8 C 0.5727(7) 0.5787(12) 0.1573(5)
H6 H 0.6402 0.5946 0.1888
C9 C 0.4287(10) 0.6779(11) -0.0266(6)
C10 C 0.3091(10) 0.6755(12) -0.0617(6)
H7 H 0.2607 0.6932 -0.0277
H8 H 0.2904 0.6024 -0.0809
H9 H 0.2974 0.7294 -0.0996
C11 C 0.4294(12) 0.8057(12) -0.0153(7)
H10 H 0.4985 0.8270 0.0162
H11 H 0.3641 0.8268 0.0054
H12 H 0.4258 0.8427 -0.0603
C12 C 0.5260(10) 0.6701(13) -0.0609(7)
H13 H 0.5935 0.6926 -0.0283
H14 H 0.5153 0.7180 -0.1019
H15 H 0.5348 0.5943 -0.0755
C13 C 0.4751(6) 0.3784(7) 0.3645(4)
C14 C 0.5626(6) 0.2022(6) 0.4226(4)
C15 C 0.4651(7) 0.1755(8) 0.4628(4)
H16 H 0.4031 0.1408 0.4310
H17 H 0.4384 0.2433 0.4813
H18 H 0.4924 0.1256 0.5015
C16 C 0.6636(7) 0.2603(8) 0.4708(4)
H19 H 0.7228 0.2765 0.4437
H20 H 0.6936 0.2120 0.5099
H21 H 0.6373 0.3285 0.4889
C17 C 0.6064(6) 0.0959(7) 0.3937(4)
C18 C 0.6427(7) 0.0059(7) 0.4389(4)
H22 H 0.6374 0.0084 0.4870
C19 C 0.6863(8) -0.0861(8) 0.4101(6)
H23 H 0.7123 -0.1462 0.4395
C20 C 0.6924(7) -0.0911(7) 0.3393(6)
H24 H 0.7218 -0.1537 0.3199
C21 C 0.6543(8) -0.0019(8) 0.2983(5)
H25 H 0.6572 -0.0050 0.2499
C22 C 0.2723(7) 0.5658(7) 0.2966(4)
C23 C 0.2617(6) 0.6820(6) 0.3171(4)
C24 C 0.1636(7) 0.7444(8) 0.3176(4)
H26 H 0.0907 0.7138 0.3046
C25 C 0.1791(8) 0.8527(8) 0.3380(4)
H27 H 0.1152 0.8970 0.3401
C26 C 0.2868(9) 0.8986(8) 0.3556(4)
H28 H 0.2940 0.9730 0.3694
C27 C 0.3832(8) 0.8376(7) 0.3532(4)
H29 H 0.4555 0.8703 0.3634
C28 C 0.3709(6) 0.7266(6) 0.3353(4)
C29 C 0.4564(7) 0.6376(6) 0.3272(4)
N1 N 0.5219(5) 0.2748(5) 0.3625(3)
H30 H 0.5281 0.2497 0.3211
N2 N 0.6118(6) 0.0919(6) 0.3244(3)
N3 N 0.3914(5) 0.5436(5) 0.3023(3)
O1 O 0.4590(6) 0.4225(5) 0.4195(3)
O2 O 0.1983(5) 0.4975(6) 0.2776(5)
O3 O 0.5579(5) 0.6433(5) 0.3379(4)
F1 F 0.5415(5) 0.3248(4) 0.2240(3)
C30 C -0.0079(7) 0.2515(7) 0.1973(4)
H31 H -0.0848 0.2187 0.1909
C31 C 0.0095(7) 0.3122(6) 0.2690(4)
H32 H 0.0752 0.3630 0.2726
C32 C 0.0267(6) 0.2327(6) 0.3330(4)
C33 C 0.1284(6) 0.2318(7) 0.3804(4)
H33 H 0.1892 0.2753 0.3711
C34 C 0.1423(6) 0.1675(8) 0.4417(4)
H34 H 0.2123 0.1677 0.4728
C35 C 0.0539(6) 0.1037(7) 0.4568(4)
C36 C -0.0469(7) 0.1036(8) 0.4085(5)
H35 H -0.1075 0.0592 0.4170
C37 C -0.0599(6) 0.1684(7) 0.3473(4)
H36 H -0.1293 0.1674 0.3157
C38 C 0.0639(8) 0.0338(9) 0.5250(5)
C39 C 0.1828(10) 0.0434(16) 0.5728(7)
H37 H 0.2410 0.0213 0.5463
H38 H 0.1858 -0.0045 0.6135
H39 H 0.1957 0.1192 0.5884
C40 C 0.0411(10) -0.0906(9) 0.5053(6)
H40 H 0.0976 -0.1167 0.4787
H41 H -0.0340 -0.0983 0.4770
H42 H 0.0457 -0.1339 0.5481
C41 C -0.0282(12) 0.0718(13) 0.5658(6)
H43 H -0.0221 0.0299 0.6092
H44 H -0.1025 0.0597 0.5372
H45 H -0.0184 0.1498 0.5767
C42 C -0.0060(8) 0.3284(7) 0.1310(4)
C43 C -0.0534(7) 0.5188(7) 0.0804(4)
C44 C 0.0659(10) 0.5452(10) 0.0639(7)
H46 H 0.0968 0.4799 0.0450
H47 H 0.1157 0.5681 0.1068
H48 H 0.0599 0.6044 0.0294
C45 C -0.1360(12) 0.4782(9) 0.0147(5)
H49 H -0.1050 0.4129 -0.0041
H50 H -0.1464 0.5359 -0.0208
H51 H -0.2087 0.4603 0.0277
C46 C -0.1008(6) 0.6219(6) 0.1101(4)
C47 C -0.1282(7) 0.7145(7) 0.0685(5)
H52 H -0.1171 0.7152 0.0214
C48 C -0.1727(8) 0.8070(8) 0.0974(6)
H53 H -0.1923 0.8702 0.0695
C49 C -0.1876(8) 0.8058(9) 0.1655(6)
H54 H -0.2174 0.8669 0.1861
C50 C -0.1558(8) 0.7072(8) 0.2042(5)
H55 H -0.1659 0.7047 0.2515
C51 C 0.1875(7) 0.1711(7) 0.2006(4)
C52 C 0.2315(8) 0.0573(7) 0.1886(4)
C53 C 0.3408(8) 0.0222(9) 0.1889(5)
H56 H 0.4030 0.0706 0.1990
C54 C 0.3547(10) -0.0894(11) 0.1733(5)
H57 H 0.4284 -0.1167 0.1738
C55 C 0.2633(10) -0.1610(8) 0.1570(4)
H58 H 0.2757 -0.2354 0.1466
C56 C 0.1525(9) -0.1223(7) 0.1560(5)
H59 H 0.0897 -0.1697 0.1446
C57 C 0.1381(8) -0.0127(7) 0.1724(4)
C58 C 0.0326(8) 0.0537(6) 0.1756(4)
N4 N -0.0430(6) 0.4309(5) 0.1363(3)
H60 H -0.0632 0.4489 0.1759
N5 N -0.1138(6) 0.6205(6) 0.1786(4)
N6 N 0.0704(6) 0.1600(5) 0.1962(3)
O4 O 0.0275(7) 0.2875(6) 0.0799(3)
O5 O 0.2401(6) 0.2567(6) 0.2151(5)
O6 O -0.0657(6) 0.0254(6) 0.1632(5)
F2 F -0.0906(5) 0.3733(4) 0.2706(3)
loop_
_geom_bond_atom_site_label_1
_geom_bond_atom_site_label_2
_geom_bond_site_symmetry_1
_geom_bond_site_symmetry_2
C1 H1 1_555 1_555
C2 C1 1_555 1_555
H2 C2 1_555 1_555
C3 C2 1_555 1_555
C4 C3 1_555 1_555
H3 C4 1_555 1_555
C5 C4 1_555 1_555
H4 C5 1_555 1_555
C6 C5 1_555 1_555
C7 C6 1_555 1_555
H5 C7 1_555 1_555
C8 C3 1_555 1_555
H6 C8 1_555 1_555
C9 C6 1_555 1_555
C10 C9 1_555 1_555
H7 C10 1_555 1_555
H8 C10 1_555 1_555
H9 C10 1_555 1_555
C11 C9 1_555 1_555
H10 C11 1_555 1_555
H11 C11 1_555 1_555
H12 C11 1_555 1_555
C12 C9 1_555 1_555
H13 C12 1_555 1_555
H14 C12 1_555 1_555
H15 C12 1_555 1_555
C13 C1 1_555 1_555
C14 C15 1_555 1_555
C15 H16 1_555 1_555
H17 C15 1_555 1_555
H18 C15 1_555 1_555
C16 C14 1_555 1_555
H19 C16 1_555 1_555
H20 C16 1_555 1_555
H21 C16 1_555 1_555
C17 C14 1_555 1_555
C18 C17 1_555 1_555
H22 C18 1_555 1_555
C19 C18 1_555 1_555
H23 C19 1_555 1_555
C20 C19 1_555 1_555
H24 C20 1_555 1_555
C21 C20 1_555 1_555
H25 C21 1_555 1_555
C22 C23 1_555 1_555
C23 C24 1_555 1_555
C24 H26 1_555 1_555
C25 C24 1_555 1_555
H27 C25 1_555 1_555
C26 C25 1_555 1_555
H28 C26 1_555 1_555
C27 C26 1_555 1_555
H29 C27 1_555 1_555
C28 C23 1_555 1_555
C29 C28 1_555 1_555
N1 C13 1_555 1_555
H30 N1 1_555 1_555
N2 C17 1_555 1_555
N3 C1 1_555 1_555
O1 C13 1_555 1_555
O2 C22 1_555 1_555
O3 C29 1_555 1_555
F1 C2 1_555 1_555
C30 H31 1_555 1_555
C31 C30 1_555 1_555
H32 C31 1_555 1_555
C32 C31 1_555 1_555
C33 C32 1_555 1_555
H33 C33 1_555 1_555
C34 C33 1_555 1_555
H34 C34 1_555 1_555
C35 C34 1_555 1_555
C36 C35 1_555 1_555
H35 C36 1_555 1_555
C37 C32 1_555 1_555
H36 C37 1_555 1_555
C38 C35 1_555 1_555
C39 C38 1_555 1_555
H37 C39 1_555 1_555
H38 C39 1_555 1_555
H39 C39 1_555 1_555
C40 C38 1_555 1_555
H40 C40 1_555 1_555
H41 C40 1_555 1_555
H42 C40 1_555 1_555
C41 C38 1_555 1_555
H43 C41 1_555 1_555
H44 C41 1_555 1_555
H45 C41 1_555 1_555
C42 C30 1_555 1_555
C43 C44 1_555 1_555
C44 H46 1_555 1_555
H47 C44 1_555 1_555
H48 C44 1_555 1_555
C45 C43 1_555 1_555
H49 C45 1_555 1_555
H50 C45 1_555 1_555
H51 C45 1_555 1_555
C46 C43 1_555 1_555
C47 C46 1_555 1_555
H52 C47 1_555 1_555
C48 C47 1_555 1_555
H53 C48 1_555 1_555
C49 C48 1_555 1_555
H54 C49 1_555 1_555
C50 C49 1_555 1_555
H55 C50 1_555 1_555
C51 C52 1_555 1_555
C52 C53 1_555 1_555
C53 H56 1_555 1_555
C54 C53 1_555 1_555
H57 C54 1_555 1_555
C55 C54 1_555 1_555
H58 C55 1_555 1_555
C56 C55 1_555 1_555
H59 C56 1_555 1_555
C57 C52 1_555 1_555
C58 C57 1_555 1_555
N4 C42 1_555 1_555
H60 N4 1_555 1_555
N5 C46 1_555 1_555
N6 C30 1_555 1_555
O4 C42 1_555 1_555
O5 C51 1_555 1_555
O6 C58 1_555 1_555
F2 C31 1_555 1_555
C7 C8 1_555 1_555
C14 N1 1_555 1_555
C21 N2 1_555 1_555
C22 N3 1_555 1_555
C27 C28 1_555 1_555
C29 N3 1_555 1_555
C36 C37 1_555 1_555
C43 N4 1_555 1_555
C50 N5 1_555 1_555
C51 N6 1_555 1_555
C56 C57 1_555 1_555
C58 N6 1_555 1_555

#END
