
#######################################################################
#
#                 Cambridge Crystallographic Data Centre
#                                CCDC 
#
#######################################################################
#
# If this CIF has been generated from an entry in the Cambridge 
# Structural Database, then it will include bibliographic, chemical, 
# crystal, experimental, refinement or atomic coordinate data resulting 
# from the CCDC's data processing and validation procedures.
#
#######################################################################

data_MUJKAE
_chemical_formula_moiety         'C22 H28 N6 O4 S1'
_chemical_name_systematic        
'Methyl 8-benzyl-3-(dimethylsulfamoyl)-2-(methylamino)-3,6,7,8,9,10-hexahydroimidazo[4,5-g][1,3]benzodiazepine-5-carboxylate'
_symmetry_cell_setting           monoclinic
_symmetry_space_group_name_H-M   'P 21/n'
_symmetry_Int_Tables_number      14
_space_group_name_Hall           '-P 2yn'
loop_
_symmetry_equiv_pos_site_id
_symmetry_equiv_pos_as_xyz
1 x,y,z
2 1/2-x,1/2+y,1/2-z
3 -x,-y,-z
4 1/2+x,1/2-y,1/2+z
_cell_length_a                   6.3947(2)
_cell_length_b                   23.4537(6)
_cell_length_c                   14.9004(4)
_cell_angle_alpha                90
_cell_angle_beta                 94.2831(10)
_cell_angle_gamma                90
_cell_volume                     2228.51
_exptl_crystal_colour            colorless
_exptl_crystal_description       plate
_chemical_melting_point          '156-158 deg.C'
_cell_formula_units_Z            4
_exptl_crystal_recrystallization_method methanol
loop_
_atom_site_label
_atom_site_type_symbol
_atom_site_fract_x
_atom_site_fract_y
_atom_site_fract_z
S1 S 0.18382(12) 0.39282(3) 0.42559(5)
O1 O 0.2887(4) 0.40431(10) 0.34654(16)
O2 O -0.0371(3) 0.39794(10) 0.42574(16)
O3 O -0.3591(3) 0.31138(9) 0.66002(15)
O4 O -0.3361(4) 0.22479(10) 0.72167(16)
N1 N 0.2439(4) 0.32541(10) 0.45136(17)
N2 N 0.4226(4) 0.24136(11) 0.46056(17)
N3 N 0.1005(4) 0.06042(11) 0.61075(18)
N4 N -0.0466(4) 0.15167(11) 0.66416(18)
N5 N 0.5571(4) 0.31292(12) 0.37173(19)
N6 N 0.2873(4) 0.43307(11) 0.50437(19)
C1 C 0.4152(5) 0.29215(13) 0.4250(2)
C2 C 0.2540(4) 0.23823(13) 0.51399(19)
C3 C 0.1987(5) 0.19259(13) 0.5664(2)
C4 C 0.3443(5) 0.14155(14) 0.5775(2)
C5 C 0.2514(5) 0.08347(14) 0.5514(2)
C6 C -0.0800(5) 0.09654(14) 0.6171(2)
C7 C 0.0175(5) 0.19840(13) 0.6142(2)
C8 C -0.0911(4) 0.25153(13) 0.6140(2)
C9 C -0.0288(4) 0.29740(13) 0.5612(2)
C10 C 0.1396(4) 0.28943(12) 0.51126(19)
C11 C 0.7130(6) 0.27416(16) 0.3402(3)
C12 C 0.1685(7) 0.44522(18) 0.5832(3)
C13 C 0.5166(6) 0.42783(17) 0.5237(3)
C14 C -0.2698(5) 0.25938(13) 0.6700(2)
C15 C -0.5286(6) 0.32138(17) 0.7168(3)
C16 C 0.1936(6) 0.04110(15) 0.6980(2)
C17 C 0.3232(5) -0.01214(13) 0.6884(2)
C18 C 0.5273(6) -0.01575(16) 0.7259(2)
C19 C 0.6420(6) -0.06584(19) 0.7181(3)
C20 C 0.5550(6) -0.11154(17) 0.6727(3)
C21 C 0.3543(6) -0.10888(16) 0.6346(2)
C22 C 0.2392(6) -0.05929(15) 0.6419(2)
H1 H -0.105(4) 0.3299(13) 0.5602(19)
H2 H -0.132(4) 0.1021(12) 0.554(2)
H3 H 0.373(5) 0.0556(14) 0.553(2)
H4 H 0.398(5) 0.1414(13) 0.637(2)
H5 H -0.567(6) 0.3622(19) 0.710(3)
H6 H 0.471(6) 0.1484(16) 0.541(3)
H7 H 0.790(6) 0.2958(17) 0.300(3)
H8 H -0.186(6) 0.0759(16) 0.654(3)
H9 H 0.582(6) 0.0167(18) 0.760(3)
H10 H 0.650(5) 0.2449(15) 0.301(2)
H11 H -0.164(5) 0.1589(14) 0.690(2)
H12 H -0.647(6) 0.2994(16) 0.702(2)
H13 H 0.559(6) 0.4610(19) 0.562(3)
H14 H 0.634(5) -0.1447(15) 0.664(2)
H15 H 0.293(6) -0.1393(17) 0.600(3)
H16 H -0.487(6) 0.3084(17) 0.783(3)
H17 H 0.015(7) 0.4467(18) 0.565(3)
H18 H 0.278(6) 0.0692(17) 0.731(3)
H19 H 0.066(7) 0.0325(19) 0.733(3)
H20 H 0.803(6) 0.2575(17) 0.390(3)
H21 H 0.190(6) 0.0834(17) 0.488(3)
H22 H 0.775(6) -0.0678(16) 0.744(3)
H23 H 0.549(6) 0.3892(19) 0.563(3)
H24 H 0.103(7) -0.0575(18) 0.618(3)
H25 H 0.230(6) 0.481(2) 0.614(3)
H26 H 0.585(6) 0.4258(16) 0.467(3)
H27 H 0.172(7) 0.413(2) 0.626(3)
H28 H 0.528(6) 0.3429(18) 0.341(3)
loop_
_geom_bond_atom_site_label_1
_geom_bond_atom_site_label_2
_geom_bond_site_symmetry_1
_geom_bond_site_symmetry_2
S1 O1 1_555 1_555
O2 S1 1_555 1_555
O3 C14 1_555 1_555
O4 C14 1_555 1_555
N1 S1 1_555 1_555
N2 C1 1_555 1_555
N3 C5 1_555 1_555
N4 C6 1_555 1_555
N5 C1 1_555 1_555
N6 S1 1_555 1_555
C1 N1 1_555 1_555
C2 N2 1_555 1_555
C3 C2 1_555 1_555
C4 C3 1_555 1_555
C5 C4 1_555 1_555
C6 N3 1_555 1_555
C7 N4 1_555 1_555
C8 C7 1_555 1_555
C9 C8 1_555 1_555
C10 N1 1_555 1_555
C11 N5 1_555 1_555
C12 N6 1_555 1_555
C13 N6 1_555 1_555
C14 C8 1_555 1_555
C15 O3 1_555 1_555
C16 N3 1_555 1_555
C17 C16 1_555 1_555
C18 C17 1_555 1_555
C19 C18 1_555 1_555
C20 C19 1_555 1_555
C21 C20 1_555 1_555
C22 C17 1_555 1_555
H1 C9 1_555 1_555
H2 C6 1_555 1_555
H3 C5 1_555 1_555
H4 C4 1_555 1_555
H5 C15 1_555 1_555
H6 C4 1_555 1_555
H7 C11 1_555 1_555
H8 C6 1_555 1_555
H9 C18 1_555 1_555
H10 C11 1_555 1_555
H11 N4 1_555 1_555
H12 C15 1_555 1_555
H13 C13 1_555 1_555
H14 C20 1_555 1_555
H15 C21 1_555 1_555
H16 C15 1_555 1_555
H17 C12 1_555 1_555
H18 C16 1_555 1_555
H19 C16 1_555 1_555
H20 C11 1_555 1_555
H21 C5 1_555 1_555
H22 C19 1_555 1_555
H23 C13 1_555 1_555
H24 C22 1_555 1_555
H25 C12 1_555 1_555
H26 C13 1_555 1_555
H27 C12 1_555 1_555
H28 N5 1_555 1_555
C2 C10 1_555 1_555
C3 C7 1_555 1_555
C9 C10 1_555 1_555
C21 C22 1_555 1_555

#END
