
#######################################################################
#
#                 Cambridge Crystallographic Data Centre
#                                CCDC 
#
#######################################################################
#
# If this CIF has been generated from an entry in the Cambridge 
# Structural Database, then it will include bibliographic, chemical, 
# crystal, experimental, refinement or atomic coordinate data resulting 
# from the CCDC's data processing and validation procedures.
#
#######################################################################

data_MUJQIT
_chemical_formula_moiety         'C64 H54 N2 S8,2.5(C4 H8 O1)'
_chemical_name_systematic        
'7,8,15,16,23,24,31,32-octaethyl-51,52,53,54,55,56,57,58-octathia-47,50-diazadodecacyclo[36.8.4.1^2,5^.1^6,9^.1^10,13^.1^14,17^.1^22,25^.1^26,29^.1^30,33^.1^34,37^.0^41,49^.0^44,48^]octapentaconta-1(46),2,4,6,8,10,12,14,16,22,24,26,28,30,32,34,36,38,40,42,44,47,49-tricosaene-18,20-diyne tetrahydrofuran solvate'
_symmetry_cell_setting           triclinic
_symmetry_space_group_name_H-M   'P -1'
_symmetry_Int_Tables_number      2
_space_group_name_Hall           '-P 1'
loop_
_symmetry_equiv_pos_site_id
_symmetry_equiv_pos_as_xyz
1 x,y,z
2 -x,-y,-z
_cell_length_a                   12.930(3)
_cell_length_b                   14.270(3)
_cell_length_c                   19.719(4)
_cell_angle_alpha                86.39(3)
_cell_angle_beta                 78.23(3)
_cell_angle_gamma                67.38(3)
_cell_volume                     3287.4
_cell_formula_units_Z            2
loop_
_atom_site_label
_atom_site_type_symbol
_atom_site_fract_x
_atom_site_fract_y
_atom_site_fract_z
C1 C 0.3228(2) 0.5848(2) 0.53556(17)
C2 C 0.2515(3) 0.6494(2) 0.49262(19)
H1 H 0.199(3) 0.629(2) 0.4727(17)
C3 C 0.2583(3) 0.7420(3) 0.47667(19)
H2 H 0.212(3) 0.783(2) 0.4497(18)
C4 C 0.3365(2) 0.7714(2) 0.50207(17)
C5 C 0.4047(2) 0.7008(2) 0.54381(16)
N1 N 0.3976(2) 0.61045(18) 0.56077(14)
C6 C 0.3488(3) 0.8666(2) 0.48826(18)
H3 H 0.307(3) 0.914(2) 0.4612(17)
C7 C 0.4247(3) 0.8894(2) 0.51461(18)
H4 H 0.429(2) 0.952(2) 0.5061(16)
C8 C 0.4981(2) 0.8195(2) 0.55626(17)
C9 C 0.4899(2) 0.7242(2) 0.56932(17)
N2 N 0.5578(2) 0.65223(18) 0.60567(14)
C10 C 0.6376(2) 0.6702(2) 0.62966(17)
C11 C 0.6505(3) 0.7643(2) 0.62013(18)
H5 H 0.7055 0.7761 0.6383
C12 C 0.5809(3) 0.8377(2) 0.58373(19)
H6 H 0.5883 0.9001 0.5771
C13 C 0.7115(2) 0.5823(2) 0.66279(17)
C14 C 0.7027(3) 0.4904(2) 0.66760(19)
H7 H 0.6463 0.4774 0.6518
C15 C 0.7858(3) 0.4173(2) 0.69841(19)
H8 H 0.7901 0.3509 0.7049
C16 C 0.8612(3) 0.4515(2) 0.71836(17)
C17 C 0.9559(2) 0.3907(2) 0.75182(17)
C18 C 1.0573(2) 0.3978(2) 0.75720(17)
C19 C 1.0908(3) 0.4847(2) 0.73109(19)
H9 H 1.0599 0.5108 0.6898
H10 H 1.1734 0.4606 0.7183
C20 C 1.0479(3) 0.5707(3) 0.7850(2)
H11 H 1.0762 0.6224 0.7673
H12 H 1.0748 0.5445 0.8269
H13 H 0.9659 0.5992 0.7945
C21 C 1.1280(2) 0.3114(2) 0.79123(17)
C22 C 1.2464(3) 0.2959(3) 0.80048(19)
H14 H 1.2827 0.3231 0.7606
H15 H 1.2907 0.2236 0.8013
C23 C 1.2505(3) 0.3455(3) 0.8666(2)
H16 H 1.2128 0.4179 0.8646
H17 H 1.3286 0.3286 0.8701
H18 H 1.2126 0.3209 0.9065
C24 C 1.0783(3) 0.2423(2) 0.81212(18)
C25 C 1.1158(3) 0.1477(2) 0.84832(18)
C26 C 1.1874(3) 0.1142(3) 0.89427(19)
H19 H 1.2284 0.1504 0.9052
C27 C 1.1941(3) 0.0200(3) 0.9240(2)
H20 H 1.2407 -0.0120 0.9555
C28 C 1.1251(3) -0.0200(2) 0.90177(18)
C29 C 1.1480(3) -0.1898(3) 0.9608(2)
C30 C 1.0969(3) -0.1078(2) 0.92330(19)
C31 C 1.2755(5) -0.2171(3) 0.9797(3)
H21 H 1.3193 -0.2897 0.9784
H22 H 1.3190 -0.1838 0.9488
C32 C 1.2440(5) -0.1776(4) 1.0464(3)
H23 H 1.2042 -0.1054 1.0455
H24 H 1.3110 -0.1928 1.0657
H25 H 1.1949 -0.2073 1.0744
C33 C 1.0901(3) -0.2581(3) 0.9721(2)
C34 C 1.1494(6) -0.3628(6) 1.0039(5)
H26 H 1.2155 -0.4028 0.9701
H27 H 1.1770 -0.3518 1.0438
C35 C 1.0790(7) -0.4215(6) 1.0256(5)
H28 H 1.0605 -0.4419 0.9856
H29 H 1.0099 -0.3809 1.0560
H30 H 1.1199 -0.4807 1.0494
C36 C 0.9965(3) -0.2286(2) 0.94109(19)
C37 C 0.9145(3) -0.2692(3) 0.93715(19)
C38 C 0.8390(3) -0.2933(3) 0.9274(2)
C39 C 0.7515(3) -0.3112(3) 0.9086(2)
C40 C 0.6730(3) -0.3190(2) 0.88764(19)
C41 C 0.5806(3) -0.3091(2) 0.85578(19)
C42 C 0.5179(3) -0.3678(3) 0.8577(2)
C43 C 0.5354(4) -0.4624(3) 0.9064(3)
H31 H 0.5574 -0.4498 0.9480
H32 H 0.4640 -0.4725 0.9200
C44 C 0.6192(6) -0.5495(5) 0.8727(4)
H33 H 0.5926 -0.5675 0.8354
H34 H 0.6354 -0.6041 0.9050
H35 H 0.6873 -0.5369 0.8547
C45 C 0.4310(3) -0.3279(3) 0.8178(2)
C46 C 0.3413(3) -0.3764(3) 0.8134(2)
H36 H 0.3297 -0.4132 0.8555
H37 H 0.2687 -0.3231 0.8094
C47 C 0.3820(4) -0.4456(3) 0.7536(3)
H38 H 0.4027 -0.4114 0.7128
H39 H 0.3226 -0.4672 0.7478
H40 H 0.4476 -0.5038 0.7610
C48 C 0.4281(3) -0.2379(2) 0.78600(18)
C49 C 0.3516(2) -0.1698(2) 0.74443(17)
C50 C 0.2793(3) -0.1818(2) 0.70683(18)
H41 H 0.2668 -0.2417 0.7063
C51 C 0.2257(2) -0.0963(2) 0.66909(18)
H42 H 0.1739 -0.0940 0.6419
C52 C 0.2575(2) -0.0162(2) 0.67628(17)
C53 C 0.2296(2) 0.0819(2) 0.64441(17)
C54 C 0.1324(2) 0.1463(2) 0.62249(17)
C55 C 0.0285(2) 0.1204(2) 0.62750(18)
H43 H -0.0395 0.1818 0.6383
H44 H 0.0265 0.0739 0.6654
C56 C 0.0261(3) 0.0714(3) 0.56032(19)
H45 H 0.0189 0.1199 0.5238
H46 H -0.0378 0.0508 0.5680
H47 H 0.0956 0.0132 0.5475
C57 C 0.1400(2) 0.2390(2) 0.59591(16)
C58 C 0.0456(2) 0.3233(2) 0.56869(17)
H48 H 0.0405 0.3880 0.5851
H49 H -0.0264 0.3163 0.5875
C59 C 0.0630(3) 0.3243(3) 0.48974(19)
H50 H 0.1355 0.3288 0.4706
H51 H 0.0030 0.3818 0.4757
H52 H 0.0616 0.2630 0.4733
C60 C 0.2427(2) 0.2454(2) 0.59951(16)
C61 C 0.2856(2) 0.3262(2) 0.58699(17)
C62 C 0.3790(2) 0.3281(2) 0.60855(18)
H53 H 0.4248 0.2748 0.6320
C63 C 0.4000(2) 0.4170(2) 0.59244(17)
H54 H 0.4602 0.4285 0.6044
C64 C 0.3236(2) 0.4847(2) 0.55766(17)
S1 S 0.33185(6) 0.13483(6) 0.63204(5)
S2 S 0.82587(7) 0.57876(6) 0.69765(5)
S3 S 0.22447(6) 0.43778(6) 0.54378(5)
S4 S 0.35124(7) -0.04775(6) 0.73286(5)
S5 S 0.94447(7) 0.28133(6) 0.78994(5)
S6 S 1.05696(7) 0.05944(7) 0.84045(5)
S7 S 0.53184(7) -0.20343(7) 0.80688(5)
S8 S 0.97909(8) -0.11471(7) 0.89916(6)
C65 C 0.6144(2) 0.2385(2) 0.69903(15)
C66 C 0.7411(2) 0.1889(3) 0.70965(15)
C67 C 0.7410(2) 0.1501(3) 0.77801(16)
O1 O 0.5813(2) 0.1544(2) 0.74892(15)
C68 C 0.6131(2) 0.1688(3) 0.80878(16)
C69? C 1.0894(8) -0.3409(7) 1.0286(5)
H55? H 1.1255 -0.3349 1.0657
H56? H 1.0121 -0.3359 1.0479
C70? C 1.1562(10) -0.4370(8) 0.9888(6)
H57? H 1.1209 -0.4392 0.9509
H58? H 1.1584 -0.4933 1.0186
H59? H 1.2326 -0.4406 0.9712
C71? C 0.6479(2) 0.1303(3) 0.80220(16)
O2? O 0.5431(2) 0.2216(2) 0.75934(15)
C72? C 0.6468(2) 0.1860(2) 0.69068(15)
C73? C 0.1263(3) 0.1320(3) 0.36645(15)
C74? C 0.0431(3) 0.1643(3) 0.35234(16)
O3? O 0.5260(7) 0.9087(6) 1.0013(5)
C75? C 0.5827(8) 0.9537(5) 0.9577(4)
C76? C 0.5849(8) 1.0432(7) 0.9652(5)
C77? C 0.2320(3) 0.1086(3) 0.29841(16)
C78? C 0.1640(3) 0.1090(3) 0.36764(15)
C79? C 0.0050(3) 0.1892(3) 0.35092(16)
O4? O 0.1646(3) 0.1575(3) 0.24059(17)
C80? C 0.0506(6) 0.1419(8) 0.2809(4)
loop_
_geom_bond_atom_site_label_1
_geom_bond_atom_site_label_2
_geom_bond_site_symmetry_1
_geom_bond_site_symmetry_2
C1 C2 1_555 1_555
C2 H1 1_555 1_555
C3 C2 1_555 1_555
H2 C3 1_555 1_555
C4 C3 1_555 1_555
C5 C4 1_555 1_555
N1 C1 1_555 1_555
C6 C4 1_555 1_555
H3 C6 1_555 1_555
C7 C6 1_555 1_555
H4 C7 1_555 1_555
C8 C7 1_555 1_555
C9 C5 1_555 1_555
N2 C9 1_555 1_555
C10 N2 1_555 1_555
C11 C10 1_555 1_555
H5 C11 1_555 1_555
C12 C8 1_555 1_555
H6 C12 1_555 1_555
C13 C10 1_555 1_555
C14 C13 1_555 1_555
H7 C14 1_555 1_555
C15 C14 1_555 1_555
H8 C15 1_555 1_555
C16 C15 1_555 1_555
C17 C16 1_555 1_555
C18 C17 1_555 1_555
C19 C18 1_555 1_555
H9 C19 1_555 1_555
H10 C19 1_555 1_555
C20 C19 1_555 1_555
H11 C20 1_555 1_555
H12 C20 1_555 1_555
H13 C20 1_555 1_555
C21 C18 1_555 1_555
C22 C21 1_555 1_555
H14 C22 1_555 1_555
H15 C22 1_555 1_555
C23 C22 1_555 1_555
H16 C23 1_555 1_555
H17 C23 1_555 1_555
H18 C23 1_555 1_555
C24 C21 1_555 1_555
C25 C24 1_555 1_555
C26 C25 1_555 1_555
H19 C26 1_555 1_555
C27 C26 1_555 1_555
H20 C27 1_555 1_555
C28 C27 1_555 1_555
C29 C30 1_555 1_555
C30 C28 1_555 1_555
C31 C29 1_555 1_555
H21 C31 1_555 1_555
H22 C31 1_555 1_555
C32 C31 1_555 1_555
H23 C32 1_555 1_555
H24 C32 1_555 1_555
H25 C32 1_555 1_555
C33 C29 1_555 1_555
C34 C33 1_555 1_555
H26 C34 1_555 1_555
H27 C34 1_555 1_555
C35 C34 1_555 1_555
H28 C35 1_555 1_555
H29 C35 1_555 1_555
H30 C35 1_555 1_555
C36 C33 1_555 1_555
C37 C36 1_555 1_555
C38 C37 1_555 1_555
C39 C38 1_555 1_555
C40 C39 1_555 1_555
C41 C40 1_555 1_555
C42 C41 1_555 1_555
C43 C42 1_555 1_555
H31 C43 1_555 1_555
H32 C43 1_555 1_555
C44 C43 1_555 1_555
H33 C44 1_555 1_555
H34 C44 1_555 1_555
H35 C44 1_555 1_555
C45 C42 1_555 1_555
C46 C45 1_555 1_555
H36 C46 1_555 1_555
H37 C46 1_555 1_555
C47 C46 1_555 1_555
H38 C47 1_555 1_555
H39 C47 1_555 1_555
H40 C47 1_555 1_555
C48 C45 1_555 1_555
C49 C48 1_555 1_555
C50 C49 1_555 1_555
H41 C50 1_555 1_555
C51 C50 1_555 1_555
H42 C51 1_555 1_555
C52 C51 1_555 1_555
C53 C52 1_555 1_555
C54 C53 1_555 1_555
C55 C54 1_555 1_555
H43 C55 1_555 1_555
H44 C55 1_555 1_555
C56 C55 1_555 1_555
H45 C56 1_555 1_555
H46 C56 1_555 1_555
H47 C56 1_555 1_555
C57 C54 1_555 1_555
C58 C57 1_555 1_555
H48 C58 1_555 1_555
H49 C58 1_555 1_555
C59 C58 1_555 1_555
H50 C59 1_555 1_555
H51 C59 1_555 1_555
H52 C59 1_555 1_555
C60 C57 1_555 1_555
C61 C60 1_555 1_555
C62 C61 1_555 1_555
H53 C62 1_555 1_555
C63 C62 1_555 1_555
H54 C63 1_555 1_555
C64 C1 1_555 1_555
S1 C53 1_555 1_555
S2 C13 1_555 1_555
S3 C61 1_555 1_555
S4 C49 1_555 1_555
S5 C17 1_555 1_555
S6 C25 1_555 1_555
S7 C41 1_555 1_555
S8 C30 1_555 1_555
C65 C66 1_555 1_555
C66 C67 1_555 1_555
C67 C68 1_555 1_555
O1 C65 1_555 1_555
C68 O1 1_555 1_555
C5 N1 1_555 1_555
C8 C9 1_555 1_555
C11 C12 1_555 1_555
C16 S2 1_555 1_555
C24 S5 1_555 1_555
C28 S6 1_555 1_555
C36 S8 1_555 1_555
C48 S7 1_555 1_555
C52 S4 1_555 1_555
C60 S1 1_555 1_555
C63 C64 1_555 1_555
C64 S3 1_555 1_555

#END
