
#######################################################################
#
#                 Cambridge Crystallographic Data Centre
#                                CCDC 
#
#######################################################################
#
# If this CIF has been generated from an entry in the Cambridge 
# Structural Database, then it will include bibliographic, chemical, 
# crystal, experimental, refinement or atomic coordinate data resulting 
# from the CCDC's data processing and validation procedures.
#
#######################################################################

data_MUJTES
_chemical_formula_moiety         'C19 H18 O3'
_chemical_name_systematic        
6-Hydroxy-7-phenyl-6,6a,7,8,10,10a-hexahydro-9H-benzo[c]chromen-9-one
_symmetry_cell_setting           monoclinic
_symmetry_space_group_name_H-M   'P 21/c'
_symmetry_Int_Tables_number      14
_space_group_name_Hall           '-P 2ybc'
loop_
_symmetry_equiv_pos_site_id
_symmetry_equiv_pos_as_xyz
1 x,y,z
2 -x,1/2+y,1/2-z
3 -x,-y,-z
4 x,1/2-y,1/2+z
_cell_length_a                   5.7550(2)
_cell_length_b                   24.5362(8)
_cell_length_c                   12.5567(4)
_cell_angle_alpha                90
_cell_angle_beta                 99.906(2)
_cell_angle_gamma                90
_cell_volume                     1746.64
_cell_formula_units_Z            4
loop_
_atom_site_label
_atom_site_type_symbol
_atom_site_fract_x
_atom_site_fract_y
_atom_site_fract_z
O1 O 0.5163(3) 0.71263(7) 0.37543(13)
O2 O 0.2086(3) 0.75414(7) 0.44281(12)
H1 H 0.2874 0.7729 0.4897
O3 O -0.4777(3) 0.68070(8) 0.07929(16)
C1 C 0.2465(4) 0.63777(10) 0.32107(18)
C2 C 0.4613(4) 0.65826(10) 0.37381(19)
C3 C 0.1493(4) 0.73303(9) 0.25552(18)
H2 H 0.2337 0.7310 0.1942
C4 C 0.0188(4) 0.83169(10) 0.21802(18)
C5 C 0.3234(4) 0.75014(9) 0.35429(18)
H3 H 0.3858 0.7861 0.3405
C6 C -0.0549(4) 0.77347(9) 0.22667(18)
H4 H -0.1508 0.7716 0.2840
C7 C 0.0528(4) 0.67637(9) 0.27320(19)
H5 H -0.0531 0.6802 0.3261
C8 C 0.6369(4) 0.62298(11) 0.4234(2)
H6 H 0.7795 0.6371 0.4587
C9 C -0.2805(5) 0.69581(11) 0.1200(2)
C10 C 0.1636(5) 0.84865(11) 0.1478(2)
H7 H 0.2169 0.8230 0.1031
C11 C 0.2160(5) 0.58123(11) 0.3211(2)
H8 H 0.0727 0.5665 0.2881
C12 C -0.2117(4) 0.75451(10) 0.1203(2)
H9 H -0.3537 0.7765 0.1078
H10 H -0.1276 0.7609 0.0608
C13 C -0.0963(5) 0.65568(11) 0.1682(2)
H11 H 0.0063 0.6480 0.1163
H12 H -0.1724 0.6219 0.1826
C14 C 0.6022(5) 0.56850(12) 0.4206(2)
H13 H 0.7211 0.5455 0.4541
C15 C 0.2321(6) 0.90189(12) 0.1413(3)
H14 H 0.3338 0.9118 0.0945
C16 C 0.3927(5) 0.54673(12) 0.3688(2)
H15 H 0.3706 0.5092 0.3660
C17 C -0.0638(6) 0.87152(12) 0.2791(3)
H16 H -0.1657 0.8622 0.3262
C18 C 0.0029(9) 0.92494(15) 0.2710(4)
H17 H -0.0548 0.9513 0.3129
C19 C 0.1504(7) 0.93982(14) 0.2036(4)
H18 H 0.1957 0.9761 0.2000
loop_
_geom_bond_atom_site_label_1
_geom_bond_atom_site_label_2
_geom_bond_site_symmetry_1
_geom_bond_site_symmetry_2
O1 C2 1_555 1_555
O2 H1 1_555 1_555
O3 C9 1_555 1_555
C1 C2 1_555 1_555
C2 C8 1_555 1_555
C3 H2 1_555 1_555
C4 C6 1_555 1_555
C5 O1 1_555 1_555
H3 C5 1_555 1_555
C6 C3 1_555 1_555
H4 C6 1_555 1_555
C7 C1 1_555 1_555
H5 C7 1_555 1_555
C8 H6 1_555 1_555
C9 C12 1_555 1_555
C10 C4 1_555 1_555
H7 C10 1_555 1_555
C11 C1 1_555 1_555
H8 C11 1_555 1_555
C12 C6 1_555 1_555
H9 C12 1_555 1_555
H10 C12 1_555 1_555
C13 C7 1_555 1_555
H11 C13 1_555 1_555
H12 C13 1_555 1_555
C14 C8 1_555 1_555
H13 C14 1_555 1_555
C15 C10 1_555 1_555
H14 C15 1_555 1_555
C16 C11 1_555 1_555
H15 C16 1_555 1_555
C17 C4 1_555 1_555
H16 C17 1_555 1_555
C18 C17 1_555 1_555
H17 C18 1_555 1_555
C19 C15 1_555 1_555
H18 C19 1_555 1_555
O2 C5 1_555 1_555
C3 C5 1_555 1_555
C3 C7 1_555 1_555
C9 C13 1_555 1_555
C14 C16 1_555 1_555
C18 C19 1_555 1_555

#END
