
#######################################################################
#
#                 Cambridge Crystallographic Data Centre
#                                CCDC 
#
#######################################################################
#
# If this CIF has been generated from an entry in the Cambridge 
# Structural Database, then it will include bibliographic, chemical, 
# crystal, experimental, refinement or atomic coordinate data resulting 
# from the CCDC's data processing and validation procedures.
#
#######################################################################

data_MUJZOI
_chemical_formula_moiety         'C29 H19 Br1 O6'
_chemical_name_systematic        
'ethyl 3-(3-benzoyl-4-oxo-4H-furo[3,2-c]chromen-2-yl)-3-(4-bromophenyl)acrylate'
_symmetry_cell_setting           triclinic
_symmetry_space_group_name_H-M   'P -1'
_symmetry_Int_Tables_number      2
_space_group_name_Hall           '-P 1'
loop_
_symmetry_equiv_pos_site_id
_symmetry_equiv_pos_as_xyz
1 x,y,z
2 -x,-y,-z
_cell_length_a                   9.1358(7)
_cell_length_b                   12.4959(9)
_cell_length_c                   12.6905(7)
_cell_angle_alpha                118.990(4)
_cell_angle_beta                 96.863(5)
_cell_angle_gamma                94.957(6)
_cell_volume                     1240.65
_exptl_crystal_colour            colorless
_exptl_crystal_description       prism
_cell_formula_units_Z            2
loop_
_atom_site_label
_atom_site_type_symbol
_atom_site_fract_x
_atom_site_fract_y
_atom_site_fract_z
C1 C 0.8636(13) 0.5841(9) 1.3526(9)
C2 C 0.7872(14) 0.6155(9) 1.2750(9)
H1 H 0.7452 0.6895 1.3068
C3 C 0.7719(12) 0.5400(8) 1.1521(8)
H2 H 0.7164 0.5602 1.0979
C4 C 0.8368(11) 0.4330(8) 1.1047(8)
C5 C 0.9119(11) 0.4050(9) 1.1865(8)
H3 H 0.9568 0.3324 1.1563
C6 C 0.9236(12) 0.4798(9) 1.3113(9)
H4 H 0.9729 0.4581 1.3668
C7 C 0.8239(10) 0.3514(8) 0.9691(8)
C8 C 0.8002(11) 0.3925(9) 0.8894(8)
H5 H 0.8015 0.4791 0.9234
C9 C 0.7724(12) 0.3164(10) 0.7542(9)
C10 C 0.725(2) 0.333(2) 0.5742(17)
H6 H 0.7542 0.2497 0.5333
H7 H 0.7882 0.3903 0.5583
C11 C 0.551(2) 0.329(3) 0.536(2)
H8 H 0.5253 0.2953 0.4476
H9 H 0.5271 0.4130 0.5792
H10 H 0.4930 0.2758 0.5588
C12 C 0.8367(11) 0.2190(9) 0.9267(7)
C13 C 0.9538(11) 0.1544(7) 0.9006(7)
C14 C 1.1096(11) 0.2092(9) 0.9073(8)
C15 C 1.1859(11) 0.1429(8) 0.8011(8)
C16 C 1.1037(11) 0.0579(8) 0.6865(8)
H11 H 0.9987 0.0369 0.6772
C17 C 1.1700(13) 0.0036(9) 0.5866(9)
H12 H 1.1133 -0.0546 0.5079
C18 C 1.3258(14) 0.0371(10) 0.6048(10)
H13 H 1.3757 0.0019 0.5370
C19 C 1.4053(12) 0.1193(10) 0.7180(10)
H14 H 1.5107 0.1386 0.7282
C20 C 1.3389(12) 0.1749(9) 0.8175(9)
H15 H 1.3959 0.2339 0.8958
C21 C 0.8929(11) 0.0289(8) 0.8668(7)
C22 C 0.9634(14) -0.0784(9) 0.8445(8)
C23 C 0.7082(11) -0.1862(9) 0.8203(8)
C24 C 0.6416(11) -0.0806(8) 0.8475(8)
C25 C 0.7453(11) 0.0270(9) 0.8728(7)
C26 C 0.4862(12) -0.0910(9) 0.8460(8)
H16 H 0.4365 -0.0221 0.8635
C27 C 0.4076(12) -0.2051(10) 0.8181(9)
H17 H 0.3026 -0.2133 0.8150
C28 C 0.4755(13) -0.3055(10) 0.7951(10)
H18 H 0.4179 -0.3807 0.7786
C29 C 0.6264(14) -0.2982(9) 0.7957(9)
H19 H 0.6741 -0.3678 0.7797
O1 O 0.7830(8) 0.2063(6) 0.6965(6)
O2 O 0.7297(10) 0.3809(7) 0.7049(6)
O3 O 0.7064(7) 0.1417(5) 0.9093(5)
O4 O 1.1672(7) 0.3095(6) 0.9965(6)
O5 O 1.0930(9) -0.0866(6) 0.8458(6)
O6 O 0.8618(8) -0.1828(5) 0.8193(5)
Br1 Br 0.88449(19) 0.69006(12) 1.52484(10)
C30? C 0.657(4) 0.298(2) 0.570(2)
H20? H 0.5599 0.2498 0.5600
H21? H 0.7235 0.2411 0.5229
C31? C 0.638(4) 0.401(3) 0.532(3)
H22? H 0.5902 0.3609 0.4452
H23? H 0.7362 0.4480 0.5440
H24? H 0.5752 0.4579 0.5825
loop_
_geom_bond_atom_site_label_1
_geom_bond_atom_site_label_2
_geom_bond_site_symmetry_1
_geom_bond_site_symmetry_2
C1 C2 1_555 1_555
C2 H1 1_555 1_555
C3 C2 1_555 1_555
H2 C3 1_555 1_555
C4 C3 1_555 1_555
C5 C4 1_555 1_555
H3 C5 1_555 1_555
C6 C1 1_555 1_555
H4 C6 1_555 1_555
C7 C4 1_555 1_555
C8 C7 1_555 1_555
H5 C8 1_555 1_555
C9 C8 1_555 1_555
C10 H6 1_555 1_555
H7 C10 1_555 1_555
C11 C10 1_555 1_555
H8 C11 1_555 1_555
H9 C11 1_555 1_555
H10 C11 1_555 1_555
C12 C7 1_555 1_555
C13 C12 1_555 1_555
C14 C13 1_555 1_555
C15 C14 1_555 1_555
C16 C15 1_555 1_555
H11 C16 1_555 1_555
C17 C16 1_555 1_555
H12 C17 1_555 1_555
C18 C17 1_555 1_555
H13 C18 1_555 1_555
C19 C18 1_555 1_555
H14 C19 1_555 1_555
C20 C15 1_555 1_555
H15 C20 1_555 1_555
C21 C13 1_555 1_555
C22 C21 1_555 1_555
C23 C24 1_555 1_555
C24 C25 1_555 1_555
C25 C21 1_555 1_555
C26 C24 1_555 1_555
H16 C26 1_555 1_555
C27 C26 1_555 1_555
H17 C27 1_555 1_555
C28 C27 1_555 1_555
H18 C28 1_555 1_555
C29 C23 1_555 1_555
H19 C29 1_555 1_555
O1 C9 1_555 1_555
O2 C9 1_555 1_555
O3 C12 1_555 1_555
O4 C14 1_555 1_555
O5 C22 1_555 1_555
O6 C22 1_555 1_555
Br1 C1 1_555 1_555
C5 C6 1_555 1_555
C10 O2 1_555 1_555
C19 C20 1_555 1_555
C23 O6 1_555 1_555
C25 O3 1_555 1_555
C28 C29 1_555 1_555

#END
