
#######################################################################
#
#                 Cambridge Crystallographic Data Centre
#                                CCDC 
#
#######################################################################
#
# If this CIF has been generated from an entry in the Cambridge 
# Structural Database, then it will include bibliographic, chemical, 
# crystal, experimental, refinement or atomic coordinate data resulting 
# from the CCDC's data processing and validation procedures.
#
#######################################################################

data_MUJZIC
_chemical_formula_moiety         'C31 H21 N1 O4'
_chemical_name_systematic        
'5-((1,3-dioxo-1,3-dihydro-2H-inden-2-ylidene)(phenyl)methyl)-4-isobutyryl-2-phenyl-3-furonitrile unknown solvate'
_symmetry_cell_setting           rhombohedral
_symmetry_space_group_name_H-M   'R -3'
_symmetry_Int_Tables_number      148
_space_group_name_Hall           '-R 3'
loop_
_symmetry_equiv_pos_site_id
_symmetry_equiv_pos_as_xyz
1 x,y,z
2 -y,x-y,z
3 -x+y,-x,z
4 2/3+x,1/3+y,1/3+z
5 2/3-y,1/3+x-y,1/3+z
6 2/3-x+y,1/3-x,1/3+z
7 1/3+x,2/3+y,2/3+z
8 1/3-y,2/3+x-y,2/3+z
9 1/3-x+y,2/3-x,2/3+z
10 -x,-y,-z
11 y,-x+y,-z
12 x-y,x,-z
13 1/3-x,2/3-y,2/3-z
14 1/3+y,2/3-x+y,2/3-z
15 1/3+x-y,2/3+x,2/3-z
16 2/3-x,1/3-y,1/3-z
17 2/3+y,1/3-x+y,1/3-z
18 2/3+x-y,1/3+x,1/3-z
_cell_length_a                   43.512(4)
_cell_length_b                   43.512(4)
_cell_length_c                   6.6228(7)
_cell_angle_alpha                90
_cell_angle_beta                 90
_cell_angle_gamma                120
_cell_volume                     10859
_exptl_crystal_colour            yellow
_exptl_crystal_description       prism
_cell_formula_units_Z            18
loop_
_atom_site_label
_atom_site_type_symbol
_atom_site_fract_x
_atom_site_fract_y
_atom_site_fract_z
C1 C 0.54201(11) 0.05934(12) 0.2411(5)
C2 C 0.50717(10) 0.02583(10) 0.2453(5)
C3 C 0.47344(11) 0.02146(11) 0.2453(5)
H1 H 0.4698 0.0413 0.2443
C4 C 0.44507(11) -0.01309(12) 0.2470(5)
H2 H 0.4216 -0.0170 0.2483
C5 C 0.45030(11) -0.04211(12) 0.2469(5)
H3 H 0.4304 -0.0654 0.2461
C6 C 0.48397(11) -0.03749(11) 0.2478(5)
H4 H 0.4876 -0.0573 0.2472
C7 C 0.51255(10) -0.00301(10) 0.2495(5)
C8 C 0.55139(11) 0.00956(11) 0.2539(5)
C9 C 0.56996(10) 0.04929(10) 0.2581(5)
C10 C 0.60500(10) 0.07214(10) 0.2826(5)
C11 C 0.63348(10) 0.06281(10) 0.2884(6)
C12 C 0.63984(12) 0.04663(11) 0.1263(6)
H5 H 0.6244 0.0391 0.0129
C13 C 0.66882(13) 0.04154(12) 0.1307(8)
H6 H 0.6738 0.0313 0.0175
C14 C 0.69040(12) 0.05118(12) 0.2976(9)
H7 H 0.7099 0.0472 0.3002
C15 C 0.68395(12) 0.06645(12) 0.4597(8)
H8 H 0.6986 0.0725 0.5762
C16 C 0.65594(11) 0.07313(10) 0.4543(6)
H9 H 0.6521 0.0848 0.5644
C17 C 0.61873(10) 0.11058(11) 0.3103(5)
C18 C 0.64353(10) 0.13904(11) 0.2089(5)
C19 C 0.65943(11) 0.13614(11) 0.0160(6)
C20 C 0.69686(10) 0.16426(11) -0.0353(5)
H10 H 0.6979 0.1877 -0.0394
C21 C 0.70859(11) 0.15782(12) -0.2410(6)
H11 H 0.7328 0.1768 -0.2693
H12 H 0.6926 0.1576 -0.3459
H13 H 0.7079 0.1349 -0.2395
C22 C 0.72206(11) 0.16554(14) 0.1325(6)
H14 H 0.7464 0.1841 0.1012
H15 H 0.7210 0.1425 0.1408
H16 H 0.7148 0.1708 0.2621
C23 C 0.64922(10) 0.16912(11) 0.3235(6)
C24 C 0.67383(12) 0.20546(13) 0.2788(6)
C25 C 0.62712(10) 0.15744(10) 0.4862(6)
C26 C 0.62077(11) 0.17420(11) 0.6606(6)
C27 C 0.63993(13) 0.21067(13) 0.6847(7)
H17 H 0.6568 0.2249 0.5854
C28 C 0.63475(14) 0.22637(14) 0.8504(8)
H18 H 0.6482 0.2514 0.8655
C29 C 0.61039(12) 0.20623(14) 0.9944(7)
H19 H 0.6071 0.2172 1.1096
C30 C 0.59108(12) 0.17059(13) 0.9720(6)
H20 H 0.5740 0.1567 1.0714
C31 C 0.59587(11) 0.15404(11) 0.8071(6)
H21 H 0.5822 0.1290 0.7937
N1 N 0.69438(12) 0.23440(11) 0.2418(5)
O1 O 0.54639(7) 0.08925(8) 0.2198(4)
O2 O 0.56441(7) -0.00964(7) 0.2548(4)
O3 O 0.60824(7) 0.12093(7) 0.4800(4)
O4 O 0.64199(7) 0.11014(8) -0.0919(4)
loop_
_geom_bond_atom_site_label_1
_geom_bond_atom_site_label_2
_geom_bond_site_symmetry_1
_geom_bond_site_symmetry_2
C1 C2 1_555 1_555
C2 C3 1_555 1_555
C3 H1 1_555 1_555
C4 C3 1_555 1_555
H2 C4 1_555 1_555
C5 C4 1_555 1_555
H3 C5 1_555 1_555
C6 C5 1_555 1_555
H4 C6 1_555 1_555
C7 C2 1_555 1_555
C8 C7 1_555 1_555
C9 C1 1_555 1_555
C10 C9 1_555 1_555
C11 C10 1_555 1_555
C12 C11 1_555 1_555
H5 C12 1_555 1_555
C13 C12 1_555 1_555
H6 C13 1_555 1_555
C14 C13 1_555 1_555
H7 C14 1_555 1_555
C15 C14 1_555 1_555
H8 C15 1_555 1_555
C16 C11 1_555 1_555
H9 C16 1_555 1_555
C17 C10 1_555 1_555
C18 C17 1_555 1_555
C19 C18 1_555 1_555
C20 C19 1_555 1_555
H10 C20 1_555 1_555
C21 C20 1_555 1_555
H11 C21 1_555 1_555
H12 C21 1_555 1_555
H13 C21 1_555 1_555
C22 C20 1_555 1_555
H14 C22 1_555 1_555
H15 C22 1_555 1_555
H16 C22 1_555 1_555
C23 C18 1_555 1_555
C24 C23 1_555 1_555
C25 C23 1_555 1_555
C26 C25 1_555 1_555
C27 C26 1_555 1_555
H17 C27 1_555 1_555
C28 C27 1_555 1_555
H18 C28 1_555 1_555
C29 C28 1_555 1_555
H19 C29 1_555 1_555
C30 C29 1_555 1_555
H20 C30 1_555 1_555
C31 C26 1_555 1_555
H21 C31 1_555 1_555
N1 C24 1_555 1_555
O1 C1 1_555 1_555
O2 C8 1_555 1_555
O3 C17 1_555 1_555
O4 C19 1_555 1_555
C6 C7 1_555 1_555
C8 C9 1_555 1_555
C15 C16 1_555 1_555
C25 O3 1_555 1_555
C30 C31 1_555 1_555

#END
