
#######################################################################
#
#                 Cambridge Crystallographic Data Centre
#                                CCDC 
#
#######################################################################
#
# If this CIF has been generated from an entry in the Cambridge 
# Structural Database, then it will include bibliographic, chemical, 
# crystal, experimental, refinement or atomic coordinate data resulting 
# from the CCDC's data processing and validation procedures.
#
#######################################################################

data_MUKCOM
_chemical_formula_moiety         'C25 H16 O4'
_chemical_name_systematic        
3-benzoyl-2-benzyl-4H-furo[3,2-c]chromen-4-one
_symmetry_cell_setting           monoclinic
_symmetry_space_group_name_H-M   'P 21/n'
_symmetry_Int_Tables_number      14
_space_group_name_Hall           '-P 2yn'
loop_
_symmetry_equiv_pos_site_id
_symmetry_equiv_pos_as_xyz
1 x,y,z
2 1/2-x,1/2+y,1/2-z
3 -x,-y,-z
4 1/2+x,1/2-y,1/2+z
_cell_length_a                   15.4020(4)
_cell_length_b                   5.8000(2)
_cell_length_c                   21.7400(7)
_cell_angle_alpha                90
_cell_angle_beta                 108.1220(10)
_cell_angle_gamma                90
_cell_volume                     1845.74
_exptl_crystal_colour            colorless
_exptl_crystal_description       prism
_cell_formula_units_Z            4
loop_
_atom_site_label
_atom_site_type_symbol
_atom_site_fract_x
_atom_site_fract_y
_atom_site_fract_z
C1 C 0.63931(18) 0.2957(4) 0.88717(11)
C2 C 0.68723(16) 0.1056(4) 0.92501(10)
C3 C 0.63972(17) -0.0617(4) 0.94455(10)
C4 C 0.54360(16) -0.0766(4) 0.92668(10)
C5 C 0.49760(18) 0.1045(4) 0.88793(11)
C6 C 0.40359(19) 0.1188(5) 0.86871(12)
H1 H 0.3737 0.2416 0.8434
C7 C 0.35448(19) -0.0506(5) 0.88743(13)
H2 H 0.2911 -0.0416 0.8748
C8 C 0.3989(2) -0.2347(5) 0.92499(13)
H3 H 0.3652 -0.3495 0.9369
C9 C 0.49307(18) -0.2476(4) 0.94461(12)
H4 H 0.5227 -0.3709 0.9699
C10 C 0.78557(16) -0.1302(4) 0.99398(10)
C11 C 0.86065(17) -0.2655(4) 1.03853(11)
H5 H 0.9182 -0.2189 1.0329
H6 H 0.8515 -0.4277 1.0275
C12 C 0.86581(16) -0.2330(4) 1.10885(11)
C13 C 0.83204(18) -0.3979(4) 1.14120(13)
H7 H 0.8053 -0.5307 1.1195
C14 C 0.8374(2) -0.3689(5) 1.20539(14)
H8 H 0.8135 -0.4804 1.2263
C15 C 0.8780(2) -0.1758(5) 1.23817(14)
H9 H 0.8827 -0.1571 1.2816
C16 C 0.9117(2) -0.0096(4) 1.20654(13)
H10 H 0.9387 0.1225 1.2286
C17 C 0.90568(18) -0.0377(4) 1.14260(12)
H11 H 0.9287 0.0758 1.1217
C18 C 0.78265(17) 0.0612(4) 0.95701(10)
C19 C 0.86462(18) 0.1830(4) 0.95137(12)
C20 C 0.86803(16) 0.2436(4) 0.88619(11)
C21 C 0.82769(17) 0.1019(4) 0.83364(11)
H12 H 0.7944 -0.0262 0.8389
C22 C 0.83654(19) 0.1490(5) 0.77393(13)
H13 H 0.8115 0.0495 0.7394
C23 C 0.8823(2) 0.3429(5) 0.76543(14)
H14 H 0.8879 0.3752 0.7249
C24 C 0.9199(2) 0.4900(5) 0.81633(15)
H15 H 0.9495 0.6234 0.8099
C25 C 0.91404(18) 0.4407(4) 0.87684(13)
H16 H 0.9407 0.5387 0.9114
O1 O 0.67077(13) 0.4662(3) 0.87055(8)
O2 O 0.54404(12) 0.2800(3) 0.86839(8)
O3 O 0.69791(11) -0.2093(2) 0.98650(7)
O4 O 0.92828(12) 0.2274(3) 1.00003(8)
loop_
_geom_bond_atom_site_label_1
_geom_bond_atom_site_label_2
_geom_bond_site_symmetry_1
_geom_bond_site_symmetry_2
C1 C2 1_555 1_555
C2 C3 1_555 1_555
C3 C4 1_555 1_555
C4 C5 1_555 1_555
C5 C6 1_555 1_555
C6 H1 1_555 1_555
C7 C6 1_555 1_555
H2 C7 1_555 1_555
C8 C7 1_555 1_555
H3 C8 1_555 1_555
C9 C4 1_555 1_555
H4 C9 1_555 1_555
C10 C11 1_555 1_555
C11 H5 1_555 1_555
H6 C11 1_555 1_555
C12 C11 1_555 1_555
C13 C12 1_555 1_555
H7 C13 1_555 1_555
C14 C13 1_555 1_555
H8 C14 1_555 1_555
C15 C14 1_555 1_555
H9 C15 1_555 1_555
C16 C15 1_555 1_555
H10 C16 1_555 1_555
C17 C12 1_555 1_555
H11 C17 1_555 1_555
C18 C2 1_555 1_555
C19 C18 1_555 1_555
C20 C19 1_555 1_555
C21 C20 1_555 1_555
H12 C21 1_555 1_555
C22 C21 1_555 1_555
H13 C22 1_555 1_555
C23 C22 1_555 1_555
H14 C23 1_555 1_555
C24 C23 1_555 1_555
H15 C24 1_555 1_555
C25 C20 1_555 1_555
H16 C25 1_555 1_555
O1 C1 1_555 1_555
O2 C1 1_555 1_555
O3 C3 1_555 1_555
O4 C19 1_555 1_555
C5 O2 1_555 1_555
C8 C9 1_555 1_555
C10 C18 1_555 1_555
C10 O3 1_555 1_555
C16 C17 1_555 1_555
C24 C25 1_555 1_555

#END
