
#######################################################################
#
#                 Cambridge Crystallographic Data Centre
#                                CCDC 
#
#######################################################################
#
# If this CIF has been generated from an entry in the Cambridge 
# Structural Database, then it will include bibliographic, chemical, 
# crystal, experimental, refinement or atomic coordinate data resulting 
# from the CCDC's data processing and validation procedures.
#
#######################################################################

data_MUKDAZ
_chemical_name_common            
'(1S,3R)-3-amino-1-(4-fluorophenyl)butane-1,4-diol chloride'
_chemical_formula_moiety         'C10 H15 F1 N1 O2 1+,Cl1 1-'
_chemical_name_systematic        
'4-(4-fluorophenyl)-1,4-dihydroxybutan-2-aminium chloride'
_symmetry_cell_setting           orthorhombic
_symmetry_space_group_name_H-M   'P 21 21 21'
_symmetry_Int_Tables_number      19
_space_group_name_Hall           'P 2ac 2ab'
loop_
_symmetry_equiv_pos_site_id
_symmetry_equiv_pos_as_xyz
1 x,y,z
2 1/2-x,-y,1/2+z
3 -x,1/2+y,1/2-z
4 1/2+x,1/2-y,-z
_cell_length_a                   5.3179(4)
_cell_length_b                   8.8961(7)
_cell_length_c                   23.0991(18)
_cell_angle_alpha                90
_cell_angle_beta                 90
_cell_angle_gamma                90
_cell_volume                     1092.79
_exptl_crystal_colour            colorless
_cell_formula_units_Z            4
loop_
_atom_site_label
_atom_site_type_symbol
_atom_site_fract_x
_atom_site_fract_y
_atom_site_fract_z
H1 H 0.027(9) 1.021(5) 0.2304(18)
H2 H -0.163(10) 1.138(6) 0.227(2)
H3 H -0.236(10) 0.984(5) 0.227(2)
F1 F 0.3772(5) 0.3465(3) -0.00503(10)
O1 O -0.1498(6) 0.7440(3) 0.18669(11)
O2 O 0.3183(5) 1.1751(3) 0.15736(12)
N1 N -0.1231(7) 1.0544(4) 0.21437(13)
C1 C 0.2202(7) 0.5971(4) 0.11205(15)
H4 H 0.2819 0.6248 0.1491
C2 C -0.1313(8) 0.7832(4) 0.12672(15)
H5 H -0.3030 0.8011 0.1105
C3 C 0.3502(8) 0.4919(4) 0.07972(16)
H6 H 0.5011 0.4477 0.0937
C4 C 0.0220(7) 0.9279(4) 0.12397(16)
H7 H 0.1841 0.9097 0.1438
H8 H 0.0605 0.9487 0.0828
C5 C 0.0025(7) 0.6627(4) 0.09148(16)
C6 C -0.0949(7) 1.0693(4) 0.14991(14)
H9 H -0.2642 1.0859 0.1322
C7 C 0.0717(7) 1.2055(4) 0.13753(16)
H10 H 0.0743 1.2263 0.0954
H11 H 0.0039 1.2952 0.1576
C8 C -0.0907(8) 0.6218(4) 0.03682(15)
H12 H -0.2400 0.6665 0.0222
C9 C 0.2532(8) 0.4532(4) 0.02640(17)
C10 C 0.0383(8) 0.5149(4) 0.00428(17)
H13 H -0.0221 0.4852 -0.0327
H14 H -0.245(9) 0.672(6) 0.191(2)
H15 H 0.379(10) 1.257(5) 0.1750(19)
Cl1 Cl 0.62449(18) 0.41890(10) 0.22410(4)
loop_
_geom_bond_atom_site_label_1
_geom_bond_atom_site_label_2
_geom_bond_site_symmetry_1
_geom_bond_site_symmetry_2
H1 N1 1_555 1_555
H2 N1 1_555 1_555
H3 N1 1_555 1_555
F1 C9 1_555 1_555
O1 C2 1_555 1_555
O2 C7 1_555 1_555
N1 C6 1_555 1_555
C1 H4 1_555 1_555
C2 H5 1_555 1_555
C3 C1 1_555 1_555
H6 C3 1_555 1_555
C4 C2 1_555 1_555
H7 C4 1_555 1_555
H8 C4 1_555 1_555
C5 C1 1_555 1_555
C6 C4 1_555 1_555
H9 C6 1_555 1_555
C7 C6 1_555 1_555
H10 C7 1_555 1_555
H11 C7 1_555 1_555
C8 C5 1_555 1_555
H12 C8 1_555 1_555
C9 C3 1_555 1_555
C10 C8 1_555 1_555
H13 C10 1_555 1_555
H14 O1 1_555 1_555
H15 O2 1_555 1_555
C2 C5 1_555 1_555
C9 C10 1_555 1_555

#END
