
#######################################################################
#
#                 Cambridge Crystallographic Data Centre
#                                CCDC 
#
#######################################################################
#
# If this CIF has been generated from an entry in the Cambridge 
# Structural Database, then it will include bibliographic, chemical, 
# crystal, experimental, refinement or atomic coordinate data resulting 
# from the CCDC's data processing and validation procedures.
#
#######################################################################

data_MUKGEG
_chemical_formula_moiety         'C36 H24 N2 S2'
_chemical_name_systematic        
2,2'-(1,4-phenylenediethene-2,1-diyl)bis(6-(2-thienyl)quinoline)
_symmetry_cell_setting           monoclinic
_symmetry_space_group_name_H-M   'P 21'
_symmetry_Int_Tables_number      4
_space_group_name_Hall           'P 2yb'
loop_
_symmetry_equiv_pos_site_id
_symmetry_equiv_pos_as_xyz
1 x,y,z
2 -x,1/2+y,-z
_cell_length_a                   10.5974(4)
_cell_length_b                   7.5438(3)
_cell_length_c                   17.0328(7)
_cell_angle_alpha                90
_cell_angle_beta                 106.225(4)
_cell_angle_gamma                90
_cell_volume                     1307.45
_exptl_crystal_colour            red
_exptl_crystal_description       needle
_cell_formula_units_Z            2
loop_
_atom_site_label
_atom_site_type_symbol
_atom_site_fract_x
_atom_site_fract_y
_atom_site_fract_z
S1 S -0.24360(4) 0.75964(6) 0.59718(2)
S2 S 2.18418(4) 0.64264(7) 1.21507(2)
N1 N 0.41127(11) 0.64740(17) 0.66539(6)
C1 C -0.21966(15) 0.5874(2) 0.47260(9)
H1 H -0.1847 0.5288 0.4354
C2 C 2.15437(14) 0.7761(2) 1.34653(8)
H2 H 2.1176 0.8173 1.3867
N2 N 1.52758(11) 0.73543(16) 1.14321(7)
C3 C 0.19868(13) 0.73606(18) 0.68357(7)
C4 C 1.74215(13) 0.66382(19) 1.12398(7)
C5 C 0.46881(13) 0.7066(2) 0.74064(8)
C6 C 2.08165(13) 0.71007(19) 1.27120(8)
C7 C 1.10912(12) 0.68113(18) 0.93544(7)
C8 C 1.87970(12) 0.65644(19) 1.15763(8)
H3 H 1.9318 0.6162 1.1255
C9 C 1.66139(13) 0.72458(19) 1.17225(8)
C10 C 0.90712(13) 0.6229(2) 0.82827(7)
H4 H 0.8653 0.5708 0.7783
C11 C 0.90024(13) 0.7913(2) 0.94663(8)
H5 H 0.8530 0.8528 0.9764
C12 C -0.00043(12) 0.67405(19) 0.57500(7)
C13 C 0.83304(13) 0.71676(19) 0.87069(8)
C14 C 0.27723(13) 0.6616(2) 0.63700(7)
C15 C 1.54533(13) 0.6193(2) 1.01531(8)
H6 H 1.5026 0.5836 0.9623
C16 C 1.93858(13) 0.70780(19) 1.23733(8)
C17 C 1.25097(13) 0.6553(2) 0.96526(8)
H7 H 1.2918 0.6012 0.9298
C18 C 1.85589(13) 0.7656(2) 1.28569(8)
H8 H 1.8936 0.7983 1.3398
C19 C 0.26450(13) 0.7984(2) 0.76263(8)
H9 H 0.2169 0.8489 0.7953
C20 C 1.47146(13) 0.68352(19) 1.06677(8)
C21 C 1.04077(13) 0.60679(18) 0.85948(8)
H10 H 1.0877 0.5450 0.8296
C22 C 1.67836(13) 0.60945(19) 1.04292(8)
H11 H 1.7270 0.5676 1.0091
C23 C -0.14452(12) 0.6707(2) 0.54351(7)
C24 C 1.03486(12) 0.7752(2) 0.97799(7)
H12 H 1.0767 0.8274 1.0279
C25 C 1.32812(13) 0.7025(2) 1.03930(8)
H13 H 1.2872 0.7511 1.0760
C26 C 0.39709(13) 0.7847(2) 0.79090(8)
H14 H 0.4408 0.8262 0.8428
C27 C 0.61248(13) 0.6800(2) 0.76952(8)
H15 H 0.6521 0.6171 0.7359
C28 C 0.21271(14) 0.5962(2) 0.55798(8)
H16 H 0.2623 0.5484 0.5259
C29 C 0.06047(13) 0.74104(18) 0.65147(8)
H17 H 0.0098 0.7904 0.6825
C30 C 2.29192(16) 0.7732(3) 1.35489(10)
H18 H 2.3545 0.8138 1.4012
C31 C 0.07930(13) 0.6022(2) 0.52806(8)
H19 H 0.0396 0.5584 0.4760
C32 C 1.72293(13) 0.7739(2) 1.25404(8)
H20 H 1.6716 0.8127 1.2869
C33 C 2.32304(16) 0.7054(3) 1.28864(11)
H21 H 2.4081 0.6945 1.2840
C34 C 0.68990(14) 0.7403(2) 0.84096(8)
H22 H 0.6495 0.8023 0.8745
C35 C -0.35571(17) 0.6035(3) 0.46448(11)
H23 H -0.4199 0.5578 0.4202
C36 C -0.38459(16) 0.6912(3) 0.52685(10)
H24 H -0.4692 0.7114 0.5308
C37? C -0.2292(6) 0.7421(18) 0.5846(5)
H25? H -0.2038 0.7956 0.6358
S3? S -0.2250(3) 0.5821(5) 0.45919(17)
C38? C -0.3611(7) 0.7198(10) 0.5354(4)
H26? H -0.4320 0.7630 0.5517
C39? C -0.3781(6) 0.6326(11) 0.4636(4)
H27? H -0.4572 0.6062 0.4251
S4? S 2.1637(3) 0.7903(5) 1.35629(17)
C40? C 2.1662(6) 0.6328(12) 1.2319(5)
H28? H 2.1401 0.5730 1.1822
C41? C 2.2985(7) 0.6585(11) 1.2789(4)
H29? H 2.3687 0.6178 1.2612
C42? C 2.3173(6) 0.7456(12) 1.3512(4)
H30? H 2.3965 0.7740 1.3891
loop_
_geom_bond_atom_site_label_1
_geom_bond_atom_site_label_2
_geom_bond_site_symmetry_1
_geom_bond_site_symmetry_2
S1 C23 1_555 1_555
S2 C6 1_555 1_555
N1 C5 1_555 1_555
C1 H1 1_555 1_555
C2 H2 1_555 1_555
N2 C9 1_555 1_555
C3 C14 1_555 1_555
C4 C8 1_555 1_555
C5 C26 1_555 1_555
C6 C2 1_555 1_555
C7 C17 1_555 1_555
C8 H3 1_555 1_555
C9 C4 1_555 1_555
C10 H4 1_555 1_555
C11 H5 1_555 1_555
C12 C23 1_555 1_555
C13 C10 1_555 1_555
C14 N1 1_555 1_555
C15 H6 1_555 1_555
C16 C6 1_555 1_555
C17 H7 1_555 1_555
C18 C16 1_555 1_555
H8 C18 1_555 1_555
C19 C3 1_555 1_555
H9 C19 1_555 1_555
C20 N2 1_555 1_555
C21 C7 1_555 1_555
H10 C21 1_555 1_555
C22 C4 1_555 1_555
H11 C22 1_555 1_555
C23 C1 1_555 1_555
C24 C7 1_555 1_555
H12 C24 1_555 1_555
C25 C17 1_555 1_555
H13 C25 1_555 1_555
C26 C19 1_555 1_555
H14 C26 1_555 1_555
C27 C5 1_555 1_555
H15 C27 1_555 1_555
C28 C14 1_555 1_555
H16 C28 1_555 1_555
C29 C3 1_555 1_555
H17 C29 1_555 1_555
C30 C2 1_555 1_555
H18 C30 1_555 1_555
C31 C12 1_555 1_555
H19 C31 1_555 1_555
C32 C9 1_555 1_555
H20 C32 1_555 1_555
C33 S2 1_555 1_555
H21 C33 1_555 1_555
C34 C13 1_555 1_555
H22 C34 1_555 1_555
C35 C1 1_555 1_555
H23 C35 1_555 1_555
C36 S1 1_555 1_555
H24 C36 1_555 1_555
C8 C16 1_555 1_555
C10 C21 1_555 1_555
C11 C13 1_555 1_555
C11 C24 1_555 1_555
C12 C29 1_555 1_555
C15 C20 1_555 1_555
C15 C22 1_555 1_555
C18 C32 1_555 1_555
C20 C25 1_555 1_555
C27 C34 1_555 1_555
C28 C31 1_555 1_555
C30 C33 1_555 1_555
C35 C36 1_555 1_555

#END
