
#######################################################################
#
#                 Cambridge Crystallographic Data Centre
#                                CCDC 
#
#######################################################################
#
# If this CIF has been generated from an entry in the Cambridge 
# Structural Database, then it will include bibliographic, chemical, 
# crystal, experimental, refinement or atomic coordinate data resulting 
# from the CCDC's data processing and validation procedures.
#
#######################################################################

data_MUKMAH
_chemical_formula_moiety         'C18 H10 Br1 Cl1 N2'
_chemical_name_systematic        
2-((E)-3-(2-chlorophenyl)-1-(4-bromophenyl)allylidene)malononitrile
_symmetry_cell_setting           orthorhombic
_symmetry_space_group_name_H-M   'P n m a'
_symmetry_Int_Tables_number      62
_space_group_name_Hall           '-P 2ac 2n'
loop_
_symmetry_equiv_pos_site_id
_symmetry_equiv_pos_as_xyz
1 x,y,z
2 1/2-x,-y,1/2+z
3 -x,1/2+y,-z
4 1/2+x,1/2-y,1/2-z
5 -x,-y,-z
6 1/2+x,y,1/2-z
7 x,1/2-y,z
8 1/2-x,1/2+y,1/2+z
_cell_length_a                   20.900(4)
_cell_length_b                   7.0710(11)
_cell_length_c                   10.9170(18)
_cell_angle_alpha                90
_cell_angle_beta                 90
_cell_angle_gamma                90
_cell_volume                     1613.36
_exptl_crystal_colour            yellow
_exptl_crystal_description       block
_chemical_melting_point          '461-463 K'
_cell_formula_units_Z            4
loop_
_atom_site_label
_atom_site_type_symbol
_atom_site_fract_x
_atom_site_fract_y
_atom_site_fract_z
Br1 Br 0.63144(4) 0.2500 0.46526(8)
Cl1 Cl 0.32963(8) 0.2500 0.65344(14)
N1 N 0.2691(3) 0.2500 -0.0554(5)
N2 N 0.4748(3) 0.2500 -0.0731(5)
C1 C 0.2566(3) 0.2500 0.5769(5)
C2 C 0.2019(3) 0.2500 0.6476(5)
H1 H 0.2050 0.2500 0.7326
C3 C 0.1434(3) 0.2500 0.5922(6)
H2 H 0.1062 0.2500 0.6391
C4 C 0.1398(3) 0.2500 0.4655(6)
H3 H 0.1001 0.2500 0.4271
C5 C 0.1946(3) 0.2500 0.3964(6)
H4 H 0.1913 0.2500 0.3115
C6 C 0.2550(3) 0.2500 0.4497(5)
C7 C 0.3133(3) 0.2500 0.3771(5)
H5 H 0.3517 0.2500 0.4202
C8 C 0.3175(3) 0.2500 0.2559(5)
H6 H 0.2795 0.2500 0.2116
C9 C 0.3757(3) 0.2500 0.1882(5)
C10 C 0.3748(3) 0.2500 0.0641(5)
C11 C 0.3160(3) 0.2500 -0.0034(5)
C12 C 0.4316(3) 0.2500 -0.0110(6)
C13 C 0.4385(3) 0.2500 0.2530(5)
C14 C 0.4788(4) 0.1081(15) 0.2476(8)
H7 H 0.4685 0.0040 0.1995
C15 C 0.5363(5) 0.1075(17) 0.3109(8)
H8 H 0.5635 0.0038 0.3046
C16 C 0.5527(3) 0.2500 0.3790(6)
C14F C 0.4788(4) 0.3919(15) 0.2476(8)
H7F H 0.4685 0.4960 0.1995
C15F C 0.5363(5) 0.3925(17) 0.3109(8)
H8F H 0.5635 0.4962 0.3046
C17? C 0.4568(5) 0.0855(15) 0.3206(8)
C18? C 0.5143(5) 0.0858(16) 0.3838(8)
H9? H 0.4304 -0.0204 0.3221
H10? H 0.5273 -0.0196 0.4284
loop_
_geom_bond_atom_site_label_1
_geom_bond_atom_site_label_2
_geom_bond_site_symmetry_1
_geom_bond_site_symmetry_2
Br1 C16 1_555 1_555
Cl1 C1 1_555 1_555
N1 C11 1_555 1_555
N2 C12 1_555 1_555
C1 C2 1_555 1_555
C2 H1 1_555 1_555
C3 C2 1_555 1_555
H2 C3 1_555 1_555
C4 C3 1_555 1_555
H3 C4 1_555 1_555
C5 C4 1_555 1_555
H4 C5 1_555 1_555
C6 C1 1_555 1_555
C7 C6 1_555 1_555
H5 C7 1_555 1_555
C8 C7 1_555 1_555
H6 C8 1_555 1_555
C9 C8 1_555 1_555
C10 C9 1_555 1_555
C11 C10 1_555 1_555
C12 C10 1_555 1_555
C13 C9 1_555 1_555
C14 C13 1_555 1_555
H7 C14 1_555 1_555
C15 C14 1_555 1_555
H8 C15 1_555 1_555
C16 C15 1_555 1_555
C14F C13 1_555 1_555
H7F C14F 1_555 1_555
C15F C16 1_555 1_555
H8F C15F 1_555 1_555
C5 C6 1_555 1_555
C14F C15F 1_555 1_555

#END
