
#######################################################################
#
#                 Cambridge Crystallographic Data Centre
#                                CCDC 
#
#######################################################################
#
# If this CIF has been generated from an entry in the Cambridge 
# Structural Database, then it will include bibliographic, chemical, 
# crystal, experimental, refinement or atomic coordinate data resulting 
# from the CCDC's data processing and validation procedures.
#
#######################################################################

data_MUKNEN
_chemical_formula_moiety         'C31 H25 O2 P1'
_chemical_name_systematic        
'methyl 3-phenyl-5-(triphenylphosphoranylidene)cyclopenta-1,3-diene-1-carboxylate'
_symmetry_cell_setting           monoclinic
_symmetry_space_group_name_H-M   'P 21/c'
_symmetry_Int_Tables_number      14
_space_group_name_Hall           '-P 2ybc'
loop_
_symmetry_equiv_pos_site_id
_symmetry_equiv_pos_as_xyz
1 x,y,z
2 -x,1/2+y,1/2-z
3 -x,-y,-z
4 x,1/2-y,1/2+z
_cell_length_a                   18.7135(8)
_cell_length_b                   9.4971(4)
_cell_length_c                   26.9870(10)
_cell_angle_alpha                90
_cell_angle_beta                 94.841(3)
_cell_angle_gamma                90
_cell_volume                     4779.13
_exptl_crystal_description       block
_cell_formula_units_Z            8
loop_
_atom_site_label
_atom_site_type_symbol
_atom_site_fract_x
_atom_site_fract_y
_atom_site_fract_z
P1 P 0.07182(13) 0.8735(3) 0.13576(8)
C1 C -0.0097(5) 0.7879(9) 0.1250(3)
C2 C -0.0226(5) 0.6563(10) 0.1001(3)
C3 C -0.0977(5) 0.6350(10) 0.0961(3)
H1 H -0.1214 0.5579 0.0812
C4 C -0.1303(5) 0.7480(10) 0.1180(3)
C5 C -0.0780(5) 0.8416(9) 0.1364(3)
H2 H -0.0858 0.9248 0.1533
C6 C 0.0323(5) 0.5697(11) 0.0827(3)
C7 C 0.0682(6) 0.3653(11) 0.0434(4)
H3 H 0.0859 0.4144 0.0158
H4 H 0.0503 0.2747 0.0326
H5 H 0.1064 0.3534 0.0691
C8 C -0.2095(5) 0.7680(10) 0.1212(3)
C9 C -0.2585(5) 0.7368(11) 0.0798(4)
H6 H -0.2419 0.7028 0.0506
C10 C -0.3305(6) 0.7568(12) 0.0828(4)
H7 H -0.3621 0.7406 0.0549
C11 C -0.3570(6) 0.8004(12) 0.1262(4)
H8 H -0.4061 0.8112 0.1280
C12 C -0.3098(5) 0.8280(11) 0.1672(4)
H9 H -0.3271 0.8576 0.1967
C13 C -0.2359(5) 0.8114(10) 0.1643(3)
H10 H -0.2045 0.8303 0.1920
C14 C 0.1372(5) 0.7713(10) 0.1734(3)
C15 C 0.2101(5) 0.8070(10) 0.1779(3)
H11 H 0.2271 0.8777 0.1581
C16 C 0.2561(6) 0.7371(12) 0.2116(4)
H12 H 0.3044 0.7615 0.2145
C17 C 0.2330(6) 0.6330(12) 0.2409(4)
H13 H 0.2650 0.5870 0.2637
C18 C 0.1621(6) 0.5970(11) 0.2365(4)
H14 H 0.1459 0.5262 0.2566
C19 C 0.1135(5) 0.6642(10) 0.2024(3)
H15 H 0.0655 0.6373 0.1993
C20 C 0.0591(5) 1.0300(9) 0.1729(3)
C21 C 0.0319(5) 1.1521(10) 0.1501(3)
H16 H 0.0195 1.1539 0.1160
C22 C 0.0235(5) 1.2713(11) 0.1787(4)
H17 H 0.0067 1.3541 0.1634
C23 C 0.0400(5) 1.2683(11) 0.2302(3)
H18 H 0.0337 1.3481 0.2493
C24 C 0.0665(5) 1.1430(11) 0.2527(3)
H19 H 0.0767 1.1390 0.2870
C25 C 0.0770(5) 1.0279(11) 0.2244(3)
H20 H 0.0965 0.9467 0.2393
C26 C 0.1072(5) 0.9367(10) 0.0792(3)
C27 C 0.1653(5) 1.0272(10) 0.0810(3)
H21 H 0.1860 1.0593 0.1115
C28 C 0.1927(5) 1.0704(12) 0.0369(4)
H22 H 0.2322 1.1301 0.0378
C29 C 0.1608(6) 1.0240(13) -0.0079(4)
H23 H 0.1792 1.0519 -0.0373
C30 C 0.1016(6) 0.9361(13) -0.0096(4)
H24 H 0.0802 0.9071 -0.0403
C31 C 0.0742(5) 0.8913(11) 0.0331(3)
H25 H 0.0345 0.8320 0.0318
O1 O 0.0956(4) 0.6054(7) 0.0857(2)
O2 O 0.0105(4) 0.4466(7) 0.0627(2)
P2 P 0.39597(13) 0.4296(3) 0.12897(8)
C32 C 0.4757(5) 0.3449(10) 0.1180(3)
C33 C 0.4825(5) 0.2106(10) 0.0953(3)
C34 C 0.5564(5) 0.1769(11) 0.0993(3)
H26 H 0.5766 0.0954 0.0874
C35 C 0.5939(5) 0.2868(9) 0.1242(3)
C36 C 0.5435(5) 0.3918(10) 0.1356(3)
H27 H 0.5541 0.4765 0.1519
C37 C 0.4236(6) 0.1326(11) 0.0711(3)
C38 C 0.3850(6) -0.0764(13) 0.0289(4)
H28 H 0.3512 -0.1053 0.0518
H29 H 0.4044 -0.1581 0.0139
H30 H 0.3613 -0.0181 0.0035
C39 C 0.6733(5) 0.2919(11) 0.1345(3)
C40 C 0.7150(5) 0.1776(12) 0.1229(4)
H31 H 0.6930 0.0969 0.1094
C41 C 0.7905(6) 0.1827(11) 0.1315(4)
H32 H 0.8177 0.1043 0.1246
C42 C 0.8232(5) 0.3008(11) 0.1495(4)
H33 H 0.8730 0.3047 0.1546
C43 C 0.7829(5) 0.4137(11) 0.1603(4)
H34 H 0.8053 0.4952 0.1728
C44 C 0.7082(5) 0.4093(11) 0.1530(3)
H35 H 0.6817 0.4879 0.1608
C45 C 0.3404(5) 0.3147(10) 0.1619(3)
C46 C 0.3733(5) 0.2091(10) 0.1907(3)
H36 H 0.4226 0.1963 0.1909
C47 C 0.3334(6) 0.1206(12) 0.2197(4)
H37 H 0.3560 0.0484 0.2383
C48 C 0.2603(6) 0.1418(11) 0.2205(4)
H38 H 0.2336 0.0856 0.2403
C49 C 0.2282(6) 0.2451(12) 0.1922(4)
H39 H 0.1791 0.2591 0.1927
C50 C 0.2667(5) 0.3303(11) 0.1624(4)
H40 H 0.2430 0.3987 0.1426
C51 C 0.3484(5) 0.5039(11) 0.0748(3)
C52 C 0.3758(6) 0.4900(11) 0.0286(3)
H41 H 0.4176 0.4388 0.0258
C53 C 0.3411(7) 0.5521(12) -0.0132(3)
H42 H 0.3601 0.5432 -0.0438
C54 C 0.2791(6) 0.6262(13) -0.0099(4)
H43 H 0.2558 0.6661 -0.0383
C55 C 0.2508(6) 0.6421(12) 0.0355(4)
H44 H 0.2084 0.6920 0.0376
C56 C 0.2862(6) 0.5830(11) 0.0783(3)
H45 H 0.2682 0.5964 0.1090
C57 C 0.4180(5) 0.5775(10) 0.1705(3)
C58 C 0.4374(5) 0.7033(10) 0.1508(3)
H46 H 0.4374 0.7134 0.1166
C59 C 0.4572(5) 0.8165(10) 0.1819(3)
H47 H 0.4709 0.9022 0.1690
C60 C 0.4557(5) 0.7968(12) 0.2335(4)
H48 H 0.4676 0.8715 0.2549
C61 C 0.4369(5) 0.6696(13) 0.2529(3)
H49 H 0.4368 0.6579 0.2871
C62 C 0.4184(5) 0.5607(11) 0.2215(3)
H50 H 0.4059 0.4742 0.2344
O3 O 0.3612(4) 0.1759(8) 0.0656(3)
O4 O 0.4427(4) 0.0026(8) 0.0554(3)
loop_
_geom_bond_atom_site_label_1
_geom_bond_atom_site_label_2
_geom_bond_site_symmetry_1
_geom_bond_site_symmetry_2
P1 C1 1_555 1_555
C1 C2 1_555 1_555
C2 C3 1_555 1_555
C3 H1 1_555 1_555
C4 C3 1_555 1_555
C5 C1 1_555 1_555
H2 C5 1_555 1_555
C6 C2 1_555 1_555
C7 H3 1_555 1_555
H4 C7 1_555 1_555
H5 C7 1_555 1_555
C8 C4 1_555 1_555
C9 C8 1_555 1_555
H6 C9 1_555 1_555
C10 C9 1_555 1_555
H7 C10 1_555 1_555
C11 C10 1_555 1_555
H8 C11 1_555 1_555
C12 C11 1_555 1_555
H9 C12 1_555 1_555
C13 C8 1_555 1_555
H10 C13 1_555 1_555
C14 P1 1_555 1_555
C15 C14 1_555 1_555
H11 C15 1_555 1_555
C16 C15 1_555 1_555
H12 C16 1_555 1_555
C17 C16 1_555 1_555
H13 C17 1_555 1_555
C18 C17 1_555 1_555
H14 C18 1_555 1_555
C19 C14 1_555 1_555
H15 C19 1_555 1_555
C20 P1 1_555 1_555
C21 C20 1_555 1_555
H16 C21 1_555 1_555
C22 C21 1_555 1_555
H17 C22 1_555 1_555
C23 C22 1_555 1_555
H18 C23 1_555 1_555
C24 C23 1_555 1_555
H19 C24 1_555 1_555
C25 C20 1_555 1_555
H20 C25 1_555 1_555
C26 P1 1_555 1_555
C27 C26 1_555 1_555
H21 C27 1_555 1_555
C28 C27 1_555 1_555
H22 C28 1_555 1_555
C29 C28 1_555 1_555
H23 C29 1_555 1_555
C30 C29 1_555 1_555
H24 C30 1_555 1_555
C31 C26 1_555 1_555
H25 C31 1_555 1_555
O1 C6 1_555 1_555
O2 C6 1_555 1_555
P2 C32 1_555 1_555
C32 C33 1_555 1_555
C33 C34 1_555 1_555
C34 H26 1_555 1_555
C35 C34 1_555 1_555
C36 C32 1_555 1_555
H27 C36 1_555 1_555
C37 C33 1_555 1_555
C38 H28 1_555 1_555
H29 C38 1_555 1_555
H30 C38 1_555 1_555
C39 C35 1_555 1_555
C40 C39 1_555 1_555
H31 C40 1_555 1_555
C41 C40 1_555 1_555
H32 C41 1_555 1_555
C42 C41 1_555 1_555
H33 C42 1_555 1_555
C43 C42 1_555 1_555
H34 C43 1_555 1_555
C44 C39 1_555 1_555
H35 C44 1_555 1_555
C45 P2 1_555 1_555
C46 C45 1_555 1_555
H36 C46 1_555 1_555
C47 C46 1_555 1_555
H37 C47 1_555 1_555
C48 C47 1_555 1_555
H38 C48 1_555 1_555
C49 C48 1_555 1_555
H39 C49 1_555 1_555
C50 C45 1_555 1_555
H40 C50 1_555 1_555
C51 P2 1_555 1_555
C52 C51 1_555 1_555
H41 C52 1_555 1_555
C53 C52 1_555 1_555
H42 C53 1_555 1_555
C54 C53 1_555 1_555
H43 C54 1_555 1_555
C55 C54 1_555 1_555
H44 C55 1_555 1_555
C56 C51 1_555 1_555
H45 C56 1_555 1_555
C57 P2 1_555 1_555
C58 C57 1_555 1_555
H46 C58 1_555 1_555
C59 C58 1_555 1_555
H47 C59 1_555 1_555
C60 C59 1_555 1_555
H48 C60 1_555 1_555
C61 C60 1_555 1_555
H49 C61 1_555 1_555
C62 C57 1_555 1_555
H50 C62 1_555 1_555
O3 C37 1_555 1_555
O4 C37 1_555 1_555
C4 C5 1_555 1_555
C7 O2 1_555 1_555
C12 C13 1_555 1_555
C18 C19 1_555 1_555
C24 C25 1_555 1_555
C30 C31 1_555 1_555
C35 C36 1_555 1_555
C38 O4 1_555 1_555
C43 C44 1_555 1_555
C49 C50 1_555 1_555
C55 C56 1_555 1_555
C61 C62 1_555 1_555

#END
