
#######################################################################
#
#                 Cambridge Crystallographic Data Centre
#                                CCDC 
#
#######################################################################
#
# If this CIF has been generated from an entry in the Cambridge 
# Structural Database, then it will include bibliographic, chemical, 
# crystal, experimental, refinement or atomic coordinate data resulting 
# from the CCDC's data processing and validation procedures.
#
#######################################################################

data_MUKNAJ
_chemical_formula_moiety         'C54 H48 O4 P2,C1 H2 Cl2'
_chemical_name_systematic        
"dimethyl 3,3'-(butane-1,4-diylbis(diphenylphosphoranylylidene))bis(4-phenylcyclopenta-1,4-diene-1-carboxylate) dichloromethane solvate"
_symmetry_cell_setting           monoclinic
_symmetry_space_group_name_H-M   'P 21/c'
_symmetry_Int_Tables_number      14
_space_group_name_Hall           '-P 2ybc'
loop_
_symmetry_equiv_pos_site_id
_symmetry_equiv_pos_as_xyz
1 x,y,z
2 -x,1/2+y,1/2-z
3 -x,-y,-z
4 x,1/2-y,1/2+z
_cell_length_a                   9.4823(2)
_cell_length_b                   17.9164(4)
_cell_length_c                   14.4160(3)
_cell_angle_alpha                90
_cell_angle_beta                 108.3500(10)
_cell_angle_gamma                90
_cell_volume                     2324.58
_exptl_crystal_description       block
_cell_formula_units_Z            2
loop_
_atom_site_label
_atom_site_type_symbol
_atom_site_fract_x
_atom_site_fract_y
_atom_site_fract_z
P1 P 0.59577(8) 0.03337(5) 0.29160(6)
O1 O 0.1945(3) 0.31201(17) 0.1178(2)
O2 O 0.1864(3) 0.21034(16) 0.02651(18)
C2 C 0.4924(3) 0.11542(18) 0.2719(2)
C3 C 0.3878(3) 0.13381(19) 0.1814(2)
H1 H 0.3630 0.1045 0.1253
C4 C 0.3279(3) 0.20340(19) 0.1904(2)
C5 C 0.3930(3) 0.2281(2) 0.2875(2)
H2 H 0.3713 0.2728 0.3129
C6 C 0.4948(3) 0.17575(18) 0.3389(2)
C7 C 0.2304(3) 0.2482(2) 0.1119(3)
C8 C 0.0980(5) 0.2494(3) -0.0582(3)
H3 H -0.0045 0.2474 -0.0611
H4 H 0.1094 0.2265 -0.1156
H5 H 0.1297 0.3005 -0.0548
C9 C 0.5857(3) 0.18139(18) 0.4423(2)
C10 C 0.7394(3) 0.1699(2) 0.4736(2)
H6 H 0.7860 0.1579 0.4278
C11 C 0.8238(4) 0.1763(2) 0.5709(3)
H7 H 0.9256 0.1679 0.5899
C12 C 0.7569(4) 0.1944(2) 0.6395(3)
H8 H 0.8135 0.1984 0.7050
C13 C 0.6062(4) 0.2072(2) 0.6114(3)
H9 H 0.5610 0.2202 0.6577
C14 C 0.5217(4) 0.2004(2) 0.5143(2)
H10 H 0.4201 0.2087 0.4963
C15 C 0.5049(3) -0.03245(18) 0.1977(2)
C16 C 0.5617(5) -0.0514(2) 0.1241(3)
H11 H 0.6519 -0.0315 0.1235
C17 C 0.4858(6) -0.0999(3) 0.0516(3)
H12 H 0.5251 -0.1118 0.0019
C18 C 0.3547(5) -0.1300(2) 0.0506(3)
H13 H 0.3040 -0.1621 0.0006
C19 C 0.2976(5) -0.1133(3) 0.1240(3)
H14 H 0.2094 -0.1353 0.1252
C20 C 0.3710(4) -0.0636(3) 0.1966(3)
H15 H 0.3295 -0.0511 0.2449
C21 C 0.7820(3) 0.04824(18) 0.2861(2)
C22 C 0.8119(4) 0.1116(2) 0.2407(2)
H16 H 0.7359 0.1451 0.2120
C23 C 0.9546(4) 0.1256(2) 0.2385(3)
H17 H 0.9738 0.1682 0.2076
C24 C 1.0677(4) 0.0765(2) 0.2817(3)
H18 H 1.1636 0.0861 0.2809
C25 C 1.0379(4) 0.0131(2) 0.3253(3)
H19 H 1.1146 -0.0200 0.3541
C26 C 0.8958(4) -0.0021(2) 0.3282(3)
H20 H 0.8767 -0.0455 0.3574
C27 C 0.6166(3) -0.00648(19) 0.4107(2)
H21 H 0.6990 0.0181 0.4585
H22 H 0.6422 -0.0588 0.4095
C28 C 0.4786(3) -0.0002(2) 0.4446(2)
H23 H 0.4129 -0.0421 0.4191
H24 H 0.4253 0.0453 0.4189
P1B P 0.40423(8) -0.03337(5) 0.70840(6)
O1B O 0.8055(3) -0.31201(17) 0.8822(2)
O2B O 0.8136(3) -0.21034(16) 0.97349(18)
C2B C 0.5076(3) -0.11542(18) 0.7281(2)
C3B C 0.6122(3) -0.13381(19) 0.8186(2)
H1B H 0.6370 -0.1045 0.8747
C4B C 0.6721(3) -0.20340(19) 0.8096(2)
C5B C 0.6070(3) -0.2281(2) 0.7125(2)
H2B H 0.6287 -0.2728 0.6871
C6B C 0.5052(3) -0.17575(18) 0.6611(2)
C7B C 0.7696(3) -0.2482(2) 0.8881(3)
C8B C 0.9020(5) -0.2494(3) 1.0582(3)
H3B H 1.0045 -0.2474 1.0611
H4B H 0.8906 -0.2265 1.1156
H5B H 0.8703 -0.3005 1.0548
C9B C 0.4143(3) -0.18139(18) 0.5577(2)
C10B C 0.2606(3) -0.1699(2) 0.5264(2)
H6B H 0.2140 -0.1579 0.5722
C11B C 0.1762(4) -0.1763(2) 0.4291(3)
H7B H 0.0744 -0.1679 0.4101
C12B C 0.2431(4) -0.1944(2) 0.3605(3)
H8B H 0.1865 -0.1984 0.2950
C13B C 0.3938(4) -0.2072(2) 0.3886(3)
H9B H 0.4390 -0.2202 0.3423
C14B C 0.4783(4) -0.2004(2) 0.4857(2)
H10B H 0.5799 -0.2087 0.5037
C15B C 0.4951(3) 0.03245(18) 0.8023(2)
C16B C 0.4383(5) 0.0514(2) 0.8759(3)
H11B H 0.3481 0.0315 0.8765
C17B C 0.5142(6) 0.0999(3) 0.9484(3)
H12B H 0.4749 0.1118 0.9981
C18B C 0.6453(5) 0.1300(2) 0.9494(3)
H13B H 0.6960 0.1621 0.9994
C19B C 0.7024(5) 0.1133(3) 0.8760(3)
H14B H 0.7906 0.1353 0.8748
C20B C 0.6290(4) 0.0636(3) 0.8034(3)
H15B H 0.6705 0.0511 0.7551
C21B C 0.2180(3) -0.04824(18) 0.7139(2)
C22B C 0.1881(4) -0.1116(2) 0.7593(2)
H16B H 0.2641 -0.1451 0.7880
C23B C 0.0454(4) -0.1256(2) 0.7615(3)
H17B H 0.0262 -0.1682 0.7924
C24B C -0.0677(4) -0.0765(2) 0.7183(3)
H18B H -0.1636 -0.0861 0.7191
C25B C -0.0379(4) -0.0131(2) 0.6747(3)
H19B H -0.1146 0.0200 0.6459
C26B C 0.1042(4) 0.0021(2) 0.6718(3)
H20B H 0.1233 0.0455 0.6426
C27B C 0.3834(3) 0.00648(19) 0.5893(2)
H21B H 0.3010 -0.0181 0.5415
H22B H 0.3578 0.0588 0.5905
C28B C 0.5214(3) 0.0002(2) 0.5554(2)
H23B H 0.5871 0.0421 0.5809
H24B H 0.5747 -0.0453 0.5811
Cl1 Cl -0.0813(2) -0.03575(13) 0.05915(18)
C1 C 0.0361(10) 0.0407(6) 0.0305(8)
Cl1B Cl 0.0813(2) 0.03575(13) -0.05915(18)
C1B C -0.0361(10) -0.0407(6) -0.0305(8)
loop_
_geom_bond_atom_site_label_1
_geom_bond_atom_site_label_2
_geom_bond_site_symmetry_1
_geom_bond_site_symmetry_2
Cl1 C1 1_555 1_555
C1 Cl1B 1_555 1_555
P1 C2 1_555 1_555
O1 C7 1_555 1_555
O2 C7 1_555 1_555
C2 C3 1_555 1_555
C3 H1 1_555 1_555
C4 C3 1_555 1_555
C5 C4 1_555 1_555
H2 C5 1_555 1_555
C6 C2 1_555 1_555
C7 C4 1_555 1_555
C8 O2 1_555 1_555
H3 C8 1_555 1_555
H4 C8 1_555 1_555
H5 C8 1_555 1_555
C9 C6 1_555 1_555
C10 C9 1_555 1_555
H6 C10 1_555 1_555
C11 C10 1_555 1_555
H7 C11 1_555 1_555
C12 C11 1_555 1_555
H8 C12 1_555 1_555
C13 C12 1_555 1_555
H9 C13 1_555 1_555
C14 C9 1_555 1_555
H10 C14 1_555 1_555
C15 P1 1_555 1_555
C16 C15 1_555 1_555
H11 C16 1_555 1_555
C17 C16 1_555 1_555
H12 C17 1_555 1_555
C18 C17 1_555 1_555
H13 C18 1_555 1_555
C19 C18 1_555 1_555
H14 C19 1_555 1_555
C20 C15 1_555 1_555
H15 C20 1_555 1_555
C21 P1 1_555 1_555
C22 C21 1_555 1_555
H16 C22 1_555 1_555
C23 C22 1_555 1_555
H17 C23 1_555 1_555
C24 C23 1_555 1_555
H18 C24 1_555 1_555
C25 C24 1_555 1_555
H19 C25 1_555 1_555
C26 C21 1_555 1_555
H20 C26 1_555 1_555
C27 P1 1_555 1_555
H21 C27 1_555 1_555
H22 C27 1_555 1_555
C28 C27 1_555 1_555
H23 C28 1_555 1_555
H24 C28 1_555 1_555
Cl1B C1B 1_555 1_555
C1B Cl1 1_555 1_555
P1B C2B 1_555 1_555
O1B C7B 1_555 1_555
O2B C7B 1_555 1_555
C2B C3B 1_555 1_555
C3B H1B 1_555 1_555
C4B C3B 1_555 1_555
C5B C4B 1_555 1_555
H2B C5B 1_555 1_555
C6B C2B 1_555 1_555
C7B C4B 1_555 1_555
C8B O2B 1_555 1_555
H3B C8B 1_555 1_555
H4B C8B 1_555 1_555
H5B C8B 1_555 1_555
C9B C6B 1_555 1_555
C10B C9B 1_555 1_555
H6B C10B 1_555 1_555
C11B C10B 1_555 1_555
H7B C11B 1_555 1_555
C12B C11B 1_555 1_555
H8B C12B 1_555 1_555
C13B C12B 1_555 1_555
H9B C13B 1_555 1_555
C14B C9B 1_555 1_555
H10B C14B 1_555 1_555
C15B P1B 1_555 1_555
C16B C15B 1_555 1_555
H11B C16B 1_555 1_555
C17B C16B 1_555 1_555
H12B C17B 1_555 1_555
C18B C17B 1_555 1_555
H13B C18B 1_555 1_555
C19B C18B 1_555 1_555
H14B C19B 1_555 1_555
C20B C15B 1_555 1_555
H15B C20B 1_555 1_555
C21B P1B 1_555 1_555
C22B C21B 1_555 1_555
H16B C22B 1_555 1_555
C23B C22B 1_555 1_555
H17B C23B 1_555 1_555
C24B C23B 1_555 1_555
H18B C24B 1_555 1_555
C25B C24B 1_555 1_555
H19B C25B 1_555 1_555
C26B C21B 1_555 1_555
H20B C26B 1_555 1_555
C27B P1B 1_555 1_555
H21B C27B 1_555 1_555
H22B C27B 1_555 1_555
C28B C28 1_555 1_555
H23B C28B 1_555 1_555
H24B C28B 1_555 1_555
C5 C6 1_555 1_555
C13 C14 1_555 1_555
C19 C20 1_555 1_555
C25 C26 1_555 1_555
C5B C6B 1_555 1_555
C13B C14B 1_555 1_555
C19B C20B 1_555 1_555
C25B C26B 1_555 1_555
C27B C28B 1_555 1_555

#END
