
#######################################################################
#
#                 Cambridge Crystallographic Data Centre
#                                CCDC 
#
#######################################################################
#
# If this CIF has been generated from an entry in the Cambridge 
# Structural Database, then it will include bibliographic, chemical, 
# crystal, experimental, refinement or atomic coordinate data resulting 
# from the CCDC's data processing and validation procedures.
#
#######################################################################

data_MUKVUL
_chemical_formula_moiety         'C31 H25 O2 P1'
_chemical_name_systematic        
4-(Methoxycarbonyl)-2-phenyl-1-(triphenylphosphonio)cyclopenta-2,4-dienide
_symmetry_cell_setting           monoclinic
_symmetry_space_group_name_H-M   'P 21/n'
_symmetry_Int_Tables_number      14
_space_group_name_Hall           '-P 2yn'
loop_
_symmetry_equiv_pos_site_id
_symmetry_equiv_pos_as_xyz
1 x,y,z
2 1/2-x,1/2+y,1/2-z
3 -x,-y,-z
4 1/2+x,1/2-y,1/2+z
_cell_length_a                   9.2981(15)
_cell_length_b                   14.076(2)
_cell_length_c                   18.117(4)
_cell_angle_alpha                90
_cell_angle_beta                 95.985(11)
_cell_angle_gamma                90
_cell_volume                     2358.23
_exptl_crystal_description       block
_cell_formula_units_Z            4
loop_
_atom_site_label
_atom_site_type_symbol
_atom_site_fract_x
_atom_site_fract_y
_atom_site_fract_z
P1 P 0.29858(4) 0.39782(3) 0.20039(2)
C1 C 0.39479(16) 0.29593(11) 0.18012(8)
C2 C 0.41263(16) 0.27241(11) 0.10616(9)
H1 H 0.3746 0.3058 0.0643
C3 C 0.49712(16) 0.19042(11) 0.10616(9)
C4 C 0.53421(16) 0.16271(11) 0.18073(9)
H2 H 0.5918 0.1109 0.1962
C5 C 0.47106(16) 0.22513(11) 0.22728(8)
C6 C 0.54366(17) 0.14255(11) 0.04142(9)
C7 C 0.5114(2) 0.13234(14) -0.09006(10)
H3 H 0.6134 0.1378 -0.0936
H4 H 0.4591 0.1628 -0.1320
H5 H 0.4851 0.0664 -0.0894
C8 C 0.48968(17) 0.22372(11) 0.30905(9)
C9 C 0.62581(18) 0.20781(12) 0.34656(9)
H6 H 0.7026 0.1926 0.3197
C10 C 0.6490(2) 0.21425(15) 0.42295(10)
H7 H 0.7410 0.2037 0.4469
C11 C 0.5364(2) 0.23621(14) 0.46395(10)
H8 H 0.5525 0.2417 0.5153
C12 C 0.4004(2) 0.24979(13) 0.42813(10)
H9 H 0.3238 0.2638 0.4554
C13 C 0.37667(18) 0.24274(12) 0.35175(9)
H10 H 0.2836 0.2508 0.3284
C14 C 0.37320(17) 0.45514(11) 0.28448(9)
C15 C 0.52260(17) 0.45073(12) 0.30360(9)
H11 H 0.5803 0.4171 0.2737
C16 C 0.58501(19) 0.49591(13) 0.36643(10)
H12 H 0.6845 0.4928 0.3788
C17 C 0.4998(2) 0.54586(13) 0.41105(10)
H13 H 0.5421 0.5763 0.4534
C18 C 0.3520(2) 0.55069(13) 0.39287(10)
H14 H 0.2950 0.5841 0.4232
C19 C 0.28842(18) 0.50599(12) 0.32974(9)
H15 H 0.1889 0.5099 0.3175
C20 C 0.30831(16) 0.48096(11) 0.12514(9)
C21 C 0.42169(18) 0.54636(12) 0.12745(10)
H16 H 0.4865 0.5522 0.1699
C22 C 0.4367(2) 0.60242(14) 0.06600(12)
H17 H 0.5122 0.6459 0.0674
C23 C 0.3418(2) 0.59471(14) 0.00295(11)
H18 H 0.3534 0.6325 -0.0381
C24 C 0.2292(2) 0.53082(14) 0.00075(10)
H19 H 0.1646 0.5257 -0.0418
C25 C 0.21167(19) 0.47402(12) 0.06175(9)
H20 H 0.1351 0.4313 0.0601
C26 C 0.10780(16) 0.37446(11) 0.20236(8)
C27 C 0.00824(17) 0.44894(11) 0.20109(9)
H21 H 0.0402 0.5116 0.2028
C28 C -0.13806(17) 0.42904(12) 0.19729(9)
H22 H -0.2043 0.4785 0.1977
C29 C -0.18632(18) 0.33623(13) 0.19295(10)
H23 H -0.2849 0.3235 0.1895
C30 C -0.08847(19) 0.26210(13) 0.19366(10)
H24 H -0.1214 0.1997 0.1909
C31 C 0.05837(17) 0.28071(12) 0.19850(9)
H25 H 0.1241 0.2308 0.1992
O1 O 0.63116(14) 0.07896(9) 0.04184(7)
O2 O 0.47633(13) 0.17741(8) -0.02266(6)
loop_
_geom_bond_atom_site_label_1
_geom_bond_atom_site_label_2
_geom_bond_site_symmetry_1
_geom_bond_site_symmetry_2
P1 C1 1_555 1_555
C1 C2 1_555 1_555
C2 H1 1_555 1_555
C3 C2 1_555 1_555
C4 C3 1_555 1_555
H2 C4 1_555 1_555
C5 C1 1_555 1_555
C6 C3 1_555 1_555
C7 H3 1_555 1_555
H4 C7 1_555 1_555
H5 C7 1_555 1_555
C8 C5 1_555 1_555
C9 C8 1_555 1_555
H6 C9 1_555 1_555
C10 C9 1_555 1_555
H7 C10 1_555 1_555
C11 C10 1_555 1_555
H8 C11 1_555 1_555
C12 C11 1_555 1_555
H9 C12 1_555 1_555
C13 C8 1_555 1_555
H10 C13 1_555 1_555
C14 P1 1_555 1_555
C15 C14 1_555 1_555
H11 C15 1_555 1_555
C16 C15 1_555 1_555
H12 C16 1_555 1_555
C17 C16 1_555 1_555
H13 C17 1_555 1_555
C18 C17 1_555 1_555
H14 C18 1_555 1_555
C19 C14 1_555 1_555
H15 C19 1_555 1_555
C20 P1 1_555 1_555
C21 C20 1_555 1_555
H16 C21 1_555 1_555
C22 C21 1_555 1_555
H17 C22 1_555 1_555
C23 C22 1_555 1_555
H18 C23 1_555 1_555
C24 C23 1_555 1_555
H19 C24 1_555 1_555
C25 C20 1_555 1_555
H20 C25 1_555 1_555
C26 P1 1_555 1_555
C27 C26 1_555 1_555
H21 C27 1_555 1_555
C28 C27 1_555 1_555
H22 C28 1_555 1_555
C29 C28 1_555 1_555
H23 C29 1_555 1_555
C30 C29 1_555 1_555
H24 C30 1_555 1_555
C31 C26 1_555 1_555
H25 C31 1_555 1_555
O1 C6 1_555 1_555
O2 C6 1_555 1_555
C4 C5 1_555 1_555
C7 O2 1_555 1_555
C12 C13 1_555 1_555
C18 C19 1_555 1_555
C24 C25 1_555 1_555
C30 C31 1_555 1_555

#END
