
#######################################################################
#
#                 Cambridge Crystallographic Data Centre
#                                CCDC 
#
#######################################################################
#
# If this CIF has been generated from an entry in the Cambridge 
# Structural Database, then it will include bibliographic, chemical, 
# crystal, experimental, refinement or atomic coordinate data resulting 
# from the CCDC's data processing and validation procedures.
#
#######################################################################

data_MUKWEW
_chemical_formula_moiety         
'C48 H38 N6 O21 S4 Sr3 2-,C12 H9 N2 1+,0.5(C12 H10 N2 2+),8(H2 O1)'
_chemical_name_systematic        
'1,10-Phenanthrolinium hemikis(1,10-phenanthrolinedi-ium) (\m~3~-4,5-dioxybenzene-1,3-disulfonato)-(\m~2~-4,5-dioxybenzene-1,3-disulfonato)-penta-aqua-tris(1,10-phenanthroline)-tri-strontium octahydrate'
_symmetry_cell_setting           triclinic
_symmetry_space_group_name_H-M   'P -1'
_symmetry_Int_Tables_number      2
_space_group_name_Hall           '-P 1'
loop_
_symmetry_equiv_pos_site_id
_symmetry_equiv_pos_as_xyz
1 x,y,z
2 -x,-y,-z
_cell_length_a                   10.3825(9)
_cell_length_b                   18.5373(16)
_cell_length_c                   23.126(2)
_cell_angle_alpha                107.623(2)
_cell_angle_beta                 97.7090(10)
_cell_angle_gamma                90.8920(10)
_cell_volume                     4196.24
_cell_formula_units_Z            2
loop_
_atom_site_label
_atom_site_type_symbol
_atom_site_fract_x
_atom_site_fract_y
_atom_site_fract_z
N7 N 0.0748(10) 0.2787(7) 0.4431(5)
H39 H 0.0859 0.2738 0.4792
N8 N 0.0777(10) 0.1333(6) 0.4560(5)
C49 C 0.0787(13) 0.3458(9) 0.4369(7)
H40 H 0.0910 0.3875 0.4721
C50 C 0.0654(13) 0.3589(10) 0.3800(7)
H41 H 0.0745 0.4073 0.3765
C51 C 0.0391(14) 0.2984(10) 0.3320(7)
H42 H 0.0230 0.3051 0.2935
C52 C 0.0338(13) 0.2249(9) 0.3353(7)
C53 C 0.0540(11) 0.2181(8) 0.3948(6)
C54 C 0.0494(12) 0.1427(9) 0.4009(7)
C55 C 0.0212(12) 0.0770(9) 0.3463(7)
C56 C 0.0111(13) 0.0032(10) 0.3526(9)
H43 H -0.0137 -0.0396 0.3191
C57 C 0.0380(14) -0.0009(10) 0.4073(9)
H44 H 0.0355 -0.0488 0.4122
C58 C 0.0708(12) 0.0609(9) 0.4598(7)
H45 H 0.0882 0.0531 0.4979
C59 C 0.0020(14) 0.1597(10) 0.2799(7)
H46 H -0.0143 0.1657 0.2412
C60 C -0.0023(14) 0.0919(10) 0.2877(8)
H47 H -0.0221 0.0502 0.2527
N9 N 1.01(6) 0.59(7) 0.06(5)
H48 H 1.0157 0.6225 0.0438
N10 N 0.99(5) 0.46(6) 0.06(4)
H49 H 0.9879 0.4133 0.0416
C61 C 1.002(2) 0.513(3) 0.0305(17)
C62 C 0.9925(19) 0.483(2) 0.1241(15)
H50 H 0.9872 0.4475 0.1446
C63 C 1.000(2) 0.560(2) 0.1557(14)
H51 H 1.0001 0.5755 0.1979
C64 C 1.007(2) 0.613(2) 0.1251(17)
H52 H 1.0104 0.6641 0.1467
C65 C 1.018(5) 0.643(6) 0.033(4)
H53 H 1.0252 0.6946 0.0548
C66 C 1.018(4) 0.618(4) -0.030(4)
H54 H 1.0245 0.6533 -0.0511
N9A N 0.99(6) 0.41(7) -0.06(5)
H48A H 0.9843 0.3775 -0.0438
N10A N 1.01(5) 0.54(6) -0.06(4)
H49A H 1.0121 0.5867 -0.0416
C61A C 0.998(2) 0.487(3) -0.0305(17)
C62A C 1.0075(19) 0.517(2) -0.1241(15)
H50A H 1.0128 0.5525 -0.1446
C63A C 1.000(2) 0.440(2) -0.1557(14)
H51A H 0.9999 0.4245 -0.1979
C64A C 0.993(2) 0.387(2) -0.1251(17)
H52A H 0.9896 0.3359 -0.1467
C65A C 0.982(5) 0.357(6) -0.033(4)
H53A H 0.9748 0.3054 -0.0548
C66A C 0.982(4) 0.382(4) 0.030(4)
H54A H 0.9755 0.3467 0.0511
O22 O 0.2624(8) 0.1091(5) 0.6893(4)
H55 H 0.3256 0.1294 0.6789
H56 H 0.2069 0.1421 0.6996
O23 O 0.3008(10) 0.2983(6) 0.7946(4)
H57 H 0.3334 0.3169 0.7700
H58 H 0.2311 0.2725 0.7757
O24 O 0.0523(10) 0.5426(6) 0.7229(5)
H59 H 0.1179 0.5155 0.7210
H60 H -0.0142 0.5147 0.7022
O25 O 0.3064(16) 0.0550(9) 0.7856(7)
H61 H 0.2955 0.0551 0.7485
H62 H 0.3224 0.0105 0.7865
O26 O 0.0778(19) 0.6769(10) 0.8146(8)
H63 H 0.0799 0.6365 0.7850
H64 H 0.1444 0.7056 0.8174
O27 O 0.812(2) 0.8865(11) 0.8555(8)
H65 H 0.7817 0.8415 0.8361
H66 H 0.7751 0.9165 0.8380
O28 O 0.325(2) 0.7975(14) 0.8446(10)
H67 H 0.3638 0.7567 0.8330
H68 H 0.3789 0.8341 0.8478
O29 O 0.542(2) 0.8951(12) 0.8413(9)
H69 H 0.6166 0.8795 0.8502
H70 H 0.5538 0.9326 0.8283
Sr1 Sr 0.81655(9) 0.32241(6) 0.60002(5)
Sr2 Sr 0.44363(9) 0.26983(6) 0.59988(4)
Sr3 Sr 0.5919(2) 0.22612(10) 0.95416(8)
N1 N 0.7559(8) 0.2143(5) 0.4901(4)
N2 N 0.7725(9) 0.3642(5) 0.4955(4)
N3 N 0.4377(8) 0.3029(6) 0.4944(4)
N4 N 0.4198(8) 0.1549(5) 0.4959(4)
N5 N 0.6449(11) 0.3734(7) 1.0240(5)
N6 N 0.6416(11) 0.3339(7) 0.9005(5)
O1 O 0.3123(7) 0.3992(4) 0.6207(3)
O2 O 0.3975(7) 0.3566(5) 0.7054(3)
O3 O 0.2719(7) 0.4700(5) 0.7229(4)
O4 O 0.675(6) 0.6774(13) 0.8751(10)
O5 O 0.515(4) 0.7130(17) 0.805(3)
O6 O 0.742(6) 0.733(2) 0.8004(19)
O7 O 0.8352(7) 0.4683(4) 0.6617(3)
O8 O 0.6085(7) 0.3844(4) 0.6317(3)
O9 O 0.9320(7) 0.3143(4) 0.7036(3)
O10 O 0.9540(7) 0.2030(4) 0.6205(3)
O11 O 1.0657(7) 0.2138(5) 0.7235(4)
O12 O 0.651(4) 0.1262(15) 0.8657(11)
O13 O 0.874(2) 0.105(2) 0.8545(13)
O14 O 0.708(4) 0.0041(14) 0.8038(10)
O15 O 0.4625(7) 0.1661(5) 0.6554(3)
O16 O 0.6725(6) 0.2295(4) 0.6289(3)
O17 O 1.0395(7) 0.3504(4) 0.5731(3)
H1 H 1.1083 0.3792 0.5876
H2 H 1.0601 0.3051 0.5688
O18 O 0.2078(7) 0.2142(5) 0.5764(4)
H3 H 0.1825 0.1908 0.5387
H4 H 0.1432 0.2155 0.5956
O19 O 0.3946(13) 0.2225(8) 0.8757(6)
H5 H 0.3695 0.2502 0.8535
H6 H 0.3752 0.1765 0.8547
O20 O 0.4920(17) 0.0935(8) 0.9431(7)
H7 H 0.5412 0.0598 0.9259
H8 H 0.4198 0.0875 0.9195
O21 O 0.4010(17) 0.2490(9) 1.0177(6)
H9 H 0.3393 0.2729 1.0341
H10 H 0.4606 0.2486 1.0467
S1 S 0.3620(3) 0.42468(18) 0.68750(12)
S2 S 0.6470(5) 0.6877(2) 0.81631(17)
S3 S 0.9516(3) 0.23228(18) 0.68652(14)
S4 S 0.7370(4) 0.0842(2) 0.82415(16)
C1 C 0.5041(10) 0.4824(6) 0.7004(5)
C2 C 0.5144(12) 0.5547(7) 0.7438(5)
H11 H 0.4424 0.5735 0.7622
C3 C 0.6311(12) 0.5983(6) 0.7597(5)
C4 C 0.7398(12) 0.5687(6) 0.7316(5)
H12 H 0.8184 0.5975 0.7421
C5 C 0.7311(11) 0.4984(6) 0.6893(5)
C6 C 0.6123(10) 0.4508(6) 0.6716(5)
C7 C 0.8162(10) 0.1896(6) 0.7025(5)
C8 C 0.8285(12) 0.1523(7) 0.7470(5)
H13 H 0.9110 0.1475 0.7664
C9 C 0.7206(12) 0.1222(7) 0.7628(5)
C10 C 0.5969(12) 0.1277(7) 0.7320(5)
H14 H 0.5233 0.1083 0.7425
C11 C 0.5842(11) 0.1613(7) 0.6868(5)
C12 C 0.6905(10) 0.1954(6) 0.6707(5)
C13 C 0.7502(11) 0.1408(7) 0.4862(6)
H15 H 0.7666 0.1285 0.5225
C14 C 0.7217(11) 0.0818(8) 0.4319(6)
H16 H 0.7147 0.0317 0.4320
C15 C 0.7041(11) 0.0997(7) 0.3782(6)
H17 H 0.6891 0.0609 0.3411
C16 C 0.7082(11) 0.1755(7) 0.3779(5)
C17 C 0.7367(10) 0.2314(7) 0.4375(5)
C18 C 0.7442(11) 0.3118(7) 0.4392(5)
C19 C 0.7230(11) 0.3315(7) 0.3854(5)
C20 C 0.7355(12) 0.4089(8) 0.3912(6)
H18 H 0.7249 0.4238 0.3559
C21 C 0.7614(13) 0.4606(8) 0.4447(6)
H19 H 0.7661 0.5119 0.4481
C22 C 0.7825(12) 0.4354(7) 0.4979(6)
H20 H 0.8044 0.4717 0.5361
C23 C 0.6882(12) 0.1970(8) 0.3247(6)
H21 H 0.6701 0.1598 0.2868
C24 C 0.6945(11) 0.2697(8) 0.3272(6)
H22 H 0.6804 0.2818 0.2907
C25 C 0.4430(11) 0.3749(7) 0.4942(6)
H23 H 0.4582 0.4131 0.5316
C26 C 0.4268(12) 0.3955(8) 0.4407(6)
H24 H 0.4350 0.4460 0.4419
C27 C 0.3985(12) 0.3391(8) 0.3865(6)
H25 H 0.3837 0.3516 0.3502
C28 C 0.3911(11) 0.2644(8) 0.3841(6)
C29 C 0.4095(10) 0.2480(7) 0.4404(5)
C30 C 0.3996(10) 0.1716(7) 0.4401(5)
C31 C 0.3640(11) 0.1117(8) 0.3826(6)
C32 C 0.3545(12) 0.0366(8) 0.3843(7)
H26 H 0.3321 -0.0035 0.3484
C33 C 0.3796(12) 0.0232(8) 0.4417(7)
H27 H 0.3776 -0.0261 0.4437
C34 C 0.4069(11) 0.0836(7) 0.4947(6)
H28 H 0.4170 0.0734 0.5320
C35 C 0.3582(12) 0.2017(9) 0.3288(6)
H29 H 0.3427 0.2119 0.2916
C36 C 0.3492(12) 0.1317(9) 0.3285(6)
H30 H 0.3322 0.0935 0.2910
C37 C 0.6485(14) 0.3936(10) 1.0844(7)
H31 H 0.6419 0.3554 1.1025
C38 C 0.6610(13) 0.4666(10) 1.1214(7)
H32 H 0.6639 0.4767 1.1635
C39 C 0.6694(13) 0.5243(10) 1.0984(7)
H33 H 0.6766 0.5740 1.1242
C40 C 0.6671(13) 0.5093(9) 1.0337(7)
C41 C 0.6525(13) 0.4288(9) 0.9967(6)
C42 C 0.6543(12) 0.4103(8) 0.9340(6)
C43 C 0.6645(12) 0.4653(8) 0.9071(6)
C44 C 0.6607(13) 0.4431(9) 0.8406(6)
H34 H 0.6662 0.4794 0.8206
C45 C 0.6495(14) 0.3717(9) 0.8103(7)
H35 H 0.6475 0.3559 0.7679
C46 C 0.6405(14) 0.3185(9) 0.8413(7)
H36 H 0.6331 0.2676 0.8180
C47 C 0.6789(13) 0.5624(9) 1.0020(7)
H37 H 0.6906 0.6136 1.0243
C48 C 0.6741(13) 0.5429(9) 0.9436(7)
H38 H 0.6770 0.5804 0.9246
O30? O 0.674(7) 0.746(3) 0.790(2)
O31? O 0.760(7) 0.6829(17) 0.861(2)
O32? O 0.530(5) 0.698(2) 0.845(3)
O33? O 0.738(4) 0.1468(16) 0.8786(11)
O34? O 0.623(4) 0.0314(19) 0.8133(12)
O35? O 0.855(3) 0.042(2) 0.8219(12)
C67? C 0.99(7) 0.46(7) 0.06(6)
C68? C 1.01(7) 0.59(9) 0.06(7)
loop_
_geom_bond_atom_site_label_1
_geom_bond_atom_site_label_2
_geom_bond_site_symmetry_1
_geom_bond_site_symmetry_2
Sr1 N1 1_555 1_555
Sr2 N3 1_555 1_555
Sr3 N5 1_555 1_555
N1 C13 1_555 1_555
N2 Sr1 1_555 1_555
N3 C25 1_555 1_555
N4 Sr2 1_555 1_555
N5 C37 1_555 1_555
N6 Sr3 1_555 1_555
O1 Sr2 1_555 1_555
O2 Sr2 1_555 1_555
O3 S1 1_555 1_555
O4 S2 1_555 1_555
O5 S2 1_555 1_555
O6 S2 1_555 1_555
O7 Sr1 1_555 1_555
O8 Sr1 1_555 1_555
O9 Sr1 1_555 1_555
O10 Sr1 1_555 1_555
O11 S3 1_555 1_555
O12 Sr3 1_555 1_555
O13 S4 1_555 1_555
O14 S4 1_555 1_555
O15 Sr2 1_555 1_555
O16 Sr1 1_555 1_555
O17 Sr1 1_555 1_555
H1 O17 1_555 1_555
H2 O17 1_555 1_555
O18 Sr2 1_555 1_555
H3 O18 1_555 1_555
H4 O18 1_555 1_555
O19 Sr3 1_555 1_555
H5 O19 1_555 1_555
H6 O19 1_555 1_555
O20 Sr3 1_555 1_555
H7 O20 1_555 1_555
H8 O20 1_555 1_555
O21 Sr3 1_555 1_555
H9 O21 1_555 1_555
H10 O21 1_555 1_555
S1 O1 1_555 1_555
S2 C3 1_555 1_555
S3 O9 1_555 1_555
S4 O12 1_555 1_555
C1 S1 1_555 1_555
C2 C1 1_555 1_555
H11 C2 1_555 1_555
C3 C2 1_555 1_555
C4 C3 1_555 1_555
H12 C4 1_555 1_555
C5 O7 1_555 1_555
C6 O8 1_555 1_555
C7 S3 1_555 1_555
C8 C7 1_555 1_555
H13 C8 1_555 1_555
C9 S4 1_555 1_555
C10 C9 1_555 1_555
H14 C10 1_555 1_555
C11 O15 1_555 1_555
C12 O16 1_555 1_555
C13 H15 1_555 1_555
C14 C13 1_555 1_555
H16 C14 1_555 1_555
C15 C14 1_555 1_555
H17 C15 1_555 1_555
C16 C15 1_555 1_555
C17 N1 1_555 1_555
C18 N2 1_555 1_555
C19 C18 1_555 1_555
C20 C19 1_555 1_555
H18 C20 1_555 1_555
C21 C20 1_555 1_555
H19 C21 1_555 1_555
C22 N2 1_555 1_555
H20 C22 1_555 1_555
C23 C16 1_555 1_555
H21 C23 1_555 1_555
C24 C19 1_555 1_555
H22 C24 1_555 1_555
C25 H23 1_555 1_555
C26 C25 1_555 1_555
H24 C26 1_555 1_555
C27 C26 1_555 1_555
H25 C27 1_555 1_555
C28 C27 1_555 1_555
C29 N3 1_555 1_555
C30 N4 1_555 1_555
C31 C30 1_555 1_555
C32 C31 1_555 1_555
H26 C32 1_555 1_555
C33 C32 1_555 1_555
H27 C33 1_555 1_555
C34 N4 1_555 1_555
H28 C34 1_555 1_555
C35 C28 1_555 1_555
H29 C35 1_555 1_555
C36 C31 1_555 1_555
H30 C36 1_555 1_555
C37 H31 1_555 1_555
C38 C37 1_555 1_555
H32 C38 1_555 1_555
C39 C38 1_555 1_555
H33 C39 1_555 1_555
C40 C39 1_555 1_555
C41 N5 1_555 1_555
C42 N6 1_555 1_555
C43 C42 1_555 1_555
C44 C43 1_555 1_555
H34 C44 1_555 1_555
C45 C44 1_555 1_555
H35 C45 1_555 1_555
C46 N6 1_555 1_555
H36 C46 1_555 1_555
C47 C40 1_555 1_555
H37 C47 1_555 1_555
C48 C43 1_555 1_555
H38 C48 1_555 1_555
N7 H39 1_555 1_555
N8 C54 1_555 1_555
C49 N7 1_555 1_555
H40 C49 1_555 1_555
C50 C49 1_555 1_555
H41 C50 1_555 1_555
C51 C50 1_555 1_555
H42 C51 1_555 1_555
C52 C51 1_555 1_555
C53 N7 1_555 1_555
C54 C53 1_555 1_555
C55 C54 1_555 1_555
C56 C55 1_555 1_555
H43 C56 1_555 1_555
C57 C56 1_555 1_555
H44 C57 1_555 1_555
C58 N8 1_555 1_555
H45 C58 1_555 1_555
C59 C52 1_555 1_555
H46 C59 1_555 1_555
C60 C55 1_555 1_555
H47 C60 1_555 1_555
N9 H48 1_555 1_555
N10 H49 1_555 1_555
H49 C66A 1_555 1_555
C61 N9 1_555 1_555
C62 N10 1_555 1_555
H50 C62 1_555 1_555
C63 C62 1_555 1_555
H51 C63 1_555 1_555
C64 N9 1_555 1_555
H52 C64 1_555 1_555
C65 N9 1_555 1_555
H53 C65 1_555 1_555
C66 C65 1_555 1_555
H54 C66 1_555 1_555
O22 H55 1_555 1_555
H56 O22 1_555 1_555
O23 H57 1_555 1_555
H58 O23 1_555 1_555
O24 H59 1_555 1_555
H60 O24 1_555 1_555
O25 H61 1_555 1_555
H62 O25 1_555 1_555
O26 H63 1_555 1_555
H64 O26 1_555 1_555
O27 H65 1_555 1_555
H66 O27 1_555 1_555
O28 H67 1_555 1_555
H68 O28 1_555 1_555
O29 H69 1_555 1_555
H70 O29 1_555 1_555
N9A H48A 1_555 1_555
N10A C66 1_555 1_555
H49A C66 1_555 1_555
C61A C61 1_555 1_555
C62A N10A 1_555 1_555
H50A C62A 1_555 1_555
C63A C62A 1_555 1_555
H51A C63A 1_555 1_555
C64A N9A 1_555 1_555
H52A C64A 1_555 1_555
C65A N9A 1_555 1_555
H53A C65A 1_555 1_555
C66A N10 1_555 1_555
H54A C66A 1_555 1_555
Sr2 O8 1_555 1_555
Sr2 O16 1_555 1_555
O2 S1 1_555 1_555
O10 S3 1_555 1_555
C1 C6 1_555 1_555
C4 C5 1_555 1_555
C5 C6 1_555 1_555
C7 C12 1_555 1_555
C8 C9 1_555 1_555
C10 C11 1_555 1_555
C11 C12 1_555 1_555
C16 C17 1_555 1_555
C17 C18 1_555 1_555
C21 C22 1_555 1_555
C23 C24 1_555 1_555
C28 C29 1_555 1_555
C29 C30 1_555 1_555
C33 C34 1_555 1_555
C35 C36 1_555 1_555
C40 C41 1_555 1_555
C41 C42 1_555 1_555
C45 C46 1_555 1_555
C47 C48 1_555 1_555
C52 C53 1_555 1_555
C57 C58 1_555 1_555
C59 C60 1_555 1_555
N10 C61 1_555 1_555
C63 C64 1_555 1_555
N9A C61A 1_555 1_555
N10A H49A 1_555 1_555
N10A C61A 1_555 1_555
C63A C64A 1_555 1_555
C65A C66A 1_555 1_555

#END
