
#######################################################################
#
#                 Cambridge Crystallographic Data Centre
#                                CCDC 
#
#######################################################################
#
# If this CIF has been generated from an entry in the Cambridge 
# Structural Database, then it will include bibliographic, chemical, 
# crystal, experimental, refinement or atomic coordinate data resulting 
# from the CCDC's data processing and validation procedures.
#
#######################################################################

data_MULBOK
_chemical_compound_source        'whole plant of Huperzia serrata'
_chemical_formula_moiety         'C15 H21 N1 O3'
_chemical_name_systematic        'Huperzine R'
_chemical_properties_biological  
'less pronounced inhibition of AChE activity, in vitro, than huperzine A'
_symmetry_cell_setting           monoclinic
_symmetry_space_group_name_H-M   'P 21'
_symmetry_Int_Tables_number      4
_space_group_name_Hall           'P 2yb'
loop_
_symmetry_equiv_pos_site_id
_symmetry_equiv_pos_as_xyz
1 x,y,z
2 -x,1/2+y,-z
_cell_length_a                   8.500(1)
_cell_length_b                   7.7250(9)
_cell_length_c                   10.650(1)
_cell_angle_alpha                90
_cell_angle_beta                 106.21(1)
_cell_angle_gamma                90
_cell_volume                     671.505
_exptl_crystal_colour            colorless
_exptl_crystal_description       prismatic
_chemical_melting_point          189-191deg.C
_cell_formula_units_Z            2
_exptl_crystal_recrystallization_method 'petroleum ether/acetone'
loop_
_atom_site_label
_atom_site_type_symbol
_atom_site_fract_x
_atom_site_fract_y
_atom_site_fract_z
O1 O -0.0016(2) 0.2599 0.5256(1)
O2 O -0.1603(2) 0.2851 0.6594(1)
O3 O 0.2807(2) 0.4925(2) 0.8652(1)
N1 N 0.4560(2) 0.3167(3) 0.8038(1)
C1 C 0.4660(2) 0.4433(3) 0.7033(2)
C2 C 0.3110(2) 0.4603(3) 0.5886(2)
C3 C 0.2640(2) 0.3081(3) 0.4939(2)
C4 C 0.1500(2) 0.1725(3) 0.5271(2)
C5 C -0.0382(2) 0.2275(3) 0.6395(2)
C6 C 0.0892(2) 0.1143(3) 0.7214(2)
C7 C 0.0793(2) 0.0564(3) 0.8537(2)
C8 C 0.5651(2) 0.1665(4) 0.8203(2)
C9 C 0.5119(3) 0.0342(3) 0.7111(2)
C10 C 0.3409(3) -0.0427(3) 0.6928(2)
C11 C 0.1993(2) 0.0814(3) 0.6568(2)
C12 C 0.3548(2) 0.3543(3) 0.8778(2)
C13 C 0.3294(2) 0.2250(3) 0.9789(2)
C14 C 0.1476(2) 0.1883(3) 0.9633(2)
C15 C 0.1225(3) 0.1210(4) 1.0916(2)
H1 H 0.4821 0.5590 0.7487
H2 H 0.5593 0.4069 0.6704
H3 H 0.3296 0.5491 0.5433
H4 H 0.2144 0.4915 0.6234
H5 H 0.3614 0.2516 0.4804
H6 H 0.1972 0.3512 0.4048
H7 H 0.1264 0.0886 0.4619
H8 H -0.0385 0.0353 0.8479
H9 H 0.1410 -0.0472 0.8789
H10 H 0.5737 0.1144 0.9128
H11 H 0.6827 0.2106 0.8214
H12 H 0.5963 -0.0583 0.7297
H13 H 0.5225 0.0869 0.6306
H14 H 0.3332 -0.1069 0.7740
H15 H 0.3160 -0.1227 0.6206
H16 H 0.3836 0.1094 0.9764
H17 H 0.3746 0.2876 1.0671
H18 H 0.0912 0.2955 0.9421
H19 H 0.0046 0.1070 1.0879
H20 H 0.1685 0.2041 1.1684
H21 H 0.1859 0.0013 1.1172
loop_
_geom_bond_atom_site_label_1
_geom_bond_atom_site_label_2
_geom_bond_site_symmetry_1
_geom_bond_site_symmetry_2
O1 C4 1_555 1_555
O2 C5 1_555 1_555
O3 C12 1_555 1_555
N1 C1 1_555 1_555
C1 C2 1_555 1_555
C2 C3 1_555 1_555
C3 C4 1_555 1_555
C4 C11 1_555 1_555
C5 O1 1_555 1_555
C6 C5 1_555 1_555
C7 C6 1_555 1_555
C8 N1 1_555 1_555
C9 C8 1_555 1_555
C10 C9 1_555 1_555
C11 C6 1_555 1_555
C12 N1 1_555 1_555
C13 C12 1_555 1_555
C14 C7 1_555 1_555
C15 C14 1_555 1_555
H1 C1 1_555 1_555
H2 C1 1_555 1_555
H3 C2 1_555 1_555
H4 C2 1_555 1_555
H5 C3 1_555 1_555
H6 C3 1_555 1_555
H7 C4 1_555 1_555
H8 C7 1_555 1_555
H9 C7 1_555 1_555
H10 C8 1_555 1_555
H11 C8 1_555 1_555
H12 C9 1_555 1_555
H13 C9 1_555 1_555
H14 C10 1_555 1_555
H15 C10 1_555 1_555
H16 C13 1_555 1_555
H17 C13 1_555 1_555
H18 C14 1_555 1_555
H19 C15 1_555 1_555
H20 C15 1_555 1_555
H21 C15 1_555 1_555
C10 C11 1_555 1_555
C13 C14 1_555 1_555

#END
