
#######################################################################
#
#                 Cambridge Crystallographic Data Centre
#                                CCDC 
#
#######################################################################
#
# If this CIF has been generated from an entry in the Cambridge 
# Structural Database, then it will include bibliographic, chemical, 
# crystal, experimental, refinement or atomic coordinate data resulting 
# from the CCDC's data processing and validation procedures.
#
#######################################################################

data_MULBIG
_chemical_formula_moiety         'C13 H7 F5 N2 O1'
_chemical_name_systematic        
2-((Pentafluorophenyl)carbonohydrazonoyl)phenol
_symmetry_cell_setting           monoclinic
_symmetry_space_group_name_H-M   'P 21/n'
_symmetry_Int_Tables_number      14
_space_group_name_Hall           '-P 2yn'
loop_
_symmetry_equiv_pos_site_id
_symmetry_equiv_pos_as_xyz
1 x,y,z
2 1/2-x,1/2+y,1/2-z
3 -x,-y,-z
4 1/2+x,1/2-y,1/2+z
_cell_length_a                   7.095(4)
_cell_length_b                   23.681(15)
_cell_length_c                   7.104(4)
_cell_angle_alpha                90
_cell_angle_beta                 102.747(8)
_cell_angle_gamma                90
_cell_volume                     1164.17
_exptl_crystal_colour            white
_exptl_crystal_description       block
_cell_formula_units_Z            4
loop_
_atom_site_label
_atom_site_type_symbol
_atom_site_fract_x
_atom_site_fract_y
_atom_site_fract_z
F1 F -0.3056(4) 0.23407(12) 0.4538(5)
F2 F 0.1225(5) 0.08192(13) 0.4388(5)
F3 F -0.1822(5) 0.01486(13) 0.2918(5)
F4 F -0.6035(5) 0.16802(15) 0.2944(5)
F5 F -0.5476(5) 0.05760(14) 0.2137(5)
C1 C -0.0809(8) 0.1599(2) 0.4481(7)
C2 C -0.4257(7) 0.1462(2) 0.3307(8)
C3 C -0.2699(8) 0.1805(2) 0.4113(7)
C4 C -0.0572(8) 0.1033(2) 0.4052(8)
C5 C -0.3967(8) 0.0910(2) 0.2898(8)
C6 C -0.2118(8) 0.0687(2) 0.3294(8)
C7 C 0.2682(7) 0.3297(2) 0.4280(7)
C8 C 0.1305(8) 0.4193(2) 0.2976(8)
H1 H 0.0231 0.4412 0.2450
C9 C 0.4526(8) 0.3540(2) 0.4565(8)
H2 H 0.5608 0.3325 0.5104
C10 C 0.3135(9) 0.4421(2) 0.3270(8)
H3 H 0.3280 0.4796 0.2939
C11 C 0.1073(8) 0.3634(2) 0.3470(7)
C12 C 0.4757(8) 0.4105(2) 0.4044(8)
H4 H 0.5983 0.4263 0.4219
O1 O -0.0766(5) 0.34234(16) 0.3160(6)
H5 H -0.0728 0.3092 0.3501
N1 N 0.0856(6) 0.24700(18) 0.4568(6)
N2 N 0.0787(6) 0.19286(19) 0.5275(6)
H6 H 0.1701 0.1800 0.6177
C13 C 0.2506(7) 0.2719(2) 0.4871(7)
H7 H 0.3608 0.2524 0.5482
loop_
_geom_bond_atom_site_label_1
_geom_bond_atom_site_label_2
_geom_bond_site_symmetry_1
_geom_bond_site_symmetry_2
F1 C3 1_555 1_555
F2 C4 1_555 1_555
F3 C6 1_555 1_555
F4 C2 1_555 1_555
F5 C5 1_555 1_555
C1 C3 1_555 1_555
C2 C3 1_555 1_555
C4 C1 1_555 1_555
C5 C2 1_555 1_555
C6 C4 1_555 1_555
C7 C9 1_555 1_555
C8 H1 1_555 1_555
C9 H2 1_555 1_555
C10 C8 1_555 1_555
H3 C10 1_555 1_555
C11 C7 1_555 1_555
C12 C9 1_555 1_555
H4 C12 1_555 1_555
O1 C11 1_555 1_555
H5 O1 1_555 1_555
N1 N2 1_555 1_555
N2 C1 1_555 1_555
H6 N2 1_555 1_555
C13 C7 1_555 1_555
H7 C13 1_555 1_555
C5 C6 1_555 1_555
C8 C11 1_555 1_555
C10 C12 1_555 1_555
N1 C13 1_555 1_555

#END
