
#######################################################################
#
#                 Cambridge Crystallographic Data Centre
#                                CCDC 
#
#######################################################################
#
# If this CIF has been generated from an entry in the Cambridge 
# Structural Database, then it will include bibliographic, chemical, 
# crystal, experimental, refinement or atomic coordinate data resulting 
# from the CCDC's data processing and validation procedures.
#
#######################################################################

data_MULCAX
_chemical_compound_source        'roots of Ferula foetida'
_chemical_name_common            '3,4,5-Trimethyl-2-thiophenecarboxylic acid'
_chemical_formula_moiety         'C8 H10 O2 S1'
_chemical_name_systematic        'Foetithiophene A'
_chemical_properties_biological  'source plant used in folk medicine'
_symmetry_cell_setting           triclinic
_symmetry_space_group_name_H-M   'P -1'
_symmetry_Int_Tables_number      2
_space_group_name_Hall           '-P 1'
loop_
_symmetry_equiv_pos_site_id
_symmetry_equiv_pos_as_xyz
1 x,y,z
2 -x,-y,-z
_cell_length_a                   6.8620(7)
_cell_length_b                   7.8200(9)
_cell_length_c                   8.4580(8)
_cell_angle_alpha                81.359(6)
_cell_angle_beta                 69.751(5)
_cell_angle_gamma                83.153(4)
_cell_volume                     419.873
_exptl_crystal_colour            colorless
_exptl_crystal_description       cube
_chemical_melting_point          166.0-166.5deg.C
_cell_formula_units_Z            2
_exptl_crystal_recrystallization_method 'n-hexane/ethyl acetate'
loop_
_atom_site_label
_atom_site_type_symbol
_atom_site_fract_x
_atom_site_fract_y
_atom_site_fract_z
S1 S 0.28950(9) 0.14612(8) 0.44174(8)
O1 O -0.1351(3) 0.1255(3) 0.8921(3)
O2 O 0.1986(3) 0.0231(3) 0.7936(3)
C1 C 0.0518(4) 0.1793(3) 0.5996(3)
C2 C 0.1942(4) 0.2534(4) 0.2897(3)
C3 C 0.0287(4) 0.1074(3) 0.7735(3)
C4 C -0.0938(4) 0.2697(3) 0.5356(3)
C5 C -0.0115(4) 0.3121(3) 0.3561(3)
C6 C -0.3145(5) 0.3213(4) 0.6369(4)
C7 C 0.3354(7) 0.2739(5) 0.1066(4)
C8 C -0.1363(7) 0.4098(5) 0.2525(5)
H1 H -0.385(5) 0.384(4) 0.563(4)
H2 H -0.317(5) 0.393(4) 0.721(4)
H3 H -0.384(5) 0.218(4) 0.692(4)
H4 H 0.274(7) 0.300(5) 0.038(5)
H5 H 0.399(6) 0.137(4) 0.054(4)
H6 H 0.379(6) 0.370(5) 0.075(4)
H7 H -0.232(7) 0.505(5) 0.318(4)
H8 H -0.241(6) 0.365(5) 0.275(5)
H9 H -0.113(8) 0.460(5) 0.183(5)
H10 H 0.184(5) -0.029(4) 0.904(5)
loop_
_geom_bond_atom_site_label_1
_geom_bond_atom_site_label_2
_geom_bond_site_symmetry_1
_geom_bond_site_symmetry_2
S1 C1 1_555 1_555
O1 C3 1_555 1_555
O2 C3 1_555 1_555
C1 C3 1_555 1_555
C2 S1 1_555 1_555
C4 C1 1_555 1_555
C5 C2 1_555 1_555
C6 C4 1_555 1_555
C7 C2 1_555 1_555
C8 C5 1_555 1_555
H1 C6 1_555 1_555
H2 C6 1_555 1_555
H3 C6 1_555 1_555
H4 C7 1_555 1_555
H5 C7 1_555 1_555
H6 C7 1_555 1_555
H7 C8 1_555 1_555
H8 C8 1_555 1_555
H9 C8 1_555 1_555
H10 O2 1_555 1_555
C4 C5 1_555 1_555

#END
