
#######################################################################
#
#                 Cambridge Crystallographic Data Centre
#                                CCDC 
#
#######################################################################
#
# If this CIF has been generated from an entry in the Cambridge 
# Structural Database, then it will include bibliographic, chemical, 
# crystal, experimental, refinement or atomic coordinate data resulting 
# from the CCDC's data processing and validation procedures.
#
#######################################################################

data_MULQEQ
_chemical_formula_moiety         'C27 H25 N1 O2'
_chemical_name_systematic        
3-Benzyl-5,6-diphenyl-4a,5,6,8a-tetrahydro-1H-2,3-benzoxazin-4(3H)-one
_symmetry_cell_setting           orthorhombic
_symmetry_space_group_name_H-M   'P n a 21'
_symmetry_Int_Tables_number      33
_space_group_name_Hall           'P 2c -2n'
loop_
_symmetry_equiv_pos_site_id
_symmetry_equiv_pos_as_xyz
1 x,y,z
2 1/2-x,1/2+y,1/2+z
3 1/2+x,1/2-y,z
4 -x,-y,1/2+z
_cell_length_a                   14.148(4)
_cell_length_b                   26.549(8)
_cell_length_c                   5.6014(12)
_cell_angle_alpha                90
_cell_angle_beta                 90
_cell_angle_gamma                90
_cell_volume                     2103.97
_exptl_crystal_colour            colorless
_exptl_crystal_description       needle
_cell_formula_units_Z            4
loop_
_atom_site_label
_atom_site_type_symbol
_atom_site_fract_x
_atom_site_fract_y
_atom_site_fract_z
O1 O 0.30425(10) 0.23307(6) 0.2852(2)
O2 O 0.51385(10) 0.24126(6) 0.6031(3)
N1 N 0.39094(11) 0.21766(6) 0.3815(3)
C1 C 0.40676(12) 0.31800(6) 0.8451(3)
C2 C 0.33336(12) 0.35839(8) 0.9289(3)
C3 C 0.23569(13) 0.33627(9) 0.9425(3)
C4 C 0.20973(13) 0.29450(9) 0.8352(3)
C5 C 0.27584(12) 0.26206(8) 0.6954(3)
C6 C 0.23291(13) 0.24100(9) 0.4666(3)
C7 C 0.43336(13) 0.24942(8) 0.5357(3)
C8 C 0.36813(12) 0.28950(6) 0.6307(3)
C9 C 0.50475(12) 0.33970(6) 0.8153(3)
C10 C 0.57186(12) 0.33237(6) 0.9912(3)
C11 C 0.66254(13) 0.35133(8) 0.9691(4)
C12 C 0.68749(13) 0.37845(8) 0.7712(3)
C13 C 0.62212(13) 0.38653(6) 0.5944(3)
C14 C 0.53143(12) 0.36736(6) 0.6165(3)
C15 C 0.33414(14) 0.40633(8) 0.7881(3)
C16 C 0.39190(17) 0.44620(9) 0.8582(4)
C17 C 0.3965(2) 0.48930(12) 0.7258(7)
C18 C 0.3459(2) 0.49490(13) 0.5211(7)
C19 C 0.2866(2) 0.45670(13) 0.4525(5)
C20 C 0.28010(17) 0.41270(9) 0.5846(4)
C21 C 0.43821(16) 0.17729(9) 0.2520(3)
C22 C 0.43402(14) 0.12732(9) 0.3760(3)
C23 C 0.37536(14) 0.08906(10) 0.3031(4)
C24 C 0.37216(17) 0.04363(10) 0.4209(4)
C25 C 0.4282(2) 0.03568(11) 0.6160(5)
C26 C 0.4866(2) 0.07360(12) 0.6909(5)
C27 C 0.4897(2) 0.11864(10) 0.5732(5)
H1 H 0.4112 0.2934 0.9749
H2 H 0.3509 0.3675 1.0926
H3 H 0.1907 0.3533 1.0328
H4 H 0.1468 0.2846 0.8470
H5 H 0.2927 0.2333 0.7966
H6 H 0.3549 0.3137 0.5027
H7 H 0.5557 0.3143 1.1274
H8 H 0.7067 0.3456 1.0891
H9 H 0.7484 0.3913 0.7567
H10 H 0.6387 0.4049 0.4595
H11 H 0.4877 0.3732 0.4957
H12 H 0.4277 0.4434 0.9968
H13 H 0.4352 0.5155 0.7769
H14 H 0.3514 0.5240 0.4297
H15 H 0.2502 0.4604 0.3153
H16 H 0.2391 0.3873 0.5361
H17 H 0.3368 0.0940 0.1707
H18 H 0.3319 0.0183 0.3676
H19 H 0.4266 0.0051 0.6966
H20 H 0.5248 0.0686 0.8240
H21 H 0.5301 0.1438 0.6272
H22 H 0.2025 0.2091 0.5020
H23 H 0.1863 0.2646 0.4067
H24 H 0.5041 0.1865 0.2313
H25 H 0.4085 0.1739 0.0968
loop_
_geom_bond_atom_site_label_1
_geom_bond_atom_site_label_2
_geom_bond_site_symmetry_1
_geom_bond_site_symmetry_2
O1 N1 1_555 1_555
O2 C7 1_555 1_555
N1 C7 1_555 1_555
C1 C2 1_555 1_555
C2 C3 1_555 1_555
C3 C4 1_555 1_555
C4 C5 1_555 1_555
C5 C6 1_555 1_555
C6 O1 1_555 1_555
C7 C8 1_555 1_555
C8 C1 1_555 1_555
C9 C1 1_555 1_555
C10 C9 1_555 1_555
C11 C10 1_555 1_555
C12 C11 1_555 1_555
C13 C12 1_555 1_555
C14 C9 1_555 1_555
C15 C2 1_555 1_555
C16 C15 1_555 1_555
C17 C16 1_555 1_555
C18 C17 1_555 1_555
C19 C18 1_555 1_555
C20 C15 1_555 1_555
C21 N1 1_555 1_555
C22 C21 1_555 1_555
C23 C22 1_555 1_555
C24 C23 1_555 1_555
C25 C24 1_555 1_555
C26 C25 1_555 1_555
C27 C22 1_555 1_555
H1 C1 1_555 1_555
H2 C2 1_555 1_555
H3 C3 1_555 1_555
H4 C4 1_555 1_555
H5 C5 1_555 1_555
H6 C8 1_555 1_555
H7 C10 1_555 1_555
H8 C11 1_555 1_555
H9 C12 1_555 1_555
H10 C13 1_555 1_555
H11 C14 1_555 1_555
H12 C16 1_555 1_555
H13 C17 1_555 1_555
H14 C18 1_555 1_555
H15 C19 1_555 1_555
H16 C20 1_555 1_555
H17 C23 1_555 1_555
H18 C24 1_555 1_555
H19 C25 1_555 1_555
H20 C26 1_555 1_555
H21 C27 1_555 1_555
H22 C6 1_555 1_555
H23 C6 1_555 1_555
H24 C21 1_555 1_555
H25 C21 1_555 1_555
C5 C8 1_555 1_555
C13 C14 1_555 1_555
C19 C20 1_555 1_555
C26 C27 1_555 1_555

#END
