
#######################################################################
#
#                 Cambridge Crystallographic Data Centre
#                                CCDC 
#
#######################################################################
#
# If this CIF has been generated from an entry in the Cambridge 
# Structural Database, then it will include bibliographic, chemical, 
# crystal, experimental, refinement or atomic coordinate data resulting 
# from the CCDC's data processing and validation procedures.
#
#######################################################################

data_MULSET
_chemical_formula_moiety         'C18 H23 N1 O4'
_chemical_name_systematic        
"(1S*,2R*,4S*)-ethyl 2-methyl-2-nitro-3',4'-dihydro-2'H-spiro[cyclopentane-1,1'-naphthalene]-4-carboxylate"
_symmetry_cell_setting           triclinic
_symmetry_space_group_name_H-M   'P -1'
_symmetry_Int_Tables_number      2
_space_group_name_Hall           '-P 1'
loop_
_symmetry_equiv_pos_site_id
_symmetry_equiv_pos_as_xyz
1 x,y,z
2 -x,-y,-z
_cell_length_a                   6.7207(5)
_cell_length_b                   8.6835(6)
_cell_length_c                   15.0774(11)
_cell_angle_alpha                93.361(6)
_cell_angle_beta                 95.180(6)
_cell_angle_gamma                109.347(7)
_cell_volume                     823.147
_exptl_crystal_colour            colorless
_exptl_crystal_description       platelet
_chemical_melting_point          '365-367 K'
_cell_formula_units_Z            2
_exptl_crystal_recrystallization_method 'hexane/ethyl acetate'
loop_
_atom_site_label
_atom_site_type_symbol
_atom_site_fract_x
_atom_site_fract_y
_atom_site_fract_z
O1 O 0.5976(3) 0.2127(2) 0.51231(10)
O2 O 0.2820(2) 0.1213(2) 0.44510(10)
O3 O 0.2206(3) -0.0653(2) 0.10752(11)
O4 O -0.0850(2) -0.0941(2) 0.16098(10)
N1 N 0.4737(3) 0.1636(2) 0.44441(11)
C1 C 1.0380(3) 0.5353(3) 0.20036(14)
H1 H 1.1592 0.6273 0.2144
C2 C 1.0139(4) 0.4417(3) 0.12147(15)
H2 H 1.1172 0.4705 0.0826
C3 C 0.8361(3) 0.3048(3) 0.09990(14)
H3 H 0.8185 0.2402 0.0464
C4 C 0.6833(3) 0.2641(3) 0.15859(12)
H4 H 0.5629 0.1718 0.1436
C5 C 0.7053(3) 0.3579(2) 0.23961(12)
C6 C 0.8871(3) 0.4974(2) 0.26038(13)
C7 C 0.9229(4) 0.6150(3) 0.34299(16)
H5 H 0.9087 0.7166 0.3249
H6 H 1.0674 0.6398 0.3706
C8 C 0.7728(4) 0.5523(3) 0.41206(14)
H7 H 0.8221 0.4802 0.4480
H8 H 0.7699 0.6437 0.4515
C9 C 0.5517(3) 0.4602(3) 0.36608(14)
H9 H 0.5039 0.5343 0.3312
H10 H 0.4565 0.4262 0.4114
C10 C 0.5349(3) 0.3079(2) 0.30413(12)
C11 C 0.5620(3) 0.1583(2) 0.35386(11)
C12 C 0.4132(3) 0.0066(2) 0.29662(12)
H11 H 0.3681 -0.0848 0.3328
H12 H 0.4849 -0.0236 0.2490
C13 C 0.2217(3) 0.0481(2) 0.25749(12)
H13 H 0.1137 0.0214 0.2990
C14 C 0.3068(3) 0.2361(2) 0.25387(13)
H14 H 0.2142 0.2850 0.2815
H15 H 0.3088 0.2615 0.1921
C15 C 0.7847(3) 0.1520(3) 0.37262(14)
H16 H 0.8745 0.2518 0.4065
H17 H 0.8398 0.1397 0.3171
H18 H 0.7806 0.0606 0.4062
C16 C 0.1239(3) -0.0419(3) 0.16704(14)
C17 C -0.1997(4) -0.1832(4) 0.07645(17)
H19 H -0.2148 -0.1061 0.0345
H20 H -0.1206 -0.2466 0.0509
C18 C -0.4043(4) -0.2898(4) 0.0913(2)
H21 H -0.4762 -0.3527 0.0362
H22 H -0.4856 -0.2259 0.1127
H23 H -0.3889 -0.3624 0.1349
loop_
_geom_bond_atom_site_label_1
_geom_bond_atom_site_label_2
_geom_bond_site_symmetry_1
_geom_bond_site_symmetry_2
O1 N1 1_555 1_555
O2 N1 1_555 1_555
O3 C16 1_555 1_555
O4 C16 1_555 1_555
N1 C11 1_555 1_555
C1 H1 1_555 1_555
C2 C1 1_555 1_555
H2 C2 1_555 1_555
C3 C2 1_555 1_555
H3 C3 1_555 1_555
C4 C3 1_555 1_555
H4 C4 1_555 1_555
C5 C4 1_555 1_555
C6 C1 1_555 1_555
C7 C6 1_555 1_555
H5 C7 1_555 1_555
H6 C7 1_555 1_555
C8 C7 1_555 1_555
H7 C8 1_555 1_555
H8 C8 1_555 1_555
C9 C8 1_555 1_555
H9 C9 1_555 1_555
H10 C9 1_555 1_555
C10 C5 1_555 1_555
C11 C10 1_555 1_555
C12 C11 1_555 1_555
H11 C12 1_555 1_555
H12 C12 1_555 1_555
C13 C12 1_555 1_555
H13 C13 1_555 1_555
C14 C10 1_555 1_555
H14 C14 1_555 1_555
H15 C14 1_555 1_555
C15 C11 1_555 1_555
H16 C15 1_555 1_555
H17 C15 1_555 1_555
H18 C15 1_555 1_555
C16 C13 1_555 1_555
C17 O4 1_555 1_555
H19 C17 1_555 1_555
H20 C17 1_555 1_555
C18 C17 1_555 1_555
H21 C18 1_555 1_555
H22 C18 1_555 1_555
H23 C18 1_555 1_555
C5 C6 1_555 1_555
C9 C10 1_555 1_555
C13 C14 1_555 1_555

#END
