
#######################################################################
#
#                 Cambridge Crystallographic Data Centre
#                                CCDC 
#
#######################################################################
#
# If this CIF has been generated from an entry in the Cambridge 
# Structural Database, then it will include bibliographic, chemical, 
# crystal, experimental, refinement or atomic coordinate data resulting 
# from the CCDC's data processing and validation procedures.
#
#######################################################################

data_MULTAP
_chemical_formula_moiety         'C29 H30 N6'
_chemical_name_systematic        
1,3-bis((3,5-dimethyl-1H-pyrazol-1-yl)methyl)-2-phenyl-2,3-dihydro-1H-perimidine
_symmetry_cell_setting           monoclinic
_symmetry_space_group_name_H-M   'P 21/n'
_symmetry_Int_Tables_number      14
_space_group_name_Hall           '-P 2yn'
loop_
_symmetry_equiv_pos_site_id
_symmetry_equiv_pos_as_xyz
1 x,y,z
2 1/2-x,1/2+y,1/2-z
3 -x,-y,-z
4 1/2+x,1/2-y,1/2+z
_cell_length_a                   10.7905(2)
_cell_length_b                   19.1349(4)
_cell_length_c                   13.3567(3)
_cell_angle_alpha                90
_cell_angle_beta                 113.4740(10)
_cell_angle_gamma                90
_cell_volume                     2529.59
_exptl_crystal_colour            colorless
_exptl_crystal_description       prism
_cell_formula_units_Z            4
loop_
_atom_site_label
_atom_site_type_symbol
_atom_site_fract_x
_atom_site_fract_y
_atom_site_fract_z
N1 N -0.1794(3) 0.00170(15) 0.0048(2)
N2 N -0.2108(3) 0.06769(14) -0.0369(2)
N3 N -0.0863(3) 0.16005(14) 0.0841(2)
N4 N 0.1058(3) 0.09579(14) 0.2075(2)
N5 N 0.2868(3) 0.01637(15) 0.4238(2)
N6 N 0.1661(3) 0.00106(14) 0.3402(2)
C1 C -0.3066(5) -0.1044(2) 0.0078(4)
H1 H -0.2152 -0.1219 0.0503
H2 H -0.3491 -0.1329 -0.0581
H3 H -0.3604 -0.1072 0.0520
C2 C -0.2993(4) -0.02970(19) -0.0240(3)
C3 C -0.4039(4) 0.0149(2) -0.0837(3)
H4 H -0.4975 0.0040 -0.1142
C4 C -0.3464(4) 0.07759(19) -0.0902(3)
C5 C -0.4056(4) 0.1455(2) -0.1427(3)
H5 H -0.3331 0.1796 -0.1295
H6 H -0.4682 0.1628 -0.1117
H7 H -0.4545 0.1386 -0.2215
C6 C -0.1039(3) 0.11882(17) -0.0143(3)
H8 H -0.1262 0.1506 -0.0776
H9 H -0.0183 0.0947 -0.0031
C7 C 0.0006(3) 0.21942(17) 0.0945(3)
C8 C -0.0511(4) 0.28038(19) 0.0403(3)
H10 H -0.1454 0.2846 -0.0016
C9 C 0.0357(4) 0.33681(19) 0.0468(3)
H11 H -0.0008 0.3792 0.0099
C10 C 0.1710(4) 0.33118(19) 0.1055(3)
H12 H 0.2279 0.3697 0.1084
C11 C 0.2288(4) 0.26905(19) 0.1622(3)
C12 C 0.1415(3) 0.21273(17) 0.1575(3)
C13 C 0.1975(3) 0.14846(18) 0.2131(3)
C14 C 0.3345(4) 0.1423(2) 0.2683(3)
H13 H 0.3721 0.1002 0.3057
C15 C 0.4194(4) 0.1981(2) 0.2697(3)
H14 H 0.5144 0.1926 0.3062
C16 C 0.3691(4) 0.2601(2) 0.2203(3)
H15 H 0.4289 0.2976 0.2250
C17 C -0.0322(3) 0.11767(17) 0.1838(3)
H16 H -0.0886 0.0744 0.1698
C18 C 0.1434(4) 0.02371(17) 0.2301(3)
H17 H 0.2270 0.0154 0.2180
H18 H 0.0713 -0.0056 0.1773
C19 C 0.3863(4) 0.0014(2) 0.6231(3)
H19 H 0.4638 0.0234 0.6149
H20 H 0.4126 -0.0447 0.6566
H21 H 0.3567 0.0307 0.6696
C20 C 0.2729(4) -0.00640(18) 0.5130(3)
C21 C 0.1459(4) -0.03541(19) 0.4880(3)
H22 H 0.1127 -0.0551 0.5378
C22 C 0.0782(4) -0.02984(17) 0.3770(3)
C23 C -0.0602(4) -0.0523(2) 0.3038(3)
H23 H -0.0768 -0.0402 0.2282
H24 H -0.1265 -0.0286 0.3251
H25 H -0.0685 -0.1030 0.3098
C24 C -0.0485(4) 0.15632(18) 0.2775(3)
C25 C 0.0519(4) 0.15570(18) 0.3817(3)
H26 H 0.1350 0.1327 0.3948
C26 C 0.0329(5) 0.1883(2) 0.4679(3)
H27 H 0.1032 0.1880 0.5390
C27 C -0.0867(6) 0.2207(2) 0.4501(4)
H28 H -0.0998 0.2425 0.5091
C28 C -0.1892(5) 0.2221(2) 0.3465(5)
H29 H -0.2723 0.2449 0.3340
C29 C -0.1691(4) 0.1896(2) 0.2606(4)
H30 H -0.2392 0.1902 0.1895
loop_
_geom_bond_atom_site_label_1
_geom_bond_atom_site_label_2
_geom_bond_site_symmetry_1
_geom_bond_site_symmetry_2
N1 N2 1_555 1_555
N2 C4 1_555 1_555
N3 C6 1_555 1_555
N4 C13 1_555 1_555
N5 N6 1_555 1_555
N6 C18 1_555 1_555
C1 H1 1_555 1_555
H2 C1 1_555 1_555
H3 C1 1_555 1_555
C2 N1 1_555 1_555
C3 C2 1_555 1_555
H4 C3 1_555 1_555
C4 C3 1_555 1_555
C5 C4 1_555 1_555
H5 C5 1_555 1_555
H6 C5 1_555 1_555
H7 C5 1_555 1_555
C6 N2 1_555 1_555
H8 C6 1_555 1_555
H9 C6 1_555 1_555
C7 N3 1_555 1_555
C8 C7 1_555 1_555
H10 C8 1_555 1_555
C9 C8 1_555 1_555
H11 C9 1_555 1_555
C10 C9 1_555 1_555
H12 C10 1_555 1_555
C11 C10 1_555 1_555
C12 C7 1_555 1_555
C13 C12 1_555 1_555
C14 C13 1_555 1_555
H13 C14 1_555 1_555
C15 C14 1_555 1_555
H14 C15 1_555 1_555
C16 C11 1_555 1_555
H15 C16 1_555 1_555
C17 N3 1_555 1_555
H16 C17 1_555 1_555
C18 N4 1_555 1_555
H17 C18 1_555 1_555
H18 C18 1_555 1_555
C19 H19 1_555 1_555
H20 C19 1_555 1_555
H21 C19 1_555 1_555
C20 N5 1_555 1_555
C21 C20 1_555 1_555
H22 C21 1_555 1_555
C22 N6 1_555 1_555
C23 C22 1_555 1_555
H23 C23 1_555 1_555
H24 C23 1_555 1_555
H25 C23 1_555 1_555
C24 C17 1_555 1_555
C25 C24 1_555 1_555
H26 C25 1_555 1_555
C26 C25 1_555 1_555
H27 C26 1_555 1_555
C27 C26 1_555 1_555
H28 C27 1_555 1_555
C28 C27 1_555 1_555
H29 C28 1_555 1_555
C29 C24 1_555 1_555
H30 C29 1_555 1_555
N4 C17 1_555 1_555
C1 C2 1_555 1_555
C11 C12 1_555 1_555
C15 C16 1_555 1_555
C19 C20 1_555 1_555
C21 C22 1_555 1_555
C28 C29 1_555 1_555

#END
