
#######################################################################
#
#                 Cambridge Crystallographic Data Centre
#                                CCDC 
#
#######################################################################
#
# If this CIF has been generated from an entry in the Cambridge 
# Structural Database, then it will include bibliographic, chemical, 
# crystal, experimental, refinement or atomic coordinate data resulting 
# from the CCDC's data processing and validation procedures.
#
#######################################################################

data_MUMBEL01
_chemical_name_common            7-Hydroxy-4-methylcoumarin
_chemical_formula_moiety         'C10 H8 O3'
_chemical_name_systematic        7-Hydroxy-4-methyl-2H-1-benzopyran-2-one
_symmetry_cell_setting           orthorhombic
_symmetry_space_group_name_H-M   'P 21 21 21'
_symmetry_Int_Tables_number      19
_space_group_name_Hall           'P 2ac 2ab'
loop_
_symmetry_equiv_pos_site_id
_symmetry_equiv_pos_as_xyz
1 x,y,z
2 1/2-x,-y,1/2+z
3 -x,1/2+y,1/2-z
4 1/2+x,1/2-y,-z
_cell_length_a                   5.229(3)
_cell_length_b                   11.875(6)
_cell_length_c                   13.161(6)
_cell_angle_alpha                90
_cell_angle_beta                 90
_cell_angle_gamma                90
_cell_volume                     817.224
_exptl_crystal_colour            colorless
_exptl_crystal_description       columnar
_chemical_melting_point          '463-465 K'
_cell_formula_units_Z            4
_exptl_crystal_recrystallization_method 'acetone/petroleum benzine'
loop_
_atom_site_label
_atom_site_type_symbol
_atom_site_fract_x
_atom_site_fract_y
_atom_site_fract_z
O1 O -0.0817(4) 0.08023(15) 0.22571(13)
O2 O -0.1981(4) 0.10501(18) 0.06697(14)
O3 O 0.1286(5) 0.02230(17) 0.57207(14)
H1 H 0.0029 -0.0188 0.5685
C1 C -0.0515(6) 0.1327(2) 0.1341(2)
C2 C 0.1438(6) 0.2161(2) 0.1257(2)
H2 H 0.1637 0.2535 0.0641
C3 C 0.3006(6) 0.2430(2) 0.2032(2)
C4 C 0.2715(5) 0.1833(2) 0.2979(2)
C5 C 0.4233(6) 0.1998(2) 0.3841(2)
H3 H 0.5588 0.2504 0.3809
C6 C 0.3779(6) 0.1437(2) 0.4730(2)
H4 H 0.4844 0.1551 0.5286
C7 C 0.1727(6) 0.0696(2) 0.4804(2)
C8 C 0.0219(6) 0.0483(2) 0.3964(2)
H5 H -0.1127 -0.0027 0.4000
C9 C 0.0750(5) 0.1044(2) 0.30701(18)
C10 C 0.4971(6) 0.3342(2) 0.1934(2)
H6 H 0.6610 0.3057 0.2137
H7 H 0.4508 0.3965 0.2361
H8 H 0.5053 0.3589 0.1240
loop_
_geom_bond_atom_site_label_1
_geom_bond_atom_site_label_2
_geom_bond_site_symmetry_1
_geom_bond_site_symmetry_2
O1 C1 1_555 1_555
O2 C1 1_555 1_555
O3 H1 1_555 1_555
C1 C2 1_555 1_555
C2 H2 1_555 1_555
C3 C2 1_555 1_555
C4 C3 1_555 1_555
C5 C4 1_555 1_555
H3 C5 1_555 1_555
C6 C5 1_555 1_555
H4 C6 1_555 1_555
C7 O3 1_555 1_555
C8 C7 1_555 1_555
H5 C8 1_555 1_555
C9 O1 1_555 1_555
C10 C3 1_555 1_555
H6 C10 1_555 1_555
H7 C10 1_555 1_555
H8 C10 1_555 1_555
C4 C9 1_555 1_555
C6 C7 1_555 1_555
C8 C9 1_555 1_555

#END
