
#######################################################################
#
#                 Cambridge Crystallographic Data Centre
#                                CCDC 
#
#######################################################################
#
# If this CIF has been generated from an entry in the Cambridge 
# Structural Database, then it will include bibliographic, chemical, 
# crystal, experimental, refinement or atomic coordinate data resulting 
# from the CCDC's data processing and validation procedures.
#
#######################################################################

data_MUMDII
_chemical_name_common            
1,8-bis(t-Butyl(dimethyl)silyl)-11-methyl-14-oxa-11-azatetracyclo[6.5.1.0$2,7!.0$9,13!]tetradeca-2,4,6-triene-10,12-dione
_chemical_formula_moiety         'C25 H39 N1 O3 Si2'
_chemical_name_systematic        
4,9-bis(t-Butyl(dimethyl)silyl)-4,9-epoxy-3a,4,9,9a-tetrahydro-2-methyl-2H-benzo[f]isoindole-1,3-dione
_symmetry_cell_setting           triclinic
_symmetry_space_group_name_H-M   'P -1'
_symmetry_Int_Tables_number      2
_space_group_name_Hall           '-P 1'
loop_
_symmetry_equiv_pos_site_id
_symmetry_equiv_pos_as_xyz
1 x,y,z
2 -x,-y,-z
_cell_length_a                   8.0227(11)
_cell_length_b                   11.0423(14)
_cell_length_c                   15.171(2)
_cell_angle_alpha                94.253(2)
_cell_angle_beta                 90.449(2)
_cell_angle_gamma                104.816(2)
_cell_volume                     1295.22
_exptl_crystal_colour            colorless
_exptl_crystal_description       block
_chemical_melting_point          '163-167 deg.C'
_cell_formula_units_Z            2
_exptl_crystal_recrystallization_method methanol
loop_
_atom_site_label
_atom_site_type_symbol
_atom_site_fract_x
_atom_site_fract_y
_atom_site_fract_z
Si1 Si 0.23979(6) -0.08365(4) 0.18306(3)
Si2 Si 0.11277(5) 0.31541(4) 0.39103(3)
O1 O 0.17479(12) 0.11599(9) 0.28499(6)
O2 O 0.1909(2) 0.12814(13) -0.01190(8)
O3 O 0.08297(17) 0.45316(12) 0.16070(9)
N1 N 0.1508(2) 0.30736(14) 0.06161(9)
C1 C 0.23222(19) 0.08847(14) 0.19597(9)
C2 C 0.0879(2) 0.12606(14) 0.13992(10)
H1 H -0.0180 0.0548 0.1306
C3 C 0.05233(19) 0.23659(14) 0.19862(10)
H2 H -0.0705 0.2176 0.2170
C4 C 0.18009(18) 0.24877(13) 0.28105(10)
C5 C 0.35878(18) 0.29813(14) 0.24426(9)
C6 C 0.4726(2) 0.41607(15) 0.24786(11)
H3 H 0.4505 0.4844 0.2835
C7 C 0.6206(2) 0.43209(16) 0.19780(12)
H4 H 0.7030 0.5113 0.2014
C8 C 0.6488(2) 0.33363(17) 0.14290(12)
H5 H 0.7487 0.3470 0.1080
C9 C 0.5328(2) 0.21547(16) 0.13813(11)
H6 H 0.5513 0.1485 0.0997
C10 C 0.38996(19) 0.19792(14) 0.19070(10)
C11 C 0.1490(2) 0.18088(17) 0.05364(11)
C12 C 0.0946(2) 0.34709(16) 0.14190(11)
C13 C 0.2149(3) 0.3929(2) -0.00676(14)
H7 H 0.2791 0.4746 0.0211
H8 H 0.1174 0.4036 -0.0419
H9 H 0.2912 0.3579 -0.0453
C14 C 0.4118(2) -0.11675(17) 0.25721(13)
C15 C 0.3684(4) -0.0993(3) 0.35399(16)
H10 H 0.4561 -0.1197 0.3913
H11 H 0.2552 -0.1551 0.3645
H12 H 0.3658 -0.0118 0.3685
C16 C 0.5921(3) -0.0338(2) 0.2420(2)
H13 H 0.6761 -0.0554 0.2811
H14 H 0.5932 0.0547 0.2548
H15 H 0.6224 -0.0476 0.1802
C17 C 0.4185(3) -0.2529(2) 0.2357(2)
H16 H 0.5051 -0.2723 0.2744
H17 H 0.4495 -0.2644 0.1738
H18 H 0.3053 -0.3094 0.2451
C18 C 0.2818(3) -0.12385(18) 0.06513(12)
H19 H 0.2851 -0.2121 0.0573
H20 H 0.3928 -0.0700 0.0490
H21 H 0.1897 -0.1105 0.0272
C19 C 0.0225(2) -0.17665(17) 0.21335(13)
H22 H 0.0187 -0.2663 0.2078
H23 H -0.0653 -0.1610 0.1737
H24 H -0.0001 -0.1516 0.2745
C20 C 0.2366(2) 0.27456(15) 0.48637(10)
C21 C 0.2173(3) 0.35599(18) 0.57045(12)
H25 H 0.2833 0.3359 0.6194
H26 H 0.0953 0.3390 0.5854
H27 H 0.2610 0.4450 0.5602
C22 C 0.4280(2) 0.29755(19) 0.46589(12)
H28 H 0.4901 0.2772 0.5163
H29 H 0.4750 0.3860 0.4550
H30 H 0.4414 0.2442 0.4133
C23 C 0.1638(3) 0.13657(16) 0.50471(12)
H31 H 0.2292 0.1166 0.5540
H32 H 0.1736 0.0825 0.4518
H33 H 0.0423 0.1224 0.5200
C24 C 0.1566(3) 0.48929(17) 0.38822(13)
H34 H 0.0909 0.5088 0.3389
H35 H 0.2801 0.5251 0.3804
H36 H 0.1218 0.5253 0.4439
C25 C -0.1233(2) 0.2461(2) 0.40071(13)
H37 H -0.1852 0.2674 0.3506
H38 H -0.1626 0.2799 0.4560
H39 H -0.1464 0.1546 0.4006
loop_
_geom_bond_atom_site_label_1
_geom_bond_atom_site_label_2
_geom_bond_site_symmetry_1
_geom_bond_site_symmetry_2
Si1 C1 1_555 1_555
Si2 C4 1_555 1_555
O1 C1 1_555 1_555
O2 C11 1_555 1_555
O3 C12 1_555 1_555
N1 C11 1_555 1_555
C1 C2 1_555 1_555
C2 H1 1_555 1_555
C3 C2 1_555 1_555
H2 C3 1_555 1_555
C4 O1 1_555 1_555
C5 C4 1_555 1_555
C6 C5 1_555 1_555
H3 C6 1_555 1_555
C7 C6 1_555 1_555
H4 C7 1_555 1_555
C8 C7 1_555 1_555
H5 C8 1_555 1_555
C9 C8 1_555 1_555
H6 C9 1_555 1_555
C10 C1 1_555 1_555
C11 C2 1_555 1_555
C12 N1 1_555 1_555
C13 N1 1_555 1_555
H7 C13 1_555 1_555
H8 C13 1_555 1_555
H9 C13 1_555 1_555
C14 Si1 1_555 1_555
C15 C14 1_555 1_555
H10 C15 1_555 1_555
H11 C15 1_555 1_555
H12 C15 1_555 1_555
C16 C14 1_555 1_555
H13 C16 1_555 1_555
H14 C16 1_555 1_555
H15 C16 1_555 1_555
C17 C14 1_555 1_555
H16 C17 1_555 1_555
H17 C17 1_555 1_555
H18 C17 1_555 1_555
C18 Si1 1_555 1_555
H19 C18 1_555 1_555
H20 C18 1_555 1_555
H21 C18 1_555 1_555
C19 Si1 1_555 1_555
H22 C19 1_555 1_555
H23 C19 1_555 1_555
H24 C19 1_555 1_555
C20 Si2 1_555 1_555
C21 C20 1_555 1_555
H25 C21 1_555 1_555
H26 C21 1_555 1_555
H27 C21 1_555 1_555
C22 C20 1_555 1_555
H28 C22 1_555 1_555
H29 C22 1_555 1_555
H30 C22 1_555 1_555
C23 C20 1_555 1_555
H31 C23 1_555 1_555
H32 C23 1_555 1_555
H33 C23 1_555 1_555
C24 Si2 1_555 1_555
H34 C24 1_555 1_555
H35 C24 1_555 1_555
H36 C24 1_555 1_555
C25 Si2 1_555 1_555
H37 C25 1_555 1_555
H38 C25 1_555 1_555
H39 C25 1_555 1_555
C3 C4 1_555 1_555
C3 C12 1_555 1_555
C5 C10 1_555 1_555
C9 C10 1_555 1_555

#END
