
#######################################################################
#
#                 Cambridge Crystallographic Data Centre
#                                CCDC 
#
#######################################################################
#
# If this CIF has been generated from an entry in the Cambridge 
# Structural Database, then it will include bibliographic, chemical, 
# crystal, experimental, refinement or atomic coordinate data resulting 
# from the CCDC's data processing and validation procedures.
#
#######################################################################

data_MUMDEE
_chemical_name_common            
1,7,13,19-tetrakis(t-Butyl(dimethyl)silyl)-10,22-dimethyl-25,26-dioxa-10,22-diazaoctacyclo[17.5.1.1$7,13!.0$2,18!.0$3,15!.0$6,14!.0$8,12!.0$20,24!]hexacosa-2(18),3,5,14,16-pentaene-9,11,21,23-tetrone
_chemical_formula_moiety         'C48 H74 N2 O6 Si4'
_chemical_name_systematic        
4,7,11,14-tetrakis(t-Butyldimethylsilyl)-4,14;7,11-diepoxy-3a,4,7,7a,10a,11,14,14a-octahydro-2,9-dimethylnaphtho[1,2-f:5,6-f']diisoindole-1,3,8,10-tetrone
_symmetry_cell_setting           orthorhombic
_symmetry_space_group_name_H-M   'P 21 21 21'
_symmetry_Int_Tables_number      19
_space_group_name_Hall           'P 2ac 2ab'
loop_
_symmetry_equiv_pos_site_id
_symmetry_equiv_pos_as_xyz
1 x,y,z
2 1/2-x,-y,1/2+z
3 -x,1/2+y,1/2-z
4 1/2+x,1/2-y,-z
_cell_length_a                   11.799(4)
_cell_length_b                   12.598(4)
_cell_length_c                   33.550(10)
_cell_angle_alpha                90
_cell_angle_beta                 90
_cell_angle_gamma                90
_cell_volume                     4987
_exptl_crystal_colour            colorless
_exptl_crystal_description       prism
_chemical_melting_point          '111.7-114.3 deg.C'
_cell_formula_units_Z            4
loop_
_atom_site_label
_atom_site_type_symbol
_atom_site_fract_x
_atom_site_fract_y
_atom_site_fract_z
Si1 Si 0.0343(2) 1.14567(19) 0.12454(7)
Si2 Si 0.3185(2) 0.6118(2) 0.21752(7)
Si3 Si 0.4221(2) 1.10739(18) 0.03998(7)
Si4 Si 0.7152(2) 0.5642(2) 0.13637(7)
O1 O 0.1841(5) 0.5408(4) 0.10954(16)
O2 O -0.0762(5) 0.9126(5) 0.05823(16)
O3 O 0.5184(5) 0.4940(4) 0.04523(17)
O4 O 0.5127(5) 0.5892(4) 0.17447(16)
O5 O 0.2314(5) 1.1153(4) 0.08269(15)
O6 O 0.2642(5) 0.8359(4) 0.00204(16)
N1 N 0.3408(6) 0.5213(5) 0.0702(2)
N2 N 0.0885(6) 0.8521(5) 0.03075(18)
C1 C 0.3194(7) 0.7810(6) 0.1272(2)
C2 C 0.2110(6) 0.7939(6) 0.1441(2)
H1 H 0.1838 0.7420 0.1623
C3 C 0.1448(7) 0.8777(6) 0.1352(2)
H2 H 0.0709 0.8833 0.1462
C4 C 0.1857(6) 0.9560(6) 0.1098(2)
C5 C 0.2868(6) 0.9439(6) 0.0906(2)
C6 C 0.3561(7) 0.8548(6) 0.0974(2)
C7 C 0.4544(6) 0.8312(6) 0.0753(2)
H3 H 0.4717 0.8744 0.0529
C8 C 0.5261(7) 0.7497(6) 0.0844(2)
H4 H 0.5920 0.7365 0.0689
C9 C 0.4992(7) 0.6865(6) 0.1170(2)
C10 C 0.3989(6) 0.7014(6) 0.1381(2)
C11 C 0.3919(7) 0.6071(6) 0.1668(2)
C12 C 0.5565(6) 0.5896(6) 0.1339(3)
C13 C 0.3685(7) 0.5063(6) 0.1385(2)
H5 H 0.3491 0.4414 0.1543
C14 C 0.4830(7) 0.4946(7) 0.1169(2)
H6 H 0.5190 0.4248 0.1235
C15 C 0.2840(9) 0.5260(6) 0.1055(2)
C16 C 0.4537(8) 0.5003(7) 0.0734(3)
C17 C 0.2858(8) 0.5410(7) 0.0315(2)
H7 H 0.3062 0.6120 0.0220
H8 H 0.2034 0.5363 0.0346
H9 H 0.3113 0.4878 0.0122
C18 C 0.7935(8) 0.6803(8) 0.1579(3)
C19 C 0.7724(7) 0.5314(8) 0.0863(2)
H10 H 0.7633 0.5927 0.0686
H11 H 0.7312 0.4706 0.0754
H12 H 0.8530 0.5138 0.0886
C20 C 0.7301(8) 0.4462(7) 0.1693(2)
H13 H 0.8105 0.4275 0.1716
H14 H 0.6883 0.3864 0.1578
H15 H 0.6996 0.4627 0.1957
C21 C 0.7474(9) 0.7117(8) 0.1979(3)
H16 H 0.7502 0.6506 0.2159
H17 H 0.6687 0.7353 0.1949
H18 H 0.7931 0.7696 0.2089
C22 C 0.7891(9) 0.7764(8) 0.1313(3)
H19 H 0.7101 0.7984 0.1278
H20 H 0.8222 0.7590 0.1054
H21 H 0.8322 0.8343 0.1436
C23 C 0.9172(8) 0.6509(8) 0.1638(3)
H22 H 0.9573 0.7104 0.1762
H23 H 0.9517 0.6350 0.1379
H24 H 0.9223 0.5883 0.1810
C24 C 0.3978(8) 0.5278(7) 0.2550(3)
C25 C 0.3143(7) 0.7509(7) 0.2364(3)
H25 H 0.2531 0.7897 0.2231
H26 H 0.3869 0.7857 0.2309
H27 H 0.3008 0.7503 0.2653
C26 C 0.1741(7) 0.5562(7) 0.2111(2)
H28 H 0.1207 0.5955 0.2279
H29 H 0.1741 0.4812 0.2189
H30 H 0.1513 0.5624 0.1831
C27 C 0.3221(8) 0.5193(8) 0.2919(3)
H31 H 0.3626 0.4810 0.3130
H32 H 0.2526 0.4809 0.2851
H33 H 0.3027 0.5907 0.3014
C28 C 0.4188(8) 0.4155(7) 0.2394(3)
H34 H 0.4722 0.4182 0.2170
H35 H 0.3470 0.3846 0.2303
H36 H 0.4505 0.3716 0.2608
C29 C 0.5107(8) 0.5779(8) 0.2672(2)
H37 H 0.5453 0.5355 0.2885
H38 H 0.4975 0.6503 0.2768
H39 H 0.5616 0.5799 0.2441
C30 C 0.1320(7) 1.0571(7) 0.0944(2)
C31 C 0.2945(7) 1.0346(6) 0.0603(2)
C32 C 0.2003(7) 1.0049(6) 0.0285(2)
H40 H 0.2073 1.0498 0.0041
C33 C 0.0889(7) 1.0285(6) 0.0508(2)
H41 H 0.0487 1.0902 0.0386
C34 C 0.0177(9) 0.9277(7) 0.0475(2)
C35 C 0.1930(8) 0.8886(7) 0.0179(2)
C36 C 0.0520(7) 0.7410(6) 0.0262(3)
H42 H 0.0994 0.7058 0.0062
H43 H -0.0274 0.7390 0.0177
H44 H 0.0598 0.7041 0.0518
C37 C 0.5299(7) 1.1424(7) 0.0794(3)
C38 C 0.4888(7) 1.0307(7) -0.0016(2)
H45 H 0.5540 0.9909 0.0087
H46 H 0.5142 1.0798 -0.0224
H47 H 0.4332 0.9812 -0.0128
C39 C 0.3591(7) 1.2311(6) 0.0188(2)
H48 H 0.3120 1.2131 -0.0043
H49 H 0.4199 1.2792 0.0105
H50 H 0.3124 1.2659 0.0391
C40 C 0.4758(8) 1.1984(7) 0.1141(3)
H51 H 0.4276 1.1485 0.1287
H52 H 0.4297 1.2576 0.1043
H53 H 0.5350 1.2257 0.1319
C41 C 0.5964(8) 1.0475(7) 0.0957(3)
H54 H 0.6507 1.0721 0.1158
H55 H 0.6372 1.0127 0.0739
H56 H 0.5437 0.9969 0.1079
C42 C 0.6167(8) 1.2169(7) 0.0602(3)
H57 H 0.5802 1.2846 0.0537
H58 H 0.6462 1.1844 0.0358
H59 H 0.6792 1.2294 0.0789
C43 C 0.0971(9) 1.1839(8) 0.1735(3)
C44 C -0.1012(8) 1.0814(9) 0.1312(3)
H60 H -0.0922 1.0197 0.1487
H61 H -0.1304 1.0583 0.1053
H62 H -0.1547 1.1315 0.1433
C45 C 0.0163(11) 1.2674(8) 0.0940(3)
H63 H -0.0211 1.2492 0.0689
H64 H 0.0908 1.2985 0.0885
H65 H -0.0302 1.3187 0.1087
C46 C 0.2049(10) 1.2374(18) 0.1697(5)
H66 H 0.2014 1.2882 0.1477
H67 H 0.2645 1.1851 0.1645
H68 H 0.2220 1.2752 0.1946
C47 C 0.1070(17) 1.0861(11) 0.1995(3)
H69 H 0.1750 1.0461 0.1919
H70 H 0.0399 1.0413 0.1958
H71 H 0.1127 1.1075 0.2275
C48 C 0.0178(9) 1.2553(8) 0.1966(3)
H72 H 0.0442 1.2612 0.2242
H73 H -0.0587 1.2251 0.1962
H74 H 0.0166 1.3259 0.1843
loop_
_geom_bond_atom_site_label_1
_geom_bond_atom_site_label_2
_geom_bond_site_symmetry_1
_geom_bond_site_symmetry_2
Si1 C30 1_555 1_555
Si2 C11 1_555 1_555
Si3 C31 1_555 1_555
Si4 C12 1_555 1_555
O1 C15 1_555 1_555
O2 C34 1_555 1_555
O3 C16 1_555 1_555
O4 C11 1_555 1_555
O5 C30 1_555 1_555
O6 C35 1_555 1_555
N1 C15 1_555 1_555
N2 C34 1_555 1_555
C1 C2 1_555 1_555
C2 H1 1_555 1_555
C3 C2 1_555 1_555
H2 C3 1_555 1_555
C4 C3 1_555 1_555
C5 C4 1_555 1_555
C6 C1 1_555 1_555
C7 C6 1_555 1_555
H3 C7 1_555 1_555
C8 C7 1_555 1_555
H4 C8 1_555 1_555
C9 C8 1_555 1_555
C10 C1 1_555 1_555
C11 C10 1_555 1_555
C12 O4 1_555 1_555
C13 C11 1_555 1_555
H5 C13 1_555 1_555
C14 C12 1_555 1_555
H6 C14 1_555 1_555
C15 C13 1_555 1_555
C16 N1 1_555 1_555
C17 N1 1_555 1_555
H7 C17 1_555 1_555
H8 C17 1_555 1_555
H9 C17 1_555 1_555
C18 Si4 1_555 1_555
C19 Si4 1_555 1_555
H10 C19 1_555 1_555
H11 C19 1_555 1_555
H12 C19 1_555 1_555
C20 Si4 1_555 1_555
H13 C20 1_555 1_555
H14 C20 1_555 1_555
H15 C20 1_555 1_555
C21 C18 1_555 1_555
H16 C21 1_555 1_555
H17 C21 1_555 1_555
H18 C21 1_555 1_555
C22 C18 1_555 1_555
H19 C22 1_555 1_555
H20 C22 1_555 1_555
H21 C22 1_555 1_555
C23 C18 1_555 1_555
H22 C23 1_555 1_555
H23 C23 1_555 1_555
H24 C23 1_555 1_555
C24 Si2 1_555 1_555
C25 Si2 1_555 1_555
H25 C25 1_555 1_555
H26 C25 1_555 1_555
H27 C25 1_555 1_555
C26 Si2 1_555 1_555
H28 C26 1_555 1_555
H29 C26 1_555 1_555
H30 C26 1_555 1_555
C27 C24 1_555 1_555
H31 C27 1_555 1_555
H32 C27 1_555 1_555
H33 C27 1_555 1_555
C28 C24 1_555 1_555
H34 C28 1_555 1_555
H35 C28 1_555 1_555
H36 C28 1_555 1_555
C29 C24 1_555 1_555
H37 C29 1_555 1_555
H38 C29 1_555 1_555
H39 C29 1_555 1_555
C30 C4 1_555 1_555
C31 O5 1_555 1_555
C32 C31 1_555 1_555
H40 C32 1_555 1_555
C33 C30 1_555 1_555
H41 C33 1_555 1_555
C34 C33 1_555 1_555
C35 N2 1_555 1_555
C36 N2 1_555 1_555
H42 C36 1_555 1_555
H43 C36 1_555 1_555
H44 C36 1_555 1_555
C37 Si3 1_555 1_555
C38 Si3 1_555 1_555
H45 C38 1_555 1_555
H46 C38 1_555 1_555
H47 C38 1_555 1_555
C39 Si3 1_555 1_555
H48 C39 1_555 1_555
H49 C39 1_555 1_555
H50 C39 1_555 1_555
C40 C37 1_555 1_555
H51 C40 1_555 1_555
H52 C40 1_555 1_555
H53 C40 1_555 1_555
C41 C37 1_555 1_555
H54 C41 1_555 1_555
H55 C41 1_555 1_555
H56 C41 1_555 1_555
C42 C37 1_555 1_555
H57 C42 1_555 1_555
H58 C42 1_555 1_555
H59 C42 1_555 1_555
C43 Si1 1_555 1_555
C44 Si1 1_555 1_555
H60 C44 1_555 1_555
H61 C44 1_555 1_555
H62 C44 1_555 1_555
C45 Si1 1_555 1_555
H63 C45 1_555 1_555
H64 C45 1_555 1_555
H65 C45 1_555 1_555
C46 C43 1_555 1_555
H66 C46 1_555 1_555
H67 C46 1_555 1_555
H68 C46 1_555 1_555
C47 C43 1_555 1_555
H69 C47 1_555 1_555
H70 C47 1_555 1_555
H71 C47 1_555 1_555
C48 C43 1_555 1_555
H72 C48 1_555 1_555
H73 C48 1_555 1_555
H74 C48 1_555 1_555
C5 C6 1_555 1_555
C5 C31 1_555 1_555
C9 C10 1_555 1_555
C9 C12 1_555 1_555
C13 C14 1_555 1_555
C14 C16 1_555 1_555
C32 C33 1_555 1_555
C32 C35 1_555 1_555

#END
