
#######################################################################
#
#                 Cambridge Crystallographic Data Centre
#                                CCDC 
#
#######################################################################
#
# If this CIF has been generated from an entry in the Cambridge 
# Structural Database, then it will include bibliographic, chemical, 
# crystal, experimental, refinement or atomic coordinate data resulting 
# from the CCDC's data processing and validation procedures.
#
#######################################################################

data_MUMFUV
_chemical_formula_moiety         'C45 H34 O2 P2 Se2'
_chemical_name_systematic        
1,1'-Methylene-bis(2-((diphenylphosphoroselenoyl)oxy)naphthalene)
_symmetry_cell_setting           monoclinic
_symmetry_space_group_name_H-M   'C 2/c'
_symmetry_Int_Tables_number      15
_space_group_name_Hall           '-C 2yn'
loop_
_symmetry_equiv_pos_site_id
_symmetry_equiv_pos_as_xyz
1 x,y,z
2 1/2+x,1/2+y,z
3 x,-y,1/2+z
4 1/2+x,1/2-y,1/2+z
5 -x,-y,-z
6 1/2-x,1/2-y,-z
7 -x,y,1/2-z
8 1/2-x,1/2+y,1/2-z
_cell_length_a                   44.656(3)
_cell_length_b                   11.1275(9)
_cell_length_c                   15.5265(18)
_cell_angle_alpha                90
_cell_angle_beta                 99.753(8)
_cell_angle_gamma                90
_cell_volume                     7603.76
_exptl_crystal_colour            colorless
_exptl_crystal_description       plate
_chemical_melting_point          '208-210 deg.C'
_cell_formula_units_Z            8
_exptl_crystal_recrystallization_method 'dichloromethane/petroleum ether'
loop_
_atom_site_label
_atom_site_type_symbol
_atom_site_fract_x
_atom_site_fract_y
_atom_site_fract_z
Se1 Se 0.223106(9) 0.40255(4) 0.23928(3)
Se2 Se 0.045656(12) 0.92582(4) 0.38059(3)
P1 P 0.189924(18) 0.32639(7) 0.30048(5)
P2 P 0.055607(19) 0.76941(7) 0.45186(5)
O1 O 0.15779(5) 0.39739(18) 0.29263(14)
O2 O 0.08743(5) 0.70500(19) 0.44477(14)
C1 C 0.17793(7) 0.1776(3) 0.26441(19)
C2 C 0.14847(8) 0.1406(3) 0.2626(2)
H1 H 0.1340 0.1957 0.2739
C3 C 0.14019(9) 0.0228(4) 0.2444(3)
H2 H 0.1202 -0.0012 0.2433
C4 C 0.16148(10) -0.0594(3) 0.2279(2)
H3 H 0.1560 -0.1391 0.2161
C5 C 0.19068(9) -0.0237(3) 0.2288(2)
H4 H 0.2050 -0.0794 0.2173
C6 C 0.19934(8) 0.0948(3) 0.2468(2)
H5 H 0.2193 0.1185 0.2470
C7 C 0.19930(7) 0.3186(3) 0.4180(2)
C8 C 0.22353(9) 0.3818(3) 0.4629(2)
H6 H 0.2355 0.4281 0.4323
C9 C 0.23014(11) 0.3770(4) 0.5530(3)
H7 H 0.2468 0.4190 0.5826
C10 C 0.21239(11) 0.3109(4) 0.5989(3)
H8 H 0.2166 0.3091 0.6596
C11 C 0.18855(11) 0.2480(4) 0.5549(3)
H9 H 0.1766 0.2026 0.5862
C12 C 0.18175(9) 0.2499(4) 0.4650(2)
H10 H 0.1655 0.2055 0.4359
C13 C 0.14417(7) 0.4773(3) 0.22877(18)
C14 C 0.14660(8) 0.4605(3) 0.1407(2)
H11 H 0.1577 0.3965 0.1239
C15 C 0.13262(9) 0.5385(4) 0.0810(2)
H12 H 0.1348 0.5290 0.0229
C16 C 0.11484(8) 0.6341(3) 0.1034(2)
C17 C 0.09963(10) 0.7156(4) 0.0407(2)
H13 H 0.1019 0.7076 -0.0175
C18 C 0.08193(11) 0.8044(4) 0.0633(3)
H14 H 0.0726 0.8582 0.0212
C19 C 0.07753(9) 0.8156(3) 0.1504(3)
H15 H 0.0645 0.8743 0.1653
C20 C 0.09228(7) 0.7410(3) 0.2133(2)
H16 H 0.0896 0.7509 0.2709
C21 C 0.11166(6) 0.6485(3) 0.19236(18)
C22 C 0.12769(6) 0.5696(2) 0.25693(17)
C23 C 0.12514(7) 0.5803(2) 0.35283(18)
H17 H 0.1367 0.5148 0.3835
H18 H 0.1040 0.5673 0.3578
C24 C 0.13537(6) 0.6959(2) 0.40136(17)
C25 C 0.16566(6) 0.7400(3) 0.40896(18)
C26 C 0.18815(7) 0.6811(3) 0.3698(2)
H19 H 0.1831 0.6117 0.3373
C27 C 0.21728(8) 0.7254(3) 0.3793(2)
H20 H 0.2316 0.6857 0.3528
C28 C 0.22561(8) 0.8291(4) 0.4281(2)
H21 H 0.2454 0.8578 0.4344
C29 C 0.20467(8) 0.8879(3) 0.4664(2)
H22 H 0.2103 0.9572 0.4986
C30 C 0.17455(7) 0.8458(3) 0.45837(19)
C31 C 0.15296(9) 0.9034(3) 0.5008(2)
H23 H 0.1584 0.9731 0.5327
C32 C 0.12462(8) 0.8598(3) 0.4961(2)
H24 H 0.1108 0.8977 0.5257
C33 C 0.11611(7) 0.7564(3) 0.44613(19)
C34 C 0.05644(7) 0.7866(3) 0.5682(2)
C35 C 0.03733(8) 0.8685(3) 0.5982(2)
H25 H 0.0249 0.9178 0.5590
C36 C 0.03663(11) 0.8769(4) 0.6871(3)
H26 H 0.0239 0.9326 0.7073
C37 C 0.05436(10) 0.8043(4) 0.7445(3)
H27 H 0.0536 0.8098 0.8039
C38 C 0.07338(8) 0.7233(4) 0.7160(2)
H28 H 0.0856 0.6743 0.7559
C39 C 0.07447(8) 0.7142(3) 0.6273(2)
H29 H 0.0874 0.6589 0.6079
C40 C 0.03121(7) 0.6435(3) 0.4177(2)
C41 C 0.04087(9) 0.5276(3) 0.4401(2)
H30 H 0.0600 0.5154 0.4735
C42 C 0.02255(10) 0.4301(4) 0.4138(3)
H31 H 0.0294 0.3526 0.4285
C43 C -0.00541(11) 0.4478(5) 0.3663(3)
H32 H -0.0176 0.3819 0.3478
C44 C -0.01590(10) 0.5604(5) 0.3453(3)
H33 H -0.0354 0.5712 0.3138
C45 C 0.00248(9) 0.6599(4) 0.3710(3)
H34 H -0.0047 0.7370 0.3566
loop_
_geom_bond_atom_site_label_1
_geom_bond_atom_site_label_2
_geom_bond_site_symmetry_1
_geom_bond_site_symmetry_2
Se1 P1 1_555 1_555
Se2 P2 1_555 1_555
P1 O1 1_555 1_555
P2 O2 1_555 1_555
O1 C13 1_555 1_555
O2 C33 1_555 1_555
C1 P1 1_555 1_555
C2 C1 1_555 1_555
H1 C2 1_555 1_555
C3 C2 1_555 1_555
H2 C3 1_555 1_555
C4 C3 1_555 1_555
H3 C4 1_555 1_555
C5 C4 1_555 1_555
H4 C5 1_555 1_555
C6 C1 1_555 1_555
H5 C6 1_555 1_555
C7 P1 1_555 1_555
C8 C7 1_555 1_555
H6 C8 1_555 1_555
C9 C8 1_555 1_555
H7 C9 1_555 1_555
C10 C9 1_555 1_555
H8 C10 1_555 1_555
C11 C10 1_555 1_555
H9 C11 1_555 1_555
C12 C7 1_555 1_555
H10 C12 1_555 1_555
C13 C14 1_555 1_555
C14 H11 1_555 1_555
C15 C14 1_555 1_555
H12 C15 1_555 1_555
C16 C15 1_555 1_555
C17 C16 1_555 1_555
H13 C17 1_555 1_555
C18 C17 1_555 1_555
H14 C18 1_555 1_555
C19 C18 1_555 1_555
H15 C19 1_555 1_555
C20 C19 1_555 1_555
H16 C20 1_555 1_555
C21 C16 1_555 1_555
C22 C13 1_555 1_555
C23 C22 1_555 1_555
H17 C23 1_555 1_555
H18 C23 1_555 1_555
C24 C23 1_555 1_555
C25 C24 1_555 1_555
C26 C25 1_555 1_555
H19 C26 1_555 1_555
C27 C26 1_555 1_555
H20 C27 1_555 1_555
C28 C27 1_555 1_555
H21 C28 1_555 1_555
C29 C28 1_555 1_555
H22 C29 1_555 1_555
C30 C25 1_555 1_555
C31 C30 1_555 1_555
H23 C31 1_555 1_555
C32 C31 1_555 1_555
H24 C32 1_555 1_555
C33 C24 1_555 1_555
C34 P2 1_555 1_555
C35 C34 1_555 1_555
H25 C35 1_555 1_555
C36 C35 1_555 1_555
H26 C36 1_555 1_555
C37 C36 1_555 1_555
H27 C37 1_555 1_555
C38 C37 1_555 1_555
H28 C38 1_555 1_555
C39 C34 1_555 1_555
H29 C39 1_555 1_555
C40 P2 1_555 1_555
C41 C40 1_555 1_555
H30 C41 1_555 1_555
C42 C41 1_555 1_555
H31 C42 1_555 1_555
C43 C42 1_555 1_555
H32 C43 1_555 1_555
C44 C43 1_555 1_555
H33 C44 1_555 1_555
C45 C40 1_555 1_555
H34 C45 1_555 1_555
C5 C6 1_555 1_555
C11 C12 1_555 1_555
C20 C21 1_555 1_555
C21 C22 1_555 1_555
C29 C30 1_555 1_555
C32 C33 1_555 1_555
C38 C39 1_555 1_555
C44 C45 1_555 1_555

#END
