
#######################################################################
#
#                 Cambridge Crystallographic Data Centre
#                                CCDC 
#
#######################################################################
#
# If this CIF has been generated from an entry in the Cambridge 
# Structural Database, then it will include bibliographic, chemical, 
# crystal, experimental, refinement or atomic coordinate data resulting 
# from the CCDC's data processing and validation procedures.
#
#######################################################################

data_MUMFUX
_chemical_formula_moiety         '1.5(C13 H11 N1),C6 F4 I2'
_chemical_name_systematic        
'1,2,4,5-Tetrafluoro-3,6-diiodobenzene sesquikis(9-methyl-9H-carbazole)'
_symmetry_cell_setting           monoclinic
_symmetry_space_group_name_H-M   'P 21/n'
_symmetry_Int_Tables_number      14
_space_group_name_Hall           '-P 2yn'
loop_
_symmetry_equiv_pos_site_id
_symmetry_equiv_pos_as_xyz
1 x,y,z
2 1/2-x,1/2+y,1/2-z
3 -x,-y,-z
4 1/2+x,1/2-y,1/2+z
_cell_length_a                   13.313(3)
_cell_length_b                   6.2572(12)
_cell_length_c                   28.955(6)
_cell_angle_alpha                90
_cell_angle_beta                 100.735(4)
_cell_angle_gamma                90
_cell_volume                     2369.8
_cell_formula_units_Z            4
loop_
_atom_site_label
_atom_site_type_symbol
_atom_site_fract_x
_atom_site_fract_y
_atom_site_fract_z
C1 C 0.1296(7) 1.0856(15) 0.0789(3)
C2 C 0.1042(7) 1.2044(15) 0.0388(3)
C3 C 0.1241(8) 1.1421(17) -0.0030(4)
C4 C 0.1720(7) 0.9455(17) -0.0069(3)
C5 C 0.1968(8) 0.8240(17) 0.0324(4)
C6 C 0.1739(7) 0.8890(15) 0.0751(3)
F1 F 0.0574(5) 1.3955(10) 0.0407(2)
F2 F 0.0989(6) 1.2648(10) -0.0414(2)
F3 F 0.2415(5) 0.6336(9) 0.0313(2)
F4 F 0.1999(5) 0.7653(9) 0.1125(2)
I1 I 0.10713(6) 1.20198(12) 0.14334(2)
I2 I 0.21152(6) 0.84699(14) -0.06966(3)
C7 C 0.6439(7) 0.7179(15) 0.2819(3)
C8 C 0.7242(8) 0.5766(17) 0.2841(3)
H1 H 0.7156 0.4522 0.2662
C9 C 0.8176(8) 0.6194(19) 0.3128(4)
H2 H 0.8711 0.5223 0.3146
C10 C 0.8313(9) 0.808(2) 0.3388(4)
H3 H 0.8951 0.8367 0.3570
C11 C 0.7533(8) 0.9535(18) 0.3383(3)
H4 H 0.7628 1.0769 0.3565
C12 C 0.6592(8) 0.9082(16) 0.3094(3)
C13 C 0.5513(10) 1.2098(18) 0.3298(4)
H5 H 0.5239 1.1617 0.3564
H6 H 0.5028 1.3027 0.3109
H7 H 0.6139 1.2860 0.3404
C14 C 0.4988(8) 0.9168(16) 0.2707(3)
C15 C 0.3959(10) 0.974(2) 0.2538(4)
H8 H 0.3680 1.1009 0.2623
C16 C 0.3403(10) 0.830(2) 0.2243(5)
H9 H 0.2717 0.8608 0.2131
C17 C 0.3793(10) 0.640(2) 0.2097(4)
H10 H 0.3374 0.5510 0.1888
C18 C 0.4808(9) 0.5838(19) 0.2263(4)
H11 H 0.5078 0.4567 0.2173
C19 C 0.5417(7) 0.7293(15) 0.2578(3)
N1 N 0.5712(7) 1.0258(12) 0.3018(3)
C20? C 0.4944(13) 0.916(2) 0.0463(5)
C21? C 0.4771(14) 0.889(2) 0.0918(5)
H12? H 0.5010 0.7672 0.1088
C22? C 0.4239(14) 1.044(3) 0.1119(4)
H13? H 0.4124 1.0256 0.1424
C23? C 0.3882(11) 1.226(2) 0.0866(5)
H14? H 0.3526 1.3292 0.1000
C24? C 0.4055(13) 1.253(2) 0.0410(5)
H15? H 0.3816 1.3745 0.0241
C25? C 0.4586(16) 1.098(3) 0.0209(4)
C26? C 0.6043(17) 0.618(4) 0.0358(8)
H16? H 0.5802 0.5665 0.0629
H17? H 0.6754 0.6553 0.0444
H18? H 0.5961 0.5090 0.0121
N2? N 0.5476(12) 0.801(3) 0.0180(6)
C27? C 0.4938(15) 1.099(3) -0.0278(5)
C28? C 0.4867(13) 1.226(2) -0.0678(6)
H19? H 0.4526 1.3561 -0.0695
C29? C 0.5305(14) 1.157(3) -0.1052(5)
H20? H 0.5257 1.2420 -0.1319
C30? C 0.5814(14) 0.963(3) -0.1027(5)
H21? H 0.6107 0.9169 -0.1277
C31? C 0.5885(14) 0.836(2) -0.0627(6)
H22? H 0.6226 0.7059 -0.0610
C32? C 0.5447(16) 0.905(3) -0.0253(5)
loop_
_geom_bond_atom_site_label_1
_geom_bond_atom_site_label_2
_geom_bond_site_symmetry_1
_geom_bond_site_symmetry_2
C1 C2 1_555 1_555
C2 C3 1_555 1_555
C3 C4 1_555 1_555
C4 C5 1_555 1_555
C5 C6 1_555 1_555
C6 C1 1_555 1_555
F1 C2 1_555 1_555
F2 C3 1_555 1_555
F3 C5 1_555 1_555
F4 C6 1_555 1_555
I1 C1 1_555 1_555
I2 C4 1_555 1_555
C7 C8 1_555 1_555
C8 H1 1_555 1_555
C9 C8 1_555 1_555
H2 C9 1_555 1_555
C10 C9 1_555 1_555
H3 C10 1_555 1_555
C11 C10 1_555 1_555
H4 C11 1_555 1_555
C12 C7 1_555 1_555
C13 H5 1_555 1_555
H6 C13 1_555 1_555
H7 C13 1_555 1_555
C14 C15 1_555 1_555
C15 H8 1_555 1_555
C16 C15 1_555 1_555
H9 C16 1_555 1_555
C17 C16 1_555 1_555
H10 C17 1_555 1_555
C18 C17 1_555 1_555
H11 C18 1_555 1_555
C19 C7 1_555 1_555
N1 C12 1_555 1_555
C11 C12 1_555 1_555
C13 N1 1_555 1_555
C14 C19 1_555 1_555
C14 N1 1_555 1_555
C18 C19 1_555 1_555

#END
