
#######################################################################
#
#                 Cambridge Crystallographic Data Centre
#                                CCDC 
#
#######################################################################
#
# If this CIF has been generated from an entry in the Cambridge 
# Structural Database, then it will include bibliographic, chemical, 
# crystal, experimental, refinement or atomic coordinate data resulting 
# from the CCDC's data processing and validation procedures.
#
#######################################################################

data_MUMGOS
_chemical_formula_moiety         'C32 H44 N4 O5 S1 Si2'
_chemical_name_systematic        
5-(((t-Butyl(dimethyl)silyl)oxy)methyl)-4-(dimethyl(phenyl)silyl)-N,N-dimethyl-6,8-dioxo-7-phenyl-5a,6,7,8,8a,8b-hexahydroimidazo[4,5-e]isoindole-1(5H)-sulfonamide
_symmetry_cell_setting           monoclinic
_symmetry_space_group_name_H-M   'P 21/c'
_symmetry_Int_Tables_number      14
_space_group_name_Hall           '-P 2ybc'
loop_
_symmetry_equiv_pos_site_id
_symmetry_equiv_pos_as_xyz
1 x,y,z
2 -x,1/2+y,1/2-z
3 -x,-y,-z
4 x,1/2-y,1/2+z
_cell_length_a                   11.9852(7)
_cell_length_b                   11.5348(7)
_cell_length_c                   24.3235(14)
_cell_angle_alpha                90
_cell_angle_beta                 93.7560(10)
_cell_angle_gamma                90
_cell_volume                     3355.43
_exptl_crystal_colour            colorless
_exptl_crystal_description       prism
_cell_formula_units_Z            4
loop_
_atom_site_label
_atom_site_type_symbol
_atom_site_fract_x
_atom_site_fract_y
_atom_site_fract_z
S1 S 0.29285(3) 0.29826(3) 0.50253(2)
Si1 Si 0.65504(3) 0.05428(3) 0.33840(2)
Si2 Si 0.77090(3) 0.49916(3) 0.24311(2)
O1 O 0.31634(9) 0.41908(9) 0.50445(4)
O2 O 0.28402(9) 0.23039(10) 0.55082(4)
O3 O 0.67059(7) 0.45081(7) 0.28087(4)
O4 O 0.82301(8) 0.36461(10) 0.39517(4)
O5 O 0.58912(8) 0.33360(10) 0.53463(4)
N1 N 0.39561(9) 0.23834(9) 0.47019(4)
N2 N 0.49320(10) 0.08653(9) 0.43848(5)
N3 N 0.72321(8) 0.32956(9) 0.47089(4)
N4 N 0.17682(10) 0.28288(11) 0.46544(5)
C1 C 0.42830(11) 0.12303(11) 0.47493(5)
H1 H 0.4043 0.0742 0.5033
C2 C 0.51054(10) 0.18162(10) 0.40311(5)
C3 C 0.57767(10) 0.18823(10) 0.36088(5)
C4 C 0.58601(10) 0.31384(10) 0.34054(5)
H2 H 0.5091 0.3375 0.3265
C5 C 0.61954(10) 0.39379(10) 0.39061(5)
H3 H 0.6203 0.4762 0.3779
C6 C 0.73423(10) 0.36262(11) 0.41653(5)
C7 C 0.61552(10) 0.34689(11) 0.48796(5)
C8 C 0.54065(10) 0.38292(10) 0.43812(5)
H4 H 0.5039 0.4589 0.4450
C9 C 0.45156(10) 0.28828(10) 0.42353(5)
H5 H 0.3951 0.3172 0.3947
C10 C 0.15812(14) 0.35317(16) 0.41549(7)
H6 H 0.1908 0.3140 0.3846
H7 H 0.1934 0.4292 0.4213
H8 H 0.0776 0.3633 0.4071
C11 C 0.13162(15) 0.16534(15) 0.46050(8)
H9 H 0.0511 0.1690 0.4506
H10 H 0.1447 0.1248 0.4957
H11 H 0.1688 0.1234 0.4318
C12 C 0.56604(14) -0.07726(12) 0.34283(7)
H12 H 0.6110 -0.1466 0.3369
H13 H 0.5040 -0.0734 0.3145
H14 H 0.5362 -0.0811 0.3793
C13 C 0.78782(13) 0.04186(14) 0.38285(6)
H15 H 0.7702 0.0291 0.4212
H16 H 0.8311 0.1135 0.3803
H17 H 0.8317 -0.0236 0.3703
C14 C 0.68899(11) 0.06811(11) 0.26429(5)
C15 C 0.60189(11) 0.06632(11) 0.22244(6)
H18 H 0.5277 0.0500 0.2317
C16 C 0.62285(13) 0.08807(13) 0.16780(6)
H19 H 0.5628 0.0891 0.1403
C17 C 0.73156(13) 0.10832(14) 0.15344(6)
H20 H 0.7457 0.1240 0.1162
C18 C 0.81823(12) 0.10565(14) 0.19309(6)
H21 H 0.8927 0.1169 0.1830
C19 C 0.79795(11) 0.08649(12) 0.24830(6)
H22 H 0.8588 0.0859 0.2754
C20 C 0.66192(10) 0.33019(10) 0.29321(5)
H23 H 0.7370 0.2983 0.3036
H24 H 0.6308 0.2879 0.2603
C21 C 0.73698(19) 0.46845(18) 0.16872(7)
H25 H 0.7318 0.3845 0.1630
H26 H 0.7959 0.5001 0.1470
H27 H 0.6653 0.5046 0.1570
C22 C 0.90536(13) 0.42751(15) 0.26440(9)
H28 H 0.9251 0.4441 0.3033
H29 H 0.9642 0.4570 0.2420
H30 H 0.8979 0.3436 0.2591
C23 C 0.77823(11) 0.65928(12) 0.25543(6)
C24 C 0.88281(15) 0.70792(16) 0.23063(12)
H31 H 0.8819 0.7928 0.2327
H32 H 0.8837 0.6837 0.1920
H33 H 0.9497 0.6783 0.2513
C25 C 0.7842(2) 0.68353(15) 0.31734(8)
H34 H 0.8451 0.6382 0.3356
H35 H 0.7132 0.6617 0.3323
H36 H 0.7981 0.7663 0.3238
C26 C 0.67629(12) 0.72216(12) 0.22840(6)
H37 H 0.6085 0.6948 0.2447
H38 H 0.6708 0.7061 0.1887
H39 H 0.6844 0.8058 0.2344
C27 C 0.81632(10) 0.29720(11) 0.50775(5)
C28 C 0.90088(11) 0.37730(12) 0.52007(5)
H40 H 0.8974 0.4523 0.5039
C29 C 0.99059(11) 0.34642(13) 0.55626(6)
H41 H 1.0483 0.4008 0.5655
C30 C 0.99567(12) 0.23609(13) 0.57891(6)
H42 H 1.0571 0.2147 0.6035
C31 C 0.91086(13) 0.15681(13) 0.56564(7)
H43 H 0.9150 0.0810 0.5809
C32 C 0.82027(12) 0.18738(12) 0.53034(6)
H44 H 0.7617 0.1335 0.5218
loop_
_geom_bond_atom_site_label_1
_geom_bond_atom_site_label_2
_geom_bond_site_symmetry_1
_geom_bond_site_symmetry_2
S1 O1 1_555 1_555
Si1 C3 1_555 1_555
Si2 O3 1_555 1_555
O2 S1 1_555 1_555
O3 C20 1_555 1_555
O4 C6 1_555 1_555
O5 C7 1_555 1_555
N1 S1 1_555 1_555
N2 C1 1_555 1_555
N3 C6 1_555 1_555
N4 S1 1_555 1_555
C1 N1 1_555 1_555
H1 C1 1_555 1_555
C2 N2 1_555 1_555
C3 C2 1_555 1_555
C4 C3 1_555 1_555
H2 C4 1_555 1_555
C5 C4 1_555 1_555
H3 C5 1_555 1_555
C6 C5 1_555 1_555
C7 N3 1_555 1_555
C8 C5 1_555 1_555
H4 C8 1_555 1_555
C9 N1 1_555 1_555
H5 C9 1_555 1_555
C10 N4 1_555 1_555
H6 C10 1_555 1_555
H7 C10 1_555 1_555
H8 C10 1_555 1_555
C11 N4 1_555 1_555
H9 C11 1_555 1_555
H10 C11 1_555 1_555
H11 C11 1_555 1_555
C12 Si1 1_555 1_555
H12 C12 1_555 1_555
H13 C12 1_555 1_555
H14 C12 1_555 1_555
C13 Si1 1_555 1_555
H15 C13 1_555 1_555
H16 C13 1_555 1_555
H17 C13 1_555 1_555
C14 Si1 1_555 1_555
C15 C14 1_555 1_555
H18 C15 1_555 1_555
C16 C15 1_555 1_555
H19 C16 1_555 1_555
C17 C16 1_555 1_555
H20 C17 1_555 1_555
C18 C17 1_555 1_555
H21 C18 1_555 1_555
C19 C14 1_555 1_555
H22 C19 1_555 1_555
C20 C4 1_555 1_555
H23 C20 1_555 1_555
H24 C20 1_555 1_555
C21 Si2 1_555 1_555
H25 C21 1_555 1_555
H26 C21 1_555 1_555
H27 C21 1_555 1_555
C22 Si2 1_555 1_555
H28 C22 1_555 1_555
H29 C22 1_555 1_555
H30 C22 1_555 1_555
C23 Si2 1_555 1_555
C24 C23 1_555 1_555
H31 C24 1_555 1_555
H32 C24 1_555 1_555
H33 C24 1_555 1_555
C25 C23 1_555 1_555
H34 C25 1_555 1_555
H35 C25 1_555 1_555
H36 C25 1_555 1_555
C26 C23 1_555 1_555
H37 C26 1_555 1_555
H38 C26 1_555 1_555
H39 C26 1_555 1_555
C27 N3 1_555 1_555
C28 C27 1_555 1_555
H40 C28 1_555 1_555
C29 C28 1_555 1_555
H41 C29 1_555 1_555
C30 C29 1_555 1_555
H42 C30 1_555 1_555
C31 C30 1_555 1_555
H43 C31 1_555 1_555
C32 C27 1_555 1_555
H44 C32 1_555 1_555
C2 C9 1_555 1_555
C7 C8 1_555 1_555
C8 C9 1_555 1_555
C18 C19 1_555 1_555
C31 C32 1_555 1_555

#END
