
#######################################################################
#
#                 Cambridge Crystallographic Data Centre
#                                CCDC 
#
#######################################################################
#
# If this CIF has been generated from an entry in the Cambridge 
# Structural Database, then it will include bibliographic, chemical, 
# crystal, experimental, refinement or atomic coordinate data resulting 
# from the CCDC's data processing and validation procedures.
#
#######################################################################

data_MUMHOS
_chemical_formula_moiety         'C24 H29 Cl1 O1'
_chemical_name_systematic        
(1R*,2R*,S*~a~)-1-(4-Chlorophenyl)-5-ethyl-2-phenyl-deca-3,4-dien-1-ol
_symmetry_cell_setting           monoclinic
_symmetry_space_group_name_H-M   'P 21/n'
_symmetry_Int_Tables_number      14
_space_group_name_Hall           '-P 2yn'
loop_
_symmetry_equiv_pos_site_id
_symmetry_equiv_pos_as_xyz
1 x,y,z
2 1/2-x,1/2+y,1/2-z
3 -x,-y,-z
4 1/2+x,1/2-y,1/2+z
_cell_length_a                   16.666(3)
_cell_length_b                   5.3080(8)
_cell_length_c                   24.818(4)
_cell_angle_alpha                90
_cell_angle_beta                 91.574(4)
_cell_angle_gamma                90
_cell_volume                     2194.65
_exptl_crystal_colour            colorless
_exptl_crystal_description       prismatic
_cell_formula_units_Z            4
loop_
_atom_site_label
_atom_site_type_symbol
_atom_site_fract_x
_atom_site_fract_y
_atom_site_fract_z
Cl1 Cl 0.61702(10) 0.6501(4) 1.00769(5)
O1 O 0.72118(12) 0.5014(5) 0.75153(9)
C1 C 0.5934(2) 0.3585(7) 0.86070(18)
H1 H 0.5674 0.2223 0.8444
C2 C 0.5870(3) 0.3937(9) 0.9152(2)
H2 H 0.5572 0.2828 0.9357
C3 C 0.6254(3) 0.5958(10) 0.93895(16)
C4 C 0.6713(2) 0.7569(8) 0.90948(16)
H3 H 0.6984 0.8902 0.9261
C5 C 0.6766(2) 0.7178(7) 0.85504(15)
H4 H 0.7074 0.8272 0.8349
C6 C 0.63752(19) 0.5206(6) 0.82951(14)
C7 C 0.64111(17) 0.4800(6) 0.76968(13)
H5 H 0.6237 0.3066 0.7625
C8 C 0.58368(18) 0.6542(6) 0.73759(14)
H6 H 0.5972 0.8288 0.7470
C9 C 0.49826(19) 0.6058(7) 0.75373(15)
H7 H 0.4807 0.4395 0.7535
C10 C 0.44754(19) 0.7764(7) 0.76788(16)
C11 C 0.3946(2) 0.9437(7) 0.7810(2)
C12 C 0.3832(3) 1.0281(9) 0.8390(2)
H8 H 0.4035 1.1985 0.8432
H9 H 0.3262 1.0319 0.8459
C13 C 0.4242(3) 0.8630(10) 0.8805(2)
H10 H 0.4031 0.6951 0.8777
H11 H 0.4148 0.9283 0.9159
H12 H 0.4808 0.8601 0.8745
C14 C 0.3423(2) 1.0650(9) 0.7388(3)
H13 H 0.3505 1.2458 0.7403
H14 H 0.2866 1.0326 0.7470
C15 C 0.3572(3) 0.9745(11) 0.6813(3)
H15 H 0.4131 1.0038 0.6732
H16 H 0.3477 0.7944 0.6794
C16 C 0.3070(5) 1.0982(15) 0.6408(3)
H17 H 0.3099 1.2777 0.6479
H18 H 0.2521 1.0469 0.6469
C17 C 0.5934(2) 0.6226(7) 0.67727(15)
C18 C 0.5588(3) 0.4289(9) 0.6492(2)
H19 H 0.5268 0.3141 0.6670
C19 C 0.5703(4) 0.4003(12) 0.5945(2)
H20 H 0.5481 0.2623 0.5765
C20 C 0.6135(4) 0.5708(13) 0.5672(2)
H21 H 0.6187 0.5574 0.5301
C21 C 0.6492(3) 0.7627(11) 0.5952(2)
H22 H 0.6809 0.8777 0.5772
C22 C 0.6392(3) 0.7890(8) 0.64925(17)
H23 H 0.6639 0.9225 0.6674
C23 C 0.3215(5) 1.0623(16) 0.5828(3)
H24 H 0.3622 1.1787 0.5722
H25 H 0.2727 1.1026 0.5631
C24 C 0.3453(5) 0.8202(16) 0.5680(3)
H26 H 0.3568 0.8178 0.5304
H27 H 0.3028 0.7032 0.5750
H28 H 0.3925 0.7732 0.5887
H29 H 0.731(2) 0.655(4) 0.7511(16)
C25? C 0.3917(5) 0.9532(16) 0.5572(3)
H30? H 0.3142 1.2223 0.5635
H31? H 0.2765 0.9656 0.5695
H32? H 0.4141 0.8230 0.5798
H33? H 0.4311 1.0821 0.5520
H34? H 0.3757 0.8829 0.5229
loop_
_geom_bond_atom_site_label_1
_geom_bond_atom_site_label_2
_geom_bond_site_symmetry_1
_geom_bond_site_symmetry_2
Cl1 C3 1_555 1_555
O1 C7 1_555 1_555
C1 H1 1_555 1_555
C2 C1 1_555 1_555
H2 C2 1_555 1_555
C3 C2 1_555 1_555
C4 C3 1_555 1_555
H3 C4 1_555 1_555
C5 C4 1_555 1_555
H4 C5 1_555 1_555
C6 C1 1_555 1_555
C7 C6 1_555 1_555
H5 C7 1_555 1_555
C8 C7 1_555 1_555
H6 C8 1_555 1_555
C9 C8 1_555 1_555
H7 C9 1_555 1_555
C10 C9 1_555 1_555
C11 C10 1_555 1_555
C12 C11 1_555 1_555
H8 C12 1_555 1_555
H9 C12 1_555 1_555
C13 C12 1_555 1_555
H10 C13 1_555 1_555
H11 C13 1_555 1_555
H12 C13 1_555 1_555
C14 C11 1_555 1_555
H13 C14 1_555 1_555
H14 C14 1_555 1_555
C15 C14 1_555 1_555
H15 C15 1_555 1_555
H16 C15 1_555 1_555
C16 C15 1_555 1_555
H17 C16 1_555 1_555
H18 C16 1_555 1_555
C17 C8 1_555 1_555
C18 C17 1_555 1_555
H19 C18 1_555 1_555
C19 C18 1_555 1_555
H20 C19 1_555 1_555
C20 C19 1_555 1_555
H21 C20 1_555 1_555
C21 C20 1_555 1_555
H22 C21 1_555 1_555
C22 C17 1_555 1_555
H23 C22 1_555 1_555
C23 C16 1_555 1_555
H24 C23 1_555 1_555
H25 C23 1_555 1_555
C24 C23 1_555 1_555
H26 C24 1_555 1_555
H27 C24 1_555 1_555
H28 C24 1_555 1_555
H29 O1 1_555 1_555
C5 C6 1_555 1_555
C21 C22 1_555 1_555

#END
