
#######################################################################
#
#                 Cambridge Crystallographic Data Centre
#                                CCDC 
#
#######################################################################
#
# If this CIF has been generated from an entry in the Cambridge 
# Structural Database, then it will include bibliographic, chemical, 
# crystal, experimental, refinement or atomic coordinate data resulting 
# from the CCDC's data processing and validation procedures.
#
#######################################################################

data_MUMHIN
_chemical_formula_moiety         'C11 H16 N1 1+,Cl1 1-'
_chemical_name_systematic        
'5-Azoniapentacyclo[6.4.0.0^2,10^.0^3,7^.0^9,11^]dodecane chloride'
_chemical_properties_biological  'antiviral activity'
_symmetry_cell_setting           orthorhombic
_symmetry_space_group_name_H-M   'C c c a'
_symmetry_Int_Tables_number      68
_space_group_name_Hall           '-C 2a 2ac'
loop_
_symmetry_equiv_pos_site_id
_symmetry_equiv_pos_as_xyz
1 x,y,z
2 -x,1/2-y,z
3 x,1/2-y,1/2-z
4 -x,y,1/2-z
5 1/2+x,1/2+y,z
6 1/2-x,-y,z
7 1/2+x,-y,1/2-z
8 1/2-x,1/2+y,1/2-z
9 -x,-y,-z
10 x,1/2+y,-z
11 -x,1/2+y,1/2+z
12 x,-y,1/2+z
13 1/2-x,1/2-y,-z
14 1/2+x,y,-z
15 1/2-x,y,1/2+z
16 1/2+x,1/2-y,1/2+z
_cell_length_a                   17.501(8)
_cell_length_b                   26.564(5)
_cell_length_c                   8.784(3)
_cell_angle_alpha                90
_cell_angle_beta                 90
_cell_angle_gamma                90
_cell_volume                     4083.65
_exptl_crystal_colour            colorless
_exptl_crystal_description       prism
_cell_formula_units_Z            16
loop_
_atom_site_label
_atom_site_type_symbol
_atom_site_fract_x
_atom_site_fract_y
_atom_site_fract_z
Cl1 Cl 0.08927(2) 0.186465(14) 0.44495(5)
N1 N 0.39882(7) 0.19796(5) 0.54144(15)
C1 C 0.40696(9) 0.18420(6) 0.37828(19)
H1 H 0.4595 0.1753 0.3551
H2 H 0.3917 0.2120 0.3134
C2 C 0.35422(8) 0.13895(5) 0.35505(16)
H3 H 0.3259 0.1426 0.2594
C3 C 0.29780(8) 0.13940(5) 0.49230(17)
H4 H 0.2450 0.1420 0.4562
C4 C 0.31895(9) 0.18538(5) 0.58544(19)
H5 H 0.2849 0.2132 0.5626
H6 H 0.3158 0.1780 0.6934
C5 C 0.31191(8) 0.08762(5) 0.56494(16)
H7 H 0.2707 0.0762 0.6322
C6 C 0.32681(8) 0.05282(5) 0.42875(16)
H8 H 0.2832 0.0465 0.3615
C7 C 0.39088(8) 0.08643(5) 0.36339(16)
H9 H 0.4125 0.0745 0.2670
C8 C 0.36638(9) 0.00649(5) 0.49379(18)
H10 H 0.3330 -0.0133 0.5585
H11 H 0.3884 -0.0147 0.4153
C9 C 0.42566(9) 0.03459(6) 0.58238(18)
H12 H 0.4641 0.0169 0.6436
C10 C 0.39116(8) 0.08385(5) 0.63452(16)
H13 H 0.4049 0.1000 0.7311
C11 C 0.44454(8) 0.08231(5) 0.49846(17)
H14 H 0.4956 0.0975 0.4996
H15 H 0.4065(9) 0.2307(8) 0.5501(19)
H16 H 0.4319(10) 0.1823(6) 0.592(2)
loop_
_geom_bond_atom_site_label_1
_geom_bond_atom_site_label_2
_geom_bond_site_symmetry_1
_geom_bond_site_symmetry_2
N1 C1 1_555 1_555
C1 H1 1_555 1_555
H2 C1 1_555 1_555
C2 C1 1_555 1_555
H3 C2 1_555 1_555
C3 C2 1_555 1_555
H4 C3 1_555 1_555
C4 N1 1_555 1_555
H5 C4 1_555 1_555
H6 C4 1_555 1_555
C5 C3 1_555 1_555
H7 C5 1_555 1_555
C6 C5 1_555 1_555
H8 C6 1_555 1_555
C7 C2 1_555 1_555
H9 C7 1_555 1_555
C8 C6 1_555 1_555
H10 C8 1_555 1_555
H11 C8 1_555 1_555
C9 C8 1_555 1_555
H12 C9 1_555 1_555
C10 C5 1_555 1_555
H13 C10 1_555 1_555
C11 C7 1_555 1_555
H14 C11 1_555 1_555
H15 N1 1_555 1_555
H16 N1 1_555 1_555
C3 C4 1_555 1_555
C6 C7 1_555 1_555
C9 C10 1_555 1_555
C9 C11 1_555 1_555
C10 C11 1_555 1_555

#END
