
#######################################################################
#
#                 Cambridge Crystallographic Data Centre
#                                CCDC 
#
#######################################################################
#
# If this CIF has been generated from an entry in the Cambridge 
# Structural Database, then it will include bibliographic, chemical, 
# crystal, experimental, refinement or atomic coordinate data resulting 
# from the CCDC's data processing and validation procedures.
#
#######################################################################

data_MUMKEM
_chemical_formula_moiety         'C19 H13 N1 O1'
_chemical_name_systematic        4-(9H-Carbazol-9-yl)benzaldehyde
_symmetry_cell_setting           monoclinic
_symmetry_space_group_name_H-M   'P 21/c'
_symmetry_Int_Tables_number      14
_space_group_name_Hall           '-P 2ybc'
loop_
_symmetry_equiv_pos_site_id
_symmetry_equiv_pos_as_xyz
1 x,y,z
2 -x,1/2+y,1/2-z
3 -x,-y,-z
4 x,1/2-y,1/2+z
_cell_length_a                   8.3956(6)
_cell_length_b                   21.0394(13)
_cell_length_c                   8.2906(5)
_cell_angle_alpha                90
_cell_angle_beta                 105.859(7)
_cell_angle_gamma                90
_cell_volume                     1408.7
_exptl_crystal_colour            colorless
_exptl_crystal_description       block
_cell_formula_units_Z            4
loop_
_atom_site_label
_atom_site_type_symbol
_atom_site_fract_x
_atom_site_fract_y
_atom_site_fract_z
N1 N -0.01244(14) 0.61904(5) 0.49860(14)
C1 C 0.15502(17) 0.63584(6) 0.53398(17)
C2 C -0.08567(16) 0.58459(6) 0.60600(16)
C3 C -0.09582(17) 0.64519(6) 0.34346(16)
C4 C 0.17890(18) 0.67177(6) 0.40020(19)
C5 C -0.18892(17) 0.53331(7) 0.54541(18)
H1 H -0.2099 0.5212 0.4336
C6 C -0.05342(17) 0.60196(7) 0.77334(17)
H2 H 0.0151 0.6364 0.8140
C7 C -0.22713(18) 0.51738(7) 0.81902(19)
C8 C -0.12288(18) 0.56816(7) 0.87886(17)
H3 H -0.0996 0.5795 0.9913
C9 C 0.01904(18) 0.67857(6) 0.28003(18)
C10 C -0.26011(18) 0.50040(7) 0.6516(2)
H4 H -0.3308 0.4665 0.6107
C11 C -0.26316(19) 0.64346(7) 0.25888(18)
H5 H -0.3382 0.6211 0.3014
C12 C -0.0365(2) 0.71087(7) 0.12848(19)
H6 H 0.0375 0.7332 0.0843
C13 C 0.28632(18) 0.61925(7) 0.6703(2)
H7 H 0.2696 0.5954 0.7588
C14 C 0.4685(2) 0.67520(9) 0.5385(3)
H8 H 0.5752 0.6881 0.5416
C15 C 0.4425(2) 0.63949(8) 0.6693(2)
H9 H 0.5325 0.6289 0.7587
C16 C -0.3137(2) 0.67615(8) 0.1098(2)
H10 H -0.4253 0.6761 0.0512
C17 C -0.2025(2) 0.70922(8) 0.0449(2)
H11 H -0.2405 0.7306 -0.0565
C18 C 0.3387(2) 0.69178(8) 0.4045(2)
H12 H 0.3569 0.7161 0.3175
C19 C -0.3026(2) 0.48360(10) 0.9362(3)
O1 O -0.3896(3) 0.43942(10) 0.9040(2)
O2? O -0.2914(9) 0.4931(4) 1.0652(8)
loop_
_geom_bond_atom_site_label_1
_geom_bond_atom_site_label_2
_geom_bond_site_symmetry_1
_geom_bond_site_symmetry_2
N1 C1 1_555 1_555
C1 C4 1_555 1_555
C2 N1 1_555 1_555
C3 N1 1_555 1_555
C4 C9 1_555 1_555
C5 C2 1_555 1_555
H1 C5 1_555 1_555
C6 C2 1_555 1_555
H2 C6 1_555 1_555
C7 C8 1_555 1_555
C8 C6 1_555 1_555
H3 C8 1_555 1_555
C9 C3 1_555 1_555
C10 C5 1_555 1_555
H4 C10 1_555 1_555
C11 C3 1_555 1_555
H5 C11 1_555 1_555
C12 C9 1_555 1_555
H6 C12 1_555 1_555
C13 C1 1_555 1_555
H7 C13 1_555 1_555
C14 H8 1_555 1_555
C15 C13 1_555 1_555
H9 C15 1_555 1_555
C16 C11 1_555 1_555
H10 C16 1_555 1_555
C17 C12 1_555 1_555
H11 C17 1_555 1_555
C18 C4 1_555 1_555
H12 C18 1_555 1_555
C19 C7 1_555 1_555
O1 C19 1_555 1_555
C7 C10 1_555 1_555
C14 C15 1_555 1_555
C14 C18 1_555 1_555
C16 C17 1_555 1_555

#END
