
#######################################################################
#
#                 Cambridge Crystallographic Data Centre
#                                CCDC 
#
#######################################################################
#
# If this CIF has been generated from an entry in the Cambridge 
# Structural Database, then it will include bibliographic, chemical, 
# crystal, experimental, refinement or atomic coordinate data resulting 
# from the CCDC's data processing and validation procedures.
#
#######################################################################

data_MUMKEL
_chemical_name_common            
'Di-t-butyl 2,8,14,20,25,26,27-heptaazapentacyclo[19.3.1.1$3,7!.1$9,13!.1$15,19!]octacosa-1(25),3(28),4,6,9(27),10,12,15(26),16,18,21,23-dodecaene-14,20-dicarboxylate monohydrate'
_chemical_formula_moiety         'C31 H33 N7 O4,H2 O1'
_chemical_name_systematic        
'2,8-bis(t-Butoxycarbonyl)-2,8,14,20-tetra-aza-calix(1)arene(3)pyridine monohydrate'
_symmetry_cell_setting           triclinic
_symmetry_space_group_name_H-M   'P -1'
_symmetry_Int_Tables_number      2
_space_group_name_Hall           '-P 1'
loop_
_symmetry_equiv_pos_site_id
_symmetry_equiv_pos_as_xyz
1 x,y,z
2 -x,-y,-z
_cell_length_a                   9.3910(19)
_cell_length_b                   11.235(2)
_cell_length_c                   15.836(3)
_cell_angle_alpha                78.30(3)
_cell_angle_beta                 86.16(3)
_cell_angle_gamma                67.25(3)
_cell_volume                     1508.7
_exptl_crystal_colour            colorless
_exptl_crystal_description       prism
_chemical_melting_point          '195-196 deg.C'
_cell_formula_units_Z            2
loop_
_atom_site_label
_atom_site_type_symbol
_atom_site_fract_x
_atom_site_fract_y
_atom_site_fract_z
O1 O 0.9832(6) 0.6951(5) 0.1294(3)
O3 O 1.0697(6) 0.4777(5) 0.1849(3)
O4 O 0.6354(6) 0.1781(5) 0.4363(3)
O5 O 0.7110(6) 0.0868(5) 0.3175(3)
N1 N 0.3421(7) 0.8697(6) 0.0949(4)
H3 H 0.2641 0.9126 0.0606
N2 N 0.6040(7) 0.7223(6) 0.0977(4)
N3 N 0.8542(7) 0.5706(6) 0.1039(4)
N4 N 0.7935(7) 0.4153(6) 0.2081(4)
N5 N 0.7127(7) 0.2873(6) 0.3165(4)
N6 N 0.5838(7) 0.4917(6) 0.3610(4)
N7 N 0.4480(8) 0.6915(6) 0.4067(4)
H4 H 0.4206 0.7166 0.4551
C1 C 0.3988(9) 0.7691(7) 0.2488(5)
H5 H 0.4900 0.7036 0.2361
C2 C 0.3537(9) 0.7745(7) 0.3341(5)
C3 C 0.2143(10) 0.8700(9) 0.3523(5)
H6 H 0.1827 0.8720 0.4091
C4 C 0.1230(10) 0.9620(9) 0.2856(6)
H7 H 0.0311 1.0274 0.2976
C5 C 0.1677(9) 0.9568(9) 0.2018(6)
H8 H 0.1047 1.0171 0.1570
C6 C 0.3063(9) 0.8622(8) 0.1839(5)
C7 C 0.4825(9) 0.8191(8) 0.0541(5)
C8 C 0.4935(10) 0.8752(8) -0.0340(5)
H9 H 0.4082 0.9418 -0.0635
C9 C 0.6314(10) 0.8296(8) -0.0742(5)
H10 H 0.6413 0.8651 -0.1316
C10 C 0.7570(9) 0.7299(8) -0.0291(5)
H11 H 0.8526 0.6977 -0.0550
C11 C 0.7350(8) 0.6810(7) 0.0545(5)
C12 C 0.8225(8) 0.4526(7) 0.1266(5)
C13 C 0.8096(9) 0.3934(7) 0.0615(5)
H12 H 0.8329 0.4227 0.0050
C14 C 0.7618(10) 0.2907(8) 0.0809(5)
H13 H 0.7506 0.2496 0.0377
C15 C 0.7302(10) 0.2487(8) 0.1655(5)
H14 H 0.6982 0.1786 0.1807
C16 C 0.7477(8) 0.3142(7) 0.2277(5)
C17 C 0.7092(10) 0.3825(8) 0.3689(5)
C18 C 0.8330(10) 0.3507(8) 0.4224(5)
H15 H 0.9199 0.2737 0.4233
C19 C 0.8226(11) 0.4379(8) 0.4747(5)
H16 H 0.9020 0.4190 0.5135
C20 C 0.6946(10) 0.5531(9) 0.4694(5)
H17 H 0.6861 0.6134 0.5038
C21 C 0.5771(9) 0.5767(8) 0.4102(5)
C22 C 0.9710(9) 0.5903(8) 0.1399(5)
C23 C 1.1971(10) 0.4791(9) 0.2360(6)
C24 C 1.3165(10) 0.5116(9) 0.1762(6)
H18 H 1.2720 0.6014 0.1464
H19 H 1.3481 0.4545 0.1350
H20 H 1.4045 0.4995 0.2094
C25 C 1.1327(10) 0.5717(9) 0.2980(5)
H21 H 1.0914 0.6606 0.2665
H22 H 1.2134 0.5616 0.3363
H23 H 1.0522 0.5520 0.3309
C26 C 1.2630(11) 0.3369(9) 0.2840(6)
H24 H 1.1833 0.3168 0.3176
H25 H 1.3457 0.3248 0.3215
H26 H 1.3014 0.2794 0.2432
C27 C 0.6809(9) 0.1813(8) 0.3629(5)
C28 C 0.6850(10) -0.0372(8) 0.3543(5)
C29 C 0.7921(10) -0.1124(9) 0.4319(6)
H27 H 0.7682 -0.0600 0.4758
H28 H 0.8974 -0.1314 0.4146
H29 H 0.7783 -0.1933 0.4543
C30 C 0.5193(10) -0.0023(8) 0.3743(6)
H30 H 0.4584 0.0485 0.3235
H31 H 0.4924 0.0484 0.4191
H32 H 0.4996 -0.0812 0.3932
C31 C 0.7316(12) -0.1109(8) 0.2806(6)
H33 H 0.6707 -0.0579 0.2304
H34 H 0.7150 -0.1916 0.2962
H35 H 0.8389 -0.1300 0.2685
O2 O 0.8872(7) 0.9509(6) 0.0417(4)
H1 H 0.9646 0.9632 0.0513
H2 H 0.9034 0.8734 0.0432
loop_
_geom_bond_atom_site_label_1
_geom_bond_atom_site_label_2
_geom_bond_site_symmetry_1
_geom_bond_site_symmetry_2
O1 C22 1_555 1_555
O2 H1 1_555 1_555
H2 O2 1_555 1_555
O3 C22 1_555 1_555
O4 C27 1_555 1_555
O5 C27 1_555 1_555
N1 H3 1_555 1_555
N2 C7 1_555 1_555
N3 C11 1_555 1_555
N4 C12 1_555 1_555
N5 C16 1_555 1_555
N6 C17 1_555 1_555
N7 H4 1_555 1_555
C1 H5 1_555 1_555
C2 N7 1_555 1_555
C3 C2 1_555 1_555
H6 C3 1_555 1_555
C4 C3 1_555 1_555
H7 C4 1_555 1_555
C5 C4 1_555 1_555
H8 C5 1_555 1_555
C6 N1 1_555 1_555
C7 N1 1_555 1_555
C8 C7 1_555 1_555
H9 C8 1_555 1_555
C9 C8 1_555 1_555
H10 C9 1_555 1_555
C10 C9 1_555 1_555
H11 C10 1_555 1_555
C11 N2 1_555 1_555
C12 N3 1_555 1_555
C13 C12 1_555 1_555
H12 C13 1_555 1_555
C14 C13 1_555 1_555
H13 C14 1_555 1_555
C15 C14 1_555 1_555
H14 C15 1_555 1_555
C16 N4 1_555 1_555
C17 N5 1_555 1_555
C18 C17 1_555 1_555
H15 C18 1_555 1_555
C19 C18 1_555 1_555
H16 C19 1_555 1_555
C20 C19 1_555 1_555
H17 C20 1_555 1_555
C21 N6 1_555 1_555
C22 N3 1_555 1_555
C23 O3 1_555 1_555
C24 C23 1_555 1_555
H18 C24 1_555 1_555
H19 C24 1_555 1_555
H20 C24 1_555 1_555
C25 C23 1_555 1_555
H21 C25 1_555 1_555
H22 C25 1_555 1_555
H23 C25 1_555 1_555
C26 C23 1_555 1_555
H24 C26 1_555 1_555
H25 C26 1_555 1_555
H26 C26 1_555 1_555
C27 N5 1_555 1_555
C28 O5 1_555 1_555
C29 C28 1_555 1_555
H27 C29 1_555 1_555
H28 C29 1_555 1_555
H29 C29 1_555 1_555
C30 C28 1_555 1_555
H30 C30 1_555 1_555
H31 C30 1_555 1_555
H32 C30 1_555 1_555
C31 C28 1_555 1_555
H33 C31 1_555 1_555
H34 C31 1_555 1_555
H35 C31 1_555 1_555
N7 C21 1_555 1_555
C1 C2 1_555 1_555
C1 C6 1_555 1_555
C5 C6 1_555 1_555
C10 C11 1_555 1_555
C15 C16 1_555 1_555
C20 C21 1_555 1_555

#END
