
#######################################################################
#
#                 Cambridge Crystallographic Data Centre
#                                CCDC 
#
#######################################################################
#
# If this CIF has been generated from an entry in the Cambridge 
# Structural Database, then it will include bibliographic, chemical, 
# crystal, experimental, refinement or atomic coordinate data resulting 
# from the CCDC's data processing and validation procedures.
#
#######################################################################

data_MUMPUG
_chemical_formula_moiety         'C30 H26 Cl1 F17 N2 O6'
_chemical_name_systematic        
'4,4,5,5,6,6,7,7,8,8,9,9,10,10,11,11,11-Heptadecafluoroundecyl 2-(chloroacetyl)-5-ethyl-3-(4-methoxyphenyl)-1-methyl-4,6-dioxooctahydropyrrolo[3,4-c]pyrrole-1-carboxylate'
_symmetry_cell_setting           monoclinic
_symmetry_space_group_name_H-M   'P 21/c'
_symmetry_Int_Tables_number      14
_space_group_name_Hall           '-P 2ybc'
loop_
_symmetry_equiv_pos_site_id
_symmetry_equiv_pos_as_xyz
1 x,y,z
2 -x,1/2+y,1/2-z
3 -x,-y,-z
4 x,1/2-y,1/2+z
_cell_length_a                   20.7647(12)
_cell_length_b                   9.8833(6)
_cell_length_c                   17.6665(10)
_cell_angle_alpha                90
_cell_angle_beta                 108.6860(10)
_cell_angle_gamma                90
_cell_volume                     3434.48
_exptl_crystal_colour            colorless
_exptl_crystal_description       block
_cell_formula_units_Z            4
loop_
_atom_site_label
_atom_site_type_symbol
_atom_site_fract_x
_atom_site_fract_y
_atom_site_fract_z
Cl1 Cl 0.43173(4) 0.49148(7) 0.04644(4)
F1 F 0.18822(7) 0.70300(16) 0.11977(9)
F2 F 0.22856(9) 0.89068(15) 0.08988(10)
F3 F 0.25479(9) 0.56619(16) 0.02692(9)
F4 F 0.27853(8) 0.7638(2) -0.01230(10)
F5 F 0.12588(9) 0.6024(2) -0.02719(10)
F6 F 0.13365(9) 0.8176(2) -0.04059(11)
F7 F 0.20493(9) 0.58366(19) -0.13671(10)
F8 F 0.17924(9) 0.79528(19) -0.16027(11)
F9 F 0.07731(10) 0.50843(18) -0.17899(11)
F10 F 0.04316(8) 0.71611(19) -0.17149(10)
F11 F 0.13214(9) 0.6110(2) -0.29599(11)
F12 F 0.07427(10) 0.79398(18) -0.29472(11)
F13 F 0.02785(11) 0.4618(2) -0.34742(13)
F14 F -0.03672(9) 0.5933(2) -0.30398(11)
F15 F -0.06215(10) 0.5779(2) -0.46556(11)
F16 F 0.03373(10) 0.6732(2) -0.45158(12)
F17 F -0.04221(11) 0.7756(2) -0.41423(12)
O1 O 0.36666(10) 0.48516(18) 0.44991(11)
O2 O 0.32021(9) 0.05868(18) 0.35047(10)
O3 O 0.49325(9) 0.65584(17) 0.40328(10)
O4 O 0.39108(8) 0.62024(16) 0.31085(10)
O5 O 0.10818(9) 0.30521(19) 0.09377(12)
O6 O 0.47670(8) 0.56004(17) 0.21454(10)
N1 N 0.33336(10) 0.2673(2) 0.41055(12)
N2 N 0.43060(9) 0.38832(18) 0.26328(11)
C1 C 0.46584(11) 0.4321(2) 0.34676(13)
C2 C 0.43614(11) 0.3365(2) 0.39573(13)
H1 H 0.4738 0.3085 0.4446
C3 C 0.37571(12) 0.3786(2) 0.42115(14)
C4 C 0.35002(12) 0.1643(2) 0.36685(13)
C5 C 0.41089(11) 0.2108(2) 0.34444(13)
H2 H 0.4468 0.1393 0.3565
C6 C 0.39214(11) 0.2594(2) 0.25546(13)
H3 H 0.4106 0.1931 0.2249
C7 C 0.45247(12) 0.5814(2) 0.35775(14)
C8 C 0.37454(13) 0.7631(2) 0.30992(16)
H4 H 0.4095 0.8183 0.2973
H5 H 0.3719 0.7916 0.3626
C9 C 0.30636(13) 0.7800(3) 0.24601(15)
H6 H 0.2933 0.8767 0.2423
H7 H 0.2716 0.7283 0.2614
C10 C 0.30740(12) 0.7310(3) 0.16360(15)
H8 H 0.3440 0.7787 0.1496
H9 H 0.3177 0.6330 0.1663
C11 C 0.24070(12) 0.7560(2) 0.09962(15)
C12 C 0.23578(12) 0.6982(3) 0.01673(16)
C13 C 0.16400(13) 0.7028(3) -0.04579(16)
C14 C 0.16024(13) 0.6770(3) -0.13319(16)
C15 C 0.08950(14) 0.6415(3) -0.19008(17)
C16 C 0.07808(14) 0.6606(3) -0.27963(17)
C17 C 0.01401(16) 0.5919(3) -0.33704(18)
C18 C -0.01527(16) 0.6564(3) -0.41905(19)
C19 C 0.54237(12) 0.4049(3) 0.36891(15)
H10 H 0.5620 0.4651 0.3380
H11 H 0.5498 0.3106 0.3568
H12 H 0.5642 0.4217 0.4261
C20 C 0.27663(13) 0.2583(3) 0.44249(16)
H13 H 0.2876 0.3130 0.4919
H14 H 0.2717 0.1630 0.4571
C21 C 0.21008(16) 0.3058(4) 0.3856(2)
H15 H 0.1746 0.2971 0.4108
H16 H 0.1981 0.2506 0.3369
H17 H 0.2141 0.4008 0.3718
C22 C 0.28062(12) 0.1796(2) 0.15909(14)
H18 H 0.3044 0.1033 0.1488
C23 C 0.21169(13) 0.1908(3) 0.12037(16)
H19 H 0.1885 0.1227 0.0838
C24 C 0.17610(12) 0.3015(3) 0.13477(15)
C25 C 0.21066(12) 0.4009(2) 0.18919(14)
H20 H 0.1869 0.4766 0.2002
C26 C 0.28008(12) 0.3871(2) 0.22675(14)
H21 H 0.3036 0.4551 0.2632
C27 C 0.31623(11) 0.2776(2) 0.21284(13)
C28 C 0.07089(13) 0.4192(3) 0.10557(19)
H22 H 0.0231 0.4097 0.0728
H23 H 0.0897 0.5016 0.0900
H24 H 0.0741 0.4250 0.1620
C29 C 0.44265(11) 0.4567(2) 0.20305(14)
C30 C 0.41029(12) 0.3970(2) 0.11960(14)
H25 H 0.3603 0.3957 0.1067
H26 H 0.4259 0.3024 0.1189
loop_
_geom_bond_atom_site_label_1
_geom_bond_atom_site_label_2
_geom_bond_site_symmetry_1
_geom_bond_site_symmetry_2
Cl1 C30 1_555 1_555
F1 C11 1_555 1_555
F2 C11 1_555 1_555
F3 C12 1_555 1_555
F4 C12 1_555 1_555
F5 C13 1_555 1_555
F6 C13 1_555 1_555
F7 C14 1_555 1_555
F8 C14 1_555 1_555
F9 C15 1_555 1_555
F10 C15 1_555 1_555
F11 C16 1_555 1_555
F12 C16 1_555 1_555
F13 C17 1_555 1_555
F14 C17 1_555 1_555
F15 C18 1_555 1_555
F16 C18 1_555 1_555
F17 C18 1_555 1_555
O1 C3 1_555 1_555
O2 C4 1_555 1_555
O3 C7 1_555 1_555
O4 C7 1_555 1_555
O5 C24 1_555 1_555
O6 C29 1_555 1_555
N1 C3 1_555 1_555
N2 C1 1_555 1_555
C1 C2 1_555 1_555
C2 H1 1_555 1_555
C3 C2 1_555 1_555
C4 N1 1_555 1_555
C5 C2 1_555 1_555
H2 C5 1_555 1_555
C6 N2 1_555 1_555
H3 C6 1_555 1_555
C7 C1 1_555 1_555
C8 O4 1_555 1_555
H4 C8 1_555 1_555
H5 C8 1_555 1_555
C9 C8 1_555 1_555
H6 C9 1_555 1_555
H7 C9 1_555 1_555
C10 C9 1_555 1_555
H8 C10 1_555 1_555
H9 C10 1_555 1_555
C11 C10 1_555 1_555
C12 C11 1_555 1_555
C13 C12 1_555 1_555
C14 C13 1_555 1_555
C15 C14 1_555 1_555
C16 C15 1_555 1_555
C17 C16 1_555 1_555
C18 C17 1_555 1_555
C19 C1 1_555 1_555
H10 C19 1_555 1_555
H11 C19 1_555 1_555
H12 C19 1_555 1_555
C20 N1 1_555 1_555
H13 C20 1_555 1_555
H14 C20 1_555 1_555
C21 C20 1_555 1_555
H15 C21 1_555 1_555
H16 C21 1_555 1_555
H17 C21 1_555 1_555
C22 H18 1_555 1_555
C23 C22 1_555 1_555
H19 C23 1_555 1_555
C24 C23 1_555 1_555
C25 C24 1_555 1_555
H20 C25 1_555 1_555
C26 C25 1_555 1_555
H21 C26 1_555 1_555
C27 C6 1_555 1_555
C28 O5 1_555 1_555
H22 C28 1_555 1_555
H23 C28 1_555 1_555
H24 C28 1_555 1_555
C29 N2 1_555 1_555
C30 C29 1_555 1_555
H25 C30 1_555 1_555
H26 C30 1_555 1_555
C4 C5 1_555 1_555
C5 C6 1_555 1_555
C22 C27 1_555 1_555
C26 C27 1_555 1_555

#END
