
#######################################################################
#
#                 Cambridge Crystallographic Data Centre
#                                CCDC 
#
#######################################################################
#
# If this CIF has been generated from an entry in the Cambridge 
# Structural Database, then it will include bibliographic, chemical, 
# crystal, experimental, refinement or atomic coordinate data resulting 
# from the CCDC's data processing and validation procedures.
#
#######################################################################

data_MUMPUF
_chemical_formula_moiety         'C6 H18 N2 O6 P2'
_chemical_name_systematic        
"N,N'-Dimethyl-N,N'-ethylenediamine-bis(methylenephosphonic acid)"
_symmetry_cell_setting           monoclinic
_symmetry_space_group_name_H-M   'P 21/n'
_symmetry_Int_Tables_number      14
_space_group_name_Hall           '-P 2yn'
loop_
_symmetry_equiv_pos_site_id
_symmetry_equiv_pos_as_xyz
1 x,y,z
2 1/2+x,1/2-y,1/2+z
3 -x,-y,-z
4 1/2-x,1/2+y,1/2-z
_cell_length_a                   6.9401(15)
_cell_length_b                   10.456(2)
_cell_length_c                   8.4868(18)
_cell_angle_alpha                90
_cell_angle_beta                 112.844(4)
_cell_angle_gamma                90
_cell_volume                     567.546
_exptl_crystal_colour            colorless
_exptl_crystal_description       block
_cell_formula_units_Z            2
loop_
_atom_site_label
_atom_site_type_symbol
_atom_site_fract_x
_atom_site_fract_y
_atom_site_fract_z
P1 P 0.09436(8) 0.30470(5) 0.40374(6)
N1 N 0.3255(3) 0.46267(16) 0.2692(2)
H1 H 0.3267 0.5449 0.2344
C1 C 0.5069(3) 0.44961(19) 0.4377(2)
H2 H 0.6368 0.4598 0.4214
H3 H 0.5060 0.3650 0.4844
C2 C 0.1147(3) 0.44101(19) 0.2751(3)
H4 H 0.0139 0.4292 0.1590
H5 H 0.0753 0.5178 0.3194
C3 C 0.3592(4) 0.3795(2) 0.1390(3)
H6 H 0.4952 0.3960 0.1388
H7 H 0.2544 0.3979 0.0280
H8 H 0.3497 0.2913 0.1666
O1 O -0.1460(2) 0.28561(14) 0.34051(19)
H9 H -0.1862 0.2391 0.2560
O2 O 0.1739(2) 0.35003(13) 0.58667(18)
O3 O 0.2067(2) 0.19215(13) 0.36886(19)
C1B C 0.4931(3) 0.55039(19) 0.5623(2)
N1B N 0.6745(3) 0.53733(16) 0.7308(2)
H1B H 0.6733 0.4551 0.7656
C2B C 0.8853(3) 0.55899(19) 0.7249(3)
P1B P 0.90564(8) 0.69530(5) 0.59626(6)
O1B O 1.1460(2) 0.71439(14) 0.65949(19)
H9B H 1.1862 0.7609 0.7440
O2B O 0.8261(2) 0.64997(13) 0.41333(18)
O3B O 0.7933(2) 0.80785(13) 0.63114(19)
H4B H 0.9861 0.5708 0.8410
H5B H 0.9247 0.4822 0.6806
C3B C 0.6408(4) 0.6205(2) 0.8610(3)
H6B H 0.5048 0.6040 0.8612
H7B H 0.7456 0.6021 0.9720
H8B H 0.6503 0.7087 0.8334
H2B H 0.3632 0.5402 0.5786
H3B H 0.4940 0.6350 0.5156
loop_
_geom_bond_atom_site_label_1
_geom_bond_atom_site_label_2
_geom_bond_site_symmetry_1
_geom_bond_site_symmetry_2
P1 C2 1_555 1_555
N1 H1 1_555 1_555
C1 N1 1_555 1_555
H2 C1 1_555 1_555
H3 C1 1_555 1_555
C2 N1 1_555 1_555
H4 C2 1_555 1_555
H5 C2 1_555 1_555
C3 N1 1_555 1_555
H6 C3 1_555 1_555
H7 C3 1_555 1_555
H8 C3 1_555 1_555
O1 P1 1_555 1_555
H9 O1 1_555 1_555
O2 P1 1_555 1_555
O3 P1 1_555 1_555
C1B C1 1_555 1_555
N1B C1B 1_555 1_555
H1B N1B 1_555 1_555
C2B N1B 1_555 1_555
P1B C2B 1_555 1_555
O1B P1B 1_555 1_555
H9B O1B 1_555 1_555
O2B P1B 1_555 1_555
O3B P1B 1_555 1_555
H4B C2B 1_555 1_555
H5B C2B 1_555 1_555
C3B N1B 1_555 1_555
H6B C3B 1_555 1_555
H7B C3B 1_555 1_555
H8B C3B 1_555 1_555
H2B C1B 1_555 1_555
H3B C1B 1_555 1_555

#END
