
#######################################################################
#
#                 Cambridge Crystallographic Data Centre
#                                CCDC 
#
#######################################################################
#
# If this CIF has been generated from an entry in the Cambridge 
# Structural Database, then it will include bibliographic, chemical, 
# crystal, experimental, refinement or atomic coordinate data resulting 
# from the CCDC's data processing and validation procedures.
#
#######################################################################

data_MUMSUJ
_chemical_formula_moiety         'C8 H11 F2 N3 O1'
_chemical_name_systematic        
5-(Butylamino)-4,6-difluoropyridazin-3(2H)-one
_symmetry_cell_setting           orthorhombic
_symmetry_space_group_name_H-M   'P n a 21'
_symmetry_Int_Tables_number      33
_space_group_name_Hall           'P 2c -2n'
loop_
_symmetry_equiv_pos_site_id
_symmetry_equiv_pos_as_xyz
1 x,y,z
2 -x,-y,1/2+z
3 1/2-x,1/2+y,1/2+z
4 1/2+x,1/2-y,z
_cell_length_a                   15.0815(4)
_cell_length_b                   24.6147(6)
_cell_length_c                   5.0146(1)
_cell_angle_alpha                90
_cell_angle_beta                 90
_cell_angle_gamma                90
_cell_volume                     1861.55
_exptl_crystal_colour            colorless
_exptl_crystal_description       needle
_chemical_melting_point          '143-144 deg.C'
_cell_formula_units_Z            8
_exptl_crystal_recrystallization_method acetonitrile
loop_
_atom_site_label
_atom_site_type_symbol
_atom_site_fract_x
_atom_site_fract_y
_atom_site_fract_z
F1 F 0.90148(6) 0.97033(4) 0.4592(2)
F2 F 0.84148(6) 1.10601(3) 1.0972(2)
O1 O 0.98107(7) 1.16042(4) 0.8896(2)
N1 N 0.99938(9) 1.09494(5) 0.5732(3)
N2 N 0.98191(8) 1.04592(5) 0.4625(3)
N3 N 0.80027(9) 0.99921(6) 0.8737(3)
C1 C 0.91889(10) 1.01888(6) 0.5682(3)
C2 C 0.86358(9) 1.03422(6) 0.7898(3)
C3 C 0.88393(9) 1.08486(6) 0.8858(3)
C4 C 0.95638(9) 1.11637(6) 0.7870(3)
C5 C 0.73310(10) 1.01141(7) 1.0723(4)
C6 C 0.67633(12) 0.96201(7) 1.1208(4)
C7 C 0.60286(12) 0.97134(8) 1.3207(5)
C8 C 0.5484(2) 0.92106(10) 1.3725(8)
H1 H 1.0454(12) 1.1112(7) 0.508(4)
H2 H 0.8082(13) 0.9667(9) 0.834(5)
H3 H 0.6953(14) 1.0410(9) 0.998(5)
H4 H 0.7593(13) 1.0218(9) 1.229(5)
H5 H 0.7190(16) 0.9310(10) 1.199(5)
H6 H 0.6547(15) 0.9509(10) 0.953(6)
H7 H 0.5635(14) 0.9995(10) 1.237(5)
H8 H 0.6253(16) 0.9853(10) 1.484(6)
H9 H 0.529(2) 0.9074(15) 1.234(8)
H10 H 0.4991(17) 0.9283(10) 1.501(6)
H11 H 0.582(2) 0.8876(15) 1.415(8)
F3 F 0.71702(6) 0.70933(4) 0.3110(2)
F4 F 0.67619(6) 0.83037(4) 1.0310(2)
O2 O 0.83386(7) 0.87573(4) 0.8828(3)
N4 N 0.84730(9) 0.81411(5) 0.5479(3)
N5 N 0.81936(8) 0.77166(5) 0.3981(3)
N6 N 0.61215(9) 0.73813(6) 0.7176(3)
C9 C 0.74493(10) 0.75081(6) 0.4636(4)
C10 C 0.68718(10) 0.76677(6) 0.6781(3)
C11 C 0.72027(9) 0.81000(6) 0.8189(3)
C12 C 0.80268(10) 0.83600(6) 0.7577(3)
C13 C 0.53896(10) 0.75407(6) 0.8922(4)
C14 C 0.48608(10) 0.80177(7) 0.7838(4)
C15 C 0.40381(11) 0.81337(7) 0.9503(4)
C16 C 0.35157(13) 0.86226(8) 0.8491(5)
H12 H 0.8978(14) 0.8274(8) 0.497(5)
H13 H 0.5998(13) 0.7136(8) 0.614(5)
H14 H 0.5007(13) 0.7216(8) 0.912(4)
H15 H 0.5626(12) 0.7604(7) 1.070(4)
H16 H 0.4677(14) 0.7930(8) 0.600(5)
H17 H 0.5273(13) 0.8343(8) 0.782(4)
H18 H 0.4210(13) 0.8198(8) 1.145(5)
H19 H 0.3649(13) 0.7796(8) 0.958(4)
H20 H 0.2977(16) 0.8674(9) 0.957(5)
H21 H 0.3338(16) 0.8586(10) 0.669(6)
H22 H 0.3899(14) 0.8969(9) 0.854(5)
loop_
_geom_bond_atom_site_label_1
_geom_bond_atom_site_label_2
_geom_bond_site_symmetry_1
_geom_bond_site_symmetry_2
F1 C1 1_555 1_555
F2 C3 1_555 1_555
F3 C9 1_555 1_555
F4 C11 1_555 1_555
O1 C4 1_555 1_555
O2 C12 1_555 1_555
N1 N2 1_555 1_555
N2 C1 1_555 1_555
N3 C2 1_555 1_555
N4 N5 1_555 1_555
N5 C9 1_555 1_555
N6 C10 1_555 1_555
C1 C2 1_555 1_555
C2 C3 1_555 1_555
C3 C4 1_555 1_555
C4 N1 1_555 1_555
C5 N3 1_555 1_555
C6 C5 1_555 1_555
C7 C6 1_555 1_555
C8 C7 1_555 1_555
C9 C10 1_555 1_555
C10 C11 1_555 1_555
C11 C12 1_555 1_555
C12 N4 1_555 1_555
C13 N6 1_555 1_555
C14 C13 1_555 1_555
C15 C14 1_555 1_555
C16 C15 1_555 1_555
H1 N1 1_555 1_555
H2 N3 1_555 1_555
H3 C5 1_555 1_555
H4 C5 1_555 1_555
H5 C6 1_555 1_555
H6 C6 1_555 1_555
H7 C7 1_555 1_555
H8 C7 1_555 1_555
H9 C8 1_555 1_555
H10 C8 1_555 1_555
H11 C8 1_555 1_555
H12 N4 1_555 1_555
H13 N6 1_555 1_555
H14 C13 1_555 1_555
H15 C13 1_555 1_555
H16 C14 1_555 1_555
H17 C14 1_555 1_555
H18 C15 1_555 1_555
H19 C15 1_555 1_555
H20 C16 1_555 1_555
H21 C16 1_555 1_555
H22 C16 1_555 1_555

#END
