
#######################################################################
#
#                 Cambridge Crystallographic Data Centre
#                                CCDC 
#
#######################################################################
#
# If this CIF has been generated from an entry in the Cambridge 
# Structural Database, then it will include bibliographic, chemical, 
# crystal, experimental, refinement or atomic coordinate data resulting 
# from the CCDC's data processing and validation procedures.
#
#######################################################################

data_MUMSIX
_chemical_formula_moiety         'C11 H9 F2 N3 O1'
_chemical_name_systematic        
4-(Benzylamino)-5,6-difluoropyridazin-3(2H)-one
_symmetry_cell_setting           triclinic
_symmetry_space_group_name_H-M   'P -1'
_symmetry_Int_Tables_number      2
_space_group_name_Hall           '-P 1'
loop_
_symmetry_equiv_pos_site_id
_symmetry_equiv_pos_as_xyz
1 x,y,z
2 -x,-y,-z
_cell_length_a                   5.5843(4)
_cell_length_b                   7.7332(5)
_cell_length_c                   23.7937(15)
_cell_angle_alpha                95.333(2)
_cell_angle_beta                 95.092(2)
_cell_angle_gamma                90.950(2)
_cell_volume                     1018.71
_exptl_crystal_colour            colorless
_exptl_crystal_description       prism
_chemical_melting_point          '146-147 deg.C'
_cell_formula_units_Z            4
_exptl_crystal_recrystallization_method acetonitrile
loop_
_atom_site_label
_atom_site_type_symbol
_atom_site_fract_x
_atom_site_fract_y
_atom_site_fract_z
F1 F -0.3099(3) 0.4089(2) 0.02572(8)
F2 F -0.2568(4) 0.3322(3) -0.08304(8)
O1 O 0.3995(4) 0.0943(3) 0.06297(9)
N1 N 0.0794(5) 0.1858(3) -0.06711(11)
N2 N 0.2423(5) 0.1293(3) -0.02704(11)
N3 N 0.0521(5) 0.2816(4) 0.10843(12)
C1 C 0.2418(5) 0.1549(4) 0.03009(13)
C2 C 0.0450(5) 0.2571(4) 0.05219(13)
C3 C -0.1191(6) 0.3138(4) 0.01194(13)
C4 C -0.0915(6) 0.2734(4) -0.04593(14)
C5 C -0.1255(6) 0.3700(5) 0.14152(14)
C6 C -0.0266(5) 0.4056(4) 0.20273(13)
C7 C -0.1596(6) 0.3565(4) 0.24566(14)
C8 C -0.0740(6) 0.3937(4) 0.30233(14)
C9 C 0.1483(6) 0.4801(4) 0.31616(14)
C10 C 0.2813(6) 0.5286(4) 0.27347(15)
C11 C 0.1947(6) 0.4926(4) 0.21708(14)
H1 H 0.364(8) 0.071(6) -0.0388(18)
H2 H 0.161(8) 0.242(6) 0.1268(19)
H3 H -0.167(7) 0.476(5) 0.1263(17)
H4 H -0.291(10) 0.298(7) 0.135(2)
H5 H -0.317(9) 0.313(6) 0.235(2)
H6 H -0.170(8) 0.364(6) 0.334(2)
H7 H 0.199(7) 0.503(5) 0.3559(17)
H8 H 0.437(8) 0.593(6) 0.2877(18)
H9 H 0.287(7) 0.525(5) 0.1880(16)
F3 F 1.2442(3) 0.9268(2) 0.44289(8)
F4 F 1.3393(3) 0.8408(2) 0.54837(8)
O2 O 0.5202(4) 0.5977(3) 0.43884(9)
N4 N 0.9949(5) 0.6912(3) 0.54804(11)
N5 N 0.7851(5) 0.6344(3) 0.51733(11)
N6 N 0.7849(5) 0.7987(3) 0.38177(11)
C12 C 0.7122(5) 0.6608(4) 0.46346(13)
C13 C 0.8709(5) 0.7698(4) 0.43447(13)
C14 C 1.0818(5) 0.8260(4) 0.46466(13)
C15 C 1.1313(5) 0.7822(4) 0.52023(13)
C16 C 0.8962(6) 0.9084(4) 0.34363(13)
C17 C 0.7176(5) 0.9297(4) 0.29355(13)
C18 C 0.7583(6) 0.8550(4) 0.23982(14)
C19 C 0.5915(6) 0.8717(4) 0.19351(14)
C20 C 0.3822(6) 0.9606(4) 0.20122(15)
C21 C 0.3409(6) 1.0362(4) 0.25449(15)
C22 C 0.5092(6) 1.0216(4) 0.30049(14)
H10 H 0.686(7) 0.570(5) 0.5369(16)
H11 H 0.638(10) 0.754(7) 0.369(2)
H12 H 1.050(7) 0.851(5) 0.3293(16)
H13 H 0.940(7) 1.029(5) 0.3633(16)
H14 H 0.904(7) 0.801(5) 0.2306(15)
H15 H 0.643(9) 0.818(6) 0.153(2)
H16 H 0.265(7) 0.968(5) 0.1675(17)
H17 H 0.187(8) 1.095(6) 0.2614(18)
H18 H 0.484(6) 1.078(4) 0.3367(15)
loop_
_geom_bond_atom_site_label_1
_geom_bond_atom_site_label_2
_geom_bond_site_symmetry_1
_geom_bond_site_symmetry_2
F1 C3 1_555 1_555
F2 C4 1_555 1_555
F3 C14 1_555 1_555
F4 C15 1_555 1_555
O1 C1 1_555 1_555
O2 C12 1_555 1_555
N1 N2 1_555 1_555
N2 C1 1_555 1_555
N3 C2 1_555 1_555
N4 N5 1_555 1_555
N5 C12 1_555 1_555
N6 C13 1_555 1_555
C1 C2 1_555 1_555
C2 C3 1_555 1_555
C3 C4 1_555 1_555
C4 N1 1_555 1_555
C5 N3 1_555 1_555
C6 C5 1_555 1_555
C7 C6 1_555 1_555
C8 C7 1_555 1_555
C9 C8 1_555 1_555
C10 C9 1_555 1_555
C11 C6 1_555 1_555
C12 C13 1_555 1_555
C13 C14 1_555 1_555
C14 C15 1_555 1_555
C15 N4 1_555 1_555
C16 N6 1_555 1_555
C17 C16 1_555 1_555
C18 C17 1_555 1_555
C19 C18 1_555 1_555
C20 C19 1_555 1_555
C21 C20 1_555 1_555
C22 C17 1_555 1_555
H1 N2 1_555 1_555
H2 N3 1_555 1_555
H3 C5 1_555 1_555
H4 C5 1_555 1_555
H5 C7 1_555 1_555
H6 C8 1_555 1_555
H7 C9 1_555 1_555
H8 C10 1_555 1_555
H9 C11 1_555 1_555
H10 N5 1_555 1_555
H11 N6 1_555 1_555
H12 C16 1_555 1_555
H13 C16 1_555 1_555
H14 C18 1_555 1_555
H15 C19 1_555 1_555
H16 C20 1_555 1_555
H17 C21 1_555 1_555
H18 C22 1_555 1_555
C10 C11 1_555 1_555
C21 C22 1_555 1_555

#END
