
#######################################################################
#
#                 Cambridge Crystallographic Data Centre
#                                CCDC 
#
#######################################################################
#
# If this CIF has been generated from an entry in the Cambridge 
# Structural Database, then it will include bibliographic, chemical, 
# crystal, experimental, refinement or atomic coordinate data resulting 
# from the CCDC's data processing and validation procedures.
#
#######################################################################

data_MUMYOK
_chemical_formula_moiety         'C40 H47 Br1 N2 O5 S1,C1 H2 Cl2'
_chemical_name_systematic        
"t-Butyl 2-(5'-(4-bromophenyl)-1-methyl-2-oxo-1'-((2,4,6-triisopropylphenyl)sulfonyl)-1,1',2,2'-tetrahydrospiro[indole-3,3'-pyrrol]-2'-yl)acrylate dichloromethane solvate"
_symmetry_cell_setting           orthorhombic
_symmetry_space_group_name_H-M   'P c a 21'
_symmetry_Int_Tables_number      29
_space_group_name_Hall           'P 2c -2ac'
loop_
_symmetry_equiv_pos_site_id
_symmetry_equiv_pos_as_xyz
1 x,y,z
2 -x,-y,1/2+z
3 1/2+x,-y,z
4 1/2-x,y,1/2+z
_cell_length_a                   29.462(4)
_cell_length_b                   12.7234(15)
_cell_length_c                   11.2553(14)
_cell_angle_alpha                90
_cell_angle_beta                 90
_cell_angle_gamma                90
_cell_volume                     4219.13
_exptl_crystal_colour            colorless
_exptl_crystal_description       prismatic
_cell_formula_units_Z            4
loop_
_atom_site_label
_atom_site_type_symbol
_atom_site_fract_x
_atom_site_fract_y
_atom_site_fract_z
Br1 Br 0.78264(6) -0.16705(11) 0.68106(16)
S1 S 0.85116(6) 0.33025(15) 0.3861(2)
N1 N 0.9975(3) 0.1062(6) 0.0883(8)
N2 N 0.8907(2) 0.2384(5) 0.3637(6)
O1 O 1.0049(2) 0.0904(5) 0.2910(7)
O2 O 1.0486(2) 0.3423(5) 0.3799(7)
O3 O 1.01011(18) 0.3528(4) 0.2075(6)
O4 O 0.87370(18) 0.4121(4) 0.4488(6)
O5 O 0.81441(17) 0.2771(4) 0.4439(5)
C1 C 0.9671(3) 0.1552(7) 0.0089(9)
C2 C 0.9701(4) 0.1576(9) -0.1152(11)
H1 H 0.9936 0.1251 -0.1566
C3 C 0.9355(5) 0.2121(11) -0.1718(12)
H2 H 0.9357 0.2152 -0.2544
C4 C 0.9017(4) 0.2603(9) -0.1135(11)
H3 H 0.8801 0.2981 -0.1559
C5 C 0.8986(3) 0.2544(8) 0.0110(9)
H4 H 0.8749 0.2866 0.0516
C6 C 0.9316(3) 0.2000(7) 0.0704(8)
C7 C 0.9375(3) 0.1750(6) 0.2019(8)
C8 C 0.9851(3) 0.1226(7) 0.2003(11)
C9 C 1.0373(3) 0.0450(9) 0.0532(12)
H5 H 1.0536 0.0817 -0.0080
H6 H 1.0278 -0.0223 0.0239
H7 H 1.0568 0.0353 0.1208
C10 C 0.9050(3) 0.0954(7) 0.2505(8)
H8 H 0.9028 0.0274 0.2208
C11 C 0.8800(3) 0.1296(6) 0.3379(8)
C12 C 0.9315(3) 0.2683(7) 0.2918(7)
H9 H 0.9247 0.3326 0.2472
C13 C 0.9712(2) 0.2889(6) 0.3740(8)
C14 C 0.9686(3) 0.2800(8) 0.4881(9)
H10 H 0.9931 0.2992 0.5355
H11 H 0.9422 0.2545 0.5229
C15 C 1.0145(3) 0.3306(7) 0.3219(10)
C16 C 1.0492(3) 0.3989(8) 0.1401(9)
C17 C 1.0600(3) 0.5052(8) 0.1984(12)
H12 H 1.0726 0.4937 0.2760
H13 H 1.0327 0.5458 0.2052
H14 H 1.0816 0.5426 0.1503
C18 C 1.0885(4) 0.3264(10) 0.1369(13)
H15 H 1.0788 0.2587 0.1092
H16 H 1.1010 0.3197 0.2153
H17 H 1.1112 0.3538 0.0841
C19 C 1.0274(4) 0.4137(10) 0.0176(10)
H18 H 1.0498 0.4394 -0.0373
H19 H 1.0030 0.4634 0.0234
H20 H 1.0158 0.3475 -0.0101
C20 C 0.8534(3) 0.0654(6) 0.4205(8)
C21 C 0.8287(3) -0.0197(8) 0.3786(11)
H21 H 0.8261 -0.0312 0.2973
C22 C 0.8083(4) -0.0867(8) 0.4571(13)
H22 H 0.7917 -0.1433 0.4280
C23 C 0.8115(4) -0.0729(8) 0.5756(12)
C24 C 0.8357(3) 0.0093(8) 0.6200(10)
H23 H 0.8389 0.0185 0.7016
C25 C 0.8555(3) 0.0791(7) 0.5407(9)
H24 H 0.8708 0.1374 0.5704
C26 C 0.8316(3) 0.3804(7) 0.2460(8)
C27 C 0.7975(2) 0.3221(6) 0.1838(9)
C28 C 0.7791(3) 0.3687(7) 0.0843(9)
H25 H 0.7555 0.3344 0.0452
C29 C 0.7938(3) 0.4642(8) 0.0396(8)
C30 C 0.8278(3) 0.5139(7) 0.0978(8)
H26 H 0.8379 0.5779 0.0678
C31 C 0.8488(3) 0.4748(6) 0.2003(8)
C32 C 0.8881(3) 0.5432(7) 0.2499(9)
H27 H 0.9029 0.5034 0.3135
C33 C 0.8701(4) 0.6422(8) 0.3027(11)
H28 H 0.8945 0.6808 0.3384
H29 H 0.8479 0.6255 0.3622
H30 H 0.8563 0.6840 0.2416
C34 C 0.9233(3) 0.5632(10) 0.1535(10)
H31 H 0.9105 0.6079 0.0934
H32 H 0.9322 0.4976 0.1184
H33 H 0.9494 0.5968 0.1877
C35 C 0.7792(3) 0.2140(7) 0.2172(9)
H34 H 0.7985 0.1853 0.2802
C36 C 0.7817(3) 0.1398(8) 0.1105(11)
H35 H 0.7608 0.1627 0.0505
H36 H 0.7740 0.0698 0.1353
H37 H 0.8120 0.1402 0.0788
C37 C 0.7309(3) 0.2206(9) 0.2643(9)
H38 H 0.7288 0.2769 0.3208
H39 H 0.7231 0.1555 0.3021
H40 H 0.7104 0.2337 0.1996
C38 C 0.7728(4) 0.5097(8) -0.0725(10)
H41 H 0.7491 0.4612 -0.0995
C39 C 0.7500(6) 0.6155(11) -0.0429(15)
H42 H 0.7352 0.6106 0.0329
H43 H 0.7280 0.6320 -0.1029
H44 H 0.7726 0.6698 -0.0402
C40 C 0.8068(5) 0.5223(13) -0.1722(14)
H45 H 0.8273 0.5787 -0.1537
H46 H 0.7911 0.5378 -0.2448
H47 H 0.8237 0.4583 -0.1814
Cl1 Cl 0.8537(4) 0.8982(15) 0.9902(13)
Cl2 Cl 0.9343(2) 0.8587(3) 1.0978(7)
C41 C 0.9008(7) 0.901(3) 0.948(2)
H48 H 0.9094 0.9707 0.9211
H49 H 0.9057 0.8509 0.8837
loop_
_geom_bond_atom_site_label_1
_geom_bond_atom_site_label_2
_geom_bond_site_symmetry_1
_geom_bond_site_symmetry_2
Br1 C23 1_555 1_555
S1 N2 1_555 1_555
N1 C1 1_555 1_555
N2 C11 1_555 1_555
O1 C8 1_555 1_555
O2 C15 1_555 1_555
O3 C15 1_555 1_555
O4 S1 1_555 1_555
O5 S1 1_555 1_555
C1 C2 1_555 1_555
C2 H1 1_555 1_555
C3 C2 1_555 1_555
H2 C3 1_555 1_555
C4 C3 1_555 1_555
H3 C4 1_555 1_555
C5 C4 1_555 1_555
H4 C5 1_555 1_555
C6 C1 1_555 1_555
C7 C6 1_555 1_555
C8 N1 1_555 1_555
C9 N1 1_555 1_555
H5 C9 1_555 1_555
H6 C9 1_555 1_555
H7 C9 1_555 1_555
C10 C7 1_555 1_555
H8 C10 1_555 1_555
C11 C10 1_555 1_555
C12 N2 1_555 1_555
H9 C12 1_555 1_555
C13 C12 1_555 1_555
C14 C13 1_555 1_555
H10 C14 1_555 1_555
H11 C14 1_555 1_555
C15 C13 1_555 1_555
C16 O3 1_555 1_555
C17 C16 1_555 1_555
H12 C17 1_555 1_555
H13 C17 1_555 1_555
H14 C17 1_555 1_555
C18 C16 1_555 1_555
H15 C18 1_555 1_555
H16 C18 1_555 1_555
H17 C18 1_555 1_555
C19 C16 1_555 1_555
H18 C19 1_555 1_555
H19 C19 1_555 1_555
H20 C19 1_555 1_555
C20 C11 1_555 1_555
C21 C20 1_555 1_555
H21 C21 1_555 1_555
C22 C21 1_555 1_555
H22 C22 1_555 1_555
C23 C22 1_555 1_555
C24 C23 1_555 1_555
H23 C24 1_555 1_555
C25 C20 1_555 1_555
H24 C25 1_555 1_555
C26 S1 1_555 1_555
C27 C26 1_555 1_555
C28 C27 1_555 1_555
H25 C28 1_555 1_555
C29 C28 1_555 1_555
C30 C29 1_555 1_555
H26 C30 1_555 1_555
C31 C26 1_555 1_555
C32 C31 1_555 1_555
H27 C32 1_555 1_555
C33 C32 1_555 1_555
H28 C33 1_555 1_555
H29 C33 1_555 1_555
H30 C33 1_555 1_555
C34 C32 1_555 1_555
H31 C34 1_555 1_555
H32 C34 1_555 1_555
H33 C34 1_555 1_555
C35 C27 1_555 1_555
H34 C35 1_555 1_555
C36 C35 1_555 1_555
H35 C36 1_555 1_555
H36 C36 1_555 1_555
H37 C36 1_555 1_555
C37 C35 1_555 1_555
H38 C37 1_555 1_555
H39 C37 1_555 1_555
H40 C37 1_555 1_555
C38 C29 1_555 1_555
H41 C38 1_555 1_555
C39 C38 1_555 1_555
H42 C39 1_555 1_555
H43 C39 1_555 1_555
H44 C39 1_555 1_555
C40 C38 1_555 1_555
H45 C40 1_555 1_555
H46 C40 1_555 1_555
H47 C40 1_555 1_555
Cl1 C41 1_555 1_555
Cl2 C41 1_555 1_555
C41 H48 1_555 1_555
H49 C41 1_555 1_555
C5 C6 1_555 1_555
C7 C8 1_555 1_555
C7 C12 1_555 1_555
C24 C25 1_555 1_555
C30 C31 1_555 1_555

#END
