
#######################################################################
#
#                 Cambridge Crystallographic Data Centre
#                                CCDC 
#
#######################################################################
#
# If this CIF has been generated from an entry in the Cambridge 
# Structural Database, then it will include bibliographic, chemical, 
# crystal, experimental, refinement or atomic coordinate data resulting 
# from the CCDC's data processing and validation procedures.
#
#######################################################################

data_MUNBAA
_chemical_formula_moiety         'C20 H24 N2 O4,C36 H36 N24 O12'
_chemical_name_systematic        
"[2]-(3,3'-(Butane-1,4-diylbis(ammoniomethylene))dibenzoate)-(cucurbit[6]uril)-pseudorotaxane unknown solvate"
_symmetry_cell_setting           triclinic
_symmetry_space_group_name_H-M   'P -1'
_symmetry_Int_Tables_number      2
_space_group_name_Hall           '-P 1'
loop_
_symmetry_equiv_pos_site_id
_symmetry_equiv_pos_as_xyz
1 x,y,z
2 -x,-y,-z
_cell_length_a                   12.0981(8)
_cell_length_b                   12.3714(8)
_cell_length_c                   12.6019(10)
_cell_angle_alpha                106.437(7)
_cell_angle_beta                 109.956(7)
_cell_angle_gamma                91.163(5)
_cell_volume                     1686.08
_exptl_crystal_colour            white
_exptl_crystal_description       block
_cell_formula_units_Z            1
loop_
_atom_site_label
_atom_site_type_symbol
_atom_site_fract_x
_atom_site_fract_y
_atom_site_fract_z
O1 O 1.0770(2) 0.3956(2) 0.0961(2)
O2 O 1.1192(2) 0.0857(2) 0.4203(2)
O3 O 1.0008(3) 0.2914(2) 0.2835(2)
O4 O 0.6897(2) 0.0511(2) -0.3023(2)
O5 O 0.7397(2) -0.2409(2) -0.0009(2)
N1 N 0.8291(3) 0.2006(2) -0.2641(3)
N2 N 0.8846(3) -0.2326(2) 0.1768(2)
O6 O 0.5975(3) -0.0330(2) -0.1077(2)
N3 N 0.9136(3) 0.0327(2) 0.3405(3)
N4 N 0.8337(3) 0.1755(3) 0.2557(3)
N5 N 1.0339(3) -0.1030(2) 0.3480(3)
N6 N 0.8174(3) 0.2872(2) 0.1404(3)
N7 N 0.9812(3) 0.3446(2) -0.1059(3)
N8 N 0.7621(3) -0.1029(2) 0.1720(3)
N9 N 0.8728(3) 0.3624(2) 0.0064(3)
N10 N 0.7186(3) 0.2198(3) -0.1518(3)
N11 N 0.6518(3) 0.1581(3) -0.0147(3)
N12 N 0.6714(3) 0.0441(3) 0.0955(3)
C1 C 1.0331(4) 0.0126(3) 0.3744(3)
C2 C 0.9192(3) -0.1648(3) 0.3017(3)
H1 H 0.9096 -0.2101 0.3511
C3 C 0.7399(3) 0.1468(3) -0.2447(3)
C4 C 0.9876(4) 0.3698(3) 0.0080(3)
C5 C 0.7907(3) -0.1965(3) 0.1051(3)
C6 C 0.8593(4) 0.3177(3) -0.1923(3)
H2 H 0.8414 0.3694 -0.2405
C7 C 0.8366(4) -0.0736(3) 0.2966(3)
H3 H 0.7890 -0.0745 0.3456
C8 C 0.8957(4) 0.2551(3) 0.2324(3)
C9 C 0.8795(4) 0.1412(3) 0.3617(3)
H4 H 0.8854 0.1871 0.4365
C10 C 0.6396(3) 0.0476(3) -0.0180(3)
C11 C 0.7844(4) 0.3309(3) -0.1120(3)
H5 H 0.7317 0.3893 -0.1221
C12 C 0.6973(4) 0.2353(3) 0.1033(3)
H6 H 0.6439 0.2918 0.1166
C13 C 0.9161(3) -0.3453(3) 0.1367(3)
H7 H 0.9301 -0.3805 0.1990
H8 H 0.8500 -0.3912 0.0681
C14 C 1.1441(4) -0.1539(3) 0.3696(3)
H9 H 1.2089 -0.0965 0.4270
H10 H 1.1386 -0.2138 0.4040
C15 C 0.7086(4) 0.1563(3) 0.1801(3)
H11 H 0.6580 0.1741 0.2275
C16 C 0.8495(4) 0.3866(3) 0.1150(3)
H12 H 0.9197 0.4300 0.1803
H13 H 0.7858 0.4336 0.1102
C17 C 0.6545(4) -0.0562(3) 0.1241(4)
H14 H 0.6019 -0.1133 0.0530
H15 H 0.6154 -0.0399 0.1813
C18 C 0.6206(3) 0.1954(4) -0.1199(4)
H16 H 0.5639 0.1367 -0.1862
H17 H 0.5817 0.2631 -0.1065
O1A O 0.9230(2) -0.3956(2) -0.0961(2)
O2A O 0.8808(2) -0.0857(2) -0.4203(2)
O3A O 0.9992(3) -0.2914(2) -0.2835(2)
O4A O 1.3103(2) -0.0511(2) 0.3023(2)
O5A O 1.2603(2) 0.2409(2) 0.0009(2)
N1A N 1.1709(3) -0.2006(2) 0.2641(3)
N2A N 1.1154(3) 0.2326(2) -0.1768(2)
O6A O 1.4025(3) 0.0330(2) 0.1077(2)
N3A N 1.0864(3) -0.0327(2) -0.3405(3)
N4A N 1.1663(3) -0.1755(3) -0.2557(3)
N5A N 0.9661(3) 0.1030(2) -0.3480(3)
N6A N 1.1826(3) -0.2872(2) -0.1404(3)
N7A N 1.0188(3) -0.3446(2) 0.1059(3)
N8A N 1.2379(3) 0.1029(2) -0.1720(3)
N9A N 1.1272(3) -0.3624(2) -0.0064(3)
N10A N 1.2814(3) -0.2198(3) 0.1518(3)
N11A N 1.3482(3) -0.1581(3) 0.0147(3)
N12A N 1.3286(3) -0.0441(3) -0.0955(3)
C1A C 0.9669(4) -0.0126(3) -0.3744(3)
C2A C 1.0808(3) 0.1648(3) -0.3017(3)
H1A H 1.0904 0.2101 -0.3511
C3A C 1.2601(3) -0.1468(3) 0.2447(3)
C4A C 1.0124(4) -0.3698(3) -0.0080(3)
C5A C 1.2093(3) 0.1965(3) -0.1051(3)
C6A C 1.1407(4) -0.3177(3) 0.1923(3)
H2A H 1.1586 -0.3694 0.2405
C7A C 1.1634(4) 0.0736(3) -0.2966(3)
H3A H 1.2110 0.0745 -0.3456
C8A C 1.1043(4) -0.2551(3) -0.2324(3)
C9A C 1.1205(4) -0.1412(3) -0.3617(3)
H4A H 1.1146 -0.1871 -0.4365
C10A C 1.3604(3) -0.0476(3) 0.0180(3)
C11A C 1.2156(4) -0.3309(3) 0.1120(3)
H5A H 1.2683 -0.3893 0.1221
C12A C 1.3027(4) -0.2353(3) -0.1033(3)
H6A H 1.3561 -0.2918 -0.1166
C13A C 1.0839(3) 0.3453(3) -0.1367(3)
H7A H 1.0699 0.3805 -0.1990
H8A H 1.1500 0.3912 -0.0681
C14A C 0.8559(4) 0.1539(3) -0.3696(3)
H9A H 0.7911 0.0965 -0.4270
H10A H 0.8614 0.2138 -0.4040
C15A C 1.2914(4) -0.1563(3) -0.1801(3)
H11A H 1.3420 -0.1741 -0.2275
C16A C 1.1505(4) -0.3866(3) -0.1150(3)
H12A H 1.0803 -0.4300 -0.1803
H13A H 1.2142 -0.4336 -0.1102
C17A C 1.3455(4) 0.0562(3) -0.1241(4)
H14A H 1.3981 0.1133 -0.0530
H15A H 1.3846 0.0399 -0.1813
C18A C 1.3794(3) -0.1954(4) 0.1199(4)
H16A H 1.4361 -0.1367 0.1862
H17A H 1.4183 -0.2631 0.1065
N13 N 1.1824(3) -0.7872(2) 0.1790(3)
H18 H 1.2077 -0.7764 0.1229
H19 H 1.1277 -0.7402 0.1859
C19 C 1.1252(4) -0.9064(3) 0.1386(3)
H20 H 1.1847 -0.9571 0.1344
H21 H 1.0943 -0.9172 0.1970
O7 O 1.2828(4) -0.3391(3) 0.5207(4)
C20 C 1.0272(4) -0.9380(3) 0.0213(3)
H22 H 1.0571 -0.9244 -0.0367
H23 H 0.9659 -0.8896 0.0263
C21 C 1.3455(4) -0.6435(3) 0.3161(4)
C22 C 1.2842(4) -0.7555(3) 0.2936(4)
H24 H 1.2560 -0.7541 0.3573
H25 H 1.3388 -0.8117 0.2912
C23 C 1.3229(4) -0.5441(3) 0.3863(4)
H26 H 1.2693 -0.5478 0.4237
C24 C 1.3813(5) -0.4370(4) 0.4015(4)
O8 O 1.4169(5) -0.2401(4) 0.4895(5)
C25 C 1.4305(5) -0.6383(5) 0.2604(5)
H27 H 1.4503 -0.7041 0.2169
C26 C 1.3609(6) -0.3316(4) 0.4751(5)
C27 C 1.4629(5) -0.4409(5) 0.3415(5)
H28 H 1.5052 -0.3726 0.3525
C28 C 1.4823(6) -0.5312(6) 0.2739(6)
H29 H 1.5319 -0.5252 0.2329
N13A N 0.8176(3) -1.2128(2) -0.1790(3)
H18A H 0.7923 -1.2236 -0.1229
H19A H 0.8723 -1.2598 -0.1859
C19A C 0.8748(4) -1.0936(3) -0.1386(3)
H20A H 0.8153 -1.0429 -0.1344
H21A H 0.9057 -1.0828 -0.1970
O7A O 0.7172(4) -1.6609(3) -0.5207(4)
C20A C 0.9728(4) -1.0620(3) -0.0213(3)
H22A H 0.9429 -1.0756 0.0367
H23A H 1.0341 -1.1104 -0.0263
C21A C 0.6545(4) -1.3565(3) -0.3161(4)
C22A C 0.7158(4) -1.2445(3) -0.2936(4)
H24A H 0.7440 -1.2459 -0.3573
H25A H 0.6612 -1.1883 -0.2912
C23A C 0.6771(4) -1.4559(3) -0.3863(4)
H26A H 0.7307 -1.4522 -0.4237
C24A C 0.6187(5) -1.5630(4) -0.4015(4)
O8A O 0.5831(5) -1.7599(4) -0.4895(5)
C25A C 0.5695(5) -1.3617(5) -0.2604(5)
H27A H 0.5497 -1.2959 -0.2169
C26A C 0.6391(6) -1.6684(4) -0.4751(5)
C27A C 0.5371(5) -1.5591(5) -0.3415(5)
H28A H 0.4948 -1.6274 -0.3525
C28A C 0.5177(6) -1.4688(6) -0.2739(6)
H29A H 0.4681 -1.4748 -0.2329
loop_
_geom_bond_atom_site_label_1
_geom_bond_atom_site_label_2
_geom_bond_site_symmetry_1
_geom_bond_site_symmetry_2
O1 C4 1_555 1_555
O2 C1 1_555 1_555
O3 C8 1_555 1_555
O4 C3 1_555 1_555
O5 C5 1_555 1_555
N1 C3 1_555 1_555
N2 C2 1_555 1_555
O6 C10 1_555 1_555
N3 C1 1_555 1_555
N4 C8 1_555 1_555
N5 C1 1_555 1_555
N6 C8 1_555 1_555
N7 C4 1_555 1_555
N8 C5 1_555 1_555
N9 C4 1_555 1_555
N10 C3 1_555 1_555
N11 C10 1_555 1_555
N12 C10 1_555 1_555
C2 N5 1_555 1_555
H1 C2 1_555 1_555
C5 N2 1_555 1_555
C6 N1 1_555 1_555
H2 C6 1_555 1_555
C7 N3 1_555 1_555
H3 C7 1_555 1_555
C9 N3 1_555 1_555
H4 C9 1_555 1_555
C11 N9 1_555 1_555
H5 C11 1_555 1_555
C12 N6 1_555 1_555
H6 C12 1_555 1_555
C13 N2 1_555 1_555
H7 C13 1_555 1_555
H8 C13 1_555 1_555
C14 N5 1_555 1_555
H9 C14 1_555 1_555
H10 C14 1_555 1_555
C15 N4 1_555 1_555
H11 C15 1_555 1_555
C16 N6 1_555 1_555
H12 C16 1_555 1_555
H13 C16 1_555 1_555
C17 N8 1_555 1_555
H14 C17 1_555 1_555
H15 C17 1_555 1_555
C18 N10 1_555 1_555
H16 C18 1_555 1_555
H17 C18 1_555 1_555
N13 H18 1_555 1_555
H19 N13 1_555 1_555
C19 N13 1_555 1_555
H20 C19 1_555 1_555
H21 C19 1_555 1_555
O7 C26 1_555 1_555
C20 C19 1_555 1_555
H22 C20 1_555 1_555
H23 C20 1_555 1_555
C21 C22 1_555 1_555
C22 N13 1_555 1_555
H24 C22 1_555 1_555
H25 C22 1_555 1_555
C23 C21 1_555 1_555
H26 C23 1_555 1_555
C24 C23 1_555 1_555
O8 C26 1_555 1_555
C25 C21 1_555 1_555
H27 C25 1_555 1_555
C26 C24 1_555 1_555
C27 C24 1_555 1_555
H28 C27 1_555 1_555
C28 C25 1_555 1_555
H29 C28 1_555 1_555
O1A C4A 1_555 1_555
O2A C1A 1_555 1_555
O3A C8A 1_555 1_555
O4A C3A 1_555 1_555
O5A C5A 1_555 1_555
N1A C14 1_555 1_555
N2A C2A 1_555 1_555
O6A C10A 1_555 1_555
N3A C1A 1_555 1_555
N4A C8A 1_555 1_555
N5A C1A 1_555 1_555
N6A C8A 1_555 1_555
N7A C13 1_555 1_555
N8A C5A 1_555 1_555
N9A C4A 1_555 1_555
N10A C3A 1_555 1_555
N11A C10A 1_555 1_555
N12A C10A 1_555 1_555
C2A N5A 1_555 1_555
H1A C2A 1_555 1_555
C3A N1A 1_555 1_555
C4A N7A 1_555 1_555
C5A N2A 1_555 1_555
C6A N1A 1_555 1_555
H2A C6A 1_555 1_555
C7A N3A 1_555 1_555
H3A C7A 1_555 1_555
C9A N3A 1_555 1_555
H4A C9A 1_555 1_555
C11A N9A 1_555 1_555
H5A C11A 1_555 1_555
C12A N6A 1_555 1_555
H6A C12A 1_555 1_555
C13A N7 1_555 1_555
H7A C13A 1_555 1_555
H8A C13A 1_555 1_555
C14A N1 1_555 1_555
H9A C14A 1_555 1_555
H10A C14A 1_555 1_555
C15A N4A 1_555 1_555
H11A C15A 1_555 1_555
C16A N6A 1_555 1_555
H12A C16A 1_555 1_555
H13A C16A 1_555 1_555
C17A N8A 1_555 1_555
H14A C17A 1_555 1_555
H15A C17A 1_555 1_555
C18A N10A 1_555 1_555
H16A C18A 1_555 1_555
H17A C18A 1_555 1_555
N13A H18A 1_555 1_555
H19A N13A 1_555 1_555
C19A N13A 1_555 1_555
H20A C19A 1_555 1_555
H21A C19A 1_555 1_555
O7A C26A 1_555 1_555
C20A C20 1_555 1_555
H22A C20A 1_555 1_555
H23A C20A 1_555 1_555
C21A C22A 1_555 1_555
C22A N13A 1_555 1_555
H24A C22A 1_555 1_555
H25A C22A 1_555 1_555
C23A C21A 1_555 1_555
H26A C23A 1_555 1_555
C24A C23A 1_555 1_555
O8A C26A 1_555 1_555
C25A C21A 1_555 1_555
H27A C25A 1_555 1_555
C26A C24A 1_555 1_555
C27A C24A 1_555 1_555
H28A C27A 1_555 1_555
C28A C25A 1_555 1_555
H29A C28A 1_555 1_555
N4 C9 1_555 1_555
N7 C6 1_555 1_555
N8 C7 1_555 1_555
N9 C16 1_555 1_555
N10 C11 1_555 1_555
N11 C12 1_555 1_555
N11 C18 1_555 1_555
N12 C15 1_555 1_555
N12 C17 1_555 1_555
C2 C7 1_555 1_555
C6 C11 1_555 1_555
C12 C15 1_555 1_555
C27 C28 1_555 1_555
N2A C13A 1_555 1_555
N4A C9A 1_555 1_555
N5A C14A 1_555 1_555
N7A C6A 1_555 1_555
N8A C7A 1_555 1_555
N9A C16A 1_555 1_555
N10A C11A 1_555 1_555
N11A C12A 1_555 1_555
N11A C18A 1_555 1_555
N12A C15A 1_555 1_555
N12A C17A 1_555 1_555
C2A C7A 1_555 1_555
C6A C11A 1_555 1_555
C12A C15A 1_555 1_555
C19A C20A 1_555 1_555
C27A C28A 1_555 1_555

#END
