
#######################################################################
#
#                 Cambridge Crystallographic Data Centre
#                                CCDC 
#
#######################################################################
#
# If this CIF has been generated from an entry in the Cambridge 
# Structural Database, then it will include bibliographic, chemical, 
# crystal, experimental, refinement or atomic coordinate data resulting 
# from the CCDC's data processing and validation procedures.
#
#######################################################################

data_MUNBEE
_chemical_formula_moiety         'C21 H24 N2 O4 2+,C36 H36 N24 O12,2(N1 O3 1-)'
_chemical_name_systematic        
'[2]-(1,5-bis((3-Carboxybenzyl)iminio)pentane)-(cucurbit[6]uril)-pseudorotaxane dinitrate unknown solvate'
_symmetry_cell_setting           monoclinic
_symmetry_space_group_name_H-M   'P 21/c'
_symmetry_Int_Tables_number      14
_space_group_name_Hall           '-P 2ybc'
loop_
_symmetry_equiv_pos_site_id
_symmetry_equiv_pos_as_xyz
1 x,y,z
2 -x,1/2+y,1/2-z
3 -x,-y,-z
4 x,1/2-y,1/2+z
_cell_length_a                   16.0949(4)
_cell_length_b                   15.7937(4)
_cell_length_c                   28.3533(7)
_cell_angle_alpha                90
_cell_angle_beta                 102.368(2)
_cell_angle_gamma                90
_cell_volume                     7040.08
_exptl_crystal_colour            colorless
_exptl_crystal_description       prismatic
_cell_formula_units_Z            4
loop_
_atom_site_label
_atom_site_type_symbol
_atom_site_fract_x
_atom_site_fract_y
_atom_site_fract_z
O1 O 0.59489(16) 0.28035(15) 0.46110(9)
O2 O 0.47790(16) 0.32675(15) 0.34631(9)
O3 O 0.70817(18) -0.05248(17) 0.39188(9)
O4 O 0.60991(18) -0.00023(16) 0.28189(10)
N1 N 0.66082(17) 0.15547(17) 0.48952(10)
N2 N 0.54383(17) 0.15011(17) 0.43213(10)
N3 N 0.46557(18) 0.18228(17) 0.35159(10)
O5 O 0.80858(18) 0.33998(17) 0.50577(10)
O6 O 0.58523(17) 0.43096(17) 0.27728(10)
N4 N 0.58777(18) 0.01457(17) 0.40531(10)
O7 O 0.7109(2) 0.10632(19) 0.20526(11)
O8 O 0.80429(18) 0.50155(19) 0.31865(11)
N5 N 0.51784(19) 0.10947(18) 0.25529(10)
N6 N 0.45764(19) 0.23991(18) 0.27973(10)
N7 N 0.51207(19) 0.04724(17) 0.32419(10)
O9 O 0.9170(2) 0.00603(19) 0.43093(11)
N8 N 0.70599(19) 0.02130(18) 0.46160(10)
O10 O 0.91533(19) 0.45205(19) 0.43372(11)
N9 N 0.80765(18) 0.19570(19) 0.51630(11)
N10 N 0.9267(2) 0.2571(2) 0.50782(11)
N11 N 0.53634(18) 0.31624(19) 0.22918(11)
N12 N 0.96782(19) 0.1246(2) 0.47551(11)
N13 N 0.85435(19) 0.05989(19) 0.49032(11)
N14 N 0.7042(2) 0.2491(2) 0.18861(13)
N15 N 0.5890(2) 0.1844(2) 0.20107(11)
N16 N 0.65517(19) 0.3790(2) 0.22052(12)
O11 O 0.9244(2) 0.1691(2) 0.24089(12)
O12 O 1.0198(2) 0.1239(2) 0.35525(11)
C1 C 0.5992(2) 0.2032(2) 0.46083(11)
N17 N 0.9212(2) 0.4281(2) 0.30587(12)
C2 C 0.46872(19) 0.2565(2) 0.32791(12)
N18 N 1.0424(2) 0.2042(2) 0.42404(12)
N19 N 1.0015(2) 0.3981(2) 0.38593(12)
N20 N 1.0005(2) 0.3354(2) 0.45586(12)
N21 N 0.8016(2) 0.4215(2) 0.25006(13)
C3 C 0.6447(2) 0.0658(2) 0.48327(11)
H1 H 0.6376 0.0388 0.5133
C4 C 0.5621(2) 0.0616(2) 0.44349(12)
H2 H 0.5157 0.0336 0.4549
N22 N 1.0453(2) 0.2668(3) 0.35506(13)
N23 N 0.8501(2) 0.2920(2) 0.21815(12)
N24 N 0.9710(2) 0.2993(3) 0.27335(12)
C5 C 0.4644(2) 0.1790(2) 0.40268(12)
H3 H 0.4519 0.2351 0.4133
H4 H 0.4191 0.1414 0.4073
C6 C 0.4461(2) 0.1108(2) 0.31934(12)
H5 H 0.3908 0.0858 0.3205
C7 C 0.4567(2) 0.3056(2) 0.24410(13)
H6 H 0.4127 0.2926 0.2159
H7 H 0.4418 0.3588 0.2572
C8 C 0.6708(2) -0.0099(2) 0.41700(12)
C9 C 0.4461(2) 0.1506(2) 0.26902(12)
H8 H 0.3928 0.1394 0.2457
C10 C 0.5527(2) 0.0477(2) 0.28646(12)
C11 C 0.8697(2) 0.1278(2) 0.52555(12)
H9 H 0.8774 0.1063 0.5586
C12 C 0.5299(2) -0.0142(2) 0.36261(13)
H10 H 0.4767 -0.0301 0.3711
H11 H 0.5533 -0.0645 0.3508
C13 C 0.8438(2) 0.2714(2) 0.50933(12)
C14 C 0.7245(2) 0.1912(2) 0.52771(12)
H12 H 0.7283 0.1572 0.5566
H13 H 0.7070 0.2478 0.5347
C15 C 0.5917(2) 0.3802(2) 0.24580(13)
C16 C 0.9134(2) 0.0577(2) 0.46207(13)
C17 C 0.9514(2) 0.1698(2) 0.51644(13)
H14 H 0.9987 0.1639 0.5445
C18 C 0.7892(2) -0.0039(2) 0.48784(14)
H15 H 0.8064 -0.0541 0.4727
H16 H 0.7854 -0.0191 0.5205
C19 C 0.5599(2) 0.2701(2) 0.18950(12)
H17 H 0.5146 0.2722 0.1603
C20 C 0.8386(2) 0.4553(3) 0.29418(15)
C21 C 0.5339(3) 0.1155(2) 0.20691(12)
H18 H 0.5592 0.0629 0.1993
H19 H 0.4800 0.1223 0.1841
C22 C 0.6720(3) 0.1732(3) 0.19914(13)
C23 C 0.8631(2) 0.3812(3) 0.22687(15)
H20 H 0.8683 0.4114 0.1974
C24 C 0.6409(2) 0.3165(3) 0.18231(13)
H21 H 0.6328 0.3427 0.1503
C25 C 0.9459(2) 0.3858(3) 0.26551(14)
H22 H 0.9893 0.4184 0.2539
C26 C 0.9665(2) 0.4008(3) 0.42598(14)
C27 C 1.0649(2) 0.2903(3) 0.43795(14)
H23 H 1.1203 0.2938 0.4603
C28 C 0.9852(3) 0.3252(3) 0.50354(14)
H24 H 0.9626 0.3778 0.5132
H25 H 1.0390 0.3145 0.5257
C29 C 0.7179(3) 0.4461(3) 0.22490(16)
H26 H 0.7209 0.4654 0.1928
H27 H 0.6992 0.4935 0.2417
C30 C 1.0452(2) 0.1348(3) 0.45732(15)
H28 H 1.0926 0.1435 0.4845
H29 H 1.0558 0.0829 0.4413
C31 C 1.0659(2) 0.3339(3) 0.38947(15)
H30 H 1.1217 0.3585 0.3893
C32 C 1.0343(2) 0.1915(3) 0.37566(15)
C33 C 0.9807(3) 0.4590(3) 0.34764(16)
H31 H 1.0325 0.4760 0.3380
H32 H 0.9568 0.5089 0.3597
C34 C 0.7887(3) 0.2580(3) 0.17865(15)
H33 H 0.8080 0.2028 0.1704
H34 H 0.7852 0.2946 0.1508
C35 C 0.9167(3) 0.2455(3) 0.24420(15)
C36 C 1.0500(3) 0.2745(3) 0.30426(15)
H35 H 1.0933 0.3159 0.3015
H36 H 1.0675 0.2205 0.2933
O13 O 1.0701(2) -0.2189(2) 0.37847(12)
O14 O 1.0022(2) -0.3409(2) 0.36351(16)
H37 H 1.0480 -0.3600 0.3780
O15 O 0.3639(2) 0.3478(2) 0.4594(2)
H38 H 0.3297 0.3186 0.4698
O16 O 0.2668(3) 0.4455(3) 0.4595(2)
N25 N 0.6262(2) 0.4131(3) 0.39484(17)
H39 H 0.5803 0.3863 0.3821
N26 N 0.7906(4) 0.0337(3) 0.3259(2)
H40 H 0.7607 0.0016 0.3404
C37 C 0.3990(2) 0.4866(3) 0.44321(14)
C38 C 0.5364(3) 0.5151(2) 0.42609(16)
C39 C 0.9306(2) -0.2192(3) 0.33027(13)
C40 C 0.4774(3) 0.4582(2) 0.43664(15)
H41 H 0.4903 0.4008 0.4393
C41 C 0.9249(3) -0.1316(3) 0.32885(14)
H42 H 0.9692 -0.0994 0.3466
C42 C 1.0081(3) -0.2584(3) 0.35995(14)
C43 C 0.5159(3) 0.6003(3) 0.42268(15)
H43 H 0.5546 0.6390 0.4151
C44 C 0.8547(3) -0.0912(3) 0.30162(16)
C45 C 0.7097(3) 0.3841(3) 0.38873(17)
H44 H 0.7297 0.4217 0.3665
C46 C 0.3805(3) 0.5713(3) 0.43994(19)
H45 H 0.3278 0.5902 0.4442
C47 C 0.8644(3) -0.2667(3) 0.30413(19)
H46 H 0.8670 -0.3255 0.3053
C48 C 0.3372(3) 0.4260(3) 0.4551(2)
C49 C 0.4388(3) 0.6284(3) 0.43042(19)
H47 H 0.4265 0.6860 0.4292
C50 C 0.7079(3) 0.2966(3) 0.3702(2)
H48 H 0.6891 0.2598 0.3933
H49 H 0.6652 0.2939 0.3404
C51 C 0.7944(3) -0.2270(4) 0.2763(2)
H50 H 0.7503 -0.2588 0.2583
C52 C 0.7902(3) -0.1396(4) 0.2755(2)
H51 H 0.7428 -0.1131 0.2569
C53 C 0.7837(5) 0.2634(4) 0.3613(3)
H52 H 0.8310 0.2824 0.3863
H53 H 0.7923 0.2849 0.3306
C54 C 0.6245(3) 0.4861(3) 0.4222(2)
H54 H 0.6517 0.5315 0.4081
H55 H 0.6579 0.4761 0.4545
C55 C 0.8489(4) 0.0028(4) 0.3002(2)
H56 H 0.8806 0.0370 0.2840
C56 C 0.7851(9) 0.1294(6) 0.3260(4)
H57 H 0.7832 0.1595 0.2976
C57 C 0.7833(12) 0.1633(8) 0.3598(5)
H58 H 0.7815 0.1328 0.3876
O17 O 0.5710(3) -0.1248(2) 0.48975(12)
N27 N 0.5333(3) -0.1539(2) 0.45111(14)
O18 O 0.5675(3) -0.1943(3) 0.42465(17)
O19 O 0.4578(3) -0.1376(3) 0.43745(18)
N28 N 0.7479(5) 0.5204(5) 0.1109(2)
O20 O 0.7954(6) 0.4666(6) 0.1141(2)
O21 O 0.6770(6) 0.5147(8) 0.1050(4)
O22 O 0.7621(9) 0.5914(8) 0.1131(8)
H59? H 0.7497 0.3872 0.4196
loop_
_geom_bond_atom_site_label_1
_geom_bond_atom_site_label_2
_geom_bond_site_symmetry_1
_geom_bond_site_symmetry_2
O1 C1 1_555 1_555
O2 C2 1_555 1_555
O3 C8 1_555 1_555
O4 C10 1_555 1_555
N1 C1 1_555 1_555
N2 C1 1_555 1_555
N3 C2 1_555 1_555
O5 C13 1_555 1_555
O6 C15 1_555 1_555
N4 C4 1_555 1_555
O7 C22 1_555 1_555
O8 C20 1_555 1_555
N5 C9 1_555 1_555
N6 C2 1_555 1_555
N7 C6 1_555 1_555
O9 C16 1_555 1_555
N8 C3 1_555 1_555
O10 C26 1_555 1_555
N9 C11 1_555 1_555
N10 C13 1_555 1_555
N11 C7 1_555 1_555
N12 C16 1_555 1_555
N13 C11 1_555 1_555
N14 C22 1_555 1_555
N15 C19 1_555 1_555
N16 C15 1_555 1_555
O11 C35 1_555 1_555
O12 C32 1_555 1_555
N17 C20 1_555 1_555
N18 C27 1_555 1_555
N19 C26 1_555 1_555
N20 C26 1_555 1_555
N21 C20 1_555 1_555
C3 N1 1_555 1_555
H1 C3 1_555 1_555
C4 N2 1_555 1_555
H2 C4 1_555 1_555
N22 C31 1_555 1_555
N23 C23 1_555 1_555
N24 C25 1_555 1_555
C5 N2 1_555 1_555
H3 C5 1_555 1_555
H4 C5 1_555 1_555
C6 N3 1_555 1_555
H5 C6 1_555 1_555
C7 N6 1_555 1_555
H6 C7 1_555 1_555
H7 C7 1_555 1_555
C8 N4 1_555 1_555
C9 N6 1_555 1_555
H8 C9 1_555 1_555
C10 N5 1_555 1_555
C11 H9 1_555 1_555
C12 N4 1_555 1_555
H10 C12 1_555 1_555
H11 C12 1_555 1_555
C13 N9 1_555 1_555
C14 N1 1_555 1_555
H12 C14 1_555 1_555
H13 C14 1_555 1_555
C15 N11 1_555 1_555
C16 N13 1_555 1_555
C17 N10 1_555 1_555
H14 C17 1_555 1_555
C18 N8 1_555 1_555
H15 C18 1_555 1_555
H16 C18 1_555 1_555
C19 N11 1_555 1_555
H17 C19 1_555 1_555
C21 N5 1_555 1_555
H18 C21 1_555 1_555
H19 C21 1_555 1_555
C22 N15 1_555 1_555
C23 N21 1_555 1_555
H20 C23 1_555 1_555
C24 N14 1_555 1_555
H21 C24 1_555 1_555
C25 N17 1_555 1_555
H22 C25 1_555 1_555
C27 N20 1_555 1_555
H23 C27 1_555 1_555
C28 N10 1_555 1_555
H24 C28 1_555 1_555
H25 C28 1_555 1_555
C29 N16 1_555 1_555
H26 C29 1_555 1_555
H27 C29 1_555 1_555
C30 N12 1_555 1_555
H28 C30 1_555 1_555
H29 C30 1_555 1_555
C31 N19 1_555 1_555
H30 C31 1_555 1_555
C32 N18 1_555 1_555
C33 N17 1_555 1_555
H31 C33 1_555 1_555
H32 C33 1_555 1_555
C34 N14 1_555 1_555
H33 C34 1_555 1_555
H34 C34 1_555 1_555
C35 N23 1_555 1_555
C36 N22 1_555 1_555
H35 C36 1_555 1_555
H36 C36 1_555 1_555
O13 C42 1_555 1_555
O14 H37 1_555 1_555
O15 H38 1_555 1_555
O16 C48 1_555 1_555
N25 H39 1_555 1_555
N26 H40 1_555 1_555
C37 C40 1_555 1_555
C38 C40 1_555 1_555
C39 C41 1_555 1_555
C40 H41 1_555 1_555
C41 H42 1_555 1_555
C42 O14 1_555 1_555
C43 C38 1_555 1_555
H43 C43 1_555 1_555
C44 C41 1_555 1_555
C45 N25 1_555 1_555
H44 C45 1_555 1_555
C46 C37 1_555 1_555
H45 C46 1_555 1_555
C47 C39 1_555 1_555
H46 C47 1_555 1_555
C48 O15 1_555 1_555
C49 C43 1_555 1_555
H47 C49 1_555 1_555
C50 C45 1_555 1_555
H48 C50 1_555 1_555
H49 C50 1_555 1_555
C51 C47 1_555 1_555
H50 C51 1_555 1_555
C52 C44 1_555 1_555
H51 C52 1_555 1_555
C53 C50 1_555 1_555
H52 C53 1_555 1_555
H53 C53 1_555 1_555
C54 N25 1_555 1_555
H54 C54 1_555 1_555
H55 C54 1_555 1_555
C55 N26 1_555 1_555
H56 C55 1_555 1_555
C56 N26 1_555 1_555
H57 C56 1_555 1_555
C57 C53 1_555 1_555
H58 C57 1_555 1_555
O17 N27 1_555 1_555
N27 O18 1_555 1_555
O19 N27 1_555 1_555
N28 O20 1_555 1_555
O21 N28 1_555 1_555
O22 N28 1_555 1_555
N3 C5 1_555 1_555
N7 C10 1_555 1_555
N7 C12 1_555 1_555
N8 C8 1_555 1_555
N9 C14 1_555 1_555
N12 C17 1_555 1_555
N13 C18 1_555 1_555
N15 C21 1_555 1_555
N16 C24 1_555 1_555
N18 C30 1_555 1_555
N19 C33 1_555 1_555
N20 C28 1_555 1_555
N21 C29 1_555 1_555
C3 C4 1_555 1_555
N22 C32 1_555 1_555
N23 C34 1_555 1_555
N24 C35 1_555 1_555
N24 C36 1_555 1_555
C6 C9 1_555 1_555
C11 C17 1_555 1_555
C19 C24 1_555 1_555
C23 C25 1_555 1_555
C27 C31 1_555 1_555
C37 C48 1_555 1_555
C38 C54 1_555 1_555
C39 C42 1_555 1_555
C44 C55 1_555 1_555
C46 C49 1_555 1_555
C51 C52 1_555 1_555
C56 C57 1_555 1_555

#END
