
#######################################################################
#
#                 Cambridge Crystallographic Data Centre
#                                CCDC 
#
#######################################################################
#
# If this CIF has been generated from an entry in the Cambridge 
# Structural Database, then it will include bibliographic, chemical, 
# crystal, experimental, refinement or atomic coordinate data resulting 
# from the CCDC's data processing and validation procedures.
#
#######################################################################

data_MUNNAM
_chemical_formula_moiety         'C66 H43 N5'
_chemical_name_systematic        
"N,N-Diphenyl-4'-(1-(4-(1-phenyl-1H-phenanthro[9,10-d]imidazol-2-yl)phenyl)-1H-phenanthro[9,10-d]imidazol-2-yl)biphenyl-4-amine unknown solvate"
_symmetry_cell_setting           triclinic
_symmetry_space_group_name_H-M   'P -1'
_symmetry_Int_Tables_number      2
_space_group_name_Hall           '-P 1'
loop_
_symmetry_equiv_pos_site_id
_symmetry_equiv_pos_as_xyz
1 x,y,z
2 -x,-y,-z
_cell_length_a                   9.4500(19)
_cell_length_b                   16.690(3)
_cell_length_c                   19.570(4)
_cell_angle_alpha                82.49(3)
_cell_angle_beta                 88.39(3)
_cell_angle_gamma                74.90(3)
_cell_volume                     2954.4
_exptl_crystal_colour            colorless
_exptl_crystal_description       block
_cell_formula_units_Z            2
_chemical_properties_physical    Photo-sensitive
_exptl_crystal_preparation       Luminescent
loop_
_atom_site_label
_atom_site_type_symbol
_atom_site_fract_x
_atom_site_fract_y
_atom_site_fract_z
C1 C 0.5055(3) 0.92223(16) 0.86012(11)
C2 C 0.4911(4) 0.84717(19) 0.84487(15)
H1 H 0.4590 0.8429 0.8013
C3 C 0.5245(5) 0.7774(2) 0.8943(2)
H2 H 0.5163 0.7259 0.8838
C4 C 0.5698(5) 0.7848(3) 0.9590(2)
H3 H 0.5942 0.7379 0.9919
C5 C 0.5791(4) 0.8596(3) 0.97504(16)
H4 H 0.6059 0.8646 1.0194
C6 C 0.5491(3) 0.92776(19) 0.92599(12)
H5 H 0.5581 0.9788 0.9369
C7 C 0.3825(2) 1.06952(15) 0.82636(10)
C8 C 0.2517(3) 1.07061(18) 0.86099(11)
H6 H 0.2245 1.0210 0.8733
C9 C 0.1631(3) 1.1444(2) 0.87690(13)
H7 H 0.0764 1.1443 0.9005
C10 C 0.1989(4) 1.2180(2) 0.85897(14)
H8 H 0.1370 1.2680 0.8696
C11 C 0.3296(4) 1.21730(19) 0.82454(14)
H9 H 0.3557 1.2672 0.8124
C12 C 0.4211(3) 1.14342(17) 0.80814(11)
H10 H 0.5083 1.1436 0.7849
C13 C 0.5392(2) 0.98952(14) 0.74341(10)
C14 C 0.4587(2) 1.03027(14) 0.68506(10)
H11 H 0.3609 1.0586 0.6894
C15 C 0.5217(2) 1.02934(13) 0.62066(10)
H12 H 0.4657 1.0574 0.5823
C16 C 0.6680(2) 0.98706(12) 0.61210(9)
C17 C 0.7466(2) 0.94433(13) 0.67060(10)
H13 H 0.8435 0.9143 0.6661
C18 C 0.6840(2) 0.94546(14) 0.73568(10)
H14 H 0.7392 0.9167 0.7741
C19 C 0.7347(2) 0.98907(12) 0.54262(9)
C20 C 0.7032(2) 1.06237(14) 0.49644(10)
H15 H 0.6410 1.1106 0.5100
C21 C 0.7620(2) 1.06512(13) 0.43125(10)
H16 H 0.7387 1.1152 0.4018
C22 C 0.8548(2) 0.99509(12) 0.40851(9)
C23 C 0.8885(3) 0.92216(14) 0.45467(11)
H17 H 0.9517 0.8741 0.4414
C24 C 0.8292(3) 0.92003(14) 0.52025(10)
H18 H 0.8542 0.8703 0.5501
C25 C 0.9073(2) 1.00558(13) 0.33668(10)
C26 C 0.9369(2) 1.06507(14) 0.23518(10)
C27 C 1.0149(2) 0.98355(14) 0.23591(9)
C28 C 0.9327(3) 1.12660(16) 0.17631(10)
C29 C 0.8591(4) 1.21000(19) 0.17674(13)
H19 H 0.8073 1.2270 0.2157
C30 C 0.8616(5) 1.2679(2) 0.12033(17)
H20 H 0.8118 1.3238 0.1209
C31 C 0.9396(6) 1.2418(3) 0.06236(17)
H21 H 0.9425 1.2806 0.0240
C32 C 1.0116(5) 1.1602(3) 0.06127(14)
H22 H 1.0632 1.1444 0.0219
C33 C 1.0108(3) 1.09885(19) 0.11760(11)
C34 C 1.0869(3) 1.01172(19) 0.11700(11)
C35 C 1.1547(3) 0.9824(2) 0.05680(13)
H23 H 1.1486 1.0197 0.0167
C36 C 1.2285(3) 0.9011(3) 0.05575(15)
H24 H 1.2709 0.8837 0.0149
C37 C 1.2416(3) 0.8436(2) 0.11472(15)
H25 H 1.2945 0.7883 0.1136
C38 C 1.1757(3) 0.86878(19) 0.17519(13)
H26 H 1.1847 0.8304 0.2148
C39 C 1.0955(2) 0.95198(16) 0.17692(11)
C40 C 1.0507(2) 0.85728(12) 0.32567(9)
C41 C 0.9719(2) 0.80230(14) 0.31225(11)
H27 H 0.8847 0.8214 0.2872
C42 C 1.0240(2) 0.71865(14) 0.33639(12)
H28 H 0.9721 0.6812 0.3266
C43 C 1.1517(2) 0.68918(13) 0.37475(10)
C44 C 1.2309(2) 0.74538(14) 0.38685(11)
H29 H 1.3180 0.7265 0.4119
C45 C 1.1807(2) 0.82926(14) 0.36176(11)
H30 H 1.2347 0.8666 0.3693
C46 C 1.2032(2) 0.59905(13) 0.39934(11)
C47 C 1.2676(2) 0.48062(13) 0.46973(11)
C48 C 1.2681(2) 0.46660(13) 0.40215(11)
C49 C 1.1955(2) 0.61616(13) 0.52414(10)
C50 C 1.3072(2) 0.63664(17) 0.55510(12)
H31 H 1.4031 0.6182 0.5402
C51 C 1.2765(3) 0.68492(18) 0.60865(14)
H32 H 1.3517 0.6989 0.6301
C52 C 1.1347(3) 0.71206(17) 0.62998(13)
H33 H 1.1137 0.7449 0.6657
C53 C 1.0240(3) 0.69116(18) 0.59908(13)
H34 H 0.9281 0.7096 0.6140
C54 C 1.0540(2) 0.64282(16) 0.54590(12)
H35 H 0.9786 0.6284 0.5249
C55 C 1.3014(2) 0.41405(14) 0.52563(12)
C56 C 1.2996(3) 0.42570(17) 0.59574(13)
H36 H 1.2760 0.4796 0.6080
C57 C 1.3325(3) 0.3578(2) 0.64639(14)
H37 H 1.3330 0.3663 0.6924
C58 C 1.3648(3) 0.2770(2) 0.62926(16)
H38 H 1.3847 0.2314 0.6637
C59 C 1.3671(3) 0.26467(16) 0.56170(15)
H39 H 1.3887 0.2102 0.5509
C60 C 1.3381(2) 0.33110(14) 0.50784(12)
C61 C 1.3455(2) 0.31649(14) 0.43568(13)
C62 C 1.3106(2) 0.38378(14) 0.38307(12)
C63 C 1.3174(3) 0.36990(17) 0.31367(14)
H40 H 1.2923 0.4151 0.2791
C64 C 1.3605(3) 0.29025(19) 0.29656(16)
H41 H 1.3643 0.2813 0.2506
C65 C 1.3984(3) 0.22350(17) 0.34765(17)
H42 H 1.4301 0.1695 0.3359
C66 C 1.3899(2) 0.23580(16) 0.41538(15)
H43 H 1.4141 0.1896 0.4491
N1 N 0.4742(2) 0.99339(12) 0.80956(8)
N2 N 0.87104(19) 1.07888(11) 0.29772(8)
N3 N 1.22655(18) 0.56712(11) 0.46753(9)
N4 N 1.2268(2) 0.54063(12) 0.35881(9)
N5 N 0.99568(17) 0.94470(10) 0.30154(8)
loop_
_geom_bond_atom_site_label_1
_geom_bond_atom_site_label_2
_geom_bond_site_symmetry_1
_geom_bond_site_symmetry_2
C1 C2 1_555 1_555
C2 H1 1_555 1_555
C3 C2 1_555 1_555
H2 C3 1_555 1_555
C4 C3 1_555 1_555
H3 C4 1_555 1_555
C5 C4 1_555 1_555
H4 C5 1_555 1_555
C6 C1 1_555 1_555
H5 C6 1_555 1_555
C7 C8 1_555 1_555
C8 H6 1_555 1_555
C9 C8 1_555 1_555
H7 C9 1_555 1_555
C10 C9 1_555 1_555
H8 C10 1_555 1_555
C11 C10 1_555 1_555
H9 C11 1_555 1_555
C12 C7 1_555 1_555
H10 C12 1_555 1_555
C13 C14 1_555 1_555
C14 H11 1_555 1_555
C15 C14 1_555 1_555
H12 C15 1_555 1_555
C16 C15 1_555 1_555
C17 C16 1_555 1_555
H13 C17 1_555 1_555
C18 C13 1_555 1_555
H14 C18 1_555 1_555
C19 C16 1_555 1_555
C20 C19 1_555 1_555
H15 C20 1_555 1_555
C21 C20 1_555 1_555
H16 C21 1_555 1_555
C22 C21 1_555 1_555
C23 C22 1_555 1_555
H17 C23 1_555 1_555
C24 C19 1_555 1_555
H18 C24 1_555 1_555
C25 C22 1_555 1_555
C26 C27 1_555 1_555
C27 C39 1_555 1_555
C28 C26 1_555 1_555
C29 C28 1_555 1_555
H19 C29 1_555 1_555
C30 C29 1_555 1_555
H20 C30 1_555 1_555
C31 C30 1_555 1_555
H21 C31 1_555 1_555
C32 C31 1_555 1_555
H22 C32 1_555 1_555
C33 C28 1_555 1_555
C34 C33 1_555 1_555
C35 C34 1_555 1_555
H23 C35 1_555 1_555
C36 C35 1_555 1_555
H24 C36 1_555 1_555
C37 C36 1_555 1_555
H25 C37 1_555 1_555
C38 C37 1_555 1_555
H26 C38 1_555 1_555
C39 C34 1_555 1_555
C40 C41 1_555 1_555
C41 H27 1_555 1_555
C42 C41 1_555 1_555
H28 C42 1_555 1_555
C43 C42 1_555 1_555
C44 C43 1_555 1_555
H29 C44 1_555 1_555
C45 C40 1_555 1_555
H30 C45 1_555 1_555
C46 C43 1_555 1_555
C47 C48 1_555 1_555
C48 C62 1_555 1_555
C49 C50 1_555 1_555
C50 H31 1_555 1_555
C51 C50 1_555 1_555
H32 C51 1_555 1_555
C52 C51 1_555 1_555
H33 C52 1_555 1_555
C53 C52 1_555 1_555
H34 C53 1_555 1_555
C54 C49 1_555 1_555
H35 C54 1_555 1_555
C55 C47 1_555 1_555
C56 C55 1_555 1_555
H36 C56 1_555 1_555
C57 C56 1_555 1_555
H37 C57 1_555 1_555
C58 C57 1_555 1_555
H38 C58 1_555 1_555
C59 C58 1_555 1_555
H39 C59 1_555 1_555
C60 C55 1_555 1_555
C61 C60 1_555 1_555
C62 C61 1_555 1_555
C63 C62 1_555 1_555
H40 C63 1_555 1_555
C64 C63 1_555 1_555
H41 C64 1_555 1_555
C65 C64 1_555 1_555
H42 C65 1_555 1_555
C66 C61 1_555 1_555
H43 C66 1_555 1_555
N1 C1 1_555 1_555
N2 C25 1_555 1_555
N3 C46 1_555 1_555
N4 C46 1_555 1_555
N5 C25 1_555 1_555
C5 C6 1_555 1_555
C7 N1 1_555 1_555
C11 C12 1_555 1_555
C13 N1 1_555 1_555
C17 C18 1_555 1_555
C23 C24 1_555 1_555
C26 N2 1_555 1_555
C27 N5 1_555 1_555
C32 C33 1_555 1_555
C38 C39 1_555 1_555
C40 N5 1_555 1_555
C44 C45 1_555 1_555
C47 N3 1_555 1_555
C48 N4 1_555 1_555
C49 N3 1_555 1_555
C53 C54 1_555 1_555
C59 C60 1_555 1_555
C65 C66 1_555 1_555

#END
