
#######################################################################
#
#                 Cambridge Crystallographic Data Centre
#                                CCDC 
#
#######################################################################
#
# If this CIF has been generated from an entry in the Cambridge 
# Structural Database, then it will include bibliographic, chemical, 
# crystal, experimental, refinement or atomic coordinate data resulting 
# from the CCDC's data processing and validation procedures.
#
#######################################################################

data_MUNQUH
_chemical_formula_moiety         'C16 H16 Cl1 N1 O4'
_chemical_name_systematic        4-Chloro-2-(3,4,5-trimethoxybenzoyl)aniline
_chemical_properties_biological  
'cytotoxic activity against various drug-resistant human cancer cell lines'
_symmetry_cell_setting           monoclinic
_symmetry_space_group_name_H-M   'P 21/a'
_symmetry_Int_Tables_number      14
_space_group_name_Hall           '-P 2yab'
loop_
_symmetry_equiv_pos_site_id
_symmetry_equiv_pos_as_xyz
1 x,y,z
2 1/2-x,1/2+y,-z
3 -x,-y,-z
4 1/2+x,1/2-y,z
_cell_length_a                   7.131(3)
_cell_length_b                   21.245(3)
_cell_length_c                   10.616(3)
_cell_angle_alpha                90
_cell_angle_beta                 108.97(3)
_cell_angle_gamma                90
_cell_volume                     1520.96
_exptl_crystal_colour            yellow
_cell_formula_units_Z            4
loop_
_atom_site_label
_atom_site_type_symbol
_atom_site_fract_x
_atom_site_fract_y
_atom_site_fract_z
Cl1 Cl 0.1488(2) 0.15929(6) 0.2249(1)
O1 O 0.0390(5) 0.4511(2) 0.2303(3)
O2 O -0.4032(5) 0.4524(2) -0.2589(3)
O3 O -0.1948(4) 0.3885(2) -0.3805(3)
O4 O 0.1409(5) 0.3273(2) -0.2446(3)
N1 N 0.3522(6) 0.4143(2) 0.4483(4)
C1 C 0.3010(6) 0.3561(2) 0.3947(4)
C2 C 0.3842(6) 0.3019(2) 0.4679(4)
C3 C 0.3406(7) 0.2430(2) 0.4189(5)
C4 C 0.2072(6) 0.2347(2) 0.2908(4)
C5 C 0.1237(6) 0.2857(2) 0.2153(4)
C6 C 0.1656(6) 0.3471(2) 0.2647(4)
C7 C 0.0676(6) 0.4011(2) 0.1815(4)
C8 C -0.0005(6) 0.3950(2) 0.0321(4)
C9 C -0.1718(6) 0.4262(2) -0.0392(4)
C10 C -0.2352(6) 0.4243(2) -0.1776(4)
C11 C -0.1246(6) 0.3909(2) -0.2429(4)
C12 C 0.0470(6) 0.3602(2) -0.1706(4)
C13 C 0.1107(6) 0.3617(2) -0.0314(4)
C14 C -0.5207(8) 0.4871(3) -0.1978(5)
C15 C -0.0830(8) 0.4259(2) -0.4434(5)
C16 C 0.3096(9) 0.2921(3) -0.1775(6)
H1 H 0.2932 0.4528 0.4026
H2 H 0.4648 0.4181 0.5266
H3 H 0.4802 0.3068 0.5567
H4 H 0.3905 0.2053 0.4707
H5 H 0.0272 0.2792 0.1278
H6 H -0.2465 0.4520 0.0027
H7 H 0.2409 0.3441 0.0120
H8 H -0.5787 0.4564 -0.1555
H9 H -0.4450 0.5187 -0.1386
H10 H -0.6254 0.5096 -0.2615
H11 H -0.0808 0.4689 -0.4144
H12 H -0.1554 0.4307 -0.5366
H13 H 0.0313 0.4032 -0.4462
H14 H 0.3589 0.2699 -0.2355
H15 H 0.2903 0.2667 -0.1112
H16 H 0.4173 0.3230 -0.1296
loop_
_geom_bond_atom_site_label_1
_geom_bond_atom_site_label_2
_geom_bond_site_symmetry_1
_geom_bond_site_symmetry_2
Cl1 C4 1_555 1_555
O1 C7 1_555 1_555
O2 C10 1_555 1_555
O3 C11 1_555 1_555
O4 C12 1_555 1_555
N1 C1 1_555 1_555
C1 C2 1_555 1_555
C2 C3 1_555 1_555
C3 C4 1_555 1_555
C4 C5 1_555 1_555
C5 C6 1_555 1_555
C6 C1 1_555 1_555
C7 C6 1_555 1_555
C8 C7 1_555 1_555
C9 C8 1_555 1_555
C10 C9 1_555 1_555
C11 C10 1_555 1_555
C12 C11 1_555 1_555
C13 C8 1_555 1_555
C14 O2 1_555 1_555
C15 O3 1_555 1_555
C16 O4 1_555 1_555
H1 N1 1_555 1_555
H2 N1 1_555 1_555
H3 C2 1_555 1_555
H4 C3 1_555 1_555
H5 C5 1_555 1_555
H6 C9 1_555 1_555
H7 C13 1_555 1_555
H8 C14 1_555 1_555
H9 C14 1_555 1_555
H10 C14 1_555 1_555
H11 C15 1_555 1_555
H12 C15 1_555 1_555
H13 C15 1_555 1_555
H14 C16 1_555 1_555
H15 C16 1_555 1_555
H16 C16 1_555 1_555
C12 C13 1_555 1_555

#END
