
#######################################################################
#
#                 Cambridge Crystallographic Data Centre
#                                CCDC 
#
#######################################################################
#
# If this CIF has been generated from an entry in the Cambridge 
# Structural Database, then it will include bibliographic, chemical, 
# crystal, experimental, refinement or atomic coordinate data resulting 
# from the CCDC's data processing and validation procedures.
#
#######################################################################

data_MUNSOF
_chemical_formula_moiety         'C34 H30 N1 O2 1+,C2 H3 N1,I1 1-'
_chemical_name_systematic        
'4-(4-(2,2-bis(4-methoxyphenyl)-1-phenylvinyl)phenyl)-1-methylpyridinium iodide acetonitrile solvate'
_symmetry_cell_setting           monoclinic
_symmetry_space_group_name_H-M   'C 2/c'
_symmetry_Int_Tables_number      15
_space_group_name_Hall           '-C 2yn'
loop_
_symmetry_equiv_pos_site_id
_symmetry_equiv_pos_as_xyz
1 x,y,z
2 -x,y,1/2-z
3 1/2+x,1/2+y,z
4 1/2-x,1/2+y,1/2-z
5 -x,-y,-z
6 x,-y,1/2+z
7 1/2-x,1/2-y,-z
8 1/2+x,1/2-y,1/2+z
_cell_length_a                   34.673(9)
_cell_length_b                   10.224(3)
_cell_length_c                   19.658(5)
_cell_angle_alpha                90
_cell_angle_beta                 116.752(3)
_cell_angle_gamma                90
_cell_volume                     6222.79
_exptl_crystal_colour            yellow
_exptl_crystal_description       plate
_cell_formula_units_Z            8
loop_
_atom_site_label
_atom_site_type_symbol
_atom_site_fract_x
_atom_site_fract_y
_atom_site_fract_z
I1 I 0.462263(8) 0.80735(2) 0.861130(14)
O1 O 0.12377(8) 0.5876(3) 1.01642(15)
O2 O 0.40910(9) 0.3227(3) 1.07218(16)
N1 N -0.02518(9) 0.8623(3) 0.55242(17)
C1 C 0.23431(10) 0.6105(3) 0.82994(19)
C2 C 0.24513(10) 0.5510(3) 0.89789(19)
C3 C 0.18938(10) 0.6584(4) 0.78276(19)
C4 C 0.15462(11) 0.5724(3) 0.76102(19)
H1 H 0.1597 0.4836 0.7767
C5 C 0.11271(10) 0.6150(3) 0.71683(19)
H2 H 0.0895 0.5546 0.7017
C6 C 0.10418(10) 0.7451(3) 0.69431(18)
C7 C 0.13901(11) 0.8320(4) 0.7161(2)
H3 H 0.1339 0.9214 0.7016
C8 C 0.18086(11) 0.7881(4) 0.7586(2)
H4 H 0.2042 0.8475 0.7716
C9 C 0.05917(11) 0.7875(3) 0.64599(19)
C10 C 0.02763(11) 0.6971(3) 0.6019(2)
H5 H 0.0350 0.6073 0.6033
C11 C -0.01390(12) 0.7367(4) 0.5568(2)
H6 H -0.0351 0.6735 0.5280
C12 C 0.00402(12) 0.9519(4) 0.5947(2)
H7 H -0.0045 1.0408 0.5922
C13 C 0.04603(12) 0.9177(4) 0.6416(2)
H8 H 0.0662 0.9827 0.6712
C14 C -0.07020(12) 0.9008(4) 0.5028(2)
H9 H -0.0795 0.8627 0.4521
H10 H -0.0721 0.9964 0.4987
H11 H -0.0889 0.8689 0.5247
C15 C 0.26446(11) 0.6389(3) 0.79578(19)
C16 C 0.25214(12) 0.6093(4) 0.7200(2)
H12 H 0.2252 0.5678 0.6903
C17 C 0.27910(14) 0.6401(4) 0.6871(2)
H13 H 0.2702 0.6203 0.6349
C18 C 0.31824(14) 0.6986(4) 0.7290(3)
H14 H 0.3367 0.7176 0.7064
C19 C 0.33072(13) 0.7300(4) 0.8045(2)
H15 H 0.3577 0.7716 0.8336
C20 C 0.30405(12) 0.7010(4) 0.8381(2)
H16 H 0.3127 0.7235 0.8898
C21 C 0.21426(10) 0.5544(3) 0.93196(18)
C22 C 0.19652(11) 0.6734(3) 0.93787(19)
H17 H 0.2053 0.7509 0.9220
C23 C 0.16642(12) 0.6827(3) 0.9662(2)
H18 H 0.1543 0.7648 0.9688
C24 C 0.15437(11) 0.5691(4) 0.99068(19)
C25 C 0.17242(12) 0.4502(4) 0.9882(2)
H19 H 0.1646 0.3735 1.0064
C26 C 0.20246(11) 0.4437(4) 0.9587(2)
H20 H 0.2149 0.3618 0.9571
C27 C 0.11213(14) 0.4761(4) 1.0468(3)
H21 H 0.0978 0.4116 1.0062
H22 H 0.0925 0.5028 1.0676
H23 H 0.1382 0.4372 1.0873
C28 C 0.28723(10) 0.4846(3) 0.94387(19)
C29 C 0.31005(11) 0.4180(3) 0.9112(2)
H24 H 0.2976 0.4092 0.8574
C30 C 0.34995(12) 0.3650(4) 0.9554(2)
H25 H 0.3648 0.3206 0.9318
C31 C 0.36893(11) 0.3759(4) 1.0347(2)
C32 C 0.34636(11) 0.4369(4) 1.0683(2)
H26 H 0.3585 0.4430 1.1222
C33 C 0.30598(11) 0.4891(3) 1.02323(19)
H27 H 0.2905 0.5294 1.0471
C34 C 0.42978(15) 0.3319(5) 1.1537(2)
H28 H 0.4322 0.4240 1.1688
H29 H 0.4587 0.2930 1.1740
H30 H 0.4126 0.2849 1.1740
N2 N 0.44134(18) 0.7152(7) 1.1726(3)
C35 C 0.44341(18) 0.9675(7) 1.1736(3)
H31 H 0.4624 0.9976 1.1519
H32 H 0.4542 1.0001 1.2259
H33 H 0.4141 1.0005 1.1427
C36 C 0.44273(17) 0.8266(8) 1.1741(3)
loop_
_geom_bond_atom_site_label_1
_geom_bond_atom_site_label_2
_geom_bond_site_symmetry_1
_geom_bond_site_symmetry_2
O1 C24 1_555 1_555
O2 C31 1_555 1_555
N1 C11 1_555 1_555
C1 C2 1_555 1_555
C2 C21 1_555 1_555
C3 C1 1_555 1_555
C4 C3 1_555 1_555
H1 C4 1_555 1_555
C5 C4 1_555 1_555
H2 C5 1_555 1_555
C6 C5 1_555 1_555
C7 C6 1_555 1_555
H3 C7 1_555 1_555
C8 C3 1_555 1_555
H4 C8 1_555 1_555
C9 C6 1_555 1_555
C10 C9 1_555 1_555
H5 C10 1_555 1_555
C11 C10 1_555 1_555
H6 C11 1_555 1_555
C12 N1 1_555 1_555
H7 C12 1_555 1_555
C13 C9 1_555 1_555
H8 C13 1_555 1_555
C14 N1 1_555 1_555
H9 C14 1_555 1_555
H10 C14 1_555 1_555
H11 C14 1_555 1_555
C15 C1 1_555 1_555
C16 C15 1_555 1_555
H12 C16 1_555 1_555
C17 C16 1_555 1_555
H13 C17 1_555 1_555
C18 C17 1_555 1_555
H14 C18 1_555 1_555
C19 C18 1_555 1_555
H15 C19 1_555 1_555
C20 C15 1_555 1_555
H16 C20 1_555 1_555
C21 C22 1_555 1_555
C22 H17 1_555 1_555
C23 C22 1_555 1_555
H18 C23 1_555 1_555
C24 C23 1_555 1_555
C25 C24 1_555 1_555
H19 C25 1_555 1_555
C26 C21 1_555 1_555
H20 C26 1_555 1_555
C27 O1 1_555 1_555
H21 C27 1_555 1_555
H22 C27 1_555 1_555
H23 C27 1_555 1_555
C28 C2 1_555 1_555
C29 C28 1_555 1_555
H24 C29 1_555 1_555
C30 C29 1_555 1_555
H25 C30 1_555 1_555
C31 C30 1_555 1_555
C32 C31 1_555 1_555
H26 C32 1_555 1_555
C33 C28 1_555 1_555
H27 C33 1_555 1_555
C34 O2 1_555 1_555
H28 C34 1_555 1_555
H29 C34 1_555 1_555
H30 C34 1_555 1_555
N2 C36 1_555 1_555
C35 H31 1_555 1_555
H32 C35 1_555 1_555
H33 C35 1_555 1_555
C36 C35 1_555 1_555
C7 C8 1_555 1_555
C12 C13 1_555 1_555
C19 C20 1_555 1_555
C25 C26 1_555 1_555
C32 C33 1_555 1_555

#END
