
#######################################################################
#
#                 Cambridge Crystallographic Data Centre
#                                CCDC 
#
#######################################################################
#
# If this CIF has been generated from an entry in the Cambridge 
# Structural Database, then it will include bibliographic, chemical, 
# crystal, experimental, refinement or atomic coordinate data resulting 
# from the CCDC's data processing and validation procedures.
#
#######################################################################

data_MUNTEW
_chemical_formula_moiety         'C20 H25 N5 O5'
_chemical_name_systematic        
(3S,7aR,8R,10aS,E)-9-(2-(2,4-dinitrophenyl)hydrazono)-8-ethyldecahydroazepino[3,2,1-hi]indol-2(31H)-one
_symmetry_cell_setting           monoclinic
_symmetry_space_group_name_H-M   'P 21'
_symmetry_Int_Tables_number      4
_space_group_name_Hall           'P 2yb'
loop_
_symmetry_equiv_pos_site_id
_symmetry_equiv_pos_as_xyz
1 x,y,z
2 -x,1/2+y,-z
_cell_length_a                   9.4940(13)
_cell_length_b                   18.829(3)
_cell_length_c                   11.4918(16)
_cell_angle_alpha                90
_cell_angle_beta                 96.163(2)
_cell_angle_gamma                90
_cell_volume                     2042.43
_exptl_crystal_colour            brown
_exptl_crystal_description       prism
_cell_formula_units_Z            4
loop_
_atom_site_label
_atom_site_type_symbol
_atom_site_fract_x
_atom_site_fract_y
_atom_site_fract_z
O1 O -0.4426(3) 1.0559(2) 0.8969(3)
O2 O 0.7612(3) 0.63079(13) 0.7844(2)
O3 O 0.5690(3) 0.84397(13) 0.6198(2)
O4 O 0.4226(3) 0.90714(14) 0.7014(2)
N1 N -0.2124(3) 1.02889(18) 0.9180(3)
C1 C 0.1032(3) 0.94526(13) 1.1030(2)
H1 H 0.1339 0.9923 1.1320
N2 N 0.3342(2) 0.86894(11) 0.89928(19)
H2 H 0.3247 0.9004 0.8447
O5 O 0.6518(4) 0.57786(16) 0.9116(3)
C2 C 0.4314(3) 0.75844(13) 0.9751(2)
H3 H 0.3839 0.7636 1.0412
N3 N 0.4974(3) 0.85464(13) 0.6997(2)
C3 C -0.3446(4) 1.0179(3) 0.9424(4)
C4 C -0.0880(3) 0.98176(16) 0.9442(3)
H4 H -0.0971 0.9422 0.8885
C5 C -0.0596(3) 0.95061(14) 1.0687(2)
H5 H -0.0984 0.9024 1.0671
C6 C 0.1821(2) 0.93098(13) 0.9977(2)
N4 N 0.2617(2) 0.87628(11) 0.99758(18)
C7 C 0.4197(3) 0.81223(13) 0.8897(2)
C8 C 0.4992(3) 0.80321(13) 0.7931(2)
C9 C 0.5819(3) 0.74410(14) 0.7829(2)
H6 H 0.6348 0.7394 0.7197
C10 C 0.5858(3) 0.69223(14) 0.8665(2)
N5 N 0.6734(3) 0.62969(14) 0.8531(2)
C11 C -0.1824(5) 1.0837(3) 0.8338(3)
H7 H -0.1894 1.1307 0.8675
H8 H -0.2485 1.0806 0.7636
C12 C -0.0322(4) 1.0694(2) 0.8059(3)
H9 H -0.0317 1.0409 0.7356
H10 H 0.0187 1.1133 0.7963
C13 C 0.0308(3) 1.02903(16) 0.9131(2)
H11 H 0.0542 1.0629 0.9771
C14 C 0.1604(3) 0.98400(16) 0.8992(2)
H12 H 0.1478 0.9592 0.8248
H13 H 0.2432 1.0142 0.8998
C15 C -0.1324(3) 0.99323(15) 1.1568(3)
H14 H -0.1212 1.0434 1.1413
H15 H -0.0868 0.9835 1.2348
C16 C -0.2914(4) 0.9760(2) 1.1528(4)
H16 H -0.3027 0.9351 1.2024
H17 H -0.3388 1.0158 1.1852
C17 C -0.3639(4) 0.9604(3) 1.0314(6)
H18 H -0.3271 0.9161 1.0039
H19 H -0.4645 0.9540 1.0365
C18 C 0.1420(3) 0.89347(16) 1.2045(3)
H20 H 0.0717 0.8970 1.2595
H21 H 0.1395 0.8454 1.1742
C19 C 0.2868(4) 0.9077(2) 1.2682(3)
H22 H 0.2936 0.9568 1.2908
H23 H 0.3581 0.8970 1.2176
H24 H 0.3006 0.8783 1.3368
C20 C 0.5105(3) 0.69890(15) 0.9633(2)
H25 H 0.5141 0.6632 1.0195
O6 O -0.0606(4) 0.71283(19) 1.0210(3)
O7 O 1.0450(2) 0.69964(13) 0.38152(19)
C21 C 0.7377(3) 0.55840(14) 0.4267(3)
H26 H 0.7435 0.5709 0.3455
H27 H 0.6921 0.5124 0.4286
O8 O -0.1682(3) 0.80216(14) 0.9391(2)
O9 O -0.0476(4) 0.8872(2) 0.5796(4)
O10 O 0.1281(3) 0.85139(13) 0.5003(2)
C22 C 0.4061(2) 0.66556(13) 0.4790(2)
C23 C 0.4874(3) 0.59781(13) 0.4630(2)
H28 H 0.4658 0.5831 0.3813
C24 C 0.6491(2) 0.61372(12) 0.4830(2)
H29 H 0.6769 0.6121 0.5676
N6 N 0.8111(2) 0.70421(12) 0.3910(2)
N7 N -0.0773(3) 0.75613(16) 0.9437(3)
C25 C 0.0117(3) 0.75134(14) 0.8479(3)
C26 C 0.1121(3) 0.69904(16) 0.8490(3)
H30 H 0.1249 0.6676 0.9116
C27 C 0.1939(3) 0.69275(14) 0.7579(2)
H31 H 0.2600 0.6562 0.7586
C28 C 0.1791(2) 0.74086(13) 0.6633(2)
N8 N 0.2606(2) 0.73388(11) 0.57400(19)
H32 H 0.2663 0.7675 0.5240
N9 N 0.3344(2) 0.67067(11) 0.5660(2)
C29 C 0.6778(2) 0.69007(13) 0.4415(2)
H33 H 0.6726 0.7223 0.5078
C30 C 0.9409(3) 0.67965(15) 0.4281(2)
C31 C 0.7898(3) 0.75778(18) 0.2972(3)
H34 H 0.8087 0.7378 0.2227
H35 H 0.8514 0.7984 0.3147
C32 C 0.6363(3) 0.77892(17) 0.2948(3)
H36 H 0.5957 0.7897 0.2156
H37 H 0.6259 0.8200 0.3440
C33 C 0.5666(3) 0.71369(15) 0.3421(2)
H38 H 0.5571 0.6769 0.2815
C34 C 0.4256(3) 0.72339(15) 0.3902(2)
H39 H 0.3494 0.7211 0.3269
H40 H 0.4225 0.7696 0.4272
C35 C 0.8874(3) 0.55398(16) 0.4912(3)
H41 H 0.8844 0.5255 0.5612
H42 H 0.9486 0.5300 0.4414
C36 C 0.9514(3) 0.62646(16) 0.5261(3)
H43 H 0.9037 0.6455 0.5898
H44 H 1.0505 0.6201 0.5548
C37 C 0.4466(3) 0.53674(15) 0.5389(3)
H45 H 0.5178 0.4998 0.5385
H46 H 0.4478 0.5536 0.6188
C38 C 0.3032(3) 0.50455(17) 0.5016(4)
H47 H 0.3025 0.4850 0.4244
H48 H 0.2317 0.5406 0.5012
H49 H 0.2842 0.4676 0.5554
C39 C -0.0080(3) 0.79870(15) 0.7585(3)
H50 H -0.0769 0.8338 0.7587
C40 C 0.0749(3) 0.79435(13) 0.6672(2)
N10 N 0.0511(3) 0.84753(14) 0.5760(3)
loop_
_geom_bond_atom_site_label_1
_geom_bond_atom_site_label_2
_geom_bond_site_symmetry_1
_geom_bond_site_symmetry_2
O1 C3 1_555 1_555
O2 N5 1_555 1_555
O3 N3 1_555 1_555
O4 N3 1_555 1_555
N1 C3 1_555 1_555
C1 H1 1_555 1_555
N2 H2 1_555 1_555
O5 N5 1_555 1_555
C2 H3 1_555 1_555
N3 C8 1_555 1_555
C3 C17 1_555 1_555
C4 N1 1_555 1_555
H4 C4 1_555 1_555
C5 C1 1_555 1_555
H5 C5 1_555 1_555
C6 C1 1_555 1_555
N4 N2 1_555 1_555
C7 N2 1_555 1_555
C8 C7 1_555 1_555
C9 C8 1_555 1_555
H6 C9 1_555 1_555
C10 C9 1_555 1_555
N5 C10 1_555 1_555
C11 N1 1_555 1_555
H7 C11 1_555 1_555
H8 C11 1_555 1_555
C12 C11 1_555 1_555
H9 C12 1_555 1_555
H10 C12 1_555 1_555
C13 C4 1_555 1_555
H11 C13 1_555 1_555
C14 C6 1_555 1_555
H12 C14 1_555 1_555
H13 C14 1_555 1_555
C15 C5 1_555 1_555
H14 C15 1_555 1_555
H15 C15 1_555 1_555
C16 C15 1_555 1_555
H16 C16 1_555 1_555
H17 C16 1_555 1_555
C17 C16 1_555 1_555
H18 C17 1_555 1_555
H19 C17 1_555 1_555
C18 C1 1_555 1_555
H20 C18 1_555 1_555
H21 C18 1_555 1_555
C19 C18 1_555 1_555
H22 C19 1_555 1_555
H23 C19 1_555 1_555
H24 C19 1_555 1_555
C20 C2 1_555 1_555
H25 C20 1_555 1_555
O6 N7 1_555 1_555
O7 C30 1_555 1_555
C21 H26 1_555 1_555
H27 C21 1_555 1_555
O8 N7 1_555 1_555
O9 N10 1_555 1_555
O10 N10 1_555 1_555
C22 C23 1_555 1_555
C23 H28 1_555 1_555
C24 C21 1_555 1_555
H29 C24 1_555 1_555
N6 C29 1_555 1_555
N7 C25 1_555 1_555
C25 C26 1_555 1_555
C26 H30 1_555 1_555
C27 C26 1_555 1_555
H31 C27 1_555 1_555
C28 C27 1_555 1_555
N8 C28 1_555 1_555
H32 N8 1_555 1_555
N9 C22 1_555 1_555
C29 C24 1_555 1_555
H33 C29 1_555 1_555
C30 N6 1_555 1_555
C31 N6 1_555 1_555
H34 C31 1_555 1_555
H35 C31 1_555 1_555
C32 C31 1_555 1_555
H36 C32 1_555 1_555
H37 C32 1_555 1_555
C33 C29 1_555 1_555
H38 C33 1_555 1_555
C34 C22 1_555 1_555
H39 C34 1_555 1_555
H40 C34 1_555 1_555
C35 C21 1_555 1_555
H41 C35 1_555 1_555
H42 C35 1_555 1_555
C36 C30 1_555 1_555
H43 C36 1_555 1_555
H44 C36 1_555 1_555
C37 C23 1_555 1_555
H45 C37 1_555 1_555
H46 C37 1_555 1_555
C38 C37 1_555 1_555
H47 C38 1_555 1_555
H48 C38 1_555 1_555
H49 C38 1_555 1_555
C39 C25 1_555 1_555
H50 C39 1_555 1_555
C40 C28 1_555 1_555
N10 C40 1_555 1_555
C2 C7 1_555 1_555
C4 C5 1_555 1_555
C6 N4 1_555 1_555
C10 C20 1_555 1_555
C12 C13 1_555 1_555
C13 C14 1_555 1_555
C23 C24 1_555 1_555
N8 N9 1_555 1_555
C32 C33 1_555 1_555
C33 C34 1_555 1_555
C35 C36 1_555 1_555
C39 C40 1_555 1_555

#END
