
#######################################################################
#
#                 Cambridge Crystallographic Data Centre
#                                CCDC 
#
#######################################################################
#
# If this CIF has been generated from an entry in the Cambridge 
# Structural Database, then it will include bibliographic, chemical, 
# crystal, experimental, refinement or atomic coordinate data resulting 
# from the CCDC's data processing and validation procedures.
#
#######################################################################

data_MUNTOG
_chemical_formula_moiety         'C26 H22 Br2 N2 O4'
_chemical_name_systematic        
'dimethyl 1,3-bis(4-bromophenyl)-2-phenyl-1,2,3,6-tetrahydropyrimidine-4,5-dicarboxylate'
_symmetry_cell_setting           triclinic
_symmetry_space_group_name_H-M   'P -1'
_symmetry_Int_Tables_number      2
_space_group_name_Hall           '-P 1'
loop_
_symmetry_equiv_pos_site_id
_symmetry_equiv_pos_as_xyz
1 x,y,z
2 -x,-y,-z
_cell_length_a                   10.6774(5)
_cell_length_b                   10.7451(7)
_cell_length_c                   12.3472(7)
_cell_angle_alpha                107.453(6)
_cell_angle_beta                 103.856(5)
_cell_angle_gamma                103.585(5)
_cell_volume                     1238.02
_exptl_crystal_colour            colorless
_exptl_crystal_description       block
_cell_formula_units_Z            2
loop_
_atom_site_label
_atom_site_type_symbol
_atom_site_fract_x
_atom_site_fract_y
_atom_site_fract_z
Br1 Br 0.26495(6) -0.07610(6) 0.09000(6)
Br2 Br 0.15352(5) 0.82650(6) 0.41583(8)
O1 O 0.6813(3) 0.8525(2) 0.2364(2)
O2 O 0.5705(3) 0.6433(2) 0.0890(2)
O3 O 0.9214(4) 0.5079(4) 0.1382(3)
O4 O 0.8518(3) 0.6844(3) 0.1229(3)
N1 N 0.7277(3) 0.4711(3) 0.3888(3)
C1 C 0.6981(3) 0.5928(3) 0.4500(3)
H1 H 0.6252 0.5631 0.4814
N2 N 0.6466(3) 0.6558(3) 0.3646(2)
C2 C 0.7006(3) 0.6509(3) 0.2739(3)
C3 C 0.7939(3) 0.5874(3) 0.2583(3)
C4 C 0.8330(3) 0.5080(4) 0.3348(3)
H2 H 0.8438 0.4245 0.2858
H3 H 0.9198 0.5636 0.3982
C5 C 0.6165(3) 0.3478(3) 0.3168(3)
C6 C 0.6448(4) 0.2268(4) 0.2660(4)
H4 H 0.7351 0.2305 0.2779
C7 C 0.5412(5) 0.1023(4) 0.1986(4)
H5 H 0.5616 0.0231 0.1646
C8 C 0.4077(4) 0.0961(4) 0.1820(4)
C9 C 0.3760(4) 0.2124(4) 0.2320(3)
H6 H 0.2854 0.2068 0.2217
C10 C 0.4799(3) 0.3377(4) 0.2977(3)
H7 H 0.4582 0.4166 0.3298
C11 C 0.8232(3) 0.6944(4) 0.5574(3)
C12 C 0.8738(4) 0.6514(4) 0.6491(3)
H8 H 0.8340 0.5612 0.6418
C13 C 0.9825(4) 0.7409(5) 0.7511(3)
H9 H 1.0143 0.7113 0.8126
C14 C 1.0441(5) 0.8744(6) 0.7619(4)
H10 H 1.1172 0.9350 0.8305
C15 C 0.9967(5) 0.9170(5) 0.6705(5)
H11 H 1.0384 1.0064 0.6769
C16 C 0.8863(4) 0.8268(4) 0.5682(4)
H12 H 0.8550 0.8565 0.5066
C17 C 0.5303(3) 0.6992(3) 0.3713(3)
C18 C 0.5398(4) 0.7982(4) 0.4779(3)
H13 H 0.6220 0.8386 0.5418
C19 C 0.4277(4) 0.8373(4) 0.4902(4)
H14 H 0.4339 0.9037 0.5617
C20 C 0.3078(4) 0.7765(4) 0.3950(4)
C21 C 0.2964(4) 0.6799(4) 0.2867(4)
H15 H 0.2149 0.6422 0.2222
C22 C 0.4084(4) 0.6407(4) 0.2762(3)
H16 H 0.4018 0.5743 0.2046
C23 C 0.6524(3) 0.7296(3) 0.1984(3)
C24 C 0.5161(6) 0.7061(5) 0.0089(4)
H17 H 0.4543 0.7482 0.0375
H18 H 0.4681 0.6366 -0.0705
H19 H 0.5896 0.7752 0.0063
C25 C 0.8605(4) 0.5859(4) 0.1677(3)
C26 C 0.9081(6) 0.6854(7) 0.0286(5)
H20 H 1.0055 0.7082 0.0598
H21 H 0.8870 0.7529 -0.0021
H22 H 0.8694 0.5956 -0.0352
loop_
_geom_bond_atom_site_label_1
_geom_bond_atom_site_label_2
_geom_bond_site_symmetry_1
_geom_bond_site_symmetry_2
Br1 C8 1_555 1_555
Br2 C20 1_555 1_555
O1 C23 1_555 1_555
O2 C23 1_555 1_555
O3 C25 1_555 1_555
O4 C25 1_555 1_555
N1 C1 1_555 1_555
C1 H1 1_555 1_555
N2 C1 1_555 1_555
C2 N2 1_555 1_555
C3 C2 1_555 1_555
C4 N1 1_555 1_555
H2 C4 1_555 1_555
H3 C4 1_555 1_555
C5 N1 1_555 1_555
C6 C5 1_555 1_555
H4 C6 1_555 1_555
C7 C6 1_555 1_555
H5 C7 1_555 1_555
C8 C7 1_555 1_555
C9 C8 1_555 1_555
H6 C9 1_555 1_555
C10 C5 1_555 1_555
H7 C10 1_555 1_555
C11 C1 1_555 1_555
C12 C11 1_555 1_555
H8 C12 1_555 1_555
C13 C12 1_555 1_555
H9 C13 1_555 1_555
C14 C13 1_555 1_555
H10 C14 1_555 1_555
C15 C14 1_555 1_555
H11 C15 1_555 1_555
C16 C11 1_555 1_555
H12 C16 1_555 1_555
C17 N2 1_555 1_555
C18 C17 1_555 1_555
H13 C18 1_555 1_555
C19 C18 1_555 1_555
H14 C19 1_555 1_555
C20 C19 1_555 1_555
C21 C20 1_555 1_555
H15 C21 1_555 1_555
C22 C17 1_555 1_555
H16 C22 1_555 1_555
C23 C2 1_555 1_555
C24 O2 1_555 1_555
H17 C24 1_555 1_555
H18 C24 1_555 1_555
H19 C24 1_555 1_555
C25 C3 1_555 1_555
C26 O4 1_555 1_555
H20 C26 1_555 1_555
H21 C26 1_555 1_555
H22 C26 1_555 1_555
C3 C4 1_555 1_555
C9 C10 1_555 1_555
C15 C16 1_555 1_555
C21 C22 1_555 1_555

#END
