
#######################################################################
#
#                 Cambridge Crystallographic Data Centre
#                                CCDC 
#
#######################################################################
#
# If this CIF has been generated from an entry in the Cambridge 
# Structural Database, then it will include bibliographic, chemical, 
# crystal, experimental, refinement or atomic coordinate data resulting 
# from the CCDC's data processing and validation procedures.
#
#######################################################################

data_MUNTAS
_chemical_formula_moiety         'C20 H27 N5 O4'
_chemical_name_systematic        
(3S,7aR,8R,10aR,E)-9-(2-(2,4-dinitrophenyl)hydrazono)-8-ethyldodecahydroazepino[3,2,1-hi]indole
_symmetry_cell_setting           monoclinic
_symmetry_space_group_name_H-M   'C 2'
_symmetry_Int_Tables_number      5
_space_group_name_Hall           'C 2y'
loop_
_symmetry_equiv_pos_site_id
_symmetry_equiv_pos_as_xyz
1 x,y,z
2 -x,y,-z
3 1/2+x,1/2+y,z
4 1/2-x,1/2+y,-z
_cell_length_a                   14.812(3)
_cell_length_b                   6.9207(15)
_cell_length_c                   39.483(8)
_cell_angle_alpha                90
_cell_angle_beta                 94.203(3)
_cell_angle_gamma                90
_cell_volume                     4036.49
_exptl_crystal_colour            brown
_exptl_crystal_description       needle
_cell_formula_units_Z            8
loop_
_atom_site_label
_atom_site_type_symbol
_atom_site_fract_x
_atom_site_fract_y
_atom_site_fract_z
O1 O 0.18695(15) 0.7049(4) 0.15072(5)
O2 O 0.32253(15) 0.5923(4) 0.16164(5)
O3 O 0.00131(13) 0.8426(3) 0.23915(5)
O4 O 0.04169(13) 0.7899(4) 0.29173(5)
N1 N 0.27641(14) 0.6084(3) 0.33229(5)
N2 N 0.20433(14) 0.6643(3) 0.31004(5)
H1 H 0.1527 0.7005 0.3178
N3 N 0.24976(16) 0.6503(3) 0.17052(5)
N4 N 0.05715(14) 0.7861(3) 0.26154(6)
C1 C 0.3670(3) 0.2136(7) 0.46702(10)
H2 H 0.4176 0.1342 0.4597
H3 H 0.3819 0.2460 0.4912
C2 C 0.3683(2) 0.4034(5) 0.44718(7)
H4 H 0.3442 0.5076 0.4611
H5 H 0.4319 0.4361 0.4434
C3 C 0.31365(18) 0.3978(4) 0.41296(6)
H6 H 0.3269 0.2726 0.4017
C4 C 0.34124(17) 0.5648(4) 0.38923(6)
H7 H 0.3539 0.6805 0.4040
C5 C 0.26325(17) 0.6188(4) 0.36389(6)
C6 C 0.21455(15) 0.6624(3) 0.27647(6)
C7 C 0.29723(16) 0.6040(3) 0.26383(6)
H8 H 0.3460 0.5666 0.2794
C8 C 0.30885(17) 0.6001(4) 0.22991(6)
H9 H 0.3650 0.5599 0.2220
C9 C 0.23781(17) 0.6555(4) 0.20683(6)
C10 C 0.42955(19) 0.5172(5) 0.37275(7)
H10 H 0.4725 0.4573 0.3901
H11 H 0.4162 0.4207 0.3546
C11 C 0.4752(2) 0.6913(6) 0.35765(8)
H12 H 0.4377 0.7385 0.3379
H13 H 0.5348 0.6534 0.3506
H14 H 0.4824 0.7940 0.3747
C12 C 0.1981(2) 0.1456(5) 0.45946(9)
H15 H 0.1716 0.0629 0.4408
H16 H 0.1662 0.1163 0.4800
N5 N 0.18286(16) 0.3463(4) 0.45038(5)
C13 C 0.21095(18) 0.4059(4) 0.41724(6)
H17 H 0.1787 0.3247 0.3992
C14 C 0.17417(18) 0.6104(4) 0.41466(6)
H18 H 0.2147 0.6962 0.4294
C15 C 0.0828(2) 0.5969(5) 0.43000(7)
H19 H 0.0326 0.5951 0.4120
H20 H 0.0740 0.7072 0.4454
C16 C 0.0874(2) 0.4050(5) 0.44978(7)
H21 H 0.0687 0.4236 0.4731
H22 H 0.0477 0.3067 0.4382
C17 C 0.17562(19) 0.6788(5) 0.37810(6)
H23 H 0.1239 0.6220 0.3642
H24 H 0.1697 0.8212 0.3772
C18 C 0.14416(15) 0.7181(3) 0.25175(6)
C19 C 0.15597(16) 0.7156(3) 0.21746(6)
H25 H 0.1085 0.7546 0.2014
C20 C 0.2931(4) 0.0975(9) 0.4659(2)
H26 H 0.2970 0.0301 0.4881
H27 H 0.3048 -0.0025 0.4488
O5 O 0.20770(15) 0.1397(4) 0.34434(5)
O6 O 0.34630(16) 0.0781(4) 0.33547(5)
O7 O 0.02648(13) 0.2826(4) 0.20187(5)
O8 O 0.00392(13) 0.3446(3) 0.25394(5)
N6 N 0.25625(14) 0.1401(3) 0.16421(5)
N7 N 0.18734(14) 0.1798(3) 0.18501(5)
H28 H 0.1328 0.2105 0.1763
N8 N 0.26902(17) 0.1185(3) 0.32556(5)
N9 N 0.05190(14) 0.2842(3) 0.23218(6)
N10 N 0.22963(15) 0.4885(4) 0.04332(5)
C21 C 0.3753(2) 0.5523(5) 0.01956(7)
H29 H 0.4150 0.6589 0.0130
H30 H 0.3533 0.4844 -0.0015
C22 C 0.4319(2) 0.4119(6) 0.04167(9)
H31 H 0.4623 0.4847 0.0609
H32 H 0.4798 0.3586 0.0281
C23 C 0.3800(2) 0.2431(5) 0.05608(7)
H33 H 0.3358 0.1933 0.0382
H34 H 0.4232 0.1377 0.0624
C24 C 0.33016(16) 0.2976(4) 0.08688(6)
H35 H 0.3706 0.3851 0.1013
C25 C 0.31039(17) 0.1165(4) 0.10871(6)
H36 H 0.2847 0.0165 0.0924
C26 C 0.23741(17) 0.1604(4) 0.13221(6)
C27 C 0.20599(16) 0.1703(3) 0.21916(6)
C28 C 0.14232(16) 0.2152(3) 0.24294(6)
C29 C 0.16256(17) 0.1999(3) 0.27752(6)
H37 H 0.1184 0.2297 0.2930
C30 C 0.24766(17) 0.1408(3) 0.28903(6)
C31 C 0.14730(18) 0.2247(5) 0.11584(6)
H38 H 0.1243 0.3353 0.1286
H39 H 0.1030 0.1179 0.1164
C32 C 0.15774(17) 0.2843(5) 0.07897(6)
H40 H 0.1646 0.1657 0.0649
C33 C 0.24152(17) 0.4076(4) 0.07764(6)
H41 H 0.2373 0.5160 0.0942
C34 C 0.39561(19) 0.0259(5) 0.12698(7)
H42 H 0.3763 -0.0715 0.1433
H43 H 0.4294 -0.0429 0.1099
C35 C 0.4592(2) 0.1662(6) 0.14583(9)
H44 H 0.4899 0.2444 0.1295
H45 H 0.5042 0.0944 0.1603
H46 H 0.4246 0.2509 0.1600
C36 C 0.2953(2) 0.6385(5) 0.03521(7)
H47 H 0.3162 0.7082 0.0562
H48 H 0.2653 0.7330 0.0193
C37 C 0.1353(2) 0.5559(6) 0.04085(8)
H49 H 0.1102 0.5567 0.0169
H50 H 0.1310 0.6880 0.0502
C38 C 0.0844(2) 0.4116(6) 0.06178(8)
H51 H 0.0503 0.4794 0.0789
H52 H 0.0416 0.3339 0.0470
C39 C 0.29330(16) 0.1132(4) 0.23249(6)
H53 H 0.3385 0.0846 0.2174
C40 C 0.31374(17) 0.0985(4) 0.26675(6)
H54 H 0.3726 0.0597 0.2753
loop_
_geom_bond_atom_site_label_1
_geom_bond_atom_site_label_2
_geom_bond_site_symmetry_1
_geom_bond_site_symmetry_2
O1 N3 1_555 1_555
O2 N3 1_555 1_555
O3 N4 1_555 1_555
O4 N4 1_555 1_555
N1 N2 1_555 1_555
N2 H1 1_555 1_555
N3 C9 1_555 1_555
N4 C18 1_555 1_555
C1 H2 1_555 1_555
H3 C1 1_555 1_555
C2 C1 1_555 1_555
H4 C2 1_555 1_555
H5 C2 1_555 1_555
C3 C2 1_555 1_555
H6 C3 1_555 1_555
C4 C3 1_555 1_555
H7 C4 1_555 1_555
C5 N1 1_555 1_555
C6 N2 1_555 1_555
C7 C6 1_555 1_555
H8 C7 1_555 1_555
C8 C7 1_555 1_555
H9 C8 1_555 1_555
C9 C8 1_555 1_555
C10 C4 1_555 1_555
H10 C10 1_555 1_555
H11 C10 1_555 1_555
C11 C10 1_555 1_555
H12 C11 1_555 1_555
H13 C11 1_555 1_555
H14 C11 1_555 1_555
C12 H15 1_555 1_555
H16 C12 1_555 1_555
N5 C12 1_555 1_555
C13 C3 1_555 1_555
H17 C13 1_555 1_555
C14 C13 1_555 1_555
H18 C14 1_555 1_555
C15 C14 1_555 1_555
H19 C15 1_555 1_555
H20 C15 1_555 1_555
C16 N5 1_555 1_555
H21 C16 1_555 1_555
H22 C16 1_555 1_555
C17 C5 1_555 1_555
H23 C17 1_555 1_555
H24 C17 1_555 1_555
C18 C6 1_555 1_555
C19 C9 1_555 1_555
H25 C19 1_555 1_555
C20 C1 1_555 1_555
H26 C20 1_555 1_555
H27 C20 1_555 1_555
O5 N8 1_555 1_555
O6 N8 1_555 1_555
O7 N9 1_555 1_555
O8 N9 1_555 1_555
N6 N7 1_555 1_555
N7 H28 1_555 1_555
N8 C30 1_555 1_555
N9 C28 1_555 1_555
N10 C33 1_555 1_555
C21 H29 1_555 1_555
H30 C21 1_555 1_555
C22 C21 1_555 1_555
H31 C22 1_555 1_555
H32 C22 1_555 1_555
C23 C22 1_555 1_555
H33 C23 1_555 1_555
H34 C23 1_555 1_555
C24 C23 1_555 1_555
H35 C24 1_555 1_555
C25 C24 1_555 1_555
H36 C25 1_555 1_555
C26 N6 1_555 1_555
C27 N7 1_555 1_555
C28 C27 1_555 1_555
C29 C28 1_555 1_555
H37 C29 1_555 1_555
C30 C29 1_555 1_555
C31 C26 1_555 1_555
H38 C31 1_555 1_555
H39 C31 1_555 1_555
C32 C31 1_555 1_555
H40 C32 1_555 1_555
C33 C24 1_555 1_555
H41 C33 1_555 1_555
C34 C25 1_555 1_555
H42 C34 1_555 1_555
H43 C34 1_555 1_555
C35 C34 1_555 1_555
H44 C35 1_555 1_555
H45 C35 1_555 1_555
H46 C35 1_555 1_555
C36 N10 1_555 1_555
H47 C36 1_555 1_555
H48 C36 1_555 1_555
C37 N10 1_555 1_555
H49 C37 1_555 1_555
H50 C37 1_555 1_555
C38 C32 1_555 1_555
H51 C38 1_555 1_555
H52 C38 1_555 1_555
C39 C27 1_555 1_555
H53 C39 1_555 1_555
C40 C30 1_555 1_555
H54 C40 1_555 1_555
C4 C5 1_555 1_555
C12 C20 1_555 1_555
N5 C13 1_555 1_555
C14 C17 1_555 1_555
C15 C16 1_555 1_555
C18 C19 1_555 1_555
C21 C36 1_555 1_555
C25 C26 1_555 1_555
C32 C33 1_555 1_555
C37 C38 1_555 1_555
C39 C40 1_555 1_555

#END
