
#######################################################################
#
#                 Cambridge Crystallographic Data Centre
#                                CCDC 
#
#######################################################################
#
# If this CIF has been generated from an entry in the Cambridge 
# Structural Database, then it will include bibliographic, chemical, 
# crystal, experimental, refinement or atomic coordinate data resulting 
# from the CCDC's data processing and validation procedures.
#
#######################################################################

data_MUNTAR
_chemical_name_common            
9-[2-(p-Tolylamino)-4,4-dimethyl-6-oxocyclohex-1-enyl]-3,4-dihydro-3,3-dimethyl-10-p-tolylacridin-1(2H,9H,10H)-one
_chemical_formula_moiety         'C37 H40 N2 O2'
_chemical_name_systematic        
9-(4,4-Dimethyl-2-((4-methylphenyl)amino)-6-oxocyclohex-1-en-1-yl)-3,3-dimethyl-10-(4-methylphenyl)-3,4,9,10-tetrahydroacridin-1(2H)-one
_symmetry_cell_setting           triclinic
_symmetry_space_group_name_H-M   'P -1'
_symmetry_Int_Tables_number      2
_space_group_name_Hall           '-P 1'
loop_
_symmetry_equiv_pos_site_id
_symmetry_equiv_pos_as_xyz
1 x,y,z
2 -x,-y,-z
_cell_length_a                   11.9357(11)
_cell_length_b                   15.1588(13)
_cell_length_c                   18.9987(14)
_cell_angle_alpha                111.618(9)
_cell_angle_beta                 100.972(12)
_cell_angle_gamma                98.956(14)
_cell_volume                     3039.72
_exptl_crystal_colour            yellow
_exptl_crystal_description       block
_chemical_melting_point          '246-248 deg.C'
_cell_formula_units_Z            4
loop_
_atom_site_label
_atom_site_type_symbol
_atom_site_fract_x
_atom_site_fract_y
_atom_site_fract_z
O1 O 0.8241(2) 0.27693(18) 0.38964(15)
O2 O 0.6696(2) 0.44612(19) 0.60152(16)
N1 N 0.8666(3) 0.5888(2) 0.58946(17)
N2 N 0.8179(3) 0.1743(2) 0.4855(2)
H1 H 0.844(4) 0.209(3) 0.458(2)
C1 C 0.9251(3) 0.5636(3) 0.6493(2)
C2 C 0.9258(3) 0.4665(3) 0.6328(2)
C3 C 0.8649(3) 0.3845(2) 0.5517(2)
H2 H 0.9225 0.3448 0.5358
C4 C 0.8329(3) 0.4261(3) 0.4917(2)
C5 C 0.8269(3) 0.5213(2) 0.5127(2)
C6 C 0.9833(3) 0.4445(3) 0.6923(2)
H3 H 0.9836 0.3782 0.6818
C7 C 1.0403(3) 0.5162(3) 0.7665(2)
H4 H 1.0797 0.4995 0.8064
C8 C 1.0392(3) 0.6122(3) 0.7819(2)
H5 H 1.0777 0.6622 0.8327
C9 C 0.9821(3) 0.6361(3) 0.7234(2)
H6 H 0.9821 0.7024 0.7341
C10 C 0.8071(3) 0.3611(3) 0.4101(2)
C11 C 0.7602(3) 0.3952(3) 0.3483(2)
H7 H 0.7042 0.3389 0.3029
H8 H 0.8264 0.4184 0.3299
C12 C 0.6983(3) 0.4769(3) 0.3765(2)
C13 C 0.7814(3) 0.5568(3) 0.4511(2)
H9 H 0.8492 0.5875 0.4379
H10 H 0.7400 0.6079 0.4734
C14 C 0.5819(3) 0.4391(3) 0.3919(3)
H11 H 0.5985 0.4145 0.4328
H12 H 0.5302 0.3860 0.3434
H13 H 0.5432 0.4927 0.4093
C15 C 0.6722(4) 0.5184(3) 0.3147(2)
H14 H 0.6372 0.5739 0.3347
H15 H 0.6170 0.4674 0.2665
H16 H 0.7456 0.5404 0.3033
C16 C 0.8340(3) 0.6811(2) 0.6121(2)
C17 C 0.9128(3) 0.7659(3) 0.6225(2)
H17 H 0.9895 0.7645 0.6160
C18 C 0.8767(4) 0.8524(3) 0.6427(2)
H18 H 0.9304 0.9106 0.6505
C19 C 0.7650(4) 0.8568(3) 0.6518(2)
C20 C 0.6896(4) 0.7713(3) 0.6410(3)
H19 H 0.6123 0.7723 0.6465
C21 C 0.7235(4) 0.6841(3) 0.6222(3)
H20 H 0.6707 0.6265 0.6163
C22 C 0.7286(5) 0.9520(3) 0.6724(3)
H21 H 0.7953 1.0044 0.6800
H22 H 0.7038 0.9678 0.7210
H23 H 0.6630 0.9457 0.6296
C23 C 0.7580(3) 0.3160(3) 0.5539(2)
C24 C 0.6674(3) 0.3595(3) 0.5836(2)
C25 C 0.5626(4) 0.2935(3) 0.5888(3)
H24 H 0.5368 0.3314 0.6350
H25 H 0.4968 0.2745 0.5414
C26 C 0.5855(4) 0.2029(3) 0.5958(3)
C27 C 0.6444(4) 0.1517(3) 0.5355(3)
H26 H 0.5848 0.1179 0.4839
H27 H 0.6742 0.1010 0.5490
C28 C 0.7449(3) 0.2170(3) 0.5273(2)
C29 C 0.4739(4) 0.1352(3) 0.5920(4)
H28 H 0.4427 0.1687 0.6361
H29 H 0.4921 0.0758 0.5954
H30 H 0.4150 0.1175 0.5423
C30 C 0.6693(5) 0.2345(4) 0.6791(3)
H31 H 0.7440 0.2769 0.6843
H32 H 0.6842 0.1762 0.6864
H33 H 0.6325 0.2701 0.7191
C31 C 0.8282(3) 0.0762(3) 0.4588(2)
C32 C 0.8385(3) 0.0263(3) 0.5071(2)
H34 H 0.8358 0.0566 0.5601
C33 C 0.8529(4) -0.0684(3) 0.4771(3)
H35 H 0.8578 -0.1028 0.5100
C34 C 0.8603(4) -0.1142(3) 0.4016(3)
C35 C 0.8536(3) -0.0625(3) 0.3549(2)
H36 H 0.8601 -0.0919 0.3027
C36 C 0.8377(3) 0.0318(3) 0.3833(2)
H37 H 0.8332 0.0661 0.3503
C37 C 0.8787(5) -0.2166(3) 0.3708(3)
H38 H 0.9574 -0.2159 0.3983
H39 H 0.8714 -0.2400 0.3143
H40 H 0.8191 -0.2604 0.3799
O3 O 0.6928(2) 0.22929(19) 1.10379(15)
O4 O 0.8134(2) 0.0480(2) 0.87510(17)
N3 N 0.6253(3) -0.0868(2) 0.90399(17)
N4 N 0.6916(3) 0.3286(2) 1.0065(2)
H41 H 0.673(4) 0.300(3) 1.036(2)
C38 C 0.5628(3) -0.0614(3) 0.8456(2)
C39 C 0.5631(3) 0.0359(3) 0.8620(2)
C40 C 0.6332(3) 0.1179(3) 0.9404(2)
H42 H 0.5792 0.1599 0.9595
C41 C 0.6710(3) 0.0781(3) 1.0008(2)
C42 C 0.6729(3) -0.0179(3) 0.9795(2)
C43 C 0.5005(3) 0.0577(3) 0.8035(2)
H43 H 0.5000 0.1240 0.8144
C44 C 0.4390(3) -0.0140(3) 0.7303(2)
H44 H 0.3981 0.0030 0.6910
C45 C 0.4375(3) -0.1104(3) 0.7148(2)
H45 H 0.3943 -0.1605 0.6649
C46 C 0.4991(3) -0.1345(3) 0.7719(2)
H46 H 0.4980 -0.2011 0.7609
C47 C 0.7050(3) 0.1434(3) 1.0825(2)
C48 C 0.7528(3) 0.1088(3) 1.1435(2)
H47 H 0.6875 0.0861 1.1629
H48 H 0.8103 0.1645 1.1885
C49 C 0.8126(3) 0.0260(3) 1.1131(2)
C50 C 0.7247(4) -0.0542(3) 1.0392(2)
H49 H 0.7647 -0.1052 1.0144
H50 H 0.6599 -0.0852 1.0547
C51 C 0.8421(4) -0.0143(3) 1.1751(2)
H51 H 0.7698 -0.0371 1.1874
H52 H 0.8974 0.0374 1.2229
H53 H 0.8780 -0.0692 1.1549
C52 C 0.9263(4) 0.0624(4) 1.0947(3)
H54 H 0.9808 0.1144 1.1426
H55 H 0.9076 0.0880 1.0546
H56 H 0.9630 0.0079 1.0750
C53 C 0.6485(3) -0.1824(3) 0.8791(2)
C54 C 0.7469(4) -0.1961(3) 0.8534(3)
H57 H 0.7991 -0.1429 0.8522
C55 C 0.7695(4) -0.2873(3) 0.8293(3)
H58 H 0.8383 -0.2960 0.8121
C56 C 0.6955(4) -0.3661(3) 0.8295(2)
C57 C 0.5957(4) -0.3513(3) 0.8552(2)
H59 H 0.5432 -0.4046 0.8560
C58 C 0.5720(3) -0.2601(3) 0.8796(2)
H60 H 0.5032 -0.2510 0.8966
C59 C 0.7210(6) -0.4667(3) 0.8022(3)
H61 H 0.7448 -0.4811 0.7533
H62 H 0.6500 -0.5162 0.7930
H63 H 0.7847 -0.4677 0.8427
C60 C 0.7346(3) 0.1822(3) 0.9293(2)
C61 C 0.8147(3) 0.1345(3) 0.8896(2)
C62 C 0.8999(4) 0.1927(3) 0.8630(3)
H64 H 0.9689 0.1642 0.8594
H65 H 0.8607 0.1854 0.8096
C63 C 0.9426(4) 0.2999(3) 0.9158(3)
C64 C 0.8378(4) 0.3416(3) 0.9320(3)
H66 H 0.8673 0.4084 0.9745
H67 H 0.7961 0.3473 0.8842
C65 C 0.7509(3) 0.2819(3) 0.9555(2)
C66 C 1.0236(5) 0.3125(4) 0.9945(3)
H68 H 0.9797 0.2773 1.0189
H69 H 1.0508 0.3822 1.0298
H70 H 1.0916 0.2859 0.9847
C67 C 1.0143(4) 0.3567(4) 0.8814(3)
H71 H 1.0802 0.3280 0.8697
H72 H 1.0447 0.4252 0.9193
H73 H 0.9641 0.3537 0.8329
C68 C 0.6817(3) 0.4265(3) 1.0336(2)
C69 C 0.6671(4) 0.4758(3) 0.9854(2)
H74 H 0.6663 0.4451 0.9317
C70 C 0.6536(4) 0.5708(3) 1.0164(3)
H75 H 0.6473 0.6053 0.9835
C71 C 0.6489(4) 0.6168(3) 1.0927(3)
C72 C 0.6613(4) 0.5653(3) 1.1392(2)
H76 H 0.6580 0.5947 1.1921
C73 C 0.6786(3) 0.4717(3) 1.1104(2)
H77 H 0.6885 0.4385 1.1440
C74 C 0.6281(5) 0.7183(3) 1.1239(3)
H78 H 0.6795 0.7611 1.1087
H79 H 0.6457 0.7446 1.1813
H80 H 0.5456 0.7151 1.1017
loop_
_geom_bond_atom_site_label_1
_geom_bond_atom_site_label_2
_geom_bond_site_symmetry_1
_geom_bond_site_symmetry_2
O1 C10 1_555 1_555
O2 C24 1_555 1_555
N1 C1 1_555 1_555
N2 H1 1_555 1_555
C1 C2 1_555 1_555
C2 C3 1_555 1_555
C3 H2 1_555 1_555
C4 C3 1_555 1_555
C5 N1 1_555 1_555
C6 C2 1_555 1_555
H3 C6 1_555 1_555
C7 C6 1_555 1_555
H4 C7 1_555 1_555
C8 C7 1_555 1_555
H5 C8 1_555 1_555
C9 C1 1_555 1_555
H6 C9 1_555 1_555
C10 C4 1_555 1_555
C11 C10 1_555 1_555
H7 C11 1_555 1_555
H8 C11 1_555 1_555
C12 C11 1_555 1_555
C13 C5 1_555 1_555
H9 C13 1_555 1_555
H10 C13 1_555 1_555
C14 C12 1_555 1_555
H11 C14 1_555 1_555
H12 C14 1_555 1_555
H13 C14 1_555 1_555
C15 C12 1_555 1_555
H14 C15 1_555 1_555
H15 C15 1_555 1_555
H16 C15 1_555 1_555
C16 N1 1_555 1_555
C17 C16 1_555 1_555
H17 C17 1_555 1_555
C18 C17 1_555 1_555
H18 C18 1_555 1_555
C19 C18 1_555 1_555
C20 C19 1_555 1_555
H19 C20 1_555 1_555
C21 C16 1_555 1_555
H20 C21 1_555 1_555
C22 C19 1_555 1_555
H21 C22 1_555 1_555
H22 C22 1_555 1_555
H23 C22 1_555 1_555
C23 C3 1_555 1_555
C24 C23 1_555 1_555
C25 C24 1_555 1_555
H24 C25 1_555 1_555
H25 C25 1_555 1_555
C26 C25 1_555 1_555
C27 C26 1_555 1_555
H26 C27 1_555 1_555
H27 C27 1_555 1_555
C28 N2 1_555 1_555
C29 C26 1_555 1_555
H28 C29 1_555 1_555
H29 C29 1_555 1_555
H30 C29 1_555 1_555
C30 C26 1_555 1_555
H31 C30 1_555 1_555
H32 C30 1_555 1_555
H33 C30 1_555 1_555
C31 N2 1_555 1_555
C32 C31 1_555 1_555
H34 C32 1_555 1_555
C33 C32 1_555 1_555
H35 C33 1_555 1_555
C34 C33 1_555 1_555
C35 C34 1_555 1_555
H36 C35 1_555 1_555
C36 C31 1_555 1_555
H37 C36 1_555 1_555
C37 C34 1_555 1_555
H38 C37 1_555 1_555
H39 C37 1_555 1_555
H40 C37 1_555 1_555
O3 C47 1_555 1_555
O4 C61 1_555 1_555
N3 C38 1_555 1_555
N4 H41 1_555 1_555
C38 C39 1_555 1_555
C39 C40 1_555 1_555
C40 H42 1_555 1_555
C41 C40 1_555 1_555
C42 N3 1_555 1_555
C43 C39 1_555 1_555
H43 C43 1_555 1_555
C44 C43 1_555 1_555
H44 C44 1_555 1_555
C45 C44 1_555 1_555
H45 C45 1_555 1_555
C46 C38 1_555 1_555
H46 C46 1_555 1_555
C47 C41 1_555 1_555
C48 C47 1_555 1_555
H47 C48 1_555 1_555
H48 C48 1_555 1_555
C49 C48 1_555 1_555
C50 C42 1_555 1_555
H49 C50 1_555 1_555
H50 C50 1_555 1_555
C51 C49 1_555 1_555
H51 C51 1_555 1_555
H52 C51 1_555 1_555
H53 C51 1_555 1_555
C52 C49 1_555 1_555
H54 C52 1_555 1_555
H55 C52 1_555 1_555
H56 C52 1_555 1_555
C53 N3 1_555 1_555
C54 C53 1_555 1_555
H57 C54 1_555 1_555
C55 C54 1_555 1_555
H58 C55 1_555 1_555
C56 C55 1_555 1_555
C57 C56 1_555 1_555
H59 C57 1_555 1_555
C58 C53 1_555 1_555
H60 C58 1_555 1_555
C59 C56 1_555 1_555
H61 C59 1_555 1_555
H62 C59 1_555 1_555
H63 C59 1_555 1_555
C60 C40 1_555 1_555
C61 C60 1_555 1_555
C62 C61 1_555 1_555
H64 C62 1_555 1_555
H65 C62 1_555 1_555
C63 C62 1_555 1_555
C64 C63 1_555 1_555
H66 C64 1_555 1_555
H67 C64 1_555 1_555
C65 N4 1_555 1_555
C66 C63 1_555 1_555
H68 C66 1_555 1_555
H69 C66 1_555 1_555
H70 C66 1_555 1_555
C67 C63 1_555 1_555
H71 C67 1_555 1_555
H72 C67 1_555 1_555
H73 C67 1_555 1_555
C68 N4 1_555 1_555
C69 C68 1_555 1_555
H74 C69 1_555 1_555
C70 C69 1_555 1_555
H75 C70 1_555 1_555
C71 C70 1_555 1_555
C72 C71 1_555 1_555
H76 C72 1_555 1_555
C73 C68 1_555 1_555
H77 C73 1_555 1_555
C74 C71 1_555 1_555
H78 C74 1_555 1_555
H79 C74 1_555 1_555
H80 C74 1_555 1_555
C4 C5 1_555 1_555
C8 C9 1_555 1_555
C12 C13 1_555 1_555
C20 C21 1_555 1_555
C23 C28 1_555 1_555
C27 C28 1_555 1_555
C35 C36 1_555 1_555
C41 C42 1_555 1_555
C45 C46 1_555 1_555
C49 C50 1_555 1_555
C57 C58 1_555 1_555
C60 C65 1_555 1_555
C64 C65 1_555 1_555
C72 C73 1_555 1_555

#END
