
#######################################################################
#
#                 Cambridge Crystallographic Data Centre
#                                CCDC 
#
#######################################################################
#
# If this CIF has been generated from an entry in the Cambridge 
# Structural Database, then it will include bibliographic, chemical, 
# crystal, experimental, refinement or atomic coordinate data resulting 
# from the CCDC's data processing and validation procedures.
#
#######################################################################

data_MUNXAW
_chemical_formula_moiety         'C18 H15 N3 O5'
_chemical_name_systematic        
(2R)-1,2-bis(3-nitrophenyl)-2-(1H-pyrrol-1-yl)ethanol
_symmetry_cell_setting           triclinic
_symmetry_space_group_name_H-M   'P -1'
_symmetry_Int_Tables_number      2
_space_group_name_Hall           '-P 1'
loop_
_symmetry_equiv_pos_site_id
_symmetry_equiv_pos_as_xyz
1 x,y,z
2 -x,-y,-z
_cell_length_a                   9.2507(15)
_cell_length_b                   9.3891(15)
_cell_length_c                   10.8595(16)
_cell_angle_alpha                86.246(4)
_cell_angle_beta                 74.955(4)
_cell_angle_gamma                66.000(3)
_cell_volume                     831.269
_exptl_crystal_colour            green
_exptl_crystal_description       prismatic
_cell_formula_units_Z            2
_exptl_crystal_recrystallization_method methanol
loop_
_atom_site_label
_atom_site_type_symbol
_atom_site_fract_x
_atom_site_fract_y
_atom_site_fract_z
N1 N 1.0857(2) 0.4808(2) 0.21699(18)
N2 N 0.3862(3) 0.4153(4) 0.4214(2)
N3 N 1.4587(3) -0.1475(3) 0.1609(4)
O1 O 1.0376(3) 0.2886(3) 0.03457(19)
H1 H 0.9931 0.2930 -0.0226
O2 O 0.3521(3) 0.5532(3) 0.4344(2)
O3 O 0.3038(4) 0.3507(4) 0.4809(3)
O4 O 1.4558(4) -0.1408(3) 0.0488(3)
O5 O 1.5683(4) -0.2440(3) 0.2025(4)
C1 C 1.2357(3) 0.4509(3) 0.1375(3)
H2 H 1.3077 0.3554 0.0957
C2 C 1.2635(3) 0.5827(3) 0.1291(3)
H3 H 1.3575 0.5935 0.0814
C3 C 1.1245(4) 0.6995(3) 0.2053(3)
H4 H 1.1080 0.8028 0.2168
C4 C 1.0186(3) 0.6332(3) 0.2591(3)
H5 H 0.9166 0.6837 0.3156
C5 C 0.9983(3) 0.3774(3) 0.2497(2)
H6 H 0.9076 0.4276 0.3245
C6 C 0.9196(3) 0.3673(3) 0.1446(2)
H7 H 0.8620 0.4709 0.1200
C7 C 0.7985(3) 0.2941(3) 0.1948(2)
C8 C 0.8308(4) 0.1420(3) 0.1642(3)
H8 H 0.9291 0.0817 0.1073
C9 C 0.7187(4) 0.0778(4) 0.2170(3)
H9 H 0.7419 -0.0247 0.1948
C10 C 0.5731(4) 0.1651(4) 0.3022(3)
H10 H 0.4980 0.1226 0.3397
C11 C 0.5425(3) 0.3172(3) 0.3301(2)
C12 C 0.6497(3) 0.3830(3) 0.2776(2)
H11 H 0.6233 0.4870 0.2970
C13 C 1.1035(3) 0.2208(3) 0.2917(2)
C14 C 1.0720(3) 0.1903(3) 0.4198(2)
H12 H 0.9855 0.2648 0.4776
C15 C 1.1669(4) 0.0507(4) 0.4635(3)
H13 H 1.1439 0.0320 0.5501
C16 C 1.2944(4) -0.0596(4) 0.3797(3)
H14 H 1.3606 -0.1527 0.4084
C17 C 1.3224(3) -0.0303(3) 0.2537(3)
C18 C 1.2303(3) 0.1059(3) 0.2071(2)
H15 H 1.2524 0.1214 0.1199
O6? O 0.8635(10) 0.5048(11) 0.1052(9)
H16? H 0.8094 0.5084 0.0551
H17? H 0.9947 0.3006 0.0721
loop_
_geom_bond_atom_site_label_1
_geom_bond_atom_site_label_2
_geom_bond_site_symmetry_1
_geom_bond_site_symmetry_2
N1 C1 1_555 1_555
N2 O2 1_555 1_555
N3 O4 1_555 1_555
O1 H1 1_555 1_555
O3 N2 1_555 1_555
O5 N3 1_555 1_555
C1 H2 1_555 1_555
C2 C1 1_555 1_555
H3 C2 1_555 1_555
C3 C2 1_555 1_555
H4 C3 1_555 1_555
C4 N1 1_555 1_555
H5 C4 1_555 1_555
C5 N1 1_555 1_555
H6 C5 1_555 1_555
C6 O1 1_555 1_555
H7 C6 1_555 1_555
C7 C6 1_555 1_555
C8 C7 1_555 1_555
H8 C8 1_555 1_555
C9 C8 1_555 1_555
H9 C9 1_555 1_555
C10 C9 1_555 1_555
H10 C10 1_555 1_555
C11 N2 1_555 1_555
C12 C7 1_555 1_555
H11 C12 1_555 1_555
C13 C5 1_555 1_555
C14 C13 1_555 1_555
H12 C14 1_555 1_555
C15 C14 1_555 1_555
H13 C15 1_555 1_555
C16 C15 1_555 1_555
H14 C16 1_555 1_555
C17 N3 1_555 1_555
C18 C13 1_555 1_555
H15 C18 1_555 1_555
C3 C4 1_555 1_555
C5 C6 1_555 1_555
C10 C11 1_555 1_555
C11 C12 1_555 1_555
C16 C17 1_555 1_555
C17 C18 1_555 1_555

#END
