
#######################################################################
#
#                 Cambridge Crystallographic Data Centre
#                                CCDC 
#
#######################################################################
#
# If this CIF has been generated from an entry in the Cambridge 
# Structural Database, then it will include bibliographic, chemical, 
# crystal, experimental, refinement or atomic coordinate data resulting 
# from the CCDC's data processing and validation procedures.
#
#######################################################################

data_MUNZAY
_chemical_formula_moiety         'C35 H31 Cl1 N2 O5'
_chemical_name_systematic        
't-butyl (1-benzyl-3-(3-(4-chlorobenzyl)-2-oxo-2,3-dihydro-1-benzofuran-3-yl)-2-oxo-2,3-dihydro-1H-indol-3-yl)carbamate'
_symmetry_cell_setting           orthorhombic
_symmetry_space_group_name_H-M   'P 21 21 21'
_symmetry_Int_Tables_number      19
_space_group_name_Hall           'P 2ac 2ab'
loop_
_symmetry_equiv_pos_site_id
_symmetry_equiv_pos_as_xyz
1 x,y,z
2 1/2-x,-y,1/2+z
3 -x,1/2+y,1/2-z
4 1/2+x,1/2-y,-z
_cell_length_a                   7.1822(14)
_cell_length_b                   16.013(3)
_cell_length_c                   26.807(5)
_cell_angle_alpha                90
_cell_angle_beta                 90
_cell_angle_gamma                90
_cell_volume                     3083.03
_cell_formula_units_Z            4
loop_
_atom_site_label
_atom_site_type_symbol
_atom_site_fract_x
_atom_site_fract_y
_atom_site_fract_z
Cl1 Cl 0.59142(8) 0.74050(4) 0.065358(17)
O1 O -0.16908(16) 0.74993(8) 0.33575(4)
O2 O -0.02438(18) 1.00788(7) 0.37885(4)
O3 O -0.02228(19) 0.88758(7) 0.42426(4)
O4 O 0.02575(16) 0.71592(7) 0.23355(4)
O5 O -0.01567(17) 0.85355(7) 0.24385(4)
N1 N 0.02814(19) 0.69620(8) 0.39530(5)
N2 N 0.0981(2) 0.89417(8) 0.34572(5)
C1 C -0.0214(2) 0.74886(9) 0.35774(6)
C2 C 0.1485(2) 0.80615(9) 0.34597(5)
C3 C 0.2814(2) 0.78268(9) 0.38715(6)
C4 C 0.4510(2) 0.81547(9) 0.40043(6)
H1 H 0.5021 0.8615 0.3827
C5 C 0.5463(2) 0.78010(10) 0.44023(6)
H2 H 0.6633 0.8023 0.4500
C6 C 0.4716(2) 0.71245(10) 0.46581(6)
H3 H 0.5394 0.6886 0.4927
C7 C 0.3000(2) 0.67897(9) 0.45281(6)
H4 H 0.2492 0.6325 0.4701
C8 C 0.2064(2) 0.71598(9) 0.41372(6)
C9 C -0.1014(2) 0.64066(9) 0.41997(6)
H5 H -0.2259 0.6479 0.4047
H6 H -0.1110 0.6572 0.4555
C10 C -0.0491(2) 0.54976(9) 0.41738(6)
C11 C -0.0859(3) 0.49801(11) 0.45739(7)
H7 H -0.1399 0.5205 0.4868
C12 C -0.0444(3) 0.41346(11) 0.45498(8)
H8 H -0.0698 0.3784 0.4828
C13 C 0.0334(3) 0.38024(11) 0.41238(8)
H9 H 0.0598 0.3222 0.4106
C14 C 0.0729(3) 0.43152(11) 0.37231(8)
H10 H 0.1294 0.4091 0.3432
C15 C 0.0300(3) 0.51549(10) 0.37479(7)
H11 H 0.0550 0.5503 0.3469
C16 C 0.0115(2) 0.92665(9) 0.38675(6)
C17 C -0.1257(3) 1.05748(10) 0.41658(6)
C18 C -0.3212(3) 1.02348(12) 0.42148(9)
H12 H -0.3761 1.0170 0.3882
H13 H -0.3969 1.0623 0.4411
H14 H -0.3173 0.9691 0.4382
C19 C -0.1296(3) 1.14363(10) 0.39381(8)
H15 H -0.0018 1.1629 0.3881
H16 H -0.1931 1.1822 0.4165
H17 H -0.1964 1.1417 0.3620
C20 C -0.0209(4) 1.05847(13) 0.46502(8)
H18 H -0.0195 1.0021 0.4793
H19 H -0.0821 1.0968 0.4883
H20 H 0.1071 1.0771 0.4591
C21 C 0.2238(2) 0.78178(9) 0.29327(6)
C22 C 0.2647(2) 0.69005(9) 0.28885(6)
C23 C 0.4018(3) 0.64015(10) 0.30977(6)
H21 H 0.4878 0.6621 0.3333
C24 C 0.4094(3) 0.55690(10) 0.29523(7)
H22 H 0.5009 0.5214 0.3095
C25 C 0.2872(3) 0.52464(10) 0.26058(7)
H23 H 0.2954 0.4673 0.2517
C26 C 0.1524(3) 0.57437(11) 0.23843(7)
H24 H 0.0684 0.5530 0.2142
C27 C 0.1472(2) 0.65651(10) 0.25352(6)
C28 C 0.0644(2) 0.79129(10) 0.25528(6)
C29 C 0.3913(2) 0.83586(10) 0.27609(6)
H25 H 0.3570 0.8956 0.2781
H26 H 0.4979 0.8263 0.2988
C30 C 0.4489(2) 0.81529(9) 0.22319(6)
C31 C 0.5823(2) 0.75416(11) 0.21382(6)
H27 H 0.6436 0.7280 0.2410
C32 C 0.6273(3) 0.73077(12) 0.16547(7)
H28 H 0.7160 0.6879 0.1595
C33 C 0.5412(3) 0.77078(11) 0.12628(6)
C34 C 0.4128(3) 0.83393(11) 0.13420(6)
H29 H 0.3573 0.8622 0.1068
C35 C 0.3669(2) 0.85504(10) 0.18249(6)
H30 H 0.2774 0.8977 0.1882
loop_
_geom_bond_atom_site_label_1
_geom_bond_atom_site_label_2
_geom_bond_site_symmetry_1
_geom_bond_site_symmetry_2
Cl1 C33 1_555 1_555
O1 C1 1_555 1_555
O2 C16 1_555 1_555
O3 C16 1_555 1_555
O4 C27 1_555 1_555
O5 C28 1_555 1_555
N1 C1 1_555 1_555
N2 C2 1_555 1_555
C1 C2 1_555 1_555
C2 C3 1_555 1_555
C3 C4 1_555 1_555
C4 H1 1_555 1_555
C5 C4 1_555 1_555
H2 C5 1_555 1_555
C6 C5 1_555 1_555
H3 C6 1_555 1_555
C7 C6 1_555 1_555
H4 C7 1_555 1_555
C8 N1 1_555 1_555
C9 N1 1_555 1_555
H5 C9 1_555 1_555
H6 C9 1_555 1_555
C10 C9 1_555 1_555
C11 C10 1_555 1_555
H7 C11 1_555 1_555
C12 C11 1_555 1_555
H8 C12 1_555 1_555
C13 C12 1_555 1_555
H9 C13 1_555 1_555
C14 C13 1_555 1_555
H10 C14 1_555 1_555
C15 C10 1_555 1_555
H11 C15 1_555 1_555
C16 N2 1_555 1_555
C17 O2 1_555 1_555
C18 C17 1_555 1_555
H12 C18 1_555 1_555
H13 C18 1_555 1_555
H14 C18 1_555 1_555
C19 C17 1_555 1_555
H15 C19 1_555 1_555
H16 C19 1_555 1_555
H17 C19 1_555 1_555
C20 C17 1_555 1_555
H18 C20 1_555 1_555
H19 C20 1_555 1_555
H20 C20 1_555 1_555
C21 C2 1_555 1_555
C22 C21 1_555 1_555
C23 C22 1_555 1_555
H21 C23 1_555 1_555
C24 C23 1_555 1_555
H22 C24 1_555 1_555
C25 C24 1_555 1_555
H23 C25 1_555 1_555
C26 C25 1_555 1_555
H24 C26 1_555 1_555
C27 C22 1_555 1_555
C28 O4 1_555 1_555
C29 C21 1_555 1_555
H25 C29 1_555 1_555
H26 C29 1_555 1_555
C30 C29 1_555 1_555
C31 C30 1_555 1_555
H27 C31 1_555 1_555
C32 C31 1_555 1_555
H28 C32 1_555 1_555
C33 C32 1_555 1_555
C34 C33 1_555 1_555
H29 C34 1_555 1_555
C35 C30 1_555 1_555
H30 C35 1_555 1_555
C3 C8 1_555 1_555
C7 C8 1_555 1_555
C14 C15 1_555 1_555
C21 C28 1_555 1_555
C26 C27 1_555 1_555
C34 C35 1_555 1_555

#END
