
#######################################################################
#
#                 Cambridge Crystallographic Data Centre
#                                CCDC 
#
#######################################################################
#
# If this CIF has been generated from an entry in the Cambridge 
# Structural Database, then it will include bibliographic, chemical, 
# crystal, experimental, refinement or atomic coordinate data resulting 
# from the CCDC's data processing and validation procedures.
#
#######################################################################

data_MUPRUM
_chemical_name_common            
(E)-2,2-difluoro-6-(4-(methylthio)styryl)-4-phenyl-2H-1,3,2-dioxaborinin-1-ium-2-uide
_chemical_formula_moiety         'C18 H15 B1 F2 O2 S1'
_chemical_name_systematic        
difluoro-(1-phenyl-5-(4-(methylthio)phenyl)-3-oxopenta-1,4-dien-1-olato)-boron
_symmetry_cell_setting           monoclinic
_symmetry_space_group_name_H-M   'P 21/c'
_symmetry_Int_Tables_number      14
_space_group_name_Hall           '-P 2ybc'
loop_
_symmetry_equiv_pos_site_id
_symmetry_equiv_pos_as_xyz
1 x,y,z
2 -x,1/2+y,1/2-z
3 -x,-y,-z
4 x,1/2-y,1/2+z
_cell_length_a                   8.0580(2)
_cell_length_b                   11.8497(3)
_cell_length_c                   17.4330(5)
_cell_angle_alpha                90
_cell_angle_beta                 104.565(1)
_cell_angle_gamma                90
_cell_volume                     1611.09
_exptl_crystal_colour            red
_exptl_crystal_description       prism
_chemical_melting_point          '262-265 deg.C'
_cell_formula_units_Z            4
_exptl_crystal_recrystallization_method 'ethyl acetate'
loop_
_atom_site_label
_atom_site_type_symbol
_atom_site_fract_x
_atom_site_fract_y
_atom_site_fract_z
C1 C 0.3476(2) -0.09628(16) 0.85035(11)
C2 C 0.3670(2) -0.06575(16) 0.77183(11)
C3 C 0.4136(3) -0.14839(18) 0.72419(12)
H1 H 0.4306 -0.2223 0.7425
C4 C 0.4346(3) -0.1216(2) 0.65034(13)
H2 H 0.4661 -0.1772 0.6191
C5 C 0.4089(3) -0.0127(2) 0.62277(13)
H3 H 0.4227 0.005 0.5728
C6 C 0.3631(3) 0.0704(2) 0.66873(14)
H4 H 0.3461 0.1439 0.6498
C7 C 0.3421(3) 0.04424(18) 0.74327(13)
H5 H 0.3113 0.1004 0.7743
C8 C 0.3049(2) -0.02299(16) 0.90361(11)
H6 H 0.2899 0.0532 0.891
C9 C 0.2840(2) -0.06106(15) 0.97543(11)
C10 C 0.2331(2) 0.01180(16) 1.03147(12)
H7 H 0.2081 0.0869 1.0179
C11 C 0.2207(2) -0.02458(16) 1.10228(11)
H8 H 0.247 -0.1002 1.1133
C12 C 0.1713(2) 0.03880(15) 1.16440(11)
C13 C 0.1134(2) 0.15032(16) 1.15544(12)
H9 H 0.1042 0.1872 1.1075
C14 C 0.0700(2) 0.20607(16) 1.21657(12)
H10 H 0.0306 0.28 1.2092
C15 C 0.0837(2) 0.15369(15) 1.28966(11)
C16 C 0.1394(2) 0.04220(16) 1.29903(12)
H11 H 0.1482 0.0052 1.3469
C17 C 0.1814(2) -0.01337(16) 1.23682(11)
H12 H 0.2176 -0.088 1.2436
C18 C 0.0428(3) 0.1379(2) 1.44368(14)
H13 H -0.0257 0.0727 1.4243
H14 H 0.0001 0.1735 1.4843
H15 H 0.1596 0.1152 1.4652
O1 O 0.3723(2) -0.20272(12) 0.86824(8)
O2 O 0.3079(2) -0.16678(11) 0.99537(9)
F1 F 0.2684(2) -0.34044(12) 0.93642(8)
F2 F 0.53701(19) -0.27648(14) 0.98487(8)
S1 S 0.03224(8) 0.23481(5) 1.36425(3)
B1 B 0.3727(4) -0.2493(2) 0.94687(14)
loop_
_geom_bond_atom_site_label_1
_geom_bond_atom_site_label_2
_geom_bond_site_symmetry_1
_geom_bond_site_symmetry_2
C1 C2 1_555 1_555
C2 C3 1_555 1_555
C3 H1 1_555 1_555
C4 C3 1_555 1_555
H2 C4 1_555 1_555
C5 C4 1_555 1_555
H3 C5 1_555 1_555
C6 C5 1_555 1_555
H4 C6 1_555 1_555
C7 C2 1_555 1_555
H5 C7 1_555 1_555
C8 C1 1_555 1_555
H6 C8 1_555 1_555
C9 C8 1_555 1_555
C10 C9 1_555 1_555
H7 C10 1_555 1_555
C11 C10 1_555 1_555
H8 C11 1_555 1_555
C12 C11 1_555 1_555
C13 C12 1_555 1_555
H9 C13 1_555 1_555
C14 C13 1_555 1_555
H10 C14 1_555 1_555
C15 C14 1_555 1_555
C16 C15 1_555 1_555
H11 C16 1_555 1_555
C17 C12 1_555 1_555
H12 C17 1_555 1_555
C18 H13 1_555 1_555
H14 C18 1_555 1_555
H15 C18 1_555 1_555
O1 C1 1_555 1_555
O2 C9 1_555 1_555
F1 B1 1_555 1_555
F2 B1 1_555 1_555
S1 C15 1_555 1_555
B1 O1 1_555 1_555
C6 C7 1_555 1_555
C16 C17 1_555 1_555
C18 S1 1_555 1_555
O2 B1 1_555 1_555

#END
