
#######################################################################
#
#                 Cambridge Crystallographic Data Centre
#                                CCDC 
#
#######################################################################
#
# If this CIF has been generated from an entry in the Cambridge 
# Structural Database, then it will include bibliographic, chemical, 
# crystal, experimental, refinement or atomic coordinate data resulting 
# from the CCDC's data processing and validation procedures.
#
#######################################################################

data_MUPSIB
_chemical_name_common            
(E)-2,2-difluoro-4-isobutyl-6-(2-(pyren-1-yl)vinyl)-2H-1,3,2-dioxaborinin-1-ium-2-uide
_chemical_formula_moiety         'C25 H21 B1 F2 O2'
_chemical_name_systematic        
difluoro-(2-methyl-8-(pyren-1-yl)-6-oxoocta-4,7-dien-4-olato)-boron
_symmetry_cell_setting           monoclinic
_symmetry_space_group_name_H-M   'P 21/c'
_symmetry_Int_Tables_number      14
_space_group_name_Hall           '-P 2ybc'
loop_
_symmetry_equiv_pos_site_id
_symmetry_equiv_pos_as_xyz
1 x,y,z
2 -x,1/2+y,1/2-z
3 -x,-y,-z
4 x,1/2-y,1/2+z
_cell_length_a                   11.5387(4)
_cell_length_b                   9.8453(4)
_cell_length_c                   19.8519(9)
_cell_angle_alpha                90
_cell_angle_beta                 117.760(1)
_cell_angle_gamma                90
_cell_volume                     1995.65
_exptl_crystal_colour            red
_exptl_crystal_description       prism
_chemical_melting_point          '423-425 K'
_cell_formula_units_Z            4
_exptl_crystal_recrystallization_method 
'Re-crystallisation from solvent: ethylacetate'
loop_
_atom_site_label
_atom_site_type_symbol
_atom_site_fract_x
_atom_site_fract_y
_atom_site_fract_z
C1 C -0.1023(4) -0.1274(3) -1.11826(19)
H1 H -0.1871 -0.0833 -1.1443
H2 H -0.0381 -0.057 -1.092
C2 C -0.1051(3) -0.2196(3) -1.06020(17)
C3 C -0.2108(3) -0.2995(3) -1.07318(17)
H3 H -0.2871 -0.2924 -1.1192
C4 C -0.2057(3) -0.3903(2) -1.01896(17)
C5 C -0.3142(3) -0.4803(3) -1.03448(17)
H4 H -0.387 -0.4765 -1.0823
C6 C -0.3156(3) -0.5679(3) -0.98430(17)
H5 H -0.2422 -0.5685 -0.9367
C7 C -0.4189(3) -0.6632(2) -0.99537(16)
C8 C -0.5247(3) -0.6830(3) -1.06784(18)
H6 H -0.5286 -0.6318 -1.1082
C9 C -0.6230(3) -0.7752(3) -1.08175(18)
H7 H -0.6915 -0.7846 -1.1308
C10 C -0.6208(3) -0.8543(3) -1.02322(17)
C11 C -0.7197(3) -0.9529(3) -1.0358(2)
H8 H -0.7882 -0.9647 -1.0847
C12 C -0.7160(3) -1.0290(3) -0.9786(2)
H9 H -0.7817 -1.0926 -0.9888
C13 C -0.6138(3) -1.0143(3) -0.90281(19)
C14 C -0.6075(3) -1.0921(3) -0.8421(2)
H10 H -0.672 -1.1565 -0.8511
C15 C -0.5078(4) -1.0748(4) -0.7698(2)
H11 H -0.5059 -1.1268 -0.7302
C16 C -0.4100(3) -0.9808(3) -0.7551(2)
H12 H -0.3431 -0.9702 -0.7057
C17 C -0.4104(3) -0.9019(3) -0.81309(17)
C18 C -0.3105(3) -0.8046(3) -0.80006(18)
H13 H -0.2415 -0.7943 -0.7512
C19 C -0.3138(3) -0.7270(3) -0.85728(17)
H14 H -0.2479 -0.6633 -0.8463
C20 C -0.4158(3) -0.7397(2) -0.93446(16)
C21 C -0.5169(3) -0.8366(2) -0.94844(17)
C22 C -0.5144(3) -0.9168(2) -0.88850(17)
C23 C -0.0734(8) -0.1852(4) -1.1741(3)
H15 H 0.0217 -0.1809 -1.1424
C24 C -0.0764(7) -0.0819(4) -1.2330(3)
H16 H -0.0329 -0.1197 -1.2598
H17 H -0.0325 -0.0002 -1.2075
H18 H -0.1656 -0.0615 -1.2685
C25 C -0.0742(5) -0.3193(4) -1.1940(3)
H19 H -0.0464 -0.3753 -1.1495
H20 H -0.0155 -0.3313 -1.2154
H21 H -0.1612 -0.3447 -1.2308
B1 B 0.0101(4) -0.3047(3) -0.9301(2)
O1 O -0.0001(2) -0.2221(2) -0.99559(13)
O2 O -0.1033(2) -0.3976(2) -0.95352(12)
F1 F 0.0122(2) -0.21786(18) -0.87600(11)
F2 F 0.12105(18) -0.37821(19) -0.90302(12)
loop_
_geom_bond_atom_site_label_1
_geom_bond_atom_site_label_2
_geom_bond_site_symmetry_1
_geom_bond_site_symmetry_2
C1 H1 1_555 1_555
H2 C1 1_555 1_555
C2 C1 1_555 1_555
C3 C2 1_555 1_555
H3 C3 1_555 1_555
C4 C3 1_555 1_555
C5 C4 1_555 1_555
H4 C5 1_555 1_555
C6 C5 1_555 1_555
H5 C6 1_555 1_555
C7 C6 1_555 1_555
C8 C7 1_555 1_555
H6 C8 1_555 1_555
C9 C8 1_555 1_555
H7 C9 1_555 1_555
C10 C9 1_555 1_555
C11 C10 1_555 1_555
H8 C11 1_555 1_555
C12 C11 1_555 1_555
H9 C12 1_555 1_555
C13 C12 1_555 1_555
C14 C13 1_555 1_555
H10 C14 1_555 1_555
C15 C14 1_555 1_555
H11 C15 1_555 1_555
C16 C15 1_555 1_555
H12 C16 1_555 1_555
C17 C16 1_555 1_555
C18 C17 1_555 1_555
H13 C18 1_555 1_555
C19 C18 1_555 1_555
H14 C19 1_555 1_555
C20 C7 1_555 1_555
C21 C10 1_555 1_555
C22 C13 1_555 1_555
C23 C1 1_555 1_555
H15 C23 1_555 1_555
C24 C23 1_555 1_555
H16 C24 1_555 1_555
H17 C24 1_555 1_555
H18 C24 1_555 1_555
C25 C23 1_555 1_555
H19 C25 1_555 1_555
H20 C25 1_555 1_555
H21 C25 1_555 1_555
B1 O1 1_555 1_555
O1 C2 1_555 1_555
O2 C4 1_555 1_555
F1 B1 1_555 1_555
F2 B1 1_555 1_555
C17 C22 1_555 1_555
C19 C20 1_555 1_555
C20 C21 1_555 1_555
C21 C22 1_555 1_555
B1 O2 1_555 1_555

#END
