
#######################################################################
#
#                 Cambridge Crystallographic Data Centre
#                                CCDC 
#
#######################################################################
#
# If this CIF has been generated from an entry in the Cambridge 
# Structural Database, then it will include bibliographic, chemical, 
# crystal, experimental, refinement or atomic coordinate data resulting 
# from the CCDC's data processing and validation procedures.
#
#######################################################################

data_MUPSOH
_chemical_name_common            
'(E)-2,2-difluoro-6-(2-(pyren-1-yl)vinyl)-4-(trifluoromethyl)-2H-1,3,2-dioxaborinin-1-ium-2-uide dichloromethane solvate'
_chemical_formula_moiety         'C22 H12 B1 F5 O2,0.18(C1 H2 Cl2)'
_chemical_name_systematic        
'difluoro-(1,1,1-trifluoro-6-(pyren-1-yl)-4-oxohexa-2,5-dien-2-olato)-boron dichloromethane solvate'
_symmetry_cell_setting           monoclinic
_symmetry_space_group_name_H-M   'C 2/c'
_symmetry_Int_Tables_number      15
_space_group_name_Hall           '-C 2yn'
loop_
_symmetry_equiv_pos_site_id
_symmetry_equiv_pos_as_xyz
1 x,y,z
2 -x,y,1/2-z
3 1/2+x,1/2+y,z
4 1/2-x,1/2+y,1/2-z
5 -x,-y,-z
6 x,-y,1/2+z
7 1/2-x,1/2-y,-z
8 1/2+x,1/2-y,1/2+z
_cell_length_a                   21.523(1)
_cell_length_b                   13.3264(9)
_cell_length_c                   14.604(1)
_cell_angle_alpha                90
_cell_angle_beta                 95.233(7)
_cell_angle_gamma                90
_cell_volume                     4171.32
_exptl_crystal_colour            red
_exptl_crystal_description       plate
_chemical_melting_point          '496-498 K'
_cell_formula_units_Z            8
_exptl_crystal_recrystallization_method 
'Re-crystallisation from solvent: dichloromethane'
loop_
_atom_site_label
_atom_site_type_symbol
_atom_site_fract_x
_atom_site_fract_y
_atom_site_fract_z
C23 C 0.0346(18) 0.176(2) 0.251(2)
Cl1 Cl -0.0115(13) 0.1157(19) 0.1593(15)
C23A C -0.0346(18) 0.176(2) 0.249(2)
Cl1A Cl 0.0115(13) 0.1157(19) 0.3407(15)
C1 C 0.3582(4) 0.4466(7) 0.3754(6)
C2 C 0.2963(3) 0.4178(5) 0.3298(4)
C3 C 0.2541(2) 0.4888(4) 0.2992(3)
H1 H 0.2636 0.5567 0.3047
C4 C 0.1958(2) 0.4568(4) 0.2594(3)
C5 C 0.1473(2) 0.5263(3) 0.2291(3)
H2 H 0.1546 0.5946 0.2379
C6 C 0.0918(2) 0.4968(3) 0.1887(2)
H3 H 0.0856 0.4278 0.1837
C7 C 0.0408(2) 0.5590(3) 0.1523(2)
C8 C 0.0472(2) 0.6643(3) 0.1537(3)
H4 H 0.0843 0.6926 0.1794
C9 C 0.0003(2) 0.7254(3) 0.1182(3)
H5 H 0.006 0.7946 0.1203
C10 C -0.0568(2) 0.6859(3) 0.0783(3)
C11 C -0.1051(2) 0.7485(4) 0.0376(3)
H6 H -0.0992 0.8176 0.037
C12 C -0.1590(2) 0.7097(4) -0.0001(3)
H7 H -0.1897 0.753 -0.0257
C13 C -0.1710(2) 0.6043(3) -0.0024(3)
C14 C -0.2255(2) 0.5637(4) -0.0402(3)
H8 H -0.2572 0.6058 -0.0649
C15 C -0.2344(3) 0.4613(5) -0.0424(3)
H9 H -0.2713 0.4349 -0.0704
C16 C -0.1898(3) 0.3993(4) -0.0044(3)
H10 H -0.1973 0.3306 -0.0048
C17 C -0.1326(2) 0.4351(4) 0.0357(3)
C18 C -0.0841(2) 0.3734(4) 0.0744(3)
H11 H -0.09 0.3043 0.0737
C19 C -0.0292(2) 0.4106(3) 0.1125(3)
H12 H 0.0012 0.3666 0.1379
C20 C -0.0167(2) 0.5158(3) 0.1147(3)
C21 C -0.0652(2) 0.5805(3) 0.0767(3)
C22 C -0.1230(2) 0.5405(3) 0.0368(3)
B1 B 0.2315(4) 0.2813(5) 0.2766(5)
O1 O 0.2878(2) 0.3224(3) 0.3244(3)
O2 O 0.18472(15) 0.3614(2) 0.2489(2)
F1 F 0.24668(17) 0.2363(2) 0.1975(2)
F2 F 0.20452(19) 0.2176(3) 0.3334(3)
F3 F 0.4031(2) 0.4229(4) 0.3215(4)
F4 F 0.3740(2) 0.3956(4) 0.4510(3)
F5 F 0.3652(2) 0.5413(4) 0.3946(4)
loop_
_geom_bond_atom_site_label_1
_geom_bond_atom_site_label_2
_geom_bond_site_symmetry_1
_geom_bond_site_symmetry_2
C1 C2 1_555 1_555
C2 C3 1_555 1_555
C3 H1 1_555 1_555
C4 C3 1_555 1_555
C5 C4 1_555 1_555
H2 C5 1_555 1_555
C6 C5 1_555 1_555
H3 C6 1_555 1_555
C7 C6 1_555 1_555
C8 C7 1_555 1_555
H4 C8 1_555 1_555
C9 C8 1_555 1_555
H5 C9 1_555 1_555
C10 C9 1_555 1_555
C11 C10 1_555 1_555
H6 C11 1_555 1_555
C12 C11 1_555 1_555
H7 C12 1_555 1_555
C13 C12 1_555 1_555
C14 C13 1_555 1_555
H8 C14 1_555 1_555
C15 C14 1_555 1_555
H9 C15 1_555 1_555
C16 C15 1_555 1_555
H10 C16 1_555 1_555
C17 C16 1_555 1_555
C18 C17 1_555 1_555
H11 C18 1_555 1_555
C19 C18 1_555 1_555
H12 C19 1_555 1_555
C20 C7 1_555 1_555
C21 C10 1_555 1_555
C22 C13 1_555 1_555
B1 O1 1_555 1_555
O1 C2 1_555 1_555
O2 C4 1_555 1_555
F1 B1 1_555 1_555
F2 B1 1_555 1_555
F3 C1 1_555 1_555
F4 C1 1_555 1_555
F5 C1 1_555 1_555
C23 Cl1 1_555 1_555
Cl1 C23A 1_555 1_555
C23A C23 1_555 1_555
Cl1A C23 1_555 1_555
C17 C22 1_555 1_555
C19 C20 1_555 1_555
C20 C21 1_555 1_555
C21 C22 1_555 1_555
B1 O2 1_555 1_555
C23A Cl1A 1_555 1_555

#END
