
#######################################################################
#
#                 Cambridge Crystallographic Data Centre
#                                CCDC 
#
#######################################################################
#
# If this CIF has been generated from an entry in the Cambridge 
# Structural Database, then it will include bibliographic, chemical, 
# crystal, experimental, refinement or atomic coordinate data resulting 
# from the CCDC's data processing and validation procedures.
#
#######################################################################

data_MUPSIZ
_chemical_formula_moiety         'C22 H27 N1 O2 S1'
_chemical_name_systematic        
N-Methyl-(4-hydroxy-3-isopropyl-6-phenylhexa-1,5-dienyl)(phenyl)sulfoximine
_symmetry_cell_setting           orthorhombic
_symmetry_space_group_name_H-M   'P 21 21 21'
_symmetry_Int_Tables_number      19
_space_group_name_Hall           'P 2ac 2ab'
loop_
_symmetry_equiv_pos_site_id
_symmetry_equiv_pos_as_xyz
1 x,y,z
2 1/2-x,-y,1/2+z
3 1/2+x,1/2-y,-z
4 -x,1/2+y,1/2-z
_cell_length_a                   8.717(2)
_cell_length_b                   11.944(3)
_cell_length_c                   19.869(7)
_cell_angle_alpha                90
_cell_angle_beta                 90
_cell_angle_gamma                90
_cell_volume                     2068.68
_exptl_crystal_colour            colorless
_exptl_crystal_description       rod
_cell_formula_units_Z            4
loop_
_atom_site_label
_atom_site_type_symbol
_atom_site_fract_x
_atom_site_fract_y
_atom_site_fract_z
S1 S -0.0529(1) 0.72925(7) 0.63744(4)
O1 O 0.0038(3) 0.7360(2) 0.7056(1)
O2 O 0.5316(3) 0.8330(2) 0.5812(1)
N1 N -0.1619(3) 0.8182(2) 0.6094(2)
C1 C 0.1029(4) 0.7090(3) 0.5815(1)
C2 C 0.2514(4) 0.7215(3) 0.5937(1)
C3 C 0.3343(4) 0.7544(2) 0.6562(1)
C4 C 0.4405(4) 0.8544(2) 0.6396(1)
C5 C 0.3506(4) 0.9619(2) 0.6320(2)
C6 C 0.3754(4) 1.0404(3) 0.5870(2)
C7 C 0.4266(4) 0.6526(3) 0.6848(2)
C8 C 0.3214(6) 0.5567(4) 0.7009(2)
C9 C 0.5198(6) 0.6849(3) 0.7463(2)
C10 C 0.2996(4) 1.1491(3) 0.5835(2)
C11 C 0.3366(5) 1.2244(3) 0.5336(2)
C12 C 0.2674(7) 1.3293(3) 0.5302(2)
C13 C 0.1611(7) 1.3602(3) 0.5768(2)
C14 C 0.1227(6) 1.2872(3) 0.6265(2)
C15 C 0.1908(5) 1.1832(3) 0.6302(2)
C16 C -0.1599(4) 0.6040(3) 0.6271(1)
C17 C -0.1498(5) 0.5262(3) 0.6792(2)
C18 C -0.2327(6) 0.4273(3) 0.6728(2)
C19 C -0.3191(5) 0.4072(3) 0.6165(2)
C20 C -0.3248(5) 0.4853(3) 0.5653(2)
C21 C -0.2443(4) 0.5837(3) 0.5703(2)
C22 C -0.0993(5) 0.9346(3) 0.6055(3)
H1 H 0.5011 0.8597 0.6747
H2 H 0.4788 1.0194 0.5573
H3 H -0.2387 0.3672 0.7100
H4 H -0.0881 0.5466 0.7227
H5 H 0.2576 0.7848 0.6954
H6 H 0.2734 0.9695 0.6689
H7 H 0.3034 0.7146 0.5542
H8 H 0.4677 0.6916 0.7745
H9 H -0.2326 0.6407 0.5424
H10 H -0.3962 0.3366 0.6107
H11 H 0.0749 0.7045 0.5407
H12 H 0.5653 0.6122 0.7729
H13 H -0.3884 0.4784 0.5281
H14 H 0.2778 0.5365 0.6625
H15 H 0.3462 0.5000 0.7256
H16 H 0.2692 0.5616 0.7375
H17 H -0.0527 0.9550 0.6545
H18 H -0.1439 0.9563 0.5625
H19 H 0.4118 1.2029 0.4997
H20 H 0.2967 1.3824 0.4954
H21 H 0.1036 1.4302 0.5730
H22 H 0.0497 1.3090 0.6617
H23 H 0.1597 1.1319 0.6658
H24 H 0.4980 0.6288 0.6500
H25 H -0.0071 0.8992 0.5862
H26 H 0.6072 0.8031 0.6125
H27 H 0.5914 0.7451 0.7410
loop_
_geom_bond_atom_site_label_1
_geom_bond_atom_site_label_2
_geom_bond_site_symmetry_1
_geom_bond_site_symmetry_2
S1 O1 1_555 1_555
O2 C4 1_555 1_555
N1 S1 1_555 1_555
C1 S1 1_555 1_555
C2 C1 1_555 1_555
C3 C2 1_555 1_555
C4 C3 1_555 1_555
C5 C4 1_555 1_555
C6 C5 1_555 1_555
C7 C3 1_555 1_555
C8 C7 1_555 1_555
C9 C7 1_555 1_555
C10 C6 1_555 1_555
C11 C10 1_555 1_555
C12 C11 1_555 1_555
C13 C12 1_555 1_555
C14 C13 1_555 1_555
C15 C10 1_555 1_555
C16 S1 1_555 1_555
C17 C16 1_555 1_555
C18 C17 1_555 1_555
C19 C18 1_555 1_555
C20 C19 1_555 1_555
C21 C16 1_555 1_555
C22 N1 1_555 1_555
H1 C4 1_555 1_555
H2 C6 1_555 1_555
H3 C18 1_555 1_555
H4 C17 1_555 1_555
H5 C3 1_555 1_555
H6 C5 1_555 1_555
H7 C2 1_555 1_555
H8 C9 1_555 1_555
H9 C21 1_555 1_555
H10 C19 1_555 1_555
H11 C1 1_555 1_555
H12 C9 1_555 1_555
H13 C20 1_555 1_555
H14 C8 1_555 1_555
H15 C8 1_555 1_555
H16 C8 1_555 1_555
H17 C22 1_555 1_555
H18 C22 1_555 1_555
H19 C11 1_555 1_555
H20 C12 1_555 1_555
H21 C13 1_555 1_555
H22 C14 1_555 1_555
H23 C15 1_555 1_555
H24 C7 1_555 1_555
H25 C22 1_555 1_555
H26 O2 1_555 1_555
H27 C9 1_555 1_555
C14 C15 1_555 1_555
C20 C21 1_555 1_555

#END
