
#######################################################################
#
#                 Cambridge Crystallographic Data Centre
#                                CCDC 
#
#######################################################################
#
# If this CIF has been generated from an entry in the Cambridge 
# Structural Database, then it will include bibliographic, chemical, 
# crystal, experimental, refinement or atomic coordinate data resulting 
# from the CCDC's data processing and validation procedures.
#
#######################################################################

data_MUPTEX
_chemical_formula_moiety         'C42 H28 N6'
_chemical_name_systematic        
(S)-N,N'-bis(2,2'-Bipyridin-6-ylmethylene)-1,1'-binaphthalene-2,2'-diamine
_symmetry_cell_setting           monoclinic
_symmetry_space_group_name_H-M   'P 21'
_symmetry_Int_Tables_number      4
_space_group_name_Hall           'P 2yb'
loop_
_symmetry_equiv_pos_site_id
_symmetry_equiv_pos_as_xyz
1 x,y,z
2 -x,1/2+y,-z
_cell_length_a                   13.1621(8)
_cell_length_b                   6.7084(4)
_cell_length_c                   17.6449(12)
_cell_angle_alpha                90
_cell_angle_beta                 100.559(3)
_cell_angle_gamma                90
_cell_volume                     1531.6
_exptl_crystal_colour            colorless
_exptl_crystal_description       plate
_cell_formula_units_Z            2
loop_
_atom_site_label
_atom_site_type_symbol
_atom_site_fract_x
_atom_site_fract_y
_atom_site_fract_z
N1 N 0.7193(2) 0.8913(6) 0.32137(19)
N2 N 0.6935(3) 0.4459(6) 0.3206(2)
N3 N 0.7432(2) 0.9184(6) 0.52548(19)
N4 N 0.8403(3) 0.9015(6) 0.7301(2)
N5 N 0.7716(2) 0.4135(6) 0.52428(19)
N6 N 0.7748(3) 0.4209(7) 0.7294(2)
C1 C 0.6321(3) 0.7398(6) 0.2026(2)
C2 C 0.5419(3) 0.7236(7) 0.1434(2)
C3 C 0.5299(3) 0.5664(7) 0.0882(2)
C4 C 0.4438(3) 0.5548(7) 0.0307(2)
C5 C 0.3664(3) 0.7024(7) 0.0244(2)
C6 C 0.3744(3) 0.8542(7) 0.0773(2)
C7 C 0.4611(3) 0.8654(7) 0.1389(2)
C8 C 0.4689(3) 1.0164(7) 0.1952(3)
C9 C 0.5520(3) 1.0242(7) 0.2542(2)
C10 C 0.6335(3) 0.8834(7) 0.2589(2)
C11 C 0.7203(3) 0.5986(7) 0.2021(2)
C12 C 0.7791(3) 0.6123(7) 0.1406(2)
C13 C 0.7635(3) 0.7703(7) 0.0855(2)
C14 C 0.8175(3) 0.7755(8) 0.0257(2)
C15 C 0.8869(3) 0.6235(8) 0.0163(3)
C16 C 0.9053(3) 0.4726(8) 0.0690(3)
C17 C 0.8533(3) 0.4649(7) 0.1332(2)
C18 C 0.8743(3) 0.3129(7) 0.1897(3)
C19 C 0.8240(3) 0.3092(7) 0.2506(3)
C20 C 0.7473(3) 0.4525(7) 0.2570(2)
C21 C 0.6982(3) 0.9093(8) 0.3884(2)
C22 C 0.7783(3) 0.9082(7) 0.4584(2)
C23 C 0.8821(3) 0.8889(8) 0.4543(3)
C24 C 0.9532(3) 0.8774(9) 0.5229(3)
C25 C 0.9181(3) 0.8867(8) 0.5920(2)
C26 C 0.8125(3) 0.9077(7) 0.5915(2)
C27 C 0.7715(3) 0.9208(7) 0.6644(2)
C28 C 0.6673(3) 0.9544(8) 0.6631(2)
C29 C 0.6318(3) 0.9724(8) 0.7316(3)
C30 C 0.7009(4) 0.9531(8) 0.7995(3)
C31 C 0.8033(3) 0.9170(8) 0.7962(2)
C32 C 0.7488(3) 0.4255(8) 0.3872(2)
C33 C 0.7034(3) 0.4257(8) 0.4575(2)
C34 C 0.5969(3) 0.4444(8) 0.4541(3)
C35 C 0.5604(3) 0.4536(9) 0.5225(3)
C36 C 0.6293(3) 0.4420(8) 0.5915(3)
C37 C 0.7346(3) 0.4207(7) 0.5903(2)
C38 C 0.8115(3) 0.4066(7) 0.6639(2)
C39 C 0.9152(3) 0.3751(8) 0.6620(2)
C40 C 0.9850(3) 0.3551(8) 0.7308(3)
C41 C 0.9486(4) 0.3683(8) 0.7990(3)
C42 C 0.8440(3) 0.4032(8) 0.7950(3)
H1 H 0.5811 0.4664 0.0922
H2 H 0.4368 0.4504 -0.0049
H3 H 0.3093 0.6972 -0.0159
H4 H 0.3220 0.9509 0.0736
H5 H 0.4152 1.1114 0.1927
H6 H 0.5569 1.1237 0.2924
H7 H 0.7169 0.8723 0.0921
H8 H 0.8063 0.8811 -0.0099
H9 H 0.9217 0.6262 -0.0252
H10 H 0.9525 0.3715 0.0616
H11 H 0.9247 0.2160 0.1859
H12 H 0.8396 0.2078 0.2881
H13 H 0.6281 0.9243 0.3933
H14 H 0.9027 0.8840 0.4062
H15 H 1.0243 0.8645 0.5225
H16 H 0.9647 0.8780 0.6392
H17 H 0.6220 0.9647 0.6159
H18 H 0.5618 0.9973 0.7320
H19 H 0.6800 0.9655 0.8477
H20 H 0.8508 0.9001 0.8430
H21 H 0.8205 0.4063 0.3921
H22 H 0.5524 0.4479 0.4059
H23 H 0.4893 0.4739 0.5218
H24 H 0.6052 0.4411 0.6384
H25 H 0.9369 0.3631 0.6142
H26 H 1.0558 0.3350 0.7307
H27 H 0.9924 0.3550 0.8471
H28 H 0.8183 0.4152 0.8415
loop_
_geom_bond_atom_site_label_1
_geom_bond_atom_site_label_2
_geom_bond_site_symmetry_1
_geom_bond_site_symmetry_2
N1 C10 1_555 1_555
N2 C20 1_555 1_555
N3 C22 1_555 1_555
N4 C27 1_555 1_555
N5 C33 1_555 1_555
N6 C38 1_555 1_555
C1 C2 1_555 1_555
C2 C3 1_555 1_555
C3 C4 1_555 1_555
C4 C5 1_555 1_555
C5 C6 1_555 1_555
C6 C7 1_555 1_555
C7 C2 1_555 1_555
C8 C7 1_555 1_555
C9 C8 1_555 1_555
C10 C1 1_555 1_555
C11 C1 1_555 1_555
C12 C11 1_555 1_555
C13 C12 1_555 1_555
C14 C13 1_555 1_555
C15 C14 1_555 1_555
C16 C15 1_555 1_555
C17 C12 1_555 1_555
C18 C17 1_555 1_555
C19 C18 1_555 1_555
C20 C11 1_555 1_555
C21 N1 1_555 1_555
C22 C21 1_555 1_555
C23 C22 1_555 1_555
C24 C23 1_555 1_555
C25 C24 1_555 1_555
C26 N3 1_555 1_555
C27 C26 1_555 1_555
C28 C27 1_555 1_555
C29 C28 1_555 1_555
C30 C29 1_555 1_555
C31 N4 1_555 1_555
C32 N2 1_555 1_555
C33 C32 1_555 1_555
C34 C33 1_555 1_555
C35 C34 1_555 1_555
C36 C35 1_555 1_555
C37 N5 1_555 1_555
C38 C37 1_555 1_555
C39 C38 1_555 1_555
C40 C39 1_555 1_555
C41 C40 1_555 1_555
C42 N6 1_555 1_555
H1 C3 1_555 1_555
H2 C4 1_555 1_555
H3 C5 1_555 1_555
H4 C6 1_555 1_555
H5 C8 1_555 1_555
H6 C9 1_555 1_555
H7 C13 1_555 1_555
H8 C14 1_555 1_555
H9 C15 1_555 1_555
H10 C16 1_555 1_555
H11 C18 1_555 1_555
H12 C19 1_555 1_555
H13 C21 1_555 1_555
H14 C23 1_555 1_555
H15 C24 1_555 1_555
H16 C25 1_555 1_555
H17 C28 1_555 1_555
H18 C29 1_555 1_555
H19 C30 1_555 1_555
H20 C31 1_555 1_555
H21 C32 1_555 1_555
H22 C34 1_555 1_555
H23 C35 1_555 1_555
H24 C36 1_555 1_555
H25 C39 1_555 1_555
H26 C40 1_555 1_555
H27 C41 1_555 1_555
H28 C42 1_555 1_555
C9 C10 1_555 1_555
C16 C17 1_555 1_555
C19 C20 1_555 1_555
C25 C26 1_555 1_555
C30 C31 1_555 1_555
C36 C37 1_555 1_555
C41 C42 1_555 1_555

#END
