
#######################################################################
#
#                 Cambridge Crystallographic Data Centre
#                                CCDC 
#
#######################################################################
#
# If this CIF has been generated from an entry in the Cambridge 
# Structural Database, then it will include bibliographic, chemical, 
# crystal, experimental, refinement or atomic coordinate data resulting 
# from the CCDC's data processing and validation procedures.
#
#######################################################################

data_MUPTUM
_chemical_formula_moiety         'C18 H20 N2'
_chemical_name_systematic        
(3R*,4aR*,8aS*)-3-phenyloctahydro-1H-naphthalene-2,2-dicarbonitrile
_symmetry_cell_setting           orthorhombic
_symmetry_space_group_name_H-M   'P b c a'
_symmetry_Int_Tables_number      61
_space_group_name_Hall           '-P 2ac 2ab'
loop_
_symmetry_equiv_pos_site_id
_symmetry_equiv_pos_as_xyz
1 x,y,z
2 1/2-x,-y,1/2+z
3 1/2+x,1/2-y,-z
4 -x,1/2+y,1/2-z
5 -x,-y,-z
6 1/2+x,y,1/2-z
7 1/2-x,1/2+y,z
8 x,1/2-y,1/2+z
_cell_length_a                   33.247(1)
_cell_length_b                   14.962(1)
_cell_length_c                   12.309(2)
_cell_angle_alpha                90
_cell_angle_beta                 90
_cell_angle_gamma                90
_cell_volume                     6123.01
_exptl_crystal_colour            colorless
_exptl_crystal_description       prism
_chemical_melting_point          '111-112 deg.C'
_cell_formula_units_Z            16
loop_
_atom_site_label
_atom_site_type_symbol
_atom_site_fract_x
_atom_site_fract_y
_atom_site_fract_z
N1 N 0.84125(7) 1.2758(2) 1.2193(3)
N2 N 0.96285(6) 1.2386(1) 1.1376(2)
C1 C 0.86358(7) 1.2303(2) 1.1780(3)
C2 C 0.93196(7) 1.2083(1) 1.1281(2)
C3 C 0.89114(6) 1.1697(1) 1.1184(2)
C4 C 0.87658(7) 1.1667(2) 0.9985(2)
C5 C 0.89554(8) 1.0939(2) 0.9294(2)
C6 C 0.93853(9) 1.1157(2) 0.8914(2)
C7 C 0.9556(1) 1.0422(2) 0.8198(3)
C8 C 0.95475(9) 0.9532(2) 0.8780(3)
C9 C 0.91236(8) 0.9306(2) 0.9153(2)
C10 C 0.89342(7) 1.0034(2) 0.9846(2)
C11 C 0.91108(7) 1.0082(1) 1.0981(2)
C12 C 0.88940(7) 1.0748(2) 1.1711(2)
C13 C 0.90315(9) 1.0745(2) 1.2872(2)
C14 C 0.8754(1) 1.0837(2) 1.3693(3)
C15 C 0.8880(2) 1.0846(2) 1.4766(3)
C16 C 0.9271(2) 1.0762(3) 1.5037(3)
C17 C 0.9554(1) 1.0671(2) 1.4227(3)
C18 C 0.9433(1) 1.0664(2) 1.3145(3)
H1 H 0.8483 1.1576 0.9987
H2 H 0.8825 1.2227 0.9660
H3 H 0.8796 1.0895 0.8656
H4 H 0.9381 1.1700 0.8515
H5 H 0.9553 1.1225 0.9534
H6 H 0.9400 1.0380 0.7554
H7 H 0.9826 1.0565 0.8015
H8 H 0.9640 0.9079 0.8300
H9 H 0.9720 0.9560 0.9395
H10 H 0.8960 0.9216 0.8530
H11 H 0.9133 0.8770 0.9566
H12 H 0.8658 0.9889 0.9924
H13 H 0.9094 0.9506 1.1304
H14 H 0.9385 1.0254 1.0926
H15 H 0.8619 1.0577 1.1718
H16 H 0.8476 1.0895 1.3524
H17 H 0.8686 1.0912 1.5326
H18 H 0.9351 1.0766 1.5778
H19 H 0.9830 1.0613 1.4407
H20 H 0.9629 1.0602 1.2588
N3 N 0.82816(7) 0.8940(2) 1.2592(2)
N4 N 0.81854(6) 0.8145(1) 0.9358(2)
C19 C 0.82179(7) 0.8348(2) 1.2049(2)
C20 C 0.81554(6) 0.7885(1) 1.0219(2)
C21 C 0.81182(6) 0.7572(1) 1.1349(2)
C22 C 0.76758(7) 0.7305(2) 1.1630(2)
C23 C 0.75402(7) 0.6427(2) 1.1126(2)
C24 C 0.74478(7) 0.6472(2) 0.9911(3)
C25 C 0.73036(9) 0.5576(2) 0.9464(3)
C26 C 0.76126(9) 0.4859(2) 0.9679(3)
C27 C 0.76996(9) 0.4793(2) 1.0892(3)
C28 C 0.78382(7) 0.5680(2) 1.1391(2)
C29 C 0.82612(7) 0.5937(1) 1.1038(2)
C30 C 0.84136(6) 0.6783(1) 1.1581(2)
C31 C 0.88482(6) 0.7006(1) 1.1316(2)
C32 C 0.90219(7) 0.6775(2) 1.0339(2)
C33 C 0.94235(8) 0.6960(2) 1.0132(2)
C34 C 0.96522(7) 0.7385(2) 1.0893(3)
C35 C 0.94887(8) 0.7615(2) 1.1865(3)
C36 C 0.90875(7) 0.7427(2) 1.2081(2)
H21 H 0.7653 0.7255 1.2397
H22 H 0.7502 0.7765 1.1379
H23 H 0.7295 0.6272 1.1475
H24 H 0.7244 0.6906 0.9794
H25 H 0.7685 0.6643 0.9535
H26 H 0.7058 0.5417 0.9807
H27 H 0.7262 0.5628 0.8703
H28 H 0.7513 0.4301 0.9427
H29 H 0.7854 0.5002 0.9304
H30 H 0.7461 0.4606 1.1252
H31 H 0.7905 0.4360 1.1000
H32 H 0.7841 0.5607 1.2158
H33 H 0.8438 0.5461 1.1215
H34 H 0.8261 0.6027 1.0274
H35 H 0.8403 0.6678 1.2342
H36 H 0.8864 0.6486 0.9799
H37 H 0.9540 0.6789 0.9458
H38 H 0.9926 0.7520 1.0743
H39 H 0.9649 0.7905 1.2398
H40 H 0.8976 0.7589 1.2764
loop_
_geom_bond_atom_site_label_1
_geom_bond_atom_site_label_2
_geom_bond_site_symmetry_1
_geom_bond_site_symmetry_2
N1 C1 1_555 1_555
N2 C2 1_555 1_555
N3 C19 1_555 1_555
N4 C20 1_555 1_555
C1 C3 1_555 1_555
C2 C3 1_555 1_555
C3 C4 1_555 1_555
C4 C5 1_555 1_555
C5 C6 1_555 1_555
C6 C7 1_555 1_555
C7 C8 1_555 1_555
C8 C9 1_555 1_555
C9 C10 1_555 1_555
C10 C5 1_555 1_555
C11 C10 1_555 1_555
C12 C3 1_555 1_555
C13 C12 1_555 1_555
C14 C13 1_555 1_555
C15 C14 1_555 1_555
C16 C15 1_555 1_555
C17 C16 1_555 1_555
C18 C13 1_555 1_555
C19 C21 1_555 1_555
C20 C21 1_555 1_555
C21 C22 1_555 1_555
C22 C23 1_555 1_555
C23 C24 1_555 1_555
C24 C25 1_555 1_555
C25 C26 1_555 1_555
C26 C27 1_555 1_555
C27 C28 1_555 1_555
C28 C23 1_555 1_555
C29 C28 1_555 1_555
C30 C21 1_555 1_555
C31 C30 1_555 1_555
C32 C31 1_555 1_555
C33 C32 1_555 1_555
C34 C33 1_555 1_555
C35 C34 1_555 1_555
C36 C31 1_555 1_555
H1 C4 1_555 1_555
H2 C4 1_555 1_555
H3 C5 1_555 1_555
H4 C6 1_555 1_555
H5 C6 1_555 1_555
H6 C7 1_555 1_555
H7 C7 1_555 1_555
H8 C8 1_555 1_555
H9 C8 1_555 1_555
H10 C9 1_555 1_555
H11 C9 1_555 1_555
H12 C10 1_555 1_555
H13 C11 1_555 1_555
H14 C11 1_555 1_555
H15 C12 1_555 1_555
H16 C14 1_555 1_555
H17 C15 1_555 1_555
H18 C16 1_555 1_555
H19 C17 1_555 1_555
H20 C18 1_555 1_555
H21 C22 1_555 1_555
H22 C22 1_555 1_555
H23 C23 1_555 1_555
H24 C24 1_555 1_555
H25 C24 1_555 1_555
H26 C25 1_555 1_555
H27 C25 1_555 1_555
H28 C26 1_555 1_555
H29 C26 1_555 1_555
H30 C27 1_555 1_555
H31 C27 1_555 1_555
H32 C28 1_555 1_555
H33 C29 1_555 1_555
H34 C29 1_555 1_555
H35 C30 1_555 1_555
H36 C32 1_555 1_555
H37 C33 1_555 1_555
H38 C34 1_555 1_555
H39 C35 1_555 1_555
H40 C36 1_555 1_555
C11 C12 1_555 1_555
C17 C18 1_555 1_555
C29 C30 1_555 1_555
C35 C36 1_555 1_555

#END
