
#######################################################################
#
#                 Cambridge Crystallographic Data Centre
#                                CCDC 
#
#######################################################################
#
# If this CIF has been generated from an entry in the Cambridge 
# Structural Database, then it will include bibliographic, chemical, 
# crystal, experimental, refinement or atomic coordinate data resulting 
# from the CCDC's data processing and validation procedures.
#
#######################################################################

data_MUQLEP
_chemical_formula_moiety         'C33 H52 N2 O5 S1 Si1,H2 O1'
_chemical_name_systematic        
'3-Cyano-7-triethylsilyl-3-deoxyepothilone A monohydrate'
_chemical_properties_biological  'cytotoxic agent'
_symmetry_cell_setting           monoclinic
_symmetry_space_group_name_H-M   'P 21'
_symmetry_Int_Tables_number      4
_space_group_name_Hall           'P 2yb'
loop_
_symmetry_equiv_pos_site_id
_symmetry_equiv_pos_as_xyz
1 x,y,z
2 -x,1/2+y,-z
_cell_length_a                   10.1816(3)
_cell_length_b                   8.8874(3)
_cell_length_c                   20.5177(8)
_cell_angle_alpha                90
_cell_angle_beta                 101.836(2)
_cell_angle_gamma                90
_cell_volume                     1817.13
_exptl_crystal_colour            colorless
_exptl_crystal_description       plates
_chemical_melting_point          352-371K
_cell_formula_units_Z            2
_exptl_crystal_recrystallization_method 'ethyl acetate/n-heptane'
loop_
_atom_site_label
_atom_site_type_symbol
_atom_site_fract_x
_atom_site_fract_y
_atom_site_fract_z
S1 S 1.1659(2) 0.2307(20) 1.2410(1)
Si1 Si 0.3028(2) 0.2537(20) 0.5719(1)
O1 O 0.7933(4) 0.0849(20) 0.9421(2)
O2 O 0.4473(4) 0.3015(20) 0.6204(2)
O3 O 0.8376(3) 0.2823(20) 0.8346(2)
C1 C 0.9660(5) 0.2247(20) 0.8731(3)
O4 O 0.2767(5) 0.3227(20) 0.7466(2)
C2 C 1.1551(6) 0.0069(20) 1.0249(3)
C3 C 0.5056(5) 0.2440(20) 0.6847(3)
N1 N 0.9304(7) 0.2006(20) 1.1705(4)
C4 C 0.9209(6) 0.0159(20) 0.9492(3)
C5 C 0.9574(6) 0.1301(20) 1.0605(3)
C6 C 0.9565(5) 0.2873(20) 0.8043(3)
C7 C 0.3907(7) 0.3220(20) 0.7759(4)
C8 C 1.0106(6) 0.0617(20) 1.0146(3)
C9 C 0.5311(6) 0.1592(20) 0.8636(4)
C10 C 0.9730(6) 0.0606(20) 0.8869(3)
C11 C 0.9543(5) 0.1936(20) 0.7446(3)
C12 C 0.6509(6) 0.1908(20) 0.6856(3)
C13 C 1.0224(8) 0.1690(20) 1.1286(4)
C14 C 0.8914(5) 0.2774(20) 0.6784(3)
C15 C 0.5631(7) 0.0990(20) 0.9362(4)
C16 C 0.7430(6) 0.3211(20) 0.6750(3)
C17 C 0.4263(5) 0.2842(20) 0.8516(3)
O5 O 0.6938(6) -0.1288(20) 0.9629(4)
C18 C 0.5025(6) 0.3635(20) 0.7402(3)
C19 C 1.1568(8) 0.1846(20) 1.1603(4)
C20 C 0.6868(7) 0.0010(20) 0.9493(3)
C21 C 0.9956(8) 0.2333(20) 1.2304(5)
C22 C 0.2985(7) 0.2345(20) 0.8753(4)
C23 C 0.6502(7) 0.0627(20) 0.6368(4)
C24 C 0.4846(7) 0.4276(20) 0.8885(4)
C25 C 0.4893(9) 0.0227(20) 0.8185(4)
C26 C 0.9215(12) 0.2645(20) 1.2869(4)
C27 C 0.4790(7) 0.5266(20) 0.7149(4)
N2 N 0.4589(11) -0.0801(20) 0.7862(5)
C28 C 0.2180(10) 0.0954(20) 0.6023(5)
C29 C 0.3435(9) 0.2210(20) 0.4884(4)
C30 C 0.1737(10) 0.4069(20) 0.5707(5)
C31 C 0.2144(15) 0.1966(30) 0.4368(6)
C32 C 0.2090(16) 0.5421(30) 0.5399(8)
C33 C 0.2756(18) -0.0512(32) 0.5929(11)
H1 H 1.0191 0.2928 0.9155
H2 H 1.2099 0.0510 1.0723
H3 H 1.1568 -0.1083 1.0226
H4 H 1.2001 0.0586 0.9855
H5 H 0.4465 0.1567 0.6962
H6 H 0.9078 -0.0993 0.9479
H7 H 0.8531 0.1657 1.0457
H8 H 1.0018 0.3990 0.7964
H9 H 0.6217 0.2081 0.8515
H10 H 0.9134 0.0088 0.8446
H11 H 1.0759 0.0314 0.8937
H12 H 1.0563 0.1689 0.7433
H13 H 0.8966 0.0992 0.7486
H14 H 0.6901 0.1448 0.7333
H15 H 0.9483 0.3837 0.6750
H16 H 0.8966 0.2094 0.6372
H17 H 0.5798 0.1981 0.9700
H18 H 0.4793 0.0384 0.9447
H19 H 0.7046 0.3743 0.6267
H20 H 0.7405 0.4098 0.7131
H21 H 0.5966 0.3686 0.7754
H22 H 1.2408 0.1745 1.1370
H23 H 0.3245 0.2141 0.9277
H24 H 0.2560 0.1434 0.8477
H25 H 0.7514 0.0316 0.6380
H26 H 0.5921 -0.0247 0.6501
H27 H 0.6050 0.1060 0.5871
H28 H 0.5100 0.4098 0.9409
H29 H 0.5724 0.4661 0.8706
H30 H 0.4098 0.5205 0.8785
H31 H 0.8151 0.2650 1.2678
H32 H 0.9495 0.1840 1.3250
H33 H 0.9495 0.3786 1.3081
H34 H 0.4777 0.6057 0.7562
H35 H 0.5589 0.5635 0.6903
H36 H 0.3840 0.5382 0.6798
H37 H 0.2217 0.1170 0.6551
H38 H 0.1148 0.0990 0.5762
H39 H 0.3948 0.3245 0.4743
H40 H 0.4067 0.1293 0.4900
H41 H 0.0775 0.3732 0.5430
H42 H 0.1652 0.4380 0.6211
H43 H 0.2360 0.1838 0.3886
H44 H 0.1615 0.1050 0.4512
H45 H 0.1496 0.3001 0.4354
H46 H 0.2229 -0.1334 0.6129
H47 H 0.2744 -0.0651 0.5414
H48 H 0.3813 -0.0471 0.6204
H49 H 0.1338 0.6316 0.5399
H50 H 0.3050 0.5870 0.5674
H51 H 0.2173 0.5222 0.4892
O6 O 0.3318(6) 0.7856(20) 0.9090(4)
H52 H 0.2417 0.7653 0.8813
H53 H 0.3845 0.8396 0.8771
loop_
_geom_bond_atom_site_label_1
_geom_bond_atom_site_label_2
_geom_bond_site_symmetry_1
_geom_bond_site_symmetry_2
S1 C19 1_555 1_555
Si1 O2 1_555 1_555
O1 C4 1_555 1_555
O2 C3 1_555 1_555
O3 C1 1_555 1_555
C1 C6 1_555 1_555
O4 C7 1_555 1_555
C2 C8 1_555 1_555
C3 C12 1_555 1_555
N1 C13 1_555 1_555
C4 C8 1_555 1_555
C5 C8 1_555 1_555
C6 O3 1_555 1_555
C7 C17 1_555 1_555
C9 C15 1_555 1_555
C10 C1 1_555 1_555
C11 C6 1_555 1_555
C12 C16 1_555 1_555
C13 C5 1_555 1_555
C14 C11 1_555 1_555
C15 C20 1_555 1_555
C16 C14 1_555 1_555
C17 C9 1_555 1_555
O5 C20 1_555 1_555
C18 C3 1_555 1_555
C19 C13 1_555 1_555
C20 O1 1_555 1_555
C21 S1 1_555 1_555
C22 C17 1_555 1_555
C23 C12 1_555 1_555
C24 C17 1_555 1_555
O6 H52 1_555 1_555
C25 C9 1_555 1_555
C26 C21 1_555 1_555
C27 C18 1_555 1_555
N2 C25 1_555 1_555
C28 Si1 1_555 1_555
C29 Si1 1_555 1_555
C30 Si1 1_555 1_555
C31 C29 1_555 1_555
C32 C30 1_555 1_555
C33 C28 1_555 1_555
H1 C1 1_555 1_555
H2 C2 1_555 1_555
H3 C2 1_555 1_555
H4 C2 1_555 1_555
H5 C3 1_555 1_555
H6 C4 1_555 1_555
H7 C5 1_555 1_555
H8 C6 1_555 1_555
H9 C9 1_555 1_555
H10 C10 1_555 1_555
H11 C10 1_555 1_555
H12 C11 1_555 1_555
H13 C11 1_555 1_555
H14 C12 1_555 1_555
H15 C14 1_555 1_555
H16 C14 1_555 1_555
H17 C15 1_555 1_555
H18 C15 1_555 1_555
H19 C16 1_555 1_555
H20 C16 1_555 1_555
H21 C18 1_555 1_555
H22 C19 1_555 1_555
H23 C22 1_555 1_555
H24 C22 1_555 1_555
H25 C23 1_555 1_555
H26 C23 1_555 1_555
H27 C23 1_555 1_555
H28 C24 1_555 1_555
H29 C24 1_555 1_555
H30 C24 1_555 1_555
H31 C26 1_555 1_555
H32 C26 1_555 1_555
H33 C26 1_555 1_555
H34 C27 1_555 1_555
H35 C27 1_555 1_555
H36 C27 1_555 1_555
H37 C28 1_555 1_555
H38 C28 1_555 1_555
H39 C29 1_555 1_555
H40 C29 1_555 1_555
H41 C30 1_555 1_555
H42 C30 1_555 1_555
H43 C31 1_555 1_555
H44 C31 1_555 1_555
H45 C31 1_555 1_555
H46 C33 1_555 1_555
H47 C33 1_555 1_555
H48 C33 1_555 1_555
H49 C32 1_555 1_555
H50 C32 1_555 1_555
H51 C32 1_555 1_555
H53 O6 1_555 1_555
N1 C21 1_555 1_555
C4 C10 1_555 1_555
C7 C18 1_555 1_555

#END
