
#######################################################################
#
#                 Cambridge Crystallographic Data Centre
#                                CCDC 
#
#######################################################################
#
# If this CIF has been generated from an entry in the Cambridge 
# Structural Database, then it will include bibliographic, chemical, 
# crystal, experimental, refinement or atomic coordinate data resulting 
# from the CCDC's data processing and validation procedures.
#
#######################################################################

data_MUQLIT
_chemical_formula_moiety         'C33 H52 N2 O5 S1 Si1'
_chemical_name_systematic        '3-Cyano-7-triethylsilyl-3-deoxyepothilone A'
_chemical_properties_biological  'cytotoxic agent'
_symmetry_cell_setting           monoclinic
_symmetry_space_group_name_H-M   'P 21'
_symmetry_Int_Tables_number      4
_space_group_name_Hall           'P 2yb'
loop_
_symmetry_equiv_pos_site_id
_symmetry_equiv_pos_as_xyz
1 x,y,z
2 -x,1/2+y,-z
_cell_length_a                   15.0598(7)
_cell_length_b                   6.6164(3)
_cell_length_c                   17.6048(8)
_cell_angle_alpha                90
_cell_angle_beta                 94.088(2)
_cell_angle_gamma                90
_cell_volume                     1749.71
_exptl_crystal_colour            colorless
_exptl_crystal_description       plates
_chemical_melting_point          384-393K
_cell_formula_units_Z            2
_exptl_crystal_recrystallization_method 'n-heptane/ethyl acetate'
loop_
_atom_site_label
_atom_site_type_symbol
_atom_site_fract_x
_atom_site_fract_y
_atom_site_fract_z
Si1 Si 0.4039(1) 0.7937(20) 0.1530(1)
S1 S -0.3817(2) -0.1016(20) 0.3961(2)
O1 O -0.0817(2) 0.5559(20) 0.2417(2)
O2 O 0.3151(3) 0.7502(20) 0.1976(3)
O3 O -0.1220(3) 0.7018(20) 0.3484(3)
C1 C -0.4523(3) 0.1078(20) 0.4140(3)
C2 C 0.0571(4) 0.7562(30) 0.4053(4)
C3 C 0.2721(4) 0.8633(20) 0.2564(4)
O4 O -0.1507(3) 0.6892(30) 0.0067(3)
C4 C 0.1864(4) 0.9628(30) 0.2205(4)
C5 C -0.3319(5) 0.2154(30) 0.3327(5)
O5 O 0.2472(3) 1.0028(20) 0.3999(3)
C6 C 0.2225(4) 0.8329(30) 0.3867(4)
C7 C -0.0646(4) 0.6374(20) 0.3100(4)
C8 C 0.0338(4) 0.6328(20) 0.3330(3)
C9 C -0.1762(4) 0.5244(20) 0.2132(4)
C10 C -0.0015(4) 0.7562(30) 0.0784(4)
C11 C 0.1548(4) 0.7355(30) 0.4412(4)
C12 C 0.1392(4) 0.8319(30) 0.1607(4)
C13 C -0.1728(4) 0.5032(30) 0.1270(4)
C14 C 0.0337(4) 0.9713(30) 0.3913(4)
C15 C 0.0426(4) 0.8924(30) 0.1370(4)
C16 C -0.2824(4) 0.3678(20) 0.2906(4)
C17 C 0.1637(5) 0.8502(30) 0.5168(4)
C18 C -0.2117(4) 0.3439(30) 0.2530(4)
C19 C 0.1735(4) 0.5099(20) 0.4564(4)
C20 C -0.0978(4) 0.8193(30) 0.0623(4)
C21 C -0.1754(4) 0.6981(30) 0.0856(4)
N1 N 0.0186(4) 1.1381(20) 0.3817(4)
C22 C 0.2576(4) 0.7210(30) 0.3212(4)
C23 C -0.3106(5) 0.0176(30) 0.3492(5)
N2 N -0.4077(5) 0.2717(30) 0.3611(4)
C24 C 0.3442(4) 0.6113(30) 0.3490(4)
C25 C -0.1632(5) 0.1457(30) 0.2416(5)
C26 C 0.2048(6) 1.1748(30) 0.1901(10)
C27 C 0.3183(10) 0.6353(40) 0.0198(10)
C28 C 0.3721(10) 0.8013(30) 0.0560(10)
C29 C 0.5453(10) 1.0975(40) 0.1495(10)
C30 C 0.4611(10) 1.0223(40) 0.1923(10)
C31 C -0.5175(10) 0.1332(30) 0.4306(10)
C32 C 0.4819(10) 0.5815(40) 0.1785(10)
C33 C 0.5589(20) 0.5400(60) 0.1234(20)
H1 H 0.0125 0.7148 0.4475
H2 H 0.3162 0.9793 0.2799
H3 H 0.1420 0.9910 0.2642
H4 H 0.0539 0.4778 0.3434
H5 H 0.0698 0.6924 0.2865
H6 H -0.2157 0.6575 0.2260
H7 H 0.0015 0.6003 0.1006
H8 H 0.0343 0.7598 0.0274
H9 H 0.1376 0.6782 0.1831
H10 H 0.1762 0.8328 0.1108
H11 H -0.2304 0.4099 0.1061
H12 H -0.1131 0.4196 0.1153
H13 H 0.0053 0.8935 0.1876
H14 H 0.0437 1.0451 0.1144
H15 H -0.3086 0.5206 0.2915
H16 H 0.2290 0.8441 0.5434
H17 H 0.1155 0.7938 0.5542
H18 H 0.1466 1.0124 0.5052
H19 H 0.2393 0.4884 0.4817
H20 H 0.1623 0.4246 0.4053
H21 H 0.1257 0.4589 0.4973
H22 H -0.0966 0.9678 0.0388
H23 H -0.2426 0.7553 0.0849
H24 H 0.2111 0.6069 0.3006
H25 H 0.3324 0.5142 0.3969
H26 H 0.3944 0.7257 0.3705
H27 H 0.3717 0.5275 0.3050
H28 H -0.2084 0.0365 0.2195
H29 H -0.1325 0.1016 0.2965
H30 H -0.1115 0.1752 0.2032
H31 H 0.1464 1.2444 0.1639
H32 H 0.2551 1.1662 0.1468
H33 H 0.2334 1.2712 0.2357
H34 H 0.4807 1.0029 0.2520
H35 H 0.4129 1.1517 0.1881
H36 H 0.5756 1.2321 0.1758
H37 H 0.5286 1.1257 0.0903
H38 H 0.5964 0.9769 0.1541
H39 H 0.4414 0.4470 0.1835
H40 H 0.5143 0.6167 0.2338
H41 H 0.5976 0.3961 0.1484
H42 H 0.6033 0.6502 0.1188
H43 H 0.5304 0.4805 0.0685
H44 H 0.3038 0.6735 -0.0406
H45 H 0.2552 0.6297 0.0461
H46 H 0.3531 0.5001 0.0258
H47 H 0.4316 0.8128 0.0255
H48 H 0.3338 0.9425 0.0458
H49 H -0.5330 0.2946 0.4351
H50 H -0.5260 0.0667 0.4871
H51 H -0.5675 0.0658 0.3909
H52 H -0.2504 -0.0514 0.3320
C34? C -0.3572(10) -0.2666(50) 0.4267(10)
C35? C 0.5939(20) 0.8385(50) 0.1769(10)
C36? C 0.5010(10) 0.8631(40) 0.2124(10)
C37? C 0.4245 0.5675 0.0960
C38? C 0.3217(20) 0.5200(60) 0.0365(20)
C39? C 0.4011 1.0373 0.0839
C40? C 0.3526 0.9951 0.0185
H53? H 0.6486 0.9016 0.2146
H54? H 0.5953 0.9230 0.1224
H55? H 0.6041 0.6851 0.1675
H56? H 0.4981 0.8072 0.2683
H57? H 0.4894 1.0452 0.2233
H58? H 0.4309 0.4352 0.1278
H59? H 0.4735 0.5898 0.0573
H60? H 0.3396 0.3897 0.0012
H61? H 0.3156 0.6505 -0.0012
H62? H 0.2730 0.4960 0.0693
H63? H 0.3512 1.1257 -0.0184
H64? H 0.2855 0.9565 0.0310
H65? H 0.3822 0.8693 -0.0095
H66? H 0.4682 1.0760 0.0714
H67? H 0.3715 1.1632 0.1119
H68? H -0.3120 -0.3477 0.3935
H69? H -0.4140 -0.3616 0.4367
H70? H -0.3225 -0.2353 0.4833
loop_
_geom_bond_atom_site_label_1
_geom_bond_atom_site_label_2
_geom_bond_site_symmetry_1
_geom_bond_site_symmetry_2
Si1 O2 1_555 1_555
S1 C1 1_555 1_555
O1 C7 1_555 1_555
O2 C3 1_555 1_555
O3 C7 1_555 1_555
C1 N2 1_555 1_555
C2 C8 1_555 1_555
C3 C4 1_555 1_555
O4 C20 1_555 1_555
C4 C12 1_555 1_555
C5 C16 1_555 1_555
O5 C6 1_555 1_555
C6 C11 1_555 1_555
C7 C8 1_555 1_555
C8 H4 1_555 1_555
C9 O1 1_555 1_555
C10 C15 1_555 1_555
C11 C2 1_555 1_555
C12 C15 1_555 1_555
C13 C9 1_555 1_555
C14 C2 1_555 1_555
C15 H13 1_555 1_555
C16 C18 1_555 1_555
C17 C11 1_555 1_555
C18 C9 1_555 1_555
C19 C11 1_555 1_555
C20 C10 1_555 1_555
C21 O4 1_555 1_555
N1 C14 1_555 1_555
C22 C3 1_555 1_555
C23 S1 1_555 1_555
N2 C5 1_555 1_555
C24 C22 1_555 1_555
C25 C18 1_555 1_555
C26 C4 1_555 1_555
C27 C28 1_555 1_555
C28 Si1 1_555 1_555
C29 C30 1_555 1_555
C30 Si1 1_555 1_555
C31 C1 1_555 1_555
C32 Si1 1_555 1_555
C33 C32 1_555 1_555
H1 C2 1_555 1_555
H2 C3 1_555 1_555
H3 C4 1_555 1_555
H5 C8 1_555 1_555
H6 C9 1_555 1_555
H7 C10 1_555 1_555
H8 C10 1_555 1_555
H9 C12 1_555 1_555
H10 C12 1_555 1_555
H11 C13 1_555 1_555
H12 C13 1_555 1_555
H14 C15 1_555 1_555
H15 C16 1_555 1_555
H16 C17 1_555 1_555
H17 C17 1_555 1_555
H18 C17 1_555 1_555
H19 C19 1_555 1_555
H20 C19 1_555 1_555
H21 C19 1_555 1_555
H22 C20 1_555 1_555
H23 C21 1_555 1_555
H24 C22 1_555 1_555
H25 C24 1_555 1_555
H26 C24 1_555 1_555
H27 C24 1_555 1_555
H28 C25 1_555 1_555
H29 C25 1_555 1_555
H30 C25 1_555 1_555
H31 C26 1_555 1_555
H32 C26 1_555 1_555
H33 C26 1_555 1_555
H34 C30 1_555 1_555
H35 C30 1_555 1_555
H36 C29 1_555 1_555
H37 C29 1_555 1_555
H38 C29 1_555 1_555
H39 C32 1_555 1_555
H40 C32 1_555 1_555
H41 C33 1_555 1_555
H42 C33 1_555 1_555
H43 C33 1_555 1_555
H44 C27 1_555 1_555
H45 C27 1_555 1_555
H46 C27 1_555 1_555
H47 C28 1_555 1_555
H48 C28 1_555 1_555
H49 C31 1_555 1_555
H50 C31 1_555 1_555
H51 C31 1_555 1_555
H52 C23 1_555 1_555
C5 C23 1_555 1_555
C6 C22 1_555 1_555
C13 C21 1_555 1_555
C20 C21 1_555 1_555

#END
