
#######################################################################
#
#                 Cambridge Crystallographic Data Centre
#                                CCDC 
#
#######################################################################
#
# If this CIF has been generated from an entry in the Cambridge 
# Structural Database, then it will include bibliographic, chemical, 
# crystal, experimental, refinement or atomic coordinate data resulting 
# from the CCDC's data processing and validation procedures.
#
#######################################################################

data_MUQPUL
_chemical_name_common            
2-(4-((E)-2-(5-((E)-2,4-bis(dibutylamino)styryl)thiophen-2-yl)vinyl)-3-cyano-5,5-dimethylfuran-2(5H)-ylidene)malononitrile
_chemical_formula_moiety         'C40 H51 N5 O1 S1'
_chemical_name_systematic        
(4-(2-(5-(2-(2,4-bis(dibutylamino)phenyl)vinyl)-2-thienyl)vinyl)-3-cyano-5,5-dimethylfuran-2(5H)-ylidene)malononitrile
_symmetry_cell_setting           triclinic
_symmetry_space_group_name_H-M   'P -1'
_symmetry_Int_Tables_number      2
_space_group_name_Hall           '-P 1'
loop_
_symmetry_equiv_pos_site_id
_symmetry_equiv_pos_as_xyz
1 x,y,z
2 -x,-y,-z
_cell_length_a                   10.387(2)
_cell_length_b                   10.780(2)
_cell_length_c                   17.168(4)
_cell_angle_alpha                90.321(4)
_cell_angle_beta                 95.987(4)
_cell_angle_gamma                93.823(4)
_cell_volume                     1907.44
_exptl_crystal_colour            blue
_exptl_crystal_description       Prism
_cell_formula_units_Z            2
_exptl_crystal_recrystallization_method hexane/chloroform
loop_
_atom_site_label
_atom_site_type_symbol
_atom_site_fract_x
_atom_site_fract_y
_atom_site_fract_z
S1 S 0.26106(4) 0.29951(4) 0.35311(3)
O1 O 0.58846(12) 0.85438(11) 0.46288(9)
N1 N 0.36670(19) -0.00016(17) 0.16069(11)
N2 N 0.2421(2) -0.44541(18) 0.16434(13)
N3 N 0.73841(18) 0.47135(17) 0.37778(14)
N4 N 0.99307(18) 0.70040(17) 0.41333(13)
N5 N 0.85739(18) 1.06431(18) 0.47746(16)
C1 C 0.11028(18) 0.21785(18) 0.34170(12)
C2 C 0.01776(19) 0.28761(19) 0.36891(13)
H1 H -0.0705 0.2582 0.3689
C3 C 0.06572(19) 0.40569(18) 0.39653(13)
H2 H 0.0130 0.4646 0.4164
C4 C 0.19731(18) 0.42865(17) 0.39218(12)
C5 C 0.27592(18) 0.53911(17) 0.41393(12)
H3 H 0.2354 0.6085 0.4323
C6 C 0.40655(18) 0.55028(17) 0.40964(12)
H4 H 0.4442 0.4788 0.3918
C7 C 0.46033(17) 0.78330(17) 0.45631(12)
C8 C 0.49301(18) 0.65671(17) 0.42878(11)
C9 C 0.62414(18) 0.65981(17) 0.42296(12)
C10 C 0.68100(18) 0.78197(17) 0.44404(12)
C11 C 0.80669(18) 0.83130(17) 0.44604(13)
C12 C 0.90893(19) 0.75772(18) 0.42803(13)
C13 C 0.83635(19) 0.95979(19) 0.46453(15)
C14 C 0.69083(19) 0.55727(18) 0.39816(13)
C15 C 0.41465(19) 0.78486(18) 0.53718(12)
H5 H 0.4756 0.7429 0.5739
H6 H 0.3283 0.7416 0.5354
H7 H 0.4104 0.8711 0.5546
C16 C 0.3729(2) 0.84955(19) 0.39633(14)
H8 H 0.3715 0.9370 0.4120
H9 H 0.2847 0.8099 0.3932
H10 H 0.4058 0.8446 0.3450
C17 C 0.0951(2) 0.09580(18) 0.30555(12)
H11 H 0.0151 0.0483 0.3075
C18 C 0.1885(2) 0.04584(18) 0.26921(12)
H12 H 0.2646 0.0987 0.2661
C19 C 0.1901(2) -0.07662(18) 0.23418(12)
C20 C 0.1079(2) -0.17659(19) 0.25329(13)
H13 H 0.0394 -0.1608 0.2838
C21 C 0.1209(2) -0.2972(2) 0.23009(14)
H14 H 0.0617 -0.3620 0.2443
C22 C 0.2215(2) -0.3248(2) 0.18549(13)
C23 C 0.3014(2) -0.2239(2) 0.16280(13)
H15 H 0.3683 -0.2397 0.1311
C24 C 0.2862(2) -0.1017(2) 0.18498(13)
C25 C 0.1483(2) -0.5486(2) 0.17543(14)
H16 H 0.1099 -0.5348 0.2249
H17 H 0.1943 -0.6261 0.1808
C26 C 0.0405(3) -0.5655(2) 0.10936(15)
H18 H 0.0787 -0.5803 0.0600
H19 H -0.0051 -0.4877 0.1036
C27 C -0.0571(3) -0.6719(3) 0.12179(17)
H20 H -0.0986 -0.6550 0.1697
H21 H -0.0109 -0.7489 0.1303
C28 C -0.1616(3) -0.6928(3) 0.0536(2)
H22 H -0.2056 -0.6161 0.0435
H23 H -0.2246 -0.7593 0.0664
H24 H -0.1220 -0.7167 0.0069
C29 C 0.2982(3) 0.0879(2) 0.10952(15)
H25 H 0.3578 0.1621 0.1037
H26 H 0.2241 0.1153 0.1356
C30 C 0.2477(3) 0.0385(3) 0.02884(16)
H27 H 0.3218 0.0165 0.0009
H28 H 0.1916 -0.0383 0.0340
C31 C 0.1714(4) 0.1308(4) -0.0190(2)
H29 H 0.1082 0.1645 0.0134
H30 H 0.2317 0.2009 -0.0319
C32 C 0.1006(4) 0.0795(6) -0.0925(2)
H31 H 0.1618 0.0431 -0.1244
H32 H 0.0584 0.1463 -0.1217
H33 H 0.0348 0.0152 -0.0803
C33 C 0.4955(2) -0.0262(3) 0.13949(16)
H34 H 0.5340 0.0482 0.1147
H35 H 0.4864 -0.0952 0.1006
C34 C 0.5867(3) -0.0610(3) 0.2105(2)
H36 H 0.6713 -0.0787 0.1927
H37 H 0.5502 -0.1384 0.2330
C35 C 0.6096(3) 0.0391(3) 0.27495(19)
H38 H 0.5255 0.0538 0.2945
H39 H 0.6668 0.0075 0.3191
C36 C 0.6685(4) 0.1590(3) 0.2498(2)
H40 H 0.7518 0.1457 0.2301
H41 H 0.6825 0.2172 0.2944
H42 H 0.6103 0.1937 0.2081
C37 C 0.3546(2) -0.4725(3) 0.12500(17)
H43 H 0.3593 -0.4169 0.0795
H44 H 0.3426 -0.5591 0.1047
C38 C 0.4831(4) -0.4571(13) 0.1770(3)
H45 H 0.4832 -0.3824 0.2108
H46 H 0.4916 -0.5301 0.2114
C39 C 0.5986(5) -0.4441(9) 0.1296(4)
H47 H 0.5866 -0.3750 0.0924
H48 H 0.6017 -0.5214 0.0985
C40 C 0.7274(5) -0.4195(7) 0.1800(4)
H49 H 0.7282 -0.3392 0.2072
H50 H 0.7986 -0.4178 0.1467
H51 H 0.7383 -0.4856 0.2186
H52? H 0.3761 -0.4035 0.0898
H53? H 0.3354 -0.5495 0.0930
C41? C 0.4691(8) -0.489(2) 0.1862(5)
H54? H 0.4877 -0.4109 0.2173
H55? H 0.4446 -0.5556 0.2224
C42? C 0.5916(10) -0.5212(10) 0.1517(8)
H56? H 0.5715 -0.5887 0.1121
H57? H 0.6561 -0.5492 0.1933
C43? C 0.6448(12) -0.4040(10) 0.1139(9)
H58? H 0.5790 -0.3758 0.0741
H59? H 0.7226 -0.4220 0.0893
H60? H 0.6670 -0.3389 0.1540
loop_
_geom_bond_atom_site_label_1
_geom_bond_atom_site_label_2
_geom_bond_site_symmetry_1
_geom_bond_site_symmetry_2
S1 C1 1_555 1_555
O1 C7 1_555 1_555
N1 C24 1_555 1_555
N2 C22 1_555 1_555
N3 C14 1_555 1_555
N4 C12 1_555 1_555
N5 C13 1_555 1_555
C1 C2 1_555 1_555
C2 H1 1_555 1_555
C3 C2 1_555 1_555
H2 C3 1_555 1_555
C4 S1 1_555 1_555
C5 C4 1_555 1_555
H3 C5 1_555 1_555
C6 C5 1_555 1_555
H4 C6 1_555 1_555
C7 C8 1_555 1_555
C8 C6 1_555 1_555
C9 C8 1_555 1_555
C10 O1 1_555 1_555
C11 C10 1_555 1_555
C12 C11 1_555 1_555
C13 C11 1_555 1_555
C14 C9 1_555 1_555
C15 C7 1_555 1_555
H5 C15 1_555 1_555
H6 C15 1_555 1_555
H7 C15 1_555 1_555
C16 C7 1_555 1_555
H8 C16 1_555 1_555
H9 C16 1_555 1_555
H10 C16 1_555 1_555
C17 C1 1_555 1_555
H11 C17 1_555 1_555
C18 C17 1_555 1_555
H12 C18 1_555 1_555
C19 C18 1_555 1_555
C20 C19 1_555 1_555
H13 C20 1_555 1_555
C21 C20 1_555 1_555
H14 C21 1_555 1_555
C22 C21 1_555 1_555
C23 C22 1_555 1_555
H15 C23 1_555 1_555
C24 C19 1_555 1_555
C25 N2 1_555 1_555
H16 C25 1_555 1_555
H17 C25 1_555 1_555
C26 C25 1_555 1_555
H18 C26 1_555 1_555
H19 C26 1_555 1_555
C27 C26 1_555 1_555
H20 C27 1_555 1_555
H21 C27 1_555 1_555
C28 C27 1_555 1_555
H22 C28 1_555 1_555
H23 C28 1_555 1_555
H24 C28 1_555 1_555
C29 N1 1_555 1_555
H25 C29 1_555 1_555
H26 C29 1_555 1_555
C30 C29 1_555 1_555
H27 C30 1_555 1_555
H28 C30 1_555 1_555
C31 C30 1_555 1_555
H29 C31 1_555 1_555
H30 C31 1_555 1_555
C32 C31 1_555 1_555
H31 C32 1_555 1_555
H32 C32 1_555 1_555
H33 C32 1_555 1_555
C33 N1 1_555 1_555
H34 C33 1_555 1_555
H35 C33 1_555 1_555
C34 C33 1_555 1_555
H36 C34 1_555 1_555
H37 C34 1_555 1_555
C35 C34 1_555 1_555
H38 C35 1_555 1_555
H39 C35 1_555 1_555
C36 C35 1_555 1_555
H40 C36 1_555 1_555
H41 C36 1_555 1_555
H42 C36 1_555 1_555
C37 N2 1_555 1_555
H43 C37 1_555 1_555
H44 C37 1_555 1_555
C38 C37 1_555 1_555
H45 C38 1_555 1_555
H46 C38 1_555 1_555
C39 C38 1_555 1_555
H47 C39 1_555 1_555
H48 C39 1_555 1_555
C40 C39 1_555 1_555
H49 C40 1_555 1_555
H50 C40 1_555 1_555
H51 C40 1_555 1_555
C3 C4 1_555 1_555
C9 C10 1_555 1_555
C23 C24 1_555 1_555

#END
