
#######################################################################
#
#                 Cambridge Crystallographic Data Centre
#                                CCDC 
#
#######################################################################
#
# If this CIF has been generated from an entry in the Cambridge 
# Structural Database, then it will include bibliographic, chemical, 
# crystal, experimental, refinement or atomic coordinate data resulting 
# from the CCDC's data processing and validation procedures.
#
#######################################################################

data_MUQRIB
_chemical_formula_moiety         'C15 H13 N1 O2'
_chemical_name_systematic        7-methoxy-5-methylphenanthridin-6(5H)-one
_symmetry_cell_setting           monoclinic
_symmetry_space_group_name_H-M   'P 21/c'
_symmetry_Int_Tables_number      14
_space_group_name_Hall           '-P 2ybc'
loop_
_symmetry_equiv_pos_site_id
_symmetry_equiv_pos_as_xyz
1 x,y,z
2 -x,1/2+y,1/2-z
3 -x,-y,-z
4 x,1/2-y,1/2+z
_cell_length_a                   8.2516(3)
_cell_length_b                   11.3765(3)
_cell_length_c                   12.4473(4)
_cell_angle_alpha                90
_cell_angle_beta                 103.2580(10)
_cell_angle_gamma                90
_cell_volume                     1137.34
_exptl_crystal_colour            colorless
_exptl_crystal_description       block
_cell_formula_units_Z            4
loop_
_atom_site_label
_atom_site_type_symbol
_atom_site_fract_x
_atom_site_fract_y
_atom_site_fract_z
O1 O 0.31712(13) 0.33028(11) 0.12980(11)
O2 O 0.30673(14) 0.49558(10) 0.26889(9)
N1 N 0.08139(13) 0.26239(10) 0.01936(9)
C1 C -0.09071(16) 0.26375(11) -0.02276(10)
C2 C -0.16540(19) 0.18623(13) -0.10677(12)
H1 H -0.0999 0.1331 -0.1348
C3 C -0.3349(2) 0.18783(15) -0.14831(13)
H2 H -0.3832 0.1369 -0.2051
C4 C -0.43297(19) 0.26446(15) -0.10621(14)
H3 H -0.5477 0.2649 -0.1339
C5 C -0.36166(18) 0.34026(14) -0.02335(13)
H4 H -0.4296 0.3910 0.0051
C6 C -0.18954(16) 0.34352(11) 0.01975(11)
C7 C -0.10969(17) 0.42542(11) 0.10648(10)
C8 C -0.2042(2) 0.50684(13) 0.15089(12)
H5 H -0.3193 0.5089 0.1253
C9 C -0.1283(2) 0.58276(14) 0.23111(13)
H6 H -0.1927 0.6365 0.2594
C10 C 0.0422(2) 0.58191(13) 0.27153(12)
H7 H 0.0913 0.6346 0.3265
C11 C 0.14008(19) 0.50275(12) 0.23044(11)
C12 C 0.06431(17) 0.42287(11) 0.14567(10)
C13 C 0.16620(17) 0.33800(12) 0.09980(11)
C14 C 0.18102(19) 0.17548(14) -0.02318(14)
H8 H 0.2962 0.1847 0.0132
H9 H 0.1677 0.1867 -0.1012
H10 H 0.1446 0.0979 -0.0095
C15 C 0.3853(2) 0.57457(17) 0.35375(15)
H11 H 0.5027 0.5591 0.3733
H12 H 0.3394 0.5639 0.4173
H13 H 0.3666 0.6540 0.3278
loop_
_geom_bond_atom_site_label_1
_geom_bond_atom_site_label_2
_geom_bond_site_symmetry_1
_geom_bond_site_symmetry_2
O1 C13 1_555 1_555
O2 C11 1_555 1_555
N1 C1 1_555 1_555
C1 C2 1_555 1_555
C2 H1 1_555 1_555
C3 C2 1_555 1_555
H2 C3 1_555 1_555
C4 C3 1_555 1_555
H3 C4 1_555 1_555
C5 C4 1_555 1_555
H4 C5 1_555 1_555
C6 C1 1_555 1_555
C7 C6 1_555 1_555
C8 C7 1_555 1_555
H5 C8 1_555 1_555
C9 C8 1_555 1_555
H6 C9 1_555 1_555
C10 C9 1_555 1_555
H7 C10 1_555 1_555
C11 C10 1_555 1_555
C12 C7 1_555 1_555
C13 N1 1_555 1_555
C14 N1 1_555 1_555
H8 C14 1_555 1_555
H9 C14 1_555 1_555
H10 C14 1_555 1_555
C15 O2 1_555 1_555
H11 C15 1_555 1_555
H12 C15 1_555 1_555
H13 C15 1_555 1_555
C5 C6 1_555 1_555
C11 C12 1_555 1_555
C12 C13 1_555 1_555

#END
