
#######################################################################
#
#                 Cambridge Crystallographic Data Centre
#                                CCDC 
#
#######################################################################
#
# If this CIF has been generated from an entry in the Cambridge 
# Structural Database, then it will include bibliographic, chemical, 
# crystal, experimental, refinement or atomic coordinate data resulting 
# from the CCDC's data processing and validation procedures.
#
#######################################################################

data_MUQWUQ
_chemical_formula_moiety         'C46 H44 O6 P2,C1 H2 Cl2,0.5(C1 H4 O1),H2 O1'
_chemical_name_systematic        
"(S)-5,5',6,6'-bis(2R,4R-Pentane-2,4-dioxy)-2,2'-bis(diphenylphosphine oxide)-1,1'-biphenyl dichloromethane methanol solvate monohydrate"
_symmetry_cell_setting           orthorhombic
_symmetry_space_group_name_H-M   'P 21 21 21'
_symmetry_Int_Tables_number      19
_space_group_name_Hall           'P 2ac 2ab'
loop_
_symmetry_equiv_pos_site_id
_symmetry_equiv_pos_as_xyz
1 x,y,z
2 1/2-x,-y,1/2+z
3 -x,1/2+y,1/2-z
4 1/2+x,1/2-y,-z
_cell_length_a                   13.9730(15)
_cell_length_b                   16.4623(17)
_cell_length_c                   22.216(2)
_cell_angle_alpha                90
_cell_angle_beta                 90
_cell_angle_gamma                90
_cell_volume                     5110.3
_exptl_crystal_colour            colorless
_exptl_crystal_description       plate
_cell_formula_units_Z            4
loop_
_atom_site_label
_atom_site_type_symbol
_atom_site_fract_x
_atom_site_fract_y
_atom_site_fract_z
P1 P 0.41754(4) 0.18989(3) 0.90920(2)
P2 P 0.19436(4) 0.36205(4) 0.88168(3)
O1 O 0.52205(15) 0.52574(9) 0.98547(8)
O2 O 0.43447(12) 0.49971(8) 0.86747(7)
O3 O 0.53587(9) 0.35002(8) 0.79052(6)
O4 O 0.45476(11) 0.32814(9) 0.66993(6)
O5 O 0.35065(10) 0.17733(8) 0.85791(6)
O6 O 0.23202(11) 0.34445(10) 0.94293(6)
C1 C 0.43911(14) 0.29453(11) 0.92925(8)
C2 C 0.47769(15) 0.30967(13) 0.98686(9)
H1 H 0.4866 0.2666 1.0133
C3 C 0.50250(17) 0.38711(13) 1.00471(10)
H2 H 0.5262 0.3964 1.0432
C4 C 0.49168(18) 0.45165(13) 0.96421(10)
C5 C 0.45138(17) 0.43799(12) 0.90918(10)
C6 C 0.42567(14) 0.35977(12) 0.89060(8)
C7 C 0.37946(15) 0.35098(12) 0.82859(8)
C8 C 0.28014(14) 0.34977(14) 0.82095(9)
C9 C 0.24339(17) 0.34050(14) 0.76303(10)
H3 H 0.1774 0.3393 0.7576
C10 C 0.30232(17) 0.33306(15) 0.71343(10)
H4 H 0.2766 0.3258 0.6752
C11 C 0.40024(17) 0.33669(12) 0.72175(9)
C12 C 0.43878(14) 0.34475(12) 0.77956(9)
C13 C 0.6378(3) 0.6326(2) 0.9742(2)
H5 H 0.6086 0.6585 1.0083
H6 H 0.6612 0.6733 0.9469
H7 H 0.6900 0.5993 0.9875
C14 C 0.5634(2) 0.57956(17) 0.94200(14)
H8 H 0.5967 0.5467 0.9117
C15 C 0.4881(3) 0.62720(17) 0.91130(16)
H9 H 0.5154 0.6527 0.8759
H10 H 0.4666 0.6700 0.9380
C16 C 0.3997(2) 0.57490(14) 0.89186(13)
H11 H 0.3592 0.5640 0.9269
C17 C 0.3386(3) 0.61359(18) 0.84088(17)
H12 H 0.3763 0.6177 0.8049
H13 H 0.3181 0.6668 0.8530
H14 H 0.2836 0.5802 0.8333
C18 C 0.68460(17) 0.28227(16) 0.79239(11)
H15 H 0.7159 0.3326 0.8018
H16 H 0.7279 0.2478 0.7706
H17 H 0.6655 0.2558 0.8290
C19 C 0.59756(16) 0.29896(13) 0.75433(9)
H18 H 0.5647 0.2476 0.7457
C20 C 0.62258(17) 0.34091(14) 0.69526(10)
H19 H 0.6712 0.3817 0.7028
H20 H 0.6494 0.3012 0.6678
C21 C 0.53727(17) 0.38107(14) 0.66564(10)
H21 H 0.5232 0.4318 0.6869
C22 C 0.5516(2) 0.39952(18) 0.60034(11)
H22 H 0.5703 0.3509 0.5796
H23 H 0.6008 0.4398 0.5960
H24 H 0.4930 0.4197 0.5835
C23 C 0.53286(14) 0.14504(11) 0.89317(9)
C24 C 0.61183(15) 0.15104(14) 0.93122(10)
H25 H 0.6080 0.1809 0.9667
C25 C 0.69628(17) 0.11195(15) 0.91563(12)
H26 H 0.7493 0.1159 0.9408
C26 C 0.70232(18) 0.06735(14) 0.86332(12)
H27 H 0.7592 0.0413 0.8534
C27 C 0.62692(19) 0.06141(14) 0.82690(12)
H28 H 0.6320 0.0310 0.7918
C28 C 0.54108(17) 0.09963(12) 0.84029(10)
H29 H 0.4893 0.0951 0.8142
C29 C 0.37273(15) 0.14263(12) 0.97661(9)
C30 C 0.41451(18) 0.07102(12) 1.00137(10)
H30 H 0.4716 0.0509 0.9859
C31 C 0.3695(2) 0.03180(15) 1.04853(11)
H31 H 0.3967 -0.0152 1.0642
C32 C 0.2870(2) 0.05994(17) 1.07237(13)
H32 H 0.2569 0.0318 1.1033
C33 C 0.2476(2) 0.13165(18) 1.05001(12)
H33 H 0.1930 0.1534 1.0677
C34 C 0.28960(16) 0.17060(14) 1.00149(11)
H34 H 0.2607 0.2167 0.9855
C35 C 0.09577(14) 0.29694(13) 0.86152(9)
C36 C 0.11520(18) 0.21656(14) 0.84855(12)
H35 H 0.1784 0.1989 0.8481
C37 C 0.04327(17) 0.1619(2) 0.83637(14)
H36 H 0.0574 0.1080 0.8274
C38 C -0.05011(18) 0.18879(18) 0.83768(13)
H37 H -0.0997 0.1529 0.8292
C39 C -0.0702(2) 0.26737(18) 0.85130(15)
H38 H -0.1335 0.2847 0.8524
C40 C 0.00254(15) 0.3217(2) 0.86350(12)
H39 H -0.0120 0.3753 0.8731
C41 C 0.14781(18) 0.46464(16) 0.87862(10)
C42 C 0.1105(2) 0.50041(17) 0.82759(14)
H40 H 0.1111 0.4717 0.7915
C43 C 0.0721(3) 0.57809(18) 0.82865(17)
H41 H 0.0457 0.6004 0.7940
C44 C 0.0733(3) 0.6219(2) 0.88131(14)
H42 H 0.0503 0.6749 0.8823
C45 C 0.1092(2) 0.58602(17) 0.93240(16)
H43 H 0.1078 0.6143 0.9686
C46 C 0.14688(19) 0.50952(14) 0.93085(13)
H44 H 0.1724 0.4873 0.9658
Cl1 Cl 0.17600(13) 0.11501(17) 0.69342(9)
Cl2 Cl 0.34786(12) 0.02805(9) 0.72080(7)
C47 C 0.2638(3) 0.0969(3) 0.7442(2)
O7 O 0.4480(5) 0.5647(4) 1.1523(3)
C49 C 0.4325(9) 0.6518(8) 1.1166(6)
O8 O 0.2280(3) 0.0293(2) 0.88422(18)
Cl3? Cl 0.20234(16) 0.13595(14) 0.67422(10)
Cl4? Cl 0.36783(16) 0.05066(13) 0.71218(11)
C48? C 0.2888(3) 0.1258(3) 0.7277(2)
loop_
_geom_bond_atom_site_label_1
_geom_bond_atom_site_label_2
_geom_bond_site_symmetry_1
_geom_bond_site_symmetry_2
P1 O5 1_555 1_555
P2 O6 1_555 1_555
O1 C4 1_555 1_555
O2 C5 1_555 1_555
O3 C12 1_555 1_555
O4 C11 1_555 1_555
C1 P1 1_555 1_555
C2 C1 1_555 1_555
H1 C2 1_555 1_555
C3 C2 1_555 1_555
H2 C3 1_555 1_555
C4 C3 1_555 1_555
C5 C4 1_555 1_555
C6 C1 1_555 1_555
C7 C6 1_555 1_555
C8 P2 1_555 1_555
C9 C8 1_555 1_555
H3 C9 1_555 1_555
C10 C9 1_555 1_555
H4 C10 1_555 1_555
C11 C10 1_555 1_555
C12 C7 1_555 1_555
C13 H5 1_555 1_555
H6 C13 1_555 1_555
H7 C13 1_555 1_555
C14 O1 1_555 1_555
H8 C14 1_555 1_555
C15 C14 1_555 1_555
H9 C15 1_555 1_555
H10 C15 1_555 1_555
C16 O2 1_555 1_555
H11 C16 1_555 1_555
C17 C16 1_555 1_555
H12 C17 1_555 1_555
H13 C17 1_555 1_555
H14 C17 1_555 1_555
C18 H15 1_555 1_555
H16 C18 1_555 1_555
H17 C18 1_555 1_555
C19 O3 1_555 1_555
H18 C19 1_555 1_555
C20 C19 1_555 1_555
H19 C20 1_555 1_555
H20 C20 1_555 1_555
C21 O4 1_555 1_555
H21 C21 1_555 1_555
C22 C21 1_555 1_555
H22 C22 1_555 1_555
H23 C22 1_555 1_555
H24 C22 1_555 1_555
C23 P1 1_555 1_555
C24 C23 1_555 1_555
H25 C24 1_555 1_555
C25 C24 1_555 1_555
H26 C25 1_555 1_555
C26 C25 1_555 1_555
H27 C26 1_555 1_555
C27 C26 1_555 1_555
H28 C27 1_555 1_555
C28 C23 1_555 1_555
H29 C28 1_555 1_555
C29 P1 1_555 1_555
C30 C29 1_555 1_555
H30 C30 1_555 1_555
C31 C30 1_555 1_555
H31 C31 1_555 1_555
C32 C31 1_555 1_555
H32 C32 1_555 1_555
C33 C32 1_555 1_555
H33 C33 1_555 1_555
C34 C29 1_555 1_555
H34 C34 1_555 1_555
C35 P2 1_555 1_555
C36 C35 1_555 1_555
H35 C36 1_555 1_555
C37 C36 1_555 1_555
H36 C37 1_555 1_555
C38 C37 1_555 1_555
H37 C38 1_555 1_555
C39 C38 1_555 1_555
H38 C39 1_555 1_555
C40 C35 1_555 1_555
H39 C40 1_555 1_555
C41 P2 1_555 1_555
C42 C41 1_555 1_555
H40 C42 1_555 1_555
C43 C42 1_555 1_555
H41 C43 1_555 1_555
C44 C43 1_555 1_555
H42 C44 1_555 1_555
C45 C44 1_555 1_555
H43 C45 1_555 1_555
C46 C41 1_555 1_555
H44 C46 1_555 1_555
Cl1 C47 1_555 1_555
Cl2 C47 1_555 1_555
O7 C49 1_555 1_555
C5 C6 1_555 1_555
C7 C8 1_555 1_555
C11 C12 1_555 1_555
C13 C14 1_555 1_555
C15 C16 1_555 1_555
C18 C19 1_555 1_555
C20 C21 1_555 1_555
C27 C28 1_555 1_555
C33 C34 1_555 1_555
C39 C40 1_555 1_555
C45 C46 1_555 1_555

#END
