
#######################################################################
#
#                 Cambridge Crystallographic Data Centre
#                                CCDC 
#
#######################################################################
#
# If this CIF has been generated from an entry in the Cambridge 
# Structural Database, then it will include bibliographic, chemical, 
# crystal, experimental, refinement or atomic coordinate data resulting 
# from the CCDC's data processing and validation procedures.
#
#######################################################################

data_MUQZED
_chemical_formula_moiety         'C28 H14 Cl4 O2'
_chemical_name_systematic        
1,1',8,8'-Tetrachloro-9,9'-bianthracenyl-10,10'(9H,9'H)-dione
_symmetry_cell_setting           monoclinic
_symmetry_space_group_name_H-M   'P 21/n'
_symmetry_Int_Tables_number      14
_space_group_name_Hall           '-P 2yn'
loop_
_symmetry_equiv_pos_site_id
_symmetry_equiv_pos_as_xyz
1 x,y,z
2 1/2+x,1/2-y,1/2+z
3 -x,-y,-z
4 1/2-x,1/2+y,1/2-z
_cell_length_a                   18.0332(1)
_cell_length_b                   7.3721(1)
_cell_length_c                   18.3865(2)
_cell_angle_alpha                90
_cell_angle_beta                 117.974(1)
_cell_angle_gamma                90
_cell_volume                     2158.75
_exptl_crystal_colour            colorless
_exptl_crystal_description       block
_chemical_melting_point          'above 300 deg.C(dec.)'
_cell_formula_units_Z            4
loop_
_atom_site_label
_atom_site_type_symbol
_atom_site_fract_x
_atom_site_fract_y
_atom_site_fract_z
Cl1 Cl 0.60713(3) 1.09650(6) 0.08809(3)
Cl2 Cl 0.89726(2) 0.87480(6) 0.24292(2)
O1 O 0.81707(8) 1.19908(19) -0.10575(8)
C1 C 0.63272(11) 1.1804(2) 0.01384(11)
C2 C 0.57958(11) 1.3114(3) -0.04032(11)
H1 H 0.5311 1.3497 -0.0367
C3 C 0.59798(11) 1.3854(2) -0.09956(11)
H2 H 0.5612 1.4723 -0.1375
C4 C 0.66978(11) 1.3327(2) -0.10350(11)
H3 H 0.6824 1.3839 -0.1438
C5 C 0.95600(11) 1.1087(2) 0.04837(11)
H4 H 0.9691 1.1663 0.0096
C6 C 1.02006(11) 1.0468(2) 0.12299(11)
H5 H 1.0769 1.0551 0.1338
C7 C 1.00098(11) 0.9727(2) 0.18165(11)
H6 H 1.0448 0.9343 0.2333
C8 C 0.91732(10) 0.9549(2) 0.16445(10)
C9 C 0.76030(10) 0.9711(2) 0.06449(10)
H7 H 0.7548 0.9679 0.1161
C10 C 0.80468(11) 1.1614(2) -0.04765(10)
C11 C 0.87248(11) 1.0857(2) 0.03099(10)
C12 C 0.85127(10) 1.0049(2) 0.08812(10)
C13 C 0.70496(10) 1.1219(2) 0.01067(10)
C14 C 0.72372(11) 1.2038(2) -0.04775(10)
Cl3 Cl 0.58430(3) 0.88520(6) -0.15503(3)
Cl4 Cl 0.64636(3) 0.63159(6) 0.12120(3)
O2 O 0.95829(8) 0.60243(18) 0.05219(8)
C15 C 0.68310(11) 0.8049(2) -0.13584(11)
C16 C 0.69718(12) 0.7809(3) -0.20369(11)
H8 H 0.6552 0.8140 -0.2572
C17 C 0.77288(13) 0.7084(3) -0.19261(11)
H9 H 0.7827 0.6921 -0.2387
C18 C 0.83444(12) 0.6595(2) -0.11422(11)
H10 H 0.8861 0.6093 -0.1065
C19 C 0.89971(11) 0.4441(2) 0.15762(10)
H11 H 0.9536 0.4060 0.1663
C20 C 0.86787(12) 0.3804(2) 0.20854(11)
H12 H 0.9000 0.2993 0.2522
C21 C 0.78885(11) 0.4356(2) 0.19540(11)
H13 H 0.7659 0.3893 0.2288
C22 C 0.74356(11) 0.5595(2) 0.13281(11)
C23 C 0.72931(10) 0.7773(2) 0.01868(10)
H14 H 0.6677 0.7660 -0.0001
C24 C 0.88486(11) 0.6199(2) 0.03573(11)
C25 C 0.85235(11) 0.5644(2) 0.09351(10)
C26 C 0.77400(11) 0.6283(2) 0.08113(10)
C27 C 0.74343(11) 0.7574(2) -0.05588(10)
C28 C 0.81942(11) 0.6852(2) -0.04691(10)
loop_
_geom_bond_atom_site_label_1
_geom_bond_atom_site_label_2
_geom_bond_site_symmetry_1
_geom_bond_site_symmetry_2
Cl1 C1 1_555 1_555
Cl2 C8 1_555 1_555
O1 C10 1_555 1_555
C1 C2 1_555 1_555
C2 H1 1_555 1_555
C3 C2 1_555 1_555
H2 C3 1_555 1_555
C4 C3 1_555 1_555
H3 C4 1_555 1_555
C5 H4 1_555 1_555
C6 C5 1_555 1_555
H5 C6 1_555 1_555
C7 C6 1_555 1_555
H6 C7 1_555 1_555
C8 C7 1_555 1_555
C9 H7 1_555 1_555
C10 C11 1_555 1_555
C11 C5 1_555 1_555
C12 C8 1_555 1_555
C13 C1 1_555 1_555
C14 C4 1_555 1_555
Cl3 C15 1_555 1_555
Cl4 C22 1_555 1_555
O2 C24 1_555 1_555
C15 C16 1_555 1_555
C16 H8 1_555 1_555
C17 C16 1_555 1_555
H9 C17 1_555 1_555
C18 C17 1_555 1_555
H10 C18 1_555 1_555
C19 H11 1_555 1_555
C20 C19 1_555 1_555
H12 C20 1_555 1_555
C21 C20 1_555 1_555
H13 C21 1_555 1_555
C22 C21 1_555 1_555
C23 C9 1_555 1_555
H14 C23 1_555 1_555
C24 C25 1_555 1_555
C25 C19 1_555 1_555
C26 C22 1_555 1_555
C27 C15 1_555 1_555
C28 C18 1_555 1_555
C9 C12 1_555 1_555
C9 C13 1_555 1_555
C10 C14 1_555 1_555
C11 C12 1_555 1_555
C13 C14 1_555 1_555
C23 C26 1_555 1_555
C23 C27 1_555 1_555
C24 C28 1_555 1_555
C25 C26 1_555 1_555
C27 C28 1_555 1_555

#END
