
#######################################################################
#
#                 Cambridge Crystallographic Data Centre
#                                CCDC 
#
#######################################################################
#
# If this CIF has been generated from an entry in the Cambridge 
# Structural Database, then it will include bibliographic, chemical, 
# crystal, experimental, refinement or atomic coordinate data resulting 
# from the CCDC's data processing and validation procedures.
#
#######################################################################

data_MURFAG
_chemical_formula_moiety         'C30 H44 N2 O5 Si1'
_chemical_name_systematic        
(4S,5R)-1,3-Dibenzyl-5-((t-butyl(dimethyl)siloxy)(2,2-dimethyl-1,3-dioxolan-4-yl)methyl)-4-hydroxy-tetrahydropyrimidin-2(1H)-one
_symmetry_cell_setting           monoclinic
_symmetry_space_group_name_H-M   'P 21'
_symmetry_Int_Tables_number      4
_space_group_name_Hall           'P 2yb'
loop_
_symmetry_equiv_pos_site_id
_symmetry_equiv_pos_as_xyz
1 x,y,z
2 -x,1/2+y,-z
_cell_length_a                   11.2606(3)
_cell_length_b                   9.0541(2)
_cell_length_c                   15.0103(3)
_cell_angle_alpha                90.00
_cell_angle_beta                 92.1570(10)
_cell_angle_gamma                90.00
_cell_volume                     1529.28
_exptl_crystal_colour            colorless
_chemical_melting_point          '425-427 K'
_cell_formula_units_Z            2
_exptl_crystal_recrystallization_method 'dichloromethane/diethyl ether'
loop_
_atom_site_label
_atom_site_type_symbol
_atom_site_fract_x
_atom_site_fract_y
_atom_site_fract_z
Si1 Si 0.52509(3) 0.19791(5) 0.79187(3)
O1 O 0.60379(9) 0.35223(12) 0.79953(7)
O2 O 0.59835(10) 0.90886(13) 0.54831(8)
O3 O 0.83638(10) 0.24929(13) 0.83212(7)
N1 N 0.73444(11) 0.76102(15) 0.61898(8)
N2 N 0.53181(10) 0.70602(16) 0.62281(8)
O4 O 0.58805(10) 0.46705(13) 0.57417(8)
C1 C 0.42419(14) 0.2165(2) 0.88823(10)
C2 C 0.31586(12) 0.6927(2) 0.65088(10)
C3 C 0.69802(12) 0.39920(17) 0.74643(9)
H1 H 0.7045 0.3309 0.6945
C4 C 0.66865(13) 0.55552(17) 0.71232(10)
H2 H 0.6505 0.6188 0.7647
C5 C 0.56028(13) 0.55479(17) 0.64859(10)
H3 H 0.4913 0.5104 0.6790
C6 C 0.62057(13) 0.79634(17) 0.59297(10)
C7 C 0.61861(18) 0.0286(2) 0.79969(16)
H4 H 0.6781 0.0316 0.7537
H5 H 0.5682 -0.0588 0.7907
H6 H 0.6587 0.0239 0.8587
C8 C 0.41029(13) 0.73094(19) 0.58591(10)
H7 H 0.3979 0.6704 0.5314
H8 H 0.4017 0.8360 0.5686
C9 C 0.81392(13) 0.39635(18) 0.80215(10)
H9 H 0.8807 0.4309 0.7653
C10 C 0.49789(19) 0.2195(3) 0.97648(12)
H10 H 0.4448 0.2315 1.0262
H11 H 0.5539 0.3023 0.9759
H12 H 0.5420 0.1267 0.9836
C11 C 0.44007(16) 0.1911(2) 0.68325(11)
H13 H 0.3861 0.2759 0.6786
H14 H 0.3939 0.0994 0.6794
H15 H 0.4954 0.1945 0.6344
C12 C 0.35315(19) 0.3604(2) 0.87805(17)
H16 H 0.3018 0.3555 0.8239
H17 H 0.4081 0.4438 0.8737
H18 H 0.3042 0.3738 0.9300
C13 C 0.33799(17) 0.0853(2) 0.88909(13)
H19 H 0.2860 0.0951 0.9397
H20 H 0.3832 -0.0069 0.8947
H21 H 0.2897 0.0840 0.8334
C14 C 0.83874(15) 0.7092(2) 0.44539(11)
H22 H 0.7564 0.6888 0.4495
C15 C 0.77087(14) 0.62555(19) 0.66442(11)
H23 H 0.8365 0.6477 0.7082
H24 H 0.8010 0.5547 0.6204
C16 C 0.23159(16) 0.5862(2) 0.63008(12)
H25 H 0.2369 0.5312 0.5765
C17 C 0.89776(14) 0.78820(19) 0.51236(11)
C18 C 1.01918(16) 0.8131(2) 0.50648(15)
H26 H 1.0611 0.8653 0.5527
C19 C 0.81349(17) 0.4830(2) 0.88871(12)
H27 H 0.8481 0.5825 0.8809
H28 H 0.7316 0.4939 0.9095
C20 C 1.01982(19) 0.6878(3) 0.36651(14)
H29 H 1.0612 0.6555 0.3161
C21 C 0.83217(14) 0.85263(19) 0.58960(11)
H30 H 0.8894 0.8676 0.6405
H31 H 0.8003 0.9507 0.5719
C22 C 0.30723(17) 0.7691(2) 0.73022(13)
H32 H 0.3653 0.8415 0.7462
C23 C 0.21521(19) 0.7417(2) 0.78658(14)
H33 H 0.2100 0.7952 0.8407
C24 C 1.07906(18) 0.7626(2) 0.43401(16)
H34 H 1.1620 0.7797 0.4309
C25 C 0.13948(17) 0.5583(2) 0.68629(13)
H35 H 0.0821 0.4848 0.6710
C26 C 0.8992(2) 0.6595(2) 0.37212(13)
H36 H 0.8580 0.6063 0.3260
C27 C 0.13098(17) 0.6360(2) 0.76353(13)
H37 H 0.0671 0.6176 0.8016
C28 C 0.90599(16) 0.2585(2) 0.91340(12)
C29 C 1.03594(17) 0.2472(4) 0.89598(17)
H38 H 1.0570 0.3215 0.8518
H39 H 1.0534 0.1485 0.8732
H40 H 1.0823 0.2643 0.9516
O5 O 0.8828(2) 0.4000(2) 0.94908(12)
C30 C 0.8651(2) 0.1391(4) 0.97465(16)
H41 H 0.9131 0.1418 1.0304
H42 H 0.8741 0.0427 0.9460
H43 H 0.7813 0.1550 0.9874
H44 H 0.5282(19) 0.456(2) 0.5393(14)
loop_
_geom_bond_atom_site_label_1
_geom_bond_atom_site_label_2
_geom_bond_site_symmetry_1
_geom_bond_site_symmetry_2
Si1 O1 1_555 1_555
O1 C3 1_555 1_555
O2 C6 1_555 1_555
O3 C9 1_555 1_555
N1 C6 1_555 1_555
N2 C5 1_555 1_555
O4 C5 1_555 1_555
C1 Si1 1_555 1_555
C2 C8 1_555 1_555
C3 H1 1_555 1_555
C4 C3 1_555 1_555
H2 C4 1_555 1_555
C5 C4 1_555 1_555
H3 C5 1_555 1_555
C6 N2 1_555 1_555
C7 Si1 1_555 1_555
H4 C7 1_555 1_555
H5 C7 1_555 1_555
H6 C7 1_555 1_555
C8 N2 1_555 1_555
H7 C8 1_555 1_555
H8 C8 1_555 1_555
C9 C3 1_555 1_555
H9 C9 1_555 1_555
C10 C1 1_555 1_555
H10 C10 1_555 1_555
H11 C10 1_555 1_555
H12 C10 1_555 1_555
C11 Si1 1_555 1_555
H13 C11 1_555 1_555
H14 C11 1_555 1_555
H15 C11 1_555 1_555
C12 C1 1_555 1_555
H16 C12 1_555 1_555
H17 C12 1_555 1_555
H18 C12 1_555 1_555
C13 C1 1_555 1_555
H19 C13 1_555 1_555
H20 C13 1_555 1_555
H21 C13 1_555 1_555
C14 H22 1_555 1_555
C15 N1 1_555 1_555
H23 C15 1_555 1_555
H24 C15 1_555 1_555
C16 C2 1_555 1_555
H25 C16 1_555 1_555
C17 C14 1_555 1_555
C18 C17 1_555 1_555
H26 C18 1_555 1_555
C19 C9 1_555 1_555
H27 C19 1_555 1_555
H28 C19 1_555 1_555
C20 H29 1_555 1_555
C21 N1 1_555 1_555
H30 C21 1_555 1_555
H31 C21 1_555 1_555
C22 C2 1_555 1_555
H32 C22 1_555 1_555
C23 C22 1_555 1_555
H33 C23 1_555 1_555
C24 C18 1_555 1_555
H34 C24 1_555 1_555
C25 C16 1_555 1_555
H35 C25 1_555 1_555
C26 C14 1_555 1_555
H36 C26 1_555 1_555
C27 C23 1_555 1_555
H37 C27 1_555 1_555
C28 O3 1_555 1_555
C29 C28 1_555 1_555
H38 C29 1_555 1_555
H39 C29 1_555 1_555
H40 C29 1_555 1_555
O5 C19 1_555 1_555
C30 C28 1_555 1_555
H41 C30 1_555 1_555
H42 C30 1_555 1_555
H43 C30 1_555 1_555
H44 O4 1_555 1_555
C4 C15 1_555 1_555
C17 C21 1_555 1_555
C20 C26 1_555 1_555
C20 C24 1_555 1_555
C25 C27 1_555 1_555
C28 O5 1_555 1_555

#END
