
#######################################################################
#
#                 Cambridge Crystallographic Data Centre
#                                CCDC 
#
#######################################################################
#
# If this CIF has been generated from an entry in the Cambridge 
# Structural Database, then it will include bibliographic, chemical, 
# crystal, experimental, refinement or atomic coordinate data resulting 
# from the CCDC's data processing and validation procedures.
#
#######################################################################

data_MURHUD
_chemical_formula_moiety         'C9 H16 N2 O2 S1'
_chemical_name_systematic        
5-Hydroxy-1,3-diisopropyl-2-thioxoimidazolidin-4-one
_symmetry_cell_setting           monoclinic
_symmetry_space_group_name_H-M   'P 21/c'
_symmetry_Int_Tables_number      14
_space_group_name_Hall           '-P 2ybc'
loop_
_symmetry_equiv_pos_site_id
_symmetry_equiv_pos_as_xyz
1 x,y,z
2 -x,1/2+y,1/2-z
3 -x,-y,-z
4 x,1/2-y,1/2+z
_cell_length_a                   8.2528(11)
_cell_length_b                   13.6749(13)
_cell_length_c                   9.9793(12)
_cell_angle_alpha                90
_cell_angle_beta                 93.570(10)
_cell_angle_gamma                90
_cell_volume                     1124.04
_exptl_crystal_colour            colorless
_exptl_crystal_description       cube
_cell_formula_units_Z            4
loop_
_atom_site_label
_atom_site_type_symbol
_atom_site_fract_x
_atom_site_fract_y
_atom_site_fract_z
S1 S 0.26660(6) 0.63778(3) 0.24646(5)
C1 C 0.1874(2) 0.73656(12) 0.17328(16)
N1 N 0.25572(18) 0.82572(11) 0.16808(15)
C2 C 0.1542(2) 0.89442(13) 0.09152(18)
C3 C 0.0082(2) 0.83120(13) 0.04771(18)
N2 N 0.03512(18) 0.74019(11) 0.10154(15)
C4 C 0.4178(2) 0.84941(14) 0.2312(2)
C5 C 0.4036(3) 0.8874(2) 0.3725(2)
C6 C 0.5062(3) 0.91925(19) 0.1429(3)
O1 O -0.11153(18) 0.85708(10) -0.02185(15)
O2 O 0.10753(19) 0.97323(10) 0.16851(14)
C7 C -0.0768(2) 0.65592(13) 0.08491(19)
C8 C -0.2410(3) 0.68050(17) 0.1371(2)
C9 C -0.0878(3) 0.62144(17) -0.0600(2)
H1 H 0.204(3) 0.9220(16) 0.014(2)
H2 H 0.473(3) 0.7893(18) 0.236(2)
H3 H 0.342(3) 0.945(2) 0.368(3)
H4 H 0.354(4) 0.837(2) 0.428(3)
H5 H 0.518(3) 0.9015(19) 0.407(3)
H6 H 0.1161 1.0313 0.1171
H7 H 0.507(3) 0.895(2) 0.053(3)
H8 H 0.618(3) 0.926(2) 0.181(3)
H9 H 0.456(3) 0.982(2) 0.138(3)
H10 H -0.028(2) 0.6076(16) 0.137(2)
H11 H -0.227(3) 0.7035(18) 0.227(3)
H12 H -0.293(3) 0.7283(18) 0.083(2)
H13 H -0.312(3) 0.622(2) 0.132(3)
H14 H 0.016(3) 0.608(2) -0.089(3)
H15 H -0.141(3) 0.671(2) -0.118(3)
H16 H -0.158(3) 0.563(2) -0.069(3)
loop_
_geom_bond_atom_site_label_1
_geom_bond_atom_site_label_2
_geom_bond_site_symmetry_1
_geom_bond_site_symmetry_2
S1 C1 1_555 1_555
C1 N1 1_555 1_555
N1 C2 1_555 1_555
C2 C3 1_555 1_555
C3 N2 1_555 1_555
N2 C1 1_555 1_555
C4 N1 1_555 1_555
C5 C4 1_555 1_555
C6 C4 1_555 1_555
O1 C3 1_555 1_555
O2 C2 1_555 1_555
C7 N2 1_555 1_555
C8 C7 1_555 1_555
C9 C7 1_555 1_555
H1 C2 1_555 1_555
H2 C4 1_555 1_555
H3 C5 1_555 1_555
H4 C5 1_555 1_555
H5 C5 1_555 1_555
H6 O2 1_555 1_555
H7 C6 1_555 1_555
H8 C6 1_555 1_555
H9 C6 1_555 1_555
H10 C7 1_555 1_555
H11 C8 1_555 1_555
H12 C8 1_555 1_555
H13 C8 1_555 1_555
H14 C9 1_555 1_555
H15 C9 1_555 1_555
H16 C9 1_555 1_555

#END
