
#######################################################################
#
#                 Cambridge Crystallographic Data Centre
#                                CCDC 
#
#######################################################################
#
# If this CIF has been generated from an entry in the Cambridge 
# Structural Database, then it will include bibliographic, chemical, 
# crystal, experimental, refinement or atomic coordinate data resulting 
# from the CCDC's data processing and validation procedures.
#
#######################################################################

data_MURJUG
_chemical_formula_moiety         'C28 H34 N4 O4'
_chemical_name_systematic        
5,5'-bis(4-(hexyloxy)phenyl)-2,2'-bi-1,3,4-oxadiazole
_symmetry_cell_setting           triclinic
_symmetry_space_group_name_H-M   'P -1'
_symmetry_Int_Tables_number      2
_space_group_name_Hall           '-P 1'
loop_
_symmetry_equiv_pos_site_id
_symmetry_equiv_pos_as_xyz
1 x,y,z
2 -x,-y,-z
_cell_length_a                   8.166(6)
_cell_length_b                   13.066(9)
_cell_length_c                   14.357(14)
_cell_angle_alpha                65.13(3)
_cell_angle_beta                 73.59(3)
_cell_angle_gamma                86.14(3)
_cell_volume                     1330.84
_exptl_crystal_colour            colorless
_exptl_crystal_description       block
_cell_formula_units_Z            2
_exptl_crystal_recrystallization_method ethanol
_exptl_crystal_preparation       Luminescent
loop_
_atom_site_label
_atom_site_type_symbol
_atom_site_fract_x
_atom_site_fract_y
_atom_site_fract_z
C1 C -0.0130(4) 0.4471(3) 0.9979(3)
C2 C 0.0464(4) 0.3127(3) 0.9499(3)
C3 C 0.1421(2) 0.2490(2) 0.8945(2)
C4 C 0.0570(2) 0.1565(2) 0.9010(2)
H1 H -0.0571 0.1380 0.9406
C5 C 0.1425(2) 0.0917(2) 0.8486(2)
H2 H 0.0856 0.0298 0.8530
C6 C 0.3131(2) 0.1193(2) 0.7895(2)
C7 C 0.3981(2) 0.2118(2) 0.7829(2)
H3 H 0.5123 0.2304 0.7434
C8 C 0.3127(2) 0.2767(2) 0.8354(2)
H4 H 0.3696 0.3385 0.8310
C9 C 0.3218(5) -0.0342(3) 0.7398(3)
H5 H 0.2199 -0.0111 0.7159
H6 H 0.2875 -0.0918 0.8126
C10 C 0.4414(5) -0.0808(3) 0.6690(3)
H7 H 0.5416 -0.1059 0.6944
H8 H 0.4788 -0.0221 0.5968
C11 C 0.3545(5) -0.1790(3) 0.6684(3)
H9 H 0.3092 -0.2337 0.7418
H10 H 0.2581 -0.1514 0.6395
C12 C 0.4622(6) -0.2381(3) 0.6070(4)
H11 H 0.5632 -0.2615 0.6317
H12 H 0.4995 -0.1859 0.5320
C13 C 0.3664(7) -0.3439(4) 0.6182(5)
H13 H 0.3264 -0.3945 0.6935
H14 H 0.2666 -0.3196 0.5922
C14 C 0.4656(9) -0.4045(5) 0.5628(7)
H15 H 0.5121 -0.3541 0.4889
H16 H 0.3949 -0.4637 0.5683
H17 H 0.5572 -0.4367 0.5937
N1 N -0.1073(4) 0.2906(2) 1.0135(3)
N2 N -0.1453(3) 0.3798(2) 1.0445(2)
O1 O 0.1152(3) 0.4133(2) 0.9355(2)
O2 O 0.4059(3) 0.0614(2) 0.7361(2)
C1A C 0.0130(4) 0.5529(3) 1.0021(3)
C2A C -0.0464(4) 0.6873(3) 1.0501(3)
C3A C -0.1421(2) 0.7510(2) 1.1055(2)
C4A C -0.0570(2) 0.8435(2) 1.0990(2)
H1A H 0.0571 0.8620 1.0594
C5A C -0.1425(2) 0.9083(2) 1.1514(2)
H2A H -0.0856 0.9702 1.1470
C6A C -0.3131(2) 0.8807(2) 1.2105(2)
C7A C -0.3981(2) 0.7882(2) 1.2171(2)
H3A H -0.5123 0.7696 1.2566
C8A C -0.3127(2) 0.7233(2) 1.1646(2)
H4A H -0.3696 0.6615 1.1690
C9A C -0.3218(5) 1.0342(3) 1.2602(3)
H5A H -0.2199 1.0111 1.2841
H6A H -0.2875 1.0918 1.1874
C10A C -0.4414(5) 1.0808(3) 1.3310(3)
H7A H -0.5416 1.1059 1.3056
H8A H -0.4788 1.0221 1.4032
C11A C -0.3545(5) 1.1790(3) 1.3316(3)
H9A H -0.3092 1.2337 1.2582
H10A H -0.2581 1.1514 1.3605
C12A C -0.4622(6) 1.2381(3) 1.3930(4)
H11A H -0.5632 1.2615 1.3683
H12A H -0.4995 1.1859 1.4680
C13A C -0.3664(7) 1.3439(4) 1.3818(5)
H13A H -0.3264 1.3945 1.3065
H14A H -0.2666 1.3196 1.4078
C14A C -0.4656(9) 1.4045(5) 1.4372(7)
H15A H -0.5121 1.3541 1.5111
H16A H -0.3949 1.4637 1.4317
H17A H -0.5572 1.4367 1.4063
N1A N 0.1073(4) 0.7094(2) 0.9865(3)
N2A N 0.1453(3) 0.6202(2) 0.9555(2)
O1A O -0.1152(3) 0.5867(2) 1.0645(2)
O2A O -0.4059(3) 0.9386(2) 1.2639(2)
C15 C 0.4346(4) 0.0191(3) 0.0338(3)
C16 C 0.3224(4) 0.1271(3) 0.1070(3)
C17 C 0.3079(2) 0.2237(2) 0.1324(2)
C18 C 0.4477(2) 0.2990(2) 0.0971(2)
H18 H 0.5515 0.2883 0.0554
C19 C 0.4322(2) 0.3902(2) 0.1243(2)
H19 H 0.5257 0.4405 0.1008
C20 C 0.2771(3) 0.4061(2) 0.1868(2)
C21 C 0.1373(2) 0.3308(2) 0.2220(2)
H20 H 0.0335 0.3415 0.2638
C22 C 0.1527(2) 0.2396(2) 0.1948(2)
H21 H 0.0592 0.1892 0.2184
C23 C 0.1266(5) 0.5187(3) 0.2750(3)
H22 H 0.0907 0.4535 0.3433
H23 H 0.0348 0.5339 0.2412
C24 C 0.1677(5) 0.6196(3) 0.2909(3)
H24 H 0.2063 0.6830 0.2216
H25 H 0.2611 0.6030 0.3235
C25 C 0.0189(5) 0.6534(3) 0.3598(3)
H26 H -0.0232 0.5895 0.4284
H27 H -0.0729 0.6741 0.3259
C26 C 0.0701(6) 0.7529(3) 0.3775(4)
H28 H 0.1617 0.7312 0.4116
H29 H 0.1146 0.8157 0.3084
C27 C -0.0678(7) 0.7907(3) 0.4421(4)
H30 H -0.1120 0.7283 0.5115
H31 H -0.1596 0.8124 0.4082
C28 C -0.0136(8) 0.8915(4) 0.4586(5)
H32 H 0.0728 0.8695 0.4958
H33 H -0.1110 0.9141 0.4999
H34 H 0.0313 0.9536 0.3903
N3 N 0.2860(4) -0.0256(2) 0.0892(3)
N4 N 0.2087(3) 0.0460(2) 0.1383(3)
O3 O 0.4699(3) 0.1158(2) 0.0399(2)
O4 O 0.2772(3) 0.4974(2) 0.2089(2)
C15A C 0.5654(4) -0.0191(3) -0.0338(3)
C16A C 0.6776(4) -0.1271(3) -0.1070(3)
C17A C 0.6921(2) -0.2237(2) -0.1324(2)
C18A C 0.5523(2) -0.2990(2) -0.0971(2)
H18A H 0.4485 -0.2883 -0.0554
C19A C 0.5678(2) -0.3902(2) -0.1243(2)
H19A H 0.4743 -0.4405 -0.1008
C20A C 0.7229(3) -0.4061(2) -0.1868(2)
C21A C 0.8627(2) -0.3308(2) -0.2220(2)
H20A H 0.9665 -0.3415 -0.2638
C22A C 0.8473(2) -0.2396(2) -0.1948(2)
H21A H 0.9408 -0.1892 -0.2184
C23A C 0.8734(5) -0.5187(3) -0.2750(3)
H22A H 0.9093 -0.4535 -0.3433
H23A H 0.9652 -0.5339 -0.2412
C24A C 0.8323(5) -0.6196(3) -0.2909(3)
H24A H 0.7937 -0.6830 -0.2216
H25A H 0.7389 -0.6030 -0.3235
C25A C 0.9811(5) -0.6534(3) -0.3598(3)
H26A H 1.0232 -0.5895 -0.4284
H27A H 1.0729 -0.6741 -0.3259
C26A C 0.9299(6) -0.7529(3) -0.3775(4)
H28A H 0.8383 -0.7312 -0.4116
H29A H 0.8854 -0.8157 -0.3084
C27A C 1.0678(7) -0.7907(3) -0.4421(4)
H30A H 1.1120 -0.7283 -0.5115
H31A H 1.1596 -0.8124 -0.4082
C28A C 1.0136(8) -0.8915(4) -0.4586(5)
H32A H 0.9272 -0.8695 -0.4958
H33A H 1.1110 -0.9141 -0.4999
H34A H 0.9687 -0.9536 -0.3903
N3A N 0.7140(4) 0.0256(2) -0.0892(3)
N4A N 0.7913(3) -0.0460(2) -0.1383(3)
O3A O 0.5301(3) -0.1158(2) -0.0399(2)
O4A O 0.7228(3) -0.4974(2) -0.2089(2)
loop_
_geom_bond_atom_site_label_1
_geom_bond_atom_site_label_2
_geom_bond_site_symmetry_1
_geom_bond_site_symmetry_2
C1 N2 1_555 1_555
C2 C3 1_555 1_555
C3 C4 1_555 1_555
C4 H1 1_555 1_555
C5 C4 1_555 1_555
H2 C5 1_555 1_555
C6 C5 1_555 1_555
C7 C6 1_555 1_555
H3 C7 1_555 1_555
C8 C3 1_555 1_555
H4 C8 1_555 1_555
C9 H5 1_555 1_555
H6 C9 1_555 1_555
C10 C9 1_555 1_555
H7 C10 1_555 1_555
H8 C10 1_555 1_555
C11 C10 1_555 1_555
H9 C11 1_555 1_555
H10 C11 1_555 1_555
C12 C11 1_555 1_555
H11 C12 1_555 1_555
H12 C12 1_555 1_555
C13 C12 1_555 1_555
H13 C13 1_555 1_555
H14 C13 1_555 1_555
C14 C13 1_555 1_555
H15 C14 1_555 1_555
H16 C14 1_555 1_555
H17 C14 1_555 1_555
N1 C2 1_555 1_555
N2 N1 1_555 1_555
O1 C1 1_555 1_555
O2 C6 1_555 1_555
C15 N3 1_555 1_555
C16 C17 1_555 1_555
C17 C18 1_555 1_555
C18 H18 1_555 1_555
C19 C18 1_555 1_555
H19 C19 1_555 1_555
C20 C19 1_555 1_555
C21 C20 1_555 1_555
H20 C21 1_555 1_555
C22 C17 1_555 1_555
H21 C22 1_555 1_555
C23 H22 1_555 1_555
H23 C23 1_555 1_555
C24 C23 1_555 1_555
H24 C24 1_555 1_555
H25 C24 1_555 1_555
C25 C24 1_555 1_555
H26 C25 1_555 1_555
H27 C25 1_555 1_555
C26 C25 1_555 1_555
H28 C26 1_555 1_555
H29 C26 1_555 1_555
C27 C26 1_555 1_555
H30 C27 1_555 1_555
H31 C27 1_555 1_555
C28 C27 1_555 1_555
H32 C28 1_555 1_555
H33 C28 1_555 1_555
H34 C28 1_555 1_555
N3 N4 1_555 1_555
N4 C16 1_555 1_555
O3 C15 1_555 1_555
O4 C20 1_555 1_555
C1A C1 1_555 1_555
C2A C3A 1_555 1_555
C3A C4A 1_555 1_555
C4A H1A 1_555 1_555
C5A C4A 1_555 1_555
H2A C5A 1_555 1_555
C6A C5A 1_555 1_555
C7A C6A 1_555 1_555
H3A C7A 1_555 1_555
C8A C3A 1_555 1_555
H4A C8A 1_555 1_555
C9A H5A 1_555 1_555
H6A C9A 1_555 1_555
C10A C9A 1_555 1_555
H7A C10A 1_555 1_555
H8A C10A 1_555 1_555
C11A C10A 1_555 1_555
H9A C11A 1_555 1_555
H10A C11A 1_555 1_555
C12A C11A 1_555 1_555
H11A C12A 1_555 1_555
H12A C12A 1_555 1_555
C13A C12A 1_555 1_555
H13A C13A 1_555 1_555
H14A C13A 1_555 1_555
C14A C13A 1_555 1_555
H15A C14A 1_555 1_555
H16A C14A 1_555 1_555
H17A C14A 1_555 1_555
N1A C2A 1_555 1_555
N2A C1A 1_555 1_555
O1A C1A 1_555 1_555
O2A C6A 1_555 1_555
C15A C15 1_555 1_555
C16A C17A 1_555 1_555
C17A C18A 1_555 1_555
C18A H18A 1_555 1_555
C19A C18A 1_555 1_555
H19A C19A 1_555 1_555
C20A C19A 1_555 1_555
C21A C20A 1_555 1_555
H20A C21A 1_555 1_555
C22A C17A 1_555 1_555
H21A C22A 1_555 1_555
C23A H22A 1_555 1_555
H23A C23A 1_555 1_555
C24A C23A 1_555 1_555
H24A C24A 1_555 1_555
H25A C24A 1_555 1_555
C25A C24A 1_555 1_555
H26A C25A 1_555 1_555
H27A C25A 1_555 1_555
C26A C25A 1_555 1_555
H28A C26A 1_555 1_555
H29A C26A 1_555 1_555
C27A C26A 1_555 1_555
H30A C27A 1_555 1_555
H31A C27A 1_555 1_555
C28A C27A 1_555 1_555
H32A C28A 1_555 1_555
H33A C28A 1_555 1_555
H34A C28A 1_555 1_555
N3A C15A 1_555 1_555
N4A C16A 1_555 1_555
O3A C15A 1_555 1_555
O4A C20A 1_555 1_555
C2 O1 1_555 1_555
C7 C8 1_555 1_555
C9 O2 1_555 1_555
C16 O3 1_555 1_555
C21 C22 1_555 1_555
C23 O4 1_555 1_555
C2A O1A 1_555 1_555
C7A C8A 1_555 1_555
C9A O2A 1_555 1_555
N1A N2A 1_555 1_555
C16A O3A 1_555 1_555
C21A C22A 1_555 1_555
C23A O4A 1_555 1_555
N3A N4A 1_555 1_555

#END
