
#######################################################################
#
#                 Cambridge Crystallographic Data Centre
#                                CCDC 
#
#######################################################################
#
# If this CIF has been generated from an entry in the Cambridge 
# Structural Database, then it will include bibliographic, chemical, 
# crystal, experimental, refinement or atomic coordinate data resulting 
# from the CCDC's data processing and validation procedures.
#
#######################################################################

data_MURSID
_chemical_formula_moiety         'C11 H18 N2 O3'
_chemical_name_systematic        
7-hydroxy-3-isobutylhexahydropyrrolo[1,2-a]pyrazine-1,4-dione
_symmetry_cell_setting           orthorhombic
_symmetry_space_group_name_H-M   'P 21 21 21'
_symmetry_Int_Tables_number      19
_space_group_name_Hall           'P 2ac 2ab'
loop_
_symmetry_equiv_pos_site_id
_symmetry_equiv_pos_as_xyz
1 x,y,z
2 1/2-x,-y,1/2+z
3 -x,1/2+y,1/2-z
4 1/2+x,1/2-y,-z
_cell_length_a                   6.3149(5)
_cell_length_b                   9.6242(7)
_cell_length_c                   19.6709(15)
_cell_angle_alpha                90
_cell_angle_beta                 90
_cell_angle_gamma                90
_cell_volume                     1195.52
_exptl_crystal_colour            colorless
_exptl_crystal_description       block
_cell_formula_units_Z            4
loop_
_atom_site_label
_atom_site_type_symbol
_atom_site_fract_x
_atom_site_fract_y
_atom_site_fract_z
N1 N 0.2625(3) 0.87485(15) 0.64949(8)
N2 N 0.2366(3) 1.02731(15) 0.76335(8)
H1 H 0.1922 1.0910 0.7905
O1 O 0.6291(3) 0.75250(17) 0.56860(8)
H2 H 0.7338 0.7721 0.5913
O2 O 0.5070(2) 1.16234(14) 0.72754(8)
O3 O -0.0577(2) 0.77989(14) 0.66904(7)
C1 C 0.2756(4) 0.8397(2) 0.57701(11)
H3 H 0.1781 0.8955 0.5505
H4 H 0.2448 0.7422 0.5695
C2 C 0.5040(4) 0.8732(2) 0.55903(11)
H5 H 0.5145 0.9060 0.5120
C3 C 0.5615(4) 0.98920(19) 0.60874(11)
H6 H 0.7137 0.9970 0.6142
H7 H 0.5053 1.0779 0.5938
C4 C 0.4564(3) 0.94147(18) 0.67420(9)
H8 H 0.5461 0.8718 0.6963
C5 C 0.4042(3) 1.05516(18) 0.72450(10)
C6 C 0.1237(3) 0.89430(17) 0.76243(9)
H9 H 0.2093 0.8260 0.7871
C7 C 0.0993(3) 0.84431(16) 0.68929(9)
C8 C -0.0899(3) 0.90660(19) 0.79806(10)
H10 H -0.1739 0.8255 0.7866
H11 H -0.1630 0.9872 0.7800
C9 C -0.0822(4) 0.9196(2) 0.87529(11)
H12 H -0.0030 1.0038 0.8870
C10 C 0.0246(6) 0.7961(4) 0.90874(15)
H13 H 0.1703 0.7923 0.8950
H14 H -0.0458 0.7121 0.8952
H15 H 0.0168 0.8057 0.9572
C11 C -0.3080(5) 0.9339(3) 0.90229(15)
H16 H -0.3881 0.8528 0.8903
H17 H -0.3731 1.0147 0.8827
H18 H -0.3045 0.9432 0.9509
loop_
_geom_bond_atom_site_label_1
_geom_bond_atom_site_label_2
_geom_bond_site_symmetry_1
_geom_bond_site_symmetry_2
N1 C1 1_555 1_555
N2 H1 1_555 1_555
O1 H2 1_555 1_555
O2 C5 1_555 1_555
O3 C7 1_555 1_555
C1 H3 1_555 1_555
H4 C1 1_555 1_555
C2 O1 1_555 1_555
H5 C2 1_555 1_555
C3 C2 1_555 1_555
H6 C3 1_555 1_555
H7 C3 1_555 1_555
C4 N1 1_555 1_555
H8 C4 1_555 1_555
C5 N2 1_555 1_555
C6 N2 1_555 1_555
H9 C6 1_555 1_555
C7 N1 1_555 1_555
C8 C6 1_555 1_555
H10 C8 1_555 1_555
H11 C8 1_555 1_555
C9 C8 1_555 1_555
H12 C9 1_555 1_555
C10 C9 1_555 1_555
H13 C10 1_555 1_555
H14 C10 1_555 1_555
H15 C10 1_555 1_555
C11 C9 1_555 1_555
H16 C11 1_555 1_555
H17 C11 1_555 1_555
H18 C11 1_555 1_555
C1 C2 1_555 1_555
C3 C4 1_555 1_555
C4 C5 1_555 1_555
C6 C7 1_555 1_555

#END
