
#######################################################################
#
#                 Cambridge Crystallographic Data Centre
#                                CCDC 
#
#######################################################################
#
# If this CIF has been generated from an entry in the Cambridge 
# Structural Database, then it will include bibliographic, chemical, 
# crystal, experimental, refinement or atomic coordinate data resulting 
# from the CCDC's data processing and validation procedures.
#
#######################################################################

data_MURWUR
_chemical_formula_moiety         'C15 H11 N3 O1'
_chemical_name_systematic        N-(Quinol-8-yl)pyridine-3-carboxamide
_symmetry_cell_setting           monoclinic
_symmetry_space_group_name_H-M   'C 2/c'
_symmetry_Int_Tables_number      15
_space_group_name_Hall           '-C 2yn'
loop_
_symmetry_equiv_pos_site_id
_symmetry_equiv_pos_as_xyz
1 x,y,z
2 1/2+x,1/2+y,z
3 x,-y,1/2+z
4 1/2+x,1/2-y,1/2+z
5 -x,-y,-z
6 1/2-x,1/2-y,-z
7 -x,y,1/2-z
8 1/2-x,1/2+y,1/2-z
_cell_length_a                   10.622(2)
_cell_length_b                   11.738(2)
_cell_length_c                   19.870(4)
_cell_angle_alpha                90
_cell_angle_beta                 102.89(3)
_cell_angle_gamma                90
_cell_volume                     2414.98
_exptl_crystal_colour            colorless
_exptl_crystal_description       'thick plate'
_cell_formula_units_Z            8
_exptl_crystal_recrystallization_method ethanol
loop_
_atom_site_label
_atom_site_type_symbol
_atom_site_fract_x
_atom_site_fract_y
_atom_site_fract_z
O1 O 0.06350(17) 0.13799(14) 0.35528(8)
N1 N 0.10996(18) 0.41053(15) 0.54441(10)
N2 N 0.10245(18) 0.27675(15) 0.43627(9)
H1 H 0.1480 0.3371 0.4479
N3 N 0.2535(2) 0.30721(19) 0.22666(10)
C1 C 0.0305(2) 0.31867(18) 0.53884(10)
C2 C 0.1946(2) 0.29244(18) 0.33623(10)
C3 C 0.0259(2) 0.24336(18) 0.48212(11)
C4 C 0.1147(2) 0.22784(19) 0.37664(11)
C5 C 0.2704(2) 0.3856(2) 0.35914(12)
H2 H 0.2763 0.4129 0.4037
C6 C -0.0470(2) 0.29478(19) 0.58647(10)
C7 C 0.1905(2) 0.2575(2) 0.26949(11)
H3 H 0.1399 0.1944 0.2532
C8 C -0.0495(2) 0.1484(2) 0.47552(12)
H4 H -0.0508 0.0983 0.4391
C9 C 0.3254(2) 0.3970(2) 0.25145(12)
H5 H 0.3703 0.4337 0.2226
C10 C -0.0395(2) 0.3715(2) 0.64161(12)
H6 H -0.0888 0.3596 0.6742
C11 C -0.1255(3) 0.1259(2) 0.52366(13)
H7 H -0.1768 0.0609 0.5186
C12 C -0.1253(2) 0.1968(2) 0.57703(12)
H8 H -0.1773 0.1809 0.6078
C13 C 0.0398(2) 0.4628(2) 0.64694(12)
H9 H 0.0457 0.5141 0.6831
C14 C 0.3371(2) 0.4384(2) 0.31633(12)
H10 H 0.3893 0.5011 0.3314
C15 C 0.1130(2) 0.4787(2) 0.59696(12)
H11 H 0.1672 0.5418 0.6014
loop_
_geom_bond_atom_site_label_1
_geom_bond_atom_site_label_2
_geom_bond_site_symmetry_1
_geom_bond_site_symmetry_2
O1 C4 1_555 1_555
N1 C1 1_555 1_555
N2 H1 1_555 1_555
N3 C7 1_555 1_555
C1 C3 1_555 1_555
C2 C4 1_555 1_555
C3 N2 1_555 1_555
C4 N2 1_555 1_555
C5 C2 1_555 1_555
H2 C5 1_555 1_555
C6 C1 1_555 1_555
C7 C2 1_555 1_555
H3 C7 1_555 1_555
C8 C3 1_555 1_555
H4 C8 1_555 1_555
C9 N3 1_555 1_555
H5 C9 1_555 1_555
C10 C6 1_555 1_555
H6 C10 1_555 1_555
C11 C8 1_555 1_555
H7 C11 1_555 1_555
C12 C6 1_555 1_555
H8 C12 1_555 1_555
C13 C10 1_555 1_555
H9 C13 1_555 1_555
C14 C5 1_555 1_555
H10 C14 1_555 1_555
C15 N1 1_555 1_555
H11 C15 1_555 1_555
C9 C14 1_555 1_555
C11 C12 1_555 1_555
C13 C15 1_555 1_555

#END
