
#######################################################################
#
#                 Cambridge Crystallographic Data Centre
#                                CCDC 
#
#######################################################################
#
# If this CIF has been generated from an entry in the Cambridge 
# Structural Database, then it will include bibliographic, chemical, 
# crystal, experimental, refinement or atomic coordinate data resulting 
# from the CCDC's data processing and validation procedures.
#
#######################################################################

data_MURYIJ
_chemical_formula_moiety         'C42 H55 Cl2 N3 O9,C1 H4 O1,H2 O1'
_chemical_name_systematic        
'4-sec-Butyl-7-(3,5-dichloro-4-hydroxybenzyl)-10-(2-hydroxypropan-2-yl)-19-methoxy-1,3,14,18-tetramethyl-13-phenyl-12,22-dioxa-3,6,9-triazabicyclo[19.1.0]docosa-15,17-diene-2,5,8,11-tetrone methanol solvate monohydrate'
_symmetry_cell_setting           monoclinic
_symmetry_space_group_name_H-M   'P 21'
_symmetry_Int_Tables_number      4
_space_group_name_Hall           'P 2yb'
loop_
_symmetry_equiv_pos_site_id
_symmetry_equiv_pos_as_xyz
1 x,y,z
2 -x,1/2+y,-z
_cell_length_a                   13.960(3)
_cell_length_b                   10.319(3)
_cell_length_c                   16.888(4)
_cell_angle_alpha                90
_cell_angle_beta                 109.082(12)
_cell_angle_gamma                90
_cell_volume                     2299.09
_exptl_crystal_colour            colorless
_exptl_crystal_description       needle
_cell_formula_units_Z            2
_exptl_crystal_recrystallization_method methanol
loop_
_atom_site_label
_atom_site_type_symbol
_atom_site_fract_x
_atom_site_fract_y
_atom_site_fract_z
O1 O -0.10549(18) 0.3763(3) 0.24113(15)
C1 C -0.0855(3) 0.3087(4) 0.3203(2)
H1 H -0.0487 0.2264 0.3180
C2 C -0.0144(3) 0.3977(4) 0.3876(2)
H2 H -0.0076 0.3581 0.4432
C3 C 0.0889(3) 0.3941(4) 0.3784(2)
H3 H 0.1141 0.3104 0.3723
C4 C 0.1500(3) 0.4933(4) 0.3777(2)
H4 H 0.1280 0.5789 0.3834
C5 C 0.2485(3) 0.4748(4) 0.3685(2)
H5 H 0.2644 0.3888 0.3568
C6 C 0.3201(3) 0.5640(4) 0.3744(2)
C7 C 0.4172(3) 0.5243(4) 0.3593(2)
H6 H 0.4169 0.4281 0.3522
C8 C 0.4309(3) 0.5878(4) 0.2818(2)
H7 H 0.4157 0.6815 0.2816
H8 H 0.5021 0.5780 0.2836
C9 C 0.3618(3) 0.5263(4) 0.2035(2)
H9 H 0.2877 0.5329 0.1955
C10 C 0.3875(3) 0.5115(3) 0.1264(2)
C11 C 0.2995(2) 0.5035(3) 0.0441(2)
N1 N 0.3080(2) 0.4167(3) -0.01314(19)
C12 C 0.2312(3) 0.4183(4) -0.0974(2)
H10 H 0.2007 0.5070 -0.1072
C13 C 0.1472(3) 0.3223(4) -0.0968(2)
N2 N 0.0732(2) 0.3726(3) -0.07392(18)
H11 H 0.0707 0.4574 -0.0693
C14 C -0.0041(2) 0.2957(3) -0.0561(2)
H12 H 0.0298 0.2199 -0.0213
C15 C -0.0491(3) 0.3806(3) -0.0031(2)
N3 N -0.1127(2) 0.3235(3) 0.03068(18)
H13 H -0.1354 0.2452 0.0140
C16 C -0.1454(2) 0.3880(4) 0.0945(2)
H14 H -0.1085 0.4724 0.1084
C17 C -0.1141(3) 0.3046(4) 0.1733(2)
C18 C -0.1829(3) 0.2756(4) 0.3358(2)
C19 C -0.2731(3) 0.3422(4) 0.2977(3)
H15 H -0.2744 0.4122 0.2609
C20 C -0.3613(3) 0.3064(5) 0.3135(3)
H16 H -0.4227 0.3512 0.2863
C21 C -0.3604(3) 0.2068(5) 0.3680(2)
H17 H -0.4208 0.1829 0.3786
C22 C -0.2707(3) 0.1418(4) 0.4072(2)
H18 H -0.2692 0.0741 0.4457
C23 C -0.1831(3) 0.1751(4) 0.3907(2)
H19 H -0.1222 0.1287 0.4172
C24 C -0.0580(3) 0.5333(4) 0.3878(3)
H20 H -0.0130 0.5833 0.4345
H21 H -0.1252 0.5267 0.3941
H22 H -0.0639 0.5769 0.3349
C25 C 0.3124(3) 0.7036(5) 0.3952(3)
H23 H 0.3034 0.7566 0.3451
H24 H 0.3745 0.7300 0.4394
H25 H 0.2541 0.7157 0.4147
O2 O 0.50466(19) 0.5597(3) 0.42921(17)
C26 C 0.5086(3) 0.4912(6) 0.5044(3)
H26 H 0.4485 0.5124 0.5197
H27 H 0.5697 0.5169 0.5500
H28 H 0.5104 0.3977 0.4949
O3 O 0.39529(19) 0.4016(3) 0.18199(16)
C27 C 0.4833(3) 0.5651(4) 0.1174(3)
H29 H 0.5388 0.5555 0.1706
H30 H 0.4739 0.6571 0.1025
H31 H 0.5000 0.5177 0.0733
O4 O 0.22855(18) 0.5797(2) 0.03075(15)
C28 C 0.3800(3) 0.3093(4) 0.0075(3)
H32 H 0.4324 0.3239 -0.0184
H33 H 0.3443 0.2282 -0.0137
H34 H 0.4115 0.3037 0.0684
C29 C 0.2772(3) 0.3904(4) -0.1671(2)
H35 H 0.3076 0.3016 -0.1583
C30 C 0.1914(3) 0.3940(5) -0.2524(2)
H36 H 0.1512 0.4729 -0.2561
H37 H 0.1477 0.3179 -0.2575
H38 H 0.2208 0.3932 -0.2977
C31 C 0.3599(3) 0.4883(4) -0.1652(3)
H39 H 0.4004 0.5064 -0.1062
H40 H 0.3277 0.5705 -0.1907
C32 C 0.4308(3) 0.4417(5) -0.2118(3)
H41 H 0.4624 0.3598 -0.1874
H42 H 0.4835 0.5069 -0.2067
H43 H 0.3919 0.4286 -0.2711
O5 O 0.15086(19) 0.2062(3) -0.11458(18)
C33 C -0.0837(3) 0.2433(4) -0.1370(2)
H44 H -0.0523 0.1732 -0.1602
H45 H -0.1406 0.2049 -0.1222
C34 C -0.1256(3) 0.3441(4) -0.2040(2)
C35 C -0.0870(3) 0.3579(4) -0.2694(2)
H46 H -0.0332 0.3036 -0.2721
C36 C -0.1265(3) 0.4509(4) -0.3311(2)
C37 C -0.2037(3) 0.5339(4) -0.3296(2)
C38 C -0.2405(4) 0.5196(5) -0.2638(3)
C39 C -0.2034(4) 0.4267(5) -0.2029(3)
H47 H -0.2318 0.4190 -0.1591
Cl1 Cl -0.3392(2) 0.6200(2) -0.25941(13)
O6 O -0.2457(2) 0.6261(3) -0.38800(18)
H48 H -0.2259 0.6155 -0.4295
Cl2 Cl -0.07866(9) 0.46348(16) -0.41364(7)
O7 O -0.0240(2) 0.4955(3) 0.00950(19)
C40 C -0.2625(2) 0.4173(4) 0.0662(2)
C41 C -0.2978(3) 0.4659(5) -0.0228(2)
H49 H -0.3684 0.4946 -0.0379
H50 H -0.2927 0.3960 -0.0605
H51 H -0.2551 0.5388 -0.0279
C42 C -0.3234(3) 0.2979(4) 0.0751(3)
H52 H -0.3039 0.2730 0.1343
H53 H -0.3092 0.2261 0.0426
H54 H -0.3959 0.3182 0.0542
O8 O -0.28018(18) 0.5128(2) 0.12089(15)
H55 H -0.2404 0.5754 0.1249
O9 O -0.1001(2) 0.1892(3) 0.17384(17)
C43 C 0.7146(5) 0.7239(7) 0.4133(4)
H56 H 0.6661 0.7833 0.4251
H57 H 0.6983 0.7150 0.3526
H58 H 0.7833 0.7585 0.4377
O10 O 0.7087(2) 0.6035(4) 0.44816(19)
H59 H 0.6476 0.5820 0.4365
O11 O 0.1988(7) 0.2606(12) 0.1107(5)
O12? O 0.1405(7) 0.2849(11) 0.1619(6)
loop_
_geom_bond_atom_site_label_1
_geom_bond_atom_site_label_2
_geom_bond_site_symmetry_1
_geom_bond_site_symmetry_2
O1 C1 1_555 1_555
C1 H1 1_555 1_555
C2 C1 1_555 1_555
H2 C2 1_555 1_555
C3 C2 1_555 1_555
H3 C3 1_555 1_555
C4 C3 1_555 1_555
H4 C4 1_555 1_555
C5 C4 1_555 1_555
H5 C5 1_555 1_555
C6 C5 1_555 1_555
C7 C6 1_555 1_555
H6 C7 1_555 1_555
C8 C7 1_555 1_555
H7 C8 1_555 1_555
H8 C8 1_555 1_555
C9 C8 1_555 1_555
H9 C9 1_555 1_555
C10 C9 1_555 1_555
C11 C10 1_555 1_555
N1 C11 1_555 1_555
C12 N1 1_555 1_555
H10 C12 1_555 1_555
C13 C12 1_555 1_555
N2 C13 1_555 1_555
H11 N2 1_555 1_555
C14 N2 1_555 1_555
H12 C14 1_555 1_555
C15 C14 1_555 1_555
N3 C15 1_555 1_555
H13 N3 1_555 1_555
C16 N3 1_555 1_555
H14 C16 1_555 1_555
C17 O1 1_555 1_555
C18 C1 1_555 1_555
C19 C18 1_555 1_555
H15 C19 1_555 1_555
C20 C19 1_555 1_555
H16 C20 1_555 1_555
C21 C20 1_555 1_555
H17 C21 1_555 1_555
C22 C21 1_555 1_555
H18 C22 1_555 1_555
C23 C18 1_555 1_555
H19 C23 1_555 1_555
C24 C2 1_555 1_555
H20 C24 1_555 1_555
H21 C24 1_555 1_555
H22 C24 1_555 1_555
C25 C6 1_555 1_555
H23 C25 1_555 1_555
H24 C25 1_555 1_555
H25 C25 1_555 1_555
O2 C7 1_555 1_555
C26 O2 1_555 1_555
H26 C26 1_555 1_555
H27 C26 1_555 1_555
H28 C26 1_555 1_555
O3 C9 1_555 1_555
C27 C10 1_555 1_555
H29 C27 1_555 1_555
H30 C27 1_555 1_555
H31 C27 1_555 1_555
O4 C11 1_555 1_555
C28 N1 1_555 1_555
H32 C28 1_555 1_555
H33 C28 1_555 1_555
H34 C28 1_555 1_555
C29 C12 1_555 1_555
H35 C29 1_555 1_555
C30 C29 1_555 1_555
H36 C30 1_555 1_555
H37 C30 1_555 1_555
H38 C30 1_555 1_555
C31 C29 1_555 1_555
H39 C31 1_555 1_555
H40 C31 1_555 1_555
C32 C31 1_555 1_555
H41 C32 1_555 1_555
H42 C32 1_555 1_555
H43 C32 1_555 1_555
O5 C13 1_555 1_555
C33 C14 1_555 1_555
H44 C33 1_555 1_555
H45 C33 1_555 1_555
C34 C33 1_555 1_555
C35 C34 1_555 1_555
H46 C35 1_555 1_555
C36 C35 1_555 1_555
C37 C36 1_555 1_555
C38 C37 1_555 1_555
C39 C34 1_555 1_555
H47 C39 1_555 1_555
Cl1 C38 1_555 1_555
O6 C37 1_555 1_555
H48 O6 1_555 1_555
Cl2 C36 1_555 1_555
O7 C15 1_555 1_555
C40 C16 1_555 1_555
C41 C40 1_555 1_555
H49 C41 1_555 1_555
H50 C41 1_555 1_555
H51 C41 1_555 1_555
C42 C40 1_555 1_555
H52 C42 1_555 1_555
H53 C42 1_555 1_555
H54 C42 1_555 1_555
O8 C40 1_555 1_555
H55 O8 1_555 1_555
O9 C17 1_555 1_555
C43 H56 1_555 1_555
H57 C43 1_555 1_555
H58 C43 1_555 1_555
O10 C43 1_555 1_555
H59 O10 1_555 1_555
C10 O3 1_555 1_555
C16 C17 1_555 1_555
C22 C23 1_555 1_555
C38 C39 1_555 1_555

#END
