
#######################################################################
#
#                 Cambridge Crystallographic Data Centre
#                                CCDC 
#
#######################################################################
#
# If this CIF has been generated from an entry in the Cambridge 
# Structural Database, then it will include bibliographic, chemical, 
# crystal, experimental, refinement or atomic coordinate data resulting 
# from the CCDC's data processing and validation procedures.
#
#######################################################################

data_MUSGEO
_chemical_formula_moiety         'C20 H14 N2 O2'
_chemical_name_systematic        
3-benzylidene-2-(1-hydroxy-1\l^5^-pyridin-2-yl)isoindolin-1-one
_symmetry_cell_setting           monoclinic
_symmetry_space_group_name_H-M   'P 21/c'
_symmetry_Int_Tables_number      14
_space_group_name_Hall           '-P 2ybc'
loop_
_symmetry_equiv_pos_site_id
_symmetry_equiv_pos_as_xyz
1 x,y,z
2 -x,1/2+y,1/2-z
3 -x,-y,-z
4 x,1/2-y,1/2+z
_cell_length_a                   10.0402(7)
_cell_length_b                   9.0196(5)
_cell_length_c                   17.1734(10)
_cell_angle_alpha                90
_cell_angle_beta                 90.819(5)
_cell_angle_gamma                90
_cell_volume                     1555.04
_cell_formula_units_Z            4
loop_
_atom_site_label
_atom_site_type_symbol
_atom_site_fract_x
_atom_site_fract_y
_atom_site_fract_z
O1 O 0.41443(15) 0.77804(19) 0.48132(10)
O2 O 0.04327(18) 0.7185(2) 0.38086(10)
N1 N 0.31365(16) 0.8343(2) 0.51750(9)
N2 N 0.18263(16) 0.62805(19) 0.47839(10)
C1 C 0.3262(2) 0.9659(3) 0.55568(14)
H1 H 0.4093 1.0115 0.5587
C2 C 0.2197(3) 1.0324(3) 0.58962(14)
H2 H 0.2306 1.1230 0.6147
C3 C 0.0965(2) 0.9662(3) 0.58697(13)
H3 H 0.0232 1.0121 0.6091
C4 C 0.0839(2) 0.8311(3) 0.55094(13)
H4 H 0.0014 0.7843 0.5489
C5 C 0.1928(2) 0.7640(2) 0.51767(11)
C6 C 0.1134(2) 0.6207(2) 0.40682(12)
C7 C 0.1469(2) 0.4764(2) 0.37328(12)
C8 C 0.2351(2) 0.4046(2) 0.42324(12)
C9 C 0.2836(2) 0.2650(3) 0.40409(15)
H5 H 0.3431 0.2152 0.4368
C10 C 0.2400(3) 0.2028(3) 0.33453(16)
H6 H 0.2712 0.1095 0.3206
C11 C 0.1513(3) 0.2752(3) 0.28504(15)
H7 H 0.1235 0.2300 0.2389
C12 C 0.1043(2) 0.4133(3) 0.30367(14)
H8 H 0.0455 0.4632 0.2705
C13 C 0.25909(19) 0.4972(2) 0.49235(12)
C14 C 0.3326(2) 0.4584(2) 0.55429(12)
H9 H 0.3806 0.3712 0.5479
C15 C 0.3511(2) 0.5281(2) 0.63031(12)
C16 C 0.2505(3) 0.6024(3) 0.66841(14)
H10 H 0.1669 0.6112 0.6448
C17 C 0.2728(5) 0.6634(3) 0.74081(18)
H11 H 0.2052 0.7149 0.7655
C18 C 0.3950(5) 0.6480(4) 0.7766(2)
H12 H 0.4108 0.6907 0.8251
C19 C 0.4942(4) 0.5697(5) 0.7408(2)
H13 H 0.5763 0.5575 0.7657
C20 C 0.4725(3) 0.5095(4) 0.66860(16)
H14 H 0.5398 0.4556 0.6450
loop_
_geom_bond_atom_site_label_1
_geom_bond_atom_site_label_2
_geom_bond_site_symmetry_1
_geom_bond_site_symmetry_2
O1 N1 1_555 1_555
O2 C6 1_555 1_555
N1 C1 1_555 1_555
N2 C5 1_555 1_555
C1 H1 1_555 1_555
C2 C1 1_555 1_555
H2 C2 1_555 1_555
C3 C2 1_555 1_555
H3 C3 1_555 1_555
C4 C3 1_555 1_555
H4 C4 1_555 1_555
C5 N1 1_555 1_555
C6 N2 1_555 1_555
C7 C6 1_555 1_555
C8 C7 1_555 1_555
C9 C8 1_555 1_555
H5 C9 1_555 1_555
C10 C9 1_555 1_555
H6 C10 1_555 1_555
C11 C10 1_555 1_555
H7 C11 1_555 1_555
C12 C7 1_555 1_555
H8 C12 1_555 1_555
C13 N2 1_555 1_555
C14 C13 1_555 1_555
H9 C14 1_555 1_555
C15 C14 1_555 1_555
C16 C15 1_555 1_555
H10 C16 1_555 1_555
C17 C16 1_555 1_555
H11 C17 1_555 1_555
C18 C17 1_555 1_555
H12 C18 1_555 1_555
C19 C18 1_555 1_555
H13 C19 1_555 1_555
C20 C15 1_555 1_555
H14 C20 1_555 1_555
C4 C5 1_555 1_555
C8 C13 1_555 1_555
C11 C12 1_555 1_555
C19 C20 1_555 1_555

#END
