
#######################################################################
#
#                 Cambridge Crystallographic Data Centre
#                                CCDC 
#
#######################################################################
#
# If this CIF has been generated from an entry in the Cambridge 
# Structural Database, then it will include bibliographic, chemical, 
# crystal, experimental, refinement or atomic coordinate data resulting 
# from the CCDC's data processing and validation procedures.
#
#######################################################################

data_MUSHAL
_chemical_formula_moiety         'C22 H16 F6 O1'
_chemical_name_systematic        
2,6-bis(2-(trifluoromethyl)benzylidene)cyclohexanone
_symmetry_cell_setting           monoclinic
_symmetry_space_group_name_H-M   'P 21/n'
_symmetry_Int_Tables_number      14
_space_group_name_Hall           '-P 2yn'
loop_
_symmetry_equiv_pos_site_id
_symmetry_equiv_pos_as_xyz
1 x,y,z
2 1/2-x,1/2+y,1/2-z
3 -x,-y,-z
4 1/2+x,1/2-y,1/2+z
_cell_length_a                   8.426(2)
_cell_length_b                   15.205(4)
_cell_length_c                   14.900(4)
_cell_angle_alpha                90
_cell_angle_beta                 93.031(6)
_cell_angle_gamma                90
_cell_volume                     1906.28
_exptl_crystal_colour            green
_exptl_crystal_description       prismatic
_cell_formula_units_Z            4
loop_
_atom_site_label
_atom_site_type_symbol
_atom_site_fract_x
_atom_site_fract_y
_atom_site_fract_z
F1 F 0.4249(3) 0.33936(12) 0.72091(14)
F2 F 0.2182(3) 0.31023(11) 0.63927(14)
F3 F 0.4333(2) 0.24878(10) 0.61297(12)
F4 F 0.4295(2) 0.06110(12) 0.21912(11)
F5 F 0.2169(3) 0.08869(12) 0.14421(14)
F6 F 0.4145(3) 0.04015(14) 0.07818(12)
O1 O 0.1016(2) 0.10177(10) 0.43666(10)
C1 C 0.3078(3) 0.20205(15) 0.74127(16)
C2 C 0.3339(4) 0.21423(19) 0.8327(2)
H1 H 0.3817 0.2658 0.8542
C3 C 0.2904(5) 0.1514(2) 0.8917(2)
H2 H 0.3059 0.1607 0.9532
C4 C 0.2243(5) 0.0749(2) 0.8606(2)
H3 H 0.1948 0.0322 0.9011
C5 C 0.2008(3) 0.06008(17) 0.77033(18)
H4 H 0.1569 0.0069 0.7505
C6 C 0.2408(3) 0.12243(15) 0.70796(15)
C7 C 0.2071(3) 0.10774(14) 0.61159(14)
H5 H 0.1698 0.1563 0.5789
C8 C 0.2231(2) 0.03408(13) 0.56498(14)
C9 C 0.2900(3) -0.05075(15) 0.60252(16)
H6 H 0.3648 -0.0376 0.6524
H7 H 0.2043 -0.0852 0.6257
C10 C 0.3727(3) -0.10482(16) 0.53455(17)
H8 H 0.4067 -0.1602 0.5615
H9 H 0.4664 -0.0738 0.5165
C11 C 0.2637(3) -0.12249(15) 0.45294(15)
H10 H 0.3190 -0.1581 0.4105
H11 H 0.1719 -0.1554 0.4708
C12 C 0.2092(2) -0.03814(13) 0.40811(14)
C13 C 0.1731(2) 0.03775(13) 0.46753(14)
C14 C 0.1949(3) -0.02340(15) 0.32049(16)
H12 H 0.1688 0.0338 0.3034
C15 C 0.2149(3) -0.08588(16) 0.24697(16)
C16 C 0.1623(4) -0.17264(17) 0.2536(2)
H13 H 0.1185 -0.1913 0.3063
C17 C 0.1739(5) -0.2307(2) 0.1840(2)
H14 H 0.1400 -0.2884 0.1907
C18 C 0.2336(5) -0.2055(2) 0.1061(3)
H15 H 0.2399 -0.2454 0.0591
C19 C 0.2851(4) -0.1205(2) 0.09621(19)
H16 H 0.3256 -0.1030 0.0422
C20 C 0.2772(3) -0.06054(16) 0.16583(16)
C21 C 0.3337(4) 0.0311(2) 0.15201(18)
C22 C 0.3472(4) 0.27382(17) 0.67981(19)
loop_
_geom_bond_atom_site_label_1
_geom_bond_atom_site_label_2
_geom_bond_site_symmetry_1
_geom_bond_site_symmetry_2
F1 C22 1_555 1_555
F2 C22 1_555 1_555
F3 C22 1_555 1_555
F4 C21 1_555 1_555
F5 C21 1_555 1_555
F6 C21 1_555 1_555
O1 C13 1_555 1_555
C1 C2 1_555 1_555
C2 H1 1_555 1_555
C3 C2 1_555 1_555
H2 C3 1_555 1_555
C4 C3 1_555 1_555
H3 C4 1_555 1_555
C5 C4 1_555 1_555
H4 C5 1_555 1_555
C6 C1 1_555 1_555
C7 C6 1_555 1_555
H5 C7 1_555 1_555
C8 C7 1_555 1_555
C9 C8 1_555 1_555
H6 C9 1_555 1_555
H7 C9 1_555 1_555
C10 C9 1_555 1_555
H8 C10 1_555 1_555
H9 C10 1_555 1_555
C11 C10 1_555 1_555
H10 C11 1_555 1_555
H11 C11 1_555 1_555
C12 C11 1_555 1_555
C13 C8 1_555 1_555
C14 C12 1_555 1_555
H12 C14 1_555 1_555
C15 C14 1_555 1_555
C16 C15 1_555 1_555
H13 C16 1_555 1_555
C17 C16 1_555 1_555
H14 C17 1_555 1_555
C18 C17 1_555 1_555
H15 C18 1_555 1_555
C19 C18 1_555 1_555
H16 C19 1_555 1_555
C20 C15 1_555 1_555
C21 C20 1_555 1_555
C22 C1 1_555 1_555
C5 C6 1_555 1_555
C12 C13 1_555 1_555
C19 C20 1_555 1_555

#END
