
#######################################################################
#
#                 Cambridge Crystallographic Data Centre
#                                CCDC 
#
#######################################################################
#
# If this CIF has been generated from an entry in the Cambridge 
# Structural Database, then it will include bibliographic, chemical, 
# crystal, experimental, refinement or atomic coordinate data resulting 
# from the CCDC's data processing and validation procedures.
#
#######################################################################

data_MUSKES
_chemical_formula_moiety         'C17 H23 B1 F2 N2'
_chemical_name_systematic        
(2-t-butyl-5-((5-tert-butyl-2H-pyrrol-2-ylidene)methyl)-1H-pyrrolato)(difluoro)boron
_symmetry_cell_setting           triclinic
_symmetry_space_group_name_H-M   'P -1'
_symmetry_Int_Tables_number      2
_space_group_name_Hall           '-P 1'
loop_
_symmetry_equiv_pos_site_id
_symmetry_equiv_pos_as_xyz
1 x,y,z
2 -x,-y,-z
_cell_length_a                   10.9260(9)
_cell_length_b                   12.1904(10)
_cell_length_c                   13.1824(11)
_cell_angle_alpha                103.9960(10)
_cell_angle_beta                 99.1160(10)
_cell_angle_gamma                90.0380(10)
_cell_volume                     1680.76
_exptl_crystal_colour            colorless
_exptl_crystal_description       block
_chemical_melting_point          '138-139 deg.C'
_cell_formula_units_Z            4
_chemical_properties_physical    Efflorescent
_exptl_crystal_preparation       Luminescent
loop_
_atom_site_label
_atom_site_type_symbol
_atom_site_fract_x
_atom_site_fract_y
_atom_site_fract_z
B1 B 0.48404(17) 0.97025(16) 0.27069(14)
C1 C 0.18397(18) 0.96484(16) 0.19236(19)
H1 H 0.1695 1.0154 0.2571
H2 H 0.1140 0.9633 0.1378
H3 H 0.2570 0.9905 0.1715
F1 F 0.44044(9) 1.07769(8) 0.30507(8)
N1 N 0.41987(12) 0.88798(11) 0.32342(10)
C2 C 0.23420(19) 0.76477(18) 0.10923(16)
H4 H 0.3103 0.7908 0.0934
H5 H 0.1686 0.7627 0.0509
H6 H 0.2437 0.6902 0.1208
F2 F 0.45807(9) 0.93311(9) 0.16281(7)
N2 N 0.62782(12) 0.97584(11) 0.30970(10)
C3 C 0.20222(16) 0.84570(15) 0.20946(16)
C4 C 0.0770(2) 0.8039(2) 0.2291(2)
H7 H 0.0822 0.7266 0.2337
H8 H 0.0131 0.8092 0.1717
H9 H 0.0576 0.8498 0.2943
C5 C 0.30207(17) 0.84203(13) 0.30282(14)
C6 C 0.2892(2) 0.78522(16) 0.38188(16)
H10 H 0.2182 0.7454 0.3859
C7 C 0.3970(2) 0.79786(16) 0.45125(16)
H11 H 0.4126 0.7698 0.5115
C8 C 0.48050(18) 0.86112(14) 0.41523(13)
C9 C 0.60296(19) 0.89175(15) 0.45332(14)
H12 H 0.6384 0.8750 0.5165
C10 C 0.67620(17) 0.94574(15) 0.40351(13)
C11 C 0.80236(19) 0.97693(18) 0.42849(16)
H13 H 0.8568 0.9668 0.4870
C12 C 0.83120(17) 1.02483(18) 0.35173(16)
H14 H 0.9092 1.0531 0.3486
C13 C 0.72276(15) 1.02429(14) 0.27789(13)
C14 C 0.71697(16) 1.06545(15) 0.17756(14)
C15 C 0.6160(2) 1.14999(18) 0.16602(18)
H15 H 0.5361 1.1133 0.1584
H16 H 0.6209 1.1778 0.1045
H17 H 0.6274 1.2120 0.2279
C16 C 0.6977(2) 0.9635(2) 0.08130(16)
H18 H 0.7637 0.9125 0.0882
H19 H 0.6977 0.9890 0.0179
H20 H 0.6198 0.9251 0.0776
C17 C 0.8416(2) 1.1254(2) 0.1791(2)
H21 H 0.8581 1.1876 0.2406
H22 H 0.8375 1.1532 0.1164
H23 H 0.9068 1.0728 0.1810
B2 B 0.93794(18) 0.46672(17) 0.27072(15)
F3 F 0.91686(9) 0.43430(9) 0.16274(7)
N3 N 0.81215(14) 0.47007(12) 0.31478(10)
F4 F 0.99509(9) 0.57388(8) 0.30727(8)
N4 N 1.02505(14) 0.38188(12) 0.31655(11)
C18 C 0.7621(2) 0.6558(2) 0.1851(2)
H24 H 0.7777 0.7130 0.2505
H25 H 0.7305 0.6899 0.1283
H26 H 0.8380 0.6198 0.1714
C19 C 0.6467(2) 0.4708(2) 0.09294(16)
H27 H 0.7224 0.4320 0.0857
H28 H 0.6213 0.5006 0.0321
H29 H 0.5832 0.4190 0.0983
C20 C 0.5428(2) 0.6262(2) 0.2000(2)
H30 H 0.4791 0.5711 0.1979
H31 H 0.5219 0.6602 0.1413
H32 H 0.5497 0.6836 0.2652
C21 C 0.66753(16) 0.56812(16) 0.19305(15)
C22 C 0.70363(17) 0.52064(15) 0.28848(14)
C23 C 0.6277(2) 0.5156(2) 0.36450(19)
H33 H 0.5486 0.5434 0.3651
C24 C 0.6889(3) 0.4637(2) 0.4366(2)
H34 H 0.6597 0.4500 0.4951
C25 C 0.8046(2) 0.43436(17) 0.40641(15)
C26 C 0.9000(2) 0.37844(17) 0.45043(15)
H35 H 0.8921 0.3575 0.5125
C27 C 1.0059(2) 0.35172(17) 0.40837(15)
C28 C 1.1071(3) 0.28876(19) 0.4389(2)
H36 H 1.1189 0.2586 0.4980
C29 C 1.1840(3) 0.28015(19) 0.3668(2)
H37 H 1.2576 0.2418 0.3674
C30 C 1.13477(18) 0.33881(15) 0.29038(17)
C31 C 1.19143(17) 0.34571(17) 0.19470(19)
C32 C 1.1153(2) 0.2688(2) 0.09510(19)
H38 H 1.1139 0.1924 0.1027
H39 H 1.1522 0.2716 0.0343
H40 H 1.0320 0.2941 0.0860
C33 C 1.3241(2) 0.3026(2) 0.2057(3)
H41 H 1.3728 0.3467 0.2697
H42 H 1.3609 0.3095 0.1459
H43 H 1.3214 0.2246 0.2083
C34 C 1.2019(2) 0.46705(18) 0.1827(2)
H44 H 1.1203 0.4938 0.1659
H45 H 1.2479 0.4685 0.1267
H46 H 1.2439 0.5149 0.2478
loop_
_geom_bond_atom_site_label_1
_geom_bond_atom_site_label_2
_geom_bond_site_symmetry_1
_geom_bond_site_symmetry_2
B1 F1 1_555 1_555
C1 H1 1_555 1_555
H2 C1 1_555 1_555
H3 C1 1_555 1_555
N1 B1 1_555 1_555
C2 H4 1_555 1_555
H5 C2 1_555 1_555
H6 C2 1_555 1_555
F2 B1 1_555 1_555
N2 B1 1_555 1_555
C3 C1 1_555 1_555
C4 C3 1_555 1_555
H7 C4 1_555 1_555
H8 C4 1_555 1_555
H9 C4 1_555 1_555
C5 N1 1_555 1_555
C6 C5 1_555 1_555
H10 C6 1_555 1_555
C7 C6 1_555 1_555
H11 C7 1_555 1_555
C8 N1 1_555 1_555
C9 C8 1_555 1_555
H12 C9 1_555 1_555
C10 N2 1_555 1_555
C11 C10 1_555 1_555
H13 C11 1_555 1_555
C12 C11 1_555 1_555
H14 C12 1_555 1_555
C13 N2 1_555 1_555
C14 C13 1_555 1_555
C15 C14 1_555 1_555
H15 C15 1_555 1_555
H16 C15 1_555 1_555
H17 C15 1_555 1_555
C16 C14 1_555 1_555
H18 C16 1_555 1_555
H19 C16 1_555 1_555
H20 C16 1_555 1_555
C17 C14 1_555 1_555
H21 C17 1_555 1_555
H22 C17 1_555 1_555
H23 C17 1_555 1_555
B2 F3 1_555 1_555
N3 B2 1_555 1_555
F4 B2 1_555 1_555
N4 B2 1_555 1_555
C18 H24 1_555 1_555
H25 C18 1_555 1_555
H26 C18 1_555 1_555
C19 H27 1_555 1_555
H28 C19 1_555 1_555
H29 C19 1_555 1_555
C20 H30 1_555 1_555
H31 C20 1_555 1_555
H32 C20 1_555 1_555
C21 C18 1_555 1_555
C22 N3 1_555 1_555
C23 C22 1_555 1_555
H33 C23 1_555 1_555
C24 C23 1_555 1_555
H34 C24 1_555 1_555
C25 N3 1_555 1_555
C26 C25 1_555 1_555
H35 C26 1_555 1_555
C27 N4 1_555 1_555
C28 C27 1_555 1_555
H36 C28 1_555 1_555
C29 C28 1_555 1_555
H37 C29 1_555 1_555
C30 N4 1_555 1_555
C31 C30 1_555 1_555
C32 C31 1_555 1_555
H38 C32 1_555 1_555
H39 C32 1_555 1_555
H40 C32 1_555 1_555
C33 C31 1_555 1_555
H41 C33 1_555 1_555
H42 C33 1_555 1_555
H43 C33 1_555 1_555
C34 C31 1_555 1_555
H44 C34 1_555 1_555
H45 C34 1_555 1_555
H46 C34 1_555 1_555
C2 C3 1_555 1_555
C3 C5 1_555 1_555
C7 C8 1_555 1_555
C9 C10 1_555 1_555
C12 C13 1_555 1_555
C19 C21 1_555 1_555
C20 C21 1_555 1_555
C21 C22 1_555 1_555
C24 C25 1_555 1_555
C26 C27 1_555 1_555
C29 C30 1_555 1_555

#END
