
#######################################################################
#
#                 Cambridge Crystallographic Data Centre
#                                CCDC 
#
#######################################################################
#
# If this CIF has been generated from an entry in the Cambridge 
# Structural Database, then it will include bibliographic, chemical, 
# crystal, experimental, refinement or atomic coordinate data resulting 
# from the CCDC's data processing and validation procedures.
#
#######################################################################

data_MUSKOC
_chemical_formula_moiety         'C13 H15 B1 F2 N2'
_chemical_name_systematic        
(2-(2,2-dimethyl-1-(2H-pyrrol-2-ylidene)propyl)-1H-pyrrolato)(difluoro)boron
_symmetry_cell_setting           orthorhombic
_symmetry_space_group_name_H-M   'P n a 21'
_symmetry_Int_Tables_number      33
_space_group_name_Hall           'P 2c -2n'
loop_
_symmetry_equiv_pos_site_id
_symmetry_equiv_pos_as_xyz
1 x,y,z
2 -x,-y,1/2+z
3 1/2+x,1/2-y,z
4 1/2-x,1/2+y,1/2+z
_cell_length_a                   14.254(2)
_cell_length_b                   13.5629(19)
_cell_length_c                   6.4554(9)
_cell_angle_alpha                90
_cell_angle_beta                 90
_cell_angle_gamma                90
_cell_volume                     1247.99
_exptl_crystal_colour            colorless
_exptl_crystal_description       block
_cell_formula_units_Z            4
_chemical_properties_physical    Efflorescent
_exptl_crystal_preparation       Luminescent
loop_
_atom_site_label
_atom_site_type_symbol
_atom_site_fract_x
_atom_site_fract_y
_atom_site_fract_z
B1 B 0.2242(4) 0.9758(4) 0.0120(10)
C1 C 0.2754(3) 0.8759(3) -0.3045(10)
H1 H 0.3178 0.9225 -0.3533
C2 C 0.2573(4) 0.7846(4) -0.3963(9)
H2 H 0.2846 0.7604 -0.5170
C3 C 0.1916(4) 0.7369(4) -0.2752(9)
H3 H 0.1678 0.6740 -0.2979
C4 C 0.1668(3) 0.8013(3) -0.1091(7)
C5 C 0.1017(3) 0.7931(3) 0.0562(6)
C6 C 0.0991(3) 0.8699(3) 0.2043(7)
C7 C 0.0470(3) 0.8831(4) 0.3896(8)
H4 H 0.0023 0.8398 0.4421
C8 C 0.0738(4) 0.9706(4) 0.4779(10)
H5 H 0.0508 0.9978 0.6001
C9 C 0.1415(4) 1.0105(4) 0.3500(9)
H6 H 0.1721 1.0699 0.3742
C10 C 0.0335(4) 0.7056(3) 0.0737(8)
C11 C 0.0363(8) 0.6275(7) -0.0976(17)
H7 H 0.0187 0.6571 -0.2271
H8 H -0.0068 0.5754 -0.0647
H9 H 0.0986 0.6012 -0.1085
C12 C 0.0522(9) 0.6529(7) 0.2828(14)
H10 H 0.1108 0.6182 0.2755
H11 H 0.0025 0.6071 0.3104
H12 H 0.0550 0.7009 0.3919
C13 C -0.0648(5) 0.7443(5) 0.0773(17)
H13 H -0.0651 0.8095 0.1356
H14 H -0.1034 0.7017 0.1601
H15 H -0.0890 0.7467 -0.0613
F1 F 0.3141(2) 0.9920(2) 0.0837(6)
F2 F 0.1955(2) 1.05942(19) -0.0987(6)
N1 N 0.2219(2) 0.8856(3) -0.1349(7)
N2 N 0.1570(3) 0.9523(3) 0.1867(7)
loop_
_geom_bond_atom_site_label_1
_geom_bond_atom_site_label_2
_geom_bond_site_symmetry_1
_geom_bond_site_symmetry_2
B1 F1 1_555 1_555
C1 H1 1_555 1_555
C2 C1 1_555 1_555
H2 C2 1_555 1_555
C3 C2 1_555 1_555
H3 C3 1_555 1_555
C4 C3 1_555 1_555
C5 C4 1_555 1_555
C6 C5 1_555 1_555
C7 C6 1_555 1_555
H4 C7 1_555 1_555
C8 C7 1_555 1_555
H5 C8 1_555 1_555
C9 C8 1_555 1_555
H6 C9 1_555 1_555
C10 C5 1_555 1_555
C11 C10 1_555 1_555
H7 C11 1_555 1_555
H8 C11 1_555 1_555
H9 C11 1_555 1_555
C12 C10 1_555 1_555
H10 C12 1_555 1_555
H11 C12 1_555 1_555
H12 C12 1_555 1_555
C13 C10 1_555 1_555
H13 C13 1_555 1_555
H14 C13 1_555 1_555
H15 C13 1_555 1_555
F2 B1 1_555 1_555
N1 B1 1_555 1_555
N2 B1 1_555 1_555
C1 N1 1_555 1_555
C4 N1 1_555 1_555
C6 N2 1_555 1_555
C9 N2 1_555 1_555

#END
