
#######################################################################
#
#                 Cambridge Crystallographic Data Centre
#                                CCDC 
#
#######################################################################
#
# If this CIF has been generated from an entry in the Cambridge 
# Structural Database, then it will include bibliographic, chemical, 
# crystal, experimental, refinement or atomic coordinate data resulting 
# from the CCDC's data processing and validation procedures.
#
#######################################################################

data_MUSPOG
_chemical_formula_moiety         'C40 H34 Mg1 O4'
_chemical_name_systematic        
bis(2,2''-bis(Methoxy)-1,1':3',1''-terphenyl-2'-yl)-magnesium
_symmetry_cell_setting           monoclinic
_symmetry_space_group_name_H-M   'C 2/c'
_symmetry_Int_Tables_number      15
_space_group_name_Hall           '-C 2yn'
loop_
_symmetry_equiv_pos_site_id
_symmetry_equiv_pos_as_xyz
1 x,y,z
2 -x,y,1/2-z
3 1/2+x,1/2+y,z
4 1/2-x,1/2+y,1/2-z
5 -x,-y,-z
6 x,-y,1/2+z
7 1/2-x,1/2-y,-z
8 1/2+x,1/2-y,1/2+z
_cell_length_a                   15.0641(15)
_cell_length_b                   13.7200(13)
_cell_length_c                   14.7341(14)
_cell_angle_alpha                90
_cell_angle_beta                 93.544(2)
_cell_angle_gamma                90
_cell_volume                     3039.41
_exptl_crystal_colour            colorless
_exptl_crystal_description       rod
_cell_formula_units_Z            4
_exptl_crystal_recrystallization_method toluene
loop_
_atom_site_label
_atom_site_type_symbol
_atom_site_fract_x
_atom_site_fract_y
_atom_site_fract_z
Mg1 Mg 0.0000 0.03414(9) 0.2500
O1 O 0.03309(11) -0.07845(14) 0.14743(12)
O2 O -0.07185(12) 0.14390(13) 0.32906(12)
C1 C -0.02190(18) -0.1603(2) 0.14098(17)
C2 C 0.0127(2) -0.2540(2) 0.14021(18)
H1 H 0.0752 -0.2632 0.1413
C3 C -0.0428(2) -0.3339(2) 0.1379(2)
H2 H -0.0185 -0.3977 0.1361
C4 C -0.1339(2) -0.3210(2) 0.1382(2)
H3 H -0.1724 -0.3758 0.1391
C5 C -0.16819(19) -0.2272(2) 0.13697(19)
H4 H -0.2308 -0.2190 0.1377
C6 C -0.11432(18) -0.1441(2) 0.13471(17)
C7 C -0.15790(17) -0.04677(19) 0.12292(17)
C8 C -0.23599(17) -0.0436(2) 0.06602(17)
H5 H -0.2560 -0.1005 0.0342
C9 C -0.28392(18) 0.0419(2) 0.05615(18)
H6 H -0.3375 0.0437 0.0186
C10 C -0.25358(18) 0.1248(2) 0.10114(18)
H7 H -0.2869 0.1834 0.0954
C11 C -0.17357(17) 0.12277(19) 0.15550(17)
C12 C -0.12295(17) 0.03702(19) 0.16861(17)
C13 C -0.09956(17) 0.22885(19) 0.28403(18)
C14 C -0.08393(18) 0.3195(2) 0.32227(19)
H8 H -0.0563 0.3244 0.3818
C15 C -0.10809(18) 0.4035(2) 0.2747(2)
H9 H -0.0984 0.4656 0.3018
C16 C -0.14637(19) 0.3959(2) 0.1875(2)
H10 H -0.1611 0.4530 0.1533
C17 C -0.16309(18) 0.3049(2) 0.15030(19)
H11 H -0.1887 0.3011 0.0898
C18 C -0.14422(17) 0.2179(2) 0.19734(18)
C19 C 0.12522(17) -0.0918(2) 0.1290(2)
H12 H 0.1300 -0.1428 0.0830
H13 H 0.1592 -0.1109 0.1850
H14 H 0.1491 -0.0306 0.1063
C20 C -0.0481(2) 0.1527(2) 0.42513(18)
H15 H -0.0847 0.2032 0.4513
H16 H 0.0148 0.1704 0.4342
H17 H -0.0583 0.0903 0.4551
O1A O -0.03309(11) -0.07845(14) 0.35257(12)
O2A O 0.07185(12) 0.14390(13) 0.17094(12)
C1A C 0.02190(18) -0.1603(2) 0.35902(17)
C2A C -0.0127(2) -0.2540(2) 0.35979(18)
H1A H -0.0752 -0.2632 0.3587
C3A C 0.0428(2) -0.3339(2) 0.3621(2)
H2A H 0.0185 -0.3977 0.3639
C4A C 0.1339(2) -0.3210(2) 0.3618(2)
H3A H 0.1724 -0.3758 0.3609
C5A C 0.16819(19) -0.2272(2) 0.36303(19)
H4A H 0.2308 -0.2190 0.3623
C6A C 0.11432(18) -0.1441(2) 0.36529(17)
C7A C 0.15790(17) -0.04677(19) 0.37708(17)
C8A C 0.23599(17) -0.0436(2) 0.43398(17)
H5A H 0.2560 -0.1005 0.4658
C9A C 0.28392(18) 0.0419(2) 0.44385(18)
H6A H 0.3375 0.0437 0.4814
C10A C 0.25358(18) 0.1248(2) 0.39886(18)
H7A H 0.2869 0.1834 0.4046
C11A C 0.17357(17) 0.12277(19) 0.34450(17)
C12A C 0.12295(17) 0.03702(19) 0.33139(17)
C13A C 0.09956(17) 0.22885(19) 0.21597(18)
C14A C 0.08393(18) 0.3195(2) 0.17773(19)
H8A H 0.0563 0.3244 0.1182
C15A C 0.10809(18) 0.4035(2) 0.2253(2)
H9A H 0.0984 0.4656 0.1982
C16A C 0.14637(19) 0.3959(2) 0.3125(2)
H10A H 0.1611 0.4530 0.3467
C17A C 0.16309(18) 0.3049(2) 0.34970(19)
H11A H 0.1887 0.3011 0.4102
C18A C 0.14422(17) 0.2179(2) 0.30266(18)
C19A C -0.12522(17) -0.0918(2) 0.3710(2)
H12A H -0.1300 -0.1428 0.4170
H13A H -0.1592 -0.1109 0.3150
H14A H -0.1491 -0.0306 0.3937
C20A C 0.0481(2) 0.1527(2) 0.07487(18)
H15A H 0.0847 0.2032 0.0487
H16A H -0.0148 0.1704 0.0658
H17A H 0.0583 0.0903 0.0449
loop_
_geom_bond_atom_site_label_1
_geom_bond_atom_site_label_2
_geom_bond_site_symmetry_1
_geom_bond_site_symmetry_2
Mg1 O1 1_555 1_555
O1 C1 1_555 1_555
O2 Mg1 1_555 1_555
C1 C2 1_555 1_555
C2 H1 1_555 1_555
C3 C2 1_555 1_555
H2 C3 1_555 1_555
C4 C3 1_555 1_555
H3 C4 1_555 1_555
C5 C4 1_555 1_555
H4 C5 1_555 1_555
C6 C1 1_555 1_555
C7 C6 1_555 1_555
C8 C7 1_555 1_555
H5 C8 1_555 1_555
C9 C8 1_555 1_555
H6 C9 1_555 1_555
C10 C9 1_555 1_555
H7 C10 1_555 1_555
C11 C10 1_555 1_555
C12 Mg1 1_555 1_555
C13 O2 1_555 1_555
C14 C13 1_555 1_555
H8 C14 1_555 1_555
C15 C14 1_555 1_555
H9 C15 1_555 1_555
C16 C15 1_555 1_555
H10 C16 1_555 1_555
C17 C16 1_555 1_555
H11 C17 1_555 1_555
C18 C11 1_555 1_555
C19 O1 1_555 1_555
H12 C19 1_555 1_555
H13 C19 1_555 1_555
H14 C19 1_555 1_555
C20 O2 1_555 1_555
H15 C20 1_555 1_555
H16 C20 1_555 1_555
H17 C20 1_555 1_555
O1A Mg1 1_555 1_555
O2A Mg1 1_555 1_555
C1A O1A 1_555 1_555
C2A C1A 1_555 1_555
H1A C2A 1_555 1_555
C3A C2A 1_555 1_555
H2A C3A 1_555 1_555
C4A C3A 1_555 1_555
H3A C4A 1_555 1_555
C5A C4A 1_555 1_555
H4A C5A 1_555 1_555
C6A C1A 1_555 1_555
C7A C6A 1_555 1_555
C8A C7A 1_555 1_555
H5A C8A 1_555 1_555
C9A C8A 1_555 1_555
H6A C9A 1_555 1_555
C10A C9A 1_555 1_555
H7A C10A 1_555 1_555
C11A C10A 1_555 1_555
C12A Mg1 1_555 1_555
C13A O2A 1_555 1_555
C14A C13A 1_555 1_555
H8A C14A 1_555 1_555
C15A C14A 1_555 1_555
H9A C15A 1_555 1_555
C16A C15A 1_555 1_555
H10A C16A 1_555 1_555
C17A C16A 1_555 1_555
H11A C17A 1_555 1_555
C18A C11A 1_555 1_555
C19A O1A 1_555 1_555
H12A C19A 1_555 1_555
H13A C19A 1_555 1_555
H14A C19A 1_555 1_555
C20A O2A 1_555 1_555
H15A C20A 1_555 1_555
H16A C20A 1_555 1_555
H17A C20A 1_555 1_555
C5 C6 1_555 1_555
C7 C12 1_555 1_555
C11 C12 1_555 1_555
C13 C18 1_555 1_555
C17 C18 1_555 1_555
C5A C6A 1_555 1_555
C7A C12A 1_555 1_555
C11A C12A 1_555 1_555
C13A C18A 1_555 1_555
C17A C18A 1_555 1_555

#END
