
#######################################################################
#
#                 Cambridge Crystallographic Data Centre
#                                CCDC 
#
#######################################################################
#
# If this CIF has been generated from an entry in the Cambridge 
# Structural Database, then it will include bibliographic, chemical, 
# crystal, experimental, refinement or atomic coordinate data resulting 
# from the CCDC's data processing and validation procedures.
#
#######################################################################

data_MUSTIE
_chemical_compound_source        
'Formosan soft coral Cespitularia hypotentaculata ROXAS'
_chemical_formula_moiety         'C22 H30 O5'
_chemical_name_systematic        
'1-Hydroxy-3,17,17-trimethyl-7-methylene-14-oxo-15-oxatricyclo[8.5.2.0^13,16^]heptadeca-3,13(16)-dien-5-yl acetate'
_chemical_properties_biological  'tested for anti-inflammatory activity'
_symmetry_cell_setting           monoclinic
_symmetry_space_group_name_H-M   'P 21'
_symmetry_Int_Tables_number      4
_space_group_name_Hall           'P 2yb'
loop_
_symmetry_equiv_pos_site_id
_symmetry_equiv_pos_as_xyz
1 x,y,z
2 -x,1/2+y,-z
_cell_length_a                   10.391(2)
_cell_length_b                   8.9666(18)
_cell_length_c                   11.953(2)
_cell_angle_alpha                90
_cell_angle_beta                 113.69(3)
_cell_angle_gamma                90
_cell_volume                     1019.84
_exptl_crystal_colour            colorless
_exptl_crystal_description       plate
_cell_formula_units_Z            2
_exptl_crystal_recrystallization_method n-hexane
loop_
_atom_site_label
_atom_site_type_symbol
_atom_site_fract_x
_atom_site_fract_y
_atom_site_fract_z
O1 O 0.42229(17) 0.0386(2) 0.47573(15)
O2 O 0.4169(2) -0.1323(3) 0.61007(16)
O3 O 0.47460(17) 0.0721(2) 0.30583(17)
H1 H 0.5206 0.1592 0.3297
O4 O -0.2107(2) 0.2905(2) 0.2275(2)
O5 O -0.1076(3) 0.4905(3) 0.3384(3)
C1 C 0.1252(3) -0.2781(3) 0.1550(2)
H2 H 0.1155 -0.3334 0.0813
C2 C -0.0242(3) -0.2250(4) 0.1315(3)
H3 H -0.0542 -0.1564 0.0630
H4 H -0.0863 -0.3107 0.1067
C3 C -0.0448(3) -0.1501(3) 0.2350(3)
H5 H 0.0373 -0.0888 0.2780
H6 H -0.0468 -0.2271 0.2913
C4 C -0.1740(3) -0.0530(3) 0.2057(3)
C5 C -0.1665(4) 0.0440(4) 0.3101(4)
H7 H -0.1132 -0.0080 0.3858
H8 H -0.2611 0.0581 0.3055
C6 C -0.1005(3) 0.1963(3) 0.3148(3)
H9 H -0.0722 0.2379 0.3971
C7 C 0.0242(3) 0.1944(3) 0.2815(2)
H10 H 0.0060 0.1838 0.1991
C8 C 0.1576(3) 0.2065(3) 0.3581(2)
C9 C 0.2720(2) 0.1964(3) 0.3116(2)
H11 H 0.3335 0.2816 0.3431
H12 H 0.2286 0.2064 0.2234
C10 C 0.3641(2) 0.0556(3) 0.3418(2)
C11 C 0.2931(2) -0.0941(2) 0.2973(2)
C12 C 0.3005(2) -0.1761(3) 0.3924(2)
C13 C 0.2393(3) -0.3270(3) 0.3883(3)
H13 H 0.1638 -0.3207 0.4163
H14 H 0.3109 -0.3929 0.4433
C14 C 0.1825(3) -0.3924(3) 0.2596(3)
H15 H 0.1078 -0.4620 0.2517
H16 H 0.2571 -0.4487 0.2499
C15 C 0.2352(2) -0.1533(3) 0.1682(2)
C16 C 0.3623(3) -0.2235(4) 0.1495(3)
H17 H 0.4302 -0.1473 0.1569
H18 H 0.3303 -0.2677 0.0698
H19 H 0.4048 -0.2987 0.2104
C17 C 0.1736(3) -0.0329(4) 0.0709(2)
H20 H 0.1007 0.0195 0.0847
H21 H 0.1350 -0.0783 -0.0085
H22 H 0.2462 0.0360 0.0753
C18 C -0.2820(4) -0.0523(5) 0.0997(4)
H23 H -0.3580 0.0102 0.0872
H24 H -0.2825 -0.1143 0.0371
C19 C 0.2041(4) 0.2426(5) 0.4915(3)
H25 H 0.1399 0.3127 0.5018
H26 H 0.2967 0.2853 0.5219
H27 H 0.2056 0.1530 0.5359
C20 C 0.3822(2) -0.0946(3) 0.5046(2)
C21 C -0.2033(4) 0.4354(4) 0.2557(4)
C22 C -0.3307(4) 0.5175(4) 0.1715(4)
H28 H -0.4045 0.5076 0.1999
H29 H -0.3611 0.4765 0.0907
H30 H -0.3081 0.6210 0.1698
loop_
_geom_bond_atom_site_label_1
_geom_bond_atom_site_label_2
_geom_bond_site_symmetry_1
_geom_bond_site_symmetry_2
O1 C10 1_555 1_555
O2 C20 1_555 1_555
O3 H1 1_555 1_555
O4 C6 1_555 1_555
O5 C21 1_555 1_555
C1 H2 1_555 1_555
C2 C1 1_555 1_555
H3 C2 1_555 1_555
H4 C2 1_555 1_555
C3 C2 1_555 1_555
H5 C3 1_555 1_555
H6 C3 1_555 1_555
C4 C3 1_555 1_555
C5 C4 1_555 1_555
H7 C5 1_555 1_555
H8 C5 1_555 1_555
C6 C5 1_555 1_555
H9 C6 1_555 1_555
C7 C6 1_555 1_555
H10 C7 1_555 1_555
C8 C7 1_555 1_555
C9 C8 1_555 1_555
H11 C9 1_555 1_555
H12 C9 1_555 1_555
C10 O3 1_555 1_555
C11 C10 1_555 1_555
C12 C11 1_555 1_555
C13 C12 1_555 1_555
H13 C13 1_555 1_555
H14 C13 1_555 1_555
C14 C1 1_555 1_555
H15 C14 1_555 1_555
H16 C14 1_555 1_555
C15 C1 1_555 1_555
C16 C15 1_555 1_555
H17 C16 1_555 1_555
H18 C16 1_555 1_555
H19 C16 1_555 1_555
C17 C15 1_555 1_555
H20 C17 1_555 1_555
H21 C17 1_555 1_555
H22 C17 1_555 1_555
C18 C4 1_555 1_555
H23 C18 1_555 1_555
H24 C18 1_555 1_555
C19 C8 1_555 1_555
H25 C19 1_555 1_555
H26 C19 1_555 1_555
H27 C19 1_555 1_555
C20 O1 1_555 1_555
C21 O4 1_555 1_555
C22 C21 1_555 1_555
H28 C22 1_555 1_555
H29 C22 1_555 1_555
H30 C22 1_555 1_555
C9 C10 1_555 1_555
C11 C15 1_555 1_555
C12 C20 1_555 1_555
C13 C14 1_555 1_555

#END
