
#######################################################################
#
#                 Cambridge Crystallographic Data Centre
#                                CCDC 
#
#######################################################################
#
# If this CIF has been generated from an entry in the Cambridge 
# Structural Database, then it will include bibliographic, chemical, 
# crystal, experimental, refinement or atomic coordinate data resulting 
# from the CCDC's data processing and validation procedures.
#
#######################################################################

data_MUTCAG
_chemical_formula_moiety         'C14 H9 Cl2 F3 N4 O1'
_chemical_name_systematic        
9-(2,6-Dichloro-4-(trifluoromethyl)phenyl)-2-ethyl-3,9-dihydro-6H-purin-6-one
_symmetry_cell_setting           monoclinic
_symmetry_space_group_name_H-M   'P 2/n'
_symmetry_Int_Tables_number      13
_space_group_name_Hall           '-P 2yac'
loop_
_symmetry_equiv_pos_site_id
_symmetry_equiv_pos_as_xyz
1 x,y,z
2 1/2-x,y,1/2-z
3 -x,-y,-z
4 1/2+x,-y,1/2+z
_cell_length_a                   13.468(4)
_cell_length_b                   8.234(3)
_cell_length_c                   15.047(5)
_cell_angle_alpha                90
_cell_angle_beta                 112.056(6)
_cell_angle_gamma                90
_cell_volume                     1546.53
_exptl_crystal_colour            colorless
_exptl_crystal_description       block
_chemical_melting_point          232-233deg.C
_cell_formula_units_Z            4
loop_
_atom_site_label
_atom_site_type_symbol
_atom_site_fract_x
_atom_site_fract_y
_atom_site_fract_z
Cl1 Cl 0.44924(13) 0.77455(18) 0.24416(12)
Cl2 Cl 0.6261(2) 0.28147(18) 0.1209(2)
F1 F 0.6510(3) 0.9680(4) 0.0067(2)
F2 F 0.7857(3) 0.8082(4) 0.0463(3)
F3 F 0.7725(3) 0.9831(4) 0.1467(2)
O1 O 0.3958(3) 0.0207(4) 0.3807(2)
N1 N 0.5464(3) 0.1730(5) 0.4507(3)
N2 N 0.6032(3) 0.3870(5) 0.3773(3)
H1 H 0.6462 0.4649 0.3783
N3 N 0.3671(4) 0.2360(6) 0.1938(3)
N4 N 0.4855(3) 0.4215(5) 0.2119(3)
C1 C 0.7171(5) 0.8780(6) 0.0790(4)
C2 C 0.6564(4) 0.7570(5) 0.1141(3)
C3 C 0.5865(4) 0.8124(5) 0.1556(4)
H2 H 0.5767 0.9233 0.1606
C4 C 0.5321(4) 0.7033(5) 0.1891(3)
C5 C 0.5433(4) 0.5372(5) 0.1802(3)
C6 C 0.6124(5) 0.4865(6) 0.1367(4)
C7 C 0.6697(5) 0.5950(6) 0.1050(4)
H3 H 0.7169 0.5578 0.0777
C8 C 0.3949(3) 0.3512(5) 0.1477(3)
H4 H 0.3597 0.3798 0.0837
C9 C 0.4408(4) 0.2278(5) 0.2900(3)
C10 C 0.4544(4) 0.1311(5) 0.3732(3)
C11 C 0.6149(4) 0.2961(6) 0.4511(3)
C12 C 0.5166(4) 0.3471(5) 0.2985(3)
C13 C 0.7002(4) 0.3323(7) 0.5462(4)
H5 H 0.7627 0.3758 0.5370
H6 H 0.7212 0.2330 0.5831
C14 C 0.6601(6) 0.4544(11) 0.6005(5)
H7 H 0.6419 0.5541 0.5649
H8 H 0.7152 0.4747 0.6622
H9 H 0.5979 0.4117 0.6089
loop_
_geom_bond_atom_site_label_1
_geom_bond_atom_site_label_2
_geom_bond_site_symmetry_1
_geom_bond_site_symmetry_2
Cl1 C4 1_555 1_555
Cl2 C6 1_555 1_555
F1 C1 1_555 1_555
F2 C1 1_555 1_555
F3 C1 1_555 1_555
O1 C10 1_555 1_555
N1 C10 1_555 1_555
N2 H1 1_555 1_555
N3 C8 1_555 1_555
N4 C5 1_555 1_555
C1 C2 1_555 1_555
C2 C3 1_555 1_555
C3 H2 1_555 1_555
C4 C3 1_555 1_555
C5 C4 1_555 1_555
C6 C5 1_555 1_555
C7 C2 1_555 1_555
H3 C7 1_555 1_555
C8 N4 1_555 1_555
H4 C8 1_555 1_555
C9 N3 1_555 1_555
C10 C9 1_555 1_555
C11 N1 1_555 1_555
C12 N2 1_555 1_555
C13 C11 1_555 1_555
H5 C13 1_555 1_555
H6 C13 1_555 1_555
C14 C13 1_555 1_555
H7 C14 1_555 1_555
H8 C14 1_555 1_555
H9 C14 1_555 1_555
N2 C11 1_555 1_555
N4 C12 1_555 1_555
C6 C7 1_555 1_555
C9 C12 1_555 1_555

#END
