
#######################################################################
#
#                 Cambridge Crystallographic Data Centre
#                                CCDC 
#
#######################################################################
#
# If this CIF has been generated from an entry in the Cambridge 
# Structural Database, then it will include bibliographic, chemical, 
# crystal, experimental, refinement or atomic coordinate data resulting 
# from the CCDC's data processing and validation procedures.
#
#######################################################################

data_MUTGIS
_chemical_compound_source        'dried fruits of Gardenia jasminoside'
_chemical_name_common            "6'-O-trans-Sinapoyljasminoside L pentahydrate"
_chemical_formula_moiety         'C27 H36 O12,5(H2 O1)'
_chemical_name_systematic        
'2,6,6-Trimethyl-4-((3,4,5-trihydroxy-6-(((3-(4-hydroxy-3,5-dimethoxyphenyl)acryloyl)oxy)methyl)tetrahydro-2H-pyran-2-yl)oxy)cyclohex-1-ene-1-carboxylic acid pentahydrate'
_symmetry_cell_setting           monoclinic
_symmetry_space_group_name_H-M   'P 21'
_symmetry_Int_Tables_number      4
_space_group_name_Hall           'P 2yb'
loop_
_symmetry_equiv_pos_site_id
_symmetry_equiv_pos_as_xyz
1 x,y,z
2 -x,1/2+y,-z
_cell_length_a                   14.1176(2)
_cell_length_b                   7.9354(1)
_cell_length_c                   14.6295(2)
_cell_angle_alpha                90
_cell_angle_beta                 100.864(1)
_cell_angle_gamma                90
_cell_volume                     1609.55
_exptl_crystal_colour            yellow
_exptl_crystal_description       block
_cell_formula_units_Z            2
loop_
_atom_site_label
_atom_site_type_symbol
_atom_site_fract_x
_atom_site_fract_y
_atom_site_fract_z
O1 O -0.13596(12) -0.3933(3) -0.23519(12)
O2 O -0.09115(14) -0.5188(3) -0.04606(13)
H1 H -0.0462 -0.4740 -0.0650
O3 O -0.24360(13) -0.4560(3) 0.05461(11)
H2 H -0.2176 -0.5303 0.0895
O4 O -0.42691(13) -0.5616(3) -0.04996(12)
H3 H -0.4010 -0.6461 -0.0244
O5 O -0.29620(12) -0.4110(2) -0.22847(11)
O6 O -0.47015(12) -0.4768(3) -0.34297(11)
O7 O -0.62805(13) -0.4172(3) -0.36562(12)
O8 O -0.85284(12) -0.4709(3) -0.86165(12)
O9 O -0.70728(13) -0.4975(3) -0.94770(12)
H4 H -0.6642 -0.4522 -0.9694
O10 O -0.52257(13) -0.5035(3) -0.85666(12)
O11 O -0.1358(2) -0.5958(3) -0.65377(15)
H5 H -0.1223 -0.6066 -0.7055
O12 O -0.07050(18) -0.3455(3) -0.66276(15)
C1 C -0.21374(19) -0.4234(4) -0.49899(18)
C2 C -0.20780(19) -0.3502(4) -0.40056(19)
H6 H -0.1871 -0.2335 -0.3999
H7 H -0.2712 -0.3530 -0.3841
C3 C -0.13769(18) -0.4495(4) -0.32975(16)
H8 H -0.1553 -0.5690 -0.3348
C4 C -0.03642(19) -0.4282(4) -0.34933(18)
H9 H -0.0112 -0.3200 -0.3253
H10 H 0.0047 -0.5151 -0.3163
C5 C -0.03186(19) -0.4380(4) -0.45142(19)
C6 C -0.11041(19) -0.4360(4) -0.51749(18)
C7 C 0.06869(19) -0.4565(5) -0.4707(2)
H11 H 0.0668 -0.4500 -0.5365
H12 H 0.0947 -0.5636 -0.4478
H13 H 0.1087 -0.3678 -0.4399
C8 C -0.2624(2) -0.5963(4) -0.5059(2)
H14 H -0.2198 -0.6769 -0.4706
H15 H -0.2771 -0.6309 -0.5699
H16 H -0.3210 -0.5896 -0.4817
C9 C -0.2748(2) -0.3033(4) -0.5690(2)
H17 H -0.2814 -0.3493 -0.6306
H18 H -0.2436 -0.1955 -0.5668
H19 H -0.3374 -0.2903 -0.5534
C10 C -0.10214(19) -0.4512(4) -0.61764(19)
C11 C -0.20258(17) -0.4757(4) -0.19148(17)
H20 H -0.2007 -0.5973 -0.2027
C12 C -0.17886(18) -0.4401(4) -0.08752(17)
H21 H -0.1740 -0.3182 -0.0768
C13 C -0.25629(19) -0.5130(4) -0.04004(17)
H22 H -0.2505 -0.6361 -0.0398
C14 C -0.35777(17) -0.4663(4) -0.08881(16)
H23 H -0.3684 -0.3458 -0.0800
C15 C -0.36872(18) -0.5035(4) -0.19308(17)
H24 H -0.3612 -0.6245 -0.2030
C16 C -0.46510(18) -0.4449(4) -0.24435(16)
H25 H -0.5162 -0.5052 -0.2224
H26 H -0.4729 -0.3254 -0.2338
C17 C -0.55666(19) -0.4510(4) -0.39685(18)
C18 C -0.55428(19) -0.4691(4) -0.49595(17)
H27 H -0.4961 -0.4888 -0.5152
C19 C -0.63605(19) -0.4570(4) -0.55846(17)
H28 H -0.6916 -0.4414 -0.5340
C20 C -0.65066(18) -0.4647(4) -0.65938(17)
C21 C -0.74454(18) -0.4616(4) -0.70985(18)
H29 H -0.7959 -0.4513 -0.6786
C22 C -0.76256(18) -0.4736(4) -0.80575(17)
C23 C -0.68664(18) -0.4866(4) -0.85337(17)
C24 C -0.59182(19) -0.4886(4) -0.80285(17)
C25 C -0.57340(18) -0.4776(4) -0.70696(18)
H30 H -0.5102 -0.4788 -0.6741
C26 C -0.93440(19) -0.4607(5) -0.8167(2)
H31 H -0.9926 -0.4605 -0.8628
H32 H -0.9307 -0.3587 -0.7809
H33 H -0.9345 -0.5559 -0.7763
C27 C -0.42535(19) -0.4688(5) -0.8130(2)
H34 H -0.3848 -0.4709 -0.8588
H35 H -0.4038 -0.5527 -0.7664
H36 H -0.4220 -0.3596 -0.7844
O13 O -0.58200(13) -0.3643(3) -0.04823(13)
H37 H -0.6234 -0.3603 -0.0986
H38 H -0.5793 -0.2646 -0.0265
O14 O -0.71142(14) -0.4222(3) -0.20925(13)
H39 H -0.6978 -0.4142 -0.2633
H40 H -0.7325 -0.5177 -0.1959
O15 O 0.0767(2) -0.3281(5) -0.0375(2)
O16 O -0.1827(2) -0.1916(4) 0.1731(2)
H41 H -0.2058 -0.0950 0.1815
H42 H -0.1435 -0.2018 0.2246
O17 O -0.15749(15) -0.6948(3) -0.82700(13)
H43 H -0.2060 -0.7468 -0.8142
H44 H -0.1221 -0.7376 -0.8620
O18? O 0.0900(4) -0.4494(10) -0.0682(4)
loop_
_geom_bond_atom_site_label_1
_geom_bond_atom_site_label_2
_geom_bond_site_symmetry_1
_geom_bond_site_symmetry_2
O1 C3 1_555 1_555
O2 H1 1_555 1_555
O3 H2 1_555 1_555
O4 H3 1_555 1_555
O5 C11 1_555 1_555
O6 C16 1_555 1_555
O7 C17 1_555 1_555
O8 C22 1_555 1_555
O9 H4 1_555 1_555
O10 C24 1_555 1_555
O11 H5 1_555 1_555
O12 C10 1_555 1_555
C1 C2 1_555 1_555
C2 H6 1_555 1_555
H7 C2 1_555 1_555
C3 C2 1_555 1_555
H8 C3 1_555 1_555
C4 C3 1_555 1_555
H9 C4 1_555 1_555
H10 C4 1_555 1_555
C5 C4 1_555 1_555
C6 C1 1_555 1_555
C7 C5 1_555 1_555
H11 C7 1_555 1_555
H12 C7 1_555 1_555
H13 C7 1_555 1_555
C8 C1 1_555 1_555
H14 C8 1_555 1_555
H15 C8 1_555 1_555
H16 C8 1_555 1_555
C9 C1 1_555 1_555
H17 C9 1_555 1_555
H18 C9 1_555 1_555
H19 C9 1_555 1_555
C10 O11 1_555 1_555
C11 O1 1_555 1_555
H20 C11 1_555 1_555
C12 O2 1_555 1_555
H21 C12 1_555 1_555
C13 O3 1_555 1_555
H22 C13 1_555 1_555
C14 O4 1_555 1_555
H23 C14 1_555 1_555
C15 O5 1_555 1_555
H24 C15 1_555 1_555
C16 C15 1_555 1_555
H25 C16 1_555 1_555
H26 C16 1_555 1_555
C17 O6 1_555 1_555
C18 C17 1_555 1_555
H27 C18 1_555 1_555
C19 C18 1_555 1_555
H28 C19 1_555 1_555
C20 C19 1_555 1_555
C21 C20 1_555 1_555
H29 C21 1_555 1_555
C22 C21 1_555 1_555
C23 O9 1_555 1_555
C24 C23 1_555 1_555
C25 C20 1_555 1_555
H30 C25 1_555 1_555
C26 O8 1_555 1_555
H31 C26 1_555 1_555
H32 C26 1_555 1_555
H33 C26 1_555 1_555
C27 O10 1_555 1_555
H34 C27 1_555 1_555
H35 C27 1_555 1_555
H36 C27 1_555 1_555
O13 H37 1_555 1_555
H38 O13 1_555 1_555
O14 H39 1_555 1_555
H40 O14 1_555 1_555
O16 H41 1_555 1_555
H42 O16 1_555 1_555
O17 H43 1_555 1_555
H44 O17 1_555 1_555
C5 C6 1_555 1_555
C6 C10 1_555 1_555
C11 C12 1_555 1_555
C12 C13 1_555 1_555
C13 C14 1_555 1_555
C14 C15 1_555 1_555
C22 C23 1_555 1_555
C24 C25 1_555 1_555

#END
