
#######################################################################
#
#                 Cambridge Crystallographic Data Centre
#                                CCDC 
#
#######################################################################
#
# If this CIF has been generated from an entry in the Cambridge 
# Structural Database, then it will include bibliographic, chemical, 
# crystal, experimental, refinement or atomic coordinate data resulting 
# from the CCDC's data processing and validation procedures.
#
#######################################################################

data_MUTHUF
_chemical_compound_source        'roots of Aconitum brachypodum'
_chemical_name_common            
'Brachyaconitine A pyridine solvate monohydrate'
_chemical_formula_moiety         'C35 H45 N1 O13,C5 H5 N1,H2 O1'
_chemical_name_systematic        
'(1\a,3\a,6\a,14\a,15\a,16\b)-3,8-Diacetoxy-20-formyl-13,15-dihydroxy-1,6,16-trimethoxy-4-(methoxymethyl)aconitan-14-yl benzoate pyridine solvate monohydrate'
_symmetry_cell_setting           triclinic
_symmetry_space_group_name_H-M   'P 1'
_symmetry_Int_Tables_number      1
_space_group_name_Hall           'P 1'
loop_
_symmetry_equiv_pos_site_id
_symmetry_equiv_pos_as_xyz
1 x,y,z
_cell_length_a                   8.8540(18)
_cell_length_b                   11.159(2)
_cell_length_c                   11.544(2)
_cell_angle_alpha                106.89(3)
_cell_angle_beta                 105.27(3)
_cell_angle_gamma                103.63(3)
_cell_volume                     990.806
_exptl_crystal_colour            colorless
_cell_formula_units_Z            1
_exptl_crystal_recrystallization_method pyridine
loop_
_atom_site_label
_atom_site_type_symbol
_atom_site_fract_x
_atom_site_fract_y
_atom_site_fract_z
O1 O 0.7139(10) 0.5220(12) 0.2395(10)
H1 H 0.7088 0.5992 0.2714
H2 H 0.6473 0.4701 0.2593
O2 O 0.3196(5) 0.0413(4) 0.7951(4)
N1 N 0.0046(5) -0.0279(4) 0.5419(4)
C1 C 0.3658(6) 0.0975(5) 0.7060(5)
H3 H 0.4795 0.1610 0.7510
O3 O 0.3438(5) -0.0874(4) 0.3693(4)
C2 C 0.3656(7) -0.0130(6) 0.5932(5)
H4 H 0.4679 -0.0323 0.6184
H5 H 0.2735 -0.0928 0.5715
O4 O 0.6202(6) -0.0267(5) 0.4490(5)
C3 C 0.3506(7) 0.0226(5) 0.4767(5)
H6 H 0.4486 0.0990 0.4975
O5 O 0.3327(7) 0.1537(6) 0.3122(5)
C4 C 0.1928(6) 0.0595(5) 0.4322(5)
O6 O -0.1624(7) -0.2436(4) 0.4694(6)
C5 C 0.2197(6) 0.1925(5) 0.5383(5)
H7 H 0.3156 0.2626 0.5444
O7 O -0.0486(5) 0.1777(4) 0.3875(4)
C6 C 0.0625(6) 0.2376(5) 0.5185(5)
H8 H 0.0986 0.3345 0.5448
O8 O -0.0609(4) 0.4117(3) 0.6864(3)
C7 C -0.0194(6) 0.1980(5) 0.6109(5)
H9 H -0.1395 0.1522 0.5658
O9 O -0.3235(5) 0.2892(4) 0.6510(4)
C8 C 0.0162(6) 0.3218(5) 0.7302(5)
O10 O 0.2616(7) 0.7212(5) 0.8890(5)
C9 C 0.2034(6) 0.4036(5) 0.7831(5)
H10 H 0.2269 0.4566 0.7315
O11 O -0.1668(5) 0.1611(4) 0.7911(4)
H11 H -0.2396 0.1480 0.7233
C10 C 0.3148(6) 0.3143(5) 0.7874(5)
H12 H 0.4202 0.3640 0.7847
O12 O 0.1500(5) 0.5646(3) 0.9566(4)
C11 C 0.2473(6) 0.1766(5) 0.6733(5)
O13 O 0.3556(5) 0.4557(4) 1.1262(4)
H13 H 0.4500 0.5007 1.1379
C12 C 0.3529(8) 0.3129(6) 0.9268(5)
H14 H 0.3136 0.2223 0.9224
H15 H 0.4718 0.3502 0.9746
O14 O 0.0346(6) 0.3686(5) 1.0699(4)
C13 C 0.2640(7) 0.3957(5) 0.9942(5)
C14 C 0.2615(6) 0.4946(5) 0.9273(5)
H16 H 0.3739 0.5579 0.9551
C15 C -0.0480(6) 0.2908(5) 0.8368(5)
H17 H -0.1061 0.3534 0.8607
C16 C 0.0832(7) 0.3085(6) 0.9641(5)
H18 H 0.0835 0.2201 0.9621
C17 C 0.0652(6) 0.1031(5) 0.6495(5)
H19 H 0.0521 0.0936 0.7284
C18 C 0.1784(8) 0.0690(6) 0.3007(5)
H20 H 0.1506 -0.0187 0.2360
H21 H 0.0911 0.1046 0.2739
C19 C -0.0978(7) -0.1322(6) 0.5511(6)
H22 H -0.1209 -0.1172 0.6271
C20 C 0.0334(7) -0.0469(5) 0.4192(5)
H23 H -0.0620 -0.0443 0.3565
H24 H 0.0425 -0.1344 0.3862
C21 C 0.4721(10) -0.1945(8) 0.2385(7)
H25 H 0.5718 -0.2169 0.2479
H26 H 0.4539 -0.1580 0.1723
H27 H 0.3793 -0.2731 0.2147
C22 C 0.4899(7) -0.0949(6) 0.3630(6)
C23 C -0.2777(9) 0.4861(8) 0.6055(8)
H28 H -0.3965 0.4627 0.5786
H29 H -0.2434 0.4903 0.5342
H30 H -0.2262 0.5713 0.6757
C24 C -0.2271(7) 0.3846(6) 0.6488(5)
C25 C 0.4519(9) 0.0173(8) 0.8738(7)
H31 H 0.4143 -0.0207 0.9301
H32 H 0.5422 0.0996 0.9248
H33 H 0.4891 -0.0434 0.8199
C26 C 0.3400(15) 0.1741(12) 0.2027(11)
H34 H 0.4491 0.2325 0.2203
H35 H 0.2590 0.2137 0.1753
H36 H 0.3171 0.0905 0.1354
C27 C -0.1802(8) 0.2285(8) 0.3607(6)
H37 H -0.2493 0.1837 0.2708
H38 H -0.1353 0.3221 0.3800
H39 H -0.2454 0.2142 0.4131
C28 C -0.0901(13) 0.2889(10) 1.0913(10)
H40 H -0.1115 0.3409 1.1635
H41 H -0.0567 0.2186 1.1101
H42 H -0.1892 0.2512 1.0155
C29 C 0.1558(8) 0.6721(6) 0.9267(5)
C30 C 0.0222(8) 0.7250(6) 0.9484(6)
C31 C -0.0784(10) 0.6751(8) 1.0113(8)
H43 H -0.0613 0.6096 1.0426
C32 C -0.2051(12) 0.7267(11) 1.0254(11)
H44 H -0.2734 0.6955 1.0668
C33 C -0.2287(14) 0.8233(12) 0.9782(12)
H45 H -0.3137 0.8563 0.9877
C34 C -0.1300(14) 0.8720(10) 0.9175(10)
H46 H -0.1483 0.9371 0.8860
C35 C -0.0022(11) 0.8238(7) 0.9032(7)
H47 H 0.0666 0.8576 0.8634
N2 N 0.2755(18) 0.6524(10) 0.5954(10)
C36 C 0.1488(11) 0.5792(9) 0.3726(10)
H48 H 0.0551 0.5572 0.3005
C37 C 0.2852(9) 0.5765(7) 0.3575(7)
H49 H 0.2837 0.5410 0.2735
C38 C 0.4223(11) 0.6191(9) 0.4499(8)
H50 H 0.5195 0.6227 0.4323
C39 C 0.4300(16) 0.6602(10) 0.5765(9)
H51 H 0.5301 0.6913 0.6457
C40 C 0.1374(16) 0.6133(10) 0.4915(13)
H52 H 0.0355 0.6098 0.5011
loop_
_geom_bond_atom_site_label_1
_geom_bond_atom_site_label_2
_geom_bond_site_symmetry_1
_geom_bond_site_symmetry_2
O1 H1 1_555 1_555
H2 O1 1_555 1_555
O2 C1 1_555 1_555
N1 C17 1_555 1_555
C1 H3 1_555 1_555
O3 C3 1_555 1_555
C2 C1 1_555 1_555
H4 C2 1_555 1_555
H5 C2 1_555 1_555
N2 C39 1_555 1_555
O4 C22 1_555 1_555
C3 C2 1_555 1_555
H6 C3 1_555 1_555
O5 C18 1_555 1_555
C4 C3 1_555 1_555
O6 C19 1_555 1_555
C5 C4 1_555 1_555
H7 C5 1_555 1_555
O7 C6 1_555 1_555
C6 C5 1_555 1_555
H8 C6 1_555 1_555
O8 C8 1_555 1_555
C7 C6 1_555 1_555
H9 C7 1_555 1_555
O9 C24 1_555 1_555
C8 C7 1_555 1_555
O10 C29 1_555 1_555
C9 C8 1_555 1_555
H10 C9 1_555 1_555
O11 H11 1_555 1_555
C10 C9 1_555 1_555
H12 C10 1_555 1_555
O12 C14 1_555 1_555
C11 C1 1_555 1_555
O13 H13 1_555 1_555
C12 C10 1_555 1_555
H14 C12 1_555 1_555
H15 C12 1_555 1_555
O14 C16 1_555 1_555
C13 O13 1_555 1_555
C14 C9 1_555 1_555
H16 C14 1_555 1_555
C15 C8 1_555 1_555
H17 C15 1_555 1_555
C16 C13 1_555 1_555
H18 C16 1_555 1_555
C17 C7 1_555 1_555
H19 C17 1_555 1_555
C18 C4 1_555 1_555
H20 C18 1_555 1_555
H21 C18 1_555 1_555
C19 N1 1_555 1_555
H22 C19 1_555 1_555
C20 N1 1_555 1_555
H23 C20 1_555 1_555
H24 C20 1_555 1_555
C21 H25 1_555 1_555
H26 C21 1_555 1_555
H27 C21 1_555 1_555
C22 O3 1_555 1_555
C23 H28 1_555 1_555
H29 C23 1_555 1_555
H30 C23 1_555 1_555
C24 O8 1_555 1_555
C25 O2 1_555 1_555
H31 C25 1_555 1_555
H32 C25 1_555 1_555
H33 C25 1_555 1_555
C26 O5 1_555 1_555
H34 C26 1_555 1_555
H35 C26 1_555 1_555
H36 C26 1_555 1_555
C27 O7 1_555 1_555
H37 C27 1_555 1_555
H38 C27 1_555 1_555
H39 C27 1_555 1_555
C28 O14 1_555 1_555
H40 C28 1_555 1_555
H41 C28 1_555 1_555
H42 C28 1_555 1_555
C29 O12 1_555 1_555
C30 C29 1_555 1_555
C31 C30 1_555 1_555
H43 C31 1_555 1_555
C32 C31 1_555 1_555
H44 C32 1_555 1_555
C33 C32 1_555 1_555
H45 C33 1_555 1_555
C34 C33 1_555 1_555
H46 C34 1_555 1_555
C35 C30 1_555 1_555
H47 C35 1_555 1_555
C36 H48 1_555 1_555
C37 C36 1_555 1_555
H49 C37 1_555 1_555
C38 C37 1_555 1_555
H50 C38 1_555 1_555
C39 C38 1_555 1_555
H51 C39 1_555 1_555
C40 N2 1_555 1_555
H52 C40 1_555 1_555
C4 C20 1_555 1_555
C5 C11 1_555 1_555
O11 C15 1_555 1_555
C10 C11 1_555 1_555
C11 C17 1_555 1_555
C12 C13 1_555 1_555
C13 C14 1_555 1_555
C15 C16 1_555 1_555
C21 C22 1_555 1_555
C23 C24 1_555 1_555
C34 C35 1_555 1_555
C36 C40 1_555 1_555

#END
