
#######################################################################
#
#                 Cambridge Crystallographic Data Centre
#                                CCDC 
#
#######################################################################
#
# If this CIF has been generated from an entry in the Cambridge 
# Structural Database, then it will include bibliographic, chemical, 
# crystal, experimental, refinement or atomic coordinate data resulting 
# from the CCDC's data processing and validation procedures.
#
#######################################################################

data_MUTLUJ
_chemical_formula_moiety         'C10 H12 N3 1+,0.5(C2 O4 2-),H2 O1'
_chemical_name_systematic        
'5,7-Dimethyl-1,8-naphthyridinio-2-amine hemikis(oxalate) monohydrate'
_symmetry_cell_setting           monoclinic
_symmetry_space_group_name_H-M   'P 21/n'
_symmetry_Int_Tables_number      14
_space_group_name_Hall           '-P 2yn'
loop_
_symmetry_equiv_pos_site_id
_symmetry_equiv_pos_as_xyz
1 x,y,z
2 1/2-x,1/2+y,1/2-z
3 -x,-y,-z
4 1/2+x,1/2-y,1/2+z
_cell_length_a                   7.3486(14)
_cell_length_b                   10.4028(18)
_cell_length_c                   14.739(2)
_cell_angle_alpha                90
_cell_angle_beta                 89.8960(10)
_cell_angle_gamma                90
_cell_volume                     1126.74
_exptl_crystal_colour            colorless
_exptl_crystal_description       block
_chemical_melting_point          189-191deg.C
_cell_formula_units_Z            4
loop_
_atom_site_label
_atom_site_type_symbol
_atom_site_fract_x
_atom_site_fract_y
_atom_site_fract_z
N1 N 0.7156(3) 0.62588(19) 0.46169(14)
H1 H 0.6674 0.6942 0.4841
N2 N 0.6683(3) 0.5336(2) 0.60146(14)
N3 N 0.7592(3) 0.7361(2) 0.32847(15)
H2 H 0.7111 0.8032 0.3527
H3 H 0.7972 0.7387 0.2733
C2 C 0.7748(3) 0.6298(2) 0.37570(17)
C3 C 0.8534(4) 0.5157(2) 0.33829(19)
H6 H 0.8968 0.5153 0.2790
C4 C 0.8641(4) 0.4090(3) 0.38928(18)
H7 H 0.9135 0.3349 0.3639
C5 C 0.8026(3) 0.4055(2) 0.48042(18)
C6 C 0.7275(3) 0.5187(2) 0.51637(17)
C7 C 0.6814(4) 0.4304(3) 0.65607(19)
C8 C 0.7491(4) 0.3128(3) 0.6254(2)
H8 H 0.7525 0.2432 0.6650
C9 C 0.8111(4) 0.2977(2) 0.53790(19)
C10 C 0.6251(4) 0.4485(3) 0.75279(19)
H9 H 0.7262 0.4808 0.7871
H10 H 0.5866 0.3676 0.7776
H11 H 0.5264 0.5088 0.7557
C11 C 0.8891(4) 0.1722(3) 0.5058(2)
H12 H 1.0154 0.1835 0.4912
H13 H 0.8246 0.1440 0.4529
H14 H 0.8771 0.1090 0.5529
O1 O 0.6090(3) 0.85489(19) 0.52104(14)
O2 O 0.5734(3) 0.95833(19) 0.39136(13)
C1 C 0.5524(4) 0.9464(2) 0.4739(2)
O1B O 0.3910(3) 1.14511(19) 0.47896(14)
O2B O 0.4266(3) 1.04167(19) 0.60864(13)
C1B C 0.4476(4) 1.0536(2) 0.5261(2)
O3 O 0.4813(3) 0.76185(19) 0.67908(13)
H4 H 0.5085 0.8090 0.6340
H5 H 0.5253 0.6875 0.6695
loop_
_geom_bond_atom_site_label_1
_geom_bond_atom_site_label_2
_geom_bond_site_symmetry_1
_geom_bond_site_symmetry_2
N1 H1 1_555 1_555
N2 C6 1_555 1_555
N3 H2 1_555 1_555
H3 N3 1_555 1_555
O1 C1 1_555 1_555
O2 C1 1_555 1_555
O3 H4 1_555 1_555
H5 O3 1_555 1_555
C1 C1B 1_555 1_555
C2 N1 1_555 1_555
C3 C2 1_555 1_555
H6 C3 1_555 1_555
C4 C3 1_555 1_555
H7 C4 1_555 1_555
C5 C4 1_555 1_555
C6 N1 1_555 1_555
C7 N2 1_555 1_555
C8 C7 1_555 1_555
H8 C8 1_555 1_555
C9 C5 1_555 1_555
C10 C7 1_555 1_555
H9 C10 1_555 1_555
H10 C10 1_555 1_555
H11 C10 1_555 1_555
C11 C9 1_555 1_555
H12 C11 1_555 1_555
H13 C11 1_555 1_555
H14 C11 1_555 1_555
O1B C1B 1_555 1_555
O2B C1B 1_555 1_555
N3 C2 1_555 1_555
C5 C6 1_555 1_555
C8 C9 1_555 1_555

#END
