
#######################################################################
#
#                 Cambridge Crystallographic Data Centre
#                                CCDC 
#
#######################################################################
#
# If this CIF has been generated from an entry in the Cambridge 
# Structural Database, then it will include bibliographic, chemical, 
# crystal, experimental, refinement or atomic coordinate data resulting 
# from the CCDC's data processing and validation procedures.
#
#######################################################################

data_MUTMAR
_chemical_name_common            
5,6,11,12,17,18,23,24-Octamethoxy-25,26,27,28-tetra-azapentacyclo[20.2.1.1$4,7!.1$10,13!.1$16,19!]octacosa-1,2,3,5,7(28),8,10,12,16(26),17,19,21,23-tridecaen-14-yne
_chemical_formula_moiety         'C32 H30 N4 O8'
_chemical_name_systematic        Octamethoxymonoacetylenecumuleneporphycene
_symmetry_cell_setting           triclinic
_symmetry_space_group_name_H-M   'P -1'
_symmetry_Int_Tables_number      2
_space_group_name_Hall           '-P 1'
loop_
_symmetry_equiv_pos_site_id
_symmetry_equiv_pos_as_xyz
1 x,y,z
2 -x,-y,-z
_cell_length_a                   6.659(5)
_cell_length_b                   14.335(16)
_cell_length_c                   17.013(13)
_cell_angle_alpha                65.12(3)
_cell_angle_beta                 84.49(7)
_cell_angle_gamma                77.42(9)
_cell_volume                     1437.9
_exptl_crystal_colour            'deep blue'
_exptl_crystal_description       needle
_cell_formula_units_Z            2
loop_
_atom_site_label
_atom_site_type_symbol
_atom_site_fract_x
_atom_site_fract_y
_atom_site_fract_z
N1 N 0.2153(5) 1.1785(2) 0.44617(19)
O1 O 0.5495(4) 1.3582(2) 0.34890(19)
O2 O 0.6496(4) 1.1590(2) 0.30816(16)
C1 C 0.3487(5) 1.1260(3) 0.4051(2)
C2 C 0.1349(6) 0.7149(3) 0.4584(2)
C3 C 0.3106(6) 0.9473(3) 0.4127(2)
C4 C 0.5015(6) 1.1857(3) 0.3600(2)
O3 O 0.3731(4) 0.6063(2) 0.40113(19)
C5 C 0.2756(6) 1.2705(3) 0.4279(2)
N2 N 0.1170(5) 0.8105(2) 0.4610(2)
C6 C 0.4567(6) 1.2737(3) 0.3747(2)
C7 C 0.2810(6) 0.8521(3) 0.4182(2)
C8 C 0.3290(6) 1.0309(3) 0.4094(2)
C9 C 0.4088(6) 0.7822(3) 0.3852(2)
C10 C 0.1770(6) 1.3465(3) 0.4554(3)
H1 H 0.2419 1.4033 0.4384
O4 O 0.5899(5) 0.7954(3) 0.3431(2)
C11 C 0.7541(7) 1.3481(4) 0.3148(3)
H2 H 0.8361 1.2828 0.3521
H3 H 0.8134 1.4050 0.3113
H4 H 0.7502 1.3497 0.2580
C12 C 0.3187(6) 0.6969(3) 0.4118(2)
C13 C 0.0011(6) 0.6458(3) 0.4964(2)
H5 H 0.0367 0.5841 0.4881
C14 C 0.8067(7) 1.0716(4) 0.3524(3)
H6 H 0.8850 1.0891 0.3870
H7 H 0.8958 1.0536 0.3109
H8 H 0.7455 1.0130 0.3891
C15 C 0.6054(13) 0.8753(6) 0.2726(5)
H9 H 0.4743 0.9223 0.2586
H10 H 0.6484 0.8530 0.2267
H11 H 0.7050 0.9105 0.2796
C16 C 0.5783(7) 0.5794(4) 0.3744(3)
H12 H 0.5940 0.6227 0.3141
H13 H 0.6073 0.5070 0.3834
H14 H 0.6721 0.5902 0.4078
H15 H -0.017(9) 0.842(5) 0.499(4)
N1A N -0.2153(5) 0.8215(2) 0.55383(19)
O1A O -0.5495(4) 0.6418(2) 0.65110(19)
O2A O -0.6496(4) 0.8410(2) 0.69184(16)
C1A C -0.3487(5) 0.8740(3) 0.5949(2)
C2A C -0.1349(6) 1.2851(3) 0.5416(2)
C3A C -0.3106(6) 1.0527(3) 0.5873(2)
C4A C -0.5015(6) 0.8143(3) 0.6400(2)
O3A O -0.3731(4) 1.3937(2) 0.59887(19)
C5A C -0.2756(6) 0.7295(3) 0.5721(2)
N2A N -0.1170(5) 1.1895(2) 0.5390(2)
C6A C -0.4567(6) 0.7263(3) 0.6253(2)
C7A C -0.2810(6) 1.1479(3) 0.5818(2)
C8A C -0.3290(6) 0.9691(3) 0.5906(2)
C9A C -0.4088(6) 1.2178(3) 0.6148(2)
C10A C -0.1770(6) 0.6535(3) 0.5446(3)
H1A H -0.2419 0.5967 0.5616
O4A O -0.5899(5) 1.2046(3) 0.6569(2)
C11A C -0.7541(7) 0.6519(4) 0.6852(3)
H2A H -0.8361 0.7172 0.6479
H3A H -0.8134 0.5950 0.6887
H4A H -0.7502 0.6503 0.7420
C12A C -0.3187(6) 1.3031(3) 0.5882(2)
C13A C -0.0011(6) 1.3542(3) 0.5036(2)
H5A H -0.0367 1.4159 0.5119
C14A C -0.8067(7) 0.9284(4) 0.6476(3)
H6A H -0.8850 0.9109 0.6130
H7A H -0.8958 0.9464 0.6891
H8A H -0.7455 0.9870 0.6109
C15A C -0.6054(13) 1.1247(6) 0.7274(5)
H9A H -0.4743 1.0777 0.7414
H10A H -0.6484 1.1470 0.7733
H11A H -0.7050 1.0895 0.7204
C16A C -0.5783(7) 1.4206(4) 0.6256(3)
H12A H -0.5940 1.3773 0.6859
H13A H -0.6073 1.4930 0.6166
H14A H -0.6721 1.4098 0.5922
H15A H 0.017(9) 1.158(5) 0.501(4)
N3 N 0.6983(5) 0.6249(2) 0.05489(19)
O5 O 1.0915(5) 0.1265(2) 0.16424(19)
O6 O 1.1309(4) 0.4650(2) 0.19447(16)
C17 C 0.8360(6) 0.5333(3) 0.0943(2)
C18 C 0.6531(6) 0.1713(3) 0.0385(2)
N4 N 0.6428(5) 0.2700(3) 0.0335(2)
O7 O 0.8731(5) 0.0031(2) 0.1046(2)
C19 C 0.8236(6) 0.3593(3) 0.0844(2)
C20 C 0.8281(6) 0.4420(3) 0.0866(2)
O8 O 1.0126(6) 0.7021(2) 0.1652(2)
C21 C 0.8035(6) 0.2697(3) 0.0781(2)
C22 C 0.9224(6) 0.1658(3) 0.1134(2)
C23 C 0.9825(6) 0.5460(3) 0.1440(2)
C24 C 0.7519(6) 0.6964(3) 0.0776(2)
C25 C 0.9294(7) 0.6465(3) 0.1335(2)
C26 C 0.6551(7) 0.8004(3) 0.0510(3)
H16 H 0.7171 0.8388 0.0706
C27 C 0.5167(7) 0.1424(3) -0.0005(3)
H17 H 0.5471 0.0719 0.0092
C28 C 0.8258(6) 0.1067(3) 0.0881(2)
C29 C 1.1969(7) 0.1941(4) 0.1756(3)
H18 H 1.2166 0.2493 0.1204
H19 H 1.3283 0.1558 0.2013
H20 H 1.1183 0.2238 0.2128
C30 C 1.0757(8) -0.0498(4) 0.1242(4)
H21 H 1.1636 -0.0170 0.0769
H22 H 1.0867 -0.1215 0.1333
H23 H 1.1166 -0.0473 0.1757
C31 C 1.3107(7) 0.4426(4) 0.1489(3)
H24 H 1.2739 0.4297 0.1017
H25 H 1.4013 0.3816 0.1874
H26 H 1.3788 0.5012 0.1267
C32 C 1.1699(13) 0.6497(5) 0.2252(5)
H27 H 1.1346 0.5861 0.2683
H28 H 1.1892 0.6936 0.2526
H29 H 1.2948 0.6332 0.1964
H30 H 0.537(5) 0.332(3) 0.003(2)
N3A N 0.3017(5) 0.3751(2) -0.05489(19)
O5A O -0.0915(5) 0.8735(2) -0.16424(19)
O6A O -0.1309(4) 0.5350(2) -0.19447(16)
C17A C 0.1640(6) 0.4667(3) -0.0943(2)
C18A C 0.3469(6) 0.8287(3) -0.0385(2)
N4A N 0.3572(5) 0.7300(3) -0.0335(2)
O7A O 0.1269(5) 0.9969(2) -0.1046(2)
C19A C 0.1764(6) 0.6407(3) -0.0844(2)
C20A C 0.1719(6) 0.5580(3) -0.0866(2)
O8A O -0.0126(6) 0.2979(2) -0.1652(2)
C21A C 0.1965(6) 0.7303(3) -0.0781(2)
C22A C 0.0776(6) 0.8342(3) -0.1134(2)
C23A C 0.0175(6) 0.4540(3) -0.1440(2)
C24A C 0.2481(6) 0.3036(3) -0.0776(2)
C25A C 0.0706(7) 0.3535(3) -0.1335(2)
C26A C 0.3449(7) 0.1996(3) -0.0510(3)
H16A H 0.2829 0.1612 -0.0706
C27A C 0.4833(7) 0.8576(3) 0.0005(3)
H17A H 0.4529 0.9281 -0.0092
C28A C 0.1742(6) 0.8933(3) -0.0881(2)
C29A C -0.1969(7) 0.8059(4) -0.1756(3)
H18A H -0.2166 0.7507 -0.1204
H19A H -0.3283 0.8442 -0.2013
H20A H -0.1183 0.7762 -0.2128
C30A C -0.0757(8) 1.0498(4) -0.1242(4)
H21A H -0.1636 1.0170 -0.0769
H22A H -0.0867 1.1215 -0.1333
H23A H -0.1166 1.0473 -0.1757
C31A C -0.3107(7) 0.5574(4) -0.1489(3)
H24A H -0.2739 0.5703 -0.1017
H25A H -0.4013 0.6184 -0.1874
H26A H -0.3788 0.4988 -0.1267
C32A C -0.1699(13) 0.3503(5) -0.2252(5)
H27A H -0.1346 0.4139 -0.2683
H28A H -0.1892 0.3064 -0.2526
H29A H -0.2948 0.3668 -0.1964
H30A H 0.463(5) 0.668(3) -0.003(2)
loop_
_geom_bond_atom_site_label_1
_geom_bond_atom_site_label_2
_geom_bond_site_symmetry_1
_geom_bond_site_symmetry_2
N1 C1 1_555 1_555
O1 C6 1_555 1_555
O2 C4 1_555 1_555
C1 C4 1_555 1_555
C2 N2 1_555 1_555
C3 C7 1_555 1_555
C4 C6 1_555 1_555
O3 C12 1_555 1_555
C5 N1 1_555 1_555
N2 C7 1_555 1_555
C6 C5 1_555 1_555
C7 C9 1_555 1_555
C8 C1 1_555 1_555
C9 O4 1_555 1_555
C10 C5 1_555 1_555
H1 C10 1_555 1_555
O4 C15 1_555 1_555
C11 O1 1_555 1_555
H2 C11 1_555 1_555
H3 C11 1_555 1_555
H4 C11 1_555 1_555
C12 C2 1_555 1_555
C13 C2 1_555 1_555
H5 C13 1_555 1_555
C14 O2 1_555 1_555
H6 C14 1_555 1_555
H7 C14 1_555 1_555
H8 C14 1_555 1_555
C15 H9 1_555 1_555
H10 C15 1_555 1_555
H11 C15 1_555 1_555
C16 O3 1_555 1_555
H12 C16 1_555 1_555
H13 C16 1_555 1_555
H14 C16 1_555 1_555
H15 N2 1_555 1_555
N3 C17 1_555 1_555
O5 C22 1_555 1_555
O6 C23 1_555 1_555
C17 C20 1_555 1_555
C18 N4 1_555 1_555
N4 C21 1_555 1_555
O7 C28 1_555 1_555
C19 C20 1_555 1_555
O8 C25 1_555 1_555
C21 C19 1_555 1_555
C22 C21 1_555 1_555
C23 C17 1_555 1_555
C24 N3 1_555 1_555
C25 C23 1_555 1_555
C26 C24 1_555 1_555
H16 C26 1_555 1_555
C27 C18 1_555 1_555
H17 C27 1_555 1_555
C28 C18 1_555 1_555
C29 O5 1_555 1_555
H18 C29 1_555 1_555
H19 C29 1_555 1_555
H20 C29 1_555 1_555
C30 O7 1_555 1_555
H21 C30 1_555 1_555
H22 C30 1_555 1_555
H23 C30 1_555 1_555
C31 O6 1_555 1_555
H24 C31 1_555 1_555
H25 C31 1_555 1_555
H26 C31 1_555 1_555
C32 O8 1_555 1_555
H27 C32 1_555 1_555
H28 C32 1_555 1_555
H29 C32 1_555 1_555
H30 N4 1_555 1_555
N1A C1A 1_555 1_555
O1A C6A 1_555 1_555
O2A C4A 1_555 1_555
C1A C4A 1_555 1_555
C2A N2A 1_555 1_555
C3A C7A 1_555 1_555
C4A C6A 1_555 1_555
O3A C12A 1_555 1_555
C5A N1A 1_555 1_555
N2A C7A 1_555 1_555
C6A C5A 1_555 1_555
C7A C9A 1_555 1_555
C8A C1A 1_555 1_555
C9A O4A 1_555 1_555
C10A C13 1_555 1_555
H1A C10A 1_555 1_555
O4A C15A 1_555 1_555
C11A O1A 1_555 1_555
H2A C11A 1_555 1_555
H3A C11A 1_555 1_555
H4A C11A 1_555 1_555
C12A C2A 1_555 1_555
C13A C10 1_555 1_555
H5A C13A 1_555 1_555
C14A O2A 1_555 1_555
H6A C14A 1_555 1_555
H7A C14A 1_555 1_555
H8A C14A 1_555 1_555
C15A H9A 1_555 1_555
H10A C15A 1_555 1_555
H11A C15A 1_555 1_555
C16A O3A 1_555 1_555
H12A C16A 1_555 1_555
H13A C16A 1_555 1_555
H14A C16A 1_555 1_555
H15A N2A 1_555 1_555
N3A C17A 1_555 1_555
O5A C22A 1_555 1_555
O6A C23A 1_555 1_555
C17A C20A 1_555 1_555
C18A N4A 1_555 1_555
N4A C21A 1_555 1_555
O7A C28A 1_555 1_555
C19A C20A 1_555 1_555
O8A C25A 1_555 1_555
C21A C19A 1_555 1_555
C22A C21A 1_555 1_555
C23A C17A 1_555 1_555
C24A N3A 1_555 1_555
C25A C23A 1_555 1_555
C26A C27 1_555 1_555
H16A C26A 1_555 1_555
C27A C26 1_555 1_555
H17A C27A 1_555 1_555
C28A C18A 1_555 1_555
C29A O5A 1_555 1_555
H18A C29A 1_555 1_555
H19A C29A 1_555 1_555
H20A C29A 1_555 1_555
C30A O7A 1_555 1_555
H21A C30A 1_555 1_555
H22A C30A 1_555 1_555
H23A C30A 1_555 1_555
C31A O6A 1_555 1_555
H24A C31A 1_555 1_555
H25A C31A 1_555 1_555
H26A C31A 1_555 1_555
C32A O8A 1_555 1_555
H27A C32A 1_555 1_555
H28A C32A 1_555 1_555
H29A C32A 1_555 1_555
H30A N4A 1_555 1_555
C3 C8 1_555 1_555
C9 C12 1_555 1_555
C22 C28 1_555 1_555
C24 C25 1_555 1_555
C2A C13A 1_555 1_555
C3A C8A 1_555 1_555
C5A C10A 1_555 1_555
C9A C12A 1_555 1_555
C18A C27A 1_555 1_555
C22A C28A 1_555 1_555
C24A C25A 1_555 1_555
C24A C26A 1_555 1_555

#END
