
#######################################################################
#
#                 Cambridge Crystallographic Data Centre
#                                CCDC 
#
#######################################################################
#
# If this CIF has been generated from an entry in the Cambridge 
# Structural Database, then it will include bibliographic, chemical, 
# crystal, experimental, refinement or atomic coordinate data resulting 
# from the CCDC's data processing and validation procedures.
#
#######################################################################

data_MUTMAQ
_chemical_formula_moiety         'C10 H12 N3 1+,C6 H2 N3 O7 1-'
_chemical_name_systematic        
'5,7-Dimethyl-1,8-naphthyridinio-2-amine 2,4,6-trinitrophenolate'
_symmetry_cell_setting           triclinic
_symmetry_space_group_name_H-M   'P -1'
_symmetry_Int_Tables_number      2
_space_group_name_Hall           '-P 1'
loop_
_symmetry_equiv_pos_site_id
_symmetry_equiv_pos_as_xyz
1 x,y,z
2 -x,-y,-z
_cell_length_a                   7.9058(10)
_cell_length_b                   8.0659(11)
_cell_length_c                   14.0204(17)
_cell_angle_alpha                83.3330(10)
_cell_angle_beta                 84.249(2)
_cell_angle_gamma                83.9670(10)
_cell_volume                     879.568
_chemical_melting_point          202-203deg.C
_cell_formula_units_Z            2
loop_
_atom_site_label
_atom_site_type_symbol
_atom_site_fract_x
_atom_site_fract_y
_atom_site_fract_z
N1 N 0.7603(3) 0.0973(3) 0.52612(14)
N2 N 0.5773(3) 0.0631(3) 0.66283(14)
H1 H 0.6594 -0.0002 0.6879
N3 N 0.9413(3) 0.1300(4) 0.38937(17)
H2 H 1.0181 0.0656 0.4185
H3 H 0.9634 0.1717 0.3307
C1 C 0.7881(4) 0.1652(4) 0.43517(19)
C2 C 0.6618(5) 0.2722(4) 0.3874(2)
H4 H 0.6864 0.3188 0.3243
C3 C 0.5083(4) 0.3059(4) 0.4327(2)
H5 H 0.4253 0.3751 0.4009
C4 C 0.4703(4) 0.2368(3) 0.52956(18)
C5 C 0.6051(3) 0.1335(3) 0.57089(17)
C6 C 0.4290(4) 0.0864(3) 0.71696(19)
C7 C 0.2956(4) 0.1842(4) 0.6769(2)
H6 H 0.1916 0.1996 0.7135
C8 C 0.3130(4) 0.2599(4) 0.5836(2)
C9 C 0.4179(4) 0.0054(4) 0.8179(2)
H7 H 0.4618 -0.1103 0.8187
H8 H 0.3009 0.0127 0.8443
H9 H 0.4840 0.0614 0.8559
C10 C 0.1618(4) 0.3633(5) 0.5421(3)
H10 H 0.1210 0.3054 0.4941
H11 H 0.1957 0.4699 0.5131
H12 H 0.0725 0.3802 0.5926
N4 N 0.6974(4) 0.4454(3) 0.78625(19)
N5 N 0.7927(3) 0.4772(3) 1.11962(17)
N6 N 0.8692(4) 0.9663(3) 0.8911(2)
O1 O 0.7723(3) 0.7821(2) 0.74463(13)
O2 O 0.7840(4) 0.4477(3) 0.70980(16)
O3 O 0.5762(4) 0.3649(4) 0.8060(2)
O4 O 0.7502(4) 0.3349(3) 1.13724(15)
O5 O 0.8439(3) 0.5513(3) 1.18064(14)
O6 O 0.8334(4) 1.0555(3) 0.95577(19)
O7 O 0.9399(4) 1.0151(3) 0.81467(19)
C11 C 0.7828(3) 0.7129(3) 0.82912(18)
C12 C 0.7421(3) 0.5444(3) 0.85953(17)
C13 C 0.7391(3) 0.4704(3) 0.95151(18)
H13 H 0.7069 0.3622 0.9666
C14 C 0.7846(3) 0.5580(3) 1.02262(17)
C15 C 0.8275(3) 0.7201(3) 1.00158(19)
H14 H 0.8570 0.7786 1.0499
C16 C 0.8261(3) 0.7943(3) 0.90847(19)
loop_
_geom_bond_atom_site_label_1
_geom_bond_atom_site_label_2
_geom_bond_site_symmetry_1
_geom_bond_site_symmetry_2
N1 C1 1_555 1_555
N2 H1 1_555 1_555
N3 H2 1_555 1_555
H3 N3 1_555 1_555
N4 O2 1_555 1_555
N5 O4 1_555 1_555
N6 O6 1_555 1_555
O1 C11 1_555 1_555
O3 N4 1_555 1_555
O5 N5 1_555 1_555
O7 N6 1_555 1_555
C1 N3 1_555 1_555
C2 C1 1_555 1_555
H4 C2 1_555 1_555
C3 C2 1_555 1_555
H5 C3 1_555 1_555
C4 C3 1_555 1_555
C5 N1 1_555 1_555
C6 N2 1_555 1_555
C7 C6 1_555 1_555
H6 C7 1_555 1_555
C8 C4 1_555 1_555
C9 C6 1_555 1_555
H7 C9 1_555 1_555
H8 C9 1_555 1_555
H9 C9 1_555 1_555
C10 C8 1_555 1_555
H10 C10 1_555 1_555
H11 C10 1_555 1_555
H12 C10 1_555 1_555
C11 C12 1_555 1_555
C12 N4 1_555 1_555
C13 C12 1_555 1_555
H13 C13 1_555 1_555
C14 N5 1_555 1_555
C15 C14 1_555 1_555
H14 C15 1_555 1_555
C16 N6 1_555 1_555
N2 C5 1_555 1_555
C4 C5 1_555 1_555
C7 C8 1_555 1_555
C11 C16 1_555 1_555
C13 C14 1_555 1_555
C15 C16 1_555 1_555

#END
