
#######################################################################
#
#                 Cambridge Crystallographic Data Centre
#                                CCDC 
#
#######################################################################
#
# If this CIF has been generated from an entry in the Cambridge 
# Structural Database, then it will include bibliographic, chemical, 
# crystal, experimental, refinement or atomic coordinate data resulting 
# from the CCDC's data processing and validation procedures.
#
#######################################################################

data_MUTMOE
_chemical_formula_moiety         'C20 H24 N1 O1 1+,N1 O3 1-'
_chemical_name_systematic        
'2r,6c-Diphenyl-3t-isopropyl-4-oxopiperidinium nitrate'
_symmetry_cell_setting           orthorhombic
_symmetry_space_group_name_H-M   'P c a 21'
_symmetry_Int_Tables_number      29
_space_group_name_Hall           'P 2c -2ac'
loop_
_symmetry_equiv_pos_site_id
_symmetry_equiv_pos_as_xyz
1 x,y,z
2 -x,-y,1/2+z
3 1/2+x,-y,z
4 1/2-x,y,1/2+z
_cell_length_a                   18.2615(9)
_cell_length_b                   11.3366(7)
_cell_length_c                   8.9987(4)
_cell_angle_alpha                90
_cell_angle_beta                 90
_cell_angle_gamma                90
_cell_volume                     1862.94
_exptl_crystal_colour            colorless
_exptl_crystal_description       needle
_chemical_melting_point          158-160deg.C
_cell_formula_units_Z            4
_exptl_crystal_recrystallization_method ethanol/methanol
loop_
_atom_site_label
_atom_site_type_symbol
_atom_site_fract_x
_atom_site_fract_y
_atom_site_fract_z
O1 O 0.77064(9) 0.62594(16) 0.5412(2)
N1 N 0.90032(11) 0.53416(16) 0.20039(17)
C1 C 1.01490(13) 0.7469(2) 0.2251(3)
H1 H 1.0248 0.7102 0.3153
C2 C 1.06882(15) 0.8115(3) 0.1557(4)
H2 H 1.1149 0.8189 0.1989
C3 C 1.05395(19) 0.8651(3) 0.0218(4)
H3 H 1.0905 0.9071 -0.0271
C4 C 0.9860(2) 0.8571(3) -0.0394(3)
H4 H 0.9756 0.8956 -0.1282
C5 C 0.93274(14) 0.7918(2) 0.0306(3)
H5 H 0.8866 0.7855 -0.0125
C6 C 0.94645(12) 0.7361(2) 0.1622(3)
C7 C 0.88667(11) 0.66279(19) 0.2334(3)
H6 H 0.8403 0.6846 0.1859
C8 C 0.87730(12) 0.6806(2) 0.4022(3)
H7 H 0.9239 0.6575 0.4479
C9 C 0.82005(13) 0.5957(2) 0.4610(3)
C10 C 0.82973(14) 0.4697(2) 0.4151(3)
H8 H 0.7878 0.4241 0.4480
H9 H 0.8730 0.4377 0.4629
C11 C 0.83753(12) 0.4580(2) 0.2481(3)
H10 H 0.7931 0.4910 0.2034
C12 C 0.84433(12) 0.33282(19) 0.1942(3)
C13 C 0.78165(14) 0.2670(3) 0.1873(4)
H11 H 0.7373 0.3004 0.2157
C14 C 0.78344(17) 0.1521(3) 0.1391(6)
H12 H 0.7404 0.1083 0.1369
C15 C 0.84678(18) 0.1018(3) 0.0947(4)
H13 H 0.8472 0.0243 0.0608
C16 C 0.90941(17) 0.1646(3) 0.0998(4)
H14 H 0.9533 0.1305 0.0698
C17 C 0.90817(15) 0.2806(2) 0.1502(3)
H15 H 0.9516 0.3234 0.1541
C18 C 0.86501(14) 0.8110(2) 0.4434(3)
H16 H 0.9051 0.8557 0.3981
C19 C 0.87189(16) 0.8270(3) 0.6109(3)
H17 H 0.9171 0.7931 0.6444
H18 H 0.8317 0.7885 0.6595
H19 H 0.8712 0.9096 0.6344
C20 C 0.79458(16) 0.8630(3) 0.3846(4)
H20 H 0.7920 0.8512 0.2791
H21 H 0.7933 0.9460 0.4059
H22 H 0.7537 0.8250 0.4314
H23 H 0.9414(10) 0.509(3) 0.245(3)
H24 H 0.9074(18) 0.520(3) 0.1029(9)
O2 O 0.97513(10) 0.51370(17) 0.9090(2)
O3 O 0.93510(11) 0.5386(2) 0.6889(2)
N2 N 0.92241(13) 0.52564(19) 0.8216(3)
O4 O 0.86066(12) 0.5249(3) 0.8731(3)
loop_
_geom_bond_atom_site_label_1
_geom_bond_atom_site_label_2
_geom_bond_site_symmetry_1
_geom_bond_site_symmetry_2
O1 C9 1_555 1_555
N1 C7 1_555 1_555
C1 H1 1_555 1_555
C2 C1 1_555 1_555
H2 C2 1_555 1_555
C3 C2 1_555 1_555
H3 C3 1_555 1_555
C4 C3 1_555 1_555
H4 C4 1_555 1_555
C5 C4 1_555 1_555
H5 C5 1_555 1_555
C6 C1 1_555 1_555
C7 C6 1_555 1_555
H6 C7 1_555 1_555
C8 C7 1_555 1_555
H7 C8 1_555 1_555
C9 C8 1_555 1_555
C10 C9 1_555 1_555
H8 C10 1_555 1_555
H9 C10 1_555 1_555
C11 N1 1_555 1_555
H10 C11 1_555 1_555
C12 C11 1_555 1_555
C13 C12 1_555 1_555
H11 C13 1_555 1_555
C14 C13 1_555 1_555
H12 C14 1_555 1_555
C15 C14 1_555 1_555
H13 C15 1_555 1_555
C16 C15 1_555 1_555
H14 C16 1_555 1_555
C17 C12 1_555 1_555
H15 C17 1_555 1_555
C18 C8 1_555 1_555
H16 C18 1_555 1_555
C19 C18 1_555 1_555
H17 C19 1_555 1_555
H18 C19 1_555 1_555
H19 C19 1_555 1_555
C20 C18 1_555 1_555
H20 C20 1_555 1_555
H21 C20 1_555 1_555
H22 C20 1_555 1_555
H23 N1 1_555 1_555
H24 N1 1_555 1_555
O2 N2 1_555 1_555
O3 N2 1_555 1_555
N2 O4 1_555 1_555
C5 C6 1_555 1_555
C10 C11 1_555 1_555
C16 C17 1_555 1_555

#END
