
#######################################################################
#
#                 Cambridge Crystallographic Data Centre
#                                CCDC 
#
#######################################################################
#
# If this CIF has been generated from an entry in the Cambridge 
# Structural Database, then it will include bibliographic, chemical, 
# crystal, experimental, refinement or atomic coordinate data resulting 
# from the CCDC's data processing and validation procedures.
#
#######################################################################

data_MUTMIY
_chemical_formula_moiety         'C10 H11 N3,C10 H12 N3 1+,C8 H5 O4 1-'
_chemical_name_systematic        
'5,7-Dimethyl-1,8-naphthyridinio-2-amine hydrogen terephthalate 5,7-dimethyl-1,8-naphthyridine-2-amine'
_symmetry_cell_setting           triclinic
_symmetry_space_group_name_H-M   'P -1'
_symmetry_Int_Tables_number      2
_space_group_name_Hall           '-P 1'
loop_
_symmetry_equiv_pos_site_id
_symmetry_equiv_pos_as_xyz
1 x,y,z
2 -x,-y,-z
_cell_length_a                   7.8990(10)
_cell_length_b                   11.4371(14)
_cell_length_c                   14.5669(16)
_cell_angle_alpha                97.7550(10)
_cell_angle_beta                 100.522(2)
_cell_angle_gamma                103.618(2)
_cell_volume                     1235.5
_chemical_melting_point          180-182deg.C
_cell_formula_units_Z            2
loop_
_atom_site_label
_atom_site_type_symbol
_atom_site_fract_x
_atom_site_fract_y
_atom_site_fract_z
N1 N 0.2769(3) 1.08523(19) 0.10381(15)
N2 N 0.0922(3) 0.8939(2) 0.09486(15)
N3 N 0.4632(3) 1.2742(2) 0.10980(16)
H1 H 0.4722 1.2502 0.0528
H2 H 0.5193 1.3473 0.1394
C9 C 0.3617(4) 1.1979(3) 0.1524(2)
C10 C 0.3483(4) 1.2380(3) 0.2472(2)
H11 H 0.4076 1.3175 0.2785
C11 C 0.2500(4) 1.1608(3) 0.2913(2)
H12 H 0.2416 1.1869 0.3532
C12 C 0.1589(4) 1.0392(2) 0.24321(19)
C13 C 0.1749(4) 1.0066(3) 0.14856(19)
C14 C -0.0068(4) 0.8122(3) 0.1342(2)
C15 C -0.0275(4) 0.8378(3) 0.2268(2)
H13 H -0.0983 0.7776 0.2509
C16 C 0.0545(4) 0.9502(3) 0.2834(2)
C17 C -0.0984(4) 0.6893(3) 0.0730(2)
H14 H -0.1701 0.6994 0.0154
H15 H -0.1734 0.6407 0.1065
H16 H -0.0105 0.6490 0.0580
C18 C 0.0356(4) 0.9762(3) 0.3846(2)
H17 H -0.0597 0.9129 0.3945
H18 H 0.0092 1.0538 0.3969
H19 H 0.1452 0.9783 0.4269
N4 N 0.3087(3) 0.00272(19) 0.90522(15)
H3 H 0.3024 0.0269 0.9627
N5 N 0.4826(3) 0.1968(2) 0.91294(16)
N6 N 0.1323(3) -0.1877(2) 0.90849(16)
H4 H 0.1270 -0.1620 0.9659
H5 H 0.0780 -0.2620 0.8811
C19 C 0.2234(4) -0.1135(3) 0.86272(19)
C20 C 0.2339(4) -0.1526(3) 0.7671(2)
H20 H 0.1767 -0.2326 0.7362
C21 C 0.3265(4) -0.0737(3) 0.7215(2)
H21 H 0.3321 -0.1004 0.6592
C22 C 0.4151(4) 0.0487(2) 0.7661(2)
C23 C 0.4059(4) 0.0848(2) 0.86040(19)
C24 C 0.5749(4) 0.2800(3) 0.8701(2)
C25 C 0.5903(4) 0.2512(3) 0.7767(2)
H22 H 0.6553 0.3111 0.7500
C26 C 0.5115(4) 0.1362(3) 0.7230(2)
C27 C 0.6559(5) 0.4063(3) 0.9286(3)
H23 H 0.5637 0.4472 0.9327
H24 H 0.7423 0.4518 0.8991
H25 H 0.7133 0.4006 0.9912
C28 C 0.5251(4) 0.1094(3) 0.6213(2)
H26 H 0.5238 0.0250 0.6045
H27 H 0.6345 0.1608 0.6134
H28 H 0.4257 0.1252 0.5810
O1 O -0.2198(3) 0.7274(2) 0.48471(19)
O2 O -0.3404(3) 0.6038(3) 0.34874(19)
O3 O -0.2550(4) 0.4803(2) 0.22959(17)
H6 H -0.2822 0.5157 0.2753
O4 O -0.0187(4) 0.4357(2) 0.19471(18)
C1 C -0.2080(5) 0.6548(3) 0.4189(3)
C2 C -0.0916(6) 0.4851(3) 0.2499(3)
C3 C -0.0293(4) 0.6224(2) 0.4203(2)
C4 C 0.0212(4) 0.5501(2) 0.3481(2)
C5 C 0.1928(6) 0.5347(3) 0.3684(3)
H7 H 0.2290 0.4879 0.3222
C6 C 0.3129(5) 0.5868(4) 0.4554(3)
H8 H 0.4271 0.5754 0.4671
C7 C 0.2590(6) 0.6542(3) 0.5222(3)
H9 H 0.3370 0.6895 0.5806
C8 C 0.0938(5) 0.6712(3) 0.5053(2)
H10 H 0.0611 0.7178 0.5531
loop_
_geom_bond_atom_site_label_1
_geom_bond_atom_site_label_2
_geom_bond_site_symmetry_1
_geom_bond_site_symmetry_2
N1 C9 1_555 1_555
N2 C13 1_555 1_555
N3 H1 1_555 1_555
H2 N3 1_555 1_555
N4 H3 1_555 1_555
N5 C23 1_555 1_555
N6 H4 1_555 1_555
H5 N6 1_555 1_555
O1 C1 1_555 1_555
O2 C1 1_555 1_555
O3 H6 1_555 1_555
O4 C2 1_555 1_555
C1 C3 1_555 1_555
C2 O3 1_555 1_555
C3 C4 1_555 1_555
C4 C2 1_555 1_555
C5 C4 1_555 1_555
H7 C5 1_555 1_555
C6 C5 1_555 1_555
H8 C6 1_555 1_555
C7 C6 1_555 1_555
H9 C7 1_555 1_555
C8 C3 1_555 1_555
H10 C8 1_555 1_555
C9 N3 1_555 1_555
C10 C9 1_555 1_555
H11 C10 1_555 1_555
C11 C10 1_555 1_555
H12 C11 1_555 1_555
C12 C11 1_555 1_555
C13 N1 1_555 1_555
C14 N2 1_555 1_555
C15 C14 1_555 1_555
H13 C15 1_555 1_555
C16 C12 1_555 1_555
C17 C14 1_555 1_555
H14 C17 1_555 1_555
H15 C17 1_555 1_555
H16 C17 1_555 1_555
C18 C16 1_555 1_555
H17 C18 1_555 1_555
H18 C18 1_555 1_555
H19 C18 1_555 1_555
C19 N4 1_555 1_555
C20 C19 1_555 1_555
H20 C20 1_555 1_555
C21 C20 1_555 1_555
H21 C21 1_555 1_555
C22 C21 1_555 1_555
C23 N4 1_555 1_555
C24 N5 1_555 1_555
C25 C24 1_555 1_555
H22 C25 1_555 1_555
C26 C22 1_555 1_555
C27 C24 1_555 1_555
H23 C27 1_555 1_555
H24 C27 1_555 1_555
H25 C27 1_555 1_555
C28 C26 1_555 1_555
H26 C28 1_555 1_555
H27 C28 1_555 1_555
H28 C28 1_555 1_555
N6 C19 1_555 1_555
C7 C8 1_555 1_555
C12 C13 1_555 1_555
C15 C16 1_555 1_555
C22 C23 1_555 1_555
C25 C26 1_555 1_555

#END
