
#######################################################################
#
#                 Cambridge Crystallographic Data Centre
#                                CCDC 
#
#######################################################################
#
# If this CIF has been generated from an entry in the Cambridge 
# Structural Database, then it will include bibliographic, chemical, 
# crystal, experimental, refinement or atomic coordinate data resulting 
# from the CCDC's data processing and validation procedures.
#
#######################################################################

data_MUTQIC
_chemical_formula_moiety         'C20 H32 O5,3(H2 O1)'
_chemical_name_systematic        
'ent-12\a,16\b,17-Trihydroxykauran-19-oic acid trihydrate'
_chemical_properties_biological  
'tested for cytotoxic activity against human leukaemia K562 cell line'
_symmetry_cell_setting           orthorhombic
_symmetry_space_group_name_H-M   'P 21 21 21'
_symmetry_Int_Tables_number      19
_space_group_name_Hall           'P 2ac 2ab'
loop_
_symmetry_equiv_pos_site_id
_symmetry_equiv_pos_as_xyz
1 x,y,z
2 1/2-x,-y,1/2+z
3 1/2+x,1/2-y,-z
4 -x,1/2+y,1/2-z
_cell_length_a                   7.50000(10)
_cell_length_b                   12.383
_cell_length_c                   22.14790(10)
_cell_angle_alpha                90
_cell_angle_beta                 90
_cell_angle_gamma                90
_cell_volume                     2056.93
_cell_formula_units_Z            4
loop_
_atom_site_label
_atom_site_type_symbol
_atom_site_fract_x
_atom_site_fract_y
_atom_site_fract_z
O1 O -0.29040(19) 0.81638(11) 1.04401(6)
H4 H -0.2927 0.8125 1.083
H5 H -0.4064 0.832 1.0309
O2 O -0.3036(3) 0.8798(2) 0.90215(9)
H1 H 0.130(3) 1.3767(17) 1.1135(10)
H2 H -0.040(3) 1.3101(17) 1.1345(9)
H3 H -0.171(4) 0.956(2) 1.0144(12)
H6 H 0.012(4) 1.468(2) 1.1942(13)
H7 H 0.024(3) 1.3581(18) 1.2382(10)
H8 H 0.329(4) 0.840(2) 0.9702(12)
H9 H 0.326(4) 1.475(2) 1.1875(13)
H10 H 0.273(4) 1.474(2) 1.2574(13)
H11 H 0.411(4) 1.149(2) 1.3242(13)
H12 H 0.433(3) 1.3069(17) 1.1398(10)
H13 H -0.024(4) 0.921(2) 0.9195(13)
H14 H 0.635(3) 1.1756(18) 1.1854(10)
H15 H 0.467(3) 1.1016(18) 1.1966(10)
H16 H 0.587(4) 1.175(2) 1.0810(13)
H17 H 0.623(3) 1.0521(17) 1.1032(10)
H18 H 0.268(3) 1.2413(16) 1.0598(9)
H19 H -0.057(4) 1.182(2) 1.0676(12)
H20 H 0.056(3) 1.1690(17) 1.0103(10)
H21 H -0.052(3) 1.0047(19) 1.0928(11)
H22 H 0.122(4) 0.878(2) 1.0476(12)
H23 H 0.242(3) 0.9736(17) 1.1318(10)
H24 H 0.379(3) 0.9214(17) 1.0935(10)
H25 H 0.352(3) 1.1336(17) 0.9819(9)
H26 H 0.518(3) 1.0477(19) 1.0002(11)
H27 H 0.279(3) 1.0084(18) 0.8969(10)
H28 H 0.120(4) 1.053(2) 0.9319(12)
H29 H 0.628(4) 1.406(2) 1.2017(12)
H30 H 0.589(4) 1.429(2) 1.2667(12)
H31 H 0.674(4) 1.314(2) 1.2468(11)
H32 H 0.167(4) 1.084(2) 1.2044(12)
H33 H 0.069(3) 1.1795(17) 1.2326(10)
H34 H -0.009(4) 1.121(2) 1.1746(12)
C1 C 0.0824(3) 1.32879(14) 1.14534(8)
C2 C 0.0839(3) 1.39703(15) 1.20316(9)
C3 C 0.2733(3) 1.42784(14) 1.22043(8)
C4 C 0.3961(2) 1.32904(13) 1.22956(7)
C5 C 0.3882(2) 1.25660(12) 1.17169(7)
C6 C 0.5152(2) 1.15971(14) 1.17032(8)
C7 C 0.5389(2) 1.11992(15) 1.10553(8)
C8 C 0.3627(2) 1.08823(12) 1.07527(7)
C9 C 0.2206(2) 1.17836(12) 1.08376(6)
C10 C 0.1973(2) 1.22451(12) 1.14968(7)
C11 C 0.0445(2) 1.14572(13) 1.05129(7)
C12 C -0.0028(2) 1.02558(13) 1.05095(7)
C13 C 0.1593(2) 0.95053(13) 1.04332(7)
C14 C 0.2899(2) 0.97666(13) 1.09462(7)
C15 C 0.3941(2) 1.06863(14) 1.00621(7)
C16 C 0.2760(2) 0.97272(13) 0.98689(7)
C17 C 0.1842(3) 0.99488(15) 0.92672(7)
C18 C 0.5891(3) 1.37151(17) 1.23806(9)
C19 C 0.3533(2) 1.27421(15) 1.28990(7)
C20 C 0.1025(2) 1.14646(15) 1.19370(8)
O4 O -0.13227(18) 1.00994(13) 1.00453(7)
O5 O 0.39183(19) 0.87950(11) 0.97866(6)
O6 O 0.4207(3) 1.17662(12) 1.29602(6)
O7 O 0.2754(3) 1.31919(14) 1.33034(7)
O8 O 0.0761(2) 0.90710(12) 0.90632(6)
O3? O -0.3566(5) 0.8106(2) 0.85489(12)
loop_
_geom_bond_atom_site_label_1
_geom_bond_atom_site_label_2
_geom_bond_site_symmetry_1
_geom_bond_site_symmetry_2
O1 H4 1_555 1_555
H1 C1 1_555 1_555
H2 C1 1_555 1_555
H3 O4 1_555 1_555
H5 O1 1_555 1_555
H6 C2 1_555 1_555
H7 C2 1_555 1_555
H8 O5 1_555 1_555
H9 C3 1_555 1_555
H10 C3 1_555 1_555
H11 O6 1_555 1_555
H12 C5 1_555 1_555
H13 O8 1_555 1_555
H14 C6 1_555 1_555
H15 C6 1_555 1_555
H16 C7 1_555 1_555
H17 C7 1_555 1_555
H18 C9 1_555 1_555
H19 C11 1_555 1_555
H20 C11 1_555 1_555
H21 C12 1_555 1_555
H22 C13 1_555 1_555
H23 C14 1_555 1_555
H24 C14 1_555 1_555
H25 C15 1_555 1_555
H26 C15 1_555 1_555
H27 C17 1_555 1_555
H28 C17 1_555 1_555
H29 C18 1_555 1_555
H30 C18 1_555 1_555
H31 C18 1_555 1_555
H32 C20 1_555 1_555
H33 C20 1_555 1_555
H34 C20 1_555 1_555
C1 C2 1_555 1_555
C2 C3 1_555 1_555
C3 C4 1_555 1_555
C4 C5 1_555 1_555
C5 C6 1_555 1_555
C6 C7 1_555 1_555
C7 C8 1_555 1_555
C8 C9 1_555 1_555
C9 C10 1_555 1_555
C10 C1 1_555 1_555
C11 C9 1_555 1_555
C12 C11 1_555 1_555
C13 C12 1_555 1_555
C14 C8 1_555 1_555
C15 C8 1_555 1_555
C16 C13 1_555 1_555
C17 C16 1_555 1_555
C18 C4 1_555 1_555
C19 C4 1_555 1_555
C20 C10 1_555 1_555
O4 C12 1_555 1_555
O5 C16 1_555 1_555
O6 C19 1_555 1_555
O7 C19 1_555 1_555
O8 C17 1_555 1_555
C5 C10 1_555 1_555
C13 C14 1_555 1_555
C15 C16 1_555 1_555

#END
