
#######################################################################
#
#                 Cambridge Crystallographic Data Centre
#                                CCDC 
#
#######################################################################
#
# If this CIF has been generated from an entry in the Cambridge 
# Structural Database, then it will include bibliographic, chemical, 
# crystal, experimental, refinement or atomic coordinate data resulting 
# from the CCDC's data processing and validation procedures.
#
#######################################################################

data_MUTSAW
_chemical_formula_moiety         'C6 H11 N3 O3'
_chemical_name_systematic        
2-(2-(Nitromethylene)imidazolidin-1-yl)ethanol
_symmetry_cell_setting           monoclinic
_symmetry_space_group_name_H-M   'P 21/n'
_symmetry_Int_Tables_number      14
_space_group_name_Hall           '-P 2yn'
loop_
_symmetry_equiv_pos_site_id
_symmetry_equiv_pos_as_xyz
1 x,y,z
2 1/2-x,1/2+y,1/2-z
3 -x,-y,-z
4 1/2+x,1/2-y,1/2+z
_cell_length_a                   6.9257(3)
_cell_length_b                   8.7071(4)
_cell_length_c                   12.9740(6)
_cell_angle_alpha                90
_cell_angle_beta                 94.4700(10)
_cell_angle_gamma                90
_cell_volume                     779.988
_exptl_crystal_colour            colorless
_exptl_crystal_description       block
_chemical_melting_point          '141-142 deg.C'
_cell_formula_units_Z            4
loop_
_atom_site_label
_atom_site_type_symbol
_atom_site_fract_x
_atom_site_fract_y
_atom_site_fract_z
C1 C 0.3660(3) -0.0912(2) 0.38755(14)
C2 C 0.2494(3) -0.3293(2) 0.4268(2)
H1 H 0.1567 -0.3844 0.3807
H2 H 0.2410 -0.3666 0.4968
C3 C 0.4515(3) -0.3462(2) 0.3936(2)
H3 H 0.5373 -0.3903 0.4484
H4 H 0.4528 -0.4105 0.3326
C4 C 0.3792(3) 0.0682(2) 0.37151(15)
H5 H 0.4939 0.1082 0.3500
C5 C 0.7046(3) -0.1528(2) 0.34676(16)
H6 H 0.7941 -0.2212 0.3854
H7 H 0.7350 -0.0487 0.3691
C6 C 0.7349(3) -0.1668(2) 0.23288(17)
H8 H 0.8709 -0.1512 0.2229
H9 H 0.7002 -0.2697 0.2095
N1 N 0.2163(2) -0.16542(19) 0.42085(14)
H10 H 0.1117 -0.1214 0.4370
N2 N 0.5083(2) -0.18936(18) 0.37109(13)
N3 N 0.2331(2) 0.16466(19) 0.38603(13)
O1 O 0.0745(2) 0.11794(18) 0.41720(12)
O2 O 0.2534(2) 0.30646(18) 0.36765(15)
O3 O 0.6236(2) -0.05947(17) 0.17287(12)
H11 H 0.5160 -0.0955 0.1570
loop_
_geom_bond_atom_site_label_1
_geom_bond_atom_site_label_2
_geom_bond_site_symmetry_1
_geom_bond_site_symmetry_2
C1 C4 1_555 1_555
C2 H1 1_555 1_555
H2 C2 1_555 1_555
C3 C2 1_555 1_555
H3 C3 1_555 1_555
H4 C3 1_555 1_555
C4 H5 1_555 1_555
C5 H6 1_555 1_555
H7 C5 1_555 1_555
C6 C5 1_555 1_555
H8 C6 1_555 1_555
H9 C6 1_555 1_555
N1 C1 1_555 1_555
H10 N1 1_555 1_555
N2 C1 1_555 1_555
N3 C4 1_555 1_555
O1 N3 1_555 1_555
O2 N3 1_555 1_555
O3 C6 1_555 1_555
H11 O3 1_555 1_555
C2 N1 1_555 1_555
C3 N2 1_555 1_555
C5 N2 1_555 1_555

#END
