
#######################################################################
#
#                 Cambridge Crystallographic Data Centre
#                                CCDC 
#
#######################################################################
#
# If this CIF has been generated from an entry in the Cambridge 
# Structural Database, then it will include bibliographic, chemical, 
# crystal, experimental, refinement or atomic coordinate data resulting 
# from the CCDC's data processing and validation procedures.
#
#######################################################################

data_MUTWOP
_chemical_formula_moiety         'C12 H8 N2 O4 Se2,2(C3 H7 N1 O1)'
_chemical_name_systematic        
"2,2'-Diselane-1,2-diyldinicotinic acid N,N-dimethylformamide solvate"
_symmetry_cell_setting           monoclinic
_symmetry_space_group_name_H-M   'P 21/c'
_symmetry_Int_Tables_number      14
_space_group_name_Hall           '-P 2ybc'
loop_
_symmetry_equiv_pos_site_id
_symmetry_equiv_pos_as_xyz
1 x,y,z
2 -x,1/2+y,1/2-z
3 -x,-y,-z
4 x,1/2-y,1/2+z
_cell_length_a                   7.3648(4)
_cell_length_b                   15.2480(7)
_cell_length_c                   9.9280(5)
_cell_angle_alpha                90
_cell_angle_beta                 101.311(3)
_cell_angle_gamma                90
_cell_volume                     1093.24
_exptl_crystal_colour            yellow
_exptl_crystal_description       needle
_cell_formula_units_Z            2
loop_
_atom_site_label
_atom_site_type_symbol
_atom_site_fract_x
_atom_site_fract_y
_atom_site_fract_z
Se1 Se 0.56530(3) -0.042762(11) 0.098005(18)
O1 O 0.7102(2) -0.10420(9) 0.34652(14)
O2 O 0.7980(2) -0.03870(9) 0.54909(15)
H1 H 0.8433 -0.1021 0.5749
N1 N 0.5039(2) 0.13103(10) 0.16567(16)
C1 C 0.6459(3) 0.04595(11) 0.36181(19)
C2 C 0.7206(3) -0.03887(12) 0.41781(19)
C3 C 0.5718(2) 0.05489(11) 0.22115(18)
C4 C 0.5041(3) 0.19907(12) 0.2501(2)
H2 H 0.4556 0.2519 0.2121
C5 C 0.6429(3) 0.11870(13) 0.4447(2)
H3 H 0.6899 0.1148 0.5385
C6 C 0.5708(3) 0.19661(14) 0.3890(2)
H4 H 0.5673 0.2459 0.4435
Se1B Se 0.43470(3) 0.042762(11) -0.098005(18)
O1B O 0.2898(2) 0.10420(9) -0.34652(14)
O2B O 0.2020(2) 0.03870(9) -0.54909(15)
H1B H 0.1567 0.1021 -0.5749
N1B N 0.4961(2) -0.13103(10) -0.16567(16)
C1B C 0.3541(3) -0.04595(11) -0.36181(19)
C2B C 0.2794(3) 0.03887(12) -0.41781(19)
C3B C 0.4282(2) -0.05489(11) -0.22115(18)
C4B C 0.4959(3) -0.19907(12) -0.2501(2)
H2B H 0.5444 -0.2519 -0.2121
C5B C 0.3571(3) -0.11870(13) -0.4447(2)
H3B H 0.3101 -0.1148 -0.5385
C6B C 0.4292(3) -0.19661(14) -0.3890(2)
H4B H 0.4327 -0.2459 -0.4435
O3 O 1.0768(2) 0.30799(11) -0.12634(16)
N2 N 0.9957(2) 0.17542(12) -0.05441(17)
C7 C 0.9966(4) 0.11651(18) 0.0591(2)
H5 H 1.0532 0.1449 0.1431
H6 H 1.0655 0.0647 0.0465
H7 H 0.8717 0.1006 0.0632
C8 C 1.0685(3) 0.25416(16) -0.0350(2)
H8 H 1.1178 0.2707 0.0549
C9 C 0.9172(3) 0.14422(17) -0.1909(2)
H9 H 0.9255 0.1895 -0.2566
H10 H 0.7897 0.1289 -0.1956
H11 H 0.9844 0.0935 -0.2111
loop_
_geom_bond_atom_site_label_1
_geom_bond_atom_site_label_2
_geom_bond_site_symmetry_1
_geom_bond_site_symmetry_2
Se1 C3 1_555 1_555
O1 C2 1_555 1_555
O2 H1 1_555 1_555
N1 C3 1_555 1_555
C1 C2 1_555 1_555
C2 O2 1_555 1_555
C3 C1 1_555 1_555
C4 N1 1_555 1_555
H2 C4 1_555 1_555
C5 C1 1_555 1_555
H3 C5 1_555 1_555
C6 C4 1_555 1_555
H4 C6 1_555 1_555
O3 C8 1_555 1_555
N2 C7 1_555 1_555
C7 H5 1_555 1_555
H6 C7 1_555 1_555
H7 C7 1_555 1_555
C8 N2 1_555 1_555
H8 C8 1_555 1_555
C9 N2 1_555 1_555
H9 C9 1_555 1_555
H10 C9 1_555 1_555
H11 C9 1_555 1_555
Se1B Se1 1_555 1_555
O1B C2B 1_555 1_555
O2B H1B 1_555 1_555
N1B C3B 1_555 1_555
C1B C2B 1_555 1_555
C2B O2B 1_555 1_555
C3B Se1B 1_555 1_555
C4B N1B 1_555 1_555
H2B C4B 1_555 1_555
C5B C1B 1_555 1_555
H3B C5B 1_555 1_555
C6B C4B 1_555 1_555
H4B C6B 1_555 1_555
C5 C6 1_555 1_555
C1B C3B 1_555 1_555
C5B C6B 1_555 1_555

#END
