
#######################################################################
#
#                 Cambridge Crystallographic Data Centre
#                                CCDC 
#
#######################################################################
#
# If this CIF has been generated from an entry in the Cambridge 
# Structural Database, then it will include bibliographic, chemical, 
# crystal, experimental, refinement or atomic coordinate data resulting 
# from the CCDC's data processing and validation procedures.
#
#######################################################################

data_MUTYUX
_chemical_formula_moiety         'C20 H33 N1 O4'
_chemical_name_systematic        
't-butyl (1R,2S,7aR)-1-((E)-hept-5-en-1-yl)-1-hydroxy-2-methyl-3-oxotetrahydro-1H-pyrrolizine-7a(5H)-carboxylate'
_symmetry_cell_setting           orthorhombic
_symmetry_space_group_name_H-M   'P 21 21 21'
_symmetry_Int_Tables_number      19
_space_group_name_Hall           'P 2ac 2ab'
loop_
_symmetry_equiv_pos_site_id
_symmetry_equiv_pos_as_xyz
1 x,y,z
2 1/2-x,-y,1/2+z
3 -x,1/2+y,1/2-z
4 1/2+x,1/2-y,-z
_cell_length_a                   6.1810(6)
_cell_length_b                   16.5751(15)
_cell_length_c                   19.3701(18)
_cell_angle_alpha                90
_cell_angle_beta                 90
_cell_angle_gamma                90
_cell_volume                     1984.48
_exptl_crystal_colour            colorless
_exptl_crystal_description       needle
_chemical_melting_point          '377-378 K'
_cell_formula_units_Z            4
_exptl_crystal_recrystallization_method dichloromethane/hexane
loop_
_atom_site_label
_atom_site_type_symbol
_atom_site_fract_x
_atom_site_fract_y
_atom_site_fract_z
O1 O -0.2407(3) 0.27702(10) 0.48844(9)
C1 C -0.1209(4) 0.33254(13) 0.47104(12)
C2 C -0.0690(4) 0.40910(14) 0.51112(13)
H1 H -0.1712 0.4515 0.4958
C3 C 0.1571(4) 0.43240(12) 0.48520(11)
C4 C 0.1450(4) 0.40307(12) 0.40729(11)
C5 C 0.3393(4) 0.36154(14) 0.37402(12)
H2 H 0.4269 0.3331 0.4085
H3 H 0.4306 0.4003 0.3493
C6 C 0.2305(5) 0.30228(16) 0.32414(13)
H4 H 0.1939 0.3291 0.2806
H5 H 0.3263 0.2566 0.3143
C7 C 0.0259(5) 0.27388(15) 0.36127(13)
H6 H -0.0963 0.2697 0.3292
H7 H 0.0487 0.2215 0.3835
N1 N -0.0101(3) 0.33673(10) 0.41197(10)
C8 C -0.0936(7) 0.3997(2) 0.58870(15)
H8 H -0.2437 0.3885 0.5997
H9 H -0.0492 0.4492 0.6114
H10 H -0.0036 0.3555 0.6046
O2 O 0.3217(3) 0.39033(9) 0.52104(9)
H11 H 0.2944 0.3413 0.5208
C9 C 0.2076(4) 0.52202(13) 0.49555(13)
H12 H 0.1093 0.5536 0.4665
H13 H 0.1772 0.5361 0.5437
C10 C 0.4384(5) 0.54668(15) 0.47899(17)
H14 H 0.4788 0.5234 0.4343
H15 H 0.5348 0.5236 0.5140
C11 C 0.4745(6) 0.63784(18) 0.4762(2)
H16 H 0.6117 0.6480 0.4525
H17 H 0.3593 0.6617 0.4481
C12 C 0.4798(8) 0.6800(2) 0.5430(2)
H18 H 0.3519 0.6645 0.5699
H19 H 0.4723 0.7382 0.5349
C13 C 0.6835(9) 0.6611(2) 0.5852(2)
H20 H 0.8154 0.6650 0.5614
C14 C 0.6961(9) 0.6418(3) 0.6455(2)
H21 H 0.5621 0.6351 0.6677
C15 C 0.8868(7) 0.6270(3) 0.6898(2)
H22 H 0.8862 0.5713 0.7052
H23 H 0.8815 0.6625 0.7296
H24 H 1.0179 0.6374 0.6638
C16 C 0.0474(4) 0.46824(13) 0.35936(11)
O3 O -0.1406(3) 0.47290(12) 0.34585(11)
O4 O 0.2024(3) 0.51678(10) 0.33493(9)
C17 C 0.1537(5) 0.58202(14) 0.28512(13)
C18 C 0.0730(6) 0.54489(19) 0.21842(15)
H25 H 0.1722 0.5029 0.2037
H26 H 0.0645 0.5862 0.1830
H27 H -0.0693 0.5218 0.2258
C19 C 0.3733(5) 0.61987(19) 0.27465(17)
H28 H 0.4244 0.6419 0.3181
H29 H 0.3624 0.6628 0.2407
H30 H 0.4742 0.5793 0.2584
C20 C -0.0041(6) 0.64166(17) 0.31650(18)
H31 H -0.1460 0.6170 0.3198
H32 H -0.0124 0.6893 0.2876
H33 H 0.0451 0.6568 0.3622
loop_
_geom_bond_atom_site_label_1
_geom_bond_atom_site_label_2
_geom_bond_site_symmetry_1
_geom_bond_site_symmetry_2
O1 C1 1_555 1_555
C1 C2 1_555 1_555
C2 H1 1_555 1_555
C3 C2 1_555 1_555
C4 C3 1_555 1_555
C5 C4 1_555 1_555
H2 C5 1_555 1_555
H3 C5 1_555 1_555
C6 C5 1_555 1_555
H4 C6 1_555 1_555
H5 C6 1_555 1_555
C7 C6 1_555 1_555
H6 C7 1_555 1_555
H7 C7 1_555 1_555
N1 C1 1_555 1_555
C8 C2 1_555 1_555
H8 C8 1_555 1_555
H9 C8 1_555 1_555
H10 C8 1_555 1_555
O2 C3 1_555 1_555
H11 O2 1_555 1_555
C9 C3 1_555 1_555
H12 C9 1_555 1_555
H13 C9 1_555 1_555
C10 C9 1_555 1_555
H14 C10 1_555 1_555
H15 C10 1_555 1_555
C11 C10 1_555 1_555
H16 C11 1_555 1_555
H17 C11 1_555 1_555
C12 C11 1_555 1_555
H18 C12 1_555 1_555
H19 C12 1_555 1_555
C13 C12 1_555 1_555
H20 C13 1_555 1_555
C14 C13 1_555 1_555
H21 C14 1_555 1_555
C15 C14 1_555 1_555
H22 C15 1_555 1_555
H23 C15 1_555 1_555
H24 C15 1_555 1_555
C16 C4 1_555 1_555
O3 C16 1_555 1_555
O4 C16 1_555 1_555
C17 O4 1_555 1_555
C18 C17 1_555 1_555
H25 C18 1_555 1_555
H26 C18 1_555 1_555
H27 C18 1_555 1_555
C19 C17 1_555 1_555
H28 C19 1_555 1_555
H29 C19 1_555 1_555
H30 C19 1_555 1_555
C20 C17 1_555 1_555
H31 C20 1_555 1_555
H32 C20 1_555 1_555
H33 C20 1_555 1_555
C4 N1 1_555 1_555
C7 N1 1_555 1_555

#END
