
#######################################################################
#
#                 Cambridge Crystallographic Data Centre
#                                CCDC 
#
#######################################################################
#
# If this CIF has been generated from an entry in the Cambridge 
# Structural Database, then it will include bibliographic, chemical, 
# crystal, experimental, refinement or atomic coordinate data resulting 
# from the CCDC's data processing and validation procedures.
#
#######################################################################

data_MUTYUW
_chemical_formula_moiety         'K1 1+,C30 H45 O2 1-,2(C4 H8 O1)'
_chemical_name_systematic        
"Potassium hydrogen 2,2'-ethylenebis(4,6-di-t-butylphenolate) tetrahydrofuran solvate"
_symmetry_cell_setting           monoclinic
_symmetry_space_group_name_H-M   'P 21/c'
_symmetry_Int_Tables_number      14
_space_group_name_Hall           '-P 2ybc'
loop_
_symmetry_equiv_pos_site_id
_symmetry_equiv_pos_as_xyz
1 x,y,z
2 -x,1/2+y,1/2-z
3 -x,-y,-z
4 x,1/2-y,1/2+z
_cell_length_a                   12.8666(3)
_cell_length_b                   16.6906(4)
_cell_length_c                   18.0583(5)
_cell_angle_alpha                90
_cell_angle_beta                 98.6890(10)
_cell_angle_gamma                90
_cell_volume                     3833.53
_exptl_crystal_colour            colorless
_exptl_crystal_description       block
_cell_formula_units_Z            4
loop_
_atom_site_label
_atom_site_type_symbol
_atom_site_fract_x
_atom_site_fract_y
_atom_site_fract_z
K1 K 0.38383(7) 0.41968(5) 0.06756(5)
O1 O 0.3101(2) 0.56621(14) 0.13520(15)
H1 H 0.375(4) 0.550(6) 0.120(5)
O2 O 0.48561(18) 0.56285(14) 0.09786(14)
C1 C 0.2589(2) 0.63778(19) 0.12646(19)
C2 C 0.2692(2) 0.68636(19) 0.06448(18)
C3 C 0.2185(2) 0.7596(2) 0.0583(2)
H2 H 0.2269 0.7925 0.0180
C4 C 0.1560(2) 0.7864(2) 0.1088(2)
C5 C 0.1453(3) 0.7359(2) 0.1682(2)
H3 H 0.1023 0.7524 0.2023
C6 C 0.1951(2) 0.6624(2) 0.17961(19)
C7 C 0.3363(2) 0.6582(2) 0.00626(17)
H4 H 0.3351 0.5995 0.0075
C8 C 0.4510(2) 0.68255(19) 0.02728(17)
C9 C 0.5196(2) 0.6324(2) 0.07522(17)
C10 C 0.6253(2) 0.6582(2) 0.09722(17)
C11 C 0.6569(2) 0.7298(2) 0.06838(19)
H5 H 0.7266 0.7455 0.0820
C12 C 0.5908(2) 0.77945(19) 0.02029(18)
C13 C 0.4879(2) 0.75401(19) 0.00140(18)
H6 H 0.4414 0.7861 -0.0300
C14 C 0.6329(3) 0.8573(2) -0.0094(2)
C15 C 0.6803(4) 0.9117(3) 0.0557(3)
H7 H 0.6271 0.9250 0.0856
H8 H 0.7063 0.9599 0.0360
H9 H 0.7369 0.8843 0.0860
C16 C 0.5478(3) 0.9051(3) -0.0595(3)
H10 H 0.4924 0.9187 -0.0316
H11 H 0.5198 0.8733 -0.1022
H12 H 0.5780 0.9533 -0.0761
C17 C 0.7199(3) 0.8379(3) -0.0568(2)
H13 H 0.7749 0.8082 -0.0271
H14 H 0.7480 0.8869 -0.0733
H15 H 0.6908 0.8066 -0.0996
C18 C 0.7011(3) 0.6089(2) 0.1540(2)
C19 C 0.6548(4) 0.6014(3) 0.2270(2)
H16 H 0.5868 0.5766 0.2169
H17 H 0.6482 0.6537 0.2479
H18 H 0.7005 0.5691 0.2620
C20 C 0.7164(3) 0.5249(2) 0.1228(2)
H19 H 0.6494 0.4987 0.1114
H20 H 0.7615 0.4941 0.1594
H21 H 0.7478 0.5292 0.0780
C21 C 0.8101(3) 0.6475(3) 0.1724(3)
H22 H 0.8409 0.6525 0.1274
H23 H 0.8543 0.6147 0.2077
H24 H 0.8034 0.6997 0.1936
C22 C 0.2895(3) 0.6823(2) -0.0734(2)
H25 H 0.3337 0.6630 -0.1078
H26 H 0.2846 0.7396 -0.0766
H27 H 0.2206 0.6594 -0.0857
C23 C 0.1001(3) 0.8678(2) 0.1008(3)
C24 C 0.1284(9) 0.9161(4) 0.1732(6)
H28 H 0.2004 0.9060 0.1940
H29 H 0.0835 0.9003 0.2085
H30 H 0.1191 0.9722 0.1624
C25 C -0.0109(5) 0.8584(4) 0.0860(8)
H31 H -0.0441 0.9057 0.1016
H32 H -0.0311 0.8130 0.1131
H33 H -0.0324 0.8502 0.0333
C26 C 0.1368(10) 0.9197(5) 0.0474(7)
H34 H 0.1021 0.9065 -0.0020
H35 H 0.2113 0.9131 0.0495
H36 H 0.1216 0.9743 0.0586
C27 C 0.1845(3) 0.6105(2) 0.2482(2)
C28 C 0.1110(3) 0.6487(3) 0.2981(2)
H37 H 0.0424 0.6561 0.2695
H38 H 0.1388 0.6997 0.3160
H39 H 0.1058 0.6142 0.3399
C29 C 0.2922(3) 0.6008(3) 0.2975(2)
H40 H 0.3409 0.5771 0.2685
H41 H 0.2851 0.5669 0.3394
H42 H 0.3178 0.6524 0.3153
C30 C 0.1392(4) 0.5285(3) 0.2239(3)
H43 H 0.0717 0.5352 0.1936
H44 H 0.1315 0.4973 0.2674
H45 H 0.1858 0.5015 0.1954
O3 O 0.4453(4) 0.3504(3) 0.1964(2)
C31 C 0.5063(6) 0.2867(3) 0.2157(4)
H46 H 0.5486 0.2742 0.1770
H47 H 0.4641 0.2402 0.2236
C32 C 0.5698(7) 0.3085(6) 0.2817(5)
H48 H 0.5720 0.2649 0.3175
H49 H 0.6409 0.3174 0.2717
C33 C 0.5344(6) 0.3764(5) 0.3123(4)
H50 H 0.5875 0.4181 0.3177
H51 H 0.5138 0.3655 0.3608
C34 C 0.4488(12) 0.3973(7) 0.2603(5)
H52 H 0.4538 0.4534 0.2472
H53 H 0.3847 0.3899 0.2817
O4 O 0.1815(4) 0.3736(4) 0.0777(4)
C35 C 0.0995(8) 0.4042(11) 0.0356(6)
H54 H 0.1007 0.3875 -0.0157
H55 H 0.1059 0.4621 0.0372
C36 C 0.0017(8) 0.3833(10) 0.0554(7)
H56 H -0.0417 0.3559 0.0145
H57 H -0.0355 0.4303 0.0690
C37 C 0.0276(10) 0.3315(9) 0.1180(8)
H58 H -0.0012 0.2785 0.1064
H59 H -0.0009 0.3521 0.1609
C38 C 0.1426(8) 0.3279(5) 0.1343(7)
H60 H 0.1672 0.3502 0.1834
H61 H 0.1665 0.2728 0.1334
loop_
_geom_bond_atom_site_label_1
_geom_bond_atom_site_label_2
_geom_bond_site_symmetry_1
_geom_bond_site_symmetry_2
O1 H1 1_555 1_555
O2 C9 1_555 1_555
O3 C31 1_555 1_555
O4 C35 1_555 1_555
C1 O1 1_555 1_555
C2 C1 1_555 1_555
C3 C2 1_555 1_555
H2 C3 1_555 1_555
C4 C3 1_555 1_555
C5 C4 1_555 1_555
H3 C5 1_555 1_555
C6 C1 1_555 1_555
C7 C2 1_555 1_555
H4 C7 1_555 1_555
C8 C7 1_555 1_555
C9 C8 1_555 1_555
C10 C9 1_555 1_555
C11 C10 1_555 1_555
H5 C11 1_555 1_555
C12 C11 1_555 1_555
C13 C8 1_555 1_555
H6 C13 1_555 1_555
C14 C12 1_555 1_555
C15 C14 1_555 1_555
H7 C15 1_555 1_555
H8 C15 1_555 1_555
H9 C15 1_555 1_555
C16 C14 1_555 1_555
H10 C16 1_555 1_555
H11 C16 1_555 1_555
H12 C16 1_555 1_555
C17 C14 1_555 1_555
H13 C17 1_555 1_555
H14 C17 1_555 1_555
H15 C17 1_555 1_555
C18 C10 1_555 1_555
C19 C18 1_555 1_555
H16 C19 1_555 1_555
H17 C19 1_555 1_555
H18 C19 1_555 1_555
C20 C18 1_555 1_555
H19 C20 1_555 1_555
H20 C20 1_555 1_555
H21 C20 1_555 1_555
C21 C18 1_555 1_555
H22 C21 1_555 1_555
H23 C21 1_555 1_555
H24 C21 1_555 1_555
C22 C7 1_555 1_555
H25 C22 1_555 1_555
H26 C22 1_555 1_555
H27 C22 1_555 1_555
C23 C4 1_555 1_555
C24 C23 1_555 1_555
H28 C24 1_555 1_555
H29 C24 1_555 1_555
H30 C24 1_555 1_555
C25 C23 1_555 1_555
H31 C25 1_555 1_555
H32 C25 1_555 1_555
H33 C25 1_555 1_555
C26 C23 1_555 1_555
H34 C26 1_555 1_555
H35 C26 1_555 1_555
H36 C26 1_555 1_555
C27 C6 1_555 1_555
C28 C27 1_555 1_555
H37 C28 1_555 1_555
H38 C28 1_555 1_555
H39 C28 1_555 1_555
C29 C27 1_555 1_555
H40 C29 1_555 1_555
H41 C29 1_555 1_555
H42 C29 1_555 1_555
C30 C27 1_555 1_555
H43 C30 1_555 1_555
H44 C30 1_555 1_555
H45 C30 1_555 1_555
C31 H46 1_555 1_555
H47 C31 1_555 1_555
C32 C31 1_555 1_555
H48 C32 1_555 1_555
H49 C32 1_555 1_555
C33 C32 1_555 1_555
H50 C33 1_555 1_555
H51 C33 1_555 1_555
C34 O3 1_555 1_555
H52 C34 1_555 1_555
H53 C34 1_555 1_555
C35 H54 1_555 1_555
H55 C35 1_555 1_555
C36 C35 1_555 1_555
H56 C36 1_555 1_555
H57 C36 1_555 1_555
C37 C36 1_555 1_555
H58 C37 1_555 1_555
H59 C37 1_555 1_555
C38 O4 1_555 1_555
H60 C38 1_555 1_555
H61 C38 1_555 1_555
C5 C6 1_555 1_555
C12 C13 1_555 1_555
C33 C34 1_555 1_555
C37 C38 1_555 1_555

#END
