
#######################################################################
#
#                 Cambridge Crystallographic Data Centre
#                                CCDC 
#
#######################################################################
#
# If this CIF has been generated from an entry in the Cambridge 
# Structural Database, then it will include bibliographic, chemical, 
# crystal, experimental, refinement or atomic coordinate data resulting 
# from the CCDC's data processing and validation procedures.
#
#######################################################################

data_MUVCIP
_chemical_compound_source        'dry latex of Garcinia hanburyi'
_chemical_formula_moiety         'C5 H6 N1 1+,C38 H43 O8 1-'
_chemical_name_systematic        'Pyridinium gambogate'
_chemical_properties_biological  
'potent activator of caspase enzymes, causing induction of apoptosis and associated cell death'
_symmetry_cell_setting           orthorhombic
_symmetry_space_group_name_H-M   'P 21 21 21'
_symmetry_Int_Tables_number      19
_space_group_name_Hall           'P 2ac 2ab'
loop_
_symmetry_equiv_pos_site_id
_symmetry_equiv_pos_as_xyz
1 x,y,z
2 1/2-x,-y,1/2+z
3 1/2+x,1/2-y,-z
4 -x,1/2+y,1/2-z
_cell_length_a                   9.536(3)
_cell_length_b                   18.502(4)
_cell_length_c                   22.223(4)
_cell_angle_alpha                90
_cell_angle_beta                 90
_cell_angle_gamma                90
_cell_volume                     3920.92
_exptl_crystal_colour            yellow
_exptl_crystal_description       block
_chemical_melting_point          '141-143 deg.C'
_cell_formula_units_Z            4
_exptl_crystal_recrystallization_method ethanol
loop_
_atom_site_label
_atom_site_type_symbol
_atom_site_fract_x
_atom_site_fract_y
_atom_site_fract_z
O1 O 0.4729(8) 0.7126(3) 0.3387(3)
O2 O 0.7262(7) 0.8025(3) 0.1794(3)
O3 O 0.4924(8) 0.5744(3) 0.1602(3)
O4 O 0.6370(7) 0.6225(4) 0.0749(3)
O5 O 0.6953(9) 0.9062(4) -0.0188(3)
O6 O 0.7571(7) 0.9334(3) 0.1106(3)
O7 O 0.2898(7) 0.7829(4) 0.1229(3)
O8 O 0.2289(7) 0.7887(4) 0.2186(3)
C1 C 0.3899(15) 0.6611(8) 0.3730(5)
C2 C 0.3487(14) 0.5958(7) 0.3372(6)
C3 C 0.3831(13) 0.5858(6) 0.2813(6)
C4 C 0.4710(11) 0.6404(5) 0.2510(5)
C5 C 0.5226(11) 0.6333(5) 0.1922(5)
C6 C 0.6094(10) 0.6866(5) 0.1638(4)
C7 C 0.6617(10) 0.6771(6) 0.1053(4)
C8 C 0.7391(10) 0.7390(5) 0.0805(4)
C9 C 0.7826(11) 0.7423(6) 0.0241(4)
C10 C 0.8515(12) 0.8105(7) 0.0072(4)
C11 C 0.7422(12) 0.8666(7) 0.0187(5)
C12 C 0.6966(9) 0.8703(6) 0.0857(4)
C13 C 0.7642(10) 0.8056(6) 0.1168(5)
C14 C 0.6405(10) 0.7486(5) 0.2007(4)
C15 C 0.5972(11) 0.7570(5) 0.2591(4)
C16 C 0.5106(12) 0.7016(6) 0.2821(4)
C17 C 0.2563(14) 0.7016(7) 0.3935(6)
C18 C 0.4755(13) 0.6399(6) 0.4271(5)
C19 C 0.9766(11) 0.8178(5) 0.0511(4)
C20 C 0.9195(10) 0.8353(6) 0.1148(4)
C21 C 0.9018(11) 0.9160(6) 0.1299(5)
C22 C 0.9958(11) 0.9670(6) 0.0950(5)
C23 C 0.9104(11) 0.9306(6) 0.1970(5)
C24 C 0.5351(10) 0.8730(5) 0.0908(4)
C25 C 0.4814(11) 0.9013(5) 0.1482(5)
C26 C 0.3764(10) 0.8795(5) 0.1836(4)
C27 C 0.3424(10) 0.9196(6) 0.2417(5)
C28 C 0.2955(11) 0.8140(6) 0.1714(6)
C29 C 0.6372(10) 0.8240(5) 0.2950(4)
C30 C 0.7807(13) 0.8187(6) 0.3212(5)
C31 C 0.8303(14) 0.8480(7) 0.3657(6)
C32 C 0.9847(16) 0.8466(7) 0.3859(6)
C33 C 0.748(3) 0.9008(12) 0.4006(9)
C34 C 0.6164(15) 0.6022(7) 0.4120(6)
C35 C 0.685(2) 0.5647(10) 0.4731(8)
C36 C 0.7852(17) 0.5964(7) 0.4915(6)
C37 C 0.8511(15) 0.5699(8) 0.5483(6)
C38 C 0.8629(19) 0.6553(10) 0.4677(7)
H1 H 0.2942 0.5597 0.3566
H2 H 0.3523 0.5440 0.2603
H3 H 0.2822 0.7438 0.4152
H4 H 0.2026 0.7150 0.3593
H5 H 0.2020 0.6710 0.4187
H6 H 0.4954 0.6823 0.4496
H7 H 0.4211 0.6078 0.4510
H8 H 1.0276 0.7737 0.0521
H9 H 1.0365 0.8557 0.0380
H10 H 0.9751 0.8121 0.1446
H11 H 1.0905 0.9600 0.1070
H12 H 0.9871 0.9574 0.0531
H13 H 0.9688 1.0155 0.1028
H14 H 1.0037 0.9228 0.2104
H15 H 0.8841 0.9792 0.2048
H16 H 0.8487 0.8988 0.2177
H17 H 0.5007 0.9030 0.0593
H18 H 0.5002 0.8253 0.0857
H19 H 0.5302 0.9425 0.1628
H20 H 0.4212 0.9179 0.2678
H21 H 0.3205 0.9685 0.2327
H22 H 0.2643 0.8974 0.2607
H23 H 0.6338 0.8648 0.2691
H24 H 0.5716 0.8301 0.3267
H25 H 0.8432 0.7877 0.3002
H26 H 1.0129 0.7980 0.3928
H27 H 1.0418 0.8673 0.3554
H28 H 0.9947 0.8736 0.4220
H29 H 0.8041 0.9188 0.4328
H30 H 0.7214 0.9396 0.3752
H31 H 0.6672 0.8780 0.4164
H32 H 0.6005 0.5658 0.3826
H33 H 0.6802 0.6370 0.3965
H34 H 0.6475 0.5226 0.4916
H35 H 0.7853 0.5733 0.5803
H36 H 0.8787 0.5209 0.5435
H37 H 0.9310 0.5985 0.5574
H38 H 0.9371 0.6672 0.4944
H39 H 0.9006 0.6422 0.4296
H40 H 0.8029 0.6959 0.4630
H41 H 0.4702 0.5409 0.1655
H42 H 0.7704 0.7035 -0.0035
H43 H 0.8811 0.8103 -0.0336
N1 N 0.0712(11) 0.6726(5) 0.2015(5)
C39 C -0.0269(15) 0.6530(7) 0.2457(6)
C40 C -0.1134(13) 0.5962(7) 0.2330(5)
C41 C -0.1022(16) 0.5581(7) 0.1821(7)
C42 C -0.0033(17) 0.5802(8) 0.1423(7)
C43 C 0.0894(13) 0.6373(7) 0.1534(6)
H44 H 0.1268 0.7144 0.2081
H45 H -0.0328 0.6782 0.2829
H46 H -0.1838 0.5833 0.2613
H47 H -0.1607 0.5176 0.1742
H48 H 0.0035 0.5555 0.1049
H49 H 0.1626 0.6490 0.1261
loop_
_geom_bond_atom_site_label_1
_geom_bond_atom_site_label_2
_geom_bond_site_symmetry_1
_geom_bond_site_symmetry_2
O1 C1 1_555 1_555
O2 C13 1_555 1_555
O3 C5 1_555 1_555
O4 C7 1_555 1_555
O5 C11 1_555 1_555
O6 C12 1_555 1_555
O7 C28 1_555 1_555
O8 C28 1_555 1_555
C1 C2 1_555 1_555
C2 C3 1_555 1_555
C3 C4 1_555 1_555
C4 C5 1_555 1_555
C5 C6 1_555 1_555
C6 C7 1_555 1_555
C7 C8 1_555 1_555
C8 C9 1_555 1_555
C9 C10 1_555 1_555
C10 C11 1_555 1_555
C11 C12 1_555 1_555
C12 C13 1_555 1_555
C13 C8 1_555 1_555
C14 O2 1_555 1_555
C15 C14 1_555 1_555
C16 O1 1_555 1_555
C17 C1 1_555 1_555
C18 C1 1_555 1_555
C19 C10 1_555 1_555
C20 C13 1_555 1_555
C21 O6 1_555 1_555
C22 C21 1_555 1_555
C23 C21 1_555 1_555
C24 C12 1_555 1_555
C25 C24 1_555 1_555
C26 C25 1_555 1_555
C27 C26 1_555 1_555
C28 C26 1_555 1_555
C29 C15 1_555 1_555
C30 C29 1_555 1_555
C31 C30 1_555 1_555
C32 C31 1_555 1_555
C33 C31 1_555 1_555
C34 C18 1_555 1_555
C35 C34 1_555 1_555
C36 C35 1_555 1_555
C37 C36 1_555 1_555
C38 C36 1_555 1_555
H1 C2 1_555 1_555
H2 C3 1_555 1_555
H3 C17 1_555 1_555
H4 C17 1_555 1_555
H5 C17 1_555 1_555
H6 C18 1_555 1_555
H7 C18 1_555 1_555
H8 C19 1_555 1_555
H9 C19 1_555 1_555
H10 C20 1_555 1_555
H11 C22 1_555 1_555
H12 C22 1_555 1_555
H13 C22 1_555 1_555
H14 C23 1_555 1_555
H15 C23 1_555 1_555
H16 C23 1_555 1_555
H17 C24 1_555 1_555
H18 C24 1_555 1_555
H19 C25 1_555 1_555
H20 C27 1_555 1_555
H21 C27 1_555 1_555
H22 C27 1_555 1_555
H23 C29 1_555 1_555
H24 C29 1_555 1_555
H25 C30 1_555 1_555
H26 C32 1_555 1_555
H27 C32 1_555 1_555
H28 C32 1_555 1_555
H29 C33 1_555 1_555
H30 C33 1_555 1_555
H31 C33 1_555 1_555
H32 C34 1_555 1_555
H33 C34 1_555 1_555
H34 C35 1_555 1_555
H35 C37 1_555 1_555
H36 C37 1_555 1_555
H37 C37 1_555 1_555
H38 C38 1_555 1_555
H39 C38 1_555 1_555
H40 C38 1_555 1_555
H41 O3 1_555 1_555
H42 C9 1_555 1_555
H43 C10 1_555 1_555
N1 C39 1_555 1_555
C39 C40 1_555 1_555
C40 C41 1_555 1_555
C41 C42 1_555 1_555
C42 C43 1_555 1_555
C43 N1 1_555 1_555
H44 N1 1_555 1_555
H45 C39 1_555 1_555
H46 C40 1_555 1_555
H47 C41 1_555 1_555
H48 C42 1_555 1_555
H49 C43 1_555 1_555
C4 C16 1_555 1_555
C6 C14 1_555 1_555
C15 C16 1_555 1_555
C19 C20 1_555 1_555
C20 C21 1_555 1_555

#END
