
#######################################################################
#
#                 Cambridge Crystallographic Data Centre
#                                CCDC 
#
#######################################################################
#
# If this CIF has been generated from an entry in the Cambridge 
# Structural Database, then it will include bibliographic, chemical, 
# crystal, experimental, refinement or atomic coordinate data resulting 
# from the CCDC's data processing and validation procedures.
#
#######################################################################

data_MUVDUD
_chemical_formula_moiety         'C16 H10 N4 O2'
_chemical_name_systematic        1,2-bis(1H-Indazol-1-yl)ethane-1,2-dione
_symmetry_cell_setting           triclinic
_symmetry_space_group_name_H-M   'P -1'
_symmetry_Int_Tables_number      2
_space_group_name_Hall           '-P 1'
loop_
_symmetry_equiv_pos_site_id
_symmetry_equiv_pos_as_xyz
1 x,y,z
2 -x,-y,-z
_cell_length_a                   7.3930(10)
_cell_length_b                   7.6748(11)
_cell_length_c                   12.1165(17)
_cell_angle_alpha                75.374(2)
_cell_angle_beta                 83.368(2)
_cell_angle_gamma                79.040(2)
_cell_volume                     651.426
_chemical_melting_point          'above 200 deg.C'
_cell_formula_units_Z            2
_exptl_crystal_recrystallization_method chloroform
loop_
_atom_site_label
_atom_site_type_symbol
_atom_site_fract_x
_atom_site_fract_y
_atom_site_fract_z
C1 C 0.22486(15) 0.33673(15) 0.27997(9)
C2 C 0.26854(15) 0.01842(15) 0.07960(9)
C3 C 0.26188(15) 0.14989(15) 0.24971(9)
C4 C 0.29044(17) -0.18662(18) -0.07794(11)
H1 H 0.2985 -0.2588 -0.1301
C5 C 0.33929(16) -0.16687(15) 0.11369(10)
H2 H 0.3785 -0.2200 0.1867
C6 C 0.21109(15) 0.10203(16) -0.03017(10)
C7 C 0.34785(17) -0.26743(16) 0.03255(11)
H3 H 0.3929 -0.3921 0.0518
C8 C 0.15009(16) 0.29075(16) -0.02963(10)
H4 H 0.1040 0.3791 -0.0924
C9 C 0.22227(17) -0.00250(18) -0.11093(10)
H5 H 0.1850 0.0505 -0.1844
C10 C -0.03489(15) 0.55068(15) 0.35192(9)
C11 C -0.22372(16) 0.54295(16) 0.37155(9)
C12 C -0.26982(19) 0.82223(17) 0.43058(10)
H6 H -0.3471 0.9159 0.4571
C13 C -0.07993(18) 0.82630(16) 0.41143(10)
H7 H -0.0345 0.9226 0.4260
C14 C -0.34460(17) 0.68222(17) 0.41092(10)
H8 H -0.4708 0.6803 0.4233
C15 C 0.04239(16) 0.69109(15) 0.37143(9)
H9 H 0.1683 0.6941 0.3584
C16 C -0.24398(16) 0.37661(16) 0.34398(10)
H10 H -0.3563 0.3361 0.3497
O1 O 0.34912(11) 0.41859(11) 0.28045(7)
O2 O 0.31768(12) 0.01183(11) 0.31909(7)
N1 N 0.23911(13) 0.15782(12) 0.13781(8)
N2 N 0.04442(13) 0.39427(12) 0.31377(8)
N3 N -0.08696(13) 0.28868(13) 0.31005(8)
N4 N 0.16646(13) 0.32481(13) 0.06861(8)
loop_
_geom_bond_atom_site_label_1
_geom_bond_atom_site_label_2
_geom_bond_site_symmetry_1
_geom_bond_site_symmetry_2
C1 C3 1_555 1_555
C2 C5 1_555 1_555
C3 O2 1_555 1_555
C4 H1 1_555 1_555
C5 H2 1_555 1_555
C6 C2 1_555 1_555
C7 C4 1_555 1_555
H3 C7 1_555 1_555
C8 C6 1_555 1_555
H4 C8 1_555 1_555
C9 C4 1_555 1_555
H5 C9 1_555 1_555
C10 C11 1_555 1_555
C11 C14 1_555 1_555
C12 H6 1_555 1_555
C13 C12 1_555 1_555
H7 C13 1_555 1_555
C14 C12 1_555 1_555
H8 C14 1_555 1_555
C15 C10 1_555 1_555
H9 C15 1_555 1_555
C16 C11 1_555 1_555
H10 C16 1_555 1_555
O1 C1 1_555 1_555
N1 C2 1_555 1_555
N2 C1 1_555 1_555
N3 C16 1_555 1_555
N4 C8 1_555 1_555
C3 N1 1_555 1_555
C5 C7 1_555 1_555
C6 C9 1_555 1_555
C10 N2 1_555 1_555
C13 C15 1_555 1_555
N1 N4 1_555 1_555
N2 N3 1_555 1_555

#END
