
#######################################################################
#
#                 Cambridge Crystallographic Data Centre
#                                CCDC 
#
#######################################################################
#
# If this CIF has been generated from an entry in the Cambridge 
# Structural Database, then it will include bibliographic, chemical, 
# crystal, experimental, refinement or atomic coordinate data resulting 
# from the CCDC's data processing and validation procedures.
#
#######################################################################

data_MUVFAL
_chemical_formula_moiety         'C9 H8 N4 O2'
_chemical_name_systematic        1,3-bis(1H-Pyrazol-1-yl)propane-1,3-dione
_symmetry_cell_setting           monoclinic
_symmetry_space_group_name_H-M   'P 21/n'
_symmetry_Int_Tables_number      14
_space_group_name_Hall           '-P 2yn'
loop_
_symmetry_equiv_pos_site_id
_symmetry_equiv_pos_as_xyz
1 x,y,z
2 1/2-x,1/2+y,1/2-z
3 -x,-y,-z
4 1/2+x,1/2-y,1/2+z
_cell_length_a                   10.0116(4)
_cell_length_b                   9.8622(4)
_cell_length_c                   19.4872(8)
_cell_angle_alpha                90
_cell_angle_beta                 104.4370(10)
_cell_angle_gamma                90
_cell_volume                     1863.34
_chemical_melting_point          '76-80 deg.C'
_cell_formula_units_Z            8
_exptl_crystal_recrystallization_method n-hexane
loop_
_atom_site_label
_atom_site_type_symbol
_atom_site_fract_x
_atom_site_fract_y
_atom_site_fract_z
N1 N 0.97913(11) 0.24720(11) 0.26006(6)
N2 N 1.05436(12) 0.15707(12) 0.30841(6)
N3 N 0.65727(11) 0.04119(11) 0.16328(6)
N4 N 0.56783(11) 0.09754(11) 0.19821(6)
O1 O 0.77294(10) 0.33879(9) 0.20611(5)
O2 O 0.53635(10) 0.20273(11) 0.29600(5)
C1 C 0.83593(13) 0.25722(13) 0.24839(7)
C2 C 0.77172(13) 0.16329(13) 0.29182(7)
H1 H 0.7954 0.1933 0.3408
H2 H 0.8086 0.0727 0.2903
C3 C 0.61675(14) 0.15950(13) 0.26454(7)
C4 C 1.18249(15) 0.17610(14) 0.30403(8)
H3 H 1.2578 0.1287 0.3310
C5 C 1.19236(14) 0.27661(14) 0.25380(7)
H4 H 1.2718 0.3068 0.2420
C6 C 1.06163(14) 0.31931(13) 0.22660(7)
H5 H 1.0330 0.3851 0.1918
C7 C 0.57561(14) -0.00549(13) 0.10400(7)
H6 H 0.6073 -0.0499 0.0690
C8 C 0.43486(14) 0.01946(14) 0.09969(7)
H7 H 0.3595 -0.0044 0.0631
C9 C 0.43320(13) 0.08554(13) 0.16031(7)
H8 H 0.3557 0.1168 0.1737
N5 N -0.00980(11) 0.16437(11) 0.05416(6)
O3 O -0.12670(11) 0.34636(11) -0.00024(6)
O4 O 0.20313(10) 0.39679(10) 0.10402(5)
N6 N 0.10675(11) 0.08587(11) 0.06720(6)
N7 N 0.35322(11) 0.34951(11) 0.03750(6)
N8 N 0.37740(12) 0.29925(11) -0.02405(6)
C10 C -0.02128(14) 0.28133(14) 0.01232(7)
C11 C 0.10428(14) 0.31560(14) -0.01367(7)
H9 H 0.1317 0.2375 -0.0371
H10 H 0.0831 0.3893 -0.0476
C12 C 0.22029(14) 0.35665(12) 0.04818(7)
C13 C 0.08187(14) -0.01035(14) 0.10927(7)
H11 H 0.1432 -0.0803 0.1269
C14 C -0.04804(14) 0.00411(14) 0.12476(7)
H12 H -0.0866 -0.0512 0.1534
C15 C -0.10409(14) 0.11677(14) 0.08859(7)
H13 H -0.1898 0.1543 0.0874
C16 C 0.51249(14) 0.30860(13) -0.01362(7)
H14 H 0.5599 0.2827 -0.0469
C17 C 0.57701(15) 0.36225(13) 0.05359(7)
H15 H 0.6708 0.3773 0.0722
C18 C 0.47339(14) 0.38714(13) 0.08515(7)
H16 H 0.4818 0.4227 0.1302
loop_
_geom_bond_atom_site_label_1
_geom_bond_atom_site_label_2
_geom_bond_site_symmetry_1
_geom_bond_site_symmetry_2
N1 N2 1_555 1_555
N2 C4 1_555 1_555
N3 N4 1_555 1_555
N4 C3 1_555 1_555
O1 C1 1_555 1_555
O2 C3 1_555 1_555
C1 N1 1_555 1_555
C2 C1 1_555 1_555
H1 C2 1_555 1_555
H2 C2 1_555 1_555
C3 C2 1_555 1_555
C4 H3 1_555 1_555
C5 C4 1_555 1_555
H4 C5 1_555 1_555
C6 N1 1_555 1_555
H5 C6 1_555 1_555
C7 N3 1_555 1_555
H6 C7 1_555 1_555
C8 C7 1_555 1_555
H7 C8 1_555 1_555
C9 N4 1_555 1_555
H8 C9 1_555 1_555
N5 N6 1_555 1_555
O3 C10 1_555 1_555
O4 C12 1_555 1_555
N6 C13 1_555 1_555
N7 N8 1_555 1_555
N8 C16 1_555 1_555
C10 N5 1_555 1_555
C11 C10 1_555 1_555
H9 C11 1_555 1_555
H10 C11 1_555 1_555
C12 N7 1_555 1_555
C13 H11 1_555 1_555
C14 C13 1_555 1_555
H12 C14 1_555 1_555
C15 N5 1_555 1_555
H13 C15 1_555 1_555
C16 H14 1_555 1_555
C17 C16 1_555 1_555
H15 C17 1_555 1_555
C18 N7 1_555 1_555
H16 C18 1_555 1_555
C5 C6 1_555 1_555
C8 C9 1_555 1_555
C11 C12 1_555 1_555
C14 C15 1_555 1_555
C17 C18 1_555 1_555

#END
