
#######################################################################
#
#                 Cambridge Crystallographic Data Centre
#                                CCDC 
#
#######################################################################
#
# If this CIF has been generated from an entry in the Cambridge 
# Structural Database, then it will include bibliographic, chemical, 
# crystal, experimental, refinement or atomic coordinate data resulting 
# from the CCDC's data processing and validation procedures.
#
#######################################################################

data_MUVJOE
_chemical_formula_moiety         'C24 H21 F3 N4 O2'
_chemical_name_systematic        
2-((1-methyl-3-phenyl-4-(trifluoromethyl)-1H-pyrazolo[3,4-b]pyridin-6-yl)oxy)-N-(1-phenylethyl)acetamide
_symmetry_cell_setting           monoclinic
_symmetry_space_group_name_H-M   'P 21'
_symmetry_Int_Tables_number      4
_space_group_name_Hall           'P 2yb'
loop_
_symmetry_equiv_pos_site_id
_symmetry_equiv_pos_as_xyz
1 x,y,z
2 -x,1/2+y,-z
_cell_length_a                   9.839(2)
_cell_length_b                   16.747(4)
_cell_length_c                   12.924(3)
_cell_angle_alpha                90
_cell_angle_beta                 92.466(12)
_cell_angle_gamma                90
_cell_volume                     2127.56
_exptl_crystal_colour            colorless
_exptl_crystal_description       needle
_chemical_melting_point          '436 K'
_cell_formula_units_Z            4
_exptl_crystal_recrystallization_method methanol
loop_
_atom_site_label
_atom_site_type_symbol
_atom_site_fract_x
_atom_site_fract_y
_atom_site_fract_z
N1 N 0.28937(12) -0.04710(7) 0.53248(9)
C1 C 0.29045(14) 0.01675(8) 0.59563(11)
N2 N 0.20784(12) 0.08071(7) 0.58350(9)
N3 N 0.23480(13) 0.13627(7) 0.65854(9)
C2 C 0.33448(14) 0.10743(9) 0.72048(11)
C3 C 0.37365(14) 0.02972(8) 0.68566(11)
C4 C 0.45683(14) -0.03574(8) 0.71675(11)
C5 C 0.45744(15) -0.10216(9) 0.65487(11)
H1 H 0.5128 -0.1467 0.6739
C6 C 0.37444(14) -0.10380(9) 0.56187(11)
O1 O 0.38514(11) -0.16987(6) 0.50338(8)
C7 C 0.30839(16) -0.16784(9) 0.40570(11)
H2 H 0.2122 -0.1548 0.4178
H3 H 0.3111 -0.2211 0.3725
C8 C 0.36726(15) -0.10551(9) 0.33414(11)
O2 O 0.49067(10) -0.09365(7) 0.33372(8)
N4 N 0.27488(12) -0.06798(7) 0.27259(9)
H4 H 0.1882 -0.0789 0.2793
C9 C 0.31235(15) -0.00937(9) 0.19441(11)
H5 H 0.4112 -0.0172 0.1825
C10 C 0.23518(18) -0.02674(11) 0.09228(12)
H6 H 0.2530 -0.0818 0.0711
H7 H 0.2654 0.0101 0.0390
H8 H 0.1374 -0.0197 0.1009
C11 C 0.29559(15) 0.07563(9) 0.23437(11)
C12 C 0.21491(18) 0.13241(11) 0.18378(13)
H9 H 0.1654 0.1185 0.1217
C13 C 0.20528(18) 0.20939(11) 0.22253(14)
H10 H 0.1481 0.2472 0.1873
C14 C 0.27758(16) 0.23148(10) 0.31130(13)
H11 H 0.2714 0.2844 0.3371
C15 C 0.35993(16) 0.17542(10) 0.36296(13)
H12 H 0.4106 0.1900 0.4243
C16 C 0.36787(15) 0.09839(10) 0.32494(12)
H13 H 0.4235 0.0603 0.3611
C17 C 0.10267(15) 0.09411(9) 0.50310(11)
H14 H 0.1360 0.1317 0.4519
H15 H 0.0217 0.1164 0.5340
H16 H 0.0793 0.0433 0.4691
C18 C 0.53779(15) -0.03647(9) 0.81846(11)
F1 F 0.63738(9) 0.01727(6) 0.82175(7)
F2 F 0.45934(10) -0.02029(7) 0.89735(7)
F3 F 0.59535(11) -0.10725(6) 0.83837(7)
C19 C 0.38937(15) 0.15795(8) 0.80706(11)
C20 C 0.30586(16) 0.18313(9) 0.88481(12)
H17 H 0.2139 0.1659 0.8849
C21 C 0.35719(18) 0.23332(10) 0.96198(13)
H18 H 0.3000 0.2501 1.0153
C22 C 0.49086(18) 0.25950(9) 0.96265(13)
H19 H 0.5252 0.2940 1.0159
C23 C 0.57345(17) 0.23497(10) 0.88530(14)
H20 H 0.6651 0.2528 0.8851
C24 C 0.52303(16) 0.18423(10) 0.80758(13)
H21 H 0.5805 0.1675 0.7545
N5 N 0.81933(12) -0.05159(7) 0.53244(9)
C25 C 0.82239(14) 0.01156(8) 0.59661(11)
N6 N 0.75266(12) 0.07941(7) 0.57765(9)
N7 N 0.77937(12) 0.13420(7) 0.65341(9)
C26 C 0.86685(14) 0.10092(8) 0.72228(10)
C27 C 0.89911(14) 0.02137(8) 0.69057(10)
C28 C 0.98249(14) -0.04494(8) 0.71908(11)
C29 C 0.98382(15) -0.10968(9) 0.65470(11)
H22 H 1.0398 -0.1544 0.6720
C30 C 0.90106(14) -0.10989(9) 0.56154(11)
O3 O 0.90796(11) -0.17542(6) 0.50150(8)
C31 C 0.82077(16) -0.17331(9) 0.40888(11)
H23 H 0.7268 -0.1602 0.4275
H24 H 0.8194 -0.2267 0.3759
C32 C 0.86962(14) -0.11157(8) 0.33218(11)
O4 O 0.99132(10) -0.09507(6) 0.32765(8)
N8 N 0.77128(12) -0.08210(7) 0.26874(9)
H25 H 0.6865 -0.0956 0.2791
C33 C 0.79850(15) -0.02823(9) 0.18250(11)
H26 H 0.8968 -0.0344 0.1674
C34 C 0.71623(17) -0.05490(10) 0.08637(12)
H27 H 0.7441 -0.1089 0.0671
H28 H 0.7323 -0.0181 0.0293
H29 H 0.6193 -0.0549 0.1008
C35 C 0.77713(15) 0.05863(9) 0.21317(11)
C36 C 0.66483(15) 0.10313(10) 0.17915(12)
H30 H 0.5973 0.0794 0.1343
C37 C 0.65038(17) 0.18190(10) 0.21009(13)
H31 H 0.5725 0.2115 0.1869
C38 C 0.74852(17) 0.21766(10) 0.27443(13)
H32 H 0.7385 0.2717 0.2952
C39 C 0.86159(17) 0.17404(10) 0.30837(12)
H33 H 0.9297 0.1983 0.3523
C40 C 0.87543(15) 0.09514(9) 0.27835(11)
H34 H 0.9528 0.0655 0.3024
C41 C 0.64802(15) 0.09378(10) 0.49724(11)
H35 H 0.6575 0.0551 0.4411
H36 H 0.6578 0.1480 0.4700
H37 H 0.5582 0.0880 0.5263
C42 C 1.06385(15) -0.04841(8) 0.82014(11)
F4 F 1.15932(9) -0.10540(5) 0.82147(7)
F5 F 0.98322(9) -0.06457(5) 0.89937(6)
F6 F 1.12700(9) 0.02051(5) 0.84292(6)
C43 C 0.90743(14) 0.15073(9) 0.81333(11)
C44 C 0.94377(14) 0.23017(9) 0.79712(11)
H38 H 0.9500 0.2497 0.7285
C45 C 0.97082(16) 0.28072(9) 0.88017(12)
H39 H 0.9962 0.3346 0.8684
C46 C 0.96078(15) 0.25262(9) 0.98105(12)
H40 H 0.9788 0.2872 1.0382
C47 C 0.92441(15) 0.17395(9) 0.99739(11)
H41 H 0.9174 0.1547 1.0661
C48 C 0.89818(15) 0.12303(9) 0.91453(11)
H42 H 0.8738 0.0691 0.9267
loop_
_geom_bond_atom_site_label_1
_geom_bond_atom_site_label_2
_geom_bond_site_symmetry_1
_geom_bond_site_symmetry_2
N1 C1 1_555 1_555
C1 N2 1_555 1_555
N2 N3 1_555 1_555
N3 C2 1_555 1_555
C2 C3 1_555 1_555
C3 C1 1_555 1_555
C4 C3 1_555 1_555
C5 C4 1_555 1_555
H1 C5 1_555 1_555
C6 N1 1_555 1_555
O1 C6 1_555 1_555
C7 O1 1_555 1_555
H2 C7 1_555 1_555
H3 C7 1_555 1_555
C8 C7 1_555 1_555
O2 C8 1_555 1_555
N4 C8 1_555 1_555
H4 N4 1_555 1_555
C9 N4 1_555 1_555
H5 C9 1_555 1_555
C10 C9 1_555 1_555
H6 C10 1_555 1_555
H7 C10 1_555 1_555
H8 C10 1_555 1_555
C11 C9 1_555 1_555
C12 C11 1_555 1_555
H9 C12 1_555 1_555
C13 C12 1_555 1_555
H10 C13 1_555 1_555
C14 C13 1_555 1_555
H11 C14 1_555 1_555
C15 C14 1_555 1_555
H12 C15 1_555 1_555
C16 C11 1_555 1_555
H13 C16 1_555 1_555
C17 N2 1_555 1_555
H14 C17 1_555 1_555
H15 C17 1_555 1_555
H16 C17 1_555 1_555
C18 C4 1_555 1_555
F1 C18 1_555 1_555
F2 C18 1_555 1_555
F3 C18 1_555 1_555
C19 C2 1_555 1_555
C20 C19 1_555 1_555
H17 C20 1_555 1_555
C21 C20 1_555 1_555
H18 C21 1_555 1_555
C22 C21 1_555 1_555
H19 C22 1_555 1_555
C23 C22 1_555 1_555
H20 C23 1_555 1_555
C24 C19 1_555 1_555
H21 C24 1_555 1_555
N5 C25 1_555 1_555
C25 N6 1_555 1_555
N6 N7 1_555 1_555
N7 C26 1_555 1_555
C26 C27 1_555 1_555
C27 C25 1_555 1_555
C28 C27 1_555 1_555
C29 C28 1_555 1_555
H22 C29 1_555 1_555
C30 N5 1_555 1_555
O3 C30 1_555 1_555
C31 O3 1_555 1_555
H23 C31 1_555 1_555
H24 C31 1_555 1_555
C32 C31 1_555 1_555
O4 C32 1_555 1_555
N8 C32 1_555 1_555
H25 N8 1_555 1_555
C33 N8 1_555 1_555
H26 C33 1_555 1_555
C34 C33 1_555 1_555
H27 C34 1_555 1_555
H28 C34 1_555 1_555
H29 C34 1_555 1_555
C35 C33 1_555 1_555
C36 C35 1_555 1_555
H30 C36 1_555 1_555
C37 C36 1_555 1_555
H31 C37 1_555 1_555
C38 C37 1_555 1_555
H32 C38 1_555 1_555
C39 C38 1_555 1_555
H33 C39 1_555 1_555
C40 C35 1_555 1_555
H34 C40 1_555 1_555
C41 N6 1_555 1_555
H35 C41 1_555 1_555
H36 C41 1_555 1_555
H37 C41 1_555 1_555
C42 C28 1_555 1_555
F4 C42 1_555 1_555
F5 C42 1_555 1_555
F6 C42 1_555 1_555
C43 C26 1_555 1_555
C44 C43 1_555 1_555
H38 C44 1_555 1_555
C45 C44 1_555 1_555
H39 C45 1_555 1_555
C46 C45 1_555 1_555
H40 C46 1_555 1_555
C47 C46 1_555 1_555
H41 C47 1_555 1_555
C48 C43 1_555 1_555
H42 C48 1_555 1_555
C5 C6 1_555 1_555
C15 C16 1_555 1_555
C23 C24 1_555 1_555
C29 C30 1_555 1_555
C39 C40 1_555 1_555
C47 C48 1_555 1_555

#END
