
#######################################################################
#
#                 Cambridge Crystallographic Data Centre
#                                CCDC 
#
#######################################################################
#
# If this CIF has been generated from an entry in the Cambridge 
# Structural Database, then it will include bibliographic, chemical, 
# crystal, experimental, refinement or atomic coordinate data resulting 
# from the CCDC's data processing and validation procedures.
#
#######################################################################

data_MUVKIY
_chemical_formula_moiety         'C66 Cl6'
_chemical_name_systematic        Hexachloro-C66fullerene
_symmetry_cell_setting           monoclinic
_symmetry_space_group_name_H-M   'P 21/n'
_symmetry_Int_Tables_number      14
_space_group_name_Hall           '-P 2yn'
loop_
_symmetry_equiv_pos_site_id
_symmetry_equiv_pos_as_xyz
1 x,y,z
2 1/2-x,1/2+y,1/2-z
3 -x,-y,-z
4 1/2+x,1/2-y,1/2+z
_cell_length_a                   10.812(2)
_cell_length_b                   19.202(4)
_cell_length_c                   17.156(4)
_cell_angle_alpha                90
_cell_angle_beta                 105.162(4)
_cell_angle_gamma                90
_cell_volume                     3437.81
_cell_formula_units_Z            4
loop_
_atom_site_label
_atom_site_type_symbol
_atom_site_fract_x
_atom_site_fract_y
_atom_site_fract_z
Cl1 Cl 0.41383(13) 0.09073(7) 0.16248(8)
Cl2 Cl 0.17902(14) 0.18106(8) 0.41932(9)
Cl3 Cl 0.06506(13) 0.21282(7) 0.20386(9)
Cl4 Cl 0.50459(15) 0.05655(7) 0.38597(9)
Cl5 Cl 0.45168(14) 0.14302(8) 0.52429(8)
Cl6 Cl 0.23258(15) 0.32568(8) 0.48939(9)
C1 C 0.7051(5) 0.2156(3) 0.3992(3)
C2 C 0.5297(5) 0.2542(3) 0.4561(3)
C3 C 0.5854(5) 0.1823(3) 0.2632(3)
C4 C 0.5155(5) 0.3814(3) 0.4604(3)
C5 C 0.3198(5) 0.3023(3) 0.4151(3)
C6 C 0.3924(5) 0.1684(3) 0.2931(3)
C7 C 0.7202(5) 0.4421(3) 0.4703(3)
C8 C 0.5162(6) 0.4976(3) 0.4039(3)
C9 C 0.5051(6) 0.3822(3) 0.0645(3)
C10 C 0.2832(5) 0.2623(3) 0.1715(3)
C11 C 0.2464(5) 0.3287(3) 0.1390(3)
C12 C 0.4607(5) 0.3134(3) 0.4525(3)
C13 C 0.8346(5) 0.3427(3) 0.4559(3)
C14 C 0.4455(5) 0.1709(3) 0.2212(3)
C15 C 0.6072(5) 0.1761(3) 0.3459(3)
C16 C 0.3936(5) 0.2316(3) 0.1656(3)
C17 C 0.8791(5) 0.4514(3) 0.3910(3)
C18 C 0.2761(5) 0.3516(3) 0.3439(3)
C19 C 0.4480(5) 0.1909(3) 0.4349(3)
C20 C 0.6552(6) 0.4982(3) 0.4318(3)
C21 C 0.8003(5) 0.2412(3) 0.3661(3)
C22 C 0.2173(5) 0.3275(3) 0.2682(3)
C23 C 0.6490(6) 0.3824(3) 0.4860(3)
C24 C 0.8725(5) 0.3035(3) 0.3990(3)
C25 C 0.3109(5) 0.2225(3) 0.3935(3)
C26 C 0.3255(5) 0.4231(3) 0.3524(3)
C27 C 0.2058(5) 0.3701(3) 0.1993(3)
C28 C 0.6628(5) 0.2576(3) 0.4584(3)
C29 C 0.2233(5) 0.2521(3) 0.2419(3)
C30 C 0.7233(5) 0.3213(3) 0.4812(3)
C31 C 0.4749(5) 0.2665(3) 0.1242(3)
C32 C 0.7837(5) 0.2420(3) 0.2805(3)
C33 C 0.5986(6) 0.5628(3) 0.2317(3)
C34 C 0.9113(5) 0.3380(3) 0.3339(4)
C35 C 0.6611(6) 0.4974(3) 0.1346(3)
C36 C 0.7177(6) 0.4339(3) 0.1231(3)
C37 C 0.4255(5) 0.3280(3) 0.0798(3)
C38 C 0.2341(5) 0.4391(3) 0.2053(3)
C39 C 0.4446(5) 0.4388(3) 0.4141(3)
C40 C 0.6152(5) 0.2601(3) 0.1526(3)
C41 C 0.3025(5) 0.2097(3) 0.3069(3)
C42 C 0.6370(6) 0.3754(3) 0.0901(3)
C43 C 0.3702(5) 0.5238(3) 0.2740(4)
C44 C 0.9174(5) 0.4104(3) 0.3310(4)
C45 C 0.6675(5) 0.2211(3) 0.2270(3)
C46 C 0.4843(6) 0.5447(3) 0.1695(3)
C47 C 0.2898(6) 0.4735(3) 0.1483(3)
C48 C 0.8250(5) 0.4079(3) 0.1846(3)
C49 C 0.8745(5) 0.4453(3) 0.2548(3)
C50 C 0.3271(6) 0.4349(3) 0.0896(3)
C51 C 0.8557(5) 0.2999(3) 0.2612(4)
C52 C 0.7038(6) 0.5362(3) 0.3729(3)
C53 C 0.4476(6) 0.4485(3) 0.0723(3)
C54 C 0.5225(6) 0.5043(3) 0.1096(3)
C55 C 0.5957(6) 0.5620(3) 0.3116(3)
C56 C 0.7078(6) 0.5347(3) 0.2087(3)
C57 C 0.4812(6) 0.5398(3) 0.3336(4)
C58 C 0.4906(5) 0.1485(3) 0.3681(3)
C59 C 0.2910(5) 0.4659(3) 0.2854(3)
C60 C 0.8117(6) 0.3339(3) 0.1882(3)
C61 C 0.6927(6) 0.3125(3) 0.1334(3)
C62 C 0.8350(6) 0.4170(3) 0.4511(3)
C63 C 0.3723(5) 0.5281(3) 0.1902(3)
C64 C 0.8115(6) 0.5117(3) 0.3525(3)
C65 C 0.8115(6) 0.5095(3) 0.2674(4)
C66 C 0.3116(5) 0.3596(3) 0.0896(3)
loop_
_geom_bond_atom_site_label_1
_geom_bond_atom_site_label_2
_geom_bond_site_symmetry_1
_geom_bond_site_symmetry_2
Cl1 C14 1_555 1_555
Cl2 C25 1_555 1_555
Cl3 C29 1_555 1_555
Cl4 C58 1_555 1_555
Cl5 C19 1_555 1_555
Cl6 C5 1_555 1_555
C1 C15 1_555 1_555
C2 C12 1_555 1_555
C3 C14 1_555 1_555
C4 C12 1_555 1_555
C5 C12 1_555 1_555
C6 C14 1_555 1_555
C7 C20 1_555 1_555
C8 C20 1_555 1_555
C9 C37 1_555 1_555
C10 C11 1_555 1_555
C11 C27 1_555 1_555
C13 C24 1_555 1_555
C14 C16 1_555 1_555
C15 C3 1_555 1_555
C16 C10 1_555 1_555
C17 C44 1_555 1_555
C18 C5 1_555 1_555
C19 C2 1_555 1_555
C20 C52 1_555 1_555
C21 C1 1_555 1_555
C22 C18 1_555 1_555
C23 C4 1_555 1_555
C24 C21 1_555 1_555
C25 C5 1_555 1_555
C26 C18 1_555 1_555
C27 C22 1_555 1_555
C28 C1 1_555 1_555
C29 C10 1_555 1_555
C30 C13 1_555 1_555
C31 C16 1_555 1_555
C32 C21 1_555 1_555
C33 C46 1_555 1_555
C34 C24 1_555 1_555
C35 C36 1_555 1_555
C36 C42 1_555 1_555
C37 C31 1_555 1_555
C38 C27 1_555 1_555
C39 C4 1_555 1_555
C40 C31 1_555 1_555
C41 C6 1_555 1_555
C42 C9 1_555 1_555
C43 C57 1_555 1_555
C44 C34 1_555 1_555
C45 C3 1_555 1_555
C46 C54 1_555 1_555
C47 C38 1_555 1_555
C48 C36 1_555 1_555
C49 C44 1_555 1_555
C50 C47 1_555 1_555
C51 C32 1_555 1_555
C52 C55 1_555 1_555
C53 C9 1_555 1_555
C54 C35 1_555 1_555
C55 C33 1_555 1_555
C56 C33 1_555 1_555
C57 C8 1_555 1_555
C58 C6 1_555 1_555
C59 C26 1_555 1_555
C60 C48 1_555 1_555
C61 C40 1_555 1_555
C62 C7 1_555 1_555
C63 C43 1_555 1_555
C64 C17 1_555 1_555
C65 C49 1_555 1_555
C66 C11 1_555 1_555
C2 C28 1_555 1_555
C7 C23 1_555 1_555
C8 C39 1_555 1_555
C13 C62 1_555 1_555
C15 C58 1_555 1_555
C17 C62 1_555 1_555
C19 C25 1_555 1_555
C19 C58 1_555 1_555
C22 C29 1_555 1_555
C23 C30 1_555 1_555
C25 C41 1_555 1_555
C26 C39 1_555 1_555
C28 C30 1_555 1_555
C29 C41 1_555 1_555
C32 C45 1_555 1_555
C34 C51 1_555 1_555
C35 C56 1_555 1_555
C37 C66 1_555 1_555
C38 C59 1_555 1_555
C40 C45 1_555 1_555
C42 C61 1_555 1_555
C43 C59 1_555 1_555
C46 C63 1_555 1_555
C47 C63 1_555 1_555
C48 C49 1_555 1_555
C50 C53 1_555 1_555
C50 C66 1_555 1_555
C51 C60 1_555 1_555
C52 C64 1_555 1_555
C53 C54 1_555 1_555
C55 C57 1_555 1_555
C56 C65 1_555 1_555
C60 C61 1_555 1_555
C64 C65 1_555 1_555

#END
