
#######################################################################
#
#                 Cambridge Crystallographic Data Centre
#                                CCDC 
#
#######################################################################
#
# If this CIF has been generated from an entry in the Cambridge 
# Structural Database, then it will include bibliographic, chemical, 
# crystal, experimental, refinement or atomic coordinate data resulting 
# from the CCDC's data processing and validation procedures.
#
#######################################################################

data_MUVKEV
_chemical_formula_moiety         'C26 H20 B1 Cl1 F2 N4 O1'
_chemical_name_systematic        
(2-chloro-5-((5-(((furan-2-yl)methyl)((pyridin-2-yl)methyl)amino)-2H-pyrrol-2-ylidene)(phenyl)methyl)-1H-pyrrol-1-yl)-difluoro-boron
_symmetry_cell_setting           orthorhombic
_symmetry_space_group_name_H-M   'P 21 21 21'
_symmetry_Int_Tables_number      19
_space_group_name_Hall           'P 2ac 2ab'
loop_
_symmetry_equiv_pos_site_id
_symmetry_equiv_pos_as_xyz
1 x,y,z
2 1/2-x,-y,1/2+z
3 1/2+x,1/2-y,-z
4 -x,1/2+y,1/2-z
_cell_length_a                   8.3557(16)
_cell_length_b                   12.6690(18)
_cell_length_c                   22.148(4)
_cell_angle_alpha                90
_cell_angle_beta                 90
_cell_angle_gamma                90
_cell_volume                     2344.55
_exptl_crystal_colour            'dark red'
_exptl_crystal_description       plate
_cell_formula_units_Z            4
loop_
_atom_site_label
_atom_site_type_symbol
_atom_site_fract_x
_atom_site_fract_y
_atom_site_fract_z
N1 N 1.0504(9) 0.3006(6) 0.9482(3)
C1 C 1.1902(11) 0.3288(7) 0.9781(3)
H1 H 1.2118 0.3015 1.0162
C2 C 1.2976(8) 0.3980(7) 0.9511(4)
H2 H 1.3912 0.4169 0.9711
C3 C 1.2653(9) 0.4389(6) 0.8942(4)
H3 H 1.3372 0.4852 0.8761
C4 C 1.1255(10) 0.4106(6) 0.8642(3)
H4 H 1.1039 0.4380 0.8261
C5 C 1.0181(8) 0.3415(6) 0.8912(3)
B1 B 0.7131(10) 0.4525(6) 0.7634(4)
C6 C 0.5741(10) 0.6236(5) 0.7253(4)
C7 C 0.5336(10) 0.6726(6) 0.6716(4)
H5 H 0.4872 0.7387 0.6666
C8 C 0.5779(10) 0.6009(6) 0.6264(4)
H6 H 0.5624 0.6102 0.5851
C9 C 0.6495(9) 0.5127(6) 0.6535(3)
C10 C 0.7106(9) 0.4184(6) 0.6295(3)
C11 C 0.7045(11) 0.3990(6) 0.5635(3)
C12 C 0.7739(11) 0.4663(7) 0.5224(4)
H7 H 0.8264 0.5263 0.5363
C13 C 0.7675(13) 0.4464(9) 0.4597(4)
H8 H 0.8147 0.4929 0.4326
C14 C 0.6898(14) 0.3569(10) 0.4393(5)
H9 H 0.6862 0.3423 0.3982
C15 C 0.6186(13) 0.2898(8) 0.4793(4)
H10 H 0.5637 0.2307 0.4656
C16 C 0.6288(11) 0.3107(7) 0.5407(4)
H11 H 0.5827 0.2632 0.5676
C17 C 0.7780(9) 0.3442(5) 0.6658(3)
C18 C 0.8537(10) 0.2486(6) 0.6499(4)
H12 H 0.8621 0.2215 0.6110
C19 C 0.9116(10) 0.2031(5) 0.7001(4)
H13 H 0.9682 0.1400 0.7020
C20 C 0.8703(9) 0.2697(5) 0.7504(3)
C21 C 1.0041(10) 0.1484(6) 0.8190(4)
H14 H 1.0693 0.1323 0.7840
H15 H 1.0755 0.1597 0.8530
C22 C 0.8997(11) 0.0567(7) 0.8323(4)
C23 C 0.8554(14) 0.0096(8) 0.8834(5)
H16 H 0.8828 0.0277 0.9228
C24 C 0.7544(13) -0.0766(8) 0.8633(5)
H17 H 0.7084 -0.1269 0.8885
C25 C 0.7377(13) -0.0736(8) 0.8059(5)
H18 H 0.6758 -0.1201 0.7833
C26 C 0.8735(10) 0.3036(6) 0.8632(3)
H19 H 0.8035 0.3626 0.8542
H20 H 0.8177 0.2566 0.8906
Cl1 Cl 0.5424(3) 0.66955(16) 0.79682(11)
F1 F 0.5916(5) 0.4183(3) 0.80167(19)
F2 F 0.8295(5) 0.5046(3) 0.79720(18)
N2 N 0.6461(7) 0.5274(4) 0.7158(3)
N3 N 0.7889(7) 0.3558(4) 0.7297(2)
N4 N 0.9131(7) 0.2474(4) 0.8074(3)
O1 O 0.8254(9) 0.0091(6) 0.7826(3)
loop_
_geom_bond_atom_site_label_1
_geom_bond_atom_site_label_2
_geom_bond_site_symmetry_1
_geom_bond_site_symmetry_2
N1 C1 1_555 1_555
C1 H1 1_555 1_555
C2 C1 1_555 1_555
H2 C2 1_555 1_555
C3 C2 1_555 1_555
H3 C3 1_555 1_555
C4 C3 1_555 1_555
H4 C4 1_555 1_555
C5 N1 1_555 1_555
B1 F1 1_555 1_555
C6 C7 1_555 1_555
C7 H5 1_555 1_555
C8 C7 1_555 1_555
H6 C8 1_555 1_555
C9 C8 1_555 1_555
C10 C9 1_555 1_555
C11 C10 1_555 1_555
C12 C11 1_555 1_555
H7 C12 1_555 1_555
C13 C12 1_555 1_555
H8 C13 1_555 1_555
C14 C13 1_555 1_555
H9 C14 1_555 1_555
C15 C14 1_555 1_555
H10 C15 1_555 1_555
C16 C11 1_555 1_555
H11 C16 1_555 1_555
C17 C10 1_555 1_555
C18 C17 1_555 1_555
H12 C18 1_555 1_555
C19 C18 1_555 1_555
H13 C19 1_555 1_555
C20 C19 1_555 1_555
C21 H14 1_555 1_555
H15 C21 1_555 1_555
C22 C21 1_555 1_555
C23 C22 1_555 1_555
H16 C23 1_555 1_555
C24 C23 1_555 1_555
H17 C24 1_555 1_555
C25 C24 1_555 1_555
H18 C25 1_555 1_555
C26 C5 1_555 1_555
H19 C26 1_555 1_555
H20 C26 1_555 1_555
Cl1 C6 1_555 1_555
F2 B1 1_555 1_555
N2 B1 1_555 1_555
N3 B1 1_555 1_555
N4 C20 1_555 1_555
O1 C22 1_555 1_555
C4 C5 1_555 1_555
C6 N2 1_555 1_555
C9 N2 1_555 1_555
C15 C16 1_555 1_555
C17 N3 1_555 1_555
C20 N3 1_555 1_555
C21 N4 1_555 1_555
C25 O1 1_555 1_555
C26 N4 1_555 1_555

#END
