
#######################################################################
#
#                 Cambridge Crystallographic Data Centre
#                                CCDC 
#
#######################################################################
#
# If this CIF has been generated from an entry in the Cambridge 
# Structural Database, then it will include bibliographic, chemical, 
# crystal, experimental, refinement or atomic coordinate data resulting 
# from the CCDC's data processing and validation procedures.
#
#######################################################################

data_MUVKEU
_chemical_formula_moiety         'C56 Cl12,0.5(C7 H8)'
_chemical_name_systematic        'Dodecachloro-C56fullerene toluene solvate'
_symmetry_cell_setting           monoclinic
_symmetry_space_group_name_H-M   'P 21/c'
_symmetry_Int_Tables_number      14
_space_group_name_Hall           '-P 2ybc'
loop_
_symmetry_equiv_pos_site_id
_symmetry_equiv_pos_as_xyz
1 x,y,z
2 -x,1/2+y,1/2-z
3 -x,-y,-z
4 x,1/2-y,1/2+z
_cell_length_a                   17.919(3)
_cell_length_b                   36.241(6)
_cell_length_c                   12.291(2)
_cell_angle_alpha                90
_cell_angle_beta                 90.174(3)
_cell_angle_gamma                90
_cell_volume                     7981.77
_cell_formula_units_Z            8
loop_
_atom_site_label
_atom_site_type_symbol
_atom_site_fract_x
_atom_site_fract_y
_atom_site_fract_z
C1 C 0.0918(14) 0.3580(3) 0.3096(15)
C2 C 0.0129(9) 0.4096(7) 0.3212(15)
C3 C 0.2283(4) 0.3132(2) 0.7520(6)
C4 C 0.2172(4) 0.3451(2) 0.8366(6)
C5 C 0.1368(5) 0.3393(2) 0.8790(6)
C6 C -0.0192(4) 0.3309(2) 0.8497(6)
C7 C 0.0404(5) 0.4278(2) 0.8385(6)
C8 C 0.1275(5) 0.2746(2) 0.6664(6)
C9 C 0.0200(4) 0.3425(2) 0.2747(6)
C10 C 0.1141(5) 0.4079(2) 0.8863(6)
C11 C 0.1362(4) 0.42914(19) 0.7046(6)
C12 C 0.1627(5) 0.2799(2) 0.5526(6)
C13 C -0.0174(5) 0.4279(2) 0.4321(7)
C14 C -0.0407(4) 0.2836(2) 0.5122(6)
C15 C -0.0351(4) 0.3760(2) 0.2968(6)
C16 C -0.1232(4) 0.3651(2) 0.6131(6)
C17 C 0.1680(4) 0.4089(2) 0.7925(6)
C18 C 0.0854(4) 0.29994(19) 0.3906(6)
C19 C 0.0491(5) 0.26859(19) 0.6588(6)
C20 C -0.0476(5) 0.3048(2) 0.4142(6)
C21 C 0.1107(4) 0.42928(19) 0.5087(6)
C22 C 0.1997(4) 0.3179(2) 0.5471(6)
C23 C 0.1078(5) 0.3054(2) 0.8365(6)
C24 C -0.0785(5) 0.3299(2) 0.7726(6)
C25 C 0.0016(5) 0.2806(2) 0.7350(6)
C26 C -0.1037(4) 0.3632(2) 0.7266(6)
C27 C -0.0886(5) 0.3000(2) 0.5936(7)
C28 C -0.0682(5) 0.2978(2) 0.7032(7)
C29 C -0.0711(4) 0.3976(2) 0.7600(7)
C30 C 0.1555(4) 0.2907(2) 0.7582(6)
C31 C 0.1852(4) 0.3423(2) 0.4573(6)
C32 C -0.1195(4) 0.3329(2) 0.5488(6)
C33 C -0.0172(4) 0.3981(2) 0.8380(6)
C34 C 0.0287(4) 0.27016(18) 0.5442(6)
C35 C 0.1918(4) 0.3798(2) 0.4719(6)
C36 C 0.2152(4) 0.3798(2) 0.7698(6)
C37 C 0.0934(4) 0.27905(19) 0.4813(6)
C38 C 0.0902(5) 0.3684(2) 0.8997(6)
C39 C 0.0139(4) 0.3111(2) 0.3506(6)
C40 C -0.0775(4) 0.4015(2) 0.4657(6)
C41 C -0.0974(4) 0.3363(2) 0.4384(6)
C42 C 0.0608(5) 0.43622(19) 0.7205(7)
C43 C 0.2279(4) 0.3324(2) 0.6423(6)
C44 C 0.1440(4) 0.3280(2) 0.3560(6)
C45 C -0.0710(4) 0.4238(2) 0.6618(7)
C46 C 0.0291(5) 0.3007(2) 0.8258(6)
C47 C -0.1015(4) 0.3994(2) 0.5719(7)
C48 C 0.0101(5) 0.4354(2) 0.6343(7)
C49 C -0.0806(4) 0.3704(2) 0.3974(6)
C50 C 0.0107(4) 0.3648(2) 0.8817(6)
C51 C 0.0895(4) 0.39261(19) 0.3439(5)
C52 C 0.1606(4) 0.4243(2) 0.5989(6)
C53 C 0.1456(4) 0.4092(2) 0.4142(6)
C54 C 0.2306(4) 0.3713(2) 0.6610(6)
C55 C 0.2103(4) 0.3941(2) 0.5749(6)
C56 C 0.0363(4) 0.43325(18) 0.5253(6)
Cl1 Cl 0.02351(18) 0.44363(8) 0.2154(2)
Cl2 Cl -0.0632(3) 0.47338(14) 0.4074(4)
Cl3 Cl 0.2069(2) 0.31275(15) 0.2513(4)
Cl7 Cl 0.31065(13) 0.28619(6) 0.76842(19)
Cl8 Cl -0.09576(15) 0.38641(7) 0.18481(18)
Cl11 Cl 0.01719(15) 0.32577(7) 0.13678(17)
Cl12 Cl -0.12764(13) 0.46480(7) 0.6838(2)
Cl16 Cl 0.01410(15) 0.46862(7) 0.9086(2)
Cl18 Cl 0.15237(15) 0.42721(8) 1.00744(19)
Cl19 Cl 0.28290(13) 0.34718(7) 0.94625(18)
Cl21 Cl 0.22837(13) 0.24408(6) 0.51692(19)
Cl23 Cl 0.20724(13) 0.43907(6) 0.33548(18)
C57 C 0.4905(5) 0.5868(3) -0.5801(7)
C58 C 0.4094(4) 0.6370(2) -0.6081(6)
C59 C 0.4624(5) 0.5822(3) -0.0653(7)
C60 C 0.5733(5) 0.6799(3) -0.1482(6)
C61 C 0.3981(5) 0.7199(2) -0.4534(6)
C62 C 0.6220(4) 0.6431(3) -0.2985(7)
C63 C 0.5819(4) 0.7068(2) -0.3311(7)
C64 C 0.3887(5) 0.6001(3) -0.0265(7)
C65 C 0.4390(5) 0.7352(2) -0.2807(8)
C66 C 0.4888(5) 0.7264(2) -0.1981(7)
C67 C 0.4610(5) 0.7079(3) -0.1037(7)
C68 C 0.6043(4) 0.6073(2) -0.3345(6)
C69 C 0.4611(5) 0.7314(2) -0.3913(7)
C70 C 0.2651(5) 0.6886(2) -0.1817(7)
C71 C 0.5723(5) 0.6128(3) -0.1479(7)
C72 C 0.3961(5) 0.5703(2) -0.3954(7)
C73 C 0.3563(5) 0.6680(3) -0.0466(6)
C74 C 0.3292(4) 0.7185(2) -0.3831(7)
C75 C 0.6021(4) 0.6469(3) -0.1852(7)
C76 C 0.4980(5) 0.5701(2) -0.2664(7)
C77 C 0.2922(4) 0.6048(2) -0.3394(7)
C78 C 0.3444(4) 0.5760(2) -0.3095(7)
C79 C 0.5751(5) 0.5838(3) -0.2388(7)
C80 C 0.6157(4) 0.6727(2) -0.3688(7)
C81 C 0.3099(4) 0.6164(2) -0.4442(6)
C82 C 0.3693(5) 0.5739(2) -0.2038(7)
C83 C 0.5126(5) 0.6793(3) -0.0725(7)
C84 C 0.5323(5) 0.7195(2) -0.4166(7)
C85 C 0.4455(4) 0.5697(2) -0.1827(7)
C86 C 0.5274(5) 0.5725(2) -0.4690(7)
C87 C 0.5184(5) 0.6119(3) -0.0691(7)
C88 C 0.5827(5) 0.6020(2) -0.4392(7)
C89 C 0.3602(5) 0.7278(2) -0.2717(7)
C90 C 0.4715(5) 0.5680(2) -0.3792(7)
C91 C 0.5388(4) 0.6223(2) -0.6143(6)
C92 C 0.4097(5) 0.6971(2) -0.5406(6)
C93 C 0.2846(4) 0.6228(2) -0.1481(6)
C94 C 0.4061(5) 0.6407(3) -0.0176(6)
C95 C 0.5961(4) 0.6667(2) -0.4794(6)
C96 C 0.4855(5) 0.6464(3) -0.0353(6)
C97 C 0.3832(5) 0.7013(2) -0.0956(6)
C98 C 0.2689(4) 0.6285(2) -0.2621(6)
C99 C 0.3335(5) 0.5960(2) -0.1183(7)
C100 C 0.4168(4) 0.6037(2) -0.5672(6)
C101 C 0.2807(5) 0.6589(3) -0.0877(7)
C102 C 0.3325(5) 0.7124(2) -0.1794(7)
C103 C 0.2955(4) 0.6793(2) -0.3826(6)
C104 C 0.5594(5) 0.7096(2) -0.2240(7)
C105 C 0.2675(4) 0.6662(2) -0.2856(6)
C106 C 0.3612(4) 0.5871(2) -0.4970(7)
C107 C 0.3143(4) 0.6541(2) -0.4677(6)
C108 C 0.4827(4) 0.6872(2) -0.5748(6)
C109 C 0.3556(4) 0.6661(2) -0.5693(6)
C110 C 0.5812(4) 0.6309(2) -0.5127(6)
C111 C 0.5439(5) 0.6961(2) -0.5109(6)
C112 C 0.4815(5) 0.6534(3) -0.6443(6)
Cl4 Cl 0.48635(15) 0.55118(8) -0.6831(2)
Cl5 Cl 0.29039(13) 0.67915(9) -0.6767(2)
Cl6 Cl 0.57760(15) 0.52935(7) -0.4852(2)
Cl9 Cl 0.30314(14) 0.55362(7) -0.5694(2)
Cl10 Cl 0.17961(13) 0.71360(7) -0.1713(2)
Cl13 Cl 0.48112(15) 0.66638(8) -0.78498(17)
Cl14 Cl 0.35151(15) 0.58392(9) 0.1016(2)
Cl15 Cl 0.25879(14) 0.75142(7) -0.4275(2)
Cl17 Cl 0.63613(14) 0.54561(8) -0.2031(2)
Cl20 Cl 0.21148(13) 0.65746(7) 0.01909(18)
Cl22 Cl 0.60234(13) 0.61179(7) -0.72264(18)
Cl24 Cl 0.49362(16) 0.54400(9) 0.0159(2)
C113 C 0.1890(10) 0.5312(6) 1.0050(16)
H1 H 0.1461 0.5449 0.9811
H2 H 0.2228 0.5475 1.0425
H3 H 0.1736 0.5119 1.0533
C114 C 0.2395(6) 0.5057(3) 0.7187(11)
H4 H 0.2213 0.5096 0.6486
C115 C 0.3293(8) 0.4797(4) 0.8347(13)
H5 H 0.3725 0.4659 0.8441
C116 C 0.2024(6) 0.5204(3) 0.8057(11)
H6 H 0.1596 0.5344 0.7946
C117 C 0.2944(8) 0.4938(4) 0.9215(12)
H7 H 0.3137 0.4901 0.9909
C118 C 0.3020(7) 0.4856(3) 0.7333(12)
H8 H 0.3265 0.4757 0.6735
C119 C 0.2280(7) 0.5145(4) 0.9074(12)
C120? C 0.0216(15) 0.4071(16) 0.350(4)
C121? C 0.101(4) 0.3554(12) 0.283(4)
Cl25? Cl 0.1554(5) 0.3642(2) 0.1635(6)
Cl26? Cl 0.2166(6) 0.2993(3) 0.2873(9)
Cl27? Cl -0.0387(8) 0.4699(4) 0.3689(13)
loop_
_geom_bond_atom_site_label_1
_geom_bond_atom_site_label_2
_geom_bond_site_symmetry_1
_geom_bond_site_symmetry_2
C1 C9 1_555 1_555
C2 C13 1_555 1_555
C3 C4 1_555 1_555
C4 C5 1_555 1_555
C5 C23 1_555 1_555
C6 C24 1_555 1_555
C7 C10 1_555 1_555
C8 C12 1_555 1_555
C9 C15 1_555 1_555
C10 C17 1_555 1_555
C11 C17 1_555 1_555
C12 C22 1_555 1_555
C13 C40 1_555 1_555
C14 C20 1_555 1_555
C15 C2 1_555 1_555
C16 C26 1_555 1_555
C17 C36 1_555 1_555
C18 C37 1_555 1_555
C19 C8 1_555 1_555
C20 C39 1_555 1_555
C21 C52 1_555 1_555
C22 C31 1_555 1_555
C23 C30 1_555 1_555
C24 C26 1_555 1_555
C25 C19 1_555 1_555
C26 C29 1_555 1_555
C27 C14 1_555 1_555
C28 C24 1_555 1_555
C29 C33 1_555 1_555
C30 C3 1_555 1_555
C31 C35 1_555 1_555
C32 C16 1_555 1_555
C33 C7 1_555 1_555
C34 C14 1_555 1_555
C35 C53 1_555 1_555
C36 C4 1_555 1_555
C37 C12 1_555 1_555
C38 C5 1_555 1_555
C39 C9 1_555 1_555
C40 C47 1_555 1_555
C41 C20 1_555 1_555
C42 C7 1_555 1_555
C43 C3 1_555 1_555
C44 C1 1_555 1_555
C45 C29 1_555 1_555
C46 C6 1_555 1_555
C47 C16 1_555 1_555
C48 C42 1_555 1_555
C49 C15 1_555 1_555
C50 C6 1_555 1_555
C51 C1 1_555 1_555
C52 C11 1_555 1_555
C53 C21 1_555 1_555
C54 C36 1_555 1_555
C55 C35 1_555 1_555
C56 C13 1_555 1_555
C57 C86 1_555 1_555
C58 C100 1_555 1_555
C59 C64 1_555 1_555
C60 C75 1_555 1_555
C61 C69 1_555 1_555
C62 C68 1_555 1_555
C63 C80 1_555 1_555
C64 C94 1_555 1_555
C65 C66 1_555 1_555
C66 C67 1_555 1_555
C67 C83 1_555 1_555
C68 C79 1_555 1_555
C69 C65 1_555 1_555
C70 C101 1_555 1_555
C71 C75 1_555 1_555
C72 C78 1_555 1_555
C73 C94 1_555 1_555
C74 C61 1_555 1_555
C75 C62 1_555 1_555
C76 C79 1_555 1_555
C77 C78 1_555 1_555
C78 C82 1_555 1_555
C79 C71 1_555 1_555
C80 C62 1_555 1_555
C81 C77 1_555 1_555
C82 C85 1_555 1_555
C83 C60 1_555 1_555
C84 C63 1_555 1_555
C85 C59 1_555 1_555
C86 C88 1_555 1_555
C87 C59 1_555 1_555
C88 C68 1_555 1_555
C89 C65 1_555 1_555
C90 C72 1_555 1_555
C91 C57 1_555 1_555
C92 C61 1_555 1_555
C93 C98 1_555 1_555
C94 C96 1_555 1_555
C95 C80 1_555 1_555
C96 C83 1_555 1_555
C97 C67 1_555 1_555
C98 C77 1_555 1_555
C99 C64 1_555 1_555
C100 C57 1_555 1_555
C101 C73 1_555 1_555
C102 C70 1_555 1_555
C103 C74 1_555 1_555
C104 C60 1_555 1_555
C105 C70 1_555 1_555
C106 C72 1_555 1_555
C107 C81 1_555 1_555
C108 C92 1_555 1_555
C109 C58 1_555 1_555
C110 C88 1_555 1_555
C111 C84 1_555 1_555
C112 C58 1_555 1_555
C113 H1 1_555 1_555
H2 C113 1_555 1_555
H3 C113 1_555 1_555
C114 H4 1_555 1_555
C115 H5 1_555 1_555
C116 C114 1_555 1_555
H6 C116 1_555 1_555
C117 C115 1_555 1_555
H7 C117 1_555 1_555
C118 C114 1_555 1_555
H8 C118 1_555 1_555
C119 C113 1_555 1_555
Cl1 C2 1_555 1_555
Cl2 C13 1_555 1_555
Cl3 C44 1_555 1_555
Cl4 C57 1_555 1_555
Cl5 C109 1_555 1_555
Cl6 C86 1_555 1_555
Cl7 C3 1_555 1_555
Cl8 C15 1_555 1_555
Cl9 C106 1_555 1_555
Cl10 C70 1_555 1_555
Cl11 C9 1_555 1_555
Cl12 C45 1_555 1_555
Cl13 C112 1_555 1_555
Cl14 C64 1_555 1_555
Cl15 C74 1_555 1_555
Cl16 C7 1_555 1_555
Cl17 C79 1_555 1_555
Cl18 C10 1_555 1_555
Cl19 C4 1_555 1_555
Cl20 C101 1_555 1_555
Cl21 C12 1_555 1_555
Cl22 C91 1_555 1_555
Cl23 C53 1_555 1_555
Cl24 C59 1_555 1_555
C2 C51 1_555 1_555
C8 C30 1_555 1_555
C10 C38 1_555 1_555
C11 C42 1_555 1_555
C18 C39 1_555 1_555
C18 C44 1_555 1_555
C19 C34 1_555 1_555
C21 C56 1_555 1_555
C22 C43 1_555 1_555
C23 C46 1_555 1_555
C25 C28 1_555 1_555
C25 C46 1_555 1_555
C27 C28 1_555 1_555
C27 C32 1_555 1_555
C31 C44 1_555 1_555
C32 C41 1_555 1_555
C33 C50 1_555 1_555
C34 C37 1_555 1_555
C38 C50 1_555 1_555
C40 C49 1_555 1_555
C41 C49 1_555 1_555
C43 C54 1_555 1_555
C45 C47 1_555 1_555
C45 C48 1_555 1_555
C48 C56 1_555 1_555
C51 C53 1_555 1_555
C52 C55 1_555 1_555
C54 C55 1_555 1_555
C63 C104 1_555 1_555
C66 C104 1_555 1_555
C69 C84 1_555 1_555
C71 C87 1_555 1_555
C73 C97 1_555 1_555
C74 C89 1_555 1_555
C76 C85 1_555 1_555
C76 C90 1_555 1_555
C81 C106 1_555 1_555
C82 C99 1_555 1_555
C86 C90 1_555 1_555
C87 C96 1_555 1_555
C89 C102 1_555 1_555
C91 C110 1_555 1_555
C91 C112 1_555 1_555
C92 C109 1_555 1_555
C93 C99 1_555 1_555
C93 C101 1_555 1_555
C95 C110 1_555 1_555
C95 C111 1_555 1_555
C97 C102 1_555 1_555
C98 C105 1_555 1_555
C100 C106 1_555 1_555
C103 C105 1_555 1_555
C103 C107 1_555 1_555
C107 C109 1_555 1_555
C108 C111 1_555 1_555
C108 C112 1_555 1_555
C115 C118 1_555 1_555
C116 C119 1_555 1_555
C117 C119 1_555 1_555

#END
