
#######################################################################
#
#                 Cambridge Crystallographic Data Centre
#                                CCDC 
#
#######################################################################
#
# If this CIF has been generated from an entry in the Cambridge 
# Structural Database, then it will include bibliographic, chemical, 
# crystal, experimental, refinement or atomic coordinate data resulting 
# from the CCDC's data processing and validation procedures.
#
#######################################################################

data_MUVLIA
_chemical_formula_moiety         'C16 H27 N1 O6'
_chemical_name_systematic        
(2S,3R,4S,7S)-3,4-dihydroxy-7-methoxy-7-(methoxymethyl)-3-methyl-2-pentyl-3,4,6,7-tetrahydropyrano[2,3-c]pyrrol-5(2H)-one
_symmetry_cell_setting           monoclinic
_symmetry_space_group_name_H-M   'P 21'
_symmetry_Int_Tables_number      4
_space_group_name_Hall           'P 2yb'
loop_
_symmetry_equiv_pos_site_id
_symmetry_equiv_pos_as_xyz
1 x,y,z
2 -x,1/2+y,-z
_cell_length_a                   6.3432(11)
_cell_length_b                   8.4140(12)
_cell_length_c                   16.392(3)
_cell_angle_alpha                90
_cell_angle_beta                 91.779(17)
_cell_angle_gamma                90
_cell_volume                     874.447
_exptl_crystal_colour            colorless
_exptl_crystal_description       tabular
_cell_formula_units_Z            2
loop_
_atom_site_label
_atom_site_type_symbol
_atom_site_fract_x
_atom_site_fract_y
_atom_site_fract_z
O1 O 0.8788(11) 0.6837(7) 0.7592(4)
H1 H 0.8791 0.7491 0.7963
O2 O 0.8219(11) 0.2520(7) 0.7465(4)
O3 O 0.7748(11) 0.5941(8) 0.9310(4)
H2 H 0.6915 0.6657 0.9406
O4 O 0.8377(12) -0.0403(7) 0.8515(4)
O5 O 0.3484(11) 0.0752(8) 0.7613(4)
C1 C 0.5656(16) 0.2538(10) 0.9389(6)
C2 C 0.6698(17) 0.0622(11) 0.8447(6)
O6 O 0.4927(12) 0.3128(8) 1.0005(4)
C3 C 0.7226(15) 0.2287(9) 0.8184(6)
N1 N 0.5690(12) 0.0984(9) 0.9193(5)
H3 H 0.5148 0.0263 0.9494
C4 C 0.6705(14) 0.3405(10) 0.8698(6)
C5 C 0.8809(16) 0.5283(10) 0.7926(7)
C6 C 1.055(2) 0.3524(14) 0.5055(7)
H4 H 0.9832 0.3108 0.4569
H5 H 1.0858 0.4634 0.4954
C7 C 0.8278(17) 0.4190(9) 0.7226(6)
H6 H 0.6879 0.4481 0.7004
C8 C 1.2598(19) 0.2652(14) 0.5176(7)
H7 H 1.2313 0.1539 0.5280
H8 H 1.3354 0.3080 0.5651
C9 C 0.9838(19) 0.4265(12) 0.6529(6)
H9 H 1.0123 0.5369 0.6403
H10 H 1.1157 0.3776 0.6708
C10 C 0.5213(19) -0.0199(12) 0.7787(7)
H11 H 0.5983 -0.0380 0.7294
H12 H 0.4749 -0.1220 0.7989
C11 C 0.209(2) -0.0025(13) 0.7038(7)
H13 H 0.2786 -0.0153 0.6530
H14 H 0.0844 0.0605 0.6953
H15 H 0.1714 -0.1050 0.7246
C12 C 0.9930(19) 0.0007(13) 0.9142(8)
H16 H 1.0343 0.1096 0.9079
H17 H 1.1142 -0.0667 0.9096
H18 H 0.9338 -0.0137 0.9669
C13 C 0.7058(17) 0.5113(9) 0.8574(6)
H19 H 0.5752 0.5601 0.8359
C14 C 0.9020(19) 0.3435(13) 0.5763(7)
H20 H 0.7687 0.3912 0.5591
H21 H 0.8756 0.2328 0.5889
C15 C 1.398(2) 0.2795(16) 0.4429(7)
H22 H 1.3277 0.2312 0.3966
H23 H 1.5303 0.2265 0.4538
H24 H 1.4239 0.3897 0.4316
C16 C 1.1013(17) 0.4965(12) 0.8330(7)
H25 H 1.2083 0.5153 0.7940
H26 H 1.1091 0.3881 0.8512
H27 H 1.1230 0.5663 0.8788
loop_
_geom_bond_atom_site_label_1
_geom_bond_atom_site_label_2
_geom_bond_site_symmetry_1
_geom_bond_site_symmetry_2
O1 H1 1_555 1_555
O2 C3 1_555 1_555
O3 H2 1_555 1_555
O4 C2 1_555 1_555
O5 C10 1_555 1_555
C1 O6 1_555 1_555
C2 C3 1_555 1_555
C3 C4 1_555 1_555
N1 C1 1_555 1_555
H3 N1 1_555 1_555
C4 C1 1_555 1_555
C5 O1 1_555 1_555
C6 H4 1_555 1_555
H5 C6 1_555 1_555
C7 O2 1_555 1_555
H6 C7 1_555 1_555
C8 C6 1_555 1_555
H7 C8 1_555 1_555
H8 C8 1_555 1_555
C9 C7 1_555 1_555
H9 C9 1_555 1_555
H10 C9 1_555 1_555
C10 C2 1_555 1_555
H11 C10 1_555 1_555
H12 C10 1_555 1_555
C11 O5 1_555 1_555
H13 C11 1_555 1_555
H14 C11 1_555 1_555
H15 C11 1_555 1_555
C12 O4 1_555 1_555
H16 C12 1_555 1_555
H17 C12 1_555 1_555
H18 C12 1_555 1_555
C13 O3 1_555 1_555
H19 C13 1_555 1_555
C14 C6 1_555 1_555
H20 C14 1_555 1_555
H21 C14 1_555 1_555
C15 C8 1_555 1_555
H22 C15 1_555 1_555
H23 C15 1_555 1_555
H24 C15 1_555 1_555
C16 C5 1_555 1_555
H25 C16 1_555 1_555
H26 C16 1_555 1_555
H27 C16 1_555 1_555
C2 N1 1_555 1_555
C4 C13 1_555 1_555
C5 C7 1_555 1_555
C5 C13 1_555 1_555
C9 C14 1_555 1_555

#END
