
#######################################################################
#
#                 Cambridge Crystallographic Data Centre
#                                CCDC 
#
#######################################################################
#
# If this CIF has been generated from an entry in the Cambridge 
# Structural Database, then it will include bibliographic, chemical, 
# crystal, experimental, refinement or atomic coordinate data resulting 
# from the CCDC's data processing and validation procedures.
#
#######################################################################

data_MUVMEW
_chemical_name_common            2,8-DMeDNTT
_chemical_formula_moiety         'C24 H16 S2'
_chemical_name_systematic        
2,9-Dimethylnaphtho[2,3-b]naphtho[2',3':4,5]thieno[2,3-d]thiophene
_symmetry_cell_setting           monoclinic
_symmetry_space_group_name_H-M   'P 21'
_symmetry_Int_Tables_number      4
_space_group_name_Hall           'P 2yb'
loop_
_symmetry_equiv_pos_site_id
_symmetry_equiv_pos_as_xyz
1 x,y,z
2 -x,1/2+y,-z
_cell_length_a                   11.686(12)
_cell_length_b                   7.737(7)
_cell_length_c                   10.674(11)
_cell_angle_alpha                90
_cell_angle_beta                 114.187(5)
_cell_angle_gamma                90
_cell_volume                     880.363
_exptl_crystal_colour            yellow
_exptl_crystal_description       platelet
_cell_formula_units_Z            2
loop_
_atom_site_label
_atom_site_type_symbol
_atom_site_fract_x
_atom_site_fract_y
_atom_site_fract_z
S1 S 0.67123(12) 0.5761(2) 0.92480(16)
S2 S 1.01682(13) 0.7934(2) 0.97358(16)
C1 C 0.6604(4) 0.6220(7) 0.7587(6)
C2 C 0.5629(4) 0.5883(8) 0.6384(6)
C3 C 0.5681(4) 0.6297(6) 0.5118(6)
C4 C 0.4716(5) 0.5902(8) 0.3833(6)
C5 C 0.4753(5) 0.6271(7) 0.2608(7)
C6 C 0.5851(6) 0.7147(8) 0.2646(6)
C7 C 0.6809(5) 0.7522(8) 0.3842(7)
C8 C 0.6778(4) 0.7118(6) 0.5116(6)
C9 C 0.7807(5) 0.7480(7) 0.6404(6)
C10 C 0.7736(5) 0.7009(6) 0.7632(6)
C11 C 1.0280(4) 0.7447(6) 1.1385(6)
C12 C 1.1308(4) 0.7690(7) 1.2588(6)
C13 C 1.1255(5) 0.7204(7) 1.3851(6)
C14 C 1.2285(5) 0.7509(7) 1.5144(6)
C15 C 1.2229(5) 0.7037(7) 1.6345(6)
C16 C 1.1131(6) 0.6258(8) 1.6332(7)
C17 C 1.0130(5) 0.5959(8) 1.5131(6)
C18 C 1.0142(5) 0.6437(7) 1.3839(6)
C19 C 0.9100(4) 0.6183(7) 1.2585(6)
C20 C 0.9138(4) 0.6692(6) 1.1364(6)
C21 C 0.8238(4) 0.6587(7) 0.9967(6)
C22 C 0.8631(4) 0.7179(7) 0.9014(6)
C23 C 0.3708(6) 0.5793(9) 0.1252(7)
C24 C 1.3314(5) 0.7368(8) 1.7704(7)
H1 H 0.4885 0.5339 0.6379
H2 H 0.3987 0.5317 0.3835
H3 H 0.5910 0.7463 0.1808
H4 H 0.7529 0.8096 0.3806
H5 H 0.8526 0.8041 0.6409
H6 H 1.2058 0.8160 1.2567
H7 H 1.3029 0.8053 1.5145
H8 H 1.1108 0.5940 1.7199
H9 H 0.9388 0.5439 1.5141
H10 H 0.8348 0.5674 1.2582
H11 H 0.3634 0.4555 0.1198
H12 H 0.2959 0.6292 0.1160
H13 H 0.3932 0.6167 0.0521
H14 H 1.3987 0.7922 1.7563
H15 H 1.3063 0.8135 1.8261
H16 H 1.3613 0.6329 1.8196
loop_
_geom_bond_atom_site_label_1
_geom_bond_atom_site_label_2
_geom_bond_site_symmetry_1
_geom_bond_site_symmetry_2
S1 C1 1_555 1_555
S2 C11 1_555 1_555
C1 C2 1_555 1_555
C2 C3 1_555 1_555
C3 C4 1_555 1_555
C4 C5 1_555 1_555
C5 C6 1_555 1_555
C6 C7 1_555 1_555
C7 C8 1_555 1_555
C8 C3 1_555 1_555
C9 C8 1_555 1_555
C10 C1 1_555 1_555
C11 C12 1_555 1_555
C12 C13 1_555 1_555
C13 C14 1_555 1_555
C14 C15 1_555 1_555
C15 C16 1_555 1_555
C16 C17 1_555 1_555
C17 C18 1_555 1_555
C18 C13 1_555 1_555
C19 C18 1_555 1_555
C20 C11 1_555 1_555
C21 S1 1_555 1_555
C22 S2 1_555 1_555
C23 C5 1_555 1_555
C24 C15 1_555 1_555
H1 C2 1_555 1_555
H2 C4 1_555 1_555
H3 C6 1_555 1_555
H4 C7 1_555 1_555
H5 C9 1_555 1_555
H6 C12 1_555 1_555
H7 C14 1_555 1_555
H8 C16 1_555 1_555
H9 C17 1_555 1_555
H10 C19 1_555 1_555
H11 C23 1_555 1_555
H12 C23 1_555 1_555
H13 C23 1_555 1_555
H14 C24 1_555 1_555
H15 C24 1_555 1_555
H16 C24 1_555 1_555
C9 C10 1_555 1_555
C10 C22 1_555 1_555
C19 C20 1_555 1_555
C20 C21 1_555 1_555
C21 C22 1_555 1_555

#END
