
#######################################################################
#
#                 Cambridge Crystallographic Data Centre
#                                CCDC 
#
#######################################################################
#
# If this CIF has been generated from an entry in the Cambridge 
# Structural Database, then it will include bibliographic, chemical, 
# crystal, experimental, refinement or atomic coordinate data resulting 
# from the CCDC's data processing and validation procedures.
#
#######################################################################

data_MUVMOF
_chemical_compound_source        'fungus Cladobotryum varium CL12284'
_chemical_name_common            CJ-16169
_chemical_formula_moiety         'C19 H21 N1 O3'
_chemical_name_systematic        
3-(Hydroxymethyl)-3-methyl-2-(1-methylpropenyl)-5-phenyl-2,3-dihydrofuro(2,3-b)pyridin-4-ol
_chemical_properties_biological  
'antibacterial activity against several drug-resistant bacteria'
_symmetry_cell_setting           monoclinic
_symmetry_space_group_name_H-M   'P 21'
_symmetry_Int_Tables_number      4
_space_group_name_Hall           'P 2yb'
loop_
_symmetry_equiv_pos_site_id
_symmetry_equiv_pos_as_xyz
1 x,y,z
2 -x,1/2+y,-z
_cell_length_a                   9.859(2)
_cell_length_b                   8.014(1)
_cell_length_c                   11.010(2)
_cell_angle_alpha                90
_cell_angle_beta                 107.34(2)
_cell_angle_gamma                90
_cell_volume                     830.366
_exptl_crystal_colour            colorless
_exptl_crystal_description       needles
_chemical_melting_point          '207-208 deg.C'
_cell_formula_units_Z            2
_exptl_crystal_recrystallization_method n-hexane/methanol
loop_
_atom_site_label
_atom_site_type_symbol
_atom_site_fract_x
_atom_site_fract_y
_atom_site_fract_z
O1 O 0.7746(3) 0.3196 0.1221(3)
C1 C 0.9034(4) 0.2988(6) 0.2109(4)
N1 N 0.9690(4) 0.4335(5) 0.2711(4)
C2 C 1.0941(5) 0.3975(6) 0.3595(4)
C3 C 1.1508(4) 0.2415(6) 0.3900(4)
C4 C 1.0749(4) 0.1043(6) 0.3203(4)
C5 C 0.9483(4) 0.1352(6) 0.2278(4)
C6 C 0.8457(4) 0.0314(6) 0.1259(4)
C7 C 0.7132(4) 0.1491(6) 0.0933(4)
C8 C 0.8134(4) -0.1408(6) 0.1687(4)
O2 O 0.9397(3) -0.2383(4) 0.1942(3)
C9 C 0.6487(4) 0.1465(7) 0.3026(4)
C10 C 0.6033(4) 0.1259(6) 0.1612(4)
C11 C 0.4700(4) 0.0943(7) 0.0912(4)
C12 C 0.3432(4) 0.0726(8) 0.1378(4)
C13 C 1.2870(4) 0.2179(6) 0.4931(4)
C14 C 1.4075(4) 0.3030(7) 0.4873(4)
C15 C 1.5348(5) 0.2833(7) 0.5839(5)
C16 C 1.5413(5) 0.1808(7) 0.6860(4)
C17 C 1.4229(5) 0.0972(7) 0.6916(4)
C18 C 1.2956(5) 0.1161(7) 0.5966(4)
C19 C 0.9011(5) 0.0147(7) 0.0091(4)
O3 O 1.1307(3) -0.0490(5) 0.3471(3)
H1 H 1.1482 0.4898 0.4047
H2 H 0.6598 0.1255 0.0068
H3 H 0.7389 -0.1925 0.1027
H4 H 0.7846 -0.1312 0.2443
H5 H 0.9374(16) -0.3514(16) 0.2188(16)
H6 H 0.7490 0.1681 0.3322
H7 H 0.6281 0.0463 0.3415
H8 H 0.5984 0.2384 0.3248
H9 H 0.4537 0.0844 0.0011
H10 H 0.2608 0.0511 0.0668
H11 H 0.3286 0.1725 0.1804
H12 H 0.3587 -0.0196 0.1960
H13 H 1.4029 0.3750 0.4166
H14 H 1.6184 0.3415 0.5795
H15 H 1.6290 0.1684 0.7530
H16 H 1.4281 0.0243 0.7620
H17 H 1.2125 0.0582 0.6024
H18 H 0.8357 -0.0512 -0.0550
H19 H 0.9925 -0.0386 0.0342
H20 H 0.9096 0.1235 -0.0244
H21 H 1.0772(16) -0.1175(16) 0.2767(16)
loop_
_geom_bond_atom_site_label_1
_geom_bond_atom_site_label_2
_geom_bond_site_symmetry_1
_geom_bond_site_symmetry_2
O1 C1 1_555 1_555
C1 N1 1_555 1_555
N1 C2 1_555 1_555
C2 C3 1_555 1_555
C3 C4 1_555 1_555
C4 C5 1_555 1_555
C5 C1 1_555 1_555
C6 C5 1_555 1_555
C7 O1 1_555 1_555
C8 C6 1_555 1_555
O2 C8 1_555 1_555
C9 C10 1_555 1_555
C10 C7 1_555 1_555
C11 C10 1_555 1_555
C12 C11 1_555 1_555
C13 C3 1_555 1_555
C14 C13 1_555 1_555
C15 C14 1_555 1_555
C16 C15 1_555 1_555
C17 C16 1_555 1_555
C18 C13 1_555 1_555
C19 C6 1_555 1_555
O3 C4 1_555 1_555
H1 C2 1_555 1_555
H2 C7 1_555 1_555
H3 C8 1_555 1_555
H4 C8 1_555 1_555
H5 O2 1_555 1_555
H6 C9 1_555 1_555
H7 C9 1_555 1_555
H8 C9 1_555 1_555
H9 C11 1_555 1_555
H10 C12 1_555 1_555
H11 C12 1_555 1_555
H12 C12 1_555 1_555
H13 C14 1_555 1_555
H14 C15 1_555 1_555
H15 C16 1_555 1_555
H16 C17 1_555 1_555
H17 C18 1_555 1_555
H18 C19 1_555 1_555
H19 C19 1_555 1_555
H20 C19 1_555 1_555
H21 O3 1_555 1_555
C6 C7 1_555 1_555
C17 C18 1_555 1_555

#END
