
#######################################################################
#
#                 Cambridge Crystallographic Data Centre
#                                CCDC 
#
#######################################################################
#
# If this CIF has been generated from an entry in the Cambridge 
# Structural Database, then it will include bibliographic, chemical, 
# crystal, experimental, refinement or atomic coordinate data resulting 
# from the CCDC's data processing and validation procedures.
#
#######################################################################

data_MUVNEW
_chemical_compound_source        'fungus Cladobotryum varium CL12284'
_chemical_name_common            CJ-16174
_chemical_formula_moiety         'C19 H21 N1 O4'
_chemical_name_systematic        
3,3-bis(Hydroxymethyl)-3-methyl-2-(1-methylpropenyl)-5-phenyl-2,3-dihydrofuro(2,3-b)pyridin-4-ol
_chemical_properties_biological  
'antibacterial activity against several drug-resistant bacteria'
_symmetry_cell_setting           orthorhombic
_symmetry_space_group_name_H-M   'P 21 21 21'
_symmetry_Int_Tables_number      19
_space_group_name_Hall           'P 2ac 2ab'
loop_
_symmetry_equiv_pos_site_id
_symmetry_equiv_pos_as_xyz
1 x,y,z
2 1/2-x,-y,1/2+z
3 1/2+x,1/2-y,-z
4 -x,1/2+y,1/2-z
_cell_length_a                   7.795(1)
_cell_length_b                   10.448(1)
_cell_length_c                   21.096(5)
_cell_angle_alpha                90
_cell_angle_beta                 90
_cell_angle_gamma                90
_cell_volume                     1718.1
_exptl_crystal_colour            colorless
_exptl_crystal_description       needles
_chemical_melting_point          '214-216 deg.C'
_cell_formula_units_Z            4
_exptl_crystal_recrystallization_method methanol/water
loop_
_atom_site_label
_atom_site_type_symbol
_atom_site_fract_x
_atom_site_fract_y
_atom_site_fract_z
N1 N 0.7535(4) 0.0828(3) 0.2722(2)
C1 C 0.5975(5) 0.0734(4) 0.2477(2)
C2 C 0.4529(5) 0.0229(4) 0.2770(2)
C3 C 0.4673(5) -0.0194(4) 0.3388(2)
C4 C 0.6318(5) -0.0092(4) 0.3679(2)
C5 C 0.7635(5) 0.0409(4) 0.3332(2)
O1 O 0.5685(4) 0.1166(3) 0.1887(2)
C6 C 0.3986(5) 0.0682(4) 0.1676(2)
C7 C 0.3026(5) 0.0368(4) 0.2315(2)
O2 O 0.3387(4) -0.0674(3) 0.3722(1)
C8 C 0.6607(5) -0.0543(4) 0.4340(2)
C9 C 0.7825(5) -0.1451(4) 0.4469(2)
C10 C 0.8102(6) -0.1883(5) 0.5086(2)
C11 C 0.7156(6) -0.1402(5) 0.5561(2)
C12 C 0.5938(6) -0.0448(5) 0.5454(2)
C13 C 0.5670(5) -0.0047(5) 0.4840(2)
C14 C 0.4294(5) -0.0375(4) 0.1205(2)
C15 C 0.3667(5) -0.0257(5) 0.0633(2)
C16 C 0.3954(7) -0.1181(5) 0.0097(3)
C17 C 0.5447(6) -0.1463(4) 0.1397(3)
C18 C 0.1875(5) -0.0798(4) 0.2264(2)
O3 O 0.1023(3) -0.0964(3) 0.2853(1)
C19 C 0.1981(5) 0.1543(4) 0.2515(2)
O4 O 0.0498(3) 0.1722(3) 0.2134(2)
H1 H 0.8730 0.0473 0.3538
H2 H 0.3252 0.1253 0.1444
H3 H 0.2326(9) -0.1347(9) 0.3512(9)
H4 H 0.8503 -0.1792 0.4128
H5 H 0.8963 -0.2518 0.5171
H6 H 0.7314 -0.1723 0.5983
H7 H 0.5307 -0.0078 0.5799
H8 H 0.4813 0.0591 0.4757
H9 H 0.2974 0.0483 0.0547
H10 H 0.3368 -0.0881 -0.0274
H11 H 0.3516 -0.2007 0.0214
H12 H 0.5160 -0.1247 0.0010
H13 H 0.5757 -0.1372 0.1835
H14 H 0.6465 -0.1453 0.1141
H15 H 0.4854 -0.2259 0.1337
H16 H 0.2553 -0.1540 0.2168
H17 H 0.1044 -0.0668 0.1934
H18 H 0.0338(9) -0.1696(9) 0.2923(8)
H19 H 0.2696 0.2287 0.2480
H20 H 0.1630 0.1436 0.2948
H21 H -0.0317(9) 0.1538(9) 0.2272(9)
loop_
_geom_bond_atom_site_label_1
_geom_bond_atom_site_label_2
_geom_bond_site_symmetry_1
_geom_bond_site_symmetry_2
N1 C1 1_555 1_555
C1 C2 1_555 1_555
C2 C3 1_555 1_555
C3 C4 1_555 1_555
C4 C5 1_555 1_555
C5 N1 1_555 1_555
O1 C1 1_555 1_555
C6 O1 1_555 1_555
C7 C2 1_555 1_555
O2 C3 1_555 1_555
C8 C4 1_555 1_555
C9 C8 1_555 1_555
C10 C9 1_555 1_555
C11 C10 1_555 1_555
C12 C11 1_555 1_555
C13 C8 1_555 1_555
C14 C6 1_555 1_555
C15 C14 1_555 1_555
C16 C15 1_555 1_555
C17 C14 1_555 1_555
C18 C7 1_555 1_555
O3 C18 1_555 1_555
C19 C7 1_555 1_555
O4 C19 1_555 1_555
H1 C5 1_555 1_555
H2 C6 1_555 1_555
H3 O2 1_555 1_555
H4 C9 1_555 1_555
H5 C10 1_555 1_555
H6 C11 1_555 1_555
H7 C12 1_555 1_555
H8 C13 1_555 1_555
H9 C15 1_555 1_555
H10 C16 1_555 1_555
H11 C16 1_555 1_555
H12 C16 1_555 1_555
H13 C17 1_555 1_555
H14 C17 1_555 1_555
H15 C17 1_555 1_555
H16 C18 1_555 1_555
H17 C18 1_555 1_555
H18 O3 1_555 1_555
H19 C19 1_555 1_555
H20 C19 1_555 1_555
H21 O4 1_555 1_555
C6 C7 1_555 1_555
C12 C13 1_555 1_555

#END
