
#######################################################################
#
#                 Cambridge Crystallographic Data Centre
#                                CCDC 
#
#######################################################################
#
# If this CIF has been generated from an entry in the Cambridge 
# Structural Database, then it will include bibliographic, chemical, 
# crystal, experimental, refinement or atomic coordinate data resulting 
# from the CCDC's data processing and validation procedures.
#
#######################################################################

data_MUVNUN01
_chemical_formula_moiety         'C14 H18 N2 O1 S1'
_chemical_name_systematic        
4-(phenylamino)-1-thia-4-azaspiro[4.5]decan-3-one
_symmetry_cell_setting           monoclinic
_symmetry_space_group_name_H-M   'P 21/n'
_symmetry_Int_Tables_number      14
_space_group_name_Hall           '-P 2yn'
loop_
_symmetry_equiv_pos_site_id
_symmetry_equiv_pos_as_xyz
1 x,y,z
2 1/2-x,1/2+y,1/2-z
3 -x,-y,-z
4 1/2+x,1/2-y,1/2+z
_cell_length_a                   9.4203(4)
_cell_length_b                   6.8798(3)
_cell_length_c                   20.8371(10)
_cell_angle_alpha                90
_cell_angle_beta                 101.496(3)
_cell_angle_gamma                90
_cell_volume                     1323.36
_exptl_crystal_colour            colorless
_exptl_crystal_description       block
_cell_formula_units_Z            4
loop_
_atom_site_label
_atom_site_type_symbol
_atom_site_fract_x
_atom_site_fract_y
_atom_site_fract_z
S1 S 0.69408(4) 0.66976(6) 0.31042(2)
O1 O 0.30611(13) 0.85226(18) 0.24092(6)
N1 N 0.42834(14) 0.67840(19) 0.32752(7)
N2 N 0.30439(15) 0.6390(2) 0.35326(7)
H1 H 0.243(2) 0.570(3) 0.3247(9)
C1 C 0.55659(19) 0.7661(3) 0.24489(9)
H2 H 0.583688 0.898129 0.232746
H3 H 0.545825 0.681557 0.205767
C2 C 0.41674(18) 0.7728(2) 0.26964(8)
C3 C 0.55921(17) 0.5625(2) 0.35288(8)
C4 C 0.53207(19) 0.3478(2) 0.33497(8)
H4 H 0.444040 0.303569 0.349911
H5 H 0.514506 0.333457 0.286756
C5 C 0.66006(18) 0.2194(3) 0.36595(8)
H6 H 0.635165 0.081399 0.356041
H7 H 0.745045 0.251901 0.346687
C6 C 0.6987(2) 0.2475(3) 0.43984(9)
H8 H 0.783518 0.165821 0.458414
H9 H 0.616442 0.205929 0.459630
C7 C 0.73386(19) 0.4610(3) 0.45643(9)
H10 H 0.820303 0.499790 0.439195
H11 H 0.756435 0.477680 0.504580
C8 C 0.60601(19) 0.5914(3) 0.42680(8)
H12 H 0.523231 0.562389 0.447993
H13 H 0.633553 0.728998 0.435866
C9 C 0.23651(18) 0.7999(2) 0.37655(8)
C10 C 0.09167(18) 0.7801(3) 0.38183(8)
H14 H 0.040525 0.663965 0.367515
C11 C 0.02258(19) 0.9296(3) 0.40791(9)
H15 H -0.075528 0.914385 0.411889
C12 C 0.0949(2) 1.1013(3) 0.42830(9)
H16 H 0.047051 1.203836 0.446008
C13 C 0.2383(2) 1.1206(3) 0.42235(9)
H17 H 0.288575 1.238047 0.435734
C14 C 0.30931(18) 0.9708(2) 0.39711(8)
H18 H 0.407951 0.985450 0.393935
loop_
_geom_bond_atom_site_label_1
_geom_bond_atom_site_label_2
_geom_bond_site_symmetry_1
_geom_bond_site_symmetry_2
S1 C1 1_555 1_555
O1 C2 1_555 1_555
N1 N2 1_555 1_555
N2 H1 1_555 1_555
C1 H2 1_555 1_555
H3 C1 1_555 1_555
C2 N1 1_555 1_555
C3 S1 1_555 1_555
C4 C3 1_555 1_555
H4 C4 1_555 1_555
H5 C4 1_555 1_555
C5 C4 1_555 1_555
H6 C5 1_555 1_555
H7 C5 1_555 1_555
C6 C5 1_555 1_555
H8 C6 1_555 1_555
H9 C6 1_555 1_555
C7 C6 1_555 1_555
H10 C7 1_555 1_555
H11 C7 1_555 1_555
C8 C3 1_555 1_555
H12 C8 1_555 1_555
H13 C8 1_555 1_555
C9 N2 1_555 1_555
C10 C9 1_555 1_555
H14 C10 1_555 1_555
C11 C10 1_555 1_555
H15 C11 1_555 1_555
C12 C11 1_555 1_555
H16 C12 1_555 1_555
C13 C12 1_555 1_555
H17 C13 1_555 1_555
C14 C9 1_555 1_555
H18 C14 1_555 1_555
N1 C3 1_555 1_555
C1 C2 1_555 1_555
C7 C8 1_555 1_555
C13 C14 1_555 1_555

#END
