
#######################################################################
#
#                 Cambridge Crystallographic Data Centre
#                                CCDC 
#
#######################################################################
#
# If this CIF has been generated from an entry in the Cambridge 
# Structural Database, then it will include bibliographic, chemical, 
# crystal, experimental, refinement or atomic coordinate data resulting 
# from the CCDC's data processing and validation procedures.
#
#######################################################################

data_MUVWUV
_chemical_formula_moiety         'C16 H13 Cl1 O2'
_chemical_name_systematic        
2a'-Chloro-3,8-dioxo-1',2',2a',8a'-tetrahydrodispiro(cyclopropane-1,1'-cyclobuta(b)naphthalene-2',1''-cyclopropane)
_symmetry_cell_setting           monoclinic
_symmetry_space_group_name_H-M   'P 21/n'
_symmetry_Int_Tables_number      14
_space_group_name_Hall           '-P 2yn'
loop_
_symmetry_equiv_pos_site_id
_symmetry_equiv_pos_as_xyz
1 x,y,z
2 1/2+x,1/2-y,1/2+z
3 -x,-y,-z
4 1/2-x,1/2+y,1/2-z
_cell_length_a                   8.2794(2)
_cell_length_b                   15.3344(2)
_cell_length_c                   10.2590(2)
_cell_angle_alpha                90
_cell_angle_beta                 96.6390(10)
_cell_angle_gamma                90
_cell_volume                     1293.74
_exptl_crystal_colour            yellow
_exptl_crystal_description       slab
_chemical_melting_point          396.0K
_cell_formula_units_Z            4
_exptl_crystal_recrystallization_method 'petroleum ether/ethyl acetate'
loop_
_atom_site_label
_atom_site_type_symbol
_atom_site_fract_x
_atom_site_fract_y
_atom_site_fract_z
Cl1 Cl 0.14177(11) 0.26306(5) 0.34459(9)
O1 O 0.3473(3) -0.04416(14) 0.3665(3)
O2 O -0.1677(2) 0.17168(14) 0.3265(2)
C1 C 0.2539(3) 0.09539(17) 0.2979(3)
H1 H 0.3464 0.1222 0.3515
C2 C 0.2302(3) 0.00383(19) 0.3380(3)
C3 C 0.0615(3) -0.03029(17) 0.3317(3)
C4 C 0.0365(4) -0.11971(19) 0.3377(3)
H2 H 0.1251 -0.1574 0.3449
C5 C -0.1193(4) -0.1531(2) 0.3331(3)
H3 H -0.1354 -0.2131 0.3350
C6 C -0.2518(4) -0.0970(2) 0.3255(3)
H4 H -0.3564 -0.1195 0.3225
C7 C -0.2288(3) -0.0084(2) 0.3224(3)
H5 H -0.3180 0.0287 0.3202
C8 C -0.0733(3) 0.02653(17) 0.3227(2)
C9 C -0.0551(3) 0.12260(18) 0.3147(3)
C10 C 0.1059(3) 0.15830(15) 0.2792(3)
C11 C 0.1146(3) 0.15334(17) 0.1286(3)
C12 C 0.2716(3) 0.10299(18) 0.1509(3)
C13 C -0.0233(4) 0.1380(2) 0.0255(3)
H7 H -0.1322 0.1381 0.0515
H8 H -0.0067 0.0978 -0.0448
C14 C 0.0676(4) 0.2223(2) 0.0316(3)
H9 H 0.1391 0.2333 -0.0351
H10 H 0.0135 0.2735 0.0612
C15 C 0.3366(5) 0.0361(2) 0.0654(4)
H11 H 0.2783 0.0266 -0.0210
H12 H 0.3858 -0.0158 0.1073
C16 C 0.4253(4) 0.1217(2) 0.0904(4)
H13 H 0.5272 0.1212 0.1475
H14 H 0.4197 0.1636 0.0192
Cl2? Cl 0.4403(5) 0.1333(4) 0.3746(6)
H6? H 0.1309 0.2165 0.3155
loop_
_geom_bond_atom_site_label_1
_geom_bond_atom_site_label_2
_geom_bond_site_symmetry_1
_geom_bond_site_symmetry_2
Cl1 C10 1_555 1_555
O1 C2 1_555 1_555
O2 C9 1_555 1_555
C1 H1 1_555 1_555
C2 C1 1_555 1_555
C3 C2 1_555 1_555
C4 C3 1_555 1_555
H2 C4 1_555 1_555
C5 C4 1_555 1_555
H3 C5 1_555 1_555
C6 C5 1_555 1_555
H4 C6 1_555 1_555
C7 C6 1_555 1_555
H5 C7 1_555 1_555
C8 C3 1_555 1_555
C9 C8 1_555 1_555
C10 C1 1_555 1_555
C11 C10 1_555 1_555
C12 C1 1_555 1_555
C13 C11 1_555 1_555
H7 C13 1_555 1_555
H8 C13 1_555 1_555
C14 C11 1_555 1_555
H9 C14 1_555 1_555
H10 C14 1_555 1_555
C15 C12 1_555 1_555
H11 C15 1_555 1_555
H12 C15 1_555 1_555
C16 C12 1_555 1_555
H13 C16 1_555 1_555
H14 C16 1_555 1_555
C7 C8 1_555 1_555
C9 C10 1_555 1_555
C11 C12 1_555 1_555
C13 C14 1_555 1_555
C15 C16 1_555 1_555

#END
