
#######################################################################
#
#                 Cambridge Crystallographic Data Centre
#                                CCDC 
#
#######################################################################
#
# If this CIF has been generated from an entry in the Cambridge 
# Structural Database, then it will include bibliographic, chemical, 
# crystal, experimental, refinement or atomic coordinate data resulting 
# from the CCDC's data processing and validation procedures.
#
#######################################################################

data_MUVWOQ
_chemical_formula_moiety         'C11 H7 F3 N4 O1 S1,C2 H4 O2'
_chemical_name_systematic        
'4-(6-(Trifluoromethyl)-7H-[1,2,4]triazolo[3,4-b][1,3,4]thiadiazin-3-yl)phenol acetic acid'
_symmetry_cell_setting           monoclinic
_symmetry_space_group_name_H-M   'C 2/c'
_symmetry_Int_Tables_number      15
_space_group_name_Hall           '-C 2yn'
loop_
_symmetry_equiv_pos_site_id
_symmetry_equiv_pos_as_xyz
1 x,y,z
2 -x,y,1/2-z
3 1/2+x,1/2+y,z
4 1/2-x,1/2+y,1/2-z
5 -x,-y,-z
6 x,-y,1/2+z
7 1/2-x,1/2-y,-z
8 1/2+x,1/2-y,1/2+z
_cell_length_a                   17.6578(18)
_cell_length_b                   7.1689(7)
_cell_length_c                   24.982(3)
_cell_angle_alpha                90
_cell_angle_beta                 104.824(2)
_cell_angle_gamma                90
_cell_volume                     3057.14
_chemical_melting_point          258-260deg.C
_cell_formula_units_Z            8
loop_
_atom_site_label
_atom_site_type_symbol
_atom_site_fract_x
_atom_site_fract_y
_atom_site_fract_z
S1 S 1.04161(10) 0.3035(3) 0.08521(8)
F1 F 0.9250(4) 0.0007(11) 0.2078(2)
F2 F 0.9192(4) 0.2956(11) 0.2052(3)
F3 F 0.8202(3) 0.1366(12) 0.1640(2)
O1 O 0.5640(3) -0.2204(8) -0.0988(2)
H1 H 0.5382 -0.2157 -0.0758
N1 N 0.8762(3) 0.1385(8) 0.0790(2)
N2 N 0.9029(3) 0.1424(8) 0.0320(2)
N3 N 0.9025(3) 0.1580(8) -0.0549(2)
N4 N 0.9736(3) 0.2321(8) -0.0236(3)
C1 C 0.8966(6) 0.1445(16) 0.1755(4)
C2 C 0.9273(4) 0.1434(10) 0.1247(3)
C3 C 1.0148(4) 0.1417(11) 0.1328(3)
H3 H 1.0319 0.0170 0.1264
H4 H 1.0405 0.1768 0.1706
C4 C 0.9724(4) 0.2212(9) 0.0277(3)
C5 C 0.8612(4) 0.1068(9) -0.0216(3)
C6 C 0.7833(4) 0.0208(9) -0.0386(3)
C7 C 0.7573(4) -0.0422(11) -0.0931(3)
H5 H 0.7899 -0.0304 -0.1168
C8 C 0.6848(4) -0.1210(11) -0.1124(3)
H6 H 0.6685 -0.1608 -0.1489
C9 C 0.6353(4) -0.1419(9) -0.0775(3)
C10 C 0.6604(4) -0.0815(9) -0.0239(3)
H7 H 0.6276 -0.0948 -0.0004
C11 C 0.7330(3) -0.0016(9) -0.0038(3)
H8 H 0.7486 0.0376 0.0328
O2 O 0.8288(3) 0.3697(8) 0.2991(3)
H2 H 0.7966 0.2948 0.2818
O3 O 0.7560(3) 0.5659(8) 0.2396(2)
C12 C 0.8130(4) 0.5358(11) 0.2775(3)
C13 C 0.8714(6) 0.6781(14) 0.3034(5)
H9 H 0.8590 0.7941 0.2840
H10 H 0.9226 0.6379 0.3017
H11 H 0.8706 0.6947 0.3414
loop_
_geom_bond_atom_site_label_1
_geom_bond_atom_site_label_2
_geom_bond_site_symmetry_1
_geom_bond_site_symmetry_2
S1 C3 1_555 1_555
F1 C1 1_555 1_555
F2 C1 1_555 1_555
F3 C1 1_555 1_555
O1 H1 1_555 1_555
O2 H2 1_555 1_555
O3 C12 1_555 1_555
N1 N2 1_555 1_555
N2 C4 1_555 1_555
N3 N4 1_555 1_555
N4 C4 1_555 1_555
C1 C2 1_555 1_555
C2 N1 1_555 1_555
C3 C2 1_555 1_555
H3 C3 1_555 1_555
H4 C3 1_555 1_555
C4 S1 1_555 1_555
C5 N2 1_555 1_555
C6 C5 1_555 1_555
C7 C6 1_555 1_555
H5 C7 1_555 1_555
C8 C7 1_555 1_555
H6 C8 1_555 1_555
C9 O1 1_555 1_555
C10 C9 1_555 1_555
H7 C10 1_555 1_555
C11 C6 1_555 1_555
H8 C11 1_555 1_555
C12 O2 1_555 1_555
C13 C12 1_555 1_555
H9 C13 1_555 1_555
H10 C13 1_555 1_555
H11 C13 1_555 1_555
N3 C5 1_555 1_555
C8 C9 1_555 1_555
C10 C11 1_555 1_555

#END
