
#######################################################################
#
#                 Cambridge Crystallographic Data Centre
#                                CCDC 
#
#######################################################################
#
# If this CIF has been generated from an entry in the Cambridge 
# Structural Database, then it will include bibliographic, chemical, 
# crystal, experimental, refinement or atomic coordinate data resulting 
# from the CCDC's data processing and validation procedures.
#
#######################################################################

data_MUVXEG
_chemical_formula_moiety         'C19 H20 Cl2 O2'
_chemical_name_systematic        
r-2,c-6-bis(4-Chlorophenyl)-3,5-dimethyltetrahydropyran-t-4-ol
_symmetry_cell_setting           monoclinic
_symmetry_space_group_name_H-M   'P 21/c'
_symmetry_Int_Tables_number      14
_space_group_name_Hall           '-P 2ybc'
loop_
_symmetry_equiv_pos_site_id
_symmetry_equiv_pos_as_xyz
1 x,y,z
2 x,1/2-y,1/2+z
3 -x,-y,-z
4 -x,1/2+y,1/2-z
_cell_length_a                   12.1315(9)
_cell_length_b                   11.7075(19)
_cell_length_c                   26.177(3)
_cell_angle_alpha                90
_cell_angle_beta                 99.728(9)
_cell_angle_gamma                90
_cell_volume                     3664.45
_exptl_crystal_colour            colorless
_exptl_crystal_description       plate
_chemical_melting_point          385-387K
_cell_formula_units_Z            8
_exptl_crystal_recrystallization_method dichloromethane/hexane
loop_
_atom_site_label
_atom_site_type_symbol
_atom_site_fract_x
_atom_site_fract_y
_atom_site_fract_z
Cl1 Cl -0.02403(7) 0.24421(7) 0.04077(4)
Cl2 Cl -0.15982(8) 1.11554(10) 0.23664(4)
O1 O 0.14094(14) 0.75809(15) 0.12199(7)
O2 O 0.40284(16) 0.84165(17) 0.10508(7)
C1 C 0.2128(2) 0.6886(2) 0.09728(10)
C2 C 0.3254(2) 0.6690(2) 0.13324(10)
C3 C 0.3763(2) 0.7852(2) 0.15023(9)
C4 C 0.2959(2) 0.8563(2) 0.17540(10)
C5 C 0.1848(2) 0.8685(2) 0.13763(10)
C6 C 0.4056(2) 0.5941(3) 0.10994(13)
C7 C 0.3463(3) 0.9709(3) 0.19462(12)
C8 C 0.1512(2) 0.5784(2) 0.08245(10)
C9 C 0.1649(2) 0.5199(2) 0.03837(10)
C10 C 0.1122(2) 0.4166(2) 0.02515(11)
C11 C 0.0444(2) 0.3728(2) 0.05701(12)
C12 C 0.0273(2) 0.4293(3) 0.10073(13)
C13 C 0.0809(2) 0.5322(3) 0.11344(12)
C14 C 0.0964(2) 0.9299(2) 0.16086(10)
C15 C 0.0759(3) 1.0454(3) 0.15234(14)
C16 C -0.0018(3) 1.1027(3) 0.17596(15)
C17 C -0.0600(2) 1.0448(3) 0.20757(12)
C18 C -0.0434(3) 0.9301(3) 0.21627(12)
C19 C 0.0344(2) 0.8741(3) 0.19265(12)
H1 H 0.22650 0.72720 0.06570
H2 H 0.30940 0.63020 0.16430
H3 H 0.44520 0.77350 0.17520
H4 H 0.28040 0.81400 0.20570
H5 H 0.19830 0.91040 0.10690
H6 H 0.463(3) 0.878(3) 0.1121(14)
H7 H 0.21090 0.55070 0.01680
H8 H 0.12280 0.37790 -0.00470
H9 H -0.02000 0.39880 0.12170
H10 H 0.06940 0.57080 0.14320
H11 H 0.11510 1.08520 0.13040
H12 H -0.01400 1.18040 0.17020
H13 H -0.08390 0.89060 0.23780
H14 H 0.04540 0.79630 0.19840
H15 H 0.47340 0.58470 0.13450
H16 H 0.42240 0.62940 0.07900
H17 H 0.37200 0.52080 0.10150
H18 H 0.29300 1.01310 0.21040
H19 H 0.36490 1.01350 0.16590
H20 H 0.41260 0.95830 0.21970
Cl3 Cl 0.22632(11) -0.05643(9) 0.32117(5)
Cl4 Cl 0.67787(10) 0.87250(9) 0.28889(4)
O3 O 0.39797(14) 0.47094(14) 0.39463(6)
O4 O 0.32641(19) 0.53403(18) 0.51305(7)
C20 C 0.3376(2) 0.3978(2) 0.42491(9)
C21 C 0.2300(2) 0.4586(2) 0.43397(10)
C22 C 0.2649(2) 0.5679(2) 0.46384(10)
C23 C 0.3338(2) 0.6438(2) 0.43421(10)
C24 C 0.4338(2) 0.5766(2) 0.42098(9)
C25 C 0.1525(3) 0.3855(3) 0.46030(13)
C26 C 0.3719(3) 0.7534(3) 0.46327(13)
C27 C 0.3156(2) 0.2847(2) 0.39789(10)
C28 C 0.3178(3) 0.1855(3) 0.42650(11)
C29 C 0.2899(3) 0.0807(3) 0.40329(13)
C30 C 0.2615(3) 0.0753(3) 0.35068(13)
C31 C 0.2614(3) 0.1718(3) 0.32099(12)
C32 C 0.2885(3) 0.2760(3) 0.34460(10)
C33 C 0.4976(2) 0.6448(2) 0.38693(9)
C34 C 0.6024(2) 0.6884(2) 0.40598(10)
C35 C 0.6578(3) 0.7581(3) 0.37607(12)
C36 C 0.6092(3) 0.7834(2) 0.32650(11)
C37 C 0.5064(3) 0.7400(3) 0.30615(11)
C38 C 0.4512(2) 0.6711(3) 0.33634(10)
H21 H 0.38480 0.38450 0.45860
H22 H 0.18860 0.48070 0.40000
H23 H 0.19780 0.60950 0.46930
H24 H 0.28640 0.66520 0.40150
H25 H 0.48420 0.55840 0.45330
H26 H 0.332(3) 0.585(3) 0.5343(13)
H27 H 0.33850 0.18900 0.46230
H28 H 0.29050 0.01500 0.42330
H29 H 0.24320 0.16710 0.28510
H30 H 0.28850 0.34120 0.32430
H31 H 0.63620 0.67050 0.43960
H32 H 0.72780 0.78760 0.38970
H33 H 0.47390 0.75680 0.27220
H34 H 0.38130 0.64180 0.32240
H35 H 0.13280 0.31770 0.44020
H36 H 0.08600 0.42790 0.46300
H37 H 0.18980 0.36460 0.49430
H38 H 0.41540 0.79800 0.44320
H39 H 0.41660 0.73480 0.49610
H40 H 0.30760 0.79650 0.46890
loop_
_geom_bond_atom_site_label_1
_geom_bond_atom_site_label_2
_geom_bond_site_symmetry_1
_geom_bond_site_symmetry_2
Cl1 C11 1_555 1_555
Cl2 C17 1_555 1_555
O1 C1 1_555 1_555
O2 C3 1_555 1_555
C1 C2 1_555 1_555
C2 C3 1_555 1_555
C3 C4 1_555 1_555
C4 C5 1_555 1_555
C5 O1 1_555 1_555
C6 C2 1_555 1_555
C7 C4 1_555 1_555
C8 C1 1_555 1_555
C9 C8 1_555 1_555
C10 C9 1_555 1_555
C11 C10 1_555 1_555
C12 C11 1_555 1_555
C13 C8 1_555 1_555
C14 C5 1_555 1_555
C15 C14 1_555 1_555
C16 C15 1_555 1_555
C17 C16 1_555 1_555
C18 C17 1_555 1_555
C19 C14 1_555 1_555
Cl3 C30 1_555 1_555
Cl4 C36 1_555 1_555
O3 C20 1_555 1_555
O4 C22 1_555 1_555
C20 C21 1_555 1_555
C21 C22 1_555 1_555
C22 C23 1_555 1_555
C23 C24 1_555 1_555
C24 O3 1_555 1_555
C25 C21 1_555 1_555
C26 C23 1_555 1_555
C27 C20 1_555 1_555
C28 C27 1_555 1_555
C29 C28 1_555 1_555
C30 C29 1_555 1_555
C31 C30 1_555 1_555
C32 C27 1_555 1_555
C33 C24 1_555 1_555
C34 C33 1_555 1_555
C35 C34 1_555 1_555
C36 C35 1_555 1_555
C37 C36 1_555 1_555
C38 C33 1_555 1_555
H1 C1 1_555 1_555
H2 C2 1_555 1_555
H3 C3 1_555 1_555
H4 C4 1_555 1_555
H5 C5 1_555 1_555
H6 O2 1_555 1_555
H7 C9 1_555 1_555
H8 C10 1_555 1_555
H9 C12 1_555 1_555
H10 C13 1_555 1_555
H11 C15 1_555 1_555
H12 C16 1_555 1_555
H13 C18 1_555 1_555
H14 C19 1_555 1_555
H15 C6 1_555 1_555
H16 C6 1_555 1_555
H17 C6 1_555 1_555
H18 C7 1_555 1_555
H19 C7 1_555 1_555
H20 C7 1_555 1_555
H21 C20 1_555 1_555
H22 C21 1_555 1_555
H23 C22 1_555 1_555
H24 C23 1_555 1_555
H25 C24 1_555 1_555
H26 O4 1_555 1_555
H27 C28 1_555 1_555
H28 C29 1_555 1_555
H29 C31 1_555 1_555
H30 C32 1_555 1_555
H31 C34 1_555 1_555
H32 C35 1_555 1_555
H33 C37 1_555 1_555
H34 C38 1_555 1_555
H35 C25 1_555 1_555
H36 C25 1_555 1_555
H37 C25 1_555 1_555
H38 C26 1_555 1_555
H39 C26 1_555 1_555
H40 C26 1_555 1_555
C12 C13 1_555 1_555
C18 C19 1_555 1_555
C31 C32 1_555 1_555
C37 C38 1_555 1_555

#END
