
#######################################################################
#
#                 Cambridge Crystallographic Data Centre
#                                CCDC 
#
#######################################################################
#
# If this CIF has been generated from an entry in the Cambridge 
# Structural Database, then it will include bibliographic, chemical, 
# crystal, experimental, refinement or atomic coordinate data resulting 
# from the CCDC's data processing and validation procedures.
#
#######################################################################

data_MUVYUY
_chemical_formula_moiety         'C26 H25 Br1 N2 O4 S1'
_chemical_name_systematic        
N-((4-Bromophenyl)(4-isopropyl-5-oxo-2-phenyl-4,5-dihydro-1,3-oxazol-4-yl)methyl)-4-methylbenzenesulfonamide
_symmetry_cell_setting           triclinic
_symmetry_space_group_name_H-M   'P -1'
_symmetry_Int_Tables_number      2
_space_group_name_Hall           '-P 1'
loop_
_symmetry_equiv_pos_site_id
_symmetry_equiv_pos_as_xyz
1 x,y,z
2 -x,-y,-z
_cell_length_a                   10.4253(3)
_cell_length_b                   12.8475(4)
_cell_length_c                   19.0860(6)
_cell_angle_alpha                78.590(2)
_cell_angle_beta                 86.532(2)
_cell_angle_gamma                88.841(2)
_cell_volume                     2501.16
_exptl_crystal_colour            colorless
_exptl_crystal_description       block
_cell_formula_units_Z            4
loop_
_atom_site_label
_atom_site_type_symbol
_atom_site_fract_x
_atom_site_fract_y
_atom_site_fract_z
Br1 Br 0.20359(6) -0.15537(4) 0.39331(3)
C1 C 0.8022(4) 0.1958(4) 0.0756(2)
H1 H 0.7653 0.1420 0.1103
C2 C 0.9292(5) 0.1928(4) 0.0572(3)
H2 H 0.9782 0.1348 0.0780
C3 C 0.9866(5) 0.2723(5) 0.0091(3)
H3 H 1.0744 0.2693 -0.0023
C4 C 0.9149(6) 0.3575(5) -0.0226(4)
H4 H 0.9542 0.4133 -0.0547
C5 C 0.7840(5) 0.3599(4) -0.0068(3)
H5 H 0.7344 0.4161 -0.0295
C6 C 0.7273(4) 0.2792(3) 0.0425(2)
C7 C 0.5889(4) 0.2785(3) 0.0585(2)
C8 C 0.3904(4) 0.3258(3) 0.0291(2)
C9 C 0.3893(4) 0.2569(3) 0.1035(2)
C10 C 0.3409(4) 0.3230(3) 0.1600(2)
H6 H 0.3452 0.2767 0.2072
C11 C 0.4297(5) 0.4172(4) 0.1584(3)
H7 H 0.4307 0.4628 0.1120
H8 H 0.5152 0.3915 0.1682
H9 H 0.3988 0.4563 0.1941
C12 C 0.2037(4) 0.3608(3) 0.1525(3)
H10 H 0.1798 0.4006 0.1890
H11 H 0.1482 0.3007 0.1576
H12 H 0.1956 0.4053 0.1062
C13 C 0.3088(4) 0.1563(3) 0.1062(2)
H13 H 0.2239 0.1804 0.0900
C14 C 0.2874(4) 0.0874(3) 0.1800(2)
C15 C 0.1666(4) 0.0784(3) 0.2134(2)
H14 H 0.0999 0.1197 0.1920
C16 C 0.1416(5) 0.0096(3) 0.2780(2)
H15 H 0.0596 0.0062 0.3003
C17 C 0.2379(5) -0.0530(3) 0.3085(2)
C18 C 0.3605(5) -0.0431(3) 0.2777(2)
H16 H 0.4271 -0.0832 0.3002
C19 C 0.3850(4) 0.0261(3) 0.2135(2)
H17 H 0.4680 0.0316 0.1925
C20 C 0.2795(4) -0.1061(3) 0.0902(2)
C21 C 0.3892(5) -0.1666(4) 0.1069(2)
H18 H 0.4668 -0.1486 0.0811
C22 C 0.3816(5) -0.2534(4) 0.1621(3)
H19 H 0.4548 -0.2947 0.1726
C23 C 0.2679(6) -0.2810(4) 0.2024(3)
C24 C 0.1602(5) -0.2217(4) 0.1832(3)
H20 H 0.0823 -0.2405 0.2085
C25 C 0.1639(5) -0.1341(4) 0.1268(3)
H21 H 0.0896 -0.0953 0.1143
C26 C 0.2628(6) -0.3726(4) 0.2666(3)
H22 H 0.2010 -0.3567 0.3025
H23 H 0.3460 -0.3828 0.2861
H24 H 0.2382 -0.4362 0.2519
N1 N 0.5252(3) 0.2280(3) 0.11259(18)
O1 O 0.1641(3) 0.0508(2) 0.01001(16)
O2 O 0.3721(3) -0.0139(2) -0.03521(14)
N3 N 0.3676(3) 0.0986(2) 0.05334(16)
H49 H 0.4459 0.1122 0.0379
O3 O 0.3058(3) 0.3647(2) -0.00656(17)
O4 O 0.5182(3) 0.3423(2) 0.00595(15)
S1 S 0.29094(10) 0.01014(9) 0.02273(6)
Br2 Br 0.23686(8) 0.12242(6) 0.82535(3)
C27 C -0.0526(5) 0.2398(4) 0.3070(3)
H25 H -0.0115 0.2966 0.2768
C28 C -0.1599(6) 0.1950(5) 0.2856(3)
H26 H -0.1905 0.2214 0.2407
C29 C -0.2205(5) 0.1124(6) 0.3303(4)
H27 H -0.2928 0.0832 0.3158
C30 C -0.1766(6) 0.0719(5) 0.3959(4)
H28 H -0.2182 0.0149 0.4256
C31 C -0.0709(5) 0.1155(4) 0.4183(3)
H29 H -0.0419 0.0890 0.4635
C32 C -0.0074(4) 0.1991(4) 0.3734(2)
C33 C 0.1103(4) 0.2381(3) 0.3966(2)
C34 C 0.2940(5) 0.3275(4) 0.3768(2)
C35 C 0.2824(4) 0.2631(3) 0.4526(2)
C36 C 0.3879(4) 0.1751(3) 0.4644(2)
H30 H 0.3712 0.1334 0.5128
C37 C 0.5236(5) 0.2159(4) 0.4605(3)
H31 H 0.5823 0.1571 0.4706
H32 H 0.5304 0.2604 0.4950
H33 H 0.5444 0.2564 0.4134
C38 C 0.3803(5) 0.0987(4) 0.4130(3)
H34 H 0.3937 0.1371 0.3647
H35 H 0.2972 0.0663 0.4192
H36 H 0.4454 0.0447 0.4229
C39 C 0.2863(4) 0.3379(3) 0.5060(2)
H37 H 0.3699 0.3731 0.4979
C40 C 0.2751(4) 0.2821(3) 0.5837(2)
C41 C 0.3760(5) 0.2803(4) 0.6273(2)
H38 H 0.4533 0.3116 0.6081
C42 C 0.3649(5) 0.2331(4) 0.6989(3)
H39 H 0.4337 0.2333 0.7278
C43 C 0.2522(6) 0.1863(4) 0.7269(2)
C44 C 0.1505(5) 0.1861(4) 0.6852(2)
H40 H 0.0740 0.1538 0.7048
C45 C 0.1616(5) 0.2338(3) 0.6138(2)
H41 H 0.0921 0.2336 0.5855
C46 C 0.2078(4) 0.5244(3) 0.5992(2)
C47 C 0.3199(5) 0.5370(4) 0.6313(3)
H42 H 0.3956 0.5558 0.6037
C48 C 0.3184(5) 0.5214(4) 0.7045(3)
H43 H 0.3942 0.5292 0.7262
C49 C 0.2079(6) 0.4945(4) 0.7468(3)
C50 C 0.0963(5) 0.4818(4) 0.7134(3)
H44 H 0.0209 0.4621 0.7410
C51 C 0.0961(5) 0.4981(4) 0.6404(3)
H45 H 0.0201 0.4913 0.6185
C52 C 0.2059(7) 0.4761(6) 0.8281(3)
H46 H 0.2687 0.4230 0.8451
H47 H 0.1221 0.4526 0.8478
H48 H 0.2255 0.5412 0.8425
N2 N 0.1566(3) 0.2119(3) 0.45761(18)
O5 O 0.0980(3) 0.5995(2) 0.48041(16)
O6 O 0.3335(3) 0.5718(2) 0.47621(16)
N4 N 0.1871(3) 0.4213(2) 0.48838(17)
H50 H 0.1181 0.4079 0.4693
O7 O 0.3750(3) 0.3841(3) 0.34572(16)
O8 O 0.1834(3) 0.3067(2) 0.34434(15)
S2 S 0.20920(11) 0.53867(8) 0.50526(6)
loop_
_geom_bond_atom_site_label_1
_geom_bond_atom_site_label_2
_geom_bond_site_symmetry_1
_geom_bond_site_symmetry_2
Br1 C17 1_555 1_555
Br2 C43 1_555 1_555
C1 H1 1_555 1_555
C2 C1 1_555 1_555
H2 C2 1_555 1_555
C3 C2 1_555 1_555
H3 C3 1_555 1_555
C4 C3 1_555 1_555
H4 C4 1_555 1_555
C5 C4 1_555 1_555
H5 C5 1_555 1_555
C6 C1 1_555 1_555
C7 C6 1_555 1_555
C8 C9 1_555 1_555
C9 C10 1_555 1_555
C10 H6 1_555 1_555
C11 C10 1_555 1_555
H7 C11 1_555 1_555
H8 C11 1_555 1_555
H9 C11 1_555 1_555
C12 C10 1_555 1_555
H10 C12 1_555 1_555
H11 C12 1_555 1_555
H12 C12 1_555 1_555
C13 C9 1_555 1_555
H13 C13 1_555 1_555
C14 C13 1_555 1_555
C15 C14 1_555 1_555
H14 C15 1_555 1_555
C16 C15 1_555 1_555
H15 C16 1_555 1_555
C17 C16 1_555 1_555
C18 C17 1_555 1_555
H16 C18 1_555 1_555
C19 C14 1_555 1_555
H17 C19 1_555 1_555
C20 C21 1_555 1_555
C21 H18 1_555 1_555
C22 C21 1_555 1_555
H19 C22 1_555 1_555
C23 C22 1_555 1_555
C24 C23 1_555 1_555
H20 C24 1_555 1_555
C25 C20 1_555 1_555
H21 C25 1_555 1_555
C26 C23 1_555 1_555
H22 C26 1_555 1_555
H23 C26 1_555 1_555
H24 C26 1_555 1_555
C27 H25 1_555 1_555
C28 C27 1_555 1_555
H26 C28 1_555 1_555
C29 C28 1_555 1_555
H27 C29 1_555 1_555
C30 C29 1_555 1_555
H28 C30 1_555 1_555
C31 C30 1_555 1_555
H29 C31 1_555 1_555
C32 C27 1_555 1_555
C33 C32 1_555 1_555
C34 C35 1_555 1_555
C35 C36 1_555 1_555
C36 H30 1_555 1_555
C37 C36 1_555 1_555
H31 C37 1_555 1_555
H32 C37 1_555 1_555
H33 C37 1_555 1_555
C38 C36 1_555 1_555
H34 C38 1_555 1_555
H35 C38 1_555 1_555
H36 C38 1_555 1_555
C39 C35 1_555 1_555
H37 C39 1_555 1_555
C40 C39 1_555 1_555
C41 C40 1_555 1_555
H38 C41 1_555 1_555
C42 C41 1_555 1_555
H39 C42 1_555 1_555
C43 C42 1_555 1_555
C44 C43 1_555 1_555
H40 C44 1_555 1_555
C45 C40 1_555 1_555
H41 C45 1_555 1_555
C46 C47 1_555 1_555
C47 H42 1_555 1_555
C48 C47 1_555 1_555
H43 C48 1_555 1_555
C49 C48 1_555 1_555
C50 C49 1_555 1_555
H44 C50 1_555 1_555
C51 C46 1_555 1_555
H45 C51 1_555 1_555
C52 C49 1_555 1_555
H46 C52 1_555 1_555
H47 C52 1_555 1_555
H48 C52 1_555 1_555
N1 C7 1_555 1_555
N2 C33 1_555 1_555
O1 S1 1_555 1_555
O2 S1 1_555 1_555
N3 C13 1_555 1_555
H49 N3 1_555 1_555
O3 C8 1_555 1_555
O4 C7 1_555 1_555
O5 S2 1_555 1_555
O6 S2 1_555 1_555
N4 C39 1_555 1_555
H50 N4 1_555 1_555
O7 C34 1_555 1_555
O8 C33 1_555 1_555
S1 C20 1_555 1_555
S2 C46 1_555 1_555
C5 C6 1_555 1_555
C8 O4 1_555 1_555
C9 N1 1_555 1_555
C18 C19 1_555 1_555
C24 C25 1_555 1_555
C31 C32 1_555 1_555
C34 O8 1_555 1_555
C35 N2 1_555 1_555
C44 C45 1_555 1_555
C50 C51 1_555 1_555
N3 S1 1_555 1_555
N4 S2 1_555 1_555

#END
