
#######################################################################
#
#                 Cambridge Crystallographic Data Centre
#                                CCDC 
#
#######################################################################
#
# If this CIF has been generated from an entry in the Cambridge 
# Structural Database, then it will include bibliographic, chemical, 
# crystal, experimental, refinement or atomic coordinate data resulting 
# from the CCDC's data processing and validation procedures.
#
#######################################################################

data_MUWBOW
_chemical_formula_moiety         'C19 H17 N1 O4'
_chemical_name_systematic        
'(E,E)-Ethyl 2-benzylidene-4-(3-nitrophenyl)but-3-enoate'
_symmetry_cell_setting           monoclinic
_symmetry_space_group_name_H-M   'P 21/c'
_symmetry_Int_Tables_number      14
_space_group_name_Hall           '-P 2ybc'
loop_
_symmetry_equiv_pos_site_id
_symmetry_equiv_pos_as_xyz
1 x,y,z
2 -x,1/2+y,1/2-z
3 -x,-y,-z
4 x,1/2-y,1/2+z
_cell_length_a                   16.035(3)
_cell_length_b                   13.589(3)
_cell_length_c                   7.4609(15)
_cell_angle_alpha                90
_cell_angle_beta                 93.89(3)
_cell_angle_gamma                90
_cell_volume                     1621.98
_cell_formula_units_Z            4
loop_
_atom_site_label
_atom_site_type_symbol
_atom_site_fract_x
_atom_site_fract_y
_atom_site_fract_z
O1 O 0.28571(5) 0.45197(7) 0.03901(12)
O2 O 0.18140(6) 0.39547(8) 0.19461(14)
O3 O 0.19463(7) -0.16246(9) -0.05740(17)
O4 O 0.08532(8) -0.24214(9) 0.01593(17)
N1 N 0.12810(8) -0.16747(10) 0.01635(18)
C1 C 0.42244(8) 0.11561(11) 0.22551(17)
H1 H 0.3712 0.1040 0.2731
C2 C 0.48444(9) 0.04435(12) 0.24167(18)
H2 H 0.4746 -0.0144 0.3007
C3 C 0.56097(9) 0.06015(12) 0.17023(19)
H3 H 0.6021 0.0118 0.1798
C4 C 0.57580(8) 0.14808(12) 0.08470(19)
H4 H 0.6271 0.1591 0.0370
C5 C 0.51455(8) 0.21944(12) 0.07003(18)
H5 H 0.5254 0.2786 0.0136
C6 C 0.43613(8) 0.20463(11) 0.13845(17)
C7 C 0.37624(8) 0.28639(11) 0.12404(17)
H6 H 0.3997 0.3483 0.1105
C8 C 0.29185(8) 0.28526(11) 0.12751(17)
C9 C 0.24662(8) 0.38120(11) 0.12570(17)
C10 C 0.24560(8) 0.54833(11) 0.0320(2)
H7 H 0.2449 0.5761 0.1517
H8 H 0.1884 0.5429 -0.0186
C11 C 0.29569(9) 0.61202(12) -0.0842(2)
H9 H 0.3518 0.6175 -0.0316
H10 H 0.2709 0.6762 -0.0939
H11 H 0.2965 0.5832 -0.2015
C12 C 0.24254(8) 0.19484(11) 0.12925(17)
H12 H 0.2668 0.1392 0.0820
C13 C 0.16670(8) 0.18241(11) 0.19061(17)
H13 H 0.1417 0.2371 0.2395
C14 C 0.11988(8) 0.08986(11) 0.18712(17)
C15 C 0.04505(8) 0.08519(12) 0.27433(18)
H14 H 0.0264 0.1409 0.3322
C16 C -0.00152(8) -0.00033(13) 0.27602(19)
H15 H -0.0513 -0.0012 0.3332
C17 C 0.02518(9) -0.08443(13) 0.19355(18)
H16 H -0.0055 -0.1425 0.1952
C18 C 0.09930(8) -0.07954(11) 0.10814(18)
C19 C 0.14603(8) 0.00537(11) 0.10162(17)
H17 H 0.1947 0.0062 0.0405
loop_
_geom_bond_atom_site_label_1
_geom_bond_atom_site_label_2
_geom_bond_site_symmetry_1
_geom_bond_site_symmetry_2
O1 C9 1_555 1_555
O2 C9 1_555 1_555
O3 N1 1_555 1_555
O4 N1 1_555 1_555
N1 C18 1_555 1_555
C1 H1 1_555 1_555
C2 C1 1_555 1_555
H2 C2 1_555 1_555
C3 C2 1_555 1_555
H3 C3 1_555 1_555
C4 C3 1_555 1_555
H4 C4 1_555 1_555
C5 C4 1_555 1_555
H5 C5 1_555 1_555
C6 C1 1_555 1_555
C7 C6 1_555 1_555
H6 C7 1_555 1_555
C8 C7 1_555 1_555
C9 C8 1_555 1_555
C10 O1 1_555 1_555
H7 C10 1_555 1_555
H8 C10 1_555 1_555
C11 C10 1_555 1_555
H9 C11 1_555 1_555
H10 C11 1_555 1_555
H11 C11 1_555 1_555
C12 C8 1_555 1_555
H12 C12 1_555 1_555
C13 C12 1_555 1_555
H13 C13 1_555 1_555
C14 C13 1_555 1_555
C15 C14 1_555 1_555
H14 C15 1_555 1_555
C16 C15 1_555 1_555
H15 C16 1_555 1_555
C17 C16 1_555 1_555
H16 C17 1_555 1_555
C18 C17 1_555 1_555
C19 C14 1_555 1_555
H17 C19 1_555 1_555
C5 C6 1_555 1_555
C18 C19 1_555 1_555

#END
