
#######################################################################
#
#                 Cambridge Crystallographic Data Centre
#                                CCDC 
#
#######################################################################
#
# If this CIF has been generated from an entry in the Cambridge 
# Structural Database, then it will include bibliographic, chemical, 
# crystal, experimental, refinement or atomic coordinate data resulting 
# from the CCDC's data processing and validation procedures.
#
#######################################################################

data_MUWCIR
_chemical_compound_source        'Schisandra arisanensis'
_chemical_name_common            'Arisandilactone A'
_chemical_formula_moiety         'C29 H38 O9,H2 O1'
_chemical_name_systematic        
'2-Hydroxy-9,9,18,21-tetramethyl-19-(4-methyl-5-oxotetrahydrofuran-2-yl)-4,8,20,24-tetraoxahexacyclo[13.8.1.0^1,13^.0^3,7^.0^3,10^.0^17,21^]tetracos-15-ene-5,14-dione monohydrate'
_symmetry_cell_setting           orthorhombic
_symmetry_space_group_name_H-M   'P 21 21 21'
_symmetry_Int_Tables_number      19
_space_group_name_Hall           'P 2ac 2ab'
loop_
_symmetry_equiv_pos_site_id
_symmetry_equiv_pos_as_xyz
1 x,y,z
2 1/2-x,-y,1/2+z
3 -x,1/2+y,1/2-z
4 1/2+x,1/2-y,-z
_cell_length_a                   10.4314(7)
_cell_length_b                   15.4544(12)
_cell_length_c                   17.8219(16)
_cell_angle_alpha                90
_cell_angle_beta                 90
_cell_angle_gamma                90
_cell_volume                     2873.09
_cell_formula_units_Z            4
loop_
_atom_site_label
_atom_site_type_symbol
_atom_site_fract_x
_atom_site_fract_y
_atom_site_fract_z
O1 O 0.0178(7) 0.1092(5) 0.0970(4)
O2 O -0.2203(6) 0.2107(4) 0.1393(4)
O3 O -0.2728(5) 0.3559(4) 0.2178(4)
O4 O -0.2135(9) 0.5713(5) 0.1739(6)
O5 O -0.4391(8) 0.3134(7) 0.4311(5)
O6 O -0.3940(12) 0.1525(7) 0.3379(6)
O7 O -0.1959(12) 0.1019(8) 0.3654(7)
O8 O 0.0545(5) 0.2814(4) 0.2518(4)
H1 H 0.0679 0.2611 0.2936
O9 O -0.3625(8) 0.1032(5) 0.1364(6)
C1 C -0.0302(9) 0.1302(5) 0.1680(6)
H2 H 0.0357 0.1265 0.2071
C2 C -0.1457(11) 0.0756(6) 0.1859(7)
H3 H -0.1379 0.0183 0.1639
H4 H -0.1574 0.0699 0.2396
C3 C -0.2539(12) 0.1247(8) 0.1512(7)
C4 C 0.0744(13) 0.1847(9) 0.0617(7)
C5 C -0.0173(10) 0.2567(7) 0.0883(6)
H5 H -0.0844 0.2602 0.0500
C6 C 0.0405(10) 0.3489(7) 0.0938(7)
H6 H 0.1048 0.3496 0.1331
H7 H 0.0829 0.3626 0.0468
C7 C -0.0598(11) 0.4184(7) 0.1104(7)
H8 H -0.0317 0.4720 0.0873
H9 H -0.1394 0.4017 0.0862
C8 C -0.0873(10) 0.4359(7) 0.1917(6)
H10 H -0.0143 0.4644 0.2159
C9 C -0.1400(8) 0.3627(6) 0.2410(5)
C10 C -0.0841(8) 0.2237(6) 0.1593(5)
C11 C -0.1416(9) 0.3878(6) 0.3239(6)
H11 H -0.1566 0.4495 0.3281
H12 H -0.0583 0.3755 0.3456
C12 C -0.2458(9) 0.3389(7) 0.3691(6)
H13 H -0.2081 0.3222 0.4167
H14 H -0.2652 0.2860 0.3422
C13 C -0.3753(12) 0.3846(9) 0.3864(8)
C14 C -0.2066(13) 0.4940(7) 0.1938(7)
C15 C -0.3186(12) 0.4438(7) 0.2233(9)
C16 C -0.4199(13) 0.4676(10) 0.2328(18)
H15 H -0.4697 0.5042 0.2034
C17 C -0.4560(13) 0.4188(11) 0.3144(10)
H16 H -0.5267 0.4527 0.3355
C18 C -0.3504(13) 0.4522(8) 0.4478(7)
H17 H -0.4280 0.4833 0.4580
H18 H -0.2855 0.4918 0.4311
H19 H -0.3219 0.4236 0.4926
C19 C -0.0785(7) 0.2724(6) 0.2336(5)
H20 H -0.1173 0.2352 0.2719
C20 C -0.5150(12) 0.3207(11) 0.3026(9)
H21 H -0.4559 0.2868 0.2716
C21 C -0.6464(10) 0.3259(11) 0.2628(11)
H22 H -0.6765 0.2685 0.2521
H23 H -0.6375 0.3575 0.2167
H24 H -0.7068 0.3548 0.2947
C22 C -0.5293(16) 0.2760(14) 0.3808(12)
H25 H -0.6157 0.2878 0.3999
C23 C -0.5087(17) 0.1740(12) 0.3793(11)
H26 H -0.5819 0.1481 0.3530
C24 C -0.501(2) 0.1341(13) 0.4561(11)
H27 H -0.5493 0.0805 0.4587
H28 H -0.5323 0.1736 0.4944
C25 C -0.353(3) 0.1175(14) 0.4645(10)
H29 H -0.3191 0.1678 0.4914
C26 C -0.305(2) 0.1242(10) 0.3893(10)
C27 C -0.309(3) 0.0393(14) 0.5080(10)
H30 H -0.2170 0.0392 0.5107
H31 H -0.3376 -0.0123 0.4832
H32 H -0.3439 0.0412 0.5578
C28 C 0.2134(12) 0.1972(9) 0.0965(8)
H33 H 0.2687 0.1517 0.0791
H34 H 0.2081 0.1952 0.1502
H35 H 0.2474 0.2521 0.0811
C29 C 0.0750(14) 0.1728(10) -0.0219(7)
H36 H -0.0114 0.1657 -0.0394
H37 H 0.1242 0.1223 -0.0344
H38 H 0.1125 0.2227 -0.0452
O10 O 0.068(2) 0.2045(9) 0.3962(9)
H39 H 0.01(3) 0.21(3) 0.44(2)
H40 H 0.107(4) 0.250(3) 0.385(3)
loop_
_geom_bond_atom_site_label_1
_geom_bond_atom_site_label_2
_geom_bond_site_symmetry_1
_geom_bond_site_symmetry_2
O1 C1 1_555 1_555
O2 C3 1_555 1_555
O3 C9 1_555 1_555
O4 C14 1_555 1_555
O5 C13 1_555 1_555
O6 C23 1_555 1_555
O7 C26 1_555 1_555
O8 H1 1_555 1_555
O9 C3 1_555 1_555
C1 H2 1_555 1_555
C2 C1 1_555 1_555
H3 C2 1_555 1_555
H4 C2 1_555 1_555
C3 C2 1_555 1_555
C4 O1 1_555 1_555
C5 C4 1_555 1_555
H5 C5 1_555 1_555
C6 C5 1_555 1_555
H6 C6 1_555 1_555
H7 C6 1_555 1_555
C7 C6 1_555 1_555
H8 C7 1_555 1_555
H9 C7 1_555 1_555
C8 C7 1_555 1_555
H10 C8 1_555 1_555
C9 C8 1_555 1_555
C10 O2 1_555 1_555
C11 C9 1_555 1_555
H11 C11 1_555 1_555
H12 C11 1_555 1_555
C12 C11 1_555 1_555
H13 C12 1_555 1_555
H14 C12 1_555 1_555
C13 C12 1_555 1_555
C14 C8 1_555 1_555
C15 O3 1_555 1_555
C16 C15 1_555 1_555
H15 C16 1_555 1_555
C17 C13 1_555 1_555
H16 C17 1_555 1_555
C18 C13 1_555 1_555
H17 C18 1_555 1_555
H18 C18 1_555 1_555
H19 C18 1_555 1_555
C19 O8 1_555 1_555
H20 C19 1_555 1_555
C20 C17 1_555 1_555
H21 C20 1_555 1_555
C21 C20 1_555 1_555
H22 C21 1_555 1_555
H23 C21 1_555 1_555
H24 C21 1_555 1_555
C22 O5 1_555 1_555
H25 C22 1_555 1_555
C23 C22 1_555 1_555
H26 C23 1_555 1_555
C24 C23 1_555 1_555
H27 C24 1_555 1_555
H28 C24 1_555 1_555
C25 C24 1_555 1_555
H29 C25 1_555 1_555
C26 O6 1_555 1_555
C27 C25 1_555 1_555
H30 C27 1_555 1_555
H31 C27 1_555 1_555
H32 C27 1_555 1_555
C28 C4 1_555 1_555
H33 C28 1_555 1_555
H34 C28 1_555 1_555
H35 C28 1_555 1_555
C29 C4 1_555 1_555
H36 C29 1_555 1_555
H37 C29 1_555 1_555
H38 C29 1_555 1_555
O10 H39 1_555 1_555
H40 O10 1_555 1_555
C1 C10 1_555 1_555
C5 C10 1_555 1_555
C9 C19 1_555 1_555
C10 C19 1_555 1_555
C14 C15 1_555 1_555
C16 C17 1_555 1_555
C20 C22 1_555 1_555
C25 C26 1_555 1_555

#END
