
#######################################################################
#
#                 Cambridge Crystallographic Data Centre
#                                CCDC 
#
#######################################################################
#
# If this CIF has been generated from an entry in the Cambridge 
# Structural Database, then it will include bibliographic, chemical, 
# crystal, experimental, refinement or atomic coordinate data resulting 
# from the CCDC's data processing and validation procedures.
#
#######################################################################

data_MUWFOB
_chemical_formula_moiety         'C8 H15 N3'
_chemical_name_systematic        N-t-Butyl-5-methyl-1H-pyrazol-3-amine
_symmetry_cell_setting           monoclinic
_symmetry_space_group_name_H-M   'P 21/c'
_symmetry_Int_Tables_number      14
_space_group_name_Hall           '-P 2ybc'
loop_
_symmetry_equiv_pos_site_id
_symmetry_equiv_pos_as_xyz
1 x,y,z
2 -x,1/2+y,1/2-z
3 -x,-y,-z
4 x,1/2-y,1/2+z
_cell_length_a                   9.030(5)
_cell_length_b                   10.662(7)
_cell_length_c                   18.516(11)
_cell_angle_alpha                90
_cell_angle_beta                 91.78(2)
_cell_angle_gamma                90
_cell_volume                     1781.82
_exptl_crystal_colour            colorless
_exptl_crystal_description       rod
_cell_formula_units_Z            8
loop_
_atom_site_label
_atom_site_type_symbol
_atom_site_fract_x
_atom_site_fract_y
_atom_site_fract_z
C1 C 1.1289(2) 0.3730(2) 0.45270(12)
H1 H 1.0906 0.4549 0.4671
H2 H 1.1746 0.3803 0.4055
H3 H 1.2032 0.3443 0.4887
C2 C 1.0048(2) 0.2807(2) 0.44773(11)
C3 C 0.8575(2) 0.2945(2) 0.42941(11)
H4 H 0.8072 0.3697 0.4164
C4 C 0.7969(2) 0.17391(19) 0.43404(10)
C5 C 0.5703(2) 0.1508(2) 0.35323(11)
C6 C 0.6655(2) 0.1087(2) 0.29128(12)
H5 H 0.7584 0.1563 0.2925
H6 H 0.6120 0.1237 0.2452
H7 H 0.6873 0.0190 0.2963
C7 C 0.4321(2) 0.0690(2) 0.35562(12)
H8 H 0.4612 -0.0187 0.3632
H9 H 0.3754 0.0766 0.3098
H10 H 0.3707 0.0965 0.3954
C8 C 0.5260(2) 0.2871(2) 0.34345(13)
H11 H 0.4671 0.3138 0.3843
H12 H 0.4671 0.2965 0.2984
H13 H 0.6153 0.3391 0.3413
N1 N 1.02557(17) 0.15862(17) 0.46210(9)
H14 H 1.1064(18) 0.123(2) 0.4790(11)
N2 N 0.89916(17) 0.09006(16) 0.45415(9)
N3 N 0.64878(17) 0.13278(16) 0.42483(9)
H15 H 0.647(2) 0.0511(15) 0.4366(11)
C9 C 0.5999(2) 0.4041(2) 0.57882(12)
H19 H 0.6863 0.3590 0.5614
H20 H 0.6231 0.4390 0.6268
H21 H 0.5739 0.4723 0.5453
C10 C 0.4723(2) 0.31590(19) 0.58329(11)
C11 C 0.3564(2) 0.3104(2) 0.62984(11)
H22 H 0.3375 0.3650 0.6690
C12 C 0.2718(2) 0.20591(19) 0.60672(11)
C13 C 0.0387(2) 0.2127(2) 0.67955(11)
C14 C 0.1006(2) 0.2259(2) 0.75615(11)
H23 H 0.1271 0.1429 0.7753
H24 H 0.0258 0.2641 0.7864
H25 H 0.1891 0.2792 0.7563
C15 C -0.0074(2) 0.3404(2) 0.64924(12)
H26 H 0.0787 0.3964 0.6497
H27 H -0.0845 0.3764 0.6790
H28 H -0.0459 0.3304 0.5995
C16 C -0.0952(2) 0.1263(2) 0.67863(13)
H29 H -0.1356 0.1187 0.6291
H30 H -0.1710 0.1612 0.7096
H31 H -0.0654 0.0433 0.6966
N4 N 0.45436(17) 0.22152(16) 0.53670(9)
H32 H 0.513(2) 0.197(2) 0.5044(10)
N5 N 0.33051(17) 0.15125(16) 0.54882(9)
N6 N 0.14773(18) 0.15097(17) 0.63453(10)
H33 H 0.112(2) 0.0869(18) 0.6099(11)
H16? H 1.2217 0.3314 0.4405
H17? H 1.1377 0.4061 0.5020
H18? H 1.1090 0.4421 0.4189
loop_
_geom_bond_atom_site_label_1
_geom_bond_atom_site_label_2
_geom_bond_site_symmetry_1
_geom_bond_site_symmetry_2
C1 H1 1_555 1_555
H2 C1 1_555 1_555
H3 C1 1_555 1_555
C2 C1 1_555 1_555
C3 C2 1_555 1_555
H4 C3 1_555 1_555
C4 C3 1_555 1_555
C5 C6 1_555 1_555
C6 H5 1_555 1_555
H6 C6 1_555 1_555
H7 C6 1_555 1_555
C7 C5 1_555 1_555
H8 C7 1_555 1_555
H9 C7 1_555 1_555
H10 C7 1_555 1_555
C8 C5 1_555 1_555
H11 C8 1_555 1_555
H12 C8 1_555 1_555
H13 C8 1_555 1_555
N1 C2 1_555 1_555
H14 N1 1_555 1_555
N2 C4 1_555 1_555
N3 C4 1_555 1_555
H15 N3 1_555 1_555
C9 H19 1_555 1_555
H20 C9 1_555 1_555
H21 C9 1_555 1_555
C10 C9 1_555 1_555
C11 C10 1_555 1_555
H22 C11 1_555 1_555
C12 C11 1_555 1_555
C13 C14 1_555 1_555
C14 H23 1_555 1_555
H24 C14 1_555 1_555
H25 C14 1_555 1_555
C15 C13 1_555 1_555
H26 C15 1_555 1_555
H27 C15 1_555 1_555
H28 C15 1_555 1_555
C16 C13 1_555 1_555
H29 C16 1_555 1_555
H30 C16 1_555 1_555
H31 C16 1_555 1_555
N4 C10 1_555 1_555
H32 N4 1_555 1_555
N5 C12 1_555 1_555
N6 C12 1_555 1_555
H33 N6 1_555 1_555
C5 N3 1_555 1_555
N1 N2 1_555 1_555
C13 N6 1_555 1_555
N4 N5 1_555 1_555

#END
