
#######################################################################
#
#                 Cambridge Crystallographic Data Centre
#                                CCDC 
#
#######################################################################
#
# If this CIF has been generated from an entry in the Cambridge 
# Structural Database, then it will include bibliographic, chemical, 
# crystal, experimental, refinement or atomic coordinate data resulting 
# from the CCDC's data processing and validation procedures.
#
#######################################################################

data_MUWKOG
_chemical_formula_moiety         'C24 H36 Cl1 N1 O3 S1'
_chemical_name_systematic        
4-chloro-3-hexyl-4,6,6-trimethyl-1-((4-methylphenyl)sulfonyl)octahydro-2H-indol-2-one
_symmetry_cell_setting           triclinic
_symmetry_space_group_name_H-M   'P -1'
_symmetry_Int_Tables_number      2
_space_group_name_Hall           '-P 1'
loop_
_symmetry_equiv_pos_site_id
_symmetry_equiv_pos_as_xyz
1 x,y,z
2 -x,-y,-z
_cell_length_a                   9.7352(3)
_cell_length_b                   11.6198(3)
_cell_length_c                   11.7971(3)
_cell_angle_alpha                86.0980(10)
_cell_angle_beta                 73.4630(10)
_cell_angle_gamma                72.1720(10)
_cell_volume                     1217.6
_exptl_crystal_colour            colorless
_exptl_crystal_description       prism
_cell_formula_units_Z            2
loop_
_atom_site_label
_atom_site_type_symbol
_atom_site_fract_x
_atom_site_fract_y
_atom_site_fract_z
C1 C 0.2821(3) -0.0255(3) 0.8907(2)
C2 C 0.4142(3) -0.1016(3) 0.9093(2)
H1 H 0.4892 -0.0692 0.9182
C3 C 0.4360(4) -0.2243(3) 0.9147(2)
H2 H 0.5267 -0.2765 0.9270
C4 C 0.3269(4) -0.2731(4) 0.9023(2)
C5 C 0.3520(6) -0.4082(4) 0.9098(4)
H3 H 0.2650 -0.4268 0.8987
H4 H 0.3650 -0.4356 0.9876
H5 H 0.4423 -0.4496 0.8480
C6 C 0.1951(4) -0.1954(4) 0.8851(2)
H6 H 0.1196 -0.2278 0.8773
C7 C 0.1712(3) -0.0730(4) 0.8791(2)
H7 H 0.0801 -0.0209 0.8672
C8 C 0.3428(3) 0.1202(2) 0.6479(2)
C9 C 0.4575(3) 0.1565(2) 0.5468(2)
H8 H 0.5482 0.0842 0.5233
C10 C 0.3958(3) 0.1921(3) 0.4392(2)
H9 H 0.4759 0.2095 0.3735
H10 H 0.3742 0.1214 0.4143
C11 C 0.2565(3) 0.2990(3) 0.4551(3)
H11 H 0.2748 0.3710 0.4808
H12 H 0.1726 0.2819 0.5171
C12 C 0.2143(4) 0.3244(3) 0.3380(3)
H13 H 0.2977 0.3450 0.2786
H14 H 0.2060 0.2489 0.3103
C13 C 0.0742(4) 0.4215(4) 0.3417(4)
H15 H 0.0820 0.4983 0.3669
H16 H -0.0104 0.4022 0.4009
C14 C 0.0408(6) 0.4382(5) 0.2177(5)
H17 H 0.1275 0.4542 0.1581
H18 H 0.0299 0.3621 0.1940
C15 C -0.0895(8) 0.5330(6) 0.2176(6)
H19 H -0.1060 0.5381 0.1390
H20 H -0.0777 0.6093 0.2374
H21 H -0.1758 0.5178 0.2763
C16 C 0.5002(3) 0.2495(2) 0.6064(2)
H22 H 0.4215 0.3291 0.6097
C17 C 0.6543(3) 0.2691(3) 0.5480(2)
C18 C 0.6827(4) 0.2896(3) 0.4160(3)
H23 H 0.7815 0.3021 0.3839
H24 H 0.6050 0.3613 0.4019
H25 H 0.6799 0.2189 0.3771
C19 C 0.7853(3) 0.1691(3) 0.5723(2)
H26 H 0.8754 0.1974 0.5461
H27 H 0.8040 0.0986 0.5213
C20 C 0.7729(3) 0.1247(3) 0.6988(2)
C21 C 0.7953(3) 0.2100(3) 0.7806(3)
H28 H 0.7851 0.1759 0.8598
H29 H 0.7194 0.2890 0.7851
H30 H 0.8957 0.2196 0.7493
C22 C 0.8957(3) 0.0039(3) 0.6935(3)
H31 H 0.8895 -0.0269 0.7737
H32 H 0.9945 0.0157 0.6586
H33 H 0.8818 -0.0545 0.6450
C23 C 0.6203(3) 0.1014(2) 0.7481(2)
H34 H 0.6231 0.0282 0.7083
H35 H 0.6058 0.0840 0.8333
C24 C 0.4850(3) 0.2042(2) 0.7343(2)
H36 H 0.4620 0.2726 0.7905
N1 N 0.3531(2) 0.1587(2) 0.75348(17)
O1 O 0.3142(2) 0.1670(2) 0.96780(15)
O2 O 0.0961(2) 0.1884(2) 0.89205(19)
O3 O 0.2570(2) 0.06631(19) 0.64002(16)
S1 S 0.24967(7) 0.13161(8) 0.88635(6)
Cl1 Cl 0.64446(11) 0.41229(8) 0.61233(9)
loop_
_geom_bond_atom_site_label_1
_geom_bond_atom_site_label_2
_geom_bond_site_symmetry_1
_geom_bond_site_symmetry_2
C1 C2 1_555 1_555
C2 H1 1_555 1_555
C3 C2 1_555 1_555
H2 C3 1_555 1_555
C4 C3 1_555 1_555
C5 C4 1_555 1_555
H3 C5 1_555 1_555
H4 C5 1_555 1_555
H5 C5 1_555 1_555
C6 C4 1_555 1_555
H6 C6 1_555 1_555
C7 C1 1_555 1_555
H7 C7 1_555 1_555
C8 C9 1_555 1_555
C9 H8 1_555 1_555
C10 C9 1_555 1_555
H9 C10 1_555 1_555
H10 C10 1_555 1_555
C11 C10 1_555 1_555
H11 C11 1_555 1_555
H12 C11 1_555 1_555
C12 C11 1_555 1_555
H13 C12 1_555 1_555
H14 C12 1_555 1_555
C13 C12 1_555 1_555
H15 C13 1_555 1_555
H16 C13 1_555 1_555
C14 C13 1_555 1_555
H17 C14 1_555 1_555
H18 C14 1_555 1_555
C15 C14 1_555 1_555
H19 C15 1_555 1_555
H20 C15 1_555 1_555
H21 C15 1_555 1_555
C16 C9 1_555 1_555
H22 C16 1_555 1_555
C17 C16 1_555 1_555
C18 C17 1_555 1_555
H23 C18 1_555 1_555
H24 C18 1_555 1_555
H25 C18 1_555 1_555
C19 C17 1_555 1_555
H26 C19 1_555 1_555
H27 C19 1_555 1_555
C20 C19 1_555 1_555
C21 C20 1_555 1_555
H28 C21 1_555 1_555
H29 C21 1_555 1_555
H30 C21 1_555 1_555
C22 C20 1_555 1_555
H31 C22 1_555 1_555
H32 C22 1_555 1_555
H33 C22 1_555 1_555
C23 C20 1_555 1_555
H34 C23 1_555 1_555
H35 C23 1_555 1_555
C24 C16 1_555 1_555
H36 C24 1_555 1_555
N1 C8 1_555 1_555
O1 S1 1_555 1_555
O2 S1 1_555 1_555
O3 C8 1_555 1_555
S1 C1 1_555 1_555
Cl1 C17 1_555 1_555
C6 C7 1_555 1_555
C23 C24 1_555 1_555
C24 N1 1_555 1_555
N1 S1 1_555 1_555

#END
