
#######################################################################
#
#                 Cambridge Crystallographic Data Centre
#                                CCDC 
#
#######################################################################
#
# If this CIF has been generated from an entry in the Cambridge 
# Structural Database, then it will include bibliographic, chemical, 
# crystal, experimental, refinement or atomic coordinate data resulting 
# from the CCDC's data processing and validation procedures.
#
#######################################################################

data_MUWKEW
_chemical_name_common            
'tetraethylammonium dimethyl 25,27-dihydroxy-5,17-dimethoxy-2,8,14,20-tetraoxa-calix[2]arene[2]triazine-11,23-dicarboxylate bromide chloroform solvate'
_chemical_formula_moiety         
'C24 H18 N6 O12,C8 H20 N1 1+,0.5(C1 H1 Cl3),Br1 1-'
_chemical_name_systematic        
'tetraethylammonium dimethyl 25,27-dihydroxy-5,17-dimethoxy-2,8,14,20-tetraoxa-4,6,16,18,26,28-hexaazapentacyclo[19.3.1.1^3,7^.1^9,13^.1^15,19^]octacosa-1(25),3(28),4,6,9(27),10,12,15(26),16,18,21,23-dodecaene-11,23-dicarboxylate bromide chloroform solvate'
_symmetry_cell_setting           monoclinic
_symmetry_space_group_name_H-M   'P 21/n'
_symmetry_Int_Tables_number      14
_space_group_name_Hall           '-P 2yn'
loop_
_symmetry_equiv_pos_site_id
_symmetry_equiv_pos_as_xyz
1 x,y,z
2 1/2-x,1/2+y,1/2-z
3 -x,-y,-z
4 1/2+x,1/2-y,1/2+z
_cell_length_a                   21.688(6)
_cell_length_b                   17.152(4)
_cell_length_c                   22.729(5)
_cell_angle_alpha                90
_cell_angle_beta                 115.043(3)
_cell_angle_gamma                90
_cell_volume                     7660.17
_exptl_crystal_colour            colorless
_exptl_crystal_description       block
_cell_formula_units_Z            8
loop_
_atom_site_label
_atom_site_type_symbol
_atom_site_fract_x
_atom_site_fract_y
_atom_site_fract_z
Br1 Br 0.54878(4) 0.48235(6) 0.74102(5)
Br2 Br 0.54604(4) 0.98875(6) 0.23150(5)
Cl1 Cl 0.24818(10) 0.05716(17) 0.49953(11)
Cl2 Cl 0.19121(15) 0.20350(18) 0.51308(17)
Cl3 Cl 0.31091(14) 0.20014(18) 0.48602(15)
C1 C 0.2656(8) 0.1569(10) 0.5264(9)
H1 H 0.2953 0.1571 0.5741
O1 O 0.7318(3) 0.3925(3) 0.8373(3)
O2 O 0.6379(3) 0.4545(3) 0.6207(3)
O3 O 0.6857(3) 0.7266(3) 0.6703(2)
O4 O 0.7810(3) 0.6648(3) 0.8884(3)
O5 O 0.6879(3) 0.5499(3) 0.8443(3)
H3 H 0.6508 0.5320 0.8168
O6 O 0.9874(3) 0.4219(4) 0.9076(5)
O7 O 0.9985(3) 0.5493(4) 0.9098(4)
O8 O 0.5799(3) 0.2328(3) 0.6851(3)
O9 O 0.6172(3) 0.5989(3) 0.6755(2)
H4 H 0.5992 0.5685 0.6927
O10 O 0.8334(4) 0.5137(4) 0.5635(4)
O11 O 0.8626(3) 0.6378(4) 0.6009(3)
O12 O 0.6580(3) 0.8813(3) 0.8194(3)
N1 N 0.6931(3) 0.4260(3) 0.7292(3)
N2 N 0.6584(3) 0.3110(4) 0.7656(3)
N3 N 0.6104(3) 0.3425(4) 0.6520(3)
N4 N 0.7360(3) 0.6893(3) 0.7780(3)
N5 N 0.6700(3) 0.8045(4) 0.7413(3)
N6 N 0.7212(3) 0.7725(4) 0.8541(3)
C3 C 0.8903(4) 0.5023(5) 0.8886(4)
C4 C 0.8441(4) 0.4437(5) 0.8701(4)
H5 H 0.8594 0.3920 0.8692
C5 C 0.7757(4) 0.4562(5) 0.8524(4)
C6 C 0.7519(4) 0.5320(5) 0.8570(3)
C7 C 0.8012(4) 0.5903(4) 0.8761(4)
C8 C 0.8684(4) 0.5786(5) 0.8917(4)
H6 H 0.8996 0.6209 0.9043
C9 C 0.9634(5) 0.4847(6) 0.9027(5)
C10 C 1.0701(5) 0.5384(8) 0.9231(7)
H7 H 1.0735 0.5027 0.8910
H8 H 1.0947 0.5165 0.9667
H9 H 1.0902 0.5888 0.9206
C11 C 0.6922(3) 0.3764(4) 0.7735(4)
C12 C 0.6177(4) 0.2977(5) 0.7035(4)
C13 C 0.6480(4) 0.4049(4) 0.6708(4)
C14 C 0.5837(5) 0.1794(6) 0.7358(5)
H10 H 0.5539 0.1346 0.7164
H11 H 0.5691 0.2060 0.7659
H12 H 0.6307 0.1612 0.7594
C15 C 0.6806(4) 0.5206(4) 0.6302(3)
C16 C 0.7304(4) 0.5152(5) 0.6081(4)
H13 H 0.7386 0.4671 0.5919
C17 C 0.7688(4) 0.5812(5) 0.6096(4)
C18 C 0.7548(4) 0.6516(5) 0.6332(4)
H14 H 0.7804 0.6971 0.6347
C19 C 0.7036(4) 0.6546(4) 0.6541(3)
C20 C 0.6664(4) 0.5894(5) 0.6543(3)
C21 C 0.8224(4) 0.5722(6) 0.5870(4)
C22 C 0.9189(5) 0.6320(7) 0.5808(6)
H15 H 0.9018 0.6099 0.5370
H16 H 0.9547 0.5982 0.6112
H17 H 0.9376 0.6840 0.5809
C23 C 0.6977(3) 0.7381(4) 0.7335(4)
C24 C 0.7431(4) 0.7105(5) 0.8377(4)
C25 C 0.6845(4) 0.8184(5) 0.8029(4)
C26 C 0.6193(5) 0.9365(5) 0.7677(5)
H18 H 0.5802 0.9098 0.7343
H19 H 0.6486 0.9571 0.7483
H20 H 0.6032 0.9796 0.7859
O13 O 0.8144(2) 0.7321(3) 0.3301(2)
O14 O 0.7245(3) 0.6705(3) 0.1134(3)
O15 O 0.7733(3) 0.3992(3) 0.1676(2)
O16 O 0.8515(3) 0.4597(3) 0.3844(2)
O17 O 0.6453(4) 0.5347(4) 0.4243(4)
O18 O 0.6276(3) 0.6578(3) 0.3913(3)
O19 O 0.8820(3) 0.6007(4) 0.3320(3)
H21 H 0.9070 0.5696 0.3234
O20 O 0.8495(3) 0.8849(3) 0.1845(3)
O21 O 0.5167(3) 0.4297(4) 0.0869(4)
O22 O 0.5046(3) 0.5588(4) 0.0877(4)
O23 O 0.8163(3) 0.5558(3) 0.1603(3)
H22 H 0.8419 0.5193 0.1813
O24 O 0.9221(3) 0.2425(3) 0.3250(3)
N7 N 0.7665(3) 0.6941(4) 0.2229(3)
N8 N 0.8345(3) 0.8098(3) 0.2612(3)
N9 N 0.7872(3) 0.7786(4) 0.1487(3)
N10 N 0.8052(3) 0.4327(4) 0.2746(3)
N11 N 0.8450(3) 0.3172(4) 0.2436(4)
N12 N 0.8849(3) 0.3497(4) 0.3552(3)
C27 C 0.8089(4) 0.5267(4) 0.3711(4)
C28 C 0.7578(4) 0.5249(5) 0.3894(4)
H23 H 0.7473 0.4782 0.4057
C29 C 0.7192(4) 0.5943(4) 0.3840(3)
C30 C 0.7374(4) 0.6628(4) 0.3623(4)
H24 H 0.7132 0.7098 0.3595
C31 C 0.7912(4) 0.6611(4) 0.3449(3)
C32 C 0.8288(4) 0.5953(4) 0.3487(3)
C33 C 0.6619(4) 0.5904(5) 0.4035(4)
C34 C 0.5682(4) 0.6588(6) 0.4053(5)
H25 H 0.5338 0.6229 0.3759
H26 H 0.5494 0.7117 0.3992
H27 H 0.5813 0.6424 0.4503
C35 C 0.8036(4) 0.7458(5) 0.2683(4)
C36 C 0.8237(4) 0.8214(5) 0.1994(4)
C37 C 0.7615(4) 0.7143(4) 0.1647(4)
C38 C 0.8853(4) 0.9409(5) 0.2357(5)
H28 H 0.9055 0.9814 0.2190
H29 H 0.9213 0.9141 0.2722
H30 H 0.8532 0.9648 0.2503
C39 C 0.7043(4) 0.5972(4) 0.1246(4)
C40 C 0.6366(4) 0.5837(5) 0.1085(3)
H31 H 0.6052 0.6258 0.0960
C41 C 0.6145(4) 0.5096(5) 0.1106(4)
C42 C 0.6595(4) 0.4474(5) 0.1317(4)
H32 H 0.6438 0.3961 0.1333
C43 C 0.7278(4) 0.4624(4) 0.1503(3)
C44 C 0.7521(4) 0.5379(5) 0.1471(4)
C45 C 0.5401(4) 0.4923(5) 0.0930(4)
C46 C 0.4339(4) 0.5469(7) 0.0728(6)
H33 H 0.4098 0.5295 0.0277
H34 H 0.4140 0.5959 0.0787
H35 H 0.4298 0.5071 0.1019
C47 C 0.8088(4) 0.3845(4) 0.2315(4)
C48 C 0.8818(4) 0.3054(4) 0.3051(4)
C49 C 0.8461(4) 0.4125(4) 0.3355(4)
C50 C 0.9234(6) 0.1891(6) 0.2753(5)
H36 H 0.8777 0.1679 0.2503
H37 H 0.9551 0.1463 0.2962
H38 H 0.9384 0.2173 0.2461
N13 N 0.4213(3) 0.6976(4) 0.5463(3)
C51 C 0.3509(4) 0.6794(5) 0.4907(4)
H39 H 0.3311 0.7284 0.4675
H40 H 0.3575 0.6439 0.4594
C52 C 0.3005(4) 0.6422(5) 0.5125(4)
H41 H 0.2576 0.6319 0.4745
H42 H 0.2920 0.6777 0.5420
H43 H 0.3192 0.5931 0.5350
C53 C 0.4538(4) 0.6246(5) 0.5825(4)
H44 H 0.4243 0.6030 0.6019
H45 H 0.4977 0.6388 0.6187
C54 C 0.4669(5) 0.5611(5) 0.5430(5)
H46 H 0.4233 0.5410 0.5108
H47 H 0.4925 0.5187 0.5718
H48 H 0.4932 0.5825 0.5207
C55 C 0.4146(4) 0.7553(5) 0.5928(4)
H49 H 0.3970 0.7272 0.6206
H50 H 0.4607 0.7743 0.6215
C56 C 0.3704(5) 0.8245(6) 0.5650(5)
H51 H 0.3892 0.8559 0.5404
H52 H 0.3686 0.8559 0.6002
H53 H 0.3244 0.8072 0.5360
C57 C 0.4604(4) 0.7343(5) 0.5117(4)
H54 H 0.4404 0.7860 0.4950
H55 H 0.4544 0.7014 0.4738
C58 C 0.5368(4) 0.7446(5) 0.5539(5)
H56 H 0.5551 0.7839 0.5342
H57 H 0.5602 0.6949 0.5570
H58 H 0.5440 0.7618 0.5974
N14 N 0.9411(4) 0.2729(6) 0.5722(4)
C59 C 0.8724(8) 0.2456(11) 0.5546(7)
H59 H 0.8566 0.2728 0.5842
H60 H 0.8448 0.2666 0.5107
C60 C 0.8529(9) 0.1702(11) 0.5531(8)
H61 H 0.8727 0.1388 0.5294
H62 H 0.8031 0.1669 0.5312
H63 H 0.8687 0.1505 0.5976
C61 C 0.9884(9) 0.2306(12) 0.6351(9)
H64 H 1.0363 0.2437 0.6449
H65 H 0.9829 0.1736 0.6279
C62 C 0.9739(7) 0.2528(9) 0.6960(6)
H66 H 0.9572 0.3065 0.6914
H67 H 1.0160 0.2481 0.7358
H68 H 0.9395 0.2173 0.6982
C63 C 0.9618(7) 0.2427(8) 0.5194(7)
H69 H 0.9500 0.1866 0.5129
H70 H 0.9330 0.2695 0.4783
C64 C 1.0286(5) 0.2500(7) 0.5282(7)
H71 H 1.0297 0.2691 0.4880
H72 H 1.0511 0.1991 0.5394
H73 H 1.0523 0.2871 0.5634
C65 C 0.9325(9) 0.4058(10) 0.5259(7)
H74 H 0.9087 0.3759 0.4858
H75 H 0.9750 0.4266 0.5269
H76 H 0.9035 0.4490 0.5272
C66 C 0.9472(10) 0.3564(11) 0.5804(10)
H77 H 0.9172 0.3725 0.6011
H78 H 0.9945 0.3676 0.6120
C2? C 0.2333(9) 0.1557(10) 0.4721(9)
H2? H 0.2033 0.1561 0.4245
loop_
_geom_bond_atom_site_label_1
_geom_bond_atom_site_label_2
_geom_bond_site_symmetry_1
_geom_bond_site_symmetry_2
Cl1 C1 1_555 1_555
Cl2 C1 1_555 1_555
Cl3 C1 1_555 1_555
C1 H1 1_555 1_555
O1 C5 1_555 1_555
O2 C13 1_555 1_555
O3 C19 1_555 1_555
O4 C7 1_555 1_555
O5 H3 1_555 1_555
O6 C9 1_555 1_555
O7 C9 1_555 1_555
O8 C12 1_555 1_555
O9 H4 1_555 1_555
O10 C21 1_555 1_555
O11 C21 1_555 1_555
O12 C25 1_555 1_555
N1 C11 1_555 1_555
N2 C11 1_555 1_555
N3 C12 1_555 1_555
N4 C23 1_555 1_555
N5 C23 1_555 1_555
N6 C24 1_555 1_555
C3 C4 1_555 1_555
C4 H5 1_555 1_555
C5 C4 1_555 1_555
C6 O5 1_555 1_555
C7 C6 1_555 1_555
C8 C3 1_555 1_555
H6 C8 1_555 1_555
C9 C3 1_555 1_555
C10 O7 1_555 1_555
H7 C10 1_555 1_555
H8 C10 1_555 1_555
H9 C10 1_555 1_555
C11 O1 1_555 1_555
C12 N2 1_555 1_555
C13 N1 1_555 1_555
C14 O8 1_555 1_555
H10 C14 1_555 1_555
H11 C14 1_555 1_555
H12 C14 1_555 1_555
C15 O2 1_555 1_555
C16 C15 1_555 1_555
H13 C16 1_555 1_555
C17 C16 1_555 1_555
C18 C17 1_555 1_555
H14 C18 1_555 1_555
C19 C18 1_555 1_555
C20 O9 1_555 1_555
C21 C17 1_555 1_555
C22 O11 1_555 1_555
H15 C22 1_555 1_555
H16 C22 1_555 1_555
H17 C22 1_555 1_555
C23 O3 1_555 1_555
C24 O4 1_555 1_555
C25 N5 1_555 1_555
C26 O12 1_555 1_555
H18 C26 1_555 1_555
H19 C26 1_555 1_555
H20 C26 1_555 1_555
O13 C31 1_555 1_555
O14 C37 1_555 1_555
O15 C43 1_555 1_555
O16 C27 1_555 1_555
O17 C33 1_555 1_555
O18 C33 1_555 1_555
O19 H21 1_555 1_555
O20 C36 1_555 1_555
O21 C45 1_555 1_555
O22 C45 1_555 1_555
O23 H22 1_555 1_555
O24 C48 1_555 1_555
N7 C35 1_555 1_555
N8 C35 1_555 1_555
N9 C36 1_555 1_555
N10 C47 1_555 1_555
N11 C47 1_555 1_555
N12 C48 1_555 1_555
C27 C28 1_555 1_555
C28 H23 1_555 1_555
C29 C28 1_555 1_555
C30 C29 1_555 1_555
H24 C30 1_555 1_555
C31 C30 1_555 1_555
C32 O19 1_555 1_555
C33 C29 1_555 1_555
C34 O18 1_555 1_555
H25 C34 1_555 1_555
H26 C34 1_555 1_555
H27 C34 1_555 1_555
C35 O13 1_555 1_555
C36 N8 1_555 1_555
C37 N7 1_555 1_555
C38 O20 1_555 1_555
H28 C38 1_555 1_555
H29 C38 1_555 1_555
H30 C38 1_555 1_555
C39 O14 1_555 1_555
C40 C39 1_555 1_555
H31 C40 1_555 1_555
C41 C40 1_555 1_555
C42 C41 1_555 1_555
H32 C42 1_555 1_555
C43 C42 1_555 1_555
C44 O23 1_555 1_555
C45 C41 1_555 1_555
C46 O22 1_555 1_555
H33 C46 1_555 1_555
H34 C46 1_555 1_555
H35 C46 1_555 1_555
C47 O15 1_555 1_555
C48 N11 1_555 1_555
C49 O16 1_555 1_555
C50 O24 1_555 1_555
H36 C50 1_555 1_555
H37 C50 1_555 1_555
H38 C50 1_555 1_555
N13 C51 1_555 1_555
C51 H39 1_555 1_555
H40 C51 1_555 1_555
C52 C51 1_555 1_555
H41 C52 1_555 1_555
H42 C52 1_555 1_555
H43 C52 1_555 1_555
C53 N13 1_555 1_555
H44 C53 1_555 1_555
H45 C53 1_555 1_555
C54 C53 1_555 1_555
H46 C54 1_555 1_555
H47 C54 1_555 1_555
H48 C54 1_555 1_555
C55 N13 1_555 1_555
H49 C55 1_555 1_555
H50 C55 1_555 1_555
C56 C55 1_555 1_555
H51 C56 1_555 1_555
H52 C56 1_555 1_555
H53 C56 1_555 1_555
C57 N13 1_555 1_555
H54 C57 1_555 1_555
H55 C57 1_555 1_555
C58 C57 1_555 1_555
H56 C58 1_555 1_555
H57 C58 1_555 1_555
H58 C58 1_555 1_555
N14 C59 1_555 1_555
C59 H59 1_555 1_555
H60 C59 1_555 1_555
C60 C59 1_555 1_555
H61 C60 1_555 1_555
H62 C60 1_555 1_555
H63 C60 1_555 1_555
C61 N14 1_555 1_555
H64 C61 1_555 1_555
H65 C61 1_555 1_555
C62 C61 1_555 1_555
H66 C62 1_555 1_555
H67 C62 1_555 1_555
H68 C62 1_555 1_555
C63 N14 1_555 1_555
H69 C63 1_555 1_555
H70 C63 1_555 1_555
C64 C63 1_555 1_555
H71 C64 1_555 1_555
H72 C64 1_555 1_555
H73 C64 1_555 1_555
C65 H74 1_555 1_555
H75 C65 1_555 1_555
H76 C65 1_555 1_555
C66 N14 1_555 1_555
H77 C66 1_555 1_555
H78 C66 1_555 1_555
N3 C13 1_555 1_555
N4 C24 1_555 1_555
N6 C25 1_555 1_555
C5 C6 1_555 1_555
C7 C8 1_555 1_555
C15 C20 1_555 1_555
C19 C20 1_555 1_555
N9 C37 1_555 1_555
N10 C49 1_555 1_555
N12 C49 1_555 1_555
C27 C32 1_555 1_555
C31 C32 1_555 1_555
C39 C44 1_555 1_555
C43 C44 1_555 1_555
C65 C66 1_555 1_555

#END
