
#######################################################################
#
#                 Cambridge Crystallographic Data Centre
#                                CCDC 
#
#######################################################################
#
# If this CIF has been generated from an entry in the Cambridge 
# Structural Database, then it will include bibliographic, chemical, 
# crystal, experimental, refinement or atomic coordinate data resulting 
# from the CCDC's data processing and validation procedures.
#
#######################################################################

data_MUWLAT
_chemical_formula_moiety         
'C43 H58 N2 O2 2+,C56 H32 N4 O4,2(F6 P1 1-),7(C1 H1 Cl3)'
_chemical_name_systematic        
"1-(3-((3,5-di-tert-butylbenzoyl)oxy)propyl)-1'-(3,5-di-tert-butylbenzyl)-4,4'-bipyridinium bis(hexafluorophosphate) 2,20,28,46-tetraoxa-53,55,59,61-tetraazapentadecacyclo[45.5.3.3^21,27^.2^3,6^.2^29,32^.1^15,19^.1^41,45^.0^5,14^.0^7,16^.0^8,13^.0^24,60^.0^31,40^.0^33,42^.0^34,39^.0^50,54^]tetrahexaconta-1(53),3,5,8,10,12,15(62),16,18,21,23,25,27(59),29,31,34,36,38,41(56),42,44,47,49,51,54,57,60,63-octacosaene chloroform solvate"
_symmetry_cell_setting           triclinic
_symmetry_space_group_name_H-M   'P -1'
_symmetry_Int_Tables_number      2
_space_group_name_Hall           '-P 1'
loop_
_symmetry_equiv_pos_site_id
_symmetry_equiv_pos_as_xyz
1 x,y,z
2 -x,-y,-z
_cell_length_a                   11.354(2)
_cell_length_b                   17.925(4)
_cell_length_c                   30.835(6)
_cell_angle_alpha                103.44(3)
_cell_angle_beta                 93.42(3)
_cell_angle_gamma                103.76(3)
_cell_volume                     5884.47
_exptl_crystal_colour            yellow
_exptl_crystal_description       plate
_cell_formula_units_Z            2
loop_
_atom_site_label
_atom_site_type_symbol
_atom_site_fract_x
_atom_site_fract_y
_atom_site_fract_z
O1 O 0.3998(3) 0.3219(2) 0.22960(10)
O2 O 0.3495(3) -0.01267(17) 0.40191(10)
O3 O 0.0809(3) -0.32837(18) 0.21764(11)
O4 O 0.0984(4) 0.0295(2) 0.04131(11)
N1 N 0.2028(3) 0.1259(2) 0.10441(11)
N2 N 0.3037(3) 0.2232(2) 0.16640(11)
N3 N 0.2581(3) -0.11670(19) 0.34018(10)
N4 N 0.1671(3) -0.22184(19) 0.27895(11)
C1 C 0.1848(7) 0.3905(3) 0.46766(18)
H1 H 0.1433 0.4197 0.4873
C2 C 0.3101(7) 0.4078(3) 0.47462(17)
H2 H 0.3528 0.4489 0.4988
C3 C 0.3745(5) 0.3639(3) 0.44543(16)
H3 H 0.4593 0.3753 0.4504
C4 C 0.3099(4) 0.3035(2) 0.40927(14)
C5 C 0.1817(5) 0.2862(2) 0.40242(14)
C6 C 0.1192(6) 0.3294(3) 0.43131(17)
H4 H 0.0345 0.3178 0.4266
C7 C 0.1252(4) 0.2170(3) 0.36177(14)
H5 H 0.0359 0.2049 0.3569
C8 C 0.1865(4) 0.2401(2) 0.32196(14)
C9 C 0.3131(4) 0.2576(2) 0.32916(13)
C10 C 0.3621(4) 0.2498(2) 0.37437(14)
H6 H 0.4515 0.2619 0.3791
C11 C 0.3841(4) 0.2813(2) 0.29688(14)
H7 H 0.4688 0.2921 0.3013
C12 C 0.3241(4) 0.2884(3) 0.25788(15)
C13 C 0.1979(4) 0.2719(3) 0.25100(15)
H8 H 0.1597 0.2777 0.2249
C14 C 0.1284(4) 0.2467(3) 0.28295(14)
H9 H 0.0435 0.2343 0.2781
C15 C 0.3725(4) 0.2954(3) 0.18414(14)
C16 C 0.4253(4) 0.3497(2) 0.15979(15)
H10 H 0.4747 0.3998 0.1743
C17 C 0.4011(4) 0.3258(2) 0.11410(14)
H11 H 0.4347 0.3597 0.0968
C18 C 0.3256(3) 0.2501(2) 0.09339(13)
C19 C 0.2779(3) 0.1999(2) 0.12076(13)
C20 C 0.1751(4) 0.1021(2) 0.06072(14)
C21 C 0.2178(5) 0.1454(3) 0.02940(15)
H12 H 0.1945 0.1245 -0.0013
C22 C 0.2952(4) 0.2195(3) 0.04630(14)
H13 H 0.3276 0.2496 0.0269
C23 C 0.0328(5) -0.0153(3) 0.06796(16)
C24 C -0.0684(5) 0.0021(3) 0.08480(16)
H14 H -0.0865 0.0496 0.0837
C25 C -0.1451(5) -0.0515(3) 0.10379(15)
H15 H -0.2134 -0.0395 0.1159
C26 C -0.1184(4) -0.1232(2) 0.10446(14)
C27 C -0.0121(4) -0.1381(2) 0.08859(15)
C28 C 0.0660(4) -0.0835(3) 0.07063(16)
H16 H 0.1383 -0.0927 0.0608
C29 C 0.0020(4) -0.2202(3) 0.08883(15)
H17 H 0.0788 -0.2294 0.0787
C30 C -0.1105(4) -0.2758(2) 0.05859(14)
C31 C -0.2204(4) -0.2625(2) 0.07365(13)
C32 C -0.2000(4) -0.1948(2) 0.11595(14)
H18 H -0.2765 -0.1852 0.1261
C33 C -0.3307(4) -0.3102(3) 0.05103(15)
H19 H -0.4037 -0.3023 0.0608
C34 C -0.3311(6) -0.3706(3) 0.01316(16)
H20 H -0.4053 -0.4036 -0.0019
C35 C -0.2243(6) -0.3824(3) -0.00238(16)
H21 H -0.2271 -0.4224 -0.0281
C36 C -0.1126(5) -0.3351(3) 0.02009(15)
H22 H -0.0401 -0.3428 0.0096
C37 C -0.0157(4) -0.2329(2) 0.13535(14)
C38 C -0.1258(4) -0.2198(2) 0.14979(13)
C39 C -0.1617(4) -0.2383(2) 0.18892(13)
H23 H -0.2332 -0.2283 0.1991
C40 C -0.0904(4) -0.2719(3) 0.21287(14)
H24 H -0.1159 -0.2869 0.2384
C41 C 0.0184(4) -0.2827(2) 0.19847(14)
C42 C 0.0578(4) -0.2631(3) 0.16002(15)
H25 H 0.1321 -0.2700 0.1510
C43 C 0.1534(4) -0.2960(2) 0.25746(14)
C44 C 0.2087(4) -0.3503(2) 0.27148(15)
H26 H 0.1941 -0.4024 0.2544
C45 C 0.2839(4) -0.3239(3) 0.31073(15)
H27 H 0.3221 -0.3580 0.3211
C46 C 0.3038(4) -0.2444(2) 0.33567(14)
C47 C 0.2440(3) -0.1951(2) 0.31821(13)
C48 C 0.3303(4) -0.0900(2) 0.37823(13)
C49 C 0.3945(4) -0.1336(3) 0.39844(14)
H28 H 0.4448 -0.1103 0.4255
C50 C 0.3804(4) -0.2108(3) 0.37697(14)
H29 H 0.4210 -0.2417 0.3894
C51 C 0.2863(4) 0.0375(2) 0.38853(13)
C52 C 0.1591(4) 0.0199(2) 0.38357(13)
H30 H 0.1128 -0.0283 0.3868
C53 C 0.1028(4) 0.0758(3) 0.37375(13)
H31 H 0.0180 0.0642 0.3695
C54 C 0.1716(4) 0.1485(2) 0.37031(13)
C55 C 0.2995(4) 0.1656(2) 0.37667(13)
C56 C 0.3577(4) 0.1095(2) 0.38473(13)
H32 H 0.4424 0.1200 0.3875
O5 O 0.6261(3) 0.15380(17) 0.15425(10)
O6 O 0.5622(4) 0.16040(19) 0.08536(11)
N5 N 0.3184(3) 0.0511(2) 0.21512(11)
N6 N -0.2284(3) -0.09130(19) 0.29724(10)
C57 C -0.2545(4) -0.0052(3) 0.44250(14)
C58 C -0.2627(4) -0.0698(3) 0.46099(14)
H33 H -0.2467 -0.0600 0.4920
C59 C -0.2935(4) -0.1483(3) 0.43557(14)
C60 C -0.3149(4) -0.1621(3) 0.38943(14)
H34 H -0.3327 -0.2138 0.3715
C61 C -0.3099(4) -0.0990(3) 0.36941(13)
C62 C -0.2804(4) -0.0216(3) 0.39578(13)
H35 H -0.2777 0.0199 0.3823
C63 C -0.2243(5) 0.0801(3) 0.47150(15)
C64 C -0.1351(5) 0.1361(3) 0.45072(17)
H36 H -0.0623 0.1181 0.4468
H37 H -0.1145 0.1888 0.4702
H38 H -0.1725 0.1367 0.4221
C65 C -0.3437(6) 0.1053(4) 0.4742(3)
H39 H -0.3764 0.1052 0.4447
H40 H -0.3284 0.1577 0.4936
H41 H -0.4015 0.0688 0.4859
C66 C -0.1667(7) 0.0874(4) 0.51899(17)
H42 H -0.2256 0.0588 0.5344
H43 H -0.1413 0.1424 0.5351
H44 H -0.0971 0.0656 0.5172
C67 C -0.3066(5) -0.2155(3) 0.45958(15)
C68 C -0.1901(5) -0.2019(4) 0.4913(2)
H45 H -0.1215 -0.1998 0.4745
H46 H -0.1982 -0.2447 0.5057
H47 H -0.1776 -0.1526 0.5137
C69 C -0.4141(5) -0.2134(4) 0.48795(18)
H48 H -0.3989 -0.1623 0.5088
H49 H -0.4220 -0.2537 0.5042
H50 H -0.4883 -0.2231 0.4685
C70 C -0.3328(6) -0.2967(3) 0.42652(19)
H51 H -0.4069 -0.3056 0.4072
H52 H -0.3415 -0.3370 0.4427
H53 H -0.2664 -0.2987 0.4088
C71 C -0.3408(4) -0.1148(3) 0.31948(13)
H54 H -0.3983 -0.0851 0.3133
H55 H -0.3796 -0.1709 0.3070
C72 C -0.2242(4) -0.0405(2) 0.27130(13)
H56 H -0.2920 -0.0217 0.2661
C73 C -0.1200(4) -0.0159(3) 0.25239(14)
H57 H -0.1181 0.0191 0.2342
C74 C -0.0168(3) -0.0430(2) 0.26019(12)
C75 C -0.0264(4) -0.0975(2) 0.28601(12)
H58 H 0.0389 -0.1187 0.2910
C76 C -0.1323(4) -0.1199(2) 0.30408(13)
H59 H -0.1376 -0.1560 0.3216
C77 C 0.0986(3) -0.0124(2) 0.24300(12)
C78 C 0.2105(4) -0.0125(3) 0.26486(15)
H60 H 0.2117 -0.0344 0.2894
C79 C 0.3179(4) 0.0193(3) 0.25019(14)
H61 H 0.3916 0.0188 0.2649
C80 C 0.2138(4) 0.0504(3) 0.19259(16)
H62 H 0.2154 0.0709 0.1675
C81 C 0.1036(4) 0.0194(3) 0.20632(16)
H63 H 0.0314 0.0199 0.1906
C82 C 0.4373(4) 0.0861(3) 0.20030(14)
H64 H 0.5037 0.0800 0.2193
H65 H 0.4469 0.1425 0.2037
C83 C 0.4446(4) 0.0465(3) 0.15158(14)
H66 H 0.4155 -0.0107 0.1462
H67 H 0.3932 0.0639 0.1318
C84 C 0.5760(4) 0.0682(2) 0.14153(17)
H68 H 0.6249 0.0438 0.1580
H69 H 0.5792 0.0480 0.1097
C85 C 0.6151(4) 0.1926(3) 0.12254(15)
C86 C 0.6763(3) 0.2791(2) 0.13938(13)
C87 C 0.7160(4) 0.3138(3) 0.18455(14)
H70 H 0.7026 0.2828 0.2051
C88 C 0.7756(4) 0.3943(3) 0.19983(15)
C89 C 0.7925(4) 0.4382(3) 0.16771(15)
H71 H 0.8315 0.4920 0.1774
C90 C 0.7543(4) 0.4058(2) 0.12216(14)
C91 C 0.6946(4) 0.3247(2) 0.10833(13)
H72 H 0.6669 0.3012 0.0781
C92 C 0.8176(5) 0.4324(3) 0.25009(16)
C93 C 0.7093(11) 0.4258(9) 0.2761(4)
H73 H 0.6519 0.4499 0.2643
H74 H 0.7359 0.4524 0.3072
H75 H 0.6710 0.3708 0.2734
C94 C 0.9026(12) 0.3859(8) 0.2657(4)
H76 H 0.8592 0.3310 0.2601
H77 H 0.9290 0.4072 0.2973
H78 H 0.9724 0.3905 0.2495
C95 C 0.8857(19) 0.5215(10) 0.2603(5)
H79 H 0.9555 0.5277 0.2441
H80 H 0.9121 0.5417 0.2919
H81 H 0.8318 0.5505 0.2512
C96 C 0.7782(4) 0.4549(2) 0.08754(14)
C97 C 0.6634(5) 0.4414(4) 0.0564(2)
H82 H 0.6345 0.3860 0.0414
H83 H 0.6806 0.4717 0.0346
H84 H 0.6019 0.4580 0.0735
C98 C 0.8749(5) 0.4266(4) 0.05863(19)
H85 H 0.9502 0.4365 0.0775
H86 H 0.8884 0.4551 0.0358
H87 H 0.8456 0.3707 0.0447
C99 C 0.8308(7) 0.5443(3) 0.10975(19)
H88 H 0.7703 0.5648 0.1255
H89 H 0.8532 0.5718 0.0870
H90 H 0.9017 0.5518 0.1305
P1 P 0.53338(12) 0.17030(8) 0.80535(4)
F1 F 0.6279(3) 0.24820(19) 0.80020(11)
F2 F 0.5094(3) 0.2198(2) 0.85255(11)
F3 F 0.6412(3) 0.1456(2) 0.82816(14)
F4 F 0.4386(4) 0.0932(2) 0.81066(16)
F5 F 0.5556(4) 0.1229(2) 0.75722(12)
F6 F 0.4252(3) 0.1943(2) 0.78099(10)
P2 P 0.29001(13) 0.83944(8) 0.68547(4)
F7 F 0.3934(3) 0.9212(2) 0.69844(15)
F8 F 0.2440(4) 0.8630(2) 0.73289(11)
F9 F 0.3784(5) 0.7975(3) 0.70572(17)
F10 F 0.1861(3) 0.7587(2) 0.67176(13)
F11 F 0.3346(4) 0.8179(3) 0.63747(13)
F12 F 0.1995(3) 0.88344(18) 0.66616(10)
Cl1 Cl 0.6661(4) 0.3057(2) 0.46070(11)
Cl2 Cl 0.6752(10) 0.4075(6) 0.4009(4)
Cl3 Cl 0.8890(3) 0.4235(2) 0.46109(18)
C103 C 0.7583(11) 0.3569(8) 0.4278(5)
H100 H 0.7842 0.3183 0.4049
Cl7 Cl 0.3073(4) 0.57606(14) 0.41932(9)
Cl8 Cl 0.1910(2) 0.46783(13) 0.33473(9)
Cl9 Cl 0.4450(2) 0.50004(15) 0.35858(9)
C105 C 0.3021(7) 0.4909(4) 0.3796(2)
H102 H 0.2882 0.4468 0.3940
Cl10 Cl 0.1127(5) 0.3538(3) 0.1481(3)
Cl11 Cl -0.0476(8) 0.2053(4) 0.1546(2)
Cl12 Cl -0.0321(7) 0.2297(4) 0.06988(13)
C106 C -0.0242(5) 0.2828(3) 0.12815(18)
H103 H -0.0920 0.3080 0.1317
Cl16 Cl 0.59194(16) 0.47595(9) 0.75680(6)
Cl17 Cl 0.41761(19) 0.40884(12) 0.80994(7)
Cl18 Cl 0.3934(2) 0.34056(12) 0.71476(7)
C107 C 0.4955(6) 0.3884(4) 0.7639(2)
H105 H 0.5458 0.3531 0.7690
C109 C 0.4261(6) 0.8687(4) 0.0175(3)
H107 H 0.4445 0.8566 -0.0137
Cl22 Cl 0.3183(4) 0.78626(18) 0.02477(14)
Cl23 Cl 0.3702(5) 0.9526(4) 0.0267(2)
Cl24 Cl 0.5606(3) 0.88506(16) 0.05273(9)
Cl25 Cl 0.0961(4) 0.4251(2) 0.60759(14)
Cl26 Cl 0.0143(4) 0.2804(3) 0.63467(17)
Cl27 Cl -0.1149(6) 0.3066(3) 0.56005(17)
C110 C -0.0285(8) 0.3527(5) 0.6121(3)
H108 H -0.0797 0.3777 0.6322
Cl31 Cl 0.22845(19) 0.54516(13) 0.13908(7)
Cl32 Cl 0.41242(17) 0.56768(12) 0.07995(7)
Cl33 Cl 0.1856(3) 0.60969(13) 0.06609(6)
C112 C 0.2985(6) 0.6049(3) 0.1059(2)
H110 H 0.3354 0.6584 0.1250
C100? C 0.822(2) 0.3708(9) 0.2769(6)
H91? H 0.7449 0.3316 0.2709
H92? H 0.8383 0.3967 0.3084
H93? H 0.8856 0.3455 0.2681
C101? C 0.7205(17) 0.4742(15) 0.2684(6)
H94? H 0.7000 0.5040 0.2483
H95? H 0.7522 0.5094 0.2975
H96? H 0.6487 0.4352 0.2709
C102? C 0.9415(17) 0.4915(12) 0.2555(7)
H97? H 0.9974 0.4655 0.2400
H98? H 0.9720 0.5117 0.2868
H99? H 0.9332 0.5346 0.2430
C104? C 0.7898(15) 0.3924(10) 0.4095(5)
H101? H 0.7900 0.3447 0.3863
Cl4? Cl 0.7700(7) 0.3670(4) 0.4601(2)
Cl5? Cl 0.9266(4) 0.4618(3) 0.4139(2)
Cl6? Cl 0.6687(12) 0.4287(7) 0.3943(5)
H104? H -0.0961 0.3037 0.1262
Cl13? Cl 0.0350(11) 0.2831(12) 0.0790(3)
Cl14? Cl 0.0937(13) 0.3626(10) 0.1632(6)
Cl15? Cl -0.0530(19) 0.2200(11) 0.1645(6)
Cl19? Cl 0.2441(11) 0.8125(7) -0.0077(5)
Cl20? Cl 0.449(2) 0.8528(9) 0.0557(4)
Cl21? Cl 0.3738(18) 0.9745(10) 0.0290(6)
C108? C 0.3898(14) 0.8784(9) 0.0088(7)
H106? H 0.4421 0.8749 -0.0154
Cl28? Cl -0.0170(14) 0.3218(7) 0.5690(5)
Cl29? Cl 0.0028(6) 0.2042(5) 0.6147(2)
Cl30? Cl 0.1184(14) 0.3488(9) 0.6639(5)
C111? C -0.008(2) 0.3030(8) 0.6222(5)
H109? H -0.0827 0.3081 0.6354
loop_
_geom_bond_atom_site_label_1
_geom_bond_atom_site_label_2
_geom_bond_site_symmetry_1
_geom_bond_site_symmetry_2
O1 C12 1_555 1_555
O2 C48 1_555 1_555
O3 C41 1_555 1_555
O4 C20 1_555 1_555
N1 C19 1_555 1_555
N2 C15 1_555 1_555
N3 C47 1_555 1_555
N4 C43 1_555 1_555
C1 H1 1_555 1_555
C2 C1 1_555 1_555
H2 C2 1_555 1_555
C3 C2 1_555 1_555
H3 C3 1_555 1_555
C4 C3 1_555 1_555
C5 C4 1_555 1_555
C6 C1 1_555 1_555
H4 C6 1_555 1_555
C7 C5 1_555 1_555
H5 C7 1_555 1_555
C8 C7 1_555 1_555
C9 C8 1_555 1_555
C10 C4 1_555 1_555
H6 C10 1_555 1_555
C11 C9 1_555 1_555
H7 C11 1_555 1_555
C12 C11 1_555 1_555
C13 C12 1_555 1_555
H8 C13 1_555 1_555
C14 C8 1_555 1_555
H9 C14 1_555 1_555
C15 O1 1_555 1_555
C16 C15 1_555 1_555
H10 C16 1_555 1_555
C17 C16 1_555 1_555
H11 C17 1_555 1_555
C18 C17 1_555 1_555
C19 N2 1_555 1_555
C20 N1 1_555 1_555
C21 C20 1_555 1_555
H12 C21 1_555 1_555
C22 C18 1_555 1_555
H13 C22 1_555 1_555
C23 O4 1_555 1_555
C24 C23 1_555 1_555
H14 C24 1_555 1_555
C25 C24 1_555 1_555
H15 C25 1_555 1_555
C26 C25 1_555 1_555
C27 C26 1_555 1_555
C28 C23 1_555 1_555
H16 C28 1_555 1_555
C29 C27 1_555 1_555
H17 C29 1_555 1_555
C30 C29 1_555 1_555
C31 C30 1_555 1_555
C32 C26 1_555 1_555
H18 C32 1_555 1_555
C33 C31 1_555 1_555
H19 C33 1_555 1_555
C34 C33 1_555 1_555
H20 C34 1_555 1_555
C35 C34 1_555 1_555
H21 C35 1_555 1_555
C36 C30 1_555 1_555
H22 C36 1_555 1_555
C37 C29 1_555 1_555
C38 C32 1_555 1_555
C39 C38 1_555 1_555
H23 C39 1_555 1_555
C40 C39 1_555 1_555
H24 C40 1_555 1_555
C41 C40 1_555 1_555
C42 C37 1_555 1_555
H25 C42 1_555 1_555
C43 O3 1_555 1_555
C44 C43 1_555 1_555
H26 C44 1_555 1_555
C45 C44 1_555 1_555
H27 C45 1_555 1_555
C46 C45 1_555 1_555
C47 N4 1_555 1_555
C48 N3 1_555 1_555
C49 C48 1_555 1_555
H28 C49 1_555 1_555
C50 C46 1_555 1_555
H29 C50 1_555 1_555
C51 O2 1_555 1_555
C52 C51 1_555 1_555
H30 C52 1_555 1_555
C53 C52 1_555 1_555
H31 C53 1_555 1_555
C54 C7 1_555 1_555
C55 C10 1_555 1_555
C56 C51 1_555 1_555
H32 C56 1_555 1_555
O5 C84 1_555 1_555
O6 C85 1_555 1_555
N5 C79 1_555 1_555
N6 C71 1_555 1_555
C57 C58 1_555 1_555
C58 H33 1_555 1_555
C59 C58 1_555 1_555
C60 C59 1_555 1_555
H34 C60 1_555 1_555
C61 C60 1_555 1_555
C62 C57 1_555 1_555
H35 C62 1_555 1_555
C63 C57 1_555 1_555
C64 C63 1_555 1_555
H36 C64 1_555 1_555
H37 C64 1_555 1_555
H38 C64 1_555 1_555
C65 C63 1_555 1_555
H39 C65 1_555 1_555
H40 C65 1_555 1_555
H41 C65 1_555 1_555
C66 C63 1_555 1_555
H42 C66 1_555 1_555
H43 C66 1_555 1_555
H44 C66 1_555 1_555
C67 C59 1_555 1_555
C68 C67 1_555 1_555
H45 C68 1_555 1_555
H46 C68 1_555 1_555
H47 C68 1_555 1_555
C69 C67 1_555 1_555
H48 C69 1_555 1_555
H49 C69 1_555 1_555
H50 C69 1_555 1_555
C70 C67 1_555 1_555
H51 C70 1_555 1_555
H52 C70 1_555 1_555
H53 C70 1_555 1_555
C71 C61 1_555 1_555
H54 C71 1_555 1_555
H55 C71 1_555 1_555
C72 N6 1_555 1_555
H56 C72 1_555 1_555
C73 C72 1_555 1_555
H57 C73 1_555 1_555
C74 C73 1_555 1_555
C75 C74 1_555 1_555
H58 C75 1_555 1_555
C76 N6 1_555 1_555
H59 C76 1_555 1_555
C77 C74 1_555 1_555
C78 C77 1_555 1_555
H60 C78 1_555 1_555
C79 C78 1_555 1_555
H61 C79 1_555 1_555
C80 N5 1_555 1_555
H62 C80 1_555 1_555
C81 C77 1_555 1_555
H63 C81 1_555 1_555
C82 N5 1_555 1_555
H64 C82 1_555 1_555
H65 C82 1_555 1_555
C83 C82 1_555 1_555
H66 C83 1_555 1_555
H67 C83 1_555 1_555
C84 C83 1_555 1_555
H68 C84 1_555 1_555
H69 C84 1_555 1_555
C85 O5 1_555 1_555
C86 C85 1_555 1_555
C87 C86 1_555 1_555
H70 C87 1_555 1_555
C88 C87 1_555 1_555
C89 C88 1_555 1_555
H71 C89 1_555 1_555
C90 C89 1_555 1_555
C91 C86 1_555 1_555
H72 C91 1_555 1_555
C92 C88 1_555 1_555
C93 C92 1_555 1_555
H73 C93 1_555 1_555
H74 C93 1_555 1_555
H75 C93 1_555 1_555
C94 C92 1_555 1_555
H76 C94 1_555 1_555
H77 C94 1_555 1_555
H78 C94 1_555 1_555
C95 C92 1_555 1_555
H79 C95 1_555 1_555
H80 C95 1_555 1_555
H81 C95 1_555 1_555
C96 C90 1_555 1_555
C97 C96 1_555 1_555
H82 C97 1_555 1_555
H83 C97 1_555 1_555
H84 C97 1_555 1_555
C98 C96 1_555 1_555
H85 C98 1_555 1_555
H86 C98 1_555 1_555
H87 C98 1_555 1_555
C99 C96 1_555 1_555
H88 C99 1_555 1_555
H89 C99 1_555 1_555
H90 C99 1_555 1_555
P1 F1 1_555 1_555
F2 P1 1_555 1_555
F3 P1 1_555 1_555
F4 P1 1_555 1_555
F5 P1 1_555 1_555
F6 P1 1_555 1_555
P2 F7 1_555 1_555
F8 P2 1_555 1_555
F9 P2 1_555 1_555
F10 P2 1_555 1_555
F11 P2 1_555 1_555
F12 P2 1_555 1_555
Cl1 C103 1_555 1_555
Cl2 C103 1_555 1_555
Cl3 C103 1_555 1_555
C103 H100 1_555 1_555
Cl7 C105 1_555 1_555
Cl8 C105 1_555 1_555
Cl9 C105 1_555 1_555
C105 H102 1_555 1_555
Cl10 C106 1_555 1_555
Cl11 C106 1_555 1_555
Cl12 C106 1_555 1_555
C106 H103 1_555 1_555
Cl16 C107 1_555 1_555
Cl17 C107 1_555 1_555
Cl18 C107 1_555 1_555
C107 H105 1_555 1_555
C109 H107 1_555 1_555
Cl22 C109 1_555 1_555
Cl23 C109 1_555 1_555
Cl24 C109 1_555 1_555
Cl25 C110 1_555 1_555
Cl26 C110 1_555 1_555
Cl27 C110 1_555 1_555
C110 H108 1_555 1_555
Cl31 C112 1_555 1_555
Cl32 C112 1_555 1_555
Cl33 C112 1_555 1_555
C112 H110 1_555 1_555
C5 C6 1_555 1_555
C9 C10 1_555 1_555
C13 C14 1_555 1_555
C18 C19 1_555 1_555
C21 C22 1_555 1_555
C27 C28 1_555 1_555
C31 C32 1_555 1_555
C35 C36 1_555 1_555
C37 C38 1_555 1_555
C41 C42 1_555 1_555
C46 C47 1_555 1_555
C49 C50 1_555 1_555
C53 C54 1_555 1_555
C54 C55 1_555 1_555
C55 C56 1_555 1_555
C61 C62 1_555 1_555
C75 C76 1_555 1_555
C80 C81 1_555 1_555
C90 C91 1_555 1_555

#END
