
#######################################################################
#
#                 Cambridge Crystallographic Data Centre
#                                CCDC 
#
#######################################################################
#
# If this CIF has been generated from an entry in the Cambridge 
# Structural Database, then it will include bibliographic, chemical, 
# crystal, experimental, refinement or atomic coordinate data resulting 
# from the CCDC's data processing and validation procedures.
#
#######################################################################

data_MUWPOL
_chemical_formula_moiety         'C43 H56 N1 O3 1+,C56 H32 N4 O4,F6 P1 1-'
_chemical_name_systematic        
'4-(4-(2-((3,5-di-tert-butylbenzoyl)oxy)ethoxy)phenyl)-1-(3,5-di-t-butylbenzyl)pyridinium hexafluorophosphate 2,20,28,46-tetraoxa-53,55,59,61-tetraazapentadecacyclo[45.5.3.3^21,27^.2^3,6^.2^29,32^.1^15,19^.1^41,45^.0^5,14^.0^7,16^.0^8,13^.0^24,60^.0^31,40^.0^33,42^.0^34,39^.0^50,54^]tetrahexaconta-1(53),3,5,8,10,12,15(62),16,18,21,23,25,27(59),29,31,34,36,38,41(56),42,44,47,49,51,54,57,60,63-octacosaene'
_symmetry_cell_setting           tetragonal
_symmetry_space_group_name_H-M   'I 41/a'
_symmetry_Int_Tables_number      88
_space_group_name_Hall           '-I 4ad'
loop_
_symmetry_equiv_pos_site_id
_symmetry_equiv_pos_as_xyz
1 x,y,z
2 1/2-x,-y,1/2+z
3 3/4-y,1/4+x,1/4+z
4 3/4+y,3/4-x,3/4+z
5 1/2+x,1/2+y,1/2+z
6 -x,1/2-y,z
7 1/4-y,3/4+x,3/4+z
8 1/4+y,1/4-x,1/4+z
9 -x,-y,-z
10 1/2+x,y,1/2-z
11 1/4+y,3/4-x,3/4-z
12 1/4-y,1/4+x,1/4-z
13 1/2-x,1/2-y,1/2-z
14 x,1/2+y,-z
15 3/4+y,1/4-x,1/4-z
16 3/4-y,3/4+x,3/4-z
_cell_length_a                   33.379(5)
_cell_length_b                   33.379(5)
_cell_length_c                   40.257(8)
_cell_angle_alpha                90
_cell_angle_beta                 90
_cell_angle_gamma                90
_cell_volume                     44852.6
_exptl_crystal_colour            colorless
_exptl_crystal_description       block
_cell_formula_units_Z            16
loop_
_atom_site_label
_atom_site_type_symbol
_atom_site_fract_x
_atom_site_fract_y
_atom_site_fract_z
O1 O 0.62148(12) 0.49568(14) 0.46783(8)
O2 O 0.48978(10) 0.58556(12) 0.57840(9)
O3 O 0.73148(11) 0.67253(11) 0.61421(9)
O4 O 0.86186(11) 0.52865(14) 0.55250(12)
N1 N 0.57776(13) 0.52534(13) 0.50541(10)
N2 N 0.53387(11) 0.55597(12) 0.54211(9)
N3 N 0.81741(13) 0.57656(14) 0.57116(12)
N4 N 0.77404(13) 0.62472(14) 0.59148(10)
C1 C 0.58484(17) 0.51131(16) 0.47572(12)
C2 C 0.55848(18) 0.51497(17) 0.44813(12)
H1 H 0.5658 0.5049 0.4274
C3 C 0.52347(18) 0.53283(17) 0.45233(12)
H2 H 0.5060 0.5359 0.4345
C4 C 0.51250(15) 0.54757(15) 0.48482(12)
C5 C 0.47674(17) 0.56601(16) 0.49204(13)
H3 H 0.4580 0.5700 0.4753
C6 C 0.46858(16) 0.57857(17) 0.52382(13)
H4 H 0.4443 0.5904 0.5296
C7 C 0.49946(15) 0.57228(16) 0.54690(12)
C8 C 0.54119(15) 0.54308(15) 0.51019(12)
C9 C 0.52021(14) 0.58304(18) 0.60313(12)
C10 C 0.52787(15) 0.54658(18) 0.61813(12)
H5 H 0.5141 0.5237 0.6116
C11 C 0.55650(15) 0.54485(17) 0.64308(12)
H6 H 0.5622 0.5207 0.6536
C12 C 0.57623(15) 0.57934(16) 0.65198(11)
C13 C 0.56764(15) 0.61540(15) 0.63686(12)
C14 C 0.53926(15) 0.61786(17) 0.61215(12)
H7 H 0.5332 0.6421 0.6020
C15 C 0.59320(16) 0.65071(17) 0.65052(13)
H8 H 0.5866 0.6764 0.6401
C16 C 0.61055(15) 0.58236(17) 0.67819(12)
H9 H 0.6172 0.5567 0.6887
C17 C 0.64513(16) 0.60120(16) 0.65982(11)
C18 C 0.63586(15) 0.63837(15) 0.64490(12)
C19 C 0.66511(16) 0.66035(16) 0.62871(13)
H10 H 0.6589 0.6848 0.6188
C20 C 0.70406(16) 0.64518(16) 0.62757(12)
C21 C 0.71339(16) 0.60872(17) 0.64252(12)
H11 H 0.7396 0.5992 0.6420
C22 C 0.68405(15) 0.58683(16) 0.65804(11)
H12 H 0.6903 0.5622 0.6674
C23 C 0.59636(17) 0.6147(2) 0.70291(13)
C24 C 0.59538(19) 0.6097(3) 0.73706(15)
H13 H 0.6016 0.5853 0.7470
C25 C 0.5845(3) 0.6433(4) 0.7560(2)
H14 H 0.5850 0.6417 0.7791
C26 C 0.5733(3) 0.6778(3) 0.7415(2)
H15 H 0.5641 0.6988 0.7547
C27 C 0.5752(2) 0.6827(2) 0.70740(17)
H16 H 0.5685 0.7071 0.6978
C28 C 0.58703(17) 0.6510(2) 0.68791(16)
C29 C 0.76808(16) 0.66163(18) 0.60100(13)
C30 C 0.79458(18) 0.69300(18) 0.59854(16)
H17 H 0.7879 0.7186 0.6059
C31 C 0.83098(19) 0.68504(19) 0.58495(16)
H18 H 0.8496 0.7056 0.5824
C32 C 0.84061(17) 0.6464(2) 0.57492(14)
C33 C 0.8784(2) 0.6334(2) 0.56134(16)
H19 H 0.8986 0.6521 0.5575
C34 C 0.8847(2) 0.5958(2) 0.55436(18)
H20 H 0.9091 0.5872 0.5459
C35 C 0.85208(18) 0.5677(2) 0.56030(15)
C36 C 0.81077(17) 0.6166(2) 0.57875(13)
C37 C 0.83073(16) 0.50040(19) 0.55224(17)
C38 C 0.81134(17) 0.49394(18) 0.52137(15)
H21 H 0.8181 0.5086 0.5026
C39 C 0.78238(15) 0.46526(16) 0.52047(14)
C40 C 0.77172(15) 0.44321(16) 0.54823(13)
C41 C 0.79173(16) 0.44965(19) 0.57824(14)
H22 H 0.7855 0.4347 0.5970
C42 C 0.8212(2) 0.4790(2) 0.57935(17)
H23 H 0.8345 0.4839 0.5992
C43 C 0.75942(16) 0.45278(18) 0.48904(13)
H24 H 0.7669 0.4681 0.4692
C44 C 0.71546(16) 0.45726(17) 0.49869(13)
C45 C 0.70426(15) 0.43554(15) 0.52621(11)
C46 C 0.73915(15) 0.41238(17) 0.54176(13)
H25 H 0.7315 0.3971 0.5616
C47 C 0.66434(15) 0.43513(15) 0.53665(13)
H26 H 0.6569 0.4205 0.5553
C48 C 0.63546(17) 0.45706(17) 0.51871(13)
H27 H 0.6089 0.4573 0.5257
C49 C 0.64679(16) 0.47814(17) 0.49068(13)
C50 C 0.68760(17) 0.47903(18) 0.48037(12)
H28 H 0.6954 0.4938 0.4619
C51 C 0.76647(18) 0.40786(18) 0.48563(13)
C52 C 0.75604(16) 0.38582(17) 0.51328(13)
C53 C 0.7620(2) 0.34533(19) 0.51485(18)
H29 H 0.7549 0.3308 0.5337
C54 C 0.7793(2) 0.3262(2) 0.4872(2)
H30 H 0.7847 0.2989 0.4879
C55 C 0.7883(2) 0.3482(2) 0.45895(19)
H31 H 0.7984 0.3352 0.4403
C56 C 0.78286(19) 0.3876(2) 0.45811(16)
H32 H 0.7899 0.4020 0.4392
O5 O 0.85669(18) 0.51115(19) 0.44062(13)
O6 O 0.9384(3) 0.4836(3) 0.4974(2)
O7 O 0.9564(3) 0.5329(3) 0.5339(3)
N5 N 0.68475(14) 0.40188(13) 0.31499(10)
C57 C 0.6471(5) 0.3682(4) 0.1701(3)
H33 H 0.6547 0.3550 0.1903
H34 H 0.6689 0.3671 0.1545
H35 H 0.6241 0.3550 0.1608
C58 C 0.6754(4) 0.4330(4) 0.1722(2)
H36 H 0.6716 0.4612 0.1758
H37 H 0.6845 0.4287 0.1499
H38 H 0.6950 0.4230 0.1876
C59 C 0.6056(4) 0.4239(6) 0.1519(2)
H39 H 0.6034 0.4526 0.1516
H40 H 0.5802 0.4125 0.1577
H41 H 0.6136 0.4146 0.1304
C60 C 0.6368(2) 0.4116(3) 0.17741(15)
C61 C 0.5014(2) 0.4491(3) 0.2332(2)
H42 H 0.5104 0.4552 0.2111
H43 H 0.4770 0.4636 0.2376
H44 H 0.4964 0.4209 0.2350
C62 C 0.5426(3) 0.5067(4) 0.2531(3)
H45 H 0.5696 0.5118 0.2601
H46 H 0.5245 0.5225 0.2662
H47 H 0.5398 0.5137 0.2301
C63 C 0.5155(3) 0.4548(4) 0.2925(2)
H48 H 0.5119 0.4267 0.2964
H49 H 0.4901 0.4681 0.2942
H50 H 0.5335 0.4656 0.3088
C64 C 0.5328(2) 0.4613(2) 0.25782(18)
C65 C 0.62251(18) 0.4145(2) 0.21273(15)
C66 C 0.5871(2) 0.4350(2) 0.21989(15)
H51 H 0.5730 0.4468 0.2026
C67 C 0.57201(17) 0.4385(2) 0.25278(15)
C68 C 0.59333(17) 0.4204(2) 0.27793(15)
H52 H 0.5836 0.4216 0.2996
C69 C 0.62977(17) 0.40002(18) 0.27164(14)
C70 C 0.64332(19) 0.39829(19) 0.23917(15)
H53 H 0.6676 0.3856 0.2350
C71 C 0.65150(18) 0.37956(17) 0.29967(14)
H54 H 0.6321 0.3733 0.3169
H55 H 0.6619 0.3543 0.2915
C72 C 0.68456(19) 0.44163(18) 0.31744(14)
H56 H 0.6643 0.4562 0.3072
C73 C 0.7148(2) 0.46204(18) 0.33542(15)
H57 H 0.7152 0.4899 0.3359
C74 C 0.74381(17) 0.44053(17) 0.35217(13)
C75 C 0.74329(18) 0.39859(17) 0.34844(13)
H58 H 0.7629 0.3833 0.3589
C76 C 0.71462(18) 0.37987(17) 0.32983(12)
H59 H 0.7153 0.3522 0.3272
C77 C 0.7738(2) 0.4593(2) 0.37437(14)
C78 C 0.7648(2) 0.49448(19) 0.39237(15)
H60 H 0.7401 0.5070 0.3900
C79 C 0.7938(3) 0.5101(2) 0.41381(18)
H61 H 0.7878 0.5329 0.4262
C80 C 0.8308(2) 0.4931(3) 0.41719(19)
C81 C 0.8403(2) 0.4601(3) 0.40047(16)
H62 H 0.8653 0.4482 0.4031
C82 C 0.8111(2) 0.4432(2) 0.37836(16)
H63 H 0.8178 0.4204 0.3663
C83 C 0.8907(3) 0.4868(3) 0.4524(3)
H64 H 0.9083 0.4803 0.4340
H65 H 0.8810 0.4619 0.4620
C84 C 0.9131(3) 0.5102(3) 0.4781(3)
H66 H 0.9295 0.5304 0.4674
H67 H 0.8943 0.5236 0.4927
C85 C 0.9573(4) 0.4956(5) 0.5261(3)
C86 C 0.9794(3) 0.4651(3) 0.5426(3)
C87 C 0.9892(3) 0.4283(4) 0.5287(2)
H68 H 0.9811 0.4222 0.5072
C88 C 1.0112(3) 0.4005(3) 0.5469(3)
C89 C 1.0234(3) 0.4096(3) 0.5791(3)
H69 H 1.0381 0.3911 0.5913
C90 C 1.0135(3) 0.4465(4) 0.5930(2)
C91 C 0.9916(3) 0.4742(3) 0.5748(3)
H70 H 0.9850 0.4988 0.5841
C92 C 1.0278(7) 0.4527(7) 0.6299(6)
C93 C 1.0723(7) 0.4655(9) 0.6308(7)
H71 H 1.0816 0.4684 0.6084
H72 H 1.0877 0.4452 0.6419
H73 H 1.0752 0.4905 0.6424
C94 C 1.0147(12) 0.4953(8) 0.6396(10)
H74 H 1.0349 0.5069 0.6536
H75 H 0.9896 0.4948 0.6513
H76 H 1.0119 0.5111 0.6198
C95 C 1.0095(9) 0.4218(8) 0.6541(7)
H77 H 1.0026 0.4344 0.6748
H78 H 1.0293 0.4015 0.6580
H79 H 0.9860 0.4099 0.6446
C96 C 1.0243(8) 0.3712(7) 0.5241(6)
C97 C 1.0216(12) 0.3283(6) 0.5370(8)
H80 H 1.0313 0.3273 0.5594
H81 H 1.0375 0.3110 0.5232
H82 H 0.9942 0.3195 0.5364
C98 C 1.0651(10) 0.3786(13) 0.5075(12)
H83 H 1.0635 0.4031 0.4951
H84 H 1.0717 0.3569 0.4929
H85 H 1.0856 0.3810 0.5242
C99 C 0.9950(14) 0.3676(16) 0.4886(9)
H86 H 0.9916 0.3397 0.4836
H87 H 1.0078 0.3807 0.4703
H88 H 0.9692 0.3796 0.4924
P1 P 0.83994(6) 0.31148(5) 0.36207(4)
F1 F 0.8530(4) 0.3375(4) 0.3342(3)
F2 F 0.84903(19) 0.27129(18) 0.34447(16)
F3 F 0.8793(3) 0.3095(3) 0.3789(3)
F4 F 0.8222(5) 0.2871(2) 0.3875(4)
F5 F 0.8267(2) 0.34909(16) 0.38152(14)
F6 F 0.8011(2) 0.3164(2) 0.3403(2)
loop_
_geom_bond_atom_site_label_1
_geom_bond_atom_site_label_2
_geom_bond_site_symmetry_1
_geom_bond_site_symmetry_2
O1 C1 1_555 1_555
O2 C7 1_555 1_555
O3 C20 1_555 1_555
O4 C35 1_555 1_555
N1 C1 1_555 1_555
N2 C7 1_555 1_555
N3 C35 1_555 1_555
N4 C29 1_555 1_555
C1 C2 1_555 1_555
C2 H1 1_555 1_555
C3 C2 1_555 1_555
H2 C3 1_555 1_555
C4 C3 1_555 1_555
C5 C4 1_555 1_555
H3 C5 1_555 1_555
C6 C5 1_555 1_555
H4 C6 1_555 1_555
C7 C6 1_555 1_555
C8 N1 1_555 1_555
C9 O2 1_555 1_555
C10 C9 1_555 1_555
H5 C10 1_555 1_555
C11 C10 1_555 1_555
H6 C11 1_555 1_555
C12 C11 1_555 1_555
C13 C12 1_555 1_555
C14 C9 1_555 1_555
H7 C14 1_555 1_555
C15 C13 1_555 1_555
H8 C15 1_555 1_555
C16 C12 1_555 1_555
H9 C16 1_555 1_555
C17 C16 1_555 1_555
C18 C15 1_555 1_555
C19 C18 1_555 1_555
H10 C19 1_555 1_555
C20 C19 1_555 1_555
C21 C20 1_555 1_555
H11 C21 1_555 1_555
C22 C17 1_555 1_555
H12 C22 1_555 1_555
C23 C16 1_555 1_555
C24 C23 1_555 1_555
H13 C24 1_555 1_555
C25 C24 1_555 1_555
H14 C25 1_555 1_555
C26 C25 1_555 1_555
H15 C26 1_555 1_555
C27 C26 1_555 1_555
H16 C27 1_555 1_555
C28 C15 1_555 1_555
C29 O3 1_555 1_555
C30 C29 1_555 1_555
H17 C30 1_555 1_555
C31 C30 1_555 1_555
H18 C31 1_555 1_555
C32 C31 1_555 1_555
C33 C32 1_555 1_555
H19 C33 1_555 1_555
C34 C33 1_555 1_555
H20 C34 1_555 1_555
C35 C34 1_555 1_555
C36 N3 1_555 1_555
C37 O4 1_555 1_555
C38 C37 1_555 1_555
H21 C38 1_555 1_555
C39 C38 1_555 1_555
C40 C39 1_555 1_555
C41 C40 1_555 1_555
H22 C41 1_555 1_555
C42 C37 1_555 1_555
H23 C42 1_555 1_555
C43 C39 1_555 1_555
H24 C43 1_555 1_555
C44 C43 1_555 1_555
C45 C44 1_555 1_555
C46 C40 1_555 1_555
H25 C46 1_555 1_555
C47 C45 1_555 1_555
H26 C47 1_555 1_555
C48 C47 1_555 1_555
H27 C48 1_555 1_555
C49 O1 1_555 1_555
C50 C44 1_555 1_555
H28 C50 1_555 1_555
C51 C43 1_555 1_555
C52 C46 1_555 1_555
C53 C52 1_555 1_555
H29 C53 1_555 1_555
C54 C53 1_555 1_555
H30 C54 1_555 1_555
C55 C54 1_555 1_555
H31 C55 1_555 1_555
C56 C51 1_555 1_555
H32 C56 1_555 1_555
O5 C80 1_555 1_555
O6 C84 1_555 1_555
O7 C85 1_555 1_555
N5 C71 1_555 1_555
C57 H33 1_555 1_555
H34 C57 1_555 1_555
H35 C57 1_555 1_555
C58 H36 1_555 1_555
H37 C58 1_555 1_555
H38 C58 1_555 1_555
C59 H39 1_555 1_555
H40 C59 1_555 1_555
H41 C59 1_555 1_555
C60 C57 1_555 1_555
C61 H42 1_555 1_555
H43 C61 1_555 1_555
H44 C61 1_555 1_555
C62 H45 1_555 1_555
H46 C62 1_555 1_555
H47 C62 1_555 1_555
C63 H48 1_555 1_555
H49 C63 1_555 1_555
H50 C63 1_555 1_555
C64 C61 1_555 1_555
C65 C60 1_555 1_555
C66 C65 1_555 1_555
H51 C66 1_555 1_555
C67 C64 1_555 1_555
C68 C67 1_555 1_555
H52 C68 1_555 1_555
C69 C68 1_555 1_555
C70 C65 1_555 1_555
H53 C70 1_555 1_555
C71 C69 1_555 1_555
H54 C71 1_555 1_555
H55 C71 1_555 1_555
C72 N5 1_555 1_555
H56 C72 1_555 1_555
C73 C72 1_555 1_555
H57 C73 1_555 1_555
C74 C73 1_555 1_555
C75 C74 1_555 1_555
H58 C75 1_555 1_555
C76 N5 1_555 1_555
H59 C76 1_555 1_555
C77 C74 1_555 1_555
C78 C77 1_555 1_555
H60 C78 1_555 1_555
C79 C78 1_555 1_555
H61 C79 1_555 1_555
C80 C79 1_555 1_555
C81 C80 1_555 1_555
H62 C81 1_555 1_555
C82 C77 1_555 1_555
H63 C82 1_555 1_555
C83 O5 1_555 1_555
H64 C83 1_555 1_555
H65 C83 1_555 1_555
C84 C83 1_555 1_555
H66 C84 1_555 1_555
H67 C84 1_555 1_555
C85 O6 1_555 1_555
C86 C85 1_555 1_555
C87 C86 1_555 1_555
H68 C87 1_555 1_555
C88 C87 1_555 1_555
C89 C88 1_555 1_555
H69 C89 1_555 1_555
C90 C89 1_555 1_555
C91 C86 1_555 1_555
H70 C91 1_555 1_555
C92 C90 1_555 1_555
C93 C92 1_555 1_555
H71 C93 1_555 1_555
H72 C93 1_555 1_555
H73 C93 1_555 1_555
C94 C92 1_555 1_555
H74 C94 1_555 1_555
H75 C94 1_555 1_555
H76 C94 1_555 1_555
C95 C92 1_555 1_555
H77 C95 1_555 1_555
H78 C95 1_555 1_555
H79 C95 1_555 1_555
C96 C88 1_555 1_555
C97 C96 1_555 1_555
H80 C97 1_555 1_555
H81 C97 1_555 1_555
H82 C97 1_555 1_555
C98 C96 1_555 1_555
H83 C98 1_555 1_555
H84 C98 1_555 1_555
H85 C98 1_555 1_555
C99 C96 1_555 1_555
H86 C99 1_555 1_555
H87 C99 1_555 1_555
H88 C99 1_555 1_555
P1 F1 1_555 1_555
F2 P1 1_555 1_555
F3 P1 1_555 1_555
F4 P1 1_555 1_555
F5 P1 1_555 1_555
F6 P1 1_555 1_555
N2 C8 1_555 1_555
N4 C36 1_555 1_555
C4 C8 1_555 1_555
C13 C14 1_555 1_555
C17 C18 1_555 1_555
C21 C22 1_555 1_555
C23 C28 1_555 1_555
C27 C28 1_555 1_555
C32 C36 1_555 1_555
C41 C42 1_555 1_555
C45 C46 1_555 1_555
C48 C49 1_555 1_555
C49 C50 1_555 1_555
C51 C52 1_555 1_555
C55 C56 1_555 1_555
C58 C60 1_555 1_555
C59 C60 1_555 1_555
C62 C64 1_555 1_555
C63 C64 1_555 1_555
C66 C67 1_555 1_555
C69 C70 1_555 1_555
C75 C76 1_555 1_555
C81 C82 1_555 1_555
C90 C91 1_555 1_555

#END
