
#######################################################################
#
#                 Cambridge Crystallographic Data Centre
#                                CCDC 
#
#######################################################################
#
# If this CIF has been generated from an entry in the Cambridge 
# Structural Database, then it will include bibliographic, chemical, 
# crystal, experimental, refinement or atomic coordinate data resulting 
# from the CCDC's data processing and validation procedures.
#
#######################################################################

data_MUWRUS
_chemical_formula_moiety         'C24 H21 Br1 Cl2 N2 O4 S1,0.33(H2 O1)'
_chemical_name_systematic        
'N-[3-(4-bromophenyl)-2-([(4-methylphenyl)sulfonyl]amino)-3-oxo-1-phenylpropyl]-2,2-dichloroacetamide hydrate'
_symmetry_cell_setting           monoclinic
_symmetry_space_group_name_H-M   'P 21/c'
_symmetry_Int_Tables_number      14
_space_group_name_Hall           '-P 2ybc'
loop_
_symmetry_equiv_pos_site_id
_symmetry_equiv_pos_as_xyz
1 x,y,z
2 -x,1/2+y,1/2-z
3 -x,-y,-z
4 x,1/2-y,1/2+z
_cell_length_a                   20.8165(19)
_cell_length_b                   17.2483(16)
_cell_length_c                   21.723(2)
_cell_angle_alpha                90
_cell_angle_beta                 97.026(2)
_cell_angle_gamma                90
_cell_volume                     7741.06
_chemical_melting_point          '144-146 deg.C'
_cell_formula_units_Z            12
loop_
_atom_site_label
_atom_site_type_symbol
_atom_site_fract_x
_atom_site_fract_y
_atom_site_fract_z
Br1 Br 0.79190(2) 0.55957(3) 1.054514(19)
C1 C 0.80755(18) 0.3920(2) 0.92097(17)
H1 H 0.8271 0.3440 0.9177
C2 C 0.81557(19) 0.4314(2) 0.97708(17)
H2 H 0.8420 0.4127 1.0115
C3 C 0.78053(18) 0.5025(2) 0.97843(16)
C4 C 0.74413(18) 0.5356(2) 0.92937(16)
H3 H 0.7232 0.5828 0.9327
C5 C 0.73995(18) 0.4946(2) 0.87317(17)
H4 H 0.7162 0.5159 0.8382
C6 C 0.76928(17) 0.4250(2) 0.86803(16)
C7 C 0.76689(17) 0.3814(2) 0.80872(16)
C8 C 0.74343(17) 0.4213(2) 0.74692(16)
H5 H 0.7367 0.4770 0.7524
C9 C 0.67879(18) 0.3790(2) 0.72212(16)
H6 H 0.6867 0.3230 0.7224
C10 C 0.62617(18) 0.3963(2) 0.76358(17)
C11 C 0.61041(18) 0.3381(2) 0.80568(17)
H7 H 0.6316 0.2905 0.8076
C12 C 0.56195(18) 0.3536(2) 0.84474(19)
H8 H 0.5516 0.3162 0.8728
C13 C 0.5309(2) 0.4224(2) 0.84133(18)
H9 H 0.4985 0.4318 0.8663
C14 C 0.54641(19) 0.4769(3) 0.80223(18)
H10 H 0.5259 0.5248 0.8023
C15 C 0.59224(18) 0.4653(3) 0.76121(18)
H11 H 0.5998 0.5034 0.7327
C16 C 0.63146(19) 0.3505(3) 0.61537(17)
C17 C 0.6050(2) 0.3828(3) 0.55451(18)
H12 H 0.5950 0.3386 0.5266
C18 C 0.90240(18) 0.4535(2) 0.76750(19)
C19 C 0.90097(18) 0.5075(2) 0.81682(19)
H13 H 0.8734 0.5501 0.8130
C20 C 0.94073(18) 0.4947(2) 0.8688(2)
H14 H 0.9418 0.5309 0.9007
C21 C 0.98078(18) 0.4299(2) 0.87791(18)
C22 C 0.98198(18) 0.3774(2) 0.82893(19)
H15 H 1.0087 0.3340 0.8335
C23 C 0.94278(18) 0.3906(2) 0.77322(19)
H16 H 0.9440 0.3568 0.7400
C24 C 1.02445(18) 0.4145(2) 0.94127(18)
H17 H 1.0363 0.4630 0.9611
H18 H 1.0628 0.3871 0.9335
H19 H 1.0008 0.3839 0.9678
Cl1 Cl 0.65408(5) 0.44222(7) 0.51965(5)
Cl2 Cl 0.52950(6) 0.43007(8) 0.56202(6)
N1 N 0.65707(16) 0.4034(2) 0.65799(14)
H20 H 0.6271 0.4406 0.6598
N2 N 0.78791(15) 0.40633(18) 0.70177(13)
H21 H 0.8041 0.3583 0.7090
O1 O 0.78665(13) 0.31506(16) 0.80751(12)
O2 O 0.62929(13) 0.28282(17) 0.62545(11)
O3 O 0.82492(13) 0.54275(15) 0.69829(11)
O4 O 0.88071(13) 0.43875(17) 0.64759(13)
S1 S 0.84926(5) 0.46485(6) 0.69803(5)
Br2 Br 0.794086(19) 0.92234(2) 1.042374(18)
C25 C 0.74763(18) 0.8372(2) 0.86464(17)
H22 H 0.7259 0.8544 0.8272
C26 C 0.75059(19) 0.8848(2) 0.91659(17)
H23 H 0.7287 0.9319 0.9155
C27 C 0.78777(19) 0.8587(2) 0.97031(18)
C28 C 0.82010(19) 0.7848(2) 0.97542(18)
H24 H 0.8437 0.7680 1.0121
C29 C 0.81376(18) 0.7408(2) 0.92234(17)
H25 H 0.8351 0.6934 0.9228
C30 C 0.77652(18) 0.7644(2) 0.86769(16)
C31 C 0.77271(19) 0.7098(2) 0.81432(17)
C32 C 0.74444(19) 0.7360(2) 0.74807(17)
H26 H 0.7371 0.7922 0.7464
C33 C 0.68047(18) 0.6912(2) 0.73317(17)
H27 H 0.6899 0.6358 0.7383
C34 C 0.63067(19) 0.7128(2) 0.77599(18)
C35 C 0.59355(18) 0.7836(2) 0.76529(18)
H28 H 0.5981 0.8157 0.7317
C36 C 0.55105(19) 0.8010(2) 0.80738(17)
H29 H 0.5259 0.8456 0.8012
C37 C 0.54435(19) 0.7542(2) 0.85908(18)
H30 H 0.5151 0.7679 0.8864
C38 C 0.57988(19) 0.6903(3) 0.86894(18)
H31 H 0.5760 0.6597 0.9036
C39 C 0.62312(19) 0.6689(2) 0.82726(18)
H32 H 0.6473 0.6238 0.8346
C40 C 0.64023(18) 0.6469(2) 0.62905(17)
C41 C 0.61294(19) 0.6644(2) 0.56222(18)
H33 H 0.6096 0.6178 0.5362
C42 C 0.89553(18) 0.7835(2) 0.75612(17)
C43 C 0.89384(19) 0.8526(2) 0.79158(18)
H34 H 0.8676 0.8943 0.7778
C44 C 0.93536(17) 0.8544(2) 0.85049(16)
H35 H 0.9355 0.8983 0.8753
C45 C 0.97479(19) 0.7923(2) 0.87060(18)
C46 C 0.97201(19) 0.7278(2) 0.83232(17)
H36 H 0.9962 0.6846 0.8463
C47 C 0.93754(19) 0.7236(2) 0.77758(18)
H37 H 0.9412 0.6802 0.7528
C48 C 1.0178(2) 0.8015(3) 0.93469(18)
H38 H 1.0484 0.8426 0.9321
H39 H 1.0406 0.7539 0.9450
H40 H 0.9908 0.8134 0.9662
Cl3 Cl 0.66185(5) 0.74047(7) 0.53136(5)
Cl4 Cl 0.53694(6) 0.71166(8) 0.56276(6)
N3 N 0.65545(16) 0.70512(18) 0.66746(14)
H41 H 0.6201 0.7352 0.6671
N4 N 0.78905(16) 0.71192(19) 0.70394(14)
H42 H 0.8143 0.6725 0.7195
O5 O 0.79575(12) 0.64580(15) 0.82060(11)
O6 O 0.64187(12) 0.57795(15) 0.64396(12)
O7 O 0.79491(13) 0.84995(16) 0.69433(13)
O8 O 0.85541(13) 0.78575(16) 0.63818(11)
S2 S 0.83166(5) 0.78743(6) 0.69582(5)
Br3 Br 0.79429(3) 0.29492(3) 0.53725(2)
C49 C 0.8148(2) 0.4394(3) 0.38763(19)
H43 H 0.8377 0.4839 0.3798
C50 C 0.8211(2) 0.4030(3) 0.44805(19)
H44 H 0.8500 0.4224 0.4804
C51 C 0.7838(2) 0.3390(3) 0.4569(2)
C52 C 0.7404(2) 0.3066(3) 0.41199(19)
H45 H 0.7154 0.2642 0.4208
C53 C 0.73471(19) 0.3385(2) 0.35273(19)
H46 H 0.7064 0.3168 0.3209
C54 C 0.7716(2) 0.4031(2) 0.34139(19)
C55 C 0.76827(18) 0.4391(2) 0.27924(19)
C56 C 0.73754(18) 0.3934(2) 0.21906(18)
H47 H 0.7319 0.3385 0.2287
C57 C 0.67268(18) 0.4300(2) 0.19432(18)
H48 H 0.6808 0.4847 0.1859
C58 C 0.62607(18) 0.4272(2) 0.24390(18)
C59 C 0.58447(18) 0.3630(2) 0.24971(18)
H49 H 0.5840 0.3219 0.2220
C60 C 0.5451(2) 0.3612(3) 0.29562(18)
H50 H 0.5177 0.3193 0.2992
C61 C 0.54611(19) 0.4240(2) 0.33618(19)
H51 H 0.5202 0.4231 0.3681
C62 C 0.58403(19) 0.4860(2) 0.32980(19)
H52 H 0.5834 0.5271 0.3574
C63 C 0.62323(18) 0.4905(2) 0.28431(19)
H53 H 0.6478 0.5347 0.2799
C64 C 0.6217(2) 0.4316(3) 0.08487(19)
C65 C 0.60486(19) 0.3802(2) 0.02960(18)
H54 H 0.6015 0.3272 0.0451
C66 C 0.89552(18) 0.3629(2) 0.23964(17)
C67 C 0.89922(19) 0.3093(2) 0.28933(18)
H55 H 0.8750 0.2639 0.2856
C68 C 0.9405(2) 0.3257(2) 0.34499(19)
H56 H 0.9431 0.2907 0.3778
C69 C 0.9776(2) 0.3945(2) 0.35081(19)
C70 C 0.97441(19) 0.4448(2) 0.30075(18)
H57 H 1.0007 0.4886 0.3038
C71 C 0.93228(18) 0.4320(2) 0.24471(18)
H58 H 0.9292 0.4679 0.2126
C72 C 1.02085(19) 0.4102(2) 0.40732(19)
H59 H 1.0418 0.4592 0.4036
H60 H 1.0529 0.3700 0.4136
H61 H 0.9964 0.4116 0.4420
Cl5 Cl 0.65667(6) 0.37744(8) -0.02600(6)
Cl6 Cl 0.52731(5) 0.40716(6) -0.00525(5)
N5 N 0.78001(14) 0.4020(2) 0.17087(14)
H62 H 0.7961 0.4505 0.1720
N6 N 0.64680(16) 0.39437(19) 0.13611(15)
H63 H 0.6785 0.3638 0.1249
O9 O 0.78462(11) 0.50274(16) 0.27102(11)
O10 O 0.61387(13) 0.50261(17) 0.09015(12)
O11 O 0.81395(13) 0.26673(16) 0.19171(13)
O12 O 0.88495(14) 0.32704(17) 0.13513(13)
S3 S 0.84147(5) 0.33877(6) 0.17885(5)
O13 O 0.32729(11) 0.13205(14) 0.34652(11)
H64 H 0.3533 0.1462 0.3777
H65 H 0.2909 0.1540 0.3477
loop_
_geom_bond_atom_site_label_1
_geom_bond_atom_site_label_2
_geom_bond_site_symmetry_1
_geom_bond_site_symmetry_2
Br1 C3 1_555 1_555
C1 H1 1_555 1_555
C2 C1 1_555 1_555
H2 C2 1_555 1_555
C3 C2 1_555 1_555
C4 C3 1_555 1_555
H3 C4 1_555 1_555
C5 C4 1_555 1_555
H4 C5 1_555 1_555
C6 C1 1_555 1_555
C7 C6 1_555 1_555
C8 C7 1_555 1_555
H5 C8 1_555 1_555
C9 C8 1_555 1_555
H6 C9 1_555 1_555
C10 C9 1_555 1_555
C11 C10 1_555 1_555
H7 C11 1_555 1_555
C12 C11 1_555 1_555
H8 C12 1_555 1_555
C13 C12 1_555 1_555
H9 C13 1_555 1_555
C14 C13 1_555 1_555
H10 C14 1_555 1_555
C15 C10 1_555 1_555
H11 C15 1_555 1_555
C16 C17 1_555 1_555
C17 H12 1_555 1_555
C18 C19 1_555 1_555
C19 H13 1_555 1_555
C20 C19 1_555 1_555
H14 C20 1_555 1_555
C21 C20 1_555 1_555
C22 C21 1_555 1_555
H15 C22 1_555 1_555
C23 C18 1_555 1_555
H16 C23 1_555 1_555
C24 C21 1_555 1_555
H17 C24 1_555 1_555
H18 C24 1_555 1_555
H19 C24 1_555 1_555
Cl1 C17 1_555 1_555
Cl2 C17 1_555 1_555
N1 C9 1_555 1_555
H20 N1 1_555 1_555
N2 C8 1_555 1_555
H21 N2 1_555 1_555
O1 C7 1_555 1_555
O2 C16 1_555 1_555
O3 S1 1_555 1_555
O4 S1 1_555 1_555
S1 C18 1_555 1_555
Br2 C27 1_555 1_555
C25 H22 1_555 1_555
C26 C25 1_555 1_555
H23 C26 1_555 1_555
C27 C26 1_555 1_555
C28 C27 1_555 1_555
H24 C28 1_555 1_555
C29 C28 1_555 1_555
H25 C29 1_555 1_555
C30 C25 1_555 1_555
C31 C30 1_555 1_555
C32 C31 1_555 1_555
H26 C32 1_555 1_555
C33 C32 1_555 1_555
H27 C33 1_555 1_555
C34 C33 1_555 1_555
C35 C34 1_555 1_555
H28 C35 1_555 1_555
C36 C35 1_555 1_555
H29 C36 1_555 1_555
C37 C36 1_555 1_555
H30 C37 1_555 1_555
C38 C37 1_555 1_555
H31 C38 1_555 1_555
C39 C34 1_555 1_555
H32 C39 1_555 1_555
C40 C41 1_555 1_555
C41 H33 1_555 1_555
C42 C43 1_555 1_555
C43 H34 1_555 1_555
C44 C43 1_555 1_555
H35 C44 1_555 1_555
C45 C44 1_555 1_555
C46 C45 1_555 1_555
H36 C46 1_555 1_555
C47 C42 1_555 1_555
H37 C47 1_555 1_555
C48 C45 1_555 1_555
H38 C48 1_555 1_555
H39 C48 1_555 1_555
H40 C48 1_555 1_555
Cl3 C41 1_555 1_555
Cl4 C41 1_555 1_555
N3 C33 1_555 1_555
H41 N3 1_555 1_555
N4 C32 1_555 1_555
H42 N4 1_555 1_555
O5 C31 1_555 1_555
O6 C40 1_555 1_555
O7 S2 1_555 1_555
O8 S2 1_555 1_555
S2 C42 1_555 1_555
Br3 C51 1_555 1_555
C49 H43 1_555 1_555
C50 C49 1_555 1_555
H44 C50 1_555 1_555
C51 C50 1_555 1_555
C52 C51 1_555 1_555
H45 C52 1_555 1_555
C53 C52 1_555 1_555
H46 C53 1_555 1_555
C54 C49 1_555 1_555
C55 C54 1_555 1_555
C56 C55 1_555 1_555
H47 C56 1_555 1_555
C57 C56 1_555 1_555
H48 C57 1_555 1_555
C58 C57 1_555 1_555
C59 C58 1_555 1_555
H49 C59 1_555 1_555
C60 C59 1_555 1_555
H50 C60 1_555 1_555
C61 C60 1_555 1_555
H51 C61 1_555 1_555
C62 C61 1_555 1_555
H52 C62 1_555 1_555
C63 C58 1_555 1_555
H53 C63 1_555 1_555
C64 C65 1_555 1_555
C65 H54 1_555 1_555
C66 C67 1_555 1_555
C67 H55 1_555 1_555
C68 C67 1_555 1_555
H56 C68 1_555 1_555
C69 C68 1_555 1_555
C70 C69 1_555 1_555
H57 C70 1_555 1_555
C71 C66 1_555 1_555
H58 C71 1_555 1_555
C72 C69 1_555 1_555
H59 C72 1_555 1_555
H60 C72 1_555 1_555
H61 C72 1_555 1_555
Cl5 C65 1_555 1_555
Cl6 C65 1_555 1_555
N5 C56 1_555 1_555
H62 N5 1_555 1_555
N6 C57 1_555 1_555
H63 N6 1_555 1_555
O9 C55 1_555 1_555
O10 C64 1_555 1_555
O11 S3 1_555 1_555
O12 S3 1_555 1_555
S3 C66 1_555 1_555
O13 H64 1_555 1_555
H65 O13 1_555 1_555
C5 C6 1_555 1_555
C14 C15 1_555 1_555
C16 N1 1_555 1_555
C22 C23 1_555 1_555
N2 S1 1_555 1_555
C29 C30 1_555 1_555
C38 C39 1_555 1_555
C40 N3 1_555 1_555
C46 C47 1_555 1_555
N4 S2 1_555 1_555
C53 C54 1_555 1_555
C62 C63 1_555 1_555
C64 N6 1_555 1_555
C70 C71 1_555 1_555
N5 S3 1_555 1_555

#END
