
#######################################################################
#
#                 Cambridge Crystallographic Data Centre
#                                CCDC 
#
#######################################################################
#
# If this CIF has been generated from an entry in the Cambridge 
# Structural Database, then it will include bibliographic, chemical, 
# crystal, experimental, refinement or atomic coordinate data resulting 
# from the CCDC's data processing and validation procedures.
#
#######################################################################

data_MUWXUY01
_chemical_name_common            
'Chloro-(1,2,3,4,8,9,10,11,15,16,17,18-dodecakis(2,2,2-trifluoroethoxy)subphthalocyaninato)boron toluene solvate'
_chemical_formula_moiety         'C48 H24 B1 Cl1 F36 N6 O12,2.5(C7 H8)'
_chemical_name_systematic        
'14d-chloro-1,2,3,4,6,7,8,9,11,12,13,14-dodecakis(2,2,2-trifluoroethoxy)-14dH-5,9\L^5^,10,14\L^5^,14e\l^5^,15-hexaaza-14d\l^5^-boradibenzo[2,3:5,6]-s-indaceno[1,8,7-bcde]fluoranthene toluene solvate'
_symmetry_cell_setting           monoclinic
_symmetry_space_group_name_H-M   'P 21/c'
_symmetry_Int_Tables_number      14
_space_group_name_Hall           '-P 2ybc'
loop_
_symmetry_equiv_pos_site_id
_symmetry_equiv_pos_as_xyz
1 x,y,z
2 -x,1/2+y,1/2-z
3 -x,-y,-z
4 x,1/2-y,1/2+z
_cell_length_a                   26.4323(5)
_cell_length_b                   8.44857(15)
_cell_length_c                   31.6738(7)
_cell_angle_alpha                90
_cell_angle_beta                 93.9520(10)
_cell_angle_gamma                90
_cell_volume                     7056.42
_exptl_crystal_colour            blue
_exptl_crystal_description       block
_cell_formula_units_Z            4
loop_
_atom_site_label
_atom_site_type_symbol
_atom_site_fract_x
_atom_site_fract_y
_atom_site_fract_z
N1 N 0.31645(11) 0.5878(3) 0.27730(9)
C1 C 0.36123(14) 0.5101(4) 0.28623(11)
N2 N 0.37094(11) 0.4234(3) 0.32190(9)
C2 C 0.33176(14) 0.3943(4) 0.34535(11)
N3 N 0.28522(11) 0.4605(3) 0.33623(9)
C3 C 0.24606(14) 0.3789(4) 0.35091(11)
N4 N 0.19756(11) 0.3998(3) 0.33572(9)
C4 C 0.19028(14) 0.4935(4) 0.30132(11)
N5 N 0.22865(11) 0.5790(3) 0.28527(9)
C5 C 0.22036(13) 0.6104(4) 0.24314(11)
N6 N 0.25872(11) 0.6387(3) 0.21798(9)
C6 C 0.30616(13) 0.6154(4) 0.23492(11)
B1 B 0.27799(15) 0.6021(5) 0.30873(13)
Cl1 Cl 0.28293(3) 0.78905(10) 0.34059(3)
C7 C 0.35246(14) 0.5773(4) 0.21517(11)
C8 C 0.36447(14) 0.5758(4) 0.17293(11)
C9 C 0.41115(14) 0.5095(4) 0.16346(11)
C10 C 0.44578(13) 0.4534(4) 0.19551(11)
C11 C 0.43442(14) 0.4552(4) 0.23753(11)
C12 C 0.38705(14) 0.5131(4) 0.24722(11)
O1 O 0.33031(9) 0.6261(3) 0.14130(8)
C13 C 0.34603(15) 0.7517(4) 0.11491(12)
H1 H 0.3335 0.7322 0.0852
H2 H 0.3835 0.7570 0.1162
C14 C 0.32499(16) 0.9048(5) 0.13006(14)
F1 F 0.27431(9) 0.9103(3) 0.12528(9)
F2 F 0.34188(10) 1.0268(3) 0.10806(9)
F3 F 0.33814(10) 0.9308(3) 0.17100(8)
O2 O 0.42500(10) 0.5055(3) 0.12231(8)
C15 C 0.40230(16) 0.3814(5) 0.09718(13)
H3 H 0.3714 0.4204 0.0810
H4 H 0.3926 0.2929 0.1155
C16 C 0.44033(18) 0.3266(5) 0.06774(13)
F4 F 0.42094(14) 0.2107(4) 0.04286(9)
F5 F 0.45452(10) 0.4422(3) 0.04227(7)
F6 F 0.48252(12) 0.2713(4) 0.08770(8)
O3 O 0.49119(9) 0.3913(3) 0.18500(8)
C17 C 0.52899(14) 0.5087(4) 0.17872(12)
H5 H 0.5289 0.5907 0.2010
H6 H 0.5224 0.5605 0.1508
C18 C 0.57925(15) 0.4234(4) 0.18077(12)
F7 F 0.58833(8) 0.3448(3) 0.21712(7)
F8 F 0.58197(9) 0.3178(3) 0.14971(7)
F9 F 0.61679(8) 0.5273(3) 0.17767(7)
O4 O 0.46964(9) 0.3959(3) 0.26687(8)
C19 C 0.48150(14) 0.4910(5) 0.30383(11)
H7 H 0.4656 0.4458 0.3285
H8 H 0.4688 0.6003 0.2992
C20 C 0.53786(14) 0.4908(4) 0.31130(12)
F10 F 0.55672(9) 0.3427(3) 0.31264(8)
F11 F 0.56109(9) 0.5681(3) 0.28142(7)
F12 F 0.55199(9) 0.5588(3) 0.34845(7)
C21 C 0.32293(14) 0.2724(4) 0.37681(11)
C22 C 0.35525(14) 0.1759(4) 0.40226(11)
C23 C 0.33410(14) 0.0694(4) 0.42940(11)
C24 C 0.28081(15) 0.0525(4) 0.43004(11)
C25 C 0.24861(14) 0.1426(4) 0.40368(12)
C26 C 0.26949(14) 0.2588(4) 0.37867(11)
O5 O 0.40695(9) 0.1877(3) 0.40010(8)
C27 C 0.43490(15) 0.2358(5) 0.43825(12)
H9 H 0.4527 0.1443 0.4520
H10 H 0.4119 0.2823 0.4583
C28 C 0.47284(15) 0.3585(5) 0.42514(12)
F13 F 0.45031(9) 0.4812(3) 0.40539(7)
F14 F 0.50019(9) 0.4131(3) 0.45922(7)
F15 F 0.50525(9) 0.2962(3) 0.39869(7)
O6 O 0.36613(10) -0.0148(3) 0.45712(8)
C29 C 0.36752(16) -0.1818(4) 0.44943(13)
H11 H 0.3803 -0.2037 0.4214
H12 H 0.3332 -0.2283 0.4504
C30 C 0.40290(16) -0.2493(5) 0.48408(13)
F16 F 0.44981(9) -0.1922(3) 0.48340(8)
F17 F 0.38736(10) -0.2198(3) 0.52258(7)
F18 F 0.40526(10) -0.4068(3) 0.47989(8)
O7 O 0.26407(10) -0.0616(3) 0.45650(8)
C31 C 0.22390(15) -0.0214(5) 0.48239(11)
H13 H 0.1933 -0.0845 0.4740
H14 H 0.2153 0.0922 0.4791
C32 C 0.24164(17) -0.0564(5) 0.52729(13)
F19 F 0.28247(11) 0.0262(3) 0.54070(8)
F20 F 0.20469(11) -0.0201(3) 0.55287(8)
F21 F 0.25361(11) -0.2087(3) 0.53351(8)
O8 O 0.19669(10) 0.1190(3) 0.40342(8)
C33 C 0.17435(15) 0.0558(5) 0.36472(12)
H15 H 0.2011 0.0292 0.3455
H16 H 0.1513 0.1347 0.3505
C34 C 0.14539(16) -0.0900(5) 0.37492(14)
F22 F 0.10903(11) -0.0623(4) 0.40094(11)
F23 F 0.12298(12) -0.1524(3) 0.33955(10)
F24 F 0.17473(10) -0.2023(3) 0.39307(9)
C35 C 0.14878(14) 0.4989(4) 0.26917(11)
C36 C 0.09918(14) 0.4385(4) 0.26814(11)
C37 C 0.06943(14) 0.4496(4) 0.23071(12)
C38 C 0.08782(14) 0.5165(4) 0.19418(12)
C39 C 0.13708(14) 0.5803(4) 0.19524(12)
C40 C 0.16723(13) 0.5716(4) 0.23261(11)
O9 O 0.08048(10) 0.3670(3) 0.30288(8)
C41 C 0.07285(16) 0.4732(5) 0.33704(12)
H17 H 0.0497 0.5599 0.3273
H18 H 0.1056 0.5200 0.3477
C42 C 0.05031(19) 0.3809(5) 0.37116(14)
F25 F 0.04130(11) 0.4745(3) 0.40359(8)
F26 F 0.00680(13) 0.3150(5) 0.35849(11)
F27 F 0.08060(16) 0.2675(4) 0.38598(10)
O10 O 0.02075(10) 0.3901(3) 0.22962(8)
C43 C -0.01915(15) 0.5010(5) 0.21912(14)
H19 H -0.0320 0.4882 0.1892
H20 H -0.0067 0.6109 0.2233
C44 C -0.05975(16) 0.4666(5) 0.24788(14)
F28 F -0.10044(9) 0.5578(3) 0.23877(10)
F29 F -0.07585(10) 0.3174(3) 0.24459(10)
F30 F -0.04495(12) 0.4916(5) 0.28815(9)
O11 O 0.05467(10) 0.5326(3) 0.15937(8)
C45 C 0.06702(17) 0.4604(5) 0.12102(13)
H21 H 0.1043 0.4534 0.1201
H22 H 0.0537 0.5251 0.0967
C46 C 0.04436(18) 0.2982(6) 0.11810(14)
F31 F -0.00547(12) 0.3008(4) 0.12135(12)
F32 F 0.05288(11) 0.2301(3) 0.08094(9)
F33 F 0.06389(16) 0.2047(3) 0.14849(10)
O12 O 0.15225(10) 0.6446(3) 0.15854(8)
C47 C 0.16653(18) 0.8083(5) 0.16077(14)
H23 H 0.2039 0.8187 0.1647
H24 H 0.1512 0.8607 0.1848
C48 C 0.14750(16) 0.8812(5) 0.12018(13)
F34 F 0.09751(11) 0.8750(4) 0.11440(11)
F35 F 0.16032(11) 1.0337(3) 0.11932(8)
F36 F 0.16594(14) 0.8137(3) 0.08679(8)
C49 C 0.24670(16) 0.2555(4) 0.18600(12)
C50 C 0.29645(16) 0.2367(4) 0.20175(13)
H25 H 0.3230 0.2668 0.1846
C51 C 0.30886(16) 0.1756(5) 0.24150(13)
H26 H 0.3434 0.1651 0.2516
C52 C 0.27063(16) 0.1298(5) 0.26650(13)
H27 H 0.2786 0.0874 0.2939
C53 C 0.22071(16) 0.1460(5) 0.25129(13)
H28 H 0.1943 0.1135 0.2683
C54 C 0.20868(16) 0.2089(5) 0.21166(13)
H29 H 0.1741 0.2206 0.2018
C55 C 0.2348(2) 0.3264(5) 0.14294(14)
H30 H 0.1992 0.3059 0.1338
H31 H 0.2567 0.2786 0.1227
H32 H 0.2407 0.4408 0.1442
C56 C 0.18134(14) 0.0665(5) -0.00395(12)
C57 C 0.22196(17) 0.1201(6) 0.02228(12)
H33 H 0.2154 0.1732 0.0478
C58 C 0.27213(15) 0.0987(7) 0.01252(15)
H34 H 0.2992 0.1362 0.0312
C59 C 0.28214(14) 0.0221(6) -0.02463(16)
H35 H 0.3161 0.0057 -0.0316
C60 C 0.24246(18) -0.0301(6) -0.05144(13)
H36 H 0.2493 -0.0806 -0.0772
C61 C 0.19253(16) -0.0102(6) -0.04146(12)
H37 H 0.1657 -0.0487 -0.0602
C62 C 0.12798(15) 0.0865(8) 0.0081(2)
H38 H 0.1045 0.0419 -0.0140
H39 H 0.1237 0.0315 0.0349
H40 H 0.1207 0.1994 0.0115
C63? C 0.2371(2) 0.0634(8) -0.0084(2)
C64? C 0.2096(3) -0.0037(10) -0.0428(2)
H41? H 0.2274 -0.0495 -0.0648
C65? C 0.1567(3) -0.0063(12) -0.0461(3)
H42? H 0.1389 -0.0536 -0.0700
C66? C 0.1304(2) 0.0607(12) -0.0143(3)
H43? H 0.0944 0.0588 -0.0160
C67? C 0.1568(3) 0.1300(12) 0.0198(3)
H44? H 0.1387 0.1780 0.0413
C68? C 0.2095(3) 0.1310(11) 0.0233(2)
H45? H 0.2270 0.1779 0.0473
C69? C 0.2938(2) 0.0594(14) -0.0051(3)
H46? H 0.3065 0.1121 0.0211
H47? H 0.3054 -0.0508 -0.0048
H48? H 0.3066 0.1143 -0.0295
C70? C -0.0235(3) 0.0542(11) 0.5020(3)
C71? C 0.0204(4) 0.1031(10) 0.4844(3)
H49? H 0.0207 0.2034 0.4709
C72? C 0.0635(3) 0.0113(11) 0.4858(3)
H50? H 0.0932 0.0486 0.4738
C73? C 0.0632(3) -0.1356(10) 0.5050(3)
H51? H 0.0927 -0.2002 0.5062
C74? C 0.0198(3) -0.1876(9) 0.5224(3)
H52? H 0.0193 -0.2890 0.5353
C75? C -0.0231(3) -0.0941(11) 0.5212(3)
H53? H -0.0526 -0.1312 0.5336
C76? C -0.0693(4) 0.1597(15) 0.5008(5)
H54? H -0.0966 0.1064 0.5146
H55? H -0.0606 0.2588 0.5157
H56? H -0.0805 0.1828 0.4713
loop_
_geom_bond_atom_site_label_1
_geom_bond_atom_site_label_2
_geom_bond_site_symmetry_1
_geom_bond_site_symmetry_2
N1 C1 1_555 1_555
C1 N2 1_555 1_555
N2 C2 1_555 1_555
C2 N3 1_555 1_555
N3 C3 1_555 1_555
C3 N4 1_555 1_555
N4 C4 1_555 1_555
C4 N5 1_555 1_555
N5 C5 1_555 1_555
C5 N6 1_555 1_555
N6 C6 1_555 1_555
C6 N1 1_555 1_555
B1 N1 1_555 1_555
Cl1 B1 1_555 1_555
C7 C6 1_555 1_555
C8 C7 1_555 1_555
C9 C8 1_555 1_555
C10 C9 1_555 1_555
C11 C10 1_555 1_555
C12 C1 1_555 1_555
O1 C8 1_555 1_555
C13 O1 1_555 1_555
H1 C13 1_555 1_555
H2 C13 1_555 1_555
C14 C13 1_555 1_555
F1 C14 1_555 1_555
F2 C14 1_555 1_555
F3 C14 1_555 1_555
O2 C9 1_555 1_555
C15 O2 1_555 1_555
H3 C15 1_555 1_555
H4 C15 1_555 1_555
C16 C15 1_555 1_555
F4 C16 1_555 1_555
F5 C16 1_555 1_555
F6 C16 1_555 1_555
O3 C10 1_555 1_555
C17 O3 1_555 1_555
H5 C17 1_555 1_555
H6 C17 1_555 1_555
C18 C17 1_555 1_555
F7 C18 1_555 1_555
F8 C18 1_555 1_555
F9 C18 1_555 1_555
O4 C11 1_555 1_555
C19 O4 1_555 1_555
H7 C19 1_555 1_555
H8 C19 1_555 1_555
C20 C19 1_555 1_555
F10 C20 1_555 1_555
F11 C20 1_555 1_555
F12 C20 1_555 1_555
C21 C2 1_555 1_555
C22 C21 1_555 1_555
C23 C22 1_555 1_555
C24 C23 1_555 1_555
C25 C24 1_555 1_555
C26 C3 1_555 1_555
O5 C22 1_555 1_555
C27 O5 1_555 1_555
H9 C27 1_555 1_555
H10 C27 1_555 1_555
C28 C27 1_555 1_555
F13 C28 1_555 1_555
F14 C28 1_555 1_555
F15 C28 1_555 1_555
O6 C23 1_555 1_555
C29 O6 1_555 1_555
H11 C29 1_555 1_555
H12 C29 1_555 1_555
C30 C29 1_555 1_555
F16 C30 1_555 1_555
F17 C30 1_555 1_555
F18 C30 1_555 1_555
O7 C24 1_555 1_555
C31 O7 1_555 1_555
H13 C31 1_555 1_555
H14 C31 1_555 1_555
C32 C31 1_555 1_555
F19 C32 1_555 1_555
F20 C32 1_555 1_555
F21 C32 1_555 1_555
O8 C25 1_555 1_555
C33 O8 1_555 1_555
H15 C33 1_555 1_555
H16 C33 1_555 1_555
C34 C33 1_555 1_555
F22 C34 1_555 1_555
F23 C34 1_555 1_555
F24 C34 1_555 1_555
C35 C4 1_555 1_555
C36 C35 1_555 1_555
C37 C36 1_555 1_555
C38 C37 1_555 1_555
C39 C38 1_555 1_555
C40 C5 1_555 1_555
O9 C36 1_555 1_555
C41 O9 1_555 1_555
H17 C41 1_555 1_555
H18 C41 1_555 1_555
C42 C41 1_555 1_555
F25 C42 1_555 1_555
F26 C42 1_555 1_555
F27 C42 1_555 1_555
O10 C37 1_555 1_555
C43 O10 1_555 1_555
H19 C43 1_555 1_555
H20 C43 1_555 1_555
C44 C43 1_555 1_555
F28 C44 1_555 1_555
F29 C44 1_555 1_555
F30 C44 1_555 1_555
O11 C38 1_555 1_555
C45 O11 1_555 1_555
H21 C45 1_555 1_555
H22 C45 1_555 1_555
C46 C45 1_555 1_555
F31 C46 1_555 1_555
F32 C46 1_555 1_555
F33 C46 1_555 1_555
O12 C39 1_555 1_555
C47 O12 1_555 1_555
H23 C47 1_555 1_555
H24 C47 1_555 1_555
C48 C47 1_555 1_555
F34 C48 1_555 1_555
F35 C48 1_555 1_555
F36 C48 1_555 1_555
C49 C50 1_555 1_555
C50 H25 1_555 1_555
C51 C50 1_555 1_555
H26 C51 1_555 1_555
C52 C51 1_555 1_555
H27 C52 1_555 1_555
C53 C52 1_555 1_555
H28 C53 1_555 1_555
C54 C49 1_555 1_555
H29 C54 1_555 1_555
C55 C49 1_555 1_555
H30 C55 1_555 1_555
H31 C55 1_555 1_555
H32 C55 1_555 1_555
C56 C57 1_555 1_555
C57 H33 1_555 1_555
C58 C57 1_555 1_555
H34 C58 1_555 1_555
C59 C58 1_555 1_555
H35 C59 1_555 1_555
C60 C59 1_555 1_555
H36 C60 1_555 1_555
C61 C56 1_555 1_555
H37 C61 1_555 1_555
C62 C56 1_555 1_555
H38 C62 1_555 1_555
H39 C62 1_555 1_555
H40 C62 1_555 1_555
N3 B1 1_555 1_555
N5 B1 1_555 1_555
C7 C12 1_555 1_555
C11 C12 1_555 1_555
C21 C26 1_555 1_555
C25 C26 1_555 1_555
C35 C40 1_555 1_555
C39 C40 1_555 1_555
C53 C54 1_555 1_555
C60 C61 1_555 1_555

#END
