
#######################################################################
#
#                 Cambridge Crystallographic Data Centre
#                                CCDC 
#
#######################################################################
#
# If this CIF has been generated from an entry in the Cambridge 
# Structural Database, then it will include bibliographic, chemical, 
# crystal, experimental, refinement or atomic coordinate data resulting 
# from the CCDC's data processing and validation procedures.
#
#######################################################################

data_MUWYOU
_chemical_formula_moiety         'C12 H9 N1 O4 S1'
_chemical_name_systematic        
5-(2,3-dihydro-1,4-benzodioxin-6-ylmethylene)-1,3-thiazolidine-2,4-dione
_symmetry_cell_setting           triclinic
_symmetry_space_group_name_H-M   'P -1'
_symmetry_Int_Tables_number      2
_space_group_name_Hall           '-P 1'
loop_
_symmetry_equiv_pos_site_id
_symmetry_equiv_pos_as_xyz
1 x,y,z
2 -x,-y,-z
_cell_length_a                   3.9201(5)
_cell_length_b                   11.8357(16)
_cell_length_c                   13.1053(17)
_cell_angle_alpha                67.415(4)
_cell_angle_beta                 83.375(4)
_cell_angle_gamma                82.156(4)
_cell_volume                     554.846
_exptl_crystal_colour            yellow
_exptl_crystal_description       block
_cell_formula_units_Z            2
loop_
_atom_site_label
_atom_site_type_symbol
_atom_site_fract_x
_atom_site_fract_y
_atom_site_fract_z
S1 S 0.62353(12) 1.16986(4) 0.50543(4)
C1 C 0.6756(4) 0.75468(14) 0.90994(13)
C2 C 0.6647(4) 0.92258(15) 0.73396(14)
H1 H 0.7314 0.9539 0.6587
C3 C 0.7719(5) 0.80304(15) 0.79747(14)
H2 H 0.9104 0.7540 0.7648
O1 O 0.3756(3) 0.78625(11) 1.07041(9)
O2 O 0.7879(3) 0.63501(10) 0.96866(10)
C4 C 0.5692(5) 0.67327(16) 1.13324(14)
H3 H 0.4525 0.6370 1.2060
H4 H 0.7960 0.6901 1.1430
C5 C 0.3659(4) 0.94836(14) 0.89496(13)
H5 H 0.2297 0.9975 0.9279
C6 C 0.4556(4) 0.99778(14) 0.78151(13)
C7 C 0.3232(4) 1.12378(15) 0.72106(14)
H6 H 0.1767 1.1595 0.7638
C8 C 0.6066(5) 0.58473(16) 1.07549(15)
H7 H 0.7320 0.5083 1.1201
H8 H 0.3799 0.5670 1.0666
C9 C 0.4736(4) 0.82893(14) 0.95940(13)
O3 O 0.0044(4) 1.37138(11) 0.62973(10)
N1 N 0.2998(4) 1.38603(13) 0.46531(12)
H9 H 0.2233 1.4615 0.4311
C10 C 0.2048(4) 1.32467(15) 0.57458(14)
C11 C 0.3728(4) 1.19825(15) 0.61503(14)
O4 O 0.6324(4) 1.36418(13) 0.31746(11)
C12 C 0.5219(5) 1.32290(16) 0.41200(15)
loop_
_geom_bond_atom_site_label_1
_geom_bond_atom_site_label_2
_geom_bond_site_symmetry_1
_geom_bond_site_symmetry_2
S1 C11 1_555 1_555
C1 C3 1_555 1_555
C2 H1 1_555 1_555
C3 C2 1_555 1_555
H2 C3 1_555 1_555
O1 C4 1_555 1_555
O2 C1 1_555 1_555
C4 H3 1_555 1_555
H4 C4 1_555 1_555
C5 H5 1_555 1_555
C6 C2 1_555 1_555
C7 C6 1_555 1_555
H6 C7 1_555 1_555
C8 O2 1_555 1_555
H7 C8 1_555 1_555
H8 C8 1_555 1_555
C9 C1 1_555 1_555
O3 C10 1_555 1_555
N1 H9 1_555 1_555
C10 N1 1_555 1_555
C11 C7 1_555 1_555
O4 C12 1_555 1_555
C12 S1 1_555 1_555
O1 C9 1_555 1_555
C4 C8 1_555 1_555
C5 C6 1_555 1_555
C5 C9 1_555 1_555
N1 C12 1_555 1_555
C10 C11 1_555 1_555

#END
