
#######################################################################
#
#                 Cambridge Crystallographic Data Centre
#                                CCDC 
#
#######################################################################
#
# If this CIF has been generated from an entry in the Cambridge 
# Structural Database, then it will include bibliographic, chemical, 
# crystal, experimental, refinement or atomic coordinate data resulting 
# from the CCDC's data processing and validation procedures.
#
#######################################################################

data_MUWZIP
_chemical_formula_moiety         'C19 H20 N2 O2'
_chemical_name_systematic        
1-(4,4-dimethyl-1-oxido-5-phenyl-3,4-dihydro-2H-pyrrol-2-yl)-N-hydroxy-1-phenylmethanimine
_symmetry_cell_setting           monoclinic
_symmetry_space_group_name_H-M   'P 21/c'
_symmetry_Int_Tables_number      14
_space_group_name_Hall           '-P 2ybc'
loop_
_symmetry_equiv_pos_site_id
_symmetry_equiv_pos_as_xyz
1 x,y,z
2 -x,1/2+y,1/2-z
3 -x,-y,-z
4 x,1/2-y,1/2+z
_cell_length_a                   12.1536(4)
_cell_length_b                   17.3010(6)
_cell_length_c                   7.9360(2)
_cell_angle_alpha                90
_cell_angle_beta                 102.907(3)
_cell_angle_gamma                90
_cell_volume                     1626.54
_exptl_crystal_colour            colorless
_exptl_crystal_description       block
_cell_formula_units_Z            4
loop_
_atom_site_label
_atom_site_type_symbol
_atom_site_fract_x
_atom_site_fract_y
_atom_site_fract_z
O1 O 0.74147(12) 0.56220(9) 0.54238(17)
O2 O 0.37197(12) 0.54733(9) 0.32443(19)
H1 H 0.3359 0.5150 0.3651
N1 N 0.75099(13) 0.55767(9) 0.38261(19)
N2 N 0.47556(14) 0.51598(10) 0.3120(2)
C1 C 0.83963(16) 0.57414(11) 0.3215(2)
C2 C 0.81841(17) 0.55487(12) 0.1302(3)
C3 C 0.68858(17) 0.54867(13) 0.0820(3)
H2 H 0.6553 0.5973 0.0352
H3 H 0.6649 0.5085 -0.0036
C4 C 0.65232(16) 0.52901(12) 0.2484(2)
H4 H 0.6469 0.4727 0.2583
C5 C 0.94205(17) 0.60924(12) 0.4282(3)
C6 C 0.93407(19) 0.66237(13) 0.5569(3)
H5 H 0.8645 0.6716 0.5833
C7 C 1.0283(2) 0.70137(14) 0.6455(3)
H6 H 1.0217 0.7371 0.7302
C8 C 1.1325(2) 0.68761(15) 0.6088(3)
H7 H 1.1957 0.7146 0.6674
C9 C 1.14244(19) 0.63385(15) 0.4851(3)
H8 H 1.2128 0.6235 0.4623
C10 C 1.04829(18) 0.59537(14) 0.3954(3)
H9 H 1.0557 0.5595 0.3113
C11 C 0.8700(2) 0.47601(14) 0.1013(3)
H10 H 0.8505 0.4634 -0.0195
H11 H 0.8409 0.4370 0.1656
H12 H 0.9506 0.4785 0.1396
C12 C 0.8588(2) 0.61739(14) 0.0224(3)
H13 H 0.8363 0.6042 -0.0979
H14 H 0.9396 0.6212 0.0552
H15 H 0.8259 0.6661 0.0420
C13 C 0.54255(17) 0.56529(12) 0.2662(2)
C14 C 0.51939(16) 0.64793(12) 0.2201(2)
C15 C 0.42184(19) 0.66943(14) 0.1008(3)
H16 H 0.3688 0.6321 0.0536
C16 C 0.4035(2) 0.74562(15) 0.0524(3)
H17 H 0.3381 0.7591 -0.0279
C17 C 0.4797(2) 0.80193(14) 0.1204(3)
H18 H 0.4658 0.8533 0.0880
C18 C 0.5774(2) 0.78157(13) 0.2379(3)
H19 H 0.6299 0.8194 0.2843
C19 C 0.59745(19) 0.70532(13) 0.2866(3)
H20 H 0.6639 0.6921 0.3647
loop_
_geom_bond_atom_site_label_1
_geom_bond_atom_site_label_2
_geom_bond_site_symmetry_1
_geom_bond_site_symmetry_2
O1 N1 1_555 1_555
O2 H1 1_555 1_555
N1 C1 1_555 1_555
N2 O2 1_555 1_555
C1 C2 1_555 1_555
C2 C3 1_555 1_555
C3 H2 1_555 1_555
H3 C3 1_555 1_555
C4 N1 1_555 1_555
H4 C4 1_555 1_555
C5 C1 1_555 1_555
C6 C5 1_555 1_555
H5 C6 1_555 1_555
C7 C6 1_555 1_555
H6 C7 1_555 1_555
C8 C7 1_555 1_555
H7 C8 1_555 1_555
C9 C8 1_555 1_555
H8 C9 1_555 1_555
C10 C5 1_555 1_555
H9 C10 1_555 1_555
C11 C2 1_555 1_555
H10 C11 1_555 1_555
H11 C11 1_555 1_555
H12 C11 1_555 1_555
C12 C2 1_555 1_555
H13 C12 1_555 1_555
H14 C12 1_555 1_555
H15 C12 1_555 1_555
C13 N2 1_555 1_555
C14 C13 1_555 1_555
C15 C14 1_555 1_555
H16 C15 1_555 1_555
C16 C15 1_555 1_555
H17 C16 1_555 1_555
C17 C16 1_555 1_555
H18 C17 1_555 1_555
C18 C17 1_555 1_555
H19 C18 1_555 1_555
C19 C14 1_555 1_555
H20 C19 1_555 1_555
C3 C4 1_555 1_555
C4 C13 1_555 1_555
C9 C10 1_555 1_555
C18 C19 1_555 1_555

#END
