
#######################################################################
#
#                 Cambridge Crystallographic Data Centre
#                                CCDC 
#
#######################################################################
#
# If this CIF has been generated from an entry in the Cambridge 
# Structural Database, then it will include bibliographic, chemical, 
# crystal, experimental, refinement or atomic coordinate data resulting 
# from the CCDC's data processing and validation procedures.
#
#######################################################################

data_MUWZEL
_chemical_formula_moiety         'C24 H28 N4 O4'
_chemical_name_systematic        
'(E)-1,2-bis((4,4-dimethyl-3-phenyl-4,5-dihydroisoxazol-5-yl)methyl)diazene 1,2-dioxide'
_symmetry_cell_setting           triclinic
_symmetry_space_group_name_H-M   'P -1'
_symmetry_Int_Tables_number      2
_space_group_name_Hall           '-P 1'
loop_
_symmetry_equiv_pos_site_id
_symmetry_equiv_pos_as_xyz
1 x,y,z
2 -x,-y,-z
_cell_length_a                   6.2135(13)
_cell_length_b                   9.640(2)
_cell_length_c                   9.692(2)
_cell_angle_alpha                85.789(2)
_cell_angle_beta                 73.020(3)
_cell_angle_gamma                86.307(2)
_cell_volume                     553.164
_exptl_crystal_colour            colorless
_exptl_crystal_description       block
_cell_formula_units_Z            1
loop_
_atom_site_label
_atom_site_type_symbol
_atom_site_fract_x
_atom_site_fract_y
_atom_site_fract_z
O1 O 0.3575(5) 0.7483(3) 0.2582(3)
O2 O 0.2318(9) 1.0295(6) 0.0921(7)
N1 N 0.2979(5) 0.7128(3) 0.4079(4)
N2 N 0.4276(9) 0.9997(5) 0.0698(6)
C1 C 0.3817(10) 0.6623(5) 0.9074(5)
H1 H 0.3621 0.6490 1.0063
C2 C 0.5878(9) 0.6323(5) 0.8110(5)
H2 H 0.7072 0.5975 0.8449
C3 C 0.6184(7) 0.6536(5) 0.6641(5)
H3 H 0.7590 0.6340 0.5998
C4 C 0.4404(6) 0.7042(4) 0.6112(4)
C5 C 0.2326(7) 0.7337(4) 0.7107(5)
H4 H 0.1119 0.7684 0.6781
C6 C 0.2043(9) 0.7121(5) 0.8570(5)
H5 H 0.0644 0.7314 0.9221
C7 C 0.4660(6) 0.7284(4) 0.4549(4)
C8 C 0.6775(7) 0.7730(4) 0.3381(4)
C9 C 0.5681(8) 0.8188(5) 0.2170(6)
H6 H 0.6637 0.7829 0.1262
C10 C 0.5254(10) 0.9701(6) 0.1933(6)
H7 H 0.6655 1.0172 0.1733
H8 H 0.4220 1.0060 0.2803
C11 C 0.8314(7) 0.6448(5) 0.2879(5)
H9 H 0.8826 0.6033 0.3665
H10 H 0.9588 0.6721 0.2093
H11 H 0.7494 0.5785 0.2565
C12 C 0.8039(7) 0.8843(5) 0.3825(5)
H12 H 0.7018 0.9615 0.4175
H13 H 0.9232 0.9156 0.3005
H14 H 0.8662 0.8458 0.4575
O1A O 0.6425(5) 1.2517(3) -0.2582(3)
O2A O 0.7682(9) 0.9705(6) -0.0921(7)
N1A N 0.7021(5) 1.2872(3) -0.4079(4)
N2A N 0.5724(9) 1.0003(5) -0.0698(6)
C1A C 0.6183(10) 1.3377(5) -0.9074(5)
H1A H 0.6379 1.3510 -1.0063
C2A C 0.4122(9) 1.3677(5) -0.8110(5)
H2A H 0.2928 1.4025 -0.8449
C3A C 0.3816(7) 1.3464(5) -0.6641(5)
H3A H 0.2410 1.3660 -0.5998
C4A C 0.5596(6) 1.2958(4) -0.6112(4)
C5A C 0.7674(7) 1.2663(4) -0.7107(5)
H4A H 0.8881 1.2316 -0.6781
C6A C 0.7957(9) 1.2879(5) -0.8570(5)
H5A H 0.9356 1.2686 -0.9221
C7A C 0.5340(6) 1.2716(4) -0.4549(4)
C8A C 0.3225(7) 1.2270(4) -0.3381(4)
C9A C 0.4319(8) 1.1812(5) -0.2170(6)
H6A H 0.3363 1.2171 -0.1262
C10A C 0.4746(10) 1.0299(6) -0.1933(6)
H7A H 0.3345 0.9828 -0.1733
H8A H 0.5780 0.9940 -0.2803
C11A C 0.1686(7) 1.3552(5) -0.2879(5)
H9A H 0.1174 1.3967 -0.3665
H10A H 0.0412 1.3279 -0.2093
H11A H 0.2506 1.4215 -0.2565
C12A C 0.1961(7) 1.1157(5) -0.3825(5)
H12A H 0.2982 1.0385 -0.4175
H13A H 0.0768 1.0844 -0.3005
H14A H 0.1338 1.1542 -0.4575
loop_
_geom_bond_atom_site_label_1
_geom_bond_atom_site_label_2
_geom_bond_site_symmetry_1
_geom_bond_site_symmetry_2
O1 N1 1_555 1_555
O2 N2 1_555 1_555
N1 C7 1_555 1_555
N2 C10 1_555 1_555
C1 H1 1_555 1_555
C2 C1 1_555 1_555
H2 C2 1_555 1_555
C3 C2 1_555 1_555
H3 C3 1_555 1_555
C4 C3 1_555 1_555
C5 C4 1_555 1_555
H4 C5 1_555 1_555
C6 C1 1_555 1_555
H5 C6 1_555 1_555
C7 C4 1_555 1_555
C8 C7 1_555 1_555
C9 O1 1_555 1_555
H6 C9 1_555 1_555
C10 C9 1_555 1_555
H7 C10 1_555 1_555
H8 C10 1_555 1_555
C11 C8 1_555 1_555
H9 C11 1_555 1_555
H10 C11 1_555 1_555
H11 C11 1_555 1_555
C12 C8 1_555 1_555
H12 C12 1_555 1_555
H13 C12 1_555 1_555
H14 C12 1_555 1_555
O1A N1A 1_555 1_555
O2A N2A 1_555 1_555
N1A C7A 1_555 1_555
N2A N2 1_555 1_555
C1A H1A 1_555 1_555
C2A C1A 1_555 1_555
H2A C2A 1_555 1_555
C3A C2A 1_555 1_555
H3A C3A 1_555 1_555
C4A C3A 1_555 1_555
C5A C4A 1_555 1_555
H4A C5A 1_555 1_555
C6A C1A 1_555 1_555
H5A C6A 1_555 1_555
C7A C4A 1_555 1_555
C8A C7A 1_555 1_555
C9A O1A 1_555 1_555
H6A C9A 1_555 1_555
C10A N2A 1_555 1_555
H7A C10A 1_555 1_555
H8A C10A 1_555 1_555
C11A C8A 1_555 1_555
H9A C11A 1_555 1_555
H10A C11A 1_555 1_555
H11A C11A 1_555 1_555
C12A C8A 1_555 1_555
H12A C12A 1_555 1_555
H13A C12A 1_555 1_555
H14A C12A 1_555 1_555
C5 C6 1_555 1_555
C8 C9 1_555 1_555
C5A C6A 1_555 1_555
C8A C9A 1_555 1_555
C9A C10A 1_555 1_555

#END
