
#######################################################################
#
#                 Cambridge Crystallographic Data Centre
#                                CCDC 
#
#######################################################################
#
# If this CIF has been generated from an entry in the Cambridge 
# Structural Database, then it will include bibliographic, chemical, 
# crystal, experimental, refinement or atomic coordinate data resulting 
# from the CCDC's data processing and validation procedures.
#
#######################################################################

data_MUXHET
_chemical_formula_moiety         'C51 H37 N1 O2 P2,C1 H1 Cl3'
_chemical_name_systematic        
"(R~a~,S~c~)-1-(Dinaphtho[2,1-d:1',2'-f][1,3,2]dioxaphosphepin-4-yl)-8-(diphenylphosphino)-2-(1-naphthyl)-1,2,3,4-tetrahydroquinoline chloroform solvate"
_symmetry_cell_setting           orthorhombic
_symmetry_space_group_name_H-M   'P 21 21 21'
_symmetry_Int_Tables_number      19
_space_group_name_Hall           'P 2ac 2ab'
loop_
_symmetry_equiv_pos_site_id
_symmetry_equiv_pos_as_xyz
1 x,y,z
2 1/2-x,-y,1/2+z
3 -x,1/2+y,1/2-z
4 1/2+x,1/2-y,-z
_cell_length_a                   8.0904(14)
_cell_length_b                   16.362(3)
_cell_length_c                   31.346(5)
_cell_angle_alpha                90
_cell_angle_beta                 90
_cell_angle_gamma                90
_cell_volume                     4149.43
_cell_formula_units_Z            4
_exptl_crystal_recrystallization_method 'chloroform/diethyl ether'
loop_
_atom_site_label
_atom_site_type_symbol
_atom_site_fract_x
_atom_site_fract_y
_atom_site_fract_z
P1 P 0.39031(7) 0.60493(3) 0.115953(16)
P2 P 0.39335(7) 0.65919(3) 0.213712(16)
O1 O 0.20608(16) 0.56141(8) 0.11723(4)
O2 O 0.43139(18) 0.58730(9) 0.06463(4)
N1 N 0.4894(2) 0.53265(10) 0.14368(5)
C1 C -0.0153(3) 0.65751(12) 0.10783(6)
H1 H -0.0089 0.6711 0.1372
C2 C -0.1277(3) 0.69451(13) 0.08197(7)
H2 H -0.2042 0.7322 0.0938
C3 C -0.1326(3) 0.67793(12) 0.03771(7)
C4 C -0.2380(3) 0.72246(14) 0.01000(7)
H3 H -0.3156 0.7598 0.0217
C5 C -0.2299(3) 0.71256(14) -0.03351(7)
H4 H -0.2989 0.7442 -0.0517
C6 C -0.1195(3) 0.65564(13) -0.05101(7)
H5 H -0.1120 0.6496 -0.0811
C7 C -0.0221(3) 0.60856(13) -0.02489(7)
H6 H 0.0480 0.5684 -0.0372
C8 C -0.0238(2) 0.61862(12) 0.02013(6)
C9 C 0.0874(2) 0.57609(12) 0.04799(6)
C10 C 0.0911(2) 0.59869(11) 0.09009(6)
C11 C 0.2063(2) 0.51360(12) 0.03230(6)
C12 C 0.1536(3) 0.44256(13) 0.00920(6)
C13 C -0.0156(3) 0.42396(13) 0.00282(7)
H7 H -0.0977 0.4594 0.0141
C14 C -0.0625(3) 0.35587(14) -0.01922(7)
H8 H -0.1766 0.3453 -0.0237
C15 C 0.0562(3) 0.30125(14) -0.03536(7)
H9 H 0.0224 0.2540 -0.0506
C16 C 0.2189(3) 0.31648(14) -0.02901(7)
H10 H 0.2985 0.2791 -0.0397
C17 C 0.2730(3) 0.38703(13) -0.00671(7)
C18 C 0.4415(3) 0.40276(15) 0.00004(7)
H11 H 0.5222 0.3672 -0.0118
C19 C 0.4903(3) 0.46902(15) 0.02356(7)
H12 H 0.6046 0.4786 0.0284
C20 C 0.3727(3) 0.52293(13) 0.04062(6)
C21 C 0.4159(3) 0.76979(12) 0.20839(6)
C22 C 0.5084(3) 0.80469(13) 0.17589(7)
H13 H 0.5748 0.7710 0.1581
C23 C 0.5044(3) 0.88894(14) 0.16913(7)
H14 H 0.5684 0.9122 0.1468
C24 C 0.4089(3) 0.93877(13) 0.19450(7)
H15 H 0.4066 0.9961 0.1897
C25 C 0.3168(3) 0.90502(14) 0.22686(7)
H16 H 0.2509 0.9391 0.2445
C26 C 0.3198(3) 0.82100(13) 0.23385(7)
H17 H 0.2555 0.7983 0.2563
C27 C 0.3872(3) 0.64636(12) 0.27204(6)
C28 C 0.4794(3) 0.69026(13) 0.30150(7)
H18 H 0.5481 0.7338 0.2921
C29 C 0.4719(3) 0.67103(14) 0.34469(7)
H19 H 0.5381 0.7002 0.3646
C30 C 0.3680(3) 0.60928(14) 0.35873(7)
H20 H 0.3638 0.5958 0.3882
C31 C 0.2712(3) 0.56761(13) 0.33009(7)
H21 H 0.1976 0.5265 0.3399
C32 C 0.2804(3) 0.58537(12) 0.28678(7)
H22 H 0.2138 0.5559 0.2671
C33 C 0.6001(3) 0.61912(12) 0.20146(6)
C34 C 0.7404(3) 0.64284(14) 0.22447(7)
H23 H 0.7315 0.6864 0.2444
C35 C 0.8908(3) 0.60487(14) 0.21907(7)
H24 H 0.9836 0.6218 0.2354
C36 C 0.9065(3) 0.54214(13) 0.18986(7)
H25 H 1.0089 0.5143 0.1870
C37 C 0.7740(3) 0.51984(12) 0.16481(6)
C38 C 0.7809(3) 0.45443(13) 0.13115(7)
H26 H 0.8857 0.4235 0.1334
H27 H 0.7749 0.4792 0.1024
C39 C 0.6333(3) 0.39750(13) 0.13840(7)
H28 H 0.6426 0.3720 0.1669
H29 H 0.6350 0.3533 0.1168
C40 C 0.4682(3) 0.44409(12) 0.13534(6)
H30 H 0.4272 0.4382 0.1054
C41 C 0.6205(2) 0.55835(12) 0.17089(6)
C42 C 0.3404(2) 0.40604(12) 0.16442(6)
C43 C 0.2253(2) 0.34698(12) 0.14814(6)
C44 C 0.2160(3) 0.32487(12) 0.10441(7)
H31 H 0.2886 0.3498 0.0845
C45 C 0.1039(3) 0.26825(13) 0.09065(7)
H32 H 0.0976 0.2553 0.0612
C46 C -0.0017(3) 0.22920(14) 0.11954(7)
H33 H -0.0773 0.1890 0.1096
C47 C 0.0034(3) 0.24849(14) 0.16166(7)
H34 H -0.0690 0.2215 0.1809
C48 C 0.1144(3) 0.30806(12) 0.17747(6)
C49 C 0.1199(3) 0.32870(12) 0.22090(6)
H35 H 0.0462 0.3030 0.2403
C50 C 0.2299(3) 0.38538(13) 0.23548(7)
H36 H 0.2327 0.3987 0.2650
C51 C 0.3390(3) 0.42405(12) 0.20708(7)
H37 H 0.4140 0.4638 0.2178
Cl1 Cl -0.65364(10) 0.56846(5) -0.07563(2)
Cl2 Cl -0.36903(12) 0.48179(6) -0.10749(3)
Cl3 Cl -0.48310(16) 0.62804(5) -0.14922(3)
C52 C -0.4618(4) 0.57804(19) -0.10113(11)
H38 H -0.3884 0.6118 -0.0825
loop_
_geom_bond_atom_site_label_1
_geom_bond_atom_site_label_2
_geom_bond_site_symmetry_1
_geom_bond_site_symmetry_2
P1 O1 1_555 1_555
P2 C21 1_555 1_555
O1 C10 1_555 1_555
O2 P1 1_555 1_555
N1 P1 1_555 1_555
C1 H1 1_555 1_555
C2 C1 1_555 1_555
H2 C2 1_555 1_555
C3 C2 1_555 1_555
C4 C3 1_555 1_555
H3 C4 1_555 1_555
C5 C4 1_555 1_555
H4 C5 1_555 1_555
C6 C5 1_555 1_555
H5 C6 1_555 1_555
C7 C6 1_555 1_555
H6 C7 1_555 1_555
C8 C3 1_555 1_555
C9 C8 1_555 1_555
C10 C1 1_555 1_555
C11 C9 1_555 1_555
C12 C11 1_555 1_555
C13 C12 1_555 1_555
H7 C13 1_555 1_555
C14 C13 1_555 1_555
H8 C14 1_555 1_555
C15 C14 1_555 1_555
H9 C15 1_555 1_555
C16 C15 1_555 1_555
H10 C16 1_555 1_555
C17 C12 1_555 1_555
C18 C17 1_555 1_555
H11 C18 1_555 1_555
C19 C18 1_555 1_555
H12 C19 1_555 1_555
C20 O2 1_555 1_555
C21 C22 1_555 1_555
C22 H13 1_555 1_555
C23 C22 1_555 1_555
H14 C23 1_555 1_555
C24 C23 1_555 1_555
H15 C24 1_555 1_555
C25 C24 1_555 1_555
H16 C25 1_555 1_555
C26 C21 1_555 1_555
H17 C26 1_555 1_555
C27 P2 1_555 1_555
C28 C27 1_555 1_555
H18 C28 1_555 1_555
C29 C28 1_555 1_555
H19 C29 1_555 1_555
C30 C29 1_555 1_555
H20 C30 1_555 1_555
C31 C30 1_555 1_555
H21 C31 1_555 1_555
C32 C27 1_555 1_555
H22 C32 1_555 1_555
C33 P2 1_555 1_555
C34 C33 1_555 1_555
H23 C34 1_555 1_555
C35 C34 1_555 1_555
H24 C35 1_555 1_555
C36 C35 1_555 1_555
H25 C36 1_555 1_555
C37 C36 1_555 1_555
C38 C37 1_555 1_555
H26 C38 1_555 1_555
H27 C38 1_555 1_555
C39 C38 1_555 1_555
H28 C39 1_555 1_555
H29 C39 1_555 1_555
C40 N1 1_555 1_555
H30 C40 1_555 1_555
C41 N1 1_555 1_555
C42 C40 1_555 1_555
C43 C42 1_555 1_555
C44 C43 1_555 1_555
H31 C44 1_555 1_555
C45 C44 1_555 1_555
H32 C45 1_555 1_555
C46 C45 1_555 1_555
H33 C46 1_555 1_555
C47 C46 1_555 1_555
H34 C47 1_555 1_555
C48 C43 1_555 1_555
C49 C48 1_555 1_555
H35 C49 1_555 1_555
C50 C49 1_555 1_555
H36 C50 1_555 1_555
C51 C42 1_555 1_555
H37 C51 1_555 1_555
Cl1 C52 1_555 1_555
Cl2 C52 1_555 1_555
Cl3 C52 1_555 1_555
C52 H38 1_555 1_555
C7 C8 1_555 1_555
C9 C10 1_555 1_555
C11 C20 1_555 1_555
C16 C17 1_555 1_555
C19 C20 1_555 1_555
C25 C26 1_555 1_555
C31 C32 1_555 1_555
C33 C41 1_555 1_555
C37 C41 1_555 1_555
C39 C40 1_555 1_555
C47 C48 1_555 1_555
C50 C51 1_555 1_555

#END
