
#######################################################################
#
#                 Cambridge Crystallographic Data Centre
#                                CCDC 
#
#######################################################################
#
# If this CIF has been generated from an entry in the Cambridge 
# Structural Database, then it will include bibliographic, chemical, 
# crystal, experimental, refinement or atomic coordinate data resulting 
# from the CCDC's data processing and validation procedures.
#
#######################################################################

data_MUXJEV
_chemical_name_common            
'Methyl 9,14-Diphenyl-12-nitronaphtho[2,3-e]pyrene-11-carboxylate'
_chemical_formula_moiety         'C38 H23 N1 O4'
_chemical_name_systematic        
'Methyl 12-nitro-9,14-diphenyldibenzo[de,qr]tetracene-11-carboxylate'
_symmetry_cell_setting           triclinic
_symmetry_space_group_name_H-M   'P -1'
_symmetry_Int_Tables_number      2
_space_group_name_Hall           '-P 1'
loop_
_symmetry_equiv_pos_site_id
_symmetry_equiv_pos_as_xyz
1 x,y,z
2 -x,-y,-z
_cell_length_a                   9.0847(2)
_cell_length_b                   11.5552(2)
_cell_length_c                   13.9742(3)
_cell_angle_alpha                78.850(1)
_cell_angle_beta                 73.090(1)
_cell_angle_gamma                84.950(1)
_cell_volume                     1376.24
_exptl_crystal_colour            yellow
_exptl_crystal_description       block
_cell_formula_units_Z            2
loop_
_atom_site_label
_atom_site_type_symbol
_atom_site_fract_x
_atom_site_fract_y
_atom_site_fract_z
O1 O 0.2095(2) 0.46611(19) 0.85573(17)
O2 O 0.24873(17) 0.33110(14) 0.97998(13)
O3 O 0.4291(2) 0.75046(15) 0.83028(17)
O4 O 0.2956(2) 0.63024(17) 0.95555(15)
N1 N 0.4053(2) 0.65320(16) 0.88004(16)
C1 C 0.0867(3) 0.3040(3) 1.0091(2)
H1 H 0.0245 0.3719 1.0307
H2 H 0.0666 0.2372 1.0645
H3 H 0.0610 0.2847 0.9514
C2 C 0.2925(2) 0.41519(19) 0.90260(17)
C3 C 0.4600(2) 0.43858(17) 0.87413(15)
C4 C 0.5133(2) 0.55479(16) 0.85137(15)
C5 C 0.6625(2) 0.57932(16) 0.80543(15)
H4 H 0.6937 0.6576 0.7924
C6 C 0.7729(2) 0.48859(15) 0.77652(14)
C7 C 0.7254(2) 0.37019(16) 0.80859(14)
C8 C 0.5668(2) 0.34904(17) 0.85468(15)
H5 H 0.5342 0.2708 0.8724
C9 C 0.8368(2) 0.27655(16) 0.79037(14)
C10 C 0.9878(2) 0.30221(16) 0.73443(15)
C11 C 1.0247(2) 0.42037(16) 0.68100(14)
C12 C 0.9225(2) 0.51344(16) 0.71145(14)
C13 C 0.9642(2) 0.64007(16) 0.67885(14)
C14 C 0.8934(3) 0.71863(19) 0.61582(17)
H6 H 0.8161 0.6929 0.5931
C15 C 0.9369(3) 0.8347(2) 0.5866(2)
H7 H 0.8909 0.8873 0.5425
C16 C 1.0470(3) 0.8742(2) 0.6215(2)
H8 H 1.0758 0.9533 0.6014
C17 C 1.1138(3) 0.7983(2) 0.68505(19)
H9 H 1.1875 0.8256 0.7100
C18 C 1.0742(2) 0.68137(17) 0.71332(15)
H10 H 1.1225 0.6294 0.7564
C19 C 0.7810(2) 0.15360(16) 0.82629(16)
C20 C 0.7700(2) 0.08694(18) 0.75705(18)
H11 H 0.7999 0.1184 0.6872
C21 C 0.7151(3) -0.0264(2) 0.7900(2)
H12 H 0.7051 -0.0706 0.7425
C22 C 0.6755(3) -0.0744(2) 0.8911(2)
H13 H 0.6414 -0.1521 0.9129
C23 C 0.6856(3) -0.0088(2) 0.9607(2)
H14 H 0.6586 -0.0417 1.0303
C24 C 0.7352(3) 0.10540(18) 0.92911(18)
H15 H 0.7381 0.1509 0.9774
C25 C 1.1634(2) 0.43612(18) 0.59318(15)
C26 C 1.1875(2) 0.5367(2) 0.51856(16)
H16 H 1.1144 0.5996 0.5252
C27 C 1.3158(3) 0.5474(2) 0.43441(17)
H17 H 1.3287 0.6174 0.3860
C28 C 1.4229(3) 0.4574(3) 0.42155(19)
H18 H 1.5107 0.4662 0.3653
C29 C 1.4028(2) 0.3522(2) 0.4915(2)
C30 C 1.2717(2) 0.33994(19) 0.57677(17)
C31 C 1.2509(2) 0.23082(18) 0.64652(17)
C32 C 1.1150(2) 0.21099(17) 0.72752(16)
C33 C 1.1092(3) 0.11001(18) 0.80035(19)
H19 H 1.0230 0.0988 0.8576
C34 C 1.2283(3) 0.0248(2) 0.7905(2)
H20 H 1.2222 -0.0424 0.8414
C35 C 1.3530(3) 0.0377(2) 0.7081(3)
H21 H 1.4295 -0.0228 0.7002
C36 C 1.3687(2) 0.1401(2) 0.6348(2)
C37 C 1.4988(3) 0.1574(3) 0.5475(3)
H22 H 1.5756 0.0972 0.5378
C38 C 1.5140(3) 0.2568(3) 0.4792(3)
H23 H 1.5999 0.2644 0.4216
loop_
_geom_bond_atom_site_label_1
_geom_bond_atom_site_label_2
_geom_bond_site_symmetry_1
_geom_bond_site_symmetry_2
O1 C2 1_555 1_555
O2 C1 1_555 1_555
O3 N1 1_555 1_555
O4 N1 1_555 1_555
N1 C4 1_555 1_555
C1 H1 1_555 1_555
H2 C1 1_555 1_555
H3 C1 1_555 1_555
C2 O2 1_555 1_555
C3 C2 1_555 1_555
C4 C3 1_555 1_555
C5 C4 1_555 1_555
H4 C5 1_555 1_555
C6 C5 1_555 1_555
C7 C6 1_555 1_555
C8 C3 1_555 1_555
H5 C8 1_555 1_555
C9 C7 1_555 1_555
C10 C9 1_555 1_555
C11 C10 1_555 1_555
C12 C6 1_555 1_555
C13 C12 1_555 1_555
C14 C13 1_555 1_555
H6 C14 1_555 1_555
C15 C14 1_555 1_555
H7 C15 1_555 1_555
C16 C15 1_555 1_555
H8 C16 1_555 1_555
C17 C16 1_555 1_555
H9 C17 1_555 1_555
C18 C13 1_555 1_555
H10 C18 1_555 1_555
C19 C9 1_555 1_555
C20 C19 1_555 1_555
H11 C20 1_555 1_555
C21 C20 1_555 1_555
H12 C21 1_555 1_555
C22 C21 1_555 1_555
H13 C22 1_555 1_555
C23 C22 1_555 1_555
H14 C23 1_555 1_555
C24 C19 1_555 1_555
H15 C24 1_555 1_555
C25 C11 1_555 1_555
C26 C25 1_555 1_555
H16 C26 1_555 1_555
C27 C26 1_555 1_555
H17 C27 1_555 1_555
C28 C27 1_555 1_555
H18 C28 1_555 1_555
C29 C28 1_555 1_555
C30 C25 1_555 1_555
C31 C30 1_555 1_555
C32 C10 1_555 1_555
C33 C32 1_555 1_555
H19 C33 1_555 1_555
C34 C33 1_555 1_555
H20 C34 1_555 1_555
C35 C34 1_555 1_555
H21 C35 1_555 1_555
C36 C31 1_555 1_555
C37 C36 1_555 1_555
H22 C37 1_555 1_555
C38 C29 1_555 1_555
H23 C38 1_555 1_555
C7 C8 1_555 1_555
C11 C12 1_555 1_555
C17 C18 1_555 1_555
C23 C24 1_555 1_555
C29 C30 1_555 1_555
C31 C32 1_555 1_555
C35 C36 1_555 1_555
C37 C38 1_555 1_555

#END
