
#######################################################################
#
#                 Cambridge Crystallographic Data Centre
#                                CCDC 
#
#######################################################################
#
# If this CIF has been generated from an entry in the Cambridge 
# Structural Database, then it will include bibliographic, chemical, 
# crystal, experimental, refinement or atomic coordinate data resulting 
# from the CCDC's data processing and validation procedures.
#
#######################################################################

data_MUXLOI
_chemical_formula_moiety         'C14 H24 N3 S3 1+,Cl1 1-,C1 H2 Cl2'
_chemical_name_systematic        
'10-(((dimethylcarbamothioyl)sulfanyl)(methylsulfanyl)methylene)-2,3,4,6,7,8,9,10-octahydropyrimido[1,2-a]azepin-1-ium chloride dichloromethane solvate'
_symmetry_cell_setting           monoclinic
_symmetry_space_group_name_H-M   'P 21/c'
_symmetry_Int_Tables_number      14
_space_group_name_Hall           '-P 2ybc'
loop_
_symmetry_equiv_pos_site_id
_symmetry_equiv_pos_as_xyz
1 x,y,z
2 -x,1/2+y,1/2-z
3 -x,-y,-z
4 x,1/2-y,1/2+z
_cell_length_a                   12.2058(8)
_cell_length_b                   9.4889(6)
_cell_length_c                   19.5406(13)
_cell_angle_alpha                90
_cell_angle_beta                 107.4520(10)
_cell_angle_gamma                90
_cell_volume                     2159.01
_exptl_crystal_colour            yellow
_exptl_crystal_description       plate
_cell_formula_units_Z            4
loop_
_atom_site_label
_atom_site_type_symbol
_atom_site_fract_x
_atom_site_fract_y
_atom_site_fract_z
S1 S 0.19057(6) 0.57185(8) -0.06053(4)
S2 S 0.16372(6) 0.80189(7) 0.04076(4)
S3 S 0.34416(7) 0.88752(8) -0.02925(4)
N1 N -0.00766(19) 0.6697(3) -0.04960(13)
N2 N 0.37379(18) 0.5469(2) 0.16726(11)
N3 N 0.3333(2) 0.7649(2) 0.20721(12)
H1 H 0.324(3) 0.861(3) 0.1973(16)
C1 C -0.0693(3) 0.5704(4) -0.10503(17)
H2 H -0.0214 0.4870 -0.1039
H3 H -0.0868 0.6156 -0.1522
H4 H -0.1410 0.5421 -0.0961
C2 C -0.0811(3) 0.7661(4) -0.02391(18)
H5 H -0.1097 0.7176 0.0116
H6 H -0.1461 0.7960 -0.0644
H7 H -0.0363 0.8488 -0.0018
C3 C 0.1069(2) 0.6748(3) -0.02859(14)
C4 C 0.3101(2) 0.8052(3) 0.04326(13)
C5 C 0.2945(4) 1.0620(3) -0.0208(2)
H8 H 0.2150 1.0580 -0.0193
H9 H 0.2981 1.1187 -0.0619
H10 H 0.3432 1.1048 0.0236
C6 C 0.3908(2) 0.7552(3) 0.09998(13)
C7 C 0.5185(2) 0.7584(3) 0.11037(14)
H11 H 0.5600 0.7686 0.1621
H12 H 0.5371 0.8412 0.0851
C8 C 0.5592(2) 0.6239(3) 0.08176(15)
H13 H 0.5179 0.6148 0.0300
H14 H 0.6421 0.6328 0.0870
C9 C 0.5400(2) 0.4907(3) 0.12007(14)
H15 H 0.5856 0.4976 0.1712
H16 H 0.5694 0.4092 0.0993
C10 C 0.4144(2) 0.4623(3) 0.11560(14)
H17 H 0.3653 0.4834 0.0663
H18 H 0.4055 0.3610 0.1248
C11 C 0.3616(2) 0.6846(3) 0.16042(13)
C12 C 0.3231(4) 0.7084(5) 0.2757(2)
H19 H 0.2666 0.7643 0.2916
H20 H 0.3981 0.7136 0.3134
C13 C 0.2838(4) 0.5562(4) 0.2633(2)
H21 H 0.2833 0.5128 0.3092
H22 H 0.2048 0.5525 0.2299
C14 C 0.3640(2) 0.4757(3) 0.23200(14)
H23 H 0.4407 0.4691 0.2679
H24 H 0.3345 0.3788 0.2197
Cl1 Cl 0.09944(14) 0.23619(13) 0.29626(7)
Cl2 Cl -0.02626(10) 0.08100(14) 0.16986(6)
C17 C 0.0939(3) 0.0806(4) 0.2468(2)
H29 H 0.0898 -0.0016 0.2771
H30 H 0.1648 0.0719 0.2324
Cl3 Cl 0.33471(6) 0.09445(7) 0.18071(4)
C15? C 0.2724(13) 0.6987(18) 0.2564(8)
H25? H 0.2631 0.7666 0.2928
H26? H 0.1963 0.6606 0.2292
C16? C 0.3554(11) 0.5834(13) 0.2899(6)
H27? H 0.3293 0.5348 0.3271
H28? H 0.4321 0.6244 0.3133
loop_
_geom_bond_atom_site_label_1
_geom_bond_atom_site_label_2
_geom_bond_site_symmetry_1
_geom_bond_site_symmetry_2
S1 C3 1_555 1_555
S2 C3 1_555 1_555
S3 C4 1_555 1_555
N1 C1 1_555 1_555
N2 C10 1_555 1_555
N3 H1 1_555 1_555
C1 H2 1_555 1_555
H3 C1 1_555 1_555
H4 C1 1_555 1_555
C2 N1 1_555 1_555
H5 C2 1_555 1_555
H6 C2 1_555 1_555
H7 C2 1_555 1_555
C3 N1 1_555 1_555
C4 S2 1_555 1_555
C5 S3 1_555 1_555
H8 C5 1_555 1_555
H9 C5 1_555 1_555
H10 C5 1_555 1_555
C6 C4 1_555 1_555
C7 C6 1_555 1_555
H11 C7 1_555 1_555
H12 C7 1_555 1_555
C8 C7 1_555 1_555
H13 C8 1_555 1_555
H14 C8 1_555 1_555
C9 C8 1_555 1_555
H15 C9 1_555 1_555
H16 C9 1_555 1_555
C10 C9 1_555 1_555
H17 C10 1_555 1_555
H18 C10 1_555 1_555
C11 N2 1_555 1_555
C12 N3 1_555 1_555
H19 C12 1_555 1_555
H20 C12 1_555 1_555
C13 C12 1_555 1_555
H21 C13 1_555 1_555
H22 C13 1_555 1_555
C14 N2 1_555 1_555
H23 C14 1_555 1_555
H24 C14 1_555 1_555
Cl1 C17 1_555 1_555
Cl2 C17 1_555 1_555
C17 H29 1_555 1_555
H30 C17 1_555 1_555
N3 C11 1_555 1_555
C6 C11 1_555 1_555
C13 C14 1_555 1_555

#END
