
#######################################################################
#
#                 Cambridge Crystallographic Data Centre
#                                CCDC 
#
#######################################################################
#
# If this CIF has been generated from an entry in the Cambridge 
# Structural Database, then it will include bibliographic, chemical, 
# crystal, experimental, refinement or atomic coordinate data resulting 
# from the CCDC's data processing and validation procedures.
#
#######################################################################

data_MUXLUO
_chemical_formula_moiety         'C25 H20 N2 O2 S1'
_chemical_name_systematic        
(R,R)-N-(9-Methyl-2-oxo-4-phenyl-2,3,4,9-tetrahydrothiopyrano[2,3-b]indol-3-yl)benzamide
_symmetry_cell_setting           monoclinic
_symmetry_space_group_name_H-M   'C c'
_symmetry_Int_Tables_number      9
_space_group_name_Hall           'C -2yc'
loop_
_symmetry_equiv_pos_site_id
_symmetry_equiv_pos_as_xyz
1 x,y,z
2 x,-y,1/2+z
3 1/2+x,1/2+y,z
4 1/2+x,1/2-y,1/2+z
_cell_length_a                   19.897(4)
_cell_length_b                   12.667(3)
_cell_length_c                   8.4207(17)
_cell_angle_alpha                90
_cell_angle_beta                 108.18(3)
_cell_angle_gamma                90
_cell_volume                     2016.37
_exptl_crystal_colour            colorless
_exptl_crystal_description       prism
_chemical_melting_point          '198-200 deg.C'
_cell_formula_units_Z            4
loop_
_atom_site_label
_atom_site_type_symbol
_atom_site_fract_x
_atom_site_fract_y
_atom_site_fract_z
S1 S -0.06205(3) 0.71952(4) 0.86839(5)
O1 O 0.07033(7) 0.75613(10) 0.90827(17)
O2 O 0.07731(7) 0.45952(10) 0.5706(2)
N1 N -0.19081(7) 0.66704(12) 0.65151(18)
N2 N 0.09553(7) 0.62104(12) 0.6877(2)
C1 C -0.22579(10) 0.67896(17) 0.7780(2)
H1 H -0.2769 0.6697 0.7267
H2 H -0.2163 0.7496 0.8274
H3 H -0.2078 0.6257 0.8653
C2 C -0.22282(9) 0.64085(13) 0.4857(2)
C3 C -0.29488(9) 0.62649(13) 0.3981(2)
H4 H -0.3300 0.6333 0.4523
C4 C -0.31270(9) 0.60207(13) 0.2303(2)
H5 H -0.3610 0.5924 0.1675
C5 C -0.26081(9) 0.59126(13) 0.1508(2)
H6 H -0.2747 0.5747 0.0350
C6 C -0.18965(9) 0.60425(13) 0.2373(2)
H7 H -0.1550 0.5955 0.1823
C7 C -0.16959(9) 0.63054(13) 0.4077(2)
C8 C -0.10333(9) 0.65194(13) 0.5335(2)
C9 C -0.11885(9) 0.67371(14) 0.6763(2)
C10 C -0.03024(9) 0.65267(14) 0.5175(2)
H8 H -0.0278 0.5937 0.4406
C11 C -0.00975(9) 0.75404(14) 0.4452(2)
C12 C -0.02976(9) 0.85313(14) 0.4881(2)
H9 H -0.0590 0.8576 0.5580
C13 C -0.00751(10) 0.94520(15) 0.4301(2)
H10 H -0.0218 1.0119 0.4598
C14 C 0.03541(10) 0.93965(17) 0.3289(2)
H11 H 0.0514 1.0025 0.2906
C15 C 0.05512(10) 0.84164(17) 0.2833(2)
H12 H 0.0842 0.8375 0.2129
C16 C 0.03227(9) 0.74938(15) 0.3410(2)
H13 H 0.0456 0.6827 0.3088
C17 C 0.02351(9) 0.62652(14) 0.6932(2)
H14 H 0.0110 0.5555 0.7276
C18 C 0.02052(9) 0.70500(14) 0.8263(2)
C19 C 0.11760(9) 0.53440(14) 0.6228(2)
C20 C 0.19188(9) 0.53479(15) 0.6157(2)
C21 C 0.23413(10) 0.62424(15) 0.6410(3)
H15 H 0.2163 0.6896 0.6662
C22 C 0.30185(10) 0.61917(15) 0.6298(3)
H16 H 0.3305 0.6807 0.6479
C23 C 0.32796(10) 0.52376(15) 0.5920(3)
H17 H 0.3747 0.5201 0.5853
C24 C 0.28622(10) 0.43422(16) 0.5643(3)
H18 H 0.3038 0.3695 0.5363
C25 C 0.21822(10) 0.43925(14) 0.5777(2)
H19 H 0.1897 0.3775 0.5608
H20 H 0.1263(8) 0.6721(11) 0.739(2)
loop_
_geom_bond_atom_site_label_1
_geom_bond_atom_site_label_2
_geom_bond_site_symmetry_1
_geom_bond_site_symmetry_2
S1 C9 1_555 1_555
O1 C18 1_555 1_555
O2 C19 1_555 1_555
N1 C1 1_555 1_555
N2 C17 1_555 1_555
C1 H1 1_555 1_555
H2 C1 1_555 1_555
H3 C1 1_555 1_555
C2 N1 1_555 1_555
C3 C2 1_555 1_555
H4 C3 1_555 1_555
C4 C3 1_555 1_555
H5 C4 1_555 1_555
C5 C4 1_555 1_555
H6 C5 1_555 1_555
C6 C5 1_555 1_555
H7 C6 1_555 1_555
C7 C2 1_555 1_555
C8 C7 1_555 1_555
C9 N1 1_555 1_555
C10 C8 1_555 1_555
H8 C10 1_555 1_555
C11 C10 1_555 1_555
C12 C11 1_555 1_555
H9 C12 1_555 1_555
C13 C12 1_555 1_555
H10 C13 1_555 1_555
C14 C13 1_555 1_555
H11 C14 1_555 1_555
C15 C14 1_555 1_555
H12 C15 1_555 1_555
C16 C11 1_555 1_555
H13 C16 1_555 1_555
C17 C10 1_555 1_555
H14 C17 1_555 1_555
C18 S1 1_555 1_555
C19 N2 1_555 1_555
C20 C19 1_555 1_555
C21 C20 1_555 1_555
H15 C21 1_555 1_555
C22 C21 1_555 1_555
H16 C22 1_555 1_555
C23 C22 1_555 1_555
H17 C23 1_555 1_555
C24 C23 1_555 1_555
H18 C24 1_555 1_555
C25 C20 1_555 1_555
H19 C25 1_555 1_555
H20 N2 1_555 1_555
C6 C7 1_555 1_555
C8 C9 1_555 1_555
C15 C16 1_555 1_555
C17 C18 1_555 1_555
C24 C25 1_555 1_555

#END
