
#######################################################################
#
#                 Cambridge Crystallographic Data Centre
#                                CCDC 
#
#######################################################################
#
# If this CIF has been generated from an entry in the Cambridge 
# Structural Database, then it will include bibliographic, chemical, 
# crystal, experimental, refinement or atomic coordinate data resulting 
# from the CCDC's data processing and validation procedures.
#
#######################################################################

data_MUXLIC
_chemical_formula_moiety         'C12 H17 N2 S3 1+,I1 1-,C1 H1 Cl3'
_chemical_name_systematic        
'1-(methylsulfanyl)-3-thioxo-5,6,7,8,9,10-hexahydro-4H-2-thia-3a-aza-6a-azoniacyclohepta[1,2,3-de]naphthalene iodide chloroform solvate'
_symmetry_cell_setting           monoclinic
_symmetry_space_group_name_H-M   'P 21/n'
_symmetry_Int_Tables_number      14
_space_group_name_Hall           '-P 2yn'
loop_
_symmetry_equiv_pos_site_id
_symmetry_equiv_pos_as_xyz
1 x,y,z
2 1/2-x,1/2+y,1/2-z
3 -x,-y,-z
4 1/2+x,1/2-y,1/2+z
_cell_length_a                   8.7781(8)
_cell_length_b                   23.821(2)
_cell_length_c                   9.3214(9)
_cell_angle_alpha                90
_cell_angle_beta                 92.406(2)
_cell_angle_gamma                90
_cell_volume                     1947.42
_exptl_crystal_colour            yellow
_exptl_crystal_description       block
_cell_formula_units_Z            4
loop_
_atom_site_label
_atom_site_type_symbol
_atom_site_fract_x
_atom_site_fract_y
_atom_site_fract_z
S1 S 0.90028(12) 0.13341(4) 0.51056(9)
S2 S 0.91528(9) 0.05619(3) 0.27938(8)
S3 S 0.80465(9) -0.01950(3) 0.04478(8)
N1 N 0.7374(3) 0.19187(11) 0.0192(3)
N2 N 0.7737(3) 0.15662(10) 0.2508(3)
C1 C 0.7555(3) 0.14801(13) 0.1036(3)
C2 C 0.7457(3) 0.09167(12) 0.0449(3)
C3 C 0.6420(4) 0.07787(13) -0.0855(3)
H1 H 0.5877 0.0425 -0.0658
H2 H 0.7069 0.0709 -0.1680
C4 C 0.5239(4) 0.12215(14) -0.1298(4)
H3 H 0.4438 0.1047 -0.1931
H4 H 0.4750 0.1363 -0.0432
C5 C 0.5942(4) 0.17116(15) -0.2082(4)
H5 H 0.6080 0.1608 -0.3097
H6 H 0.5250 0.2039 -0.2065
C6 C 0.7477(4) 0.18662(14) -0.1371(3)
H7 H 0.8235 0.1574 -0.1587
H8 H 0.7830 0.2226 -0.1769
C7 C 0.7140(5) 0.24907(14) 0.0737(4)
H9 H 0.6525 0.2712 0.0026
H10 H 0.8135 0.2680 0.0906
C8 C 0.6321(5) 0.24496(16) 0.2122(4)
H11 H 0.5314 0.2270 0.1945
H12 H 0.6156 0.2830 0.2515
C9 C 0.7273(4) 0.21052(14) 0.3183(4)
H13 H 0.8193 0.2320 0.3498
H14 H 0.6678 0.2025 0.4038
C10 C 0.8166(3) 0.04840(12) 0.1156(3)
C11 C 0.8517(3) 0.12020(13) 0.3408(3)
C12 C 0.9058(4) -0.06189(14) 0.1780(4)
H15 H 0.9029 -0.1013 0.1479
H16 H 0.8573 -0.0581 0.2703
H17 H 1.0120 -0.0493 0.1881
Cl1 Cl 0.48624(11) 0.05658(5) 0.25462(10)
Cl2 Cl 0.26217(11) 0.00615(4) 0.42969(11)
Cl3 Cl 0.38287(17) 0.11590(6) 0.49997(13)
C13 C 0.3298(4) 0.06977(15) 0.3605(3)
H18 H 0.2468 0.0875 0.2992
I1 I 0.16041(2) 0.18137(2) 0.11055(2)
loop_
_geom_bond_atom_site_label_1
_geom_bond_atom_site_label_2
_geom_bond_site_symmetry_1
_geom_bond_site_symmetry_2
S1 C11 1_555 1_555
S2 C10 1_555 1_555
S3 C10 1_555 1_555
N1 C1 1_555 1_555
N2 C1 1_555 1_555
C1 C2 1_555 1_555
C2 C3 1_555 1_555
C3 H1 1_555 1_555
H2 C3 1_555 1_555
C4 C3 1_555 1_555
H3 C4 1_555 1_555
H4 C4 1_555 1_555
C5 C4 1_555 1_555
H5 C5 1_555 1_555
H6 C5 1_555 1_555
C6 N1 1_555 1_555
H7 C6 1_555 1_555
H8 C6 1_555 1_555
C7 N1 1_555 1_555
H9 C7 1_555 1_555
H10 C7 1_555 1_555
C8 C7 1_555 1_555
H11 C8 1_555 1_555
H12 C8 1_555 1_555
C9 N2 1_555 1_555
H13 C9 1_555 1_555
H14 C9 1_555 1_555
C10 C2 1_555 1_555
C11 S2 1_555 1_555
C12 S3 1_555 1_555
H15 C12 1_555 1_555
H16 C12 1_555 1_555
H17 C12 1_555 1_555
Cl1 C13 1_555 1_555
Cl2 C13 1_555 1_555
Cl3 C13 1_555 1_555
C13 H18 1_555 1_555
N2 C11 1_555 1_555
C5 C6 1_555 1_555
C8 C9 1_555 1_555

#END
