
#######################################################################
#
#                 Cambridge Crystallographic Data Centre
#                                CCDC 
#
#######################################################################
#
# If this CIF has been generated from an entry in the Cambridge 
# Structural Database, then it will include bibliographic, chemical, 
# crystal, experimental, refinement or atomic coordinate data resulting 
# from the CCDC's data processing and validation procedures.
#
#######################################################################

data_MUXQON
_chemical_formula_moiety         'C10 H9 N1 O2'
_chemical_name_systematic        9-(hydroxymethyl)-4H-quinolizin-4-one
_symmetry_cell_setting           monoclinic
_symmetry_space_group_name_H-M   'P 21/c'
_symmetry_Int_Tables_number      14
_space_group_name_Hall           '-P 2ybc'
loop_
_symmetry_equiv_pos_site_id
_symmetry_equiv_pos_as_xyz
1 x,y,z
2 -x,1/2+y,1/2-z
3 -x,-y,-z
4 x,1/2-y,1/2+z
_cell_length_a                   3.976(3)
_cell_length_b                   12.084(8)
_cell_length_c                   16.849(11)
_cell_angle_alpha                90
_cell_angle_beta                 90.461(13)
_cell_angle_gamma                90
_cell_volume                     809.501
_exptl_crystal_colour            colorless
_exptl_crystal_description       block
_cell_formula_units_Z            4
loop_
_atom_site_label
_atom_site_type_symbol
_atom_site_fract_x
_atom_site_fract_y
_atom_site_fract_z
O1 O 0.5533(19) 0.6655(5) 0.6585(3)
H1 H 0.6626 0.6984 0.6248
O2 O -0.1520(16) 0.7167(5) 1.0410(3)
N1 N 0.0794(15) 0.7115(5) 0.9176(3)
C1 C 0.4024(19) 0.5877(6) 0.8039(4)
H2 H 0.5097 0.5443 0.7662
C2 C 0.3088(18) 0.6943(6) 0.7856(4)
C3 C 0.1396(18) 0.7594(6) 0.8434(4)
C4 C 0.039(2) 0.8670(6) 0.8306(4)
H3 H 0.0792 0.9004 0.7818
C5 C -0.121(2) 0.9255(6) 0.8896(4)
H4 H -0.1848 0.9985 0.8805
C6 C -0.187(2) 0.8774(6) 0.9614(4)
H5 H -0.2928 0.9192 1.0002
C7 C -0.101(2) 0.7684(6) 0.9784(4)
C8 C 0.179(2) 0.6053(6) 0.9330(4)
H6 H 0.1355 0.5751 0.9826
C9 C 0.336(2) 0.5441(6) 0.8796(4)
H7 H 0.4022 0.4723 0.8921
C10 C 0.380(2) 0.7428(6) 0.7059(4)
H8 H 0.1702 0.7633 0.6800
H9 H 0.5150 0.8091 0.7122
loop_
_geom_bond_atom_site_label_1
_geom_bond_atom_site_label_2
_geom_bond_site_symmetry_1
_geom_bond_site_symmetry_2
O1 H1 1_555 1_555
O2 C7 1_555 1_555
N1 C3 1_555 1_555
C1 H2 1_555 1_555
C2 C1 1_555 1_555
C3 C2 1_555 1_555
C4 C3 1_555 1_555
H3 C4 1_555 1_555
C5 C4 1_555 1_555
H4 C5 1_555 1_555
C6 C5 1_555 1_555
H5 C6 1_555 1_555
C7 N1 1_555 1_555
C8 N1 1_555 1_555
H6 C8 1_555 1_555
C9 C1 1_555 1_555
H7 C9 1_555 1_555
C10 O1 1_555 1_555
H8 C10 1_555 1_555
H9 C10 1_555 1_555
C2 C10 1_555 1_555
C6 C7 1_555 1_555
C8 C9 1_555 1_555

#END
