
#######################################################################
#
#                 Cambridge Crystallographic Data Centre
#                                CCDC 
#
#######################################################################
#
# If this CIF has been generated from an entry in the Cambridge 
# Structural Database, then it will include bibliographic, chemical, 
# crystal, experimental, refinement or atomic coordinate data resulting 
# from the CCDC's data processing and validation procedures.
#
#######################################################################

data_MUXRII
_chemical_formula_moiety         'C18 H12 N2 O1'
_chemical_name_systematic        
7-(pyridin-2-yl)-6H-pyrido[2,1-a]isoquinolin-6-one
_symmetry_cell_setting           orthorhombic
_symmetry_space_group_name_H-M   'C 2 2 21'
_symmetry_Int_Tables_number      20
_space_group_name_Hall           'C 2n 2'
loop_
_symmetry_equiv_pos_site_id
_symmetry_equiv_pos_as_xyz
1 x,y,z
2 -x,-y,1/2+z
3 -x,y,1/2-z
4 x,-y,-z
5 1/2+x,1/2+y,z
6 1/2-x,1/2-y,1/2+z
7 1/2-x,1/2+y,1/2-z
8 1/2+x,1/2-y,-z
_cell_length_a                   7.0339(5)
_cell_length_b                   15.2568(10)
_cell_length_c                   23.4512(15)
_cell_angle_alpha                90
_cell_angle_beta                 90
_cell_angle_gamma                90
_cell_volume                     2516.66
_exptl_crystal_colour            orange
_exptl_crystal_description       plate
_cell_formula_units_Z            8
loop_
_atom_site_label
_atom_site_type_symbol
_atom_site_fract_x
_atom_site_fract_y
_atom_site_fract_z
N1 N 0.2477(7) 0.3294(3) 0.25023(18)
N2 N 0.2238(6) 0.2584(3) 0.44303(17)
O1 O 0.2607(6) 0.1877(2) 0.28337(14)
C1 C 0.2821(8) 0.2657(3) 0.2963(2)
C2 C 0.1924(7) 0.2940(4) 0.1987(2)
H1 H 0.1894 0.2321 0.1946
C3 C 0.1421(8) 0.3452(3) 0.1540(2)
H2 H 0.1019 0.3195 0.1191
C4 C 0.1503(8) 0.4369(3) 0.1600(2)
H3 H 0.1169 0.4741 0.1291
C5 C 0.2063(7) 0.4713(3) 0.2104(2)
H4 H 0.2081 0.5333 0.2146
C6 C 0.2619(8) 0.4191(3) 0.2567(2)
C7 C 0.3225(7) 0.4530(3) 0.3110(2)
C8 C 0.3649(8) 0.5429(3) 0.3179(2)
H5 H 0.3498 0.5818 0.2866
C9 C 0.4271(9) 0.5746(4) 0.3689(2)
H6 H 0.4568 0.635 0.3728
C10 C 0.4474(8) 0.5175(4) 0.4158(2)
H7 H 0.4877 0.54 0.4516
C11 C 0.4092(8) 0.4294(4) 0.4100(2)
H8 H 0.4226 0.3918 0.442
C12 C 0.3501(8) 0.3938(3) 0.3570(2)
C13 C 0.3217(7) 0.3026(3) 0.3491(2)
C14 C 0.3363(8) 0.2397(3) 0.3979(2)
C15 C 0.2380(9) 0.2034(3) 0.4878(2)
H9 H 0.1607 0.2154 0.52
C16 C 0.3543(8) 0.1318(3) 0.4905(2)
H10 H 0.3578 0.0959 0.5236
C17 C 0.4672(8) 0.1131(4) 0.4435(2)
H11 H 0.55 0.0639 0.4436
C18 C 0.4561(8) 0.1679(3) 0.3966(2)
H12 H 0.5306 0.1563 0.3637
loop_
_geom_bond_atom_site_label_1
_geom_bond_atom_site_label_2
_geom_bond_site_symmetry_1
_geom_bond_site_symmetry_2
N1 C1 1_555 1_555
N2 C14 1_555 1_555
O1 C1 1_555 1_555
C1 C13 1_555 1_555
C2 N1 1_555 1_555
H1 C2 1_555 1_555
C3 C2 1_555 1_555
H2 C3 1_555 1_555
C4 C3 1_555 1_555
H3 C4 1_555 1_555
C5 C4 1_555 1_555
H4 C5 1_555 1_555
C6 N1 1_555 1_555
C7 C6 1_555 1_555
C8 C7 1_555 1_555
H5 C8 1_555 1_555
C9 C8 1_555 1_555
H6 C9 1_555 1_555
C10 C9 1_555 1_555
H7 C10 1_555 1_555
C11 C10 1_555 1_555
H8 C11 1_555 1_555
C12 C7 1_555 1_555
C13 C12 1_555 1_555
C14 C13 1_555 1_555
C15 N2 1_555 1_555
H9 C15 1_555 1_555
C16 C15 1_555 1_555
H10 C16 1_555 1_555
C17 C16 1_555 1_555
H11 C17 1_555 1_555
C18 C14 1_555 1_555
H12 C18 1_555 1_555
C5 C6 1_555 1_555
C11 C12 1_555 1_555
C17 C18 1_555 1_555

#END
