
#######################################################################
#
#                 Cambridge Crystallographic Data Centre
#                                CCDC 
#
#######################################################################
#
# If this CIF has been generated from an entry in the Cambridge 
# Structural Database, then it will include bibliographic, chemical, 
# crystal, experimental, refinement or atomic coordinate data resulting 
# from the CCDC's data processing and validation procedures.
#
#######################################################################

data_MUXSEF
_chemical_formula_moiety         'C13 H11 F1 N2 O2'
_chemical_name_systematic        
'2-((2-fluorophenyl)(methyl)amino)nicotinic acid'
_symmetry_cell_setting           monoclinic
_symmetry_space_group_name_H-M   'P n'
_symmetry_Int_Tables_number      7
_space_group_name_Hall           'P -2yac'
loop_
_symmetry_equiv_pos_site_id
_symmetry_equiv_pos_as_xyz
1 x,y,z
2 1/2+x,-y,1/2+z
_cell_length_a                   5.3295(1)
_cell_length_b                   8.7988(2)
_cell_length_c                   12.3776(3)
_cell_angle_alpha                90
_cell_angle_beta                 99.7900(11)
_cell_angle_gamma                90
_cell_volume                     571.973
_exptl_crystal_colour            colorless
_exptl_crystal_description       block
_cell_formula_units_Z            2
loop_
_atom_site_label
_atom_site_type_symbol
_atom_site_fract_x
_atom_site_fract_y
_atom_site_fract_z
F1 F -0.21392(19) 0.36926(12) 0.74626(8)
N1 N 0.3918(3) -0.01527(17) 0.65164(11)
C1 C 0.2695(3) 0.03175(19) 0.73254(13)
C2 C 0.2265(3) -0.06951(19) 0.81695(13)
C3 C 0.3317(3) -0.2142(2) 0.81845(14)
H1 H 0.3145 -0.2821 0.8764
C4 C 0.4620(3) -0.2605(2) 0.73578(15)
H2 H 0.5347 -0.3591 0.7360
C5 C 0.4815(3) -0.1580(2) 0.65368(15)
H3 H 0.5631 -0.1900 0.5951
N2 N 0.1871(3) 0.18032(16) 0.72579(11)
C6 C 0.1903(3) 0.27017(18) 0.82140(13)
C7 C -0.0108(3) 0.36868(19) 0.82875(13)
C8 C -0.0141(3) 0.46482(19) 0.91657(14)
H4 H -0.1531 0.5319 0.9181
C9 C 0.1904(3) 0.46140(19) 1.00272(15)
H5 H 0.1928 0.5270 1.0638
C10 C 0.3912(3) 0.3618(2) 0.99933(14)
H6 H 0.5288 0.3581 1.0592
C11 C 0.3932(3) 0.26730(19) 0.90911(14)
H7 H 0.5328 0.2008 0.9073
C12 C 0.2017(4) 0.26506(19) 0.62487(15)
H8 H 0.3805 0.2841 0.6198
H9 H 0.1122 0.3622 0.6261
H10 H 0.1220 0.2055 0.5613
C13 C 0.0551(3) -0.03359(18) 0.89746(13)
O1 O -0.1334(2) 0.04477(14) 0.87648(11)
O2 O 0.1294(2) -0.10204(15) 0.99335(10)
H11 H 0.0334 -0.0759 1.0374
loop_
_geom_bond_atom_site_label_1
_geom_bond_atom_site_label_2
_geom_bond_site_symmetry_1
_geom_bond_site_symmetry_2
F1 C7 1_555 1_555
N1 C1 1_555 1_555
C1 C2 1_555 1_555
C2 C3 1_555 1_555
C3 H1 1_555 1_555
C4 C3 1_555 1_555
H2 C4 1_555 1_555
C5 N1 1_555 1_555
H3 C5 1_555 1_555
N2 C1 1_555 1_555
C6 N2 1_555 1_555
C7 C6 1_555 1_555
C8 C7 1_555 1_555
H4 C8 1_555 1_555
C9 C8 1_555 1_555
H5 C9 1_555 1_555
C10 C9 1_555 1_555
H6 C10 1_555 1_555
C11 C6 1_555 1_555
H7 C11 1_555 1_555
C12 N2 1_555 1_555
H8 C12 1_555 1_555
H9 C12 1_555 1_555
H10 C12 1_555 1_555
C13 C2 1_555 1_555
O1 C13 1_555 1_555
O2 C13 1_555 1_555
H11 O2 1_555 1_555
C4 C5 1_555 1_555
C10 C11 1_555 1_555

#END
