
#######################################################################
#
#                 Cambridge Crystallographic Data Centre
#                                CCDC 
#
#######################################################################
#
# If this CIF has been generated from an entry in the Cambridge 
# Structural Database, then it will include bibliographic, chemical, 
# crystal, experimental, refinement or atomic coordinate data resulting 
# from the CCDC's data processing and validation procedures.
#
#######################################################################

data_MUXVIL
_chemical_formula_moiety         'C28 H20 Cl2 N6 O10'
_chemical_name_systematic        
'Dimethyl 25,27-bis(allyloxy)-5,17-dichloro-2,8,14,20-tetraoxa-4,6,16,18,26,28-hexaazapentacyclo[19.3.1.1^3,7^.1^9,13^.1^15,19^]octacosa-1(25),3(28),4,6,9(27),10,12,15(26),16,18,21,23-dodecaene-11,23-dicarboxylate'
_symmetry_cell_setting           triclinic
_symmetry_space_group_name_H-M   'P -1'
_symmetry_Int_Tables_number      2
_space_group_name_Hall           '-P 1'
loop_
_symmetry_equiv_pos_site_id
_symmetry_equiv_pos_as_xyz
1 x,y,z
2 -x,-y,-z
_cell_length_a                   9.224(3)
_cell_length_b                   12.949(4)
_cell_length_c                   14.548(5)
_cell_angle_alpha                66.660(5)
_cell_angle_beta                 85.287(5)
_cell_angle_gamma                72.483(5)
_cell_volume                     1520.1
_exptl_crystal_colour            colorless
_exptl_crystal_description       block
_cell_formula_units_Z            2
loop_
_atom_site_label
_atom_site_type_symbol
_atom_site_fract_x
_atom_site_fract_y
_atom_site_fract_z
Cl1 Cl -0.18745(11) 0.81409(9) 0.48633(9)
Cl2 Cl 0.50071(13) 0.80158(9) -0.17278(7)
O1 O -0.1250(2) 0.56193(18) 0.30700(15)
O2 O 0.2988(2) 0.56836(18) 0.44542(14)
O3 O 0.6003(2) 0.52735(17) 0.17132(14)
O4 O 0.1574(2) 0.58560(19) 0.01178(14)
O5 O 0.6606(4) 0.1084(2) 0.4285(2)
O6 O 0.5688(3) 0.14179(19) 0.56327(17)
O7 O 0.3823(2) 0.66357(18) 0.24869(16)
O8 O 0.1119(3) 0.1700(2) 0.1632(2)
O9 O -0.0217(3) 0.1691(2) 0.2978(2)
O10 O 0.0245(2) 0.68326(18) 0.14764(17)
N1 N 0.0947(2) 0.55888(19) 0.37235(16)
N2 N -0.1494(3) 0.6771(2) 0.39105(18)
N3 N 0.0711(3) 0.6817(2) 0.46187(18)
N4 N 0.3738(3) 0.5515(2) 0.09919(17)
N5 N 0.5501(3) 0.6540(2) 0.01181(18)
N6 N 0.3184(3) 0.6854(2) -0.07020(18)
C1 C -0.0543(3) 0.6003(2) 0.3581(2)
C2 C -0.0764(3) 0.7129(2) 0.4418(2)
C3 C 0.1495(3) 0.6035(2) 0.42415(19)
C4 C 0.3940(3) 0.4953(2) 0.4007(2)
C5 C 0.4411(3) 0.5471(2) 0.3054(2)
C6 C 0.5429(3) 0.4740(3) 0.2654(2)
C7 C 0.5961(3) 0.3552(2) 0.3171(2)
H1 H 0.6643 0.3083 0.2884
C8 C 0.5471(3) 0.3054(2) 0.4128(2)
C9 C 0.4454(3) 0.3766(3) 0.4547(2)
H2 H 0.4126 0.3437 0.5191
C10 C 0.4718(11) 0.7363(6) 0.2448(8)
H3 H 0.5627 0.7200 0.2082
H4 H 0.5020 0.7225 0.3120
C11 C 0.3748(12) 0.8624(6) 0.1920(8)
H5 H 0.2744 0.8811 0.2106
C12 C 0.4167(12) 0.9437(6) 0.1259(6)
H6 H 0.5161 0.9292 0.1049
H7 H 0.3485 1.0186 0.0978
C13 C 0.6001(4) 0.1752(3) 0.4674(2)
C14 C 0.6015(6) 0.0167(3) 0.6202(3)
H8 H 0.5308 -0.0122 0.5997
H9 H 0.5923 0.0015 0.6903
H10 H 0.7032 -0.0225 0.6086
C15 C 0.5016(3) 0.5797(2) 0.0918(2)
C16 C 0.4508(4) 0.7030(3) -0.0650(2)
C17 C 0.2879(3) 0.6083(2) 0.0155(2)
C18 C 0.1033(3) 0.5166(3) 0.1012(2)
C19 C 0.0280(3) 0.5711(3) 0.1639(2)
C20 C -0.0371(3) 0.5057(3) 0.2470(2)
C21 C -0.0308(3) 0.3915(3) 0.2674(2)
H11 H -0.0756 0.3493 0.3237
C22 C 0.0439(3) 0.3400(3) 0.2022(2)
C23 C 0.1108(3) 0.4028(3) 0.1193(2)
H12 H 0.1609 0.3682 0.0759
C24 C 0.0493(4) 0.2184(3) 0.2173(3)
C25 C -0.0298(6) 0.0527(4) 0.3165(5)
H13 H -0.1283 0.0582 0.2949
H14 H -0.0133 0.0050 0.3869
H15 H 0.0470 0.0176 0.2802
C26 C -0.1108(11) 0.7735(7) 0.0975(9)
H16 H -0.1985 0.7609 0.1372
H17 H -0.1266 0.7724 0.0329
C27 C -0.0911(15) 0.8899(7) 0.0841(11)
H18 H -0.0169 0.9151 0.0414
C28 C -0.1705(14) 0.9574(9) 0.1278(10)
H19 H -0.2457 0.9349 0.1710
H20 H -0.1522 1.0283 0.1160
C29? C 0.438(3) 0.7426(13) 0.2726(11)
C30? C 0.442(2) 0.8485(12) 0.1751(16)
C31? C 0.327(3) 0.8955(15) 0.1087(14)
C32? C -0.096(2) 0.7727(12) 0.0777(16)
C33? C -0.1340(17) 0.8810(9) 0.1046(15)
C34? C -0.0285(19) 0.8964(11) 0.1503(12)
H21? H 0.5399 0.7026 0.3036
H22? H 0.3726 0.7691 0.3193
H23? H 0.5239 0.8791 0.1632
H24? H 0.2453 0.8645 0.1210
H25? H 0.3280 0.9595 0.0495
H26? H -0.1843 0.7454 0.0833
H27? H -0.0620 0.7919 0.0096
H28? H -0.2303 0.9352 0.0890
H29? H 0.0676 0.8420 0.1658
H30? H -0.0507 0.9617 0.1670
loop_
_geom_bond_atom_site_label_1
_geom_bond_atom_site_label_2
_geom_bond_site_symmetry_1
_geom_bond_site_symmetry_2
Cl1 C2 1_555 1_555
Cl2 C16 1_555 1_555
O1 C1 1_555 1_555
O2 C3 1_555 1_555
O3 C6 1_555 1_555
O4 C17 1_555 1_555
O5 C13 1_555 1_555
O6 C13 1_555 1_555
O7 C5 1_555 1_555
O8 C24 1_555 1_555
O9 C24 1_555 1_555
O10 C19 1_555 1_555
N1 C1 1_555 1_555
N2 C1 1_555 1_555
N3 C2 1_555 1_555
N4 C15 1_555 1_555
N5 C15 1_555 1_555
N6 C16 1_555 1_555
C2 N2 1_555 1_555
C3 N1 1_555 1_555
C4 O2 1_555 1_555
C5 C4 1_555 1_555
C6 C5 1_555 1_555
C7 C6 1_555 1_555
H1 C7 1_555 1_555
C8 C7 1_555 1_555
C9 C4 1_555 1_555
H2 C9 1_555 1_555
C10 O7 1_555 1_555
H3 C10 1_555 1_555
H4 C10 1_555 1_555
C11 C10 1_555 1_555
H5 C11 1_555 1_555
C12 C11 1_555 1_555
H6 C12 1_555 1_555
H7 C12 1_555 1_555
C13 C8 1_555 1_555
C14 O6 1_555 1_555
H8 C14 1_555 1_555
H9 C14 1_555 1_555
H10 C14 1_555 1_555
C15 O3 1_555 1_555
C16 N5 1_555 1_555
C17 N4 1_555 1_555
C18 O4 1_555 1_555
C19 C18 1_555 1_555
C20 O1 1_555 1_555
C21 C20 1_555 1_555
H11 C21 1_555 1_555
C22 C21 1_555 1_555
C23 C18 1_555 1_555
H12 C23 1_555 1_555
C24 C22 1_555 1_555
C25 O9 1_555 1_555
H13 C25 1_555 1_555
H14 C25 1_555 1_555
H15 C25 1_555 1_555
C26 O10 1_555 1_555
H16 C26 1_555 1_555
H17 C26 1_555 1_555
C27 C26 1_555 1_555
H18 C27 1_555 1_555
C28 C27 1_555 1_555
H19 C28 1_555 1_555
H20 C28 1_555 1_555
N3 C3 1_555 1_555
N6 C17 1_555 1_555
C8 C9 1_555 1_555
C19 C20 1_555 1_555
C22 C23 1_555 1_555

#END
