
#######################################################################
#
#                 Cambridge Crystallographic Data Centre
#                                CCDC 
#
#######################################################################
#
# If this CIF has been generated from an entry in the Cambridge 
# Structural Database, then it will include bibliographic, chemical, 
# crystal, experimental, refinement or atomic coordinate data resulting 
# from the CCDC's data processing and validation procedures.
#
#######################################################################

data_MUXVOR
_chemical_formula_moiety         'C42 H30 Cl3 N9 O15'
_chemical_name_systematic        
'Trimethyl 37,39,41-tris(allyloxy)-5,17,29-trichloro-2,8,14,20,26,32-hexaoxa-4,6,16,18,28,30,38,40,42-nonaazaheptacyclo[31.3.1.1^3,7^.1^9,13^.1^15,19^.1^21,25^.1^27,31^]dotetraconta-1(37),3(42),4,6,9(41),10,12,15(40),16,18,21(39),22,24,27(38),28,30,33,35-octadecaene-11,23,35-tricarboxylate'
_symmetry_cell_setting           monoclinic
_symmetry_space_group_name_H-M   'P 21/n'
_symmetry_Int_Tables_number      14
_space_group_name_Hall           '-P 2yn'
loop_
_symmetry_equiv_pos_site_id
_symmetry_equiv_pos_as_xyz
1 x,y,z
2 1/2-x,1/2+y,1/2-z
3 -x,-y,-z
4 1/2+x,1/2-y,1/2+z
_cell_length_a                   12.039(2)
_cell_length_b                   15.317(3)
_cell_length_c                   24.823(5)
_cell_angle_alpha                90
_cell_angle_beta                 90.36(3)
_cell_angle_gamma                90
_cell_volume                     4577.3
_exptl_crystal_colour            colorless
_exptl_crystal_description       plate
_cell_formula_units_Z            4
loop_
_atom_site_label
_atom_site_type_symbol
_atom_site_fract_x
_atom_site_fract_y
_atom_site_fract_z
Cl1 Cl 0.73740(18) 0.7065(2) -0.15999(7)
Cl2 Cl 0.61235(13) 0.37825(9) 0.17221(7)
Cl3 Cl 0.61437(13) 1.14178(10) 0.13601(8)
O1 O 0.9054(3) 0.5868(3) 0.00036(16)
O2 O 0.8220(3) 0.6516(2) 0.18582(15)
O3 O 0.5223(3) 0.6154(2) 0.29243(14)
O4 O 0.5202(3) 0.9292(2) 0.27174(14)
O5 O 0.8260(3) 0.8748(2) 0.17168(13)
O6 O 0.8990(3) 0.8836(2) -0.01928(14)
O7 O 1.2684(3) 0.5589(4) 0.10026(19)
O8 O 1.2137(4) 0.5406(3) 0.18607(18)
O9 O 0.7517(3) 0.6380(2) 0.07988(17)
O10 O 0.6812(4) 0.8768(3) 0.45593(16)
O11 O 0.6900(4) 0.7315(3) 0.46261(16)
O12 O 0.4712(3) 0.7595(2) 0.23178(15)
O13 O 1.2629(3) 0.9664(3) 0.07258(16)
O14 O 1.2068(3) 0.9995(3) 0.15600(17)
O15 O 0.7512(3) 0.8573(2) 0.06739(14)
N1 N 0.8237(4) 0.7991(4) -0.08388(18)
N2 N 0.8312(4) 0.6443(4) -0.0740(2)
N3 N 0.9082(3) 0.7365(3) -0.00582(16)
N4 N 0.7246(4) 0.5223(3) 0.17911(18)
N5 N 0.5657(3) 0.5072(3) 0.23542(18)
N6 N 0.6754(3) 0.6370(3) 0.23871(17)
N7 N 0.6747(3) 0.8963(3) 0.22128(16)
N8 N 0.5682(3) 1.0259(3) 0.20877(18)
N9 N 0.7287(3) 1.0013(3) 0.15510(17)
C1 C 0.8766(4) 0.8031(4) -0.0363(2)
C2 C 0.8069(5) 0.7167(5) -0.0989(2)
C3 C 0.8809(4) 0.6591(4) -0.0271(2)
C4 C 1.0469(5) 0.5774(3) 0.0683(2)
H1 H 1.0993 0.5640 0.0410
C5 C 1.0794(4) 0.5795(3) 0.1213(2)
C6 C 1.0022(4) 0.6022(3) 0.1613(2)
H2 H 1.0234 0.6044 0.1982
C7 C 0.8946(4) 0.6214(3) 0.1454(2)
C8 C 0.8587(4) 0.6164(3) 0.0925(2)
C9 C 0.7381(4) 0.6009(3) 0.2007(2)
C10 C 0.9383(5) 0.5948(3) 0.0545(2)
C11 C 0.6360(4) 0.4802(3) 0.1986(2)
C12 C 0.5916(4) 0.5871(3) 0.25386(19)
C13 C 0.5440(4) 0.6998(3) 0.3128(2)
C14 C 0.5902(4) 0.7073(3) 0.3634(2)
H3 H 0.6079 0.6568 0.3840
C15 C 0.6106(4) 0.7907(3) 0.3838(2)
C16 C 0.5877(4) 0.8639(3) 0.3525(2)
H4 H 0.6031 0.9207 0.3660
C17 C 0.5429(4) 0.8537(3) 0.3020(2)
C18 C 0.5158(4) 0.7716(3) 0.2810(2)
C19 C 0.5927(4) 0.9499(3) 0.23228(19)
C20 C 0.6391(4) 1.0457(3) 0.1707(2)
C21 C 0.7406(4) 0.9272(3) 0.18228(19)
C22 C 0.8955(4) 0.8964(3) 0.12826(19)
C23 C 1.0017(4) 0.9247(3) 0.1397(2)
H5 H 1.0241 0.9358 0.1758
C24 C 1.0763(4) 0.9370(3) 0.0971(2)
C25 C 1.0421(4) 0.9206(3) 0.0450(2)
H6 H 1.0928 0.9271 0.0161
C26 C 0.9345(4) 0.8948(3) 0.0348(2)
C27 C 0.8575(4) 0.8836(3) 0.0760(2)
C28 C 1.1954(5) 0.5586(4) 0.1366(3)
C29 C 1.3246(8) 0.5271(9) 0.2037(5)
H7 H 1.3258 0.5183 0.2428
H8 H 1.3696 0.5783 0.1946
H9 H 1.3551 0.4754 0.1858
C30 C 0.6844(5) 0.5733(5) 0.0510(3)
H10 H 0.7098 0.5135 0.0599
C31 C 0.5972(13) 0.6240(11) 0.0196(7)
C32 C 0.568(2) 0.6201(19) -0.0272(11)
H11 H 0.6029 0.5796 -0.0508
H12 H 0.5114 0.6575 -0.0403
C33 C 0.6641(5) 0.8053(4) 0.4377(2)
C34 C 0.7437(7) 0.7417(5) 0.5152(3)
H13 H 0.7706 0.6849 0.5278
H14 H 0.6900 0.7650 0.5410
H15 H 0.8063 0.7822 0.5121
C35 C 0.3862(8) 0.8152(7) 0.2143(4)
H16 H 0.4179 0.8607 0.1906
H17 H 0.3530 0.8447 0.2458
C36 C 0.3003(8) 0.7686(6) 0.1852(4)
H18 H 0.3238 0.7287 0.1583
C37 C 0.1925(9) 0.7762(8) 0.1927(6)
H19 H 0.1651 0.8152 0.2192
H20 H 0.1422 0.7426 0.1715
C38 C 1.1915(4) 0.9680(4) 0.1057(2)
C39 C 1.3156(6) 1.0337(6) 0.1678(3)
H21 H 1.3168 1.0579 0.2043
H22 H 1.3336 1.0798 0.1419
H23 H 1.3706 0.9868 0.1652
C40 C 0.6817(5) 0.9165(5) 0.0360(3)
H24 H 0.6901 0.9041 -0.0029
H25 H 0.7045 0.9776 0.0427
C41 C 0.5651(6) 0.9038(6) 0.0521(4)
H26 H 0.5108 0.9376 0.0335
C42 C 0.5279(9) 0.8490(9) 0.0906(5)
H27 H 0.5790 0.8138 0.1103
H28 H 0.4507 0.8456 0.0980
H29? H 0.6910 0.5819 0.0116
C43? C 0.5668(11) 0.5858(10) 0.0681(6)
H30? H 0.5124 0.5503 0.0509
C44? C 0.533(2) 0.638(2) 0.1030(12)
H31? H 0.5838 0.6753 0.1213
H32? H 0.4557 0.6413 0.1110
C45? C 0.3716(12) 0.7172(11) 0.2210(7)
H33? H 0.3322 0.7064 0.2552
H34? H 0.3871 0.6600 0.2040
loop_
_geom_bond_atom_site_label_1
_geom_bond_atom_site_label_2
_geom_bond_site_symmetry_1
_geom_bond_site_symmetry_2
Cl1 C2 1_555 1_555
Cl2 C11 1_555 1_555
Cl3 C20 1_555 1_555
O1 C3 1_555 1_555
O2 C7 1_555 1_555
O3 C12 1_555 1_555
O4 C17 1_555 1_555
O5 C21 1_555 1_555
O6 C1 1_555 1_555
O7 C28 1_555 1_555
O8 C28 1_555 1_555
O9 C8 1_555 1_555
O10 C33 1_555 1_555
O11 C33 1_555 1_555
O12 C18 1_555 1_555
O13 C38 1_555 1_555
O14 C38 1_555 1_555
O15 C27 1_555 1_555
N1 C1 1_555 1_555
N2 C2 1_555 1_555
N3 C1 1_555 1_555
N4 C9 1_555 1_555
N5 C11 1_555 1_555
N6 C9 1_555 1_555
N7 C19 1_555 1_555
N8 C19 1_555 1_555
N9 C20 1_555 1_555
C2 N1 1_555 1_555
C3 N2 1_555 1_555
C4 H1 1_555 1_555
C5 C4 1_555 1_555
C6 C5 1_555 1_555
H2 C6 1_555 1_555
C7 C6 1_555 1_555
C8 C7 1_555 1_555
C9 O2 1_555 1_555
C10 O1 1_555 1_555
C11 N4 1_555 1_555
C12 N5 1_555 1_555
C13 O3 1_555 1_555
C14 C13 1_555 1_555
H3 C14 1_555 1_555
C15 C14 1_555 1_555
C16 C15 1_555 1_555
H4 C16 1_555 1_555
C17 C16 1_555 1_555
C18 C13 1_555 1_555
C19 O4 1_555 1_555
C20 N8 1_555 1_555
C21 N7 1_555 1_555
C22 O5 1_555 1_555
C23 C22 1_555 1_555
H5 C23 1_555 1_555
C24 C23 1_555 1_555
C25 C24 1_555 1_555
H6 C25 1_555 1_555
C26 O6 1_555 1_555
C27 C22 1_555 1_555
C28 C5 1_555 1_555
C29 O8 1_555 1_555
H7 C29 1_555 1_555
H8 C29 1_555 1_555
H9 C29 1_555 1_555
C30 O9 1_555 1_555
H10 C30 1_555 1_555
C31 C30 1_555 1_555
C32 C31 1_555 1_555
H11 C32 1_555 1_555
H12 C32 1_555 1_555
C33 C15 1_555 1_555
C34 O11 1_555 1_555
H13 C34 1_555 1_555
H14 C34 1_555 1_555
H15 C34 1_555 1_555
C35 O12 1_555 1_555
H16 C35 1_555 1_555
H17 C35 1_555 1_555
C36 C35 1_555 1_555
H18 C36 1_555 1_555
C37 C36 1_555 1_555
H19 C37 1_555 1_555
H20 C37 1_555 1_555
C38 C24 1_555 1_555
C39 O14 1_555 1_555
H21 C39 1_555 1_555
H22 C39 1_555 1_555
H23 C39 1_555 1_555
C40 O15 1_555 1_555
H24 C40 1_555 1_555
H25 C40 1_555 1_555
C41 C40 1_555 1_555
H26 C41 1_555 1_555
C42 C41 1_555 1_555
H27 C42 1_555 1_555
H28 C42 1_555 1_555
N3 C3 1_555 1_555
N6 C12 1_555 1_555
N9 C21 1_555 1_555
C4 C10 1_555 1_555
C8 C10 1_555 1_555
C17 C18 1_555 1_555
C25 C26 1_555 1_555
C26 C27 1_555 1_555

#END
