
#######################################################################
#
#                 Cambridge Crystallographic Data Centre
#                                CCDC 
#
#######################################################################
#
# If this CIF has been generated from an entry in the Cambridge 
# Structural Database, then it will include bibliographic, chemical, 
# crystal, experimental, refinement or atomic coordinate data resulting 
# from the CCDC's data processing and validation procedures.
#
#######################################################################

data_MUXYOU
_chemical_formula_moiety         'C24 H19 N1 S1'
_chemical_name_systematic        
2,5-Diphenyl-4-(3-phenylprop-2-en-1-yl)-1,3-thiazole
_symmetry_cell_setting           orthorhombic
_symmetry_space_group_name_H-M   'F d d 2'
_symmetry_Int_Tables_number      43
_space_group_name_Hall           'F 2 -2d'
loop_
_symmetry_equiv_pos_site_id
_symmetry_equiv_pos_as_xyz
1 x,y,z
2 -x,-y,z
3 1/4+x,1/4-y,1/4+z
4 1/4-x,1/4+y,1/4+z
5 x,1/2+y,1/2+z
6 -x,1/2-y,1/2+z
7 1/4+x,3/4-y,3/4+z
8 1/4-x,3/4+y,3/4+z
9 1/2+x,y,1/2+z
10 1/2-x,-y,1/2+z
11 3/4+x,1/4-y,3/4+z
12 3/4-x,1/4+y,3/4+z
13 1/2+x,1/2+y,z
14 1/2-x,1/2-y,z
15 3/4+x,3/4-y,1/4+z
16 3/4-x,3/4+y,1/4+z
_cell_length_a                   17.699(4)
_cell_length_b                   74.502(18)
_cell_length_c                   5.7208(14)
_cell_angle_alpha                90
_cell_angle_beta                 90
_cell_angle_gamma                90
_cell_volume                     7543.51
_exptl_crystal_colour            yellow
_exptl_crystal_description       block
_cell_formula_units_Z            16
loop_
_atom_site_label
_atom_site_type_symbol
_atom_site_fract_x
_atom_site_fract_y
_atom_site_fract_z
S1 S 0.49760(7) 0.029935(19) 0.3692(3)
N1 N 0.5866(2) 0.05446(6) 0.5104(8)
C1 C 0.6088(3) 0.02553(8) 0.7019(10)
C2 C 0.4246(3) 0.05446(7) 0.0844(9)
C3 C 0.4375(3) 0.06362(8) -0.1201(10)
H1 H 0.4859 0.0676 -0.1556
C4 C 0.4869(3) 0.05100(7) 0.2521(10)
C5 C 0.5392(3) 0.06207(7) 0.3436(9)
C6 C 0.6672(3) 0.09647(8) 0.1808(11)
H2 H 0.6662 0.1018 0.3278
C7 C 0.5724(2) 0.03787(7) 0.5421(9)
C8 C 0.7318(3) 0.10115(8) 0.0345(11)
C9 C 0.2944(3) 0.05147(8) -0.0223(11)
H3 H 0.2460 0.0475 0.0134
C10 C 0.6119(3) 0.08607(7) 0.1342(12)
H4 H 0.6113 0.0808 -0.0131
C11 C 0.3070(3) 0.06060(8) -0.2265(11)
H5 H 0.2677 0.0625 -0.3315
C12 C 0.3524(3) 0.04817(7) 0.1297(10)
H6 H 0.3433 0.0416 0.2652
C13 C 0.7469(3) 0.09287(8) -0.1747(11)
H7 H 0.7146 0.0840 -0.2306
C14 C 0.6775(4) 0.00329(10) 1.0232(12)
H8 H 0.7002 -0.0042 1.1322
C15 C 0.6507(3) 0.03255(8) 0.8882(11)
H9 H 0.6556 0.0449 0.9072
C16 C 0.3782(3) 0.06688(8) -0.2745(10)
H10 H 0.3870 0.0733 -0.4109
C17 C 0.6848(3) 0.02086(10) 1.0437(11)
H11 H 0.7134 0.0255 1.1659
C18 C 0.5464(3) 0.08152(7) 0.2983(10)
H12 H 0.5539 0.0877 0.4457
H13 H 0.4997 0.0859 0.2303
C19 C 0.8090(4) 0.09764(9) -0.3004(12)
H14 H 0.8197 0.0917 -0.4392
C20 C 0.6032(3) 0.00728(8) 0.6852(11)
H15 H 0.5755 0.0023 0.5629
C21 C 0.7796(3) 0.11439(8) 0.1054(12)
H16 H 0.7701 0.1203 0.2456
C22 C 0.8420(4) 0.11933(10) -0.0253(15)
H17 H 0.8742 0.1284 0.0260
C23 C 0.6370(4) -0.00394(8) 0.8431(13)
H18 H 0.6325 -0.0163 0.8279
C24 C 0.8550(4) 0.11077(9) -0.2281(14)
H19 H 0.8964 0.1140 -0.3191
loop_
_geom_bond_atom_site_label_1
_geom_bond_atom_site_label_2
_geom_bond_site_symmetry_1
_geom_bond_site_symmetry_2
S1 C4 1_555 1_555
N1 C5 1_555 1_555
C1 C7 1_555 1_555
C2 C3 1_555 1_555
C3 H1 1_555 1_555
C4 C2 1_555 1_555
C5 C4 1_555 1_555
C6 H2 1_555 1_555
C7 S1 1_555 1_555
C8 C6 1_555 1_555
C9 H3 1_555 1_555
C10 C6 1_555 1_555
H4 C10 1_555 1_555
C11 C9 1_555 1_555
H5 C11 1_555 1_555
C12 C2 1_555 1_555
H6 C12 1_555 1_555
C13 C8 1_555 1_555
H7 C13 1_555 1_555
C14 H8 1_555 1_555
C15 C1 1_555 1_555
H9 C15 1_555 1_555
C16 C3 1_555 1_555
H10 C16 1_555 1_555
C17 C14 1_555 1_555
H11 C17 1_555 1_555
C18 C5 1_555 1_555
H12 C18 1_555 1_555
H13 C18 1_555 1_555
C19 C13 1_555 1_555
H14 C19 1_555 1_555
C20 C1 1_555 1_555
H15 C20 1_555 1_555
C21 C8 1_555 1_555
H16 C21 1_555 1_555
C22 C21 1_555 1_555
H17 C22 1_555 1_555
C23 C14 1_555 1_555
H18 C23 1_555 1_555
C24 C19 1_555 1_555
H19 C24 1_555 1_555
N1 C7 1_555 1_555
C9 C12 1_555 1_555
C10 C18 1_555 1_555
C11 C16 1_555 1_555
C15 C17 1_555 1_555
C20 C23 1_555 1_555
C22 C24 1_555 1_555

#END
