
#######################################################################
#
#                 Cambridge Crystallographic Data Centre
#                                CCDC 
#
#######################################################################
#
# If this CIF has been generated from an entry in the Cambridge 
# Structural Database, then it will include bibliographic, chemical, 
# crystal, experimental, refinement or atomic coordinate data resulting 
# from the CCDC's data processing and validation procedures.
#
#######################################################################

data_MUYFIX
_chemical_name_common            
'2-aminoanilinium 6-oxo-1,6-dihydropyridazine-3-carboxylate'
_chemical_formula_moiety         'C6 H9 N2 1+,C5 H3 N2 O3 1-'
_chemical_name_systematic        
'2-aminophenylammonium 6-oxo-1,6-dihydropyridazine-3-carboxylate'
_symmetry_cell_setting           monoclinic
_symmetry_space_group_name_H-M   'P 21/c'
_symmetry_Int_Tables_number      14
_space_group_name_Hall           '-P 2ybc'
loop_
_symmetry_equiv_pos_site_id
_symmetry_equiv_pos_as_xyz
1 x,y,z
2 -x,1/2+y,1/2-z
3 -x,-y,-z
4 x,1/2-y,1/2+z
_cell_length_a                   12.0039(6)
_cell_length_b                   9.5916(4)
_cell_length_c                   10.5824(5)
_cell_angle_alpha                90
_cell_angle_beta                 109.429(3)
_cell_angle_gamma                90
_cell_volume                     1149.04
_exptl_crystal_colour            colorless
_exptl_crystal_description       block
_cell_formula_units_Z            4
loop_
_atom_site_label
_atom_site_type_symbol
_atom_site_fract_x
_atom_site_fract_y
_atom_site_fract_z
H1 H 0.185(2) 0.679(3) 0.265(2)
H2 H 0.182(2) 0.530(2) 0.209(2)
H3 H 0.195(2) 0.555(3) 0.361(3)
H4 H 0.301(2) 0.735(3) 0.503(3)
H5 H 0.429(2) 0.796(3) 0.562(3)
C1 C 0.34776(17) 0.59039(18) 0.31614(18)
C2 C 0.41861(18) 0.67788(19) 0.41578(18)
C3 C 0.53926(19) 0.6823(2) 0.4325(2)
H6 H 0.5899 0.7415 0.4990
C4 C 0.5859(2) 0.6018(2) 0.3537(2)
H7 H 0.6676 0.6086 0.3648
C5 C 0.5151(2) 0.5119(2) 0.2592(2)
H8 H 0.5481 0.4545 0.2076
C6 C 0.39534(19) 0.5062(2) 0.24042(19)
H9 H 0.3457 0.4446 0.1756
N1 N 0.21972(15) 0.58922(16) 0.28794(16)
N2 N 0.37173(18) 0.76300(18) 0.49103(18)
H10 H 0.126(2) 0.646(3) 0.965(3)
C7 C 0.11680(16) 0.43724(18) 0.94630(18)
C8 C 0.10970(16) 0.33481(18) 0.84558(18)
H11 H 0.1024 0.2388 0.8636
C9 C 0.11341(16) 0.37562(18) 0.72408(18)
H12 H 0.1082 0.3087 0.6562
C10 C 0.12516(15) 0.51988(18) 0.69991(17)
C11 C 0.13975(16) 0.57476(18) 0.57266(17)
N3 N 0.12086(14) 0.57169(16) 0.90662(15)
N4 N 0.12807(13) 0.61546(15) 0.78917(14)
O1 O 0.12021(12) 0.41271(13) 1.06368(12)
O2 O 0.13618(11) 0.48772(12) 0.48287(12)
O3 O 0.15960(12) 0.70313(13) 0.56915(12)
loop_
_geom_bond_atom_site_label_1
_geom_bond_atom_site_label_2
_geom_bond_site_symmetry_1
_geom_bond_site_symmetry_2
H1 N1 1_555 1_555
H2 N1 1_555 1_555
H3 N1 1_555 1_555
H4 N2 1_555 1_555
H5 N2 1_555 1_555
C1 C2 1_555 1_555
C2 C3 1_555 1_555
C3 H6 1_555 1_555
C4 C3 1_555 1_555
H7 C4 1_555 1_555
C5 C4 1_555 1_555
H8 C5 1_555 1_555
C6 C1 1_555 1_555
H9 C6 1_555 1_555
N1 C1 1_555 1_555
N2 C2 1_555 1_555
H10 N3 1_555 1_555
C7 C8 1_555 1_555
C8 H11 1_555 1_555
C9 C8 1_555 1_555
H12 C9 1_555 1_555
C10 C9 1_555 1_555
C11 C10 1_555 1_555
N3 C7 1_555 1_555
N4 C10 1_555 1_555
O1 C7 1_555 1_555
O2 C11 1_555 1_555
O3 C11 1_555 1_555
C5 C6 1_555 1_555
N3 N4 1_555 1_555

#END
