
#######################################################################
#
#                 Cambridge Crystallographic Data Centre
#                                CCDC 
#
#######################################################################
#
# If this CIF has been generated from an entry in the Cambridge 
# Structural Database, then it will include bibliographic, chemical, 
# crystal, experimental, refinement or atomic coordinate data resulting 
# from the CCDC's data processing and validation procedures.
#
#######################################################################

data_MUYKAT
_chemical_formula_moiety         'C25 H25 N2 O3 S1'
_chemical_name_systematic        
((1-Hydroxy-4-methyl-3-phenyl-3,4-dihydro-2H-pyrrolium-2-yl)(phenyl)methyl)((4-methylphenyl)sulfonyl)azanide
_symmetry_cell_setting           monoclinic
_symmetry_space_group_name_H-M   'P 21'
_symmetry_Int_Tables_number      4
_space_group_name_Hall           'P 2yb'
loop_
_symmetry_equiv_pos_site_id
_symmetry_equiv_pos_as_xyz
1 x,y,z
2 -x,1/2+y,-z
_cell_length_a                   11.4394(6)
_cell_length_b                   8.7699(5)
_cell_length_c                   12.8160(7)
_cell_angle_alpha                90
_cell_angle_beta                 114.567(2)
_cell_angle_gamma                90
_cell_volume                     1169.34
_exptl_crystal_colour            colorless
_exptl_crystal_description       block
_cell_formula_units_Z            2
loop_
_atom_site_label
_atom_site_type_symbol
_atom_site_fract_x
_atom_site_fract_y
_atom_site_fract_z
S1 S -0.00745(7) -0.06885(10) 0.73482(6)
N1 N 0.0218(2) 0.0819(4) 0.67978(19)
O1 O -0.1445(2) -0.0747(4) 0.69336(19)
C1 C 0.0555(2) -0.0494(4) 0.8849(2)
C2 C 0.2408(3) 0.1747(4) 0.8123(2)
C3 C 0.3587(2) 0.1898(3) 0.6036(2)
C4 C 0.0393(3) 0.0532(5) 1.0507(3)
H1 H -0.0070 0.1068 1.0836
O2 O 0.0599(3) -0.1892(3) 0.7117(2)
C5 C 0.1530(2) 0.1218(4) 0.6921(2)
H2 H 0.1911 0.0300 0.6754
C6 C 0.1574(3) -0.0025(4) 1.1191(3)
C7 C 0.3300(3) 0.0536(4) 0.5428(2)
H3 H 0.2456 0.0327 0.4925
C8 C 0.1741(3) -0.1069(4) 0.9528(2)
H4 H 0.2202 -0.1618 0.9204
C9 C 0.2846(3) 0.4502(4) 0.6566(3)
H5 H 0.3442 0.4268 0.7357
N2 N 0.0760(3) 0.3806(4) 0.6181(3)
C10 C -0.0139(3) 0.0315(4) 0.9321(3)
H6 H -0.0944 0.0708 0.8859
C11 C 0.1318(3) 0.2383(4) 0.5956(2)
H7 H 0.0730 0.1952 0.5218
C12 C 0.2241(3) -0.0832(4) 1.0683(3)
H8 H 0.3049 -0.1221 1.1141
O3 O -0.0420(2) 0.3772(4) 0.6105(3)
C13 C 0.4255(3) -0.0513(5) 0.5560(3)
H9 H 0.4046 -0.1433 0.5165
C14 C 0.3644(3) 0.1151(4) 0.8641(3)
H10 H 0.3925 0.0450 0.8250
C15 C 0.2517(3) 0.3022(4) 0.5849(2)
H11 H 0.2219 0.3354 0.5050
C16 C 0.2008(3) 0.2765(4) 0.8729(3)
H12 H 0.1180 0.3163 0.8398
C17 C 0.4858(3) 0.2179(4) 0.6748(3)
H13 H 0.5080 0.3092 0.7152
C18 C 0.2834(4) 0.3192(5) 0.9826(3)
H14 H 0.2560 0.3889 1.0224
C19 C 0.4460(3) 0.1607(6) 0.9745(3)
H15 H 0.5294 0.1228 1.0085
C20 C 0.1565(5) 0.4876(5) 0.6530(4)
H16 H 0.1372 0.5822 0.6747
C21 C 0.5797(3) 0.1141(6) 0.6869(3)
H17 H 0.6645 0.1347 0.7364
C22 C 0.5499(4) -0.0202(5) 0.6266(4)
H18 H 0.6144 -0.0895 0.6341
C23 C 0.2152(4) 0.0256(8) 1.2479(3)
H19 H 0.1483 0.0237 1.2747
H20 H 0.2567 0.1233 1.2643
H21 H 0.2770 -0.0526 1.2861
C24 C 0.3404(5) 0.5764(5) 0.6102(4)
H22 H 0.2922 0.5840 0.5286
H23 H 0.4285 0.5535 0.6270
H24 H 0.3358 0.6714 0.6455
C25 C 0.4043(5) 0.2608(6) 1.0333(3)
H25 H 0.4584 0.2891 1.1078
loop_
_geom_bond_atom_site_label_1
_geom_bond_atom_site_label_2
_geom_bond_site_symmetry_1
_geom_bond_site_symmetry_2
S1 N1 1_555 1_555
N1 C5 1_555 1_555
O1 S1 1_555 1_555
C1 S1 1_555 1_555
C2 C5 1_555 1_555
C3 C7 1_555 1_555
C4 H1 1_555 1_555
O2 S1 1_555 1_555
C5 H2 1_555 1_555
C6 C4 1_555 1_555
C7 H3 1_555 1_555
C8 C1 1_555 1_555
H4 C8 1_555 1_555
C9 H5 1_555 1_555
N2 C11 1_555 1_555
C10 C1 1_555 1_555
H6 C10 1_555 1_555
C11 C5 1_555 1_555
H7 C11 1_555 1_555
C12 C6 1_555 1_555
H8 C12 1_555 1_555
O3 N2 1_555 1_555
C13 C7 1_555 1_555
H9 C13 1_555 1_555
C14 C2 1_555 1_555
H10 C14 1_555 1_555
C15 C3 1_555 1_555
H11 C15 1_555 1_555
C16 C2 1_555 1_555
H12 C16 1_555 1_555
C17 C3 1_555 1_555
H13 C17 1_555 1_555
C18 C16 1_555 1_555
H14 C18 1_555 1_555
C19 C14 1_555 1_555
H15 C19 1_555 1_555
C20 C9 1_555 1_555
H16 C20 1_555 1_555
C21 C17 1_555 1_555
H17 C21 1_555 1_555
C22 C13 1_555 1_555
H18 C22 1_555 1_555
C23 C6 1_555 1_555
H19 C23 1_555 1_555
H20 C23 1_555 1_555
H21 C23 1_555 1_555
C24 C9 1_555 1_555
H22 C24 1_555 1_555
H23 C24 1_555 1_555
H24 C24 1_555 1_555
C25 C18 1_555 1_555
H25 C25 1_555 1_555
C4 C10 1_555 1_555
C8 C12 1_555 1_555
C9 C15 1_555 1_555
N2 C20 1_555 1_555
C11 C15 1_555 1_555
C19 C25 1_555 1_555
C21 C22 1_555 1_555

#END
