
#######################################################################
#
#                 Cambridge Crystallographic Data Centre
#                                CCDC 
#
#######################################################################
#
# If this CIF has been generated from an entry in the Cambridge 
# Structural Database, then it will include bibliographic, chemical, 
# crystal, experimental, refinement or atomic coordinate data resulting 
# from the CCDC's data processing and validation procedures.
#
#######################################################################

data_MUYVUX
_chemical_formula_moiety         'C24 H27 N1 O2'
_chemical_name_systematic        
'benzyl 1-methyl-2-(4-methylphenyl)-4-(n-butyl)-1H-pyrrole-3-carboxylate'
_symmetry_cell_setting           monoclinic
_symmetry_space_group_name_H-M   'P 21/c'
_symmetry_Int_Tables_number      14
_space_group_name_Hall           '-P 2ybc'
loop_
_symmetry_equiv_pos_site_id
_symmetry_equiv_pos_as_xyz
1 x,y,z
2 -x,1/2+y,1/2-z
3 -x,-y,-z
4 x,1/2-y,1/2+z
_cell_length_a                   13.770(6)
_cell_length_b                   14.080(6)
_cell_length_c                   10.676(4)
_cell_angle_alpha                90
_cell_angle_beta                 96.425(5)
_cell_angle_gamma                90
_cell_volume                     2056.88
_exptl_crystal_colour            white
_exptl_crystal_description       prisms
_chemical_melting_point          96-98deg.C
_cell_formula_units_Z            4
_exptl_crystal_recrystallization_method 'hexane/ethyl acetate'
loop_
_atom_site_label
_atom_site_type_symbol
_atom_site_fract_x
_atom_site_fract_y
_atom_site_fract_z
N1 N 0.57753(19) 0.54340(16) 0.1371(2)
C1 C 0.60513(19) 0.62671(18) 0.0882(2)
C2 C 0.5405(2) 0.6949(2) 0.1223(2)
C3 C 0.4738(3) 0.6500(2) 0.1949(3)
C4 C 0.4990(3) 0.5576(2) 0.2004(3)
H1 H 0.4665 0.5097 0.2423
C5 C 0.6193(3) 0.4508(2) 0.1182(3)
H2 H 0.6907 0.4558 0.1261
H3 H 0.5955 0.4274 0.0338
H4 H 0.6000 0.4065 0.1817
C6 C 0.69055(19) 0.63105(18) 0.0185(2)
C7 C 0.6818(2) 0.65057(19) -0.1090(2)
H5 H 0.6190 0.6625 -0.1528
C8 C 0.7622(2) 0.6529(2) -0.1728(3)
H6 H 0.7544 0.6672 -0.2603
C9 C 0.8545(3) 0.6352(2) -0.1136(3)
C10 C 0.8632(2) 0.6164(3) 0.0137(4)
H7 H 0.9260 0.6046 0.0571
C11 C 0.7829(2) 0.6143(2) 0.0790(3)
H8 H 0.7910 0.6013 0.1669
C12 C 0.9429(3) 0.6388(3) -0.1854(4)
H9 H 0.9994 0.6119 -0.1335
H10 H 0.9567 0.7050 -0.2059
H11 H 0.9300 0.6021 -0.2634
O1 O 0.48244(15) 0.85175(14) 0.1238(2)
C13 C 0.5422(2) 0.7955(2) 0.0959(2)
O2 O 0.61948(13) 0.82172(12) 0.03906(17)
C14 C 0.6280(2) 0.9208(2) 0.0142(3)
H12 H 0.6222 0.9576 0.0920
H13 H 0.5748 0.9409 -0.0505
C15 C 0.7243(2) 0.9398(2) -0.0312(2)
C16 C 0.7417(3) 1.0290(2) -0.0757(3)
H14 H 0.6921 1.0762 -0.0790
C17 C 0.8307(3) 1.0503(3) -0.1154(3)
H15 H 0.8418 1.1121 -0.1465
C18 C 0.9027(3) 0.9846(3) -0.1111(3)
H16 H 0.9642 1.0003 -0.1382
C19 C 0.8861(2) 0.8957(3) -0.0673(3)
H17 H 0.9361 0.8489 -0.0644
C20 C 0.7971(2) 0.8735(2) -0.0273(3)
H18 H 0.7863 0.8115 0.0033
C21 C 0.3963(4) 0.6901(4) 0.2625(6)
H19 H 0.4132 0.6788 0.3538
H20 H 0.3945 0.7597 0.2490
C22 C 0.2989(7) 0.6517(10) 0.2248(17)
H21 H 0.2896 0.6559 0.1317
H22 H 0.3036 0.5831 0.2450
C23 C 0.2068(6) 0.6827(5) 0.2659(8)
H23 H 0.2167 0.6854 0.3591
H24 H 0.1961 0.7489 0.2360
C24 C 0.1218(11) 0.6355(17) 0.234(3)
H25 H 0.0667 0.6762 0.2497
H26 H 0.1208 0.5776 0.2851
H27 H 0.1164 0.6184 0.1446
H28? H 0.3839 0.6453 0.3303
H29? H 0.4213 0.7497 0.3035
C25? C 0.3202(12) 0.7072(8) 0.2025(10)
H30? H 0.3320 0.7276 0.1167
H31? H 0.2880 0.7603 0.2425
C26? C 0.2526(8) 0.6214(7) 0.1927(12)
H32? H 0.2450 0.5972 0.2781
H33? H 0.2814 0.5702 0.1452
C27? C 0.1453(12) 0.6510(12) 0.1206(17)
H34? H 0.1031 0.5949 0.1117
H35? H 0.1533 0.6766 0.0370
H36? H 0.1155 0.6994 0.1702
loop_
_geom_bond_atom_site_label_1
_geom_bond_atom_site_label_2
_geom_bond_site_symmetry_1
_geom_bond_site_symmetry_2
N1 C1 1_555 1_555
C1 C2 1_555 1_555
C2 C3 1_555 1_555
C3 C4 1_555 1_555
C4 N1 1_555 1_555
H1 C4 1_555 1_555
C5 N1 1_555 1_555
H2 C5 1_555 1_555
H3 C5 1_555 1_555
H4 C5 1_555 1_555
C6 C1 1_555 1_555
C7 C6 1_555 1_555
H5 C7 1_555 1_555
C8 C7 1_555 1_555
H6 C8 1_555 1_555
C9 C8 1_555 1_555
C10 C9 1_555 1_555
H7 C10 1_555 1_555
C11 C6 1_555 1_555
H8 C11 1_555 1_555
C12 C9 1_555 1_555
H9 C12 1_555 1_555
H10 C12 1_555 1_555
H11 C12 1_555 1_555
O1 C13 1_555 1_555
C13 C2 1_555 1_555
O2 C13 1_555 1_555
C14 O2 1_555 1_555
H12 C14 1_555 1_555
H13 C14 1_555 1_555
C15 C14 1_555 1_555
C16 C15 1_555 1_555
H14 C16 1_555 1_555
C17 C16 1_555 1_555
H15 C17 1_555 1_555
C18 C17 1_555 1_555
H16 C18 1_555 1_555
C19 C18 1_555 1_555
H17 C19 1_555 1_555
C20 C15 1_555 1_555
H18 C20 1_555 1_555
C21 C3 1_555 1_555
H19 C21 1_555 1_555
H20 C21 1_555 1_555
C22 C21 1_555 1_555
H21 C22 1_555 1_555
H22 C22 1_555 1_555
C23 C22 1_555 1_555
H23 C23 1_555 1_555
H24 C23 1_555 1_555
C24 C23 1_555 1_555
H25 C24 1_555 1_555
H26 C24 1_555 1_555
H27 C24 1_555 1_555
C10 C11 1_555 1_555
C19 C20 1_555 1_555

#END
