
#######################################################################
#
#                 Cambridge Crystallographic Data Centre
#                                CCDC 
#
#######################################################################
#
# If this CIF has been generated from an entry in the Cambridge 
# Structural Database, then it will include bibliographic, chemical, 
# crystal, experimental, refinement or atomic coordinate data resulting 
# from the CCDC's data processing and validation procedures.
#
#######################################################################

data_MUZMAX
_chemical_formula_moiety         'C12 H13 N1 O3'
_chemical_name_systematic        
8-((Dimethylamino)methyl)-7-hydroxy-2H-chromen-2-one
_symmetry_cell_setting           monoclinic
_symmetry_space_group_name_H-M   'P 21/c'
_symmetry_Int_Tables_number      14
_space_group_name_Hall           '-P 2ybc'
loop_
_symmetry_equiv_pos_site_id
_symmetry_equiv_pos_as_xyz
1 x,y,z
2 -x,1/2+y,1/2-z
3 -x,-y,-z
4 x,1/2-y,1/2+z
_cell_length_a                   10.228(2)
_cell_length_b                   8.9260(18)
_cell_length_c                   12.064(2)
_cell_angle_alpha                90
_cell_angle_beta                 91.85(3)
_cell_angle_gamma                90
_cell_volume                     1100.81
_cell_formula_units_Z            4
loop_
_atom_site_label
_atom_site_type_symbol
_atom_site_fract_x
_atom_site_fract_y
_atom_site_fract_z
N1 N 0.8808(2) 0.3047(3) 0.37150(19)
O1 O 0.49993(18) 0.1914(2) 0.44420(15)
C1 C 0.3768(3) 0.1356(3) 0.4648(3)
C2 C 0.3190(3) 0.1842(4) 0.5656(3)
H1 H 0.2378 0.1463 0.5837
O2 O 0.3291(2) 0.0535(3) 0.39523(18)
O3 O 0.86272(19) 0.5085(2) 0.52345(19)
H2 H 0.8981 0.4798 0.4643
C3 C 0.3785(3) 0.2824(3) 0.6341(2)
H3 H 0.3378 0.3121 0.6983
C4 C 0.5041(3) 0.3420(3) 0.6098(2)
C5 C 0.5631(3) 0.2926(3) 0.5133(2)
C6 C 0.5702(3) 0.4504(3) 0.6743(2)
H4 H 0.5327 0.4864 0.7383
C7 C 0.6891(3) 0.5035(3) 0.6440(2)
H5 H 0.7319 0.5753 0.6877
C8 C 0.7464(3) 0.4516(3) 0.5488(2)
C9 C 0.6831(3) 0.3450(3) 0.4799(2)
C10 C 0.7377(3) 0.2996(4) 0.3695(3)
H6 H 0.7088 0.1988 0.3513
H7 H 0.7035 0.3663 0.3121
C11 C 0.9294(4) 0.3181(5) 0.2596(3)
H8 H 1.0232 0.3218 0.2629
H9 H 0.8957 0.4082 0.2258
H10 H 0.9010 0.2332 0.2163
C12 C 0.9370(4) 0.1763(4) 0.4281(3)
H11 H 0.9039 0.1704 0.5016
H12 H 1.0305 0.1864 0.4326
H13 H 0.9140 0.0869 0.3879
loop_
_geom_bond_atom_site_label_1
_geom_bond_atom_site_label_2
_geom_bond_site_symmetry_1
_geom_bond_site_symmetry_2
N1 C10 1_555 1_555
O1 C1 1_555 1_555
C1 C2 1_555 1_555
C2 H1 1_555 1_555
O2 C1 1_555 1_555
O3 H2 1_555 1_555
C3 C2 1_555 1_555
H3 C3 1_555 1_555
C4 C3 1_555 1_555
C5 O1 1_555 1_555
C6 C4 1_555 1_555
H4 C6 1_555 1_555
C7 C6 1_555 1_555
H5 C7 1_555 1_555
C8 O3 1_555 1_555
C9 C5 1_555 1_555
C10 C9 1_555 1_555
H6 C10 1_555 1_555
H7 C10 1_555 1_555
C11 N1 1_555 1_555
H8 C11 1_555 1_555
H9 C11 1_555 1_555
H10 C11 1_555 1_555
C12 N1 1_555 1_555
H11 C12 1_555 1_555
H12 C12 1_555 1_555
H13 C12 1_555 1_555
C4 C5 1_555 1_555
C7 C8 1_555 1_555
C8 C9 1_555 1_555

#END
