
#######################################################################
#
#                 Cambridge Crystallographic Data Centre
#                                CCDC 
#
#######################################################################
#
# If this CIF has been generated from an entry in the Cambridge 
# Structural Database, then it will include bibliographic, chemical, 
# crystal, experimental, refinement or atomic coordinate data resulting 
# from the CCDC's data processing and validation procedures.
#
#######################################################################

data_MUZSOQ
_chemical_formula_moiety         'C29 H22 N2 O4'
_chemical_name_systematic        
'Tetracyclo[7.7.1.0^2,7^.0^10,15^]heptadeca-2,4,6,10,12,14-hexaene-8,16-diyl diisonicotinate'
_symmetry_cell_setting           orthorhombic
_symmetry_space_group_name_H-M   'P c c n'
_symmetry_Int_Tables_number      56
_space_group_name_Hall           '-P 2ab 2ac'
loop_
_symmetry_equiv_pos_site_id
_symmetry_equiv_pos_as_xyz
1 x,y,z
2 1/2-x,1/2-y,z
3 -x,1/2+y,1/2-z
4 1/2+x,-y,1/2-z
5 -x,-y,-z
6 1/2+x,1/2+y,-z
7 x,1/2-y,1/2+z
8 1/2-x,y,1/2+z
_cell_length_a                   10.4859(13)
_cell_length_b                   19.726(2)
_cell_length_c                   11.0776(13)
_cell_angle_alpha                90
_cell_angle_beta                 90
_cell_angle_gamma                90
_cell_volume                     2291.34
_exptl_crystal_colour            colorless
_exptl_crystal_description       needle
_cell_formula_units_Z            4
loop_
_atom_site_label
_atom_site_type_symbol
_atom_site_fract_x
_atom_site_fract_y
_atom_site_fract_z
C1 C 0.79478(10) 0.65789(5) 0.21446(9)
H1 H 0.7851 0.6206 0.1540
C2 C 0.85392(10) 0.71954(5) 0.15031(9)
H2 H 0.9254 0.7034 0.0979
C3 C 0.7500 0.7500 0.06939(12)
H3 H 0.7130 0.7144 0.0171
C4 C 0.66605(10) 0.67127(5) 0.27060(9)
C5 C 0.59399(10) 0.72797(5) 0.23801(9)
C6 C 0.47108(11) 0.73556(6) 0.28589(10)
H4 H 0.4206 0.7733 0.2623
C7 C 0.42191(11) 0.68878(6) 0.36733(10)
H5 H 0.3389 0.6949 0.3998
C8 C 0.49444(12) 0.63304(6) 0.40109(10)
H6 H 0.4616 0.6013 0.4577
C9 C 0.61535(11) 0.62366(6) 0.35187(10)
H7 H 0.6639 0.5848 0.3734
O1 O 0.87854(8) 0.63418(4) 0.31027(7)
C10 C 0.97044(10) 0.58971(5) 0.27901(9)
O2 O 0.98259(8) 0.56585(5) 0.17940(7)
C11 C 1.05568(10) 0.57323(5) 0.38299(9)
C12 C 1.02791(10) 0.59313(5) 0.50065(9)
H8 H 0.9554 0.6204 0.5178
C13 C 1.10921(11) 0.57204(6) 0.59238(9)
H9 H 1.0896 0.5851 0.6728
N1 N 1.21362(9) 0.53436(5) 0.57394(8)
C14 C 1.24094(10) 0.51745(5) 0.45941(9)
H10 H 1.3161 0.4919 0.4446
C15 C 1.16536(10) 0.53522(5) 0.36129(9)
H11 H 1.1878 0.5218 0.2817
C1A C 0.70522(10) 0.84211(5) 0.21446(9)
H1A H 0.7149 0.8794 0.1540
C2A C 0.64608(10) 0.78046(5) 0.15031(9)
H2A H 0.5746 0.7966 0.0979
H3A H 0.7870 0.7856 0.0171
C4A C 0.83395(10) 0.82873(5) 0.27060(9)
C5A C 0.90601(10) 0.77203(5) 0.23801(9)
C6A C 1.02892(11) 0.76444(6) 0.28589(10)
H4A H 1.0794 0.7267 0.2623
C7A C 1.07809(11) 0.81122(6) 0.36733(10)
H5A H 1.1611 0.8051 0.3998
C8A C 1.00556(12) 0.86696(6) 0.40109(10)
H6A H 1.0384 0.8987 0.4577
C9A C 0.88465(11) 0.87634(6) 0.35187(10)
H7A H 0.8361 0.9152 0.3734
O1A O 0.62146(8) 0.86582(4) 0.31027(7)
C10A C 0.52956(10) 0.91029(5) 0.27901(9)
O2A O 0.51741(8) 0.93415(5) 0.17940(7)
C11A C 0.44432(10) 0.92677(5) 0.38299(9)
C12A C 0.47209(10) 0.90687(5) 0.50065(9)
H8A H 0.5446 0.8796 0.5178
C13A C 0.39079(11) 0.92796(6) 0.59238(9)
H9A H 0.4104 0.9149 0.6728
N1A N 0.28638(9) 0.96564(5) 0.57394(8)
C14A C 0.25906(10) 0.98255(5) 0.45941(9)
H10A H 0.1839 1.0081 0.4446
C15A C 0.33464(10) 0.96478(5) 0.36129(9)
H11A H 0.3122 0.9782 0.2817
loop_
_geom_bond_atom_site_label_1
_geom_bond_atom_site_label_2
_geom_bond_site_symmetry_1
_geom_bond_site_symmetry_2
C1 H1 1_555 1_555
C2 C1 1_555 1_555
H2 C2 1_555 1_555
C3 C2 1_555 1_555
H3 C3 1_555 1_555
C4 C1 1_555 1_555
C5 C4 1_555 1_555
C6 C5 1_555 1_555
H4 C6 1_555 1_555
C7 C6 1_555 1_555
H5 C7 1_555 1_555
C8 C7 1_555 1_555
H6 C8 1_555 1_555
C9 C4 1_555 1_555
H7 C9 1_555 1_555
O1 C1 1_555 1_555
C10 O1 1_555 1_555
O2 C10 1_555 1_555
C11 C10 1_555 1_555
C12 C11 1_555 1_555
H8 C12 1_555 1_555
C13 C12 1_555 1_555
H9 C13 1_555 1_555
N1 C13 1_555 1_555
C14 N1 1_555 1_555
H10 C14 1_555 1_555
C15 C11 1_555 1_555
H11 C15 1_555 1_555
C1A H1A 1_555 1_555
C2A C3 1_555 1_555
H2A C2A 1_555 1_555
H3A C3 1_555 1_555
C4A C1A 1_555 1_555
C5A C2 1_555 1_555
C6A C5A 1_555 1_555
H4A C6A 1_555 1_555
C7A C6A 1_555 1_555
H5A C7A 1_555 1_555
C8A C7A 1_555 1_555
H6A C8A 1_555 1_555
C9A C4A 1_555 1_555
H7A C9A 1_555 1_555
O1A C1A 1_555 1_555
C10A O1A 1_555 1_555
O2A C10A 1_555 1_555
C11A C10A 1_555 1_555
C12A C11A 1_555 1_555
H8A C12A 1_555 1_555
C13A C12A 1_555 1_555
H9A C13A 1_555 1_555
N1A C13A 1_555 1_555
C14A N1A 1_555 1_555
H10A C14A 1_555 1_555
C15A C11A 1_555 1_555
H11A C15A 1_555 1_555
C5 C2A 1_555 1_555
C8 C9 1_555 1_555
C14 C15 1_555 1_555
C1A C2A 1_555 1_555
C4A C5A 1_555 1_555
C8A C9A 1_555 1_555
C14A C15A 1_555 1_555

#END
