
#######################################################################
#
#                 Cambridge Crystallographic Data Centre
#                                CCDC 
#
#######################################################################
#
# If this CIF has been generated from an entry in the Cambridge 
# Structural Database, then it will include bibliographic, chemical, 
# crystal, experimental, refinement or atomic coordinate data resulting 
# from the CCDC's data processing and validation procedures.
#
#######################################################################

data_MUZSIK
_chemical_formula_moiety         'C29 H22 N2 O4,C1 H2 Cl2'
_chemical_name_systematic        
'Tetracyclo[7.7.1.0^2,7^.0^10,15^]heptadeca-2,4,6,10,12,14-hexaene-8,16-diyl dinicotinate dichloromethane solvate'
_symmetry_cell_setting           orthorhombic
_symmetry_space_group_name_H-M   'F d d 2'
_symmetry_Int_Tables_number      43
_space_group_name_Hall           'F 2 -2d'
loop_
_symmetry_equiv_pos_site_id
_symmetry_equiv_pos_as_xyz
1 x,y,z
2 -x,-y,z
3 1/4+x,1/4-y,1/4+z
4 1/4-x,1/4+y,1/4+z
5 x,1/2+y,1/2+z
6 -x,1/2-y,1/2+z
7 1/4+x,3/4-y,3/4+z
8 1/4-x,3/4+y,3/4+z
9 1/2+x,y,1/2+z
10 1/2-x,-y,1/2+z
11 3/4+x,1/4-y,3/4+z
12 3/4-x,1/4+y,3/4+z
13 1/2+x,1/2+y,z
14 1/2-x,1/2-y,z
15 3/4+x,3/4-y,1/4+z
16 3/4-x,3/4+y,1/4+z
_cell_length_a                   9.9611(5)
_cell_length_b                   39.823(2)
_cell_length_c                   13.2737(7)
_cell_angle_alpha                90
_cell_angle_beta                 90
_cell_angle_gamma                90
_cell_volume                     5265.42
_exptl_crystal_colour            colorless
_exptl_crystal_description       block
_cell_formula_units_Z            8
loop_
_atom_site_label
_atom_site_type_symbol
_atom_site_fract_x
_atom_site_fract_y
_atom_site_fract_z
C1 C 0.05984(16) 0.54525(4) 0.83133(13)
H1 H 0.0448 0.5623 0.8856
C2 C 0.11325(15) 0.51289(4) 0.87911(13)
H2 H 0.1926 0.5185 0.9221
C3 C 0.0000 0.5000 0.94695(19)
H3 H 0.0334 0.4816 0.9906
C4 C 0.15538(15) 0.48705(4) 0.80116(13)
C5 C 0.07062(16) 0.46023(4) 0.77494(13)
C6 C 0.11042(19) 0.43758(4) 0.70017(15)
H4 H 0.0528 0.4195 0.6822
C7 C 0.2332(2) 0.44117(5) 0.65202(16)
H5 H 0.2588 0.4258 0.6007
C8 C 0.31837(19) 0.46712(5) 0.67892(16)
H6 H 0.4031 0.4694 0.6468
C9 C 0.27973(16) 0.48981(4) 0.75292(15)
H7 H 0.3388 0.5075 0.7711
O1 O 0.15852(12) 0.55826(3) 0.76069(10)
C10 C 0.2140(2) 0.58813(4) 0.77976(16)
O2 O 0.1875(2) 0.60527(4) 0.85088(16)
C11 C 0.31210(17) 0.59746(4) 0.70021(15)
C12 C 0.34827(17) 0.57566(4) 0.62357(14)
H8 H 0.3082 0.5540 0.6221
N1 N 0.43660(15) 0.58349(4) 0.55164(13)
C13 C 0.48963(19) 0.61436(4) 0.55428(15)
H9 H 0.5518 0.6204 0.5031
C14 C 0.4595(2) 0.63789(5) 0.62663(17)
H10 H 0.4990 0.6596 0.6247
C15 C 0.3699(2) 0.62922(5) 0.70270(18)
H11 H 0.3487 0.6446 0.7550
C1A C -0.05984(16) 0.45475(4) 0.83133(13)
H1A H -0.0448 0.4377 0.8856
C2A C -0.11325(15) 0.48711(4) 0.87911(13)
H2A H -0.1926 0.4815 0.9221
H3A H -0.0334 0.5184 0.9906
C4A C -0.15538(15) 0.51295(4) 0.80116(13)
C5A C -0.07062(16) 0.53977(4) 0.77494(13)
C6A C -0.11042(19) 0.56242(4) 0.70017(15)
H4A H -0.0528 0.5805 0.6822
C7A C -0.2332(2) 0.55883(5) 0.65202(16)
H5A H -0.2588 0.5742 0.6007
C8A C -0.31837(19) 0.53288(5) 0.67892(16)
H6A H -0.4031 0.5306 0.6468
C9A C -0.27973(16) 0.51019(4) 0.75292(15)
H7A H -0.3388 0.4925 0.7711
O1A O -0.15852(12) 0.44174(3) 0.76069(10)
C10A C -0.2140(2) 0.41187(4) 0.77976(16)
O2A O -0.1875(2) 0.39473(4) 0.85088(16)
C11A C -0.31210(17) 0.40254(4) 0.70021(15)
C12A C -0.34827(17) 0.42434(4) 0.62357(14)
H8A H -0.3082 0.4460 0.6221
N1A N -0.43660(15) 0.41651(4) 0.55164(13)
C13A C -0.48963(19) 0.38564(4) 0.55428(15)
H9A H -0.5518 0.3796 0.5031
C14A C -0.4595(2) 0.36211(5) 0.62663(17)
H10A H -0.4990 0.3404 0.6247
C15A C -0.3699(2) 0.37078(5) 0.70270(18)
H11A H -0.3487 0.3554 0.7550
C16 C 0.2500 0.7500 0.7882(3)
H12 H 0.3287 0.7541 0.8319
Cl1 Cl 0.27979(9) 0.714587(15) 0.71295(5)
H12M H 0.1713 0.7459 0.8319
Cl1M Cl 0.22021(9) 0.785413(15) 0.71295(5)
loop_
_geom_bond_atom_site_label_1
_geom_bond_atom_site_label_2
_geom_bond_site_symmetry_1
_geom_bond_site_symmetry_2
C1 H1 1_555 1_555
C2 C1 1_555 1_555
H2 C2 1_555 1_555
C3 C2 1_555 1_555
H3 C3 1_555 1_555
C4 C2 1_555 1_555
C5 C4 1_555 1_555
C6 C5 1_555 1_555
H4 C6 1_555 1_555
C7 C6 1_555 1_555
H5 C7 1_555 1_555
C8 C7 1_555 1_555
H6 C8 1_555 1_555
C9 C4 1_555 1_555
H7 C9 1_555 1_555
O1 C1 1_555 1_555
C10 O1 1_555 1_555
O2 C10 1_555 1_555
C11 C10 1_555 1_555
C12 C11 1_555 1_555
H8 C12 1_555 1_555
N1 C12 1_555 1_555
C13 N1 1_555 1_555
H9 C13 1_555 1_555
C14 C13 1_555 1_555
H10 C14 1_555 1_555
C15 C11 1_555 1_555
H11 C15 1_555 1_555
C16 H12 1_555 1_555
Cl1 C16 1_555 1_555
C1A C5 1_555 1_555
H1A C1A 1_555 1_555
C2A C3 1_555 1_555
H2A C2A 1_555 1_555
H3A C3 1_555 1_555
C4A C2A 1_555 1_555
C5A C1 1_555 1_555
C6A C5A 1_555 1_555
H4A C6A 1_555 1_555
C7A C6A 1_555 1_555
H5A C7A 1_555 1_555
C8A C7A 1_555 1_555
H6A C8A 1_555 1_555
C9A C4A 1_555 1_555
H7A C9A 1_555 1_555
O1A C1A 1_555 1_555
C10A O1A 1_555 1_555
O2A C10A 1_555 1_555
C11A C10A 1_555 1_555
C12A C11A 1_555 1_555
H8A C12A 1_555 1_555
N1A C12A 1_555 1_555
C13A N1A 1_555 1_555
H9A C13A 1_555 1_555
C14A C13A 1_555 1_555
H10A C14A 1_555 1_555
C15A C11A 1_555 1_555
H11A C15A 1_555 1_555
H12M C16 1_555 1_555
Cl1M C16 1_555 1_555
C8 C9 1_555 1_555
C14 C15 1_555 1_555
C1A C2A 1_555 1_555
C4A C5A 1_555 1_555
C8A C9A 1_555 1_555
C14A C15A 1_555 1_555

#END
