
#######################################################################
#
#                 Cambridge Crystallographic Data Centre
#                                CCDC 
#
#######################################################################
#
# If this CIF has been generated from an entry in the Cambridge 
# Structural Database, then it will include bibliographic, chemical, 
# crystal, experimental, refinement or atomic coordinate data resulting 
# from the CCDC's data processing and validation procedures.
#
#######################################################################

data_MUZSEH
_chemical_formula_moiety         'C21 H20 O8'
_chemical_name_systematic        
'3-acetoxy-4-(3-(4-acetoxyphenyl)propanoyl)-5-hydroxyphenyl acetate'
_symmetry_cell_setting           triclinic
_symmetry_space_group_name_H-M   'P -1'
_symmetry_Int_Tables_number      2
_space_group_name_Hall           '-P 1'
loop_
_symmetry_equiv_pos_site_id
_symmetry_equiv_pos_as_xyz
1 x,y,z
2 -x,-y,-z
_cell_length_a                   8.2007(16)
_cell_length_b                   8.9510(17)
_cell_length_c                   14.047(3)
_cell_angle_alpha                79.945(3)
_cell_angle_beta                 82.050(3)
_cell_angle_gamma                82.421(3)
_cell_volume                     999.361
_cell_formula_units_Z            2
loop_
_atom_site_label
_atom_site_type_symbol
_atom_site_fract_x
_atom_site_fract_y
_atom_site_fract_z
O1 O -0.0859(2) 0.6176(2) -0.26924(13)
O2 O 0.0602(4) 0.4336(3) -0.34728(18)
O3 O -0.1413(2) 0.9130(2) -0.01661(13)
O4 O 0.03171(19) 0.70685(19) 0.03504(10)
O5 O 0.4740(2) 0.6354(3) -0.22333(15)
H1 H 0.5310 0.6525 -0.1837
O6 O 0.5366(2) 0.6802(3) -0.06155(15)
O7 O 0.1201(3) 0.8281(3) 0.53313(17)
O8 O 0.3105(3) 0.9894(2) 0.47713(14)
C1 C -0.1930(4) 0.5625(5) -0.4041(2)
H2 H -0.2025 0.4752 -0.4332
H3 H -0.1680 0.6467 -0.4543
H4 H -0.2956 0.5896 -0.3660
C2 C -0.0581(4) 0.5257(4) -0.3405(2)
C3 C 0.0367(3) 0.6280(3) -0.21150(17)
C4 C -0.0220(3) 0.6573(3) -0.11824(17)
H5 H -0.1344 0.6605 -0.0960
C5 C 0.0889(3) 0.6812(2) -0.05991(16)
C6 C 0.2617(3) 0.6744(3) -0.08877(16)
C7 C 0.3138(3) 0.6445(3) -0.18510(18)
C8 C 0.2020(3) 0.6229(3) -0.24585(18)
H6 H 0.2387 0.6052 -0.3090
C9 C -0.0807(3) 0.8316(3) 0.04881(17)
C10 C -0.1104(3) 0.8477(4) 0.15320(18)
H7 H -0.0139 0.8793 0.1721
H8 H -0.1332 0.7514 0.1916
H9 H -0.2034 0.9227 0.1635
C11 C 0.3890(3) 0.6947(3) -0.02800(18)
C12 C 0.3458(3) 0.7346(3) 0.07268(18)
H10 H 0.2978 0.6499 0.1151
H11 H 0.2626 0.8225 0.0706
C13 C 0.4943(3) 0.7707(3) 0.11613(19)
H12 H 0.5727 0.6797 0.1249
H13 H 0.5492 0.8486 0.0710
C14 C 0.4436(3) 0.8255(3) 0.21279(18)
C15 C 0.4858(4) 0.7381(3) 0.2992(2)
H14 H 0.5462 0.6428 0.2979
C16 C 0.4397(4) 0.7898(4) 0.3875(2)
H15 H 0.4691 0.7296 0.4449
C17 C 0.3512(3) 0.9292(3) 0.3898(2)
C18 C 0.3107(4) 1.0191(4) 0.3050(2)
H16 H 0.2524 1.1153 0.3064
C19 C 0.3565(4) 0.9665(3) 0.2182(2)
H17 H 0.3278 1.0280 0.1612
C20 C 0.1921(3) 0.9316(3) 0.5443(2)
C21 C 0.1630(4) 1.0123(4) 0.6296(3)
H18 H 0.0871 0.9615 0.6791
H19 H 0.1169 1.1157 0.6103
H20 H 0.2661 1.0120 0.6548
loop_
_geom_bond_atom_site_label_1
_geom_bond_atom_site_label_2
_geom_bond_site_symmetry_1
_geom_bond_site_symmetry_2
O1 C2 1_555 1_555
O2 C2 1_555 1_555
O3 C9 1_555 1_555
O4 C5 1_555 1_555
O5 H1 1_555 1_555
O6 C11 1_555 1_555
O7 C20 1_555 1_555
O8 C17 1_555 1_555
C1 H2 1_555 1_555
H3 C1 1_555 1_555
H4 C1 1_555 1_555
C2 C1 1_555 1_555
C3 O1 1_555 1_555
C4 C3 1_555 1_555
H5 C4 1_555 1_555
C5 C4 1_555 1_555
C6 C5 1_555 1_555
C7 O5 1_555 1_555
C8 C3 1_555 1_555
H6 C8 1_555 1_555
C9 O4 1_555 1_555
C10 C9 1_555 1_555
H7 C10 1_555 1_555
H8 C10 1_555 1_555
H9 C10 1_555 1_555
C11 C6 1_555 1_555
C12 C11 1_555 1_555
H10 C12 1_555 1_555
H11 C12 1_555 1_555
C13 C12 1_555 1_555
H12 C13 1_555 1_555
H13 C13 1_555 1_555
C14 C13 1_555 1_555
C15 C14 1_555 1_555
H14 C15 1_555 1_555
C16 C15 1_555 1_555
H15 C16 1_555 1_555
C17 C16 1_555 1_555
C18 C17 1_555 1_555
H16 C18 1_555 1_555
C19 C14 1_555 1_555
H17 C19 1_555 1_555
C20 O8 1_555 1_555
C21 C20 1_555 1_555
H18 C21 1_555 1_555
H19 C21 1_555 1_555
H20 C21 1_555 1_555
C6 C7 1_555 1_555
C7 C8 1_555 1_555
C18 C19 1_555 1_555

#END
