
#######################################################################
#
#                 Cambridge Crystallographic Data Centre
#                                CCDC 
#
#######################################################################
#
# If this CIF has been generated from an entry in the Cambridge 
# Structural Database, then it will include bibliographic, chemical, 
# crystal, experimental, refinement or atomic coordinate data resulting 
# from the CCDC's data processing and validation procedures.
#
#######################################################################

data_MUZWUB01
_chemical_formula_moiety         'C3 H5 N2 1+,2(C1 H4 N2 S1),Cl1 1-'
_chemical_name_systematic        '1H-Imidazol-3-ium chloride bis(thiourea)'
_symmetry_cell_setting           orthorhombic
_symmetry_space_group_name_H-M   'C 2 2 21'
_symmetry_Int_Tables_number      20
_space_group_name_Hall           'C 2n 2'
loop_
_symmetry_equiv_pos_site_id
_symmetry_equiv_pos_as_xyz
1 x,y,z
2 -x,-y,1/2+z
3 -x,y,1/2-z
4 x,-y,-z
5 1/2+x,1/2+y,z
6 1/2-x,1/2-y,1/2+z
7 1/2-x,1/2+y,1/2-z
8 1/2+x,1/2-y,-z
_cell_length_a                   14.700(13)
_cell_length_b                   9.771(8)
_cell_length_c                   8.414(7)
_cell_angle_alpha                90
_cell_angle_beta                 90
_cell_angle_gamma                90
_cell_volume                     1208.53
_exptl_crystal_colour            colorless
_exptl_crystal_description       needlelike
_cell_formula_units_Z            4
loop_
_atom_site_label
_atom_site_type_symbol
_atom_site_fract_x
_atom_site_fract_y
_atom_site_fract_z
C2 C 0.9025(9) 0.4506(15) 1.0047(16)
H5 H 0.8413 0.4172 1.0133
C3 C 1.0563(11) 0.4628(15) 1.0252(19)
H6 H 1.1179 0.4396 1.0523
C4 C 1.0234(8) 0.5761(17) 0.9545(18)
H7 H 1.0607 0.6501 0.9170
N3 N 0.9798(9) 0.3890(13) 1.0505(15)
N4 N 0.9323(9) 0.5728(14) 0.9432(13)
H8 H 0.8963 0.6382 0.9017
H9 H 0.9799 0.3049 1.0943
C2C C 0.9025(9) 0.5494(15) 0.9953(16)
H5C H 0.8413 0.5828 0.9867
C3C C 1.0563(11) 0.5372(15) 0.9748(19)
H6C H 1.1179 0.5604 0.9477
C4C C 1.0234(8) 0.4239(17) 1.0455(18)
H7C H 1.0607 0.3499 1.0830
N3C N 0.9798(9) 0.6110(13) 0.9495(15)
N4C N 0.9323(9) 0.4272(14) 1.0568(13)
H8C H 0.8963 0.3618 1.0983
H9C H 0.9799 0.6951 0.9057
Cl1 Cl 1.0000 0.90122(8) 0.7500
C1 C 0.68259(17) 0.6765(3) 0.7546(6)
N1 N 0.6432(2) 0.6388(5) 0.8893(4)
H1 H 0.5961 0.5865 0.8872
H2 H 0.6646 0.6666 0.9787
N2 N 0.6471(2) 0.6310(5) 0.6198(4)
H3 H 0.6000 0.5788 0.6217
H4 H 0.6711 0.6537 0.5305
S1 S 0.77588(5) 0.78149(9) 0.75351(14)
loop_
_geom_bond_atom_site_label_1
_geom_bond_atom_site_label_2
_geom_bond_site_symmetry_1
_geom_bond_site_symmetry_2
C1 N1 1_555 1_555
N1 H1 1_555 1_555
H2 N1 1_555 1_555
N2 C1 1_555 1_555
H3 N2 1_555 1_555
H4 N2 1_555 1_555
S1 C1 1_555 1_555
C2 H5 1_555 1_555
C3 H6 1_555 1_555
C4 C3 1_555 1_555
H7 C4 1_555 1_555
N3 C2 1_555 1_555
N4 C2 1_555 1_555
H8 N4 1_555 1_555
H9 N3 1_555 1_555
C2C C2 1_555 1_555
H5C C2C 1_555 1_555
C3C C3 1_555 1_555
H6C C3C 1_555 1_555
C4C C3 1_555 1_555
H7C C3 1_555 1_555
N3C C4 1_555 1_555
N4C C2 1_555 1_555
H8C C2 1_555 1_555
H9C N3C 1_555 1_555
C3 N3 1_555 1_555
C4 N4 1_555 1_555
C4 C3C 1_555 1_555
C4 C4C 1_555 1_555
H7 C3C 1_555 1_555
H7 N3C 1_555 1_555
N3 C4C 1_555 1_555
N3 H7C 1_555 1_555
N3 N4C 1_555 1_555
N3 H8C 1_555 1_555
N4 C2C 1_555 1_555
N4 N3C 1_555 1_555
N4 N4C 1_555 1_555
H8 C2C 1_555 1_555
H8 N3C 1_555 1_555
C2C N3C 1_555 1_555
C2C N4C 1_555 1_555
C3C C4C 1_555 1_555
C3C N3C 1_555 1_555
C4C H7C 1_555 1_555
C4C N4C 1_555 1_555
N4C H8C 1_555 1_555

#END
