
#######################################################################
#
#                 Cambridge Crystallographic Data Centre
#                                CCDC 
#
#######################################################################
#
# If this CIF has been generated from an entry in the Cambridge 
# Structural Database, then it will include bibliographic, chemical, 
# crystal, experimental, refinement or atomic coordinate data resulting 
# from the CCDC's data processing and validation procedures.
#
#######################################################################

data_MUZXOV
_chemical_formula_moiety         'C13 H16 Cl1 N1 O3'
_chemical_name_systematic        6-Chloro-3-isopropyl-4-(nitromethyl)chromane
_symmetry_cell_setting           orthorhombic
_symmetry_space_group_name_H-M   'P 21 21 21'
_symmetry_Int_Tables_number      19
_space_group_name_Hall           'P 2ac 2ab'
loop_
_symmetry_equiv_pos_site_id
_symmetry_equiv_pos_as_xyz
1 x,y,z
2 1/2-x,-y,1/2+z
3 1/2+x,1/2-y,-z
4 -x,1/2+y,1/2-z
_cell_length_a                   6.3115(2)
_cell_length_b                   8.5544(2)
_cell_length_c                   24.7293(6)
_cell_angle_alpha                90
_cell_angle_beta                 90
_cell_angle_gamma                90
_cell_volume                     1335.16
_exptl_crystal_colour            colorless
_exptl_crystal_description       irregular
_cell_formula_units_Z            4
loop_
_atom_site_label
_atom_site_type_symbol
_atom_site_fract_x
_atom_site_fract_y
_atom_site_fract_z
Cl1 Cl 0.95467(9) 1.11102(5) 0.01994(2)
C1 C 0.7461(3) 0.6274(2) 0.13932(6)
C2 C 0.5707(3) 0.9702(2) 0.02009(8)
C3 C 0.4800(3) 0.7546(2) 0.07714(6)
C4 C 0.4255(3) 0.8620(2) 0.03735(7)
C5 C 0.7706(3) 0.9722(2) 0.04220(7)
O1 O 1.0559(3) 0.8072(2) 0.19853(6)
C6 C 0.6837(3) 0.75390(18) 0.09935(6)
C7 C 0.8300(3) 0.86442(19) 0.08097(6)
N1 N 0.8696(3) 0.81576(19) 0.21033(6)
C8 C 0.7288(4) 0.6809(3) 0.19825(7)
O2 O 0.7905(3) 0.92852(18) 0.23299(7)
O3 O 0.32487(18) 0.65210(15) 0.09130(5)
C9 C 0.6051(2) 0.4830(2) 0.12937(6)
C10 C 0.4985(3) 0.2045(3) 0.15362(11)
C11 C 0.8737(3) 0.2905(2) 0.16491(9)
C12 C 0.6436(3) 0.3429(2) 0.16706(7)
C13 C 0.3745(3) 0.5326(3) 0.12934(8)
H1 H 0.612(3) 0.375(2) 0.2045(7)
H2 H 0.974(3) 0.862(2) 0.0938(6)
H3 H 0.337(3) 0.572(2) 0.1656(9)
H4 H 0.897(3) 0.6020(19) 0.1329(6)
H5 H 0.975(3) 0.369(3) 0.1784(8)
H6 H 0.350(5) 0.228(3) 0.1605(10)
H7 H 0.522(4) 0.181(3) 0.1165(10)
H8 H 0.920(3) 0.267(3) 0.1277(10)
H9 H 0.594(4) 0.714(2) 0.2067(8)
H10 H 0.634(3) 0.454(2) 0.0946(8)
H11 H 0.284(3) 0.862(2) 0.0221(8)
H12 H 0.776(4) 0.604(3) 0.2218(10)
H13 H 0.891(4) 0.191(3) 0.1847(10)
H14 H 0.528(3) 1.028(2) -0.0022(8)
H15 H 0.289(3) 0.448(2) 0.1185(8)
H16 H 0.538(4) 0.106(3) 0.1746(11)
loop_
_geom_bond_atom_site_label_1
_geom_bond_atom_site_label_2
_geom_bond_site_symmetry_1
_geom_bond_site_symmetry_2
Cl1 C5 1_555 1_555
C1 C6 1_555 1_555
C2 C4 1_555 1_555
C3 C4 1_555 1_555
C4 H11 1_555 1_555
C5 C2 1_555 1_555
O1 N1 1_555 1_555
C6 C3 1_555 1_555
C7 C5 1_555 1_555
N1 C8 1_555 1_555
C8 C1 1_555 1_555
O2 N1 1_555 1_555
O3 C3 1_555 1_555
C9 C1 1_555 1_555
C10 C12 1_555 1_555
C11 C12 1_555 1_555
C12 C9 1_555 1_555
C13 O3 1_555 1_555
H1 C12 1_555 1_555
H2 C7 1_555 1_555
H3 C13 1_555 1_555
H4 C1 1_555 1_555
H5 C11 1_555 1_555
H6 C10 1_555 1_555
H7 C10 1_555 1_555
H8 C11 1_555 1_555
H9 C8 1_555 1_555
H10 C9 1_555 1_555
H12 C8 1_555 1_555
H13 C11 1_555 1_555
H14 C2 1_555 1_555
H15 C13 1_555 1_555
H16 C10 1_555 1_555
C6 C7 1_555 1_555
C9 C13 1_555 1_555

#END
