
#######################################################################
#
#                 Cambridge Crystallographic Data Centre
#                                CCDC 
#
#######################################################################
#
# If this CIF has been generated from an entry in the Cambridge 
# Structural Database, then it will include bibliographic, chemical, 
# crystal, experimental, refinement or atomic coordinate data resulting 
# from the CCDC's data processing and validation procedures.
#
#######################################################################

data_MUZYIP
_chemical_formula_moiety         'C34 H40 N3 O2 1+,N1 O3 1-'
_chemical_name_systematic        
'1,12-Dibenzyl-1,12-diaza-15-azonia-3,4:9,10-dibenzo-5,8-dioxacycloheptadecane nitrate'
_symmetry_cell_setting           monoclinic
_symmetry_space_group_name_H-M   'P 21/n'
_symmetry_Int_Tables_number      14
_space_group_name_Hall           '-P 2yn'
loop_
_symmetry_equiv_pos_site_id
_symmetry_equiv_pos_as_xyz
1 x,y,z
2 1/2-x,1/2+y,1/2-z
3 -x,-y,-z
4 1/2+x,1/2-y,1/2+z
_cell_length_a                   14.9322(10)
_cell_length_b                   12.2162(8)
_cell_length_c                   17.4693(11)
_cell_angle_alpha                90
_cell_angle_beta                 105.9970(10)
_cell_angle_gamma                90
_cell_volume                     3063.26
_exptl_crystal_colour            colorless
_exptl_crystal_description       plate
_cell_formula_units_Z            4
loop_
_atom_site_label
_atom_site_type_symbol
_atom_site_fract_x
_atom_site_fract_y
_atom_site_fract_z
O1 O 0.61013(7) 0.81470(9) 0.30423(7)
O2 O 0.55966(7) 0.61015(8) 0.21973(6)
N1 N 0.46479(9) 0.87260(10) 0.13059(7)
N2 N 0.37540(8) 0.66010(9) 0.07866(7)
N3 N 0.42590(8) 0.91435(9) 0.28136(7)
C1 C 0.67523(11) 0.73529(14) 0.29160(10)
H1 H 0.7323 0.7401 0.3335
H2 H 0.6888 0.7493 0.2419
C2 C 0.63451(12) 0.62429(14) 0.29058(9)
H3 H 0.6816 0.5700 0.2925
H4 H 0.6118 0.6149 0.3365
C3 C 0.53155(10) 0.50443(12) 0.19980(9)
C4 C 0.56261(12) 0.41470(14) 0.24906(11)
H5 H 0.6032 0.4251 0.3017
C5 C 0.53461(14) 0.31048(15) 0.22170(13)
H6 H 0.5576 0.2485 0.2552
C6 C 0.47493(15) 0.29421(15) 0.14790(14)
H7 H 0.4554 0.2216 0.1298
C7 C 0.44288(12) 0.38339(13) 0.09951(11)
H8 H 0.4002 0.3719 0.0479
C8 C 0.47079(10) 0.48928(12) 0.12367(9)
C9 C 0.44529(10) 0.58245(12) 0.06600(9)
H9 H 0.5010 0.6226 0.0676
H10 H 0.4226 0.5525 0.0134
C10 C 0.28480(10) 0.60314(12) 0.06295(10)
H11 H 0.2921 0.5401 0.0970
H12 H 0.2674 0.5776 0.0089
C11 C 0.20724(9) 0.67255(12) 0.07582(9)
C12 C 0.14140(11) 0.71902(15) 0.01263(10)
H13 H 0.1464 0.7085 -0.0405
C13 C 0.06848(12) 0.78022(16) 0.02422(12)
H14 H 0.0231 0.8111 -0.0206
C14 C 0.06098(12) 0.79686(14) 0.09980(12)
H15 H 0.0106 0.8396 0.1082
C15 C 0.12587(12) 0.75208(15) 0.16336(11)
H16 H 0.1211 0.7640 0.2164
C16 C 0.19793(11) 0.68998(14) 0.15138(10)
H17 H 0.2424 0.6583 0.1964
C17 C 0.36909(10) 0.75203(12) 0.02382(9)
H18 H 0.3133 0.7927 0.0211
H19 H 0.3647 0.7242 -0.0285
C18 C 0.45168(11) 0.82776(13) 0.04869(9)
H20 H 0.5069 0.7888 0.0468
H21 H 0.4433 0.8874 0.0116
C19 C 0.38960(11) 0.94842(14) 0.13802(9)
H22 H 0.3319 0.9090 0.1286
H23 H 0.3817 1.0052 0.0988
C20 C 0.41372(11) 0.99864(12) 0.22015(9)
H24 H 0.4701 1.0403 0.2287
H25 H 0.3649 1.0477 0.2240
C21 C 0.33666(10) 0.87929(13) 0.29247(11)
H26 H 0.2925 0.8709 0.2412
H27 H 0.3138 0.9354 0.3207
C22 C 0.34271(10) 0.77339(12) 0.33760(10)
C23 C 0.38817(11) 0.68352(13) 0.31779(11)
H28 H 0.4200 0.6901 0.2772
C24 C 0.38807(13) 0.58473(14) 0.35585(12)
H29 H 0.4193 0.5228 0.3412
C25 C 0.34353(14) 0.57439(16) 0.41474(13)
H30 H 0.3433 0.5052 0.4408
C26 C 0.29982(15) 0.66244(18) 0.43598(13)
H31 H 0.2694 0.6557 0.4775
C27 C 0.29931(13) 0.76205(16) 0.39751(12)
H32 H 0.2684 0.8238 0.4128
C28 C 0.48790(10) 0.94742(13) 0.35858(9)
H33 H 0.4946 0.8868 0.3947
H34 H 0.4587 1.0059 0.3795
C29 C 0.58338(10) 0.98431(12) 0.35674(8)
C30 C 0.61550(11) 1.08632(13) 0.38636(10)
H35 H 0.5753 1.1333 0.4061
C31 C 0.70401(12) 1.12253(14) 0.38839(11)
H36 H 0.7250 1.1935 0.4094
C32 C 0.76094(12) 1.05575(15) 0.36011(10)
H37 H 0.8222 1.0806 0.3608
C33 C 0.73188(11) 0.95296(15) 0.33050(9)
H38 H 0.7726 0.9068 0.3108
C34 C 0.64343(10) 0.91682(12) 0.32946(8)
H39 H 0.5213(14) 0.9125(16) 0.1409(11)
H40 H 0.4683(13) 0.7903(15) 0.1840(12)
N4 N 0.66705(10) 0.96054(14) 0.09921(9)
O3 O 0.60730(11) 1.01433(13) 0.12048(9)
O4 O 0.71944(11) 1.00717(15) 0.06644(9)
O5 O 0.67186(13) 0.86310(15) 0.11276(15)
loop_
_geom_bond_atom_site_label_1
_geom_bond_atom_site_label_2
_geom_bond_site_symmetry_1
_geom_bond_site_symmetry_2
O1 C1 1_555 1_555
O2 C2 1_555 1_555
N1 C18 1_555 1_555
N2 C9 1_555 1_555
N3 C20 1_555 1_555
C1 H1 1_555 1_555
H2 C1 1_555 1_555
C2 C1 1_555 1_555
H3 C2 1_555 1_555
H4 C2 1_555 1_555
C3 O2 1_555 1_555
C4 C3 1_555 1_555
H5 C4 1_555 1_555
C5 C4 1_555 1_555
H6 C5 1_555 1_555
C6 C5 1_555 1_555
H7 C6 1_555 1_555
C7 C6 1_555 1_555
H8 C7 1_555 1_555
C8 C3 1_555 1_555
C9 C8 1_555 1_555
H9 C9 1_555 1_555
H10 C9 1_555 1_555
C10 N2 1_555 1_555
H11 C10 1_555 1_555
H12 C10 1_555 1_555
C11 C10 1_555 1_555
C12 C11 1_555 1_555
H13 C12 1_555 1_555
C13 C12 1_555 1_555
H14 C13 1_555 1_555
C14 C13 1_555 1_555
H15 C14 1_555 1_555
C15 C14 1_555 1_555
H16 C15 1_555 1_555
C16 C11 1_555 1_555
H17 C16 1_555 1_555
C17 N2 1_555 1_555
H18 C17 1_555 1_555
H19 C17 1_555 1_555
C18 C17 1_555 1_555
H20 C18 1_555 1_555
H21 C18 1_555 1_555
C19 N1 1_555 1_555
H22 C19 1_555 1_555
H23 C19 1_555 1_555
C20 C19 1_555 1_555
H24 C20 1_555 1_555
H25 C20 1_555 1_555
C21 N3 1_555 1_555
H26 C21 1_555 1_555
H27 C21 1_555 1_555
C22 C21 1_555 1_555
C23 C22 1_555 1_555
H28 C23 1_555 1_555
C24 C23 1_555 1_555
H29 C24 1_555 1_555
C25 C24 1_555 1_555
H30 C25 1_555 1_555
C26 C25 1_555 1_555
H31 C26 1_555 1_555
C27 C22 1_555 1_555
H32 C27 1_555 1_555
C28 N3 1_555 1_555
H33 C28 1_555 1_555
H34 C28 1_555 1_555
C29 C28 1_555 1_555
C30 C29 1_555 1_555
H35 C30 1_555 1_555
C31 C30 1_555 1_555
H36 C31 1_555 1_555
C32 C31 1_555 1_555
H37 C32 1_555 1_555
C33 C32 1_555 1_555
H38 C33 1_555 1_555
C34 O1 1_555 1_555
H39 N1 1_555 1_555
H40 N1 1_555 1_555
N4 O3 1_555 1_555
O4 N4 1_555 1_555
O5 N4 1_555 1_555
C7 C8 1_555 1_555
C15 C16 1_555 1_555
C26 C27 1_555 1_555
C29 C34 1_555 1_555
C33 C34 1_555 1_555

#END
