
#######################################################################
#
#                 Cambridge Crystallographic Data Centre
#                                CCDC 
#
#######################################################################
#
# If this CIF has been generated from an entry in the Cambridge 
# Structural Database, then it will include bibliographic, chemical, 
# crystal, experimental, refinement or atomic coordinate data resulting 
# from the CCDC's data processing and validation procedures.
#
#######################################################################

data_MXCINN02
_chemical_name_common            '(E)-4-Methoxycinnamic acid'
_chemical_formula_moiety         'C10 H10 O3'
_chemical_name_systematic        '(E)-3-(4-Methoxyphenyl)prop-2-enoic acid'
_chemical_properties_biological  
'potent microbial a-glucosidase inhibitory activity'
_symmetry_cell_setting           triclinic
_symmetry_space_group_name_H-M   'P -1'
_symmetry_Int_Tables_number      2
_space_group_name_Hall           '-P 1'
loop_
_symmetry_equiv_pos_site_id
_symmetry_equiv_pos_as_xyz
1 x,y,z
2 -x,-y,-z
_cell_length_a                   4.845(2)
_cell_length_b                   8.348(4)
_cell_length_c                   11.808(6)
_cell_angle_alpha                109.015(6)
_cell_angle_beta                 91.841(5)
_cell_angle_gamma                99.284(6)
_cell_volume                     443.773
_exptl_crystal_colour            colorless
_exptl_crystal_description       column
_chemical_melting_point          '447-448 K'
_cell_formula_units_Z            2
_exptl_crystal_recrystallization_method ethanol
loop_
_atom_site_label
_atom_site_type_symbol
_atom_site_fract_x
_atom_site_fract_y
_atom_site_fract_z
O1 O -0.2304(3) 0.07587(16) 0.61500(12)
H1 H -0.3724 0.0054 0.5825
O2 O -0.3198(3) 0.16549(17) 0.46180(12)
O3 O 1.1788(3) 0.85798(17) 0.90787(12)
C1 C -0.1709(4) 0.1771(2) 0.55579(16)
C2 C 0.0744(4) 0.3142(2) 0.59630(17)
H2 H 0.1166 0.3859 0.5508
C3 C 0.2402(4) 0.3420(2) 0.69431(16)
H3 H 0.1948 0.2659 0.7363
C4 C 0.4855(3) 0.4771(2) 0.74486(15)
C5 C 0.5790(4) 0.6020(2) 0.69338(16)
H4 H 0.4834 0.5989 0.6229
C6 C 0.8084(4) 0.7298(2) 0.74382(16)
H5 H 0.8671 0.8110 0.7072
C7 C 0.9526(4) 0.7375(2) 0.84959(16)
C8 C 0.8631(4) 0.6141(2) 0.90165(17)
H6 H 0.9584 0.6177 0.9723
C9 C 0.6352(4) 0.4864(2) 0.85002(17)
H7 H 0.5794 0.4042 0.8862
C10 C 1.2667(5) 0.9952(3) 0.8624(2)
H8 H 1.4286 1.0708 0.9115
H9 H 1.1173 1.0586 0.8641
H10 H 1.3133 0.9486 0.7812
loop_
_geom_bond_atom_site_label_1
_geom_bond_atom_site_label_2
_geom_bond_site_symmetry_1
_geom_bond_site_symmetry_2
O1 H1 1_555 1_555
O2 C1 1_555 1_555
O3 C7 1_555 1_555
C1 O1 1_555 1_555
C2 C1 1_555 1_555
H2 C2 1_555 1_555
C3 C2 1_555 1_555
H3 C3 1_555 1_555
C4 C3 1_555 1_555
C5 C4 1_555 1_555
H4 C5 1_555 1_555
C6 C5 1_555 1_555
H5 C6 1_555 1_555
C7 C6 1_555 1_555
C8 C7 1_555 1_555
H6 C8 1_555 1_555
C9 C4 1_555 1_555
H7 C9 1_555 1_555
C10 O3 1_555 1_555
H8 C10 1_555 1_555
H9 C10 1_555 1_555
H10 C10 1_555 1_555
C8 C9 1_555 1_555

#END
