
#######################################################################
#
#                 Cambridge Crystallographic Data Centre
#                                CCDC 
#
#######################################################################
#
# If this CIF has been generated from an entry in the Cambridge 
# Structural Database, then it will include bibliographic, chemical, 
# crystal, experimental, refinement or atomic coordinate data resulting 
# from the CCDC's data processing and validation procedures.
#
#######################################################################

data_MXHPYB10
_chemical_formula_moiety         'C26 H32 O4'
_chemical_name_systematic        
4,6-Di-t-butyl-2,3-di(methoxycarbonyl)-7-heptatrienylidene-bicyclo(2.2.1)hept-2,5-diene
_symmetry_cell_setting           triclinic
_symmetry_space_group_name_H-M   'P -1'
_symmetry_Int_Tables_number      2
_space_group_name_Hall           '-P 1'
loop_
_symmetry_equiv_pos_site_id
_symmetry_equiv_pos_as_xyz
1 x,y,z
2 -x,-y,-z
_cell_length_a                   9.787(1)
_cell_length_b                   14.669(1)
_cell_length_c                   9.117(1)
_cell_angle_alpha                109.40(1)
_cell_angle_beta                 109.01(1)
_cell_angle_gamma                87.54(1)
_cell_volume                     1164.11
_cell_formula_units_Z            2
loop_
_atom_site_label
_atom_site_type_symbol
_atom_site_fract_x
_atom_site_fract_y
_atom_site_fract_z
C1 C 0.58780 -0.24860 -0.04610
C2 C 0.24760 -0.36480 0.08630
C3 C 0.20870 -0.32480 -0.02890
C4 C 0.31950 -0.23880 0.03150
C5 C 0.29960 -0.16710 0.18540
C6 C 0.33810 -0.20730 0.30230
C7 C 0.31650 -0.16540 0.46660
C8 C 0.39790 -0.04720 0.73110
C9 C 0.24060 -0.07230 0.18850
C10 C 0.14970 0.06620 0.34100
C11 C 0.08200 -0.34890 -0.18610
C12 C 0.68780 -0.18500 -0.03350
C13 C 0.00380 -0.25760 -0.19380
C14 C 0.13900 -0.38460 -0.33090
C15 C -0.02220 -0.42640 -0.19740
C16 C 0.46410 -0.36820 0.33940
C17 C 0.49460 -0.46650 0.23450
C18 C 0.36670 -0.38770 0.42920
C19 C 0.60390 -0.31290 0.47000
C20 C 0.81400 -0.14150 0.10760
C21 C 0.88390 -0.18180 0.22050
C22 C 0.84850 -0.27540 0.22140
C23 C 0.71720 -0.32180 0.16120
C24 C 0.58100 -0.28330 0.08560
C25 C 0.45620 -0.28180 0.11440
C26 C 0.38560 -0.31110 0.22540
H1 H 0.50300 -0.27900 -0.15800
H2 H 0.20100 -0.41600 0.09400
H3 H 0.33000 -0.21100 -0.03700
H4 H 0.48100 -0.02200 0.78900
H5 H 0.30900 -0.09400 0.73000
H6 H 0.33500 -0.00300 0.69600
H7 H 0.23800 0.11100 0.36200
H8 H 0.12600 0.08300 0.43200
H9 H 0.08500 0.06600 0.25200
H10 H 0.67000 -0.17100 -0.12800
H11 H 0.06400 -0.20900 -0.17800
H12 H -0.03900 -0.24600 -0.10100
H13 H -0.08000 -0.28300 -0.29700
H14 H 0.06000 -0.40200 -0.43100
H15 H 0.18300 -0.45300 -0.34400
H16 H 0.19400 -0.33900 -0.32900
H17 H 0.03400 -0.49100 -0.20400
H18 H -0.10900 -0.44100 -0.30800
H19 H -0.06300 -0.40600 -0.11500
H20 H 0.40100 -0.51400 0.17300
H21 H 0.55700 -0.50000 0.29200
H22 H 0.53400 -0.46600 0.15000
H23 H 0.41000 -0.43200 0.49500
H24 H 0.26000 -0.41200 0.34900
H25 H 0.35400 -0.33700 0.50800
H26 H 0.58200 -0.25300 0.53700
H27 H 0.67300 -0.30300 0.42100
H28 H 0.65500 -0.35200 0.54400
H29 H 0.85200 -0.08400 0.11000
H30 H 0.97100 -0.15800 0.29500
H31 H 0.93100 -0.31100 0.27400
H32 H 0.70900 -0.38500 0.17800
O1 O 0.21250 -0.18660 0.49350
O2 O 0.42280 -0.10140 0.57460
O3 O 0.20700 -0.02850 0.32450
O4 O 0.22570 -0.03840 0.08230
loop_
_geom_bond_atom_site_label_1
_geom_bond_atom_site_label_2
_geom_bond_site_symmetry_1
_geom_bond_site_symmetry_2
C1 C12 1_555 1_555
C2 C3 1_555 1_555
C3 C4 1_555 1_555
C4 C5 1_555 1_555
C5 C6 1_555 1_555
C6 C7 1_555 1_555
C7 O1 1_555 1_555
C8 H4 1_555 1_555
C9 C5 1_555 1_555
C10 H7 1_555 1_555
C11 C3 1_555 1_555
C12 C20 1_555 1_555
C13 C11 1_555 1_555
C14 C11 1_555 1_555
C15 C11 1_555 1_555
C16 C17 1_555 1_555
C17 H20 1_555 1_555
C18 C16 1_555 1_555
C19 C16 1_555 1_555
C20 C21 1_555 1_555
C21 C22 1_555 1_555
C22 C23 1_555 1_555
C23 C24 1_555 1_555
C24 C1 1_555 1_555
C25 C4 1_555 1_555
C26 C2 1_555 1_555
H1 C1 1_555 1_555
H2 C2 1_555 1_555
H3 C4 1_555 1_555
H5 C8 1_555 1_555
H6 C8 1_555 1_555
H8 C10 1_555 1_555
H9 C10 1_555 1_555
H10 C12 1_555 1_555
H11 C13 1_555 1_555
H12 C13 1_555 1_555
H13 C13 1_555 1_555
H14 C14 1_555 1_555
H15 C14 1_555 1_555
H16 C14 1_555 1_555
H17 C15 1_555 1_555
H18 C15 1_555 1_555
H19 C15 1_555 1_555
H21 C17 1_555 1_555
H22 C17 1_555 1_555
H23 C18 1_555 1_555
H24 C18 1_555 1_555
H25 C18 1_555 1_555
H26 C19 1_555 1_555
H27 C19 1_555 1_555
H28 C19 1_555 1_555
H29 C20 1_555 1_555
H30 C21 1_555 1_555
H31 C22 1_555 1_555
H32 C23 1_555 1_555
O2 C7 1_555 1_555
O3 C9 1_555 1_555
O4 C9 1_555 1_555
C6 C26 1_555 1_555
C8 O2 1_555 1_555
C10 O3 1_555 1_555
C16 C26 1_555 1_555
C24 C25 1_555 1_555
C25 C26 1_555 1_555

#END
