
#######################################################################
#
#                 Cambridge Crystallographic Data Centre
#                                CCDC 
#
#######################################################################
#
# If this CIF has been generated from an entry in the Cambridge 
# Structural Database, then it will include bibliographic, chemical, 
# crystal, experimental, refinement or atomic coordinate data resulting 
# from the CCDC's data processing and validation procedures.
#
#######################################################################

data_MXMOCG10
_chemical_formula_moiety         'C9 H16 O3'
_chemical_name_systematic        
2,4-Dimethyl-2-methoxy-3,8-dioxabicyclo(3.2.1)octane
_symmetry_cell_setting           monoclinic
_symmetry_space_group_name_H-M   'P 21/n'
_symmetry_Int_Tables_number      14
_space_group_name_Hall           '-P 2yn'
loop_
_symmetry_equiv_pos_site_id
_symmetry_equiv_pos_as_xyz
1 x,y,z
2 1/2-x,1/2+y,1/2-z
3 -x,-y,-z
4 1/2+x,1/2-y,1/2+z
_cell_length_a                   6.896(2)
_cell_length_b                   15.044(3)
_cell_length_c                   8.860(2)
_cell_angle_alpha                90
_cell_angle_beta                 91.62(2)
_cell_angle_gamma                90
_cell_volume                     918.799
_exptl_crystal_colour            colorless
_chemical_melting_point          55-6deg.C
_cell_formula_units_Z            4
loop_
_atom_site_label
_atom_site_type_symbol
_atom_site_fract_x
_atom_site_fract_y
_atom_site_fract_z
O1 O 0.89200 0.30900 0.74200
O2 O 0.73670 0.37570 0.46680
O3 O 0.93200 0.22034 0.52740
C1 C 0.79760 0.25140 0.63460
C2 C 0.64560 0.30350 0.54520
C3 C 0.50180 0.35090 0.64170
C4 C 0.60170 0.43850 0.68240
C5 C 0.78490 0.43310 0.59250
C6 C 0.95450 0.39130 0.67720
C7 C 0.71340 0.17500 0.72590
C8 C 1.04270 0.44580 0.80360
C9 C 1.09320 0.17280 0.58540
H1 H 0.57600 0.26400 0.47100
H2 H 0.48200 0.31600 0.73500
H3 H 0.37900 0.35900 0.59600
H4 H 0.62700 0.44500 0.79000
H5 H 0.52000 0.48900 0.65300
H6 H 0.82300 0.49200 0.55700
H7 H 1.05900 0.37900 0.60800
H8 H 0.68300 0.19300 0.82600
H9 H 0.60000 0.15100 0.67800
H10 H 0.80800 0.12700 0.73600
H11 H 1.16100 0.41900 0.83900
H12 H 1.07000 0.50500 0.76900
H13 H 0.95800 0.44900 0.88500
H14 H 1.06900 0.10900 0.58600
H15 H 1.20600 0.18300 0.52800
H16 H 1.12400 0.19000 0.68900
loop_
_geom_bond_atom_site_label_1
_geom_bond_atom_site_label_2
_geom_bond_site_symmetry_1
_geom_bond_site_symmetry_2
O1 C1 1_555 1_555
O2 C2 1_555 1_555
O3 C1 1_555 1_555
C1 C2 1_555 1_555
C2 C3 1_555 1_555
C3 C4 1_555 1_555
C4 C5 1_555 1_555
C5 O2 1_555 1_555
C6 O1 1_555 1_555
C7 C1 1_555 1_555
C8 C6 1_555 1_555
C9 O3 1_555 1_555
H1 C2 1_555 1_555
H2 C3 1_555 1_555
H3 C3 1_555 1_555
H4 C4 1_555 1_555
H5 C4 1_555 1_555
H6 C5 1_555 1_555
H7 C6 1_555 1_555
H8 C7 1_555 1_555
H9 C7 1_555 1_555
H10 C7 1_555 1_555
H11 C8 1_555 1_555
H12 C8 1_555 1_555
H13 C8 1_555 1_555
H14 C9 1_555 1_555
H15 C9 1_555 1_555
H16 C9 1_555 1_555
C5 C6 1_555 1_555

#END
