
#######################################################################
#
#                 Cambridge Crystallographic Data Centre
#                                CCDC 
#
#######################################################################
#
# If this CIF has been generated from an entry in the Cambridge 
# Structural Database, then it will include bibliographic, chemical, 
# crystal, experimental, refinement or atomic coordinate data resulting 
# from the CCDC's data processing and validation procedures.
#
#######################################################################

data_NAACET01
_chemical_formula_moiety         'C2 H3 O2 1-,Na1 1+,3(H2 O1)'
_chemical_name_systematic        'Sodium acetate trihydrate'
_symmetry_cell_setting           monoclinic
_symmetry_space_group_name_H-M   'C 2/c'
_symmetry_Int_Tables_number      15
_space_group_name_Hall           '-C 2yn'
loop_
_symmetry_equiv_pos_site_id
_symmetry_equiv_pos_as_xyz
1 x,y,z
2 1/2+x,1/2+y,z
3 -x,y,1/2-z
4 1/2-x,1/2+y,1/2-z
5 -x,-y,-z
6 1/2-x,1/2-y,-z
7 x,-y,1/2+z
8 1/2+x,1/2-y,1/2+z
_cell_length_a                   12.353(5)
_cell_length_b                   10.466(6)
_cell_length_c                   10.401(6)
_cell_angle_alpha                90
_cell_angle_beta                 111.69(4)
_cell_angle_gamma                90
_cell_volume                     1249.5
_cell_formula_units_Z            8
loop_
_atom_site_label
_atom_site_type_symbol
_atom_site_fract_x
_atom_site_fract_y
_atom_site_fract_z
Na1 Na 0.08803 0.42870 0.42131
C1 C 0.32590 -0.43848 0.42150
C2 C 0.39423 -0.43302 0.57491
O1 O 0.26225 -0.53359 0.37289
O2 O 0.33646 -0.34651 0.34929
H1 H 0.46600 -0.39800 0.58600
H2 H 0.35900 -0.35800 0.61300
H3 H 0.37000 -0.49400 0.62500
O3 O 0.35084 0.21112 0.38428
H6 H 0.33400 0.27400 0.40000
H7 H 0.29500 0.18300 0.32200
O4 O -0.11995 0.41728 0.40426
H8 H -0.13000 0.33900 0.40500
H9 H -0.16800 0.43800 0.32200
O5 O 0.00000 -0.40238 0.25000
H4 H 0.03200 -0.35900 0.21300
H4B H -0.03200 -0.35900 0.28700
O6 O 0.00000 0.26258 0.25000
H5 H 0.04100 0.21500 0.22800
H5B H -0.04100 0.21500 0.27200
loop_
_geom_bond_atom_site_label_1
_geom_bond_atom_site_label_2
_geom_bond_site_symmetry_1
_geom_bond_site_symmetry_2
C1 C2 1_555 1_555
C2 H1 1_555 1_555
O1 C1 1_555 1_555
O2 C1 1_555 1_555
O3 H6 1_555 1_555
O4 H8 1_555 1_555
O5 H4 1_555 1_555
O6 H5 1_555 1_555
H2 C2 1_555 1_555
H3 C2 1_555 1_555
H7 O3 1_555 1_555
H9 O4 1_555 1_555
H4B O5 1_555 1_555
H5B O6 1_555 1_555

#END
