
#######################################################################
#
#                 Cambridge Crystallographic Data Centre
#                                CCDC 
#
#######################################################################
#
# If this CIF has been generated from an entry in the Cambridge 
# Structural Database, then it will include bibliographic, chemical, 
# crystal, experimental, refinement or atomic coordinate data resulting 
# from the CCDC's data processing and validation procedures.
#
#######################################################################

data_NABCAV
_chemical_formula_moiety         'C4 H8 N2 O2,2(C7 H6 O2)'
_chemical_name_systematic        'Dimethylglyoxime bis(benzoic acid)'
_symmetry_cell_setting           monoclinic
_symmetry_space_group_name_H-M   'P 21/c'
_symmetry_Int_Tables_number      14
_space_group_name_Hall           '-P 2ybc'
loop_
_symmetry_equiv_pos_site_id
_symmetry_equiv_pos_as_xyz
1 x,y,z
2 x,1/2-y,1/2+z
3 -x,-y,-z
4 -x,1/2+y,1/2-z
_cell_length_a                   8.8436(18)
_cell_length_b                   5.3476(11)
_cell_length_c                   18.839(4)
_cell_angle_alpha                90.00
_cell_angle_beta                 99.62(3)
_cell_angle_gamma                90.00
_cell_volume                     878.406
_chemical_melting_point          '152-154 deg.C'
_cell_formula_units_Z            2
loop_
_atom_site_label
_atom_site_type_symbol
_atom_site_fract_x
_atom_site_fract_y
_atom_site_fract_z
O1 O 0.63762(19) 1.0692(3) -0.10701(10)
O2 O 0.8526(2) 1.1635(3) -0.03140(10)
C1 C 0.7016(3) 1.4079(4) -0.20892(13)
H2 H 0.6227 1.2937 -0.2223
C2 C 0.7321(3) 1.5910(5) -0.25763(14)
H3 H 0.6736 1.5991 -0.3034
C3 C 0.8489(3) 1.7604(4) -0.23709(15)
H4 H 0.8690 1.8828 -0.2693
C4 C 0.9358(3) 1.7485(5) -0.16898(14)
H5 H 1.0142 1.8638 -0.1557
C5 C 0.9077(3) 1.5677(4) -0.12068(14)
H6 H 0.9668 1.5606 -0.0750
C6 C 0.7900(3) 1.3957(4) -0.14063(12)
C7 C 0.7650(3) 1.2016(4) -0.08764(13)
H10 H 0.635(4) 0.933(6) -0.071(2)
O3 O 0.7810(2) 0.7723(3) 0.05013(9)
H1 H 0.8235 0.8923 0.0348
N1 N 0.6459(2) 0.7173(3) 0.00275(10)
C8 C 0.6245(3) 0.3875(5) 0.09235(14)
H7 H 0.7198 0.4552 0.1166
H8 H 0.6385 0.2149 0.0810
H9 H 0.5485 0.4005 0.1231
C9 C 0.5721(2) 0.5311(4) 0.02418(12)
C9B C 0.4279(2) 0.4689(4) -0.02418(12)
N1B N 0.3541(2) 0.2827(3) -0.00275(10)
O3B O 0.2190(2) 0.2277(3) -0.05013(9)
H1B H 0.1765 0.1077 -0.0348
C8B C 0.3755(3) 0.6125(5) -0.09235(14)
H7B H 0.2802 0.5448 -0.1166
H8B H 0.3615 0.7851 -0.0810
H9B H 0.4515 0.5995 -0.1231
loop_
_geom_bond_atom_site_label_1
_geom_bond_atom_site_label_2
_geom_bond_site_symmetry_1
_geom_bond_site_symmetry_2
O1 C7 1_555 1_555
O2 C7 1_555 1_555
O3 H1 1_555 1_555
N1 O3 1_555 1_555
C1 H2 1_555 1_555
C2 C1 1_555 1_555
H3 C2 1_555 1_555
C3 C2 1_555 1_555
H4 C3 1_555 1_555
C4 C3 1_555 1_555
H5 C4 1_555 1_555
C5 C4 1_555 1_555
H6 C5 1_555 1_555
C6 C1 1_555 1_555
C7 C6 1_555 1_555
C8 H7 1_555 1_555
H8 C8 1_555 1_555
H9 C8 1_555 1_555
C9 N1 1_555 1_555
H10 O1 1_555 1_555
C9B C9 1_555 1_555
N1B C9B 1_555 1_555
O3B N1B 1_555 1_555
H1B O3B 1_555 1_555
C8B C9B 1_555 1_555
H7B C8B 1_555 1_555
H8B C8B 1_555 1_555
H9B C8B 1_555 1_555
C5 C6 1_555 1_555
C8 C9 1_555 1_555

#END
