
#######################################################################
#
#                 Cambridge Crystallographic Data Centre
#                                CCDC 
#
#######################################################################
#
# If this CIF has been generated from an entry in the Cambridge 
# Structural Database, then it will include bibliographic, chemical, 
# crystal, experimental, refinement or atomic coordinate data resulting 
# from the CCDC's data processing and validation procedures.
#
#######################################################################

data_NABCEZ
_chemical_formula_moiety         'C4 H8 N2 O2,2(C9 H8 O2)'
_chemical_name_systematic        'Dimethylglyoxime bis(cinnamic acid)'
_symmetry_cell_setting           monoclinic
_symmetry_space_group_name_H-M   'P 21/c'
_symmetry_Int_Tables_number      14
_space_group_name_Hall           '-P 2ybc'
loop_
_symmetry_equiv_pos_site_id
_symmetry_equiv_pos_as_xyz
1 x,y,z
2 x,1/2-y,1/2+z
3 -x,-y,-z
4 -x,1/2+y,1/2-z
_cell_length_a                   5.5475(11)
_cell_length_b                   8.5902(17)
_cell_length_c                   22.232(5)
_cell_angle_alpha                90
_cell_angle_beta                 98.52(3)
_cell_angle_gamma                90
_cell_volume                     1047.75
_chemical_melting_point          '170-172 deg.C'
_cell_formula_units_Z            2
loop_
_atom_site_label
_atom_site_type_symbol
_atom_site_fract_x
_atom_site_fract_y
_atom_site_fract_z
O1 O -0.4545(4) 0.2392(3) 0.07076(10)
O2 O -0.3343(4) 0.1535(3) -0.01342(10)
C1 C 0.1047(5) -0.0035(4) 0.18298(14)
C2 C 0.1069(5) 0.0091(4) 0.24503(15)
H2 H -0.0140 0.0668 0.2597
C3 C 0.2859(6) -0.0626(4) 0.28591(16)
H3 H 0.2838 -0.0520 0.3275
C4 C 0.4649(6) -0.1483(4) 0.26565(17)
H4 H 0.5838 -0.1973 0.2930
C5 C 0.4662(6) -0.1608(4) 0.20451(17)
H5 H 0.5886 -0.2181 0.1903
C6 C 0.2883(5) -0.0897(4) 0.16315(16)
H6 H 0.2927 -0.1002 0.1217
C7 C -0.0850(5) 0.0742(4) 0.14079(16)
H7 H -0.1998 0.1301 0.1586
C8 C -0.1142(5) 0.0753(4) 0.08089(15)
H8 H -0.0029 0.0192 0.0620
C9 C -0.3071(5) 0.1575(4) 0.04193(16)
H12 H -0.583(5) 0.294(4) 0.0424(15)
O3 O 0.7238(4) 0.6873(3) 0.07236(10)
H1 H 0.6033 0.7432 0.0648
N1 N 0.7791(4) 0.6228(3) 0.01898(12)
C10 C 1.1220(5) 0.5080(5) 0.08828(14)
H9 H 1.0531 0.5626 0.1194
H10 H 1.2846 0.5448 0.0872
H11 H 1.1263 0.3985 0.0969
C11 C 0.9690(5) 0.5363(4) 0.02791(13)
C11B C 1.0310(5) 0.4637(4) -0.02791(13)
N1B N 1.2209(4) 0.3772(3) -0.01898(12)
O3B O 1.2762(4) 0.3127(3) -0.07236(10)
H1B H 1.3967 0.2568 -0.0648
C10B C 0.8780(5) 0.4920(5) -0.08828(14)
H9B H 0.9469 0.4374 -0.1194
H10B H 0.7154 0.4552 -0.0872
H11B H 0.8737 0.6015 -0.0969
loop_
_geom_bond_atom_site_label_1
_geom_bond_atom_site_label_2
_geom_bond_site_symmetry_1
_geom_bond_site_symmetry_2
O1 C9 1_555 1_555
O2 C9 1_555 1_555
O3 H1 1_555 1_555
N1 O3 1_555 1_555
C1 C2 1_555 1_555
C2 H2 1_555 1_555
C3 C2 1_555 1_555
H3 C3 1_555 1_555
C4 C3 1_555 1_555
H4 C4 1_555 1_555
C5 C4 1_555 1_555
H5 C5 1_555 1_555
C6 C1 1_555 1_555
H6 C6 1_555 1_555
C7 C1 1_555 1_555
H7 C7 1_555 1_555
C8 C7 1_555 1_555
H8 C8 1_555 1_555
C9 C8 1_555 1_555
C10 H9 1_555 1_555
H10 C10 1_555 1_555
H11 C10 1_555 1_555
C11 N1 1_555 1_555
H12 O1 1_555 1_555
C11B C11 1_555 1_555
N1B C11B 1_555 1_555
O3B N1B 1_555 1_555
H1B O3B 1_555 1_555
C10B C11B 1_555 1_555
H9B C10B 1_555 1_555
H10B C10B 1_555 1_555
H11B C10B 1_555 1_555
C5 C6 1_555 1_555
C10 C11 1_555 1_555

#END
