
#######################################################################
#
#                 Cambridge Crystallographic Data Centre
#                                CCDC 
#
#######################################################################
#
# If this CIF has been generated from an entry in the Cambridge 
# Structural Database, then it will include bibliographic, chemical, 
# crystal, experimental, refinement or atomic coordinate data resulting 
# from the CCDC's data processing and validation procedures.
#
#######################################################################

data_NABDOM
_chemical_formula_moiety         'C20 H17 Cl1 O1 S1'
_chemical_name_systematic        
(aR*)-6'-chloro-4''-methyl-2-((R*)-methylsulfinyl)-1,1':2',1''-terphenyl
_symmetry_cell_setting           orthorhombic
_symmetry_space_group_name_H-M   'P b c a'
_symmetry_Int_Tables_number      61
_space_group_name_Hall           '-P 2ac 2ab'
loop_
_symmetry_equiv_pos_site_id
_symmetry_equiv_pos_as_xyz
1 x,y,z
2 1/2+x,1/2-y,-z
3 -x,1/2+y,1/2-z
4 1/2-x,-y,1/2+z
5 -x,-y,-z
6 1/2-x,1/2+y,z
7 x,1/2-y,1/2+z
8 1/2+x,y,1/2-z
_cell_length_a                   17.3767(10)
_cell_length_b                   8.4806(5)
_cell_length_c                   22.9367(13)
_cell_angle_alpha                90
_cell_angle_beta                 90
_cell_angle_gamma                90
_cell_volume                     3380.06
_exptl_crystal_colour            colorless
_exptl_crystal_description       block
_cell_formula_units_Z            8
loop_
_atom_site_label
_atom_site_type_symbol
_atom_site_fract_x
_atom_site_fract_y
_atom_site_fract_z
C1 C 0.11039(8) 0.31295(18) 0.15152(6)
C2 C 0.14313(9) 0.1908(2) 0.18331(7)
H1 H 0.1704 0.1087 0.1641
C3 C 0.13543(10) 0.1906(2) 0.24374(7)
H2 H 0.1582 0.1087 0.2661
C4 C 0.09470(10) 0.3096(2) 0.27132(7)
H3 H 0.0894 0.3085 0.3125
C5 C 0.06163(9) 0.4301(2) 0.23908(6)
H4 H 0.0338 0.5111 0.2584
C6 C 0.06881(8) 0.43376(17) 0.17841(6)
C7 C 0.03548(8) 0.56543(17) 0.14328(6)
C8 C 0.07117(9) 0.71310(18) 0.14185(6)
C9 C 0.04575(10) 0.83637(19) 0.10698(7)
H5 H 0.0722 0.9344 0.1065
C10 C -0.01918(10) 0.8128(2) 0.07289(7)
H6 H -0.0378 0.8953 0.0487
C11 C -0.05688(9) 0.66893(19) 0.07414(6)
H7 H -0.1018 0.6550 0.0511
C12 C -0.03075(8) 0.54379(18) 0.10838(6)
C13 C -0.07307(8) 0.39160(18) 0.10580(6)
C14 C -0.08891(9) 0.3234(2) 0.05155(6)
H8 H -0.0698 0.3717 0.0171
C15 C -0.13220(9) 0.1861(2) 0.04735(7)
H9 H -0.1413 0.1407 0.0101
C16 C -0.16251(9) 0.11402(19) 0.09681(7)
C17 C -0.14596(9) 0.1815(2) 0.15094(7)
H10 H -0.1656 0.1336 0.1853
C18 C -0.10153(9) 0.3169(2) 0.15567(6)
H11 H -0.0904 0.3591 0.1931
C19 C -0.21195(10) -0.0314(2) 0.09192(8)
H12 H -0.2663 -0.0015 0.0945
H13 H -0.1993 -0.1043 0.1237
H14 H -0.2023 -0.0830 0.0544
C20 C 0.20411(10) 0.4302(2) 0.06827(7)
H15 H 0.2456 0.3824 0.0912
H16 H 0.1929 0.5357 0.0835
H17 H 0.2201 0.4382 0.0274
S1 S 0.11957(2) 0.31013(5) 0.073311(14)
Cl1 Cl 0.15372(2) 0.74444(5) 0.183870(18)
O1 O 0.14418(8) 0.14727(15) 0.05680(5)
loop_
_geom_bond_atom_site_label_1
_geom_bond_atom_site_label_2
_geom_bond_site_symmetry_1
_geom_bond_site_symmetry_2
C1 C2 1_555 1_555
C2 H1 1_555 1_555
C3 C2 1_555 1_555
H2 C3 1_555 1_555
C4 C3 1_555 1_555
H3 C4 1_555 1_555
C5 C4 1_555 1_555
H4 C5 1_555 1_555
C6 C1 1_555 1_555
C7 C6 1_555 1_555
C8 C7 1_555 1_555
C9 C8 1_555 1_555
H5 C9 1_555 1_555
C10 C9 1_555 1_555
H6 C10 1_555 1_555
C11 C10 1_555 1_555
H7 C11 1_555 1_555
C12 C7 1_555 1_555
C13 C12 1_555 1_555
C14 C13 1_555 1_555
H8 C14 1_555 1_555
C15 C14 1_555 1_555
H9 C15 1_555 1_555
C16 C15 1_555 1_555
C17 C16 1_555 1_555
H10 C17 1_555 1_555
C18 C13 1_555 1_555
H11 C18 1_555 1_555
C19 C16 1_555 1_555
H12 C19 1_555 1_555
H13 C19 1_555 1_555
H14 C19 1_555 1_555
C20 H15 1_555 1_555
H16 C20 1_555 1_555
H17 C20 1_555 1_555
S1 C1 1_555 1_555
Cl1 C8 1_555 1_555
O1 S1 1_555 1_555
C5 C6 1_555 1_555
C11 C12 1_555 1_555
C17 C18 1_555 1_555
C20 S1 1_555 1_555

#END
