
#######################################################################
#
#                 Cambridge Crystallographic Data Centre
#                                CCDC 
#
#######################################################################
#
# If this CIF has been generated from an entry in the Cambridge 
# Structural Database, then it will include bibliographic, chemical, 
# crystal, experimental, refinement or atomic coordinate data resulting 
# from the CCDC's data processing and validation procedures.
#
#######################################################################

data_NABFOM
_chemical_formula_moiety         'C50 H40 N6 Si1'
_chemical_name_systematic        
1,1-Dimethyl-2,5-bis(4-(bis(2-pyridyl)amino)phenyl)-3,4-diphenylsilole
_symmetry_cell_setting           triclinic
_symmetry_space_group_name_H-M   'P -1'
_symmetry_Int_Tables_number      2
_space_group_name_Hall           '-P 1'
loop_
_symmetry_equiv_pos_site_id
_symmetry_equiv_pos_as_xyz
1 x,y,z
2 -x,-y,-z
_cell_length_a                   9.804(3)
_cell_length_b                   10.381(3)
_cell_length_c                   20.723(6)
_cell_angle_alpha                81.055(5)
_cell_angle_beta                 87.709(6)
_cell_angle_gamma                75.893(6)
_cell_volume                     2020.6
_exptl_crystal_colour            yellow
_exptl_crystal_description       plate
_chemical_melting_point          '273-274 deg.C'
_cell_formula_units_Z            2
_exptl_crystal_recrystallization_method 'ethyl acetate/hexanes'
_exptl_crystal_preparation       'organic light-emitting diode'
loop_
_atom_site_label
_atom_site_type_symbol
_atom_site_fract_x
_atom_site_fract_y
_atom_site_fract_z
Si1 Si 0.23398(12) 0.85367(11) 0.12151(6)
N1 N 0.2808(3) 0.9378(4) -0.21336(16)
N2 N 0.3439(4) 0.7088(4) -0.18154(17)
N3 N 0.3957(4) 1.0301(4) -0.3015(2)
N4 N 0.183(3) 0.8130(17) 0.4623(12)
N7 N 0.083(2) 0.6791(17) 0.5532(12)
N8 N 0.2176(14) 0.9765(17) 0.5097(6)
C1 C 0.0927(3) 0.7629(3) 0.12425(17)
H1 H 0.0029 0.8252 0.1261
H2 H 0.1043 0.6955 0.1623
H3 H 0.0975 0.7211 0.0858
C2 C 0.4036(3) 0.7284(3) 0.11876(18)
H4 H 0.4795 0.7723 0.1177
H5 H 0.4072 0.6868 0.0803
H6 H 0.4122 0.6612 0.1568
C3 C 0.2292(3) 0.9998(4) 0.05623(18)
C4 C 0.2192(4) 0.9610(4) 0.18629(19)
C5 C 0.2311(3) 1.1065(4) 0.08531(19)
C6 C 0.2173(3) 1.0879(4) 0.15828(19)
C7 C 0.2451(4) 1.2395(4) 0.05037(17)
C8 C 0.1521(4) 1.3114(4) 0.00123(19)
H7 H 0.0795 1.2756 -0.0097
C9 C 0.1642(5) 1.4339(5) -0.0317(2)
H8 H 0.1013 1.4792 -0.0649
C10 C 0.2688(5) 1.4885(5) -0.0154(2)
H9 H 0.2777 1.5715 -0.0371
C11 C 0.3614(5) 1.4191(5) 0.0336(2)
H10 H 0.4323 1.4566 0.0451
C12 C 0.3511(4) 1.2961(4) 0.06557(18)
H11 H 0.4159 1.2504 0.0978
C13 C 0.2038(4) 1.2051(4) 0.19197(18)
C14 C 0.0872(4) 1.3109(4) 0.18381(17)
H12 H 0.0157 1.3075 0.1565
C15 C 0.0726(5) 1.4219(4) 0.2147(2)
H13 H -0.0086 1.4909 0.2090
C16 C 0.1788(6) 1.4295(5) 0.2541(2)
H14 H 0.1716 1.5045 0.2746
C17 C 0.2952(5) 1.3251(6) 0.2625(2)
H15 H 0.3677 1.3300 0.2889
C18 C 0.3083(4) 1.2128(4) 0.23296(19)
H16 H 0.3877 1.1420 0.2406
C19 C 0.2442(4) 0.9891(4) -0.01424(18)
C20 C 0.1620(4) 0.9201(4) -0.0422(2)
H17 H 0.0980 0.8829 -0.0159
C21 C 0.1716(4) 0.9049(4) -0.1066(2)
H18 H 0.1132 0.8600 -0.1235
C22 C 0.2675(4) 0.9559(4) -0.1467(2)
C23 C 0.3525(4) 1.0216(4) -0.1204(2)
H19 H 0.4193 1.0547 -0.1466
C24 C 0.3400(4) 1.0392(4) -0.0558(2)
H20 H 0.3973 1.0860 -0.0394
C25 C 0.2906(5) 1.0483(5) -0.2599(2)
C26 C 0.1952(5) 1.1678(5) -0.2604(2)
H21 H 0.1210 1.1759 -0.2308
C27 C 0.2086(6) 1.2755(5) -0.3043(3)
H22 H 0.1440 1.3578 -0.3052
C28 C 0.3162(8) 1.2611(6) -0.3462(3)
H23 H 0.3299 1.3339 -0.3758
C29 C 0.4059(6) 1.1372(8) -0.3446(3)
H24 H 0.4781 1.1269 -0.3753
C30 C 0.3007(4) 0.8089(5) -0.2295(2)
C31 C 0.2754(4) 0.7886(5) -0.2915(2)
H25 H 0.2449 0.8611 -0.3243
C32 C 0.2962(5) 0.6587(6) -0.3039(2)
H26 H 0.2797 0.6419 -0.3453
C33 C 0.3419(5) 0.5538(5) -0.2542(3)
H27 H 0.3595 0.4648 -0.2610
C34 C 0.3597(5) 0.5863(6) -0.1953(3)
H28 H 0.3857 0.5157 -0.1611
C35 C 0.2035(5) 0.9172(5) 0.2568(2)
C36 C 0.2745(5) 0.7931(5) 0.2853(2)
H29 H 0.3314 0.7357 0.2595
C37 C 0.2644(6) 0.7495(5) 0.3520(3)
H30 H 0.3164 0.6649 0.3700
C38 C 0.1804(6) 0.8279(7) 0.3907(3)
C39 C 0.1027(6) 0.9491(7) 0.3622(3)
H31 H 0.0413 1.0044 0.3874
C40 C 0.1144(5) 0.9902(6) 0.2963(3)
H32 H 0.0581 1.0725 0.2780
C41 C 0.0800(11) 0.7051(12) 0.4876(6)
C45 C -0.031(2) 0.695(2) 0.4562(11)
C47 C 0.0044(16) 0.6121(15) 0.5855(8)
C49 C -0.143(2) 0.654(4) 0.4979(9)
C53 C -0.128(3) 0.620(3) 0.5629(12)
C56 C 0.2551(17) 0.8478(17) 0.4920(7)
C58 C 0.3700(14) 0.7897(14) 0.5132(6)
C62 C 0.4785(13) 0.7847(11) 0.5529(5)
C64 C 0.437(2) 0.9239(19) 0.5569(8)
C66 C 0.3163(18) 1.0147(17) 0.5435(7)
N5? N 0.182(2) 0.752(2) 0.4599(10)
N6? N 0.090(2) 0.748(2) 0.5636(11)
N9? N 0.4003(14) 0.5809(16) 0.4946(6)
N10? N 0.4311(17) 0.6745(17) 0.4875(6)
C42? C 0.0758(19) 0.7946(18) 0.4991(10)
C43? C 0.025(2) 0.633(2) 0.4434(9)
C44? C -0.0619(15) 0.8335(16) 0.4711(6)
C46? C -0.0242(15) 0.745(2) 0.6045(7)
C48? C -0.1695(17) 0.8272(19) 0.5117(9)
C50? C -0.032(3) 0.534(3) 0.4726(13)
C51? C -0.152(3) 0.714(4) 0.5749(14)
C52? C -0.051(3) 0.526(3) 0.5472(12)
C54? C -0.161(2) 0.812(2) 0.5817(10)
C55? C 0.3382(18) 0.765(2) 0.5021(7)
C57? C 0.3303(16) 0.6980(19) 0.4950(6)
C59? C 0.3506(17) 0.866(2) 0.5399(8)
C60? C 0.493(2) 0.848(3) 0.5719(9)
C61? C 0.5785(19) 0.717(2) 0.5620(8)
C63? C 0.5367(16) 0.546(2) 0.5235(7)
C65? C 0.5663(11) 0.6456(13) 0.5408(5)
loop_
_geom_bond_atom_site_label_1
_geom_bond_atom_site_label_2
_geom_bond_site_symmetry_1
_geom_bond_site_symmetry_2
Si1 C1 1_555 1_555
N1 C22 1_555 1_555
N2 C30 1_555 1_555
N3 C25 1_555 1_555
N4 C38 1_555 1_555
N7 C41 1_555 1_555
N8 C56 1_555 1_555
C1 H1 1_555 1_555
H2 C1 1_555 1_555
H3 C1 1_555 1_555
C2 Si1 1_555 1_555
H4 C2 1_555 1_555
H5 C2 1_555 1_555
H6 C2 1_555 1_555
C3 Si1 1_555 1_555
C4 Si1 1_555 1_555
C5 C3 1_555 1_555
C6 C4 1_555 1_555
C7 C5 1_555 1_555
C8 C7 1_555 1_555
H7 C8 1_555 1_555
C9 C8 1_555 1_555
H8 C9 1_555 1_555
C10 C9 1_555 1_555
H9 C10 1_555 1_555
C11 C10 1_555 1_555
H10 C11 1_555 1_555
C12 C7 1_555 1_555
H11 C12 1_555 1_555
C13 C6 1_555 1_555
C14 C13 1_555 1_555
H12 C14 1_555 1_555
C15 C14 1_555 1_555
H13 C15 1_555 1_555
C16 C15 1_555 1_555
H14 C16 1_555 1_555
C17 C16 1_555 1_555
H15 C17 1_555 1_555
C18 C13 1_555 1_555
H16 C18 1_555 1_555
C19 C3 1_555 1_555
C20 C19 1_555 1_555
H17 C20 1_555 1_555
C21 C20 1_555 1_555
H18 C21 1_555 1_555
C22 C21 1_555 1_555
C23 C22 1_555 1_555
H19 C23 1_555 1_555
C24 C19 1_555 1_555
H20 C24 1_555 1_555
C25 N1 1_555 1_555
C26 C25 1_555 1_555
H21 C26 1_555 1_555
C27 C26 1_555 1_555
H22 C27 1_555 1_555
C28 C27 1_555 1_555
H23 C28 1_555 1_555
C29 N3 1_555 1_555
H24 C29 1_555 1_555
C30 N1 1_555 1_555
C31 C30 1_555 1_555
H25 C31 1_555 1_555
C32 C31 1_555 1_555
H26 C32 1_555 1_555
C33 C32 1_555 1_555
H27 C33 1_555 1_555
C34 N2 1_555 1_555
H28 C34 1_555 1_555
C35 C4 1_555 1_555
C36 C35 1_555 1_555
H29 C36 1_555 1_555
C37 C36 1_555 1_555
H30 C37 1_555 1_555
C38 C37 1_555 1_555
C39 C38 1_555 1_555
H31 C39 1_555 1_555
C40 C35 1_555 1_555
H32 C40 1_555 1_555
C41 N4 1_555 1_555
C45 C41 1_555 1_555
C47 N7 1_555 1_555
C49 C45 1_555 1_555
C53 C47 1_555 1_555
C56 N4 1_555 1_555
C58 C56 1_555 1_555
C62 C58 1_555 1_555
C64 C62 1_555 1_555
C66 N8 1_555 1_555
C5 C6 1_555 1_555
C11 C12 1_555 1_555
C17 C18 1_555 1_555
C23 C24 1_555 1_555
C28 C29 1_555 1_555
C33 C34 1_555 1_555
C39 C40 1_555 1_555
C49 C53 1_555 1_555
C64 C66 1_555 1_555

#END
