
#######################################################################
#
#                 Cambridge Crystallographic Data Centre
#                                CCDC 
#
#######################################################################
#
# If this CIF has been generated from an entry in the Cambridge 
# Structural Database, then it will include bibliographic, chemical, 
# crystal, experimental, refinement or atomic coordinate data resulting 
# from the CCDC's data processing and validation procedures.
#
#######################################################################

data_NABFIG
_chemical_formula_moiety         'C44 H34 N4 Si1'
_chemical_name_systematic        
1,1-Dimethyl-2,5-bis(4-(N-7-azaindolyl)phenyl)-3,4-diphenylsilole
_symmetry_cell_setting           triclinic
_symmetry_space_group_name_H-M   'P -1'
_symmetry_Int_Tables_number      2
_space_group_name_Hall           '-P 1'
loop_
_symmetry_equiv_pos_site_id
_symmetry_equiv_pos_as_xyz
1 x,y,z
2 -x,-y,-z
_cell_length_a                   11.681(3)
_cell_length_b                   13.303(3)
_cell_length_c                   13.344(3)
_cell_angle_alpha                61.103(4)
_cell_angle_beta                 68.788(4)
_cell_angle_gamma                74.871(5)
_cell_volume                     1682.93
_exptl_crystal_colour            yellow
_exptl_crystal_description       plate
_chemical_melting_point          '276-278 deg.C'
_cell_formula_units_Z            2
_exptl_crystal_recrystallization_method 'ethyl acetate/hexanes'
_exptl_crystal_preparation       'organic light-emitting diode'
loop_
_atom_site_label
_atom_site_type_symbol
_atom_site_fract_x
_atom_site_fract_y
_atom_site_fract_z
Si1 Si -0.17439(8) 0.37843(8) 0.43882(8)
N1 N -0.0185(2) -0.0618(2) 0.2460(2)
N2 N 0.1403(3) -0.0085(2) 0.0590(2)
N3 N -0.4530(2) 0.8230(2) 0.6170(2)
N4 N -0.2680(2) 0.8265(2) 0.6559(2)
C1 C -0.2255(3) 0.2721(2) 0.5951(2)
H1 H -0.3091 0.2590 0.6131
H2 H -0.2210 0.3011 0.6468
H3 H -0.1730 0.2008 0.6069
C2 C -0.0128(2) 0.4042(2) 0.4040(3)
H4 H 0.0399 0.3330 0.4156
H5 H -0.0083 0.4331 0.4557
H6 H 0.0137 0.4597 0.3226
C3 C -0.1827(3) 0.3448(3) 0.3213(3)
C4 C -0.2790(2) 0.5153(2) 0.3930(3)
C5 C -0.2990(3) 0.5332(2) 0.2919(3)
C6 C -0.2429(3) 0.4383(3) 0.2503(3)
C7 C -0.1263(3) 0.2405(3) 0.3002(3)
C8 C -0.1347(3) 0.1330(3) 0.3941(3)
H7 H -0.1678 0.1269 0.4713
C9 C -0.0955(3) 0.0327(3) 0.3777(3)
H8 H -0.1040 -0.0393 0.4429
C10 C -0.0438(3) 0.0412(3) 0.2635(3)
C11 C -0.0237(3) 0.1475(3) 0.1691(3)
H9 H 0.0172 0.1528 0.0929
C12 C -0.0640(3) 0.2470(2) 0.1864(3)
H10 H -0.0494 0.3186 0.1218
C13 C -0.0837(3) -0.1569(3) 0.3192(3)
H11 H -0.1449 -0.1656 0.3899
C14 C -0.0469(3) -0.2349(3) 0.2746(3)
H12 H -0.0774 -0.3057 0.3083
C15 C 0.0471(3) -0.1895(3) 0.1664(3)
C16 C 0.1207(3) -0.2258(3) 0.0797(3)
H13 H 0.1161 -0.2977 0.0865
C17 C 0.2001(3) -0.1524(3) -0.0159(3)
H14 H 0.2500 -0.1734 -0.0766
C18 C 0.2072(3) -0.0461(3) -0.0235(3)
H15 H 0.2622 0.0018 -0.0904
C19 C 0.0626(3) -0.0804(3) 0.1494(3)
C20 C -0.3300(3) 0.5923(2) 0.4546(3)
C21 C -0.2719(3) 0.5882(2) 0.5302(3)
H16 H -0.2043 0.5337 0.5453
C22 C -0.3108(3) 0.6626(3) 0.5846(2)
H17 H -0.2684 0.6588 0.6335
C23 C -0.4132(3) 0.7423(3) 0.5652(3)
C24 C -0.4766(3) 0.7431(3) 0.4970(3)
H18 H -0.5476 0.7940 0.4867
C25 C -0.4368(3) 0.6690(3) 0.4427(3)
H19 H -0.4823 0.6704 0.3974
C26 C -0.5709(3) 0.8829(3) 0.6303(3)
H20 H -0.6349 0.8738 0.6104
C27 C -0.5784(3) 0.9562(3) 0.6763(3)
H21 H -0.6472 1.0060 0.6923
C28 C -0.4631(3) 0.9436(3) 0.6958(3)
C29 C -0.4116(3) 0.9926(3) 0.7373(3)
H22 H -0.4575 1.0488 0.7628
C30 C -0.2908(3) 0.9568(3) 0.7403(3)
H23 H -0.2544 0.9874 0.7697
C31 C -0.2232(3) 0.8746(3) 0.6991(3)
H24 H -0.1417 0.8519 0.7020
C32 C -0.3848(3) 0.8600(3) 0.6566(3)
C33 C -0.2604(3) 0.4569(3) 0.1372(3)
C34 C -0.3417(3) 0.3972(3) 0.1381(3)
H25 H -0.3840 0.3428 0.2102
C35 C -0.3610(3) 0.4171(3) 0.0338(4)
H26 H -0.4164 0.3766 0.0358
C36 C -0.2980(5) 0.4973(4) -0.0734(4)
H27 H -0.3100 0.5107 -0.1443
C37 C -0.2189(4) 0.5562(3) -0.0749(4)
H28 H -0.1771 0.6109 -0.1472
C38 C -0.1990(3) 0.5366(3) 0.0288(3)
H29 H -0.1435 0.5777 0.0257
C39 C -0.3695(3) 0.6343(3) 0.2167(3)
C40 C -0.4827(3) 0.6236(3) 0.2130(3)
H30 H -0.5166 0.5538 0.2612
C41 C -0.5452(3) 0.7152(4) 0.1389(3)
H31 H -0.6217 0.7068 0.1386
C42 C -0.4973(4) 0.8175(4) 0.0663(3)
H32 H -0.5395 0.8788 0.0156
C43 C -0.3848(4) 0.8288(3) 0.0690(3)
H33 H -0.3509 0.8985 0.0194
C44 C -0.3214(3) 0.7386(3) 0.1439(3)
H34 H -0.2460 0.7482 0.1452
loop_
_geom_bond_atom_site_label_1
_geom_bond_atom_site_label_2
_geom_bond_site_symmetry_1
_geom_bond_site_symmetry_2
Si1 C1 1_555 1_555
N1 C10 1_555 1_555
N2 C18 1_555 1_555
N3 C23 1_555 1_555
N4 C31 1_555 1_555
C1 H1 1_555 1_555
H2 C1 1_555 1_555
H3 C1 1_555 1_555
C2 Si1 1_555 1_555
H4 C2 1_555 1_555
H5 C2 1_555 1_555
H6 C2 1_555 1_555
C3 Si1 1_555 1_555
C4 Si1 1_555 1_555
C5 C4 1_555 1_555
C6 C3 1_555 1_555
C7 C3 1_555 1_555
C8 C7 1_555 1_555
H7 C8 1_555 1_555
C9 C8 1_555 1_555
H8 C9 1_555 1_555
C10 C9 1_555 1_555
C11 C10 1_555 1_555
H9 C11 1_555 1_555
C12 C7 1_555 1_555
H10 C12 1_555 1_555
C13 N1 1_555 1_555
H11 C13 1_555 1_555
C14 C13 1_555 1_555
H12 C14 1_555 1_555
C15 C14 1_555 1_555
C16 C15 1_555 1_555
H13 C16 1_555 1_555
C17 C16 1_555 1_555
H14 C17 1_555 1_555
C18 C17 1_555 1_555
H15 C18 1_555 1_555
C19 N1 1_555 1_555
C20 C4 1_555 1_555
C21 C20 1_555 1_555
H16 C21 1_555 1_555
C22 C21 1_555 1_555
H17 C22 1_555 1_555
C23 C22 1_555 1_555
C24 C23 1_555 1_555
H18 C24 1_555 1_555
C25 C20 1_555 1_555
H19 C25 1_555 1_555
C26 N3 1_555 1_555
H20 C26 1_555 1_555
C27 C26 1_555 1_555
H21 C27 1_555 1_555
C28 C27 1_555 1_555
C29 C28 1_555 1_555
H22 C29 1_555 1_555
C30 C29 1_555 1_555
H23 C30 1_555 1_555
C31 C30 1_555 1_555
H24 C31 1_555 1_555
C32 N3 1_555 1_555
C33 C6 1_555 1_555
C34 C33 1_555 1_555
H25 C34 1_555 1_555
C35 C34 1_555 1_555
H26 C35 1_555 1_555
C36 C35 1_555 1_555
H27 C36 1_555 1_555
C37 C36 1_555 1_555
H28 C37 1_555 1_555
C38 C33 1_555 1_555
H29 C38 1_555 1_555
C39 C5 1_555 1_555
C40 C39 1_555 1_555
H30 C40 1_555 1_555
C41 C40 1_555 1_555
H31 C41 1_555 1_555
C42 C41 1_555 1_555
H32 C42 1_555 1_555
C43 C42 1_555 1_555
H33 C43 1_555 1_555
C44 C39 1_555 1_555
H34 C44 1_555 1_555
N2 C19 1_555 1_555
N4 C32 1_555 1_555
C5 C6 1_555 1_555
C11 C12 1_555 1_555
C15 C19 1_555 1_555
C24 C25 1_555 1_555
C28 C32 1_555 1_555
C37 C38 1_555 1_555
C43 C44 1_555 1_555

#END
