
#######################################################################
#
#                 Cambridge Crystallographic Data Centre
#                                CCDC 
#
#######################################################################
#
# If this CIF has been generated from an entry in the Cambridge 
# Structural Database, then it will include bibliographic, chemical, 
# crystal, experimental, refinement or atomic coordinate data resulting 
# from the CCDC's data processing and validation procedures.
#
#######################################################################

data_NABPOX
_chemical_name_common            4,5-Dicyanobenzo-18-crown-6
_chemical_formula_moiety         'C18 H22 N2 O6'
_chemical_name_systematic        
2,3,5,6,8,9,11,12,14,15-Decahydro-1,4,7,10,13,16-benzohexaoxacyclo-octadecine-18,19-dicarbonitrile
_symmetry_cell_setting           monoclinic
_symmetry_space_group_name_H-M   'P 21/n'
_symmetry_Int_Tables_number      14
_space_group_name_Hall           '-P 2yn'
loop_
_symmetry_equiv_pos_site_id
_symmetry_equiv_pos_as_xyz
1 x,y,z
2 1/2-x,1/2+y,1/2-z
3 -x,-y,-z
4 1/2+x,1/2-y,1/2+z
_cell_length_a                   5.29550(10)
_cell_length_b                   20.8914(4)
_cell_length_c                   16.7546(4)
_cell_angle_alpha                90
_cell_angle_beta                 96.862(2)
_cell_angle_gamma                90
_cell_volume                     1840.29
_cell_formula_units_Z            4
loop_
_atom_site_label
_atom_site_type_symbol
_atom_site_fract_x
_atom_site_fract_y
_atom_site_fract_z
N1 N 1.1385(9) 0.1019(2) 0.2123(3)
N2 N 1.1311(9) -0.0051(2) 0.4068(2)
O1 O 0.3343(6) 0.17457(15) 0.47674(17)
O2 O 0.3378(6) 0.24376(14) 0.35312(17)
C1 C 0.5055(7) 0.19528(17) 0.3586(2)
C2 C 0.8291(8) 0.09087(18) 0.3829(2)
C3 C 0.6636(8) 0.10476(18) 0.4390(2)
H1 H 0.6622 0.0793 0.4845
C4 C 0.8348(7) 0.12918(18) 0.3149(2)
C5 C 0.6712(7) 0.18133(18) 0.3023(2)
H2 H 0.6725 0.2066 0.2567
C6 C 1.0048(8) 0.11448(19) 0.2569(3)
C7 C 0.5016(8) 0.15636(19) 0.4270(2)
O3 O 0.1315(7) 0.38394(16) 0.2435(2)
O4 O 0.1963(8) 0.24145(17) 0.6186(2)
C8 C 0.3333(9) 0.2886(2) 0.2880(3)
H3 H 0.2796 0.2679 0.2370
H4 H 0.5002 0.3073 0.2861
C9 C 0.9985(9) 0.0366(2) 0.3961(2)
C10 C 0.3390(9) 0.1461(2) 0.5541(2)
H5 H 0.5054 0.1514 0.5845
H6 H 0.3029 0.1006 0.5489
C11 C 0.1481(9) 0.3382(2) 0.3054(3)
H7 H -0.0172 0.3189 0.3082
H8 H 0.2032 0.3584 0.3566
C12 C 0.1417(10) 0.1784(2) 0.5960(3)
H9 H -0.0179 0.1777 0.5609
H10 H 0.1179 0.1539 0.6437
C13 C -0.2691(13) 0.4517(3) 0.4241(4)
H11 H -0.4270 0.4756 0.4214
H12 H -0.1309 0.4822 0.4343
C14 C 0.0513(15) 0.4433(3) 0.2588(4)
H13 H 0.0279 0.4645 0.2069
H14 H 0.1969 0.4639 0.2889
C15 C -0.2579(14) 0.4092(3) 0.4909(4)
H15 H -0.2692 0.4340 0.5393
H16 H -0.4042 0.3809 0.4836
O5 O -0.2553(12) 0.4245(3) 0.3513(3)
C16 C 0.139(3) 0.2881(4) 0.5580(5)
H17 H 0.2931 0.3126 0.5548
H18 H 0.1031 0.2654 0.5074
O6 O -0.0529(17) 0.3747(3) 0.5010(4)
C17 C -0.150(2) 0.4617(4) 0.2958(6)
H19 H -0.2867 0.4712 0.2534
H20 H -0.1036 0.5020 0.3222
C18 C -0.033(3) 0.3267(6) 0.5613(5)
H21 H -0.0092 0.3473 0.6134
H22 H -0.1927 0.3035 0.5574
O7? O -0.060(3) 0.4471(6) 0.3870(8)
loop_
_geom_bond_atom_site_label_1
_geom_bond_atom_site_label_2
_geom_bond_site_symmetry_1
_geom_bond_site_symmetry_2
N1 C6 1_555 1_555
N2 C9 1_555 1_555
O1 C7 1_555 1_555
O2 C1 1_555 1_555
C1 C5 1_555 1_555
C2 C3 1_555 1_555
C3 H1 1_555 1_555
C4 C2 1_555 1_555
C5 C4 1_555 1_555
H2 C5 1_555 1_555
C6 C4 1_555 1_555
C7 C1 1_555 1_555
O3 C11 1_555 1_555
O4 C12 1_555 1_555
C8 O2 1_555 1_555
H3 C8 1_555 1_555
H4 C8 1_555 1_555
C9 C2 1_555 1_555
C10 O1 1_555 1_555
H5 C10 1_555 1_555
H6 C10 1_555 1_555
C11 C8 1_555 1_555
H7 C11 1_555 1_555
H8 C11 1_555 1_555
C12 C10 1_555 1_555
H9 C12 1_555 1_555
H10 C12 1_555 1_555
C13 H11 1_555 1_555
H12 C13 1_555 1_555
C14 O3 1_555 1_555
H13 C14 1_555 1_555
H14 C14 1_555 1_555
C15 C13 1_555 1_555
H15 C15 1_555 1_555
H16 C15 1_555 1_555
O5 C13 1_555 1_555
C16 O4 1_555 1_555
H17 C16 1_555 1_555
H18 C16 1_555 1_555
O6 C15 1_555 1_555
C17 C14 1_555 1_555
H19 C17 1_555 1_555
H20 C17 1_555 1_555
C18 C16 1_555 1_555
H21 C18 1_555 1_555
H22 C18 1_555 1_555
C3 C7 1_555 1_555
O5 C17 1_555 1_555
O6 C18 1_555 1_555

#END
