
#######################################################################
#
#                 Cambridge Crystallographic Data Centre
#                                CCDC 
#
#######################################################################
#
# If this CIF has been generated from an entry in the Cambridge 
# Structural Database, then it will include bibliographic, chemical, 
# crystal, experimental, refinement or atomic coordinate data resulting 
# from the CCDC's data processing and validation procedures.
#
#######################################################################

data_NABRIR
_chemical_formula_moiety         'C6 H16 N1 1+,C16 H12 N6 O2 P1 1-'
_chemical_name_systematic        
'Triethylammonium bis(3-(2-pyridyl)pyrazol-1-yl)phosphinate'
_symmetry_cell_setting           triclinic
_symmetry_space_group_name_H-M   'P -1'
_symmetry_Int_Tables_number      2
_space_group_name_Hall           '-P 1'
loop_
_symmetry_equiv_pos_site_id
_symmetry_equiv_pos_as_xyz
1 x,y,z
2 -x,-y,-z
_cell_length_a                   8.9275(14)
_cell_length_b                   10.997(3)
_cell_length_c                   13.916(3)
_cell_angle_alpha                94.751(11)
_cell_angle_beta                 105.663(13)
_cell_angle_gamma                112.23(2)
_cell_volume                     1191.2
_cell_formula_units_Z            2
_exptl_crystal_recrystallization_method 'acetonitrile and diethyl ether'
loop_
_atom_site_label
_atom_site_type_symbol
_atom_site_fract_x
_atom_site_fract_y
_atom_site_fract_z
P1 P 0.0727(1) 0.4577(1) 0.2700(1)
O1 O -0.0111(2) 0.5193(1) 0.3241(1)
O2 O 0.2382(2) 0.5299(1) 0.2560(1)
N1 N 0.0742(2) 0.3240(1) 0.3261(1)
N2 N 0.1671(2) 0.2555(1) 0.3083(1)
C1 C 0.1294(2) 0.1561(2) 0.3584(1)
C2 C 0.0112(2) 0.1579(2) 0.4080(1)
C3 C -0.0212(2) 0.2657(2) 0.3848(1)
C4 C 0.2038(2) 0.0571(2) 0.3549(1)
N3 N 0.1676(2) -0.0339(2) 0.4127(1)
C5 C 0.2264(3) -0.1288(2) 0.4061(2)
C6 C 0.3207(3) -0.1378(2) 0.3447(2)
C7 C 0.3598(3) -0.0422(2) 0.2871(2)
C8 C 0.3011(3) 0.0574(2) 0.2921(2)
N4 N -0.0711(2) 0.3761(1) 0.1495(1)
N5 N -0.2415(2) 0.3055(1) 0.1350(1)
C9 C -0.3120(2) 0.2566(2) 0.0347(1)
C10 C -0.1895(3) 0.2956(2) -0.0157(2)
C11 C -0.0379(3) 0.3701(2) 0.0597(2)
C12 C -0.4963(2) 0.1675(2) -0.0096(1)
N6 N -0.5582(2) 0.1270(2) -0.1114(1)
C13 C -0.7234(3) 0.0411(2) -0.1524(2)
C14 C -0.8318(3) -0.0067(2) -0.0970(2)
C15 C -0.7669(3) 0.0366(2) 0.0076(2)
C16 C -0.5965(2) 0.1251(2) 0.0522(1)
H1 H -0.0352(2) 0.0978(2) 0.4483(1)
H2 H -0.0969(2) 0.2948(2) 0.4059(1)
H3 H 0.2011(3) -0.1943(2) 0.4466(2)
H4 H 0.3577(3) -0.2080(2) 0.3422(2)
H5 H 0.4262(3) -0.0442(2) 0.2444(2)
H6 H 0.3270(3) 0.1248(2) 0.2531(2)
H7 H -0.2084(3) 0.2747(2) -0.0868(2)
H8 H 0.0712(3) 0.4104(2) 0.0512(2)
H9 H -0.7686(3) 0.0112(2) -0.2244(2)
H10 H -0.9480(3) -0.0679(2) -0.1299(2)
H11 H -0.8381(3) 0.0063(2) 0.0484(2)
H12 H -0.5488(2) 0.1563(2) 0.1241(1)
N7 N -0.3053(2) 0.5526(2) 0.2717(1)
C17 C -0.3863(3) 0.5469(2) 0.1612(2)
C18 C -0.2594(4) 0.6217(3) 0.1115(2)
C19 C -0.4290(3) 0.4492(2) 0.3098(2)
C20 C -0.3572(3) 0.4487(3) 0.4211(2)
C21 C -0.2267(2) 0.6921(2) 0.3360(2)
C22 C -0.3547(3) 0.7469(2) 0.3465(2)
H13 H -0.2140(29) 0.5309(22) 0.2793(17)
H14 H -0.4718(3) 0.5852(2) 0.1547(2)
H15 H -0.4476(3) 0.4518(2) 0.1247(2)
H16 H -0.3171(6) 0.6054(15) 0.0380(3)
H17 H -0.1679(13) 0.5905(14) 0.1236(12)
H18 H -0.2102(18) 0.7181(3) 0.1405(10)
H19 H -0.4634(3) 0.3593(2) 0.2688(2)
H20 H -0.5330(3) 0.4661(2) 0.2991(2)
H21 H -0.4334(12) 0.3681(9) 0.4374(4)
H22 H -0.3482(22) 0.5288(10) 0.4632(2)
H23 H -0.2435(10) 0.4489(19) 0.4350(4)
H24 H -0.1474(2) 0.7533(2) 0.3057(2)
H25 H -0.1582(2) 0.6917(2) 0.4049(2)
H26 H -0.2938(3) 0.8370(7) 0.3902(10)
H27 H -0.4333(13) 0.6876(9) 0.3771(11)
H28 H -0.4198(14) 0.7518(15) 0.2790(2)
loop_
_geom_bond_atom_site_label_1
_geom_bond_atom_site_label_2
_geom_bond_site_symmetry_1
_geom_bond_site_symmetry_2
P1 O1 1_555 1_555
O2 P1 1_555 1_555
N1 P1 1_555 1_555
N2 N1 1_555 1_555
C1 N2 1_555 1_555
C2 C1 1_555 1_555
C3 N1 1_555 1_555
C4 C1 1_555 1_555
N3 C4 1_555 1_555
C5 N3 1_555 1_555
C6 C5 1_555 1_555
C7 C6 1_555 1_555
C8 C4 1_555 1_555
N4 P1 1_555 1_555
N5 N4 1_555 1_555
C9 N5 1_555 1_555
C10 C9 1_555 1_555
C11 N4 1_555 1_555
C12 C9 1_555 1_555
N6 C12 1_555 1_555
C13 N6 1_555 1_555
C14 C13 1_555 1_555
C15 C14 1_555 1_555
C16 C12 1_555 1_555
N7 C17 1_555 1_555
C17 C18 1_555 1_555
C18 H16 1_555 1_555
C19 N7 1_555 1_555
C20 C19 1_555 1_555
C21 N7 1_555 1_555
C22 C21 1_555 1_555
H1 C2 1_555 1_555
H2 C3 1_555 1_555
H3 C5 1_555 1_555
H4 C6 1_555 1_555
H5 C7 1_555 1_555
H6 C8 1_555 1_555
H7 C10 1_555 1_555
H8 C11 1_555 1_555
H9 C13 1_555 1_555
H10 C14 1_555 1_555
H11 C15 1_555 1_555
H12 C16 1_555 1_555
H13 N7 1_555 1_555
H14 C17 1_555 1_555
H15 C17 1_555 1_555
H17 C18 1_555 1_555
H18 C18 1_555 1_555
H19 C19 1_555 1_555
H20 C19 1_555 1_555
H21 C20 1_555 1_555
H22 C20 1_555 1_555
H23 C20 1_555 1_555
H24 C21 1_555 1_555
H25 C21 1_555 1_555
H26 C22 1_555 1_555
H27 C22 1_555 1_555
H28 C22 1_555 1_555
C2 C3 1_555 1_555
C7 C8 1_555 1_555
C10 C11 1_555 1_555
C15 C16 1_555 1_555

#END
