
#######################################################################
#
#                 Cambridge Crystallographic Data Centre
#                                CCDC 
#
#######################################################################
#
# If this CIF has been generated from an entry in the Cambridge 
# Structural Database, then it will include bibliographic, chemical, 
# crystal, experimental, refinement or atomic coordinate data resulting 
# from the CCDC's data processing and validation procedures.
#
#######################################################################

data_NABVOE
_chemical_formula_moiety         'C21 H26 N1 O6 1+,C7 H7 O3 S1 1-,1.5(H2 O1)'
_chemical_name_systematic        
'N-((5,7-dihydroxy-2-(3-hydroxy-4-methoxyphenyl)-4-oxo-3,4-dihydro-2H-chromen-6-yl)methyl)-2-methylpropan-2-aminium 4-methylbenzenesulfonate sesquihydrate'
_chemical_properties_biological  'anti-inflammatory activity'
_symmetry_cell_setting           triclinic
_symmetry_space_group_name_H-M   'P -1'
_symmetry_Int_Tables_number      2
_space_group_name_Hall           '-P 1'
loop_
_symmetry_equiv_pos_site_id
_symmetry_equiv_pos_as_xyz
1 x,y,z
2 -x,-y,-z
_cell_length_a                   10.0751(8)
_cell_length_b                   11.7584(13)
_cell_length_c                   27.841(2)
_cell_angle_alpha                95.527(8)
_cell_angle_beta                 94.491(6)
_cell_angle_gamma                114.529(9)
_cell_volume                     2961.04
_exptl_crystal_colour            'light orange'
_exptl_crystal_description       block
_cell_formula_units_Z            4
loop_
_atom_site_label
_atom_site_type_symbol
_atom_site_fract_x
_atom_site_fract_y
_atom_site_fract_z
O1 O 2.2949(3) 1.9141(3) 0.39355(10)
H1 H 2.2649 1.8413 0.3995
O2 O 2.3557(3) 2.1377(3) 0.37039(12)
O3 O 1.7499(2) 1.7660(2) 0.25195(8)
O4 O 1.6201(3) 1.3923(2) 0.26404(11)
O5 O 1.3889(3) 1.3387(2) 0.20121(10)
H2 H 1.4479 1.3247 0.2188
O6 O 1.3481(2) 1.6704(2) 0.13161(9)
H3 H 1.3918 1.7465 0.1311
N1 N 1.2665(3) 1.3668(2) 0.08718(9)
H4 H 1.3472 1.3586 0.0859
C1 C 2.1893(4) 1.9254(3) 0.36307(12)
C2 C 2.0569(4) 1.8246(3) 0.34436(12)
H5 H 2.0367 1.7453 0.3532
C3 C 1.9540(4) 1.8396(3) 0.31281(12)
C4 C 1.9865(4) 1.9590(3) 0.30027(14)
H6 H 1.9189 1.9715 0.2793
C5 C 2.1193(4) 2.0596(3) 0.31896(17)
H7 H 2.1401 2.1389 0.3101
C6 C 2.2207(4) 2.0443(3) 0.35027(14)
C7 C 1.8066(4) 1.7304(3) 0.29367(13)
H8 H 1.7413 1.7264 0.3184
C8 C 1.8060(4) 1.6035(3) 0.28483(15)
H9 H 1.8288 1.5791 0.3156
H10 H 1.8816 1.6071 0.2647
C9 C 1.6575(4) 1.5052(3) 0.25976(13)
C10 C 1.5722(3) 1.5483(3) 0.22974(11)
C11 C 1.6221(3) 1.6779(3) 0.22585(11)
C12 C 1.5496(3) 1.7216(3) 0.19402(11)
H11 H 1.5844 1.8075 0.1922
C13 C 1.4233(3) 1.6350(3) 0.16460(11)
C14 C 1.3664(3) 1.5054(3) 0.16721(11)
C15 C 1.4409(4) 1.4640(3) 0.19970(12)
C16 C 1.2309(3) 1.4159(3) 0.13399(12)
H12 H 1.1693 1.4588 0.1267
H13 H 1.1755 1.3453 0.1505
C17 C 1.1545(4) 1.3322(4) 0.04213(12)
C18 C 1.2011(5) 1.2632(5) 0.00364(13)
H14 H 1.3003 1.3151 -0.0013
H15 H 1.1368 1.2444 -0.0262
H16 H 1.1959 1.1859 0.0139
C19 C 1.0038(4) 1.2462(5) 0.05470(16)
H17 H 1.0077 1.1725 0.0656
H18 H 0.9321 1.2212 0.0263
H19 H 0.9769 1.2906 0.0800
C20 C 1.1591(6) 1.4536(5) 0.02675(18)
H20 H 1.1404 1.5011 0.0533
H21 H 1.0853 1.4342 -0.0006
H22 H 1.2544 1.5026 0.0178
C21 C 2.3971(10) 2.2589(7) 0.3499(4)
H23 H 2.4015 2.2444 0.3156
H24 H 2.4916 2.3195 0.3658
H25 H 2.3248 2.2907 0.3549
O7 O 0.5539(2) 0.3627(2) 0.06016(9)
O8 O 0.5721(2) 0.58879(18) 0.07836(8)
H29 H 0.5917 0.6643 0.0833
O9 O 1.1072(2) 0.68592(18) 0.21559(7)
O10 O 1.3149(3) 1.0572(2) 0.19782(10)
O11 O 1.5161(3) 1.0885(2) 0.26847(9)
H30 H 1.4715 1.1094 0.2478
O12 O 1.4816(3) 0.7355(2) 0.33985(9)
H31 H 1.4181 0.6690 0.3457
N2 N 1.6182(3) 1.0702(3) 0.37644(11)
H32 H 1.5592 1.1051 0.3717
C23 C 0.8060(3) 0.6616(3) 0.12915(11)
H33 H 0.8131 0.7433 0.1347
C24 C 0.6850(3) 0.5688(2) 0.09983(10)
C25 C 0.6751(3) 0.4470(3) 0.09116(11)
C26 C 0.7811(4) 0.4180(3) 0.11375(14)
H34 H 0.7719 0.3355 0.1092
C27 C 0.9024(4) 0.5120(3) 0.14350(14)
H35 H 0.9736 0.4918 0.1587
C28 C 0.9176(3) 0.6345(3) 0.15051(12)
C29 C 1.2552(4) 0.9432(3) 0.20261(12)
C30 C 1.3107(3) 0.8913(3) 0.23847(10)
C31 C 1.4433(3) 0.9637(3) 0.27002(11)
C32 C 1.5012(3) 0.9116(3) 0.30332(11)
C33 C 1.4222(3) 0.7834(3) 0.30674(11)
C34 C 1.2903(3) 0.7094(3) 0.27750(11)
H36 H 1.2388 0.6247 0.2808
C35 C 1.2362(3) 0.7624(3) 0.24362(10)
C36 C 1.6411(4) 0.9907(3) 0.33565(13)
H37 H 1.7122 1.0449 0.3167
H38 H 1.6809 0.9363 0.3489
C37 C 1.7011(6) 1.0880(5) 0.42641(17)
C38 C 0.5578(5) 0.2485(4) 0.04040(18)
H39 H 0.4746 0.2029 0.0159
H40 H 0.5544 0.1980 0.0658
H41 H 0.6469 0.2673 0.0261
C39 C 1.0361(8) 0.7425(7) 0.1883(3)
H42 H 0.9870 0.7790 0.2098
C40 C 1.1419(8) 0.8460(7) 0.1628(2)
H43 H 1.1895 0.8114 0.1405
H44 H 1.0894 0.8843 0.1445
C41 C 1.8816(18) 1.1282(19) 0.4156(7)
H45 H 1.8849 1.0624 0.3931
H46 H 1.9417 1.1386 0.4456
H47 H 1.9178 1.2058 0.4019
C42 C 1.6949(16) 1.1751(16) 0.4566(6)
H48 H 1.7306 1.2531 0.4432
H49 H 1.7548 1.1855 0.4867
H50 H 1.5949 1.1518 0.4624
C43 C 1.6675(16) 0.9491(13) 0.4418(6)
H51 H 1.5632 0.8985 0.4377
H52 H 1.7071 0.9585 0.4752
H53 H 1.7127 0.9087 0.4214
S1 S 1.18049(12) 0.54794(10) 0.39567(4)
O13 O 1.0280(4) 0.4851(4) 0.37728(14)
O14 O 1.2757(4) 0.5268(3) 0.36161(10)
O15 O 1.2262(4) 0.6817(3) 0.41332(12)
C49 C 1.1098(9) 0.4586(8) 0.4829(3)
H66 H 1.0291 0.4775 0.4785
C50 C 1.1363(12) 0.4110(8) 0.5243(3)
H67 H 1.0609 0.3740 0.5429
C51 C 1.2720(12) 0.4181(10) 0.5379(3)
C52 C 1.3790(16) 0.4755(15) 0.5113(5)
H68 H 1.4747 0.4881 0.5216
C53 C 1.3481(14) 0.5170(13) 0.4681(4)
H69 H 1.4250 0.5719 0.4536
C54 C 1.307(2) 0.3803(13) 0.5867(4)
H70 H 1.3324 0.4501 0.6121
H71 H 1.3877 0.3575 0.5854
H72 H 1.2220 0.3095 0.5934
C55 C 1.2077(5) 0.4783(5) 0.44717(17)
S2 S 1.62496(9) 0.94359(7) 0.09451(3)
O16 O 1.4779(2) 0.9014(2) 0.11004(10)
O17 O 1.6688(3) 0.8416(2) 0.08727(9)
O18 O 1.6387(3) 1.0132(2) 0.05376(8)
C62 C 1.7475(3) 1.0506(3) 0.14409(11)
C63 C 1.8858(4) 1.0563(3) 0.15526(13)
H80 H 1.9136 1.0002 0.1377
C64 C 1.9834(4) 1.1450(3) 0.19250(14)
H81 H 2.0764 1.1477 0.1998
C65 C 1.9458(4) 1.2293(3) 0.21888(13)
C66 C 1.8070(5) 1.2210(4) 0.20761(15)
H82 H 1.7793 1.2767 0.2255
C67 C 1.7060(4) 1.1328(4) 0.17056(14)
H83 H 1.6124 1.1293 0.1638
C68 C 2.0545(6) 1.3297(4) 0.25847(17)
H84 H 2.0380 1.3010 0.2895
H85 H 2.0415 1.4060 0.2583
H86 H 2.1530 1.3458 0.2526
O19 O 1.2421(5) 1.1304(3) 0.10631(12)
H87 H 1.247(6) 1.059(6) 0.080(2)
H88 H 1.341(4) 1.170(3) 0.1089(11)
O20 O 1.2706(3) 0.9459(3) 0.04296(13)
H89 H 1.298(6) 0.961(5) 0.014(2)
H90 H 1.337(7) 0.936(6) 0.058(2)
O21 O 1.7449(4) 1.3125(3) 0.34713(12)
H91 H 1.7191 1.3127 0.3174
H92 H 1.8369 1.3576 0.3543
C22? C 2.376(3) 2.259(2) 0.3781(8)
H26? H 2.3694 2.2883 0.3474
H27? H 2.4710 2.3096 0.3962
H28? H 2.3011 2.2649 0.3962
C44? C 1.0739(10) 0.7296(9) 0.1700(3)
H54? H 1.1404 0.7239 0.1470
C45? C 1.0923(9) 0.8622(8) 0.1791(3)
H55? H 1.0248 0.8693 0.2009
H56? H 1.0730 0.8904 0.1488
C46? C 1.8442(18) 1.1533(18) 0.4296(7)
H57? H 1.8866 1.1019 0.4144
H58? H 1.8853 1.1794 0.4633
H59? H 1.8653 1.2265 0.4136
C47? C 1.6123(16) 0.9790(13) 0.4504(6)
H60? H 1.5104 0.9623 0.4444
H61? H 1.6442 0.9980 0.4848
H62? H 1.6250 0.9060 0.4375
C48? C 1.6297(18) 1.1957(16) 0.4578(5)
H63? H 1.6659 1.2743 0.4449
H64? H 1.6627 1.2110 0.4921
H65? H 1.5241 1.1569 0.4525
C56? C 1.2127(13) 0.3383(11) 0.5217(3)
C57? C 1.2059(11) 0.2888(7) 0.4737(4)
H73? H 1.2031 0.2089 0.4665
C58? C 1.2034(9) 0.3588(6) 0.4364(2)
H74? H 1.1989 0.3257 0.4043
C59? C 1.2145(12) 0.5278(7) 0.4952(2)
H75? H 1.2174 0.6078 0.5023
C60? C 1.2170(16) 0.4578(11) 0.53244(16)
H76? H 1.2215 0.4910 0.5646
C61? C 1.216(3) 0.265(3) 0.5647(9)
H77? H 1.1290 0.2469 0.5801
H78? H 1.3014 0.3154 0.5879
H79? H 1.2205 0.1874 0.5528
loop_
_geom_bond_atom_site_label_1
_geom_bond_atom_site_label_2
_geom_bond_site_symmetry_1
_geom_bond_site_symmetry_2
O1 H1 1_555 1_555
O2 C6 1_555 1_555
O3 C7 1_555 1_555
O4 C9 1_555 1_555
O5 H2 1_555 1_555
O6 H3 1_555 1_555
N1 H4 1_555 1_555
C1 O1 1_555 1_555
C2 C1 1_555 1_555
H5 C2 1_555 1_555
C3 C2 1_555 1_555
C4 C3 1_555 1_555
H6 C4 1_555 1_555
C5 C4 1_555 1_555
H7 C5 1_555 1_555
C6 C1 1_555 1_555
C7 C3 1_555 1_555
H8 C7 1_555 1_555
C8 C7 1_555 1_555
H9 C8 1_555 1_555
H10 C8 1_555 1_555
C9 C8 1_555 1_555
C10 C9 1_555 1_555
C11 O3 1_555 1_555
C12 C11 1_555 1_555
H11 C12 1_555 1_555
C13 O6 1_555 1_555
C14 C13 1_555 1_555
C15 O5 1_555 1_555
C16 N1 1_555 1_555
H12 C16 1_555 1_555
H13 C16 1_555 1_555
C17 N1 1_555 1_555
C18 C17 1_555 1_555
H14 C18 1_555 1_555
H15 C18 1_555 1_555
H16 C18 1_555 1_555
C19 C17 1_555 1_555
H17 C19 1_555 1_555
H18 C19 1_555 1_555
H19 C19 1_555 1_555
C20 C17 1_555 1_555
H20 C20 1_555 1_555
H21 C20 1_555 1_555
H22 C20 1_555 1_555
C21 O2 1_555 1_555
H23 C21 1_555 1_555
H24 C21 1_555 1_555
H25 C21 1_555 1_555
O7 C25 1_555 1_555
O8 H29 1_555 1_555
O9 C35 1_555 1_555
O10 C29 1_555 1_555
O11 H30 1_555 1_555
O12 H31 1_555 1_555
N2 H32 1_555 1_555
C23 H33 1_555 1_555
C24 O8 1_555 1_555
C25 C24 1_555 1_555
C26 C25 1_555 1_555
H34 C26 1_555 1_555
C27 C26 1_555 1_555
H35 C27 1_555 1_555
C28 C23 1_555 1_555
C29 C30 1_555 1_555
C30 C31 1_555 1_555
C31 O11 1_555 1_555
C32 C31 1_555 1_555
C33 O12 1_555 1_555
C34 C33 1_555 1_555
H36 C34 1_555 1_555
C35 C30 1_555 1_555
C36 N2 1_555 1_555
H37 C36 1_555 1_555
H38 C36 1_555 1_555
C37 N2 1_555 1_555
C38 O7 1_555 1_555
H39 C38 1_555 1_555
H40 C38 1_555 1_555
H41 C38 1_555 1_555
C39 O9 1_555 1_555
H42 C39 1_555 1_555
C40 C29 1_555 1_555
H43 C40 1_555 1_555
H44 C40 1_555 1_555
C41 C37 1_555 1_555
H45 C41 1_555 1_555
H46 C41 1_555 1_555
H47 C41 1_555 1_555
C42 C37 1_555 1_555
H48 C42 1_555 1_555
H49 C42 1_555 1_555
H50 C42 1_555 1_555
C43 C37 1_555 1_555
H51 C43 1_555 1_555
H52 C43 1_555 1_555
H53 C43 1_555 1_555
S1 O13 1_555 1_555
O14 S1 1_555 1_555
O15 S1 1_555 1_555
C49 H66 1_555 1_555
C50 C49 1_555 1_555
H67 C50 1_555 1_555
C51 C50 1_555 1_555
C52 C51 1_555 1_555
H68 C52 1_555 1_555
C53 C52 1_555 1_555
H69 C53 1_555 1_555
C54 C51 1_555 1_555
H70 C54 1_555 1_555
H71 C54 1_555 1_555
H72 C54 1_555 1_555
C55 S1 1_555 1_555
S2 O16 1_555 1_555
O17 S2 1_555 1_555
O18 S2 1_555 1_555
C62 S2 1_555 1_555
C63 C62 1_555 1_555
H80 C63 1_555 1_555
C64 C63 1_555 1_555
H81 C64 1_555 1_555
C65 C64 1_555 1_555
C66 C65 1_555 1_555
H82 C66 1_555 1_555
C67 C62 1_555 1_555
H83 C67 1_555 1_555
C68 C65 1_555 1_555
H84 C68 1_555 1_555
H85 C68 1_555 1_555
H86 C68 1_555 1_555
O19 H87 1_555 1_555
H88 O19 1_555 1_555
O20 H89 1_555 1_555
H90 O20 1_555 1_555
O21 H91 1_555 1_555
H92 O21 1_555 1_555
C5 C6 1_555 1_555
C10 C11 1_555 1_555
C10 C15 1_555 1_555
C12 C13 1_555 1_555
C14 C15 1_555 1_555
C14 C16 1_555 1_555
C23 C24 1_555 1_555
C27 C28 1_555 1_555
C28 C39 1_555 1_555
C32 C33 1_555 1_555
C32 C36 1_555 1_555
C34 C35 1_555 1_555
C39 C40 1_555 1_555
C49 C55 1_555 1_555
C53 C55 1_555 1_555
C66 C67 1_555 1_555

#END
