
#######################################################################
#
#                 Cambridge Crystallographic Data Centre
#                                CCDC 
#
#######################################################################
#
# If this CIF has been generated from an entry in the Cambridge 
# Structural Database, then it will include bibliographic, chemical, 
# crystal, experimental, refinement or atomic coordinate data resulting 
# from the CCDC's data processing and validation procedures.
#
#######################################################################

data_NACDEC
_chemical_formula_moiety         'C22 H22 O2'
_chemical_name_systematic        
3-(4-Methoxyphenyl)-2-methyl-5-(2-methylprop-1-en-1-yl)-4-phenylfuran
_symmetry_cell_setting           monoclinic
_symmetry_space_group_name_H-M   'P 21/n'
_symmetry_Int_Tables_number      14
_space_group_name_Hall           '-P 2yn'
loop_
_symmetry_equiv_pos_site_id
_symmetry_equiv_pos_as_xyz
1 x,y,z
2 1/2-x,1/2+y,1/2-z
3 -x,-y,-z
4 1/2+x,1/2-y,1/2+z
_cell_length_a                   9.8004(4)
_cell_length_b                   19.8870(9)
_cell_length_c                   10.0615(4)
_cell_angle_alpha                90
_cell_angle_beta                 113.9110(10)
_cell_angle_gamma                90
_cell_volume                     1792.69
_exptl_crystal_colour            colorless
_exptl_crystal_description       block
_cell_formula_units_Z            4
loop_
_atom_site_label
_atom_site_type_symbol
_atom_site_fract_x
_atom_site_fract_y
_atom_site_fract_z
O1 O 0.76895(11) 0.06297(5) 0.64751(12)
O2 O 1.30467(16) -0.23820(7) 1.00792(16)
C1 C 1.2078(2) 0.09133(12) 0.6286(2)
H1 H 1.1334 0.0979 0.5361
C2 C 1.3537(2) 0.10703(14) 0.6556(3)
H2 H 1.3765 0.1246 0.5814
C3 C 1.4648(2) 0.09711(10) 0.7896(3)
H3 H 1.5633 0.1069 0.8066
C4 C 1.4301(2) 0.07257(9) 0.8991(2)
H4 H 1.5051 0.0665 0.9915
C5 C 1.28444(18) 0.05671(8) 0.87317(19)
H5 H 1.2624 0.0396 0.9482
C6 C 1.17086(16) 0.06595(7) 0.73724(17)
C7 C 1.13732(18) -0.10051(8) 0.76308(17)
H6 H 1.1432 -0.0827 0.6801
C8 C 1.22026(19) -0.15637(9) 0.8275(2)
H7 H 1.2810 -0.1760 0.7874
C9 C 1.21438(18) -0.18357(8) 0.95120(19)
C10 C 1.1231(2) -0.15472(8) 1.00921(19)
H8 H 1.1175 -0.1728 1.0920
C11 C 1.03932(19) -0.09815(8) 0.94284(18)
H9 H 0.9780 -0.0788 0.9827
C12 C 1.04463(16) -0.07005(7) 0.81978(16)
C13 C 0.80947(18) 0.00081(8) 0.70942(18)
C14 C 0.95794(16) -0.00910(7) 0.75087(16)
C15 C 1.01443(16) 0.05105(7) 0.71111(16)
C16 C 0.89614(16) 0.09356(8) 0.64969(17)
C17 C 0.6858(2) -0.04129(10) 0.7127(2)
H10 H 0.7247 -0.0838 0.7573
H11 H 0.6136 -0.0486 0.6152
H12 H 0.6391 -0.0187 0.7676
C18 C 0.88968(18) 0.16249(8) 0.60246(18)
H13 H 0.9823 0.1829 0.6284
C19 C 0.77405(19) 0.20164(9) 0.52828(19)
C20 C 0.7972(2) 0.27347(10) 0.4961(3)
H14 H 0.9020 0.2835 0.5371
H15 H 0.7472 0.3027 0.5379
H16 H 0.7572 0.2801 0.3928
C21 C 0.6140(2) 0.17957(11) 0.4680(3)
H17 H 0.6088 0.1332 0.4920
H18 H 0.5711 0.1848 0.3642
H19 H 0.5598 0.2066 0.5092
C22 C 1.3200(3) -0.26242(11) 1.1446(3)
H20 H 1.3856 -0.3006 1.1708
H21 H 1.2239 -0.2755 1.1401
H22 H 1.3608 -0.2277 1.2161
loop_
_geom_bond_atom_site_label_1
_geom_bond_atom_site_label_2
_geom_bond_site_symmetry_1
_geom_bond_site_symmetry_2
O1 C13 1_555 1_555
O2 C9 1_555 1_555
C1 H1 1_555 1_555
C2 C1 1_555 1_555
H2 C2 1_555 1_555
C3 C2 1_555 1_555
H3 C3 1_555 1_555
C4 C3 1_555 1_555
H4 C4 1_555 1_555
C5 C4 1_555 1_555
H5 C5 1_555 1_555
C6 C1 1_555 1_555
C7 H6 1_555 1_555
C8 C7 1_555 1_555
H7 C8 1_555 1_555
C9 C8 1_555 1_555
C10 C9 1_555 1_555
H8 C10 1_555 1_555
C11 C10 1_555 1_555
H9 C11 1_555 1_555
C12 C7 1_555 1_555
C13 C14 1_555 1_555
C14 C12 1_555 1_555
C15 C6 1_555 1_555
C16 O1 1_555 1_555
C17 C13 1_555 1_555
H10 C17 1_555 1_555
H11 C17 1_555 1_555
H12 C17 1_555 1_555
C18 C16 1_555 1_555
H13 C18 1_555 1_555
C19 C18 1_555 1_555
C20 C19 1_555 1_555
H14 C20 1_555 1_555
H15 C20 1_555 1_555
H16 C20 1_555 1_555
C21 C19 1_555 1_555
H17 C21 1_555 1_555
H18 C21 1_555 1_555
H19 C21 1_555 1_555
C22 O2 1_555 1_555
H20 C22 1_555 1_555
H21 C22 1_555 1_555
H22 C22 1_555 1_555
C5 C6 1_555 1_555
C11 C12 1_555 1_555
C14 C15 1_555 1_555
C15 C16 1_555 1_555

#END
