
#######################################################################
#
#                 Cambridge Crystallographic Data Centre
#                                CCDC 
#
#######################################################################
#
# If this CIF has been generated from an entry in the Cambridge 
# Structural Database, then it will include bibliographic, chemical, 
# crystal, experimental, refinement or atomic coordinate data resulting 
# from the CCDC's data processing and validation procedures.
#
#######################################################################

data_NACFUU
_chemical_formula_moiety         'C22 H22 O1'
_chemical_name_systematic        
4'-(2-methoxyethyl)-2'-methyl-1,1':3',1''-terphenyl
_symmetry_cell_setting           monoclinic
_symmetry_space_group_name_H-M   'P 21/n'
_symmetry_Int_Tables_number      14
_space_group_name_Hall           '-P 2yn'
loop_
_symmetry_equiv_pos_site_id
_symmetry_equiv_pos_as_xyz
1 x,y,z
2 1/2-x,1/2+y,1/2-z
3 -x,-y,-z
4 1/2+x,1/2-y,1/2+z
_cell_length_a                   15.292(3)
_cell_length_b                   6.2213(14)
_cell_length_c                   18.490(4)
_cell_angle_alpha                90
_cell_angle_beta                 93.435(5)
_cell_angle_gamma                90
_cell_volume                     1755.91
_exptl_crystal_colour            colorless
_exptl_crystal_description       prismatic
_cell_formula_units_Z            4
loop_
_atom_site_label
_atom_site_type_symbol
_atom_site_fract_x
_atom_site_fract_y
_atom_site_fract_z
O1 O 1.0360(3) -0.4783(12) 0.3444(3)
C1 C 0.94161(17) 0.2164(4) 0.13552(14)
C2 C 0.85730(18) 0.2886(5) 0.14993(16)
C3 C 0.8235(2) 0.2331(6) 0.21530(18)
H1 H 0.7669 0.2753 0.2247
C4 C 0.8722(2) 0.1167(6) 0.26650(17)
H2 H 0.8484 0.0844 0.3103
C5 C 0.95603(19) 0.0465(5) 0.25413(16)
C6 C 0.99045(16) 0.0953(5) 0.18794(15)
C7 C 1.08083(17) 0.0209(5) 0.17287(14)
C8 C 1.0950(2) -0.1759(6) 0.13975(17)
H3 H 1.0474 -0.2647 0.1279
C9 C 1.1776(2) -0.2428(6) 0.12403(19)
H4 H 1.1854 -0.3741 0.1013
C10 C 1.2474(2) -0.1148(8) 0.14218(19)
H5 H 1.3035 -0.1586 0.1319
C11 C 1.2354(2) 0.0811(8) 0.17603(19)
H6 H 1.2834 0.1675 0.1889
C12 C 1.15290(19) 0.1473(5) 0.19043(16)
H7 H 1.1454 0.2799 0.2125
C13 C 0.80317(18) 0.4223(5) 0.09751(15)
C14 C 0.8285(2) 0.6263(6) 0.0787(2)
H8 H 0.8808 0.6823 0.0991
C15 C 0.7777(3) 0.7490(6) 0.0303(2)
H9 H 0.7967 0.8853 0.0177
C16 C 0.7008(3) 0.6729(7) 0.00103(19)
H10 H 0.6666 0.7564 -0.0314
C17 C 0.6740(2) 0.4767(7) 0.01905(18)
H11 H 0.6210 0.4242 -0.0009
C18 C 0.72478(19) 0.3502(5) 0.06733(16)
H12 H 0.7050 0.2141 0.0793
C19 C 0.97987(19) 0.2636(5) 0.06369(14)
H13 H 1.0209 0.3800 0.0695
H14 H 0.9337 0.3028 0.0287
H15 H 1.0093 0.1380 0.0473
C20 C 1.0061(2) -0.0784(7) 0.31277(18)
H16 H 1.0683 -0.0561 0.3084
H17 H 0.9913 -0.0235 0.3596
C21 C 0.9875(2) -0.3091(8) 0.3096(3)
H18 H 0.9284 -0.3241 0.3252
H19 H 0.9844 -0.3452 0.2585
C22 C 0.9981(3) -0.5452(11) 0.4025(3)
H24 H 0.9905 -0.4259 0.4345
H25 H 1.0180 -0.5816 0.4512
H26 H 0.9352 -0.5463 0.3984
H20? H 0.9258 -0.3358 0.3021
H21? H 1.0210 -0.3811 0.2746
H22? H 1.0342 -0.6521 0.4269
H23? H 0.9420 -0.6062 0.3884
H27? H 1.0202 -0.6483 0.3695
O2? O 1.0230(4) -0.3634(10) 0.3875(4)
loop_
_geom_bond_atom_site_label_1
_geom_bond_atom_site_label_2
_geom_bond_site_symmetry_1
_geom_bond_site_symmetry_2
O1 C21 1_555 1_555
C1 C2 1_555 1_555
C2 C3 1_555 1_555
C3 H1 1_555 1_555
C4 C3 1_555 1_555
H2 C4 1_555 1_555
C5 C4 1_555 1_555
C6 C1 1_555 1_555
C7 C6 1_555 1_555
C8 C7 1_555 1_555
H3 C8 1_555 1_555
C9 C8 1_555 1_555
H4 C9 1_555 1_555
C10 C9 1_555 1_555
H5 C10 1_555 1_555
C11 C10 1_555 1_555
H6 C11 1_555 1_555
C12 C7 1_555 1_555
H7 C12 1_555 1_555
C13 C2 1_555 1_555
C14 C13 1_555 1_555
H8 C14 1_555 1_555
C15 C14 1_555 1_555
H9 C15 1_555 1_555
C16 C15 1_555 1_555
H10 C16 1_555 1_555
C17 C16 1_555 1_555
H11 C17 1_555 1_555
C18 C13 1_555 1_555
H12 C18 1_555 1_555
C19 C1 1_555 1_555
H13 C19 1_555 1_555
H14 C19 1_555 1_555
H15 C19 1_555 1_555
C20 C5 1_555 1_555
H16 C20 1_555 1_555
H17 C20 1_555 1_555
C21 C20 1_555 1_555
H18 C21 1_555 1_555
H19 C21 1_555 1_555
C22 O1 1_555 1_555
H24 C22 1_555 1_555
H25 C22 1_555 1_555
H26 C22 1_555 1_555
C5 C6 1_555 1_555
C11 C12 1_555 1_555
C17 C18 1_555 1_555

#END
