
#######################################################################
#
#                 Cambridge Crystallographic Data Centre
#                                CCDC 
#
#######################################################################
#
# If this CIF has been generated from an entry in the Cambridge 
# Structural Database, then it will include bibliographic, chemical, 
# crystal, experimental, refinement or atomic coordinate data resulting 
# from the CCDC's data processing and validation procedures.
#
#######################################################################

data_NACGAA
_chemical_formula_moiety         'C23 H22 N2 O1'
_chemical_name_systematic        
(2S,5S)-2-(2-Pyridyl)-4,4-diphenyl-1-aza-3-oxabicyclo(3.3.0)octane
_symmetry_cell_setting           orthorhombic
_symmetry_space_group_name_H-M   'P 21 21 21'
_symmetry_Int_Tables_number      19
_space_group_name_Hall           'P 2ac 2ab'
loop_
_symmetry_equiv_pos_site_id
_symmetry_equiv_pos_as_xyz
1 x,y,z
2 1/2+x,1/2-y,-z
3 -x,1/2+y,1/2-z
4 1/2-x,-y,1/2+z
_cell_length_a                   8.4747(8)
_cell_length_b                   10.8829(10)
_cell_length_c                   19.777(2)
_cell_angle_alpha                90
_cell_angle_beta                 90
_cell_angle_gamma                90
_cell_volume                     1824.02
_exptl_crystal_colour            colorless
_cell_formula_units_Z            4
_exptl_crystal_recrystallization_method 'ethyl acetate/petroleum ether'
loop_
_atom_site_label
_atom_site_type_symbol
_atom_site_fract_x
_atom_site_fract_y
_atom_site_fract_z
O1 O 0.82491(13) 0.58914(10) 0.36393(5)
N1 N 0.86473(16) 0.78308(12) 0.40803(7)
N2 N 1.17086(18) 0.77293(14) 0.32849(8)
C1 C 0.9454(2) 0.67754(15) 0.37951(8)
H1 H 1.0168 0.6420 0.4147
C2 C 0.7262(2) 0.73090(15) 0.44448(8)
H2 H 0.7453 0.7341 0.4943
C3 C 0.71802(19) 0.59177(14) 0.42036(8)
C4 C 0.8014(3) 0.87051(18) 0.35771(12)
H3 H 0.7668 0.8275 0.3162
H4 H 0.8809 0.9334 0.3456
C5 C 0.6632(3) 0.92718(18) 0.39443(10)
H5 H 0.5902 0.9687 0.3627
H6 H 0.6985 0.9866 0.4292
C6 C 0.5875(2) 0.81491(17) 0.42620(10)
H7 H 0.5157 0.7739 0.3938
H8 H 0.5269 0.8378 0.4671
C7 C 1.04146(19) 0.70502(15) 0.31688(8)
C8 C 1.2608(2) 0.79978(18) 0.27527(10)
H9 H 1.3530 0.8475 0.2827
C9 C 1.2285(3) 0.76251(18) 0.20979(10)
H10 H 1.2966 0.7842 0.1735
C10 C 1.0955(2) 0.69345(19) 0.19868(10)
H11 H 1.0694 0.6666 0.1544
C11 C 0.9995(2) 0.66337(17) 0.25328(9)
H12 H 0.9071 0.6153 0.2470
C12 C 0.77581(19) 0.50270(15) 0.47538(8)
C13 C 0.8707(2) 0.40307(16) 0.45766(10)
H13 H 0.9027 0.3931 0.4120
C14 C 0.9189(2) 0.31823(18) 0.50586(12)
H14 H 0.9840 0.2511 0.4930
C15 C 0.8724(3) 0.3313(2) 0.57248(12)
H15 H 0.9050 0.2732 0.6055
C16 C 0.7784(3) 0.4294(2) 0.59062(10)
H16 H 0.7460 0.4381 0.6363
C17 C 0.7302(2) 0.51579(17) 0.54295(9)
H17 H 0.6665 0.5834 0.5563
C18 C 0.5569(2) 0.54925(15) 0.39455(8)
C19 C 0.4332(2) 0.52705(18) 0.43946(10)
H18 H 0.4481 0.5417 0.4864
C20 C 0.2887(2) 0.48386(18) 0.41656(10)
H19 H 0.2060 0.4686 0.4479
C21 C 0.2647(2) 0.46302(17) 0.34854(10)
H20 H 0.1666 0.4319 0.3328
C22 C 0.3845(2) 0.4879(2) 0.30379(11)
H21 H 0.3676 0.4758 0.2568
C23 C 0.5303(2) 0.53056(18) 0.32617(9)
H22 H 0.6119 0.5469 0.2945
loop_
_geom_bond_atom_site_label_1
_geom_bond_atom_site_label_2
_geom_bond_site_symmetry_1
_geom_bond_site_symmetry_2
O1 C1 1_555 1_555
N1 C1 1_555 1_555
N2 C7 1_555 1_555
C1 H1 1_555 1_555
C2 N1 1_555 1_555
H2 C2 1_555 1_555
C3 O1 1_555 1_555
C4 N1 1_555 1_555
H3 C4 1_555 1_555
H4 C4 1_555 1_555
C5 C4 1_555 1_555
H5 C5 1_555 1_555
H6 C5 1_555 1_555
C6 C2 1_555 1_555
H7 C6 1_555 1_555
H8 C6 1_555 1_555
C7 C1 1_555 1_555
C8 N2 1_555 1_555
H9 C8 1_555 1_555
C9 C8 1_555 1_555
H10 C9 1_555 1_555
C10 C9 1_555 1_555
H11 C10 1_555 1_555
C11 C7 1_555 1_555
H12 C11 1_555 1_555
C12 C3 1_555 1_555
C13 C12 1_555 1_555
H13 C13 1_555 1_555
C14 C13 1_555 1_555
H14 C14 1_555 1_555
C15 C14 1_555 1_555
H15 C15 1_555 1_555
C16 C15 1_555 1_555
H16 C16 1_555 1_555
C17 C12 1_555 1_555
H17 C17 1_555 1_555
C18 C3 1_555 1_555
C19 C18 1_555 1_555
H18 C19 1_555 1_555
C20 C19 1_555 1_555
H19 C20 1_555 1_555
C21 C20 1_555 1_555
H20 C21 1_555 1_555
C22 C21 1_555 1_555
H21 C22 1_555 1_555
C23 C18 1_555 1_555
H22 C23 1_555 1_555
C2 C3 1_555 1_555
C5 C6 1_555 1_555
C10 C11 1_555 1_555
C16 C17 1_555 1_555
C22 C23 1_555 1_555

#END
