
#######################################################################
#
#                 Cambridge Crystallographic Data Centre
#                                CCDC 
#
#######################################################################
#
# If this CIF has been generated from an entry in the Cambridge 
# Structural Database, then it will include bibliographic, chemical, 
# crystal, experimental, refinement or atomic coordinate data resulting 
# from the CCDC's data processing and validation procedures.
#
#######################################################################

data_NACGAB
_chemical_formula_moiety         'C26 H26 N2 O3'
_chemical_name_systematic        
1-(2-Benzylphenyl)-5-(nitromethyl)-1,3,4,4a,5,10a-hexahydro-2H-chromeno[2,3-b]pyridine
_symmetry_cell_setting           triclinic
_symmetry_space_group_name_H-M   'P -1'
_symmetry_Int_Tables_number      2
_space_group_name_Hall           '-P 1'
loop_
_symmetry_equiv_pos_site_id
_symmetry_equiv_pos_as_xyz
1 x,y,z
2 -x,-y,-z
_cell_length_a                   8.9828(9)
_cell_length_b                   10.4604(10)
_cell_length_c                   12.0419(11)
_cell_angle_alpha                84.888(2)
_cell_angle_beta                 80.135(2)
_cell_angle_gamma                82.659(2)
_cell_volume                     1103.01
_cell_formula_units_Z            2
loop_
_atom_site_label
_atom_site_type_symbol
_atom_site_fract_x
_atom_site_fract_y
_atom_site_fract_z
C1 C -0.1138(2) 0.33640(19) 0.36265(17)
C2 C -0.0473(3) 0.2790(2) 0.45258(18)
H1 H 0.0283 0.3177 0.4764
C3 C -0.2686(3) 0.1620(2) 0.3855(2)
H2 H -0.3441 0.1224 0.3625
C4 C -0.2253(3) 0.2756(2) 0.32971(17)
H3 H -0.2718 0.3118 0.2691
C5 C -0.0912(3) 0.1652(2) 0.50763(17)
H4 H -0.0450 0.1279 0.5681
C6 C -0.2014(3) 0.1073(2) 0.4741(2)
H5 H -0.2308 0.0306 0.5115
C7 C -0.1541(2) 0.69882(17) 0.28187(15)
C8 C -0.1717(2) 0.58068(18) 0.34243(17)
C9 C -0.2833(3) 0.5776(2) 0.43796(19)
H6 H -0.2962 0.4994 0.4795
C10 C -0.2463(2) 0.80857(19) 0.31720(18)
H7 H -0.2339 0.8875 0.2767
C11 C -0.3747(3) 0.6870(2) 0.47248(19)
H8 H -0.4486 0.6825 0.5366
C12 C -0.3567(3) 0.8024(2) 0.4122(2)
H9 H -0.4186 0.8768 0.4350
C13 C -0.0691(3) 0.4614(2) 0.3036(2)
H10 H -0.0675 0.4574 0.2232
H11 H 0.0336 0.4701 0.3144
O1 O 0.07764(14) 0.87949(11) 0.21290(10)
N1 N -0.03915(17) 0.70159(14) 0.18238(12)
C14 C 0.1009(2) 0.74095(16) 0.19882(15)
H12 H 0.1295 0.6960 0.2683
C15 C 0.2036(2) 0.94378(17) 0.20283(15)
C16 C 0.3760(2) 0.75371(17) 0.12251(16)
H13 H 0.4482 0.7516 0.0516
C17 C 0.2279(2) 0.70890(17) 0.10163(15)
H14 H 0.2441 0.6147 0.0987
C18 C 0.3484(2) 0.89053(18) 0.15806(15)
C19 C 0.1807(2) 0.7664(2) -0.00950(15)
H15 H 0.1711 0.8599 -0.0112
H16 H 0.2582 0.7388 -0.0719
C20 C 0.1772(3) 1.06880(18) 0.23780(17)
H17 H 0.0793 1.1029 0.2678
C21 C 0.4664(2) 0.9677(2) 0.14820(19)
H18 H 0.5646 0.9347 0.1178
C22 C -0.0916(2) 0.7573(2) 0.07710(16)
H19 H -0.1121 0.8505 0.0789
H20 H -0.1850 0.7237 0.0698
C23 C 0.0297(3) 0.7229(2) -0.02248(17)
H21 H -0.0020 0.7640 -0.0914
H22 H 0.0423 0.6301 -0.0284
C24 C 0.2957(3) 1.1421(2) 0.2281(2)
H23 H 0.2784 1.2255 0.2522
C25 C 0.4403(3) 1.0919(2) 0.1826(2)
H24 H 0.5205 1.1419 0.1750
C26 C 0.4488(2) 0.66691(19) 0.21311(19)
H25 H 0.5359 0.7043 0.2285
H26 H 0.3759 0.6632 0.2825
N2 N 0.4983(3) 0.5343(2) 0.1772(3)
O2 O 0.4305(3) 0.4483(2) 0.2251(3)
O3 O 0.6047(3) 0.5208(2) 0.1003(3)
loop_
_geom_bond_atom_site_label_1
_geom_bond_atom_site_label_2
_geom_bond_site_symmetry_1
_geom_bond_site_symmetry_2
C1 C2 1_555 1_555
C2 H1 1_555 1_555
C3 H2 1_555 1_555
C4 C1 1_555 1_555
H3 C4 1_555 1_555
C5 C2 1_555 1_555
H4 C5 1_555 1_555
C6 C3 1_555 1_555
H5 C6 1_555 1_555
C7 C8 1_555 1_555
C8 C9 1_555 1_555
C9 H6 1_555 1_555
C10 C7 1_555 1_555
H7 C10 1_555 1_555
C11 C9 1_555 1_555
H8 C11 1_555 1_555
C12 C10 1_555 1_555
H9 C12 1_555 1_555
C13 C1 1_555 1_555
H10 C13 1_555 1_555
H11 C13 1_555 1_555
O1 C14 1_555 1_555
N1 C7 1_555 1_555
C14 N1 1_555 1_555
H12 C14 1_555 1_555
C15 O1 1_555 1_555
C16 H13 1_555 1_555
C17 C14 1_555 1_555
H14 C17 1_555 1_555
C18 C15 1_555 1_555
C19 C17 1_555 1_555
H15 C19 1_555 1_555
H16 C19 1_555 1_555
C20 C15 1_555 1_555
H17 C20 1_555 1_555
C21 C18 1_555 1_555
H18 C21 1_555 1_555
C22 N1 1_555 1_555
H19 C22 1_555 1_555
H20 C22 1_555 1_555
C23 C19 1_555 1_555
H21 C23 1_555 1_555
H22 C23 1_555 1_555
C24 C20 1_555 1_555
H23 C24 1_555 1_555
C25 C21 1_555 1_555
H24 C25 1_555 1_555
C26 C16 1_555 1_555
H25 C26 1_555 1_555
H26 C26 1_555 1_555
N2 C26 1_555 1_555
O2 N2 1_555 1_555
O3 N2 1_555 1_555
C3 C4 1_555 1_555
C5 C6 1_555 1_555
C8 C13 1_555 1_555
C11 C12 1_555 1_555
C16 C17 1_555 1_555
C16 C18 1_555 1_555
C22 C23 1_555 1_555
C24 C25 1_555 1_555

#END
