
#######################################################################
#
#                 Cambridge Crystallographic Data Centre
#                                CCDC 
#
#######################################################################
#
# If this CIF has been generated from an entry in the Cambridge 
# Structural Database, then it will include bibliographic, chemical, 
# crystal, experimental, refinement or atomic coordinate data resulting 
# from the CCDC's data processing and validation procedures.
#
#######################################################################

data_NACHEH
_chemical_formula_moiety         'C27 H15 F9'
_chemical_name_systematic        1,2,5-tris(4-trifluoromethylphenyl)benzene
_symmetry_cell_setting           triclinic
_symmetry_space_group_name_H-M   'P -1'
_symmetry_Int_Tables_number      2
_space_group_name_Hall           '-P 1'
loop_
_symmetry_equiv_pos_site_id
_symmetry_equiv_pos_as_xyz
1 x,y,z
2 -x,-y,-z
_cell_length_a                   9.0812(2)
_cell_length_b                   9.7040(2)
_cell_length_c                   13.7767(4)
_cell_angle_alpha                91.097(1)
_cell_angle_beta                 102.468(1)
_cell_angle_gamma                111.111(1)
_cell_volume                     1099.59
_exptl_crystal_colour            colorless
_exptl_crystal_description       prism
_cell_formula_units_Z            2
loop_
_atom_site_label
_atom_site_type_symbol
_atom_site_fract_x
_atom_site_fract_y
_atom_site_fract_z
C1 C 0.8706(2) 1.02260(18) 0.61606(12)
H1 H 0.9362 1.1248 0.6346
C2 C 0.76699(19) 0.97937(18) 0.52053(12)
C3 C 0.6697(2) 0.82806(19) 0.49312(12)
C4 C 0.6787(2) 0.72764(19) 0.56352(13)
H2 H 0.6117 0.6256 0.5461
C5 C 0.7822(2) 0.77247(19) 0.65775(13)
H3 H 0.7857 0.7015 0.7039
C6 C 0.8814(2) 0.92184(19) 0.68508(12)
C7 C 0.7633(2) 1.09828(18) 0.45447(12)
C8 C 0.9081(2) 1.21608(19) 0.45461(13)
H4 H 1.0080 1.2151 0.4930
C9 C 0.9084(2) 1.33389(19) 0.39989(13)
H5 H 1.0077 1.4142 0.4019
C10 C 0.7630(2) 1.33470(19) 0.34182(13)
C11 C 0.6183(2) 1.2179(2) 0.33939(13)
H6 H 0.5192 1.2177 0.2990
C12 C 0.6183(2) 1.10131(19) 0.39602(13)
H7 H 0.5184 1.0225 0.3951
C13 C 0.76704(17) 1.46093(18) 0.28001(12)
C14 C 0.5568(2) 0.76872(18) 0.39309(13)
C15 C 0.6107(2) 0.7945(2) 0.30545(13)
H8 H 0.7213 0.8534 0.3091
C16 C 0.5047(2) 0.7353(2) 0.21278(14)
H9 H 0.5426 0.7528 0.1534
C17 C 0.3429(2) 0.65034(19) 0.20778(13)
C18 C 0.2869(2) 0.6255(2) 0.29404(14)
H10 H 0.1755 0.5688 0.2900
C19 C 0.3935(2) 0.6837(2) 0.38644(13)
H11 H 0.3550 0.6655 0.4456
C20 C 0.2245(2) 0.58352(16) 0.10971(13)
C21 C 0.9978(2) 0.97251(19) 0.78453(12)
C22 C 1.0801(2) 0.8846(2) 0.82783(14)
H12 H 1.0606 0.7913 0.7938
C23 C 1.1902(2) 0.9310(2) 0.92000(14)
H13 H 1.2463 0.8703 0.9488
C24 C 1.2177(2) 1.0665(2) 0.96965(13)
C25 C 1.1368(2) 1.1556(2) 0.92793(14)
H14 H 1.1560 1.2485 0.9624
C26 C 1.0273(2) 1.1085(2) 0.83532(14)
H15 H 0.9721 1.1698 0.8064
C27 C 1.3417(2) 1.1192(3) 1.06732(15)
F1 F 0.8545(3) 1.59116(14) 0.33192(14)
F2 F 0.8337(3) 1.4579(2) 0.20407(14)
F3 F 0.62172(17) 1.46100(16) 0.24015(14)
F4 F 0.1198(3) 0.6491(2) 0.08467(15)
F5 F 0.2936(2) 0.5892(3) 0.03468(11)
F6 F 0.1360(2) 0.44251(14) 0.11068(11)
F7 F 1.3476(2) 1.00839(19) 1.12194(12)
F8 F 1.31264(18) 1.21194(19) 1.12550(10)
F9 F 1.49027(16) 1.1888(2) 1.05510(11)
loop_
_geom_bond_atom_site_label_1
_geom_bond_atom_site_label_2
_geom_bond_site_symmetry_1
_geom_bond_site_symmetry_2
C1 H1 1_555 1_555
C2 C1 1_555 1_555
C3 C2 1_555 1_555
C4 C3 1_555 1_555
H2 C4 1_555 1_555
C5 C4 1_555 1_555
H3 C5 1_555 1_555
C6 C1 1_555 1_555
C7 C2 1_555 1_555
C8 C7 1_555 1_555
H4 C8 1_555 1_555
C9 C8 1_555 1_555
H5 C9 1_555 1_555
C10 C9 1_555 1_555
C11 C10 1_555 1_555
H6 C11 1_555 1_555
C12 C7 1_555 1_555
H7 C12 1_555 1_555
C13 C10 1_555 1_555
C14 C3 1_555 1_555
C15 C14 1_555 1_555
H8 C15 1_555 1_555
C16 C15 1_555 1_555
H9 C16 1_555 1_555
C17 C16 1_555 1_555
C18 C17 1_555 1_555
H10 C18 1_555 1_555
C19 C14 1_555 1_555
H11 C19 1_555 1_555
C20 C17 1_555 1_555
C21 C6 1_555 1_555
C22 C21 1_555 1_555
H12 C22 1_555 1_555
C23 C22 1_555 1_555
H13 C23 1_555 1_555
C24 C23 1_555 1_555
C25 C24 1_555 1_555
H14 C25 1_555 1_555
C26 C21 1_555 1_555
H15 C26 1_555 1_555
C27 C24 1_555 1_555
F1 C13 1_555 1_555
F2 C13 1_555 1_555
F3 C13 1_555 1_555
F4 C20 1_555 1_555
F5 C20 1_555 1_555
F6 C20 1_555 1_555
F7 C27 1_555 1_555
F8 C27 1_555 1_555
F9 C27 1_555 1_555
C5 C6 1_555 1_555
C11 C12 1_555 1_555
C18 C19 1_555 1_555
C25 C26 1_555 1_555

#END
