
#######################################################################
#
#                 Cambridge Crystallographic Data Centre
#                                CCDC 
#
#######################################################################
#
# If this CIF has been generated from an entry in the Cambridge 
# Structural Database, then it will include bibliographic, chemical, 
# crystal, experimental, refinement or atomic coordinate data resulting 
# from the CCDC's data processing and validation procedures.
#
#######################################################################

data_NACHAD
_chemical_formula_moiety         'C27 H15 F9'
_chemical_name_systematic        1,3,5-tris(4-trifluoromethylphenyl)benzene
_symmetry_cell_setting           monoclinic
_symmetry_space_group_name_H-M   'P 21/c'
_symmetry_Int_Tables_number      14
_space_group_name_Hall           '-P 2ybc'
loop_
_symmetry_equiv_pos_site_id
_symmetry_equiv_pos_as_xyz
1 x,y,z
2 -x,1/2+y,1/2-z
3 -x,-y,-z
4 x,1/2-y,1/2+z
_cell_length_a                   10.9761(2)
_cell_length_b                   23.0582(5)
_cell_length_c                   8.9236(2)
_cell_angle_alpha                90
_cell_angle_beta                 96.173(1)
_cell_angle_gamma                90
_cell_volume                     2245.37
_exptl_crystal_colour            colorless
_exptl_crystal_description       prism
_cell_formula_units_Z            4
loop_
_atom_site_label
_atom_site_type_symbol
_atom_site_fract_x
_atom_site_fract_y
_atom_site_fract_z
C1 C 0.10076(17) 0.78360(8) 0.4300(2)
C2 C 0.11734(18) 0.72540(8) 0.3937(2)
H1 H 0.1878 0.7145 0.3471
C3 C 0.03289(17) 0.68293(8) 0.4242(2)
C4 C -0.07044(18) 0.69919(8) 0.4921(2)
H2 H -0.1291 0.6707 0.5120
C5 C -0.08885(17) 0.75706(8) 0.5314(2)
C6 C -0.00273(18) 0.79865(8) 0.5000(2)
H3 H -0.0147 0.8380 0.5268
C7 C 0.19015(17) 0.82848(8) 0.3930(2)
C8 C 0.20598(19) 0.88017(9) 0.4752(2)
H4 H 0.1600 0.8865 0.5580
C9 C 0.2873(2) 0.92217(9) 0.4379(3)
H5 H 0.2960 0.9572 0.4940
C10 C 0.3564(2) 0.91308(9) 0.3180(2)
C11 C 0.3434(2) 0.86199(9) 0.2365(2)
H6 H 0.3912 0.8555 0.1554
C12 C 0.2606(2) 0.82035(9) 0.2732(2)
H7 H 0.2514 0.7856 0.2158
C13 C 0.4445(2) 0.95828(10) 0.2773(2)
C14 C 0.05281(18) 0.62138(8) 0.3831(2)
C15 C 0.17084(19) 0.59846(9) 0.3922(2)
H8 H 0.2386 0.6223 0.4272
C16 C 0.1913(2) 0.54159(9) 0.3513(3)
H9 H 0.2723 0.5266 0.3579
C17 C 0.0924(2) 0.50676(9) 0.3006(2)
C18 C -0.0260(2) 0.52826(9) 0.2920(3)
H10 H -0.0935 0.5041 0.2580
C19 C -0.04545(19) 0.58524(9) 0.3333(3)
H11 H -0.1267 0.5999 0.3276
C20 C 0.11487(18) 0.44662(9) 0.2472(3)
C21 C -0.20022(17) 0.77393(8) 0.6025(2)
C22 C -0.25739(18) 0.73504(9) 0.6920(2)
H12 H -0.2248 0.6971 0.7079
C23 C -0.36087(19) 0.75081(10) 0.7580(2)
H13 H -0.3992 0.7238 0.8183
C24 C -0.40837(18) 0.80618(9) 0.7357(2)
C25 C -0.3546(2) 0.84532(9) 0.6456(3)
H14 H -0.3881 0.8831 0.6295
C26 C -0.2514(2) 0.82905(9) 0.5786(2)
H15 H -0.2150 0.8558 0.5156
C27 C -0.5212(2) 0.82337(8) 0.8049(2)
F1 F 0.4522(12) 0.9581(9) 0.1298(5)
F2 F 0.5569(7) 0.9471(6) 0.3421(16)
F3 F 0.4235(11) 1.0119(3) 0.3226(18)
F4 F 0.0262(14) 0.4111(8) 0.2840(14)
F5 F 0.2219(10) 0.4237(11) 0.305(2)
F6 F 0.1090(18) 0.4452(15) 0.0964(5)
F7 F -0.5331(13) 0.7973(5) 0.9360(7)
F8 F -0.6207(9) 0.8071(5) 0.7149(16)
F9 F -0.5392(8) 0.88062(12) 0.8053(9)
F10? F 0.4891(11) 0.9514(9) 0.1459(6)
F11? F 0.5452(8) 0.9629(6) 0.3736(15)
F12? F 0.3880(12) 1.0093(3) 0.2698(19)
F13? F 0.0210(14) 0.4096(8) 0.2481(15)
F14? F 0.2068(10) 0.4211(10) 0.334(2)
F15? F 0.1486(18) 0.4453(15) 0.1072(6)
F16? F -0.5509(13) 0.7863(5) 0.9101(7)
F17? F -0.6236(10) 0.8229(6) 0.7092(16)
F18? F -0.5063(10) 0.87347(18) 0.8794(9)
loop_
_geom_bond_atom_site_label_1
_geom_bond_atom_site_label_2
_geom_bond_site_symmetry_1
_geom_bond_site_symmetry_2
C1 C2 1_555 1_555
C2 H1 1_555 1_555
C3 C2 1_555 1_555
C4 C3 1_555 1_555
H2 C4 1_555 1_555
C5 C4 1_555 1_555
C6 C1 1_555 1_555
H3 C6 1_555 1_555
C7 C1 1_555 1_555
C8 C7 1_555 1_555
H4 C8 1_555 1_555
C9 C8 1_555 1_555
H5 C9 1_555 1_555
C10 C9 1_555 1_555
C11 C10 1_555 1_555
H6 C11 1_555 1_555
C12 C7 1_555 1_555
H7 C12 1_555 1_555
C13 C10 1_555 1_555
C14 C3 1_555 1_555
C15 C14 1_555 1_555
H8 C15 1_555 1_555
C16 C15 1_555 1_555
H9 C16 1_555 1_555
C17 C16 1_555 1_555
C18 C17 1_555 1_555
H10 C18 1_555 1_555
C19 C14 1_555 1_555
H11 C19 1_555 1_555
C20 C17 1_555 1_555
C21 C5 1_555 1_555
C22 C21 1_555 1_555
H12 C22 1_555 1_555
C23 C22 1_555 1_555
H13 C23 1_555 1_555
C24 C23 1_555 1_555
C25 C24 1_555 1_555
H14 C25 1_555 1_555
C26 C21 1_555 1_555
H15 C26 1_555 1_555
C27 C24 1_555 1_555
F1 C13 1_555 1_555
F2 C13 1_555 1_555
F3 C13 1_555 1_555
F4 C20 1_555 1_555
F5 C20 1_555 1_555
F6 C20 1_555 1_555
F7 C27 1_555 1_555
F8 C27 1_555 1_555
F9 C27 1_555 1_555
C5 C6 1_555 1_555
C11 C12 1_555 1_555
C18 C19 1_555 1_555
C25 C26 1_555 1_555

#END
