
#######################################################################
#
#                 Cambridge Crystallographic Data Centre
#                                CCDC 
#
#######################################################################
#
# If this CIF has been generated from an entry in the Cambridge 
# Structural Database, then it will include bibliographic, chemical, 
# crystal, experimental, refinement or atomic coordinate data resulting 
# from the CCDC's data processing and validation procedures.
#
#######################################################################

data_NACMAN10
_chemical_formula_moiety         'C8 H15 N1 O6,H2 O1'
_chemical_name_systematic        'N-Acetyl-\b-D-mannosamine monohydrate'
_symmetry_cell_setting           orthorhombic
_symmetry_space_group_name_H-M   'P 21 21 21'
_symmetry_Int_Tables_number      19
_space_group_name_Hall           'P 2ac 2ab'
loop_
_symmetry_equiv_pos_site_id
_symmetry_equiv_pos_as_xyz
1 x,y,z
2 1/2+x,1/2-y,-z
3 -x,1/2+y,1/2-z
4 1/2-x,-y,1/2+z
_cell_length_a                   7.562(2)
_cell_length_b                   7.733(3)
_cell_length_c                   18.608(3)
_cell_angle_alpha                90
_cell_angle_beta                 90
_cell_angle_gamma                90
_cell_volume                     1088.14
_cell_formula_units_Z            4
loop_
_atom_site_label
_atom_site_type_symbol
_atom_site_fract_x
_atom_site_fract_y
_atom_site_fract_z
C1 C 0.13570 0.16510 0.16132
C2 C 0.01930 0.04940 0.11363
C3 C 0.01080 -0.12930 0.14958
C4 C 0.19450 -0.20350 0.16248
C5 C 0.31020 -0.07030 0.20184
C6 C 0.50270 -0.12420 0.20713
C7 C -0.00780 0.08270 -0.01697
C8 C 0.08870 0.09460 -0.08739
H1 H 0.06700 0.17900 0.21300
H2 H 0.20900 0.08100 -0.07800
H3 H 0.21200 0.03000 0.03700
H4 H 0.22700 0.33400 0.09700
H5 H -0.20000 -0.23400 0.11800
H6 H 0.18000 -0.43600 0.18600
H7 H 0.52500 -0.13400 0.10600
H10 H -0.09600 0.10000 0.11400
H11 H -0.04300 -0.11400 0.19800
H12 H 0.25100 -0.22800 0.11700
H13 H 0.25500 -0.04900 0.24900
H14 H 0.56800 -0.03200 0.23200
H15 H 0.50600 -0.22400 0.24200
H16 H 0.07000 0.20100 -0.10600
H17 H 0.03300 0.00700 -0.12000
N1 N 0.08840 0.04660 0.04043
O1 O 0.15050 0.33300 0.13563
O2 O -0.08640 -0.25000 0.10798
O3 O 0.18540 -0.35040 0.20849
O4 O 0.30880 0.09210 0.16378
O5 O 0.57540 -0.17640 0.13988
O6 O -0.17100 0.10490 -0.01343
H8 H -0.41300 -0.00300 0.00600
H9 H -0.53300 -0.10400 -0.02500
O7 O -0.52100 -0.04230 0.01046
loop_
_geom_bond_atom_site_label_1
_geom_bond_atom_site_label_2
_geom_bond_site_symmetry_1
_geom_bond_site_symmetry_2
C1 C2 1_555 1_555
C2 C3 1_555 1_555
C3 C4 1_555 1_555
C4 C5 1_555 1_555
C5 C6 1_555 1_555
C6 H14 1_555 1_555
C7 C8 1_555 1_555
C8 H2 1_555 1_555
H1 C1 1_555 1_555
H3 N1 1_555 1_555
H4 O1 1_555 1_555
H5 O2 1_555 1_555
H6 O3 1_555 1_555
H7 O5 1_555 1_555
H8 O7 1_555 1_555
H9 O7 1_555 1_555
H10 C2 1_555 1_555
H11 C3 1_555 1_555
H12 C4 1_555 1_555
H13 C5 1_555 1_555
H15 C6 1_555 1_555
H16 C8 1_555 1_555
H17 C8 1_555 1_555
N1 C2 1_555 1_555
O1 C1 1_555 1_555
O2 C3 1_555 1_555
O3 C4 1_555 1_555
O4 C1 1_555 1_555
O5 C6 1_555 1_555
O6 C7 1_555 1_555
C5 O4 1_555 1_555
C7 N1 1_555 1_555

#END
