
#######################################################################
#
#                 Cambridge Crystallographic Data Centre
#                                CCDC 
#
#######################################################################
#
# If this CIF has been generated from an entry in the Cambridge 
# Structural Database, then it will include bibliographic, chemical, 
# crystal, experimental, refinement or atomic coordinate data resulting 
# from the CCDC's data processing and validation procedures.
#
#######################################################################

data_NACNIQ
_chemical_formula_moiety         'C33 H49 N3 O9 Se1,0.34(C1 H4 O1)'
_chemical_name_systematic        
'2-(Azidomethyl)-6-(((2,2-dimethylpropanoyl)oxy)methyl)-2-(phenylselanyl)tetrahydro-2H-pyran-3,4,5-triyl tris(2,2-dimethylpropanoate) methanol solvate'
_symmetry_cell_setting           orthorhombic
_symmetry_space_group_name_H-M   'P 21 21 21'
_symmetry_Int_Tables_number      19
_space_group_name_Hall           'P 2ac 2ab'
loop_
_symmetry_equiv_pos_site_id
_symmetry_equiv_pos_as_xyz
1 x,y,z
2 1/2-x,-y,1/2+z
3 -x,1/2+y,1/2-z
4 1/2+x,1/2-y,-z
_cell_length_a                   11.7646(2)
_cell_length_b                   13.9197(2)
_cell_length_c                   23.1853(4)
_cell_angle_alpha                90
_cell_angle_beta                 90
_cell_angle_gamma                90
_cell_volume                     3796.82
_exptl_crystal_colour            colorless
_exptl_crystal_description       rod
_cell_formula_units_Z            4
loop_
_atom_site_label
_atom_site_type_symbol
_atom_site_fract_x
_atom_site_fract_y
_atom_site_fract_z
Se1 Se 0.460348(17) 0.945296(13) 0.139722(8)
N1 N 0.55516(15) 0.67372(11) 0.20805(7)
N2 N 0.62724(15) 0.67833(11) 0.24705(8)
N3 N 0.68826(17) 0.67060(14) 0.28400(9)
O1 O 0.53063(11) 0.86403(8) 0.24805(5)
O2 O 0.29574(12) 0.78452(8) 0.15806(5)
O3 O 0.26495(13) 0.63020(9) 0.18340(6)
O4 O 0.18287(11) 0.83070(9) 0.26389(5)
O5 O 0.08553(14) 0.96167(11) 0.23586(8)
O6 O 0.30200(12) 0.97002(8) 0.33328(5)
O7 O 0.27551(14) 0.87260(10) 0.40968(6)
O8 O 0.56511(11) 0.86815(8) 0.36757(5)
O9 O 0.54998(19) 0.95294(11) 0.44894(6)
C1 C 0.47419(17) 0.83761(12) 0.19720(7)
C2 C 0.35423(16) 0.80226(12) 0.21124(7)
H1 H 0.3600 0.7406 0.2331
C3 C 0.28819(16) 0.87442(12) 0.24747(8)
H2 H 0.2742 0.9348 0.2252
C4 C 0.35801(17) 0.89526(12) 0.30111(7)
H3 H 0.3659 0.8360 0.3252
C5 C 0.47501(16) 0.93337(12) 0.28383(7)
H4 H 0.4645 0.9938 0.2611
C6 C 0.55224(17) 0.95429(12) 0.33361(7)
H5 H 0.6273 0.9757 0.3192
H6 H 0.5197 1.0062 0.3576
C7 C 0.54701(19) 0.75907(12) 0.17057(8)
H7 H 0.5140 0.7401 0.1330
H8 H 0.6243 0.7846 0.1633
C8 C 0.61608(17) 0.98533(13) 0.13940(9)
C9 C 0.65574(19) 1.05105(15) 0.17908(8)
H9 H 0.6062 1.0753 0.2080
C10 C 0.7674(2) 1.08181(15) 0.17689(9)
H10 H 0.7939 1.1275 0.2042
C11 C 0.8410(2) 1.04677(16) 0.13539(9)
H11 H 0.9178 1.0677 0.1345
C12 C 0.8021(2) 0.98108(18) 0.09525(11)
H12 H 0.8521 0.9570 0.0665
C13 C 0.6898(2) 0.95027(17) 0.09706(9)
H13 H 0.6631 0.9052 0.0694
C14 C 0.25993(16) 0.69253(12) 0.14789(8)
C15 C 0.21840(18) 0.68142(14) 0.08618(8)
C16 C 0.3195(2) 0.69740(16) 0.04538(8)
H14 H 0.3490 0.7627 0.0505
H15 H 0.2946 0.6889 0.0054
H16 H 0.3795 0.6508 0.0542
C17 C 0.1245(2) 0.75600(16) 0.07430(10)
H17 H 0.0618 0.7464 0.1015
H18 H 0.0965 0.7481 0.0348
H19 H 0.1556 0.8208 0.0791
C18 C 0.1721(2) 0.57883(15) 0.07911(9)
H20 H 0.2333 0.5325 0.0859
H21 H 0.1424 0.5706 0.0399
H22 H 0.1109 0.5680 0.1070
C19 C 0.08598(18) 0.88284(14) 0.25589(8)
C20 C -0.01717(17) 0.82635(14) 0.27681(8)
C21 C -0.0254(2) 0.73268(16) 0.24230(10)
H23 H -0.0332 0.7476 0.2012
H24 H -0.0918 0.6961 0.2552
H25 H 0.0435 0.6945 0.2484
C22 C -0.12442(19) 0.88670(18) 0.26814(11)
H26 H -0.1172 0.9471 0.2895
H27 H -0.1906 0.8511 0.2824
H28 H -0.1342 0.9006 0.2270
C23 C -0.0020(2) 0.80407(18) 0.34155(9)
H29 H 0.0671 0.7659 0.3471
H30 H -0.0679 0.7678 0.3555
H31 H 0.0043 0.8644 0.3631
C24 C 0.26592(16) 0.94981(15) 0.38763(7)
C25 C 0.21650(19) 1.03913(13) 0.41614(8)
C26 C 0.1515(2) 1.09968(17) 0.37254(10)
H32 H 0.0892 1.0616 0.3562
H33 H 0.2030 1.1198 0.3416
H34 H 0.1203 1.1566 0.3918
C27 C 0.1398(2) 1.00910(16) 0.46579(9)
H35 H 0.1088 1.0665 0.4846
H36 H 0.1839 0.9718 0.4938
H37 H 0.0773 0.9697 0.4509
C28 C 0.3179(2) 1.09735(16) 0.43886(11)
H38 H 0.2903 1.1565 0.4570
H39 H 0.3685 1.1137 0.4067
H40 H 0.3596 1.0591 0.4673
C29 C 0.56105(18) 0.87708(14) 0.42505(8)
C30 C 0.57963(18) 0.78101(14) 0.45495(8)
C31 C 0.5156(2) 0.70033(15) 0.42455(9)
H41 H 0.4342 0.7151 0.4241
H42 H 0.5282 0.6398 0.4452
H43 H 0.5433 0.6943 0.3849
C32 C 0.5396(3) 0.78824(18) 0.51755(9)
H44 H 0.5807 0.8403 0.5370
H45 H 0.5547 0.7274 0.5374
H46 H 0.4579 0.8017 0.5184
C33 C 0.7076(2) 0.7614(2) 0.45281(16)
H47 H 0.7323 0.7571 0.4125
H48 H 0.7241 0.7007 0.4725
H49 H 0.7484 0.8138 0.4720
C34 C 0.1420(6) 0.0361(5) 0.0966(3)
H50 H 0.1060 0.0946 0.1115
H51 H 0.2109 0.0532 0.0752
H52 H 0.1621 -0.0061 0.1289
O10 O 0.0673(5) -0.0109(3) 0.06040(19)
H53 H 0.0873 -0.0026 0.0260
loop_
_geom_bond_atom_site_label_1
_geom_bond_atom_site_label_2
_geom_bond_site_symmetry_1
_geom_bond_site_symmetry_2
Se1 C1 1_555 1_555
N1 N2 1_555 1_555
N2 N3 1_555 1_555
O1 C1 1_555 1_555
O2 C2 1_555 1_555
O3 C14 1_555 1_555
O4 C3 1_555 1_555
O5 C19 1_555 1_555
O6 C4 1_555 1_555
O7 C24 1_555 1_555
O8 C6 1_555 1_555
O9 C29 1_555 1_555
C1 C2 1_555 1_555
C2 H1 1_555 1_555
C3 C2 1_555 1_555
H2 C3 1_555 1_555
C4 C3 1_555 1_555
H3 C4 1_555 1_555
C5 O1 1_555 1_555
H4 C5 1_555 1_555
C6 C5 1_555 1_555
H5 C6 1_555 1_555
H6 C6 1_555 1_555
C7 N1 1_555 1_555
H7 C7 1_555 1_555
H8 C7 1_555 1_555
C8 Se1 1_555 1_555
C9 C8 1_555 1_555
H9 C9 1_555 1_555
C10 C9 1_555 1_555
H10 C10 1_555 1_555
C11 C10 1_555 1_555
H11 C11 1_555 1_555
C12 C11 1_555 1_555
H12 C12 1_555 1_555
C13 C8 1_555 1_555
H13 C13 1_555 1_555
C14 O2 1_555 1_555
C15 C14 1_555 1_555
C16 C15 1_555 1_555
H14 C16 1_555 1_555
H15 C16 1_555 1_555
H16 C16 1_555 1_555
C17 C15 1_555 1_555
H17 C17 1_555 1_555
H18 C17 1_555 1_555
H19 C17 1_555 1_555
C18 C15 1_555 1_555
H20 C18 1_555 1_555
H21 C18 1_555 1_555
H22 C18 1_555 1_555
C19 O4 1_555 1_555
C20 C19 1_555 1_555
C21 C20 1_555 1_555
H23 C21 1_555 1_555
H24 C21 1_555 1_555
H25 C21 1_555 1_555
C22 C20 1_555 1_555
H26 C22 1_555 1_555
H27 C22 1_555 1_555
H28 C22 1_555 1_555
C23 C20 1_555 1_555
H29 C23 1_555 1_555
H30 C23 1_555 1_555
H31 C23 1_555 1_555
C24 O6 1_555 1_555
C25 C24 1_555 1_555
C26 C25 1_555 1_555
H32 C26 1_555 1_555
H33 C26 1_555 1_555
H34 C26 1_555 1_555
C27 C25 1_555 1_555
H35 C27 1_555 1_555
H36 C27 1_555 1_555
H37 C27 1_555 1_555
C28 C25 1_555 1_555
H38 C28 1_555 1_555
H39 C28 1_555 1_555
H40 C28 1_555 1_555
C29 O8 1_555 1_555
C30 C29 1_555 1_555
C31 C30 1_555 1_555
H41 C31 1_555 1_555
H42 C31 1_555 1_555
H43 C31 1_555 1_555
C32 C30 1_555 1_555
H44 C32 1_555 1_555
H45 C32 1_555 1_555
H46 C32 1_555 1_555
C33 C30 1_555 1_555
H47 C33 1_555 1_555
H48 C33 1_555 1_555
H49 C33 1_555 1_555
C34 H50 1_555 1_555
H51 C34 1_555 1_555
H52 C34 1_555 1_555
O10 C34 1_555 1_555
H53 O10 1_555 1_555
C1 C7 1_555 1_555
C4 C5 1_555 1_555
C12 C13 1_555 1_555

#END
