
#######################################################################
#
#                 Cambridge Crystallographic Data Centre
#                                CCDC 
#
#######################################################################
#
# If this CIF has been generated from an entry in the Cambridge 
# Structural Database, then it will include bibliographic, chemical, 
# crystal, experimental, refinement or atomic coordinate data resulting 
# from the CCDC's data processing and validation procedures.
#
#######################################################################

data_NACPON10
_chemical_formula_moiety         'C8 H7 N1 O3'
_chemical_name_systematic        p-Nitroacetophenone
_symmetry_cell_setting           monoclinic
_symmetry_space_group_name_H-M   'P 21/c'
_symmetry_Int_Tables_number      14
_space_group_name_Hall           '-P 2ybc'
loop_
_symmetry_equiv_pos_site_id
_symmetry_equiv_pos_as_xyz
1 x,y,z
2 -x,1/2+y,1/2-z
3 -x,-y,-z
4 x,1/2-y,1/2+z
_cell_length_a                   10.069(8)
_cell_length_b                   8.552(8)
_cell_length_c                   9.094(8)
_cell_angle_alpha                90
_cell_angle_beta                 93.85(1)
_cell_angle_gamma                90
_cell_volume                     781.318
_chemical_melting_point          80deg.C
_cell_formula_units_Z            4
loop_
_atom_site_label
_atom_site_type_symbol
_atom_site_fract_x
_atom_site_fract_y
_atom_site_fract_z
C1 C 0.29560 -0.00500 -0.02410
C2 C 0.36260 0.11280 -0.09040
C3 C 0.32980 0.26540 -0.06060
C4 C 0.19670 0.02760 0.07100
C5 C 0.16550 0.18400 0.09690
C6 C 0.23040 0.30210 0.03240
C7 C 0.12450 -0.09740 0.14820
C8 C 0.15550 -0.26380 0.11810
H1 H 0.32800 -0.12000 -0.05000
H2 H 0.43500 0.08500 -0.17000
H3 H 0.09000 0.20500 0.16500
H4 H 0.21000 0.41500 0.03000
H5 H 0.10500 -0.33500 0.18000
H6 H 0.24000 -0.29000 0.15000
H7 H 0.14500 -0.31300 0.02500
N1 N 0.40220 0.39100 -0.13040
O1 O 0.49310 0.35510 -0.20540
O2 O 0.36920 0.52610 -0.10970
O3 O 0.04270 -0.06260 0.23350
loop_
_geom_bond_atom_site_label_1
_geom_bond_atom_site_label_2
_geom_bond_site_symmetry_1
_geom_bond_site_symmetry_2
C1 C2 1_555 1_555
C2 C3 1_555 1_555
C3 C6 1_555 1_555
C4 C1 1_555 1_555
C5 C4 1_555 1_555
C6 C5 1_555 1_555
C7 C4 1_555 1_555
C8 C7 1_555 1_555
H1 C1 1_555 1_555
H2 C2 1_555 1_555
H3 C5 1_555 1_555
H4 C6 1_555 1_555
H5 C8 1_555 1_555
H6 C8 1_555 1_555
H7 C8 1_555 1_555
N1 C3 1_555 1_555
O1 N1 1_555 1_555
O2 N1 1_555 1_555
O3 C7 1_555 1_555

#END
