
#######################################################################
#
#                 Cambridge Crystallographic Data Centre
#                                CCDC 
#
#######################################################################
#
# If this CIF has been generated from an entry in the Cambridge 
# Structural Database, then it will include bibliographic, chemical, 
# crystal, experimental, refinement or atomic coordinate data resulting 
# from the CCDC's data processing and validation procedures.
#
#######################################################################

data_NACTEQ02
_chemical_formula_moiety         'C25 H21 P1'
_chemical_name_systematic        'Triphenylphosphonium benzylide'
_symmetry_cell_setting           monoclinic
_symmetry_space_group_name_H-M   'P 21/c'
_symmetry_Int_Tables_number      14
_space_group_name_Hall           '-P 2ybc'
loop_
_symmetry_equiv_pos_site_id
_symmetry_equiv_pos_as_xyz
1 x,y,z
2 x,1/2-y,1/2+z
3 -x,-y,-z
4 -x,1/2+y,1/2-z
_cell_length_a                   9.397(1)
_cell_length_b                   10.968(1)
_cell_length_c                   18.397(1)
_cell_angle_alpha                90
_cell_angle_beta                 91.52(1)
_cell_angle_gamma                90
_cell_volume                     1895.44
_exptl_crystal_colour            'pale red'
_exptl_crystal_description       block
_cell_formula_units_Z            4
loop_
_atom_site_label
_atom_site_type_symbol
_atom_site_fract_x
_atom_site_fract_y
_atom_site_fract_z
P1 P 0.04554(4) 0.76988(3) 0.05950(1)
C1 C 0.06384(4) 0.89899(4) 0.10992(2)
C2 C 0.18974(4) 0.93950(4) 0.14950(2)
C3 C 0.31991(5) 0.87401(4) 0.15305(2)
C4 C 0.43665(5) 0.91520(5) 0.19436(3)
C5 C 0.43039(5) 1.02369(5) 0.23386(3)
C6 C 0.30467(6) 1.09163(4) 0.22952(2)
C7 C 0.18770(5) 1.05153(4) 0.18807(2)
C8 C 0.11775(4) 0.63552(4) 0.10497(2)
C9 C 0.21405(4) 0.55666(4) 0.07213(2)
C10 C 0.26952(5) 0.45708(4) 0.11075(3)
C11 C 0.22676(6) 0.43432(5) 0.18124(3)
C12 C 0.13135(6) 0.51250(5) 0.21454(3)
C13 C 0.07895(5) 0.61414(4) 0.17690(2)
C14 C 0.12712(4) 0.76990(4) -0.02922(2)
C15 C 0.09672(5) 0.68125(4) -0.08233(2)
C16 C 0.16591(6) 0.68441(5) -0.14848(3)
C17 C 0.26458(5) 0.77637(5) -0.16202(2)
C18 C 0.29272(5) 0.86608(5) -0.11002(3)
C19 C 0.22426(4) 0.86264(4) -0.04370(2)
C20 C -0.14255(4) 0.74839(3) 0.04128(2)
C21 C -0.22451(5) 0.66485(4) 0.07958(2)
C22 C -0.37182(5) 0.66110(5) 0.06786(3)
C23 C -0.43729(4) 0.74077(5) 0.01805(3)
C24 C -0.35560(5) 0.82296(4) -0.02100(3)
C25 C -0.20834(4) 0.82615(4) -0.00981(2)
H1 H -0.02641 0.95994 0.10741
H2 H 0.33081 0.79137 0.12148
H3 H 0.53356 0.86174 0.19521
H4 H 0.52006 1.05508 0.26698
H5 H 0.29733 1.17666 0.25910
H6 H 0.09461 1.10966 0.18473
H7 H 0.24571 0.57224 0.01672
H8 H 0.34378 0.39658 0.08481
H9 H 0.26898 0.35558 0.21003
H10 H 0.09626 0.49349 0.26899
H11 H 0.01150 0.67887 0.20410
H12 H 0.01917 0.61085 -0.07178
H13 H 0.14506 0.61467 -0.18905
H14 H 0.32066 0.77928 -0.21266
H15 H 0.37013 0.93699 -0.11970
H16 H 0.24554 0.93110 -0.00242
H17 H -0.17593 0.60177 0.11813
H18 H -0.42934 0.59193 0.09711
H19 H -0.55139 0.73806 0.00820
H20 H -0.40128 0.88231 -0.06247
H21 H -0.14316 0.88795 -0.04055
loop_
_geom_bond_atom_site_label_1
_geom_bond_atom_site_label_2
_geom_bond_site_symmetry_1
_geom_bond_site_symmetry_2
P1 C1 1_555 1_555
C1 C2 1_555 1_555
C2 C3 1_555 1_555
C3 C4 1_555 1_555
C4 C5 1_555 1_555
C5 C6 1_555 1_555
C6 C7 1_555 1_555
C7 C2 1_555 1_555
C8 P1 1_555 1_555
C9 C8 1_555 1_555
C10 C9 1_555 1_555
C11 C10 1_555 1_555
C12 C11 1_555 1_555
C13 C8 1_555 1_555
C14 P1 1_555 1_555
C15 C14 1_555 1_555
C16 C15 1_555 1_555
C17 C16 1_555 1_555
C18 C17 1_555 1_555
C19 C14 1_555 1_555
C20 P1 1_555 1_555
C21 C20 1_555 1_555
C22 C21 1_555 1_555
C23 C22 1_555 1_555
C24 C23 1_555 1_555
C25 C20 1_555 1_555
H1 C1 1_555 1_555
H2 C3 1_555 1_555
H3 C4 1_555 1_555
H4 C5 1_555 1_555
H5 C6 1_555 1_555
H6 C7 1_555 1_555
H7 C9 1_555 1_555
H8 C10 1_555 1_555
H9 C11 1_555 1_555
H10 C12 1_555 1_555
H11 C13 1_555 1_555
H12 C15 1_555 1_555
H13 C16 1_555 1_555
H14 C17 1_555 1_555
H15 C18 1_555 1_555
H16 C19 1_555 1_555
H17 C21 1_555 1_555
H18 C22 1_555 1_555
H19 C23 1_555 1_555
H20 C24 1_555 1_555
H21 C25 1_555 1_555
C12 C13 1_555 1_555
C18 C19 1_555 1_555
C24 C25 1_555 1_555

#END
