
#######################################################################
#
#                 Cambridge Crystallographic Data Centre
#                                CCDC 
#
#######################################################################
#
# If this CIF has been generated from an entry in the Cambridge 
# Structural Database, then it will include bibliographic, chemical, 
# crystal, experimental, refinement or atomic coordinate data resulting 
# from the CCDC's data processing and validation procedures.
#
#######################################################################

data_NACVES
_chemical_name_common            
'1,2-bis((Methyl-9-deoxo-mesopyropheophorabide-a))-trans-ethene hydrate'
_chemical_formula_moiety         'C70 H80 N8 O4,1.24(H2 O1)'
_chemical_name_systematic        
'1,2-bis(20-(1,7,12,18-Tetramethyl-2,8-diethyl-13,15-ethano-17-(3-methylpropionate)-17,18-dihydroporphyrinato))-trans-ethene hydrate'
_symmetry_cell_setting           orthorhombic
_symmetry_space_group_name_H-M   'P 21 21 2'
_symmetry_Int_Tables_number      18
_space_group_name_Hall           'P 2 2ab'
loop_
_symmetry_equiv_pos_site_id
_symmetry_equiv_pos_as_xyz
1 x,y,z
2 -x,-y,z
3 1/2+x,1/2-y,-z
4 1/2-x,1/2+y,-z
_cell_length_a                   25.596(2)
_cell_length_b                   13.6626(14)
_cell_length_c                   17.190(2)
_cell_angle_alpha                90
_cell_angle_beta                 90
_cell_angle_gamma                90
_cell_volume                     6011.48
_exptl_crystal_colour            'brick red'
_chemical_melting_point          'about 300deg.C'
_cell_formula_units_Z            4
loop_
_atom_site_label
_atom_site_type_symbol
_atom_site_fract_x
_atom_site_fract_y
_atom_site_fract_z
N1 N 0.00603(12) 0.8475(2) -0.5668(2)
N2 N 0.02259(11) 0.8758(2) -0.7431(2)
H1 H 0.04720(11) 0.8788(2) -0.7074(2)
N3 N 0.12675(11) 0.8911(2) -0.7297(2)
N4 N 0.11694(11) 0.8784(2) -0.5525(2)
H2 H 0.09495(11) 0.8674(2) -0.5908(2)
N5 N -0.00135(12) 0.6476(2) -0.14468(15)
N6 N 0.00937(11) 0.6232(2) 0.0336(2)
H3 H 0.03553(11) 0.6254(2) 0.0004(2)
N7 N 0.11383(11) 0.6424(2) 0.0305(2)
N8 N 0.11100(11) 0.6547(2) -0.1470(2)
H4 H 0.08639(11) 0.6489(2) -0.1116(2)
O1 O -0.0701(2) 0.4655(2) -0.5923(2)
O2 O -0.07341(15) 1.0180(2) -0.1178(2)
C1 C 0.00962(14) 0.8303(3) -0.4896(2)
C2 C -0.04324(14) 0.8138(3) -0.4522(2)
H5 H -0.04298(14) 0.7508(3) -0.4226(2)
C3 C -0.0587(2) 0.8974(3) -0.3982(3)
H6 H -0.0336(7) 0.9016(15) -0.3552(10)
H7 H -0.0937(5) 0.8853(12) -0.3773(14)
H8 H -0.0586(12) 0.9591(5) -0.4272(5)
C4 C -0.0795(2) 0.8050(4) -0.5226(2)
H9 H -0.1089(2) 0.8526(4) -0.5171(2)
C5 C -0.1013(3) 0.7033(6) -0.5307(3)
H10 H -0.1192(3) 0.6854(6) -0.4816(3)
H11 H -0.1279(3) 0.7034(6) -0.5725(3)
C6 C -0.0614(4) 0.6269(5) -0.5487(3)
H12 H -0.0322(4) 0.6291(5) -0.5109(3)
H13 H -0.0473(4) 0.6354(5) -0.6019(3)
C7 C -0.0864(3) 0.3638(4) -0.5845(4)
H14 H -0.0628(12) 0.3219(5) -0.6147(24)
H15 H -0.1222(8) 0.3564(8) -0.6039(28)
H16 H -0.0850(20) 0.3447(12) -0.5296(5)
C8 C -0.04430(14) 0.8369(3) -0.5890(2)
C9 C -0.06088(14) 0.8519(3) -0.6649(2)
C10 C -0.11693(14) 0.8471(3) -0.6956(2)
H17 H -0.13811(14) 0.9010(3) -0.6736(2)
H18 H -0.13336(14) 0.7840(3) -0.6813(2)
C11 C -0.11317(14) 0.8570(3) -0.7858(2)
H19 H -0.12716(14) 0.7979(3) -0.8119(2)
H20 H -0.13267(14) 0.9150(3) -0.8043(2)
C12 C -0.02899(13) 0.8683(3) -0.7287(2)
C13 C -0.05573(14) 0.8680(3) -0.8009(2)
C14 C -0.01984(14) 0.8724(3) -0.8598(2)
C15 C -0.02902(15) 0.8704(3) -0.9457(2)
H21 H 0.0000(5) 0.8367(17) -0.9714(3)
H22 H -0.0314(10) 0.9376(3) -0.9654(3)
H23 H -0.0617(5) 0.8358(17) -0.9567(2)
C16 C 0.03089(14) 0.8778(3) -0.8221(2)
C17 C 0.08033(14) 0.8823(3) -0.8532(2)
H24 H 0.08370(14) 0.8805(3) -0.9082(2)
C18 C 0.12630(14) 0.8894(3) -0.8084(2)
C19 C 0.17867(14) 0.9001(3) -0.8402(2)
C20 C 0.1920(2) 0.9026(3) -0.9253(2)
H25 H 0.1732(2) 0.8490(3) -0.9522(2)
H26 H 0.2299(2) 0.8909(3) -0.9317(2)
C21 C 0.1778(2) 0.9996(3) -0.9637(2)
H27 H 0.1880(10) 0.9979(8) -1.0186(5)
H28 H 0.1963(9) 1.0530(4) -0.9374(11)
H29 H 0.1401(2) 1.0102(11) -0.9597(15)
C22 C 0.21131(14) 0.9084(3) -0.7774(2)
C23 C 0.26976(14) 0.9165(3) -0.7767(2)
H30 H 0.28481(15) 0.8563(9) -0.7553(15)
H31 H 0.28017(15) 0.9723(13) -0.7444(13)
H32 H 0.2825(2) 0.9261(20) -0.8299(3)
C24 C 0.17784(14) 0.9039(3) -0.7086(2)
C25 C 0.19500(15) 0.9135(3) -0.6323(2)
H33 H 0.23128(15) 0.9267(3) -0.6270(2)
C26 C 0.16799(14) 0.9071(3) -0.5626(2)
C27 C 0.18927(15) 0.9207(3) -0.4863(2)
C28 C 0.2427(2) 0.9626(5) -0.4710(3)
H34 H 0.2675(2) 0.9384(5) -0.5109(3)
H35 H 0.2552(2) 0.9402(5) -0.4195(3)
C29 C 0.15076(15) 0.8989(3) -0.4326(2)
C30 C 0.1560(2) 0.9142(3) -0.3465(2)
H36 H 0.1543(11) 0.8508(4) -0.3199(3)
H37 H 0.1275(6) 0.9561(17) -0.3280(3)
H38 H 0.1896(5) 0.9455(18) -0.3352(3)
C31 C 0.10455(15) 0.8690(3) -0.4753(2)
C32 C 0.05614(15) 0.8360(3) -0.4459(2)
C33 C 0.00443(14) 0.6668(2) -0.2212(2)
C34 C -0.04831(13) 0.6743(3) -0.2627(2)
H39 H -0.04991(13) 0.7354(3) -0.2947(2)
C35 C -0.0589(2) 0.5842(3) -0.3135(2)
H40 H -0.0326(7) 0.5804(11) -0.3548(10)
H41 H -0.0937(5) 0.5897(10) -0.3368(13)
H42 H -0.0572(11) 0.5251(3) -0.2814(4)
C36 C -0.08609(14) 0.6808(3) -0.1947(2)
H43 H -0.11553(14) 0.6337(3) -0.2024(2)
C37 C -0.1075(2) 0.7840(4) -0.1834(3)
H44 H -0.1253(2) 0.8046(4) -0.2319(3)
H45 H -0.1340(2) 0.7826(4) -0.1415(3)
C38 C -0.0671(3) 0.8580(4) -0.1634(3)
H46 H -0.0404(3) 0.8633(4) -0.2049(3)
H47 H -0.0496(3) 0.8419(4) -0.1137(3)
C39 C -0.0901(2) 1.1183(3) -0.1170(3)
H48 H -0.0596(2) 1.1610(3) -0.1114(18)
H49 H -0.1139(10) 1.1289(6) -0.0732(11)
H50 H -0.1081(11) 1.1334(7) -0.1658(8)
C40 C -0.05289(14) 0.6490(3) -0.1266(2)
C41 C -0.07178(13) 0.6284(3) -0.0527(2)
C42 C -0.12876(14) 0.6182(3) -0.0279(2)
H51 H -0.14423(14) 0.5582(3) -0.0504(2)
H52 H -0.14928(14) 0.6753(3) -0.0458(2)
C43 C -0.12904(14) 0.6125(3) 0.0629(2)
H53 H -0.14748(14) 0.6693(3) 0.0858(2)
H54 H -0.14594(14) 0.5515(3) 0.0812(2)
C44 C -0.04184(14) 0.6190(3) 0.0145(2)
C45 C -0.07207(14) 0.6138(3) 0.0836(2)
C46 C -0.03833(15) 0.6170(3) 0.1461(2)
C47 C -0.0499(2) 0.6150(3) 0.2313(2)
H55 H -0.0289(8) 0.6649(14) 0.2577(3)
H56 H -0.0413(10) 0.5503(7) 0.2523(4)
H57 H -0.0871(3) 0.6285(19) 0.2396(2)
C48 C 0.01389(14) 0.6233(3) 0.1137(2)
C49 C 0.06185(15) 0.6311(3) 0.1493(2)
H58 H 0.06274(15) 0.6306(3) 0.2046(2)
C50 C 0.10958(14) 0.6396(3) 0.1096(2)
C51 C 0.16037(15) 0.6475(3) 0.1467(2)
C52 C 0.1720(2) 0.6456(3) 0.2323(2)
H59 H 0.1414(2) 0.6712(3) 0.2611(2)
H60 H 0.2020(2) 0.6893(3) 0.2430(2)
C53 C 0.1847(2) 0.5437(3) 0.2617(3)
H61 H 0.1933(12) 0.5468(5) 0.3172(5)
H62 H 0.2146(8) 0.5175(10) 0.2329(13)
H63 H 0.1544(5) 0.5009(7) 0.2541(17)
C54 C 0.19574(14) 0.6544(3) 0.0877(2)
C55 C 0.2537(2) 0.6686(3) 0.0958(2)
H64 H 0.2680(2) 0.6930(20) 0.0466(6)
H65 H 0.2702(2) 0.6060(5) 0.1088(16)
H66 H 0.2607(2) 0.7161(16) 0.1372(12)
C56 C 0.16585(14) 0.6512(3) 0.0153(2)
C57 C 0.18751(13) 0.6574(3) -0.0587(2)
H67 H 0.22453(13) 0.6622(3) -0.0598(2)
C58 C 0.16362(13) 0.6577(3) -0.1314(2)
C59 C 0.18976(13) 0.6634(3) -0.2046(2)
C60 C 0.24763(14) 0.6760(3) -0.2153(2)
H68 H 0.25857(14) 0.6442(3) -0.2644(2)
H69 H 0.26630(14) 0.6436(3) -0.1719(2)
C61 C 0.2624(2) 0.7834(3) -0.2176(3)
H70 H 0.3004(2) 0.7897(3) -0.2221(19)
H71 H 0.2506(11) 0.8154(6) -0.1697(9)
H72 H 0.2457(11) 0.8147(6) -0.2625(11)
C62 C 0.15241(13) 0.6620(3) -0.2632(2)
C63 C 0.16374(14) 0.6503(3) -0.3482(2)
H73 H 0.1553(10) 0.7112(7) -0.3755(3)
H74 H 0.1425(8) 0.5968(13) -0.3693(4)
H75 H 0.2009(3) 0.6352(19) -0.3554(2)
C64 C 0.10213(13) 0.6622(3) -0.2260(2)
C65 C 0.05218(13) 0.6751(2) -0.2604(2)
C66 C 0.05438(14) 0.8012(3) -0.3632(2)
H76 H 0.05561(14) 0.8489(3) -0.3231(2)
C67 C 0.05126(13) 0.7097(3) -0.3432(2)
H77 H 0.04822(13) 0.6621(3) -0.3832(2)
O3 O -0.1277(3) 0.5107(4) -0.4964(3)
O5 O -0.1440(2) 0.9717(3) -0.1770(3)
C68 C -0.0922(4) 0.5299(5) -0.5416(4)
C70 C -0.0999(3) 0.9547(5) -0.1565(4)
C72 C 0.2414(3) 1.0815(5) -0.4728(4)
H78 H 0.2771(3) 1.1068(5) -0.4683(28)
H79 H 0.2204(16) 1.1056(5) -0.4293(17)
H80 H 0.2260(17) 1.1036(5) -0.5220(13)
O10 O 0.2448(7) 1.2143(14) -0.4579(11)
O4? O -0.0353(4) 0.4629(9) -0.4821(7)
O6? O -0.0443(3) 1.0238(6) -0.2251(5)
C69? C -0.0496(7) 0.5087(12) -0.5402(9)
C71? C -0.0585(4) 0.9775(7) -0.1698(6)
C73? C 0.2701(9) 0.8401(18) -0.4390(14)
O7? O 0.3065(3) 1.1731(6) -0.4456(4)
O8? O 0.2042(3) 1.1912(5) -0.3775(4)
O9? O 0.2172(3) 1.1683(5) -0.5440(4)
loop_
_geom_bond_atom_site_label_1
_geom_bond_atom_site_label_2
_geom_bond_site_symmetry_1
_geom_bond_site_symmetry_2
N1 C1 1_555 1_555
N2 H1 1_555 1_555
N3 C18 1_555 1_555
N4 H2 1_555 1_555
N5 C33 1_555 1_555
N6 H3 1_555 1_555
N7 C50 1_555 1_555
N8 H4 1_555 1_555
O1 C7 1_555 1_555
O2 C39 1_555 1_555
C1 C2 1_555 1_555
C2 H5 1_555 1_555
C3 C2 1_555 1_555
H6 C3 1_555 1_555
H7 C3 1_555 1_555
H8 C3 1_555 1_555
C4 C2 1_555 1_555
H9 C4 1_555 1_555
C5 C4 1_555 1_555
H10 C5 1_555 1_555
H11 C5 1_555 1_555
C6 C5 1_555 1_555
H12 C6 1_555 1_555
H13 C6 1_555 1_555
C7 H14 1_555 1_555
H15 C7 1_555 1_555
H16 C7 1_555 1_555
C8 N1 1_555 1_555
C9 C8 1_555 1_555
C10 C9 1_555 1_555
H17 C10 1_555 1_555
H18 C10 1_555 1_555
C11 C10 1_555 1_555
H19 C11 1_555 1_555
H20 C11 1_555 1_555
C12 N2 1_555 1_555
C13 C11 1_555 1_555
C14 C13 1_555 1_555
C15 C14 1_555 1_555
H21 C15 1_555 1_555
H22 C15 1_555 1_555
H23 C15 1_555 1_555
C16 N2 1_555 1_555
C17 C16 1_555 1_555
H24 C17 1_555 1_555
C18 C17 1_555 1_555
C19 C18 1_555 1_555
C20 C19 1_555 1_555
H25 C20 1_555 1_555
H26 C20 1_555 1_555
C21 C20 1_555 1_555
H27 C21 1_555 1_555
H28 C21 1_555 1_555
H29 C21 1_555 1_555
C22 C19 1_555 1_555
C23 C22 1_555 1_555
H30 C23 1_555 1_555
H31 C23 1_555 1_555
H32 C23 1_555 1_555
C24 N3 1_555 1_555
C25 C24 1_555 1_555
H33 C25 1_555 1_555
C26 N4 1_555 1_555
C27 C26 1_555 1_555
C28 C27 1_555 1_555
H34 C28 1_555 1_555
H35 C28 1_555 1_555
C29 C27 1_555 1_555
C30 C29 1_555 1_555
H36 C30 1_555 1_555
H37 C30 1_555 1_555
H38 C30 1_555 1_555
C31 N4 1_555 1_555
C32 C1 1_555 1_555
C33 C34 1_555 1_555
C34 H39 1_555 1_555
C35 C34 1_555 1_555
H40 C35 1_555 1_555
H41 C35 1_555 1_555
H42 C35 1_555 1_555
C36 C34 1_555 1_555
H43 C36 1_555 1_555
C37 C36 1_555 1_555
H44 C37 1_555 1_555
H45 C37 1_555 1_555
C38 C37 1_555 1_555
H46 C38 1_555 1_555
H47 C38 1_555 1_555
C39 H48 1_555 1_555
H49 C39 1_555 1_555
H50 C39 1_555 1_555
C40 N5 1_555 1_555
C41 C40 1_555 1_555
C42 C41 1_555 1_555
H51 C42 1_555 1_555
H52 C42 1_555 1_555
C43 C42 1_555 1_555
H53 C43 1_555 1_555
H54 C43 1_555 1_555
C44 N6 1_555 1_555
C45 C43 1_555 1_555
C46 C45 1_555 1_555
C47 C46 1_555 1_555
H55 C47 1_555 1_555
H56 C47 1_555 1_555
H57 C47 1_555 1_555
C48 N6 1_555 1_555
C49 C48 1_555 1_555
H58 C49 1_555 1_555
C50 C49 1_555 1_555
C51 C50 1_555 1_555
C52 C51 1_555 1_555
H59 C52 1_555 1_555
H60 C52 1_555 1_555
C53 C52 1_555 1_555
H61 C53 1_555 1_555
H62 C53 1_555 1_555
H63 C53 1_555 1_555
C54 C51 1_555 1_555
C55 C54 1_555 1_555
H64 C55 1_555 1_555
H65 C55 1_555 1_555
H66 C55 1_555 1_555
C56 N7 1_555 1_555
C57 C56 1_555 1_555
H67 C57 1_555 1_555
C58 N8 1_555 1_555
C59 C58 1_555 1_555
C60 C59 1_555 1_555
H68 C60 1_555 1_555
H69 C60 1_555 1_555
C61 C60 1_555 1_555
H70 C61 1_555 1_555
H71 C61 1_555 1_555
H72 C61 1_555 1_555
C62 C59 1_555 1_555
C63 C62 1_555 1_555
H73 C63 1_555 1_555
H74 C63 1_555 1_555
H75 C63 1_555 1_555
C64 N8 1_555 1_555
C65 C33 1_555 1_555
C66 C32 1_555 1_555
H76 C66 1_555 1_555
C67 C65 1_555 1_555
H77 C67 1_555 1_555
O3 C68 1_555 1_555
O5 C70 1_555 1_555
C68 O1 1_555 1_555
C70 O2 1_555 1_555
C72 C28 1_555 1_555
H78 C72 1_555 1_555
H79 C72 1_555 1_555
H80 C72 1_555 1_555
C4 C8 1_555 1_555
C6 C68 1_555 1_555
C9 C12 1_555 1_555
C12 C13 1_555 1_555
C14 C16 1_555 1_555
C22 C24 1_555 1_555
C25 C26 1_555 1_555
C29 C31 1_555 1_555
C31 C32 1_555 1_555
C36 C40 1_555 1_555
C38 C70 1_555 1_555
C41 C44 1_555 1_555
C44 C45 1_555 1_555
C46 C48 1_555 1_555
C54 C56 1_555 1_555
C57 C58 1_555 1_555
C62 C64 1_555 1_555
C64 C65 1_555 1_555
C66 C67 1_555 1_555

#END
