
#######################################################################
#
#                 Cambridge Crystallographic Data Centre
#                                CCDC 
#
#######################################################################
#
# If this CIF has been generated from an entry in the Cambridge 
# Structural Database, then it will include bibliographic, chemical, 
# crystal, experimental, refinement or atomic coordinate data resulting 
# from the CCDC's data processing and validation procedures.
#
#######################################################################

data_NACXIY
_chemical_formula_moiety         'C8 H2 N6 O12,2(C2 H3 N1)'
_chemical_name_systematic        
'1,2,3,4,5,7-Hexanitrocubane acetonitrile solvate'
_symmetry_cell_setting           monoclinic
_symmetry_space_group_name_H-M   'C 2/c'
_symmetry_Int_Tables_number      15
_space_group_name_Hall           '-C 2yn'
loop_
_symmetry_equiv_pos_site_id
_symmetry_equiv_pos_as_xyz
1 x,y,z
2 -x,y,1/2-z
3 1/2+x,1/2+y,z
4 1/2-x,1/2+y,1/2-z
5 -x,-y,-z
6 x,-y,1/2+z
7 1/2-x,1/2-y,-z
8 1/2+x,1/2-y,1/2+z
_cell_length_a                   13.0102(7)
_cell_length_b                   7.7242(6)
_cell_length_c                   18.0758(12)
_cell_angle_alpha                90
_cell_angle_beta                 95.404(7)
_cell_angle_gamma                90
_cell_volume                     1808.42
_exptl_crystal_colour            white
_cell_formula_units_Z            4
loop_
_atom_site_label
_atom_site_type_symbol
_atom_site_fract_x
_atom_site_fract_y
_atom_site_fract_z
C1 C 0.5224(2) 0.1123(3) 0.69325(12)
N1 N 0.54871(14) 0.2231(3) 0.63188(11)
O1 O 0.59997(15) 0.1595(2) 0.58624(10)
O2 O 0.51893(15) 0.3719(2) 0.63352(11)
C2 C 0.5238(2) -0.0897(3) 0.69304(12)
N2 N 0.5581(2) -0.1982(3) 0.63290(11)
O3 O 0.4943(2) -0.2497(3) 0.58548(10)
O4 O 0.6510(2) -0.2223(3) 0.63594(11)
C3 C 0.4181(2) -0.0852(3) 0.72709(12)
N3 N 0.3295(2) -0.1992(3) 0.70623(11)
O5 O 0.24420(15) -0.1349(3) 0.70044(12)
O6 O 0.3505(2) -0.3520(3) 0.69955(12)
C4 C 0.4174(2) 0.1152(3) 0.72716(12)
H1 H 0.3625(21) 0.1887(34) 0.7104(14)
C2A C 0.4762(2) -0.0897(3) 0.80696(12)
C1A C 0.4776(2) 0.1123(3) 0.80675(12)
N1A N 0.45129(14) 0.2231(3) 0.86812(11)
O1A O 0.40003(15) 0.1595(2) 0.91376(10)
O2A O 0.48107(15) 0.3719(2) 0.86648(11)
C4A C 0.5826(2) 0.1152(3) 0.77284(12)
C3A C 0.5819(2) -0.0852(3) 0.77291(12)
N2A N 0.4419(2) -0.1982(3) 0.86710(11)
O3A O 0.5057(2) -0.2497(3) 0.91452(10)
O4A O 0.3490(2) -0.2223(3) 0.86406(11)
N3A N 0.6705(2) -0.1992(3) 0.79377(11)
O5A O 0.75580(15) -0.1349(3) 0.79956(12)
O6A O 0.6495(2) -0.3520(3) 0.80045(12)
H1A H 0.6375(21) 0.1887(34) 0.7896(14)
C5 C 0.2815(2) 0.0307(3) 0.53345(14)
N4 N 0.3530(2) 0.0551(3) 0.57321(13)
C6 C 0.1900(2) -0.0019(4) 0.4838(2)
H2 H 0.1374(14) 0.0827(40) 0.4926(19)
H3 H 0.1643(22) -0.1173(24) 0.4927(19)
H4 H 0.2066(9) 0.0070(63) 0.4328(2)
H5? H 0.2010(14) -0.1025(39) 0.4534(19)
H6? H 0.1753(22) 0.0980(25) 0.4520(19)
H7? H 0.1320(8) -0.0232(64) 0.5126(2)
loop_
_geom_bond_atom_site_label_1
_geom_bond_atom_site_label_2
_geom_bond_site_symmetry_1
_geom_bond_site_symmetry_2
C1 N1 1_555 1_555
N1 O1 1_555 1_555
O2 N1 1_555 1_555
C2 C1 1_555 1_555
N2 C2 1_555 1_555
O3 N2 1_555 1_555
O4 N2 1_555 1_555
C3 C2 1_555 1_555
N3 C3 1_555 1_555
O5 N3 1_555 1_555
O6 N3 1_555 1_555
C4 C1 1_555 1_555
H1 C4 1_555 1_555
C5 N4 1_555 1_555
C6 C5 1_555 1_555
H2 C6 1_555 1_555
H3 C6 1_555 1_555
H4 C6 1_555 1_555
C2A C3 1_555 1_555
C1A C4 1_555 1_555
N1A C1A 1_555 1_555
O1A N1A 1_555 1_555
O2A N1A 1_555 1_555
C4A C1 1_555 1_555
C3A C2 1_555 1_555
N2A C2A 1_555 1_555
O3A N2A 1_555 1_555
O4A N2A 1_555 1_555
N3A C3A 1_555 1_555
O5A N3A 1_555 1_555
O6A N3A 1_555 1_555
H1A C4A 1_555 1_555
C3 C4 1_555 1_555
C2A C1A 1_555 1_555
C2A C3A 1_555 1_555
C1A C4A 1_555 1_555
C4A C3A 1_555 1_555

#END
