
#######################################################################
#
#                 Cambridge Crystallographic Data Centre
#                                CCDC 
#
#######################################################################
#
# If this CIF has been generated from an entry in the Cambridge 
# Structural Database, then it will include bibliographic, chemical, 
# crystal, experimental, refinement or atomic coordinate data resulting 
# from the CCDC's data processing and validation procedures.
#
#######################################################################

data_NACXUK
_chemical_formula_moiety         'C8 Br4 N4 O8'
_chemical_name_systematic        1,3,5,7-Tetranitro-2,4,6,8-tetrabromocubane
_symmetry_cell_setting           monoclinic
_symmetry_space_group_name_H-M   'P 21/c'
_symmetry_Int_Tables_number      14
_space_group_name_Hall           '-P 2ybc'
loop_
_symmetry_equiv_pos_site_id
_symmetry_equiv_pos_as_xyz
1 x,y,z
2 -x,1/2+y,1/2-z
3 -x,-y,-z
4 x,1/2-y,1/2+z
_cell_length_a                   27.458(2)
_cell_length_b                   7.4752(5)
_cell_length_c                   14.7221(10)
_cell_angle_alpha                90
_cell_angle_beta                 97.859(5)
_cell_angle_gamma                90
_cell_volume                     2993.39
_exptl_crystal_colour            colorless
_cell_formula_units_Z            8
loop_
_atom_site_label
_atom_site_type_symbol
_atom_site_fract_x
_atom_site_fract_y
_atom_site_fract_z
C1 C 0.0840(3) 0.0144(14) 0.4100(6)
Br1 Br 0.03504(3) -0.0563(2) 0.31423(7)
C2 C 0.1393(3) -0.0257(13) 0.4092(6)
N1 N 0.1562(3) -0.1258(13) 0.3329(5)
O1 O 0.1689(4) -0.0428(13) 0.2730(6)
O2 O 0.1522(5) -0.2830(13) 0.3349(7)
C3 C 0.1533(3) 0.1725(13) 0.4359(6)
Br2 Br 0.19467(3) 0.3217(2) 0.38079(8)
C4 C 0.1595(3) 0.1115(13) 0.5395(6)
N2 N 0.1977(2) 0.1730(14) 0.6121(5)
O3 O 0.2119(3) 0.3240(12) 0.6067(6)
O4 O 0.2112(3) 0.0711(12) 0.6731(5)
C5 C 0.1455(3) -0.0843(13) 0.5125(6)
Br3 Br 0.17650(4) -0.2925(2) 0.56235(8)
C6 C 0.0895(3) -0.0405(13) 0.5129(6)
N3 N 0.0559(3) -0.1499(12) 0.5617(6)
O5 O 0.0723(3) -0.1916(14) 0.6390(5)
O6 O 0.0157(3) -0.1863(11) 0.5205(5)
C7 C 0.1032(3) 0.1558(14) 0.5428(6)
Br4 Br 0.08134(4) 0.2831(2) 0.63863(7)
C8 C 0.0974(3) 0.2112(13) 0.4398(6)
N4 N 0.0734(3) 0.3749(12) 0.4024(6)
O7 O 0.0764(4) 0.5041(13) 0.4509(7)
O8 O 0.0524(3) 0.3718(12) 0.3256(5)
C9 C 0.3407(3) 0.5379(14) 0.8402(7)
Br5 Br 0.29615(4) 0.4156(2) 0.75507(8)
C10 C 0.3963(3) 0.4899(16) 0.8699(7)
N5 N 0.4165(3) 0.3240(16) 0.8338(7)
O9 O 0.4381(4) 0.3404(15) 0.7699(8)
O10 O 0.4053(4) 0.1829(14) 0.8661(8)
C11 C 0.4113(3) 0.6864(15) 0.8604(7)
Br6 Br 0.46410(4) 0.7727(2) 0.80366(9)
C12 C 0.4036(3) 0.7161(15) 0.9612(7)
N6 N 0.4414(3) 0.8072(18) 1.0289(7)
O11 O 0.4294(4) 0.9300(15) 1.0716(8)
O12 O 0.4812(3) 0.7347(19) 1.0379(8)
C13 C 0.3900(3) 0.5162(14) 0.9726(6)
Br7 Br 0.41446(5) 0.3736(2) 1.07235(9)
C14 C 0.3351(3) 0.5709(14) 0.9430(7)
N7 N 0.2915(3) 0.5084(14) 0.9793(7)
O13 O 0.2528(3) 0.5800(13) 0.9507(7)
O14 O 0.2957(3) 0.3822(15) 1.0333(7)
C15 C 0.3488(3) 0.7752(15) 0.9316(8)
Br8 Br 0.31563(4) 0.9653(2) 0.97833(10)
C16 C 0.3562(3) 0.7373(14) 0.8317(7)
N8 N 0.3386(4) 0.8449(16) 0.7493(8)
O15 O 0.3122(5) 0.9638(19) 0.7554(8)
O16 O 0.3511(4) 0.7944(17) 0.6793(8)
loop_
_geom_bond_atom_site_label_1
_geom_bond_atom_site_label_2
_geom_bond_site_symmetry_1
_geom_bond_site_symmetry_2
C1 Br1 1_555 1_555
C2 C1 1_555 1_555
N1 C2 1_555 1_555
O1 N1 1_555 1_555
O2 N1 1_555 1_555
C3 C2 1_555 1_555
Br2 C3 1_555 1_555
C4 C3 1_555 1_555
N2 C4 1_555 1_555
O3 N2 1_555 1_555
O4 N2 1_555 1_555
C5 C2 1_555 1_555
Br3 C5 1_555 1_555
C6 C1 1_555 1_555
N3 C6 1_555 1_555
O5 N3 1_555 1_555
O6 N3 1_555 1_555
C7 C4 1_555 1_555
Br4 C7 1_555 1_555
C8 C1 1_555 1_555
N4 C8 1_555 1_555
O7 N4 1_555 1_555
O8 N4 1_555 1_555
C9 Br5 1_555 1_555
C10 C9 1_555 1_555
N5 C10 1_555 1_555
O9 N5 1_555 1_555
O10 N5 1_555 1_555
C11 C10 1_555 1_555
Br6 C11 1_555 1_555
C12 C11 1_555 1_555
N6 C12 1_555 1_555
O11 N6 1_555 1_555
O12 N6 1_555 1_555
C13 C10 1_555 1_555
Br7 C13 1_555 1_555
C14 C9 1_555 1_555
N7 C14 1_555 1_555
O13 N7 1_555 1_555
O14 N7 1_555 1_555
C15 C12 1_555 1_555
Br8 C15 1_555 1_555
C16 C9 1_555 1_555
N8 C16 1_555 1_555
O15 N8 1_555 1_555
O16 N8 1_555 1_555
C3 C8 1_555 1_555
C4 C5 1_555 1_555
C5 C6 1_555 1_555
C6 C7 1_555 1_555
C7 C8 1_555 1_555
C11 C16 1_555 1_555
C12 C13 1_555 1_555
C13 C14 1_555 1_555
C14 C15 1_555 1_555
C15 C16 1_555 1_555

#END
