
#######################################################################
#
#                 Cambridge Crystallographic Data Centre
#                                CCDC 
#
#######################################################################
#
# If this CIF has been generated from an entry in the Cambridge 
# Structural Database, then it will include bibliographic, chemical, 
# crystal, experimental, refinement or atomic coordinate data resulting 
# from the CCDC's data processing and validation procedures.
#
#######################################################################

data_NADGAD
_chemical_compound_source        'leaves of Aglaia perviridis'
_chemical_name_common            'Aglapervirisin B'
_chemical_formula_moiety         'C38 H40 N2 O8'
_chemical_name_systematic        
N-(4-(Benzoylamino)butyl)-1,12-dihydroxy-3,5-dimethoxy-9-(4-methoxyphenyl)-11-phenyl-8-oxatricyclo[7.2.1.0^2,7^]dodeca-2,4,6-triene-10-carboxamide
_symmetry_cell_setting           orthorhombic
_symmetry_space_group_name_H-M   'P 21 21 21'
_symmetry_Int_Tables_number      19
_space_group_name_Hall           'P 2ac 2ab'
loop_
_symmetry_equiv_pos_site_id
_symmetry_equiv_pos_as_xyz
1 x,y,z
2 1/2-x,-y,1/2+z
3 1/2+x,1/2-y,-z
4 -x,1/2+y,1/2-z
_cell_length_a                   7.5679(3)
_cell_length_b                   9.6137(3)
_cell_length_c                   46.6023(14)
_cell_angle_alpha                90
_cell_angle_beta                 90
_cell_angle_gamma                90
_cell_volume                     3390.57
_exptl_crystal_colour            colorless
_exptl_crystal_description       orthorhombic
_chemical_melting_point          '441 K'
_cell_formula_units_Z            4
_exptl_crystal_recrystallization_method methanol/water
loop_
_atom_site_label
_atom_site_type_symbol
_atom_site_fract_x
_atom_site_fract_y
_atom_site_fract_z
O1 O 0.2265(4) 0.6390(3) 0.09067(5)
O2 O 0.1025(4) 1.0221(3) 0.05448(6)
H1 H 0.0994 1.0142 0.0370
O3 O 0.1920(5) 0.9053(3) 0.00473(5)
O4 O 0.0499(4) 0.9774(3) 0.11152(6)
H2 H 0.0038 1.0393 0.1020
O5 O 0.4099(6) 0.3061(3) 0.25583(6)
O6 O 0.6454(4) 0.7196(4) 0.08720(6)
N1 N 0.5453(6) 0.5018(4) 0.24132(7)
O7 O 0.2572(8) 0.4149(3) -0.00017(7)
O8 O 0.0990(5) 0.5779(5) 0.22220(7)
N2 N 0.5930(5) 0.7155(4) 0.13449(7)
C1 C 0.3841(5) 0.9296(3) 0.07633(7)
H3 H 0.4590 0.8799 0.0626
C2 C 0.2198(5) 0.7648(4) 0.10781(7)
C3 C 0.1938(6) 0.7768(4) 0.04755(8)
C4 C 0.3956(5) 0.8477(4) 0.10495(7)
H4 H 0.3992 0.9158 0.1206
C5 C 0.6313(6) 0.5626(4) 0.19254(8)
H5 H 0.7353 0.6069 0.2006
H6 H 0.5392 0.6325 0.1911
C6 C 0.1876(5) 0.9050(4) 0.06651(8)
C7 C 0.4609(6) 1.0748(4) 0.07906(7)
C8 C 0.1815(6) 0.8120(5) 0.16080(8)
H7 H 0.1982 0.9060 0.1569
C9 C 0.2158(6) 0.6499(4) 0.06117(7)
C10 C 0.0869(6) 0.8618(4) 0.09356(8)
H8 H -0.0218 0.8118 0.0886
C11 C 0.6311(7) 1.0969(4) 0.06874(9)
H9 H 0.6898 1.0248 0.0595
C12 C 0.1649(6) 0.5773(5) 0.14516(9)
H10 H 0.1699 0.5111 0.1306
C13 C 0.2012(6) 0.7763(4) 0.01739(8)
C14 C 0.1856(5) 0.7170(5) 0.13832(8)
C15 C 0.7360(5) 0.6230(4) 0.14249(8)
H11 H 0.8285 0.6765 0.1518
H12 H 0.7855 0.5814 0.1253
C16 C 0.1292(7) 0.6317(6) 0.19540(9)
C17 C 0.5575(5) 0.7563(4) 0.10771(7)
C18 C 0.4631(6) 0.4250(4) 0.26105(8)
C19 C 0.2317(7) 0.5252(4) 0.04647(9)
H13 H 0.2399 0.4411 0.0563
C20 C 0.2349(8) 0.5294(4) 0.01684(9)
C21 C 0.1369(7) 0.5347(5) 0.17325(10)
H14 H 0.1232 0.4406 0.1773
C22 C 0.4327(6) 0.4897(4) 0.28990(8)
C23 C 0.1529(6) 0.7695(6) 0.18917(9)
H15 H 0.1500 0.8351 0.2038
C24 C 0.2057(9) 0.9119(5) -0.02578(8)
H16 H 0.1982 1.0072 -0.0319
H17 H 0.1111 0.8596 -0.0343
H18 H 0.3169 0.8735 -0.0317
C25 C 0.6749(6) 0.5089(4) 0.16258(8)
H19 H 0.7668 0.4389 0.1640
H20 H 0.5708 0.4647 0.1545
C26 C 0.2193(8) 0.6540(4) 0.00206(9)
H21 H 0.2209 0.6553 -0.0179
C27 C 0.2887(8) 0.4503(5) 0.30551(10)
H22 H 0.2109 0.3851 0.2979
C28 C 0.5710(7) 0.4494(4) 0.21242(8)
H23 H 0.4609 0.4105 0.2054
H24 H 0.6584 0.3756 0.2127
C29 C 0.5491(7) 0.5863(4) 0.30165(9)
H25 H 0.6482 0.6147 0.2914
C30 C 0.2562(8) 0.5056(6) 0.33240(10)
H26 H 0.1571 0.4779 0.3427
C31 C 0.6296(10) 1.3326(5) 0.08515(10)
H27 H 0.6848 1.4185 0.0871
C32 C 0.5162(8) 0.6397(5) 0.32869(9)
H28 H 0.5951 0.7029 0.3367
C33 C 0.3771(7) 1.1850(4) 0.09261(9)
H29 H 0.2635 1.1731 0.0998
C34 C 0.7153(8) 1.2243(5) 0.07198(10)
H30 H 0.8299 1.2362 0.0652
C35 C 0.4607(9) 1.3128(4) 0.09553(10)
H31 H 0.4023 1.3858 0.1046
C36 C 0.3701(8) 0.6011(5) 0.34376(10)
H32 H 0.3479 0.6396 0.3617
C37 C 0.0818(10) 0.6753(9) 0.24523(10)
H33 H 0.0608 0.6261 0.2628
H34 H -0.0156 0.7366 0.2414
H35 H 0.1886 0.7286 0.2469
C38 C 0.2791(14) 0.2853(5) 0.01346(12)
H36 H 0.2919 0.2138 -0.0008
H37 H 0.1776 0.2659 0.0251
H38 H 0.3828 0.2879 0.0253
H39 H 0.571(7) 0.584(6) 0.2448(11)
H40 H 0.544(5) 0.747(4) 0.1473(8)
loop_
_geom_bond_atom_site_label_1
_geom_bond_atom_site_label_2
_geom_bond_site_symmetry_1
_geom_bond_site_symmetry_2
O1 C2 1_555 1_555
O2 H1 1_555 1_555
O3 C13 1_555 1_555
O4 H2 1_555 1_555
O5 C18 1_555 1_555
O6 C17 1_555 1_555
N1 C18 1_555 1_555
O7 C20 1_555 1_555
O8 C16 1_555 1_555
N2 C15 1_555 1_555
C1 H3 1_555 1_555
C2 C4 1_555 1_555
C3 C6 1_555 1_555
C4 C1 1_555 1_555
H4 C4 1_555 1_555
C5 H5 1_555 1_555
H6 C5 1_555 1_555
C6 O2 1_555 1_555
C7 C1 1_555 1_555
C8 H7 1_555 1_555
C9 O1 1_555 1_555
C10 O4 1_555 1_555
H8 C10 1_555 1_555
C11 C7 1_555 1_555
H9 C11 1_555 1_555
C12 H10 1_555 1_555
C13 C3 1_555 1_555
C14 C2 1_555 1_555
C15 H11 1_555 1_555
H12 C15 1_555 1_555
C16 C21 1_555 1_555
C17 N2 1_555 1_555
C18 C22 1_555 1_555
C19 C9 1_555 1_555
H13 C19 1_555 1_555
C20 C19 1_555 1_555
C21 C12 1_555 1_555
H14 C21 1_555 1_555
C22 C27 1_555 1_555
C23 C8 1_555 1_555
H15 C23 1_555 1_555
C24 O3 1_555 1_555
H16 C24 1_555 1_555
H17 C24 1_555 1_555
H18 C24 1_555 1_555
C25 C5 1_555 1_555
H19 C25 1_555 1_555
H20 C25 1_555 1_555
C26 C13 1_555 1_555
H21 C26 1_555 1_555
C27 H22 1_555 1_555
C28 N1 1_555 1_555
H23 C28 1_555 1_555
H24 C28 1_555 1_555
C29 C22 1_555 1_555
H25 C29 1_555 1_555
C30 C27 1_555 1_555
H26 C30 1_555 1_555
C31 H27 1_555 1_555
C32 C29 1_555 1_555
H28 C32 1_555 1_555
C33 C7 1_555 1_555
H29 C33 1_555 1_555
C34 C11 1_555 1_555
H30 C34 1_555 1_555
C35 C31 1_555 1_555
H31 C35 1_555 1_555
C36 C30 1_555 1_555
H32 C36 1_555 1_555
C37 O8 1_555 1_555
H33 C37 1_555 1_555
H34 C37 1_555 1_555
H35 C37 1_555 1_555
C38 O7 1_555 1_555
H36 C38 1_555 1_555
H37 C38 1_555 1_555
H38 C38 1_555 1_555
H39 N1 1_555 1_555
H40 N2 1_555 1_555
C1 C6 1_555 1_555
C2 C10 1_555 1_555
C3 C9 1_555 1_555
C4 C17 1_555 1_555
C5 C28 1_555 1_555
C6 C10 1_555 1_555
C8 C14 1_555 1_555
C12 C14 1_555 1_555
C15 C25 1_555 1_555
C16 C23 1_555 1_555
C20 C26 1_555 1_555
C31 C34 1_555 1_555
C32 C36 1_555 1_555
C33 C35 1_555 1_555

#END
