
#######################################################################
#
#                 Cambridge Crystallographic Data Centre
#                                CCDC 
#
#######################################################################
#
# If this CIF has been generated from an entry in the Cambridge 
# Structural Database, then it will include bibliographic, chemical, 
# crystal, experimental, refinement or atomic coordinate data resulting 
# from the CCDC's data processing and validation procedures.
#
#######################################################################

data_NADGEH
_chemical_formula_moiety         'C10 H12 N4 2+,H1 O4 P1 2-,H2 O1'
_chemical_name_systematic        
"5,5'-Diamino-2,2'-bipyridinium hydrogen phosphate monohydrate"
_symmetry_cell_setting           monoclinic
_symmetry_space_group_name_H-M   'P 21/n'
_symmetry_Int_Tables_number      14
_space_group_name_Hall           '-P 2yn'
loop_
_symmetry_equiv_pos_site_id
_symmetry_equiv_pos_as_xyz
1 x,y,z
2 1/2-x,1/2+y,1/2-z
3 -x,-y,-z
4 1/2+x,1/2-y,1/2+z
_cell_length_a                   12.9672(5)
_cell_length_b                   4.22937(14)
_cell_length_c                   24.0975(8)
_cell_angle_alpha                90
_cell_angle_beta                 100.972(4)
_cell_angle_gamma                90
_cell_volume                     1297.42
_exptl_crystal_colour            red
_exptl_crystal_description       needle
_cell_formula_units_Z            4
loop_
_atom_site_label
_atom_site_type_symbol
_atom_site_fract_x
_atom_site_fract_y
_atom_site_fract_z
P1 P 0.44432(4) -0.08227(13) 0.13984(2)
O1 O 0.4247(4) 0.1286(8) 0.19025(13)
O2 O 0.4633(3) 0.1253(8) 0.09273(13)
O3 O 0.5417(2) -0.2793(9) 0.16459(17)
O4 O 0.3509(2) -0.3063(8) 0.12367(16)
H1 H 0.382(6) 0.27(2) 0.103(3)
N1 N 0.53743(13) 0.4352(5) 0.33119(7)
N2 N 0.68538(12) 0.0226(4) 0.37928(7)
C1 C 0.45492(16) 0.4416(6) 0.41029(9)
N3 N 0.87190(15) -0.4511(6) 0.47410(10)
C2 C 0.46187(18) 0.6256(6) 0.30399(9)
C3 C 0.53443(14) 0.3448(5) 0.38405(8)
C4 C 0.37672(16) 0.6344(6) 0.38274(9)
C5 C 0.61988(14) 0.1379(5) 0.41158(8)
N4 N 0.30325(19) 0.9239(6) 0.29776(12)
C6 C 0.76713(15) -0.1663(6) 0.39821(8)
C7 C 0.63979(16) 0.0497(6) 0.46793(9)
C8 C 0.72329(16) -0.1422(6) 0.48942(8)
C9 C 0.78998(14) -0.2591(5) 0.45461(8)
C10 C 0.37890(15) 0.7349(5) 0.32784(9)
H2 H 0.7393(16) -0.193(6) 0.5279(10)
H3 H 0.8062(16) -0.235(6) 0.3723(9)
H4 H 0.6000(18) 0.130(6) 0.4915(10)
H5 H 0.8806(19) -0.510(7) 0.5076(11)
H6 H 0.6724(17) 0.073(6) 0.3435(11)
H7 H 0.4682(18) 0.673(7) 0.2698(11)
H8 H 0.909(2) -0.515(7) 0.4541(11)
H9 H 0.3161(18) 0.690(7) 0.4016(10)
H10 H 0.4537(18) 0.387(7) 0.4459(11)
H11 H 0.313(3) 1.014(10) 0.2647(17)
H12 H 0.266(3) 1.021(9) 0.3150(14)
H13 H 0.594(6) 0.33(2) 0.302(4)
O9 O 0.68949(15) 0.0343(6) 0.26169(7)
H14 H 0.635(2) 0.075(9) 0.2400(14)
H15 H 0.728(3) -0.178(11) 0.2462(17)
O5? O 0.5202(3) 0.1281(8) 0.17963(14)
O6? O 0.3784(3) 0.1308(8) 0.09416(13)
O7? O 0.3791(3) -0.2943(8) 0.16763(15)
O8? O 0.5136(2) -0.2908(8) 0.10622(15)
loop_
_geom_bond_atom_site_label_1
_geom_bond_atom_site_label_2
_geom_bond_site_symmetry_1
_geom_bond_site_symmetry_2
P1 O1 1_555 1_555
O2 P1 1_555 1_555
O3 P1 1_555 1_555
O4 P1 1_555 1_555
H1 O2 1_555 1_555
N1 C2 1_555 1_555
N2 C5 1_555 1_555
C1 C3 1_555 1_555
N3 C9 1_555 1_555
C2 C10 1_555 1_555
C3 N1 1_555 1_555
C4 C1 1_555 1_555
C5 C3 1_555 1_555
N4 C10 1_555 1_555
C6 N2 1_555 1_555
C7 C5 1_555 1_555
C8 C7 1_555 1_555
C9 C6 1_555 1_555
C10 C4 1_555 1_555
H2 C8 1_555 1_555
H3 C6 1_555 1_555
H4 C7 1_555 1_555
H5 N3 1_555 1_555
H6 N2 1_555 1_555
H7 C2 1_555 1_555
H8 N3 1_555 1_555
H9 C4 1_555 1_555
H10 C1 1_555 1_555
H11 N4 1_555 1_555
H12 N4 1_555 1_555
H13 N1 1_555 1_555
O9 H14 1_555 1_555
H15 O9 1_555 1_555
C8 C9 1_555 1_555

#END
