
#######################################################################
#
#                 Cambridge Crystallographic Data Centre
#                                CCDC 
#
#######################################################################
#
# If this CIF has been generated from an entry in the Cambridge 
# Structural Database, then it will include bibliographic, chemical, 
# crystal, experimental, refinement or atomic coordinate data resulting 
# from the CCDC's data processing and validation procedures.
#
#######################################################################

data_NADGIL
_chemical_formula_moiety         'C10 H12 N4 2+,2(H2 O4 P1 1-)'
_chemical_name_systematic        
'2-(5-Ammoniopyridin-2-yl)-5-aminopyridnium bis(dihydrogen phosphate)'
_symmetry_cell_setting           triclinic
_symmetry_space_group_name_H-M   'P -1'
_symmetry_Int_Tables_number      2
_space_group_name_Hall           '-P 1'
loop_
_symmetry_equiv_pos_site_id
_symmetry_equiv_pos_as_xyz
1 x,y,z
2 -x,-y,-z
_cell_length_a                   8.6237(9)
_cell_length_b                   8.9142(10)
_cell_length_c                   10.2301(8)
_cell_angle_alpha                73.441(9)
_cell_angle_beta                 85.209(8)
_cell_angle_gamma                83.669(9)
_cell_volume                     748.089
_exptl_crystal_colour            red
_exptl_crystal_description       needle
_cell_formula_units_Z            2
loop_
_atom_site_label
_atom_site_type_symbol
_atom_site_fract_x
_atom_site_fract_y
_atom_site_fract_z
P1 P 0.25223(6) 0.00500(6) 0.98486(5)
O1 O 0.35830(17) 0.11595(18) 0.89023(16)
O2 O 0.34961(17) -0.12206(18) 1.09236(15)
H1 H 0.4413 -0.1027 1.0824
O3 O 0.13914(17) 0.0979(2) 1.06890(17)
H2 H 0.0488 0.0801 1.0641
O4 O 0.15850(16) -0.08051(18) 0.91572(15)
P2 P 0.12446(6) 0.45174(6) 0.68301(5)
O5 O 0.11983(19) 0.59701(18) 0.56466(16)
O6 O 0.29275(18) 0.3646(2) 0.68091(16)
H3 H 0.3026 0.2924 0.7512
O7 O 0.08603(18) 0.4781(2) 0.82160(16)
O8 O 0.01076(19) 0.33521(18) 0.66449(16)
H4 H -0.0258 0.3689 0.5891
N1 N 0.2939(2) 0.9168(2) 0.65607(19)
N2 N 0.5088(2) 0.7312(2) 0.82540(19)
C1 C 0.7001(2) 0.5115(2) 0.8804(2)
C2 C 0.6830(3) 0.4778(3) 0.7591(2)
H5 H 0.7392 0.3914 0.7386
N3 N 0.8183(2) 0.4185(2) 0.9709(2)
H6 H 0.917(3) 0.429(3) 0.927(3)
H7 H 0.830(3) 0.452(3) 1.043(3)
N4 N 0.1094(3) 1.1680(2) 0.3561(2)
H8 H 0.0891 1.1389 0.2866
H9 H 0.0235 1.1853 0.4009
C3 C 0.1989(3) 1.0306(3) 0.5789(2)
H10 H 0.1313 1.0956 0.6191
C4 C 0.4978(2) 0.7025(2) 0.7050(2)
C5 C 0.3950(2) 0.8170(2) 0.6082(2)
C6 C 0.2012(3) 1.0518(2) 0.4387(2)
C7 C 0.3051(3) 0.9490(3) 0.3864(2)
H11 H 0.3099 0.9586 0.2932
C8 C 0.6108(3) 0.6367(3) 0.9111(2)
H12 H 0.6218 0.6561 0.9943
C9 C 0.5804(3) 0.5757(3) 0.6694(2)
H13 H 0.5666 0.5572 0.5862
C10 C 0.4003(3) 0.8340(3) 0.4694(2)
H14 H 0.4688 0.7671 0.4321
H15 H 0.803(3) 0.312(3) 1.004(3)
H16 H 0.283(3) 0.906(3) 0.742(3)
loop_
_geom_bond_atom_site_label_1
_geom_bond_atom_site_label_2
_geom_bond_site_symmetry_1
_geom_bond_site_symmetry_2
P1 O1 1_555 1_555
O2 P1 1_555 1_555
H1 O2 1_555 1_555
O3 P1 1_555 1_555
H2 O3 1_555 1_555
O4 P1 1_555 1_555
P2 O5 1_555 1_555
O6 P2 1_555 1_555
H3 O6 1_555 1_555
O7 P2 1_555 1_555
O8 P2 1_555 1_555
H4 O8 1_555 1_555
N1 C3 1_555 1_555
N2 C4 1_555 1_555
C1 C2 1_555 1_555
C2 H5 1_555 1_555
N3 C1 1_555 1_555
H6 N3 1_555 1_555
H7 N3 1_555 1_555
N4 H8 1_555 1_555
H9 N4 1_555 1_555
C3 H10 1_555 1_555
C4 C5 1_555 1_555
C5 N1 1_555 1_555
C6 N4 1_555 1_555
C7 C6 1_555 1_555
H11 C7 1_555 1_555
C8 N2 1_555 1_555
H12 C8 1_555 1_555
C9 C2 1_555 1_555
H13 C9 1_555 1_555
C10 C5 1_555 1_555
H14 C10 1_555 1_555
H15 N3 1_555 1_555
H16 N1 1_555 1_555
C1 C8 1_555 1_555
C3 C6 1_555 1_555
C4 C9 1_555 1_555
C7 C10 1_555 1_555

#END
