
#######################################################################
#
#                 Cambridge Crystallographic Data Centre
#                                CCDC 
#
#######################################################################
#
# If this CIF has been generated from an entry in the Cambridge 
# Structural Database, then it will include bibliographic, chemical, 
# crystal, experimental, refinement or atomic coordinate data resulting 
# from the CCDC's data processing and validation procedures.
#
#######################################################################

data_NADMUB
_chemical_formula_moiety         'C18 H33 N3 O6'
_chemical_name_systematic        
't-Butoxycarbonyl-alanyl-leucyl-alanine methyl ester'
_symmetry_cell_setting           monoclinic
_symmetry_space_group_name_H-M   'P 21'
_symmetry_Int_Tables_number      4
_space_group_name_Hall           'P 2yb'
loop_
_symmetry_equiv_pos_site_id
_symmetry_equiv_pos_as_xyz
1 x,y,z
2 -x,1/2+y,-z
_cell_length_a                   10.044(12)
_cell_length_b                   23.09(3)
_cell_length_c                   9.711(13)
_cell_angle_alpha                90
_cell_angle_beta                 104.930(10)
_cell_angle_gamma                90
_cell_volume                     2176.11
_exptl_crystal_colour            white
_exptl_crystal_description       needle
_cell_formula_units_Z            4
_exptl_crystal_recrystallization_method methanol/water
loop_
_atom_site_label
_atom_site_type_symbol
_atom_site_fract_x
_atom_site_fract_y
_atom_site_fract_z
C1 C -0.081(2) 0.3938(6) 0.8495(16)
H1 H -0.1066 0.3586 0.8886
H2 H -0.1619 0.4130 0.7946
H3 H -0.0333 0.4187 0.9256
C2 C -0.047(2) 0.3316(6) 0.6557(14)
H4 H -0.0806 0.3026 0.7086
H5 H 0.0218 0.3150 0.6145
H6 H -0.1213 0.3464 0.5813
C3 C 0.015(2) 0.3794(6) 0.7520(13)
C4 C 0.025(2) 0.4344(5) 0.6658(18)
H7 H 0.0820 0.4270 0.6022
H8 H 0.0643 0.4652 0.7297
H9 H -0.0656 0.4453 0.6116
O1 O 0.1432(13) 0.3681(3) 0.8481(8)
C5 C 0.2511(16) 0.3566(4) 0.8005(13)
O2 O 0.2492(10) 0.3561(2) 0.6743(7)
N1 N 0.3551(16) 0.3371(4) 0.9082(9)
H10 H 0.3382 0.3306 0.9893
C6 C 0.492(2) 0.3265(5) 0.8952(12)
H11 H 0.4900 0.3216 0.7945
C7 C 0.587(2) 0.3767(6) 0.9581(13)
H12 H 0.5667 0.3894 1.0448
H13 H 0.5720 0.4081 0.8912
H14 H 0.6808 0.3642 0.9779
C8 C 0.5514(17) 0.2725(5) 0.9778(11)
O3 O 0.5394(10) 0.2652(3) 1.0991(6)
N2 N 0.6220(13) 0.2368(4) 0.9148(9)
H15 H 0.6219 0.2425 0.8273
C9 C 0.698(2) 0.1888(5) 0.9910(11)
H16 H 0.7159 0.1938 1.0943
C10 C 0.619(2) 0.1337(5) 0.9414(11)
H17 H 0.6075 0.1299 0.8395
H18 H 0.5279 0.1373 0.9573
C11 C 0.686(2) 0.0779(5) 1.0145(13)
H19 H 0.7802 0.0794 1.0035
C12 C 0.622(3) 0.0253(5) 0.9241(15)
H20 H 0.5700 0.0028 0.9755
H21 H 0.6935 0.0018 0.9044
H22 H 0.5616 0.0384 0.8360
C13 C 0.705(3) 0.0757(5) 1.1676(12)
H23 H 0.7154 0.1143 1.2057
H24 H 0.7853 0.0533 1.2103
H25 H 0.6254 0.0580 1.1882
C14 C 0.8298(17) 0.1847(4) 0.9457(13)
N3 N 0.9478(16) 0.1909(4) 1.0431(10)
H26 H 0.9440 0.2012 1.1271
O4 O 0.8212(10) 0.1779(3) 0.8156(6)
C15 C 1.091(2) 0.1811(6) 1.0189(13)
H27 H 1.0797 0.1869 0.9165
C16 C 1.168(2) 0.2270(7) 1.0829(16)
H28 H 1.1308 0.2622 1.0358
H29 H 1.2616 0.2225 1.0767
H30 H 1.1667 0.2288 1.1812
C17 C 1.127(3) 0.1177(10) 1.0450(19)
O5 O 1.236(2) 0.1056(8) 1.024(2)
C18 C 1.246(4) 0.0389(7) 1.055(2)
H31 H 1.1596 0.0209 1.0109
H32 H 1.2690 0.0324 1.1557
H33 H 1.3169 0.0226 1.0160
O6 O 1.0653(18) 0.0867(6) 1.0848(15)
C19 C 1.232(2) 0.1547(5) 0.6916(12)
H34 H 1.3174 0.1377 0.6857
H35 H 1.1817 0.1275 0.7337
H36 H 1.2500 0.1890 0.7495
C20 C 1.192(2) 0.2249(4) 0.4857(12)
H37 H 1.1167 0.2401 0.4121
H38 H 1.2683 0.2168 0.4468
H39 H 1.2183 0.2528 0.5609
C21 C 1.1341(17) 0.1226(5) 0.4352(12)
H40 H 1.2241 0.1083 0.4363
H41 H 1.0903 0.1373 0.3421
H42 H 1.0797 0.0917 0.4585
C22 C 1.1470(18) 0.1705(5) 0.5433(12)
O7 O 1.0042(13) 0.1801(3) 0.5706(7)
C23 C 0.8964(18) 0.1934(4) 0.4696(13)
O8 O 0.8987(10) 0.1994(3) 0.3445(7)
N4 N 0.7843(14) 0.1997(3) 0.5154(9)
H43 H 0.7938 0.1970 0.6057
C24 C 0.6502(16) 0.2105(4) 0.4289(11)
H44 H 0.6554 0.2184 0.3313
C25 C 0.546(2) 0.1597(4) 0.4267(14)
H45 H 0.5875 0.1238 0.4090
H46 H 0.4638 0.1664 0.3528
H47 H 0.5244 0.1577 0.5171
C26 C 0.5835(15) 0.2633(4) 0.4849(12)
O9 O 0.6028(9) 0.2696(2) 0.6145(6)
N5 N 0.5154(12) 0.3005(3) 0.3926(8)
H48 H 0.5051 0.2931 0.3037
C27 C 0.4601(16) 0.3496(4) 0.4262(9)
H49 H 0.4419 0.3443 0.5198
C28 C 0.547(2) 0.3987(6) 0.4337(12)
H50 H 0.5788 0.3981 0.3474
H51 H 0.6274 0.3914 0.5120
C29 C 0.504(3) 0.4597(6) 0.4512(15)
H52 H 0.4172 0.4680 0.3803
C30 C 0.615(2) 0.5046(6) 0.4375(16)
H53 H 0.5734 0.5342 0.3709
H54 H 0.6860 0.4855 0.4042
H55 H 0.6549 0.5218 0.5288
C31 C 0.483(2) 0.4653(6) 0.5987(13)
H56 H 0.5210 0.4319 0.6542
H57 H 0.3866 0.4680 0.5928
H58 H 0.5292 0.4995 0.6433
C32 C 0.3212(16) 0.3630(4) 0.3168(12)
O10 O 0.3309(11) 0.3661(3) 0.1869(7)
N6 N 0.2067(14) 0.3725(3) 0.3495(8)
H59 H 0.2064 0.3657 0.4365
C33 C 0.081(2) 0.3928(6) 0.2592(13)
H60 H 0.0952 0.3905 0.1631
C34 C -0.037(2) 0.3562(6) 0.2531(12)
H61 H -0.0113 0.3257 0.3221
H62 H -0.0678 0.3397 0.1596
H63 H -0.1095 0.3788 0.2737
C35 C 0.058(3) 0.4530(9) 0.2788(19)
O11 O -0.058(2) 0.4708(5) 0.2545(13)
O12 O 0.1521(18) 0.4860(4) 0.3322(10)
C36 C 0.134(3) 0.5480(6) 0.3502(18)
H64 H 0.0390 0.5557 0.3479
H65 H 0.1576 0.5688 0.2744
H66 H 0.1917 0.5604 0.4400
loop_
_geom_bond_atom_site_label_1
_geom_bond_atom_site_label_2
_geom_bond_site_symmetry_1
_geom_bond_site_symmetry_2
C1 H1 1_555 1_555
H2 C1 1_555 1_555
H3 C1 1_555 1_555
C2 H4 1_555 1_555
H5 C2 1_555 1_555
H6 C2 1_555 1_555
C3 C1 1_555 1_555
C4 C3 1_555 1_555
H7 C4 1_555 1_555
H8 C4 1_555 1_555
H9 C4 1_555 1_555
O1 C3 1_555 1_555
C5 O1 1_555 1_555
O2 C5 1_555 1_555
N1 C5 1_555 1_555
H10 N1 1_555 1_555
C6 N1 1_555 1_555
H11 C6 1_555 1_555
C7 C6 1_555 1_555
H12 C7 1_555 1_555
H13 C7 1_555 1_555
H14 C7 1_555 1_555
C8 C6 1_555 1_555
O3 C8 1_555 1_555
N2 C8 1_555 1_555
H15 N2 1_555 1_555
C9 N2 1_555 1_555
H16 C9 1_555 1_555
C10 C9 1_555 1_555
H17 C10 1_555 1_555
H18 C10 1_555 1_555
C11 C10 1_555 1_555
H19 C11 1_555 1_555
C12 C11 1_555 1_555
H20 C12 1_555 1_555
H21 C12 1_555 1_555
H22 C12 1_555 1_555
C13 C11 1_555 1_555
H23 C13 1_555 1_555
H24 C13 1_555 1_555
H25 C13 1_555 1_555
C14 C9 1_555 1_555
N3 C14 1_555 1_555
H26 N3 1_555 1_555
O4 C14 1_555 1_555
C15 N3 1_555 1_555
H27 C15 1_555 1_555
C16 C15 1_555 1_555
H28 C16 1_555 1_555
H29 C16 1_555 1_555
H30 C16 1_555 1_555
C17 C15 1_555 1_555
O5 C17 1_555 1_555
C18 O5 1_555 1_555
H31 C18 1_555 1_555
H32 C18 1_555 1_555
H33 C18 1_555 1_555
O6 C17 1_555 1_555
C19 H34 1_555 1_555
H35 C19 1_555 1_555
H36 C19 1_555 1_555
C20 H37 1_555 1_555
H38 C20 1_555 1_555
H39 C20 1_555 1_555
C21 H40 1_555 1_555
H41 C21 1_555 1_555
H42 C21 1_555 1_555
C22 C19 1_555 1_555
O7 C22 1_555 1_555
C23 O7 1_555 1_555
O8 C23 1_555 1_555
N4 C23 1_555 1_555
H43 N4 1_555 1_555
C24 N4 1_555 1_555
H44 C24 1_555 1_555
C25 C24 1_555 1_555
H45 C25 1_555 1_555
H46 C25 1_555 1_555
H47 C25 1_555 1_555
C26 C24 1_555 1_555
O9 C26 1_555 1_555
N5 C26 1_555 1_555
H48 N5 1_555 1_555
C27 N5 1_555 1_555
H49 C27 1_555 1_555
C28 C27 1_555 1_555
H50 C28 1_555 1_555
H51 C28 1_555 1_555
C29 C28 1_555 1_555
H52 C29 1_555 1_555
C30 C29 1_555 1_555
H53 C30 1_555 1_555
H54 C30 1_555 1_555
H55 C30 1_555 1_555
C31 C29 1_555 1_555
H56 C31 1_555 1_555
H57 C31 1_555 1_555
H58 C31 1_555 1_555
C32 C27 1_555 1_555
O10 C32 1_555 1_555
N6 C32 1_555 1_555
H59 N6 1_555 1_555
C33 N6 1_555 1_555
H60 C33 1_555 1_555
C34 C33 1_555 1_555
H61 C34 1_555 1_555
H62 C34 1_555 1_555
H63 C34 1_555 1_555
C35 C33 1_555 1_555
O11 C35 1_555 1_555
O12 C35 1_555 1_555
C36 O12 1_555 1_555
H64 C36 1_555 1_555
H65 C36 1_555 1_555
H66 C36 1_555 1_555
C2 C3 1_555 1_555
C20 C22 1_555 1_555
C21 C22 1_555 1_555

#END
