
#######################################################################
#
#                 Cambridge Crystallographic Data Centre
#                                CCDC 
#
#######################################################################
#
# If this CIF has been generated from an entry in the Cambridge 
# Structural Database, then it will include bibliographic, chemical, 
# crystal, experimental, refinement or atomic coordinate data resulting 
# from the CCDC's data processing and validation procedures.
#
#######################################################################

data_NAFBUR
_chemical_formula_moiety         'C12 H14 Cl2 O2'
_chemical_name_systematic        
(R,R)-(5R)-2-Methyl-5-(1-methyl-2,2-dichloro-3-oxocyclobutanyl)cyclohex-2-enone
_symmetry_cell_setting           monoclinic
_symmetry_space_group_name_H-M   'P 21/a'
_symmetry_Int_Tables_number      14
_space_group_name_Hall           '-P 2yab'
loop_
_symmetry_equiv_pos_site_id
_symmetry_equiv_pos_as_xyz
1 x,y,z
2 1/2-x,1/2+y,-z
3 -x,-y,-z
4 1/2+x,1/2-y,z
_cell_length_a                   11.757(2)
_cell_length_b                   31.566(6)
_cell_length_c                   6.7110(10)
_cell_angle_alpha                90
_cell_angle_beta                 90
_cell_angle_gamma                90
_cell_volume                     2490.6
_exptl_crystal_colour            colorless
_chemical_melting_point          129-130deg.C
_cell_formula_units_Z            8
loop_
_atom_site_label
_atom_site_type_symbol
_atom_site_fract_x
_atom_site_fract_y
_atom_site_fract_z
Cl1 Cl 0.93999(9) 0.36982(3) 0.2415(2)
Cl2 Cl 0.83415(11) 0.33772(5) 0.5980(2)
O1 O 0.9554(4) 0.43145(13) 0.6543(7)
O2 O 1.4215(2) 0.28369(10) 0.2514(6)
C1 C 0.9604(4) 0.35997(14) 0.5022(6)
C2 C 1.0045(5) 0.40131(15) 0.5940(8)
C3 C 1.1243(4) 0.38569(14) 0.5894(9)
C4 C 1.0786(4) 0.33960(13) 0.5563(6)
C5 C 1.1373(3) 0.31403(12) 0.3928(7)
C6 C 1.2600(4) 0.3029(2) 0.4440(7)
C7 C 1.3188(3) 0.28117(12) 0.2718(8)
C8 C 1.2474(4) 0.25602(13) 0.1332(7)
C9 C 1.1367(4) 0.25179(14) 0.1717(7)
C10 C 1.0751(4) 0.27354(14) 0.3363(7)
C11 C 1.0711(5) 0.3167(2) 0.7552(8)
C12 C 1.3060(6) 0.2364(2) -0.0414(9)
H1 H 1.1688(43) 0.3962(14) 0.4778(75)
H2 H 1.1630(38) 0.3892(12) 0.7054(73)
H5 H 1.1355(28) 0.3314(11) 0.2603(62)
H7 H 1.3046(37) 0.3275(14) 0.4740(64)
H8 H 1.2588(38) 0.2827(15) 0.5718(75)
H11 H 1.0894(42) 0.2358(15) 0.0917(74)
H13 H 1.0705(33) 0.2558(12) 0.4541(57)
H14 H 0.9932(38) 0.2809(13) 0.3072(62)
H18 H 1.1456(43) 0.3123(14) 0.8070(70)
H19 H 1.0351(39) 0.3341(14) 0.8651(75)
H20 H 1.0284(39) 0.2898(15) 0.7411(78)
H23 H 1.2540(40) 0.2239(14) -0.1345(72)
H24 H 1.3472(52) 0.2576(19) -0.1133(93)
H25 H 1.3593(42) 0.2147(15) 0.0055(68)
Cl3 Cl 0.92988(10) 0.06009(3) 0.2449(2)
Cl4 Cl 1.02034(11) 0.14463(4) 0.2885(2)
O3 O 0.7951(3) 0.13875(12) -0.0070(6)
O4 O 1.2352(3) -0.01616(11) -0.4345(6)
C13 C 0.9760(4) 0.10606(13) 0.1138(7)
C14 C 0.8796(4) 0.1182(2) -0.0285(8)
C15 C 0.9392(4) 0.0968(2) -0.1990(7)
C16 C 1.0502(4) 0.09716(12) -0.0751(6)
C17 C 1.1222(4) 0.05708(15) -0.0784(7)
C18 C 1.1711(4) 0.04778(15) -0.2825(8)
C19 C 1.2371(4) 0.00645(14) -0.2859(8)
C20 C 1.3024(4) -0.00450(14) -0.1070(8)
C21 C 1.2921(4) 0.01860(14) 0.0563(8)
C22 C 1.2151(4) 0.0561(2) 0.0786(8)
C23 C 1.1189(5) 0.1373(2) -0.1289(9)
C24 C 1.3828(6) -0.0418(2) -0.1205(13)
H3 H 0.9057(40) 0.0691(15) -0.2227(80)
H4 H 0.9410(42) 0.1108(14) -0.3334(77)
H6 H 1.0774(32) 0.0359(12) -0.0461(54)
H9 H 1.2231(38) 0.0706(14) -0.3252(64)
H10 H 1.1075(38) 0.0472(14) -0.3833(70)
H12 H 1.3276(36) 0.0115(12) 0.1767(62)
H15 H 1.1830(36) 0.0563(13) 0.2132(75)
H16 H 1.2628(37) 0.0822(13) 0.0714(65)
H17 H 1.1479(39) 0.1358(14) -0.2695(83)
H21 H 1.0727(40) 0.1618(15) -0.1298(70)
H22 H 1.1857(49) 0.1421(16) -0.0319(82)
H26 H 1.4326(49) -0.0355(17) -0.238(10)
H27 H 1.4382(60) -0.0399(20) 0.015(10)
H28 H 1.3481(44) -0.0653(17) -0.1597(74)
loop_
_geom_bond_atom_site_label_1
_geom_bond_atom_site_label_2
_geom_bond_site_symmetry_1
_geom_bond_site_symmetry_2
Cl1 C1 1_555 1_555
Cl2 C1 1_555 1_555
O1 C2 1_555 1_555
O2 C7 1_555 1_555
C1 C2 1_555 1_555
C2 C3 1_555 1_555
C3 C4 1_555 1_555
C4 C1 1_555 1_555
C5 C4 1_555 1_555
C6 C5 1_555 1_555
C7 C6 1_555 1_555
C8 C7 1_555 1_555
C9 C8 1_555 1_555
C10 C5 1_555 1_555
C11 C4 1_555 1_555
C12 C8 1_555 1_555
Cl3 C13 1_555 1_555
Cl4 C13 1_555 1_555
O3 C14 1_555 1_555
O4 C19 1_555 1_555
C13 C14 1_555 1_555
C14 C15 1_555 1_555
C15 C16 1_555 1_555
C16 C13 1_555 1_555
C17 C16 1_555 1_555
C18 C17 1_555 1_555
C19 C18 1_555 1_555
C20 C19 1_555 1_555
C21 C20 1_555 1_555
C22 C17 1_555 1_555
C23 C16 1_555 1_555
C24 C20 1_555 1_555
H1 C3 1_555 1_555
H2 C3 1_555 1_555
H3 C15 1_555 1_555
H4 C15 1_555 1_555
H5 C5 1_555 1_555
H6 C17 1_555 1_555
H7 C6 1_555 1_555
H8 C6 1_555 1_555
H9 C18 1_555 1_555
H10 C18 1_555 1_555
H11 C9 1_555 1_555
H12 C21 1_555 1_555
H13 C10 1_555 1_555
H14 C10 1_555 1_555
H15 C22 1_555 1_555
H16 C22 1_555 1_555
H17 C23 1_555 1_555
H18 C11 1_555 1_555
H19 C11 1_555 1_555
H20 C11 1_555 1_555
H21 C23 1_555 1_555
H22 C23 1_555 1_555
H23 C12 1_555 1_555
H24 C12 1_555 1_555
H25 C12 1_555 1_555
H26 C24 1_555 1_555
H27 C24 1_555 1_555
H28 C24 1_555 1_555
C9 C10 1_555 1_555
C21 C22 1_555 1_555

#END
