
#######################################################################
#
#                 Cambridge Crystallographic Data Centre
#                                CCDC 
#
#######################################################################
#
# If this CIF has been generated from an entry in the Cambridge 
# Structural Database, then it will include bibliographic, chemical, 
# crystal, experimental, refinement or atomic coordinate data resulting 
# from the CCDC's data processing and validation procedures.
#
#######################################################################

data_NAFCEE
_chemical_formula_moiety         'C13 H12 N4 O2'
_chemical_name_systematic        
'Methyl 2-(3-(pyridin-2-yl)triaz-1-en-1-yl)benzoate'
_symmetry_cell_setting           monoclinic
_symmetry_space_group_name_H-M   'P 21/c'
_symmetry_Int_Tables_number      14
_space_group_name_Hall           '-P 2ybc'
loop_
_symmetry_equiv_pos_site_id
_symmetry_equiv_pos_as_xyz
1 x,y,z
2 -x,1/2+y,1/2-z
3 -x,-y,-z
4 x,1/2-y,1/2+z
_cell_length_a                   15.064(3)
_cell_length_b                   6.1965(12)
_cell_length_c                   27.545(6)
_cell_angle_alpha                90
_cell_angle_beta                 99.30(3)
_cell_angle_gamma                90
_cell_volume                     2537.37
_exptl_crystal_colour            yellow
_exptl_crystal_description       block
_cell_formula_units_Z            8
_exptl_crystal_recrystallization_method 'ethyl acetate/hexanes'
loop_
_atom_site_label
_atom_site_type_symbol
_atom_site_fract_x
_atom_site_fract_y
_atom_site_fract_z
N1 N 0.0690(2) 0.5455(5) 0.39801(10)
O1 O -0.14012(19) 0.9349(4) 0.33254(11)
N2 N 0.0260(2) 0.7118(5) 0.38166(10)
C1 C 0.0577(2) 0.8043(6) 0.34043(12)
O2 O -0.07642(19) 1.2593(5) 0.34464(11)
N3 N 0.0451(2) 0.4746(5) 0.43943(11)
H2 H 0.0044 0.5415 0.4521
N4 N 0.0732(2) 0.2681(5) 0.50848(11)
C2 C 0.0858(2) 0.2932(6) 0.46222(12)
C3 C 0.0113(2) 0.9851(6) 0.31965(12)
C4 C -0.0763(2) 1.0508(6) 0.33367(12)
C5 C 0.0452(3) 1.1048(6) 0.28405(13)
H3 H 0.0158 1.2298 0.2715
C6 C 0.1339(3) 0.1504(6) 0.43855(13)
H4 H 0.1402 0.1716 0.4059
C7 C 0.1657(3) 0.8555(8) 0.28642(15)
H5 H 0.2168 0.8090 0.2746
C8 C 0.1348(3) 0.7394(7) 0.32283(14)
H6 H 0.1657 0.6169 0.3357
C9 C 0.1726(3) -0.0252(6) 0.46450(15)
H7 H 0.2063 -0.1239 0.4497
C10 C 0.1606(3) -0.0522(7) 0.51253(17)
H8 H 0.1869 -0.1681 0.5310
C11 C 0.1223(3) 1.0384(7) 0.26731(15)
H9 H 0.1447 1.1173 0.2432
C12 C 0.1098(3) 0.0930(7) 0.53257(16)
H10 H 0.0997 0.0703 0.5646
C13 C -0.1593(3) 1.3470(7) 0.35597(19)
H11 H -0.1516 1.4980 0.3633
H12 H -0.1754 1.2731 0.3839
H13 H -0.2062 1.3285 0.3282
N5 N 0.4694(2) 0.2418(5) 0.37818(11)
N6 N 0.4492(2) -0.0008(5) 0.43098(10)
H14 H 0.4898 0.0634 0.4515
O3 O 0.6381(2) 0.4556(5) 0.36149(13)
N7 N 0.4260(2) 0.0768(5) 0.38615(11)
O4 O 0.5775(2) 0.7828(5) 0.36025(11)
C14 C 0.4082(2) -0.1858(6) 0.44507(12)
C15 C 0.4394(2) 0.3373(6) 0.33161(13)
C16 C 0.4891(2) 0.5130(6) 0.31909(13)
N8 N 0.4259(2) -0.2257(5) 0.49342(12)
C17 C 0.5756(3) 0.5747(6) 0.34928(13)
C18 C 0.3550(3) -0.3168(6) 0.41229(13)
H16 H 0.3445 -0.2847 0.3789
C19 C 0.4575(3) 0.6300(6) 0.27690(14)
H17 H 0.4894 0.7503 0.2691
C20 C 0.3799(3) 0.5704(7) 0.24639(15)
H18 H 0.3601 0.6484 0.2178
C21 C 0.3606(3) 0.2808(7) 0.30084(15)
H19 H 0.3268 0.1645 0.3089
C22 C 0.3323(3) 0.3969(8) 0.25820(15)
H20 H 0.2801 0.3559 0.2374
C23 C 0.3339(3) -0.5390(7) 0.47939(17)
H21 H 0.3086 -0.6590 0.4921
C24 C 0.3882(3) -0.4011(7) 0.50957(16)
H22 H 0.3995 -0.4311 0.5431
C25 C 0.3178(3) -0.4962(6) 0.43002(15)
H23 H 0.2818 -0.5884 0.4086
C26 C 0.6595(4) 0.8671(8) 0.38760(19)
H24 H 0.6524 1.0185 0.3933
H25 H 0.7077 0.8459 0.3692
H26 H 0.6730 0.7933 0.4185
H1? H 0.1094 0.4848 0.3839
H15? H 0.3851 0.0198 0.3646
loop_
_geom_bond_atom_site_label_1
_geom_bond_atom_site_label_2
_geom_bond_site_symmetry_1
_geom_bond_site_symmetry_2
N1 N2 1_555 1_555
O1 C4 1_555 1_555
N2 C1 1_555 1_555
C1 C3 1_555 1_555
O2 C4 1_555 1_555
N3 N1 1_555 1_555
H2 N3 1_555 1_555
N4 C2 1_555 1_555
C2 N3 1_555 1_555
C3 C4 1_555 1_555
C5 C3 1_555 1_555
H3 C5 1_555 1_555
C6 C2 1_555 1_555
H4 C6 1_555 1_555
C7 H5 1_555 1_555
C8 C1 1_555 1_555
H6 C8 1_555 1_555
C9 C6 1_555 1_555
H7 C9 1_555 1_555
C10 C9 1_555 1_555
H8 C10 1_555 1_555
C11 C5 1_555 1_555
H9 C11 1_555 1_555
C12 N4 1_555 1_555
H10 C12 1_555 1_555
C13 O2 1_555 1_555
H11 C13 1_555 1_555
H12 C13 1_555 1_555
H13 C13 1_555 1_555
N5 N7 1_555 1_555
N6 H14 1_555 1_555
O3 C17 1_555 1_555
N7 N6 1_555 1_555
O4 C17 1_555 1_555
C14 N6 1_555 1_555
C15 N5 1_555 1_555
C16 C15 1_555 1_555
N8 C14 1_555 1_555
C17 C16 1_555 1_555
C18 C14 1_555 1_555
H16 C18 1_555 1_555
C19 C16 1_555 1_555
H17 C19 1_555 1_555
C20 C19 1_555 1_555
H18 C20 1_555 1_555
C21 C15 1_555 1_555
H19 C21 1_555 1_555
C22 C20 1_555 1_555
H20 C22 1_555 1_555
C23 H21 1_555 1_555
C24 N8 1_555 1_555
H22 C24 1_555 1_555
C25 C18 1_555 1_555
H23 C25 1_555 1_555
C26 O4 1_555 1_555
H24 C26 1_555 1_555
H25 C26 1_555 1_555
H26 C26 1_555 1_555
C7 C8 1_555 1_555
C7 C11 1_555 1_555
C10 C12 1_555 1_555
C21 C22 1_555 1_555
C23 C24 1_555 1_555
C23 C25 1_555 1_555

#END
