
#######################################################################
#
#                 Cambridge Crystallographic Data Centre
#                                CCDC 
#
#######################################################################
#
# If this CIF has been generated from an entry in the Cambridge 
# Structural Database, then it will include bibliographic, chemical, 
# crystal, experimental, refinement or atomic coordinate data resulting 
# from the CCDC's data processing and validation procedures.
#
#######################################################################

data_NAFCEC
_chemical_formula_moiety         'C12 H15 Cl1 O2'
_chemical_name_systematic        
2-Chloro-5,9-dimethyltricyclo(4.3.1.0^2,5^)decane-3,8-dione
_symmetry_cell_setting           monoclinic
_symmetry_space_group_name_H-M   'P 21'
_symmetry_Int_Tables_number      4
_space_group_name_Hall           'P 2yb'
loop_
_symmetry_equiv_pos_site_id
_symmetry_equiv_pos_as_xyz
1 x,y,z
2 -x,1/2+y,-z
_cell_length_a                   6.8860(10)
_cell_length_b                   23.193(5)
_cell_length_c                   14.561(3)
_cell_angle_alpha                90
_cell_angle_beta                 94.95(3)
_cell_angle_gamma                90
_cell_volume                     2316.82
_exptl_crystal_colour            colorless
_cell_formula_units_Z            8
loop_
_atom_site_label
_atom_site_type_symbol
_atom_site_fract_x
_atom_site_fract_y
_atom_site_fract_z
Cl1 Cl -0.0035(4) 0.2500 0.2808(2)
O1 O 0.1395(12) 0.1477(4) 0.4308(5)
O2 O -0.4490(10) 0.2232(3) 0.0876(5)
C1 C -0.1091(11) 0.1842(4) 0.3091(5)
C2 C -0.0214(16) 0.1617(5) 0.4033(6)
C3 C -0.2180(15) 0.1641(5) 0.4448(6)
H1 H -0.2229(15) 0.1921(5) 0.4932(6)
H2 H -0.2645(15) 0.1273(5) 0.4637(6)
C4 C -0.3179(12) 0.1863(4) 0.3503(6)
C5 C -0.4297(13) 0.1389(4) 0.2968(6)
H3 H -0.5170(13) 0.1198(4) 0.3349(6)
C6 C -0.5328(14) 0.1602(4) 0.2068(7)
H4 H -0.6225(14) 0.1898(4) 0.2218(7)
H5 H -0.6064(14) 0.1293(4) 0.1770(7)
C7 C -0.3979(14) 0.1840(4) 0.1392(6)
C8 C -0.2019(13) 0.1551(4) 0.1387(5)
H6 H -0.2304(13) 0.1200(4) 0.1053(5)
C9 C -0.1245(12) 0.1371(4) 0.2345(5)
H7 H -0.0015(12) 0.1179(4) 0.2319(5)
C10 C -0.2692(14) 0.0962(4) 0.2729(6)
H8 H -0.3190(14) 0.0680(4) 0.2287(6)
H9 H -0.2117(14) 0.0768(4) 0.3268(6)
C11 C -0.4192(14) 0.2442(4) 0.3556(7)
H10 H -0.5423(14) 0.2397(4) 0.3810(7)
H11 H -0.3368(14) 0.2691(4) 0.3946(7)
H12 H -0.4397(14) 0.2609(4) 0.2951(7)
C12 C -0.0634(14) 0.1859(5) 0.0792(6)
H13 H 0.0575(14) 0.1651(5) 0.0804(6)
H14 H -0.1189(14) 0.1893(5) 0.0167(6)
H15 H -0.0399(14) 0.2236(5) 0.1049(6)
Cl2 Cl 0.0227(3) -0.0006(2) 0.4602(2)
O3 O 0.1846(11) -0.0851(4) 0.6299(4)
O4 O -0.4203(11) -0.0464(3) 0.2837(5)
C13 C -0.0737(11) -0.0649(4) 0.5039(5)
C14 C 0.0186(16) -0.0773(5) 0.6031(6)
C15 C -0.1750(14) -0.0717(5) 0.6428(6)
H16 H -0.1816(14) -0.0387(5) 0.6822(6)
H17 H -0.2172(14) -0.1059(5) 0.6722(6)
C16 C -0.2774(12) -0.0609(4) 0.5457(5)
C17 C -0.3886(14) -0.1140(4) 0.5060(6)
H18 H -0.4755(14) -0.1278(4) 0.5493(6)
C18 C -0.4909(13) -0.1026(4) 0.4128(6)
H19 H -0.5941(13) -0.0754(4) 0.4184(6)
H20 H -0.5481(13) -0.1383(4) 0.3909(6)
C19 C -0.3621(14) -0.0816(5) 0.3411(6)
C20 C -0.1634(13) -0.1098(4) 0.3428(5)
H21 H -0.1856(13) -0.1480(4) 0.3186(5)
C21 C -0.0799(12) -0.1183(4) 0.4435(5)
H22 H 0.0479(12) -0.1350(4) 0.4466(5)
C22 C -0.2203(14) -0.1572(4) 0.4927(6)
H23 H -0.2651(14) -0.1902(4) 0.4570(6)
H24 H -0.1615(14) -0.1697(4) 0.5515(6)
C23 C -0.3936(13) -0.0053(5) 0.5368(7)
H25 H -0.3147(13) 0.0259(5) 0.5622(7)
H26 H -0.4315(13) 0.0022(5) 0.4729(7)
H27 H -0.5080(13) -0.0089(5) 0.5697(7)
C24 C -0.0323(14) -0.0824(5) 0.2767(5)
H28 H -0.0962(14) -0.0805(5) 0.2155(5)
H29 H -0.0071(14) -0.0440(5) 0.2995(5)
H30 H 0.0887(14) -0.1028(5) 0.2754(5)
Cl3 Cl -0.0232(3) -0.27183(15) 0.32874(15)
O5 O 0.1003(11) -0.4070(3) 0.3016(5)
O6 O -0.4403(10) -0.2015(3) 0.2061(5)
C25 C -0.1419(11) -0.3283(3) 0.2641(5)
C26 C -0.0587(15) -0.3873(4) 0.2997(6)
C27 C -0.2541(14) -0.4080(4) 0.3270(7)
H31 H -0.2566(14) -0.4148(4) 0.3919(7)
H32 H -0.3054(14) -0.4404(4) 0.2918(7)
C28 C -0.3520(12) -0.3491(4) 0.2942(6)
C29 C -0.4718(13) -0.3536(4) 0.2016(6)
H33 H -0.5669(13) -0.3837(4) 0.2040(6)
C30 C -0.5671(13) -0.2954(4) 0.1746(6)
H34 H -0.6576(13) -0.2846(4) 0.2182(6)
H35 H -0.6385(13) -0.2993(4) 0.1153(6)
C31 C -0.4201(14) -0.2470(5) 0.1716(5)
C32 C -0.2384(13) -0.2635(4) 0.1228(6)
H36 H -0.2845(13) -0.2706(4) 0.0597(6)
C33 C -0.1651(12) -0.3229(4) 0.1601(5)
H37 H -0.0449(12) -0.3328(4) 0.1351(5)
C34 C -0.3219(14) -0.3678(4) 0.1329(6)
H38 H -0.3782(14) -0.3609(4) 0.0713(6)
H39 H -0.2721(14) -0.4064(4) 0.1376(6)
C35 C -0.4401(13) -0.3165(5) 0.3708(6)
H40 H -0.5642(13) -0.3329(5) 0.3813(6)
H41 H -0.3548(13) -0.3187(5) 0.4264(6)
H42 H -0.4572(13) -0.2769(5) 0.3528(6)
C36 C -0.0925(14) -0.2150(4) 0.1194(6)
H43 H -0.1558(14) -0.1810(4) 0.0942(6)
H44 H -0.0362(14) -0.2072(4) 0.1808(6)
H45 H 0.0083(14) -0.2264(4) 0.0815(6)
Cl4 Cl -0.0468(3) -0.50816(15) 0.1221(2)
O7 O 0.0819(10) -0.6436(3) 0.1379(5)
O8 O -0.4859(10) -0.4553(4) -0.0493(5)
C37 C -0.1623(10) -0.5719(3) 0.0722(5)
C38 C -0.0780(15) -0.6237(4) 0.1260(6)
C39 C -0.2773(14) -0.6413(4) 0.1551(6)
H46 H -0.2868(14) -0.6410(4) 0.2205(6)
H47 H -0.3223(14) -0.6771(4) 0.1280(6)
C40 C -0.3684(12) -0.5879(4) 0.1033(5)
C41 C -0.4797(13) -0.6055(4) 0.0106(5)
H48 H -0.5683(13) -0.6367(4) 0.0186(5)
C42 C -0.5820(13) -0.5541(5) -0.0377(6)
H49 H -0.6747(13) -0.5393(5) 0.0019(6)
H50 H -0.6513(13) -0.5656(5) -0.0948(6)
C43 C -0.4454(13) -0.5062(5) -0.0562(6)
C44 C -0.2493(12) -0.5247(4) -0.0869(6)
H51 H -0.2805(12) -0.5381(4) -0.1488(6)
C45 C -0.1687(11) -0.5769(3) -0.0316(5)
H52 H -0.0441(11) -0.5884(3) -0.0503(5)
C46 C -0.3169(13) -0.6251(4) -0.0455(5)
H53 H -0.3611(13) -0.6292(4) -0.1095(5)
H54 H -0.2635(13) -0.6612(4) -0.0232(5)
C47 C -0.4736(13) -0.5470(4) 0.1637(5)
H55 H -0.3959(13) -0.5384(4) 0.2199(5)
H56 H -0.4982(13) -0.5122(4) 0.1290(5)
H57 H -0.5952(13) -0.5636(4) 0.1778(5)
C48 C -0.1104(14) -0.4734(4) -0.0972(7)
H58 H -0.1755(14) -0.4429(4) -0.1321(7)
H59 H -0.0670(14) -0.4596(4) -0.0367(7)
H60 H -0.0002(14) -0.4862(4) -0.1279(7)
loop_
_geom_bond_atom_site_label_1
_geom_bond_atom_site_label_2
_geom_bond_site_symmetry_1
_geom_bond_site_symmetry_2
Cl1 C1 1_555 1_555
O1 C2 1_555 1_555
O2 C7 1_555 1_555
C1 C2 1_555 1_555
C2 C3 1_555 1_555
C3 H1 1_555 1_555
H2 C3 1_555 1_555
C4 C1 1_555 1_555
C5 C4 1_555 1_555
H3 C5 1_555 1_555
C6 C5 1_555 1_555
H4 C6 1_555 1_555
H5 C6 1_555 1_555
C7 C6 1_555 1_555
C8 C7 1_555 1_555
H6 C8 1_555 1_555
C9 C1 1_555 1_555
H7 C9 1_555 1_555
C10 C5 1_555 1_555
H8 C10 1_555 1_555
H9 C10 1_555 1_555
C11 C4 1_555 1_555
H10 C11 1_555 1_555
H11 C11 1_555 1_555
H12 C11 1_555 1_555
C12 C8 1_555 1_555
H13 C12 1_555 1_555
H14 C12 1_555 1_555
H15 C12 1_555 1_555
Cl2 C13 1_555 1_555
O3 C14 1_555 1_555
O4 C19 1_555 1_555
C13 C14 1_555 1_555
C14 C15 1_555 1_555
C15 H16 1_555 1_555
H17 C15 1_555 1_555
C16 C13 1_555 1_555
C17 C16 1_555 1_555
H18 C17 1_555 1_555
C18 C17 1_555 1_555
H19 C18 1_555 1_555
H20 C18 1_555 1_555
C19 C18 1_555 1_555
C20 C19 1_555 1_555
H21 C20 1_555 1_555
C21 C13 1_555 1_555
H22 C21 1_555 1_555
C22 C17 1_555 1_555
H23 C22 1_555 1_555
H24 C22 1_555 1_555
C23 C16 1_555 1_555
H25 C23 1_555 1_555
H26 C23 1_555 1_555
H27 C23 1_555 1_555
C24 C20 1_555 1_555
H28 C24 1_555 1_555
H29 C24 1_555 1_555
H30 C24 1_555 1_555
Cl3 C25 1_555 1_555
O5 C26 1_555 1_555
O6 C31 1_555 1_555
C25 C26 1_555 1_555
C26 C27 1_555 1_555
C27 H31 1_555 1_555
H32 C27 1_555 1_555
C28 C25 1_555 1_555
C29 C28 1_555 1_555
H33 C29 1_555 1_555
C30 C29 1_555 1_555
H34 C30 1_555 1_555
H35 C30 1_555 1_555
C31 C30 1_555 1_555
C32 C31 1_555 1_555
H36 C32 1_555 1_555
C33 C25 1_555 1_555
H37 C33 1_555 1_555
C34 C29 1_555 1_555
H38 C34 1_555 1_555
H39 C34 1_555 1_555
C35 C28 1_555 1_555
H40 C35 1_555 1_555
H41 C35 1_555 1_555
H42 C35 1_555 1_555
C36 C32 1_555 1_555
H43 C36 1_555 1_555
H44 C36 1_555 1_555
H45 C36 1_555 1_555
Cl4 C37 1_555 1_555
O7 C38 1_555 1_555
O8 C43 1_555 1_555
C37 C38 1_555 1_555
C38 C39 1_555 1_555
C39 H46 1_555 1_555
H47 C39 1_555 1_555
C40 C37 1_555 1_555
C41 C40 1_555 1_555
H48 C41 1_555 1_555
C42 C41 1_555 1_555
H49 C42 1_555 1_555
H50 C42 1_555 1_555
C43 C42 1_555 1_555
C44 C43 1_555 1_555
H51 C44 1_555 1_555
C45 C37 1_555 1_555
H52 C45 1_555 1_555
C46 C41 1_555 1_555
H53 C46 1_555 1_555
H54 C46 1_555 1_555
C47 C40 1_555 1_555
H55 C47 1_555 1_555
H56 C47 1_555 1_555
H57 C47 1_555 1_555
C48 C44 1_555 1_555
H58 C48 1_555 1_555
H59 C48 1_555 1_555
H60 C48 1_555 1_555
C3 C4 1_555 1_555
C8 C9 1_555 1_555
C9 C10 1_555 1_555
C15 C16 1_555 1_555
C20 C21 1_555 1_555
C21 C22 1_555 1_555
C27 C28 1_555 1_555
C32 C33 1_555 1_555
C33 C34 1_555 1_555
C39 C40 1_555 1_555
C44 C45 1_555 1_555
C45 C46 1_555 1_555

#END
