
#######################################################################
#
#                 Cambridge Crystallographic Data Centre
#                                CCDC 
#
#######################################################################
#
# If this CIF has been generated from an entry in the Cambridge 
# Structural Database, then it will include bibliographic, chemical, 
# crystal, experimental, refinement or atomic coordinate data resulting 
# from the CCDC's data processing and validation procedures.
#
#######################################################################

data_NAFCAY
_chemical_formula_moiety         'C15 H14 Cl2 O1'
_chemical_name_systematic        
2',2'-Dichloro-3'-oxocyclobutane-1'-spiro-8-(11-methylenepentacyclo(5.4.0.0^2,6^.0^3,10^.0^5,9^)undecane)
_symmetry_cell_setting           monoclinic
_symmetry_space_group_name_H-M   'P 21/c'
_symmetry_Int_Tables_number      14
_space_group_name_Hall           '-P 2ybc'
loop_
_symmetry_equiv_pos_site_id
_symmetry_equiv_pos_as_xyz
1 x,y,z
2 -x,1/2+y,1/2-z
3 -x,-y,-z
4 x,1/2-y,1/2+z
_cell_length_a                   12.118(2)
_cell_length_b                   8.765(2)
_cell_length_c                   12.780(3)
_cell_angle_alpha                90
_cell_angle_beta                 102.75(3)
_cell_angle_gamma                90
_cell_volume                     1323.95
_exptl_crystal_colour            colorless
_chemical_melting_point          102-103deg.C
_cell_formula_units_Z            4
loop_
_atom_site_label
_atom_site_type_symbol
_atom_site_fract_x
_atom_site_fract_y
_atom_site_fract_z
Cl1 Cl 0.14865(10) 0.07590(11) 0.48642(7)
Cl2 Cl 0.35570(8) 0.22166(11) 0.45599(8)
O1 O 0.1235(2) 0.3799(3) 0.3081(2)
C1 C 0.2239(3) 0.1421(3) 0.3890(2)
C2 C 0.1428(3) 0.2459(4) 0.3077(3)
C3 C 0.1139(3) 0.1157(3) 0.2284(3)
H1 H 0.1198(22) 0.1422(33) 0.1517(23)
H2 H 0.0451(25) 0.0723(33) 0.2339(22)
C4 C 0.2205(2) 0.0272(3) 0.2930(2)
C5 C 0.3266(2) 0.0387(3) 0.2451(2)
H3 H 0.3533(23) 0.1426(36) 0.2408(23)
C6 C 0.3120(3) -0.0613(4) 0.1402(3)
H4 H 0.3319(25) -0.0186(37) 0.0849(25)
C7 C 0.3972(3) -0.1795(4) 0.2040(3)
H5 H 0.4615(29) -0.1964(38) 0.1814(26)
C8 C 0.3270(3) -0.3177(4) 0.2278(3)
H6 H 0.3259(25) -0.4023(39) 0.1865(24)
C9 C 0.3666(3) -0.3415(4) 0.3498(3)
H7 H 0.4491(29) -0.3733(38) 0.3694(25)
H8 H 0.3177(26) -0.4213(37) 0.3761(25)
C10 C 0.3447(3) -0.1763(4) 0.3780(3)
H9 H 0.3635(21) -0.1461(32) 0.4525(23)
C11 C 0.2206(3) -0.1443(3) 0.3184(2)
H10 H 0.1687(25) -0.1710(33) 0.3555(24)
C12 C 0.2004(2) -0.1441(3) 0.1153(2)
C13 C 0.2073(3) -0.2445(3) 0.2120(2)
H11 H 0.1414(27) -0.3152(36) 0.2081(24)
C14 C 0.4100(3) -0.0815(4) 0.3087(3)
H12 H 0.4824(30) -0.0476(39) 0.3447(27)
C15 C 0.1183(3) -0.1377(4) 0.0269(3)
H13 H 0.0422(24) -0.2146(32) 0.0169(22)
H14 H 0.1264(25) -0.0625(37) -0.0298(26)
loop_
_geom_bond_atom_site_label_1
_geom_bond_atom_site_label_2
_geom_bond_site_symmetry_1
_geom_bond_site_symmetry_2
Cl1 C1 1_555 1_555
Cl2 C1 1_555 1_555
O1 C2 1_555 1_555
C1 C2 1_555 1_555
C2 C3 1_555 1_555
C3 H1 1_555 1_555
H2 C3 1_555 1_555
C4 C1 1_555 1_555
C5 C4 1_555 1_555
H3 C5 1_555 1_555
C6 C5 1_555 1_555
H4 C6 1_555 1_555
C7 C6 1_555 1_555
H5 C7 1_555 1_555
C8 C7 1_555 1_555
H6 C8 1_555 1_555
C9 C8 1_555 1_555
H7 C9 1_555 1_555
H8 C9 1_555 1_555
C10 C9 1_555 1_555
H9 C10 1_555 1_555
C11 C4 1_555 1_555
H10 C11 1_555 1_555
C12 C6 1_555 1_555
C13 C8 1_555 1_555
H11 C13 1_555 1_555
C14 C5 1_555 1_555
H12 C14 1_555 1_555
C15 C12 1_555 1_555
H13 C15 1_555 1_555
H14 C15 1_555 1_555
C3 C4 1_555 1_555
C7 C14 1_555 1_555
C10 C11 1_555 1_555
C10 C14 1_555 1_555
C11 C13 1_555 1_555
C12 C13 1_555 1_555

#END
