
#######################################################################
#
#                 Cambridge Crystallographic Data Centre
#                                CCDC 
#
#######################################################################
#
# If this CIF has been generated from an entry in the Cambridge 
# Structural Database, then it will include bibliographic, chemical, 
# crystal, experimental, refinement or atomic coordinate data resulting 
# from the CCDC's data processing and validation procedures.
#
#######################################################################

data_NAFJUC
_chemical_name_common            
'diethyl 5-(benzo[d][1,3]dioxol-5-yl)-1-isopropyl-2-phenylpyrrolidine-3,3-dicarboxylate'
_chemical_formula_moiety         'C26 H31 N1 O6'
_chemical_name_systematic        
'diethyl 5-(1,3-benzodioxol-5-yl)-1-isopropyl-2-phenylpyrrolidine-3,3-dicarboxylate'
_symmetry_cell_setting           monoclinic
_symmetry_space_group_name_H-M   'C 2/c'
_symmetry_Int_Tables_number      15
_space_group_name_Hall           '-C 2yn'
loop_
_symmetry_equiv_pos_site_id
_symmetry_equiv_pos_as_xyz
1 x,y,z
2 -x,y,1/2-z
3 1/2+x,1/2+y,z
4 1/2-x,1/2+y,1/2-z
5 -x,-y,-z
6 x,-y,1/2+z
7 1/2-x,1/2-y,-z
8 1/2+x,1/2-y,1/2+z
_cell_length_a                   21.286(5)
_cell_length_b                   12.490(5)
_cell_length_c                   20.712(5)
_cell_angle_alpha                90
_cell_angle_beta                 118.061(5)
_cell_angle_gamma                90
_cell_volume                     4859.23
_exptl_crystal_colour            colorless
_exptl_crystal_description       block
_cell_formula_units_Z            8
_chemical_properties_physical    Heat-sensitive
_exptl_crystal_recrystallization_method ethanol
loop_
_atom_site_label
_atom_site_type_symbol
_atom_site_fract_x
_atom_site_fract_y
_atom_site_fract_z
O1 O 0.14307(7) 0.02971(11) 0.20354(7)
N1 N 0.10348(8) 0.28514(12) 0.04119(8)
O2 O 0.14416(10) 0.69565(11) 0.12316(11)
O3 O 0.21021(9) 0.76181(11) 0.07017(9)
O4 O 0.19272(8) 0.03710(12) 0.06787(8)
O5 O 0.16984(10) 0.19048(13) 0.25744(8)
O6 O 0.27320(8) 0.06374(14) 0.18292(9)
C1 C 0.16898(9) 0.16568(13) 0.14157(9)
C2 C 0.03184(9) 0.19074(14) 0.08840(10)
C3 C 0.22790(10) 0.47615(16) 0.03965(10)
H1 H 0.2483 0.4289 0.0201
C4 C 0.20791(10) 0.65190(15) 0.06576(10)
C5 C 0.09490(9) 0.18451(13) 0.07289(9)
H2 H 0.0863 0.1266 0.0378
C6 C 0.20597(10) 0.27391(15) 0.15229(10)
H3 H 0.1933 0.3216 0.1813
H4 H 0.2573 0.2655 0.1762
C7 C 0.18880(9) 0.43534(14) 0.07178(10)
C8 C 0.16182(10) 0.13244(16) 0.20849(10)
C9 C 0.17846(9) 0.31618(14) 0.07482(10)
H5 H 0.2020 0.2783 0.0507
C10 C 0.15812(11) 0.50560(15) 0.10166(12)
H6 H 0.1315 0.4802 0.1234
C11 C -0.00867(11) 0.10140(17) 0.08160(12)
H7 H 0.0020 0.0371 0.0663
C12 C 0.21110(10) 0.08054(14) 0.12503(10)
C13 C 0.06047(12) 0.28972(18) -0.03901(11)
H8 H 0.0174 0.2481 -0.0507
C14 C 0.23776(10) 0.58626(16) 0.03559(11)
H9 H 0.2635 0.6131 0.0133
C15 C 0.16867(11) 0.61276(15) 0.09782(11)
C16 C 0.01300(13) 0.28552(19) 0.10850(15)
H10 H 0.0383 0.3476 0.1115
C17 C -0.08164(13) 0.1994(2) 0.11952(15)
H11 H -0.1187 0.2020 0.1314
C18 C -0.06534(12) 0.1062(2) 0.09724(15)
H12 H -0.0922 0.0451 0.0924
C19 C 0.12616(15) -0.0100(2) 0.25936(13)
H13 H 0.0939 0.0388 0.2654
H14 H 0.1692 -0.0160 0.3058
C20 C 0.09552(16) 0.2354(2) -0.07967(13)
H15 H 0.0650 0.2411 -0.1314
H16 H 0.1402 0.2695 -0.0671
H17 H 0.1035 0.1612 -0.0661
C21 C 0.16805(15) 0.79022(17) 0.10350(16)
H18 H 0.1275 0.8323 0.0698
H19 H 0.1958 0.8331 0.1467
C22 C 0.32228(13) -0.0107(2) 0.17606(17)
H20 H 0.3123 -0.0831 0.1855
H21 H 0.3166 -0.0080 0.1268
C23 C -0.04335(15) 0.2894(2) 0.12438(18)
H22 H -0.0551 0.3538 0.1385
C24 C 0.03517(16) 0.4015(2) -0.06664(15)
H23 H 0.0075 0.4003 -0.1190
H24 H 0.0064 0.4277 -0.0457
H25 H 0.0755 0.4477 -0.0528
C25 C 0.09265(18) -0.1157(3) 0.23581(18)
H26 H 0.0809 -0.1438 0.2719
H27 H 0.0501 -0.1088 0.1899
H28 H 0.1251 -0.1634 0.2302
C26 C 0.39282(16) 0.0178(4) 0.2271(2)
H29 H 0.4256 -0.0310 0.2229
H30 H 0.4025 0.0893 0.2172
H31 H 0.3982 0.0144 0.2757
loop_
_geom_bond_atom_site_label_1
_geom_bond_atom_site_label_2
_geom_bond_site_symmetry_1
_geom_bond_site_symmetry_2
O1 C8 1_555 1_555
N1 C5 1_555 1_555
O2 C15 1_555 1_555
O3 C4 1_555 1_555
O4 C12 1_555 1_555
O5 C8 1_555 1_555
O6 C12 1_555 1_555
C1 C5 1_555 1_555
C2 C5 1_555 1_555
C3 H1 1_555 1_555
C4 C14 1_555 1_555
C5 H2 1_555 1_555
C6 C1 1_555 1_555
H3 C6 1_555 1_555
H4 C6 1_555 1_555
C7 C3 1_555 1_555
C8 C1 1_555 1_555
C9 N1 1_555 1_555
H5 C9 1_555 1_555
C10 C7 1_555 1_555
H6 C10 1_555 1_555
C11 C2 1_555 1_555
H7 C11 1_555 1_555
C12 C1 1_555 1_555
C13 N1 1_555 1_555
H8 C13 1_555 1_555
C14 C3 1_555 1_555
H9 C14 1_555 1_555
C15 C4 1_555 1_555
C16 C2 1_555 1_555
H10 C16 1_555 1_555
C17 H11 1_555 1_555
C18 C11 1_555 1_555
H12 C18 1_555 1_555
C19 O1 1_555 1_555
H13 C19 1_555 1_555
H14 C19 1_555 1_555
C20 C13 1_555 1_555
H15 C20 1_555 1_555
H16 C20 1_555 1_555
H17 C20 1_555 1_555
C21 O2 1_555 1_555
H18 C21 1_555 1_555
H19 C21 1_555 1_555
C22 O6 1_555 1_555
H20 C22 1_555 1_555
H21 C22 1_555 1_555
C23 C16 1_555 1_555
H22 C23 1_555 1_555
C24 C13 1_555 1_555
H23 C24 1_555 1_555
H24 C24 1_555 1_555
H25 C24 1_555 1_555
C25 C19 1_555 1_555
H26 C25 1_555 1_555
H27 C25 1_555 1_555
H28 C25 1_555 1_555
C26 C22 1_555 1_555
H29 C26 1_555 1_555
H30 C26 1_555 1_555
H31 C26 1_555 1_555
O3 C21 1_555 1_555
C6 C9 1_555 1_555
C7 C9 1_555 1_555
C10 C15 1_555 1_555
C17 C18 1_555 1_555
C17 C23 1_555 1_555

#END
