
#######################################################################
#
#                 Cambridge Crystallographic Data Centre
#                                CCDC 
#
#######################################################################
#
# If this CIF has been generated from an entry in the Cambridge 
# Structural Database, then it will include bibliographic, chemical, 
# crystal, experimental, refinement or atomic coordinate data resulting 
# from the CCDC's data processing and validation procedures.
#
#######################################################################

data_NAFLEO
_chemical_formula_moiety         'C84 H54,2(C6 H12)'
_chemical_name_systematic        
'2,15,28-tris(Diphenylmethylene)heptacyclo[34.3.1.1^3,7^.1^10,14^.1^16,20^.1^23,27^.1^29,33^]pentatetraconta-1(40),3(45),4,6,10(44),11,13,16(43),17,19,23(42),24,26,29(41),30,32,36,38-octadecaene-8,21,34-triyne cyclohexane solvate'
_symmetry_cell_setting           rhombohedral
_symmetry_space_group_name_H-M   'R -3 c'
_symmetry_Int_Tables_number      167
_space_group_name_Hall           '-R 3 2"c'
loop_
_symmetry_equiv_pos_site_id
_symmetry_equiv_pos_as_xyz
1 x,y,z
2 -y,x-y,z
3 -x+y,-x,z
4 x-y,-y,1/2-z
5 -x,-x+y,1/2-z
6 y,x,1/2-z
7 2/3+x,1/3+y,1/3+z
8 2/3-y,1/3+x-y,1/3+z
9 2/3-x+y,1/3-x,1/3+z
10 2/3+x-y,1/3-y,5/6-z
11 2/3-x,1/3-x+y,5/6-z
12 2/3+y,1/3+x,5/6-z
13 1/3+x,2/3+y,2/3+z
14 1/3-y,2/3+x-y,2/3+z
15 1/3-x+y,2/3-x,2/3+z
16 1/3+x-y,2/3-y,1/6-z
17 1/3-x,2/3-x+y,1/6-z
18 1/3+y,2/3+x,1/6-z
19 -x,-y,-z
20 y,-x+y,-z
21 x-y,x,-z
22 -x+y,y,1/2+z
23 x,x-y,1/2+z
24 -y,-x,1/2+z
25 1/3-x,2/3-y,2/3-z
26 1/3+y,2/3-x+y,2/3-z
27 1/3+x-y,2/3+x,2/3-z
28 1/3-x+y,2/3+y,1/6+z
29 1/3+x,2/3+x-y,1/6+z
30 1/3-y,2/3-x,1/6+z
31 2/3-x,1/3-y,1/3-z
32 2/3+y,1/3-x+y,1/3-z
33 2/3+x-y,1/3+x,1/3-z
34 2/3-x+y,1/3+y,5/6+z
35 2/3+x,1/3+x-y,5/6+z
36 2/3-y,1/3-x,5/6+z
_cell_length_a                   24.3426(3)
_cell_length_b                   24.3426(3)
_cell_length_c                   21.4525(4)
_cell_angle_alpha                90
_cell_angle_beta                 90
_cell_angle_gamma                120
_cell_volume                     11008.9
_cell_formula_units_Z            6
loop_
_atom_site_label
_atom_site_type_symbol
_atom_site_fract_x
_atom_site_fract_y
_atom_site_fract_z
C1 C 0.41045(8) 0.3333 0.5833
C2 C 0.35502(8) 0.3333 0.5833
C3 C 0.48323(7) 0.17598(8) 0.57213(8)
C4 C 0.41906(6) 0.28556(7) 0.54768(7)
C5 C 0.44623(7) 0.25347(7) 0.57612(7)
H1 H 0.4596 0.2624 0.6183
C6 C 0.45408(7) 0.20822(7) 0.54320(7)
C7 C 0.43522(7) 0.19625(8) 0.48059(8)
H2 H 0.4400 0.1654 0.4578
C8 C 0.40971(7) 0.22921(8) 0.45203(7)
H3 H 0.3975 0.2214 0.4094
C9 C 0.40168(7) 0.27366(8) 0.48497(7)
H4 H 0.3842 0.2962 0.4648
C10 C 0.29547(7) 0.28120(9) 0.55529(9)
C11 C 0.27150(8) 0.21836(9) 0.57244(11)
H5 H 0.2938 0.2074 0.6016
C12 C 0.21443(9) 0.17105(11) 0.54668(13)
H6 H 0.1975 0.1281 0.5590
C13 C 0.18281(9) 0.18706(12) 0.50337(12)
H7 H 0.1445 0.1548 0.4854
C14 C 0.20621(9) 0.24895(12) 0.48615(10)
H8 H 0.1842 0.2596 0.4563
C15 C 0.26225(8) 0.29625(10) 0.51237(8)
H9 H 0.2780 0.3393 0.5009
C3O C 0.64058(11) 0.49069(8) 0.59454(8)
C4O C 0.46683(9) 0.38111(7) 0.61899(7)
C5O C 0.52609(10) 0.41320(7) 0.59055(7)
H1O H 0.5305 0.4043 0.5484
C6O C 0.57919(10) 0.45845(7) 0.62347(7)
C7O C 0.57230(11) 0.47042(8) 0.68608(8)
H2O H 0.6079 0.5013 0.7089
C8O C 0.51383(11) 0.43746(8) 0.71464(7)
H3O H 0.5094 0.4453 0.7573
C9O C 0.46135(11) 0.39301(8) 0.68170(7)
H4O H 0.4213 0.3705 0.7019
C10O C 0.34760(11) 0.38547(9) 0.61138(9)
C11O C 0.38647(12) 0.44831(9) 0.59423(11)
H5O H 0.4197 0.4593 0.5651
C12O C 0.37671(14) 0.49562(11) 0.61999(13)
H6O H 0.4027 0.5386 0.6077
C13O C 0.32908(15) 0.47961(12) 0.66330(12)
H7O H 0.3230 0.5119 0.6813
C14O C 0.29059(15) 0.41772(12) 0.68052(10)
H8O H 0.2579 0.4071 0.7104
C15O C 0.29933(13) 0.37042(10) 0.65430(8)
H9O H 0.2720 0.3274 0.6658
C1A C 0.6667 0.07715(8) 0.5833
C2A C 0.6667 0.02172(8) 0.5833
C3Q C 0.50931(8) 0.14990(7) 0.59454(8)
C4Q C 0.61889(7) 0.08573(6) 0.61899(7)
C5Q C 0.58680(7) 0.11290(7) 0.59055(7)
H1Q H 0.5957 0.1263 0.5484
C6Q C 0.54155(7) 0.12075(7) 0.62347(7)
C7Q C 0.52958(8) 0.10189(7) 0.68608(8)
H2Q H 0.4987 0.1067 0.7089
C8Q C 0.56254(8) 0.07638(7) 0.71464(7)
H3Q H 0.5547 0.0642 0.7573
C9Q C 0.60699(8) 0.06835(7) 0.68170(7)
H4Q H 0.6295 0.0509 0.7019
C10Q C 0.61453(9) -0.03786(7) 0.61138(9)
C11Q C 0.55169(9) -0.06183(8) 0.59423(11)
H5Q H 0.5407 -0.0395 0.5651
C12Q C 0.50438(11) -0.11890(9) 0.61999(13)
H6Q H 0.4614 -0.1358 0.6077
C13Q C 0.52039(12) -0.15052(9) 0.66330(12)
H7Q H 0.4881 -0.1888 0.6813
C14Q C 0.58228(12) -0.12712(9) 0.68052(10)
H8Q H 0.5929 -0.1491 0.7104
C15Q C 0.62958(10) -0.07108(8) 0.65430(8)
H9Q H 0.6726 -0.0553 0.6658
C3A C 0.82402(8) 0.30725(11) 0.57213(8)
C4A C 0.71444(7) 0.13350(9) 0.54768(7)
C5A C 0.74653(7) 0.19276(10) 0.57612(7)
H1A H 0.7376 0.1972 0.6183
C6A C 0.79178(7) 0.24586(10) 0.54320(7)
C7A C 0.80375(8) 0.23897(11) 0.48059(8)
H2A H 0.8346 0.2746 0.4578
C8A C 0.77079(8) 0.18050(11) 0.45203(7)
H3A H 0.7786 0.1761 0.4094
C9A C 0.72634(8) 0.12802(11) 0.48497(7)
H4A H 0.7038 0.0880 0.4648
C10A C 0.71880(9) 0.01427(11) 0.55529(9)
C11A C 0.78164(9) 0.05314(12) 0.57244(11)
H5A H 0.7926 0.0864 0.6016
C12A C 0.82895(11) 0.04338(14) 0.54668(13)
H6A H 0.8719 0.0694 0.5590
C13A C 0.81294(12) -0.00425(15) 0.50337(12)
H7A H 0.8452 -0.0103 0.4854
C14A C 0.75105(12) -0.04274(15) 0.48615(10)
H8A H 0.7404 -0.0754 0.4563
C15A C 0.70375(10) -0.03400(13) 0.51237(8)
H9A H 0.6607 -0.0613 0.5009
C1B C 0.92285(8) 0.58955(8) 0.5833
C2B C 0.97828(8) 0.64498(8) 0.5833
C3B C 0.69275(11) 0.51677(7) 0.57213(8)
C4B C 0.86650(9) 0.58094(6) 0.54768(7)
C5B C 0.80724(10) 0.55377(7) 0.57612(7)
H1B H 0.8028 0.5404 0.6183
C6B C 0.75414(10) 0.54592(7) 0.54320(7)
C7B C 0.76103(11) 0.56478(7) 0.48059(8)
H2B H 0.7254 0.5600 0.4578
C8B C 0.81950(11) 0.59029(7) 0.45203(7)
H3B H 0.8239 0.6025 0.4094
C9B C 0.87198(11) 0.59832(7) 0.48497(7)
H4B H 0.9120 0.6158 0.4648
C10B C 0.98573(11) 0.70453(7) 0.55529(9)
C11B C 0.94686(12) 0.72850(8) 0.57244(11)
H5B H 0.9136 0.7062 0.6016
C12B C 0.95662(14) 0.78557(9) 0.54668(13)
H6B H 0.9306 0.8025 0.5590
C13B C 1.00425(15) 0.81719(9) 0.50337(12)
H7B H 1.0103 0.8555 0.4854
C14B C 1.04274(15) 0.79379(9) 0.48615(10)
H8B H 1.0754 0.8158 0.4563
C15B C 1.03400(13) 0.73775(8) 0.51237(8)
H9B H 1.0613 0.7220 0.5009
C3P C 0.85010(7) 0.35942(11) 0.59454(8)
C4P C 0.91427(6) 0.53317(9) 0.61899(7)
C5P C 0.88710(7) 0.47391(10) 0.59055(7)
H1P H 0.8737 0.4695 0.5484
C6P C 0.87925(7) 0.42081(10) 0.62347(7)
C7P C 0.89811(7) 0.42770(11) 0.68608(8)
H2P H 0.8933 0.3921 0.7089
C8P C 0.92362(7) 0.48617(11) 0.71464(7)
H3P H 0.9358 0.4906 0.7573
C9P C 0.93165(7) 0.53865(11) 0.68170(7)
H4P H 0.9491 0.5787 0.7019
C10P C 1.03786(7) 0.65240(11) 0.61138(9)
C11P C 1.06183(8) 0.61353(12) 0.59423(11)
H5P H 1.0395 0.5803 0.5651
C12P C 1.11890(9) 0.62329(14) 0.61999(13)
H6P H 1.1358 0.5973 0.6077
C13P C 1.15052(9) 0.67092(15) 0.66330(12)
H7P H 1.1888 0.6770 0.6813
C14P C 1.12712(9) 0.70941(15) 0.68052(10)
H8P H 1.1491 0.7421 0.7104
C15P C 1.07108(8) 0.70067(13) 0.65430(8)
H9P H 1.0553 0.7280 0.6658
C16 C 0.60438(12) 0.32714(14) 0.47358(17)
H10 H 0.5657 0.3232 0.4541
H11 H 0.5991 0.3266 0.5194
C17 C 0.61097(14) 0.27133(14) 0.45484(15)
H12 H 0.5761 0.2325 0.4740
H13 H 0.6064 0.2663 0.4090
C16A C 0.67286(14) 0.27724(18) 0.47358(17)
H10A H 0.6768 0.2425 0.4541
H11A H 0.6734 0.2725 0.5194
C17A C 0.72867(14) 0.33964(20) 0.45484(15)
H12A H 0.7675 0.3436 0.4740
H13A H 0.7337 0.3401 0.4090
C16B C 0.72276(18) 0.39562(12) 0.47358(17)
H10B H 0.7575 0.4343 0.4541
H11B H 0.7275 0.4009 0.5194
C17B C 0.66036(20) 0.38903(14) 0.45484(15)
H12B H 0.6564 0.4239 0.4740
H13B H 0.6599 0.3936 0.4090
loop_
_geom_bond_atom_site_label_1
_geom_bond_atom_site_label_2
_geom_bond_site_symmetry_1
_geom_bond_site_symmetry_2
C1 C2 1_555 1_555
C2 C10 1_555 1_555
C3 C6 1_555 1_555
C4 C1 1_555 1_555
C5 C4 1_555 1_555
H1 C5 1_555 1_555
C6 C5 1_555 1_555
C7 C6 1_555 1_555
H2 C7 1_555 1_555
C8 C7 1_555 1_555
H3 C8 1_555 1_555
C9 C4 1_555 1_555
H4 C9 1_555 1_555
C10 C11 1_555 1_555
C11 H5 1_555 1_555
C12 C11 1_555 1_555
H6 C12 1_555 1_555
C13 C12 1_555 1_555
H7 C13 1_555 1_555
C14 C13 1_555 1_555
H8 C14 1_555 1_555
C15 C10 1_555 1_555
H9 C15 1_555 1_555
C16 H10 1_555 1_555
H11 C16 1_555 1_555
C17 C16 1_555 1_555
H12 C17 1_555 1_555
H13 C17 1_555 1_555
C3O C6O 1_555 1_555
C4O C1 1_555 1_555
C5O C4O 1_555 1_555
H1O C5O 1_555 1_555
C6O C5O 1_555 1_555
C7O C6O 1_555 1_555
H2O C7O 1_555 1_555
C8O C7O 1_555 1_555
H3O C8O 1_555 1_555
C9O C4O 1_555 1_555
H4O C9O 1_555 1_555
C10O C2 1_555 1_555
C11O C10O 1_555 1_555
H5O C11O 1_555 1_555
C12O C11O 1_555 1_555
H6O C12O 1_555 1_555
C13O C12O 1_555 1_555
H7O C13O 1_555 1_555
C14O C13O 1_555 1_555
H8O C14O 1_555 1_555
C15O C10O 1_555 1_555
H9O C15O 1_555 1_555
C1A C2A 1_555 1_555
C2A C10Q 1_555 1_555
C3Q C3 1_555 1_555
C4Q C1A 1_555 1_555
C5Q C4Q 1_555 1_555
H1Q C5Q 1_555 1_555
C6Q C3Q 1_555 1_555
C7Q C6Q 1_555 1_555
H2Q C7Q 1_555 1_555
C8Q C7Q 1_555 1_555
H3Q C8Q 1_555 1_555
C9Q C4Q 1_555 1_555
H4Q C9Q 1_555 1_555
C10Q C11Q 1_555 1_555
C11Q H5Q 1_555 1_555
C12Q C11Q 1_555 1_555
H6Q C12Q 1_555 1_555
C13Q C12Q 1_555 1_555
H7Q C13Q 1_555 1_555
C14Q C13Q 1_555 1_555
H8Q C14Q 1_555 1_555
C15Q C10Q 1_555 1_555
H9Q C15Q 1_555 1_555
C3A C6A 1_555 1_555
C4A C1A 1_555 1_555
C5A C4A 1_555 1_555
H1A C5A 1_555 1_555
C6A C5A 1_555 1_555
C7A C6A 1_555 1_555
H2A C7A 1_555 1_555
C8A C7A 1_555 1_555
H3A C8A 1_555 1_555
C9A C4A 1_555 1_555
H4A C9A 1_555 1_555
C10A C2A 1_555 1_555
C11A C10A 1_555 1_555
H5A C11A 1_555 1_555
C12A C11A 1_555 1_555
H6A C12A 1_555 1_555
C13A C12A 1_555 1_555
H7A C13A 1_555 1_555
C14A C13A 1_555 1_555
H8A C14A 1_555 1_555
C15A C10A 1_555 1_555
H9A C15A 1_555 1_555
C1B C2B 1_555 1_555
C2B C10B 1_555 1_555
C3B C3O 1_555 1_555
C4B C1B 1_555 1_555
C5B C4B 1_555 1_555
H1B C5B 1_555 1_555
C6B C3B 1_555 1_555
C7B C6B 1_555 1_555
H2B C7B 1_555 1_555
C8B C7B 1_555 1_555
H3B C8B 1_555 1_555
C9B C4B 1_555 1_555
H4B C9B 1_555 1_555
C10B C11B 1_555 1_555
C11B H5B 1_555 1_555
C12B C11B 1_555 1_555
H6B C12B 1_555 1_555
C13B C12B 1_555 1_555
H7B C13B 1_555 1_555
C14B C13B 1_555 1_555
H8B C14B 1_555 1_555
C15B C10B 1_555 1_555
H9B C15B 1_555 1_555
C3P C3A 1_555 1_555
C4P C1B 1_555 1_555
C5P C4P 1_555 1_555
H1P C5P 1_555 1_555
C6P C3P 1_555 1_555
C7P C6P 1_555 1_555
H2P C7P 1_555 1_555
C8P C7P 1_555 1_555
H3P C8P 1_555 1_555
C9P C4P 1_555 1_555
H4P C9P 1_555 1_555
C10P C2B 1_555 1_555
C11P C10P 1_555 1_555
H5P C11P 1_555 1_555
C12P C11P 1_555 1_555
H6P C12P 1_555 1_555
C13P C12P 1_555 1_555
H7P C13P 1_555 1_555
C14P C13P 1_555 1_555
H8P C14P 1_555 1_555
C15P C10P 1_555 1_555
H9P C15P 1_555 1_555
C16A C17 1_555 1_555
H10A C16A 1_555 1_555
H11A C16A 1_555 1_555
C17A C16A 1_555 1_555
H12A C17A 1_555 1_555
H13A C17A 1_555 1_555
C16B C17A 1_555 1_555
H10B C16B 1_555 1_555
H11B C16B 1_555 1_555
C17B C16 1_555 1_555
H12B C17B 1_555 1_555
H13B C17B 1_555 1_555
C8 C9 1_555 1_555
C14 C15 1_555 1_555
C8O C9O 1_555 1_555
C14O C15O 1_555 1_555
C5Q C6Q 1_555 1_555
C8Q C9Q 1_555 1_555
C14Q C15Q 1_555 1_555
C8A C9A 1_555 1_555
C14A C15A 1_555 1_555
C5B C6B 1_555 1_555
C8B C9B 1_555 1_555
C14B C15B 1_555 1_555
C5P C6P 1_555 1_555
C8P C9P 1_555 1_555
C14P C15P 1_555 1_555
C16B C17B 1_555 1_555

#END
