
#######################################################################
#
#                 Cambridge Crystallographic Data Centre
#                                CCDC 
#
#######################################################################
#
# If this CIF has been generated from an entry in the Cambridge 
# Structural Database, then it will include bibliographic, chemical, 
# crystal, experimental, refinement or atomic coordinate data resulting 
# from the CCDC's data processing and validation procedures.
#
#######################################################################

data_NAFMUE
_chemical_formula_moiety         'C30 H36 N4 O3'
_chemical_name_systematic        
N,N',N''-(Nitrilotri-2,1-phenylene)tris(2-methylpropanamide)
_symmetry_cell_setting           monoclinic
_symmetry_space_group_name_H-M   'C 2/c'
_symmetry_Int_Tables_number      15
_space_group_name_Hall           '-C 2yn'
loop_
_symmetry_equiv_pos_site_id
_symmetry_equiv_pos_as_xyz
1 x,y,z
2 -x,y,1/2-z
3 1/2+x,1/2+y,z
4 1/2-x,1/2+y,1/2-z
5 -x,-y,-z
6 x,-y,1/2+z
7 1/2-x,1/2-y,-z
8 1/2+x,1/2-y,1/2+z
_cell_length_a                   20.436(2)
_cell_length_b                   16.6385(19)
_cell_length_c                   19.414(2)
_cell_angle_alpha                90
_cell_angle_beta                 120.501(2)
_cell_angle_gamma                90
_cell_volume                     5687.76
_cell_formula_units_Z            8
loop_
_atom_site_label
_atom_site_type_symbol
_atom_site_fract_x
_atom_site_fract_y
_atom_site_fract_z
N1 N 0.16167(8) 0.47814(9) 0.08887(9)
C1 C 0.15112(11) 0.55696(11) 0.05404(12)
C2 C 0.19961(12) 0.58187(12) 0.02673(12)
C3 C 0.18666(14) 0.65653(13) -0.01105(15)
H1 H 0.2163 0.6727 -0.0324
C4 C 0.13040(16) 0.70606(14) -0.01673(16)
H2 H 0.1229 0.7560 -0.0411
C5 C 0.08496(15) 0.68311(14) 0.01302(16)
H3 H 0.0477 0.7176 0.0097
C6 C 0.09513(12) 0.60800(13) 0.04815(14)
H4 H 0.0641 0.5919 0.0678
N2 N 0.26017(10) 0.53055(10) 0.04097(11)
H5 H 0.2628 0.4865 0.0655
O1 O 0.31472(15) 0.59603(14) -0.01845(17)
C7 C 0.31441(14) 0.54050(14) 0.02179(15)
C8 C 0.37696(14) 0.47766(16) 0.05624(16)
H6 H 0.3563 0.4290 0.0665
C9 C 0.4031(2) 0.4558(2) -0.0016(2)
H7 H 0.3605 0.4371 -0.0507
H8 H 0.4407 0.4142 0.0212
H9 H 0.4246 0.5023 -0.0119
C10 C 0.4413(2) 0.5075(3) 0.1356(2)
H10 H 0.4811 0.4680 0.1578
H11 H 0.4229 0.5164 0.1717
H12 H 0.4608 0.5569 0.1276
C11 C 0.14841(11) 0.47123(11) 0.15410(12)
C12 C 0.19591(11) 0.51272(11) 0.22519(12)
C13 C 0.18002(15) 0.51076(15) 0.28681(15)
H13 H 0.2105 0.5393 0.3337
C14 C 0.11922(17) 0.46666(16) 0.27885(17)
H14 H 0.1088 0.4659 0.3203
C15 C 0.07411(15) 0.42403(15) 0.21005(17)
H15 H 0.0340 0.3935 0.2055
C16 C 0.08827(12) 0.42652(12) 0.14781(14)
H16 H 0.0572 0.3980 0.1012
N3 N 0.26053(10) 0.55195(10) 0.23242(10)
H17 H 0.2817 0.5290 0.2090
O2 O 0.26814(10) 0.65899(9) 0.30684(11)
C17 C 0.29298(12) 0.62052(12) 0.27126(13)
C18 C 0.36106(14) 0.64856(15) 0.26628(16)
H18 H 0.3821 0.6025 0.2525
C19 C 0.3365(2) 0.7117(3) 0.2012(2)
H19 H 0.2979 0.6897 0.1512
H20 H 0.3794 0.7277 0.1969
H21 H 0.3166 0.7576 0.2145
C20 C 0.42238(16) 0.68256(19) 0.34615(19)
H22 H 0.4384 0.6419 0.3866
H23 H 0.4024 0.7277 0.3604
H24 H 0.4650 0.6995 0.3417
C21 C 0.14687(10) 0.41134(11) 0.03726(11)
C22 C 0.18183(11) 0.33641(11) 0.06627(12)
C23 C 0.16556(14) 0.27305(13) 0.01340(14)
H25 H 0.1876 0.2231 0.0332
C24 C 0.11741(16) 0.28255(15) -0.06775(15)
H26 H 0.1074 0.2396 -0.1024
C25 C 0.08447(15) 0.35623(16) -0.09680(14)
H27 H 0.0526 0.3635 -0.1515
C26 C 0.09850(12) 0.41946(13) -0.04516(12)
H28 H 0.0752 0.4687 -0.0657
N4 N 0.23225(9) 0.31960(9) 0.14882(10)
H29 H 0.2196 0.2813 0.1695
O3 O 0.31795(8) 0.41847(9) 0.17652(9)
C27 C 0.29736(11) 0.35783(12) 0.19708(12)
C28 C 0.34613(13) 0.32030(14) 0.27902(13)
H30 H 0.3161 0.2786 0.2860
C29 C 0.3689(2) 0.3815(2) 0.34404(17)
H31 H 0.3993 0.3562 0.3951
H32 H 0.3242 0.4041 0.3409
H33 H 0.3977 0.4234 0.3377
C30 C 0.4140(2) 0.2809(3) 0.2829(2)
H34 H 0.3974 0.2414 0.2413
H35 H 0.4439 0.2554 0.3339
H36 H 0.4441 0.3208 0.2759
loop_
_geom_bond_atom_site_label_1
_geom_bond_atom_site_label_2
_geom_bond_site_symmetry_1
_geom_bond_site_symmetry_2
N1 C1 1_555 1_555
C1 C2 1_555 1_555
C2 C3 1_555 1_555
C3 H1 1_555 1_555
C4 C3 1_555 1_555
H2 C4 1_555 1_555
C5 C4 1_555 1_555
H3 C5 1_555 1_555
C6 C1 1_555 1_555
H4 C6 1_555 1_555
N2 C2 1_555 1_555
H5 N2 1_555 1_555
O1 C7 1_555 1_555
C7 N2 1_555 1_555
C8 C7 1_555 1_555
H6 C8 1_555 1_555
C9 C8 1_555 1_555
H7 C9 1_555 1_555
H8 C9 1_555 1_555
H9 C9 1_555 1_555
C10 C8 1_555 1_555
H10 C10 1_555 1_555
H11 C10 1_555 1_555
H12 C10 1_555 1_555
C11 N1 1_555 1_555
C12 C11 1_555 1_555
C13 C12 1_555 1_555
H13 C13 1_555 1_555
C14 C13 1_555 1_555
H14 C14 1_555 1_555
C15 C14 1_555 1_555
H15 C15 1_555 1_555
C16 C11 1_555 1_555
H16 C16 1_555 1_555
N3 C12 1_555 1_555
H17 N3 1_555 1_555
O2 C17 1_555 1_555
C17 N3 1_555 1_555
C18 C17 1_555 1_555
H18 C18 1_555 1_555
C19 C18 1_555 1_555
H19 C19 1_555 1_555
H20 C19 1_555 1_555
H21 C19 1_555 1_555
C20 C18 1_555 1_555
H22 C20 1_555 1_555
H23 C20 1_555 1_555
H24 C20 1_555 1_555
C21 N1 1_555 1_555
C22 C21 1_555 1_555
C23 C22 1_555 1_555
H25 C23 1_555 1_555
C24 C23 1_555 1_555
H26 C24 1_555 1_555
C25 C24 1_555 1_555
H27 C25 1_555 1_555
C26 C21 1_555 1_555
H28 C26 1_555 1_555
N4 C22 1_555 1_555
H29 N4 1_555 1_555
O3 C27 1_555 1_555
C27 N4 1_555 1_555
C28 C27 1_555 1_555
H30 C28 1_555 1_555
C29 C28 1_555 1_555
H31 C29 1_555 1_555
H32 C29 1_555 1_555
H33 C29 1_555 1_555
C30 C28 1_555 1_555
H34 C30 1_555 1_555
H35 C30 1_555 1_555
H36 C30 1_555 1_555
C5 C6 1_555 1_555
C15 C16 1_555 1_555
C25 C26 1_555 1_555

#END
