
#######################################################################
#
#                 Cambridge Crystallographic Data Centre
#                                CCDC 
#
#######################################################################
#
# If this CIF has been generated from an entry in the Cambridge 
# Structural Database, then it will include bibliographic, chemical, 
# crystal, experimental, refinement or atomic coordinate data resulting 
# from the CCDC's data processing and validation procedures.
#
#######################################################################

data_NAFMAL
_chemical_formula_moiety         'C9 H6 F1 N3 O1'
_chemical_name_systematic        
2-(4-fluorophenyl)-2H-1,2,3-triazole-4-carbaldehyde
_symmetry_cell_setting           monoclinic
_symmetry_space_group_name_H-M   'P 21'
_symmetry_Int_Tables_number      4
_space_group_name_Hall           'P 2yb'
loop_
_symmetry_equiv_pos_site_id
_symmetry_equiv_pos_as_xyz
1 x,y,z
2 -x,1/2+y,-z
_cell_length_a                   3.7175(7)
_cell_length_b                   10.428(2)
_cell_length_c                   10.689(3)
_cell_angle_alpha                90
_cell_angle_beta                 90.521(6)
_cell_angle_gamma                90
_cell_volume                     414.354
_exptl_crystal_colour            colorless
_exptl_crystal_description       plate
_cell_formula_units_Z            2
loop_
_atom_site_label
_atom_site_type_symbol
_atom_site_fract_x
_atom_site_fract_y
_atom_site_fract_z
F1 F 0.8874(3) 0.17707(12) 0.42104(12)
O1 O -0.1171(4) -0.06585(15) 1.23825(14)
N1 N 0.3781(5) -0.02798(13) 0.86166(16)
N2 N 0.3005(5) 0.04428(16) 0.95978(16)
N3 N 0.3012(5) -0.15427(16) 0.87393(17)
C1 C 0.1622(6) -0.03851(19) 1.04260(19)
C2 C 0.7636(6) 0.1258(2) 0.53002(19)
C3 C 0.5044(5) 0.15658(18) 0.73078(19)
H1 H 0.4112 0.2108 0.7942
C4 C 0.5159(6) 0.02423(19) 0.74764(19)
C5 C 0.0401(7) 0.0045(2) 1.1659(2)
H2 H 0.082(6) 0.095(2) 1.191(2)
C6 C 0.6518(6) -0.0574(2) 0.65682(19)
H3 H 0.6594 -0.1474 0.6706
C7 C 0.6312(6) 0.20799(19) 0.6201(2)
H4 H 0.6273 0.2980 0.6063
C8 C 0.7765(6) -0.0055(2) 0.5457(2)
H5 H 0.8688 -0.0593 0.4818
C9 C 0.1643(6) -0.1619(2) 0.9889(2)
H6 H 0.0819 -0.2381 1.0280
loop_
_geom_bond_atom_site_label_1
_geom_bond_atom_site_label_2
_geom_bond_site_symmetry_1
_geom_bond_site_symmetry_2
F1 C2 1_555 1_555
O1 C5 1_555 1_555
N1 N2 1_555 1_555
N2 C1 1_555 1_555
N3 N1 1_555 1_555
C1 C5 1_555 1_555
C2 C7 1_555 1_555
C3 H1 1_555 1_555
C4 N1 1_555 1_555
C5 H2 1_555 1_555
C6 C4 1_555 1_555
H3 C6 1_555 1_555
C7 C3 1_555 1_555
H4 C7 1_555 1_555
C8 C2 1_555 1_555
H5 C8 1_555 1_555
C9 N3 1_555 1_555
H6 C9 1_555 1_555
C1 C9 1_555 1_555
C3 C4 1_555 1_555
C6 C8 1_555 1_555

#END
