
#######################################################################
#
#                 Cambridge Crystallographic Data Centre
#                                CCDC 
#
#######################################################################
#
# If this CIF has been generated from an entry in the Cambridge 
# Structural Database, then it will include bibliographic, chemical, 
# crystal, experimental, refinement or atomic coordinate data resulting 
# from the CCDC's data processing and validation procedures.
#
#######################################################################

data_NAFMEO
_chemical_formula_moiety         'C60 H78 N4'
_chemical_name_systematic        
N'-(3,5-Di-t-butylphenyl)-N,N-bis(2-((3,5-di-t-butylphenyl)amino)phenyl)benzene-1,2-diamine
_symmetry_cell_setting           triclinic
_symmetry_space_group_name_H-M   'P -1'
_symmetry_Int_Tables_number      2
_space_group_name_Hall           '-P 1'
loop_
_symmetry_equiv_pos_site_id
_symmetry_equiv_pos_as_xyz
1 x,y,z
2 -x,-y,-z
_cell_length_a                   13.1328(13)
_cell_length_b                   19.018(2)
_cell_length_c                   23.492(3)
_cell_angle_alpha                74.410(2)
_cell_angle_beta                 79.417(3)
_cell_angle_gamma                71.358(2)
_cell_volume                     5324.18
_exptl_crystal_colour            colorless
_exptl_crystal_description       needle
_cell_formula_units_Z            4
loop_
_atom_site_label
_atom_site_type_symbol
_atom_site_fract_x
_atom_site_fract_y
_atom_site_fract_z
N1 N 0.1996(3) 0.3431(2) 0.37997(17)
N2 N 0.0005(3) 0.4429(2) 0.35395(19)
H1 H 0.0327 0.4066 0.3360
N3 N 0.2665(3) 0.4061(2) 0.26601(18)
H2 H 0.2014 0.4138 0.2831
N4 N 0.1873(3) 0.2433(2) 0.3127(2)
H3 H 0.2567 0.2295 0.3109
C1 C 0.1636(4) 0.4130(3) 0.3985(2)
C2 C 0.0611(4) 0.4620(3) 0.3867(2)
C3 C 0.0231(4) 0.5283(3) 0.4072(2)
H4 H -0.0461 0.5602 0.4007
C4 C 0.0871(4) 0.5472(3) 0.4373(3)
H5 H 0.0610 0.5925 0.4503
C5 C 0.1893(4) 0.5007(3) 0.4487(2)
H6 H 0.2321 0.5137 0.4694
C6 C 0.2269(4) 0.4330(3) 0.4282(2)
H7 H 0.2959 0.4011 0.4349
C7 C -0.1115(4) 0.4790(3) 0.3479(2)
C8 C -0.1457(4) 0.5514(3) 0.3127(2)
H8 H -0.0954 0.5779 0.2947
C9 C -0.2542(4) 0.5855(3) 0.3036(2)
C10 C -0.3251(4) 0.5430(3) 0.3306(2)
H9 H -0.3977 0.5649 0.3248
C11 C -0.2946(4) 0.4692(3) 0.3662(3)
C12 C -0.1848(4) 0.4385(3) 0.3747(2)
H10 H -0.1609 0.3901 0.3987
C13 C -0.3763(5) 0.4238(4) 0.3954(4)
C14 C -0.4209(10) 0.4421(6) 0.4519(5)
H11 H -0.4710 0.4134 0.4711
H12 H -0.4579 0.4955 0.4461
H13 H -0.3638 0.4296 0.4764
C15 C -0.4629(6) 0.4404(5) 0.3591(5)
H14 H -0.5116 0.4108 0.3789
H15 H -0.4331 0.4278 0.3214
H16 H -0.5014 0.4936 0.3530
C16 C -0.3282(5) 0.3424(3) 0.4049(3)
H17 H -0.3822 0.3170 0.4237
H18 H -0.2711 0.3270 0.4298
H19 H -0.2994 0.3290 0.3673
C17 C -0.2929(4) 0.6628(3) 0.2623(3)
C18 C -0.4019(4) 0.7085(3) 0.2881(3)
H20 H -0.4249 0.7574 0.2616
H21 H -0.3946 0.7154 0.3260
H22 H -0.4545 0.6815 0.2929
C19 C -0.3038(6) 0.6529(3) 0.2041(3)
H23 H -0.2351 0.6250 0.1876
H24 H -0.3278 0.7019 0.1780
H25 H -0.3556 0.6252 0.2087
C20 C -0.2179(4) 0.7091(3) 0.2545(3)
H26 H -0.1484 0.6835 0.2372
H27 H -0.2109 0.7159 0.2925
H28 H -0.2456 0.7579 0.2289
C21 C 0.3110(4) 0.3161(3) 0.3579(2)
C22 C 0.3435(4) 0.3496(3) 0.2988(2)
C23 C 0.4499(4) 0.3180(3) 0.2759(2)
H29 H 0.4737 0.3380 0.2369
C24 C 0.5194(4) 0.2581(3) 0.3099(3)
H30 H 0.5895 0.2379 0.2935
C25 C 0.4868(4) 0.2273(3) 0.3682(2)
H31 H 0.5350 0.1875 0.3913
C26 C 0.3821(4) 0.2562(2) 0.3918(2)
H32 H 0.3592 0.2353 0.4307
C27 C 0.2782(4) 0.4529(3) 0.2091(2)
C28 C 0.1920(4) 0.4788(3) 0.1753(2)
H33 H 0.1309 0.4620 0.1894
C29 C 0.1956(4) 0.5290(3) 0.1212(2)
C30 C 0.2888(4) 0.5522(3) 0.1000(2)
H34 H 0.2921 0.5857 0.0631
C31 C 0.3777(4) 0.5262(3) 0.1332(2)
C32 C 0.3707(4) 0.4778(2) 0.1876(2)
H35 H 0.4281 0.4610 0.2106
C33 C 0.0991(4) 0.5616(4) 0.0835(3)
C34 C -0.0019(5) 0.5702(7) 0.1220(4)
H36 H -0.0613 0.5900 0.0982
H37 H -0.0071 0.6048 0.1462
H38 H -0.0043 0.5215 0.1469
C35 C 0.0900(6) 0.6354(4) 0.0497(4)
H39 H 0.0289 0.6521 0.0274
H40 H 0.1545 0.6360 0.0228
H41 H 0.0805 0.6690 0.0756
C36 C 0.0966(8) 0.5136(5) 0.0501(6)
H42 H 0.0353 0.5361 0.0277
H43 H 0.0910 0.4660 0.0758
H44 H 0.1617 0.5050 0.0234
C37 C 0.4808(4) 0.5501(3) 0.1096(3)
C38 C 0.4608(4) 0.6254(3) 0.0660(3)
H45 H 0.4133 0.6643 0.0852
H46 H 0.4282 0.6231 0.0334
H47 H 0.5282 0.6370 0.0514
C39 C 0.5354(5) 0.5561(4) 0.1567(3)
H48 H 0.4897 0.5960 0.1755
H49 H 0.6022 0.5675 0.1397
H50 H 0.5500 0.5087 0.1858
C40 C 0.5569(4) 0.4897(4) 0.0794(3)
H51 H 0.6232 0.5027 0.0642
H52 H 0.5243 0.4863 0.0472
H53 H 0.5719 0.4415 0.1075
C41 C 0.1398(3) 0.2894(3) 0.4048(2)
C42 C 0.1301(4) 0.2433(3) 0.3696(2)
C43 C 0.0611(4) 0.1967(3) 0.3908(3)
H54 H 0.0546 0.1657 0.3679
C44 C 0.0033(4) 0.1974(3) 0.4459(3)
H55 H -0.0435 0.1672 0.4598
C45 C 0.0136(4) 0.2425(3) 0.4813(3)
H56 H -0.0253 0.2423 0.5186
C46 C 0.0833(4) 0.2880(3) 0.4598(2)
H57 H 0.0914 0.3179 0.4832
C47 C 0.1430(4) 0.2633(3) 0.2594(3)
C48 C 0.0335(4) 0.2899(3) 0.2548(2)
H58 H -0.0145 0.2957 0.2888
C49 C -0.0061(4) 0.3081(3) 0.2004(3)
C50 C 0.0651(4) 0.3006(2) 0.1492(2)
H59 H 0.0385 0.3123 0.1127
C51 C 0.1769(4) 0.2755(3) 0.1525(2)
C52 C 0.2138(4) 0.2564(2) 0.2072(3)
H60 H 0.2878 0.2383 0.2098
C53 C -0.1304(4) 0.3390(3) 0.1974(3)
C54 C -0.1716(4) 0.4150(3) 0.2166(3)
H61 H -0.1375 0.4509 0.1900
H62 H -0.1548 0.4075 0.2563
H63 H -0.2485 0.4343 0.2156
C55 C -0.1855(3) 0.2816(3) 0.2394(3)
H64 H -0.1600 0.2342 0.2269
H65 H -0.2623 0.3012 0.2384
H66 H -0.1686 0.2733 0.2791
C56 C -0.1586(4) 0.3529(3) 0.1344(3)
H67 H -0.1242 0.3889 0.1081
H68 H -0.2355 0.3728 0.1338
H69 H -0.1338 0.3058 0.1216
C57 C 0.2590(4) 0.2670(3) 0.0969(3)
C58 C 0.3327(4) 0.3167(3) 0.0903(2)
H70 H 0.2903 0.3690 0.0859
H71 H 0.3840 0.3113 0.0557
H72 H 0.3705 0.3014 0.1249
C59 C 0.2034(4) 0.2880(3) 0.0402(2)
H73 H 0.1599 0.3402 0.0340
H74 H 0.1583 0.2556 0.0442
H75 H 0.2572 0.2814 0.0068
C60 C 0.3280(4) 0.1821(3) 0.1041(2)
H76 H 0.2816 0.1506 0.1081
H77 H 0.3653 0.1668 0.1390
H78 H 0.3798 0.1766 0.0698
N5 N 0.6559(3) 0.9390(2) 0.38004(17)
N6 N 0.6334(3) 0.9401(2) 0.26610(19)
H79 H 0.6916 0.9218 0.2834
N7 N 0.6931(3) 1.0764(2) 0.3131(2)
H80 H 0.6242 1.0901 0.3121
N8 N 0.8662(3) 0.8547(2) 0.35187(18)
H81 H 0.8410 0.9023 0.3361
C61 C 0.5549(4) 0.9782(3) 0.3568(2)
C62 C 0.5447(4) 0.9799(3) 0.2981(2)
C63 C 0.4482(4) 1.0254(3) 0.2735(2)
H82 H 0.4402 1.0280 0.2344
C64 C 0.3654(4) 1.0663(3) 0.3080(3)
H83 H 0.3018 1.0957 0.2915
C65 C 0.3738(4) 1.0649(3) 0.3655(3)
H84 H 0.3167 1.0923 0.3879
C66 C 0.4702(4) 1.0213(3) 0.3897(2)
H85 H 0.4780 1.0210 0.4284
C67 C 0.6429(4) 0.9252(3) 0.2105(2)
C68 C 0.7429(4) 0.9180(2) 0.1752(2)
H86 H 0.7989 0.9272 0.1886
C69 C 0.7599(4) 0.8978(3) 0.1215(2)
C70 C 0.6731(4) 0.8864(3) 0.1016(2)
H87 H 0.6837 0.8729 0.0653
C71 C 0.5723(4) 0.8945(3) 0.1341(2)
C72 C 0.5592(4) 0.9117(2) 0.1888(2)
H88 H 0.4933 0.9146 0.2121
C73 C 0.8704(4) 0.8877(4) 0.0851(3)
C74 C 0.8938(5) 0.9588(3) 0.0594(4)
H89 H 0.8397 0.9912 0.0340
H90 H 0.9635 0.9500 0.0367
H91 H 0.8940 0.9829 0.0905
C75 C 0.9569(5) 0.8359(5) 0.1254(3)
H92 H 1.0267 0.8290 0.1028
H93 H 0.9430 0.7874 0.1413
H94 H 0.9553 0.8589 0.1574
C76 C 0.8848(5) 0.8440(4) 0.0392(3)
H95 H 0.8341 0.8718 0.0106
H96 H 0.8727 0.7954 0.0576
H97 H 0.9571 0.8366 0.0195
C77 C 0.4767(4) 0.8857(3) 0.1102(3)
C78 C 0.4039(5) 0.8516(4) 0.1582(3)
H98 H 0.3458 0.8470 0.1413
H99 H 0.3750 0.8836 0.1862
H100 H 0.4440 0.8020 0.1783
C79 C 0.5124(5) 0.8370(4) 0.0658(3)
H101 H 0.4502 0.8332 0.0522
H102 H 0.5544 0.7871 0.0840
H103 H 0.5556 0.8593 0.0327
C80 C 0.4131(5) 0.9633(3) 0.0811(4)
H104 H 0.3528 0.9595 0.0655
H105 H 0.4583 0.9858 0.0493
H106 H 0.3871 0.9944 0.1098
C81 C 0.7064(3) 0.9785(3) 0.4039(2)
C82 C 0.7299(4) 1.0445(3) 0.3689(2)
C83 C 0.7892(4) 1.0792(3) 0.3902(3)
H107 H 0.8025 1.1243 0.3676
C84 C 0.8284(4) 1.0465(3) 0.4451(3)
H108 H 0.8699 1.0688 0.4587
C85 C 0.8058(4) 0.9804(3) 0.4798(2)
H109 H 0.8313 0.9587 0.5168
C86 C 0.7450(4) 0.9471(3) 0.4587(2)
H110 H 0.7299 0.9029 0.4818
C87 C 0.7558(4) 1.0885(3) 0.2586(2)
C88 C 0.8683(4) 1.0632(2) 0.2539(2)
H111 H 0.9038 1.0372 0.2875
C89 C 0.9273(4) 1.0769(3) 0.1985(3)
C90 C 0.8741(4) 1.1148(2) 0.1475(2)
H112 H 0.9138 1.1246 0.1107
C91 C 0.7612(4) 1.1380(3) 0.1522(2)
C92 C 0.7047(4) 1.1258(3) 0.2073(2)
H113 H 0.6296 1.1429 0.2106
C93 C 1.0532(4) 1.0482(3) 0.1946(3)
C94 C 1.0865(3) 0.9614(2) 0.2096(2)
H114 H 1.1638 0.9423 0.2070
H115 H 1.0601 0.9439 0.1820
H116 H 1.0563 0.9433 0.2492
C95 C 1.0937(4) 1.0778(3) 0.2368(3)
H117 H 1.0732 1.1325 0.2259
H118 H 1.1710 1.0585 0.2348
H119 H 1.0626 1.0614 0.2766
C96 C 1.1047(4) 1.0729(3) 0.1300(2)
H120 H 1.0866 1.1275 0.1186
H121 H 1.0774 1.0545 0.1034
H122 H 1.1818 1.0520 0.1282
C97 C 0.7000(4) 1.1782(3) 0.0977(3)
C98 C 0.6300(4) 1.1321(3) 0.0906(2)
H123 H 0.6747 1.0827 0.0856
H124 H 0.5917 1.1579 0.0562
H125 H 0.5791 1.1265 0.1253
C99 C 0.6275(4) 1.2585(3) 0.1054(2)
H126 H 0.5791 1.2532 0.1413
H127 H 0.5865 1.2831 0.0720
H128 H 0.6723 1.2886 0.1078
C100 C 0.7759(4) 1.1904(3) 0.0400(2)
H129 H 0.8211 1.1419 0.0332
H130 H 0.8202 1.2202 0.0434
H131 H 0.7337 1.2166 0.0072
C101 C 0.6843(4) 0.8582(3) 0.3971(2)
C102 C 0.7918(4) 0.8152(3) 0.3835(2)
C103 C 0.8201(4) 0.7367(3) 0.4003(2)
H132 H 0.8911 0.7085 0.3918
C104 C 0.7440(4) 0.6998(3) 0.4295(2)
H133 H 0.7638 0.6468 0.4406
C105 C 0.6387(4) 0.7410(3) 0.4422(2)
H134 H 0.5874 0.7159 0.4615
C106 C 0.6089(4) 0.8206(3) 0.4262(2)
H135 H 0.5379 0.8483 0.4352
C107 C 0.9803(4) 0.8217(3) 0.3439(2)
C108 C 1.0254(4) 0.7664(2) 0.3102(2)
H136 H 0.9808 0.7496 0.2937
C109 C 1.1376(4) 0.7366(3) 0.3013(2)
C110 C 1.2003(4) 0.7659(3) 0.3245(2)
H137 H 1.2750 0.7461 0.3188
C111 C 1.1582(4) 0.8231(3) 0.3559(2)
C112 C 1.0452(4) 0.8504(2) 0.3661(2)
H138 H 1.0141 0.8879 0.3878
C113 C 1.1886(4) 0.6779(3) 0.2637(3)
C114 C 1.1116(4) 0.6384(3) 0.2569(3)
H139 H 1.0511 0.6752 0.2382
H140 H 1.0867 0.6124 0.2953
H141 H 1.1475 0.6022 0.2328
C115 C 1.2829(4) 0.6162(3) 0.2930(3)
H142 H 1.3351 0.6392 0.2979
H143 H 1.3163 0.5804 0.2683
H144 H 1.2568 0.5903 0.3311
C116 C 1.2303(5) 0.7163(3) 0.2035(3)
H145 H 1.1718 0.7558 0.1850
H146 H 1.2614 0.6796 0.1793
H147 H 1.2845 0.7381 0.2076
C117 C 1.2339(4) 0.8509(3) 0.3811(2)
C118 C 1.2852(4) 0.7898(3) 0.4327(3)
H148 H 1.2295 0.7777 0.4630
H149 H 1.3310 0.8083 0.4489
H150 H 1.3274 0.7450 0.4189
C119 C 1.3232(4) 0.8706(3) 0.3328(2)
H151 H 1.3636 0.8264 0.3177
H152 H 1.3708 0.8869 0.3496
H153 H 1.2911 0.9108 0.3011
C120 C 1.1738(4) 0.9241(3) 0.4035(2)
H154 H 1.1169 0.9145 0.4339
H155 H 1.1434 0.9639 0.3711
H156 H 1.2235 0.9393 0.4195
loop_
_geom_bond_atom_site_label_1
_geom_bond_atom_site_label_2
_geom_bond_site_symmetry_1
_geom_bond_site_symmetry_2
N1 C1 1_555 1_555
N2 H1 1_555 1_555
N3 H2 1_555 1_555
N4 H3 1_555 1_555
C1 C2 1_555 1_555
C2 N2 1_555 1_555
C3 C2 1_555 1_555
H4 C3 1_555 1_555
C4 C3 1_555 1_555
H5 C4 1_555 1_555
C5 C4 1_555 1_555
H6 C5 1_555 1_555
C6 C1 1_555 1_555
H7 C6 1_555 1_555
C7 N2 1_555 1_555
C8 C7 1_555 1_555
H8 C8 1_555 1_555
C9 C8 1_555 1_555
C10 C9 1_555 1_555
H9 C10 1_555 1_555
C11 C10 1_555 1_555
C12 C7 1_555 1_555
H10 C12 1_555 1_555
C13 C11 1_555 1_555
C14 C13 1_555 1_555
H11 C14 1_555 1_555
H12 C14 1_555 1_555
H13 C14 1_555 1_555
C15 C13 1_555 1_555
H14 C15 1_555 1_555
H15 C15 1_555 1_555
H16 C15 1_555 1_555
C16 C13 1_555 1_555
H17 C16 1_555 1_555
H18 C16 1_555 1_555
H19 C16 1_555 1_555
C17 C9 1_555 1_555
C18 C17 1_555 1_555
H20 C18 1_555 1_555
H21 C18 1_555 1_555
H22 C18 1_555 1_555
C19 C17 1_555 1_555
H23 C19 1_555 1_555
H24 C19 1_555 1_555
H25 C19 1_555 1_555
C20 C17 1_555 1_555
H26 C20 1_555 1_555
H27 C20 1_555 1_555
H28 C20 1_555 1_555
C21 N1 1_555 1_555
C22 N3 1_555 1_555
C23 C22 1_555 1_555
H29 C23 1_555 1_555
C24 C23 1_555 1_555
H30 C24 1_555 1_555
C25 C24 1_555 1_555
H31 C25 1_555 1_555
C26 C21 1_555 1_555
H32 C26 1_555 1_555
C27 N3 1_555 1_555
C28 C27 1_555 1_555
H33 C28 1_555 1_555
C29 C28 1_555 1_555
C30 C29 1_555 1_555
H34 C30 1_555 1_555
C31 C30 1_555 1_555
C32 C27 1_555 1_555
H35 C32 1_555 1_555
C33 C29 1_555 1_555
C34 C33 1_555 1_555
H36 C34 1_555 1_555
H37 C34 1_555 1_555
H38 C34 1_555 1_555
C35 C33 1_555 1_555
H39 C35 1_555 1_555
H40 C35 1_555 1_555
H41 C35 1_555 1_555
C36 C33 1_555 1_555
H42 C36 1_555 1_555
H43 C36 1_555 1_555
H44 C36 1_555 1_555
C37 C31 1_555 1_555
C38 C37 1_555 1_555
H45 C38 1_555 1_555
H46 C38 1_555 1_555
H47 C38 1_555 1_555
C39 C37 1_555 1_555
H48 C39 1_555 1_555
H49 C39 1_555 1_555
H50 C39 1_555 1_555
C40 C37 1_555 1_555
H51 C40 1_555 1_555
H52 C40 1_555 1_555
H53 C40 1_555 1_555
C41 N1 1_555 1_555
C42 N4 1_555 1_555
C43 C42 1_555 1_555
H54 C43 1_555 1_555
C44 C43 1_555 1_555
H55 C44 1_555 1_555
C45 C44 1_555 1_555
H56 C45 1_555 1_555
C46 C41 1_555 1_555
H57 C46 1_555 1_555
C47 N4 1_555 1_555
C48 C47 1_555 1_555
H58 C48 1_555 1_555
C49 C48 1_555 1_555
C50 C49 1_555 1_555
H59 C50 1_555 1_555
C51 C50 1_555 1_555
C52 C47 1_555 1_555
H60 C52 1_555 1_555
C53 C49 1_555 1_555
C54 C53 1_555 1_555
H61 C54 1_555 1_555
H62 C54 1_555 1_555
H63 C54 1_555 1_555
C55 C53 1_555 1_555
H64 C55 1_555 1_555
H65 C55 1_555 1_555
H66 C55 1_555 1_555
C56 C53 1_555 1_555
H67 C56 1_555 1_555
H68 C56 1_555 1_555
H69 C56 1_555 1_555
C57 C51 1_555 1_555
C58 C57 1_555 1_555
H70 C58 1_555 1_555
H71 C58 1_555 1_555
H72 C58 1_555 1_555
C59 C57 1_555 1_555
H73 C59 1_555 1_555
H74 C59 1_555 1_555
H75 C59 1_555 1_555
C60 C57 1_555 1_555
H76 C60 1_555 1_555
H77 C60 1_555 1_555
H78 C60 1_555 1_555
N5 C61 1_555 1_555
N6 H79 1_555 1_555
N7 H80 1_555 1_555
N8 H81 1_555 1_555
C61 C62 1_555 1_555
C62 N6 1_555 1_555
C63 C62 1_555 1_555
H82 C63 1_555 1_555
C64 C63 1_555 1_555
H83 C64 1_555 1_555
C65 C64 1_555 1_555
H84 C65 1_555 1_555
C66 C61 1_555 1_555
H85 C66 1_555 1_555
C67 N6 1_555 1_555
C68 C67 1_555 1_555
H86 C68 1_555 1_555
C69 C68 1_555 1_555
C70 C69 1_555 1_555
H87 C70 1_555 1_555
C71 C70 1_555 1_555
C72 C67 1_555 1_555
H88 C72 1_555 1_555
C73 C69 1_555 1_555
C74 C73 1_555 1_555
H89 C74 1_555 1_555
H90 C74 1_555 1_555
H91 C74 1_555 1_555
C75 C73 1_555 1_555
H92 C75 1_555 1_555
H93 C75 1_555 1_555
H94 C75 1_555 1_555
C76 C73 1_555 1_555
H95 C76 1_555 1_555
H96 C76 1_555 1_555
H97 C76 1_555 1_555
C77 C71 1_555 1_555
C78 C77 1_555 1_555
H98 C78 1_555 1_555
H99 C78 1_555 1_555
H100 C78 1_555 1_555
C79 C77 1_555 1_555
H101 C79 1_555 1_555
H102 C79 1_555 1_555
H103 C79 1_555 1_555
C80 C77 1_555 1_555
H104 C80 1_555 1_555
H105 C80 1_555 1_555
H106 C80 1_555 1_555
C81 N5 1_555 1_555
C82 N7 1_555 1_555
C83 C82 1_555 1_555
H107 C83 1_555 1_555
C84 C83 1_555 1_555
H108 C84 1_555 1_555
C85 C84 1_555 1_555
H109 C85 1_555 1_555
C86 C81 1_555 1_555
H110 C86 1_555 1_555
C87 N7 1_555 1_555
C88 C87 1_555 1_555
H111 C88 1_555 1_555
C89 C88 1_555 1_555
C90 C89 1_555 1_555
H112 C90 1_555 1_555
C91 C90 1_555 1_555
C92 C87 1_555 1_555
H113 C92 1_555 1_555
C93 C89 1_555 1_555
C94 C93 1_555 1_555
H114 C94 1_555 1_555
H115 C94 1_555 1_555
H116 C94 1_555 1_555
C95 C93 1_555 1_555
H117 C95 1_555 1_555
H118 C95 1_555 1_555
H119 C95 1_555 1_555
C96 C93 1_555 1_555
H120 C96 1_555 1_555
H121 C96 1_555 1_555
H122 C96 1_555 1_555
C97 C91 1_555 1_555
C98 C97 1_555 1_555
H123 C98 1_555 1_555
H124 C98 1_555 1_555
H125 C98 1_555 1_555
C99 C97 1_555 1_555
H126 C99 1_555 1_555
H127 C99 1_555 1_555
H128 C99 1_555 1_555
C100 C97 1_555 1_555
H129 C100 1_555 1_555
H130 C100 1_555 1_555
H131 C100 1_555 1_555
C101 N5 1_555 1_555
C102 N8 1_555 1_555
C103 C102 1_555 1_555
H132 C103 1_555 1_555
C104 C103 1_555 1_555
H133 C104 1_555 1_555
C105 C104 1_555 1_555
H134 C105 1_555 1_555
C106 C101 1_555 1_555
H135 C106 1_555 1_555
C107 N8 1_555 1_555
C108 C107 1_555 1_555
H136 C108 1_555 1_555
C109 C108 1_555 1_555
C110 C109 1_555 1_555
H137 C110 1_555 1_555
C111 C110 1_555 1_555
C112 C107 1_555 1_555
H138 C112 1_555 1_555
C113 C109 1_555 1_555
C114 C113 1_555 1_555
H139 C114 1_555 1_555
H140 C114 1_555 1_555
H141 C114 1_555 1_555
C115 C113 1_555 1_555
H142 C115 1_555 1_555
H143 C115 1_555 1_555
H144 C115 1_555 1_555
C116 C113 1_555 1_555
H145 C116 1_555 1_555
H146 C116 1_555 1_555
H147 C116 1_555 1_555
C117 C111 1_555 1_555
C118 C117 1_555 1_555
H148 C118 1_555 1_555
H149 C118 1_555 1_555
H150 C118 1_555 1_555
C119 C117 1_555 1_555
H151 C119 1_555 1_555
H152 C119 1_555 1_555
H153 C119 1_555 1_555
C120 C117 1_555 1_555
H154 C120 1_555 1_555
H155 C120 1_555 1_555
H156 C120 1_555 1_555
C5 C6 1_555 1_555
C11 C12 1_555 1_555
C21 C22 1_555 1_555
C25 C26 1_555 1_555
C31 C32 1_555 1_555
C41 C42 1_555 1_555
C45 C46 1_555 1_555
C51 C52 1_555 1_555
C65 C66 1_555 1_555
C71 C72 1_555 1_555
C81 C82 1_555 1_555
C85 C86 1_555 1_555
C91 C92 1_555 1_555
C101 C102 1_555 1_555
C105 C106 1_555 1_555
C111 C112 1_555 1_555

#END
