
#######################################################################
#
#                 Cambridge Crystallographic Data Centre
#                                CCDC 
#
#######################################################################
#
# If this CIF has been generated from an entry in the Cambridge 
# Structural Database, then it will include bibliographic, chemical, 
# crystal, experimental, refinement or atomic coordinate data resulting 
# from the CCDC's data processing and validation procedures.
#
#######################################################################

data_NAFNEP
_chemical_formula_moiety         'C27 H36 N4'
_chemical_name_systematic        
N'-Isopropyl-N,N-bis(2-(isopropylamino)phenyl)benzene-1,2-diamine
_symmetry_cell_setting           monoclinic
_symmetry_space_group_name_H-M   'P 21/n'
_symmetry_Int_Tables_number      14
_space_group_name_Hall           '-P 2yn'
loop_
_symmetry_equiv_pos_site_id
_symmetry_equiv_pos_as_xyz
1 x,y,z
2 1/2-x,1/2+y,1/2-z
3 -x,-y,-z
4 1/2+x,1/2-y,1/2+z
_cell_length_a                   17.311(9)
_cell_length_b                   9.059(4)
_cell_length_c                   17.720(9)
_cell_angle_alpha                90
_cell_angle_beta                 116.252(6)
_cell_angle_gamma                90
_cell_volume                     2492.24
_exptl_crystal_colour            'light orange'
_exptl_crystal_description       irregular
_cell_formula_units_Z            4
loop_
_atom_site_label
_atom_site_type_symbol
_atom_site_fract_x
_atom_site_fract_y
_atom_site_fract_z
N1 N 0.2942(4) 0.6417(8) 0.0310(4)
C1 C 0.2132(6) 0.7050(11) 0.0215(5)
C2 C 0.1408(6) 0.6141(12) -0.0202(5)
C3 C 0.0596(6) 0.6735(12) -0.0302(5)
H1 H 0.0082 0.6184 -0.0596
C4 C 0.0563(7) 0.8100(12) 0.0029(6)
H2 H 0.0023 0.8472 -0.0039
C5 C 0.1301(8) 0.8945(12) 0.0458(6)
H3 H 0.1263 0.9887 0.0674
C6 C 0.2106(7) 0.8393(12) 0.0571(6)
H4 H 0.2620 0.8934 0.0885
N2 N 0.1490(5) 0.4734(9) -0.0446(5)
H5 H 0.2009 0.4344 -0.0234
C7 C 0.0765(7) 0.3830(11) -0.1039(6)
H6 H 0.0258 0.3825 -0.0909
C8 C 0.1139(7) 0.2321(14) -0.1007(7)
H7 H 0.1312 0.1891 -0.0448
H8 H 0.1642 0.2400 -0.1121
H9 H 0.0705 0.1687 -0.1432
C9 C 0.0552(8) 0.4375(13) -0.1903(6)
H10 H 0.0300 0.5364 -0.1977
H11 H 0.0137 0.3703 -0.2319
H12 H 0.1078 0.4414 -0.1981
C10 C 0.3093(5) 0.6421(11) -0.0420(6)
C11 C 0.3497(5) 0.5168(12) -0.0565(6)
C12 C 0.3624(6) 0.5155(11) -0.1287(6)
H13 H 0.3902 0.4332 -0.1392
C13 C 0.3352(7) 0.6319(13) -0.1860(6)
H14 H 0.3443 0.6279 -0.2350
C14 C 0.2951(8) 0.7532(12) -0.1717(7)
H15 H 0.2764 0.8323 -0.2109
C15 C 0.2820(6) 0.7591(11) -0.0991(6)
H16 H 0.2547 0.8424 -0.0888
N3 N 0.3670(4) 0.3987(8) -0.0028(4)
H17 H 0.3477 0.4014 0.0355
C16 C 0.4157(6) 0.2687(11) -0.0059(6)
H18 H 0.4650 0.3029 -0.0164
C17 C 0.3613(6) 0.1606(9) -0.0765(6)
H19 H 0.3399 0.2110 -0.1310
H20 H 0.3125 0.1258 -0.0674
H21 H 0.3970 0.0763 -0.0761
C18 C 0.4518(6) 0.1926(11) 0.0784(6)
H22 H 0.4883 0.2617 0.1223
H23 H 0.4861 0.1072 0.0775
H24 H 0.4044 0.1595 0.0903
C19 C 0.3669(5) 0.6439(10) 0.1139(5)
C20 C 0.3639(5) 0.5562(10) 0.1775(5)
C21 C 0.4342(6) 0.5553(11) 0.2558(6)
H25 H 0.4320 0.4989 0.3000
C22 C 0.5090(6) 0.6370(12) 0.2709(6)
H26 H 0.5566 0.6350 0.3251
C23 C 0.5136(6) 0.7197(11) 0.2077(7)
H27 H 0.5644 0.7724 0.2170
C24 C 0.4410(6) 0.7237(11) 0.1295(6)
H28 H 0.4424 0.7826 0.0858
N4 N 0.2903(4) 0.4739(8) 0.1599(4)
H29 H 0.2485 0.4802 0.1084
C25 C 0.2757(6) 0.3804(14) 0.2165(6)
H30 H 0.2953 0.4349 0.2710
C26 C 0.1810(7) 0.3514(12) 0.1845(6)
H31 H 0.1502 0.4455 0.1755
H32 H 0.1712 0.2925 0.2259
H33 H 0.1597 0.2972 0.1312
C27 C 0.3243(7) 0.2380(13) 0.2349(8)
H34 H 0.3860 0.2584 0.2567
H35 H 0.3049 0.1797 0.1832
H36 H 0.3139 0.1825 0.2770
loop_
_geom_bond_atom_site_label_1
_geom_bond_atom_site_label_2
_geom_bond_site_symmetry_1
_geom_bond_site_symmetry_2
N1 C1 1_555 1_555
C1 C2 1_555 1_555
C2 C3 1_555 1_555
C3 H1 1_555 1_555
C4 C3 1_555 1_555
H2 C4 1_555 1_555
C5 C4 1_555 1_555
H3 C5 1_555 1_555
C6 C1 1_555 1_555
H4 C6 1_555 1_555
N2 C2 1_555 1_555
H5 N2 1_555 1_555
C7 N2 1_555 1_555
H6 C7 1_555 1_555
C8 C7 1_555 1_555
H7 C8 1_555 1_555
H8 C8 1_555 1_555
H9 C8 1_555 1_555
C9 C7 1_555 1_555
H10 C9 1_555 1_555
H11 C9 1_555 1_555
H12 C9 1_555 1_555
C10 N1 1_555 1_555
C11 C10 1_555 1_555
C12 C11 1_555 1_555
H13 C12 1_555 1_555
C13 C12 1_555 1_555
H14 C13 1_555 1_555
C14 C13 1_555 1_555
H15 C14 1_555 1_555
C15 C10 1_555 1_555
H16 C15 1_555 1_555
N3 C11 1_555 1_555
H17 N3 1_555 1_555
C16 N3 1_555 1_555
H18 C16 1_555 1_555
C17 C16 1_555 1_555
H19 C17 1_555 1_555
H20 C17 1_555 1_555
H21 C17 1_555 1_555
C18 C16 1_555 1_555
H22 C18 1_555 1_555
H23 C18 1_555 1_555
H24 C18 1_555 1_555
C19 N1 1_555 1_555
C20 C19 1_555 1_555
C21 C20 1_555 1_555
H25 C21 1_555 1_555
C22 C21 1_555 1_555
H26 C22 1_555 1_555
C23 C22 1_555 1_555
H27 C23 1_555 1_555
C24 C19 1_555 1_555
H28 C24 1_555 1_555
N4 C20 1_555 1_555
H29 N4 1_555 1_555
C25 N4 1_555 1_555
H30 C25 1_555 1_555
C26 C25 1_555 1_555
H31 C26 1_555 1_555
H32 C26 1_555 1_555
H33 C26 1_555 1_555
C27 C25 1_555 1_555
H34 C27 1_555 1_555
H35 C27 1_555 1_555
H36 C27 1_555 1_555
C5 C6 1_555 1_555
C14 C15 1_555 1_555
C23 C24 1_555 1_555

#END
