
#######################################################################
#
#                 Cambridge Crystallographic Data Centre
#                                CCDC 
#
#######################################################################
#
# If this CIF has been generated from an entry in the Cambridge 
# Structural Database, then it will include bibliographic, chemical, 
# crystal, experimental, refinement or atomic coordinate data resulting 
# from the CCDC's data processing and validation procedures.
#
#######################################################################

data_NAFNAL
_chemical_formula_moiety         'C24 H15 F9 N4 O3'
_chemical_name_systematic        
N,N',N''-(Nitrilotri-2,1-phenylene)tris(2,2,2-trifluoroacetamide)
_symmetry_cell_setting           monoclinic
_symmetry_space_group_name_H-M   'P 21/c'
_symmetry_Int_Tables_number      14
_space_group_name_Hall           '-P 2ybc'
loop_
_symmetry_equiv_pos_site_id
_symmetry_equiv_pos_as_xyz
1 x,y,z
2 -x,1/2+y,1/2-z
3 -x,-y,-z
4 x,1/2-y,1/2+z
_cell_length_a                   16.123(4)
_cell_length_b                   9.359(2)
_cell_length_c                   16.668(4)
_cell_angle_alpha                90
_cell_angle_beta                 90.528(7)
_cell_angle_gamma                90
_cell_volume                     2515.01
_exptl_crystal_colour            colorless
_exptl_crystal_description       plate
_cell_formula_units_Z            4
loop_
_atom_site_label
_atom_site_type_symbol
_atom_site_fract_x
_atom_site_fract_y
_atom_site_fract_z
N1 N 0.26765(16) 0.1853(3) 0.48632(16)
C1 C 0.2009(2) 0.1243(4) 0.5303(2)
C2 C 0.1504(2) 0.0177(4) 0.4975(2)
C3 C 0.0898(2) -0.0455(4) 0.5444(2)
H1 H 0.0588 -0.1211 0.5239
C4 C 0.0752(3) 0.0025(5) 0.6208(3)
H2 H 0.0349 -0.0412 0.6520
C5 C 0.1196(3) 0.1140(5) 0.6507(3)
H3 H 0.1072 0.1503 0.7011
C6 C 0.1829(2) 0.1737(4) 0.6070(2)
H4 H 0.2140 0.2480 0.6290
N2 N 0.15991(18) -0.0348(3) 0.41846(18)
H5 H 0.1647 -0.1257 0.4127
C7 C 0.1621(2) 0.0452(4) 0.3522(2)
O1 O 0.15762(16) 0.1752(3) 0.34929(15)
C8 C 0.1710(3) -0.0366(6) 0.2755(3)
F1 F 0.1934(5) -0.1622(4) 0.2815(2)
F2 F 0.1105(4) -0.0346(9) 0.2326(4)
F3 F 0.2247(4) 0.0171(6) 0.2292(3)
C9 C 0.3018(2) 0.3163(4) 0.5168(2)
C10 C 0.2576(2) 0.4417(4) 0.5076(2)
C11 C 0.2895(3) 0.5669(5) 0.5413(3)
H6 H 0.2597 0.6518 0.5373
C12 C 0.3652(4) 0.5644(6) 0.5804(3)
H7 H 0.3862 0.6482 0.6026
C13 C 0.4096(3) 0.4415(6) 0.5870(3)
H8 H 0.4610 0.4416 0.6127
C14 C 0.3781(3) 0.3177(5) 0.5555(3)
H9 H 0.4083 0.2335 0.5601
N3 N 0.18062(19) 0.4356(3) 0.46450(18)
H10 H 0.1618 0.3519 0.4532
C15 C 0.1353(3) 0.5462(4) 0.4402(2)
O2 O 0.1505(2) 0.6708(3) 0.4506(2)
C16 C 0.0567(3) 0.5096(5) 0.3941(3)
F4 F 0.0656(2) 0.5284(5) 0.31753(19)
F5 F -0.0065(2) 0.5860(4) 0.4162(2)
F6 F 0.03168(19) 0.3762(4) 0.4025(2)
C17 C 0.3258(2) 0.0926(4) 0.4482(2)
C18 C 0.3611(2) 0.1349(4) 0.3751(2)
C19 C 0.4180(3) 0.0483(5) 0.3388(3)
H11 H 0.4420 0.0770 0.2909
C20 C 0.4402(3) -0.0816(5) 0.3727(3)
H12 H 0.4788 -0.1397 0.3475
C21 C 0.4056(3) -0.1235(5) 0.4421(3)
H13 H 0.4200 -0.2114 0.4641
C22 C 0.3490(2) -0.0377(4) 0.4811(2)
H14 H 0.3264 -0.0674 0.5294
N4 N 0.33391(18) 0.2665(3) 0.34052(18)
H15 H 0.2816 0.2844 0.3404
C23 C 0.3840(3) 0.3628(5) 0.3086(2)
O3 O 0.4584(2) 0.3561(4) 0.3031(2)
C24 C 0.3409(3) 0.4956(5) 0.2770(3)
F7 F 0.3710(3) 0.6092(4) 0.3094(3)
F8 F 0.3495(3) 0.5084(5) 0.1996(2)
F9 F 0.2605(2) 0.4984(3) 0.2879(2)
loop_
_geom_bond_atom_site_label_1
_geom_bond_atom_site_label_2
_geom_bond_site_symmetry_1
_geom_bond_site_symmetry_2
N1 C1 1_555 1_555
C1 C2 1_555 1_555
C2 C3 1_555 1_555
C3 H1 1_555 1_555
C4 C3 1_555 1_555
H2 C4 1_555 1_555
C5 C4 1_555 1_555
H3 C5 1_555 1_555
C6 C1 1_555 1_555
H4 C6 1_555 1_555
N2 C2 1_555 1_555
H5 N2 1_555 1_555
C7 N2 1_555 1_555
O1 C7 1_555 1_555
C8 C7 1_555 1_555
F1 C8 1_555 1_555
F2 C8 1_555 1_555
F3 C8 1_555 1_555
C9 N1 1_555 1_555
C10 C9 1_555 1_555
C11 C10 1_555 1_555
H6 C11 1_555 1_555
C12 C11 1_555 1_555
H7 C12 1_555 1_555
C13 C12 1_555 1_555
H8 C13 1_555 1_555
C14 C9 1_555 1_555
H9 C14 1_555 1_555
N3 C10 1_555 1_555
H10 N3 1_555 1_555
C15 N3 1_555 1_555
O2 C15 1_555 1_555
C16 C15 1_555 1_555
F4 C16 1_555 1_555
F5 C16 1_555 1_555
F6 C16 1_555 1_555
C17 N1 1_555 1_555
C18 C17 1_555 1_555
C19 C18 1_555 1_555
H11 C19 1_555 1_555
C20 C19 1_555 1_555
H12 C20 1_555 1_555
C21 C20 1_555 1_555
H13 C21 1_555 1_555
C22 C17 1_555 1_555
H14 C22 1_555 1_555
N4 C18 1_555 1_555
H15 N4 1_555 1_555
C23 N4 1_555 1_555
O3 C23 1_555 1_555
C24 C23 1_555 1_555
F7 C24 1_555 1_555
F8 C24 1_555 1_555
F9 C24 1_555 1_555
C5 C6 1_555 1_555
C13 C14 1_555 1_555
C21 C22 1_555 1_555

#END
