
#######################################################################
#
#                 Cambridge Crystallographic Data Centre
#                                CCDC 
#
#######################################################################
#
# If this CIF has been generated from an entry in the Cambridge 
# Structural Database, then it will include bibliographic, chemical, 
# crystal, experimental, refinement or atomic coordinate data resulting 
# from the CCDC's data processing and validation procedures.
#
#######################################################################

data_NAFNOZ
_chemical_formula_moiety         'C18 H17 N1 O1'
_chemical_name_systematic        
3-Methyl-4-(4-methylphenyl)-1,3-dihydro-2H-3-benzazepin-2-one
_symmetry_cell_setting           orthorhombic
_symmetry_space_group_name_H-M   'P b c a'
_symmetry_Int_Tables_number      61
_space_group_name_Hall           '-P 2ac 2ab'
loop_
_symmetry_equiv_pos_site_id
_symmetry_equiv_pos_as_xyz
1 x,y,z
2 1/2-x,-y,1/2+z
3 -x,1/2+y,1/2-z
4 1/2+x,1/2-y,-z
5 -x,-y,-z
6 1/2+x,y,1/2-z
7 x,1/2-y,1/2+z
8 1/2-x,1/2+y,z
_cell_length_a                   7.5286(7)
_cell_length_b                   14.7366(14)
_cell_length_c                   25.678(3)
_cell_angle_alpha                90
_cell_angle_beta                 90
_cell_angle_gamma                90
_cell_volume                     2848.87
_exptl_crystal_colour            colorless
_exptl_crystal_description       prismatic
_cell_formula_units_Z            8
loop_
_atom_site_label
_atom_site_type_symbol
_atom_site_fract_x
_atom_site_fract_y
_atom_site_fract_z
O1 O 1.02337(17) 0.55627(9) 0.07991(5)
N1 N 0.77127(18) 0.59615(9) 0.12143(5)
C1 C 0.8622(2) 0.56385(11) 0.07902(7)
C2 C 0.7520(2) 0.53691(12) 0.03292(6)
H1 H 0.6690 0.5851 0.0246
H2 H 0.8284 0.5276 0.0030
C3 C 0.6520(2) 0.45138(11) 0.04447(6)
C4 C 0.5153(2) 0.45402(12) 0.08142(6)
C5 C 0.4719(2) 0.53826(12) 0.10835(6)
H3 H 0.3518 0.5488 0.1144
C6 C 0.5834(2) 0.60215(11) 0.12540(6)
C7 C 0.6876(3) 0.37087(12) 0.01847(7)
H4 H 0.7787 0.3689 -0.0060
C8 C 0.5896(3) 0.29357(13) 0.02844(8)
H5 H 0.6155 0.2399 0.0109
C9 C 0.4541(3) 0.29584(14) 0.06421(8)
H6 H 0.3881 0.2438 0.0710
C10 C 0.4161(3) 0.37542(13) 0.09007(7)
H7 H 0.3226 0.3768 0.1137
C11 C 0.5161(2) 0.68549(12) 0.15178(6)
C12 C 0.3834(2) 0.68082(12) 0.18919(7)
H8 H 0.3364 0.6246 0.1982
C13 C 0.3201(3) 0.75777(12) 0.21325(7)
H9 H 0.2307 0.7526 0.2381
C14 C 0.3867(2) 0.84260(12) 0.20121(7)
C15 C 0.5193(3) 0.84720(12) 0.16374(7)
H10 H 0.5658 0.9035 0.1546
C16 C 0.5834(3) 0.77039(12) 0.13985(7)
H11 H 0.6735 0.7756 0.1153
C17 C 0.3169(3) 0.92631(14) 0.22765(9)
H12 H 0.3658 0.9792 0.2112
H13 H 0.3505 0.9255 0.2637
H14 H 0.1897 0.9277 0.2249
C18 C 0.8769(3) 0.62162(14) 0.16697(8)
H15 H 0.9842 0.5865 0.1676
H16 H 0.8097 0.6101 0.1981
H17 H 0.9060 0.6850 0.1651
loop_
_geom_bond_atom_site_label_1
_geom_bond_atom_site_label_2
_geom_bond_site_symmetry_1
_geom_bond_site_symmetry_2
O1 C1 1_555 1_555
N1 C1 1_555 1_555
C1 C2 1_555 1_555
C2 H1 1_555 1_555
H2 C2 1_555 1_555
C3 C2 1_555 1_555
C4 C3 1_555 1_555
C5 C4 1_555 1_555
H3 C5 1_555 1_555
C6 N1 1_555 1_555
C7 C3 1_555 1_555
H4 C7 1_555 1_555
C8 C7 1_555 1_555
H5 C8 1_555 1_555
C9 C8 1_555 1_555
H6 C9 1_555 1_555
C10 C4 1_555 1_555
H7 C10 1_555 1_555
C11 C6 1_555 1_555
C12 C11 1_555 1_555
H8 C12 1_555 1_555
C13 C12 1_555 1_555
H9 C13 1_555 1_555
C14 C13 1_555 1_555
C15 C14 1_555 1_555
H10 C15 1_555 1_555
C16 C11 1_555 1_555
H11 C16 1_555 1_555
C17 C14 1_555 1_555
H12 C17 1_555 1_555
H13 C17 1_555 1_555
H14 C17 1_555 1_555
C18 N1 1_555 1_555
H15 C18 1_555 1_555
H16 C18 1_555 1_555
H17 C18 1_555 1_555
C5 C6 1_555 1_555
C9 C10 1_555 1_555
C15 C16 1_555 1_555

#END
