
#######################################################################
#
#                 Cambridge Crystallographic Data Centre
#                                CCDC 
#
#######################################################################
#
# If this CIF has been generated from an entry in the Cambridge 
# Structural Database, then it will include bibliographic, chemical, 
# crystal, experimental, refinement or atomic coordinate data resulting 
# from the CCDC's data processing and validation procedures.
#
#######################################################################

data_NAFRIX
_chemical_name_common            
11,25-bis(Diethylamino)homo[2]diazadioxacalix[2]arene[2]triazine
_chemical_formula_moiety         'C28 H34 N10 O2'
_chemical_name_systematic        
N,N,N',N'-Tetraethyl-2,8-dioxa-10,12,14,22,24,26,27,29-octaazapentacyclo[21.3.1.1^3,7^.1^9,13^.1^16,20^]triaconta-1(27),3(30),4,6,9(29),10,12,16(28),17,19,23,25-dodecaene-11,25-diamine
_symmetry_cell_setting           monoclinic
_symmetry_space_group_name_H-M   'P 21/c'
_symmetry_Int_Tables_number      14
_space_group_name_Hall           '-P 2ybc'
loop_
_symmetry_equiv_pos_site_id
_symmetry_equiv_pos_as_xyz
1 x,y,z
2 -x,1/2+y,1/2-z
3 -x,-y,-z
4 x,1/2-y,1/2+z
_cell_length_a                   13.863(3)
_cell_length_b                   16.948(3)
_cell_length_c                   13.615(3)
_cell_angle_alpha                90
_cell_angle_beta                 118.94(3)
_cell_angle_gamma                90
_cell_volume                     2799.4
_exptl_crystal_colour            colorless
_exptl_crystal_description       block
_chemical_melting_point          '271 deg.C'
_cell_formula_units_Z            4
_exptl_crystal_recrystallization_method chloroform/methanol
loop_
_atom_site_label
_atom_site_type_symbol
_atom_site_fract_x
_atom_site_fract_y
_atom_site_fract_z
O1 O 0.38070(12) 0.59794(9) 0.16679(12)
N1 N 0.20626(15) 0.62768(10) 0.02650(14)
N2 N 0.04717(15) 0.36205(10) -0.04252(15)
N3 N 0.03603(14) 0.65821(11) -0.11895(15)
H1 H 0.0123 0.6459 -0.0731
N4 N 0.18455(15) 0.66883(10) -0.15183(14)
O2 O 0.21715(13) 0.33680(9) 0.10015(13)
N5 N 0.02322(15) 0.38562(10) -0.22701(15)
N6 N -0.12310(15) 0.38728(10) -0.19266(15)
H2 H -0.1483 0.3829 -0.1463
C1 C 0.14462(18) 0.65172(11) -0.08267(17)
N7 N 0.20293(15) 0.35864(10) -0.07251(16)
N8 N 0.36375(15) 0.63638(11) 0.00054(15)
C2 C 0.31180(18) 0.62072(12) 0.05682(17)
C3 C -0.01544(18) 0.37764(11) -0.15482(17)
C4 C -0.19624(17) 0.48977(12) -0.34408(17)
N9 N 0.34141(16) 0.67884(11) -0.17023(16)
C5 C 0.29449(18) 0.66132(12) -0.10642(18)
C6 C -0.19899(18) 0.40489(13) -0.30868(18)
H3 H -0.2731 0.3931 -0.3229
H4 H -0.1830 0.3701 -0.3556
N10 N 0.17589(17) 0.38435(13) -0.25077(17)
C7 C -0.12255(17) 0.62213(12) -0.30656(17)
C8 C 0.37138(17) 0.52167(12) 0.19888(17)
C9 C 0.15263(18) 0.35398(11) -0.01173(18)
C10 C -0.12227(17) 0.54536(12) -0.27172(17)
H5 H -0.0718 0.5307 -0.1988
C11 C 0.13252(19) 0.37584(13) -0.18226(19)
C12 C 0.29639(17) 0.46766(12) 0.12621(17)
H6 H 0.2479 0.4812 0.0522
C13 C -0.19987(19) 0.64373(13) -0.41481(18)
H7 H -0.2024 0.6956 -0.4383
C14 C -0.27103(18) 0.51180(13) -0.45248(18)
H8 H -0.3201 0.4748 -0.5018
C15 C 0.29500(17) 0.39292(12) 0.16611(18)
C16 C 0.44427(19) 0.50222(14) 0.30900(18)
H9 H 0.4945 0.5391 0.3572
C17 C 0.36679(18) 0.37115(14) 0.27547(19)
H10 H 0.3652 0.3205 0.3009
C18 C -0.04390(18) 0.68471(12) -0.23042(18)
H11 H -0.0043 0.7065 -0.2666
H12 H -0.0869 0.7271 -0.2228
C19 C -0.27317(19) 0.58888(14) -0.48802(19)
H13 H -0.3238 0.6036 -0.5609
C20 C 0.44097(19) 0.42666(14) 0.34609(19)
H14 H 0.4897 0.4130 0.4200
C21 C 0.4609(2) 0.67115(15) -0.1264(2)
H15 H 0.4748 0.6547 -0.1866
H16 H 0.4892 0.6305 -0.0691
C22 C 0.2947(2) 0.37478(16) -0.2095(2)
H17 H 0.3061 0.3541 -0.2696
H18 H 0.3238 0.3366 -0.1489
C23 C 0.2775(2) 0.71218(14) -0.28258(19)
H19 H 0.3161 0.7579 -0.2893
H20 H 0.2069 0.7299 -0.2924
C24 C 0.1054(2) 0.4134(2) -0.3688(2)
H21 H 0.0528 0.4515 -0.3694
H22 H 0.1518 0.4404 -0.3932
C25 C 0.3573(2) 0.45097(18) -0.1681(3)
H23 H 0.4342 0.4416 -0.1419
H24 H 0.3475 0.4713 -0.1077
H25 H 0.3301 0.4886 -0.2283
C26 C 0.5211(3) 0.7467(2) -0.0773(3)
H26 H 0.5986 0.7388 -0.0494
H27 H 0.5085 0.7629 -0.0168
H28 H 0.4948 0.7868 -0.1341
C27 C 0.2583(4) 0.6549(2) -0.3739(3)
H29 H 0.2162 0.6800 -0.4455
H30 H 0.2185 0.6101 -0.3690
H31 H 0.3278 0.6379 -0.3657
C28 C 0.0454(3) 0.3502(2) -0.4483(3)
H32 H 0.0015 0.3722 -0.5218
H33 H -0.0016 0.3237 -0.4253
H34 H 0.0970 0.3132 -0.4500
loop_
_geom_bond_atom_site_label_1
_geom_bond_atom_site_label_2
_geom_bond_site_symmetry_1
_geom_bond_site_symmetry_2
O1 C2 1_555 1_555
N1 C1 1_555 1_555
N2 C3 1_555 1_555
N3 H1 1_555 1_555
N4 C1 1_555 1_555
O2 C9 1_555 1_555
N5 C3 1_555 1_555
N6 H2 1_555 1_555
C1 N3 1_555 1_555
N7 C9 1_555 1_555
N8 C2 1_555 1_555
C2 N1 1_555 1_555
C3 N6 1_555 1_555
C4 C6 1_555 1_555
N9 C5 1_555 1_555
C5 N4 1_555 1_555
C6 N6 1_555 1_555
H3 C6 1_555 1_555
H4 C6 1_555 1_555
N10 C11 1_555 1_555
C7 C10 1_555 1_555
C8 O1 1_555 1_555
C9 N2 1_555 1_555
C10 C4 1_555 1_555
H5 C10 1_555 1_555
C11 N5 1_555 1_555
C12 C8 1_555 1_555
H6 C12 1_555 1_555
C13 C7 1_555 1_555
H7 C13 1_555 1_555
C14 C4 1_555 1_555
H8 C14 1_555 1_555
C15 O2 1_555 1_555
C16 C8 1_555 1_555
H9 C16 1_555 1_555
C17 C15 1_555 1_555
H10 C17 1_555 1_555
C18 N3 1_555 1_555
H11 C18 1_555 1_555
H12 C18 1_555 1_555
C19 C13 1_555 1_555
H13 C19 1_555 1_555
C20 C16 1_555 1_555
H14 C20 1_555 1_555
C21 N9 1_555 1_555
H15 C21 1_555 1_555
H16 C21 1_555 1_555
C22 N10 1_555 1_555
H17 C22 1_555 1_555
H18 C22 1_555 1_555
C23 N9 1_555 1_555
H19 C23 1_555 1_555
H20 C23 1_555 1_555
C24 N10 1_555 1_555
H21 C24 1_555 1_555
H22 C24 1_555 1_555
C25 C22 1_555 1_555
H23 C25 1_555 1_555
H24 C25 1_555 1_555
H25 C25 1_555 1_555
C26 C21 1_555 1_555
H26 C26 1_555 1_555
H27 C26 1_555 1_555
H28 C26 1_555 1_555
C27 C23 1_555 1_555
H29 C27 1_555 1_555
H30 C27 1_555 1_555
H31 C27 1_555 1_555
C28 C24 1_555 1_555
H32 C28 1_555 1_555
H33 C28 1_555 1_555
H34 C28 1_555 1_555
N7 C11 1_555 1_555
N8 C5 1_555 1_555
C7 C18 1_555 1_555
C12 C15 1_555 1_555
C14 C19 1_555 1_555
C17 C20 1_555 1_555

#END
