
#######################################################################
#
#                 Cambridge Crystallographic Data Centre
#                                CCDC 
#
#######################################################################
#
# If this CIF has been generated from an entry in the Cambridge 
# Structural Database, then it will include bibliographic, chemical, 
# crystal, experimental, refinement or atomic coordinate data resulting 
# from the CCDC's data processing and validation procedures.
#
#######################################################################

data_NAFSEU
_chemical_name_common            
2,8,14,22-Tetrabenzyl-11,25-dichloro-homo[2]tetraazacalix[2]arene[2]triazine
_chemical_formula_moiety         'C48 H40 Cl2 N10'
_chemical_name_systematic        
2,8,14,22-Tetrabenzyl-11,25-dichloro-2,8,10,12,14,22,24,26,27,29-decaazapentacyclo[21.3.1.1^3,7^.1^9,13^.1^16,20^]triaconta-1(27),3(30),4,6,9(29),10,12,16(28),17,19,23,25-dodecaene
_symmetry_cell_setting           triclinic
_symmetry_space_group_name_H-M   'P -1'
_symmetry_Int_Tables_number      2
_space_group_name_Hall           '-P 1'
loop_
_symmetry_equiv_pos_site_id
_symmetry_equiv_pos_as_xyz
1 x,y,z
2 -x,-y,-z
_cell_length_a                   11.901(2)
_cell_length_b                   11.962(2)
_cell_length_c                   17.577(4)
_cell_angle_alpha                90.87(3)
_cell_angle_beta                 108.35(3)
_cell_angle_gamma                116.80(3)
_cell_volume                     2083.13
_exptl_crystal_colour            colorless
_exptl_crystal_description       block
_chemical_melting_point          '237-238 deg.C'
_cell_formula_units_Z            2
_exptl_crystal_recrystallization_method dichloromethane/methanol
loop_
_atom_site_label
_atom_site_type_symbol
_atom_site_fract_x
_atom_site_fract_y
_atom_site_fract_z
Cl1 Cl 0.27860(5) 0.65599(5) 0.34406(3)
Cl2 Cl 0.53931(5) 1.70813(5) 0.02261(3)
N1 N 0.86490(15) 1.55505(15) 0.14087(10)
N2 N 0.68993(15) 0.95561(14) 0.29963(10)
N3 N 0.57941(15) 1.04081(14) 0.34474(10)
N4 N 0.49486(15) 0.81454(14) 0.32020(10)
N5 N 0.38261(15) 0.90166(15) 0.37298(10)
N6 N 0.46711(16) 1.12087(15) 0.39301(10)
N7 N 0.53965(15) 1.47754(14) 0.25040(9)
N8 N 0.53952(15) 1.58226(14) 0.14116(10)
N9 N 0.71076(16) 1.62723(15) 0.08496(10)
N10 N 0.70379(15) 1.51375(14) 0.19628(10)
C1 C 1.0866(2) 1.8240(2) 0.14166(14)
H1 H 1.0135 1.8322 0.1470
C2 C 1.2140(3) 1.9302(2) 0.16581(15)
H2 H 1.2278 2.0103 0.1879
C3 C 1.3200(2) 1.9193(3) 0.15776(15)
H3 H 1.4063 1.9924 0.1727
C4 C 1.3011(2) 1.8026(3) 0.12811(16)
H4 H 1.3748 1.7947 0.1236
C5 C 1.1739(2) 1.6960(2) 0.10465(14)
H5 H 1.1616 1.6154 0.0848
C6 C 1.06515(19) 1.70613(19) 0.10991(12)
C7 C 0.9245(2) 1.59314(19) 0.07805(13)
H6 H 0.8654 1.6144 0.0342
H7 H 0.9279 1.5200 0.0538
C8 C 0.91669(18) 1.49140(18) 0.20144(12)
H8 H 0.9241 1.5255 0.2555
H9 H 1.0086 1.5123 0.2043
C9 C 0.83045(18) 1.34789(18) 0.18407(12)
C10 C 0.84158(18) 1.28182(18) 0.24802(12)
H10 H 0.8992 1.3283 0.3017
C11 C 0.77051(17) 1.14922(17) 0.23551(12)
C12 C 0.6844(2) 1.08208(19) 0.15701(13)
H11 H 0.6348 0.9917 0.1473
C13 C 0.6709(2) 1.1468(2) 0.09277(14)
H12 H 0.6114 1.1004 0.0393
C14 C 0.74362(19) 1.2787(2) 0.10601(13)
H13 H 0.7341 1.3221 0.0615
C15 C 0.79581(18) 1.08521(17) 0.30808(12)
H14 H 0.8816 1.0835 0.3179
H15 H 0.8076 1.1379 0.3569
C16 C 0.70604(19) 0.85059(18) 0.27021(12)
H16 H 0.7185 0.8622 0.2172
H17 H 0.6224 0.7695 0.2608
C17 C 0.82445(18) 0.84126(16) 0.32887(12)
C18 C 0.9118(2) 0.82324(19) 0.29982(15)
H18 H 0.8986 0.8194 0.2434
C19 C 1.0188(2) 0.8108(2) 0.35267(19)
H19 H 1.0778 0.7974 0.3324
C20 C 1.0386(2) 0.8181(2) 0.43501(19)
H20 H 1.1122 0.8108 0.4714
C21 C 0.9522(3) 0.8361(2) 0.46457(16)
H21 H 0.9660 0.8405 0.5210
C22 C 0.8456(2) 0.8475(2) 0.41163(14)
H22 H 0.7862 0.8599 0.4320
C23 C 0.58515(18) 0.93674(17) 0.32199(11)
C24 C 0.39999(18) 0.81002(17) 0.34542(11)
C25 C 0.47768(18) 1.01846(18) 0.36997(11)
C26 C 0.3824(2) 1.1116(2) 0.44147(14)
H23 H 0.4396 1.1381 0.5001
H24 H 0.3126 1.0216 0.4325
C27 C 0.31492(18) 1.19242(18) 0.41991(12)
C28 C 0.2043(2) 1.1557(2) 0.34931(15)
H25 H 0.1690 1.0775 0.3139
C29 C 0.1446(3) 1.2327(3) 0.3299(2)
H26 H 0.0692 1.2080 0.2809
C30 C 0.1942(3) 1.3439(3) 0.3812(3)
H27 H 0.1522 1.3958 0.3676
C31 C 0.3024(3) 1.3821(2) 0.4513(2)
H28 H 0.3356 1.4600 0.4865
C32 C 0.3647(2) 1.3065(2) 0.47151(16)
H29 H 0.4408 1.3329 0.5204
C33 C 0.55899(19) 1.24604(18) 0.38496(12)
C34 C 0.51070(18) 1.29958(17) 0.32187(11)
H30 H 0.4200 1.2534 0.2849
C35 C 0.59477(18) 1.42056(17) 0.31257(11)
C36 C 0.72776(19) 1.48685(18) 0.36582(12)
H31 H 0.7861 1.5694 0.3596
C37 C 0.7751(2) 1.4318(2) 0.42834(13)
H32 H 0.8665 1.4768 0.4645
C38 C 0.6908(2) 1.31185(19) 0.43876(12)
H33 H 0.7234 1.2755 0.4824
C39 C 0.41168(18) 1.47377(18) 0.24359(12)
H34 H 0.4185 1.5575 0.2339
H35 H 0.3985 1.4608 0.2963
C40 C 0.28882(19) 1.37088(18) 0.17647(11)
C41 C 0.2930(2) 1.28180(19) 0.12804(13)
H36 H 0.3773 1.2860 0.1346
C42 C 0.1758(2) 1.1862(2) 0.06986(15)
H37 H 0.1805 1.1267 0.0363
C43 C 0.0525(2) 1.1774(2) 0.06068(15)
H38 H -0.0283 1.1099 0.0226
C44 C 0.0478(2) 1.2673(3) 0.10725(16)
H39 H -0.0365 1.2632 0.1002
C45 C 0.1641(2) 1.3633(2) 0.16392(14)
H40 H 0.1592 1.4254 0.1950
C46 C 0.59727(18) 1.52608(16) 0.19439(11)
C47 C 0.60449(19) 1.62877(17) 0.09091(12)
C48 C 0.75631(18) 1.56514(17) 0.14039(11)
loop_
_geom_bond_atom_site_label_1
_geom_bond_atom_site_label_2
_geom_bond_site_symmetry_1
_geom_bond_site_symmetry_2
Cl1 C24 1_555 1_555
Cl2 C47 1_555 1_555
N1 C7 1_555 1_555
N2 C15 1_555 1_555
N3 C23 1_555 1_555
N4 C23 1_555 1_555
N5 C24 1_555 1_555
N6 C25 1_555 1_555
N7 C35 1_555 1_555
N8 C46 1_555 1_555
N9 C47 1_555 1_555
N10 C46 1_555 1_555
C1 H1 1_555 1_555
C2 C1 1_555 1_555
H2 C2 1_555 1_555
C3 C2 1_555 1_555
H3 C3 1_555 1_555
C4 C3 1_555 1_555
H4 C4 1_555 1_555
C5 C4 1_555 1_555
H5 C5 1_555 1_555
C6 C1 1_555 1_555
C7 C6 1_555 1_555
H6 C7 1_555 1_555
H7 C7 1_555 1_555
C8 N1 1_555 1_555
H8 C8 1_555 1_555
H9 C8 1_555 1_555
C9 C8 1_555 1_555
C10 C9 1_555 1_555
H10 C10 1_555 1_555
C11 C10 1_555 1_555
C12 C11 1_555 1_555
H11 C12 1_555 1_555
C13 C12 1_555 1_555
H12 C13 1_555 1_555
C14 C9 1_555 1_555
H13 C14 1_555 1_555
C15 C11 1_555 1_555
H14 C15 1_555 1_555
H15 C15 1_555 1_555
C16 N2 1_555 1_555
H16 C16 1_555 1_555
H17 C16 1_555 1_555
C17 C16 1_555 1_555
C18 C17 1_555 1_555
H18 C18 1_555 1_555
C19 C18 1_555 1_555
H19 C19 1_555 1_555
C20 C19 1_555 1_555
H20 C20 1_555 1_555
C21 C20 1_555 1_555
H21 C21 1_555 1_555
C22 C17 1_555 1_555
H22 C22 1_555 1_555
C23 N2 1_555 1_555
C24 N4 1_555 1_555
C25 N3 1_555 1_555
C26 N6 1_555 1_555
H23 C26 1_555 1_555
H24 C26 1_555 1_555
C27 C26 1_555 1_555
C28 C27 1_555 1_555
H25 C28 1_555 1_555
C29 C28 1_555 1_555
H26 C29 1_555 1_555
C30 C29 1_555 1_555
H27 C30 1_555 1_555
C31 C30 1_555 1_555
H28 C31 1_555 1_555
C32 C27 1_555 1_555
H29 C32 1_555 1_555
C33 N6 1_555 1_555
C34 C33 1_555 1_555
H30 C34 1_555 1_555
C35 C34 1_555 1_555
C36 C35 1_555 1_555
H31 C36 1_555 1_555
C37 C36 1_555 1_555
H32 C37 1_555 1_555
C38 C33 1_555 1_555
H33 C38 1_555 1_555
C39 N7 1_555 1_555
H34 C39 1_555 1_555
H35 C39 1_555 1_555
C40 C39 1_555 1_555
C41 C40 1_555 1_555
H36 C41 1_555 1_555
C42 C41 1_555 1_555
H37 C42 1_555 1_555
C43 C42 1_555 1_555
H38 C43 1_555 1_555
C44 C43 1_555 1_555
H39 C44 1_555 1_555
C45 C40 1_555 1_555
H40 C45 1_555 1_555
C46 N7 1_555 1_555
C47 N8 1_555 1_555
C48 N1 1_555 1_555
N5 C25 1_555 1_555
N9 C48 1_555 1_555
N10 C48 1_555 1_555
C5 C6 1_555 1_555
C13 C14 1_555 1_555
C21 C22 1_555 1_555
C31 C32 1_555 1_555
C37 C38 1_555 1_555
C44 C45 1_555 1_555

#END
