
#######################################################################
#
#                 Cambridge Crystallographic Data Centre
#                                CCDC 
#
#######################################################################
#
# If this CIF has been generated from an entry in the Cambridge 
# Structural Database, then it will include bibliographic, chemical, 
# crystal, experimental, refinement or atomic coordinate data resulting 
# from the CCDC's data processing and validation procedures.
#
#######################################################################

data_NAFSOE
_chemical_name_common            
11,25-Dichloro-14-(prop-1-en-2-yl)-homo[2]diazaoxacalix[2]arene[2]triazine
_chemical_formula_moiety         'C23 H18 Cl2 N8 O2'
_chemical_name_systematic        
11,25-Dichloro-14-(prop-1-en-2-yl)-2,8-dioxa-10,12,14,22,24,26,27,29-octaazapentacyclo[21.3.1.1^3,7^.1^9,13^.1^16,20^]triaconta-1(27),3(30),4,6,9(29),10,12,16(28),17,19,23,25-dodecaene
_symmetry_cell_setting           monoclinic
_symmetry_space_group_name_H-M   'P 21/c'
_symmetry_Int_Tables_number      14
_space_group_name_Hall           '-P 2ybc'
loop_
_symmetry_equiv_pos_site_id
_symmetry_equiv_pos_as_xyz
1 x,y,z
2 -x,1/2+y,1/2-z
3 -x,-y,-z
4 x,1/2-y,1/2+z
_cell_length_a                   10.157(2)
_cell_length_b                   18.673(4)
_cell_length_c                   12.825(3)
_cell_angle_alpha                90
_cell_angle_beta                 95.33(3)
_cell_angle_gamma                90
_cell_volume                     2421.89
_exptl_crystal_colour            colorless
_exptl_crystal_description       block
_chemical_melting_point          'above 300 deg.C'
_cell_formula_units_Z            4
_exptl_crystal_recrystallization_method chloroform
loop_
_atom_site_label
_atom_site_type_symbol
_atom_site_fract_x
_atom_site_fract_y
_atom_site_fract_z
Cl1 Cl 0.81833(8) 0.11175(5) 0.56846(6)
Cl2 Cl 0.13485(10) 0.02433(6) -0.33706(7)
O1 O 0.66104(19) 0.21398(11) 0.23627(14)
O2 O 0.4310(2) 0.16290(13) -0.09911(14)
N1 N 0.5360(2) 0.12059(12) 0.28999(15)
C1 C 0.7054(3) 0.11520(15) 0.45830(19)
N2 N 0.4236(2) 0.02717(13) 0.35918(17)
H1 H 0.4158 -0.0025 0.4095
N3 N 0.0000(2) 0.14579(13) -0.02532(16)
N4 N 0.6092(2) 0.06817(12) 0.45617(16)
N5 N 0.2158(2) 0.15959(13) -0.06212(16)
C2 C 0.0952(3) 0.13209(15) -0.08874(19)
N6 N 0.7287(2) 0.16484(13) 0.38964(17)
C3 C -0.1291(3) 0.11336(16) -0.0431(2)
C4 C 0.1667(3) 0.07745(18) -0.2265(2)
C5 C 0.5647(3) 0.23125(16) 0.15380(19)
N7 N 0.0636(2) 0.09031(13) -0.17449(17)
C6 C 0.5239(3) 0.07270(15) 0.36788(19)
C7 C 0.0706(3) 0.16115(16) 0.1660(2)
N8 N 0.2909(3) 0.09819(15) -0.20719(18)
C8 C 0.0236(3) 0.19577(17) 0.0631(2)
H2 H -0.0578 0.2214 0.0715
H3 H 0.0890 0.2307 0.0461
C9 C 0.3054(3) 0.13999(18) -0.1230(2)
C10 C 0.2200(3) 0.08029(16) 0.26734(19)
C11 C 0.4546(3) 0.20948(17) -0.01246(19)
C12 C 0.3985(3) 0.27661(18) -0.0138(2)
H4 H 0.3438 0.2921 -0.0716
C13 C 0.5389(3) 0.18522(16) 0.0704(2)
H5 H 0.5766 0.1398 0.0701
C14 C 0.1741(3) 0.11263(16) 0.1738(2)
H6 H 0.2145 0.1013 0.1137
C15 C 0.6382(3) 0.16316(15) 0.30701(19)
C16 C 0.3262(3) 0.02490(17) 0.2690(2)
H7 H 0.2849 -0.0220 0.2662
H8 H 0.3717 0.0303 0.2062
C17 C 0.5084(3) 0.29763(17) 0.1565(2)
H9 H 0.5261 0.3272 0.2145
C18 C 0.1607(3) 0.0991(2) 0.3573(2)
H10 H 0.1896 0.0784 0.4213
C19 C 0.0135(3) 0.1789(2) 0.2570(2)
H11 H -0.0558 0.2117 0.2544
C20 C 0.4247(3) 0.32020(18) 0.0717(3)
H12 H 0.3859 0.3653 0.0726
C21 C 0.0596(4) 0.1481(2) 0.3513(2)
H13 H 0.0214 0.1608 0.4118
C22 C -0.2206(3) 0.1478(2) -0.1216(2)
H14 H -0.3030 0.1223 -0.1277
H15 H -0.1837 0.1475 -0.1878
H16 H -0.2355 0.1963 -0.1009
C23 C -0.1574(4) 0.0586(2) 0.0165(3)
H17 H -0.0948 0.0419 0.0683
H18 H -0.2400 0.0368 0.0065
loop_
_geom_bond_atom_site_label_1
_geom_bond_atom_site_label_2
_geom_bond_site_symmetry_1
_geom_bond_site_symmetry_2
Cl1 C1 1_555 1_555
Cl2 C4 1_555 1_555
O1 C5 1_555 1_555
O2 C9 1_555 1_555
N1 C6 1_555 1_555
C1 N4 1_555 1_555
N2 H1 1_555 1_555
N3 C2 1_555 1_555
N4 C6 1_555 1_555
N5 C2 1_555 1_555
C2 N7 1_555 1_555
N6 C1 1_555 1_555
C3 N3 1_555 1_555
C4 N7 1_555 1_555
C5 C13 1_555 1_555
C6 N2 1_555 1_555
C7 C8 1_555 1_555
N8 C4 1_555 1_555
C8 N3 1_555 1_555
H2 C8 1_555 1_555
H3 C8 1_555 1_555
C9 N5 1_555 1_555
C10 C14 1_555 1_555
C11 O2 1_555 1_555
C12 C11 1_555 1_555
H4 C12 1_555 1_555
C13 C11 1_555 1_555
H5 C13 1_555 1_555
C14 C7 1_555 1_555
H6 C14 1_555 1_555
C15 O1 1_555 1_555
C16 N2 1_555 1_555
H7 C16 1_555 1_555
H8 C16 1_555 1_555
C17 C5 1_555 1_555
H9 C17 1_555 1_555
C18 C10 1_555 1_555
H10 C18 1_555 1_555
C19 C7 1_555 1_555
H11 C19 1_555 1_555
C20 C12 1_555 1_555
H12 C20 1_555 1_555
C21 C18 1_555 1_555
H13 C21 1_555 1_555
C22 C3 1_555 1_555
H14 C22 1_555 1_555
H15 C22 1_555 1_555
H16 C22 1_555 1_555
C23 C3 1_555 1_555
H17 C23 1_555 1_555
H18 C23 1_555 1_555
N1 C15 1_555 1_555
N6 C15 1_555 1_555
N8 C9 1_555 1_555
C10 C16 1_555 1_555
C17 C20 1_555 1_555
C19 C21 1_555 1_555

#END
