
#######################################################################
#
#                 Cambridge Crystallographic Data Centre
#                                CCDC 
#
#######################################################################
#
# If this CIF has been generated from an entry in the Cambridge 
# Structural Database, then it will include bibliographic, chemical, 
# crystal, experimental, refinement or atomic coordinate data resulting 
# from the CCDC's data processing and validation procedures.
#
#######################################################################

data_NAFVIA
_chemical_formula_moiety         'C15 H16 N4 O6 S2'
_chemical_name_systematic        
'2-[(4-methoxy-6-methylthio-2-pyrimidyl)aminocarbonylaminosulfonyl]benzoic acid methyl ester'
_chemical_properties_biological  'herbicidal activity'
_symmetry_cell_setting           monoclinic
_symmetry_space_group_name_H-M   'P 21/c'
_symmetry_Int_Tables_number      14
_space_group_name_Hall           '-P 2ybc'
loop_
_symmetry_equiv_pos_site_id
_symmetry_equiv_pos_as_xyz
1 x,y,z
2 x,1/2-y,1/2+z
3 -x,-y,-z
4 -x,1/2+y,1/2-z
_cell_length_a                   11.169(3)
_cell_length_b                   9.508(3)
_cell_length_c                   17.690(5)
_cell_angle_alpha                90
_cell_angle_beta                 91.593(5)
_cell_angle_gamma                90
_cell_volume                     1877.86
_exptl_crystal_colour            white
_chemical_melting_point          184-185deg.C
_cell_formula_units_Z            4
_exptl_crystal_recrystallization_method methanol
loop_
_atom_site_label
_atom_site_type_symbol
_atom_site_fract_x
_atom_site_fract_y
_atom_site_fract_z
S1 S 0.76154(9) 0.57638(11) 0.18665(5)
C1 C 0.5804(4) 0.3906(5) 0.2196(2)
C2 C 0.6730(3) 0.4753(4) 0.2474(2)
C3 C 0.6909(4) 0.4948(5) 0.3246(2)
H1 H 0.7521 0.5528 0.3429
C4 C 0.6166(5) 0.4270(7) 0.3737(3)
H2 H 0.6301 0.4360 0.4256
C5 C 0.5235(6) 0.3469(8) 0.3470(3)
H3 H 0.4727 0.3035 0.3806
C6 C 0.5049(5) 0.3302(7) 0.2703(3)
H4 H 0.4401 0.2772 0.2525
C7 C 0.5636(5) 0.3512(6) 0.1372(3)
C8 C 0.4201(7) 0.3134(11) 0.0397(3)
H5 H 0.3357 0.3237 0.0296
H6 H 0.4422 0.2164 0.0344
H7 H 0.4635 0.3693 0.0045
C9 C 0.9456(4) 0.4006(5) 0.1933(2)
C10 C 1.0140(3) 0.2747(4) 0.0772(2)
C11 C 0.9377(4) 0.3020(5) -0.0411(2)
C12 C 1.0182(4) 0.2065(4) -0.0679(2)
H8 H 1.0199 0.1827 -0.1189
C13 C 1.0963(4) 0.1478(5) -0.0152(2)
N1 N 0.8599(3) 0.4718(4) 0.15067(17)
H9 H 0.8585 0.4601 0.1024
N2 N 1.0129(3) 0.3063(4) 0.15421(17)
H10 H 1.0630 0.2586 0.1817
N3 N 0.9340(3) 0.3384(3) 0.03193(18)
N4 N 1.0956(3) 0.1803(3) 0.05871(17)
O1 O 0.6403(4) 0.3160(5) 0.0975(2)
O2 O 0.4491(4) 0.3604(6) 0.1169(2)
O3 O 0.6896(3) 0.6215(3) 0.12341(15)
O4 O 0.8204(3) 0.6803(3) 0.23203(16)
O5 O 0.9590(3) 0.4186(4) 0.26051(15)
O6 O 0.8642(7) 0.3484(8) -0.1053(6)
C14 C 0.7713(13) 0.4338(18) -0.0684(9)
H11 H 0.7976 0.4561 -0.0177
H12 H 0.6979 0.3814 -0.0672
H13 H 0.7584 0.5192 -0.0964
S2 S 1.2039(4) 0.0196(5) -0.0370(3)
C15 C 1.1905(16) -0.0061(17) -0.1353(6)
H14 H 1.2476 -0.0753 -0.1505
H15 H 1.2055 0.0810 -0.1607
H16 H 1.1110 -0.0380 -0.1482
O7? O 1.1827(11) 0.0497(12) -0.0264(9)
C16? C 1.195(2) 0.012(2) -0.1048(9)
H17? H 1.2571 -0.0569 -0.1091
H18? H 1.2156 0.0945 -0.1332
H19? H 1.1207 -0.0255 -0.1243
S3? S 0.8286(5) 0.3972(6) -0.0872(3)
C17? C 0.8380(10) 0.3529(13) -0.1791(5)
H20? H 0.7787 0.4037 -0.2083
H21? H 0.8245 0.2537 -0.1848
H22? H 0.9163 0.3760 -0.1965
loop_
_geom_bond_atom_site_label_1
_geom_bond_atom_site_label_2
_geom_bond_site_symmetry_1
_geom_bond_site_symmetry_2
S1 C2 1_555 1_555
C1 C2 1_555 1_555
C2 C3 1_555 1_555
C3 H1 1_555 1_555
C4 C3 1_555 1_555
H2 C4 1_555 1_555
C5 C4 1_555 1_555
H3 C5 1_555 1_555
C6 C1 1_555 1_555
H4 C6 1_555 1_555
C7 C1 1_555 1_555
C8 H5 1_555 1_555
H6 C8 1_555 1_555
H7 C8 1_555 1_555
C9 N1 1_555 1_555
C10 N2 1_555 1_555
C11 C12 1_555 1_555
C12 H8 1_555 1_555
C13 C12 1_555 1_555
N1 S1 1_555 1_555
H9 N1 1_555 1_555
N2 C9 1_555 1_555
H10 N2 1_555 1_555
N3 C10 1_555 1_555
N4 C10 1_555 1_555
O1 C7 1_555 1_555
O2 C7 1_555 1_555
O3 S1 1_555 1_555
O4 S1 1_555 1_555
O5 C9 1_555 1_555
O6 C11 1_555 1_555
C14 O6 1_555 1_555
H11 C14 1_555 1_555
H12 C14 1_555 1_555
H13 C14 1_555 1_555
S2 C13 1_555 1_555
C15 S2 1_555 1_555
H14 C15 1_555 1_555
H15 C15 1_555 1_555
H16 C15 1_555 1_555
C5 C6 1_555 1_555
C8 O2 1_555 1_555
C11 N3 1_555 1_555
C13 N4 1_555 1_555

#END
