
#######################################################################
#
#                 Cambridge Crystallographic Data Centre
#                                CCDC 
#
#######################################################################
#
# If this CIF has been generated from an entry in the Cambridge 
# Structural Database, then it will include bibliographic, chemical, 
# crystal, experimental, refinement or atomic coordinate data resulting 
# from the CCDC's data processing and validation procedures.
#
#######################################################################

data_NAFWAT
_chemical_name_common            'PDB Chemical Component code: 2SM'
_chemical_formula_moiety         'C14 H14 N4 O5 S1'
_chemical_name_systematic        
N-[2-(4-methyl)pyrimidinyl]-N'-(2-methoxycarbonylbenzenesulfonyl)urea
_symmetry_cell_setting           orthorhombic
_symmetry_space_group_name_H-M   'P n a 21'
_symmetry_Int_Tables_number      33
_space_group_name_Hall           'P 2c -2n'
loop_
_symmetry_equiv_pos_site_id
_symmetry_equiv_pos_as_xyz
1 x,y,z
2 -x,-y,1/2+z
3 1/2+x,1/2-y,z
4 1/2-x,1/2+y,1/2+z
_cell_length_a                   13.242(4)
_cell_length_b                   9.478(3)
_cell_length_c                   24.889(8)
_cell_angle_alpha                90
_cell_angle_beta                 90
_cell_angle_gamma                90
_cell_volume                     3123.76
_cell_formula_units_Z            8
loop_
_atom_site_label
_atom_site_type_symbol
_atom_site_fract_x
_atom_site_fract_y
_atom_site_fract_z
S1 S 0.21462(16) 0.7276(2) 0.16419(7)
N1 N 0.3081(5) 0.8431(6) 0.1674(3)
H1 H 0.3412 0.8610 0.1384
N2 N 0.4161(5) 1.0011(6) 0.2094(2)
H2 H 0.4369 1.0349 0.2395
N3 N 0.4557(5) 0.9836(7) 0.1178(3)
N4 N 0.5329(5) 1.1525(7) 0.1752(3)
O1 O 0.2921(4) 0.8902(5) 0.2561(2)
O2 O 0.2197(4) 0.6764(6) 0.11035(19)
O3 O 0.1244(4) 0.7938(7) 0.1824(2)
O4 O 0.3689(4) 0.3742(6) 0.1153(2)
O5 O 0.4240(4) 0.5899(6) 0.1372(2)
C1 C 0.3356(6) 0.9117(7) 0.2136(3)
C2 C 0.4707(6) 1.0469(7) 0.1644(3)
C3 C 0.5831(6) 1.2044(10) 0.1319(4)
C4 C 0.5722(7) 1.1478(10) 0.0820(4)
H3 H 0.6066 1.1845 0.0526
C5 C 0.5096(7) 1.0367(10) 0.0769(4)
H4 H 0.5034 0.9945 0.0433
C6 C 0.6530(7) 1.3268(10) 0.1427(5)
H5 H 0.6766 1.3647 0.1092
H6 H 0.7095 1.2950 0.1636
H7 H 0.6173 1.3986 0.1622
C7 C 0.2452(6) 0.5891(7) 0.2094(3)
C8 C 0.3115(5) 0.4816(7) 0.1961(3)
C9 C 0.3227(6) 0.3704(8) 0.2322(3)
H8 H 0.3664 0.2967 0.2240
C10 C 0.2699(6) 0.3683(8) 0.2798(3)
H9 H 0.2784 0.2933 0.3035
C11 C 0.2054(6) 0.4751(9) 0.2927(3)
H10 H 0.1703 0.4728 0.3251
C12 C 0.1922(6) 0.5869(8) 0.2577(3)
H11 H 0.1482 0.6600 0.2663
C13 C 0.3701(5) 0.4730(9) 0.1449(3)
C14 C 0.4746(7) 0.6032(10) 0.0865(3)
H12 H 0.5131 0.5194 0.0796
H13 H 0.5189 0.6833 0.0875
H14 H 0.4255 0.6159 0.0586
S2 S 0.52944(17) 0.26323(17) 0.41340(8)
N5 N 0.4363(4) 0.1505(6) 0.4071(2)
H15 H 0.4016 0.1305 0.4352
N6 N 0.3303(5) -0.0047(6) 0.3621(2)
H16 H 0.3120 -0.0393 0.3316
N7 N 0.2124(4) -0.1595(6) 0.3951(2)
N8 N 0.2844(5) 0.0142(6) 0.4529(2)
O6 O 0.4553(4) 0.1071(5) 0.3175(2)
O7 O 0.6203(4) 0.2001(6) 0.3942(2)
O8 O 0.5248(4) 0.3059(6) 0.4684(2)
O9 O 0.3845(5) 0.6178(7) 0.4701(3)
O10 O 0.3229(4) 0.4063(6) 0.4471(2)
C15 C 0.4103(6) 0.0859(7) 0.3597(3)
C16 C 0.2727(5) -0.0508(7) 0.4066(3)
C17 C 0.1558(6) -0.2092(9) 0.4361(3)
C18 C 0.1622(6) -0.1472(8) 0.4868(3)
H17 H 0.1231 -0.1795 0.5153
C19 C 0.2278(7) -0.0379(9) 0.4932(3)
H18 H 0.2337 0.0028 0.5270
C20 C 0.0917(6) -0.3321(8) 0.4253(4)
H19 H 0.0785 -0.3381 0.3874
H20 H 0.0290 -0.3223 0.4443
H21 H 0.1255 -0.4162 0.4370
C21 C 0.5014(6) 0.4076(7) 0.3715(3)
C22 C 0.4348(5) 0.5151(7) 0.3871(3)
C23 C 0.4208(6) 0.6269(9) 0.3524(4)
H22 H 0.3777 0.6999 0.3622
C24 C 0.4695(7) 0.6324(8) 0.3037(4)
H23 H 0.4580 0.7083 0.2809
C25 C 0.5352(6) 0.5269(9) 0.2882(3)
H24 H 0.5681 0.5317 0.2553
C26 C 0.5515(6) 0.4137(8) 0.3223(3)
H25 H 0.5957 0.3420 0.3124
C27 C 0.3802(6) 0.5181(8) 0.4400(3)
C28 C 0.2719(7) 0.3935(11) 0.4989(4)
H26 H 0.3149 0.3442 0.5236
H27 H 0.2101 0.3419 0.4944
H28 H 0.2573 0.4858 0.5127
loop_
_geom_bond_atom_site_label_1
_geom_bond_atom_site_label_2
_geom_bond_site_symmetry_1
_geom_bond_site_symmetry_2
S1 N1 1_555 1_555
N1 H1 1_555 1_555
N2 H2 1_555 1_555
N3 C2 1_555 1_555
N4 C2 1_555 1_555
O1 C1 1_555 1_555
O2 S1 1_555 1_555
O3 S1 1_555 1_555
O4 C13 1_555 1_555
O5 C13 1_555 1_555
C1 N1 1_555 1_555
C2 N2 1_555 1_555
C3 N4 1_555 1_555
C4 C3 1_555 1_555
H3 C4 1_555 1_555
C5 N3 1_555 1_555
H4 C5 1_555 1_555
C6 C3 1_555 1_555
H5 C6 1_555 1_555
H6 C6 1_555 1_555
H7 C6 1_555 1_555
C7 S1 1_555 1_555
C8 C7 1_555 1_555
C9 C8 1_555 1_555
H8 C9 1_555 1_555
C10 C9 1_555 1_555
H9 C10 1_555 1_555
C11 C10 1_555 1_555
H10 C11 1_555 1_555
C12 C7 1_555 1_555
H11 C12 1_555 1_555
C13 C8 1_555 1_555
C14 O5 1_555 1_555
H12 C14 1_555 1_555
H13 C14 1_555 1_555
H14 C14 1_555 1_555
S2 N5 1_555 1_555
N5 H15 1_555 1_555
N6 H16 1_555 1_555
N7 C16 1_555 1_555
N8 C16 1_555 1_555
O6 C15 1_555 1_555
O7 S2 1_555 1_555
O8 S2 1_555 1_555
O9 C27 1_555 1_555
O10 C27 1_555 1_555
C15 N5 1_555 1_555
C16 N6 1_555 1_555
C17 N7 1_555 1_555
C18 C17 1_555 1_555
H17 C18 1_555 1_555
C19 N8 1_555 1_555
H18 C19 1_555 1_555
C20 C17 1_555 1_555
H19 C20 1_555 1_555
H20 C20 1_555 1_555
H21 C20 1_555 1_555
C21 S2 1_555 1_555
C22 C21 1_555 1_555
C23 C22 1_555 1_555
H22 C23 1_555 1_555
C24 C23 1_555 1_555
H23 C24 1_555 1_555
C25 C24 1_555 1_555
H24 C25 1_555 1_555
C26 C21 1_555 1_555
H25 C26 1_555 1_555
C27 C22 1_555 1_555
C28 O10 1_555 1_555
H26 C28 1_555 1_555
H27 C28 1_555 1_555
H28 C28 1_555 1_555
N2 C1 1_555 1_555
C4 C5 1_555 1_555
C11 C12 1_555 1_555
N6 C15 1_555 1_555
C18 C19 1_555 1_555
C25 C26 1_555 1_555

#END
