
#######################################################################
#
#                 Cambridge Crystallographic Data Centre
#                                CCDC 
#
#######################################################################
#
# If this CIF has been generated from an entry in the Cambridge 
# Structural Database, then it will include bibliographic, chemical, 
# crystal, experimental, refinement or atomic coordinate data resulting 
# from the CCDC's data processing and validation procedures.
#
#######################################################################

data_NAFWOH
_chemical_formula_moiety         'C17 H17 N4 1+,Cl1 O4 1-'
_chemical_name_systematic        
'1,3-bis(2-benzimidazolyl)propane hydrogenperchlorate'
_symmetry_cell_setting           monoclinic
_symmetry_space_group_name_H-M   'P 21/n'
_symmetry_Int_Tables_number      14
_space_group_name_Hall           '-P 2yn'
loop_
_symmetry_equiv_pos_site_id
_symmetry_equiv_pos_as_xyz
1 x,y,z
2 1/2+x,1/2-y,1/2+z
3 -x,-y,-z
4 1/2-x,1/2+y,1/2-z
_cell_length_a                   8.486(3)
_cell_length_b                   13.766(5)
_cell_length_c                   14.893(6)
_cell_angle_alpha                90
_cell_angle_beta                 103.153(6)
_cell_angle_gamma                90
_cell_volume                     1694.13
_exptl_crystal_colour            colorless
_cell_formula_units_Z            4
loop_
_atom_site_label
_atom_site_type_symbol
_atom_site_fract_x
_atom_site_fract_y
_atom_site_fract_z
Cl1 Cl 0.03879(12) 0.83582(7) 0.83196(6)
O1 O 0.0089(4) 0.8742(3) 0.9161(2)
O2 O 0.0227(6) 0.7335(3) 0.8336(3)
O3 O 0.1948(5) 0.8589(4) 0.8240(3)
O4 O -0.0748(6) 0.8692(4) 0.7554(3)
N1 N 1.0176(4) 0.2862(2) 0.9419(2)
N2 N 0.7288(4) 0.0083(2) 0.97327(19)
N3 N 0.5885(4) -0.0863(2) 0.8671(2)
N4 N 1.0256(4) 0.3554(2) 0.80921(19)
C1 C 0.9719(4) 0.2810(3) 0.8497(2)
C2 C 0.7075(5) 0.0615(3) 0.8111(2)
H1 H 0.7770 0.0286 0.7773
H2 H 0.6069 0.0775 0.7679
C3 C 0.6817(4) -0.0701(2) 1.0194(2)
C4 C 0.6730(4) -0.0051(2) 0.8834(2)
C5 C 0.5285(5) -0.2167(3) 0.9740(3)
H3 H 0.4675 -0.2570 0.9290
C6 C 1.1129(4) 0.4129(3) 0.8810(2)
C7 C 0.5923(4) -0.1303(3) 0.9516(2)
C8 C 0.7847(5) 0.1495(3) 0.8506(2)
H4 H 0.7016 0.1937 0.8609
H5 H 0.8534 0.1340 0.9103
C9 C 0.6480(5) -0.1802(3) 1.1338(3)
H6 H 0.6662 -0.1990 1.1953
C10 C 1.1814(5) 0.4112(3) 1.0484(3)
H7 H 1.1759 0.3819 1.1039
C11 C 0.5597(5) -0.2406(3) 1.0667(3)
H8 H 0.5201 -0.2989 1.0842
C12 C 1.1074(4) 0.3706(3) 0.9647(2)
C13 C 0.8795(5) 0.1987(3) 0.7980(3)
H9 H 0.8094 0.2232 0.7419
H10 H 0.9547 0.1532 0.7807
C14 C 1.2631(6) 0.4964(4) 1.0460(3)
H11 H 1.3148 0.5259 1.1010
C15 C 0.7099(5) -0.0928(3) 1.1122(2)
H12 H 0.7674 -0.0516 1.1574
C16 C 1.1961(6) 0.4989(3) 0.8788(3)
H13 H 1.2020 0.5281 0.8233
C17 C 1.2700(6) 0.5394(4) 0.9624(4)
H14 H 1.3262 0.5975 0.9630
H15 H 0.792(4) 0.056(2) 1.002(2)
H16 H 0.981(5) 0.247(3) 0.981(2)
H17 H 0.540(6) -0.106(4) 0.8089(16)
loop_
_geom_bond_atom_site_label_1
_geom_bond_atom_site_label_2
_geom_bond_site_symmetry_1
_geom_bond_site_symmetry_2
Cl1 O1 1_555 1_555
O2 Cl1 1_555 1_555
O3 Cl1 1_555 1_555
O4 Cl1 1_555 1_555
N1 C1 1_555 1_555
N2 C3 1_555 1_555
N3 C4 1_555 1_555
N4 C1 1_555 1_555
C1 C13 1_555 1_555
C2 H1 1_555 1_555
H2 C2 1_555 1_555
C3 C7 1_555 1_555
C4 N2 1_555 1_555
C5 H3 1_555 1_555
C6 N4 1_555 1_555
C7 N3 1_555 1_555
C8 C2 1_555 1_555
H4 C8 1_555 1_555
H5 C8 1_555 1_555
C9 H6 1_555 1_555
C10 H7 1_555 1_555
C11 C5 1_555 1_555
H8 C11 1_555 1_555
C12 N1 1_555 1_555
C13 C8 1_555 1_555
H9 C13 1_555 1_555
H10 C13 1_555 1_555
C14 C10 1_555 1_555
H11 C14 1_555 1_555
C15 C3 1_555 1_555
H12 C15 1_555 1_555
C16 C6 1_555 1_555
H13 C16 1_555 1_555
C17 C14 1_555 1_555
H14 C17 1_555 1_555
H15 N2 1_555 1_555
H16 N1 1_555 1_555
H17 N3 1_555 1_555
C2 C4 1_555 1_555
C5 C7 1_555 1_555
C6 C12 1_555 1_555
C9 C11 1_555 1_555
C9 C15 1_555 1_555
C10 C12 1_555 1_555
C16 C17 1_555 1_555

#END
