
#######################################################################
#
#                 Cambridge Crystallographic Data Centre
#                                CCDC 
#
#######################################################################
#
# If this CIF has been generated from an entry in the Cambridge 
# Structural Database, then it will include bibliographic, chemical, 
# crystal, experimental, refinement or atomic coordinate data resulting 
# from the CCDC's data processing and validation procedures.
#
#######################################################################

data_NAGHUZ
_chemical_formula_moiety         'C10 H9 Br1 O4'
_chemical_name_systematic        
6-Bromo-7-hydroxy-2,2-dimethyl-4H-1,3-benzodioxin-4-one
_symmetry_cell_setting           monoclinic
_symmetry_space_group_name_H-M   'P 21/n'
_symmetry_Int_Tables_number      14
_space_group_name_Hall           '-P 2yn'
loop_
_symmetry_equiv_pos_site_id
_symmetry_equiv_pos_as_xyz
1 x,y,z
2 1/2+x,1/2-y,1/2+z
3 -x,-y,-z
4 1/2-x,1/2+y,1/2-z
_cell_length_a                   8.0398(4)
_cell_length_b                   20.6928(10)
_cell_length_c                   12.5314(6)
_cell_angle_alpha                90
_cell_angle_beta                 101.8380(10)
_cell_angle_gamma                90
_cell_volume                     2040.46
_exptl_crystal_colour            colorless
_exptl_crystal_description       prism
_cell_formula_units_Z            8
loop_
_atom_site_label
_atom_site_type_symbol
_atom_site_fract_x
_atom_site_fract_y
_atom_site_fract_z
Br1 Br 0.59981(2) 0.168622(8) 0.628180(15)
O1 O 0.66100(14) 0.45820(6) 0.62529(11)
O2 O 0.95676(15) 0.45112(6) 0.63064(11)
O3 O 1.08329(14) 0.35870(7) 0.61361(11)
O4 O 0.32599(16) 0.26850(6) 0.61676(11)
H1 H 0.252(3) 0.2904(12) 0.616(2)
C1 C 0.4920(2) 0.36511(8) 0.62494(13)
H2 H 0.3950 0.3917 0.6227
C2 C 0.4761(2) 0.29822(8) 0.62334(13)
C3 C 0.6216(2) 0.25939(8) 0.62832(13)
C4 C 0.7780(2) 0.28725(8) 0.63186(13)
H3 H 0.8750 0.2607 0.6340
C5 C 0.7948(2) 0.35455(8) 0.63236(13)
C6 C 0.6504(2) 0.39266(8) 0.62982(13)
C7 C 0.9548(2) 0.38598(8) 0.62651(14)
C8 C 0.8239(2) 0.48498(8) 0.67176(16)
C9 C 0.8238(2) 0.55280(9) 0.62839(19)
H4 H 0.7993 0.5518 0.5485
H5 H 0.9355 0.5725 0.6549
H6 H 0.7366 0.5783 0.6536
C10 C 0.8583(3) 0.48031(10) 0.79488(17)
H7 H 0.8559 0.4349 0.8165
H8 H 0.7709 0.5043 0.8225
H9 H 0.9703 0.4987 0.8254
Br2 Br 0.40209(2) 0.434454(8) 0.903714(17)
O5 O 0.33221(14) 0.14555(6) 0.86448(10)
O6 O 0.03514(15) 0.15283(6) 0.85147(10)
O7 O -0.09040(14) 0.24442(7) 0.87579(10)
O8 O 0.67577(16) 0.33494(6) 0.90914(12)
H10 H 0.753(3) 0.3113(11) 0.910(2)
C11 C 0.5061(2) 0.23835(8) 0.88563(14)
H11 H 0.6033 0.2116 0.8899
C12 C 0.5240(2) 0.30517(8) 0.89540(13)
C13 C 0.3785(2) 0.34378(8) 0.88901(14)
C14 C 0.2196(2) 0.31626(8) 0.87433(13)
H12 H 0.1223 0.3429 0.8707
C15 C 0.2010(2) 0.24919(8) 0.86480(13)
C16 C 0.3466(2) 0.21142(8) 0.86977(13)
C17 C 0.0381(2) 0.21760(8) 0.86283(13)
C18 C 0.1707(2) 0.12144(8) 0.80912(14)
C19 C 0.1648(2) 0.05120(9) 0.83988(17)
H13 H 0.1841 0.0473 0.9194
H14 H 0.2532 0.0274 0.8130
H15 H 0.0531 0.0332 0.8073
C20 C 0.1423(2) 0.13281(10) 0.68718(15)
H16 H 0.1482 0.1792 0.6729
H17 H 0.0301 0.1163 0.6520
H18 H 0.2302 0.1102 0.6578
loop_
_geom_bond_atom_site_label_1
_geom_bond_atom_site_label_2
_geom_bond_site_symmetry_1
_geom_bond_site_symmetry_2
Br1 C3 1_555 1_555
O1 C6 1_555 1_555
O2 C7 1_555 1_555
O3 C7 1_555 1_555
O4 H1 1_555 1_555
C1 H2 1_555 1_555
C2 O4 1_555 1_555
C3 C2 1_555 1_555
C4 C3 1_555 1_555
H3 C4 1_555 1_555
C5 C4 1_555 1_555
C6 C1 1_555 1_555
C7 C5 1_555 1_555
C8 O1 1_555 1_555
C9 C8 1_555 1_555
H4 C9 1_555 1_555
H5 C9 1_555 1_555
H6 C9 1_555 1_555
C10 C8 1_555 1_555
H7 C10 1_555 1_555
H8 C10 1_555 1_555
H9 C10 1_555 1_555
Br2 C13 1_555 1_555
O5 C16 1_555 1_555
O6 C17 1_555 1_555
O7 C17 1_555 1_555
O8 H10 1_555 1_555
C11 H11 1_555 1_555
C12 O8 1_555 1_555
C13 C12 1_555 1_555
C14 C13 1_555 1_555
H12 C14 1_555 1_555
C15 C14 1_555 1_555
C16 C11 1_555 1_555
C17 C15 1_555 1_555
C18 O5 1_555 1_555
C19 C18 1_555 1_555
H13 C19 1_555 1_555
H14 C19 1_555 1_555
H15 C19 1_555 1_555
C20 C18 1_555 1_555
H16 C20 1_555 1_555
H17 C20 1_555 1_555
H18 C20 1_555 1_555
O2 C8 1_555 1_555
C1 C2 1_555 1_555
C5 C6 1_555 1_555
O6 C18 1_555 1_555
C11 C12 1_555 1_555
C15 C16 1_555 1_555

#END
