
#######################################################################
#
#                 Cambridge Crystallographic Data Centre
#                                CCDC 
#
#######################################################################
#
# If this CIF has been generated from an entry in the Cambridge 
# Structural Database, then it will include bibliographic, chemical, 
# crystal, experimental, refinement or atomic coordinate data resulting 
# from the CCDC's data processing and validation procedures.
#
#######################################################################

data_NAGVEZ
_chemical_formula_moiety         'C8 H4 F1 N1 O2'
_chemical_name_systematic        6-fluoro-1H-indole-2,3-dione
_symmetry_cell_setting           orthorhombic
_symmetry_space_group_name_H-M   'P 21 21 21'
_symmetry_Int_Tables_number      19
_space_group_name_Hall           'P 2ac 2ab'
loop_
_symmetry_equiv_pos_site_id
_symmetry_equiv_pos_as_xyz
1 x,y,z
2 1/2-x,-y,1/2+z
3 -x,1/2+y,1/2-z
4 1/2+x,1/2-y,-z
_cell_length_a                   4.9880(3)
_cell_length_b                   5.5522(3)
_cell_length_c                   24.2578(12)
_cell_angle_alpha                90
_cell_angle_beta                 90
_cell_angle_gamma                90
_cell_volume                     671.805
_exptl_crystal_colour            orange
_exptl_crystal_description       block
_cell_formula_units_Z            4
loop_
_atom_site_label
_atom_site_type_symbol
_atom_site_fract_x
_atom_site_fract_y
_atom_site_fract_z
F1 F 0.0765(5) 0.5676(5) 0.70923(9)
O1 O 1.0503(4) 0.4748(4) 0.50142(8)
O2 O 1.0523(4) 0.0601(4) 0.57698(9)
N1 N 0.6855(5) 0.5829(4) 0.55480(9)
H1 H 0.644(7) 0.712(4) 0.5368(11)
C1 C 0.8919(5) 0.4412(5) 0.53884(10)
C2 C 0.8971(6) 0.2246(4) 0.57986(10)
C3 C 0.6835(5) 0.2782(5) 0.61916(10)
C4 C 0.6008(7) 0.1608(5) 0.66655(11)
H2 H 0.6838 0.0190 0.6777
C5 C 0.3914(7) 0.2583(6) 0.69712(12)
H3 H 0.3297 0.1827 0.7289
C6 C 0.2774(6) 0.4711(7) 0.67891(11)
C7 C 0.3538(6) 0.5951(6) 0.63205(12)
H4 H 0.2705 0.7371 0.6211
C8 C 0.5624(5) 0.4936(5) 0.60257(10)
loop_
_geom_bond_atom_site_label_1
_geom_bond_atom_site_label_2
_geom_bond_site_symmetry_1
_geom_bond_site_symmetry_2
F1 C6 1_555 1_555
O1 C1 1_555 1_555
O2 C2 1_555 1_555
N1 H1 1_555 1_555
C1 N1 1_555 1_555
C2 C1 1_555 1_555
C3 C2 1_555 1_555
C4 C3 1_555 1_555
H2 C4 1_555 1_555
C5 C4 1_555 1_555
H3 C5 1_555 1_555
C6 C5 1_555 1_555
C7 C6 1_555 1_555
H4 C7 1_555 1_555
C8 N1 1_555 1_555
C3 C8 1_555 1_555
C7 C8 1_555 1_555

#END
