
#######################################################################
#
#                 Cambridge Crystallographic Data Centre
#                                CCDC 
#
#######################################################################
#
# If this CIF has been generated from an entry in the Cambridge 
# Structural Database, then it will include bibliographic, chemical, 
# crystal, experimental, refinement or atomic coordinate data resulting 
# from the CCDC's data processing and validation procedures.
#
#######################################################################

data_NAHACE03
_chemical_formula_moiety         'C4 H7 O4 1-,Na1 1+'
_chemical_name_systematic        'Sodium hydrogen diacetate'
_chemical_properties_biological  'preservative and mould inhibitor'
_symmetry_cell_setting           cubic
_symmetry_space_group_name_H-M   'I a -3'
_symmetry_Int_Tables_number      206
_space_group_name_Hall           '-I 2b 2c 3'
loop_
_symmetry_equiv_pos_site_id
_symmetry_equiv_pos_as_xyz
1 x,y,z
2 1/2-x,-y,1/2+z
3 1/2+x,1/2-y,-z
4 z,x,y
5 -x,1/2+y,1/2-z
6 1/2-z,-x,1/2+y
7 1/2+z,1/2-x,-y
8 -z,1/2+x,1/2-y
9 y,z,x
10 1/2+y,1/2-z,-x
11 -y,1/2+z,1/2-x
12 1/2-y,-z,1/2+x
13 1/2+x,1/2+y,1/2+z
14 -x,1/2-y,z
15 x,-y,1/2-z
16 1/2+z,1/2+x,1/2+y
17 1/2-x,y,-z
18 -z,1/2-x,y
19 z,-x,1/2-y
20 1/2-z,x,-y
21 1/2+y,1/2+z,1/2+x
22 y,-z,1/2-x
23 1/2-y,z,-x
24 -y,1/2-z,x
25 -x,-y,-z
26 1/2+x,y,1/2-z
27 1/2-x,1/2+y,z
28 -z,-x,-y
29 x,1/2-y,1/2+z
30 1/2+z,x,1/2-y
31 1/2-z,1/2+x,y
32 z,1/2-x,1/2+y
33 -y,-z,-x
34 1/2-y,1/2+z,x
35 y,1/2-z,1/2+x
36 1/2+y,z,1/2-x
37 1/2-x,1/2-y,1/2-z
38 x,1/2+y,-z
39 -x,y,1/2+z
40 1/2-z,1/2-x,1/2-y
41 1/2+x,-y,z
42 z,1/2+x,-y
43 -z,x,1/2+y
44 1/2+z,-x,y
45 1/2-y,1/2-z,1/2-x
46 -y,z,1/2+x
47 1/2+y,-z,x
48 y,1/2+z,-x
_cell_length_a                   15.902(2)
_cell_length_b                   15.902(2)
_cell_length_c                   15.902(2)
_cell_angle_alpha                90
_cell_angle_beta                 90
_cell_angle_gamma                90
_cell_volume                     4021.2
_cell_formula_units_Z            24
loop_
_atom_site_label
_atom_site_type_symbol
_atom_site_fract_x
_atom_site_fract_y
_atom_site_fract_z
Na1 Na 0.1196(1) 0.1196(1) 0.1196(1)
Na2 Na 0.0000 0.0000 0.0000
O1 O -0.0321(1) 0.1090(1) 0.1002(1)
O2 O -0.0758(1) 0.2351(1) 0.1403(1)
C1 C -0.0882(1) 0.1606(1) 0.1107(1)
C2 C -0.1778(1) 0.1393(1) 0.0902(1)
H1 H -0.2036(2) 0.1859(3) 0.0618(6)
H2 H -0.2079(2) 0.1277(7) 0.1413(2)
H3 H -0.1793(1) 0.0907(5) 0.0545(6)
H4 H 0.0000 0.2500 0.1458(31)
O2M O 0.0758(1) 0.2649(1) 0.1403(1)
C1M C 0.0882(1) 0.3394(1) 0.1107(1)
O1M O 0.0321(1) 0.3910(1) 0.1002(1)
C2M C 0.1778(1) 0.3607(1) 0.0902(1)
H1M H 0.2036(2) 0.3141(3) 0.0618(6)
H2M H 0.2079(2) 0.3723(7) 0.1413(2)
H3M H 0.1793(1) 0.4093(5) 0.0545(6)
loop_
_geom_bond_atom_site_label_1
_geom_bond_atom_site_label_2
_geom_bond_site_symmetry_1
_geom_bond_site_symmetry_2
O1 C1 1_555 1_555
O2 C1 1_555 1_555
C1 C2 1_555 1_555
C2 H1 1_555 1_555
H2 C2 1_555 1_555
H3 C2 1_555 1_555
H4 O2 1_555 1_555
O2M H4 1_555 1_555
C1M O2M 1_555 1_555
O1M C1M 1_555 1_555
C2M C1M 1_555 1_555
H1M C2M 1_555 1_555
H2M C2M 1_555 1_555
H3M C2M 1_555 1_555

#END
