
#######################################################################
#
#                 Cambridge Crystallographic Data Centre
#                                CCDC 
#
#######################################################################
#
# If this CIF has been generated from an entry in the Cambridge 
# Structural Database, then it will include bibliographic, chemical, 
# crystal, experimental, refinement or atomic coordinate data resulting 
# from the CCDC's data processing and validation procedures.
#
#######################################################################

data_NAHJAH
_chemical_formula_moiety         'C68 H76 N8 O4'
_chemical_name_systematic        
"13^1^,13^1^'-bis(Phytoporphyrin methyl ester)ylidene"
_symmetry_cell_setting           monoclinic
_symmetry_space_group_name_H-M   'P 21'
_symmetry_Int_Tables_number      4
_space_group_name_Hall           'P 2yb'
loop_
_symmetry_equiv_pos_site_id
_symmetry_equiv_pos_as_xyz
1 x,y,z
2 -x,1/2+y,-z
_cell_length_a                   12.495(7)
_cell_length_b                   7.436(2)
_cell_length_c                   31.062(8)
_cell_angle_alpha                90
_cell_angle_beta                 100.94(2)
_cell_angle_gamma                90
_cell_volume                     2833.61
_exptl_crystal_colour            green
_cell_formula_units_Z            2
loop_
_atom_site_label
_atom_site_type_symbol
_atom_site_fract_x
_atom_site_fract_y
_atom_site_fract_z
N1 N 0.1070(8) 0.3912(16) 0.3763(3)
H1 H 0.1333(8) 0.4957(16) 0.3700(3)
N2 N 0.2550(8) 0.6636(14) 0.4240(3)
N3 N 0.2404(9) 0.8673(16) 0.3490(3)
H2 H 0.2220(9) 0.7595(16) 0.3568(3)
N4 N 0.0749(9) 0.6166(14) 0.2959(3)
C1 C 0.0369(10) 0.2881(19) 0.3476(4)
C2 C 0.0185(11) 0.1268(18) 0.3699(4)
C3 C -0.0556(11) -0.0232(20) 0.3506(4)
H3 H -0.0857(11) 0.0037(20) 0.3198(4)
H4 H -0.1151(11) -0.0354(20) 0.3669(4)
H5 H -0.0142(11) -0.1358(20) 0.3525(4)
C4 C 0.0761(11) 0.1387(19) 0.4123(4)
C5 C 0.0783(10) 0.0055(20) 0.4487(4)
H6 H 0.1390(10) 0.0358(20) 0.4730(4)
H7 H 0.0922(10) -0.1161(20) 0.4380(4)
C6 C -0.0282(10) 0.0036(27) 0.4658(4)
H8 H -0.0233(10) -0.0847(27) 0.4895(4)
H9 H -0.0883(10) -0.0290(27) 0.4419(4)
H10 H -0.0417(10) 0.1232(27) 0.4769(4)
C7 C 0.1305(11) 0.3089(20) 0.4162(3)
C8 C 0.1943(11) 0.3840(22) 0.4536(4)
H11 H 0.2002(11) 0.3147(22) 0.4796(4)
C9 C 0.2517(11) 0.5497(18) 0.4581(4)
C10 C 0.3121(11) 0.6136(21) 0.4991(3)
C11 C 0.3269(11) 0.5334(22) 0.5442(3)
H12 H 0.2853(11) 0.4211(22) 0.5430(3)
H13 H 0.3007(11) 0.6182(22) 0.5640(3)
H14 H 0.4044(11) 0.5083(22) 0.5550(3)
C12 C 0.3603(10) 0.7733(19) 0.4891(4)
C13 C 0.4406(11) 0.8866(18) 0.5195(4)
H15 H 0.5021(11) 0.9164(18) 0.5049(4)
H16 H 0.4700(11) 0.8151(18) 0.5460(4)
C14 C 0.3931(13) 1.0607(20) 0.5336(5)
H17 H 0.4498(13) 1.1268(20) 0.5536(5)
H18 H 0.3329(13) 1.0328(20) 0.5487(5)
H19 H 0.3660(13) 1.1346(20) 0.5077(5)
C15 C 0.3219(11) 0.8000(17) 0.4421(4)
C16 C 0.3472(11) 0.9493(21) 0.4186(4)
H20 H 0.3976(11) 1.0336(21) 0.4340(4)
C17 C 0.3060(11) 0.9849(19) 0.3756(4)
C18 C 0.3183(10) 1.1475(17) 0.3498(4)
C19 C 0.3782(10) 1.3110(16) 0.3701(4)
H21 H 0.4124(10) 1.2847(16) 0.4005(4)
H22 H 0.3267(10) 1.4109(16) 0.3695(4)
H23 H 0.4344(10) 1.3443(16) 0.3534(4)
C20 C 0.2572(11) 1.1204(20) 0.3074(4)
C21 C 0.2211(11) 1.1875(21) 0.2631(4)
C22 C 0.1442(11) 1.0480(21) 0.2384(4)
H24 H 0.1728(11) 1.0035(21) 0.2127(4)
H25 H 0.0714(11) 1.1015(21) 0.2279(4)
C23 C 0.2078(10) 0.9424(19) 0.3086(3)
C24 C 0.1363(11) 0.8951(20) 0.2698(4)
C25 C 0.0669(11) 0.7499(16) 0.2653(4)
C26 C -0.0293(10) 0.7202(20) 0.2272(4)
H26 H -0.0831(10) 0.8185(20) 0.2287(4)
C27 C -0.0055(11) 0.7220(21) 0.1817(3)
H27 H 0.0441(11) 0.6207(21) 0.1788(3)
H28 H 0.0336(11) 0.8348(21) 0.1777(3)
C28 C -0.1046(12) 0.7080(22) 0.1453(4)
H29 H -0.0799(12) 0.6943(22) 0.1171(4)
H30 H -0.1455(12) 0.5980(22) 0.1500(4)
C29 C -0.1812(14) 0.8677(29) 0.1421(5)
C30 C -0.3525(14) 0.9859(31) 0.1064(6)
H31 H -0.4184(14) 0.9506(31) 0.0856(6)
H32 H -0.3180(14) 1.0880(31) 0.0944(6)
H33 H -0.3719(14) 1.0205(31) 0.1343(6)
O1 O -0.1581(9) 1.0110(18) 0.1583(4)
O2 O -0.2761(9) 0.8338(19) 0.1134(3)
C31 C -0.0791(10) 0.5484(24) 0.2398(5)
H34 H -0.0747(10) 0.4561(24) 0.2168(5)
C32 C -0.1951(10) 0.5597(24) 0.2460(5)
H35 H -0.2192(10) 0.4409(24) 0.2540(5)
H36 H -0.2415(10) 0.5996(24) 0.2186(5)
H37 H -0.2004(10) 0.6458(24) 0.2694(5)
C33 C -0.0034(10) 0.4916(18) 0.2820(4)
C34 C -0.0160(11) 0.3314(23) 0.3054(4)
H38 H -0.0659(11) 0.2448(23) 0.2907(4)
N5 N 0.3876(8) 2.1110(16) 0.1278(3)
H39 H 0.3620(8) 2.0064(16) 0.1344(3)
N6 N 0.2415(9) 1.8320(15) 0.0801(3)
N7 N 0.2584(8) 1.6249(15) 0.1555(3)
H40 H 0.2831(8) 1.7259(15) 0.1463(3)
N8 N 0.4136(9) 1.8895(14) 0.2098(3)
C35 C 0.4545(10) 2.2143(20) 0.1575(4)
C36 C 0.4742(11) 2.3755(18) 0.1325(4)
C37 C 0.5413(11) 2.5324(18) 0.1525(4)
H41 H 0.5697(11) 2.5081(18) 0.1836(4)
H42 H 0.4958(11) 2.6407(18) 0.1497(4)
H43 H 0.6022(11) 2.5510(18) 0.1372(4)
C38 C 0.4207(12) 2.3569(20) 0.0902(4)
C39 C 0.4204(10) 2.4892(21) 0.0535(4)
H44 H 0.4129(10) 2.6127(21) 0.0645(4)
H45 H 0.3572(10) 2.4652(21) 0.0298(4)
C40 C 0.5252(11) 2.4756(30) 0.0354(5)
H46 H 0.5231(11) 2.5627(30) 0.0116(5)
H47 H 0.5321(11) 2.3539(30) 0.0242(5)
H48 H 0.5877(11) 2.5016(30) 0.0589(5)
C41 C 0.3638(11) 2.1838(21) 0.0867(3)
C42 C 0.3040(11) 2.1071(23) 0.0506(4)
H49 H 0.2986(11) 2.1755(23) 0.0244(4)
C43 C 0.2489(12) 1.9426(19) 0.0458(4)
C44 C 0.1838(11) 1.8725(20) 0.0056(3)
C45 C 0.1708(12) 1.9601(22) -0.0386(3)
H50 H 0.2128(12) 2.0722(22) -0.0361(3)
H51 H 0.0936(12) 1.9866(22) -0.0495(3)
H52 H 0.1976(12) 1.8788(22) -0.0590(3)
C46 C 0.1387(10) 1.7159(20) 0.0158(4)
C47 C 0.0598(10) 1.6009(17) -0.0145(4)
H53 H 0.0089(10) 1.6797(17) -0.0344(4)
H54 H 0.0163(10) 1.5304(17) 0.0031(4)
C48 C 0.1135(14) 1.4721(25) -0.0419(5)
H55 H 0.0573(14) 1.4011(25) -0.0608(5)
H56 H 0.1627(14) 1.3914(25) -0.0225(5)
H57 H 0.1550(14) 1.5407(25) -0.0601(5)
C49 C 0.1786(11) 1.6906(17) 0.0620(4)
C50 C 0.1513(11) 1.5439(22) 0.0853(4)
H58 H 0.1009(11) 1.4604(22) 0.0697(4)
C51 C 0.1911(10) 1.5070(18) 0.1298(3)
C52 C 0.1685(10) 1.3643(17) 0.1567(4)
C53 C 0.0989(11) 1.2082(17) 0.1380(4)
H59 H 0.0726(11) 1.2274(17) 0.1066(4)
H60 H 0.0366(11) 1.1977(17) 0.1528(4)
H61 H 0.1421(11) 1.0974(17) 0.1425(4)
C54 C 0.2239(10) 1.3999(19) 0.1991(4)
C55 C 0.2526(11) 1.3366(20) 0.2446(4)
C56 C 0.3275(11) 1.4763(21) 0.2695(4)
H62 H 0.3976(11) 1.4207(21) 0.2833(4)
H63 H 0.2937(11) 1.5307(21) 0.2927(4)
C57 C 0.2818(11) 1.5639(20) 0.1975(3)
C58 C 0.3466(12) 1.6222(22) 0.2358(4)
C59 C 0.4150(11) 1.7705(17) 0.2432(3)
C60 C 0.4902(10) 1.8265(19) 0.2847(4)
H64 H 0.4461(10) 1.8755(19) 0.3057(4)
C61 C 0.5644(11) 1.6722(20) 0.3073(4)
H65 H 0.5179(11) 1.5786(20) 0.3171(4)
H66 H 0.6028(11) 1.6166(20) 0.2856(4)
C62 C 0.6473(11) 1.7339(24) 0.3461(4)
H67 H 0.6965(11) 1.8223(24) 0.3361(4)
H68 H 0.6093(11) 1.7954(24) 0.3671(4)
C63 C 0.7132(14) 1.5844(23) 0.3687(4)
C64 C 0.8771(12) 1.5126(28) 0.4197(5)
H69 H 0.9374(12) 1.5763(28) 0.4383(5)
H70 H 0.9058(12) 1.4358(28) 0.3989(5)
H71 H 0.8391(12) 1.4382(28) 0.4381(5)
O3 O 0.6939(11) 1.4258(18) 0.3657(4)
O4 O 0.8036(8) 1.6386(16) 0.3965(3)
C65 C 0.5565(10) 1.9832(16) 0.2685(3)
H72 H 0.6288(10) 1.9357(16) 0.2644(3)
C66 C 0.5750(12) 2.1390(17) 0.2998(4)
H73 H 0.6204(12) 2.1002(17) 0.3275(4)
H74 H 0.5047(12) 2.1825(17) 0.3052(4)
H75 H 0.6120(12) 2.2360(17) 0.2870(4)
C67 C 0.4876(10) 2.0205(17) 0.2243(4)
C68 C 0.5019(11) 2.1729(22) 0.2002(4)
H76 H 0.5507(11) 2.2605(22) 0.2151(4)
loop_
_geom_bond_atom_site_label_1
_geom_bond_atom_site_label_2
_geom_bond_site_symmetry_1
_geom_bond_site_symmetry_2
N1 H1 1_555 1_555
N2 C9 1_555 1_555
N3 H2 1_555 1_555
N4 C25 1_555 1_555
C1 N1 1_555 1_555
C2 C1 1_555 1_555
C3 C2 1_555 1_555
H3 C3 1_555 1_555
H4 C3 1_555 1_555
H5 C3 1_555 1_555
C4 C2 1_555 1_555
C5 C4 1_555 1_555
H6 C5 1_555 1_555
H7 C5 1_555 1_555
C6 C5 1_555 1_555
H8 C6 1_555 1_555
H9 C6 1_555 1_555
H10 C6 1_555 1_555
C7 N1 1_555 1_555
C8 C7 1_555 1_555
H11 C8 1_555 1_555
C9 C8 1_555 1_555
C10 C9 1_555 1_555
C11 C10 1_555 1_555
H12 C11 1_555 1_555
H13 C11 1_555 1_555
H14 C11 1_555 1_555
C12 C10 1_555 1_555
C13 C12 1_555 1_555
H15 C13 1_555 1_555
H16 C13 1_555 1_555
C14 C13 1_555 1_555
H17 C14 1_555 1_555
H18 C14 1_555 1_555
H19 C14 1_555 1_555
C15 N2 1_555 1_555
C16 C15 1_555 1_555
H20 C16 1_555 1_555
C17 N3 1_555 1_555
C18 C17 1_555 1_555
C19 C18 1_555 1_555
H21 C19 1_555 1_555
H22 C19 1_555 1_555
H23 C19 1_555 1_555
C20 C18 1_555 1_555
C21 C20 1_555 1_555
C22 C21 1_555 1_555
H24 C22 1_555 1_555
H25 C22 1_555 1_555
C23 N3 1_555 1_555
C24 C22 1_555 1_555
C25 C24 1_555 1_555
C26 C25 1_555 1_555
H26 C26 1_555 1_555
C27 C26 1_555 1_555
H27 C27 1_555 1_555
H28 C27 1_555 1_555
C28 C27 1_555 1_555
H29 C28 1_555 1_555
H30 C28 1_555 1_555
C29 C28 1_555 1_555
C30 H31 1_555 1_555
H32 C30 1_555 1_555
H33 C30 1_555 1_555
O1 C29 1_555 1_555
O2 C29 1_555 1_555
C31 C26 1_555 1_555
H34 C31 1_555 1_555
C32 C31 1_555 1_555
H35 C32 1_555 1_555
H36 C32 1_555 1_555
H37 C32 1_555 1_555
C33 N4 1_555 1_555
C34 C1 1_555 1_555
H38 C34 1_555 1_555
N5 H39 1_555 1_555
N6 C43 1_555 1_555
N7 H40 1_555 1_555
N8 C59 1_555 1_555
C35 N5 1_555 1_555
C36 C35 1_555 1_555
C37 C36 1_555 1_555
H41 C37 1_555 1_555
H42 C37 1_555 1_555
H43 C37 1_555 1_555
C38 C36 1_555 1_555
C39 C38 1_555 1_555
H44 C39 1_555 1_555
H45 C39 1_555 1_555
C40 C39 1_555 1_555
H46 C40 1_555 1_555
H47 C40 1_555 1_555
H48 C40 1_555 1_555
C41 N5 1_555 1_555
C42 C41 1_555 1_555
H49 C42 1_555 1_555
C43 C42 1_555 1_555
C44 C43 1_555 1_555
C45 C44 1_555 1_555
H50 C45 1_555 1_555
H51 C45 1_555 1_555
H52 C45 1_555 1_555
C46 C44 1_555 1_555
C47 C46 1_555 1_555
H53 C47 1_555 1_555
H54 C47 1_555 1_555
C48 C47 1_555 1_555
H55 C48 1_555 1_555
H56 C48 1_555 1_555
H57 C48 1_555 1_555
C49 N6 1_555 1_555
C50 C49 1_555 1_555
H58 C50 1_555 1_555
C51 N7 1_555 1_555
C52 C51 1_555 1_555
C53 C52 1_555 1_555
H59 C53 1_555 1_555
H60 C53 1_555 1_555
H61 C53 1_555 1_555
C54 C52 1_555 1_555
C55 C21 1_555 1_555
C56 C55 1_555 1_555
H62 C56 1_555 1_555
H63 C56 1_555 1_555
C57 N7 1_555 1_555
C58 C56 1_555 1_555
C59 C58 1_555 1_555
C60 C59 1_555 1_555
H64 C60 1_555 1_555
C61 C60 1_555 1_555
H65 C61 1_555 1_555
H66 C61 1_555 1_555
C62 C61 1_555 1_555
H67 C62 1_555 1_555
H68 C62 1_555 1_555
C63 C62 1_555 1_555
C64 H69 1_555 1_555
H70 C64 1_555 1_555
H71 C64 1_555 1_555
O3 C63 1_555 1_555
O4 C63 1_555 1_555
C65 C60 1_555 1_555
H72 C65 1_555 1_555
C66 C65 1_555 1_555
H73 C66 1_555 1_555
H74 C66 1_555 1_555
H75 C66 1_555 1_555
C67 N8 1_555 1_555
C68 C35 1_555 1_555
H76 C68 1_555 1_555
C4 C7 1_555 1_555
C12 C15 1_555 1_555
C16 C17 1_555 1_555
C20 C23 1_555 1_555
C23 C24 1_555 1_555
C30 O2 1_555 1_555
C31 C33 1_555 1_555
C33 C34 1_555 1_555
C38 C41 1_555 1_555
C46 C49 1_555 1_555
C50 C51 1_555 1_555
C54 C55 1_555 1_555
C54 C57 1_555 1_555
C57 C58 1_555 1_555
C64 O4 1_555 1_555
C65 C67 1_555 1_555
C67 C68 1_555 1_555

#END
