
#######################################################################
#
#                 Cambridge Crystallographic Data Centre
#                                CCDC 
#
#######################################################################
#
# If this CIF has been generated from an entry in the Cambridge 
# Structural Database, then it will include bibliographic, chemical, 
# crystal, experimental, refinement or atomic coordinate data resulting 
# from the CCDC's data processing and validation procedures.
#
#######################################################################

data_NAHLUG
_chemical_formula_moiety         'C21 H16 Cl1 N3 O2,C1 H4 O1'
_chemical_name_systematic        
'5-(4-chlorophenyl)-4-(3-methyl-1H-imidazol-3-ium-1-yl)-3-phenyl-1H-pyrrole-2-carboxylate methanol'
_symmetry_cell_setting           triclinic
_symmetry_space_group_name_H-M   'P -1'
_symmetry_Int_Tables_number      2
_space_group_name_Hall           '-P 1'
loop_
_symmetry_equiv_pos_site_id
_symmetry_equiv_pos_as_xyz
1 x,y,z
2 -x,-y,-z
_cell_length_a                   9.2999(5)
_cell_length_b                   9.5698(4)
_cell_length_c                   15.3875(5)
_cell_angle_alpha                72.782(3)
_cell_angle_beta                 78.712(4)
_cell_angle_gamma                66.401(4)
_cell_volume                     1194.02
_exptl_crystal_colour            colorless
_exptl_crystal_description       tabular
_cell_formula_units_Z            2
loop_
_atom_site_label
_atom_site_type_symbol
_atom_site_fract_x
_atom_site_fract_y
_atom_site_fract_z
Cl1 Cl 0.80143(10) 0.01496(9) 0.48582(4)
O1 O 0.98052(17) -0.36079(17) 1.17000(10)
O2 O 0.91478(16) -0.49641(15) 1.09763(10)
N1 N 0.66433(17) 0.17962(17) 0.92316(10)
N2 N 0.61154(19) 0.42951(17) 0.87932(11)
N3 N 0.85999(17) -0.23517(17) 0.94593(10)
H1 H 0.8962 -0.3210 0.9281
C1 C 0.7494(2) 0.0136(2) 0.94727(12)
C2 C 0.7129(2) 0.0869(2) 0.73691(14)
H2 H 0.6585 0.1709 0.7640
C3 C 0.7901(2) -0.0708(2) 1.03686(12)
C4 C 0.8180(2) 0.1119(2) 1.11350(13)
H3 H 0.8790 0.1434 1.0617
C5 C 0.8599(2) -0.2277(2) 1.03359(12)
C6 C 0.8690(2) -0.1876(2) 0.74884(14)
H4 H 0.9201 -0.2879 0.7837
C7 C 0.7955(3) -0.0148(3) 0.60373(15)
C8 C 0.5028(2) 0.2533(2) 0.93763(14)
H5 H 0.4303 0.2043 0.9622
C9 C 0.6656(2) -0.0460(2) 1.19428(14)
H6 H 0.6242 -0.1213 1.1971
C10 C 0.6327(3) 0.5811(2) 0.83981(18)
H7 H 0.5700 0.6535 0.8767
H8 H 0.6001 0.6229 0.7789
H9 H 0.7416 0.5657 0.8381
C11 C 0.7876(2) 0.1789(2) 1.18712(14)
H10 H 0.8284 0.2544 1.1846
C12 C 0.8706(3) -0.1640(3) 0.65548(15)
H11 H 0.9218 -0.2477 0.6279
C13 C 0.6346(3) 0.0212(3) 1.26777(15)
H12 H 0.5724 -0.0088 1.3193
C14 C 0.7155(3) 0.1110(3) 0.64353(15)
H13 H 0.6641 0.2105 0.6079
C15 C 0.7916(2) -0.0629(2) 0.79173(13)
C16 C 0.4703(2) 0.4094(2) 0.90949(15)
H14 H 0.3711 0.4884 0.9103
C17 C 0.7952(2) -0.08881(19) 0.89046(12)
C18 C 0.7268(2) 0.2898(2) 0.88776(13)
H15 H 0.8333 0.2717 0.8717
C19 C 0.7580(2) -0.0020(2) 1.11636(12)
C20 C 0.6960(3) 0.1324(2) 1.26454(14)
H16 H 0.6762 0.1762 1.3141
C21 C 0.9236(2) -0.37406(19) 1.10672(12)
O3 O 0.9661(3) 0.4546(3) 0.65274(15)
H17 H 0.9884 0.4309 0.7055
C22 C 0.9956(8) 0.3228(6) 0.6260(3)
H18 H 0.9005 0.3017 0.6350
H19 H 1.0739 0.2360 0.6616
H20 H 1.0335 0.3370 0.5626
loop_
_geom_bond_atom_site_label_1
_geom_bond_atom_site_label_2
_geom_bond_site_symmetry_1
_geom_bond_site_symmetry_2
Cl1 C7 1_555 1_555
O1 C21 1_555 1_555
O2 C21 1_555 1_555
N1 C1 1_555 1_555
N2 C10 1_555 1_555
N3 H1 1_555 1_555
C1 C3 1_555 1_555
C2 H2 1_555 1_555
C3 C5 1_555 1_555
C4 H3 1_555 1_555
C5 N3 1_555 1_555
C6 H4 1_555 1_555
C7 C12 1_555 1_555
C8 N1 1_555 1_555
H5 C8 1_555 1_555
C9 H6 1_555 1_555
C10 H7 1_555 1_555
H8 C10 1_555 1_555
H9 C10 1_555 1_555
C11 C4 1_555 1_555
H10 C11 1_555 1_555
C12 C6 1_555 1_555
H11 C12 1_555 1_555
C13 C9 1_555 1_555
H12 C13 1_555 1_555
C14 C2 1_555 1_555
H13 C14 1_555 1_555
C15 C2 1_555 1_555
C16 N2 1_555 1_555
H14 C16 1_555 1_555
C17 N3 1_555 1_555
C18 N1 1_555 1_555
H15 C18 1_555 1_555
C19 C3 1_555 1_555
C20 C11 1_555 1_555
H16 C20 1_555 1_555
C21 C5 1_555 1_555
O3 H17 1_555 1_555
C22 O3 1_555 1_555
H18 C22 1_555 1_555
H19 C22 1_555 1_555
H20 C22 1_555 1_555
N2 C18 1_555 1_555
C1 C17 1_555 1_555
C4 C19 1_555 1_555
C6 C15 1_555 1_555
C7 C14 1_555 1_555
C8 C16 1_555 1_555
C9 C19 1_555 1_555
C13 C20 1_555 1_555
C15 C17 1_555 1_555

#END
