
#######################################################################
#
#                 Cambridge Crystallographic Data Centre
#                                CCDC 
#
#######################################################################
#
# If this CIF has been generated from an entry in the Cambridge 
# Structural Database, then it will include bibliographic, chemical, 
# crystal, experimental, refinement or atomic coordinate data resulting 
# from the CCDC's data processing and validation procedures.
#
#######################################################################

data_NAHMUH
_chemical_formula_moiety         'C28 H44 O1,C27 H44 O1'
_chemical_name_systematic        
'9,10-secocholesta-5,7,10-trien-3-ol 9,10-secoergosta-5,7,10,22-tetraen-3-ol'
_symmetry_cell_setting           orthorhombic
_symmetry_space_group_name_H-M   'P 21 21 21'
_symmetry_Int_Tables_number      19
_space_group_name_Hall           'P 2ac 2ab'
loop_
_symmetry_equiv_pos_site_id
_symmetry_equiv_pos_as_xyz
1 x,y,z
2 1/2+x,1/2-y,-z
3 -x,1/2+y,1/2-z
4 1/2-x,-y,1/2+z
_cell_length_a                   7.3985(9)
_cell_length_b                   19.856(2)
_cell_length_c                   35.447(4)
_cell_angle_alpha                90
_cell_angle_beta                 90
_cell_angle_gamma                90
_cell_volume                     5207.33
_exptl_crystal_colour            colorless
_exptl_crystal_description       block
_cell_formula_units_Z            4
loop_
_atom_site_label
_atom_site_type_symbol
_atom_site_fract_x
_atom_site_fract_y
_atom_site_fract_z
C1 C 0.8902(13) 0.1321(4) 0.56201(19)
H1 H 0.7932 0.1043 0.5515
C2 C 0.8067(10) 0.1832(4) 0.59107(18)
H2 H 0.8807 0.2168 0.6009
C3 C 0.6425(9) 0.1808(3) 0.60180(15)
H3 H 0.5690 0.1498 0.5895
C4 C 0.5540(8) 0.2221(3) 0.63204(14)
H4 H 0.6466 0.2512 0.6432
C5 C 0.4814(6) 0.1754(2) 0.66334(12)
H5 H 0.4017 0.1427 0.6510
C6 C 0.3756(5) 0.20488(19) 0.69639(11)
C7 C 0.3854(5) 0.1454(2) 0.72464(11)
H6 H 0.3187 0.1084 0.7128
C8 C 0.2907(5) 0.1588(2) 0.76219(12)
C9 C 0.3708(6) 0.1557(2) 0.79509(11)
H7 H 0.4932 0.1449 0.7951
C10 C 0.2893(6) 0.1671(2) 0.83063(11)
H8 H 0.1725 0.1844 0.8302
C11 C 0.3630(6) 0.1554(2) 0.86586(12)
C12 C 0.2673(6) 0.1738(3) 0.90177(11)
H9 H 0.2324 0.1330 0.9150
H10 H 0.1582 0.1987 0.8958
C13 C 0.3860(3) 0.21579(12) 0.92695(6)
H11 H 0.4120 0.2587 0.9144
O1 O 0.2902(3) 0.22866(12) 0.96126(6)
C14 C 0.4694(3) 0.26751(12) 0.71282(6)
H12 H 0.4404 0.3061 0.6977
H13 H 0.5979 0.2607 0.7128
H14 H 0.4285 0.2747 0.7382
C15 C 0.1738(6) 0.2193(2) 0.68964(12)
H15 H 0.1622 0.2583 0.6733
H16 H 0.1199 0.1812 0.6768
C16 C 0.0721(6) 0.2322(2) 0.72592(12)
H17 H -0.0553 0.2372 0.7202
H18 H 0.1140 0.2743 0.7367
C17 C 0.0948(5) 0.1760(2) 0.75523(11)
H19 H 0.0398 0.1901 0.7788
H20 H 0.0317 0.1361 0.7466
C18 C 0.5616(7) 0.1794(3) 0.93450(14)
H21 H 0.6378 0.2073 0.9504
H22 H 0.5366 0.1380 0.9481
C19 C 0.6618(7) 0.1629(3) 0.89849(15)
H23 H 0.7028 0.2044 0.8868
H24 H 0.7674 0.1360 0.9044
C20 C 0.5439(7) 0.1251(3) 0.87128(13)
C21 C 0.5975(10) 0.0678(3) 0.85548(17)
H25 H 0.5192 0.0440 0.8399
H26 H 0.7132 0.0515 0.8601
C22 C 0.5833(6) 0.1247(2) 0.72372(12)
H27 H 0.5982 0.0781 0.7313
H28 H 0.6557 0.1532 0.7401
C23 C 0.6349(7) 0.1347(3) 0.68226(12)
H29 H 0.6488 0.0914 0.6699
H30 H 0.7483 0.1589 0.6804
C24 C 0.4085(10) 0.2678(4) 0.61422(17)
H31 H 0.4617 0.2940 0.5943
H32 H 0.3602 0.2974 0.6331
H33 H 0.3131 0.2405 0.6041
C25 C 1.0247(14) 0.0863(5) 0.5834(3)
H34 H 1.0378 0.0445 0.5702
H35 H 0.9796 0.0778 0.6084
H36 H 1.1400 0.1083 0.5851
C26 C 0.9777(15) 0.1673(6) 0.5321(3)
H37 H 1.0748 0.1951 0.5427
C27 C 0.8437(17) 0.2127(6) 0.5120(3)
H38 H 0.8063 0.2481 0.5287
H39 H 0.7402 0.1868 0.5045
H40 H 0.8999 0.2319 0.4901
C28 C 1.0600(17) 0.1171(6) 0.5038(3)
H41 H 0.9750 0.0816 0.4989
H42 H 1.1689 0.0983 0.5141
H43 H 1.0873 0.1400 0.4806
H44 H 0.3127 0.2686 0.9686
C29 C 1.1390(8) 0.0732(3) 0.00684(12)
H45 H 1.1301 0.0265 -0.0009
H46 H 1.2456 0.0923 -0.0049
C30 C 1.1590(7) 0.0767(3) 0.04913(12)
H47 H 1.2622 0.0498 0.0568
H48 H 1.1818 0.1230 0.0566
C31 C 0.9927(7) 0.0515(2) 0.06900(12)
C32 C 0.8259(6) 0.0857(2) 0.05661(11)
C33 C 0.7050(6) 0.1139(2) 0.07958(12)
H49 H 0.6088 0.1360 0.0681
C34 C 0.7070(6) 0.1138(2) 0.12035(11)
H50 H 0.8073 0.0942 0.1318
C35 C 0.5818(5) 0.1386(2) 0.14342(11)
C36 C 0.5847(5) 0.1286(2) 0.18541(11)
H51 H 0.5736 0.1736 0.1966
C37 C 0.4169(5) 0.08837(19) 0.19871(10)
C38 C 0.4589(5) 0.0821(2) 0.24172(11)
H52 H 0.4371 0.1265 0.2529
C39 C 0.3544(6) 0.0309(2) 0.26570(12)
H53 H 0.3773 -0.0134 0.2545
C40 C 0.4224(8) 0.0275(3) 0.30570(13)
H54 H 0.3618 -0.0094 0.3183
H55 H 0.5504 0.0169 0.3051
C41 C 0.3977(4) 0.08861(14) 0.32848(6)
H56 H 0.2699 0.0923 0.3342
H57 H 0.4284 0.1268 0.3127
O2 O 0.9926(4) 0.18112(14) -0.00115(6)
C42 C 0.9730(4) 0.11095(14) -0.00659(6)
H58 H 0.9561 0.1022 -0.0336
C43 C 0.8052(7) 0.0883(3) 0.01440(12)
H59 H 0.7070 0.1188 0.0083
H60 H 0.7716 0.0439 0.0055
C44 C 0.4168(6) 0.1768(3) 0.13173(13)
H61 H 0.4121 0.1786 0.1044
H62 H 0.4262 0.2227 0.1410
C45 C 0.2426(6) 0.1461(3) 0.14627(14)
H63 H 0.2180 0.1050 0.1324
H64 H 0.1438 0.1771 0.1416
C46 C 0.2501(5) 0.1301(3) 0.18854(13)
H65 H 0.2521 0.1719 0.2027
H66 H 0.1421 0.1055 0.1957
C47 C 0.1489(6) 0.0417(3) 0.26439(15)
H67 H 0.0912 0.0114 0.2817
H68 H 0.1057 0.0331 0.2393
H69 H 0.1215 0.0873 0.2713
C48 C 0.6650(6) 0.0706(3) 0.24239(12)
H70 H 0.7191 0.0953 0.2631
H71 H 0.6913 0.0231 0.2458
C49 C 0.7416(5) 0.0952(3) 0.20497(12)
H72 H 0.8392 0.1270 0.2091
H73 H 0.7870 0.0578 0.1901
C50 C 0.4105(7) 0.0187(2) 0.18009(12)
H74 H 0.4138 0.0238 0.1532
H75 H 0.3010 -0.0039 0.1873
H76 H 0.5127 -0.0073 0.1882
C51 C 0.9971(9) 0.0015(3) 0.09401(13)
H77 H 0.8904 -0.0140 0.1048
H78 H 1.1069 -0.0180 0.1006
C52 C 0.4478(14) 0.0575(7) 0.3952(2)
H79 H 0.4686 0.0105 0.3880
C53 C 0.5038(15) 0.0968(7) 0.36656(19)
H80 H 0.6304 0.0874 0.3618
H81 H 0.4949 0.1435 0.3745
C54 C 0.2518(17) 0.0638(8) 0.4085(3)
H82 H 0.2186 0.1105 0.4095
H83 H 0.2399 0.0443 0.4331
H84 H 0.1739 0.0406 0.3911
C55 C 0.5770(6) 0.07421(17) 0.43018(14)
H85 H 0.6823 0.0460 0.4291
H86 H 0.5133 0.0660 0.4533
H87 H 0.6129 0.1206 0.4291
H88 H 1.1029 0.1876 -0.0067
loop_
_geom_bond_atom_site_label_1
_geom_bond_atom_site_label_2
_geom_bond_site_symmetry_1
_geom_bond_site_symmetry_2
C1 H1 1_555 1_555
C2 C1 1_555 1_555
H2 C2 1_555 1_555
C3 C2 1_555 1_555
H3 C3 1_555 1_555
C4 C3 1_555 1_555
H4 C4 1_555 1_555
C5 C4 1_555 1_555
H5 C5 1_555 1_555
C6 C5 1_555 1_555
C7 C6 1_555 1_555
H6 C7 1_555 1_555
C8 C7 1_555 1_555
C9 C8 1_555 1_555
H7 C9 1_555 1_555
C10 C9 1_555 1_555
H8 C10 1_555 1_555
C11 C10 1_555 1_555
C12 C11 1_555 1_555
H9 C12 1_555 1_555
H10 C12 1_555 1_555
C13 C12 1_555 1_555
H11 C13 1_555 1_555
O1 C13 1_555 1_555
C14 C6 1_555 1_555
H12 C14 1_555 1_555
H13 C14 1_555 1_555
H14 C14 1_555 1_555
C15 C6 1_555 1_555
H15 C15 1_555 1_555
H16 C15 1_555 1_555
C16 C15 1_555 1_555
H17 C16 1_555 1_555
H18 C16 1_555 1_555
C17 C8 1_555 1_555
H19 C17 1_555 1_555
H20 C17 1_555 1_555
C18 C13 1_555 1_555
H21 C18 1_555 1_555
H22 C18 1_555 1_555
C19 C18 1_555 1_555
H23 C19 1_555 1_555
H24 C19 1_555 1_555
C20 C11 1_555 1_555
C21 C20 1_555 1_555
H25 C21 1_555 1_555
H26 C21 1_555 1_555
C22 C7 1_555 1_555
H27 C22 1_555 1_555
H28 C22 1_555 1_555
C23 C5 1_555 1_555
H29 C23 1_555 1_555
H30 C23 1_555 1_555
C24 C4 1_555 1_555
H31 C24 1_555 1_555
H32 C24 1_555 1_555
H33 C24 1_555 1_555
C25 C1 1_555 1_555
H34 C25 1_555 1_555
H35 C25 1_555 1_555
H36 C25 1_555 1_555
C26 C1 1_555 1_555
H37 C26 1_555 1_555
C27 C26 1_555 1_555
H38 C27 1_555 1_555
H39 C27 1_555 1_555
H40 C27 1_555 1_555
C28 C26 1_555 1_555
H41 C28 1_555 1_555
H42 C28 1_555 1_555
H43 C28 1_555 1_555
H44 O1 1_555 1_555
C29 H45 1_555 1_555
H46 C29 1_555 1_555
C30 C29 1_555 1_555
H47 C30 1_555 1_555
H48 C30 1_555 1_555
C31 C30 1_555 1_555
C32 C31 1_555 1_555
C33 C32 1_555 1_555
H49 C33 1_555 1_555
C34 C33 1_555 1_555
H50 C34 1_555 1_555
C35 C34 1_555 1_555
C36 C35 1_555 1_555
H51 C36 1_555 1_555
C37 C36 1_555 1_555
C38 C37 1_555 1_555
H52 C38 1_555 1_555
C39 C38 1_555 1_555
H53 C39 1_555 1_555
C40 C39 1_555 1_555
H54 C40 1_555 1_555
H55 C40 1_555 1_555
C41 C40 1_555 1_555
H56 C41 1_555 1_555
H57 C41 1_555 1_555
O2 C42 1_555 1_555
C42 C29 1_555 1_555
H58 C42 1_555 1_555
C43 C32 1_555 1_555
H59 C43 1_555 1_555
H60 C43 1_555 1_555
C44 C35 1_555 1_555
H61 C44 1_555 1_555
H62 C44 1_555 1_555
C45 C44 1_555 1_555
H63 C45 1_555 1_555
H64 C45 1_555 1_555
C46 C37 1_555 1_555
H65 C46 1_555 1_555
H66 C46 1_555 1_555
C47 C39 1_555 1_555
H67 C47 1_555 1_555
H68 C47 1_555 1_555
H69 C47 1_555 1_555
C48 C38 1_555 1_555
H70 C48 1_555 1_555
H71 C48 1_555 1_555
C49 C36 1_555 1_555
H72 C49 1_555 1_555
H73 C49 1_555 1_555
C50 C37 1_555 1_555
H74 C50 1_555 1_555
H75 C50 1_555 1_555
H76 C50 1_555 1_555
C51 C31 1_555 1_555
H77 C51 1_555 1_555
H78 C51 1_555 1_555
C52 H79 1_555 1_555
C53 C41 1_555 1_555
H80 C53 1_555 1_555
H81 C53 1_555 1_555
C54 C52 1_555 1_555
H82 C54 1_555 1_555
H83 C54 1_555 1_555
H84 C54 1_555 1_555
C55 C52 1_555 1_555
H85 C55 1_555 1_555
H86 C55 1_555 1_555
H87 C55 1_555 1_555
H88 O2 1_555 1_555
C16 C17 1_555 1_555
C19 C20 1_555 1_555
C22 C23 1_555 1_555
C42 C43 1_555 1_555
C45 C46 1_555 1_555
C48 C49 1_555 1_555
C52 C53 1_555 1_555

#END
