
#######################################################################
#
#                 Cambridge Crystallographic Data Centre
#                                CCDC 
#
#######################################################################
#
# If this CIF has been generated from an entry in the Cambridge 
# Structural Database, then it will include bibliographic, chemical, 
# crystal, experimental, refinement or atomic coordinate data resulting 
# from the CCDC's data processing and validation procedures.
#
#######################################################################

data_NAHNIT02
_chemical_name_common            Glycolide
_chemical_formula_moiety         'C4 H4 O4'
_chemical_name_systematic        1,4-dioxane-2,5-dione
_symmetry_cell_setting           orthorhombic
_symmetry_space_group_name_H-M   'P b c a'
_symmetry_Int_Tables_number      61
_space_group_name_Hall           '-P 2ac 2ab'
loop_
_symmetry_equiv_pos_site_id
_symmetry_equiv_pos_as_xyz
1 x,y,z
2 1/2+x,1/2-y,-z
3 -x,1/2+y,1/2-z
4 1/2-x,-y,1/2+z
5 -x,-y,-z
6 1/2-x,1/2+y,z
7 x,1/2-y,1/2+z
8 1/2+x,y,1/2-z
_cell_length_a                   5.2399(2)
_cell_length_b                   7.4388(3)
_cell_length_c                   11.7763(4)
_cell_angle_alpha                90
_cell_angle_beta                 90
_cell_angle_gamma                90
_cell_volume                     459.023
_exptl_crystal_colour            colorless
_exptl_crystal_description       plate
_cell_formula_units_Z            4
_chemical_properties_physical    Heat-sensitive
_exptl_crystal_recrystallization_method 
'Re-crystallisation from solvent: Acetone after download from high pressure'
loop_
_atom_site_label
_atom_site_type_symbol
_atom_site_fract_x
_atom_site_fract_y
_atom_site_fract_z
C1 C 0.0980(3) 0.6150(2) 0.41402(14)
C2 C 0.1276(4) 0.5027(2) 0.60546(14)
H1 H 0.2753 0.4208 0.6291
H2 H 0.0856 0.5845 0.6686
O1 O 0.149(2) 0.7296(16) 0.3431(15)
O2 O 0.235(2) 0.5948(11) 0.5104(8)
C1D C -0.0980(3) 0.3850(2) 0.58598(14)
C2D C -0.1276(4) 0.4973(2) 0.39454(14)
H1D H -0.2753 0.5792 0.3709
H2D H -0.0856 0.4155 0.3314
O1D O -0.149(2) 0.2704(16) 0.6569(15)
O2D O -0.235(2) 0.4052(11) 0.4896(8)
O3? O 0.204(2) 0.6963(17) 0.3396(15)
O4? O 0.194(2) 0.6279(11) 0.5176(8)
loop_
_geom_bond_atom_site_label_1
_geom_bond_atom_site_label_2
_geom_bond_site_symmetry_1
_geom_bond_site_symmetry_2
C1 O1 1_555 1_555
C2 H1 1_555 1_555
H2 C2 1_555 1_555
O2 C1 1_555 1_555
C1D C2 1_555 1_555
C2D C1 1_555 1_555
H1D C2D 1_555 1_555
H2D C2D 1_555 1_555
O1D C1D 1_555 1_555
O2D C1D 1_555 1_555
C2 O2 1_555 1_555
C2D O2D 1_555 1_555

#END
