
#######################################################################
#
#                 Cambridge Crystallographic Data Centre
#                                CCDC 
#
#######################################################################
#
# If this CIF has been generated from an entry in the Cambridge 
# Structural Database, then it will include bibliographic, chemical, 
# crystal, experimental, refinement or atomic coordinate data resulting 
# from the CCDC's data processing and validation procedures.
#
#######################################################################

data_NAHPAO
_chemical_formula_moiety         'C18 H14 O4'
_chemical_name_systematic        1,2-bis(4'-Methoxycarbonylphenyl)ethyne
_symmetry_cell_setting           orthorhombic
_symmetry_space_group_name_H-M   'P b c a'
_symmetry_Int_Tables_number      61
_space_group_name_Hall           '-P 2ac 2ab'
loop_
_symmetry_equiv_pos_site_id
_symmetry_equiv_pos_as_xyz
1 x,y,z
2 1/2-x,-y,1/2+z
3 -x,1/2+y,1/2-z
4 1/2+x,1/2-y,-z
5 -x,-y,-z
6 1/2+x,y,1/2-z
7 x,1/2-y,1/2+z
8 1/2-x,1/2+y,z
_cell_length_a                   7.1061(8)
_cell_length_b                   5.9558(7)
_cell_length_c                   34.129(4)
_cell_angle_alpha                90
_cell_angle_beta                 90
_cell_angle_gamma                90
_cell_volume                     1444.42
_exptl_crystal_colour            colorless
_exptl_crystal_description       plate
_chemical_melting_point          '491-493 K'
_cell_formula_units_Z            4
_exptl_crystal_recrystallization_method hexane
loop_
_atom_site_label
_atom_site_type_symbol
_atom_site_fract_x
_atom_site_fract_y
_atom_site_fract_z
C1 C 0.4474(2) 0.7175(3) 0.28807(4)
H1 H 0.5771 0.7085 0.2784
H2 H 0.4089 0.8752 0.2896
H3 H 0.3637 0.6369 0.2701
O1 O 0.43642(14) 0.61645(16) 0.32679(3)
C2 C 0.49915(17) 0.4054(2) 0.32922(4)
O2 O 0.55594(16) 0.3000(2) 0.30145(3)
C3 C 0.49505(16) 0.3163(2) 0.37000(3)
C4 C 0.42423(16) 0.4411(2) 0.40129(4)
H4 H 0.3729 0.5861 0.3968
C5 C 0.42889(17) 0.3530(2) 0.43894(4)
H5 H 0.3810 0.4382 0.4603
C6 C 0.50419(16) 0.1385(2) 0.44559(4)
C7 C 0.57586(17) 0.0154(2) 0.41410(4)
H6 H 0.6286 -0.1290 0.4185
C8 C 0.57027(17) 0.1029(2) 0.37664(4)
H7 H 0.6178 0.0176 0.3553
C9 C 0.50313(17) 0.0429(2) 0.48412(4)
C1D C 0.5526(2) -0.7175(3) 0.71193(4)
H1D H 0.4229 -0.7085 0.7216
H2D H 0.5911 -0.8752 0.7104
H3D H 0.6363 -0.6369 0.7299
O1D O 0.56358(14) -0.61645(16) 0.67321(3)
C2D C 0.50085(17) -0.4054(2) 0.67078(4)
O2D O 0.44406(16) -0.3000(2) 0.69855(3)
C3D C 0.50495(16) -0.3163(2) 0.63000(3)
C4D C 0.57577(16) -0.4411(2) 0.59871(4)
H4D H 0.6271 -0.5861 0.6032
C5D C 0.57111(17) -0.3530(2) 0.56106(4)
H5D H 0.6190 -0.4382 0.5397
C6D C 0.49581(16) -0.1385(2) 0.55441(4)
C7D C 0.42414(17) -0.0154(2) 0.58590(4)
H6D H 0.3714 0.1290 0.5815
C8D C 0.42973(17) -0.1029(2) 0.62336(4)
H7D H 0.3822 -0.0176 0.6447
C9D C 0.49687(17) -0.0429(2) 0.51588(4)
loop_
_geom_bond_atom_site_label_1
_geom_bond_atom_site_label_2
_geom_bond_site_symmetry_1
_geom_bond_site_symmetry_2
C1 H1 1_555 1_555
H2 C1 1_555 1_555
H3 C1 1_555 1_555
O1 C1 1_555 1_555
C2 O1 1_555 1_555
O2 C2 1_555 1_555
C3 C2 1_555 1_555
C4 C3 1_555 1_555
H4 C4 1_555 1_555
C5 C4 1_555 1_555
H5 C5 1_555 1_555
C6 C5 1_555 1_555
C7 C6 1_555 1_555
H6 C7 1_555 1_555
C8 C3 1_555 1_555
H7 C8 1_555 1_555
C9 C6 1_555 1_555
C1D H1D 1_555 1_555
H2D C1D 1_555 1_555
H3D C1D 1_555 1_555
O1D C1D 1_555 1_555
C2D O1D 1_555 1_555
O2D C2D 1_555 1_555
C3D C2D 1_555 1_555
C4D C3D 1_555 1_555
H4D C4D 1_555 1_555
C5D C4D 1_555 1_555
H5D C5D 1_555 1_555
C6D C5D 1_555 1_555
C7D C6D 1_555 1_555
H6D C7D 1_555 1_555
C8D C3D 1_555 1_555
H7D C8D 1_555 1_555
C9D C9 1_555 1_555
C7 C8 1_555 1_555
C6D C9D 1_555 1_555
C7D C8D 1_555 1_555

#END
