
#######################################################################
#
#                 Cambridge Crystallographic Data Centre
#                                CCDC 
#
#######################################################################
#
# If this CIF has been generated from an entry in the Cambridge 
# Structural Database, then it will include bibliographic, chemical, 
# crystal, experimental, refinement or atomic coordinate data resulting 
# from the CCDC's data processing and validation procedures.
#
#######################################################################

data_NAHPIW
_chemical_formula_moiety         'C34 H22 O4'
_chemical_name_systematic        
9,10-bis(4-Methoxycarbonylphenylethynyl)anthracene
_symmetry_cell_setting           triclinic
_symmetry_space_group_name_H-M   'P -1'
_symmetry_Int_Tables_number      2
_space_group_name_Hall           '-P 1'
loop_
_symmetry_equiv_pos_site_id
_symmetry_equiv_pos_as_xyz
1 x,y,z
2 -x,-y,-z
_cell_length_a                   7.225(1)
_cell_length_b                   11.660(1)
_cell_length_c                   15.381(1)
_cell_angle_alpha                77.343(1)
_cell_angle_beta                 83.037(1)
_cell_angle_gamma                72.026(1)
_cell_volume                     1200.55
_exptl_crystal_colour            'dark orange'
_exptl_crystal_description       needle
_chemical_melting_point          '549-551 K'
_cell_formula_units_Z            2
_exptl_crystal_recrystallization_method chloroform
loop_
_atom_site_label
_atom_site_type_symbol
_atom_site_fract_x
_atom_site_fract_y
_atom_site_fract_z
O1 O 0.90595(14) 0.39055(8) 0.34656(5)
O2 O 0.78815(14) 0.59644(8) 0.30859(6)
C1 C 0.9667(2) 0.38528(13) 0.25401(8)
H1 H 0.8523(10) 0.4109(8) 0.2190(3)
H2 H 1.0412(13) 0.3016(7) 0.24913(12)
H3 H 1.0473(13) 0.4398(8) 0.2316(3)
C2 C 0.81950(18) 0.50326(11) 0.36458(8)
C3 C 0.76894(18) 0.49836(11) 0.46194(7)
C4 C 0.83363(18) 0.38969(11) 0.52424(8)
H4 H 0.9111 0.3170 0.5045
C5 C 0.78582(18) 0.38715(11) 0.61437(8)
H5 H 0.8296 0.3127 0.6562
C6 C 0.67292(18) 0.49415(11) 0.64407(8)
C7 C 0.60944(19) 0.60328(11) 0.58137(8)
H6 H 0.5339 0.6764 0.6010
C8 C 0.65587(18) 0.60533(11) 0.49124(8)
H7 H 0.6109 0.6794 0.4492
C9 C 0.62275(19) 0.49324(12) 0.73757(8)
C10 C 0.58334(18) 0.49459(12) 0.81508(8)
C11 C 0.54028(18) 0.49755(12) 0.90792(8)
C12 C 0.51952(18) 0.39086(12) 0.96826(8)
C13 C 0.5399(2) 0.27968(12) 0.93870(9)
H8 H 0.5682 0.2768 0.8771
C14 C 0.5195(2) 0.17745(13) 0.99715(9)
H9 H 0.5336 0.1043 0.9761
C15 C 0.4772(2) 0.18000(12) 1.08941(9)
H10 H 0.4621 0.1086 1.1297
C16 C 0.45824(19) 0.28381(12) 1.12053(8)
H11 H 0.4310 0.2839 1.1825
C17 C 0.52130(18) 0.60701(12) 0.93873(8)
O1A O 0.09405(14) 0.60945(8) 1.65344(5)
O2A O 0.21185(14) 0.40356(8) 1.69141(6)
C1A C 0.0333(2) 0.61472(13) 1.74599(8)
H1A H 0.1477(10) 0.5891(8) 1.7810(3)
H2A H -0.0412(13) 0.6984(7) 1.75087(12)
H3A H -0.0473(13) 0.5602(8) 1.7684(3)
C2A C 0.18050(18) 0.49674(11) 1.63542(8)
C3A C 0.23106(18) 0.50164(11) 1.53806(7)
C4A C 0.16637(18) 0.61031(11) 1.47576(8)
H4A H 0.0889 0.6830 1.4955
C5A C 0.21418(18) 0.61285(11) 1.38563(8)
H5A H 0.1704 0.6873 1.3438
C6A C 0.32708(18) 0.50585(11) 1.35593(8)
C7A C 0.39056(19) 0.39672(11) 1.41863(8)
H6A H 0.4661 0.3236 1.3990
C8A C 0.34413(18) 0.39467(11) 1.50876(8)
H7A H 0.3891 0.3206 1.5508
C9A C 0.37725(19) 0.50676(12) 1.26243(8)
C10A C 0.41666(18) 0.50541(12) 1.18492(8)
C11A C 0.45972(18) 0.50245(12) 1.09208(8)
C12A C 0.48048(18) 0.60914(12) 1.03174(8)
C13A C 0.4601(2) 0.72032(12) 1.06130(9)
H8A H 0.4318 0.7232 1.1229
C14A C 0.4805(2) 0.82255(13) 1.00285(9)
H9A H 0.4664 0.8957 1.0239
C15A C 0.5228(2) 0.82000(12) 0.91059(9)
H10A H 0.5379 0.8914 0.8703
C16A C 0.54176(19) 0.71619(12) 0.87947(8)
H11A H 0.5690 0.7161 0.8175
C17A C 0.47870(18) 0.39299(12) 1.06127(8)
O3 O 0.37334(14) 0.88428(8) 0.34817(5)
O4 O 0.31806(15) 1.08900(9) 0.30836(6)
C18 C 0.4358(2) 0.87286(13) 0.25661(8)
H12 H 0.3270(10) 0.9136(8) 0.2190(4)
H13 H 0.4827(13) 0.7868(7) 0.25272(14)
H14 H 0.5396(13) 0.9106(8) 0.2368(3)
C19 C 0.32049(18) 0.99872(12) 0.36488(8)
C20 C 0.26799(17) 0.99928(11) 0.46172(7)
C21 C 0.24907(18) 0.89406(12) 0.52140(8)
H15 H 0.2692 0.8200 0.5005
C22 C 0.20113(19) 0.89702(12) 0.61084(8)
H16 H 0.1862 0.8254 0.6509
C23 C 0.17437(18) 1.00502(11) 0.64282(8)
C24 C 0.19580(18) 1.11043(12) 0.58252(8)
H17 H 0.1795 1.1840 0.6034
C25 C 0.24049(18) 1.10717(11) 0.49304(8)
H18 H 0.2526 1.1791 0.4525
C26 C 0.12461(18) 1.00760(12) 0.73587(8)
C27 C 0.08470(18) 1.00702(12) 0.81371(8)
C28 C 0.04020(18) 1.00403(12) 0.90711(8)
C29 C 0.03204(18) 1.10757(12) 0.94331(8)
C30 C 0.06156(19) 1.21709(12) 0.88865(8)
H19 H 0.0900 1.2210 0.8263
C31 C 0.0495(2) 1.31605(13) 0.92479(9)
H20 H 0.0701 1.3881 0.8874
C32 C 0.0068(2) 1.31270(13) 1.01744(9)
H21 H -0.0026 1.3826 1.0418
C33 C -0.0210(2) 1.20936(13) 1.07186(8)
H22 H -0.0490 1.2080 1.1340
C34 C 0.00899(18) 0.89670(12) 0.96272(8)
O3A O -0.37334(14) 1.11572(8) 1.65183(5)
O4A O -0.31806(15) 0.91100(9) 1.69164(6)
C18A C -0.4358(2) 1.12714(13) 1.74339(8)
H12A H -0.3270(10) 1.0864(8) 1.7810(4)
H13A H -0.4827(13) 1.2132(7) 1.74728(14)
H14A H -0.5396(13) 1.0894(8) 1.7632(3)
C19A C -0.32049(18) 1.00128(12) 1.63512(8)
C20A C -0.26799(17) 1.00072(11) 1.53828(7)
C21A C -0.24907(18) 1.10594(12) 1.47860(8)
H15A H -0.2692 1.1800 1.4995
C22A C -0.20113(19) 1.10298(12) 1.38916(8)
H16A H -0.1862 1.1746 1.3491
C23A C -0.17437(18) 0.99498(11) 1.35718(8)
C24A C -0.19580(18) 0.88957(12) 1.41748(8)
H17A H -0.1795 0.8160 1.3966
C25A C -0.24049(18) 0.89283(11) 1.50696(8)
H18A H -0.2526 0.8209 1.5475
C26A C -0.12461(18) 0.99240(12) 1.26413(8)
C27A C -0.08470(18) 0.99298(12) 1.18629(8)
C28A C -0.04020(18) 0.99597(12) 1.09289(8)
C29A C -0.03204(18) 0.89243(12) 1.05669(8)
C30A C -0.06156(19) 0.78291(12) 1.11135(8)
H19A H -0.0900 0.7790 1.1737
C31A C -0.0495(2) 0.68395(13) 1.07521(9)
H20A H -0.0701 0.6119 1.1126
C32A C -0.0068(2) 0.68730(13) 0.98256(9)
H21A H 0.0026 0.6174 0.9582
C33A C 0.0210(2) 0.79064(13) 0.92814(8)
H22A H 0.0490 0.7920 0.8660
C34A C -0.00899(18) 1.10330(12) 1.03728(8)
loop_
_geom_bond_atom_site_label_1
_geom_bond_atom_site_label_2
_geom_bond_site_symmetry_1
_geom_bond_site_symmetry_2
O1 C1 1_555 1_555
O2 C2 1_555 1_555
C1 H1 1_555 1_555
H2 C1 1_555 1_555
H3 C1 1_555 1_555
C2 O1 1_555 1_555
C3 C2 1_555 1_555
C4 C3 1_555 1_555
H4 C4 1_555 1_555
C5 C4 1_555 1_555
H5 C5 1_555 1_555
C6 C5 1_555 1_555
C7 C6 1_555 1_555
H6 C7 1_555 1_555
C8 C3 1_555 1_555
H7 C8 1_555 1_555
C9 C6 1_555 1_555
C10 C9 1_555 1_555
C11 C10 1_555 1_555
C12 C11 1_555 1_555
C13 C12 1_555 1_555
H8 C13 1_555 1_555
C14 C13 1_555 1_555
H9 C14 1_555 1_555
C15 C14 1_555 1_555
H10 C15 1_555 1_555
C16 C15 1_555 1_555
H11 C16 1_555 1_555
C17 C11 1_555 1_555
O3 C18 1_555 1_555
O4 C19 1_555 1_555
C18 H12 1_555 1_555
H13 C18 1_555 1_555
H14 C18 1_555 1_555
C19 O3 1_555 1_555
C20 C19 1_555 1_555
C21 C20 1_555 1_555
H15 C21 1_555 1_555
C22 C21 1_555 1_555
H16 C22 1_555 1_555
C23 C22 1_555 1_555
C24 C23 1_555 1_555
H17 C24 1_555 1_555
C25 C20 1_555 1_555
H18 C25 1_555 1_555
C26 C23 1_555 1_555
C27 C26 1_555 1_555
C28 C27 1_555 1_555
C29 C28 1_555 1_555
C30 C29 1_555 1_555
H19 C30 1_555 1_555
C31 C30 1_555 1_555
H20 C31 1_555 1_555
C32 C31 1_555 1_555
H21 C32 1_555 1_555
C33 C32 1_555 1_555
H22 C33 1_555 1_555
C34 C28 1_555 1_555
O1A C1A 1_555 1_555
O2A C2A 1_555 1_555
C1A H1A 1_555 1_555
H2A C1A 1_555 1_555
H3A C1A 1_555 1_555
C2A O1A 1_555 1_555
C3A C2A 1_555 1_555
C4A C3A 1_555 1_555
H4A C4A 1_555 1_555
C5A C4A 1_555 1_555
H5A C5A 1_555 1_555
C6A C5A 1_555 1_555
C7A C6A 1_555 1_555
H6A C7A 1_555 1_555
C8A C3A 1_555 1_555
H7A C8A 1_555 1_555
C9A C6A 1_555 1_555
C10A C9A 1_555 1_555
C11A C10A 1_555 1_555
C12A C17 1_555 1_555
C13A C12A 1_555 1_555
H8A C13A 1_555 1_555
C14A C13A 1_555 1_555
H9A C14A 1_555 1_555
C15A C14A 1_555 1_555
H10A C15A 1_555 1_555
C16A C17 1_555 1_555
H11A C16A 1_555 1_555
C17A C12 1_555 1_555
O3A C18A 1_555 1_555
O4A C19A 1_555 1_555
C18A H12A 1_555 1_555
H13A C18A 1_555 1_555
H14A C18A 1_555 1_555
C19A O3A 1_555 1_555
C20A C19A 1_555 1_555
C21A C20A 1_555 1_555
H15A C21A 1_555 1_555
C22A C21A 1_555 1_555
H16A C22A 1_555 1_555
C23A C22A 1_555 1_555
C24A C23A 1_555 1_555
H17A C24A 1_555 1_555
C25A C20A 1_555 1_555
H18A C25A 1_555 1_555
C26A C23A 1_555 1_555
C27A C26A 1_555 1_555
C28A C27A 1_555 1_555
C29A C34 1_555 1_555
C30A C29A 1_555 1_555
H19A C30A 1_555 1_555
C31A C30A 1_555 1_555
H20A C31A 1_555 1_555
C32A C31A 1_555 1_555
H21A C32A 1_555 1_555
C33A C34 1_555 1_555
H22A C33A 1_555 1_555
C34A C29 1_555 1_555
C7 C8 1_555 1_555
C16 C17A 1_555 1_555
C24 C25 1_555 1_555
C33 C34A 1_555 1_555
C7A C8A 1_555 1_555
C11A C12A 1_555 1_555
C11A C17A 1_555 1_555
C15A C16A 1_555 1_555
C24A C25A 1_555 1_555
C28A C29A 1_555 1_555
C28A C34A 1_555 1_555
C32A C33A 1_555 1_555

#END
