
#######################################################################
#
#                 Cambridge Crystallographic Data Centre
#                                CCDC 
#
#######################################################################
#
# If this CIF has been generated from an entry in the Cambridge 
# Structural Database, then it will include bibliographic, chemical, 
# crystal, experimental, refinement or atomic coordinate data resulting 
# from the CCDC's data processing and validation procedures.
#
#######################################################################

data_NAHSUM
_chemical_formula_moiety         'C33 H41 N2 P1 Si1'
_chemical_name_systematic        
N-(2-(P,P-Diphenyl-N-(trimethylsilyl)phosphorimidoyl)phenyl)-2,6-diisopropylaniline
_symmetry_cell_setting           monoclinic
_symmetry_space_group_name_H-M   'P 21/n'
_symmetry_Int_Tables_number      14
_space_group_name_Hall           '-P 2yn'
loop_
_symmetry_equiv_pos_site_id
_symmetry_equiv_pos_as_xyz
1 x,y,z
2 1/2-x,1/2+y,1/2-z
3 -x,-y,-z
4 1/2+x,1/2-y,1/2+z
_cell_length_a                   18.4720(4)
_cell_length_b                   9.3940(2)
_cell_length_c                   19.4190(5)
_cell_angle_alpha                90
_cell_angle_beta                 115.5080(10)
_cell_angle_gamma                90
_cell_volume                     3041.24
_exptl_crystal_colour            colorless
_exptl_crystal_description       prism
_cell_formula_units_Z            4
loop_
_atom_site_label
_atom_site_type_symbol
_atom_site_fract_x
_atom_site_fract_y
_atom_site_fract_z
P1 P 0.04298(3) 0.28981(6) 0.32218(3)
Si1 Si -0.01696(4) 0.59773(7) 0.28157(4)
N1 N 0.20602(11) 0.38085(18) 0.43442(10)
H1 H 0.1733 0.4093 0.3827
N2 N 0.04039(11) 0.45436(19) 0.32209(10)
C1 C -0.05366(13) 0.2008(2) 0.28373(13)
C2 C -0.10907(15) 0.2391(3) 0.31199(15)
H2 H -0.0942 0.3097 0.3515
C3 C -0.18403(16) 0.1771(3) 0.28317(16)
H3 H -0.2221 0.2024 0.3027
C4 C -0.20492(16) 0.0760(3) 0.22624(15)
H4 H -0.2568 0.0319 0.2059
C5 C -0.15103(15) 0.0380(3) 0.19812(14)
H5 H -0.1656 -0.0319 0.1583
C6 C -0.07612(14) 0.1002(2) 0.22621(13)
H6 H -0.0389 0.0717 0.2063
C7 C 0.09487(13) 0.2189(2) 0.26879(12)
C8 C 0.10264(16) 0.3034(3) 0.21376(14)
H7 H 0.0847 0.4005 0.2072
C9 C 0.13934(18) 0.2493(3) 0.17002(16)
H8 H 0.1432 0.3071 0.1310
C10 C 0.16788(18) 0.1127(3) 0.18097(16)
H9 H 0.1928 0.0752 0.1505
C11 C 0.16124(16) 0.0285(3) 0.23591(15)
H10 H 0.1807 -0.0676 0.2434
C12 C 0.12518(15) 0.0813(3) 0.28024(14)
H11 H 0.1220 0.0232 0.3194
C13 C 0.09720(13) 0.2209(2) 0.41755(12)
C14 C 0.06533(14) 0.1153(2) 0.44767(13)
H12 H 0.0141 0.0741 0.4160
C15 C 0.10612(15) 0.0685(3) 0.52186(14)
H13 H 0.0850 -0.0046 0.5426
C16 C 0.17977(15) 0.1263(2) 0.56752(14)
H14 H 0.2090 0.0976 0.6197
C17 C 0.21375(14) 0.2297(2) 0.53982(13)
H15 H 0.2652 0.2682 0.5728
C18 C 0.17323(13) 0.2785(2) 0.46470(12)
C19 C 0.28312(13) 0.4430(2) 0.47507(12)
C20 C 0.35212(14) 0.3590(2) 0.49364(13)
C21 C 0.34646(15) 0.2060(2) 0.46574(14)
H16 H 0.2991 0.1644 0.4660
C22 C 0.3387(2) 0.2052(3) 0.38461(17)
H17 H 0.3347 0.1089 0.3668
H18 H 0.3853 0.2494 0.3840
H19 H 0.2916 0.2571 0.3520
C23 C 0.4164(2) 0.1132(3) 0.5168(2)
H20 H 0.4102 0.0178 0.4974
H21 H 0.4192 0.1118 0.5673
H22 H 0.4649 0.1534 0.5185
C24 C 0.42654(14) 0.4235(3) 0.53385(14)
H23 H 0.4746 0.3682 0.5487
C25 C 0.43310(15) 0.5654(3) 0.55269(14)
H24 H 0.4850 0.6068 0.5816
C26 C 0.36487(15) 0.6478(3) 0.53124(14)
H25 H 0.3704 0.7477 0.5427
C27 C 0.28890(14) 0.5892(2) 0.49247(12)
C28 C 0.21336(15) 0.6789(2) 0.47138(13)
H26 H 0.1738 0.6392 0.4249
C29 C 0.18199(17) 0.6634(3) 0.53164(16)
H27 H 0.1343 0.7196 0.5177
H28 H 0.2223 0.6960 0.5797
H29 H 0.1699 0.5653 0.5360
C30 C 0.22591(19) 0.8359(3) 0.45906(18)
H30 H 0.1766 0.8870 0.4456
H31 H 0.2425 0.8444 0.4188
H32 H 0.2665 0.8750 0.5053
C31 C 0.0371(2) 0.7132(3) 0.2407(2)
H33 H 0.0052 0.7953 0.2169
H34 H 0.0466 0.6594 0.2033
H35 H 0.0875 0.7432 0.2804
C32 C -0.0361(2) 0.7036(4) 0.3526(2)
H36 H -0.0691 0.7837 0.3274
H37 H 0.0135 0.7366 0.3923
H38 H -0.0635 0.6451 0.3744
C33 C -0.11594(17) 0.5544(4) 0.20239(17)
H39 H -0.1455 0.6402 0.1817
H40 H -0.1453 0.4950 0.2216
H41 H -0.1078 0.5046 0.1631
loop_
_geom_bond_atom_site_label_1
_geom_bond_atom_site_label_2
_geom_bond_site_symmetry_1
_geom_bond_site_symmetry_2
P1 N2 1_555 1_555
Si1 N2 1_555 1_555
N1 H1 1_555 1_555
C1 P1 1_555 1_555
C2 C1 1_555 1_555
H2 C2 1_555 1_555
C3 C2 1_555 1_555
H3 C3 1_555 1_555
C4 C3 1_555 1_555
H4 C4 1_555 1_555
C5 C4 1_555 1_555
H5 C5 1_555 1_555
C6 C1 1_555 1_555
H6 C6 1_555 1_555
C7 P1 1_555 1_555
C8 C7 1_555 1_555
H7 C8 1_555 1_555
C9 C8 1_555 1_555
H8 C9 1_555 1_555
C10 C9 1_555 1_555
H9 C10 1_555 1_555
C11 C10 1_555 1_555
H10 C11 1_555 1_555
C12 C7 1_555 1_555
H11 C12 1_555 1_555
C13 P1 1_555 1_555
C14 C13 1_555 1_555
H12 C14 1_555 1_555
C15 C14 1_555 1_555
H13 C15 1_555 1_555
C16 C15 1_555 1_555
H14 C16 1_555 1_555
C17 C16 1_555 1_555
H15 C17 1_555 1_555
C18 N1 1_555 1_555
C19 N1 1_555 1_555
C20 C19 1_555 1_555
C21 C20 1_555 1_555
H16 C21 1_555 1_555
C22 C21 1_555 1_555
H17 C22 1_555 1_555
H18 C22 1_555 1_555
H19 C22 1_555 1_555
C23 C21 1_555 1_555
H20 C23 1_555 1_555
H21 C23 1_555 1_555
H22 C23 1_555 1_555
C24 C20 1_555 1_555
H23 C24 1_555 1_555
C25 C24 1_555 1_555
H24 C25 1_555 1_555
C26 C25 1_555 1_555
H25 C26 1_555 1_555
C27 C19 1_555 1_555
C28 C27 1_555 1_555
H26 C28 1_555 1_555
C29 C28 1_555 1_555
H27 C29 1_555 1_555
H28 C29 1_555 1_555
H29 C29 1_555 1_555
C30 C28 1_555 1_555
H30 C30 1_555 1_555
H31 C30 1_555 1_555
H32 C30 1_555 1_555
C31 Si1 1_555 1_555
H33 C31 1_555 1_555
H34 C31 1_555 1_555
H35 C31 1_555 1_555
C32 Si1 1_555 1_555
H36 C32 1_555 1_555
H37 C32 1_555 1_555
H38 C32 1_555 1_555
C33 Si1 1_555 1_555
H39 C33 1_555 1_555
H40 C33 1_555 1_555
H41 C33 1_555 1_555
C5 C6 1_555 1_555
C11 C12 1_555 1_555
C13 C18 1_555 1_555
C17 C18 1_555 1_555
C26 C27 1_555 1_555

#END
