
#######################################################################
#
#                 Cambridge Crystallographic Data Centre
#                                CCDC 
#
#######################################################################
#
# If this CIF has been generated from an entry in the Cambridge 
# Structural Database, then it will include bibliographic, chemical, 
# crystal, experimental, refinement or atomic coordinate data resulting 
# from the CCDC's data processing and validation procedures.
#
#######################################################################

data_NAHTIZ
_chemical_name_common            
5,11,17,23-tetrakis(4-methoxycarbonylphenyl)-6,10:12,16:18,22:24,4-O,O'-tetrakis(methano)-2,8,14,20-tetrapentylcalix[4]resorcinarene
_chemical_formula_moiety         'C84 H88 O16'
_chemical_name_systematic        
"7,11,15,28-tetrakis(4-Methoxycarbonylphenyl)-1,21,23,25-tetrapentyl-2,20:3,19-dimetheno-1H,21H,23H,25H-bis(1,3)dioxocino(5,4-i:5',4'-i')benzo(1,2-d:5,4-d')bis(1,3)benzodioxocin unknown solvate"
_symmetry_cell_setting           monoclinic
_symmetry_space_group_name_H-M   'P 21/c'
_symmetry_Int_Tables_number      14
_space_group_name_Hall           '-P 2ybc'
loop_
_symmetry_equiv_pos_site_id
_symmetry_equiv_pos_as_xyz
1 x,y,z
2 -x,1/2+y,1/2-z
3 -x,-y,-z
4 x,1/2-y,1/2+z
_cell_length_a                   13.3285(6)
_cell_length_b                   18.3136(8)
_cell_length_c                   39.271(2)
_cell_angle_alpha                90
_cell_angle_beta                 98.3160(10)
_cell_angle_gamma                90
_cell_volume                     9484.98
_exptl_crystal_colour            colorless
_cell_formula_units_Z            4
loop_
_atom_site_label
_atom_site_type_symbol
_atom_site_fract_x
_atom_site_fract_y
_atom_site_fract_z
C1 C -0.0981(15) 1.1120(11) -0.1118(5)
O1 O -0.0820(9) 1.0580(8) -0.0833(3)
O2 O -0.1011(12) 0.9709(9) -0.1233(5)
C2 C -0.0872(15) 0.9898(13) -0.0916(6)
C3 C -0.0713(10) 0.9344(8) -0.0661(3)
C4 C -0.0789(10) 0.9586(5) -0.0330(4)
C5 C -0.0653(10) 0.9098(8) -0.0056(3)
C6 C -0.0441(9) 0.8369(7) -0.0113(3)
C7 C -0.0366(10) 0.8127(6) -0.0444(4)
C8 C -0.0501(11) 0.8614(9) -0.0718(3)
C9 C -0.0198(10) 0.7843(6) 0.0190(3)
C10 C -0.0927(7) 0.7708(6) 0.0402(3)
C11 C -0.0707(9) 0.7247(7) 0.0684(3)
C12 C 0.0241(10) 0.6920(6) 0.0754(3)
C13 C 0.0971(7) 0.7055(6) 0.0543(3)
C14 C 0.0751(8) 0.7516(7) 0.0260(3)
O3 O 0.1468(9) 0.7672(6) 0.0052(3)
C15 C 0.2147(15) 0.8266(11) 0.0163(5)
O4 O 0.3073(9) 0.7967(7) 0.0360(3)
C16 C 0.4606(16) 1.2136(12) -0.0070(6)
O5 O 0.5976(12) 1.1102(8) 0.0247(4)
O6 O 0.4300(13) 1.1446(9) 0.0102(4)
C17 C 0.5005(20) 1.1029(12) 0.0254(6)
C18 C 0.3346(7) 0.9667(8) 0.0611(3)
C19 C 0.3691(10) 1.0283(6) 0.0457(3)
C20 C 0.4714(11) 1.0353(6) 0.0428(3)
C21 C 0.5392(7) 0.9807(8) 0.0555(3)
C22 C 0.5047(9) 0.9191(6) 0.0709(3)
C23 C 0.4024(11) 0.9121(6) 0.0737(3)
C24 C 0.3642(9) 0.8452(5) 0.0913(3)
C25 C 0.3091(9) 0.7922(7) 0.0713(2)
C26 C 0.2685(8) 0.7332(6) 0.0869(3)
C27 C 0.2828(9) 0.7272(6) 0.1226(3)
C28 C 0.3379(9) 0.7802(7) 0.1426(2)
C29 C 0.3785(8) 0.8392(6) 0.1270(3)
O7 O 0.4390(10) 0.8924(7) 0.1463(3)
C30 C 0.3888(14) 0.9504(11) 0.1604(5)
O8 O 0.3753(9) 0.9317(7) 0.1965(3)
C31 C 0.2937(21) 1.2505(16) 0.2531(10)
O9 O 0.2846(18) 1.2902(14) 0.2305(7)
C32 C 0.3375(28) 1.3286(23) 0.2900(9)
O10 O 0.3188(16) 1.2460(13) 0.2855(7)
C33 C 0.2288(13) 1.0794(14) 0.1949(4)
C34 C 0.2503(15) 1.1509(11) 0.2054(5)
C35 C 0.2720(12) 1.1672(8) 0.2403(6)
C36 C 0.2722(12) 1.1120(13) 0.2646(4)
C37 C 0.2508(13) 1.0405(10) 0.2540(5)
C38 C 0.2291(12) 1.0242(8) 0.2192(6)
C39 C 0.2037(12) 0.9427(5) 0.2103(3)
C40 C 0.2820(8) 0.9010(8) 0.2005(3)
C41 C 0.2679(9) 0.8268(8) 0.1941(3)
C42 C 0.1756(12) 0.7943(5) 0.1974(3)
C43 C 0.0974(8) 0.8360(8) 0.2072(3)
C44 C 0.1114(9) 0.9102(8) 0.2136(3)
O11 O 0.0377(10) 0.9573(7) 0.2224(3)
C45 C -0.0337(19) 0.9900(13) 0.1969(6)
O12 O -0.1210(10) 0.9392(7) 0.1914(3)
C46 C -0.2993(29) 1.2909(22) 0.0638(10)
O13 O -0.2708(18) 1.2114(13) 0.0791(6)
O14 O -0.4265(29) 1.1975(18) 0.1053(8)
C47 C -0.3449(31) 1.1924(17) 0.0985(9)
C48 C -0.1725(9) 1.0110(10) 0.1059(4)
C49 C -0.2070(13) 1.0806(9) 0.0962(4)
C50 C -0.2957(15) 1.1070(7) 0.1065(5)
C51 C -0.3498(10) 1.0638(10) 0.1266(4)
C52 C -0.3153(12) 0.9942(9) 0.1363(4)
C53 C -0.2266(12) 0.9678(6) 0.1260(4)
C54 C -0.1804(9) 0.8911(5) 0.1360(3)
C55 C -0.1230(9) 0.8801(6) 0.1680(3)
C56 C -0.0756(8) 0.8133(7) 0.1758(2)
C57 C -0.0857(8) 0.7575(5) 0.1516(3)
C58 C -0.1430(9) 0.7685(6) 0.1195(3)
C59 C -0.1904(8) 0.8353(7) 0.1117(2)
O15 O -0.2552(10) 0.8477(7) 0.0808(4)
C60 C -0.2118(15) 0.8639(11) 0.0514(5)
O16 O -0.1907(9) 0.8006(7) 0.0327(3)
C61 C -0.1524(14) 0.7086(10) 0.0932(5)
C62 C -0.1429(18) 0.6290(13) 0.1087(6)
C63 C -0.1720(25) 0.5737(20) 0.0772(9)
C64 C -0.1451(47) 0.4935(28) 0.0950(14)
C65 C -0.0562(65) 0.4554(46) 0.0835(24)
C66 C -0.0785(62) 0.3750(43) 0.0881(21)
C67 C -0.0130(16) 0.8093(12) 0.2106(5)
C68 C -0.0098(18) 0.7274(13) 0.2255(6)
C69 C 0.0390(24) 0.7475(19) 0.2679(8)
C70 C 0.0528(26) 0.6745(20) 0.2779(10)
C71 C 0.0984(45) 0.6890(32) 0.3179(14)
C72 C 0.0394(39) 0.7294(26) 0.3410(13)
C73 C 0.3517(15) 0.7785(11) 0.1827(5)
C74 C 0.3577(17) 0.6953(13) 0.1956(6)
C75 C 0.3871(22) 0.7044(17) 0.2363(7)
C76 C 0.4121(36) 0.6190(22) 0.2429(12)
C77 C 0.3457(46) 0.6159(34) 0.2670(16)
C78 C 0.3606(56) 0.5348(37) 0.2731(19)
C79 C 0.2060(15) 0.6749(11) 0.0635(5)
C80 C 0.2060(17) 0.5967(13) 0.0799(6)
C81 C 0.1620(26) 0.5483(20) 0.0458(9)
C82 C 0.1827(40) 0.4734(27) 0.0637(12)
C83 C 0.0858(60) 0.4268(51) 0.0462(21)
C84 C 0.1450(46) 0.4063(31) 0.0155(16)
O17? O 0.0987(15) 0.6007(11) 0.1635(5)
C85? C 0.0624(56) 0.5206(32) 0.1852(14)
C86? C 0.2341(28) 0.5015(17) 0.1660(8)
C87? C 0.1108(39) 0.4322(31) 0.2016(14)
C88? C -0.0335(31) 0.5393(19) 0.1930(9)
C89? C 0.1293(52) 0.5045(31) 0.1782(13)
C90? C 0.3130(56) 0.8558(41) 0.3081(19)
C91? C 0.3716(90) 0.9085(59) 0.3304(29)
C92? C 0.4543(42) 0.9043(29) 0.2922(14)
C93? C 0.448(10) 0.8520(72) 0.3250(34)
C94? C 0.4030(43) 0.1801(33) 0.3725(17)
C95? C 0.4870(67) 0.1094(49) 0.4290(23)
C96? C 0.4141(56) 0.0762(41) 0.3560(19)
C97? C 0.4501(65) 0.1702(50) 0.4123(24)
C98? C 0.2389(60) 0.2791(35) 0.1202(17)
C99? C 0.3325(32) 0.1432(25) 0.1191(11)
C100? C 0.3856(91) 0.3443(63) 0.0999(30)
C101? C 0.3140(34) 0.2371(25) 0.0663(13)
C102? C 0.3317(99) 0.2764(69) 0.1287(29)
C103? C 0.4216(42) 0.9691(29) 0.4919(14)
C104? C 0.3557(77) 0.2046(59) 0.1051(30)
loop_
_geom_bond_atom_site_label_1
_geom_bond_atom_site_label_2
_geom_bond_site_symmetry_1
_geom_bond_site_symmetry_2
C1 O1 1_555 1_555
O1 C2 1_555 1_555
O2 C2 1_555 1_555
C2 C3 1_555 1_555
C3 C4 1_555 1_555
C4 C5 1_555 1_555
C5 C6 1_555 1_555
C6 C7 1_555 1_555
C7 C8 1_555 1_555
C8 C3 1_555 1_555
C9 C6 1_555 1_555
C10 C9 1_555 1_555
C11 C10 1_555 1_555
C12 C11 1_555 1_555
C13 C12 1_555 1_555
C14 C9 1_555 1_555
O3 C14 1_555 1_555
C15 O3 1_555 1_555
O4 C15 1_555 1_555
C16 O6 1_555 1_555
O5 C17 1_555 1_555
O6 C17 1_555 1_555
C17 C20 1_555 1_555
C18 C19 1_555 1_555
C19 C20 1_555 1_555
C20 C21 1_555 1_555
C21 C22 1_555 1_555
C22 C23 1_555 1_555
C23 C18 1_555 1_555
C24 C23 1_555 1_555
C25 O4 1_555 1_555
C26 C25 1_555 1_555
C27 C26 1_555 1_555
C28 C27 1_555 1_555
C29 C24 1_555 1_555
O7 C29 1_555 1_555
C30 O7 1_555 1_555
O8 C30 1_555 1_555
C31 O9 1_555 1_555
C32 O10 1_555 1_555
O10 C31 1_555 1_555
C33 C34 1_555 1_555
C34 C35 1_555 1_555
C35 C31 1_555 1_555
C36 C35 1_555 1_555
C37 C36 1_555 1_555
C38 C33 1_555 1_555
C39 C38 1_555 1_555
C40 O8 1_555 1_555
C41 C40 1_555 1_555
C42 C41 1_555 1_555
C43 C42 1_555 1_555
C44 C39 1_555 1_555
O11 C44 1_555 1_555
C45 O11 1_555 1_555
O12 C45 1_555 1_555
C46 O13 1_555 1_555
O13 C47 1_555 1_555
O14 C47 1_555 1_555
C47 C50 1_555 1_555
C48 C49 1_555 1_555
C49 C50 1_555 1_555
C50 C51 1_555 1_555
C51 C52 1_555 1_555
C52 C53 1_555 1_555
C53 C48 1_555 1_555
C54 C53 1_555 1_555
C55 O12 1_555 1_555
C56 C55 1_555 1_555
C57 C56 1_555 1_555
C58 C57 1_555 1_555
C59 C54 1_555 1_555
O15 C59 1_555 1_555
C60 O15 1_555 1_555
O16 C10 1_555 1_555
C61 C11 1_555 1_555
C62 C61 1_555 1_555
C63 C62 1_555 1_555
C64 C63 1_555 1_555
C65 C64 1_555 1_555
C66 C65 1_555 1_555
C67 C43 1_555 1_555
C68 C67 1_555 1_555
C69 C68 1_555 1_555
C70 C69 1_555 1_555
C71 C70 1_555 1_555
C72 C71 1_555 1_555
C73 C28 1_555 1_555
C74 C73 1_555 1_555
C75 C74 1_555 1_555
C76 C75 1_555 1_555
C77 C76 1_555 1_555
C78 C77 1_555 1_555
C79 C13 1_555 1_555
C80 C79 1_555 1_555
C81 C80 1_555 1_555
C82 C81 1_555 1_555
C83 C82 1_555 1_555
C84 C83 1_555 1_555
C13 C14 1_555 1_555
C24 C25 1_555 1_555
C26 C79 1_555 1_555
C28 C29 1_555 1_555
C37 C38 1_555 1_555
C39 C40 1_555 1_555
C41 C73 1_555 1_555
C43 C44 1_555 1_555
C54 C55 1_555 1_555
C56 C67 1_555 1_555
C58 C59 1_555 1_555
C58 C61 1_555 1_555
C60 O16 1_555 1_555

#END
