
#######################################################################
#
#                 Cambridge Crystallographic Data Centre
#                                CCDC 
#
#######################################################################
#
# If this CIF has been generated from an entry in the Cambridge 
# Structural Database, then it will include bibliographic, chemical, 
# crystal, experimental, refinement or atomic coordinate data resulting 
# from the CCDC's data processing and validation procedures.
#
#######################################################################

data_NAHTEV
_chemical_formula_moiety         'C70 H126 N14 O17,C1 H4 O1,2(H2 O1)'
_chemical_name_systematic        
't-Butoxycarbonyl-D-valyl-D-alanyl-D-leucyl-\a-aminoisobutyryl-D-valyl-D-alanyl-D-leucyl-L-valyl-L-alanyl-L-leucyl-\a-aminoisobutyryl-L-valyl-L-alanyl-L-leucyl methyl ester methanol solvate dihydrate'
_symmetry_cell_setting           tetragonal
_symmetry_space_group_name_H-M   'P 43'
_symmetry_Int_Tables_number      78
_space_group_name_Hall           'P 4cw'
loop_
_symmetry_equiv_pos_site_id
_symmetry_equiv_pos_as_xyz
1 x,y,z
2 -y,x,3/4+z
3 -x,-y,1/2+z
4 y,-x,1/4+z
_cell_length_a                   10.080(1)
_cell_length_b                   10.080(1)
_cell_length_c                   86.781(19)
_cell_angle_alpha                90
_cell_angle_beta                 90
_cell_angle_gamma                90
_cell_volume                     8817.5
_cell_formula_units_Z            4
loop_
_atom_site_label
_atom_site_type_symbol
_atom_site_fract_x
_atom_site_fract_y
_atom_site_fract_z
C1 C 1.2638(24) 0.9263(26) 0.96663(38)
C2 C 1.2948(24) 0.8920(20) 0.98372(33)
H1 H 1.2509(24) 0.9483(20) 0.99103(33)
H2 H 1.3891(24) 0.9031(20) 0.98462(33)
H3 H 1.2721(24) 0.8012(20) 0.98574(33)
C3 C 1.1118(22) 0.9281(18) 0.96549(30)
H4 H 1.0718(22) 0.9800(18) 0.97352(30)
H5 H 1.0800(22) 0.8385(18) 0.96610(30)
H6 H 1.0887(22) 0.9651(18) 0.95565(30)
C4 C 1.3297(21) 0.8334(19) 0.95466(27)
H7 H 1.4244(21) 0.8341(19) 0.95582(27)
H8 H 1.3065(21) 0.8704(19) 0.94483(27)
H9 H 1.2978(21) 0.7439(19) 0.95528(27)
O1 O 1.3072(12) 1.0650(14) 0.96547(18)
C5 C 1.2919(20) 1.1308(22) 0.95141(31)
O2 O 1.2361(13) 1.0975(15) 0.94010(19)
N1 N 1.3483(14) 1.2589(17) 0.95436(21)
H10 H 1.3647(14) 1.2900(17) 0.96389(21)
C6 C 1.3691(22) 1.3422(20) 0.94008(27)
H11 H 1.4234(22) 1.2882(20) 0.93350(27)
C7 C 1.2458(22) 1.3851(21) 0.93093(31)
O3 O 1.2389(13) 1.3755(14) 0.91793(17)
C8 C 1.4666(18) 1.4537(19) 0.94516(31)
H12 H 1.4205(18) 1.5011(19) 0.95313(31)
C9 C 1.4816(20) 1.5467(20) 0.93056(28)
H13 H 1.3957(20) 1.5752(20) 0.92710(28)
H14 H 1.5243(20) 1.4970(20) 0.92253(28)
H15 H 1.5345(20) 1.6229(20) 0.93308(28)
C10 C 1.6033(18) 1.4059(19) 0.95139(29)
H16 H 1.5912(18) 1.3513(19) 0.96034(29)
H17 H 1.6569(18) 1.4813(19) 0.95402(29)
H18 H 1.6467(18) 1.3554(19) 0.94347(29)
N2 N 1.1515(16) 1.4420(14) 0.94115(21)
H19 H 1.1574(16) 1.4426(14) 0.95150(21)
C11 C 1.0411(21) 1.4958(21) 0.93216(24)
H20 H 1.0784(21) 1.5534(21) 0.92449(24)
C12 C 0.9590(19) 1.3970(22) 0.92409(27)
O4 O 0.9076(12) 1.4065(12) 0.91200(18)
C13 C 0.9615(19) 1.5858(20) 0.94352(27)
H21 H 0.8870(19) 1.6291(20) 0.93881(27)
H22 H 1.0207(19) 1.6513(20) 0.94766(27)
H23 H 0.9310(19) 1.5291(20) 0.95167(27)
N3 N 0.9436(14) 1.2816(17) 0.93328(20)
H24 H 0.9726(14) 1.2779(17) 0.94308(20)
C14 C 0.8684(18) 1.1657(23) 0.92500(28)
H25 H 0.7867(18) 1.2025(23) 0.92124(28)
C15 C 0.9324(26) 1.1154(18) 0.91137(31)
O5 O 0.8690(13) 1.0775(13) 0.90001(20)
C16 C 0.8296(23) 1.0739(20) 0.93945(29)
H26 H 0.9085(23) 1.0447(20) 0.94462(29)
H27 H 0.7750(23) 1.1212(20) 0.94666(29)
C17 C 0.7489(24) 0.9587(25) 0.93450(34)
H28 H 0.7989(24) 0.9084(25) 0.92711(34)
C18 C 0.7258(21) 0.8752(20) 0.95055(36)
H29 H 0.8105(21) 0.8493(20) 0.95463(36)
H30 H 0.6716(21) 0.7978(20) 0.94909(36)
H31 H 0.6829(21) 0.9344(20) 0.95763(36)
C19 C 0.6147(18) 0.9968(18) 0.92872(27)
H32 H 0.6191(18) 1.0416(18) 0.91897(27)
H33 H 0.5742(18) 1.0539(18) 0.93621(27)
H34 H 0.5629(18) 0.9174(18) 0.92767(27)
N4 N 1.0645(19) 1.0962(13) 0.91253(21)
H35 H 1.1051(19) 1.1156(13) 0.92148(21)
C20 C 1.1405(19) 1.0493(18) 0.90022(29)
C21 C 1.1109(18) 1.1302(19) 0.88507(29)
O6 O 1.0772(13) 1.0851(11) 0.87231(19)
C22 C 1.2944(18) 1.0756(18) 0.90289(27)
H36 H 1.3237(18) 1.0303(18) 0.91200(27)
H37 H 1.3139(18) 1.1685(18) 0.90380(27)
H38 H 1.3394(18) 1.0400(18) 0.89407(27)
C23 C 1.1135(18) 0.9032(16) 0.89595(26)
H39 H 1.0196(18) 0.8911(16) 0.89474(26)
H40 H 1.1456(18) 0.8451(16) 0.90389(26)
H41 H 1.1574(18) 0.8828(16) 0.88642(26)
N5 N 1.1024(12) 1.2620(12) 0.88769(20)
H42 H 1.1152(12) 1.2974(12) 0.89710(20)
C24 C 1.0713(21) 1.3520(17) 0.87299(24)
H43 H 1.1285(21) 1.3275(17) 0.86462(24)
C25 C 0.9243(22) 1.3461(19) 0.86863(35)
O7 O 0.8956(14) 1.3392(15) 0.85563(18)
C26 C 1.1065(19) 1.5015(19) 0.87860(25)
H44 H 1.0536(19) 1.5269(19) 0.88731(25)
C27 C 1.0693(20) 1.5889(17) 0.86484(26)
H45 H 1.0867(20) 1.6806(17) 0.86703(26)
H46 H 0.9776(20) 1.5781(17) 0.86213(26)
H47 H 1.1241(20) 1.5605(17) 0.85641(26)
C28 C 1.2552(19) 1.5142(17) 0.88235(27)
H48 H 1.2771(19) 1.6017(17) 0.88588(27)
H49 H 1.3045(19) 1.4948(17) 0.87316(27)
H50 H 1.2772(19) 1.4507(17) 0.89019(27)
N6 N 0.8359(17) 1.3336(11) 0.88151(21)
H51 H 0.8665(17) 1.3302(11) 0.89125(21)
C29 C 0.6925(22) 1.3269(18) 0.87759(27)
H52 H 0.6679(22) 1.4046(18) 0.87187(27)
C30 C 0.6560(22) 1.2050(21) 0.86762(29)
O8 O 0.5598(14) 1.2113(12) 0.85865(20)
C31 C 0.6186(17) 1.3312(18) 0.89242(26)
H53 H 0.6398(17) 1.4105(18) 0.89803(26)
H54 H 0.6451(17) 1.2550(18) 0.89831(26)
H55 H 0.5247(17) 1.3277(18) 0.89061(26)
N7 N 0.7273(13) 1.0952(15) 0.86957(18)
H56 H 0.7913(13) 1.0896(15) 0.87677(18)
C32 C 0.7005(17) 0.9797(18) 0.85904(30)
H57 H 0.6059(17) 0.9697(18) 0.85858(30)
C33 C 0.7453(24) 0.9921(24) 0.84434(28)
O9 O 0.6890(13) 0.9215(12) 0.83369(19)
C34 C 0.7538(16) 0.8558(17) 0.86828(22)
H58 H 0.7407(16) 0.7795(17) 0.86184(22)
H59 H 0.8479(16) 0.8679(17) 0.86927(22)
C35 C 0.7028(22) 0.8165(20) 0.88406(27)
H60 H 0.7162(22) 0.8934(20) 0.89039(27)
C36 C 0.7626(19) 0.7069(17) 0.89198(30)
H61 H 0.8572(19) 0.7175(17) 0.89220(30)
H62 H 0.7408(19) 0.6241(17) 0.88714(30)
H63 H 0.7288(19) 0.7075(17) 0.90232(30)
C37 C 0.5531(20) 0.7884(22) 0.88231(34)
H64 H 0.5109(20) 0.8586(22) 0.87666(34)
H65 H 0.5212(20) 0.7882(22) 0.89273(34)
H66 H 0.5331(20) 0.7048(22) 0.87755(34)
N8 N 0.8394(16) 1.0805(16) 0.83997(25)
H67 H 0.8914(16) 1.1216(16) 0.84692(25)
C38 C 0.8619(20) 1.1010(17) 0.82379(27)
H68 H 0.7761(20) 1.1232(17) 0.81973(27)
C39 C 0.9101(21) 0.9848(23) 0.81463(30)
O10 O 0.8777(12) 0.9768(12) 0.80114(18)
C40 C 0.9536(23) 1.2306(20) 0.82188(31)
H69 H 0.9170(23) 1.2998(20) 0.82818(31)
C41 C 0.9468(23) 1.2812(19) 0.80663(24)
H70 H 1.0050(23) 1.3560(19) 0.80557(24)
H71 H 0.8573(23) 1.3082(19) 0.80452(24)
H72 H 0.9726(23) 1.2132(19) 0.79948(24)
C42 C 1.0957(20) 1.2042(19) 0.82698(26)
H73 H 1.1507(20) 1.2801(19) 0.82497(26)
H74 H 1.1341(20) 1.1272(19) 0.82224(26)
H75 H 1.0893(20) 1.1905(19) 0.83790(26)
N9 N 0.9783(15) 0.8891(15) 0.82245(19)
H76 H 0.9978(15) 0.8941(15) 0.83255(19)
C43 C 1.0194(20) 0.7742(23) 0.81252(26)
H77 H 1.0801(20) 0.8003(23) 0.80456(26)
C44 C 0.8959(24) 0.7028(20) 0.80501(25)
O11 O 0.8999(13) 0.6541(13) 0.79250
C45 C 1.0869(24) 0.6760(21) 0.82290(27)
H78 H 1.1682(24) 0.7112(21) 0.82695(27)
H79 H 1.1043(24) 0.5932(21) 0.81782(27)
H80 H 1.0253(24) 0.6619(21) 0.83117(27)
N10 N 0.7880(20) 0.7000(14) 0.81458(20)
H81 H 0.7921(20) 0.7226(14) 0.82460(20)
C46 C 0.6567(27) 0.6409(19) 0.80857(30)
H82 H 0.6775(27) 0.5553(19) 0.80438(30)
C47 C 0.6114(23) 0.7217(27) 0.79636(38)
O12 O 0.5557(14) 0.6768(15) 0.78402(22)
C48 C 0.5486(23) 0.6226(23) 0.82012(27)
H83 H 0.5351(23) 0.7055(23) 0.82534(27)
H84 H 0.4684(23) 0.6024(23) 0.81464(27)
C49 C 0.5643(30) 0.5256(24) 0.83030(32)
H85 H 0.6467(30) 0.5393(24) 0.83560(32)
C50 C 0.4555(21) 0.5183(20) 0.84105(33)
H86 H 0.4501(21) 0.5977(20) 0.84714(33)
H87 H 0.4664(21) 0.4431(20) 0.84771(33)
H88 H 0.3756(21) 0.5083(20) 0.83515(33)
C51 C 0.5638(24) 0.3803(19) 0.82234(36)
H89 H 0.6357(24) 0.3769(19) 0.81509(36)
H90 H 0.4810(24) 0.3733(19) 0.81694(36)
H91 H 0.5718(24) 0.3081(19) 0.82950(36)
N11 N 0.6000(17) 0.8590(17) 0.79842(31)
H92 H 0.6230(17) 0.8921(17) 0.80767(31)
C52 C 0.5477(25) 0.9497(28) 0.78521(46)
C53 C 0.6253(26) 0.9329(21) 0.77037(37)
O13 O 0.5720(15) 0.9660(16) 0.75727(24)
C54 C 0.5686(20) 1.0927(20) 0.79356(30)
H93 H 0.6614(20) 1.1102(20) 0.79498(30)
H94 H 0.5247(20) 1.0934(20) 0.80338(30)
H95 H 0.5307(20) 1.1598(20) 0.78706(30)
C55 C 0.3991(19) 0.9245(22) 0.78365(35)
H96 H 0.3862(19) 0.8394(22) 0.77891(35)
H97 H 0.3619(19) 0.9923(22) 0.77719(35)
H98 H 0.3559(19) 0.9259(22) 0.79351(35)
N12 N 0.7492(18) 0.8944(15) 0.77158(25)
H99 H 0.7891(18) 0.8793(15) 0.78069(25)
C56 C 0.8270(21) 0.8758(20) 0.75720(28)
H100 H 0.8099(21) 0.9506(20) 0.75065(28)
C57 C 0.8011(21) 0.7469(22) 0.74866(32)
O14 O 0.7768(18) 0.7374(17) 0.73537(21)
C58 C 0.9753(21) 0.8806(22) 0.76273(31)
H101 H 0.9900(21) 0.8217(22) 0.77126(31)
C59 C 1.0112(23) 1.0260(21) 0.76617(32)
H102 H 1.1014(23) 1.0337(21) 0.76961(32)
H103 H 0.9524(23) 1.0528(21) 0.77430(32)
H104 H 0.9978(23) 1.0821(21) 0.75736(32)
C60 C 1.0686(21) 0.8346(24) 0.74899(34)
H105 H 1.1616(21) 0.8342(24) 0.75139(34)
H106 H 1.0522(21) 0.8955(24) 0.74070(34)
H107 H 1.0415(21) 0.7471(24) 0.74597(34)
N13 N 0.7975(12) 0.6413(17) 0.75917(21)
H108 H 0.8065(12) 0.6535(17) 0.76939(21)
C61 C 0.7766(17) 0.5055(19) 0.75246(21)
H109 H 0.8374(17) 0.4970(19) 0.74400(21)
C62 C 0.6437(20) 0.4745(21) 0.74626(29)
O15 O 0.6249(14) 0.4047(13) 0.73511(19)
C63 C 0.8248(18) 0.4044(17) 0.76473(25)
H110 H 0.8154(18) 0.3151(17) 0.76103(25)
H111 H 0.7695(18) 0.4168(17) 0.77362(25)
H112 H 0.9157(18) 0.4203(17) 0.76748(25)
N14 N 0.5435(15) 0.5244(13) 0.75538(19)
H113 H 0.5617(15) 0.5597(13) 0.76467(19)
C64 C 0.4054(19) 0.5096(22) 0.74957(29)
H114 H 0.3940(19) 0.4219(22) 0.74549(29)
C65 C 0.3723(23) 0.6054(25) 0.73755(33)
O16 O 0.3069(20) 0.5876(20) 0.72561(27)
C66 C 0.3178(18) 0.5263(22) 0.76325(30)
H115 H 0.3314(18) 0.6147(22) 0.76705(30)
H116 H 0.2276(18) 0.5218(22) 0.75974(30)
C67 C 0.3239(24) 0.4326(27) 0.77728(39)
H117 H 0.4155(24) 0.4217(27) 0.78001(39)
C68 C 0.2530(22) 0.4742(27) 0.79114(32)
H118 H 0.2876(22) 0.5580(27) 0.79452(32)
H119 H 0.2624(22) 0.4100(27) 0.79924(32)
H120 H 0.1608(22) 0.4838(27) 0.78859(32)
C69 C 0.2834(25) 0.3001(24) 0.77159(35)
H121 H 0.2865(25) 0.2375(24) 0.77992(35)
H122 H 0.3363(25) 0.2680(24) 0.76318(35)
H123 H 0.1933(25) 0.3109(24) 0.76824(35)
O17 O 0.4141(15) 0.7239(19) 0.74171(19)
C70 C 0.3936(21) 0.8268(24) 0.73056(31)
H124 H 0.4225(21) 0.9106(24) 0.73462(31)
H125 H 0.3018(21) 0.8326(24) 0.72772(31)
H126 H 0.4456(21) 0.8048(24) 0.72165(31)
O18 O 0.9680(13) 1.2659(14) 0.96681(19)
O19 O 0.5503(18) 0.1486(16) 0.73030(24)
C71 C 1.2832(33) 0.9306(32) 0.84550(48)
H127 H 1.2984(33) 0.9188(32) 0.83467(48)
H128 H 1.3362(33) 0.8683(32) 0.85118(48)
H129 H 1.3072(33) 1.0193(32) 0.84842(48)
O20 O 1.1414(18) 0.9146(17) 0.84935(25)
H130 H 1.159(13) 0.988(14) 0.8591(17)
loop_
_geom_bond_atom_site_label_1
_geom_bond_atom_site_label_2
_geom_bond_site_symmetry_1
_geom_bond_site_symmetry_2
C1 C2 1_555 1_555
C2 H1 1_555 1_555
H2 C2 1_555 1_555
H3 C2 1_555 1_555
C3 C1 1_555 1_555
H4 C3 1_555 1_555
H5 C3 1_555 1_555
H6 C3 1_555 1_555
C4 C1 1_555 1_555
H7 C4 1_555 1_555
H8 C4 1_555 1_555
H9 C4 1_555 1_555
O1 C1 1_555 1_555
C5 O1 1_555 1_555
O2 C5 1_555 1_555
N1 C5 1_555 1_555
H10 N1 1_555 1_555
C6 N1 1_555 1_555
H11 C6 1_555 1_555
C7 C6 1_555 1_555
O3 C7 1_555 1_555
C8 C6 1_555 1_555
H12 C8 1_555 1_555
C9 C8 1_555 1_555
H13 C9 1_555 1_555
H14 C9 1_555 1_555
H15 C9 1_555 1_555
C10 C8 1_555 1_555
H16 C10 1_555 1_555
H17 C10 1_555 1_555
H18 C10 1_555 1_555
N2 C7 1_555 1_555
H19 N2 1_555 1_555
C11 N2 1_555 1_555
H20 C11 1_555 1_555
C12 C11 1_555 1_555
O4 C12 1_555 1_555
C13 C11 1_555 1_555
H21 C13 1_555 1_555
H22 C13 1_555 1_555
H23 C13 1_555 1_555
N3 C12 1_555 1_555
H24 N3 1_555 1_555
C14 N3 1_555 1_555
H25 C14 1_555 1_555
C15 C14 1_555 1_555
O5 C15 1_555 1_555
C16 C14 1_555 1_555
H26 C16 1_555 1_555
H27 C16 1_555 1_555
C17 C16 1_555 1_555
H28 C17 1_555 1_555
C18 C17 1_555 1_555
H29 C18 1_555 1_555
H30 C18 1_555 1_555
H31 C18 1_555 1_555
C19 C17 1_555 1_555
H32 C19 1_555 1_555
H33 C19 1_555 1_555
H34 C19 1_555 1_555
N4 C15 1_555 1_555
H35 N4 1_555 1_555
C20 N4 1_555 1_555
C21 C20 1_555 1_555
O6 C21 1_555 1_555
C22 C20 1_555 1_555
H36 C22 1_555 1_555
H37 C22 1_555 1_555
H38 C22 1_555 1_555
C23 C20 1_555 1_555
H39 C23 1_555 1_555
H40 C23 1_555 1_555
H41 C23 1_555 1_555
N5 C21 1_555 1_555
H42 N5 1_555 1_555
C24 N5 1_555 1_555
H43 C24 1_555 1_555
C25 C24 1_555 1_555
O7 C25 1_555 1_555
C26 C24 1_555 1_555
H44 C26 1_555 1_555
C27 C26 1_555 1_555
H45 C27 1_555 1_555
H46 C27 1_555 1_555
H47 C27 1_555 1_555
C28 C26 1_555 1_555
H48 C28 1_555 1_555
H49 C28 1_555 1_555
H50 C28 1_555 1_555
N6 C25 1_555 1_555
H51 N6 1_555 1_555
C29 N6 1_555 1_555
H52 C29 1_555 1_555
C30 C29 1_555 1_555
O8 C30 1_555 1_555
C31 C29 1_555 1_555
H53 C31 1_555 1_555
H54 C31 1_555 1_555
H55 C31 1_555 1_555
N7 C30 1_555 1_555
H56 N7 1_555 1_555
C32 N7 1_555 1_555
H57 C32 1_555 1_555
C33 C32 1_555 1_555
O9 C33 1_555 1_555
C34 C32 1_555 1_555
H58 C34 1_555 1_555
H59 C34 1_555 1_555
C35 C34 1_555 1_555
H60 C35 1_555 1_555
C36 C35 1_555 1_555
H61 C36 1_555 1_555
H62 C36 1_555 1_555
H63 C36 1_555 1_555
C37 C35 1_555 1_555
H64 C37 1_555 1_555
H65 C37 1_555 1_555
H66 C37 1_555 1_555
N8 C33 1_555 1_555
H67 N8 1_555 1_555
C38 N8 1_555 1_555
H68 C38 1_555 1_555
C39 C38 1_555 1_555
O10 C39 1_555 1_555
C40 C38 1_555 1_555
H69 C40 1_555 1_555
C41 C40 1_555 1_555
H70 C41 1_555 1_555
H71 C41 1_555 1_555
H72 C41 1_555 1_555
C42 C40 1_555 1_555
H73 C42 1_555 1_555
H74 C42 1_555 1_555
H75 C42 1_555 1_555
N9 C39 1_555 1_555
H76 N9 1_555 1_555
C43 N9 1_555 1_555
H77 C43 1_555 1_555
C44 C43 1_555 1_555
O11 C44 1_555 1_555
C45 C43 1_555 1_555
H78 C45 1_555 1_555
H79 C45 1_555 1_555
H80 C45 1_555 1_555
N10 C44 1_555 1_555
H81 N10 1_555 1_555
C46 N10 1_555 1_555
H82 C46 1_555 1_555
C47 C46 1_555 1_555
O12 C47 1_555 1_555
C48 C46 1_555 1_555
H83 C48 1_555 1_555
H84 C48 1_555 1_555
C49 C48 1_555 1_555
H85 C49 1_555 1_555
C50 C49 1_555 1_555
H86 C50 1_555 1_555
H87 C50 1_555 1_555
H88 C50 1_555 1_555
C51 C49 1_555 1_555
H89 C51 1_555 1_555
H90 C51 1_555 1_555
H91 C51 1_555 1_555
N11 C47 1_555 1_555
H92 N11 1_555 1_555
C52 N11 1_555 1_555
C53 C52 1_555 1_555
O13 C53 1_555 1_555
C54 C52 1_555 1_555
H93 C54 1_555 1_555
H94 C54 1_555 1_555
H95 C54 1_555 1_555
C55 C52 1_555 1_555
H96 C55 1_555 1_555
H97 C55 1_555 1_555
H98 C55 1_555 1_555
N12 C53 1_555 1_555
H99 N12 1_555 1_555
C56 N12 1_555 1_555
H100 C56 1_555 1_555
C57 C56 1_555 1_555
O14 C57 1_555 1_555
C58 C56 1_555 1_555
H101 C58 1_555 1_555
C59 C58 1_555 1_555
H102 C59 1_555 1_555
H103 C59 1_555 1_555
H104 C59 1_555 1_555
C60 C58 1_555 1_555
H105 C60 1_555 1_555
H106 C60 1_555 1_555
H107 C60 1_555 1_555
N13 C57 1_555 1_555
H108 N13 1_555 1_555
C61 N13 1_555 1_555
H109 C61 1_555 1_555
C62 C61 1_555 1_555
O15 C62 1_555 1_555
C63 C61 1_555 1_555
H110 C63 1_555 1_555
H111 C63 1_555 1_555
H112 C63 1_555 1_555
N14 C62 1_555 1_555
H113 N14 1_555 1_555
C64 N14 1_555 1_555
H114 C64 1_555 1_555
C65 C64 1_555 1_555
O16 C65 1_555 1_555
C66 C64 1_555 1_555
H115 C66 1_555 1_555
H116 C66 1_555 1_555
C67 C66 1_555 1_555
H117 C67 1_555 1_555
C68 C67 1_555 1_555
H118 C68 1_555 1_555
H119 C68 1_555 1_555
H120 C68 1_555 1_555
C69 C67 1_555 1_555
H121 C69 1_555 1_555
H122 C69 1_555 1_555
H123 C69 1_555 1_555
O17 C65 1_555 1_555
C70 O17 1_555 1_555
H124 C70 1_555 1_555
H125 C70 1_555 1_555
H126 C70 1_555 1_555
C71 H127 1_555 1_555
H128 C71 1_555 1_555
H129 C71 1_555 1_555
O20 C71 1_555 1_555
H130 O20 1_555 1_555

#END
