
#######################################################################
#
#                 Cambridge Crystallographic Data Centre
#                                CCDC 
#
#######################################################################
#
# If this CIF has been generated from an entry in the Cambridge 
# Structural Database, then it will include bibliographic, chemical, 
# crystal, experimental, refinement or atomic coordinate data resulting 
# from the CCDC's data processing and validation procedures.
#
#######################################################################

data_NAHXIF
_chemical_formula_moiety         'C38 H44 O10,C12 H14 N2 2+,H2 O1,2(F6 P1 1-)'
_chemical_name_systematic        
"(2)-(1,1':3,3'-bis(3,6-Dioxaoctane-1,8-dioxy)bis(2-benzoylbenzene) N,N'-dimethyl-4,4'-bipyridinium) pseudorotaxane bis(hexafluorophosphate) monohydrate"
_symmetry_cell_setting           orthorhombic
_symmetry_space_group_name_H-M   'P b c n'
_symmetry_Int_Tables_number      60
_space_group_name_Hall           '-P 2n 2ab'
loop_
_symmetry_equiv_pos_site_id
_symmetry_equiv_pos_as_xyz
1 x,y,z
2 1/2-x,1/2-y,1/2+z
3 1/2+x,1/2-y,-z
4 -x,y,1/2-z
5 -x,-y,-z
6 1/2+x,1/2+y,1/2-z
7 1/2-x,1/2+y,z
8 x,-y,1/2+z
_cell_length_a                   15.2698(6)
_cell_length_b                   14.7454(7)
_cell_length_c                   25.2206(13)
_cell_angle_alpha                90
_cell_angle_beta                 90
_cell_angle_gamma                90
_cell_volume                     5678.65
_exptl_crystal_colour            yellow
_exptl_crystal_description       block
_cell_formula_units_Z            4
loop_
_atom_site_label
_atom_site_type_symbol
_atom_site_fract_x
_atom_site_fract_y
_atom_site_fract_z
P1 P 0.18879(5) 0.24644(5) 0.30934(3)
F1 F 0.17961(16) 0.35358(14) 0.30694(10)
F2 F 0.12594(15) 0.23608(14) 0.25892(8)
F3 F 0.10760(15) 0.23870(19) 0.34758(9)
F4 F 0.19934(15) 0.13945(13) 0.31098(9)
F5 F 0.25286(14) 0.25673(12) 0.35909(7)
F6 F 0.27206(15) 0.25344(16) 0.27112(8)
O1 O 0.12566(11) 0.87302(12) 0.03256(7)
O2 O 0.02125(12) 0.73440(12) 0.00729(8)
O3 O 0.17061(13) 0.90908(13) 0.13155(7)
O4 O 0.16512(13) 1.09994(14) 0.15152(8)
O5 O 0.11416(13) 1.25168(13) 0.07664(8)
C1 C 0.27437(17) 0.9340(2) -0.06775(11)
H1 H 0.2633 0.8859 -0.0907
C2 C 0.31617(18) 1.0113(2) -0.08631(12)
H2 H 0.3336 1.0146 -0.1216
C3 C 0.33200(19) 1.0833(2) -0.05265(13)
H3 H 0.3589 1.1355 -0.0654
C4 C 0.30771(19) 1.0776(2) 0.00002(13)
H4 H 0.3191 1.1258 0.0228
C5 C 0.26633(17) 1.00013(19) 0.01910(11)
H5 H 0.2503 0.9966 0.0546
C6 C 0.24887(17) 0.92830(18) -0.01462(11)
C7 C 0.20411(18) 0.84475(19) 0.00606(12)
H6 H 0.1899 0.8042 -0.0230
H7 H 0.2422 0.8129 0.0306
C8 C 0.09577(17) 0.81701(17) 0.07219(11)
C9 C 0.11535(17) 0.83751(18) 0.12475(11)
C10 C 0.07921(19) 0.7857(2) 0.16585(12)
H8 H 0.0923 0.7989 0.2010
C11 C 0.0239(2) 0.7150(2) 0.15346(13)
H9 H -0.0001 0.6807 0.1807
C12 C 0.0031(2) 0.6936(2) 0.10126(12)
H10 H -0.0341 0.6453 0.0938
C13 C 0.03867(18) 0.74535(18) 0.06023(11)
C14 C -0.04275(19) 0.6673(2) -0.00614(12)
H11 H -0.0964 0.6783 0.0135
H12 H -0.0213 0.6075 0.0032
C15 C 0.1765(2) 0.9485(2) 0.18348(11)
H13 H 0.2097 0.9092 0.2069
H14 H 0.1184 0.9566 0.1983
C16 C 0.2213(2) 1.0381(2) 0.17792(12)
H15 H 0.2363 1.0615 0.2127
H16 H 0.2750 1.0307 0.1578
C17 C 0.20775(19) 1.1843(2) 0.14352(12)
H17 H 0.2494 1.1788 0.1147
H18 H 0.2397 1.2009 0.1753
C18 C 0.1423(2) 1.2564(2) 0.13071(12)
H19 H 0.0919 1.2498 0.1538
H20 H 0.1681 1.3154 0.1373
C19 C 0.06060(19) 1.32837(19) 0.06433(12)
H21 H 0.0900 1.3835 0.0755
H22 H 0.0057 1.3240 0.0835
O1D O -0.12566(11) 1.12698(12) -0.03256(7)
O2D O -0.02125(12) 1.26560(12) -0.00729(8)
O3D O -0.17061(13) 1.09092(13) -0.13155(7)
O4D O -0.16512(13) 0.90006(14) -0.15152(8)
O5D O -0.11416(13) 0.74832(13) -0.07664(8)
C1D C -0.27437(17) 1.0660(2) 0.06775(11)
H1D H -0.2633 1.1141 0.0907
C2D C -0.31617(18) 0.9887(2) 0.08631(12)
H2D H -0.3336 0.9854 0.1216
C3D C -0.33200(19) 0.9167(2) 0.05265(13)
H3D H -0.3589 0.8645 0.0654
C4D C -0.30771(19) 0.9224(2) -0.00002(13)
H4D H -0.3191 0.8742 -0.0228
C5D C -0.26633(17) 0.99987(19) -0.01910(11)
H5D H -0.2503 1.0034 -0.0546
C6D C -0.24887(17) 1.07170(18) 0.01462(11)
C7D C -0.20411(18) 1.15525(19) -0.00606(12)
H6D H -0.1899 1.1958 0.0230
H7D H -0.2422 1.1871 -0.0306
C8D C -0.09577(17) 1.18299(17) -0.07219(11)
C9D C -0.11535(17) 1.16249(18) -0.12475(11)
C10D C -0.07921(19) 1.2143(2) -0.16585(12)
H8D H -0.0923 1.2011 -0.2010
C11D C -0.0239(2) 1.2850(2) -0.15346(13)
H9D H 0.0001 1.3193 -0.1807
C12D C -0.0031(2) 1.3064(2) -0.10126(12)
H10D H 0.0341 1.3547 -0.0938
C13D C -0.03867(18) 1.25465(18) -0.06023(11)
C14D C 0.04275(19) 1.3327(2) 0.00614(12)
H11D H 0.0964 1.3217 -0.0135
H12D H 0.0213 1.3925 -0.0032
C15D C -0.1765(2) 1.0515(2) -0.18348(11)
H13D H -0.2097 1.0908 -0.2069
H14D H -0.1184 1.0434 -0.1983
C16D C -0.2213(2) 0.9619(2) -0.17792(12)
H15D H -0.2363 0.9385 -0.2127
H16D H -0.2750 0.9693 -0.1578
C17D C -0.20775(19) 0.8157(2) -0.14352(12)
H17D H -0.2494 0.8212 -0.1147
H18D H -0.2397 0.7991 -0.1753
C18D C -0.1423(2) 0.7436(2) -0.13071(12)
H19D H -0.0919 0.7502 -0.1538
H20D H -0.1681 0.6846 -0.1373
C19D C -0.06060(19) 0.67163(19) -0.06433(12)
H21D H -0.0900 0.6165 -0.0755
H22D H -0.0057 0.6760 -0.0835
O6 O 0.0000 0.0883(2) 0.2500
H23 H 0.047(2) 0.115(3) 0.246(3)
H23C H -0.047(2) 0.115(3) 0.254(3)
N1 N -0.08824(14) 0.95756(15) 0.12598(9)
C20 C -0.11211(17) 0.90551(18) 0.08472(11)
H24 H -0.1512 0.8580 0.0900
C21 C -0.07944(16) 0.92173(17) 0.03484(10)
H25 H -0.0971 0.8857 0.0065
C22 C -0.01969(15) 0.99219(17) 0.02643(10)
C23 C 0.00215(19) 1.04544(19) 0.06993(11)
H26 H 0.0405 1.0939 0.0657
C24 C -0.03225(18) 1.02730(19) 0.11911(11)
H27 H -0.0168 1.0634 0.1479
C25 C -0.12371(19) 0.9382(2) 0.17937(11)
H28 H -0.1834 0.9584 0.1813
H29 H -0.0894 0.9694 0.2055
H30 H -0.1213 0.8741 0.1859
N1D N 0.08824(14) 1.04244(15) -0.12598(9)
C20D C 0.11211(17) 1.09449(18) -0.08472(11)
H24D H 0.1512 1.1420 -0.0900
C21D C 0.07944(16) 1.07827(17) -0.03484(10)
H25D H 0.0971 1.1143 -0.0065
C22D C 0.01969(15) 1.00781(17) -0.02643(10)
C23D C -0.00215(19) 0.95456(19) -0.06993(11)
H26D H -0.0405 0.9061 -0.0657
C24D C 0.03225(18) 0.97270(19) -0.11911(11)
H27D H 0.0168 0.9366 -0.1479
C25D C 0.12371(19) 1.0618(2) -0.17937(11)
H28D H 0.1834 1.0416 -0.1813
H29D H 0.0894 1.0306 -0.2055
H30D H 0.1213 1.1259 -0.1859
loop_
_geom_bond_atom_site_label_1
_geom_bond_atom_site_label_2
_geom_bond_site_symmetry_1
_geom_bond_site_symmetry_2
P1 F1 1_555 1_555
F2 P1 1_555 1_555
F3 P1 1_555 1_555
F4 P1 1_555 1_555
F5 P1 1_555 1_555
F6 P1 1_555 1_555
O1 C7 1_555 1_555
O2 C13 1_555 1_555
O3 C9 1_555 1_555
O4 C16 1_555 1_555
O5 C18 1_555 1_555
C1 H1 1_555 1_555
C2 C1 1_555 1_555
H2 C2 1_555 1_555
C3 C2 1_555 1_555
H3 C3 1_555 1_555
C4 C3 1_555 1_555
H4 C4 1_555 1_555
C5 C4 1_555 1_555
H5 C5 1_555 1_555
C6 C1 1_555 1_555
C7 C6 1_555 1_555
H6 C7 1_555 1_555
H7 C7 1_555 1_555
C8 O1 1_555 1_555
C9 C8 1_555 1_555
C10 C9 1_555 1_555
H8 C10 1_555 1_555
C11 C10 1_555 1_555
H9 C11 1_555 1_555
C12 C11 1_555 1_555
H10 C12 1_555 1_555
C13 C8 1_555 1_555
C14 O2 1_555 1_555
H11 C14 1_555 1_555
H12 C14 1_555 1_555
C15 O3 1_555 1_555
H13 C15 1_555 1_555
H14 C15 1_555 1_555
C16 C15 1_555 1_555
H15 C16 1_555 1_555
H16 C16 1_555 1_555
C17 O4 1_555 1_555
H17 C17 1_555 1_555
H18 C17 1_555 1_555
C18 C17 1_555 1_555
H19 C18 1_555 1_555
H20 C18 1_555 1_555
C19 O5 1_555 1_555
H21 C19 1_555 1_555
H22 C19 1_555 1_555
O6 H23 1_555 1_555
N1 C20 1_555 1_555
C20 H24 1_555 1_555
C21 C20 1_555 1_555
H25 C21 1_555 1_555
C22 C21 1_555 1_555
C23 C22 1_555 1_555
H26 C23 1_555 1_555
C24 N1 1_555 1_555
H27 C24 1_555 1_555
C25 N1 1_555 1_555
H28 C25 1_555 1_555
H29 C25 1_555 1_555
H30 C25 1_555 1_555
O1D C7D 1_555 1_555
O2D C13D 1_555 1_555
O3D C9D 1_555 1_555
O4D C16D 1_555 1_555
O5D C18D 1_555 1_555
C1D H1D 1_555 1_555
C2D C1D 1_555 1_555
H2D C2D 1_555 1_555
C3D C2D 1_555 1_555
H3D C3D 1_555 1_555
C4D C3D 1_555 1_555
H4D C4D 1_555 1_555
C5D C4D 1_555 1_555
H5D C5D 1_555 1_555
C6D C1D 1_555 1_555
C7D C6D 1_555 1_555
H6D C7D 1_555 1_555
H7D C7D 1_555 1_555
C8D O1D 1_555 1_555
C9D C8D 1_555 1_555
C10D C9D 1_555 1_555
H8D C10D 1_555 1_555
C11D C10D 1_555 1_555
H9D C11D 1_555 1_555
C12D C11D 1_555 1_555
H10D C12D 1_555 1_555
C13D C8D 1_555 1_555
C14D C19 1_555 1_555
H11D C14D 1_555 1_555
H12D C14D 1_555 1_555
C15D O3D 1_555 1_555
H13D C15D 1_555 1_555
H14D C15D 1_555 1_555
C16D C15D 1_555 1_555
H15D C16D 1_555 1_555
H16D C16D 1_555 1_555
C17D O4D 1_555 1_555
H17D C17D 1_555 1_555
H18D C17D 1_555 1_555
C18D C17D 1_555 1_555
H19D C18D 1_555 1_555
H20D C18D 1_555 1_555
C19D C14 1_555 1_555
H21D C19D 1_555 1_555
H22D C19D 1_555 1_555
H23C O6 1_555 1_555
N1D C20D 1_555 1_555
C20D H24D 1_555 1_555
C21D C20D 1_555 1_555
H25D C21D 1_555 1_555
C22D C22 1_555 1_555
C23D C22D 1_555 1_555
H26D C23D 1_555 1_555
C24D N1D 1_555 1_555
H27D C24D 1_555 1_555
C25D N1D 1_555 1_555
H28D C25D 1_555 1_555
H29D C25D 1_555 1_555
H30D C25D 1_555 1_555
C5 C6 1_555 1_555
C12 C13 1_555 1_555
C23 C24 1_555 1_555
O2D C14D 1_555 1_555
O5D C19D 1_555 1_555
C5D C6D 1_555 1_555
C12D C13D 1_555 1_555
C21D C22D 1_555 1_555
C23D C24D 1_555 1_555

#END
