
#######################################################################
#
#                 Cambridge Crystallographic Data Centre
#                                CCDC 
#
#######################################################################
#
# If this CIF has been generated from an entry in the Cambridge 
# Structural Database, then it will include bibliographic, chemical, 
# crystal, experimental, refinement or atomic coordinate data resulting 
# from the CCDC's data processing and validation procedures.
#
#######################################################################

data_NAHXIE
_chemical_formula_moiety         'C24 H32 O2 P2,C18 H14 O8'
_chemical_name_systematic        
"(-)-2,2'-Di-t-butyl-1,3,1',3'-tetrahydro-1,1'-bi-isophosphindolyl 2,2'-dioxide 2,3-bis(benzoyloxycarbonyl)succinic acid"
_symmetry_cell_setting           monoclinic
_symmetry_space_group_name_H-M   'C 2'
_symmetry_Int_Tables_number      5
_space_group_name_Hall           'C 2y'
loop_
_symmetry_equiv_pos_site_id
_symmetry_equiv_pos_as_xyz
1 x,y,z
2 -x,y,-z
3 1/2+x,1/2+y,z
4 1/2-x,1/2+y,-z
_cell_length_a                   14.489(2)
_cell_length_b                   14.474(2)
_cell_length_c                   38.494(7)
_cell_angle_alpha                90
_cell_angle_beta                 90.054(3)
_cell_angle_gamma                90
_cell_volume                     8072.72
_exptl_crystal_description       plate
_cell_formula_units_Z            8
loop_
_atom_site_label
_atom_site_type_symbol
_atom_site_fract_x
_atom_site_fract_y
_atom_site_fract_z
C1 C 0.79335(19) 0.8119(2) 0.87919(7)
H1 H 0.8005 0.8207 0.9035
C68 C 0.55150(17) 0.54038(18) 0.77380(6)
C69 C 0.54699(16) 0.64386(18) 0.76933(6)
H78 H 0.4895 0.6681 0.7804
C70 C 0.54677(16) 0.66763(17) 0.73077(6)
H79 H 0.4893 0.6432 0.7197
C71 C 0.55135(17) 0.77130(19) 0.72614(7)
C72 C 0.62188(17) 0.60671(18) 0.68160(6)
C73 C 0.70595(17) 0.55741(17) 0.66905(6)
C74 C 0.71522(18) 0.54317(19) 0.63363(7)
H80 H 0.6680 0.5631 0.6182
C75 C 0.79318(19) 0.4999(2) 0.62067(7)
H81 H 0.8001 0.4913 0.5963
C76 C 0.86072(18) 0.4694(2) 0.64321(7)
H82 H 0.9141 0.4395 0.6343
C77 C 0.85111(18) 0.4820(2) 0.67882(7)
H83 H 0.8973 0.4600 0.6943
C78 C 0.77399(17) 0.52670(19) 0.69172(7)
H84 H 0.7676 0.5364 0.7160
C79 C 0.62178(17) 0.70505(18) 0.81842(6)
C80 C 0.70581(17) 0.75433(17) 0.83094(6)
C81 C 0.77392(17) 0.78462(19) 0.80832(7)
H85 H 0.7677 0.7743 0.7841
C82 C 0.85146(18) 0.8302(2) 0.82117(7)
H86 H 0.8974 0.8527 0.8058
C83 C 0.86081(18) 0.8422(2) 0.85677(7)
H87 H 0.9144 0.8716 0.8658
C84 C 0.71528(18) 0.76869(19) 0.86645(7)
H88 H 0.6682 0.7489 0.8819
O13 O 0.61542(13) 0.49865(14) 0.78609(5)
O14 O 0.47459(12) 0.50460(13) 0.76126(6)
H91 H 0.4807 0.4471 0.7592
O15 O 0.61538(13) 0.81265(14) 0.71391(5)
O16 O 0.47440(12) 0.80677(13) 0.73876(6)
H92 H 0.4809 0.8640 0.7414
O17 O 0.62567(11) 0.62268(13) 0.71607(4)
O18 O 0.62578(11) 0.68884(13) 0.78403(4)
O19 O 0.55752(12) 0.62905(16) 0.66371(5)
O20 O 0.55774(12) 0.68260(16) 0.83624(5)
C2 C 0.88504(18) 0.0123(2) 0.94071(8)
H2 H 0.8393 -0.0093 0.9576
H3 H 0.9467 0.0100 0.9512
H4 H 0.8834 -0.0275 0.9201
C3 C 0.86289(16) 0.11110(19) 0.93021(6)
C4 C 0.76281(16) 0.1174(2) 0.91698(7)
H5 H 0.7538 0.0732 0.8980
H6 H 0.7507 0.1801 0.9085
H7 H 0.7203 0.1029 0.9360
C5 C 0.92972(17) 0.1439(2) 0.90169(7)
H8 H 0.9934 0.1370 0.9098
H9 H 0.9176 0.2089 0.8963
H10 H 0.9206 0.1065 0.8807
C6 C 0.99361(14) 0.20006(17) 0.97986(6)
H11 H 1.0318 0.1498 0.9694
C7 C 0.84521(16) 0.30128(18) 0.95919(7)
H12 H 0.8059 0.3057 0.9382
H13 H 0.8131 0.3314 0.9789
C8 C 0.93906(16) 0.34504(19) 0.95296(6)
C9 C 0.95185(18) 0.43134(19) 0.93823(7)
H14 H 0.9000 0.4683 0.9323
C10 C 1.04043(19) 0.4637(2) 0.93219(7)
H15 H 1.0494 0.5235 0.9226
C11 C 1.11653(18) 0.4083(2) 0.94016(7)
H16 H 1.1771 0.4299 0.9354
C12 C 1.10421(16) 0.32275(19) 0.95489(7)
H17 H 1.1562 0.2852 0.9601
C13 C 1.01531(15) 0.29089(18) 0.96222(6)
O1 O 0.82048(10) 0.13921(13) 0.99883(4)
P1 P 0.87208(4) 0.18161(5) 0.969196(16)
C2A C 1.11496(18) 0.0123(2) 1.05929(8)
H2A H 1.1607 -0.0093 1.0424
H3A H 1.0533 0.0100 1.0488
H4A H 1.1166 -0.0275 1.0799
C3A C 1.13711(16) 0.11110(19) 1.06979(6)
C4A C 1.23719(16) 0.1174(2) 1.08302(7)
H5A H 1.2462 0.0732 1.1020
H6A H 1.2493 0.1801 1.0915
H7A H 1.2797 0.1029 1.0640
C5A C 1.07028(17) 0.1439(2) 1.09831(7)
H8A H 1.0066 0.1370 1.0902
H9A H 1.0824 0.2089 1.1037
H10A H 1.0794 0.1065 1.1193
C6A C 1.00639(14) 0.20006(17) 1.02014(6)
H11A H 0.9682 0.1498 1.0306
C7A C 1.15479(16) 0.30128(18) 1.04081(7)
H12A H 1.1941 0.3057 1.0618
H13A H 1.1869 0.3314 1.0211
C8A C 1.06094(16) 0.34504(19) 1.04704(6)
C9A C 1.04815(18) 0.43134(19) 1.06177(7)
H14A H 1.1000 0.4683 1.0677
C10A C 0.95957(19) 0.4637(2) 1.06781(7)
H15A H 0.9506 0.5235 1.0774
C11A C 0.88347(18) 0.4083(2) 1.05984(7)
H16A H 0.8229 0.4299 1.0646
C12A C 0.89579(16) 0.32275(19) 1.04511(7)
H17A H 0.8438 0.2852 1.0399
C13A C 0.98469(15) 0.29089(18) 1.03778(6)
O1A O 1.17952(10) 0.13921(13) 1.00117(4)
P1A P 1.12792(4) 0.18161(5) 1.030804(16)
C14 C 0.61597(16) 0.20725(19) 0.02387(6)
C15 C 0.51134(15) 0.20276(19) 0.01918(6)
H18 H 0.4868 0.1452 0.0302
C16 C 0.45071(15) 0.2776(2) 0.06844(6)
C17 C 0.40166(15) 0.36177(19) 0.08078(6)
C18 C 0.37112(16) 0.42963(19) 0.05821(7)
H19 H 0.3806 0.4233 0.0339
C19 C 0.32644(18) 0.5072(2) 0.07134(7)
H20 H 0.3048 0.5537 0.0559
C20 C 0.31343(18) 0.5167(2) 0.10673(7)
H21 H 0.2834 0.5700 0.1156
C21 C 0.34388(18) 0.4489(2) 0.12916(7)
H22 H 0.3349 0.4558 0.1535
C22 C 0.38728(17) 0.3712(2) 0.11646(7)
H23 H 0.4073 0.3242 0.1319
O2 O 0.65113(11) 0.13042(14) 0.01125(5)
H89 H 0.7075 0.1383 0.0071
O3 O 0.65710(12) 0.27126(15) 0.03614(5)
O4 O 0.46700(11) 0.28177(14) 0.03393(4)
O5 O 0.47356(13) 0.21350(15) 0.08615(5)
C14A C 0.38403(16) 0.20725(19) -0.02387(6)
C15A C 0.48866(15) 0.20276(19) -0.01918(6)
H18A H 0.5132 0.1452 -0.0302
C16A C 0.54929(15) 0.2776(2) -0.06844(6)
C17A C 0.59834(15) 0.36177(19) -0.08078(6)
C18A C 0.62888(16) 0.42963(19) -0.05821(7)
H19A H 0.6194 0.4233 -0.0339
C19A C 0.67356(18) 0.5072(2) -0.07134(7)
H20A H 0.6952 0.5537 -0.0559
C20A C 0.68657(18) 0.5167(2) -0.10673(7)
H21A H 0.7166 0.5700 -0.1156
C21A C 0.65612(18) 0.4489(2) -0.12916(7)
H22A H 0.6651 0.4558 -0.1535
C22A C 0.61272(17) 0.3712(2) -0.11646(7)
H23A H 0.5927 0.3242 -0.1319
O2A O 0.34887(11) 0.13042(14) -0.01125(5)
H89A H 0.2925 0.1383 -0.0071
O3A O 0.34290(12) 0.27126(15) -0.03614(5)
O4A O 0.53300(11) 0.28177(14) -0.03393(4)
O5A O 0.52644(13) 0.21350(15) -0.08615(5)
C23 C 0.61553(16) 1.10473(19) 0.47614(6)
C24 C 0.51158(15) 1.10908(19) 0.48076(6)
H24 H 0.4870 1.1666 0.4697
C25 C 0.45079(15) 1.0341(2) 0.43149(6)
C26 C 0.40158(15) 0.95019(19) 0.41906(6)
C27 C 0.38715(17) 0.9407(2) 0.38353(7)
H25 H 0.4067 0.9880 0.3681
C28 C 0.34432(18) 0.8626(2) 0.37076(7)
H26 H 0.3358 0.8554 0.3464
C29 C 0.31376(18) 0.7949(2) 0.39327(7)
H27 H 0.2839 0.7415 0.3843
C30 C 0.32628(17) 0.8043(2) 0.42882(7)
H28 H 0.3043 0.7580 0.4442
C31 C 0.37123(16) 0.88181(19) 0.44171(7)
H29 H 0.3812 0.8881 0.4660
O6 O 0.65703(12) 1.04064(15) 0.46394(5)
O7 O 0.65128(11) 1.18125(14) 0.48874(5)
H90 H 0.7088 1.1755 0.4903
O8 O 0.46701(11) 1.03015(13) 0.46611(4)
O9 O 0.47341(13) 1.09796(15) 0.41375(5)
C23A C 0.38447(16) 1.10473(19) 0.52386(6)
C24A C 0.48842(15) 1.10908(19) 0.51924(6)
H24A H 0.5130 1.1666 0.5303
C25A C 0.54921(15) 1.0341(2) 0.56851(6)
C26A C 0.59842(15) 0.95019(19) 0.58094(6)
C27A C 0.61285(17) 0.9407(2) 0.61647(7)
H25A H 0.5933 0.9880 0.6319
C28A C 0.65568(18) 0.8626(2) 0.62924(7)
H26A H 0.6642 0.8554 0.6536
C29A C 0.68624(18) 0.7949(2) 0.60673(7)
H27A H 0.7161 0.7415 0.6157
C30A C 0.67372(17) 0.8043(2) 0.57118(7)
H28A H 0.6957 0.7580 0.5558
C31A C 0.62877(16) 0.88181(19) 0.55829(7)
H29A H 0.6188 0.8881 0.5340
O6A O 0.34297(12) 1.04064(15) 0.53606(5)
O7A O 0.34872(11) 1.18125(14) 0.51126(5)
H90A H 0.2912 1.1755 0.5097
O8A O 0.53299(11) 1.03015(13) 0.53389(4)
O9A O 0.52659(13) 1.09796(15) 0.58625(5)
C32 C 0.88480(18) 0.2994(2) 0.55927(8)
H30 H 0.8398 0.3204 0.5420
H31 H 0.9470 0.3021 0.5493
H32 H 0.8818 0.3394 0.5798
C33 C 0.86289(15) 0.20025(19) 0.56977(6)
C34 C 0.92979(17) 0.1677(2) 0.59823(7)
H33 H 0.9934 0.1734 0.5899
H34 H 0.9169 0.1030 0.6040
H35 H 0.9217 0.2060 0.6190
C35 C 0.76267(16) 0.1942(2) 0.58306(7)
H36 H 0.7530 0.2407 0.6012
H37 H 0.7514 0.1325 0.5926
H38 H 0.7199 0.2057 0.5638
C36 C 0.99377(14) 0.11155(17) 0.52020(6)
H39 H 1.0319 0.1619 0.5307
C37 C 1.01546(15) 0.02097(18) 0.53785(6)
C38 C 1.10429(17) -0.01079(19) 0.54525(6)
H40 H 1.1563 0.0268 0.5402
C39 C 1.11640(18) -0.0965(2) 0.55986(7)
H41 H 1.1770 -0.1183 0.5646
C40 C 1.04044(19) -0.1519(2) 0.56780(7)
H42 H 1.0494 -0.2118 0.5773
C41 C 0.95207(18) -0.11950(19) 0.56185(7)
H43 H 0.9003 -0.1563 0.5680
C42 C 0.93922(16) -0.03343(19) 0.54697(6)
C43 C 0.84552(16) 0.01021(18) 0.54073(7)
H44 H 0.8063 0.0056 0.5617
H45 H 0.8134 -0.0199 0.5210
O10 O 0.82039(10) 0.17271(13) 0.50104(4)
P4 P 0.87203(4) 0.13000(5) 0.530768(16)
C32A C 1.11520(18) 0.2994(2) 0.44073(8)
H30A H 1.1602 0.3204 0.4580
H31A H 1.0530 0.3021 0.4507
H32A H 1.1182 0.3394 0.4202
C33A C 1.13711(15) 0.20025(19) 0.43023(6)
C34A C 1.07021(17) 0.1677(2) 0.40177(7)
H33A H 1.0066 0.1734 0.4101
H34A H 1.0831 0.1030 0.3960
H35A H 1.0783 0.2060 0.3810
C35A C 1.23733(16) 0.1942(2) 0.41694(7)
H36A H 1.2470 0.2407 0.3988
H37A H 1.2486 0.1325 0.4074
H38A H 1.2801 0.2057 0.4362
C36A C 1.00623(14) 0.11155(17) 0.47980(6)
H39A H 0.9681 0.1619 0.4693
C37A C 0.98454(15) 0.02097(18) 0.46215(6)
C38A C 0.89571(17) -0.01079(19) 0.45475(6)
H40A H 0.8437 0.0268 0.4598
C39A C 0.88360(18) -0.0965(2) 0.44014(7)
H41A H 0.8230 -0.1183 0.4354
C40A C 0.95956(19) -0.1519(2) 0.43220(7)
H42A H 0.9506 -0.2118 0.4227
C41A C 1.04793(18) -0.11950(19) 0.43815(7)
H43A H 1.0997 -0.1563 0.4320
C42A C 1.06078(16) -0.03343(19) 0.45303(6)
C43A C 1.15448(16) 0.01021(18) 0.45927(7)
H44A H 1.1937 0.0056 0.4383
H45A H 1.1866 -0.0199 0.4790
O10A O 1.17961(10) 0.17271(13) 0.49896(4)
P4A P 1.12797(4) 0.13000(5) 0.469232(16)
C44 C 0.4881(2) 0.0857(2) 0.84815(7)
H46 H 0.4813 0.1494 0.8399
H47 H 0.5531 0.0736 0.8536
H48 H 0.4507 0.0770 0.8691
C45 C 0.45550(17) 0.01868(18) 0.81989(6)
C46 C 0.46163(19) -0.0815(2) 0.83293(7)
H49 H 0.4158 -0.0913 0.8513
H50 H 0.5236 -0.0931 0.8422
H51 H 0.4494 -0.1239 0.8136
C47 C 0.35612(18) 0.0410(2) 0.80928(8)
H52 H 0.3348 -0.0043 0.7921
H53 H 0.3537 0.1031 0.7991
H54 H 0.3162 0.0387 0.8298
C48 C 0.54404(15) 0.14920(17) 0.77024(6)
H55 H 0.4937 0.1873 0.7807
C49 C 0.63514(15) 0.17150(18) 0.78796(6)
C50 C 0.66633(17) 0.26003(18) 0.79512(6)
H56 H 0.6287 0.3120 0.7899
C51 C 0.75304(17) 0.2722(2) 0.80992(7)
H57 H 0.7750 0.3328 0.8147
C52 C 0.80759(17) 0.1964(2) 0.81771(7)
H58 H 0.8675 0.2053 0.8272
C53 C 0.77570(16) 0.1078(2) 0.81183(7)
H59 H 0.8128 0.0561 0.8179
C54 C 0.68906(16) 0.09460(18) 0.79704(6)
C55 C 0.64562(16) 0.00133(18) 0.79071(7)
H60 H 0.6502 -0.0382 0.8116
H61 H 0.6756 -0.0306 0.7710
C56 C 0.54422(15) 0.16208(17) 0.72976(6)
H62 H 0.4939 0.1239 0.7192
C57 C 0.63519(15) 0.14035(18) 0.71205(6)
C58 C 0.66631(17) 0.05169(18) 0.70491(6)
H63 H 0.6287 -0.0003 0.7101
C59 C 0.75275(17) 0.0394(2) 0.69005(7)
H64 H 0.7745 -0.0211 0.6852
C60 C 0.80739(17) 0.1153(2) 0.68224(7)
H65 H 0.8672 0.1062 0.6728
C61 C 0.77582(16) 0.2036(2) 0.68811(7)
H66 H 0.8129 0.2553 0.6820
C62 C 0.68914(16) 0.21692(18) 0.70300(6)
C63 C 0.64565(16) 0.31039(18) 0.70917(7)
H67 H 0.6500 0.3496 0.6882
H68 H 0.6758 0.3426 0.7288
C64 C 0.45553(17) 0.29329(18) 0.68001(6)
C65 C 0.4878(2) 0.2260(2) 0.65188(7)
H69 H 0.4814 0.1624 0.6603
H70 H 0.5526 0.2382 0.6463
H71 H 0.4500 0.2342 0.6310
C66 C 0.46133(19) 0.3931(2) 0.66699(7)
H72 H 0.4158 0.4026 0.6485
H73 H 0.5234 0.4050 0.6579
H74 H 0.4485 0.4355 0.6862
C67 C 0.35611(17) 0.2706(2) 0.69072(7)
H75 H 0.3157 0.2742 0.6703
H76 H 0.3354 0.3151 0.7083
H77 H 0.3537 0.2081 0.7004
O11 O 0.48340(12) 0.33530(12) 0.74889(4)
O12 O 0.48351(11) -0.02387(12) 0.75104(4)
P2 P 0.52578(4) 0.28361(4) 0.719258(16)
P3 P 0.52583(4) 0.02795(4) 0.780774(16)
loop_
_geom_bond_atom_site_label_1
_geom_bond_atom_site_label_2
_geom_bond_site_symmetry_1
_geom_bond_site_symmetry_2
C1 H1 1_555 1_555
C2 H2 1_555 1_555
H3 C2 1_555 1_555
H4 C2 1_555 1_555
C3 C2 1_555 1_555
C4 C3 1_555 1_555
H5 C4 1_555 1_555
H6 C4 1_555 1_555
H7 C4 1_555 1_555
C5 C3 1_555 1_555
H8 C5 1_555 1_555
H9 C5 1_555 1_555
H10 C5 1_555 1_555
C6 H11 1_555 1_555
C7 H12 1_555 1_555
H13 C7 1_555 1_555
C8 C7 1_555 1_555
C9 C8 1_555 1_555
H14 C9 1_555 1_555
C10 C9 1_555 1_555
H15 C10 1_555 1_555
C11 C10 1_555 1_555
H16 C11 1_555 1_555
C12 C11 1_555 1_555
H17 C12 1_555 1_555
C13 C6 1_555 1_555
C14 C15 1_555 1_555
C15 H18 1_555 1_555
C16 C17 1_555 1_555
C17 C18 1_555 1_555
C18 H19 1_555 1_555
C19 C18 1_555 1_555
H20 C19 1_555 1_555
C20 C19 1_555 1_555
H21 C20 1_555 1_555
C21 C20 1_555 1_555
H22 C21 1_555 1_555
C22 C17 1_555 1_555
H23 C22 1_555 1_555
C23 C24 1_555 1_555
C24 H24 1_555 1_555
C25 C26 1_555 1_555
C26 C27 1_555 1_555
C27 H25 1_555 1_555
C28 C27 1_555 1_555
H26 C28 1_555 1_555
C29 C28 1_555 1_555
H27 C29 1_555 1_555
C30 C29 1_555 1_555
H28 C30 1_555 1_555
C31 C26 1_555 1_555
H29 C31 1_555 1_555
C32 H30 1_555 1_555
H31 C32 1_555 1_555
H32 C32 1_555 1_555
C33 C32 1_555 1_555
C34 C33 1_555 1_555
H33 C34 1_555 1_555
H34 C34 1_555 1_555
H35 C34 1_555 1_555
C35 C33 1_555 1_555
H36 C35 1_555 1_555
H37 C35 1_555 1_555
H38 C35 1_555 1_555
C36 H39 1_555 1_555
C37 C36 1_555 1_555
C38 C37 1_555 1_555
H40 C38 1_555 1_555
C39 C38 1_555 1_555
H41 C39 1_555 1_555
C40 C39 1_555 1_555
H42 C40 1_555 1_555
C41 C40 1_555 1_555
H43 C41 1_555 1_555
C42 C37 1_555 1_555
C43 C42 1_555 1_555
H44 C43 1_555 1_555
H45 C43 1_555 1_555
C44 H46 1_555 1_555
H47 C44 1_555 1_555
H48 C44 1_555 1_555
C45 C44 1_555 1_555
C46 C45 1_555 1_555
H49 C46 1_555 1_555
H50 C46 1_555 1_555
H51 C46 1_555 1_555
C47 C45 1_555 1_555
H52 C47 1_555 1_555
H53 C47 1_555 1_555
H54 C47 1_555 1_555
C48 H55 1_555 1_555
C49 C48 1_555 1_555
C50 C49 1_555 1_555
H56 C50 1_555 1_555
C51 C50 1_555 1_555
H57 C51 1_555 1_555
C52 C51 1_555 1_555
H58 C52 1_555 1_555
C53 C52 1_555 1_555
H59 C53 1_555 1_555
C54 C49 1_555 1_555
C55 C54 1_555 1_555
H60 C55 1_555 1_555
H61 C55 1_555 1_555
C56 C48 1_555 1_555
H62 C56 1_555 1_555
C57 C56 1_555 1_555
C58 C57 1_555 1_555
H63 C58 1_555 1_555
C59 C58 1_555 1_555
H64 C59 1_555 1_555
C60 C59 1_555 1_555
H65 C60 1_555 1_555
C61 C60 1_555 1_555
H66 C61 1_555 1_555
C62 C57 1_555 1_555
C63 C62 1_555 1_555
H67 C63 1_555 1_555
H68 C63 1_555 1_555
C64 C65 1_555 1_555
C65 H69 1_555 1_555
H70 C65 1_555 1_555
H71 C65 1_555 1_555
C66 C64 1_555 1_555
H72 C66 1_555 1_555
H73 C66 1_555 1_555
H74 C66 1_555 1_555
C67 C64 1_555 1_555
H75 C67 1_555 1_555
H76 C67 1_555 1_555
H77 C67 1_555 1_555
C68 C69 1_555 1_555
C69 H78 1_555 1_555
C70 C69 1_555 1_555
H79 C70 1_555 1_555
C71 C70 1_555 1_555
C72 C73 1_555 1_555
C73 C74 1_555 1_555
C74 H80 1_555 1_555
C75 C74 1_555 1_555
H81 C75 1_555 1_555
C76 C75 1_555 1_555
H82 C76 1_555 1_555
C77 C76 1_555 1_555
H83 C77 1_555 1_555
C78 C73 1_555 1_555
H84 C78 1_555 1_555
C79 C80 1_555 1_555
C80 C81 1_555 1_555
C81 H85 1_555 1_555
C82 C81 1_555 1_555
H86 C82 1_555 1_555
C83 C1 1_555 1_555
H87 C83 1_555 1_555
C84 C1 1_555 1_555
H88 C84 1_555 1_555
O1 P1 1_555 1_555
O2 C14 1_555 1_555
H89 O2 1_555 1_555
O3 C14 1_555 1_555
O4 C15 1_555 1_555
O5 C16 1_555 1_555
O6 C23 1_555 1_555
O7 C23 1_555 1_555
H90 O7 1_555 1_555
O8 C24 1_555 1_555
O9 C25 1_555 1_555
O10 P4 1_555 1_555
O11 P2 1_555 1_555
O12 P3 1_555 1_555
O13 C68 1_555 1_555
O14 C68 1_555 1_555
H91 O14 1_555 1_555
O15 C71 1_555 1_555
O16 C71 1_555 1_555
H92 O16 1_555 1_555
O17 C70 1_555 1_555
O18 C69 1_555 1_555
O19 C72 1_555 1_555
O20 C79 1_555 1_555
P1 C3 1_555 1_555
P2 C56 1_555 1_555
P3 C45 1_555 1_555
P4 C33 1_555 1_555
C2A H2A 1_555 1_555
H3A C2A 1_555 1_555
H4A C2A 1_555 1_555
C3A C2A 1_555 1_555
C4A C3A 1_555 1_555
H5A C4A 1_555 1_555
H6A C4A 1_555 1_555
H7A C4A 1_555 1_555
C5A C3A 1_555 1_555
H8A C5A 1_555 1_555
H9A C5A 1_555 1_555
H10A C5A 1_555 1_555
C6A C6 1_555 1_555
H11A C6A 1_555 1_555
C7A H12A 1_555 1_555
H13A C7A 1_555 1_555
C8A C7A 1_555 1_555
C9A C8A 1_555 1_555
H14A C9A 1_555 1_555
C10A C9A 1_555 1_555
H15A C10A 1_555 1_555
C11A C10A 1_555 1_555
H16A C11A 1_555 1_555
C12A C11A 1_555 1_555
H17A C12A 1_555 1_555
C13A C6A 1_555 1_555
C14A C15A 1_555 1_555
C15A C15 1_555 1_555
H18A C15A 1_555 1_555
C16A C17A 1_555 1_555
C17A C18A 1_555 1_555
C18A H19A 1_555 1_555
C19A C18A 1_555 1_555
H20A C19A 1_555 1_555
C20A C19A 1_555 1_555
H21A C20A 1_555 1_555
C21A C20A 1_555 1_555
H22A C21A 1_555 1_555
C22A C17A 1_555 1_555
H23A C22A 1_555 1_555
C23A C24A 1_555 1_555
C24A C24 1_555 1_555
H24A C24A 1_555 1_555
C25A C26A 1_555 1_555
C26A C27A 1_555 1_555
C27A H25A 1_555 1_555
C28A C27A 1_555 1_555
H26A C28A 1_555 1_555
C29A C28A 1_555 1_555
H27A C29A 1_555 1_555
C30A C29A 1_555 1_555
H28A C30A 1_555 1_555
C31A C26A 1_555 1_555
H29A C31A 1_555 1_555
C32A H30A 1_555 1_555
H31A C32A 1_555 1_555
H32A C32A 1_555 1_555
C33A C32A 1_555 1_555
C34A C33A 1_555 1_555
H33A C34A 1_555 1_555
H34A C34A 1_555 1_555
H35A C34A 1_555 1_555
C35A C33A 1_555 1_555
H36A C35A 1_555 1_555
H37A C35A 1_555 1_555
H38A C35A 1_555 1_555
C36A C36 1_555 1_555
H39A C36A 1_555 1_555
C37A C36A 1_555 1_555
C38A C37A 1_555 1_555
H40A C38A 1_555 1_555
C39A C38A 1_555 1_555
H41A C39A 1_555 1_555
C40A C39A 1_555 1_555
H42A C40A 1_555 1_555
C41A C40A 1_555 1_555
H43A C41A 1_555 1_555
C42A C37A 1_555 1_555
C43A C42A 1_555 1_555
H44A C43A 1_555 1_555
H45A C43A 1_555 1_555
O1A P1A 1_555 1_555
O2A C14A 1_555 1_555
H89A O2A 1_555 1_555
O3A C14A 1_555 1_555
O4A C15A 1_555 1_555
O5A C16A 1_555 1_555
O6A C23A 1_555 1_555
O7A C23A 1_555 1_555
H90A O7A 1_555 1_555
O8A C24A 1_555 1_555
O9A C25A 1_555 1_555
O10A P4A 1_555 1_555
P1A C3A 1_555 1_555
P4A C33A 1_555 1_555
C6 P1 1_555 1_555
C7 P1 1_555 1_555
C8 C13 1_555 1_555
C12 C13 1_555 1_555
C16 O4 1_555 1_555
C21 C22 1_555 1_555
C25 O8 1_555 1_555
C30 C31 1_555 1_555
C36 P4 1_555 1_555
C41 C42 1_555 1_555
C43 P4 1_555 1_555
C48 P3 1_555 1_555
C53 C54 1_555 1_555
C55 P3 1_555 1_555
C61 C62 1_555 1_555
C63 P2 1_555 1_555
C64 P2 1_555 1_555
C72 O17 1_555 1_555
C77 C78 1_555 1_555
C79 O18 1_555 1_555
C80 C84 1_555 1_555
C82 C83 1_555 1_555
C6A P1A 1_555 1_555
C7A P1A 1_555 1_555
C8A C13A 1_555 1_555
C12A C13A 1_555 1_555
C16A O4A 1_555 1_555
C21A C22A 1_555 1_555
C25A O8A 1_555 1_555
C30A C31A 1_555 1_555
C36A P4A 1_555 1_555
C41A C42A 1_555 1_555
C43A P4A 1_555 1_555

#END
