
#######################################################################
#
#                 Cambridge Crystallographic Data Centre
#                                CCDC 
#
#######################################################################
#
# If this CIF has been generated from an entry in the Cambridge 
# Structural Database, then it will include bibliographic, chemical, 
# crystal, experimental, refinement or atomic coordinate data resulting 
# from the CCDC's data processing and validation procedures.
#
#######################################################################

data_NAHXOL
_chemical_formula_moiety         'C38 H44 O10,C14 H20 N2 O2 2+,2(F6 P1 1-)'
_chemical_name_systematic        
"(2)-(1,1':3,3'-bis(3,6-Dioxaoctane-1,8-dioxy)bis(2-benzyloxybenzene) N,N'-bis(2-hydroxyethyl)-4,4'-bipyridinium) pseudorotaxane bis(hexafluorophosphate)"
_symmetry_cell_setting           monoclinic
_symmetry_space_group_name_H-M   'P 21/c'
_symmetry_Int_Tables_number      14
_space_group_name_Hall           '-P 2ybc'
loop_
_symmetry_equiv_pos_site_id
_symmetry_equiv_pos_as_xyz
1 x,y,z
2 -x,1/2+y,1/2-z
3 -x,-y,-z
4 x,1/2-y,1/2+z
_cell_length_a                   12.6613(4)
_cell_length_b                   15.4249(5)
_cell_length_c                   14.9805(4)
_cell_angle_alpha                90
_cell_angle_beta                 90.925(3)
_cell_angle_gamma                90
_cell_volume                     2925.3
_exptl_crystal_colour            yellow
_exptl_crystal_description       block
_cell_formula_units_Z            2
loop_
_atom_site_label
_atom_site_type_symbol
_atom_site_fract_x
_atom_site_fract_y
_atom_site_fract_z
P1 P 0.86821(10) 0.66509(11) 0.25225(9)
F1 F 0.7985(2) 0.7507(3) 0.2670(2)
F2 F 0.8912(5) 0.6948(4) 0.1552(3)
F3 F 0.9681(3) 0.7138(4) 0.2845(5)
F4 F 0.9364(3) 0.5784(3) 0.2371(3)
F5 F 0.8439(5) 0.6343(5) 0.3464(3)
F6 F 0.7672(3) 0.6187(3) 0.2129(5)
O1 O 0.4564(2) 0.62643(17) 0.13126(17)
O2 O 0.5055(3) 0.5171(2) 0.2619(2)
O3 O 0.6637(3) 0.3812(2) 0.2389(2)
O4 O 0.2597(3) 0.6802(3) 0.1022(3)
O5 O 0.1991(3) 0.6734(2) -0.0828(3)
C1 C 0.4720(3) 0.7657(3) 0.0062(3)
H1 H 0.4031 0.7451 0.0098
C2 C 0.5037(4) 0.8102(4) -0.0694(4)
H2 H 0.4562 0.8188 -0.1165
C3 C 0.6047(5) 0.8414(3) -0.0749(4)
H3 H 0.6255 0.8713 -0.1256
C4 C 0.6748(4) 0.8288(3) -0.0057(3)
H4 H 0.7430 0.8505 -0.0095
C5 C 0.6451(4) 0.7838(3) 0.0698(3)
H5 H 0.6934 0.7748 0.1163
C6 C 0.5422(3) 0.7521(3) 0.0757(3)
C7 C 0.5075(3) 0.7046(3) 0.1583(3)
H6 H 0.5683 0.6914 0.1961
H7 H 0.4593 0.7403 0.1919
C8 C 0.3778(4) 0.5983(3) 0.1875(3)
C9 C 0.4011(4) 0.5407(3) 0.2548(3)
C10 C 0.3180(6) 0.5093(4) 0.3097(3)
H8 H 0.3316 0.4709 0.3563
C11 C 0.2165(5) 0.5382(5) 0.2908(4)
H9 H 0.1616 0.5188 0.3260
C12 C 0.1943(5) 0.5932(5) 0.2237(4)
H10 H 0.1249 0.6103 0.2128
C13 C 0.2743(4) 0.6248(4) 0.1705(4)
C14 C 0.5295(5) 0.4513(4) 0.3251(3)
H11 H 0.4868 0.4003 0.3131
H12 H 0.5144 0.4715 0.3849
C15 C 0.6412(6) 0.4298(4) 0.3185(3)
H13 H 0.6822 0.4830 0.3186
H14 H 0.6628 0.3962 0.3704
C16 C 0.7721(6) 0.3550(4) 0.2373(5)
H15 H 0.7926 0.3324 0.2955
H16 H 0.8159 0.4051 0.2253
C17 C 0.1536(4) 0.6934(4) 0.0653(5)
H17 H 0.1176 0.6382 0.0595
H18 H 0.1133 0.7300 0.1050
C18 C 0.1615(4) 0.7345(4) -0.0219(5)
H19 H 0.1443 0.7918 -0.0349
C19 C 0.2091(5) 0.7117(4) -0.1693(5)
H20 H 0.2673 0.7526 -0.1683
H21 H 0.1450 0.7432 -0.1844
O1B O 0.5436(2) 0.37357(17) -0.13126(17)
O2B O 0.4945(3) 0.4829(2) -0.2619(2)
O3B O 0.3363(3) 0.6188(2) -0.2389(2)
O4B O 0.7403(3) 0.3198(3) -0.1022(3)
O5B O 0.8009(3) 0.3266(2) 0.0828(3)
C1B C 0.5280(3) 0.2343(3) -0.0062(3)
H1B H 0.5969 0.2549 -0.0098
C2B C 0.4963(4) 0.1898(4) 0.0694(4)
H2B H 0.5438 0.1812 0.1165
C3B C 0.3953(5) 0.1586(3) 0.0749(4)
H3B H 0.3745 0.1287 0.1256
C4B C 0.3252(4) 0.1712(3) 0.0057(3)
H4B H 0.2570 0.1495 0.0095
C5B C 0.3549(4) 0.2162(3) -0.0698(3)
H5B H 0.3066 0.2252 -0.1163
C6B C 0.4578(3) 0.2479(3) -0.0757(3)
C7B C 0.4925(3) 0.2954(3) -0.1583(3)
H6B H 0.4317 0.3086 -0.1961
H7B H 0.5407 0.2597 -0.1919
C8B C 0.6222(4) 0.4017(3) -0.1875(3)
C9B C 0.5989(4) 0.4593(3) -0.2548(3)
C10B C 0.6820(6) 0.4907(4) -0.3097(3)
H8B H 0.6684 0.5291 -0.3563
C11B C 0.7835(5) 0.4618(5) -0.2908(4)
H9B H 0.8384 0.4812 -0.3260
C12B C 0.8057(5) 0.4068(5) -0.2237(4)
H10B H 0.8751 0.3897 -0.2128
C13B C 0.7257(4) 0.3752(4) -0.1705(4)
C14B C 0.4705(5) 0.5487(4) -0.3251(3)
H11B H 0.5132 0.5997 -0.3131
H12B H 0.4856 0.5285 -0.3849
C15B C 0.3588(6) 0.5702(4) -0.3185(3)
H13B H 0.3178 0.5170 -0.3186
H14B H 0.3372 0.6038 -0.3704
C16B C 0.2279(6) 0.6450(4) -0.2373(5)
H15B H 0.2074 0.6676 -0.2955
H16B H 0.1841 0.5949 -0.2253
C17B C 0.8464(4) 0.3066(4) -0.0653(5)
H17B H 0.8824 0.3618 -0.0595
H18B H 0.8867 0.2700 -0.1050
C18B C 0.8385(4) 0.2655(4) 0.0219(5)
H19B H 0.8557 0.2082 0.0349
C19B C 0.7909(5) 0.2883(4) 0.1693(5)
H20B H 0.7327 0.2474 0.1683
H21B H 0.8550 0.2568 0.1844
O6 O 0.0496(4) 0.4894(3) 0.0834(4)
H22 H 0.0422 0.4892 0.0289
N1 N 0.2515(3) 0.4053(2) 0.0353(2)
C20 C 0.2633(4) 0.4650(4) -0.0283(3)
H23 H 0.2052 0.4811 -0.0634
C21 C 0.3591(4) 0.5032(4) -0.0429(3)
H24 H 0.3653 0.5447 -0.0876
C22 C 0.4473(3) 0.4804(3) 0.0083(3)
C23 C 0.4324(4) 0.4205(3) 0.0758(3)
H25 H 0.4889 0.4051 0.1130
C24 C 0.3349(4) 0.3835(3) 0.0883(3)
H26 H 0.3261 0.3431 0.1337
C25 C 0.1482(4) 0.3619(3) 0.0472(3)
H27 H 0.1604 0.3028 0.0669
H28 H 0.1113 0.3595 -0.0100
C26 C 0.0804(4) 0.4066(3) 0.1127(4)
H29 H 0.0179 0.3719 0.1228
H30 H 0.1186 0.4119 0.1691
O6B O 0.9504(4) 0.5106(3) -0.0834(4)
H22B H 0.9578 0.5108 -0.0289
N1B N 0.7485(3) 0.5947(2) -0.0353(2)
C20B C 0.7367(4) 0.5350(4) 0.0283(3)
H23B H 0.7948 0.5189 0.0634
C21B C 0.6409(4) 0.4968(4) 0.0429(3)
H24B H 0.6347 0.4553 0.0876
C22B C 0.5527(3) 0.5196(3) -0.0083(3)
C23B C 0.5676(4) 0.5795(3) -0.0758(3)
H25B H 0.5111 0.5949 -0.1130
C24B C 0.6651(4) 0.6165(3) -0.0883(3)
H26B H 0.6739 0.6569 -0.1337
C25B C 0.8518(4) 0.6381(3) -0.0472(3)
H27B H 0.8396 0.6972 -0.0669
H28B H 0.8887 0.6405 0.0100
C26B C 0.9196(4) 0.5934(3) -0.1127(4)
H29B H 0.9821 0.6281 -0.1228
H30B H 0.8814 0.5881 -0.1691
loop_
_geom_bond_atom_site_label_1
_geom_bond_atom_site_label_2
_geom_bond_site_symmetry_1
_geom_bond_site_symmetry_2
P1 F1 1_555 1_555
F2 P1 1_555 1_555
F3 P1 1_555 1_555
F4 P1 1_555 1_555
F5 P1 1_555 1_555
F6 P1 1_555 1_555
O1 C7 1_555 1_555
O2 C9 1_555 1_555
O3 C15 1_555 1_555
O4 C13 1_555 1_555
O5 C18 1_555 1_555
C1 H1 1_555 1_555
C2 C1 1_555 1_555
H2 C2 1_555 1_555
C3 C2 1_555 1_555
H3 C3 1_555 1_555
C4 C3 1_555 1_555
H4 C4 1_555 1_555
C5 C4 1_555 1_555
H5 C5 1_555 1_555
C6 C1 1_555 1_555
C7 C6 1_555 1_555
H6 C7 1_555 1_555
H7 C7 1_555 1_555
C8 O1 1_555 1_555
C9 C8 1_555 1_555
C10 C9 1_555 1_555
H8 C10 1_555 1_555
C11 C10 1_555 1_555
H9 C11 1_555 1_555
C12 C11 1_555 1_555
H10 C12 1_555 1_555
C13 C8 1_555 1_555
C14 O2 1_555 1_555
H11 C14 1_555 1_555
H12 C14 1_555 1_555
C15 C14 1_555 1_555
H13 C15 1_555 1_555
H14 C15 1_555 1_555
C16 O3 1_555 1_555
H15 C16 1_555 1_555
H16 C16 1_555 1_555
C17 O4 1_555 1_555
H17 C17 1_555 1_555
H18 C17 1_555 1_555
C18 C17 1_555 1_555
H19 C18 1_555 1_555
C19 O5 1_555 1_555
H20 C19 1_555 1_555
H21 C19 1_555 1_555
O6 H22 1_555 1_555
N1 C20 1_555 1_555
C20 H23 1_555 1_555
C21 C20 1_555 1_555
H24 C21 1_555 1_555
C22 C21 1_555 1_555
C23 C22 1_555 1_555
H25 C23 1_555 1_555
C24 N1 1_555 1_555
H26 C24 1_555 1_555
C25 N1 1_555 1_555
H27 C25 1_555 1_555
H28 C25 1_555 1_555
C26 O6 1_555 1_555
H29 C26 1_555 1_555
H30 C26 1_555 1_555
O1B C7B 1_555 1_555
O2B C9B 1_555 1_555
O3B C15B 1_555 1_555
O4B C13B 1_555 1_555
O5B C18B 1_555 1_555
C1B H1B 1_555 1_555
C2B C1B 1_555 1_555
H2B C2B 1_555 1_555
C3B C2B 1_555 1_555
H3B C3B 1_555 1_555
C4B C3B 1_555 1_555
H4B C4B 1_555 1_555
C5B C4B 1_555 1_555
H5B C5B 1_555 1_555
C6B C1B 1_555 1_555
C7B C6B 1_555 1_555
H6B C7B 1_555 1_555
H7B C7B 1_555 1_555
C8B O1B 1_555 1_555
C9B C8B 1_555 1_555
C10B C9B 1_555 1_555
H8B C10B 1_555 1_555
C11B C10B 1_555 1_555
H9B C11B 1_555 1_555
C12B C11B 1_555 1_555
H10B C12B 1_555 1_555
C13B C8B 1_555 1_555
C14B O2B 1_555 1_555
H11B C14B 1_555 1_555
H12B C14B 1_555 1_555
C15B C14B 1_555 1_555
H13B C15B 1_555 1_555
H14B C15B 1_555 1_555
C16B C19 1_555 1_555
H15B C16B 1_555 1_555
H16B C16B 1_555 1_555
C17B O4B 1_555 1_555
H17B C17B 1_555 1_555
H18B C17B 1_555 1_555
C18B C17B 1_555 1_555
H19B C18B 1_555 1_555
C19B C16 1_555 1_555
H20B C19B 1_555 1_555
H21B C19B 1_555 1_555
O6B H22B 1_555 1_555
N1B C20B 1_555 1_555
C20B H23B 1_555 1_555
C21B C20B 1_555 1_555
H24B C21B 1_555 1_555
C22B C22 1_555 1_555
C23B C22B 1_555 1_555
H25B C23B 1_555 1_555
C24B N1B 1_555 1_555
H26B C24B 1_555 1_555
C25B N1B 1_555 1_555
H27B C25B 1_555 1_555
H28B C25B 1_555 1_555
C26B O6B 1_555 1_555
H29B C26B 1_555 1_555
H30B C26B 1_555 1_555
C5 C6 1_555 1_555
C12 C13 1_555 1_555
C23 C24 1_555 1_555
C25 C26 1_555 1_555
O3B C16B 1_555 1_555
O5B C19B 1_555 1_555
C5B C6B 1_555 1_555
C12B C13B 1_555 1_555
C21B C22B 1_555 1_555
C23B C24B 1_555 1_555
C25B C26B 1_555 1_555

#END
