
#######################################################################
#
#                 Cambridge Crystallographic Data Centre
#                                CCDC 
#
#######################################################################
#
# If this CIF has been generated from an entry in the Cambridge 
# Structural Database, then it will include bibliographic, chemical, 
# crystal, experimental, refinement or atomic coordinate data resulting 
# from the CCDC's data processing and validation procedures.
#
#######################################################################

data_NAJBEF
_chemical_formula_moiety         'C14 H11 N1 O2 S1'
_chemical_name_systematic        
2-(4-Methoxyphenyl)-1,2-benzisothiazolin-3(2H)-one
_symmetry_cell_setting           monoclinic
_symmetry_space_group_name_H-M   'P 21/n'
_symmetry_Int_Tables_number      14
_space_group_name_Hall           '-P 2yn'
loop_
_symmetry_equiv_pos_site_id
_symmetry_equiv_pos_as_xyz
1 x,y,z
2 1/2-x,1/2+y,1/2-z
3 -x,-y,-z
4 1/2+x,1/2-y,1/2+z
_cell_length_a                   14.5126(11)
_cell_length_b                   8.28500(20)
_cell_length_c                   10.3674(6)
_cell_angle_alpha                90
_cell_angle_beta                 103.236(3)
_cell_angle_gamma                90
_cell_volume                     1213.43
_cell_formula_units_Z            4
loop_
_atom_site_label
_atom_site_type_symbol
_atom_site_fract_x
_atom_site_fract_y
_atom_site_fract_z
S1 S 0.82175(4) 0.50874(7) 0.06069(5)
O1 O 1.01385(12) 0.33140(22) 0.33697(17)
O2 O 1.16809(13) 1.02410(20) 0.30593(17)
N1 N 0.92357(13) 0.50275(21) 0.18395(18)
C1 C 0.94402(15) 0.3554(3) 0.24753(21)
C2 C 0.86961(14) 0.2408(3) 0.18971(19)
C3 C 0.86618(17) 0.0794(3) 0.22469(22)
C4 C 0.78935(20) -0.0124(3) 0.1605(3)
C5 C 0.71689(18) 0.0575(3) 0.06674(24)
C6 C 0.71926(15) 0.2174(3) 0.03016(21)
C7 C 0.79807(15) 0.3080(3) 0.09167(20)
C8 C 0.98311(15) 0.6411(3) 0.21131(21)
C9 C 1.01193(16) 0.7200(3) 0.11006(22)
C10 C 1.07234(16) 0.8524(3) 0.13645(22)
C11 C 1.10536(15) 0.9012(3) 0.26680(22)
C12 C 1.07531(16) 0.8231(3) 0.36816(22)
C13 C 1.01379(15) 0.6951(3) 0.34154(21)
C14 C 1.19451(25) 1.1207(4) 0.2074(3)
H1 H 0.922 0.026 0.299
H2 H 0.786 -0.139 0.182
H3 H 0.657 -0.015 0.020
H4 H 0.663 0.270 -0.044
H5 H 0.988 0.679 0.009
H6 H 1.093 0.916 0.057
H7 H 1.103 0.864 0.469
H8 H 0.990 0.635 0.420
H9 H 1.235 1.216 0.264
H10 H 1.230 1.038 0.155
H11 H 1.132 1.170 0.143
loop_
_geom_bond_atom_site_label_1
_geom_bond_atom_site_label_2
_geom_bond_site_symmetry_1
_geom_bond_site_symmetry_2
S1 N1 1_555 1_555
O1 C1 1_555 1_555
O2 C11 1_555 1_555
N1 C1 1_555 1_555
C1 C2 1_555 1_555
C2 C3 1_555 1_555
C3 C4 1_555 1_555
C4 C5 1_555 1_555
C5 C6 1_555 1_555
C6 C7 1_555 1_555
C7 S1 1_555 1_555
C8 N1 1_555 1_555
C9 C8 1_555 1_555
C10 C9 1_555 1_555
C11 C10 1_555 1_555
C12 C11 1_555 1_555
C13 C8 1_555 1_555
C14 O2 1_555 1_555
H1 C3 1_555 1_555
H2 C4 1_555 1_555
H3 C5 1_555 1_555
H4 C6 1_555 1_555
H5 C9 1_555 1_555
H6 C10 1_555 1_555
H7 C12 1_555 1_555
H8 C13 1_555 1_555
H9 C14 1_555 1_555
H10 C14 1_555 1_555
H11 C14 1_555 1_555
C2 C7 1_555 1_555
C12 C13 1_555 1_555

#END
