
#######################################################################
#
#                 Cambridge Crystallographic Data Centre
#                                CCDC 
#
#######################################################################
#
# If this CIF has been generated from an entry in the Cambridge 
# Structural Database, then it will include bibliographic, chemical, 
# crystal, experimental, refinement or atomic coordinate data resulting 
# from the CCDC's data processing and validation procedures.
#
#######################################################################

data_NAJBAB
_chemical_formula_moiety         'C15 H13 N1 O1 S1'
_chemical_name_systematic        
2-(2-Phenylethyl)-1,2-benzisothiazolin-3(2H)-one
_chemical_properties_biological  'potential pharmacological activity'
_symmetry_cell_setting           monoclinic
_symmetry_space_group_name_H-M   'P 21/c'
_symmetry_Int_Tables_number      14
_space_group_name_Hall           '-P 2ybc'
loop_
_symmetry_equiv_pos_site_id
_symmetry_equiv_pos_as_xyz
1 x,y,z
2 -x,1/2+y,1/2-z
3 -x,-y,-z
4 x,1/2-y,1/2+z
_cell_length_a                   8.6230(20)
_cell_length_b                   10.5990(20)
_cell_length_c                   13.9350(20)
_cell_angle_alpha                90
_cell_angle_beta                 99.590(20)
_cell_angle_gamma                90
_cell_volume                     1255.79
_chemical_melting_point          95-96deg.C
_cell_formula_units_Z            4
loop_
_atom_site_label
_atom_site_type_symbol
_atom_site_fract_x
_atom_site_fract_y
_atom_site_fract_z
S1 S 0.51860(8) 0.69608(6) 0.02473(5)
O1 O 0.47692(22) 0.83085(20) -0.23101(12)
N1 N 0.5456(3) 0.71179(19) -0.09340(17)
C1 C 0.4682(3) 0.80851(22) -0.14577(17)
C2 C 0.37683(25) 0.87530(21) -0.08192(15)
C3 C 0.2807(3) 0.97986(23) -0.10640(17)
C4 C 0.2030(3) 1.03126(25) -0.03672(19)
C5 C 0.2214(3) 0.98005(25) 0.05625(20)
C6 C 0.3158(3) 0.87755(24) 0.08211(18)
C7 C 0.3926(3) 0.82478(21) 0.01133(17)
C8 C 0.6506(3) 0.6250(3) -0.13392(22)
C9 C 0.8177(3) 0.6328(3) -0.08089(20)
C10 C 0.9313(3) 0.54894(23) -0.12234(16)
C11 C 1.0749(3) 0.5967(3) -0.13802(20)
C12 C 1.1816(3) 0.5220(4) -0.17495(22)
C13 C 1.1466(4) 0.3977(4) -0.19660(20)
C14 C 1.0050(4) 0.3471(3) -0.18059(21)
C15 C 0.8992(3) 0.42330(25) -0.14349(19)
H1 H 0.265 1.019 -0.179
H2 H 0.128 1.112 -0.054
H3 H 0.160 1.023 0.109
H4 H 0.329 0.838 0.154
H5 H 0.608 0.530 -0.130
H6 H 0.650 0.649 -0.209
H7 H 0.857 0.729 -0.083
H8 H 0.817 0.605 -0.006
H9 H 1.104 0.694 -0.121
H10 H 1.292 0.561 -0.188
H11 H 1.229 0.338 -0.226
H12 H 0.977 0.249 -0.197
H13 H 0.789 0.384 -0.131
loop_
_geom_bond_atom_site_label_1
_geom_bond_atom_site_label_2
_geom_bond_site_symmetry_1
_geom_bond_site_symmetry_2
S1 N1 1_555 1_555
O1 C1 1_555 1_555
N1 C1 1_555 1_555
C1 C2 1_555 1_555
C2 C3 1_555 1_555
C3 C4 1_555 1_555
C4 C5 1_555 1_555
C5 C6 1_555 1_555
C6 C7 1_555 1_555
C7 S1 1_555 1_555
C8 N1 1_555 1_555
C9 C8 1_555 1_555
C10 C9 1_555 1_555
C11 C10 1_555 1_555
C12 C11 1_555 1_555
C13 C12 1_555 1_555
C14 C13 1_555 1_555
C15 C10 1_555 1_555
H1 C3 1_555 1_555
H2 C4 1_555 1_555
H3 C5 1_555 1_555
H4 C6 1_555 1_555
H5 C8 1_555 1_555
H6 C8 1_555 1_555
H7 C9 1_555 1_555
H8 C9 1_555 1_555
H9 C11 1_555 1_555
H10 C12 1_555 1_555
H11 C13 1_555 1_555
H12 C14 1_555 1_555
H13 C15 1_555 1_555
C2 C7 1_555 1_555
C14 C15 1_555 1_555

#END
