
#######################################################################
#
#                 Cambridge Crystallographic Data Centre
#                                CCDC 
#
#######################################################################
#
# If this CIF has been generated from an entry in the Cambridge 
# Structural Database, then it will include bibliographic, chemical, 
# crystal, experimental, refinement or atomic coordinate data resulting 
# from the CCDC's data processing and validation procedures.
#
#######################################################################

data_NAJDOS
_chemical_formula_moiety         'C20 H15 N3'
_chemical_name_systematic        anti,anti-1,3-bis(Phenylimino)isoindoline
_symmetry_cell_setting           monoclinic
_symmetry_space_group_name_H-M   'P 21/c'
_symmetry_Int_Tables_number      14
_space_group_name_Hall           '-P 2ybc'
loop_
_symmetry_equiv_pos_site_id
_symmetry_equiv_pos_as_xyz
1 x,y,z
2 -x,1/2+y,1/2-z
3 -x,-y,-z
4 x,1/2-y,1/2+z
_cell_length_a                   11.3341(4)
_cell_length_b                   14.926(1)
_cell_length_c                   9.2767(5)
_cell_angle_alpha                90
_cell_angle_beta                 90.431(4)
_cell_angle_gamma                90
_cell_volume                     1569.32
_exptl_crystal_colour            'pale yellow'
_exptl_crystal_description       'hopper fragment'
_chemical_melting_point          122-125deg.C
_cell_formula_units_Z            4
loop_
_atom_site_label
_atom_site_type_symbol
_atom_site_fract_x
_atom_site_fract_y
_atom_site_fract_z
N1 N 0.33049(12) 0.16243(8) 0.35581(15)
N2 N 0.32831(12) 0.32102(8) 0.31051(17)
N3 N 0.37791(12) 0.00587(8) 0.33487(15)
C1 C 0.39536(13) 0.0884(1) 0.30983(17)
C2 C 0.48694(13) 0.12528(11) 0.21497(17)
C3 C 0.47280(14) 0.21772(11) 0.20767(18)
C4 C 0.37077(13) 0.2424(1) 0.29629(18)
C5 C 0.54482(15) 0.26999(12) 0.1226(2)
C6 C 0.62916(17) 0.22652(15) 0.0420(2)
C7 C 0.64224(16) 0.13396(15) 0.0481(2)
C8 C 0.57140(15) 0.08169(12) 0.1348(2)
C9 C 0.22164(14) 0.33302(9) 0.38628(18)
C10 C 0.21799(16) 0.39232(11) 0.50182(19)
C11 C 0.11311(18) 0.40972(12) 0.5706(2)
C12 C 0.00998(17) 0.37025(13) 0.5250(2)
C13 C 0.01234(15) 0.31214(12) 0.4100(2)
C14 C 0.11665(15) 0.29348(11) 0.34066(19)
C15 C 0.28149(14) -0.02021(9) 0.42223(18)
C16 C 0.20033(17) -0.08000(11) 0.36527(18)
C17 C 0.10643(17) -0.10900(13) 0.4460(2)
C18 C 0.09299(18) -0.08012(13) 0.5851(2)
C19 C 0.1741(2) -0.02231(13) 0.64346(19)
C20 C 0.26833(17) 0.00767(11) 0.56312(19)
H1 H 0.2731(16) 0.1587(12) 0.413(2)
H2 H 0.5366 0.3333 0.1197
H3 H 0.6793 0.2604 -0.0189
H4 H 0.7012 0.1060 -0.0086
H5 H 0.5804 0.0184 0.1392
H6 H 0.2884 0.4210 0.5335
H7 H 0.1121 0.4495 0.6505
H8 H -0.0621 0.3830 0.5724
H9 H -0.0587 0.2845 0.3780
H10 H 0.1170 0.2533 0.2612
H11 H 0.2096 -0.1012 0.2694
H12 H 0.0506 -0.1493 0.4051
H13 H 0.0279 -0.1000 0.6406
H14 H 0.1654 -0.0027 0.7402
H15 H 0.3242 0.0476 0.6049
loop_
_geom_bond_atom_site_label_1
_geom_bond_atom_site_label_2
_geom_bond_site_symmetry_1
_geom_bond_site_symmetry_2
N1 C1 1_555 1_555
N2 C4 1_555 1_555
N3 C1 1_555 1_555
C1 C2 1_555 1_555
C2 C3 1_555 1_555
C3 C4 1_555 1_555
C4 N1 1_555 1_555
C5 C3 1_555 1_555
C6 C5 1_555 1_555
C7 C6 1_555 1_555
C8 C2 1_555 1_555
C9 N2 1_555 1_555
C10 C9 1_555 1_555
C11 C10 1_555 1_555
C12 C11 1_555 1_555
C13 C12 1_555 1_555
C14 C9 1_555 1_555
C15 N3 1_555 1_555
C16 C15 1_555 1_555
C17 C16 1_555 1_555
C18 C17 1_555 1_555
C19 C18 1_555 1_555
C20 C15 1_555 1_555
H1 N1 1_555 1_555
H2 C5 1_555 1_555
H3 C6 1_555 1_555
H4 C7 1_555 1_555
H5 C8 1_555 1_555
H6 C10 1_555 1_555
H7 C11 1_555 1_555
H8 C12 1_555 1_555
H9 C13 1_555 1_555
H10 C14 1_555 1_555
H11 C16 1_555 1_555
H12 C17 1_555 1_555
H13 C18 1_555 1_555
H14 C19 1_555 1_555
H15 C20 1_555 1_555
C7 C8 1_555 1_555
C13 C14 1_555 1_555
C19 C20 1_555 1_555

#END
