
#######################################################################
#
#                 Cambridge Crystallographic Data Centre
#                                CCDC 
#
#######################################################################
#
# If this CIF has been generated from an entry in the Cambridge 
# Structural Database, then it will include bibliographic, chemical, 
# crystal, experimental, refinement or atomic coordinate data resulting 
# from the CCDC's data processing and validation procedures.
#
#######################################################################

data_NAJDAF
_chemical_formula_moiety         'C12 H10 N6 O2,H2 O1'
_chemical_name_systematic        
"3,3'-(4-Amino-4H-1,2,4-triazole-3,5-diyl)bis(pyridine N-oxide) monohydrate"
_symmetry_cell_setting           monoclinic
_symmetry_space_group_name_H-M   'P 21/c'
_symmetry_Int_Tables_number      14
_space_group_name_Hall           '-P 2ybc'
loop_
_symmetry_equiv_pos_site_id
_symmetry_equiv_pos_as_xyz
1 x,y,z
2 -x,1/2+y,1/2-z
3 -x,-y,-z
4 x,1/2-y,1/2+z
_cell_length_a                   14.583(4)
_cell_length_b                   6.4827(17)
_cell_length_c                   13.868(4)
_cell_angle_alpha                90
_cell_angle_beta                 107.510(4)
_cell_angle_gamma                90
_cell_volume                     1250.29
_exptl_crystal_colour            colorless
_chemical_melting_point          '320-323 deg.C'
_cell_formula_units_Z            4
loop_
_atom_site_label
_atom_site_type_symbol
_atom_site_fract_x
_atom_site_fract_y
_atom_site_fract_z
C1 C -0.11432(11) 0.4067(3) 0.32163(12)
H1 H -0.1800 0.4107 0.2882
C2 C -0.05753(11) 0.5720(3) 0.31610(13)
H2 H -0.0850 0.6881 0.2793
H3 H 0.2513 -0.0366 0.4243
H4 H 0.1979 -0.0870 0.5020
C3 C 0.04023(11) 0.5678(2) 0.36477(12)
H7 H 0.0789 0.6799 0.3612
C4 C 0.07941(10) 0.3926(2) 0.41898(11)
C5 C 0.01986(10) 0.2307(2) 0.42347(11)
H8 H 0.0458 0.1137 0.4605
C6 C 0.18217(10) 0.3793(2) 0.47431(11)
C7 C 0.32485(10) 0.2626(2) 0.54774(11)
C8 C 0.40855(10) 0.1278(2) 0.58711(11)
C9 C 0.40250(11) -0.0738(2) 0.61886(12)
H9 H 0.3432 -0.1335 0.6134
C10 C 0.48639(11) -0.1828(2) 0.65858(11)
H10 H 0.4834 -0.3185 0.6792
C11 C 0.57442(11) -0.0949(2) 0.66833(12)
H11 H 0.6305 -0.1698 0.6964
C12 C 0.49827(10) 0.2110(2) 0.59621(11)
H12 H 0.5027 0.3448 0.5738
N1 N 0.32678(9) 0.4628(2) 0.56267(11)
N2 N 0.23539(9) 0.5369(2) 0.51653(11)
N3 N 0.23512(8) 0.20224(18) 0.49254(9)
N4 N 0.20353(8) 0.00873(19) 0.44848(10)
N5 N -0.07514(8) 0.2384(2) 0.37538(9)
N6 N 0.57910(8) 0.1017(2) 0.63686(10)
O1 O 0.66325(7) 0.18472(19) 0.64557(10)
O2 O -0.12881(8) 0.07940(18) 0.38324(9)
H5 H 0.2196 0.4770 0.2295
H6 H 0.2875 0.5409 0.3212
O3 O 0.26125(10) 0.4196(2) 0.28611(11)
loop_
_geom_bond_atom_site_label_1
_geom_bond_atom_site_label_2
_geom_bond_site_symmetry_1
_geom_bond_site_symmetry_2
C1 H1 1_555 1_555
C2 C1 1_555 1_555
H2 C2 1_555 1_555
H3 N4 1_555 1_555
H4 N4 1_555 1_555
H5 O3 1_555 1_555
H6 O3 1_555 1_555
C3 C2 1_555 1_555
H7 C3 1_555 1_555
C4 C3 1_555 1_555
C5 C4 1_555 1_555
H8 C5 1_555 1_555
C6 C4 1_555 1_555
C7 C8 1_555 1_555
C8 C9 1_555 1_555
C9 H9 1_555 1_555
C10 C9 1_555 1_555
H10 C10 1_555 1_555
C11 C10 1_555 1_555
H11 C11 1_555 1_555
C12 C8 1_555 1_555
H12 C12 1_555 1_555
N1 C7 1_555 1_555
N2 C6 1_555 1_555
N3 C6 1_555 1_555
N4 N3 1_555 1_555
N5 C1 1_555 1_555
N6 C11 1_555 1_555
O1 N6 1_555 1_555
O2 N5 1_555 1_555
C5 N5 1_555 1_555
C7 N3 1_555 1_555
C12 N6 1_555 1_555
N1 N2 1_555 1_555

#END
