
#######################################################################
#
#                 Cambridge Crystallographic Data Centre
#                                CCDC 
#
#######################################################################
#
# If this CIF has been generated from an entry in the Cambridge 
# Structural Database, then it will include bibliographic, chemical, 
# crystal, experimental, refinement or atomic coordinate data resulting 
# from the CCDC's data processing and validation procedures.
#
#######################################################################

data_NAJFAG
_chemical_formula_moiety         'C14 H10 N2 O1'
_chemical_name_systematic        anti-3-(Phenylimino)isoindolinone
_symmetry_cell_setting           monoclinic
_symmetry_space_group_name_H-M   'P 21/c'
_symmetry_Int_Tables_number      14
_space_group_name_Hall           '-P 2ybc'
loop_
_symmetry_equiv_pos_site_id
_symmetry_equiv_pos_as_xyz
1 x,y,z
2 -x,1/2+y,1/2-z
3 -x,-y,-z
4 x,1/2-y,1/2+z
_cell_length_a                   11.1873(15)
_cell_length_b                   5.0576(7)
_cell_length_c                   19.985(3)
_cell_angle_alpha                90
_cell_angle_beta                 101.713(11)
_cell_angle_gamma                90
_cell_volume                     1107.22
_exptl_crystal_colour            orange
_exptl_crystal_description       plate
_chemical_melting_point          162-164deg.C
_cell_formula_units_Z            4
_exptl_crystal_recrystallization_method 'ethyl acetate/hexane (1:3)'
loop_
_atom_site_label
_atom_site_type_symbol
_atom_site_fract_x
_atom_site_fract_y
_atom_site_fract_z
O1 O 0.43634(9) 0.2593(2) 0.43300(6)
C1 C 0.54429(12) 0.1973(3) 0.44323(7)
C2 C 0.60226(12) -0.0054(3) 0.40627(7)
C3 C 0.72657(11) -0.0065(3) 0.43470(7)
C4 C 0.74936(11) 0.1884(3) 0.49071(7)
C5 C 0.80502(13) -0.1801(3) 0.41153(7)
C6 C 0.75466(15) -0.3484(3) 0.35897(8)
C7 C 0.63055(16) -0.3464(4) 0.33045(8)
C8 C 0.55215(14) -0.1733(4) 0.35405(8)
C9 C 0.85966(12) 0.4039(3) 0.58641(7)
C10 C 0.79501(13) 0.3437(3) 0.63723(8)
C11 C 0.81078(15) 0.4984(4) 0.69577(8)
C12 C 0.89052(17) 0.7094(4) 0.70431(8)
C13 C 0.95388(15) 0.7678(3) 0.65371(8)
C14 C 0.93968(13) 0.6164(3) 0.59528(8)
N1 N 0.6355(1) 0.3017(3) 0.49203(6)
N2 N 0.8527(1) 0.2371(2) 0.52868(6)
H1 H 0.6218(15) 0.434(4) 0.5188(8)
H2 H 0.8899 -0.1831 0.4310
H3 H 0.8062 -0.4689 0.3418
H4 H 0.5990 -0.4650 0.2943
H5 H 0.4672 -0.1710 0.3349
H6 H 0.7405 0.1976 0.6318
H7 H 0.7663 0.4585 0.7302
H8 H 0.9017 0.8136 0.7447
H9 H 1.0081 0.9144 0.6592
H10 H 0.9847 0.6576 0.5611
loop_
_geom_bond_atom_site_label_1
_geom_bond_atom_site_label_2
_geom_bond_site_symmetry_1
_geom_bond_site_symmetry_2
O1 C1 1_555 1_555
C1 C2 1_555 1_555
C2 C3 1_555 1_555
C3 C4 1_555 1_555
C4 N1 1_555 1_555
C5 C3 1_555 1_555
C6 C5 1_555 1_555
C7 C6 1_555 1_555
C8 C2 1_555 1_555
C9 C10 1_555 1_555
C10 C11 1_555 1_555
C11 C12 1_555 1_555
C12 C13 1_555 1_555
C13 C14 1_555 1_555
C14 C9 1_555 1_555
N1 C1 1_555 1_555
N2 C4 1_555 1_555
H1 N1 1_555 1_555
H2 C5 1_555 1_555
H3 C6 1_555 1_555
H4 C7 1_555 1_555
H5 C8 1_555 1_555
H6 C10 1_555 1_555
H7 C11 1_555 1_555
H8 C12 1_555 1_555
H9 C13 1_555 1_555
H10 C14 1_555 1_555
C7 C8 1_555 1_555
C9 N2 1_555 1_555

#END
