
#######################################################################
#
#                 Cambridge Crystallographic Data Centre
#                                CCDC 
#
#######################################################################
#
# If this CIF has been generated from an entry in the Cambridge 
# Structural Database, then it will include bibliographic, chemical, 
# crystal, experimental, refinement or atomic coordinate data resulting 
# from the CCDC's data processing and validation procedures.
#
#######################################################################

data_NAJKAN
_chemical_formula_moiety         'C20 H16 Cl1 N1 O4'
_chemical_name_systematic        
'Ethyl 2-amino-4-benzoyl-5-(4-chlorophenyl)-3-furoate'
_symmetry_cell_setting           monoclinic
_symmetry_space_group_name_H-M   'P 21/c'
_symmetry_Int_Tables_number      14
_space_group_name_Hall           '-P 2ybc'
loop_
_symmetry_equiv_pos_site_id
_symmetry_equiv_pos_as_xyz
1 x,y,z
2 -x,1/2+y,1/2-z
3 -x,-y,-z
4 x,1/2-y,1/2+z
_cell_length_a                   12.139(2)
_cell_length_b                   8.0822(12)
_cell_length_c                   18.146(2)
_cell_angle_alpha                90
_cell_angle_beta                 96.907(3)
_cell_angle_gamma                90
_cell_volume                     1767.38
_exptl_crystal_colour            yellow
_cell_formula_units_Z            4
loop_
_atom_site_label
_atom_site_type_symbol
_atom_site_fract_x
_atom_site_fract_y
_atom_site_fract_z
C1 C 0.13285(17) 0.9749(2) 0.84489(11)
C2 C 0.40859(16) 0.8548(3) 1.03079(12)
C3 C 0.36162(17) 0.8393(3) 0.95875(12)
C4 C 0.30433(16) 0.9931(2) 0.94065(11)
C5 C 0.31771(17) 1.0888(2) 1.00197(12)
C6 C 0.27731(17) 1.2496(2) 1.02244(12)
C7 C 0.31259(18) 1.3187(3) 1.09137(13)
H1 H 0.3647 1.2629 1.1240
C8 C 0.2718(2) 1.4686(3) 1.11220(14)
H2 H 0.2966 1.5134 1.1584
C9 C 0.1951(2) 1.5509(3) 1.06478(13)
C10 C 0.1586(2) 1.4870(3) 0.99618(14)
H3 H 0.1066 1.5442 0.9640
C11 C 0.1997(2) 1.3373(3) 0.97543(13)
H4 H 0.1748 1.2942 0.9289
C12 C 0.24704(18) 1.0366(3) 0.86545(12)
C13 C 0.0849(2) 0.9791(4) 0.77230(14)
H5 H 0.1251 1.0189 0.7355
C14 C -0.0214(3) 0.9252(4) 0.75394(17)
H6 H -0.0530 0.9282 0.7047
C15 C -0.0818(2) 0.8670(4) 0.80700(18)
H7 H -0.1542 0.8307 0.7940
C16 C -0.0361(2) 0.8623(3) 0.87872(17)
H8 H -0.0774 0.8232 0.9150
C17 C 0.07136(19) 0.9151(3) 0.89827(14)
H9 H 0.1025 0.9104 0.9476
C18 C 0.37432(18) 0.6961(3) 0.91357(13)
C19 C 0.3269(3) 0.5779(4) 0.79349(17)
H10 H 0.3211 0.4756 0.8207
H11 H 0.2630 0.5851 0.7560
C20 C 0.4267(4) 0.5743(5) 0.7576(2)
H12 H 0.4392 0.6816 0.7375
H13 H 0.4187 0.4941 0.7183
H14 H 0.4886 0.5448 0.7932
Cl1 Cl 0.14216(6) 1.73845(8) 1.09201(4)
N1 N 0.47107(15) 0.7538(2) 1.07631(11)
H15 H 0.4933 0.7843 1.1210
H16 H 0.4892 0.6581 1.0610
O1 O 0.38299(11) 1.00366(17) 1.05837(8)
O2 O 0.29521(13) 1.1199(2) 0.82345(9)
O3 O 0.42233(14) 0.5716(2) 0.93499(9)
O4 O 0.32561(15) 0.7162(2) 0.84396(9)
loop_
_geom_bond_atom_site_label_1
_geom_bond_atom_site_label_2
_geom_bond_site_symmetry_1
_geom_bond_site_symmetry_2
C1 C12 1_555 1_555
C2 C3 1_555 1_555
C3 C4 1_555 1_555
C4 C5 1_555 1_555
C5 C6 1_555 1_555
C6 C7 1_555 1_555
C7 H1 1_555 1_555
C8 C7 1_555 1_555
H2 C8 1_555 1_555
C9 C8 1_555 1_555
C10 C9 1_555 1_555
H3 C10 1_555 1_555
C11 C6 1_555 1_555
H4 C11 1_555 1_555
C12 C4 1_555 1_555
C13 C1 1_555 1_555
H5 C13 1_555 1_555
C14 C13 1_555 1_555
H6 C14 1_555 1_555
C15 C14 1_555 1_555
H7 C15 1_555 1_555
C16 C15 1_555 1_555
H8 C16 1_555 1_555
C17 C1 1_555 1_555
H9 C17 1_555 1_555
C18 C3 1_555 1_555
C19 H10 1_555 1_555
H11 C19 1_555 1_555
C20 C19 1_555 1_555
H12 C20 1_555 1_555
H13 C20 1_555 1_555
H14 C20 1_555 1_555
Cl1 C9 1_555 1_555
N1 C2 1_555 1_555
H15 N1 1_555 1_555
H16 N1 1_555 1_555
O1 C2 1_555 1_555
O2 C12 1_555 1_555
O3 C18 1_555 1_555
O4 C18 1_555 1_555
C5 O1 1_555 1_555
C10 C11 1_555 1_555
C16 C17 1_555 1_555
C19 O4 1_555 1_555

#END
