
#######################################################################
#
#                 Cambridge Crystallographic Data Centre
#                                CCDC 
#
#######################################################################
#
# If this CIF has been generated from an entry in the Cambridge 
# Structural Database, then it will include bibliographic, chemical, 
# crystal, experimental, refinement or atomic coordinate data resulting 
# from the CCDC's data processing and validation procedures.
#
#######################################################################

data_NAJLUI
_chemical_formula_moiety         'C17 H11 Cl2 N1 O1'
_chemical_name_systematic        
3-(4-Chlorobenzoyl)-4-(4-chlorophenyl)but-3-enenitrile
_symmetry_cell_setting           tetragonal
_symmetry_space_group_name_H-M   'I -4'
_symmetry_Int_Tables_number      82
_space_group_name_Hall           'I -4'
loop_
_symmetry_equiv_pos_site_id
_symmetry_equiv_pos_as_xyz
1 x,y,z
2 -x,-y,z
3 y,-x,-z
4 -y,x,-z
5 1/2+x,1/2+y,1/2+z
6 1/2-x,1/2-y,1/2+z
7 1/2+y,1/2-x,1/2-z
8 1/2-y,1/2+x,1/2-z
_cell_length_a                   22.8538(15)
_cell_length_b                   22.8538(15)
_cell_length_c                   5.7082(9)
_cell_angle_alpha                90
_cell_angle_beta                 90
_cell_angle_gamma                90
_cell_volume                     2981.37
_exptl_crystal_colour            white
_exptl_crystal_description       block
_cell_formula_units_Z            8
loop_
_atom_site_label
_atom_site_type_symbol
_atom_site_fract_x
_atom_site_fract_y
_atom_site_fract_z
Cl1 Cl 0.36546(2) 0.35260(2) 0.20316(13)
Cl2 Cl 0.09134(2) 0.02241(3) 1.32352(13)
O1 O 0.32226(6) -0.03177(6) 0.6475(3)
C1 C 0.25185(8) 0.01973(7) 0.8676(3)
C2 C 0.40051(8) 0.03979(8) 0.3084(4)
N1 N 0.40091(9) 0.02705(8) 0.1159(3)
C3 C 0.39877(8) 0.05880(9) 0.5544(3)
H1 H 0.4217 0.0953 0.5710
H2 H 0.4175 0.0285 0.6533
C4 C 0.20144(8) 0.05298(9) 1.2145(4)
H3 H 0.2012 0.0746 1.3566
C5 C 0.32069(10) 0.28248(9) 0.5388(4)
H4 H 0.3074 0.3174 0.6117
C6 C 0.35272(8) 0.28521(8) 0.3352(4)
C7 C 0.15302(8) 0.02140(8) 1.1464(4)
C8 C 0.33696(7) 0.06946(8) 0.6418(3)
C9 C 0.30528(8) 0.01581(8) 0.7171(3)
C10 C 0.30974(8) 0.12100(8) 0.6381(3)
H5 H 0.2727 0.1216 0.7135
C11 C 0.36133(9) 0.18173(8) 0.3307(4)
H6 H 0.3759 0.1472 0.2587
C12 C 0.32828(8) 0.17733(8) 0.5348(3)
C13 C 0.20272(8) -0.01273(8) 0.8055(4)
H7 H 0.2033 -0.0360 0.6677
C14 C 0.25048(8) 0.05267(8) 1.0717(4)
H8 H 0.2837 0.0753 1.1143
C15 C 0.15300(9) -0.01120(9) 0.9436(4)
H9 H 0.1191 -0.0325 0.8988
C16 C 0.37335(9) 0.23568(9) 0.2307(4)
H10 H 0.3957 0.2381 0.0908
C17 C 0.30802(9) 0.22906(9) 0.6359(4)
H11 H 0.2851 0.2273 0.7745
loop_
_geom_bond_atom_site_label_1
_geom_bond_atom_site_label_2
_geom_bond_site_symmetry_1
_geom_bond_site_symmetry_2
Cl1 C6 1_555 1_555
Cl2 C7 1_555 1_555
O1 C9 1_555 1_555
C1 C9 1_555 1_555
C2 N1 1_555 1_555
C3 C2 1_555 1_555
H1 C3 1_555 1_555
H2 C3 1_555 1_555
C4 H3 1_555 1_555
C5 H4 1_555 1_555
C6 C5 1_555 1_555
C7 C4 1_555 1_555
C8 C3 1_555 1_555
C9 C8 1_555 1_555
C10 C8 1_555 1_555
H5 C10 1_555 1_555
C11 H6 1_555 1_555
C12 C10 1_555 1_555
C13 C1 1_555 1_555
H7 C13 1_555 1_555
C14 C1 1_555 1_555
H8 C14 1_555 1_555
C15 C7 1_555 1_555
H9 C15 1_555 1_555
C16 C6 1_555 1_555
H10 C16 1_555 1_555
C17 C5 1_555 1_555
H11 C17 1_555 1_555
C4 C14 1_555 1_555
C11 C12 1_555 1_555
C11 C16 1_555 1_555
C12 C17 1_555 1_555
C13 C15 1_555 1_555

#END
