
#######################################################################
#
#                 Cambridge Crystallographic Data Centre
#                                CCDC 
#
#######################################################################
#
# If this CIF has been generated from an entry in the Cambridge 
# Structural Database, then it will include bibliographic, chemical, 
# crystal, experimental, refinement or atomic coordinate data resulting 
# from the CCDC's data processing and validation procedures.
#
#######################################################################

data_NAJLOC
_chemical_formula_moiety         'C24 H22 N2 O2 S1'
_chemical_name_systematic        
4-Methyl-N-(2-(1-methyl-1H-indol-3-yl)-2-phenylvinyl)benzenesulfonamide
_symmetry_cell_setting           triclinic
_symmetry_space_group_name_H-M   'P -1'
_symmetry_Int_Tables_number      2
_space_group_name_Hall           '-P 1'
loop_
_symmetry_equiv_pos_site_id
_symmetry_equiv_pos_as_xyz
1 x,y,z
2 -x,-y,-z
_cell_length_a                   11.7807(15)
_cell_length_b                   13.0990(15)
_cell_length_c                   14.6550(15)
_cell_angle_alpha                98.5690(10)
_cell_angle_beta                 100.8280(10)
_cell_angle_gamma                100.2160(10)
_cell_volume                     2146.78
_exptl_crystal_colour            colorless
_exptl_crystal_description       block
_cell_formula_units_Z            4
loop_
_atom_site_label
_atom_site_type_symbol
_atom_site_fract_x
_atom_site_fract_y
_atom_site_fract_z
S1 S 0.19330(6) 0.89406(5) 0.24169(5)
N1 N 0.54059(15) 0.75424(14) 0.50327(11)
C1 C 0.47801(17) 0.70243(15) 0.55921(13)
C2 C 0.38571(17) 0.75464(14) 0.57257(13)
C3 C 0.39390(17) 0.83946(15) 0.52116(13)
O1 O 0.09731(17) 0.93628(16) 0.26505(15)
C4 C 0.31543(19) 0.91553(15) 0.51262(16)
C5 C 0.3077(2) 0.71548(17) 0.62661(16)
H1 H 0.2460 0.7482 0.6364
O2 O 0.17048(18) 0.79353(14) 0.18090(14)
C6 C 0.2983(2) 0.97738(16) 0.60095(18)
N2 N 0.2767(2) 0.88493(18) 0.34122(15)
C7 C 0.2669(2) 0.93462(18) 0.42938(17)
H2 H 0.2219 0.9862 0.4299
C8 C 0.4947(2) 0.61476(17) 0.59883(15)
H3 H 0.5563 0.5815 0.5899
C9 C 0.48875(18) 0.83547(16) 0.48083(14)
H4 H 0.5147 0.8818 0.4431
C10 C 0.2770(2) 0.9862(2) 0.19163(17)
C11 C 0.4169(2) 0.57944(17) 0.65141(16)
H5 H 0.4264 0.5211 0.6790
C12 C 0.3893(2) 1.00718(18) 0.68120(18)
H6 H 0.4586 0.9825 0.6813
C13 C 0.3235(2) 0.62828(17) 0.66496(17)
H7 H 0.2715 0.6014 0.7003
C14 C 0.6410(2) 0.7259(2) 0.47008(19)
H8 H 0.6605 0.6661 0.4954
H9 H 0.7075 0.7845 0.4906
H10 H 0.6218 0.7084 0.4022
C15 C 0.1941(3) 1.0127(2) 0.6059(2)
H11 H 0.1299 0.9920 0.5546
C16 C 0.1855(3) 1.0788(2) 0.6874(3)
H12 H 0.1159 1.1023 0.6898
C17 C 0.3229(3) 1.0887(2) 0.23977(19)
H13 H 0.3125 1.1087 0.3007
C18 C 0.3792(3) 1.0725(2) 0.7607(2)
H14 H 0.4418 1.0919 0.8133
C19 C 0.4002(3) 1.1344(3) 0.1081(2)
C20 C 0.3831(3) 1.1602(3) 0.1985(2)
H15 H 0.4138 1.2286 0.2322
C21 C 0.3517(4) 1.0331(3) 0.0593(3)
H16 H 0.3598 1.0143 -0.0025
C22 C 0.2914(3) 0.9588(3) 0.1002(2)
H17 H 0.2604 0.8904 0.0664
C23 C 0.2788(4) 1.1089(2) 0.7631(3)
H18 H 0.2737 1.1545 0.8165
C24 C 0.4681(4) 1.2159(4) 0.0630(3)
H19 H 0.4713 1.1839 0.0004
H20 H 0.5470 1.2413 0.1006
H21 H 0.4288 1.2739 0.0595
H22 H 0.317(2) 0.841(2) 0.3335(19)
S2 S 0.37070(6) 0.61061(6) 0.20804(4)
C25 C 0.18628(16) 0.56647(14) -0.05062(13)
C26 C 0.17582(17) 0.49485(15) -0.14200(14)
C27 C 0.10786(17) 0.73107(14) -0.09225(13)
C28 C 0.10799(16) 0.64274(14) -0.04524(12)
N3 N 0.2854(2) 0.62655(18) 0.11305(14)
C29 C 0.02254(17) 0.78422(15) -0.06372(13)
N4 N -0.02880(14) 0.72972(13) -0.00372(12)
O3 O 0.45323(16) 0.55374(18) 0.17748(13)
C30 C 0.26891(19) 0.44989(16) -0.16271(15)
H23 H 0.3423 0.4699 -0.1209
C31 C 0.2843(2) 0.53061(19) 0.26559(15)
C32 C 0.26416(19) 0.55990(17) 0.02561(14)
H24 H 0.3073 0.5072 0.0201
C33 C 0.0698(2) 0.46701(17) -0.20801(15)
H25 H 0.0071 0.4978 -0.1972
C34 C 0.02424(18) 0.64583(16) 0.00760(14)
H26 H 0.0057 0.5977 0.0460
O4 O 0.40994(17) 0.71276(15) 0.26795(13)
C35 C 0.0008(2) 0.87506(17) -0.09611(17)
H27 H -0.0554 0.9098 -0.0766
C36 C 0.1728(2) 0.77126(17) -0.15417(15)
H28 H 0.2301 0.7379 -0.1736
C37 C 0.2543(2) 0.37643(18) -0.24383(17)
H29 H 0.3172 0.3463 -0.2556
C38 C -0.1156(2) 0.7612(2) 0.04660(19)
H30 H -0.1389 0.8222 0.0260
H31 H -0.0818 0.7780 0.1133
H32 H -0.1835 0.7044 0.0337
C39 C 0.0558(2) 0.3939(2) -0.28999(17)
H33 H -0.0162 0.3759 -0.3337
C40 C 0.1477(3) 0.34749(19) -0.30726(17)
H34 H 0.1373 0.2969 -0.3616
C41 C 0.0650(3) 0.91129(19) -0.15756(19)
H35 H 0.0512 0.9712 -0.1811
C42 C 0.2334(3) 0.4250(2) 0.22618(18)
H36 H 0.2460 0.3956 0.1681
C43 C 0.1509(3) 0.86086(19) -0.18604(19)
H37 H 0.1939 0.8883 -0.2272
C44 C 0.2678(2) 0.5714(2) 0.35280(17)
H38 H 0.3028 0.6411 0.3811
C45 C 0.1453(2) 0.4063(3) 0.3591(2)
C46 C 0.1992(3) 0.5088(3) 0.3984(2)
H39 H 0.1892 0.5373 0.4577
C47 C 0.1652(3) 0.3644(2) 0.2721(2)
H40 H 0.1316 0.2942 0.2448
C48 C 0.0637(3) 0.3385(4) 0.4059(3)
H41 H 0.0589 0.3787 0.4649
H42 H 0.0944 0.2773 0.4172
H43 H -0.0137 0.3168 0.3651
H44 H 0.240(3) 0.659(2) 0.126(2)
loop_
_geom_bond_atom_site_label_1
_geom_bond_atom_site_label_2
_geom_bond_site_symmetry_1
_geom_bond_site_symmetry_2
S1 O1 1_555 1_555
N1 C1 1_555 1_555
C1 C2 1_555 1_555
C2 C3 1_555 1_555
C3 C4 1_555 1_555
C4 C6 1_555 1_555
C5 C2 1_555 1_555
H1 C5 1_555 1_555
O2 S1 1_555 1_555
C6 C12 1_555 1_555
N2 S1 1_555 1_555
C7 C4 1_555 1_555
H2 C7 1_555 1_555
C8 C1 1_555 1_555
H3 C8 1_555 1_555
C9 N1 1_555 1_555
H4 C9 1_555 1_555
C10 S1 1_555 1_555
C11 C8 1_555 1_555
H5 C11 1_555 1_555
C12 H6 1_555 1_555
C13 C5 1_555 1_555
H7 C13 1_555 1_555
C14 N1 1_555 1_555
H8 C14 1_555 1_555
H9 C14 1_555 1_555
H10 C14 1_555 1_555
C15 C6 1_555 1_555
H11 C15 1_555 1_555
C16 C15 1_555 1_555
H12 C16 1_555 1_555
C17 C10 1_555 1_555
H13 C17 1_555 1_555
C18 C12 1_555 1_555
H14 C18 1_555 1_555
C19 C20 1_555 1_555
C20 C17 1_555 1_555
H15 C20 1_555 1_555
C21 C19 1_555 1_555
H16 C21 1_555 1_555
C22 C10 1_555 1_555
H17 C22 1_555 1_555
C23 C16 1_555 1_555
H18 C23 1_555 1_555
C24 C19 1_555 1_555
H19 C24 1_555 1_555
H20 C24 1_555 1_555
H21 C24 1_555 1_555
H22 N2 1_555 1_555
S2 N3 1_555 1_555
C25 C26 1_555 1_555
C26 C30 1_555 1_555
C27 C28 1_555 1_555
C28 C25 1_555 1_555
N3 C32 1_555 1_555
C29 C27 1_555 1_555
N4 C29 1_555 1_555
O3 S2 1_555 1_555
C30 H23 1_555 1_555
C31 S2 1_555 1_555
C32 C25 1_555 1_555
H24 C32 1_555 1_555
C33 C26 1_555 1_555
H25 C33 1_555 1_555
C34 C28 1_555 1_555
H26 C34 1_555 1_555
O4 S2 1_555 1_555
C35 C29 1_555 1_555
H27 C35 1_555 1_555
C36 C27 1_555 1_555
H28 C36 1_555 1_555
C37 C30 1_555 1_555
H29 C37 1_555 1_555
C38 N4 1_555 1_555
H30 C38 1_555 1_555
H31 C38 1_555 1_555
H32 C38 1_555 1_555
C39 C33 1_555 1_555
H33 C39 1_555 1_555
C40 C37 1_555 1_555
H34 C40 1_555 1_555
C41 C35 1_555 1_555
H35 C41 1_555 1_555
C42 C31 1_555 1_555
H36 C42 1_555 1_555
C43 C36 1_555 1_555
H37 C43 1_555 1_555
C44 C31 1_555 1_555
H38 C44 1_555 1_555
C45 C46 1_555 1_555
C46 C44 1_555 1_555
H39 C46 1_555 1_555
C47 C42 1_555 1_555
H40 C47 1_555 1_555
C48 C45 1_555 1_555
H41 C48 1_555 1_555
H42 C48 1_555 1_555
H43 C48 1_555 1_555
H44 N3 1_555 1_555
C3 C9 1_555 1_555
N2 C7 1_555 1_555
C11 C13 1_555 1_555
C18 C23 1_555 1_555
C21 C22 1_555 1_555
N4 C34 1_555 1_555
C39 C40 1_555 1_555
C41 C43 1_555 1_555
C45 C47 1_555 1_555

#END
