
#######################################################################
#
#                 Cambridge Crystallographic Data Centre
#                                CCDC 
#
#######################################################################
#
# If this CIF has been generated from an entry in the Cambridge 
# Structural Database, then it will include bibliographic, chemical, 
# crystal, experimental, refinement or atomic coordinate data resulting 
# from the CCDC's data processing and validation procedures.
#
#######################################################################

data_NAJPOG
_chemical_formula_moiety         'C21 H14 O2'
_chemical_name_systematic        2,3-diphenyl-4H-chromen-4-one
_symmetry_cell_setting           orthorhombic
_symmetry_space_group_name_H-M   'P 21 21 21'
_symmetry_Int_Tables_number      19
_space_group_name_Hall           'P 2ac 2ab'
loop_
_symmetry_equiv_pos_site_id
_symmetry_equiv_pos_as_xyz
1 x,y,z
2 1/2+x,1/2-y,-z
3 -x,1/2+y,1/2-z
4 1/2-x,-y,1/2+z
_cell_length_a                   5.8344(2)
_cell_length_b                   15.9176(6)
_cell_length_c                   32.7359(12)
_cell_angle_alpha                90
_cell_angle_beta                 90
_cell_angle_gamma                90
_cell_volume                     3040.17
_exptl_crystal_colour            colorless
_exptl_crystal_description       needle
_cell_formula_units_Z            8
loop_
_atom_site_label
_atom_site_type_symbol
_atom_site_fract_x
_atom_site_fract_y
_atom_site_fract_z
C1 C 0.6886(4) 0.53155(13) 0.81838(6)
C2 C 0.8107(4) 0.45933(13) 0.81471(6)
C3 C 0.9951(4) 0.45285(13) 0.78473(7)
C4 C 1.0326(4) 0.52782(14) 0.75921(7)
C5 C 1.2067(5) 0.53109(15) 0.72981(7)
H1 H 1.3049 0.4841 0.7260
C6 C 1.2358(5) 0.60225(16) 0.70644(8)
H2 H 1.3542 0.6043 0.6866
C7 C 1.0915(5) 0.67130(16) 0.71194(8)
H3 H 1.1124 0.7200 0.6956
C8 C 0.9198(5) 0.66991(14) 0.74068(7)
H4 H 0.8218 0.7169 0.7444
C9 C 0.8932(4) 0.59741(14) 0.76437(7)
C10 C 0.5054(5) 0.55105(13) 0.84806(7)
C11 C 0.5034(5) 0.51647(15) 0.88732(8)
H5 H 0.6218 0.4792 0.8956
C12 C 0.3289(6) 0.53665(16) 0.91413(8)
H6 H 0.3272 0.5125 0.9407
C13 C 0.1570(5) 0.59156(17) 0.90282(8)
H7 H 0.0379 0.6049 0.9215
C14 C 0.1582(5) 0.62712(18) 0.86438(9)
H8 H 0.0403 0.6650 0.8566
C15 C 0.3329(5) 0.60727(15) 0.83713(8)
H9 H 0.3346 0.6323 0.8108
C16 C 0.7626(4) 0.38329(13) 0.84005(6)
C17 C 0.5569(4) 0.34027(14) 0.83581(7)
H10 H 0.4465 0.3587 0.8165
C18 C 0.5123(5) 0.26986(14) 0.86002(8)
H11 H 0.3713 0.2406 0.8572
C19 C 0.6723(5) 0.24278(14) 0.88798(7)
H12 H 0.6403 0.1955 0.9048
C20 C 0.8791(5) 0.28417(14) 0.89168(7)
H13 H 0.9901 0.2646 0.9107
C21 C 0.9259(5) 0.35443(14) 0.86772(7)
H14 H 1.0687 0.3826 0.8702
O1 O 0.7241(3) 0.59980(9) 0.79349(5)
O2 O 1.1086(3) 0.38821(10) 0.77995(5)
C22 C 0.8360(4) 0.90939(13) 0.91362(6)
C23 C 0.7082(4) 0.98063(13) 0.91739(7)
C24 C 0.5221(4) 0.99810(13) 0.88901(7)
C25 C 0.4862(4) 0.93518(14) 0.85679(7)
C26 C 0.3032(5) 0.94006(15) 0.82919(7)
H15 H 0.1992 0.9859 0.8305
C27 C 0.2740(5) 0.87806(16) 0.80006(8)
H16 H 0.1472 0.8806 0.7819
C28 C 0.4291(6) 0.81218(16) 0.79721(8)
H17 H 0.4105 0.7711 0.7764
C29 C 0.6091(6) 0.80571(15) 0.82405(8)
H18 H 0.7152 0.7606 0.8221
C30 C 0.6325(4) 0.86686(14) 0.85419(7)
C31 C 1.0196(4) 0.87848(12) 0.94086(7)
C32 C 1.1945(4) 0.82817(13) 0.92511(7)
H19 H 1.1938 0.8134 0.8970
C33 C 1.3696(5) 0.79966(14) 0.95025(8)
H20 H 1.4885 0.7659 0.9391
C34 C 1.3725(4) 0.81992(14) 0.99127(8)
H21 H 1.4949 0.8016 1.0082
C35 C 1.1947(5) 0.86723(14) 1.00748(7)
H22 H 1.1939 0.8801 1.0358
C36 C 1.0183(4) 0.89587(13) 0.98275(7)
H23 H 0.8961 0.9274 0.9943
C37 C 0.7482(4) 1.04327(13) 0.95067(7)
C38 C 0.5776(4) 1.05831(14) 0.97925(7)
H24 H 0.4350 1.0298 0.9772
C39 C 0.6143(5) 1.11484(16) 1.01091(8)
H25 H 0.4966 1.1250 1.0304
C40 C 0.8212(5) 1.15617(15) 1.01414(8)
H26 H 0.8475 1.1937 1.0362
C41 C 0.9901(5) 1.14299(14) 0.98529(8)
H27 H 1.1316 1.1723 0.9873
C42 C 0.9540(4) 1.08685(13) 0.95320(7)
H28 H 1.0696 1.0785 0.9332
O3 O 0.8062(3) 0.85398(9) 0.88189(5)
O4 O 0.4000(3) 1.06123(10) 0.89107(5)
loop_
_geom_bond_atom_site_label_1
_geom_bond_atom_site_label_2
_geom_bond_site_symmetry_1
_geom_bond_site_symmetry_2
C1 C2 1_555 1_555
C2 C3 1_555 1_555
C3 C4 1_555 1_555
C4 C5 1_555 1_555
C5 H1 1_555 1_555
C6 C5 1_555 1_555
H2 C6 1_555 1_555
C7 C6 1_555 1_555
H3 C7 1_555 1_555
C8 C7 1_555 1_555
H4 C8 1_555 1_555
C9 C4 1_555 1_555
C10 C1 1_555 1_555
C11 C10 1_555 1_555
H5 C11 1_555 1_555
C12 C11 1_555 1_555
H6 C12 1_555 1_555
C13 C12 1_555 1_555
H7 C13 1_555 1_555
C14 C13 1_555 1_555
H8 C14 1_555 1_555
C15 C10 1_555 1_555
H9 C15 1_555 1_555
C16 C2 1_555 1_555
C17 C16 1_555 1_555
H10 C17 1_555 1_555
C18 C17 1_555 1_555
H11 C18 1_555 1_555
C19 C18 1_555 1_555
H12 C19 1_555 1_555
C20 C19 1_555 1_555
H13 C20 1_555 1_555
C21 C16 1_555 1_555
H14 C21 1_555 1_555
O1 C1 1_555 1_555
O2 C3 1_555 1_555
C22 C23 1_555 1_555
C23 C24 1_555 1_555
C24 C25 1_555 1_555
C25 C26 1_555 1_555
C26 H15 1_555 1_555
C27 C26 1_555 1_555
H16 C27 1_555 1_555
C28 C27 1_555 1_555
H17 C28 1_555 1_555
C29 C28 1_555 1_555
H18 C29 1_555 1_555
C30 C25 1_555 1_555
C31 C22 1_555 1_555
C32 C31 1_555 1_555
H19 C32 1_555 1_555
C33 C32 1_555 1_555
H20 C33 1_555 1_555
C34 C33 1_555 1_555
H21 C34 1_555 1_555
C35 C34 1_555 1_555
H22 C35 1_555 1_555
C36 C31 1_555 1_555
H23 C36 1_555 1_555
C37 C23 1_555 1_555
C38 C37 1_555 1_555
H24 C38 1_555 1_555
C39 C38 1_555 1_555
H25 C39 1_555 1_555
C40 C39 1_555 1_555
H26 C40 1_555 1_555
C41 C40 1_555 1_555
H27 C41 1_555 1_555
C42 C37 1_555 1_555
H28 C42 1_555 1_555
O3 C22 1_555 1_555
O4 C24 1_555 1_555
C8 C9 1_555 1_555
C9 O1 1_555 1_555
C14 C15 1_555 1_555
C20 C21 1_555 1_555
C29 C30 1_555 1_555
C30 O3 1_555 1_555
C35 C36 1_555 1_555
C41 C42 1_555 1_555

#END
