
#######################################################################
#
#                 Cambridge Crystallographic Data Centre
#                                CCDC 
#
#######################################################################
#
# If this CIF has been generated from an entry in the Cambridge 
# Structural Database, then it will include bibliographic, chemical, 
# crystal, experimental, refinement or atomic coordinate data resulting 
# from the CCDC's data processing and validation procedures.
#
#######################################################################

data_NAJQIB
_chemical_formula_moiety         'C25 H27 N1 O4 Si1'
_chemical_name_systematic        
3-(6-methoxy-4-methyl-3-phenyl-4-((trimethylsilyl)ethynyl)-4H-chromen-2-yl)-1,3-oxazolidin-2-one
_symmetry_cell_setting           orthorhombic
_symmetry_space_group_name_H-M   'P b c a'
_symmetry_Int_Tables_number      61
_space_group_name_Hall           '-P 2ac 2ab'
loop_
_symmetry_equiv_pos_site_id
_symmetry_equiv_pos_as_xyz
1 x,y,z
2 1/2+x,1/2-y,-z
3 -x,1/2+y,1/2-z
4 1/2-x,-y,1/2+z
5 -x,-y,-z
6 1/2-x,1/2+y,z
7 x,1/2-y,1/2+z
8 1/2+x,y,1/2-z
_cell_length_a                   15.790(3)
_cell_length_b                   10.822(2)
_cell_length_c                   27.688(5)
_cell_angle_alpha                90
_cell_angle_beta                 90
_cell_angle_gamma                90
_cell_volume                     4731.31
_exptl_crystal_colour            colorless
_exptl_crystal_description       block
_cell_formula_units_Z            8
loop_
_atom_site_label
_atom_site_type_symbol
_atom_site_fract_x
_atom_site_fract_y
_atom_site_fract_z
C1 C 0.71184(15) 0.3635(2) 0.17212(9)
C2 C 0.6902(2) 0.2365(3) 0.24280(11)
H1 H 0.6595 0.1754 0.2587
C3 C 0.82342(16) 0.3844(2) 0.08269(9)
C4 C 0.61954(15) 0.4813(2) 0.11971(9)
C5 C 0.69696(14) 0.4223(2) 0.03344(9)
C6 C 0.68533(14) 0.4052(2) 0.12318(9)
C7 C 0.78045(17) 0.4177(2) 0.19571(10)
H2 H 0.8114 0.4792 0.1803
C8 C 0.7578(2) 0.2914(3) 0.26523(11)
H3 H 0.7730 0.2677 0.2963
O1 O 0.74635(15) 0.4298(3) -0.09467(7)
C9 C 0.59882(17) 0.5603(3) -0.00586(10)
H4 H 0.5530 0.6141 -0.0036
C10 C 0.73407(16) 0.4024(3) -0.01128(10)
H5 H 0.7802 0.3493 -0.0135
C11 C 0.63605(18) 0.5398(3) -0.04965(11)
H6 H 0.6159 0.5792 -0.0772
O2 O 0.58669(11) 0.52991(17) 0.07802(7)
C12 C 0.50883(17) 0.4748(3) 0.18085(11)
Si1 Si 1.01075(5) 0.44460(10) 0.09408(3)
C13 C 0.6027(2) 0.6419(3) 0.18371(12)
H7 H 0.5921 0.7136 0.1636
H8 H 0.6622 0.6398 0.1926
C14 C 0.8029(2) 0.3811(3) 0.24178(11)
H9 H 0.8491 0.4177 0.2570
C15 C 0.70433(18) 0.4594(3) -0.05255(10)
O3 O 0.48574(14) 0.5431(2) 0.21963(9)
C16 C 0.62864(15) 0.5018(2) 0.03529(9)
N1 N 0.57683(13) 0.52864(19) 0.16001(8)
C17 C 0.7199(3) 0.4855(5) -0.13734(12)
H10 H 0.6643 0.4565 -0.1455
H11 H 0.7587 0.4648 -0.1628
H12 H 0.7186 0.5735 -0.1331
C18 C 0.5462(3) 0.6408(4) 0.22775(14)
H13 H 0.5791 0.6247 0.2567
H14 H 0.5176 0.7196 0.2314
C19 C 1.0743(3) 0.3360(6) 0.0630(3)
H15 H 1.1327 0.3594 0.0656
H16 H 1.0582 0.3342 0.0296
H17 H 1.0664 0.2556 0.0769
C20 C 0.89785(17) 0.4071(3) 0.08601(10)
C21 C 1.0318(3) 0.6011(6) 0.0712(3)
H18 H 1.0918 0.6150 0.0701
H19 H 1.0060 0.6607 0.0923
H20 H 1.0085 0.6095 0.0394
C22 C 1.0314(4) 0.4533(10) 0.1580(2)
H21 H 1.0466 0.3729 0.1699
H22 H 0.9816 0.4818 0.1744
H23 H 1.0772 0.5099 0.1638
C23 C 0.71850(18) 0.2164(2) 0.07399(10)
H24 H 0.7472 0.1868 0.0457
H25 H 0.6591 0.1985 0.0714
H26 H 0.7412 0.1764 0.1021
C24 C 0.73131(14) 0.3578(2) 0.07843(9)
C25 C 0.66737(17) 0.2717(2) 0.19650(10)
H27 H 0.6217 0.2334 0.1815
O4 O 0.47221(13) 0.3831(2) 0.16887(9)
loop_
_geom_bond_atom_site_label_1
_geom_bond_atom_site_label_2
_geom_bond_site_symmetry_1
_geom_bond_site_symmetry_2
C1 C6 1_555 1_555
C2 H1 1_555 1_555
C3 C20 1_555 1_555
C4 C6 1_555 1_555
C5 C10 1_555 1_555
C6 C24 1_555 1_555
C7 C1 1_555 1_555
H2 C7 1_555 1_555
C8 C2 1_555 1_555
H3 C8 1_555 1_555
O1 C15 1_555 1_555
C9 H4 1_555 1_555
C10 H5 1_555 1_555
C11 C9 1_555 1_555
H6 C11 1_555 1_555
O2 C4 1_555 1_555
C12 O3 1_555 1_555
Si1 C19 1_555 1_555
C13 H7 1_555 1_555
H8 C13 1_555 1_555
C14 C7 1_555 1_555
H9 C14 1_555 1_555
C15 C10 1_555 1_555
O3 C18 1_555 1_555
C16 C5 1_555 1_555
N1 C4 1_555 1_555
C17 O1 1_555 1_555
H10 C17 1_555 1_555
H11 C17 1_555 1_555
H12 C17 1_555 1_555
C18 C13 1_555 1_555
H13 C18 1_555 1_555
H14 C18 1_555 1_555
C19 H15 1_555 1_555
H16 C19 1_555 1_555
H17 C19 1_555 1_555
C20 Si1 1_555 1_555
C21 Si1 1_555 1_555
H18 C21 1_555 1_555
H19 C21 1_555 1_555
H20 C21 1_555 1_555
C22 Si1 1_555 1_555
H21 C22 1_555 1_555
H22 C22 1_555 1_555
H23 C22 1_555 1_555
C23 H24 1_555 1_555
H25 C23 1_555 1_555
H26 C23 1_555 1_555
C24 C3 1_555 1_555
C25 C1 1_555 1_555
H27 C25 1_555 1_555
O4 C12 1_555 1_555
C2 C25 1_555 1_555
C5 C24 1_555 1_555
C8 C14 1_555 1_555
C9 C16 1_555 1_555
C11 C15 1_555 1_555
O2 C16 1_555 1_555
C12 N1 1_555 1_555
C13 N1 1_555 1_555
C23 C24 1_555 1_555

#END
