
#######################################################################
#
#                 Cambridge Crystallographic Data Centre
#                                CCDC 
#
#######################################################################
#
# If this CIF has been generated from an entry in the Cambridge 
# Structural Database, then it will include bibliographic, chemical, 
# crystal, experimental, refinement or atomic coordinate data resulting 
# from the CCDC's data processing and validation procedures.
#
#######################################################################

data_NAJQAT
_chemical_formula_moiety         'C35 H28 N2 Si1'
_chemical_name_systematic        
3-(3,3-diphenyl-1-(trimethylsilyl)propadienyl)-1-(phenylethynyl)-1H-indole-5-carbonitrile
_symmetry_cell_setting           triclinic
_symmetry_space_group_name_H-M   'P -1'
_symmetry_Int_Tables_number      2
_space_group_name_Hall           '-P 1'
loop_
_symmetry_equiv_pos_site_id
_symmetry_equiv_pos_as_xyz
1 x,y,z
2 -x,-y,-z
_cell_length_a                   10.2300(7)
_cell_length_b                   10.9279(8)
_cell_length_c                   13.3351(9)
_cell_angle_alpha                98.5620(10)
_cell_angle_beta                 91.3480(10)
_cell_angle_gamma                100.5000(10)
_cell_volume                     1447.5
_exptl_crystal_colour            colorless
_exptl_crystal_description       block
_cell_formula_units_Z            2
loop_
_atom_site_label
_atom_site_type_symbol
_atom_site_fract_x
_atom_site_fract_y
_atom_site_fract_z
C1 C 0.35443(16) 0.16314(16) 0.63282(12)
N1 N 0.42812(12) 0.17439(13) 0.54976(10)
C2 C 0.59430(16) 0.30255(16) 0.24926(12)
C3 C 0.68721(16) 0.31618(16) 0.18287(12)
C4 C 0.39234(15) 0.22445(15) 0.46573(12)
H1 H 0.3095 0.2446 0.4538
C5 C 0.55879(14) 0.15646(13) 0.54194(11)
C6 C 0.73415(15) 0.19216(14) 0.42710(11)
H2 H 0.7676 0.2183 0.3679
Si1 Si 0.35991(5) 0.38717(4) 0.28050(4)
C7 C 0.23386(19) 0.25372(18) 0.87321(14)
H3 H 0.3108 0.3147 0.8764
C8 C 0.49699(15) 0.30066(15) 0.31171(12)
C9 C 0.69036(18) 0.10291(17) 0.08215(15)
H4 H 0.7133 0.0753 0.1417
C10 C 0.6750(2) 0.02080(19) -0.00844(17)
H5 H 0.6887 -0.0612 -0.0093
C11 C 0.20828(19) 0.2682(2) 0.23752(16)
H6 H 0.1370 0.3099 0.2225
H7 H 0.1836 0.2186 0.2902
H8 H 0.2256 0.2143 0.1776
C12 C 0.3291(3) 0.4967(2) 0.3944(2)
H9 H 0.2776 0.5550 0.3744
H10 H 0.4126 0.5422 0.4261
H11 H 0.2812 0.4494 0.4415
C13 C 0.76550(17) 0.10630(16) 0.58336(12)
H12 H 0.8209 0.0756 0.6258
C14 C 0.63670(16) 0.11098(15) 0.60823(12)
H13 H 0.6034 0.0846 0.6673
C15 C 0.95050(17) 0.14540(18) 0.47135(14)
N2 N 1.05835(16) 0.1461(2) 0.45316(14)
C16 C 0.28744(17) 0.16099(17) 0.70399(13)
C17 C 0.49515(14) 0.23987(14) 0.40327(11)
C18 C 0.67215(16) 0.22501(15) 0.08553(12)
C19 C 0.6400(2) 0.0585(2) -0.09672(16)
H14 H 0.6286 0.0023 -0.1573
C20 C 0.08865(19) 0.07113(19) 0.78626(15)
H15 H 0.0671 0.0081 0.7302
C21 C 0.60362(14) 0.19653(13) 0.45078(10)
C22 C 0.80724(16) 0.41844(16) 0.20315(12)
C23 C 0.90571(18) 0.43111(18) 0.13365(15)
H16 H 0.8966 0.3750 0.0731
C24 C 0.9367(3) 0.5973(3) 0.3102(2)
H17 H 0.9466 0.6541 0.3704
C25 C 0.81364(15) 0.14775(15) 0.49410(12)
C26 C 0.0374(2) 0.1659(2) 0.94922(16)
H18 H -0.0183 0.1671 1.0033
C27 C 0.1497(2) 0.2554(2) 0.95289(14)
H19 H 0.1701 0.3180 1.0093
C28 C 0.20344(16) 0.16125(16) 0.78875(12)
C29 C 0.0064(2) 0.0746(2) 0.86646(18)
H20 H -0.0709 0.0141 0.8641
C30 C 0.4149(2) 0.4776(3) 0.1769(2)
H21 H 0.4325 0.4208 0.1188
H22 H 0.4945 0.5378 0.1995
H23 H 0.3462 0.5208 0.1589
C31 C 1.0176(2) 0.5261(2) 0.15302(19)
H24 H 1.0822 0.5334 0.1053
C32 C 1.0330(2) 0.6081(2) 0.2412(2)
H25 H 1.1084 0.6712 0.2546
C33 C 0.8248(2) 0.5033(2) 0.29198(16)
H26 H 0.7607 0.4972 0.3402
C34 C 0.6218(3) 0.1796(2) -0.09536(16)
H27 H 0.5986 0.2061 -0.1553
C35 C 0.6377(2) 0.2629(2) -0.00484(14)
H28 H 0.6252 0.3451 -0.0046
loop_
_geom_bond_atom_site_label_1
_geom_bond_atom_site_label_2
_geom_bond_site_symmetry_1
_geom_bond_site_symmetry_2
C1 N1 1_555 1_555
N1 C4 1_555 1_555
C2 C3 1_555 1_555
C3 C18 1_555 1_555
C4 H1 1_555 1_555
C5 N1 1_555 1_555
C6 H2 1_555 1_555
Si1 C8 1_555 1_555
C7 H3 1_555 1_555
C8 C2 1_555 1_555
C9 H4 1_555 1_555
C10 C9 1_555 1_555
H5 C10 1_555 1_555
C11 Si1 1_555 1_555
H6 C11 1_555 1_555
H7 C11 1_555 1_555
H8 C11 1_555 1_555
C12 Si1 1_555 1_555
H9 C12 1_555 1_555
H10 C12 1_555 1_555
H11 C12 1_555 1_555
C13 H12 1_555 1_555
C14 C5 1_555 1_555
H13 C14 1_555 1_555
C15 N2 1_555 1_555
C16 C1 1_555 1_555
C17 C4 1_555 1_555
C18 C9 1_555 1_555
C19 C10 1_555 1_555
H14 C19 1_555 1_555
C20 H15 1_555 1_555
C21 C5 1_555 1_555
C22 C3 1_555 1_555
C23 C22 1_555 1_555
H16 C23 1_555 1_555
C24 H17 1_555 1_555
C25 C6 1_555 1_555
C26 H18 1_555 1_555
C27 C7 1_555 1_555
H19 C27 1_555 1_555
C28 C7 1_555 1_555
C29 C20 1_555 1_555
H20 C29 1_555 1_555
C30 Si1 1_555 1_555
H21 C30 1_555 1_555
H22 C30 1_555 1_555
H23 C30 1_555 1_555
C31 C23 1_555 1_555
H24 C31 1_555 1_555
C32 C24 1_555 1_555
H25 C32 1_555 1_555
C33 C22 1_555 1_555
H26 C33 1_555 1_555
C34 C19 1_555 1_555
H27 C34 1_555 1_555
C35 C18 1_555 1_555
H28 C35 1_555 1_555
C6 C21 1_555 1_555
C8 C17 1_555 1_555
C13 C14 1_555 1_555
C13 C25 1_555 1_555
C15 C25 1_555 1_555
C16 C28 1_555 1_555
C17 C21 1_555 1_555
C20 C28 1_555 1_555
C24 C33 1_555 1_555
C26 C27 1_555 1_555
C26 C29 1_555 1_555
C31 C32 1_555 1_555
C34 C35 1_555 1_555

#END
