
#######################################################################
#
#                 Cambridge Crystallographic Data Centre
#                                CCDC 
#
#######################################################################
#
# If this CIF has been generated from an entry in the Cambridge 
# Structural Database, then it will include bibliographic, chemical, 
# crystal, experimental, refinement or atomic coordinate data resulting 
# from the CCDC's data processing and validation procedures.
#
#######################################################################

data_NAJQEX
_chemical_formula_moiety         'C29 H25 Cl2 N1 O2 Si1'
_chemical_name_systematic        
3-(5-chloro-1-(4-chlorophenyl)-2-phenyl-1-((trimethylsilyl)ethynyl)-1H-inden-3-yl)-1,3-oxazolidin-2-one
_symmetry_cell_setting           monoclinic
_symmetry_space_group_name_H-M   'P 21/n'
_symmetry_Int_Tables_number      14
_space_group_name_Hall           '-P 2yn'
loop_
_symmetry_equiv_pos_site_id
_symmetry_equiv_pos_as_xyz
1 x,y,z
2 1/2-x,1/2+y,1/2-z
3 -x,-y,-z
4 1/2+x,1/2-y,1/2+z
_cell_length_a                   14.8082(16)
_cell_length_b                   11.6466(13)
_cell_length_c                   16.9052(18)
_cell_angle_alpha                90
_cell_angle_beta                 106.417(2)
_cell_angle_gamma                90
_cell_volume                     2796.69
_exptl_crystal_colour            colorless
_exptl_crystal_description       block
_cell_formula_units_Z            4
loop_
_atom_site_label
_atom_site_type_symbol
_atom_site_fract_x
_atom_site_fract_y
_atom_site_fract_z
C1 C 0.70545(14) 0.19087(18) 0.32532(13)
N1 N 0.86101(11) 0.10446(17) 0.38401(11)
Cl1 Cl 0.49648(8) 0.68150(8) 0.40498(8)
C2 C 0.93981(15) 0.1359(2) 0.44252(16)
C3 C 0.66296(17) 0.2183(2) 0.17209(15)
H1 H 0.6075 0.1775 0.1664
C4 C 0.72231(14) 0.23898(19) 0.25012(14)
Cl2 Cl 0.75721(6) -0.06611(9) 0.66183(5)
C5 C 0.58200(14) 0.32339(19) 0.35716(13)
C6 C 0.62076(17) 0.0567(2) 0.55617(16)
H2 H 0.5849 0.0419 0.5922
C7 C 0.47400(16) 0.0840(2) 0.24142(16)
C8 C 0.76951(13) 0.13598(18) 0.38578(13)
C9 C 0.61181(13) 0.19877(18) 0.34831(13)
C10 C 0.63742(14) 0.13939(18) 0.43232(13)
O1 O 1.01551(11) 0.0918(2) 0.42364(12)
O2 O 0.94508(12) 0.1942(2) 0.50192(13)
C11 C 0.88188(16) 0.0402(2) 0.31726(15)
H3 H 0.8660 0.0839 0.2663
H4 H 0.8488 -0.0326 0.3080
C12 C 0.76970(16) 0.0412(2) 0.52450(14)
H5 H 0.8318 0.0160 0.5385
C13 C 0.80244(17) 0.3043(2) 0.25645(18)
H6 H 0.8414 0.3232 0.3083
C14 C 0.73107(14) 0.10291(18) 0.45305(13)
C15 C 0.6230(2) 0.5151(2) 0.40740(18)
H7 H 0.6687 0.5693 0.4313
Si1 Si 0.37860(5) 0.02496(8) 0.15605(5)
C16 C 0.98556(19) 0.0236(4) 0.35032(19)
H8 H 1.0001 -0.0567 0.3630
H9 H 1.0171 0.0483 0.3102
C17 C 0.6848(2) 0.2573(3) 0.10240(18)
H10 H 0.6438 0.2434 0.0504
C18 C 0.8252(2) 0.3418(3) 0.1870(2)
H11 H 0.8799 0.3841 0.1923
C19 C 0.5301(2) 0.5433(2) 0.38643(18)
C20 C 0.48927(17) 0.3548(2) 0.33638(18)
H12 H 0.4432 0.3013 0.3119
C21 C 0.3383(3) -0.1125(3) 0.1895(3)
H13 H 0.3896 -0.1662 0.2030
H14 H 0.2878 -0.1431 0.1457
H15 H 0.3166 -0.0995 0.2372
C22 C 0.2840(2) 0.1327(4) 0.1300(2)
H16 H 0.2665 0.1528 0.1788
H17 H 0.2304 0.1017 0.0896
H18 H 0.3058 0.2000 0.1082
C23 C 0.4267(3) 0.0044(4) 0.0670(3)
H19 H 0.4517 0.0758 0.0541
H20 H 0.3775 -0.0213 0.0202
H21 H 0.4759 -0.0521 0.0806
C24 C 0.4631(2) 0.4647(3) 0.3512(2)
H22 H 0.3998 0.4848 0.3371
C25 C 0.71234(17) 0.0185(2) 0.57414(14)
C26 C 0.7669(3) 0.3165(3) 0.1099(2)
H23 H 0.7832 0.3394 0.0631
C27 C 0.53649(15) 0.1340(2) 0.28937(14)
C28 C 0.58270(16) 0.1172(2) 0.48423(15)
H24 H 0.5207 0.1427 0.4710
C29 C 0.64876(17) 0.4046(2) 0.39267(16)
H25 H 0.7122 0.3849 0.4070
loop_
_geom_bond_atom_site_label_1
_geom_bond_atom_site_label_2
_geom_bond_site_symmetry_1
_geom_bond_site_symmetry_2
C1 C4 1_555 1_555
N1 C2 1_555 1_555
Cl1 C19 1_555 1_555
C2 O1 1_555 1_555
C3 H1 1_555 1_555
C4 C3 1_555 1_555
Cl2 C25 1_555 1_555
C5 C9 1_555 1_555
C6 H2 1_555 1_555
C7 Si1 1_555 1_555
C8 C1 1_555 1_555
C9 C1 1_555 1_555
C10 C9 1_555 1_555
O1 C16 1_555 1_555
O2 C2 1_555 1_555
C11 N1 1_555 1_555
H3 C11 1_555 1_555
H4 C11 1_555 1_555
C12 H5 1_555 1_555
C13 C4 1_555 1_555
H6 C13 1_555 1_555
C14 C8 1_555 1_555
C15 H7 1_555 1_555
Si1 C21 1_555 1_555
C16 C11 1_555 1_555
H8 C16 1_555 1_555
H9 C16 1_555 1_555
C17 C3 1_555 1_555
H10 C17 1_555 1_555
C18 C13 1_555 1_555
H11 C18 1_555 1_555
C19 C15 1_555 1_555
C20 C5 1_555 1_555
H12 C20 1_555 1_555
C21 H13 1_555 1_555
H14 C21 1_555 1_555
H15 C21 1_555 1_555
C22 Si1 1_555 1_555
H16 C22 1_555 1_555
H17 C22 1_555 1_555
H18 C22 1_555 1_555
C23 Si1 1_555 1_555
H19 C23 1_555 1_555
H20 C23 1_555 1_555
H21 C23 1_555 1_555
C24 C19 1_555 1_555
H22 C24 1_555 1_555
C25 C6 1_555 1_555
C26 C17 1_555 1_555
H23 C26 1_555 1_555
C27 C7 1_555 1_555
C28 C6 1_555 1_555
H24 C28 1_555 1_555
C29 C5 1_555 1_555
H25 C29 1_555 1_555
N1 C8 1_555 1_555
C9 C27 1_555 1_555
C10 C14 1_555 1_555
C10 C28 1_555 1_555
C12 C14 1_555 1_555
C12 C25 1_555 1_555
C15 C29 1_555 1_555
C18 C26 1_555 1_555
C20 C24 1_555 1_555

#END
