
#######################################################################
#
#                 Cambridge Crystallographic Data Centre
#                                CCDC 
#
#######################################################################
#
# If this CIF has been generated from an entry in the Cambridge 
# Structural Database, then it will include bibliographic, chemical, 
# crystal, experimental, refinement or atomic coordinate data resulting 
# from the CCDC's data processing and validation procedures.
#
#######################################################################

data_NAJSIC
_chemical_formula_moiety         'C15 H23 N1 O4'
_chemical_name_systematic        
7-Methyl-2,3,6,7,8,9,11,12-octahydro-1,4,10,13,7-benzotetraoxaazacyclopentadecine
_symmetry_cell_setting           orthorhombic
_symmetry_space_group_name_H-M   'P b c a'
_symmetry_Int_Tables_number      61
_space_group_name_Hall           '-P 2ac 2ab'
loop_
_symmetry_equiv_pos_site_id
_symmetry_equiv_pos_as_xyz
1 x,y,z
2 1/2-x,-y,1/2+z
3 -x,1/2+y,1/2-z
4 1/2+x,1/2-y,-z
5 -x,-y,-z
6 1/2+x,y,1/2-z
7 x,1/2-y,1/2+z
8 1/2-x,1/2+y,z
_cell_length_a                   16.6030(16)
_cell_length_b                   8.3768(8)
_cell_length_c                   21.075(2)
_cell_angle_alpha                90
_cell_angle_beta                 90
_cell_angle_gamma                90
_cell_volume                     2931.11
_exptl_crystal_colour            colorless
_exptl_crystal_description       block
_cell_formula_units_Z            8
_exptl_crystal_recrystallization_method dichloromethane/hexane
loop_
_atom_site_label
_atom_site_type_symbol
_atom_site_fract_x
_atom_site_fract_y
_atom_site_fract_z
O1 O 0.20746(5) 0.51711(9) 0.21206(4)
O2 O 0.21714(4) 0.70206(9) 0.32395(4)
O3 O -0.03324(5) 0.42391(9) 0.29670(3)
O4 O 0.07475(4) 0.37205(10) 0.19640(4)
N1 N 0.07106(5) 0.47393(11) 0.42029(4)
C1 C 0.10699(7) 0.43492(13) 0.14241(5)
C2 C 0.07292(7) 0.42465(16) 0.08273(6)
C3 C 0.11133(8) 0.49697(17) 0.03114(6)
C4 C 0.18287(8) 0.57739(17) 0.03983(6)
C5 C 0.21855(7) 0.58654(15) 0.09972(6)
C6 C 0.18074(7) 0.51611(13) 0.15113(5)
C7 C 0.27628(6) 0.61323(14) 0.22756(6)
C8 C 0.28225(6) 0.61056(14) 0.29837(6)
C9 C 0.18419(7) 0.64103(14) 0.38131(5)
C10 C 0.13171(7) 0.49381(13) 0.37023(5)
C11 C 0.01350(7) 0.34663(14) 0.40467(5)
C12 C -0.05487(7) 0.39929(14) 0.36133(5)
C13 C -0.03176(7) 0.27998(14) 0.26073(5)
C14 C -0.00755(7) 0.32026(14) 0.19424(5)
C15 C 0.11082(8) 0.43738(17) 0.48038(6)
H1 H 0.0224(9) 0.3647(18) 0.0769(6)
H2 H 0.0872(10) 0.4904(18) -0.0113(8)
H3 H 0.2083(9) 0.627(2) 0.0045(8)
H4 H 0.2664(8) 0.6432(17) 0.1062(7)
H5 H 0.2690(8) 0.7246(17) 0.2115(6)
H6 H 0.3263(9) 0.5679(16) 0.2098(6)
H7 H 0.2798(8) 0.5013(17) 0.3143(6)
H8 H 0.3343(8) 0.6599(16) 0.3114(6)
H9 H 0.1496(7) 0.7272(16) 0.3980(6)
H10 H 0.2293(8) 0.6205(17) 0.4132(6)
H11 H 0.1025(9) 0.5070(16) 0.3292(7)
H12 H 0.1690(8) 0.3976(16) 0.3675(6)
H13 H -0.0123(8) 0.3097(17) 0.4452(6)
H14 H 0.0424(8) 0.2491(17) 0.3859(7)
H15 H -0.1005(8) 0.3207(17) 0.3646(6)
H16 H -0.0782(9) 0.5019(16) 0.3771(7)
H17 H -0.0861(9) 0.2340(17) 0.2598(6)
H18 H 0.0094(8) 0.2035(16) 0.2793(6)
H19 H -0.0116(8) 0.2245(16) 0.1671(6)
H20 H -0.0417(7) 0.4079(15) 0.1776(6)
H21 H 0.1471(9) 0.5265(17) 0.4951(7)
H22 H 0.1457(9) 0.3355(18) 0.4757(7)
H23 H 0.0710(9) 0.4176(17) 0.5140(7)
loop_
_geom_bond_atom_site_label_1
_geom_bond_atom_site_label_2
_geom_bond_site_symmetry_1
_geom_bond_site_symmetry_2
O1 C6 1_555 1_555
O2 C8 1_555 1_555
O3 C12 1_555 1_555
O4 C1 1_555 1_555
N1 C10 1_555 1_555
C1 C2 1_555 1_555
C2 C3 1_555 1_555
C3 C4 1_555 1_555
C4 C5 1_555 1_555
C5 C6 1_555 1_555
C6 C1 1_555 1_555
C7 O1 1_555 1_555
C8 C7 1_555 1_555
C9 O2 1_555 1_555
C10 C9 1_555 1_555
C11 N1 1_555 1_555
C12 C11 1_555 1_555
C13 O3 1_555 1_555
C14 O4 1_555 1_555
C15 N1 1_555 1_555
H1 C2 1_555 1_555
H2 C3 1_555 1_555
H3 C4 1_555 1_555
H4 C5 1_555 1_555
H5 C7 1_555 1_555
H6 C7 1_555 1_555
H7 C8 1_555 1_555
H8 C8 1_555 1_555
H9 C9 1_555 1_555
H10 C9 1_555 1_555
H11 C10 1_555 1_555
H12 C10 1_555 1_555
H13 C11 1_555 1_555
H14 C11 1_555 1_555
H15 C12 1_555 1_555
H16 C12 1_555 1_555
H17 C13 1_555 1_555
H18 C13 1_555 1_555
H19 C14 1_555 1_555
H20 C14 1_555 1_555
H21 C15 1_555 1_555
H22 C15 1_555 1_555
H23 C15 1_555 1_555
C13 C14 1_555 1_555

#END
