
#######################################################################
#
#                 Cambridge Crystallographic Data Centre
#                                CCDC 
#
#######################################################################
#
# If this CIF has been generated from an entry in the Cambridge 
# Structural Database, then it will include bibliographic, chemical, 
# crystal, experimental, refinement or atomic coordinate data resulting 
# from the CCDC's data processing and validation procedures.
#
#######################################################################

data_NAJSAU
_chemical_formula_moiety         'C16 H23 N1 O5'
_chemical_name_systematic        
13-Acetyl-2,3,5,6,8,9,11,12-octahydro-1,4,7,10,13-benzotetraoxaazacyclopentadecine
_symmetry_cell_setting           monoclinic
_symmetry_space_group_name_H-M   'C 2/c'
_symmetry_Int_Tables_number      15
_space_group_name_Hall           '-C 2yn'
loop_
_symmetry_equiv_pos_site_id
_symmetry_equiv_pos_as_xyz
1 x,y,z
2 1/2+x,1/2+y,z
3 -x,y,1/2-z
4 1/2-x,1/2+y,1/2-z
5 -x,-y,-z
6 1/2-x,1/2-y,-z
7 x,-y,1/2+z
8 1/2+x,1/2-y,1/2+z
_cell_length_a                   24.774(4)
_cell_length_b                   8.1343(11)
_cell_length_c                   18.038(2)
_cell_angle_alpha                90
_cell_angle_beta                 118.517(3)
_cell_angle_gamma                90
_cell_volume                     3193.99
_exptl_crystal_colour            colorless
_exptl_crystal_description       block
_chemical_melting_point          '118-120deg. C'
_cell_formula_units_Z            8
_exptl_crystal_recrystallization_method dichloromethane/hexane
loop_
_atom_site_label
_atom_site_type_symbol
_atom_site_fract_x
_atom_site_fract_y
_atom_site_fract_z
O1 O 0.13885(5) 0.96410(12) 0.07804(7)
O2 O 0.16833(5) 1.00605(14) -0.05673(7)
O3 O 0.16084(5) 0.69903(14) -0.13832(7)
O4 O 0.06544(5) 0.52402(13) -0.11093(7)
O5 O 0.18547(5) 0.48492(13) 0.15479(7)
N1 N 0.10556(5) 0.66095(13) 0.10339(7)
C1 C 0.07539(6) 0.80475(17) 0.11216(8)
C2 C 0.02749(7) 0.78798(19) 0.13111(9)
C3 C -0.00303(7) 0.9257(2) 0.13806(9)
C4 C 0.01490(7) 1.0798(2) 0.12575(9)
C5 C 0.06223(7) 1.09850(18) 0.10599(9)
C6 C 0.09244(7) 0.96087(17) 0.09802(9)
C7 C 0.15305(7) 1.11877(18) 0.05322(10)
C8 C 0.19848(8) 1.0848(2) 0.02248(10)
C9 C 0.20936(8) 0.9553(2) -0.08700(11)
C10 C 0.17393(9) 0.8530(2) -0.16424(11)
C11 C 0.10807(8) 0.6196(2) -0.20112(10)
C12 C 0.09316(9) 0.4766(2) -0.16116(11)
C13 C 0.10638(7) 0.59642(19) -0.03135(9)
C14 C 0.07593(7) 0.57129(17) 0.02334(9)
C15 C 0.16128(7) 0.60899(17) 0.16493(9)
C16 C 0.19144(8) 0.7077(2) 0.24496(10)
H1 H 0.0155(7) 0.6773(19) 0.1387(9)
H2 H -0.0363(8) 0.913(2) 0.1506(10)
H3 H -0.0062(7) 1.176(2) 0.1310(10)
H4 H 0.0735(7) 1.204(2) 0.0976(10)
H5 H 0.1718(8) 1.194(2) 0.1022(12)
H6 H 0.1143(7) 1.1668(19) 0.0075(10)
H7 H 0.2168(8) 1.196(2) 0.0178(11)
H8 H 0.2334(8) 1.017(2) 0.0630(11)
H9 H 0.2435(8) 0.891(2) -0.0428(11)
H10 H 0.2275(8) 1.049(2) -0.1005(11)
H11 H 0.1354(8) 0.911(2) -0.2022(11)
H12 H 0.1969(8) 0.836(2) -0.1945(11)
H13 H 0.1148(8) 0.582(2) -0.2490(12)
H14 H 0.0721(8) 0.699(2) -0.2244(11)
H15 H 0.0614(8) 0.409(2) -0.2056(11)
H16 H 0.1305(8) 0.413(2) -0.1260(11)
H17 H 0.1115(7) 0.712(2) -0.0371(10)
H18 H 0.1472(8) 0.544(2) -0.0065(10)
H19 H 0.0331(7) 0.6077(18) -0.0072(9)
H20 H 0.0755(8) 0.454(2) 0.0340(11)
H21 H 0.2222(9) 0.643(2) 0.2869(13)
H22 H 0.1629(8) 0.750(2) 0.2634(11)
H23 H 0.2124(10) 0.803(3) 0.2368(13)
loop_
_geom_bond_atom_site_label_1
_geom_bond_atom_site_label_2
_geom_bond_site_symmetry_1
_geom_bond_site_symmetry_2
O1 C6 1_555 1_555
O2 C8 1_555 1_555
O3 C10 1_555 1_555
O4 C12 1_555 1_555
O5 C15 1_555 1_555
N1 C1 1_555 1_555
C1 C2 1_555 1_555
C2 C3 1_555 1_555
C3 C4 1_555 1_555
C4 C5 1_555 1_555
C5 C6 1_555 1_555
C6 C1 1_555 1_555
C7 O1 1_555 1_555
C8 C7 1_555 1_555
C9 O2 1_555 1_555
C10 C9 1_555 1_555
C11 O3 1_555 1_555
C12 C11 1_555 1_555
C13 O4 1_555 1_555
C14 N1 1_555 1_555
C15 N1 1_555 1_555
C16 C15 1_555 1_555
H1 C2 1_555 1_555
H2 C3 1_555 1_555
H3 C4 1_555 1_555
H4 C5 1_555 1_555
H5 C7 1_555 1_555
H6 C7 1_555 1_555
H7 C8 1_555 1_555
H8 C8 1_555 1_555
H9 C9 1_555 1_555
H10 C9 1_555 1_555
H11 C10 1_555 1_555
H12 C10 1_555 1_555
H13 C11 1_555 1_555
H14 C11 1_555 1_555
H15 C12 1_555 1_555
H16 C12 1_555 1_555
H17 C13 1_555 1_555
H18 C13 1_555 1_555
H19 C14 1_555 1_555
H20 C14 1_555 1_555
H21 C16 1_555 1_555
H22 C16 1_555 1_555
H23 C16 1_555 1_555
C13 C14 1_555 1_555

#END
