
#######################################################################
#
#                 Cambridge Crystallographic Data Centre
#                                CCDC 
#
#######################################################################
#
# If this CIF has been generated from an entry in the Cambridge 
# Structural Database, then it will include bibliographic, chemical, 
# crystal, experimental, refinement or atomic coordinate data resulting 
# from the CCDC's data processing and validation procedures.
#
#######################################################################

data_NAJSUO
_chemical_formula_moiety         'C30 H46 Ba2 Cl4 N2 O24'
_chemical_name_systematic        
bis(\m~2~-perchlorato-O,O',O'')-bis(13-methyl-2,3,5,6,8,9,12,13-octahydro-11H-1,4,7,10,13-benzotetraoxaazacyclopentadecine)-bis(perchlorato)-di-barium
_symmetry_cell_setting           monoclinic
_symmetry_space_group_name_H-M   'P 21/c'
_symmetry_Int_Tables_number      14
_space_group_name_Hall           '-P 2ybc'
loop_
_symmetry_equiv_pos_site_id
_symmetry_equiv_pos_as_xyz
1 x,y,z
2 -x,1/2+y,1/2-z
3 -x,-y,-z
4 x,1/2-y,1/2+z
_cell_length_a                   8.7311(14)
_cell_length_b                   15.935(3)
_cell_length_c                   15.306(2)
_cell_angle_alpha                90
_cell_angle_beta                 98.990(4)
_cell_angle_gamma                90
_cell_volume                     2103.37
_exptl_crystal_colour            colorless
_exptl_crystal_description       needle
_chemical_melting_point          '339-340deg. C(dec.)'
_cell_formula_units_Z            2
_exptl_crystal_recrystallization_method benzene/acetonitrile
loop_
_atom_site_label
_atom_site_type_symbol
_atom_site_fract_x
_atom_site_fract_y
_atom_site_fract_z
Ba1 Ba 0.87432(2) 0.525738(14) 0.682512(15)
Cl1 Cl 1.25356(12) 0.56411(7) 0.82813(7)
O1 O 1.1774(4) 0.5015(2) 0.7677(3)
O2 O 1.3873(6) 0.5278(2) 0.8781(3)
O3 O 1.3011(5) 0.6330(2) 0.7796(3)
O4 O 1.1541(5) 0.5922(3) 0.8883(3)
Cl2 Cl 0.97009(12) 0.63235(6) 0.50020(7)
O5 O 0.8225(4) 0.5950(2) 0.5048(2)
O6 O 1.0673(4) 0.6160(2) 0.5836(2)
O7 O 0.9639(5) 0.4050(2) 0.5697(2)
O8 O 0.9567(6) 0.71924(19) 0.4853(3)
O9 O 0.5646(3) 0.58371(16) 0.64785(19)
O10 O 0.6254(3) 0.41647(16) 0.64394(19)
O11 O 0.8547(3) 0.38724(17) 0.79084(19)
O12 O 0.7977(4) 0.54366(17) 0.84638(19)
N1 N 0.7714(4) 0.6906(2) 0.7328(2)
C1 C 0.6601(5) 0.7224(3) 0.6606(3)
C2 C 0.6576(5) 0.8042(3) 0.6312(3)
C3 C 0.5444(6) 0.8311(3) 0.5615(3)
C4 C 0.4326(6) 0.7750(3) 0.5239(3)
C5 C 0.4344(5) 0.6929(3) 0.5513(3)
C6 C 0.5481(5) 0.6660(2) 0.6183(3)
C7 C 0.4394(5) 0.5266(3) 0.6172(3)
C8 C 0.4793(5) 0.4457(3) 0.6654(3)
C9 C 0.6658(5) 0.3331(2) 0.6768(3)
C10 C 0.7203(5) 0.3338(3) 0.7754(3)
C11 C 0.9015(6) 0.4079(3) 0.8829(3)
C12 C 0.8058(6) 0.4785(3) 0.9107(3)
C13 C 0.7793(6) 0.6256(3) 0.8822(3)
C14 C 0.6955(5) 0.6809(3) 0.8125(3)
C15 C 0.9131(5) 0.7428(3) 0.7527(4)
H1 H 0.722(5) 0.842(3) 0.659(3)
H2 H 0.541(5) 0.891(3) 0.545(3)
H3 H 0.356(5) 0.797(2) 0.481(3)
H4 H 0.360(6) 0.651(3) 0.526(3)
H5 H 0.442(6) 0.526(3) 0.553(3)
H6 H 0.345(6) 0.547(3) 0.629(3)
H7 H 0.497(5) 0.453(2) 0.730(3)
H8 H 0.410(5) 0.400(2) 0.643(3)
H9 H 0.760(5) 0.317(2) 0.644(3)
H10 H 0.582(5) 0.295(2) 0.665(3)
H11 H 0.644(6) 0.355(3) 0.806(3)
H12 H 0.744(5) 0.276(3) 0.791(3)
H13 H 1.008(6) 0.427(3) 0.885(3)
H14 H 0.913(6) 0.361(3) 0.920(4)
H15 H 0.689(7) 0.463(3) 0.909(4)
H16 H 0.843(5) 0.500(3) 0.968(3)
H17 H 0.877(7) 0.640(3) 0.908(4)
H18 H 0.703(6) 0.626(3) 0.931(3)
H19 H 0.690(5) 0.741(3) 0.840(3)
H20 H 0.587(5) 0.661(2) 0.794(3)
H21 H 0.882(6) 0.798(3) 0.783(3)
H22 H 0.951(6) 0.749(3) 0.696(3)
H23 H 0.994(5) 0.710(3) 0.799(3)
Ba1B Ba 1.12568(2) 0.474262(14) 0.317488(15)
Cl1B Cl 0.74644(12) 0.43589(7) 0.17187(7)
O1B O 0.8226(4) 0.4985(2) 0.2323(3)
O2B O 0.6127(6) 0.4722(2) 0.1219(3)
O3B O 0.6989(5) 0.3670(2) 0.2204(3)
O4B O 0.8459(5) 0.4078(3) 0.1117(3)
Cl2B Cl 1.02991(12) 0.36765(6) 0.49980(7)
O5B O 1.1775(4) 0.4050(2) 0.4952(2)
O6B O 0.9327(4) 0.3840(2) 0.4164(2)
O7B O 1.0361(5) 0.5950(2) 0.4303(2)
O8B O 1.0433(6) 0.28076(19) 0.5147(3)
O9B O 1.4354(3) 0.41629(16) 0.35215(19)
O10B O 1.3746(3) 0.58353(16) 0.35606(19)
O11B O 1.1453(3) 0.61276(17) 0.20916(19)
O12B O 1.2023(4) 0.45634(17) 0.15362(19)
N1B N 1.2286(4) 0.3094(2) 0.2672(2)
C1B C 1.3399(5) 0.2776(3) 0.3394(3)
C2B C 1.3424(5) 0.1958(3) 0.3688(3)
C3B C 1.4556(6) 0.1689(3) 0.4385(3)
C4B C 1.5674(6) 0.2250(3) 0.4761(3)
C5B C 1.5656(5) 0.3071(3) 0.4487(3)
C6B C 1.4519(5) 0.3340(2) 0.3817(3)
C7B C 1.5606(5) 0.4734(3) 0.3828(3)
C8B C 1.5207(5) 0.5543(3) 0.3346(3)
C9B C 1.3342(5) 0.6669(2) 0.3232(3)
C10B C 1.2797(5) 0.6662(3) 0.2246(3)
C11B C 1.0985(6) 0.5921(3) 0.1171(3)
C12B C 1.1942(6) 0.5215(3) 0.0893(3)
C13B C 1.2207(6) 0.3744(3) 0.1178(3)
C14B C 1.3045(5) 0.3191(3) 0.1875(3)
C15B C 1.0869(5) 0.2572(3) 0.2473(4)
H1B H 1.278(5) 0.158(3) 0.341(3)
H2B H 1.459(5) 0.109(3) 0.455(3)
H3B H 1.644(5) 0.203(2) 0.519(3)
H4B H 1.640(6) 0.349(3) 0.474(3)
H5B H 1.558(6) 0.474(3) 0.447(3)
H6B H 1.655(6) 0.453(3) 0.371(3)
H7B H 1.503(5) 0.547(2) 0.270(3)
H8B H 1.590(5) 0.600(2) 0.357(3)
H9B H 1.240(5) 0.683(2) 0.356(3)
H10B H 1.418(5) 0.705(2) 0.335(3)
H11B H 1.356(6) 0.645(3) 0.194(3)
H12B H 1.256(5) 0.724(3) 0.209(3)
H13B H 0.992(6) 0.573(3) 0.115(3)
H14B H 1.087(6) 0.639(3) 0.080(4)
H15B H 1.311(7) 0.537(3) 0.091(4)
H16B H 1.157(5) 0.500(3) 0.032(3)
H17B H 1.123(7) 0.360(3) 0.092(4)
H18B H 1.297(6) 0.374(3) 0.069(3)
H19B H 1.310(5) 0.259(3) 0.160(3)
H20B H 1.413(5) 0.339(2) 0.206(3)
H21B H 1.118(6) 0.202(3) 0.217(3)
H22B H 1.049(6) 0.251(3) 0.304(3)
H23B H 1.006(5) 0.290(3) 0.201(3)
loop_
_geom_bond_atom_site_label_1
_geom_bond_atom_site_label_2
_geom_bond_site_symmetry_1
_geom_bond_site_symmetry_2
Ba1 O1 1_555 1_555
Cl1 O1 1_555 1_555
O2 Cl1 1_555 1_555
O3 Cl1 1_555 1_555
O4 Cl1 1_555 1_555
Cl2 O5 1_555 1_555
O5 Ba1 1_555 1_555
O6 Ba1 1_555 1_555
O7 Ba1 1_555 1_555
O8 Cl2 1_555 1_555
O9 Ba1 1_555 1_555
O10 Ba1 1_555 1_555
O11 Ba1 1_555 1_555
O12 Ba1 1_555 1_555
N1 Ba1 1_555 1_555
C1 N1 1_555 1_555
C2 C1 1_555 1_555
C3 C2 1_555 1_555
C4 C3 1_555 1_555
C5 C4 1_555 1_555
C6 O9 1_555 1_555
C7 O9 1_555 1_555
C8 O10 1_555 1_555
C9 O10 1_555 1_555
C10 O11 1_555 1_555
C11 O11 1_555 1_555
C12 O12 1_555 1_555
C13 O12 1_555 1_555
C14 N1 1_555 1_555
C15 N1 1_555 1_555
H1 C2 1_555 1_555
H2 C3 1_555 1_555
H3 C4 1_555 1_555
H4 C5 1_555 1_555
H5 C7 1_555 1_555
H6 C7 1_555 1_555
H7 C8 1_555 1_555
H8 C8 1_555 1_555
H9 C9 1_555 1_555
H10 C9 1_555 1_555
H11 C10 1_555 1_555
H12 C10 1_555 1_555
H13 C11 1_555 1_555
H14 C11 1_555 1_555
H15 C12 1_555 1_555
H16 C12 1_555 1_555
H17 C13 1_555 1_555
H18 C13 1_555 1_555
H19 C14 1_555 1_555
H20 C14 1_555 1_555
H21 C15 1_555 1_555
H22 C15 1_555 1_555
H23 C15 1_555 1_555
Ba1B O1B 1_555 1_555
Cl1B O1B 1_555 1_555
O2B Cl1B 1_555 1_555
O3B Cl1B 1_555 1_555
O4B Cl1B 1_555 1_555
Cl2B O7 1_555 1_555
O5B Ba1B 1_555 1_555
O6B Ba1B 1_555 1_555
O7B Cl2 1_555 1_555
O8B Cl2B 1_555 1_555
O9B Ba1B 1_555 1_555
O10B Ba1B 1_555 1_555
O11B Ba1B 1_555 1_555
O12B Ba1B 1_555 1_555
N1B Ba1B 1_555 1_555
C1B N1B 1_555 1_555
C2B C1B 1_555 1_555
C3B C2B 1_555 1_555
C4B C3B 1_555 1_555
C5B C4B 1_555 1_555
C6B O9B 1_555 1_555
C7B O9B 1_555 1_555
C8B O10B 1_555 1_555
C9B O10B 1_555 1_555
C10B O11B 1_555 1_555
C11B O11B 1_555 1_555
C12B O12B 1_555 1_555
C13B O12B 1_555 1_555
C14B N1B 1_555 1_555
C15B N1B 1_555 1_555
H1B C2B 1_555 1_555
H2B C3B 1_555 1_555
H3B C4B 1_555 1_555
H4B C5B 1_555 1_555
H5B C7B 1_555 1_555
H6B C7B 1_555 1_555
H7B C8B 1_555 1_555
H8B C8B 1_555 1_555
H9B C9B 1_555 1_555
H10B C9B 1_555 1_555
H11B C10B 1_555 1_555
H12B C10B 1_555 1_555
H13B C11B 1_555 1_555
H14B C11B 1_555 1_555
H15B C12B 1_555 1_555
H16B C12B 1_555 1_555
H17B C13B 1_555 1_555
H18B C13B 1_555 1_555
H19B C14B 1_555 1_555
H20B C14B 1_555 1_555
H21B C15B 1_555 1_555
H22B C15B 1_555 1_555
H23B C15B 1_555 1_555
Cl2 O6 1_555 1_555
C1 C6 1_555 1_555
C5 C6 1_555 1_555
C7 C8 1_555 1_555
C9 C10 1_555 1_555
C11 C12 1_555 1_555
C13 C14 1_555 1_555
Ba1B O7B 1_555 1_555
Cl2B O5B 1_555 1_555
Cl2B O6B 1_555 1_555
C1B C6B 1_555 1_555
C5B C6B 1_555 1_555
C7B C8B 1_555 1_555
C9B C10B 1_555 1_555
C11B C12B 1_555 1_555
C13B C14B 1_555 1_555

#END
