
#######################################################################
#
#                 Cambridge Crystallographic Data Centre
#                                CCDC 
#
#######################################################################
#
# If this CIF has been generated from an entry in the Cambridge 
# Structural Database, then it will include bibliographic, chemical, 
# crystal, experimental, refinement or atomic coordinate data resulting 
# from the CCDC's data processing and validation procedures.
#
#######################################################################

data_NAJSEY
_chemical_formula_moiety         'C16 H24 N2 O4'
_chemical_name_systematic        
1-Acetyl-2,3,5,6,8,9,11,12,13-nonahydro-4,7,10,1,13-benzotrioxadiazacyclopentadecine
_symmetry_cell_setting           orthorhombic
_symmetry_space_group_name_H-M   'P 21 21 21'
_symmetry_Int_Tables_number      19
_space_group_name_Hall           'P 2ac 2ab'
loop_
_symmetry_equiv_pos_site_id
_symmetry_equiv_pos_as_xyz
1 x,y,z
2 1/2-x,-y,1/2+z
3 -x,1/2+y,1/2-z
4 1/2+x,1/2-y,-z
_cell_length_a                   8.3151(7)
_cell_length_b                   9.3885(8)
_cell_length_c                   20.4825(18)
_cell_angle_alpha                90
_cell_angle_beta                 90
_cell_angle_gamma                90
_cell_volume                     1598.99
_exptl_crystal_colour            colorless
_exptl_crystal_description       block
_chemical_melting_point          '78-79deg. C'
_cell_formula_units_Z            4
_exptl_crystal_recrystallization_method dichloromethane/hexane
loop_
_atom_site_label
_atom_site_type_symbol
_atom_site_fract_x
_atom_site_fract_y
_atom_site_fract_z
O1 O 0.99044(12) 0.33084(10) 0.11629(5)
O2 O 1.06025(13) 0.59865(10) 0.05580(5)
O3 O 0.86368(14) 0.84455(12) 0.09746(5)
O4 O 0.52902(13) 0.36025(12) 0.06119(5)
N1 N 0.65947(14) 0.37124(11) 0.15807(5)
N2 N 0.87310(17) 0.59773(14) 0.18731(6)
C1 C 0.77135(17) 0.54987(14) 0.23480(7)
C2 C 0.76072(17) 0.61385(15) 0.29697(7)
C3 C 0.66012(18) 0.55885(16) 0.34490(7)
C4 C 0.56567(19) 0.43927(16) 0.33323(7)
C5 C 0.56960(18) 0.37827(15) 0.27113(7)
C6 C 0.66805(17) 0.43249(14) 0.22260(6)
C7 C 0.73560(18) 0.23203(14) 0.14535(7)
C8 C 0.86541(18) 0.23871(15) 0.09384(7)
C9 C 1.11352(18) 0.35123(16) 0.06831(7)
C10 C 1.0722(2) 0.46809(15) 0.02046(7)
C11 C 1.0146(2) 0.71464(16) 0.01503(7)
C12 C 1.0015(2) 0.84860(16) 0.05562(7)
C13 C 0.8999(2) 0.85544(16) 0.16556(7)
C14 C 0.97635(19) 0.72145(15) 0.19300(7)
C15 C 0.55357(17) 0.42294(14) 0.11300(7)
C16 C 0.4712(2) 0.56200(16) 0.12926(8)
H1 H 0.891(2) 0.546(2) 0.1563(9)
H2 H 0.827(2) 0.6942(19) 0.3060(8)
H3 H 0.6585(19) 0.6046(17) 0.3859(8)
H4 H 0.493(2) 0.4007(17) 0.3649(8)
H5 H 0.506(3) 0.295(2) 0.2584(9)
H6 H 0.655(2) 0.1630(19) 0.1321(8)
H7 H 0.778(2) 0.2009(19) 0.1872(8)
H8 H 0.912(2) 0.1414(18) 0.0869(8)
H9 H 0.824(2) 0.272(2) 0.0538(9)
H10 H 1.132(2) 0.2655(19) 0.0468(8)
H11 H 1.212(2) 0.3769(18) 0.0944(8)
H12 H 1.160(2) 0.4768(18) -0.0115(8)
H13 H 0.971(2) 0.4470(19) -0.0022(8)
H14 H 0.905(2) 0.6929(18) -0.0062(8)
H15 H 1.094(2) 0.7283(18) -0.0196(8)
H16 H 1.100(2) 0.863(2) 0.0811(9)
H17 H 0.991(2) 0.9316(19) 0.0267(9)
H18 H 0.796(2) 0.871(2) 0.1880(8)
H19 H 0.970(2) 0.939(2) 0.1732(9)
H20 H 1.074(2) 0.7006(16) 0.1700(8)
H21 H 0.999(2) 0.7405(17) 0.2397(8)
H22 H 0.402(2) 0.5874(19) 0.0950(9)
H23 H 0.552(2) 0.634(2) 0.1341(10)
H24 H 0.407(3) 0.552(2) 0.1708(11)
loop_
_geom_bond_atom_site_label_1
_geom_bond_atom_site_label_2
_geom_bond_site_symmetry_1
_geom_bond_site_symmetry_2
O1 C8 1_555 1_555
O2 C10 1_555 1_555
O3 C12 1_555 1_555
O4 C15 1_555 1_555
N1 C6 1_555 1_555
N2 C1 1_555 1_555
C1 C2 1_555 1_555
C2 C3 1_555 1_555
C3 C4 1_555 1_555
C4 C5 1_555 1_555
C5 C6 1_555 1_555
C6 C1 1_555 1_555
C7 N1 1_555 1_555
C8 C7 1_555 1_555
C9 O1 1_555 1_555
C10 C9 1_555 1_555
C11 O2 1_555 1_555
C12 C11 1_555 1_555
C13 O3 1_555 1_555
C14 N2 1_555 1_555
C15 N1 1_555 1_555
C16 C15 1_555 1_555
H1 N2 1_555 1_555
H2 C2 1_555 1_555
H3 C3 1_555 1_555
H4 C4 1_555 1_555
H5 C5 1_555 1_555
H6 C7 1_555 1_555
H7 C7 1_555 1_555
H8 C8 1_555 1_555
H9 C8 1_555 1_555
H10 C9 1_555 1_555
H11 C9 1_555 1_555
H12 C10 1_555 1_555
H13 C10 1_555 1_555
H14 C11 1_555 1_555
H15 C11 1_555 1_555
H16 C12 1_555 1_555
H17 C12 1_555 1_555
H18 C13 1_555 1_555
H19 C13 1_555 1_555
H20 C14 1_555 1_555
H21 C14 1_555 1_555
H22 C16 1_555 1_555
H23 C16 1_555 1_555
H24 C16 1_555 1_555
C13 C14 1_555 1_555

#END
