
#######################################################################
#
#                 Cambridge Crystallographic Data Centre
#                                CCDC 
#
#######################################################################
#
# If this CIF has been generated from an entry in the Cambridge 
# Structural Database, then it will include bibliographic, chemical, 
# crystal, experimental, refinement or atomic coordinate data resulting 
# from the CCDC's data processing and validation procedures.
#
#######################################################################

data_NAJSOI
_chemical_formula_moiety         'C16 H23 N1 O5'
_chemical_name_systematic        
7-Acetyl-2,3,6,7,8,9,11,12-octahydro-1,4,10,13,7-benzotetraoxaazacyclopentadecine
_symmetry_cell_setting           triclinic
_symmetry_space_group_name_H-M   'P -1'
_symmetry_Int_Tables_number      2
_space_group_name_Hall           '-P 1'
loop_
_symmetry_equiv_pos_site_id
_symmetry_equiv_pos_as_xyz
1 x,y,z
2 -x,-y,-z
_cell_length_a                   8.0215(4)
_cell_length_b                   9.2735(5)
_cell_length_c                   10.8191(5)
_cell_angle_alpha                90.031(2)
_cell_angle_beta                 95.766(2)
_cell_angle_gamma                98.946(2)
_cell_volume                     790.885
_exptl_crystal_colour            colorless
_exptl_crystal_description       block
_chemical_melting_point          '86-87deg. C'
_cell_formula_units_Z            2
_exptl_crystal_recrystallization_method dichloromethane/hexane
loop_
_atom_site_label
_atom_site_type_symbol
_atom_site_fract_x
_atom_site_fract_y
_atom_site_fract_z
O1 O 0.13949(12) 0.65124(9) 0.31288(8)
O2 O 0.27025(11) 0.55439(9) 0.53688(8)
O3 O 0.24702(12) 0.17227(10) 0.25996(8)
O4 O 0.14805(13) 0.44251(10) 0.16025(9)
O5 O 0.19930(14) 0.00779(10) 0.61557(10)
N1 N 0.33278(13) 0.23980(11) 0.59827(10)
C1 C 0.20433(17) 0.57876(14) 0.11795(12)
C2 C 0.26352(19) 0.60943(16) 0.00307(13)
C3 C 0.3193(2) 0.75452(16) -0.02809(14)
C4 C 0.31564(19) 0.86603(16) 0.05508(14)
C5 C 0.25623(17) 0.83645(15) 0.17093(13)
C6 C 0.20034(16) 0.69345(14) 0.20242(12)
C7 C 0.18441(17) 0.75140(14) 0.41612(12)
C8 C 0.16256(17) 0.66455(14) 0.53296(13)
C9 C 0.29394(17) 0.49584(14) 0.65815(12)
C10 C 0.40994(16) 0.38119(13) 0.65640(12)
C11 C 0.36112(17) 0.20792(14) 0.46965(12)
C12 C 0.20825(16) 0.22166(14) 0.37789(12)
C13 C 0.11825(18) 0.18501(14) 0.16105(13)
C14 C 0.16325(19) 0.31939(14) 0.08489(13)
C15 C 0.25258(17) 0.12870(14) 0.66375(12)
C16 C 0.2296(2) 0.15877(16) 0.79771(14)
H1 H 0.261(2) 0.5298(18) -0.0552(16)
H2 H 0.360(2) 0.775(2) -0.1109(18)
H3 H 0.353(2) 0.964(2) 0.0351(17)
H4 H 0.259(2) 0.9119(19) 0.2273(16)
H5 H 0.113(2) 0.8261(17) 0.4107(15)
H6 H 0.3030(19) 0.8006(15) 0.4151(13)
H7 H 0.1938(18) 0.7309(16) 0.6051(14)
H8 H 0.044(2) 0.6165(17) 0.5360(15)
H9 H 0.182(2) 0.4553(16) 0.6855(14)
H10 H 0.350(2) 0.5727(17) 0.7155(15)
H11 H 0.5062(19) 0.4194(15) 0.6131(14)
H12 H 0.4555(18) 0.3655(15) 0.7416(14)
H13 H 0.389(2) 0.1067(18) 0.4663(15)
H14 H 0.4595(19) 0.2778(17) 0.4477(14)
H15 H 0.1031(19) 0.1603(16) 0.4009(14)
H16 H 0.1897(17) 0.3241(15) 0.3722(13)
H17 H 0.0072(19) 0.1866(16) 0.1968(14)
H18 H 0.1110(19) 0.1011(17) 0.1064(15)
H19 H 0.285(2) 0.3290(17) 0.0636(15)
H20 H 0.082(2) 0.3175(17) 0.0082(16)
H21 H 0.165(2) 0.077(2) 0.8303(18)
H22 H 0.174(2) 0.243(2) 0.8063(18)
H23 H 0.341(3) 0.177(2) 0.8504(18)
loop_
_geom_bond_atom_site_label_1
_geom_bond_atom_site_label_2
_geom_bond_site_symmetry_1
_geom_bond_site_symmetry_2
O1 C6 1_555 1_555
O2 C8 1_555 1_555
O3 C12 1_555 1_555
O4 C1 1_555 1_555
O5 C15 1_555 1_555
N1 C10 1_555 1_555
C1 C2 1_555 1_555
C2 C3 1_555 1_555
C3 C4 1_555 1_555
C4 C5 1_555 1_555
C5 C6 1_555 1_555
C6 C1 1_555 1_555
C7 O1 1_555 1_555
C8 C7 1_555 1_555
C9 O2 1_555 1_555
C10 C9 1_555 1_555
C11 N1 1_555 1_555
C12 C11 1_555 1_555
C13 O3 1_555 1_555
C14 O4 1_555 1_555
C15 N1 1_555 1_555
C16 C15 1_555 1_555
H1 C2 1_555 1_555
H2 C3 1_555 1_555
H3 C4 1_555 1_555
H4 C5 1_555 1_555
H5 C7 1_555 1_555
H6 C7 1_555 1_555
H7 C8 1_555 1_555
H8 C8 1_555 1_555
H9 C9 1_555 1_555
H10 C9 1_555 1_555
H11 C10 1_555 1_555
H12 C10 1_555 1_555
H13 C11 1_555 1_555
H14 C11 1_555 1_555
H15 C12 1_555 1_555
H16 C12 1_555 1_555
H17 C13 1_555 1_555
H18 C13 1_555 1_555
H19 C14 1_555 1_555
H20 C14 1_555 1_555
H21 C16 1_555 1_555
H22 C16 1_555 1_555
H23 C16 1_555 1_555
C13 C14 1_555 1_555

#END
