
#######################################################################
#
#                 Cambridge Crystallographic Data Centre
#                                CCDC 
#
#######################################################################
#
# If this CIF has been generated from an entry in the Cambridge 
# Structural Database, then it will include bibliographic, chemical, 
# crystal, experimental, refinement or atomic coordinate data resulting 
# from the CCDC's data processing and validation procedures.
#
#######################################################################

data_NAJTUP
_chemical_formula_moiety         'C28 H42 Ba2 Cl4 N2 O24'
_chemical_name_systematic        
bis(\m~2~-perchlorato-O,O',O'')-bis(2,3,6,7,8,9,11,12-octahydro-5H-1,4,10,13,7-benzotetraoxaazacyclopentadecine)-bis(perchlorato-O,O')-di-barium
_symmetry_cell_setting           triclinic
_symmetry_space_group_name_H-M   'P -1'
_symmetry_Int_Tables_number      2
_space_group_name_Hall           '-P 1'
loop_
_symmetry_equiv_pos_site_id
_symmetry_equiv_pos_as_xyz
1 x,y,z
2 -x,-y,-z
_cell_length_a                   11.9951(7)
_cell_length_b                   14.0697(8)
_cell_length_c                   15.3256(8)
_cell_angle_alpha                115.317(2)
_cell_angle_beta                 92.818(2)
_cell_angle_gamma                113.811(2)
_cell_volume                     2060.67
_exptl_crystal_colour            colorless
_exptl_crystal_description       block
_chemical_melting_point          '312-313deg. C(dec.)'
_cell_formula_units_Z            2
_exptl_crystal_recrystallization_method benzene/acetonitrile
loop_
_atom_site_label
_atom_site_type_symbol
_atom_site_fract_x
_atom_site_fract_y
_atom_site_fract_z
Ba1 Ba 0.955937(14) 0.333059(13) 0.560258(11)
Cl1 Cl 1.21560(7) 0.29997(6) 0.49695(5)
O1 O 1.2138(2) 0.3846(2) 0.59292(17)
O2 O 1.0908(2) 0.2406(2) 0.42980(17)
O3 O 1.3080(2) 0.3609(2) 0.4584(2)
O4 O 1.2425(3) 0.2144(2) 0.5068(2)
Cl2 Cl 1.07142(6) 0.64223(6) 0.66628(5)
O5 O 0.9536(2) 0.55755(19) 0.58844(18)
O6 O 1.1306(2) 0.57618(18) 0.68048(17)
O7 O 0.8475(2) 0.2787(2) 0.36638(18)
O8 O 1.0505(2) 0.7099(2) 0.75766(18)
O17 O 0.69968(19) 0.26813(19) 0.55423(16)
O18 O 0.88016(19) 0.43572(18) 0.73385(15)
O19 O 0.9480(2) 0.13180(19) 0.55504(17)
O20 O 0.74098(19) 0.09575(17) 0.43322(17)
N1 N 1.0591(2) 0.3458(2) 0.7451(2)
C1 C 0.6232(3) 0.0850(3) 0.4074(2)
C2 C 0.5292(3) -0.0122(3) 0.3226(3)
C3 C 0.4144(3) -0.0147(3) 0.2988(2)
C4 C 0.3937(3) 0.0792(3) 0.3600(2)
C5 C 0.4878(3) 0.1773(3) 0.4455(2)
C6 C 0.6014(3) 0.1785(3) 0.4701(2)
C7 C 0.6709(3) 0.3469(3) 0.6367(2)
H1 H 0.5800 0.3074 0.6333
H2 H 0.6904 0.4207 0.6336
C8 C 0.7504(3) 0.3757(3) 0.7313(2)
H3 H 0.7316 0.4274 0.7899
H4 H 0.7321 0.3016 0.7334
C9 C 0.9669(3) 0.4778(3) 0.8262(2)
C10 C 0.9945(3) 0.3800(3) 0.8231(2)
C11 C 1.0646(3) 0.2361(3) 0.7252(3)
C12 C 0.9471(3) 0.1273(3) 0.6465(3)
C13 C 0.8727(3) 0.0223(3) 0.4647(3)
H5 H 0.8769 -0.0434 0.4710
H6 H 0.9080 0.0264 0.4086
C14 C 0.7391(3) -0.0040(3) 0.4414(3)
H7 H 0.6896 -0.0794 0.3777
H8 H 0.7009 -0.0113 0.4955
H19 H 1.130(3) 0.403(3) 0.764(3)
H21 H 0.539(3) -0.071(3) 0.284(3)
H22 H 0.350(3) -0.078(3) 0.243(3)
H23 H 0.318(3) 0.080(3) 0.341(3)
H24 H 0.473(3) 0.233(3) 0.487(3)
H25 H 0.930(3) 0.509(3) 0.887(2)
H26 H 1.050(3) 0.546(3) 0.831(2)
H27 H 1.050(4) 0.402(4) 0.882(4)
H28 H 0.916(3) 0.307(3) 0.809(3)
H29 H 1.075(3) 0.229(3) 0.790(3)
H30 H 1.136(3) 0.236(3) 0.700(2)
H31 H 0.954(3) 0.059(3) 0.641(3)
H32 H 0.870(3) 0.126(3) 0.663(2)
Ba1A Ba 1.044063(14) 0.666941(13) 0.439742(11)
Cl1A Cl 0.78440(7) 0.70003(6) 0.50305(5)
O1A O 0.7862(2) 0.6154(2) 0.40708(17)
O2A O 0.9092(2) 0.7594(2) 0.57020(17)
O3A O 0.6920(2) 0.6391(2) 0.5416(2)
O4A O 0.7575(3) 0.7856(2) 0.4932(2)
Cl2A Cl 0.92858(6) 0.35777(6) 0.33372(5)
O5A O 1.0464(2) 0.44245(19) 0.41156(18)
O6A O 0.8694(2) 0.42382(18) 0.31952(17)
O7A O 1.1525(2) 0.7213(2) 0.63362(18)
O8A O 0.9495(2) 0.2901(2) 0.24234(18)
O17A O 1.30032(19) 0.73187(19) 0.44577(16)
O18A O 1.11984(19) 0.56428(18) 0.26615(15)
O19A O 1.0520(2) 0.86820(19) 0.44496(17)
O20A O 1.25902(19) 0.90425(17) 0.56678(17)
N1A N 0.9409(2) 0.6542(2) 0.2549(2)
C1A C 1.3768(3) 0.9150(3) 0.5926(2)
C2A C 1.4708(3) 1.0122(3) 0.6774(3)
C3A C 1.5856(3) 1.0147(3) 0.7012(2)
C4A C 1.6063(3) 0.9208(3) 0.6400(2)
C5A C 1.5122(3) 0.8227(3) 0.5545(2)
C6A C 1.3986(3) 0.8215(3) 0.5299(2)
C7A C 1.3291(3) 0.6531(3) 0.3633(2)
H1A H 1.4200 0.6926 0.3667
H2A H 1.3096 0.5793 0.3664
C8A C 1.2496(3) 0.6243(3) 0.2687(2)
H3A H 1.2684 0.5726 0.2101
H4A H 1.2679 0.6984 0.2666
C9A C 1.0331(3) 0.5222(3) 0.1738(2)
C10A C 1.0055(3) 0.6200(3) 0.1769(2)
C11A C 0.9354(3) 0.7639(3) 0.2748(3)
C12A C 1.0529(3) 0.8727(3) 0.3535(3)
C13A C 1.1273(3) 0.9777(3) 0.5353(3)
H5A H 1.1231 1.0434 0.5290
H6A H 1.0920 0.9736 0.5914
C14A C 1.2609(3) 1.0040(3) 0.5586(3)
H7A H 1.3104 1.0794 0.6223
H8A H 1.2991 1.0113 0.5045
H19A H 0.870(3) 0.597(3) 0.236(3)
H21A H 1.461(3) 1.071(3) 0.716(3)
H22A H 1.650(3) 1.078(3) 0.757(3)
H23A H 1.682(3) 0.920(3) 0.659(3)
H24A H 1.527(3) 0.767(3) 0.513(3)
H25A H 1.070(3) 0.491(3) 0.113(2)
H26A H 0.950(3) 0.454(3) 0.169(2)
H27A H 0.950(4) 0.598(4) 0.118(4)
H28A H 1.084(3) 0.693(3) 0.191(3)
H29A H 0.925(3) 0.771(3) 0.210(3)
H30A H 0.864(3) 0.764(3) 0.300(2)
H31A H 1.046(3) 0.941(3) 0.359(3)
H32A H 1.130(3) 0.874(3) 0.337(2)
Ba2 Ba 0.456091(14) 0.325413(13) 0.055919(11)
Cl3 Cl 0.71165(7) 0.29792(6) -0.02199(6)
O9 O 0.5826(2) 0.2320(2) -0.08409(17)
O10 O 0.7102(2) 0.3685(2) 0.07909(17)
O11 O 0.7908(2) 0.3740(2) -0.0558(2)
O12 O 0.7556(3) 0.2171(3) -0.0248(2)
Cl4 Cl 0.57435(7) 0.63331(6) 0.16628(5)
O13 O 0.6300(2) 0.56636(19) 0.18339(18)
O14 O 0.4534(2) 0.5483(2) 0.09179(18)
O15 O 0.3454(3) 0.2960(2) -0.1276(2)
O16 O 0.5577(3) 0.7075(2) 0.2573(2)
O21 O 0.19896(19) 0.23265(19) 0.05013(16)
O22 O 0.37132(18) 0.40653(17) 0.23154(15)
O23 O 0.4286(2) 0.11343(18) 0.05146(16)
O24 O 0.26435(19) 0.09919(17) -0.09242(16)
N2 N 0.5693(2) 0.3368(2) 0.23551(19)
C17 C 0.1399(3) 0.0745(2) -0.1132(2)
C18 C 0.0514(3) -0.0161(3) -0.2035(2)
C19 C -0.0690(3) -0.0280(3) -0.2208(2)
C20 C -0.1000(3) 0.0514(3) -0.1488(2)
C21 C -0.0128(3) 0.1408(3) -0.0576(2)
C22 C 0.1061(3) 0.1504(3) -0.0390(2)
C23 C 0.1564(3) 0.2839(3) 0.1365(2)
H13 H 0.0722 0.2244 0.1314
H14 H 0.1494 0.3533 0.1406
C24 C 0.2511(3) 0.3222(3) 0.2282(2)
C25 C 0.4666(3) 0.4567(2) 0.3219(2)
H15 H 0.4315 0.4798 0.3801
H16 H 0.5394 0.5295 0.3306
C26 C 0.5119(3) 0.3694(3) 0.3192(2)
C27 C 0.5808(3) 0.2283(3) 0.2111(2)
C28 C 0.4587(3) 0.1172(3) 0.1445(2)
C29 C 0.3223(3) 0.0008(3) -0.0190(3)
C30 C 0.2946(3) 0.0021(3) -0.1144(2)
H17 H 0.3691 0.0145 -0.1419
H18 H 0.2223 -0.0748 -0.1646
H20 H 0.642(3) 0.400(3) 0.252(3)
H33 H 0.072(4) -0.073(3) -0.260(3)
H34 H -0.136(3) -0.095(3) -0.289(3)
H35 H -0.176(3) 0.051(3) -0.156(3)
H36 H -0.036(3) 0.198(3) -0.014(3)
H37 H 0.225(3) 0.371(3) 0.294(3)
H38 H 0.264(3) 0.259(3) 0.237(3)
H39 H 0.565(4) 0.395(3) 0.370(3)
H40 H 0.441(3) 0.295(3) 0.309(2)
H41 H 0.617(3) 0.226(3) 0.276(3)
H42 H 0.649(3) 0.235(3) 0.180(3)
H43 H 0.472(3) 0.047(3) 0.139(3)
H44 H 0.393(3) 0.119(3) 0.179(2)
H45 H 0.229(3) -0.020(3) 0.001(3)
H46 H 0.332(4) -0.076(4) -0.037(3)
Ba2A Ba 0.543909(14) 0.674587(13) -0.055919(11)
Cl3A Cl 0.28835(7) 0.70208(6) 0.02199(6)
O9A O 0.4174(2) 0.7680(2) 0.08409(17)
O10A O 0.2898(2) 0.6315(2) -0.07909(17)
O11A O 0.2092(2) 0.6260(2) 0.0558(2)
O12A O 0.2444(3) 0.7829(3) 0.0248(2)
Cl4A Cl 0.42565(7) 0.36669(6) -0.16628(5)
O13A O 0.3700(2) 0.43364(19) -0.18339(18)
O14A O 0.5466(2) 0.4517(2) -0.09179(18)
O15A O 0.6546(3) 0.7040(2) 0.1276(2)
O16A O 0.4423(3) 0.2925(2) -0.2573(2)
O21A O 0.80104(19) 0.76735(19) -0.05013(16)
O22A O 0.62868(18) 0.59347(17) -0.23154(15)
O23A O 0.5714(2) 0.88657(18) -0.05146(16)
O24A O 0.73565(19) 0.90081(17) 0.09242(16)
N2A N 0.4307(2) 0.6632(2) -0.23551(19)
C17A C 0.8601(3) 0.9255(2) 0.1132(2)
C18A C 0.9486(3) 1.0161(3) 0.2035(2)
C19A C 1.0690(3) 1.0280(3) 0.2208(2)
C20A C 1.1000(3) 0.9486(3) 0.1488(2)
C21A C 1.0128(3) 0.8592(3) 0.0576(2)
C22A C 0.8939(3) 0.8496(3) 0.0390(2)
C23A C 0.8436(3) 0.7161(3) -0.1365(2)
H13A H 0.9278 0.7756 -0.1314
H14A H 0.8506 0.6467 -0.1406
C24A C 0.7489(3) 0.6778(3) -0.2282(2)
C25A C 0.5334(3) 0.5433(2) -0.3219(2)
H15A H 0.5685 0.5202 -0.3801
H16A H 0.4606 0.4705 -0.3306
C26A C 0.4881(3) 0.6306(3) -0.3192(2)
C27A C 0.4192(3) 0.7717(3) -0.2111(2)
C28A C 0.5413(3) 0.8828(3) -0.1445(2)
C29A C 0.6777(3) 0.9992(3) 0.0190(3)
C30A C 0.7054(3) 0.9979(3) 0.1144(2)
H17A H 0.6309 0.9855 0.1419
H18A H 0.7777 1.0748 0.1646
H20A H 0.358(3) 0.600(3) -0.252(3)
H33A H 0.928(4) 1.073(3) 0.260(3)
H34A H 1.136(3) 1.095(3) 0.289(3)
H35A H 1.176(3) 0.949(3) 0.156(3)
H36A H 1.036(3) 0.802(3) 0.014(3)
H37A H 0.775(3) 0.629(3) -0.294(3)
H38A H 0.736(3) 0.741(3) -0.237(3)
H39A H 0.435(4) 0.605(3) -0.370(3)
H40A H 0.559(3) 0.705(3) -0.309(2)
H41A H 0.383(3) 0.774(3) -0.276(3)
H42A H 0.351(3) 0.765(3) -0.180(3)
H43A H 0.528(3) 0.953(3) -0.139(3)
H44A H 0.607(3) 0.881(3) -0.179(2)
H45A H 0.771(3) 1.020(3) -0.001(3)
H46A H 0.668(4) 1.076(4) 0.037(3)
C15? C 0.812(3) 0.010(3) 0.490(2)
H9? H 0.7426 0.0159 0.5214
H10? H 0.8166 -0.0617 0.4819
C16? C 0.795(4) 0.012(3) 0.383(3)
H11? H 0.8759 0.0484 0.3681
H12? H 0.7342 -0.0655 0.3253
loop_
_geom_bond_atom_site_label_1
_geom_bond_atom_site_label_2
_geom_bond_site_symmetry_1
_geom_bond_site_symmetry_2
Ba1 O1 1_555 1_555
Ba2 O9 1_555 1_555
Cl1 O1 1_555 1_555
O2 Ba1 1_555 1_555
O3 Cl1 1_555 1_555
O4 Cl1 1_555 1_555
Cl2 O5 1_555 1_555
O5 Ba1 1_555 1_555
O6 Ba1 1_555 1_555
O7 Ba1 1_555 1_555
O8 Cl2 1_555 1_555
Cl3 O9 1_555 1_555
O10 Ba2 1_555 1_555
O11 Cl3 1_555 1_555
O12 Cl3 1_555 1_555
Cl4 O13 1_555 1_555
O13 Ba2 1_555 1_555
O14 Ba2 1_555 1_555
O15 Ba2 1_555 1_555
O16 Cl4 1_555 1_555
O17 Ba1 1_555 1_555
O18 Ba1 1_555 1_555
O19 Ba1 1_555 1_555
O20 Ba1 1_555 1_555
O21 Ba2 1_555 1_555
O22 Ba2 1_555 1_555
O23 Ba2 1_555 1_555
O24 Ba2 1_555 1_555
N1 Ba1 1_555 1_555
N2 Ba2 1_555 1_555
C1 O20 1_555 1_555
C2 C1 1_555 1_555
C3 C2 1_555 1_555
C4 C3 1_555 1_555
C5 C4 1_555 1_555
C6 O17 1_555 1_555
C7 O17 1_555 1_555
H1 C7 1_555 1_555
H2 C7 1_555 1_555
C8 O18 1_555 1_555
H3 C8 1_555 1_555
H4 C8 1_555 1_555
C9 O18 1_555 1_555
C10 N1 1_555 1_555
C11 N1 1_555 1_555
C12 O19 1_555 1_555
C13 O19 1_555 1_555
H5 C13 1_555 1_555
H6 C13 1_555 1_555
C14 O20 1_555 1_555
H7 C14 1_555 1_555
H8 C14 1_555 1_555
C17 O24 1_555 1_555
C18 C17 1_555 1_555
C19 C18 1_555 1_555
C20 C19 1_555 1_555
C21 C20 1_555 1_555
C22 O21 1_555 1_555
C23 O21 1_555 1_555
H13 C23 1_555 1_555
H14 C23 1_555 1_555
C24 O22 1_555 1_555
C25 O22 1_555 1_555
H15 C25 1_555 1_555
H16 C25 1_555 1_555
C26 N2 1_555 1_555
C27 N2 1_555 1_555
C28 O23 1_555 1_555
C29 O23 1_555 1_555
C30 O24 1_555 1_555
H17 C30 1_555 1_555
H18 C30 1_555 1_555
H19 N1 1_555 1_555
H20 N2 1_555 1_555
H21 C2 1_555 1_555
H22 C3 1_555 1_555
H23 C4 1_555 1_555
H24 C5 1_555 1_555
H25 C9 1_555 1_555
H26 C9 1_555 1_555
H27 C10 1_555 1_555
H28 C10 1_555 1_555
H29 C11 1_555 1_555
H30 C11 1_555 1_555
H31 C12 1_555 1_555
H32 C12 1_555 1_555
H33 C18 1_555 1_555
H34 C19 1_555 1_555
H35 C20 1_555 1_555
H36 C21 1_555 1_555
H37 C24 1_555 1_555
H38 C24 1_555 1_555
H39 C26 1_555 1_555
H40 C26 1_555 1_555
H41 C27 1_555 1_555
H42 C27 1_555 1_555
H43 C28 1_555 1_555
H44 C28 1_555 1_555
H45 C29 1_555 1_555
H46 C29 1_555 1_555
Ba1A O1A 1_555 1_555
Ba2A O9A 1_555 1_555
Cl1A O1A 1_555 1_555
O2A Ba1A 1_555 1_555
O3A Cl1A 1_555 1_555
O4A Cl1A 1_555 1_555
Cl2A O7 1_555 1_555
O5A Ba1A 1_555 1_555
O6A Ba1A 1_555 1_555
O7A Cl2 1_555 1_555
O8A Cl2A 1_555 1_555
Cl3A O9A 1_555 1_555
O10A Ba2A 1_555 1_555
O11A Cl3A 1_555 1_555
O12A Cl3A 1_555 1_555
Cl4A O15 1_555 1_555
O13A Ba2A 1_555 1_555
O14A Ba2A 1_555 1_555
O15A Cl4 1_555 1_555
O16A Cl4A 1_555 1_555
O17A Ba1A 1_555 1_555
O18A Ba1A 1_555 1_555
O19A Ba1A 1_555 1_555
O20A Ba1A 1_555 1_555
O21A Ba2A 1_555 1_555
O22A Ba2A 1_555 1_555
O23A Ba2A 1_555 1_555
O24A Ba2A 1_555 1_555
N1A Ba1A 1_555 1_555
N2A Ba2A 1_555 1_555
C1A O20A 1_555 1_555
C2A C1A 1_555 1_555
C3A C2A 1_555 1_555
C4A C3A 1_555 1_555
C5A C4A 1_555 1_555
C6A O17A 1_555 1_555
C7A O17A 1_555 1_555
H1A C7A 1_555 1_555
H2A C7A 1_555 1_555
C8A O18A 1_555 1_555
H3A C8A 1_555 1_555
H4A C8A 1_555 1_555
C9A O18A 1_555 1_555
C10A N1A 1_555 1_555
C11A N1A 1_555 1_555
C12A O19A 1_555 1_555
C13A O19A 1_555 1_555
H5A C13A 1_555 1_555
H6A C13A 1_555 1_555
C14A O20A 1_555 1_555
H7A C14A 1_555 1_555
H8A C14A 1_555 1_555
C17A O24A 1_555 1_555
C18A C17A 1_555 1_555
C19A C18A 1_555 1_555
C20A C19A 1_555 1_555
C21A C20A 1_555 1_555
C22A O21A 1_555 1_555
C23A O21A 1_555 1_555
H13A C23A 1_555 1_555
H14A C23A 1_555 1_555
C24A O22A 1_555 1_555
C25A O22A 1_555 1_555
H15A C25A 1_555 1_555
H16A C25A 1_555 1_555
C26A N2A 1_555 1_555
C27A N2A 1_555 1_555
C28A O23A 1_555 1_555
C29A O23A 1_555 1_555
C30A O24A 1_555 1_555
H17A C30A 1_555 1_555
H18A C30A 1_555 1_555
H19A N1A 1_555 1_555
H20A N2A 1_555 1_555
H21A C2A 1_555 1_555
H22A C3A 1_555 1_555
H23A C4A 1_555 1_555
H24A C5A 1_555 1_555
H25A C9A 1_555 1_555
H26A C9A 1_555 1_555
H27A C10A 1_555 1_555
H28A C10A 1_555 1_555
H29A C11A 1_555 1_555
H30A C11A 1_555 1_555
H31A C12A 1_555 1_555
H32A C12A 1_555 1_555
H33A C18A 1_555 1_555
H34A C19A 1_555 1_555
H35A C20A 1_555 1_555
H36A C21A 1_555 1_555
H37A C24A 1_555 1_555
H38A C24A 1_555 1_555
H39A C26A 1_555 1_555
H40A C26A 1_555 1_555
H41A C27A 1_555 1_555
H42A C27A 1_555 1_555
H43A C28A 1_555 1_555
H44A C28A 1_555 1_555
H45A C29A 1_555 1_555
H46A C29A 1_555 1_555
Cl1 O2 1_555 1_555
Cl2 O6 1_555 1_555
Cl3 O10 1_555 1_555
Cl4 O14 1_555 1_555
C1 C6 1_555 1_555
C5 C6 1_555 1_555
C7 C8 1_555 1_555
C9 C10 1_555 1_555
C11 C12 1_555 1_555
C13 C14 1_555 1_555
C17 C22 1_555 1_555
C21 C22 1_555 1_555
C23 C24 1_555 1_555
C25 C26 1_555 1_555
C27 C28 1_555 1_555
C29 C30 1_555 1_555
Ba1A O7A 1_555 1_555
Ba2A O15A 1_555 1_555
Cl1A O2A 1_555 1_555
Cl2A O5A 1_555 1_555
Cl2A O6A 1_555 1_555
Cl3A O10A 1_555 1_555
Cl4A O13A 1_555 1_555
Cl4A O14A 1_555 1_555
C1A C6A 1_555 1_555
C5A C6A 1_555 1_555
C7A C8A 1_555 1_555
C9A C10A 1_555 1_555
C11A C12A 1_555 1_555
C13A C14A 1_555 1_555
C17A C22A 1_555 1_555
C21A C22A 1_555 1_555
C23A C24A 1_555 1_555
C25A C26A 1_555 1_555
C27A C28A 1_555 1_555
C29A C30A 1_555 1_555

#END
